# Generated by pormake.
# Topology pem, (4)-cn, num edge types: 1
# Building blocks:
#     Node 0, Type 0, BuildingBlock: CEKHIL_clean_sbu_0, # of connection points: 4
#     Node 1, Type 0, BuildingBlock: CEKHIL_clean_sbu_0, # of connection points: 4
#     Node 2, Type 0, BuildingBlock: CEKHIL_clean_sbu_0, # of connection points: 4
#     Node 3, Type 0, BuildingBlock: CEKHIL_clean_sbu_0, # of connection points: 4
#     Node 4, Type 0, BuildingBlock: CEKHIL_clean_sbu_0, # of connection points: 4
#     Node 5, Type 0, BuildingBlock: CEKHIL_clean_sbu_0, # of connection points: 4
#     Node 6, Type 0, BuildingBlock: CEKHIL_clean_sbu_0, # of connection points: 4
#     Node 7, Type 0, BuildingBlock: CEKHIL_clean_sbu_0, # of connection points: 4
#     Node 8, Type 0, BuildingBlock: CEKHIL_clean_sbu_0, # of connection points: 4
#     Node 9, Type 0, BuildingBlock: CEKHIL_clean_sbu_0, # of connection points: 4
#     Node 10, Type 0, BuildingBlock: CEKHIL_clean_sbu_0, # of connection points: 4
#     Node 11, Type 0, BuildingBlock: CEKHIL_clean_sbu_0, # of connection points: 4
#     Node 12, Type 0, BuildingBlock: CEKHIL_clean_sbu_0, # of connection points: 4
#     Node 13, Type 0, BuildingBlock: CEKHIL_clean_sbu_0, # of connection points: 4
#     Node 14, Type 0, BuildingBlock: CEKHIL_clean_sbu_0, # of connection points: 4
#     Node 15, Type 0, BuildingBlock: CEKHIL_clean_sbu_0, # of connection points: 4
#     Node 16, Type 0, BuildingBlock: CEKHIL_clean_sbu_0, # of connection points: 4
#     Node 17, Type 0, BuildingBlock: CEKHIL_clean_sbu_0, # of connection points: 4
#     Node 18, Type 0, BuildingBlock: CEKHIL_clean_sbu_0, # of connection points: 4
#     Node 19, Type 0, BuildingBlock: CEKHIL_clean_sbu_0, # of connection points: 4
#     Node 20, Type 0, BuildingBlock: CEKHIL_clean_sbu_0, # of connection points: 4
#     Node 21, Type 0, BuildingBlock: CEKHIL_clean_sbu_0, # of connection points: 4
#     Node 22, Type 0, BuildingBlock: CEKHIL_clean_sbu_0, # of connection points: 4
#     Node 23, Type 0, BuildingBlock: CEKHIL_clean_sbu_0, # of connection points: 4
#     Node 24, Type 0, BuildingBlock: CEKHIL_clean_sbu_0, # of connection points: 4
#     Node 25, Type 0, BuildingBlock: CEKHIL_clean_sbu_0, # of connection points: 4
#     Node 26, Type 0, BuildingBlock: CEKHIL_clean_sbu_0, # of connection points: 4
#     Node 27, Type 0, BuildingBlock: CEKHIL_clean_sbu_0, # of connection points: 4
#     Node 28, Type 0, BuildingBlock: CEKHIL_clean_sbu_0, # of connection points: 4
#     Node 29, Type 0, BuildingBlock: CEKHIL_clean_sbu_0, # of connection points: 4
#     Node 30, Type 0, BuildingBlock: CEKHIL_clean_sbu_0, # of connection points: 4
#     Node 31, Type 0, BuildingBlock: CEKHIL_clean_sbu_0, # of connection points: 4
#     Edge 32, Type (0, 0), BuildingBlock: OJICUG_clean_linker_0, # of connection points: 2
#     Edge 33, Type (0, 0), BuildingBlock: OJICUG_clean_linker_0, # of connection points: 2
#     Edge 34, Type (0, 0), BuildingBlock: OJICUG_clean_linker_0, # of connection points: 2
#     Edge 35, Type (0, 0), BuildingBlock: OJICUG_clean_linker_0, # of connection points: 2
#     Edge 36, Type (0, 0), BuildingBlock: OJICUG_clean_linker_0, # of connection points: 2
#     Edge 37, Type (0, 0), BuildingBlock: OJICUG_clean_linker_0, # of connection points: 2
#     Edge 38, Type (0, 0), BuildingBlock: OJICUG_clean_linker_0, # of connection points: 2
#     Edge 39, Type (0, 0), BuildingBlock: OJICUG_clean_linker_0, # of connection points: 2
#     Edge 40, Type (0, 0), BuildingBlock: OJICUG_clean_linker_0, # of connection points: 2
#     Edge 41, Type (0, 0), BuildingBlock: OJICUG_clean_linker_0, # of connection points: 2
#     Edge 42, Type (0, 0), BuildingBlock: OJICUG_clean_linker_0, # of connection points: 2
#     Edge 43, Type (0, 0), BuildingBlock: OJICUG_clean_linker_0, # of connection points: 2
#     Edge 44, Type (0, 0), BuildingBlock: OJICUG_clean_linker_0, # of connection points: 2
#     Edge 45, Type (0, 0), BuildingBlock: OJICUG_clean_linker_0, # of connection points: 2
#     Edge 46, Type (0, 0), BuildingBlock: OJICUG_clean_linker_0, # of connection points: 2
#     Edge 47, Type (0, 0), BuildingBlock: OJICUG_clean_linker_0, # of connection points: 2
#     Edge 48, Type (0, 0), BuildingBlock: OJICUG_clean_linker_0, # of connection points: 2
#     Edge 49, Type (0, 0), BuildingBlock: OJICUG_clean_linker_0, # of connection points: 2
#     Edge 50, Type (0, 0), BuildingBlock: OJICUG_clean_linker_0, # of connection points: 2
#     Edge 51, Type (0, 0), BuildingBlock: OJICUG_clean_linker_0, # of connection points: 2
#     Edge 52, Type (0, 0), BuildingBlock: OJICUG_clean_linker_0, # of connection points: 2
#     Edge 53, Type (0, 0), BuildingBlock: OJICUG_clean_linker_0, # of connection points: 2
#     Edge 54, Type (0, 0), BuildingBlock: OJICUG_clean_linker_0, # of connection points: 2
#     Edge 55, Type (0, 0), BuildingBlock: OJICUG_clean_linker_0, # of connection points: 2
#     Edge 56, Type (0, 0), BuildingBlock: OJICUG_clean_linker_0, # of connection points: 2
#     Edge 57, Type (0, 0), BuildingBlock: OJICUG_clean_linker_0, # of connection points: 2
#     Edge 58, Type (0, 0), BuildingBlock: OJICUG_clean_linker_0, # of connection points: 2
#     Edge 59, Type (0, 0), BuildingBlock: OJICUG_clean_linker_0, # of connection points: 2
#     Edge 60, Type (0, 0), BuildingBlock: OJICUG_clean_linker_0, # of connection points: 2
#     Edge 61, Type (0, 0), BuildingBlock: OJICUG_clean_linker_0, # of connection points: 2
#     Edge 62, Type (0, 0), BuildingBlock: OJICUG_clean_linker_0, # of connection points: 2
#     Edge 63, Type (0, 0), BuildingBlock: OJICUG_clean_linker_0, # of connection points: 2
#     Edge 64, Type (0, 0), BuildingBlock: OJICUG_clean_linker_0, # of connection points: 2
#     Edge 65, Type (0, 0), BuildingBlock: OJICUG_clean_linker_0, # of connection points: 2
#     Edge 66, Type (0, 0), BuildingBlock: OJICUG_clean_linker_0, # of connection points: 2
#     Edge 67, Type (0, 0), BuildingBlock: OJICUG_clean_linker_0, # of connection points: 2
#     Edge 68, Type (0, 0), BuildingBlock: OJICUG_clean_linker_0, # of connection points: 2
#     Edge 69, Type (0, 0), BuildingBlock: OJICUG_clean_linker_0, # of connection points: 2
#     Edge 70, Type (0, 0), BuildingBlock: OJICUG_clean_linker_0, # of connection points: 2
#     Edge 71, Type (0, 0), BuildingBlock: OJICUG_clean_linker_0, # of connection points: 2
#     Edge 72, Type (0, 0), BuildingBlock: OJICUG_clean_linker_0, # of connection points: 2
#     Edge 73, Type (0, 0), BuildingBlock: OJICUG_clean_linker_0, # of connection points: 2
#     Edge 74, Type (0, 0), BuildingBlock: OJICUG_clean_linker_0, # of connection points: 2
#     Edge 75, Type (0, 0), BuildingBlock: OJICUG_clean_linker_0, # of connection points: 2
#     Edge 76, Type (0, 0), BuildingBlock: OJICUG_clean_linker_0, # of connection points: 2
#     Edge 77, Type (0, 0), BuildingBlock: OJICUG_clean_linker_0, # of connection points: 2
#     Edge 78, Type (0, 0), BuildingBlock: OJICUG_clean_linker_0, # of connection points: 2
#     Edge 79, Type (0, 0), BuildingBlock: OJICUG_clean_linker_0, # of connection points: 2
#     Edge 80, Type (0, 0), BuildingBlock: OJICUG_clean_linker_0, # of connection points: 2
#     Edge 81, Type (0, 0), BuildingBlock: OJICUG_clean_linker_0, # of connection points: 2
#     Edge 82, Type (0, 0), BuildingBlock: OJICUG_clean_linker_0, # of connection points: 2
#     Edge 83, Type (0, 0), BuildingBlock: OJICUG_clean_linker_0, # of connection points: 2
#     Edge 84, Type (0, 0), BuildingBlock: OJICUG_clean_linker_0, # of connection points: 2
#     Edge 85, Type (0, 0), BuildingBlock: OJICUG_clean_linker_0, # of connection points: 2
#     Edge 86, Type (0, 0), BuildingBlock: OJICUG_clean_linker_0, # of connection points: 2
#     Edge 87, Type (0, 0), BuildingBlock: OJICUG_clean_linker_0, # of connection points: 2
#     Edge 88, Type (0, 0), BuildingBlock: OJICUG_clean_linker_0, # of connection points: 2
#     Edge 89, Type (0, 0), BuildingBlock: OJICUG_clean_linker_0, # of connection points: 2
#     Edge 90, Type (0, 0), BuildingBlock: OJICUG_clean_linker_0, # of connection points: 2
#     Edge 91, Type (0, 0), BuildingBlock: OJICUG_clean_linker_0, # of connection points: 2
#     Edge 92, Type (0, 0), BuildingBlock: OJICUG_clean_linker_0, # of connection points: 2
#     Edge 93, Type (0, 0), BuildingBlock: OJICUG_clean_linker_0, # of connection points: 2
#     Edge 94, Type (0, 0), BuildingBlock: OJICUG_clean_linker_0, # of connection points: 2
#     Edge 95, Type (0, 0), BuildingBlock: OJICUG_clean_linker_0, # of connection points: 2
# Relax obj value: 0.206
# Max RMSD: 0.172
# Mean RMSD: 0.151
data_MOF--net-pem--node1-CEKHIL_clean_sbu_0--edge1-OJICUG_clean_linker_0
_symmetry_space_group_name_H-M    P1
_symmetry_Int_Tables_number       1
_symmetry_cell_setting            triclinic
loop_
_symmetry_equiv_pos_as_xyz
'x, y, z'
_cell_length_a     32.510382
_cell_length_b     28.132806
_cell_length_c     28.131739
_cell_angle_alpha  93.343609
_cell_angle_beta   91.146621
_cell_angle_gamma 91.82239
loop_
_atom_site_label
_atom_site_type_symbol
_atom_site_fract_x
_atom_site_fract_y
_atom_site_fract_z
_atom_type_partial_charge
Co0 Co 0.14768 0.05779 0.12226 0.0
O1 O 0.19536 0.02785 0.09448 0.0
O2 O 0.18241 0.10384 0.09081 0.0
C3 C 0.15359 0.0156 0.19014 0.0
O4 O 0.10093 0.10438 0.14419 0.0
Co5 Co 0.0711 1.00158 0.14126 0.0
O6 O 0.0412 0.06229 0.14216 0.0
C7 C 0.11341 0.99783 0.05185 0.0
C8 C 0.20497 0.06833 0.0772 0.0
C9 C 0.06079 0.10231 0.14418 0.0
O10 O 0.11892 0.04217 0.062 0.0
O11 O 0.09629 0.97142 0.08178 0.0
O12 O 0.17293 0.05623 0.18544 0.0
O13 O 0.13035 1.00207 0.15398 0.0
Co14 Co 0.27217 0.84465 0.40086 0.0
O15 O 0.30388 0.8216 0.4539 0.0
O16 O 0.30009 0.89726 0.4403 0.0
C17 C 0.21548 0.79053 0.4028 0.0
O18 O 0.24235 0.88004 0.34652 0.0
Co19 Co 0.24991 0.77198 0.31275 0.0
O20 O 0.22663 0.82819 0.28316 0.0
C21 C 0.32785 0.79573 0.35285 0.0
C22 C 0.31792 0.86469 0.46395 0.0
C23 C 0.22697 0.87 0.30355 0.0
O24 O 0.32297 0.83981 0.36235 0.0
O25 O 0.29686 0.76919 0.36173 0.0
O26 O 0.21726 0.82873 0.43104 0.0
O27 O 0.24815 0.78546 0.3798 0.0
Co28 Co 0.52039 0.89843 0.64518 0.0
O29 O 0.47689 0.92953 0.61142 0.0
O30 O 0.49218 0.85632 0.59449 0.0
C31 C 0.50264 0.92366 0.72561 0.0
O32 O 0.5632 0.85031 0.66585 0.0
Co33 Co 0.58894 0.95134 0.69138 0.0
O34 O 0.62104 0.89168 0.68671 0.0
C35 C 0.56189 0.97074 0.59784 0.0
C36 C 0.46887 0.89121 0.5849 0.0
C37 C 0.60206 0.85206 0.67628 0.0
O38 O 0.55715 0.92542 0.59689 0.0
O39 O 0.57339 0.99268 0.63705 0.0
O40 O 0.48711 0.88647 0.70186 0.0
O41 O 0.52849 0.9467 0.69975 0.0
Co42 Co 0.38044 0.13629 0.8632 0.0
O43 O 0.42136 0.17579 0.83081 0.0
O44 O 0.40347 0.19274 0.90296 0.0
C45 C 0.4067 0.05818 0.84427 0.0
O46 O 0.34047 0.11093 0.91191 0.0
Co47 Co 0.31929 0.06283 0.81563 0.0
O48 O 0.30102 0.04966 0.88081 0.0
C49 C 0.31166 0.16496 0.79882 0.0
C50 C 0.42714 0.20395 0.86855 0.0
C51 C 0.31276 0.07777 0.9159 0.0
O52 O 0.33627 0.17518 0.83463 0.0
O53 O 0.30392 0.12202 0.78255 0.0
O54 O 0.42014 0.08717 0.87839 0.0
O55 O 0.37816 0.07783 0.82008 0.0
Co56 Co 0.1321 0.93961 0.40283 0.0
O57 O 0.09238 0.89801 0.43545 0.0
O58 O 0.10186 0.89077 0.35949 0.0
C59 C 0.18389 0.93949 0.45789 0.0
O60 O 0.17171 0.9766 0.35778 0.0
Co61 Co 0.16125 0.04034 0.44951 0.0
O62 O 0.20012 0.04262 0.39705 0.0
C63 C 0.0768 0.01028 0.42954 0.0
C64 C 0.08154 0.87582 0.39537 0.0
C65 C 0.19706 0.01389 0.36048 0.0
O66 O 0.08993 0.98713 0.39294 0.0
O67 O 0.09961 0.04293 0.4511 0.0
O68 O 0.1778 0.90386 0.4266 0.0
O69 O 0.15658 0.97149 0.4573 0.0
Co70 Co 0.37398 0.89449 0.66268 0.0
O71 O 0.41544 0.85891 0.69663 0.0
O72 O 0.39367 0.83573 0.62635 0.0
C73 C 0.40126 0.97409 0.67796 0.0
O74 O 0.33151 0.9165 0.61511 0.0
Co75 Co 0.31656 0.96769 0.71199 0.0
O76 O 0.29568 0.97738 0.64654 0.0
C77 C 0.30658 0.86497 0.72658 0.0
C78 C 0.41806 0.82752 0.66179 0.0
C79 C 0.30432 0.94855 0.61187 0.0
O80 O 0.33078 0.85567 0.69221 0.0
O81 O 0.29988 0.90734 0.74325 0.0
O82 O 0.41341 0.94478 0.64497 0.0
O83 O 0.37403 0.95368 0.70342 0.0
Co84 Co 0.52663 0.13197 0.87467 0.0
O85 O 0.48676 0.09658 0.91184 0.0
O86 O 0.50405 0.16988 0.93042 0.0
C87 C 0.5024 0.1097 0.79534 0.0
O88 O 0.56713 0.18109 0.85015 0.0
Co89 Co 0.58938 0.07856 0.81269 0.0
O90 O 0.61495 0.14332 0.80658 0.0
C91 C 0.57371 0.06125 0.91164 0.0
C92 C 0.48123 0.13323 0.94035 0.0
C93 C 0.59997 0.18121 0.82533 0.0
O94 O 0.57027 0.10635 0.91467 0.0
O95 O 0.57991 0.04007 0.87101 0.0
O96 O 0.48734 0.1432 0.82227 0.0
O97 O 0.53023 0.08807 0.81859 0.0
Co98 Co 0.27756 0.1622 0.14989 0.0
O99 O 0.2318 0.19122 0.18631 0.0
O100 O 0.23575 0.19435 0.11009 0.0
C101 C 0.27519 0.09647 0.19713 0.0
O102 O 0.32065 0.13803 0.09807 0.0
Co103 Co 0.36057 0.14086 0.19768 0.0
O104 O 0.38322 0.13239 0.13339 0.0
C105 C 0.32188 0.23239 0.20084 0.0
C106 C 0.21549 0.20647 0.14812 0.0
C107 C 0.36066 0.13277 0.09599 0.0
O108 O 0.31231 0.22031 0.15777 0.0
O109 O 0.34272 0.20444 0.22544 0.0
O110 O 0.25169 0.09933 0.15938 0.0
O111 O 0.30062 0.13233 0.20363 0.0
Co112 Co 0.62823 0.3956 0.91168 0.0
O113 O 0.58838 0.34942 0.9376 0.0
O114 O 0.59099 0.36192 0.8622 0.0
C115 C 0.6841 0.37599 0.95682 0.0
O116 O 0.66536 0.44281 0.87122 0.0
Co117 Co 0.67363 0.47781 0.97665 0.0
O118 O 0.69892 0.50032 0.91857 0.0
C119 C 0.58443 0.45612 0.96915 0.0
C120 C 0.57241 0.33963 0.89543 0.0
C121 C 0.69014 0.48095 0.87747 0.0
O122 O 0.58849 0.44499 0.92487 0.0
O123 O 0.61537 0.46711 0.99693 0.0
O124 O 0.67199 0.34988 0.91958 0.0
O125 O 0.66035 0.41008 0.96757 0.0
Co126 Co 0.88813 0.31076 0.14278 0.0
O127 O 0.94078 0.29341 0.17342 0.0
O128 O 0.91784 0.26272 0.10448 0.0
C129 C 0.89172 0.39444 0.15912 0.0
O130 O 0.83826 0.31907 0.09827 0.0
Co131 Co 0.8176 0.35972 0.20076 0.0
O132 O 0.79705 0.3715 0.13592 0.0
C133 C 0.84316 0.26325 0.21895 0.0
C134 C 0.94588 0.2623 0.13809 0.0
C135 C 0.80809 0.34787 0.09852 0.0
O136 O 0.85917 0.25898 0.1774 0.0
O137 O 0.8298 0.30256 0.23668 0.0
O138 O 0.91078 0.37387 0.12453 0.0
O139 O 0.87445 0.36265 0.18349 0.0
Co140 Co 1.00168 0.6066 0.38054 0.0
O141 O 0.95956 0.57658 0.41926 0.0
O142 O 0.98169 0.64903 0.43465 0.0
C143 C 0.97817 0.57563 0.29942 0.0
O144 O 0.04614 0.65246 0.35746 0.0
Co145 Co 0.06429 0.54662 0.32817 0.0
O146 O 0.09906 0.60665 0.33807 0.0
C147 C 0.04256 0.53508 0.42524 0.0
C148 C 0.95896 0.6138 0.4483 0.0
C149 C 0.08484 0.64728 0.35042 0.0
O150 O 0.04215 0.58038 0.42472 0.0
O151 O 0.04884 0.51074 0.38643 0.0
O152 O 0.96442 0.61378 0.32183 0.0
O153 O 1.00495 0.558 0.32767 0.0
Co154 Co 0.87963 0.68438 0.37086 0.0
O155 O 0.93233 0.70525 0.34269 0.0
O156 O 0.91277 0.73107 0.41279 0.0
C157 C 0.88393 0.60142 0.34946 0.0
O158 O 0.82924 0.67235 0.41382 0.0
Co159 Co 0.80753 0.63609 0.3103 0.0
O160 O 0.77699 0.63573 0.37056 0.0
C161 C 0.83093 0.73632 0.29864 0.0
C162 C 0.9404 0.73355 0.38011 0.0
C163 C 0.7921 0.65391 0.40986 0.0
O164 O 0.85112 0.7379 0.33881 0.0
O165 O 0.81606 0.69741 0.27847 0.0
O166 O 0.90185 0.62167 0.38674 0.0
O167 O 0.86549 0.63283 0.32606 0.0
Co168 Co 0.78462 0.37235 0.84059 0.0
O169 O 0.80764 0.34713 0.89992 0.0
O170 O 0.81767 0.42017 0.88402 0.0
C171 C 0.72115 0.33494 0.83401 0.0
O172 O 0.76256 0.4125 0.78396 0.0
Co173 Co 0.76421 0.31075 0.74407 0.0
O174 O 0.72818 0.36328 0.7294 0.0
C175 C 0.83868 0.30635 0.79495 0.0
C176 C 0.82677 0.38669 0.91207 0.0
C177 C 0.73501 0.40458 0.74919 0.0
O178 O 0.83542 0.35021 0.80988 0.0
O179 O 0.82365 0.29536 0.75359 0.0
O180 O 0.72823 0.3714 0.86451 0.0
O181 O 0.75309 0.32077 0.81267 0.0
Co182 Co 0.94707 0.93299 0.90113 0.0
O183 O 0.98796 0.90468 0.85732 0.0
O184 O 0.95786 0.86524 0.9121 0.0
C185 C 0.91239 0.98011 0.84969 0.0
O186 O 0.90347 0.94777 0.95299 0.0
Co187 Co 0.94777 0.04214 0.92779 0.0
O188 O 0.90181 0.02678 0.97112 0.0
C189 C 1.01852 0.98225 0.93036 0.0
C190 C 0.98657 0.8659 0.88045 0.0
C191 C 0.88849 0.98425 0.97654 0.0
O192 O 0.99281 0.95139 0.94473 0.0
O193 O 1.00676 0.02313 0.91903 0.0
O194 O 0.90322 0.93456 0.85086 0.0
O195 O 0.94369 0.99349 0.87562 0.0
Co196 Co 0.80513 0.15595 0.67186 0.0
O197 O 0.85308 0.14656 0.71161 0.0
O198 O 0.81622 0.08786 0.67618 0.0
C199 C 0.84042 0.21916 0.64148 0.0
O200 O 0.75302 0.15235 0.62349 0.0
Co201 Co 0.7574 0.24281 0.68116 0.0
O202 O 0.72172 0.22213 0.62611 0.0
C203 C 0.77073 0.1833 0.76166 0.0
C204 C 0.84556 0.10139 0.70687 0.0
C205 C 0.72445 0.17999 0.60808 0.0
O206 O 0.77127 0.14939 0.72969 0.0
O207 O 0.76502 0.22561 0.7494 0.0
O208 O 0.84142 0.17637 0.62222 0.0
O209 O 0.81497 0.22369 0.67625 0.0
Co210 Co 0.52427 0.14844 0.38385 0.0
O211 O 0.47195 0.15657 0.34868 0.0
O212 O 0.4969 0.20841 0.40307 0.0
C213 C 0.55915 0.12237 0.31312 0.0
O214 O 0.57758 0.1529 0.43014 0.0
Co215 Co 0.56495 0.05066 0.38742 0.0
O216 O 0.59418 0.07849 0.44613 0.0
C217 C 0.49549 0.06848 0.43737 0.0
C218 C 0.46798 0.19746 0.3714 0.0
C219 C 0.59816 0.12321 0.45531 0.0
O220 O 0.4972 0.11412 0.43729 0.0
O221 O 0.50474 0.0454 0.39928 0.0
O222 O 0.55381 0.1669 0.32464 0.0
O223 O 0.54226 0.09554 0.34356 0.0
Co224 Co 0.69326 0.93742 0.15092 0.0
O225 O 0.74109 0.98235 0.14315 0.0
O226 O 0.72079 0.92605 0.09091 0.0
C227 C 0.64726 0.9993 0.17989 0.0
O228 O 0.6469 0.88253 0.13524 0.0
Co229 Co 0.67269 0.90487 0.21568 0.0
O230 O 0.65428 0.83791 0.19418 0.0
C231 C 0.74741 0.89024 0.22128 0.0
C232 C 0.74768 0.95936 0.10266 0.0
C233 C 0.63985 0.84146 0.15304 0.0
O234 O 0.73447 0.89029 0.17783 0.0
O235 O 0.72478 0.90861 0.25233 0.0
O236 O 0.65373 0.98828 0.13543 0.0
O237 O 0.66827 0.97427 0.20839 0.0
Co238 Co 0.92213 0.0617 0.59516 0.0
O239 O 0.88359 1.00695 0.60203 0.0
O240 O 0.92127 0.04025 0.66043 0.0
C241 C 0.87363 0.09487 0.54818 0.0
O242 O 0.96605 0.12176 0.60282 0.0
Co243 Co 0.95133 0.09329 0.49963 0.0
O244 O 0.98563 0.14537 0.53148 0.0
C245 C 0.9654 0.99845 0.53516 0.0
C246 C 0.8936 1.00764 0.64665 0.0
C247 C 0.98834 0.14998 0.5767 0.0
O248 O 0.9656 0.01696 0.57779 0.0
O249 O 0.95232 0.0215 0.50015 0.0
O250 O 0.87387 0.10162 0.59431 0.0
O251 O 0.90378 0.07084 0.53239 0.0
Co252 Co 0.68121 0.10008 0.36558 0.0
O253 O 0.72349 0.05803 0.38781 0.0
O254 O 0.7006 0.12027 0.42887 0.0
C255 C 0.63649 0.03563 0.33379 0.0
O256 O 0.63761 0.15445 0.36427 0.0
Co257 Co 0.67488 0.12599 0.29804 0.0
O258 O 0.66518 0.19611 0.31114 0.0
C259 C 0.74854 0.12731 0.30516 0.0
C260 C 0.72683 0.08674 0.42584 0.0
C261 C 0.64076 0.19498 0.34488 0.0
O262 O 0.72957 0.14113 0.34265 0.0
O263 O 0.72767 0.10229 0.27466 0.0
O264 O 0.63723 0.05186 0.37768 0.0
O265 O 0.66201 0.05751 0.30713 0.0
Co266 Co 0.53017 0.88423 0.11585 0.0
O267 O 0.47697 0.8713 0.14368 0.0
O268 O 0.5061 0.8225 0.09169 0.0
C269 C 0.55928 0.91013 0.19092 0.0
O270 O 0.58549 0.88899 0.07602 0.0
Co271 Co 0.56735 0.98701 0.12164 0.0
O272 O 0.60133 0.96637 0.06676 0.0
C273 C 0.50026 0.96157 0.06461 0.0
C274 C 0.47501 0.83123 0.1189 0.0
C275 C 0.60661 0.92257 0.05553 0.0
O276 O 0.50353 0.91647 0.06205 0.0
O277 O 0.50724 0.98298 0.105 0.0
O278 O 0.5573 0.86561 0.17663 0.0
O279 O 0.54344 0.93672 0.15973 0.0
Co280 Co 0.78902 0.87253 0.86547 0.0
O281 O 0.73859 0.90818 0.87535 0.0
O282 O 0.78042 0.88967 0.93304 0.0
C283 C 0.81191 0.90786 0.79779 0.0
O284 O 0.84569 0.83619 0.86929 0.0
Co285 Co 0.80433 0.80503 0.78358 0.0
O286 O 0.86173 0.82448 0.79325 0.0
C287 C 0.76422 0.77267 0.86402 0.0
C288 C 0.74478 0.90586 0.92094 0.0
C289 C 0.87202 0.82351 0.83664 0.0
O290 O 0.75371 0.81446 0.87548 0.0
O291 O 0.79838 0.76856 0.84377 0.0
O292 O 0.81951 0.9266 0.84069 0.0
O293 O 0.78778 0.87038 0.7964 0.0
Co294 Co 0.43858 0.62252 0.08147 0.0
O295 O 0.39357 0.57431 0.09173 0.0
O296 O 0.43275 0.6105 0.14764 0.0
C297 C 0.39995 0.66008 0.02697 0.0
O298 O 0.48819 0.67394 0.0905 0.0
Co299 Co 0.48074 0.63948 0.9895 0.0
O300 O 0.51932 0.68705 0.02215 0.0
C301 C 0.47142 0.54674 0.03191 0.0
C302 C 0.40404 0.57833 0.13657 0.0
C303 C 0.51697 0.69519 0.06694 0.0
O304 O 0.47537 0.56939 0.07242 0.0
O305 O 0.46855 0.56899 0.99358 0.0
O306 O 0.39861 0.67067 0.07213 0.0
O307 O 0.42655 0.62893 0.01548 0.0
Co308 Co 0.18661 0.64866 0.87741 0.0
O309 O 0.24 0.62169 0.88478 0.0
O310 O 0.21427 0.67563 0.9348 0.0
C311 C 0.15506 0.57092 0.85508 0.0
O312 O 0.1328 0.69178 0.88102 0.0
Co313 Co 0.14514 0.64818 0.78586 0.0
O314 O 0.12004 0.70939 0.80632 0.0
C315 C 0.21723 0.70652 0.79778 0.0
C316 C 0.24515 0.64981 0.92266 0.0
C317 C 0.11483 0.71844 0.85039 0.0
O318 O 0.2131 0.7016 0.84237 0.0
O319 O 0.19589 0.68183 0.76648 0.0
O320 O 0.16214 0.58584 0.89875 0.0
O321 O 0.16915 0.60219 0.82732 0.0
Co322 Co 0.04144 0.39577 0.64989 0.0
O323 O 0.99291 0.37431 0.68382 0.0
O324 O 1.02307 0.33141 0.62812 0.0
C325 C 0.07801 0.42639 0.72563 0.0
O326 O 0.0917 0.4001 0.60268 0.0
Co327 Co 0.04351 0.46035 0.63313 0.0
O328 O 0.06954 0.46018 0.56781 0.0
C329 C 0.98266 0.45054 0.59124 0.0
C330 C 0.99242 0.33559 0.65646 0.0
C331 C 0.09362 0.42644 0.56624 0.0
O332 O 1.0029 0.41269 0.59413 0.0
O333 O 0.98551 0.47891 0.62735 0.0
O334 O 0.07904 0.38391 0.70648 0.0
O335 O 0.05466 0.45254 0.70131 0.0
Co336 Co 0.19156 0.37365 0.63503 0.0
O337 O 0.24506 0.40624 0.63168 0.0
O338 O 0.22062 0.35277 0.5777 0.0
C339 C 0.1589 0.44739 0.6587 0.0
O340 O 0.13698 0.32824 0.62387 0.0
Co341 Co 0.14694 0.36585 0.72232 0.0
O342 O 0.11718 0.30704 0.69508 0.0
C343 C 0.2209 0.31452 0.7155 0.0
C344 C 0.25049 0.38226 0.59172 0.0
C345 C 0.11483 0.3004 0.65015 0.0
O346 O 0.21835 0.32084 0.67055 0.0
O347 O 0.19772 0.33594 0.74506 0.0
O348 O 0.16613 0.43471 0.61487 0.0
O349 O 0.17292 0.41617 0.68623 0.0
Co350 Co 0.29267 0.64749 0.17491 0.0
O351 O 0.33667 0.63648 0.22349 0.0
O352 O 0.2954 0.58116 0.19236 0.0
C353 C 0.33399 0.70125 0.13688 0.0
O354 O 0.24561 0.64075 0.12002 0.0
Co355 Co 0.25333 0.74629 0.15605 0.0
O356 O 0.22574 0.71302 0.09985 0.0
C357 C 0.25062 0.70365 0.24135 0.0
C358 C 0.32616 0.59182 0.22188 0.0
C359 C 0.22344 0.66779 0.09361 0.0
O360 O 0.25138 0.66044 0.22474 0.0
O361 O 0.22779 0.73051 0.21839 0.0
O362 O 0.33743 0.65524 0.12955 0.0
O363 O 0.30519 0.71255 0.16493 0.0
Co364 Co 0.62727 0.6337 0.62807 0.0
O365 O 0.67764 0.60871 0.59518 0.0
O366 O 0.64177 0.66409 0.56744 0.0
C367 C 0.65469 0.56587 0.66654 0.0
O368 O 0.57623 0.67633 0.6412 0.0
Co369 Co 0.56809 0.58404 0.69638 0.0
O370 O 0.53581 0.6443 0.69575 0.0
C371 C 0.58247 0.5428 0.60248 0.0
C372 C 0.67354 0.63853 0.56205 0.0
C373 C 0.54377 0.67736 0.6676 0.0
O374 O 0.5919 0.58515 0.59113 0.0
O375 O 0.57286 0.53311 0.64465 0.0
O376 O 0.67011 0.58302 0.62878 0.0
O377 O 0.62712 0.59381 0.68418 0.0
Co378 Co 1.00586 0.39972 0.13254 0.0
O379 O 0.96478 0.4304 0.09231 0.0
O380 O 0.98103 0.35829 0.07673 0.0
C381 C 0.9816 0.43104 0.21326 0.0
O382 O 0.04885 0.35136 0.15637 0.0
Co383 Co 0.0706 0.45264 0.1816 0.0
O384 O 0.10571 0.39498 0.17554 0.0
C385 C 0.04947 0.47003 0.08672 0.0
C386 C 0.96073 0.39412 0.06241 0.0
C387 C 0.08837 0.35444 0.1649 0.0
O388 O 0.04634 0.42489 0.08763 0.0
O389 O 0.05727 0.49365 0.12604 0.0
O390 O 0.96911 0.39149 0.19024 0.0
O391 O 1.00953 0.45065 0.18712 0.0
Co392 Co 0.77039 0.64544 0.67299 0.0
O393 O 0.72123 0.67013 0.70457 0.0
O394 O 0.73446 0.67955 0.63024 0.0
C395 C 0.76658 0.57763 0.71736 0.0
O396 O 0.81457 0.62487 0.62184 0.0
Co397 Co 0.85263 0.62388 0.71852 0.0
O398 O 0.8772 0.61725 0.6549 0.0
C399 C 0.81142 0.71081 0.73363 0.0
C400 C 0.71098 0.68972 0.66589 0.0
C401 C 0.8541 0.619 0.61818 0.0
O402 O 0.80259 0.70456 0.68934 0.0
O403 O 0.84172 0.68851 0.74989 0.0
O404 O 0.74525 0.58183 0.67809 0.0
O405 O 0.79234 0.61274 0.72607 0.0
Co406 Co 0.46025 0.38855 0.40241 0.0
O407 O 0.50614 0.37469 0.3589 0.0
O408 O 0.47822 0.32251 0.40416 0.0
C409 C 0.41929 0.43417 0.35721 0.0
O410 O 0.41283 0.38888 0.45094 0.0
Co411 Co 0.44762 0.49406 0.44005 0.0
O412 O 0.40236 0.46527 0.4763 0.0
C413 C 0.52286 0.44348 0.45615 0.0
C414 C 0.50754 0.33239 0.37511 0.0
C415 C 0.39345 0.42073 0.47635 0.0
O416 O 0.50118 0.40497 0.45359 0.0
O417 O 0.50839 0.48292 0.44407 0.0
O418 O 0.41908 0.38788 0.35001 0.0
O419 O 0.44874 0.45074 0.38473 0.0
Co420 Co 0.04158 0.61837 0.85729 0.0
O421 O 0.99213 0.6372 0.82153 0.0
O422 O 1.02391 0.68099 0.8783 0.0
C423 C 0.07947 0.58872 0.78406 0.0
O424 O 0.09116 0.62457 0.90642 0.0
Co425 Co 0.05229 0.5564 0.87791 0.0
O426 O 0.07901 0.56225 0.944 0.0
C427 C 0.99085 0.55312 0.91562 0.0
C428 C 0.99354 0.67646 0.84843 0.0
C429 C 0.09621 0.60254 0.94501 0.0
O430 O 1.00505 0.59567 0.91217 0.0
O431 O 0.99713 0.52526 0.88026 0.0
O432 O 0.07835 0.63217 0.80104 0.0
O433 O 0.05668 0.56161 0.80871 0.0
Co434 Co 0.2724 0.40597 0.35884 0.0
O435 O 0.22707 0.44715 0.38227 0.0
O436 O 0.25877 0.39764 0.42591 0.0
C437 C 0.31156 0.45763 0.30975 0.0
O438 O 0.31892 0.35598 0.35195 0.0
Co439 Co 0.29009 0.37834 0.24697 0.0
O440 O 0.33525 0.33993 0.27504 0.0
C441 C 0.22114 0.3552 0.29672 0.0
C442 C 0.22811 0.42574 0.42232 0.0
C443 C 0.34046 0.33359 0.31958 0.0
O444 O 0.22967 0.35613 0.34087 0.0
O445 O 0.23433 0.39131 0.2759 0.0
O446 O 0.31444 0.45968 0.3565 0.0
O447 O 0.28237 0.4287 0.29552 0.0
C448 C 0.10388 0.9339 0.98989 0.0
C449 C 0.12039 0.97938 1.00307 0.0
H450 H 0.05388 0.89871 0.95129 0.0
C451 C 0.12211 0.0133 0.96838 0.0
H452 H 0.10597 0.90518 0.01379 0.0
C453 C 0.09097 0.01081 0.93369 0.0
C454 C 0.06226 0.9726 0.93365 0.0
H455 H 0.13894 0.04696 0.97526 0.0
H456 H 0.08482 0.04232 0.91468 0.0
C457 C 0.07366 0.93046 0.95425 0.0
C458 C 0.30221 0.77341 0.24522 0.0
C459 C 0.29096 0.72651 0.25751 0.0
H460 H 0.33874 0.8363 0.2647 0.0
C461 C 0.31773 0.7038 0.28821 0.0
H462 H 0.2843 0.79187 0.21968 0.0
C463 C 0.35225 0.72917 0.30856 0.0
C464 C 0.35045 0.77918 0.31056 0.0
H465 H 0.31044 0.66831 0.2992 0.0
H466 H 0.36977 0.71225 0.33565 0.0
C467 C 0.33474 0.79853 0.26958 0.0
C468 C 0.52622 0.97145 0.51773 0.0
C469 C 0.5443 0.99705 0.55768 0.0
H470 H 0.49493 0.9736 0.4504 0.0
C471 C 0.5419 0.04713 0.56019 0.0
H472 H 0.52668 0.93292 0.51454 0.0
C473 C 0.5232 0.07082 0.52296 0.0
C474 C 0.50641 0.04498 0.48224 0.0
H475 H 0.55479 0.06811 0.59072 0.0
H476 H 0.52361 0.10939 0.52516 0.0
C477 C 0.50739 0.9949 0.48099 0.0
C478 C 0.27578 0.19867 0.72859 0.0
C479 C 0.29086 0.20436 0.77597 0.0
H480 H 0.24289 0.22968 0.67164 0.0
C481 C 0.28555 0.24806 0.80154 0.0
H482 H 0.27974 0.16561 0.70773 0.0
C483 C 0.26408 0.28434 0.78109 0.0
C484 C 0.24823 0.27833 0.73414 0.0
H485 H 0.29685 0.25376 0.83798 0.0
H486 H 0.25928 0.31696 0.80237 0.0
C487 C 0.25507 0.2355 0.70771 0.0
C488 C 1.01564 0.95742 0.44291 0.0
C489 C 0.05067 0.98344 0.46083 0.0
H490 H 0.95739 0.92749 0.46115 0.0
C491 C 0.06088 0.98274 0.50977 0.0
H492 H 1.00881 0.95352 0.40501 0.0
C493 C 1.03167 0.96633 0.5409 0.0
C494 C 0.99155 0.9582 0.52288 0.0
H495 H 0.08979 0.99802 0.5243 0.0
H496 H 0.03748 0.97303 0.57881 0.0
C497 C 0.98715 0.94076 0.47507 0.0
C498 C 0.26973 0.8273 0.79272 0.0
C499 C 0.28503 0.82424 0.74639 0.0
H500 H 0.23691 0.7913 0.84607 0.0
C501 C 0.28016 0.78123 0.71856 0.0
H502 H 0.2735 0.85994 0.815 0.0
C503 C 0.25925 0.74242 0.73607 0.0
C504 C 0.24334 0.74562 0.78198 0.0
H505 H 0.29168 0.77779 0.68268 0.0
H506 H 0.25502 0.71008 0.71339 0.0
C507 C 0.24931 0.78799 0.81061 0.0
C508 C 0.54709 0.05866 0.99393 0.0
C509 C 0.55602 0.03424 0.95055 0.0
H510 H 0.5202 0.05606 0.06211 0.0
C511 C 0.54279 0.9862 0.94311 0.0
H512 H 0.55601 0.09591 1.00066 0.0
C513 C 0.52237 0.96284 0.979 0.0
C514 C 0.51424 0.98726 0.02279 0.0
H515 H 0.54823 0.96664 0.90964 0.0
H516 H 0.51397 0.92539 0.97288 0.0
C517 C 0.52595 0.03583 0.02909 0.0
C518 C 0.24794 0.27399 0.29393 0.0
C519 C 0.22893 0.31025 0.27014 0.0
H520 H 0.29507 0.22295 0.29145 0.0
C521 C 0.23459 0.31318 0.22105 0.0
H522 H 0.24273 0.26926 0.3313 0.0
C523 C 0.26732 0.29075 0.19989 0.0
C524 C 0.29095 0.25991 0.22571 0.0
H525 H 0.21859 0.33917 0.20122 0.0
H526 H 0.27406 0.29743 0.16325 0.0
C527 C 0.27919 0.2491 0.27181 0.0
C528 C 0.47376 0.47398 0.98118 0.0
C529 C 0.4776 0.49558 0.02743 0.0
H530 H 0.50928 0.4469 0.92319 0.0
C531 C 0.50636 0.47835 0.05914 0.0
H532 H 0.44904 0.48323 0.95736 0.0
C533 C 0.54095 0.45779 0.03995 0.0
C534 C 0.54406 0.45291 0.99012 0.0
H535 H 0.50753 0.49081 0.09635 0.0
H536 H 0.56718 0.45292 0.06333 0.0
C537 C 0.50848 0.45408 0.96142 0.0
C538 C 0.82511 0.22698 0.29435 0.0
C539 C 0.8334 0.22095 0.24546 0.0
H540 H 0.79169 0.20077 0.35256 0.0
C541 C 0.82382 0.17702 0.22117 0.0
H542 H 0.83341 0.26011 0.31433 0.0
C543 C 0.8002 0.14279 0.24332 0.0
C544 C 0.78584 0.15254 0.28971 0.0
H545 H 0.83053 0.17111 0.18376 0.0
H546 H 0.78956 0.1111 0.22232 0.0
C547 C 0.80138 0.19295 0.31639 0.0
C548 C 0.99157 0.52157 0.54366 0.0
C549 C 0.98401 0.47206 0.54416 0.0
H550 H 1.02002 0.5788 0.50896 0.0
C551 C 0.99257 0.4436 0.50279 0.0
H552 H 0.98547 0.54502 0.57446 0.0
C553 C 1.01186 0.46362 0.46406 0.0
C554 C 1.02323 0.51238 0.46607 0.0
H555 H 0.98746 0.40532 0.50193 0.0
H556 H 1.01892 0.44067 0.43325 0.0
C557 C 1.01221 0.54102 0.50611 0.0
C558 C 0.81423 0.8231 0.30399 0.0
C559 C 0.81982 0.78083 0.27623 0.0
H560 H 0.78717 0.89163 0.30784 0.0
C561 C 0.80869 0.77925 0.22743 0.0
H562 H 0.82258 0.82558 0.34155 0.0
C563 C 0.78876 0.81722 0.20793 0.0
C564 C 0.77911 0.85735 0.23698 0.0
H565 H 0.81316 0.74739 0.20484 0.0
H566 H 0.77798 0.81335 0.17118 0.0
C567 C 0.79386 0.86091 0.2846 0.0
C568 C 0.83573 0.18027 0.80629 0.0
C569 C 0.79249 0.17883 0.80838 0.0
H570 H 0.88789 0.2282 0.79875 0.0
C571 C 0.7781 0.20969 0.84404 0.0
H572 H 0.85213 0.14916 0.79567 0.0
C573 C 0.79857 0.25407 0.85206 0.0
C574 C 0.83511 0.265 0.82693 0.0
H575 H 0.74706 0.20464 0.85622 0.0
H576 H 0.78137 0.27883 0.87251 0.0
C577 C 0.85688 0.22468 0.81172 0.0
C578 C 0.71941 0.7566 0.79912 0.0
C579 C 0.73164 0.73968 0.84319 0.0
H580 H 0.74545 0.76997 0.73096 0.0
C581 C 0.74532 0.6929 0.84036 0.0
H582 H 0.69989 0.78704 0.79816 0.0
C583 C 0.77181 0.68131 0.80304 0.0
C584 C 0.77601 0.7129 0.76559 0.0
H585 H 0.74682 0.67296 0.8721 0.0
H586 H 0.79186 0.65173 0.80675 0.0
C587 C 0.74596 0.74768 0.76108 0.0
C588 C 0.58702 0.48433 0.48148 0.0
C589 C 0.55874 0.44683 0.48766 0.0
H590 H 0.61585 0.54683 0.51497 0.0
C591 C 0.55321 0.43014 0.53317 0.0
H592 H 0.59317 0.49608 0.44621 0.0
C593 C 0.56467 0.45994 0.57257 0.0
C594 C 0.58315 0.50458 0.56547 0.0
H595 H 0.53298 0.3996 0.53842 0.0
H596 H 0.55459 0.45063 0.60741 0.0
C597 C 0.59882 0.51399 0.5207 0.0
C598 C 1.00505 0.56104 1.00492 0.0
C599 C 0.99509 0.53217 0.96322 0.0
H600 H 1.03107 0.56473 0.07617 0.0
C601 C 1.0012 0.48289 0.96438 0.0
H602 H 1.00132 0.59918 1.00544 0.0
C603 C 1.02028 0.46389 1.00352 0.0
C604 C 1.03213 0.49278 0.04428 0.0
H605 H 0.99403 0.45907 0.93347 0.0
H606 H 1.02593 0.4261 1.00153 0.0
C607 C 1.02326 0.54152 0.04502 0.0
C608 C 0.21378 0.96692 0.21459 0.0
C609 C 0.17206 0.97825 0.21933 0.0
H610 H 0.26415 0.92543 0.23851 0.0
C611 C 0.14774 0.94974 0.24795 0.0
H612 H 0.23272 0.98525 0.18975 0.0
C613 C 0.16564 0.91421 0.27439 0.0
C614 C 0.20835 0.90776 0.27504 0.0
H615 H 0.11491 0.95476 0.24978 0.0
H616 H 0.14619 0.89149 0.29434 0.0
C617 C 0.23175 0.93235 0.24225 0.0
C618 C 0.40771 0.9254 0.54008 0.0
C619 C 0.43272 0.88652 0.54948 0.0
H620 H 0.35244 0.94975 0.50638 0.0
C621 C 0.42071 0.842 0.52728 0.0
H622 H 0.41638 0.96082 0.55473 0.0
C623 C 0.38328 0.83537 0.50114 0.0
C624 C 0.35706 0.87351 0.49389 0.0
H625 H 0.43981 0.8117 0.53103 0.0
H626 H 0.37517 0.79998 0.48594 0.0
C627 C 0.37072 0.91908 0.51241 0.0
C628 C 0.41223 0.97592 0.79902 0.0
C629 C 0.43094 0.0145 0.82582 0.0
H630 H 0.41975 0.91208 0.75709 0.0
C631 C 0.47417 0.01127 0.83187 0.0
H632 H 0.37896 0.97236 0.79703 0.0
C633 C 0.4981 0.98184 0.80076 0.0
C634 C 0.4792 0.94828 0.76754 0.0
H635 H 0.49022 0.0332 0.85858 0.0
H636 H 0.53132 0.98596 0.80233 0.0
C637 C 0.43618 0.9417 0.77372 0.0
C638 C 0.28034 0.03231 0.98067 0.0
C639 C 0.2899 0.07594 0.961 0.0
H640 H 0.24747 0.99601 0.03386 0.0
C641 C 0.27358 0.11765 0.98188 0.0
H642 H 0.29223 0.99956 0.96505 0.0
C643 C 0.24657 0.11548 0.02007 0.0
C644 C 0.23676 0.07187 0.03984 0.0
H645 H 0.27977 0.15168 0.96686 0.0
H646 H 0.23224 0.14775 0.03276 0.0
C647 C 0.25467 0.0304 0.02012 0.0
C648 C 0.27728 0.03996 0.26553 0.0
C649 C 0.2576 0.07515 0.24045 0.0
H650 H 0.27357 0.99229 0.32327 0.0
C651 C 0.22079 0.09265 0.25894 0.0
H652 H 0.307 0.02767 0.25437 0.0
C653 C 0.20063 0.07053 0.29582 0.0
C654 C 0.21781 0.03191 0.3177 0.0
H655 H 0.20637 0.12238 0.24327 0.0
H656 H 0.17146 0.08404 0.3076 0.0
C657 C 0.25788 0.01922 0.30452 0.0
C658 C 0.2652 0.98815 0.5481 0.0
C659 C 0.277 0.94653 0.56923 0.0
H660 H 0.22709 0.01821 0.49503 0.0
C661 C 0.25846 0.90269 0.55308 0.0
H662 H 0.27845 0.02251 0.56072 0.0
C663 C 0.2282 0.90048 0.517 0.0
C664 C 0.21717 0.94168 0.4947 0.0
H665 H 0.26582 0.87034 0.5701 0.0
H666 H 0.21202 0.86689 0.50853 0.0
C667 C 0.23577 0.98567 0.5108 0.0
C668 C 0.4952 0.05337 0.71949 0.0
C669 C 0.47804 0.08643 0.75227 0.0
H670 H 0.48381 0.99915 0.66338 0.0
C671 C 0.43518 0.09224 0.74652 0.0
H672 H 0.52825 0.04976 0.71882 0.0
C673 C 0.40948 0.05727 0.72111 0.0
C674 C 0.4265 0.0191 0.69473 0.0
H675 H 0.42065 0.12113 0.76523 0.0
H676 H 0.37638 0.05924 0.72354 0.0
C677 C 0.46956 0.02266 0.68888 0.0
C678 C 0.44083 0.17454 0.00792 0.0
C679 C 0.44856 0.13332 0.97899 0.0
H680 H 0.4063 0.20699 0.06505 0.0
C681 C 0.42368 0.0922 0.98677 0.0
H682 H 0.45959 0.20654 1.00472 0.0
C683 C 0.39254 0.09248 0.02168 0.0
C684 C 0.38466 0.13402 0.05015 0.0
H685 H 0.42877 0.05914 0.9664 0.0
H686 H 0.37575 0.05958 0.02767 0.0
C687 C 0.40967 0.17485 0.04251 0.0
C688 C 1.01358 0.22705 0.16909 0.0
C689 C 0.9784 0.22426 0.13823 0.0
H690 H 0.06779 0.19238 0.19482 0.0
C691 C 0.97283 0.18235 0.10854 0.0
H692 H 1.01924 0.25845 0.19272 0.0
C693 C 0.99997 0.14432 0.11063 0.0
C694 C 0.03484 0.14644 0.14159 0.0
H695 H 0.94644 0.17808 0.08439 0.0
H696 H 0.99335 0.11258 0.08773 0.0
C697 C 0.04167 0.18907 0.17025 0.0
C698 C 0.52288 0.28473 0.84197 0.0
C699 C 0.53395 0.3069 0.88702 0.0
H700 H 0.48178 0.23573 0.8006 0.0
C701 C 0.50714 0.29771 0.92468 0.0
H702 H 0.5418 0.2911 0.81164 0.0
C703 C 0.47161 0.26711 0.91794 0.0
C704 C 0.46188 0.2425 0.87371 0.0
H705 H 0.51348 0.31455 0.95977 0.0
H706 H 0.45217 0.26184 0.94803 0.0
C707 C 0.48796 0.25287 0.83559 0.0
C708 C 0.10711 0.72856 0.39124 0.0
C709 C 0.11536 0.68819 0.36074 0.0
H710 H 0.13172 0.79291 0.42939 0.0
C711 C 0.15574 0.68348 0.34498 0.0
H712 H 0.07653 0.73301 0.405 0.0
C713 C 0.18693 0.71652 0.35976 0.0
C714 C 0.17948 0.75665 0.39053 0.0
H715 H 0.16383 0.65317 0.32191 0.0
H716 H 0.21754 0.70972 0.34712 0.0
C717 C 0.13885 0.76258 0.40589 0.0
C718 C 0.12494 0.28183 0.19604 0.0
C719 C 0.11586 0.31136 0.15856 0.0
H720 H 0.16196 0.22602 0.22206 0.0
C721 C 0.13821 0.30345 0.11629 0.0
H722 H 0.10934 0.28692 0.2295 0.0
C723 C 0.16872 0.26831 0.11186 0.0
C724 C 0.17878 0.23971 0.14981 0.0
H725 H 0.13297 0.3257 0.08676 0.0
H726 H 0.18565 0.26493 0.07915 0.0
C727 C 0.15548 0.24668 0.19165 0.0
C728 C 0.65005 0.73274 0.70186 0.0
C729 C 0.679 0.72743 0.66526 0.0
H730 H 0.60251 0.7753 0.7337 0.0
C731 C 0.68026 0.76214 0.63117 0.0
H732 H 0.64821 0.70699 0.72895 0.0
C733 C 0.65483 0.80181 0.63469 0.0
C734 C 0.62655 0.80764 0.67172 0.0
H735 H 0.70222 0.75976 0.60275 0.0
H736 H 0.65768 0.82852 0.60862 0.0
C737 C 0.62386 0.772 0.70473 0.0
C738 C 0.98858 0.7943 0.42747 0.0
C739 C 0.97783 0.7683 0.38427 0.0
H740 H 1.02896 0.84665 0.46508 0.0
C741 C 1.00269 0.77733 0.34477 0.0
H742 H 0.97077 0.78884 0.45892 0.0
C743 C 0.03607 0.81152 0.34811 0.0
C744 C 0.04657 0.83776 0.3913 0.0
H745 H 0.99592 0.75845 0.31074 0.0
H746 H 0.05367 0.81743 0.3166 0.0
C747 C 1.02228 0.82785 0.43098 0.0
C748 C 0.65629 0.22897 0.86572 0.0
C749 C 0.62688 0.22446 0.82866 0.0
H750 H 0.70914 0.26733 0.89555 0.0
C751 C 0.62639 0.25891 0.79438 0.0
H752 H 0.65776 0.20235 0.89201 0.0
C753 C 0.65554 0.29724 0.7973 0.0
C754 C 0.68523 0.30131 0.83452 0.0
H755 H 0.60432 0.25551 0.76493 0.0
H756 H 0.6557 0.32269 0.76986 0.0
C757 C 0.68545 0.26637 0.86805 0.0
C758 C 0.90506 0.07083 0.75434 0.0
C759 C 0.86259 0.07042 0.74349 0.0
H760 H 0.95394 0.03951 0.79313 0.0
C761 C 0.83609 0.04737 0.77436 0.0
H762 H 0.92625 0.09285 0.73526 0.0
C763 C 0.85195 0.02116 0.81136 0.0
C764 C 0.89441 0.01363 0.81571 0.0
H765 H 0.80311 0.05088 0.77082 0.0
H766 H 0.83089 1.00777 0.83676 0.0
C767 C 0.92088 0.04118 0.78842 0.0
C768 C 0.6554 0.10445 0.5153 0.0
C769 C 0.62979 0.13867 0.49516 0.0
H770 H 0.70485 0.08941 0.56429 0.0
C771 C 0.63512 0.18573 0.51462 0.0
H772 H 0.65247 0.06736 0.50272 0.0
C773 C 0.66574 0.19831 0.55023 0.0
C774 C 0.69233 0.16444 0.569 0.0
H775 H 0.61512 0.213 0.50335 0.0
H776 H 0.6683 0.23526 0.56332 0.0
C777 C 0.68604 0.11701 0.55097 0.0
C778 C 0.63796 0.08633 0.21596 0.0
C779 C 0.62113 0.04147 0.19896 0.0
H780 H 0.62685 0.15293 0.25521 0.0
C781 C 0.57841 0.03642 0.20608 0.0
H782 H 0.66914 0.09649 0.20718 0.0
C783 C 0.557 0.06543 0.23931 0.0
C784 C 0.57711 0.10286 0.2658 0.0
H785 H 0.56103 1.00807 0.18992 0.0
H786 H 0.52534 0.05595 0.24689 0.0
C787 C 0.61477 0.1179 0.24628 0.0
C788 C 0.83438 0.93271 0.01557 0.0
C789 C 0.85379 0.97755 0.01095 0.0
H790 H 0.78618 0.89226 0.04732 0.0
C791 C 0.83894 0.01652 0.03913 0.0
H792 H 0.84499 0.90163 0.99547 0.0
C793 C 0.80545 0.01094 0.06987 0.0
C794 C 0.78509 0.96641 0.07273 0.0
H795 H 0.85306 0.05173 0.03727 0.0
H796 H 0.79483 0.04175 0.09041 0.0
C797 C 0.8004 0.92739 0.04541 0.0
C798 C 0.895 0.94957 0.71247 0.0
C799 C 0.8724 0.97534 0.68022 0.0
H800 H 0.89383 0.90405 0.77073 0.0
C801 C 0.829 0.97171 0.68205 0.0
H802 H 0.92827 0.94988 0.71113 0.0
C803 C 0.80917 0.94793 0.71876 0.0
C804 C 0.83212 0.92579 0.75379 0.0
H805 H 0.81041 0.99004 0.65702 0.0
H806 H 0.77601 0.94903 0.72114 0.0
C807 C 0.87506 0.92396 0.74757 0.0
C808 C 0.82523 0.05231 0.4886 0.0
C809 C 0.83478 0.09308 0.51897 0.0
H810 H 0.78367 0.01777 0.43615 0.0
C811 C 0.80758 0.13077 0.51957 0.0
H812 H 0.84548 0.02243 0.48722 0.0
C813 C 0.77195 0.12783 0.49036 0.0
C814 C 0.76251 0.0871 0.45993 0.0
H815 H 0.81443 0.16328 0.54087 0.0
H816 H 0.75243 0.15832 0.49054 0.0
C817 C 0.78963 0.04935 0.45947 0.0
C818 C 0.61044 0.91734 0.26279 0.0
C819 C 0.57289 0.92855 0.24127 0.0
H820 H 0.66305 0.9447 0.30582 0.0
C821 C 0.54978 0.96121 0.26817 0.0
H822 H 0.62417 0.88446 0.25285 0.0
C823 C 0.56866 0.99071 0.30555 0.0
C824 C 0.6117 0.9911 0.3143 0.0
H825 H 0.51828 0.96733 0.25751 0.0
H826 H 0.54976 0.01651 0.32234 0.0
C827 C 0.6313 0.95027 0.29598 0.0
C828 C 0.67097 0.87975 0.02268 0.0
C829 C 0.63982 0.91326 0.01843 0.0
H830 H 0.72822 0.85225 0.99738 0.0
C831 C 0.64445 0.94465 0.9811 0.0
H832 H 0.6721 0.85763 0.0525 0.0
C833 C 0.67802 0.94257 0.94976 0.0
C834 C 0.70957 0.91012 0.95538 0.0
H835 H 0.62232 0.97195 0.97661 0.0
H836 H 0.67967 0.96722 0.92164 0.0
C837 C 0.70503 0.87832 0.992 0.0
C838 C 0.03984 0.82085 0.83138 0.0
C839 C 1.01923 0.82773 0.87459 0.0
H840 H 0.08416 0.78285 0.79038 0.0
C841 C 1.03272 0.80015 0.9124 0.0
H842 H 1.03147 0.84138 0.80147 0.0
C843 C 0.0651 0.76694 0.90675 0.0
C844 C 0.08403 0.75815 0.86228 0.0
H845 H 1.01859 0.80473 0.9468 0.0
H846 H 0.07384 0.74662 0.93663 0.0
C847 C 0.07074 0.78681 0.82524 0.0
C848 C 0.57464 0.75815 0.06188 0.0
C849 C 0.54924 0.73051 0.09064 0.0
H850 H 0.62124 0.81153 0.05647 0.0
C851 C 0.55662 0.73712 0.14033 0.0
H852 H 0.57137 0.75426 0.02346 0.0
C853 C 0.58677 0.77128 0.15987 0.0
C854 C 0.61022 0.80141 0.13086 0.0
H855 H 0.53918 0.71594 0.16426 0.0
H856 H 0.5906 0.77534 0.19823 0.0
C857 C 0.60402 0.7923 0.08135 0.0
C858 C 0.9414 0.28197 0.60786 0.0
C859 C 0.9557 0.30237 0.65245 0.0
H860 H 0.89314 0.24085 0.56885 0.0
C861 C 0.93264 0.2937 0.6927 0.0
H862 H 0.95867 0.28779 0.57607 0.0
C863 C 0.89605 0.26602 0.68849 0.0
C864 C 0.87978 0.24856 0.64389 0.0
H865 H 0.94324 0.30772 0.72765 0.0
H866 H 0.88123 0.25676 0.72057 0.0
C867 C 0.90369 0.25552 0.60358 0.0
C868 C 0.93982 0.7282 0.88705 0.0
C869 C 0.96271 0.71444 0.84663 0.0
H870 H 0.8928 0.77324 0.91639 0.0
C871 C 0.95909 0.74072 0.80625 0.0
H872 H 0.9429 0.70918 0.91925 0.0
C873 C 0.93259 0.77899 0.80566 0.0
C874 C 0.90731 0.7913 0.84475 0.0
H875 H 0.97735 0.7322 0.77528 0.0
H876 H 0.93078 0.79796 0.77329 0.0
C877 C 0.91175 0.76555 0.88585 0.0
C878 C 0.37839 0.28471 0.38089 0.0
C879 C 0.37248 0.29779 0.33356 0.0
H880 H 0.41272 0.24422 0.43033 0.0
C881 C 0.39786 0.27578 0.29898 0.0
H882 H 0.35923 0.29919 0.40844 0.0
C883 C 0.42773 0.24277 0.31123 0.0
C884 C 0.43437 0.23107 0.35876 0.0
H885 H 0.39486 0.28417 0.26204 0.0
H886 H 0.44648 0.22718 0.28339 0.0
C887 C 0.409 0.2525 0.3934 0.0
C888 C 0.0437 0.21636 0.56539 0.0
C889 C 1.02017 0.18872 0.59689 0.0
H890 H 0.09069 0.27119 0.55558 0.0
C891 C 1.02919 0.19845 0.64579 0.0
H892 H 0.03859 0.21096 0.5273 0.0
C893 C 0.05981 0.23358 0.66202 0.0
C894 C 0.0833 0.26118 0.63045 0.0
H895 H 1.01263 0.17888 0.67179 0.0
H896 H 0.06483 0.23932 0.7001 0.0
C897 C 0.07433 0.25139 0.58158 0.0
C898 C 0.36573 0.77814 0.10972 0.0
C899 C 0.36953 0.73587 0.13356 0.0
H900 H 0.39664 0.84064 0.08504 0.0
C901 C 0.40771 0.72716 0.15538 0.0
H902 H 0.33629 0.78707 0.09455 0.0
C903 C 0.44221 0.75739 0.14943 0.0
C904 C 0.43911 0.79773 0.12266 0.0
H905 H 0.41098 0.69637 0.1763 0.0
H906 H 0.47115 0.74964 0.16645 0.0
C907 C 0.40026 0.80861 0.10408 0.0
C908 C 0.67266 0.45751 0.74276 0.0
C909 C 0.71192 0.44378 0.72702 0.0
H910 H 0.62376 0.50793 0.73797 0.0
C911 C 0.72503 0.46155 0.68407 0.0
H912 H 0.6592 0.44089 0.77278 0.0
C913 C 0.70297 0.49678 0.66185 0.0
C914 C 0.66872 0.51834 0.68353 0.0
H915 H 0.75279 0.44861 0.66785 0.0
H916 H 0.71506 0.5099 0.62932 0.0
C917 C 0.65168 0.49518 0.72203 0.0
C918 C 0.90994 0.34864 1.00258 0.0
C919 C 0.92756 0.39199 0.02244 0.0
H920 H 0.86479 0.31312 0.95453 0.0
C921 C 0.91071 0.43418 1.006 0.0
H922 H 0.92099 0.31525 0.01428 0.0
C923 C 0.87857 0.43309 0.97067 0.0
C924 C 0.86071 0.38968 0.95114 0.0
H925 H 0.9226 0.46853 0.02047 0.0
H926 H 0.86743 0.46645 0.959 0.0
C927 C 0.87711 0.34754 0.96825 0.0
C928 C 0.93329 0.51439 0.3431 0.0
C929 C 0.89654 0.55473 0.32355 0.0
H930 H 0.98263 0.45081 0.32421 0.0
C931 C 0.87734 0.55681 0.26772 0.0
H932 H 0.93739 0.51046 0.38048 0.0
C933 C 0.8928 0.52227 0.22237 0.0
C934 C 0.94997 0.46385 0.2458 0.0
H935 H 0.85421 0.58182 0.2589 0.0
H936 H 0.87753 0.5286 0.18831 0.0
C937 C 0.96011 0.47234 0.3076 0.0
C938 C 0.77315 0.62916 0.49188 0.0
C939 C 0.76419 0.65437 0.45149 0.0
H940 H 0.75116 0.60301 0.55739 0.0
C941 C 0.72532 0.6749 0.44806 0.0
H942 H 0.80234 0.61203 0.49507 0.0
C943 C 0.69622 0.67059 0.48409 0.0
C944 C 0.70464 0.64425 0.5239 0.0
H945 H 0.71723 0.69396 0.41702 0.0
H946 H 0.66673 0.68696 0.48018 0.0
C947 C 0.74358 0.62366 0.52731 0.0
C948 C 0.75175 0.50131 0.82647 0.0
C949 C 0.7097 0.506 0.83663 0.0
H950 H 0.80186 0.51658 0.77951 0.0
C951 C 0.6895 0.54226 0.81366 0.0
H952 H 0.7702 0.47898 0.84771 0.0
C953 C 0.70838 0.56625 0.77623 0.0
C954 C 0.74775 0.5542 0.75973 0.0
H955 H 0.6586 0.55127 0.82371 0.0
H956 H 0.69143 0.59325 0.75912 0.0
C957 C 0.77018 0.52369 0.78778 0.0
C958 C 0.77097 0.40052 0.04609 0.0
C959 C 0.78376 0.35454 0.05461 0.0
H960 H 0.7302 0.44315 0.00783 0.0
C961 C 0.76776 0.31575 0.02552 0.0
H962 H 0.78317 0.43113 0.06766 0.0
C963 C 0.73671 0.32264 0.99129 0.0
C964 C 0.7218 0.36842 0.98547 0.0
H965 H 0.7769 0.27989 0.03169 0.0
H966 H 0.72241 0.29184 0.9722 0.0
C967 C 0.74046 0.40738 0.01192 0.0
C968 C 0.89207 0.47705 0.28203 0.0
C969 C 0.94895 0.54027 0.26453 0.0
H970 H 0.85486 0.41516 0.24297 0.0
C971 C 0.9617 0.53288 0.20406 0.0
H972 H 0.87537 0.46932 0.31436 0.0
C973 C 0.93685 0.48837 0.16613 0.0
C974 C 0.90004 0.44462 0.18227 0.0
H975 H 0.98439 0.55674 0.18972 0.0
H976 H 0.94157 0.49365 0.12931 0.0
C977 C 0.87851 0.44144 0.23584 0.0
C978 C 0.904 0.57696 0.50029 0.0
C979 C 0.92986 0.61649 0.49022 0.0
H980 H 0.8596 0.54653 0.54715 0.0
C981 C 0.92738 0.65776 0.52078 0.0
H982 H 0.90475 0.54433 0.47796 0.0
C983 C 0.90109 0.65895 0.56043 0.0
C984 C 0.87568 0.61929 0.57083 0.0
H985 H 0.9464 0.68901 0.51465 0.0
H986 H 0.90138 0.69088 0.58391 0.0
C987 C 0.87758 0.57825 0.5399 0.0
C988 C 0.50276 0.74508 0.70597 0.0
C989 C 0.51308 0.7172 0.66486 0.0
H990 H 0.46605 0.80056 0.73733 0.0
C991 C 0.49017 0.72442 0.62277 0.0
H992 H 0.51873 0.74021 0.7394 0.0
C993 C 0.45842 0.75816 0.62194 0.0
C994 C 0.44927 0.78759 0.66261 0.0
H995 H 0.49592 0.7028 0.59061 0.0
H996 H 0.44103 0.76108 0.58925 0.0
C997 C 0.47205 0.77976 0.70474 0.0
C998 C 0.35137 0.55883 0.31012 0.0
C999 C 0.35141 0.55366 0.24807 0.0
H1000 H 0.37392 0.52478 0.38247 0.0
C1001 C 0.38893 0.47577 0.21961 0.0
H1002 H 0.33691 0.58888 0.32782 0.0
C1003 C 0.40529 0.44437 0.26889 0.0
C1004 C 0.39769 0.46516 0.32471 0.0
H1005 H 0.39499 0.46286 0.17772 0.0
H1006 H 0.39841 0.45699 0.23961 0.0
C1007 C 0.37418 0.51729 0.34431 0.0
C1008 C 0.18022 0.59993 0.04631 0.0
C1009 C 0.19158 0.64857 0.05543 0.0
H1010 H 0.14157 0.54743 1.00576 0.0
C1011 C 0.16984 0.68126 0.02843 0.0
H1012 H 0.19521 0.57326 0.0661 0.0
C1013 C 0.1392 0.66652 0.99383 0.0
C1014 C 0.12819 0.61821 0.98416 0.0
H1015 H 0.17655 0.71916 0.0337 0.0
H1016 H 0.124 0.6934 0.97458 0.0
C1017 C 0.14898 0.58513 0.01164 0.0
C1018 C 0.14763 0.56551 0.73572 0.0
C1019 C 0.10376 0.56894 0.73904 0.0
H1020 H 0.19915 0.52248 0.71397 0.0
C1021 C 0.08342 0.54629 0.69873 0.0
H1022 H 0.16908 0.59144 0.75079 0.0
C1023 C 0.10488 0.51574 0.66556 0.0
C1024 C 0.14349 0.49712 0.677 0.0
H1025 H 0.05096 0.55174 0.69271 0.0
H1026 H 0.09031 0.50515 0.63286 0.0
C1027 C 0.16651 0.52771 0.70907 0.0
C1028 C 0.3169 0.42651 0.57692 0.0
C1029 C 0.2884 0.38929 0.56351 0.0
H1030 H 0.37215 0.46501 0.56043 0.0
C1031 C 0.29621 0.36009 0.52254 0.0
H1032 H 0.3121 0.44971 0.60827 0.0
C1033 C 0.33112 0.36877 0.49509 0.0
C1034 C 0.35895 0.40686 0.50772 0.0
H1035 H 0.27494 0.33107 0.5111 0.0
H1036 H 0.33511 0.34716 0.46286 0.0
C1037 C 0.35146 0.43528 0.54937 0.0
C1038 C 0.41037 0.52959 0.27384 0.0
C1039 C 0.34023 0.48235 0.27209 0.0
H1040 H 0.44906 0.57389 0.22074 0.0
C1041 C 0.31785 0.48392 0.2147 0.0
H1042 H 0.43399 0.53739 0.30181 0.0
C1043 C 0.34214 0.51368 0.16969 0.0
C1044 C 0.38854 0.54662 0.17422 0.0
H1045 H 0.28813 0.46647 0.2071 0.0
H1046 H 0.32585 0.51304 0.13572 0.0
C1047 C 0.42059 0.55311 0.2221 0.0
C1048 C 0.32963 0.69141 0.0115 0.0
C1049 C 0.36255 0.66355 0.99645 0.0
H1050 H 0.26648 0.70851 1.00079 0.0
C1051 C 0.35698 0.63304 0.95525 0.0
H1052 H 0.33291 0.71571 0.04229 0.0
C1053 C 0.31882 0.6286 0.93145 0.0
C1054 C 0.28539 0.6548 0.94806 0.0
H1055 H 0.38158 0.61094 0.94242 0.0
H1056 H 0.31542 0.60404 0.90041 0.0
C1057 C 0.2914 0.68704 0.98773 0.0
C1058 C 0.0807 0.46618 0.81233 0.0
C1059 C 0.1013 0.44632 0.77253 0.0
H1060 H 0.08831 0.50399 0.88117 0.0
C1061 C 0.14488 0.45244 0.7779 0.0
H1062 H 0.0483 0.45777 0.81654 0.0
C1063 C 0.16372 0.49107 0.80623 0.0
C1064 C 0.14057 0.5193 0.83765 0.0
H1065 H 0.16545 0.42828 0.76205 0.0
H1066 H 0.19627 0.49923 0.80275 0.0
C1067 C 0.10223 0.49703 0.84764 0.0
C1068 C 0.15162 0.38498 0.51826 0.0
C1069 C 0.12671 0.42452 0.52738 0.0
H1070 H 0.20244 0.3547 0.47998 0.0
C1071 C 0.13478 0.46424 0.4995 0.0
H1072 H 0.14611 0.35301 0.53699 0.0
C1073 C 0.1669 0.46499 0.46571 0.0
C1074 C 0.19317 0.42632 0.45853 0.0
H1075 H 0.11647 0.49558 0.50425 0.0
H1076 H 0.17156 0.4964 0.44574 0.0
C1077 C 0.18429 0.3861 0.48519 0.0
C1078 C 0.56316 0.27931 0.40572 0.0
C1079 C 0.54385 0.30023 0.36705 0.0
H1080 H 0.61025 0.23345 0.42948 0.0
C1081 C 0.56085 0.29113 0.32177 0.0
H1082 H 0.55251 0.28691 0.44151 0.0
C1083 C 0.59368 0.25933 0.31508 0.0
C1084 C 0.61074 0.23532 0.35344 0.0
H1085 H 0.54786 0.30736 0.29115 0.0
H1086 H 0.60425 0.25157 0.27929 0.0
C1087 C 0.59609 0.24798 0.39897 0.0
loop_
_geom_bond_atom_site_label_1
_geom_bond_atom_site_label_2
_geom_bond_distance
_geom_bond_site_symmetry_2
_ccdc_geom_bond_type
Co0 O1 2.216 . S
Co0 O2 2.091 . S
Co0 O4 2.004 . S
Co0 O10 2.021 . S
Co0 O12 2.137 . S
Co0 O13 2.244 . S
O1 Co0 2.216 . S
O1 C8 1.247 . S
O2 Co0 2.091 . S
O2 C8 1.261 . S
C3 O12 1.247 . S
C3 O13 1.272 . S
O4 Co0 2.004 . S
O4 C9 1.259 . S
Co5 O6 2.061 . S
Co5 O11 2.052 . S
Co5 O13 2.135 . S
O6 Co5 2.061 . S
O6 C9 1.235 . S
C7 O10 1.238 . S
C7 O11 1.241 . S
C8 O1 1.247 . S
C8 O2 1.261 . S
C9 O4 1.259 . S
C9 O6 1.235 . S
O10 Co0 2.021 . S
O10 C7 1.238 . S
O11 Co5 2.052 . S
O11 C7 1.241 . S
O12 Co0 2.137 . S
O12 C3 1.247 . S
O13 Co0 2.244 . S
O13 C3 1.272 . S
O13 Co5 2.135 . S
Co14 O15 2.216 . S
Co14 O16 2.091 . S
Co14 O18 2.004 . S
Co14 O24 2.021 . S
Co14 O26 2.137 . S
Co14 O27 2.244 . S
O15 Co14 2.216 . S
O15 C22 1.247 . S
O16 Co14 2.091 . S
O16 C22 1.261 . S
C17 O26 1.247 . S
C17 O27 1.272 . S
O18 Co14 2.004 . S
O18 C23 1.259 . S
Co19 O20 2.061 . S
Co19 O25 2.052 . S
Co19 O27 2.135 . S
O20 Co19 2.061 . S
O20 C23 1.235 . S
C21 O24 1.238 . S
C21 O25 1.241 . S
C22 O15 1.247 . S
C22 O16 1.261 . S
C23 O18 1.259 . S
C23 O20 1.235 . S
O24 Co14 2.021 . S
O24 C21 1.238 . S
O25 Co19 2.052 . S
O25 C21 1.241 . S
O26 Co14 2.137 . S
O26 C17 1.247 . S
O27 Co14 2.244 . S
O27 C17 1.272 . S
O27 Co19 2.135 . S
Co28 O29 2.216 . S
Co28 O30 2.091 . S
Co28 O32 2.004 . S
Co28 O38 2.021 . S
Co28 O40 2.137 . S
Co28 O41 2.244 . S
O29 Co28 2.216 . S
O29 C36 1.247 . S
O30 Co28 2.091 . S
O30 C36 1.261 . S
C31 O40 1.247 . S
C31 O41 1.272 . S
O32 Co28 2.004 . S
O32 C37 1.259 . S
Co33 O34 2.061 . S
Co33 O39 2.052 . S
Co33 O41 2.135 . S
O34 Co33 2.061 . S
O34 C37 1.235 . S
C35 O38 1.238 . S
C35 O39 1.241 . S
C36 O29 1.247 . S
C36 O30 1.261 . S
C37 O32 1.259 . S
C37 O34 1.235 . S
O38 Co28 2.021 . S
O38 C35 1.238 . S
O39 Co33 2.052 . S
O39 C35 1.241 . S
O40 Co28 2.137 . S
O40 C31 1.247 . S
O41 Co28 2.244 . S
O41 C31 1.272 . S
O41 Co33 2.135 . S
Co42 O43 2.216 . S
Co42 O44 2.091 . S
Co42 O46 2.004 . S
Co42 O52 2.021 . S
Co42 O54 2.137 . S
Co42 O55 2.244 . S
O43 Co42 2.216 . S
O43 C50 1.247 . S
O44 Co42 2.091 . S
O44 C50 1.261 . S
C45 O54 1.247 . S
C45 O55 1.272 . S
O46 Co42 2.004 . S
O46 C51 1.259 . S
Co47 O48 2.061 . S
Co47 O53 2.052 . S
Co47 O55 2.135 . S
O48 Co47 2.061 . S
O48 C51 1.235 . S
C49 O52 1.238 . S
C49 O53 1.241 . S
C50 O43 1.247 . S
C50 O44 1.261 . S
C51 O46 1.259 . S
C51 O48 1.235 . S
O52 Co42 2.021 . S
O52 C49 1.238 . S
O53 Co47 2.052 . S
O53 C49 1.241 . S
O54 Co42 2.137 . S
O54 C45 1.247 . S
O55 Co42 2.244 . S
O55 C45 1.272 . S
O55 Co47 2.135 . S
Co56 O57 2.216 . S
Co56 O58 2.091 . S
Co56 O60 2.004 . S
Co56 O66 2.021 . S
Co56 O68 2.137 . S
Co56 O69 2.244 . S
O57 Co56 2.216 . S
O57 C64 1.247 . S
O58 Co56 2.091 . S
O58 C64 1.261 . S
C59 O68 1.247 . S
C59 O69 1.272 . S
O60 Co56 2.004 . S
O60 C65 1.259 . S
Co61 O62 2.061 . S
Co61 O67 2.052 . S
Co61 O69 2.135 . S
O62 Co61 2.061 . S
O62 C65 1.235 . S
C63 O66 1.238 . S
C63 O67 1.241 . S
C64 O57 1.247 . S
C64 O58 1.261 . S
C65 O60 1.259 . S
C65 O62 1.235 . S
O66 Co56 2.021 . S
O66 C63 1.238 . S
O67 Co61 2.052 . S
O67 C63 1.241 . S
O68 Co56 2.137 . S
O68 C59 1.247 . S
O69 Co56 2.244 . S
O69 C59 1.272 . S
O69 Co61 2.135 . S
Co70 O71 2.216 . S
Co70 O72 2.091 . S
Co70 O74 2.004 . S
Co70 O80 2.021 . S
Co70 O82 2.137 . S
Co70 O83 2.244 . S
O71 Co70 2.216 . S
O71 C78 1.247 . S
O72 Co70 2.091 . S
O72 C78 1.261 . S
C73 O82 1.247 . S
C73 O83 1.272 . S
O74 Co70 2.004 . S
O74 C79 1.259 . S
Co75 O76 2.061 . S
Co75 O81 2.052 . S
Co75 O83 2.135 . S
O76 Co75 2.061 . S
O76 C79 1.235 . S
C77 O80 1.238 . S
C77 O81 1.241 . S
C78 O71 1.247 . S
C78 O72 1.261 . S
C79 O74 1.259 . S
C79 O76 1.235 . S
O80 Co70 2.021 . S
O80 C77 1.238 . S
O81 Co75 2.052 . S
O81 C77 1.241 . S
O82 Co70 2.137 . S
O82 C73 1.247 . S
O83 Co70 2.244 . S
O83 C73 1.272 . S
O83 Co75 2.135 . S
Co84 O85 2.216 . S
Co84 O86 2.091 . S
Co84 O88 2.004 . S
Co84 O94 2.021 . S
Co84 O96 2.137 . S
Co84 O97 2.244 . S
O85 Co84 2.216 . S
O85 C92 1.247 . S
O86 Co84 2.091 . S
O86 C92 1.261 . S
C87 O96 1.247 . S
C87 O97 1.272 . S
O88 Co84 2.004 . S
O88 C93 1.259 . S
Co89 O90 2.061 . S
Co89 O95 2.052 . S
Co89 O97 2.135 . S
O90 Co89 2.061 . S
O90 C93 1.235 . S
C91 O94 1.238 . S
C91 O95 1.241 . S
C92 O85 1.247 . S
C92 O86 1.261 . S
C93 O88 1.259 . S
C93 O90 1.235 . S
O94 Co84 2.021 . S
O94 C91 1.238 . S
O95 Co89 2.052 . S
O95 C91 1.241 . S
O96 Co84 2.137 . S
O96 C87 1.247 . S
O97 Co84 2.244 . S
O97 C87 1.272 . S
O97 Co89 2.135 . S
Co98 O99 2.216 . S
Co98 O100 2.091 . S
Co98 O102 2.004 . S
Co98 O108 2.021 . S
Co98 O110 2.137 . S
Co98 O111 2.244 . S
O99 Co98 2.216 . S
O99 C106 1.247 . S
O100 Co98 2.091 . S
O100 C106 1.261 . S
C101 O110 1.247 . S
C101 O111 1.272 . S
O102 Co98 2.004 . S
O102 C107 1.259 . S
Co103 O104 2.061 . S
Co103 O109 2.052 . S
Co103 O111 2.135 . S
O104 Co103 2.061 . S
O104 C107 1.235 . S
C105 O108 1.238 . S
C105 O109 1.241 . S
C106 O99 1.247 . S
C106 O100 1.261 . S
C107 O102 1.259 . S
C107 O104 1.235 . S
O108 Co98 2.021 . S
O108 C105 1.238 . S
O109 Co103 2.052 . S
O109 C105 1.241 . S
O110 Co98 2.137 . S
O110 C101 1.247 . S
O111 Co98 2.244 . S
O111 C101 1.272 . S
O111 Co103 2.135 . S
Co112 O113 2.216 . S
Co112 O114 2.091 . S
Co112 O116 2.004 . S
Co112 O122 2.021 . S
Co112 O124 2.137 . S
Co112 O125 2.244 . S
O113 Co112 2.216 . S
O113 C120 1.247 . S
O114 Co112 2.091 . S
O114 C120 1.261 . S
C115 O124 1.247 . S
C115 O125 1.272 . S
O116 Co112 2.004 . S
O116 C121 1.259 . S
Co117 O118 2.061 . S
Co117 O123 2.052 . S
Co117 O125 2.135 . S
O118 Co117 2.061 . S
O118 C121 1.235 . S
C119 O122 1.238 . S
C119 O123 1.241 . S
C120 O113 1.247 . S
C120 O114 1.261 . S
C121 O116 1.259 . S
C121 O118 1.235 . S
O122 Co112 2.021 . S
O122 C119 1.238 . S
O123 Co117 2.052 . S
O123 C119 1.241 . S
O124 Co112 2.137 . S
O124 C115 1.247 . S
O125 Co112 2.244 . S
O125 C115 1.272 . S
O125 Co117 2.135 . S
Co126 O127 2.216 . S
Co126 O128 2.091 . S
Co126 O130 2.004 . S
Co126 O136 2.021 . S
Co126 O138 2.137 . S
Co126 O139 2.244 . S
O127 Co126 2.216 . S
O127 C134 1.247 . S
O128 Co126 2.091 . S
O128 C134 1.261 . S
C129 O138 1.247 . S
C129 O139 1.272 . S
O130 Co126 2.004 . S
O130 C135 1.259 . S
Co131 O132 2.061 . S
Co131 O137 2.052 . S
Co131 O139 2.135 . S
O132 Co131 2.061 . S
O132 C135 1.235 . S
C133 O136 1.238 . S
C133 O137 1.241 . S
C134 O127 1.247 . S
C134 O128 1.261 . S
C135 O130 1.259 . S
C135 O132 1.235 . S
O136 Co126 2.021 . S
O136 C133 1.238 . S
O137 Co131 2.052 . S
O137 C133 1.241 . S
O138 Co126 2.137 . S
O138 C129 1.247 . S
O139 Co126 2.244 . S
O139 C129 1.272 . S
O139 Co131 2.135 . S
Co140 O141 2.216 . S
Co140 O142 2.091 . S
Co140 O144 2.004 . S
Co140 O150 2.021 . S
Co140 O152 2.137 . S
Co140 O153 2.244 . S
O141 Co140 2.216 . S
O141 C148 1.247 . S
O142 Co140 2.091 . S
O142 C148 1.261 . S
C143 O152 1.247 . S
C143 O153 1.272 . S
O144 Co140 2.004 . S
O144 C149 1.259 . S
Co145 O146 2.061 . S
Co145 O151 2.052 . S
Co145 O153 2.135 . S
O146 Co145 2.061 . S
O146 C149 1.235 . S
C147 O150 1.238 . S
C147 O151 1.241 . S
C148 O141 1.247 . S
C148 O142 1.261 . S
C149 O144 1.259 . S
C149 O146 1.235 . S
O150 Co140 2.021 . S
O150 C147 1.238 . S
O151 Co145 2.052 . S
O151 C147 1.241 . S
O152 Co140 2.137 . S
O152 C143 1.247 . S
O153 Co140 2.244 . S
O153 C143 1.272 . S
O153 Co145 2.135 . S
Co154 O155 2.216 . S
Co154 O156 2.091 . S
Co154 O158 2.004 . S
Co154 O164 2.021 . S
Co154 O166 2.137 . S
Co154 O167 2.244 . S
O155 Co154 2.216 . S
O155 C162 1.247 . S
O156 Co154 2.091 . S
O156 C162 1.261 . S
C157 O166 1.247 . S
C157 O167 1.272 . S
O158 Co154 2.004 . S
O158 C163 1.259 . S
Co159 O160 2.061 . S
Co159 O165 2.052 . S
Co159 O167 2.135 . S
O160 Co159 2.061 . S
O160 C163 1.235 . S
C161 O164 1.238 . S
C161 O165 1.241 . S
C162 O155 1.247 . S
C162 O156 1.261 . S
C163 O158 1.259 . S
C163 O160 1.235 . S
O164 Co154 2.021 . S
O164 C161 1.238 . S
O165 Co159 2.052 . S
O165 C161 1.241 . S
O166 Co154 2.137 . S
O166 C157 1.247 . S
O167 Co154 2.244 . S
O167 C157 1.272 . S
O167 Co159 2.135 . S
Co168 O169 2.216 . S
Co168 O170 2.091 . S
Co168 O172 2.004 . S
Co168 O178 2.021 . S
Co168 O180 2.137 . S
Co168 O181 2.244 . S
O169 Co168 2.216 . S
O169 C176 1.247 . S
O170 Co168 2.091 . S
O170 C176 1.261 . S
C171 O180 1.247 . S
C171 O181 1.272 . S
O172 Co168 2.004 . S
O172 C177 1.259 . S
Co173 O174 2.061 . S
Co173 O179 2.052 . S
Co173 O181 2.135 . S
O174 Co173 2.061 . S
O174 C177 1.235 . S
C175 O178 1.238 . S
C175 O179 1.241 . S
C176 O169 1.247 . S
C176 O170 1.261 . S
C177 O172 1.259 . S
C177 O174 1.235 . S
O178 Co168 2.021 . S
O178 C175 1.238 . S
O179 Co173 2.052 . S
O179 C175 1.241 . S
O180 Co168 2.137 . S
O180 C171 1.247 . S
O181 Co168 2.244 . S
O181 C171 1.272 . S
O181 Co173 2.135 . S
Co182 O183 2.216 . S
Co182 O184 2.091 . S
Co182 O186 2.004 . S
Co182 O192 2.021 . S
Co182 O194 2.137 . S
Co182 O195 2.244 . S
O183 Co182 2.216 . S
O183 C190 1.247 . S
O184 Co182 2.091 . S
O184 C190 1.261 . S
C185 O194 1.247 . S
C185 O195 1.272 . S
O186 Co182 2.004 . S
O186 C191 1.259 . S
Co187 O188 2.061 1_545 S
Co187 O193 2.052 1_545 S
Co187 O195 2.135 1_545 S
O188 Co187 2.061 1_565 S
O188 C191 1.235 . S
C189 O192 1.238 . S
C189 O193 1.241 . S
C190 O183 1.247 . S
C190 O184 1.261 . S
C191 O186 1.259 . S
C191 O188 1.235 . S
O192 Co182 2.021 . S
O192 C189 1.238 . S
O193 Co187 2.052 1_565 S
O193 C189 1.241 . S
O194 Co182 2.137 . S
O194 C185 1.247 . S
O195 Co182 2.244 . S
O195 C185 1.272 . S
O195 Co187 2.135 1_565 S
Co196 O197 2.216 . S
Co196 O198 2.091 . S
Co196 O200 2.004 . S
Co196 O206 2.021 . S
Co196 O208 2.137 . S
Co196 O209 2.244 . S
O197 Co196 2.216 . S
O197 C204 1.247 . S
O198 Co196 2.091 . S
O198 C204 1.261 . S
C199 O208 1.247 . S
C199 O209 1.272 . S
O200 Co196 2.004 . S
O200 C205 1.259 . S
Co201 O202 2.061 . S
Co201 O207 2.052 . S
Co201 O209 2.135 . S
O202 Co201 2.061 . S
O202 C205 1.235 . S
C203 O206 1.238 . S
C203 O207 1.241 . S
C204 O197 1.247 . S
C204 O198 1.261 . S
C205 O200 1.259 . S
C205 O202 1.235 . S
O206 Co196 2.021 . S
O206 C203 1.238 . S
O207 Co201 2.052 . S
O207 C203 1.241 . S
O208 Co196 2.137 . S
O208 C199 1.247 . S
O209 Co196 2.244 . S
O209 C199 1.272 . S
O209 Co201 2.135 . S
Co210 O211 2.216 . S
Co210 O212 2.091 . S
Co210 O214 2.004 . S
Co210 O220 2.021 . S
Co210 O222 2.137 . S
Co210 O223 2.244 . S
O211 Co210 2.216 . S
O211 C218 1.247 . S
O212 Co210 2.091 . S
O212 C218 1.261 . S
C213 O222 1.247 . S
C213 O223 1.272 . S
O214 Co210 2.004 . S
O214 C219 1.259 . S
Co215 O216 2.061 . S
Co215 O221 2.052 . S
Co215 O223 2.135 . S
O216 Co215 2.061 . S
O216 C219 1.235 . S
C217 O220 1.238 . S
C217 O221 1.241 . S
C218 O211 1.247 . S
C218 O212 1.261 . S
C219 O214 1.259 . S
C219 O216 1.235 . S
O220 Co210 2.021 . S
O220 C217 1.238 . S
O221 Co215 2.052 . S
O221 C217 1.241 . S
O222 Co210 2.137 . S
O222 C213 1.247 . S
O223 Co210 2.244 . S
O223 C213 1.272 . S
O223 Co215 2.135 . S
Co224 O225 2.216 . S
Co224 O226 2.091 . S
Co224 O228 2.004 . S
Co224 O234 2.021 . S
Co224 O236 2.137 . S
Co224 O237 2.244 . S
O225 Co224 2.216 . S
O225 C232 1.247 . S
O226 Co224 2.091 . S
O226 C232 1.261 . S
C227 O236 1.247 . S
C227 O237 1.272 . S
O228 Co224 2.004 . S
O228 C233 1.259 . S
Co229 O230 2.061 . S
Co229 O235 2.052 . S
Co229 O237 2.135 . S
O230 Co229 2.061 . S
O230 C233 1.235 . S
C231 O234 1.238 . S
C231 O235 1.241 . S
C232 O225 1.247 . S
C232 O226 1.261 . S
C233 O228 1.259 . S
C233 O230 1.235 . S
O234 Co224 2.021 . S
O234 C231 1.238 . S
O235 Co229 2.052 . S
O235 C231 1.241 . S
O236 Co224 2.137 . S
O236 C227 1.247 . S
O237 Co224 2.244 . S
O237 C227 1.272 . S
O237 Co229 2.135 . S
Co238 O239 2.216 . S
Co238 O240 2.091 . S
Co238 O242 2.004 . S
Co238 O248 2.021 . S
Co238 O250 2.137 . S
Co238 O251 2.244 . S
O239 Co238 2.216 . S
O239 C246 1.247 . S
O240 Co238 2.091 . S
O240 C246 1.261 . S
C241 O250 1.247 . S
C241 O251 1.272 . S
O242 Co238 2.004 . S
O242 C247 1.259 . S
Co243 O244 2.061 . S
Co243 O249 2.052 . S
Co243 O251 2.135 . S
O244 Co243 2.061 . S
O244 C247 1.235 . S
C245 O248 1.238 . S
C245 O249 1.241 . S
C246 O239 1.247 . S
C246 O240 1.261 . S
C247 O242 1.259 . S
C247 O244 1.235 . S
O248 Co238 2.021 . S
O248 C245 1.238 . S
O249 Co243 2.052 . S
O249 C245 1.241 . S
O250 Co238 2.137 . S
O250 C241 1.247 . S
O251 Co238 2.244 . S
O251 C241 1.272 . S
O251 Co243 2.135 . S
Co252 O253 2.216 . S
Co252 O254 2.091 . S
Co252 O256 2.004 . S
Co252 O262 2.021 . S
Co252 O264 2.137 . S
Co252 O265 2.244 . S
O253 Co252 2.216 . S
O253 C260 1.247 . S
O254 Co252 2.091 . S
O254 C260 1.261 . S
C255 O264 1.247 . S
C255 O265 1.272 . S
O256 Co252 2.004 . S
O256 C261 1.259 . S
Co257 O258 2.061 . S
Co257 O263 2.052 . S
Co257 O265 2.135 . S
O258 Co257 2.061 . S
O258 C261 1.235 . S
C259 O262 1.238 . S
C259 O263 1.241 . S
C260 O253 1.247 . S
C260 O254 1.261 . S
C261 O256 1.259 . S
C261 O258 1.235 . S
O262 Co252 2.021 . S
O262 C259 1.238 . S
O263 Co257 2.052 . S
O263 C259 1.241 . S
O264 Co252 2.137 . S
O264 C255 1.247 . S
O265 Co252 2.244 . S
O265 C255 1.272 . S
O265 Co257 2.135 . S
Co266 O267 2.216 . S
Co266 O268 2.091 . S
Co266 O270 2.004 . S
Co266 O276 2.021 . S
Co266 O278 2.137 . S
Co266 O279 2.244 . S
O267 Co266 2.216 . S
O267 C274 1.247 . S
O268 Co266 2.091 . S
O268 C274 1.261 . S
C269 O278 1.247 . S
C269 O279 1.272 . S
O270 Co266 2.004 . S
O270 C275 1.259 . S
Co271 O272 2.061 1_545 S
Co271 O277 2.052 1_545 S
Co271 O279 2.135 1_545 S
O272 Co271 2.061 1_565 S
O272 C275 1.235 . S
C273 O276 1.238 . S
C273 O277 1.241 . S
C274 O267 1.247 . S
C274 O268 1.261 . S
C275 O270 1.259 . S
C275 O272 1.235 . S
O276 Co266 2.021 . S
O276 C273 1.238 . S
O277 Co271 2.052 1_565 S
O277 C273 1.241 . S
O278 Co266 2.137 . S
O278 C269 1.247 . S
O279 Co266 2.244 . S
O279 C269 1.272 . S
O279 Co271 2.135 1_565 S
Co280 O281 2.216 . S
Co280 O282 2.091 . S
Co280 O284 2.004 . S
Co280 O290 2.021 . S
Co280 O292 2.137 . S
Co280 O293 2.244 . S
O281 Co280 2.216 . S
O281 C288 1.247 . S
O282 Co280 2.091 . S
O282 C288 1.261 . S
C283 O292 1.247 . S
C283 O293 1.272 . S
O284 Co280 2.004 . S
O284 C289 1.259 . S
Co285 O286 2.061 . S
Co285 O291 2.052 . S
Co285 O293 2.135 . S
O286 Co285 2.061 . S
O286 C289 1.235 . S
C287 O290 1.238 . S
C287 O291 1.241 . S
C288 O281 1.247 . S
C288 O282 1.261 . S
C289 O284 1.259 . S
C289 O286 1.235 . S
O290 Co280 2.021 . S
O290 C287 1.238 . S
O291 Co285 2.052 . S
O291 C287 1.241 . S
O292 Co280 2.137 . S
O292 C283 1.247 . S
O293 Co280 2.244 . S
O293 C283 1.272 . S
O293 Co285 2.135 . S
Co294 O295 2.216 . S
Co294 O296 2.091 . S
Co294 O298 2.004 . S
Co294 O304 2.021 . S
Co294 O306 2.137 . S
Co294 O307 2.244 . S
O295 Co294 2.216 . S
O295 C302 1.247 . S
O296 Co294 2.091 . S
O296 C302 1.261 . S
C297 O306 1.247 . S
C297 O307 1.272 . S
O298 Co294 2.004 . S
O298 C303 1.259 . S
Co299 O300 2.061 1_556 S
Co299 O305 2.052 1_556 S
Co299 O307 2.135 1_556 S
O300 Co299 2.061 1_554 S
O300 C303 1.235 . S
C301 O304 1.238 . S
C301 O305 1.241 . S
C302 O295 1.247 . S
C302 O296 1.261 . S
C303 O298 1.259 . S
C303 O300 1.235 . S
O304 Co294 2.021 . S
O304 C301 1.238 . S
O305 Co299 2.052 1_554 S
O305 C301 1.241 . S
O306 Co294 2.137 . S
O306 C297 1.247 . S
O307 Co294 2.244 . S
O307 C297 1.272 . S
O307 Co299 2.135 1_554 S
Co308 O309 2.216 . S
Co308 O310 2.091 . S
Co308 O312 2.004 . S
Co308 O318 2.021 . S
Co308 O320 2.137 . S
Co308 O321 2.244 . S
O309 Co308 2.216 . S
O309 C316 1.247 . S
O310 Co308 2.091 . S
O310 C316 1.261 . S
C311 O320 1.247 . S
C311 O321 1.272 . S
O312 Co308 2.004 . S
O312 C317 1.259 . S
Co313 O314 2.061 . S
Co313 O319 2.052 . S
Co313 O321 2.135 . S
O314 Co313 2.061 . S
O314 C317 1.235 . S
C315 O318 1.238 . S
C315 O319 1.241 . S
C316 O309 1.247 . S
C316 O310 1.261 . S
C317 O312 1.259 . S
C317 O314 1.235 . S
O318 Co308 2.021 . S
O318 C315 1.238 . S
O319 Co313 2.052 . S
O319 C315 1.241 . S
O320 Co308 2.137 . S
O320 C311 1.247 . S
O321 Co308 2.244 . S
O321 C311 1.272 . S
O321 Co313 2.135 . S
Co322 O323 2.216 . S
Co322 O324 2.091 . S
Co322 O326 2.004 . S
Co322 O332 2.021 . S
Co322 O334 2.137 . S
Co322 O335 2.244 . S
O323 Co322 2.216 . S
O323 C330 1.247 . S
O324 Co322 2.091 . S
O324 C330 1.261 . S
C325 O334 1.247 . S
C325 O335 1.272 . S
O326 Co322 2.004 . S
O326 C331 1.259 . S
Co327 O328 2.061 . S
Co327 O333 2.052 . S
Co327 O335 2.135 . S
O328 Co327 2.061 . S
O328 C331 1.235 . S
C329 O332 1.238 . S
C329 O333 1.241 . S
C330 O323 1.247 . S
C330 O324 1.261 . S
C331 O326 1.259 . S
C331 O328 1.235 . S
O332 Co322 2.021 . S
O332 C329 1.238 . S
O333 Co327 2.052 . S
O333 C329 1.241 . S
O334 Co322 2.137 . S
O334 C325 1.247 . S
O335 Co322 2.244 . S
O335 C325 1.272 . S
O335 Co327 2.135 . S
Co336 O337 2.216 . S
Co336 O338 2.091 . S
Co336 O340 2.004 . S
Co336 O346 2.021 . S
Co336 O348 2.137 . S
Co336 O349 2.244 . S
O337 Co336 2.216 . S
O337 C344 1.247 . S
O338 Co336 2.091 . S
O338 C344 1.261 . S
C339 O348 1.247 . S
C339 O349 1.272 . S
O340 Co336 2.004 . S
O340 C345 1.259 . S
Co341 O342 2.061 . S
Co341 O347 2.052 . S
Co341 O349 2.135 . S
O342 Co341 2.061 . S
O342 C345 1.235 . S
C343 O346 1.238 . S
C343 O347 1.241 . S
C344 O337 1.247 . S
C344 O338 1.261 . S
C345 O340 1.259 . S
C345 O342 1.235 . S
O346 Co336 2.021 . S
O346 C343 1.238 . S
O347 Co341 2.052 . S
O347 C343 1.241 . S
O348 Co336 2.137 . S
O348 C339 1.247 . S
O349 Co336 2.244 . S
O349 C339 1.272 . S
O349 Co341 2.135 . S
Co350 O351 2.216 . S
Co350 O352 2.091 . S
Co350 O354 2.004 . S
Co350 O360 2.021 . S
Co350 O362 2.137 . S
Co350 O363 2.244 . S
O351 Co350 2.216 . S
O351 C358 1.247 . S
O352 Co350 2.091 . S
O352 C358 1.261 . S
C353 O362 1.247 . S
C353 O363 1.272 . S
O354 Co350 2.004 . S
O354 C359 1.259 . S
Co355 O356 2.061 . S
Co355 O361 2.052 . S
Co355 O363 2.135 . S
O356 Co355 2.061 . S
O356 C359 1.235 . S
C357 O360 1.238 . S
C357 O361 1.241 . S
C358 O351 1.247 . S
C358 O352 1.261 . S
C359 O354 1.259 . S
C359 O356 1.235 . S
O360 Co350 2.021 . S
O360 C357 1.238 . S
O361 Co355 2.052 . S
O361 C357 1.241 . S
O362 Co350 2.137 . S
O362 C353 1.247 . S
O363 Co350 2.244 . S
O363 C353 1.272 . S
O363 Co355 2.135 . S
Co364 O365 2.216 . S
Co364 O366 2.091 . S
Co364 O368 2.004 . S
Co364 O374 2.021 . S
Co364 O376 2.137 . S
Co364 O377 2.244 . S
O365 Co364 2.216 . S
O365 C372 1.247 . S
O366 Co364 2.091 . S
O366 C372 1.261 . S
C367 O376 1.247 . S
C367 O377 1.272 . S
O368 Co364 2.004 . S
O368 C373 1.259 . S
Co369 O370 2.061 . S
Co369 O375 2.052 . S
Co369 O377 2.135 . S
O370 Co369 2.061 . S
O370 C373 1.235 . S
C371 O374 1.238 . S
C371 O375 1.241 . S
C372 O365 1.247 . S
C372 O366 1.261 . S
C373 O368 1.259 . S
C373 O370 1.235 . S
O374 Co364 2.021 . S
O374 C371 1.238 . S
O375 Co369 2.052 . S
O375 C371 1.241 . S
O376 Co364 2.137 . S
O376 C367 1.247 . S
O377 Co364 2.244 . S
O377 C367 1.272 . S
O377 Co369 2.135 . S
Co378 O379 2.216 . S
Co378 O380 2.091 . S
Co378 O382 2.004 . S
Co378 O388 2.021 . S
Co378 O390 2.137 . S
Co378 O391 2.244 . S
O379 Co378 2.216 . S
O379 C386 1.247 . S
O380 Co378 2.091 . S
O380 C386 1.261 . S
C381 O390 1.247 . S
C381 O391 1.272 . S
O382 Co378 2.004 . S
O382 C387 1.259 . S
Co383 O384 2.061 . S
Co383 O389 2.052 . S
Co383 O391 2.135 . S
O384 Co383 2.061 . S
O384 C387 1.235 . S
C385 O388 1.238 . S
C385 O389 1.241 . S
C386 O379 1.247 . S
C386 O380 1.261 . S
C387 O382 1.259 . S
C387 O384 1.235 . S
O388 Co378 2.021 . S
O388 C385 1.238 . S
O389 Co383 2.052 . S
O389 C385 1.241 . S
O390 Co378 2.137 . S
O390 C381 1.247 . S
O391 Co378 2.244 . S
O391 C381 1.272 . S
O391 Co383 2.135 . S
Co392 O393 2.216 . S
Co392 O394 2.091 . S
Co392 O396 2.004 . S
Co392 O402 2.021 . S
Co392 O404 2.137 . S
Co392 O405 2.244 . S
O393 Co392 2.216 . S
O393 C400 1.247 . S
O394 Co392 2.091 . S
O394 C400 1.261 . S
C395 O404 1.247 . S
C395 O405 1.272 . S
O396 Co392 2.004 . S
O396 C401 1.259 . S
Co397 O398 2.061 . S
Co397 O403 2.052 . S
Co397 O405 2.135 . S
O398 Co397 2.061 . S
O398 C401 1.235 . S
C399 O402 1.238 . S
C399 O403 1.241 . S
C400 O393 1.247 . S
C400 O394 1.261 . S
C401 O396 1.259 . S
C401 O398 1.235 . S
O402 Co392 2.021 . S
O402 C399 1.238 . S
O403 Co397 2.052 . S
O403 C399 1.241 . S
O404 Co392 2.137 . S
O404 C395 1.247 . S
O405 Co392 2.244 . S
O405 C395 1.272 . S
O405 Co397 2.135 . S
Co406 O407 2.216 . S
Co406 O408 2.091 . S
Co406 O410 2.004 . S
Co406 O416 2.021 . S
Co406 O418 2.137 . S
Co406 O419 2.244 . S
O407 Co406 2.216 . S
O407 C414 1.247 . S
O408 Co406 2.091 . S
O408 C414 1.261 . S
C409 O418 1.247 . S
C409 O419 1.272 . S
O410 Co406 2.004 . S
O410 C415 1.259 . S
Co411 O412 2.061 . S
Co411 O417 2.052 . S
Co411 O419 2.135 . S
O412 Co411 2.061 . S
O412 C415 1.235 . S
C413 O416 1.238 . S
C413 O417 1.241 . S
C414 O407 1.247 . S
C414 O408 1.261 . S
C415 O410 1.259 . S
C415 O412 1.235 . S
O416 Co406 2.021 . S
O416 C413 1.238 . S
O417 Co411 2.052 . S
O417 C413 1.241 . S
O418 Co406 2.137 . S
O418 C409 1.247 . S
O419 Co406 2.244 . S
O419 C409 1.272 . S
O419 Co411 2.135 . S
Co420 O421 2.216 . S
Co420 O422 2.091 . S
Co420 O424 2.004 . S
Co420 O430 2.021 . S
Co420 O432 2.137 . S
Co420 O433 2.244 . S
O421 Co420 2.216 . S
O421 C428 1.247 . S
O422 Co420 2.091 . S
O422 C428 1.261 . S
C423 O432 1.247 . S
C423 O433 1.272 . S
O424 Co420 2.004 . S
O424 C429 1.259 . S
Co425 O426 2.061 . S
Co425 O431 2.052 . S
Co425 O433 2.135 . S
O426 Co425 2.061 . S
O426 C429 1.235 . S
C427 O430 1.238 . S
C427 O431 1.241 . S
C428 O421 1.247 . S
C428 O422 1.261 . S
C429 O424 1.259 . S
C429 O426 1.235 . S
O430 Co420 2.021 . S
O430 C427 1.238 . S
O431 Co425 2.052 . S
O431 C427 1.241 . S
O432 Co420 2.137 . S
O432 C423 1.247 . S
O433 Co420 2.244 . S
O433 C423 1.272 . S
O433 Co425 2.135 . S
Co434 O435 2.216 . S
Co434 O436 2.091 . S
Co434 O438 2.004 . S
Co434 O444 2.021 . S
Co434 O446 2.137 . S
Co434 O447 2.244 . S
O435 Co434 2.216 . S
O435 C442 1.247 . S
O436 Co434 2.091 . S
O436 C442 1.261 . S
C437 O446 1.247 . S
C437 O447 1.272 . S
O438 Co434 2.004 . S
O438 C443 1.259 . S
Co439 O440 2.061 . S
Co439 O445 2.052 . S
Co439 O447 2.135 . S
O440 Co439 2.061 . S
O440 C443 1.235 . S
C441 O444 1.238 . S
C441 O445 1.241 . S
C442 O435 1.247 . S
C442 O436 1.261 . S
C443 O438 1.259 . S
C443 O440 1.235 . S
O444 Co434 2.021 . S
O444 C441 1.238 . S
O445 Co439 2.052 . S
O445 C441 1.241 . S
O446 Co434 2.137 . S
O446 C437 1.247 . S
O447 Co434 2.244 . S
O447 C437 1.272 . S
O447 Co439 2.135 . S
C448 C449 1.387 1_565 S
C448 H452 0.950 . S
C448 C457 1.390 1_455 S
C449 C448 1.387 1_545 S
C449 C451 1.387 1_554 S
H450 C457 0.950 . S
C451 C449 1.387 1_556 S
C451 C453 1.390 1_445 S
C451 H455 0.950 . S
H452 C448 0.950 . S
C453 C451 1.390 1_665 S
C453 C454 1.387 . S
C453 H456 0.946 1_565 S
C454 C453 1.387 . S
C454 C457 1.387 1_556 S
H455 C451 0.950 . S
H456 C453 0.946 1_545 S
C457 C448 1.390 1_655 S
C457 H450 0.950 . S
C457 C454 1.387 1_554 S
C458 C459 1.387 . S
C458 H462 0.950 . S
C458 C467 1.390 . S
C459 C458 1.387 . S
C459 C461 1.387 . S
H460 C467 0.950 . S
C461 C459 1.387 . S
C461 C463 1.390 . S
C461 H465 0.950 . S
H462 C458 0.950 . S
C463 C461 1.390 . S
C463 C464 1.387 . S
C463 H466 0.950 . S
C464 C463 1.387 . S
C464 C467 1.387 . S
H465 C461 0.950 . S
H466 C463 0.950 . S
C467 C458 1.390 . S
C467 H460 0.950 . S
C467 C464 1.387 . S
C468 C469 1.387 . S
C468 H472 0.950 . S
C468 C477 1.390 1_565 S
C469 C468 1.387 . S
C469 C471 1.387 . S
H470 C477 0.950 . S
C471 C469 1.387 . S
C471 C473 1.390 1_565 S
C471 H475 0.950 . S
H472 C468 0.950 . S
C473 C471 1.390 1_545 S
C473 C474 1.387 . S
C473 H476 0.950 . S
C474 C473 1.387 . S
C474 C477 1.387 . S
H475 C471 0.950 . S
H476 C473 0.950 . S
C477 C468 1.390 1_545 S
C477 H470 0.950 . S
C477 C474 1.387 . S
C478 C479 1.387 . S
C478 H482 0.950 . S
C478 C487 1.390 . S
C479 C478 1.387 . S
C479 C481 1.387 . S
H480 C487 0.950 . S
C481 C479 1.387 . S
C481 C483 1.390 . S
C481 H485 0.950 . S
H482 C478 0.950 . S
C483 C481 1.390 . S
C483 C484 1.387 . S
C483 H486 0.950 . S
C484 C483 1.387 . S
C484 C487 1.387 . S
H485 C481 0.950 . S
H486 C483 0.950 . S
C487 C478 1.390 . S
C487 H480 0.950 . S
C487 C484 1.387 . S
C488 C489 1.387 . S
C488 H492 0.950 . S
C488 C497 1.390 1_455 S
C489 C488 1.387 . S
C489 C491 1.387 1_565 S
H490 C497 0.950 . S
C491 C489 1.387 1_545 S
C491 C493 1.390 1_455 S
C491 H495 0.950 . S
H492 C488 0.950 . S
C493 C491 1.390 1_655 S
C493 C494 1.387 . S
C493 H496 0.950 . S
C494 C493 1.387 . S
C494 C497 1.387 1_545 S
H495 C491 0.950 . S
H496 C493 0.950 . S
C497 C488 1.390 1_655 S
C497 H490 0.950 . S
C497 C494 1.387 1_565 S
C498 C499 1.387 . S
C498 H502 0.950 . S
C498 C507 1.390 . S
C499 C498 1.387 . S
C499 C501 1.387 . S
H500 C507 0.950 . S
C501 C499 1.387 . S
C501 C503 1.390 . S
C501 H505 0.950 . S
H502 C498 0.950 . S
C503 C501 1.390 . S
C503 C504 1.387 . S
C503 H506 0.950 . S
C504 C503 1.387 . S
C504 C507 1.387 . S
H505 C501 0.950 . S
H506 C503 0.950 . S
C507 C498 1.390 . S
C507 H500 0.950 . S
C507 C504 1.387 . S
C508 C509 1.387 1_554 S
C508 H512 0.950 . S
C508 C517 1.390 . S
C509 C508 1.387 1_556 S
C509 C511 1.387 . S
H510 C517 0.950 . S
C511 C509 1.387 . S
C511 C513 1.390 1_545 S
C511 H515 0.950 . S
H512 C508 0.950 . S
C513 C511 1.390 1_565 S
C513 C514 1.387 1_556 S
C513 H516 0.950 . S
C514 C513 1.387 1_554 S
C514 C517 1.387 1_565 S
H515 C511 0.950 . S
H516 C513 0.950 . S
C517 C508 1.390 . S
C517 H510 0.950 . S
C517 C514 1.387 1_545 S
C518 C519 1.387 . S
C518 H522 0.950 . S
C518 C527 1.390 . S
C519 C518 1.387 . S
C519 C521 1.387 . S
H520 C527 0.950 . S
C521 C519 1.387 . S
C521 C523 1.390 . S
C521 H525 0.950 . S
H522 C518 0.950 . S
C523 C521 1.390 . S
C523 C524 1.387 . S
C523 H526 0.950 . S
C524 C523 1.387 . S
C524 C527 1.387 . S
H525 C521 0.950 . S
H526 C523 0.950 . S
C527 C518 1.390 . S
C527 H520 0.950 . S
C527 C524 1.387 . S
C528 C529 1.387 1_556 S
C528 H532 0.950 . S
C528 C537 1.390 . S
C529 C528 1.387 1_554 S
C529 C531 1.387 . S
H530 C537 0.950 . S
C531 C529 1.387 . S
C531 C533 1.390 . S
C531 H535 0.950 . S
H532 C528 0.950 . S
C533 C531 1.390 . S
C533 C534 1.387 1_554 S
C533 H536 0.950 . S
C534 C533 1.387 1_556 S
C534 C537 1.387 . S
H535 C531 0.950 . S
H536 C533 0.950 . S
C537 C528 1.390 . S
C537 H530 0.950 . S
C537 C534 1.387 . S
C538 C539 1.387 . S
C538 H542 0.950 . S
C538 C547 1.390 . S
C539 C538 1.387 . S
C539 C541 1.387 . S
H540 C547 0.950 . S
C541 C539 1.387 . S
C541 C543 1.390 . S
C541 H545 0.950 . S
H542 C538 0.950 . S
C543 C541 1.390 . S
C543 C544 1.387 . S
C543 H546 0.950 . S
C544 C543 1.387 . S
C544 C547 1.387 . S
H545 C541 0.950 . S
H546 C543 0.950 . S
C547 C538 1.390 . S
C547 H540 0.950 . S
C547 C544 1.387 . S
C548 C549 1.387 . S
C548 H552 0.950 . S
C548 C557 1.390 1_455 S
C549 C548 1.387 . S
C549 C551 1.387 . S
H550 C557 0.950 . S
C551 C549 1.387 . S
C551 C553 1.390 1_455 S
C551 H555 0.950 . S
H552 C548 0.950 . S
C553 C551 1.390 1_655 S
C553 C554 1.387 . S
C553 H556 0.950 . S
C554 C553 1.387 . S
C554 C557 1.387 . S
H555 C551 0.950 . S
H556 C553 0.950 . S
C557 C548 1.390 1_655 S
C557 H550 0.950 . S
C557 C554 1.387 . S
C558 C559 1.387 . S
C558 H562 0.950 . S
C558 C567 1.390 . S
C559 C558 1.387 . S
C559 C561 1.387 . S
H560 C567 0.950 . S
C561 C559 1.387 . S
C561 C563 1.390 . S
C561 H565 0.950 . S
H562 C558 0.950 . S
C563 C561 1.390 . S
C563 C564 1.387 . S
C563 H566 0.950 . S
C564 C563 1.387 . S
C564 C567 1.387 . S
H565 C561 0.950 . S
H566 C563 0.950 . S
C567 C558 1.390 . S
C567 H560 0.950 . S
C567 C564 1.387 . S
C568 C569 1.387 . S
C568 H572 0.950 . S
C568 C577 1.390 . S
C569 C568 1.387 . S
C569 C571 1.387 . S
H570 C577 0.950 . S
C571 C569 1.387 . S
C571 C573 1.390 . S
C571 H575 0.950 . S
H572 C568 0.950 . S
C573 C571 1.390 . S
C573 C574 1.387 . S
C573 H576 0.950 . S
C574 C573 1.387 . S
C574 C577 1.387 . S
H575 C571 0.950 . S
H576 C573 0.950 . S
C577 C568 1.390 . S
C577 H570 0.950 . S
C577 C574 1.387 . S
C578 C579 1.387 . S
C578 H582 0.950 . S
C578 C587 1.390 . S
C579 C578 1.387 . S
C579 C581 1.387 . S
H580 C587 0.950 . S
C581 C579 1.387 . S
C581 C583 1.390 . S
C581 H585 0.950 . S
H582 C578 0.950 . S
C583 C581 1.390 . S
C583 C584 1.387 . S
C583 H586 0.950 . S
C584 C583 1.387 . S
C584 C587 1.387 . S
H585 C581 0.950 . S
H586 C583 0.950 . S
C587 C578 1.390 . S
C587 H580 0.950 . S
C587 C584 1.387 . S
C588 C589 1.387 . S
C588 H592 0.950 . S
C588 C597 1.390 . S
C589 C588 1.387 . S
C589 C591 1.387 . S
H590 C597 0.950 . S
C591 C589 1.387 . S
C591 C593 1.390 . S
C591 H595 0.950 . S
H592 C588 0.950 . S
C593 C591 1.390 . S
C593 C594 1.387 . S
C593 H596 0.950 . S
C594 C593 1.387 . S
C594 C597 1.387 . S
H595 C591 0.950 . S
H596 C593 0.950 . S
C597 C588 1.390 . S
C597 H590 0.950 . S
C597 C594 1.387 . S
C598 C599 1.387 1_554 S
C598 H602 0.950 . S
C598 C607 1.390 1_455 S
C599 C598 1.387 1_556 S
C599 C601 1.387 . S
H600 C607 0.950 . S
C601 C599 1.387 . S
C601 C603 1.390 1_455 S
C601 H605 0.950 . S
H602 C598 0.950 . S
C603 C601 1.390 1_655 S
C603 C604 1.387 1_556 S
C603 H606 0.950 . S
C604 C603 1.387 1_554 S
C604 C607 1.387 . S
H605 C601 0.950 . S
H606 C603 0.950 . S
C607 C598 1.390 1_655 S
C607 H600 0.950 . S
C607 C604 1.387 . S
C608 C609 1.387 1_565 S
C608 H612 0.950 . S
C608 C617 1.390 . S
C609 C608 1.387 1_545 S
C609 C611 1.387 . S
H610 C617 0.950 . S
C611 C609 1.387 . S
C611 C613 1.390 1_545 S
C611 H615 0.950 . S
H612 C608 0.950 . S
C613 C611 1.390 1_565 S
C613 C614 1.387 . S
C613 H616 0.950 . S
C614 C613 1.387 . S
C614 C617 1.387 . S
H615 C611 0.950 . S
H616 C613 0.950 . S
C617 C608 1.390 . S
C617 H610 0.950 . S
C617 C614 1.387 . S
C618 C619 1.387 . S
C618 H622 0.950 . S
C618 C627 1.390 . S
C619 C618 1.387 . S
C619 C621 1.387 . S
H620 C627 0.950 . S
C621 C619 1.387 . S
C621 C623 1.390 . S
C621 H625 0.950 . S
H622 C618 0.950 . S
C623 C621 1.390 . S
C623 C624 1.387 . S
C623 H626 0.950 . S
C624 C623 1.387 . S
C624 C627 1.387 . S
H625 C621 0.950 . S
H626 C623 0.950 . S
C627 C618 1.390 . S
C627 H620 0.950 . S
C627 C624 1.387 . S
C628 C629 1.387 . S
C628 H632 0.950 . S
C628 C637 1.390 1_545 S
C629 C628 1.387 . S
C629 C631 1.387 1_545 S
H630 C637 0.950 . S
C631 C629 1.387 1_565 S
C631 C633 1.390 . S
C631 H635 0.950 . S
H632 C628 0.950 . S
C633 C631 1.390 . S
C633 C634 1.387 . S
C633 H636 0.950 . S
C634 C633 1.387 . S
C634 C637 1.387 . S
H635 C631 0.950 . S
H636 C633 0.950 . S
C637 C628 1.390 1_565 S
C637 H630 0.950 . S
C637 C634 1.387 . S
C638 C639 1.387 . S
C638 H642 0.950 . S
C638 C647 1.390 1_556 S
C639 C638 1.387 . S
C639 C641 1.387 . S
H640 C647 0.950 . S
C641 C639 1.387 . S
C641 C643 1.390 1_556 S
C641 H645 0.950 . S
H642 C638 0.950 . S
C643 C641 1.390 1_554 S
C643 C644 1.387 . S
C643 H646 0.950 . S
C644 C643 1.387 . S
C644 C647 1.387 . S
H645 C641 0.950 . S
H646 C643 0.950 . S
C647 C638 1.390 1_554 S
C647 H640 0.950 . S
C647 C644 1.387 . S
C648 C649 1.387 . S
C648 H652 0.950 . S
C648 C657 1.390 1_545 S
C649 C648 1.387 . S
C649 C651 1.387 . S
H650 C657 0.950 . S
C651 C649 1.387 . S
C651 C653 1.390 1_545 S
C651 H655 0.950 . S
H652 C648 0.950 . S
C653 C651 1.390 1_565 S
C653 C654 1.387 . S
C653 H656 0.950 . S
C654 C653 1.387 . S
C654 C657 1.387 . S
H655 C651 0.950 . S
H656 C653 0.950 . S
C657 C648 1.390 1_565 S
C657 H650 0.950 . S
C657 C654 1.387 . S
C658 C659 1.387 . S
C658 H662 0.950 . S
C658 C667 1.390 . S
C659 C658 1.387 . S
C659 C661 1.387 . S
H660 C667 0.950 . S
C661 C659 1.387 . S
C661 C663 1.390 . S
C661 H665 0.950 . S
H662 C658 0.950 . S
C663 C661 1.390 . S
C663 C664 1.387 . S
C663 H666 0.950 . S
C664 C663 1.387 . S
C664 C667 1.387 . S
H665 C661 0.950 . S
H666 C663 0.950 . S
C667 C658 1.390 . S
C667 H660 0.950 . S
C667 C664 1.387 . S
C668 C669 1.387 . S
C668 H672 0.950 . S
C668 C677 1.390 1_545 S
C669 C668 1.387 . S
C669 C671 1.387 . S
H670 C677 0.950 . S
C671 C669 1.387 . S
C671 C673 1.390 1_545 S
C671 H675 0.950 . S
H672 C668 0.950 . S
C673 C671 1.390 1_565 S
C673 C674 1.387 . S
C673 H676 0.950 . S
C674 C673 1.387 . S
C674 C677 1.387 . S
H675 C671 0.950 . S
H676 C673 0.950 . S
C677 C668 1.390 1_565 S
C677 H670 0.950 . S
C677 C674 1.387 . S
C678 C679 1.387 . S
C678 H682 0.950 . S
C678 C687 1.390 . S
C679 C678 1.387 . S
C679 C681 1.387 . S
H680 C687 0.950 . S
C681 C679 1.387 . S
C681 C683 1.390 . S
C681 H685 0.950 1_554 S
H682 C678 0.950 . S
C683 C681 1.390 . S
C683 C684 1.387 . S
C683 H686 0.950 . S
C684 C683 1.387 . S
C684 C687 1.387 . S
H685 C681 0.950 1_556 S
H686 C683 0.950 . S
C687 C678 1.390 . S
C687 H680 0.950 . S
C687 C684 1.387 . S
C688 C689 1.387 . S
C688 H692 0.950 . S
C688 C697 1.390 . S
C689 C688 1.387 . S
C689 C691 1.387 . S
H690 C697 0.950 . S
C691 C689 1.387 . S
C691 C693 1.390 . S
C691 H695 0.950 . S
H692 C688 0.950 . S
C693 C691 1.390 . S
C693 C694 1.387 . S
C693 H696 0.950 1_655 S
C694 C693 1.387 . S
C694 C697 1.387 . S
H695 C691 0.950 . S
H696 C693 0.950 1_455 S
C697 C688 1.390 . S
C697 H690 0.950 . S
C697 C694 1.387 . S
C698 C699 1.387 . S
C698 H702 0.950 . S
C698 C707 1.390 . S
C699 C698 1.387 . S
C699 C701 1.387 . S
H700 C707 0.950 . S
C701 C699 1.387 . S
C701 C703 1.390 . S
C701 H705 0.950 . S
H702 C698 0.950 . S
C703 C701 1.390 . S
C703 C704 1.387 . S
C703 H706 0.950 . S
C704 C703 1.387 . S
C704 C707 1.387 . S
H705 C701 0.950 . S
H706 C703 0.950 . S
C707 C698 1.390 . S
C707 H700 0.950 . S
C707 C704 1.387 . S
C708 C709 1.387 1_455 S
C708 H712 0.950 1_455 S
C708 C717 1.390 . S
C709 C708 1.387 1_655 S
C709 C711 1.387 1_655 S
H710 C717 0.950 . S
C711 C709 1.387 1_455 S
C711 C713 1.390 . S
C711 H715 0.950 . S
H712 C708 0.950 1_655 S
C713 C711 1.390 . S
C713 C714 1.387 . S
C713 H716 0.950 . S
C714 C713 1.387 . S
C714 C717 1.387 . S
H715 C711 0.950 . S
H716 C713 0.950 . S
C717 C708 1.390 . S
C717 H710 0.950 . S
C717 C714 1.387 . S
C718 C719 1.392 . S
C718 H722 0.950 . S
C718 C727 1.390 . S
C719 C718 1.392 . S
C719 C721 1.393 . S
H720 C727 0.950 . S
C721 C719 1.393 . S
C721 C723 1.390 . S
C721 H725 0.950 . S
H722 C718 0.950 . S
C723 C721 1.390 . S
C723 C724 1.387 . S
C723 H726 0.950 . S
C724 C723 1.387 . S
C724 C727 1.387 . S
H725 C721 0.950 . S
H726 C723 0.950 . S
C727 C718 1.390 . S
C727 H720 0.950 . S
C727 C724 1.387 . S
C728 C729 1.387 . S
C728 H732 0.950 . S
C728 C737 1.390 . S
C729 C728 1.387 . S
C729 C731 1.387 . S
H730 C737 0.950 . S
C731 C729 1.387 . S
C731 C733 1.390 . S
C731 H735 0.950 . S
H732 C728 0.950 . S
C733 C731 1.390 . S
C733 C734 1.387 . S
C733 H736 0.950 . S
C734 C733 1.387 . S
C734 C737 1.387 . S
H735 C731 0.950 . S
H736 C733 0.950 . S
C737 C728 1.390 . S
C737 H730 0.950 . S
C737 C734 1.387 . S
C738 C739 1.387 . S
C738 H742 0.950 . S
C738 C747 1.390 . S
C739 C738 1.387 . S
C739 C741 1.387 . S
H740 C747 0.950 1_455 S
C741 C739 1.387 . S
C741 C743 1.390 . S
C741 H745 0.950 . S
H742 C738 0.950 . S
C743 C741 1.390 . S
C743 C744 1.387 1_655 S
C743 H746 0.950 1_655 S
C744 C743 1.387 1_455 S
C744 C747 1.387 1_455 S
H745 C741 0.950 . S
H746 C743 0.950 1_455 S
C747 C738 1.390 . S
C747 H740 0.950 1_655 S
C747 C744 1.387 1_655 S
C748 C749 1.387 . S
C748 H752 0.950 . S
C748 C757 1.390 . S
C749 C748 1.387 . S
C749 C751 1.387 . S
H750 C757 0.950 . S
C751 C749 1.387 . S
C751 C753 1.390 . S
C751 H755 0.950 . S
H752 C748 0.950 . S
C753 C751 1.390 . S
C753 C754 1.387 . S
C753 H756 0.950 . S
C754 C753 1.387 . S
C754 C757 1.387 . S
H755 C751 0.950 . S
H756 C753 0.950 . S
C757 C748 1.390 . S
C757 H750 0.950 . S
C757 C754 1.387 . S
C758 C759 1.387 . S
C758 H762 0.950 . S
C758 C767 1.378 1_545 S
C759 C758 1.387 . S
C759 C761 1.387 . S
H760 C767 0.954 . S
C761 C759 1.387 . S
C761 C763 1.390 1_545 S
C761 H765 0.950 . S
H762 C758 0.950 . S
C763 C761 1.390 1_565 S
C763 C764 1.387 . S
C763 H766 0.950 . S
C764 C763 1.387 . S
C764 C767 1.395 . S
H765 C761 0.950 . S
H766 C763 0.950 . S
C767 C758 1.378 1_565 S
C767 H760 0.954 . S
C767 C764 1.395 . S
C768 C769 1.387 . S
C768 H772 0.950 . S
C768 C777 1.390 . S
C769 C768 1.387 . S
C769 C771 1.387 . S
H770 C777 0.950 . S
C771 C769 1.387 . S
C771 C773 1.390 . S
C771 H775 0.950 . S
H772 C768 0.950 . S
C773 C771 1.390 . S
C773 C774 1.387 . S
C773 H776 0.950 . S
C774 C773 1.387 . S
C774 C777 1.387 . S
H775 C771 0.950 . S
H776 C773 0.950 . S
C777 C768 1.390 . S
C777 H770 0.950 . S
C777 C774 1.387 . S
C778 C779 1.387 . S
C778 H782 0.950 . S
C778 C787 1.390 1_565 S
C779 C778 1.387 . S
C779 C781 1.387 1_565 S
H780 C787 0.950 . S
C781 C779 1.387 1_545 S
C781 C783 1.390 . S
C781 H785 0.950 . S
H782 C778 0.950 . S
C783 C781 1.390 . S
C783 C784 1.387 . S
C783 H786 0.950 . S
C784 C783 1.387 . S
C784 C787 1.387 . S
H785 C781 0.950 . S
H786 C783 0.950 . S
C787 C778 1.390 1_545 S
C787 H780 0.950 . S
C787 C784 1.387 . S
C788 C789 1.387 . S
C788 H792 0.950 . S
C788 C797 1.390 1_556 S
C789 C788 1.387 . S
C789 C791 1.387 . S
H790 C797 0.950 . S
C791 C789 1.387 . S
C791 C793 1.390 1_556 S
C791 H795 0.950 . S
H792 C788 0.950 . S
C793 C791 1.390 1_554 S
C793 C794 1.387 . S
C793 H796 0.950 . S
C794 C793 1.387 . S
C794 C797 1.387 . S
H795 C791 0.950 . S
H796 C793 0.950 . S
C797 C788 1.390 1_554 S
C797 H790 0.950 . S
C797 C794 1.387 . S
C798 C799 1.387 1_565 S
C798 H802 0.950 . S
C798 C807 1.390 . S
C799 C798 1.387 1_545 S
C799 C801 1.387 . S
H800 C807 0.950 . S
C801 C799 1.387 . S
C801 C803 1.390 1_545 S
C801 H805 0.950 . S
H802 C798 0.950 . S
C803 C801 1.390 1_565 S
C803 C804 1.387 . S
C803 H806 0.950 . S
C804 C803 1.387 . S
C804 C807 1.387 . S
H805 C801 0.950 . S
H806 C803 0.950 . S
C807 C798 1.390 . S
C807 H800 0.950 . S
C807 C804 1.387 . S
C808 C809 1.387 . S
C808 H812 0.950 . S
C808 C817 1.390 . S
C809 C808 1.387 . S
C809 C811 1.387 . S
H810 C817 0.950 . S
C811 C809 1.387 . S
C811 C813 1.390 . S
C811 H815 0.950 . S
H812 C808 0.950 . S
C813 C811 1.390 . S
C813 C814 1.387 . S
C813 H816 0.950 . S
C814 C813 1.387 . S
C814 C817 1.387 . S
H815 C811 0.950 . S
H816 C813 0.950 . S
C817 C808 1.390 . S
C817 H810 0.950 . S
C817 C814 1.387 . S
C818 C819 1.387 . S
C818 H822 0.950 . S
C818 C827 1.390 1_565 S
C819 C818 1.387 . S
C819 C821 1.387 . S
H820 C827 0.950 . S
C821 C819 1.387 . S
C821 C823 1.390 1_565 S
C821 H825 0.950 . S
H822 C818 0.950 . S
C823 C821 1.390 1_545 S
C823 C824 1.387 . S
C823 H826 0.950 . S
C824 C823 1.387 . S
C824 C827 1.387 . S
H825 C821 0.950 . S
H826 C823 0.950 . S
C827 C818 1.390 1_545 S
C827 H820 0.950 . S
C827 C824 1.387 . S
C828 C829 1.387 1_556 S
C828 H832 0.950 . S
C828 C837 1.390 . S
C829 C828 1.387 1_554 S
C829 C831 1.383 1_554 S
H830 C837 0.950 . S
C831 C829 1.383 1_556 S
C831 C833 1.404 . S
C831 H835 0.940 1_556 S
H832 C828 0.950 . S
C833 C831 1.404 . S
C833 C834 1.387 . S
C833 H836 0.950 . S
C834 C833 1.387 . S
C834 C837 1.387 . S
H835 C831 0.940 1_554 S
H836 C833 0.950 . S
C837 C828 1.390 . S
C837 H830 0.950 . S
C837 C834 1.387 . S
C838 C839 1.383 1_655 S
C838 H842 0.977 . S
C838 C847 1.367 1_655 S
C839 C838 1.383 1_455 S
C839 C841 1.387 . S
H840 C847 0.950 . S
C841 C839 1.387 . S
C841 C843 1.390 . S
C841 H845 0.950 . S
H842 C838 0.977 . S
C843 C841 1.390 . S
C843 C844 1.387 . S
C843 H846 0.950 . S
C844 C843 1.387 . S
C844 C847 1.387 . S
H845 C841 0.950 . S
H846 C843 0.950 . S
C847 C838 1.367 1_455 S
C847 H840 0.950 . S
C847 C844 1.387 . S
C848 C849 1.387 . S
C848 H852 0.950 . S
C848 C857 1.390 . S
C849 C848 1.387 . S
C849 C851 1.387 . S
H850 C857 0.950 . S
C851 C849 1.387 . S
C851 C853 1.390 . S
C851 H855 0.950 . S
H852 C848 0.950 . S
C853 C851 1.390 . S
C853 C854 1.387 . S
C853 H856 0.950 . S
C854 C853 1.387 . S
C854 C857 1.387 . S
H855 C851 0.950 . S
H856 C853 0.950 . S
C857 C848 1.390 . S
C857 H850 0.950 . S
C857 C854 1.387 . S
C858 C859 1.387 . S
C858 H862 0.950 . S
C858 C867 1.390 . S
C859 C858 1.387 . S
C859 C861 1.387 . S
H860 C867 0.950 . S
C861 C859 1.387 . S
C861 C863 1.390 . S
C861 H865 0.950 . S
H862 C858 0.950 . S
C863 C861 1.390 . S
C863 C864 1.387 . S
C863 H866 0.950 . S
C864 C863 1.387 . S
C864 C867 1.387 . S
H865 C861 0.950 . S
H866 C863 0.950 . S
C867 C858 1.390 . S
C867 H860 0.950 . S
C867 C864 1.387 . S
C868 C869 1.387 . S
C868 H872 0.950 . S
C868 C877 1.390 . S
C869 C868 1.387 . S
C869 C871 1.387 . S
H870 C877 0.950 . S
C871 C869 1.387 . S
C871 C873 1.390 . S
C871 H875 0.950 . S
H872 C868 0.950 . S
C873 C871 1.390 . S
C873 C874 1.387 . S
C873 H876 0.950 . S
C874 C873 1.387 . S
C874 C877 1.387 . S
H875 C871 0.950 . S
H876 C873 0.950 . S
C877 C868 1.390 . S
C877 H870 0.950 . S
C877 C874 1.387 . S
C878 C879 1.387 . S
C878 H882 0.950 . S
C878 C887 1.390 . S
C879 C878 1.387 . S
C879 C881 1.387 . S
H880 C887 0.950 . S
C881 C879 1.387 . S
C881 C883 1.390 . S
C881 H885 0.950 . S
H882 C878 0.950 . S
C883 C881 1.390 . S
C883 C884 1.387 . S
C883 H886 0.950 . S
C884 C883 1.387 . S
C884 C887 1.387 . S
H885 C881 0.950 . S
H886 C883 0.950 . S
C887 C878 1.390 . S
C887 H880 0.950 . S
C887 C884 1.387 . S
C888 C889 1.387 1_455 S
C888 H892 0.950 1_455 S
C888 C897 1.390 . S
C889 C888 1.387 1_655 S
C889 C891 1.387 1_655 S
H890 C897 0.950 . S
C891 C889 1.387 1_455 S
C891 C893 1.390 . S
C891 H895 0.950 1_455 S
H892 C888 0.950 1_655 S
C893 C891 1.390 . S
C893 C894 1.387 . S
C893 H896 0.950 . S
C894 C893 1.387 . S
C894 C897 1.387 . S
H895 C891 0.950 1_655 S
H896 C893 0.950 . S
C897 C888 1.390 . S
C897 H890 0.950 . S
C897 C894 1.387 . S
C898 C899 1.387 . S
C898 H902 0.950 . S
C898 C907 1.390 . S
C899 C898 1.387 . S
C899 C901 1.387 . S
H900 C907 0.950 . S
C901 C899 1.387 . S
C901 C903 1.390 . S
C901 H905 0.950 . S
H902 C898 0.950 . S
C903 C901 1.390 . S
C903 C904 1.387 . S
C903 H906 0.950 . S
C904 C903 1.387 . S
C904 C907 1.387 . S
H905 C901 0.950 . S
H906 C903 0.950 . S
C907 C898 1.390 . S
C907 H900 0.950 . S
C907 C904 1.387 . S
C908 C909 1.387 . S
C908 H912 0.950 . S
C908 C917 1.390 . S
C909 C908 1.387 . S
C909 C911 1.387 . S
H910 C917 0.950 . S
C911 C909 1.387 . S
C911 C913 1.390 . S
C911 H915 0.950 . S
H912 C908 0.950 . S
C913 C911 1.390 . S
C913 C914 1.387 . S
C913 H916 0.950 . S
C914 C913 1.387 . S
C914 C917 1.387 . S
H915 C911 0.950 . S
H916 C913 0.950 . S
C917 C908 1.390 . S
C917 H910 0.950 . S
C917 C914 1.387 . S
C918 C919 1.387 . S
C918 H922 0.950 . S
C918 C927 1.390 1_554 S
C919 C918 1.387 . S
C919 C921 1.387 . S
H920 C927 0.950 . S
C921 C919 1.387 . S
C921 C923 1.390 1_554 S
C921 H925 0.950 . S
H922 C918 0.950 . S
C923 C921 1.390 1_556 S
C923 C924 1.387 . S
C923 H926 0.950 . S
C924 C923 1.387 . S
C924 C927 1.387 . S
H925 C921 0.950 . S
H926 C923 0.950 . S
C927 C918 1.390 1_556 S
C927 H920 0.950 . S
C927 C924 1.387 . S
C928 C929 1.387 . S
C928 H932 0.950 . S
C928 C937 1.390 . S
C929 C928 1.387 . S
C929 C931 1.387 . S
H930 C937 0.950 . S
C931 C929 1.387 . S
C931 C933 1.390 . S
C931 H935 0.950 . S
H932 C928 0.950 . S
C933 C931 1.390 . S
C933 C934 1.387 . S
C933 H936 0.950 . S
C934 C933 1.387 . S
C934 C937 1.387 . S
H935 C931 0.950 . S
H936 C933 0.950 . S
C937 C928 1.390 . S
C937 H930 0.950 . S
C937 C934 1.387 . S
C938 C939 1.387 . S
C938 H942 0.950 . S
C938 C947 1.390 . S
C939 C938 1.387 . S
C939 C941 1.387 . S
H940 C947 0.950 . S
C941 C939 1.387 . S
C941 C943 1.390 . S
C941 H945 0.950 . S
H942 C938 0.950 . S
C943 C941 1.390 . S
C943 C944 1.387 . S
C943 H946 0.950 . S
C944 C943 1.387 . S
C944 C947 1.387 . S
H945 C941 0.950 . S
H946 C943 0.950 . S
C947 C938 1.390 . S
C947 H940 0.950 . S
C947 C944 1.387 . S
C948 C949 1.387 . S
C948 H952 0.950 . S
C948 C957 1.390 . S
C949 C948 1.387 . S
C949 C951 1.387 . S
H950 C957 0.950 . S
C951 C949 1.387 . S
C951 C953 1.390 . S
C951 H955 0.950 . S
H952 C948 0.950 . S
C953 C951 1.390 . S
C953 C954 1.387 . S
C953 H956 0.950 . S
C954 C953 1.387 . S
C954 C957 1.387 . S
H955 C951 0.950 . S
H956 C953 0.950 . S
C957 C948 1.390 . S
C957 H950 0.950 . S
C957 C954 1.387 . S
C958 C959 1.387 . S
C958 H962 0.950 . S
C958 C967 1.390 1_554 S
C959 C958 1.387 . S
C959 C961 1.387 . S
H960 C967 0.950 . S
C961 C959 1.387 . S
C961 C963 1.390 . S
C961 H965 0.950 . S
H962 C958 0.950 . S
C963 C961 1.390 . S
C963 C964 1.387 1_554 S
C963 H966 0.950 1_554 S
C964 C963 1.387 1_556 S
C964 C967 1.387 . S
H965 C961 0.950 . S
H966 C963 0.950 1_556 S
C967 C958 1.390 1_556 S
C967 H960 0.950 . S
C967 C964 1.387 . S
C968 C969 1.387 . S
C968 H972 0.950 . S
C968 C977 1.390 . S
C969 C968 1.387 . S
C969 C971 1.387 . S
H970 C977 0.950 . S
C971 C969 1.387 . S
C971 C973 1.390 . S
C971 H975 0.950 . S
H972 C968 0.950 . S
C973 C971 1.390 . S
C973 C974 1.387 . S
C973 H976 0.950 . S
C974 C973 1.387 . S
C974 C977 1.387 . S
H975 C971 0.950 . S
H976 C973 0.950 . S
C977 C968 1.390 . S
C977 H970 0.950 . S
C977 C974 1.387 . S
C978 C979 1.387 . S
C978 H982 0.950 . S
C978 C987 1.390 . S
C979 C978 1.387 . S
C979 C981 1.387 . S
H980 C987 0.950 . S
C981 C979 1.387 . S
C981 C983 1.390 . S
C981 H985 0.950 . S
H982 C978 0.950 . S
C983 C981 1.390 . S
C983 C984 1.387 . S
C983 H986 0.950 . S
C984 C983 1.387 . S
C984 C987 1.387 . S
H985 C981 0.950 . S
H986 C983 0.950 . S
C987 C978 1.390 . S
C987 H980 0.950 . S
C987 C984 1.387 . S
C988 C989 1.387 . S
C988 H992 0.950 . S
C988 C997 1.390 . S
C989 C988 1.387 . S
C989 C991 1.387 . S
H990 C997 0.950 . S
C991 C989 1.387 . S
C991 C993 1.390 . S
C991 H995 0.950 . S
H992 C988 0.950 . S
C993 C991 1.390 . S
C993 C994 1.387 . S
C993 H996 0.950 . S
C994 C993 1.387 . S
C994 C997 1.387 . S
H995 C991 0.950 . S
H996 C993 0.950 . S
C997 C988 1.390 . S
C997 H990 0.950 . S
C997 C994 1.387 . S
C998 C999 1.387 . S
C998 H1002 0.950 . S
C998 C1007 1.390 . S
C999 C998 1.387 . S
C999 C1001 1.387 . S
H1000 C1007 0.950 . S
C1001 C999 1.387 . S
C1001 C1003 1.390 . S
C1001 H1005 0.950 . S
H1002 C998 0.950 . S
C1003 C1001 1.390 . S
C1003 C1004 1.387 . S
C1003 H1006 0.950 . S
C1004 C1003 1.387 . S
C1004 C1007 1.387 . S
H1005 C1001 0.950 . S
H1006 C1003 0.950 . S
C1007 C998 1.390 . S
C1007 H1000 0.950 . S
C1007 C1004 1.387 . S
C1008 C1009 1.387 . S
C1008 H1012 0.950 . S
C1008 C1017 1.390 1_554 S
C1009 C1008 1.387 . S
C1009 C1011 1.387 . S
H1010 C1017 0.950 . S
C1011 C1009 1.387 . S
C1011 C1013 1.390 1_554 S
C1011 H1015 0.950 . S
H1012 C1008 0.950 . S
C1013 C1011 1.390 1_556 S
C1013 C1014 1.387 . S
C1013 H1016 0.950 . S
C1014 C1013 1.387 . S
C1014 C1017 1.387 . S
H1015 C1011 0.950 . S
H1016 C1013 0.950 . S
C1017 C1008 1.390 1_556 S
C1017 H1010 0.950 . S
C1017 C1014 1.387 . S
C1018 C1019 1.387 . S
C1018 H1022 0.950 . S
C1018 C1027 1.390 . S
C1019 C1018 1.387 . S
C1019 C1021 1.387 . S
H1020 C1027 0.950 . S
C1021 C1019 1.387 . S
C1021 C1023 1.390 . S
C1021 H1025 0.950 . S
H1022 C1018 0.950 . S
C1023 C1021 1.390 . S
C1023 C1024 1.387 . S
C1023 H1026 0.950 . S
C1024 C1023 1.387 . S
C1024 C1027 1.387 . S
H1025 C1021 0.950 . S
H1026 C1023 0.950 . S
C1027 C1018 1.390 . S
C1027 H1020 0.950 . S
C1027 C1024 1.387 . S
C1028 C1029 1.387 . S
C1028 H1032 0.950 . S
C1028 C1037 1.390 . S
C1029 C1028 1.387 . S
C1029 C1031 1.387 . S
H1030 C1037 0.950 . S
C1031 C1029 1.387 . S
C1031 C1033 1.390 . S
C1031 H1035 0.950 . S
H1032 C1028 0.950 . S
C1033 C1031 1.390 . S
C1033 C1034 1.387 . S
C1033 H1036 0.950 . S
C1034 C1033 1.387 . S
C1034 C1037 1.387 . S
H1035 C1031 0.950 . S
H1036 C1033 0.950 . S
C1037 C1028 1.390 . S
C1037 H1030 0.950 . S
C1037 C1034 1.387 . S
C1038 C1039 1.387 . S
C1038 H1042 0.950 . S
C1038 C1047 1.390 . S
C1039 C1038 1.387 . S
C1039 C1041 1.387 . S
H1040 C1047 0.950 . S
C1041 C1039 1.387 . S
C1041 C1043 1.390 . S
C1041 H1045 0.950 . S
H1042 C1038 0.950 . S
C1043 C1041 1.390 . S
C1043 C1044 1.387 . S
C1043 H1046 0.950 . S
C1044 C1043 1.387 . S
C1044 C1047 1.387 . S
H1045 C1041 0.950 . S
H1046 C1043 0.950 . S
C1047 C1038 1.390 . S
C1047 H1040 0.950 . S
C1047 C1044 1.387 . S
C1048 C1049 1.388 1_556 S
C1048 H1052 0.950 1_556 S
C1048 C1057 1.390 . S
C1049 C1048 1.388 1_554 S
C1049 C1051 1.387 . S
H1050 C1057 0.950 . S
C1051 C1049 1.387 . S
C1051 C1053 1.390 1_554 S
C1051 H1055 0.950 . S
H1052 C1048 0.950 1_554 S
C1053 C1051 1.390 1_556 S
C1053 C1054 1.387 . S
C1053 H1056 0.950 . S
C1054 C1053 1.387 . S
C1054 C1057 1.387 . S
H1055 C1051 0.950 . S
H1056 C1053 0.950 . S
C1057 C1048 1.390 . S
C1057 H1050 0.950 . S
C1057 C1054 1.387 . S
C1058 C1059 1.387 . S
C1058 H1062 0.950 . S
C1058 C1067 1.390 . S
C1059 C1058 1.387 . S
C1059 C1061 1.387 . S
H1060 C1067 0.950 . S
C1061 C1059 1.387 . S
C1061 C1063 1.390 . S
C1061 H1065 0.950 . S
H1062 C1058 0.950 . S
C1063 C1061 1.390 . S
C1063 C1064 1.387 . S
C1063 H1066 0.950 . S
C1064 C1063 1.387 . S
C1064 C1067 1.387 . S
H1065 C1061 0.950 . S
H1066 C1063 0.950 . S
C1067 C1058 1.390 . S
C1067 H1060 0.950 . S
C1067 C1064 1.387 . S
C1068 C1069 1.387 . S
C1068 H1072 0.950 . S
C1068 C1077 1.390 . S
C1069 C1068 1.387 . S
C1069 C1071 1.387 . S
H1070 C1077 0.950 . S
C1071 C1069 1.387 . S
C1071 C1073 1.390 . S
C1071 H1075 0.950 . S
H1072 C1068 0.950 . S
C1073 C1071 1.390 . S
C1073 C1074 1.387 . S
C1073 H1076 0.950 . S
C1074 C1073 1.387 . S
C1074 C1077 1.387 . S
H1075 C1071 0.950 . S
H1076 C1073 0.950 . S
C1077 C1068 1.390 . S
C1077 H1070 0.950 . S
C1077 C1074 1.387 . S
C1078 C1079 1.387 . S
C1078 H1082 0.950 . S
C1078 C1087 1.390 . S
C1079 C1078 1.387 . S
C1079 C1081 1.387 . S
H1080 C1087 0.950 . S
C1081 C1079 1.387 . S
C1081 C1083 1.390 . S
C1081 H1085 0.950 . S
H1082 C1078 0.950 . S
C1083 C1081 1.390 . S
C1083 C1084 1.387 . S
C1083 H1086 0.950 . S
C1084 C1083 1.387 . S
C1084 C1087 1.387 . S
H1085 C1081 0.950 . S
H1086 C1083 0.950 . S
C1087 C1078 1.390 . S
C1087 H1080 0.950 . S
C1087 C1084 1.387 . S
C449 C7 0.822 . S
C454 C189 0.825 . S
C459 C357 1.230 . S
C464 C21 1.250 . S
C469 C35 1.828 . S
C474 C217 1.816 . S
C479 C49 1.826 . S
C484 C343 1.813 . S
C489 C63 1.254 . S
C494 C245 1.232 . S
C499 C77 1.072 . S
C504 C315 1.087 . S
C509 C91 1.071 . S
C514 C273 1.090 . S
C519 C441 0.825 . S
C524 C105 0.821 . S
C529 C301 1.231 . S
C534 C119 1.250 . S
C539 C133 1.071 . S
C544 C259 1.086 . S
C549 C329 1.090 . S
C554 C147 1.072 . S
C559 C161 1.827 . S
C564 C231 1.816 . S
C569 C203 1.233 . S
C574 C175 1.251 . S
C579 C287 0.828 . S
C584 C399 0.818 . S
C589 C413 0.826 . S
C594 C371 0.817 . S
C599 C427 1.813 . S
C604 C385 1.827 . S
C609 C3 1.502 . S
C614 C23 1.532 . S
C619 C36 1.573 . S
C624 C22 1.554 . S
C629 C45 1.354 . S
C634 C31 1.353 . S
C639 C51 1.663 . S
C644 C8 1.684 . S
C649 C101 1.505 . S
C654 C65 1.532 . S
C659 C79 1.721 . S
C664 C59 1.713 . S
C669 C87 1.494 . S
C674 C73 1.492 . S
C679 C92 1.726 1_554 S
C684 C107 1.700 . S
C689 C134 1.726 . S
C694 C9 1.698 1_655 S
C699 C120 1.554 . S
C704 C50 1.573 . S
C709 C149 1.722 . S
C714 C17 1.712 . S
C719 C387 1.654 1_455 S
C724 C106 1.684 . S
C729 C400 1.684 . S
C734 C37 1.663 . S
C739 C162 1.574 . S
C744 C64 1.556 . S
C749 C93 1.720 . S
C754 C171 1.711 . S
C759 C204 1.494 . S
C764 C185 1.477 . S
C769 C219 1.602 . S
C774 C205 1.588 . S
C779 C227 1.415 . S
C784 C213 1.416 . S
C789 C191 1.659 . S
C794 C232 1.677 . S
C799 C246 1.495 . S
C804 C283 1.480 . S
C809 C241 1.700 . S
C814 C260 1.713 . S
C819 C269 1.464 . S
C824 C255 1.463 . S
C829 C275 1.662 . S
C834 C288 1.669 . S
C839 C190 1.668 1_455 S
C844 C317 1.661 . S
C849 C303 1.586 . S
C854 C233 1.602 . S
C859 C330 1.714 1_655 S
C864 C199 1.701 . S
C869 C428 1.677 1_655 S
C874 C289 1.659 . S
C879 C443 1.659 . S
C884 C218 1.677 . S
C889 C247 1.586 . S
C894 C345 1.602 . S
C899 C353 1.701 . S
C904 C274 1.713 . S
C909 C177 1.532 . S
C914 C367 1.505 . S
C919 C386 1.574 . S
C924 C176 1.556 . S
C929 C157 1.353 . S
C934 C381 1.355 . S
C939 C163 1.663 . S
C944 C372 1.684 . S
C949 C121 1.533 . S
C954 C395 1.505 . S
C959 C135 1.721 . S
C964 C115 1.713 . S
C969 C143 1.491 . S
C974 C129 1.492 . S
C979 C148 1.726 . S
C984 C401 1.698 . S
C989 C373 1.699 . S
C994 C78 1.726 . S
C999 C358 1.495 . S
C1004 C409 1.478 . S
C1009 C359 1.588 . S
C1014 C429 1.602 . S
C1019 C423 1.416 . S
C1024 C339 1.414 . S
C1029 C344 1.676 . S
C1034 C415 1.658 . S
C1039 C437 1.479 . S
C1044 C302 1.495 . S
C1049 C297 1.701 . S
C1054 C316 1.713 . S
C1059 C325 1.463 . S
C1064 C311 1.464 . S
C1069 C331 1.662 . S
C1074 C442 1.669 . S
C1079 C414 1.669 . S
C1084 C261 1.662 . S
