# Generated by pormake.
# Topology wgp, (5)-cn, num edge types: 1
# Building blocks:
#     Node 0, Type 0, BuildingBlock: BEQFEK_clean_sbu_0, # of connection points: 5
#     Node 1, Type 0, BuildingBlock: BEQFEK_clean_sbu_0, # of connection points: 5
#     Node 2, Type 0, BuildingBlock: BEQFEK_clean_sbu_0, # of connection points: 5
#     Node 3, Type 0, BuildingBlock: BEQFEK_clean_sbu_0, # of connection points: 5
#     Node 4, Type 0, BuildingBlock: BEQFEK_clean_sbu_0, # of connection points: 5
#     Node 5, Type 0, BuildingBlock: BEQFEK_clean_sbu_0, # of connection points: 5
#     Node 6, Type 0, BuildingBlock: BEQFEK_clean_sbu_0, # of connection points: 5
#     Node 7, Type 0, BuildingBlock: BEQFEK_clean_sbu_0, # of connection points: 5
#     Node 8, Type 0, BuildingBlock: BEQFEK_clean_sbu_0, # of connection points: 5
#     Node 9, Type 0, BuildingBlock: BEQFEK_clean_sbu_0, # of connection points: 5
#     Node 10, Type 0, BuildingBlock: BEQFEK_clean_sbu_0, # of connection points: 5
#     Node 11, Type 0, BuildingBlock: BEQFEK_clean_sbu_0, # of connection points: 5
#     Node 12, Type 0, BuildingBlock: BEQFEK_clean_sbu_0, # of connection points: 5
#     Node 13, Type 0, BuildingBlock: BEQFEK_clean_sbu_0, # of connection points: 5
#     Node 14, Type 0, BuildingBlock: BEQFEK_clean_sbu_0, # of connection points: 5
#     Node 15, Type 0, BuildingBlock: BEQFEK_clean_sbu_0, # of connection points: 5
#     Node 16, Type 0, BuildingBlock: BEQFEK_clean_sbu_0, # of connection points: 5
#     Node 17, Type 0, BuildingBlock: BEQFEK_clean_sbu_0, # of connection points: 5
#     Node 18, Type 0, BuildingBlock: BEQFEK_clean_sbu_0, # of connection points: 5
#     Node 19, Type 0, BuildingBlock: BEQFEK_clean_sbu_0, # of connection points: 5
#     Node 20, Type 0, BuildingBlock: BEQFEK_clean_sbu_0, # of connection points: 5
#     Node 21, Type 0, BuildingBlock: BEQFEK_clean_sbu_0, # of connection points: 5
#     Node 22, Type 0, BuildingBlock: BEQFEK_clean_sbu_0, # of connection points: 5
#     Node 23, Type 0, BuildingBlock: BEQFEK_clean_sbu_0, # of connection points: 5
#     Node 24, Type 0, BuildingBlock: BEQFEK_clean_sbu_0, # of connection points: 5
#     Node 25, Type 0, BuildingBlock: BEQFEK_clean_sbu_0, # of connection points: 5
#     Node 26, Type 0, BuildingBlock: BEQFEK_clean_sbu_0, # of connection points: 5
#     Node 27, Type 0, BuildingBlock: BEQFEK_clean_sbu_0, # of connection points: 5
#     Node 28, Type 0, BuildingBlock: BEQFEK_clean_sbu_0, # of connection points: 5
#     Node 29, Type 0, BuildingBlock: BEQFEK_clean_sbu_0, # of connection points: 5
#     Node 30, Type 0, BuildingBlock: BEQFEK_clean_sbu_0, # of connection points: 5
#     Node 31, Type 0, BuildingBlock: BEQFEK_clean_sbu_0, # of connection points: 5
#     Edge 32, Type (0, 0), BuildingBlock: CIFDUS_clean_linker_0, # of connection points: 2
#     Edge 33, Type (0, 0), BuildingBlock: CIFDUS_clean_linker_0, # of connection points: 2
#     Edge 34, Type (0, 0), BuildingBlock: CIFDUS_clean_linker_0, # of connection points: 2
#     Edge 35, Type (0, 0), BuildingBlock: CIFDUS_clean_linker_0, # of connection points: 2
#     Edge 36, Type (0, 0), BuildingBlock: CIFDUS_clean_linker_0, # of connection points: 2
#     Edge 37, Type (0, 0), BuildingBlock: CIFDUS_clean_linker_0, # of connection points: 2
#     Edge 38, Type (0, 0), BuildingBlock: CIFDUS_clean_linker_0, # of connection points: 2
#     Edge 39, Type (0, 0), BuildingBlock: CIFDUS_clean_linker_0, # of connection points: 2
#     Edge 40, Type (0, 0), BuildingBlock: CIFDUS_clean_linker_0, # of connection points: 2
#     Edge 41, Type (0, 0), BuildingBlock: CIFDUS_clean_linker_0, # of connection points: 2
#     Edge 42, Type (0, 0), BuildingBlock: CIFDUS_clean_linker_0, # of connection points: 2
#     Edge 43, Type (0, 0), BuildingBlock: CIFDUS_clean_linker_0, # of connection points: 2
#     Edge 44, Type (0, 0), BuildingBlock: CIFDUS_clean_linker_0, # of connection points: 2
#     Edge 45, Type (0, 0), BuildingBlock: CIFDUS_clean_linker_0, # of connection points: 2
#     Edge 46, Type (0, 0), BuildingBlock: CIFDUS_clean_linker_0, # of connection points: 2
#     Edge 47, Type (0, 0), BuildingBlock: CIFDUS_clean_linker_0, # of connection points: 2
#     Edge 48, Type (0, 0), BuildingBlock: CIFDUS_clean_linker_0, # of connection points: 2
#     Edge 49, Type (0, 0), BuildingBlock: CIFDUS_clean_linker_0, # of connection points: 2
#     Edge 50, Type (0, 0), BuildingBlock: CIFDUS_clean_linker_0, # of connection points: 2
#     Edge 51, Type (0, 0), BuildingBlock: CIFDUS_clean_linker_0, # of connection points: 2
#     Edge 52, Type (0, 0), BuildingBlock: CIFDUS_clean_linker_0, # of connection points: 2
#     Edge 53, Type (0, 0), BuildingBlock: CIFDUS_clean_linker_0, # of connection points: 2
#     Edge 54, Type (0, 0), BuildingBlock: CIFDUS_clean_linker_0, # of connection points: 2
#     Edge 55, Type (0, 0), BuildingBlock: CIFDUS_clean_linker_0, # of connection points: 2
#     Edge 56, Type (0, 0), BuildingBlock: CIFDUS_clean_linker_0, # of connection points: 2
#     Edge 57, Type (0, 0), BuildingBlock: CIFDUS_clean_linker_0, # of connection points: 2
#     Edge 58, Type (0, 0), BuildingBlock: CIFDUS_clean_linker_0, # of connection points: 2
#     Edge 59, Type (0, 0), BuildingBlock: CIFDUS_clean_linker_0, # of connection points: 2
#     Edge 60, Type (0, 0), BuildingBlock: CIFDUS_clean_linker_0, # of connection points: 2
#     Edge 61, Type (0, 0), BuildingBlock: CIFDUS_clean_linker_0, # of connection points: 2
#     Edge 62, Type (0, 0), BuildingBlock: CIFDUS_clean_linker_0, # of connection points: 2
#     Edge 63, Type (0, 0), BuildingBlock: CIFDUS_clean_linker_0, # of connection points: 2
#     Edge 64, Type (0, 0), BuildingBlock: CIFDUS_clean_linker_0, # of connection points: 2
#     Edge 65, Type (0, 0), BuildingBlock: CIFDUS_clean_linker_0, # of connection points: 2
#     Edge 66, Type (0, 0), BuildingBlock: CIFDUS_clean_linker_0, # of connection points: 2
#     Edge 67, Type (0, 0), BuildingBlock: CIFDUS_clean_linker_0, # of connection points: 2
#     Edge 68, Type (0, 0), BuildingBlock: CIFDUS_clean_linker_0, # of connection points: 2
#     Edge 69, Type (0, 0), BuildingBlock: CIFDUS_clean_linker_0, # of connection points: 2
#     Edge 70, Type (0, 0), BuildingBlock: CIFDUS_clean_linker_0, # of connection points: 2
#     Edge 71, Type (0, 0), BuildingBlock: CIFDUS_clean_linker_0, # of connection points: 2
#     Edge 72, Type (0, 0), BuildingBlock: CIFDUS_clean_linker_0, # of connection points: 2
#     Edge 73, Type (0, 0), BuildingBlock: CIFDUS_clean_linker_0, # of connection points: 2
#     Edge 74, Type (0, 0), BuildingBlock: CIFDUS_clean_linker_0, # of connection points: 2
#     Edge 75, Type (0, 0), BuildingBlock: CIFDUS_clean_linker_0, # of connection points: 2
#     Edge 76, Type (0, 0), BuildingBlock: CIFDUS_clean_linker_0, # of connection points: 2
#     Edge 77, Type (0, 0), BuildingBlock: CIFDUS_clean_linker_0, # of connection points: 2
#     Edge 78, Type (0, 0), BuildingBlock: CIFDUS_clean_linker_0, # of connection points: 2
#     Edge 79, Type (0, 0), BuildingBlock: CIFDUS_clean_linker_0, # of connection points: 2
#     Edge 80, Type (0, 0), BuildingBlock: CIFDUS_clean_linker_0, # of connection points: 2
#     Edge 81, Type (0, 0), BuildingBlock: CIFDUS_clean_linker_0, # of connection points: 2
#     Edge 82, Type (0, 0), BuildingBlock: CIFDUS_clean_linker_0, # of connection points: 2
#     Edge 83, Type (0, 0), BuildingBlock: CIFDUS_clean_linker_0, # of connection points: 2
#     Edge 84, Type (0, 0), BuildingBlock: CIFDUS_clean_linker_0, # of connection points: 2
#     Edge 85, Type (0, 0), BuildingBlock: CIFDUS_clean_linker_0, # of connection points: 2
#     Edge 86, Type (0, 0), BuildingBlock: CIFDUS_clean_linker_0, # of connection points: 2
#     Edge 87, Type (0, 0), BuildingBlock: CIFDUS_clean_linker_0, # of connection points: 2
#     Edge 88, Type (0, 0), BuildingBlock: CIFDUS_clean_linker_0, # of connection points: 2
#     Edge 89, Type (0, 0), BuildingBlock: CIFDUS_clean_linker_0, # of connection points: 2
#     Edge 90, Type (0, 0), BuildingBlock: CIFDUS_clean_linker_0, # of connection points: 2
#     Edge 91, Type (0, 0), BuildingBlock: CIFDUS_clean_linker_0, # of connection points: 2
#     Edge 92, Type (0, 0), BuildingBlock: CIFDUS_clean_linker_0, # of connection points: 2
#     Edge 93, Type (0, 0), BuildingBlock: CIFDUS_clean_linker_0, # of connection points: 2
#     Edge 94, Type (0, 0), BuildingBlock: CIFDUS_clean_linker_0, # of connection points: 2
#     Edge 95, Type (0, 0), BuildingBlock: CIFDUS_clean_linker_0, # of connection points: 2
#     Edge 96, Type (0, 0), BuildingBlock: CIFDUS_clean_linker_0, # of connection points: 2
#     Edge 97, Type (0, 0), BuildingBlock: CIFDUS_clean_linker_0, # of connection points: 2
#     Edge 98, Type (0, 0), BuildingBlock: CIFDUS_clean_linker_0, # of connection points: 2
#     Edge 99, Type (0, 0), BuildingBlock: CIFDUS_clean_linker_0, # of connection points: 2
#     Edge 100, Type (0, 0), BuildingBlock: CIFDUS_clean_linker_0, # of connection points: 2
#     Edge 101, Type (0, 0), BuildingBlock: CIFDUS_clean_linker_0, # of connection points: 2
#     Edge 102, Type (0, 0), BuildingBlock: CIFDUS_clean_linker_0, # of connection points: 2
#     Edge 103, Type (0, 0), BuildingBlock: CIFDUS_clean_linker_0, # of connection points: 2
#     Edge 104, Type (0, 0), BuildingBlock: CIFDUS_clean_linker_0, # of connection points: 2
#     Edge 105, Type (0, 0), BuildingBlock: CIFDUS_clean_linker_0, # of connection points: 2
#     Edge 106, Type (0, 0), BuildingBlock: CIFDUS_clean_linker_0, # of connection points: 2
#     Edge 107, Type (0, 0), BuildingBlock: CIFDUS_clean_linker_0, # of connection points: 2
#     Edge 108, Type (0, 0), BuildingBlock: CIFDUS_clean_linker_0, # of connection points: 2
#     Edge 109, Type (0, 0), BuildingBlock: CIFDUS_clean_linker_0, # of connection points: 2
#     Edge 110, Type (0, 0), BuildingBlock: CIFDUS_clean_linker_0, # of connection points: 2
#     Edge 111, Type (0, 0), BuildingBlock: CIFDUS_clean_linker_0, # of connection points: 2
# Relax obj value: 0.276
# Max RMSD: 0.172
# Mean RMSD: 0.172
data_MOF--net-wgp--node1-BEQFEK_clean_sbu_0--edge1-CIFDUS_clean_linker_0
_symmetry_space_group_name_H-M    P1
_symmetry_Int_Tables_number       1
_symmetry_cell_setting            triclinic
loop_
_symmetry_equiv_pos_as_xyz
'x, y, z'
_cell_length_a     31.772607
_cell_length_b     31.781013
_cell_length_c     97.534784
_cell_angle_alpha  89.998369
_cell_angle_beta   89.922155
_cell_angle_gamma 89.763355
loop_
_atom_site_label
_atom_site_type_symbol
_atom_site_fract_x
_atom_site_fract_y
_atom_site_fract_z
_atom_type_partial_charge
Co0 Co 0.30473 0.20172 0.08995 0.0
Co1 Co 0.34487 0.11303 0.08748 0.0
C2 C 0.30011 0.14957 0.06379 0.0
O3 O 0.29236 0.18286 0.07066 0.0
O4 O 0.32059 0.11918 0.06904 0.0
C5 C 0.23242 0.25403 0.0896 0.0
O6 O 0.21308 0.2187 0.08667 0.0
C7 C 0.35447 0.02294 0.08275 0.0
C8 C 0.38669 1.00268 0.10165 0.0
C9 C 0.36561 0.98757 0.09026 0.0
N10 N 0.36634 0.05729 0.08972 0.0
N11 N 0.38716 0.04498 0.10074 0.0
C12 C 0.32991 0.0241 0.06966 0.0
H13 H 0.34611 0.04489 0.06221 0.0
H14 H 0.29811 0.03732 0.07162 0.0
H15 H 0.32695 0.99227 0.06509 0.0
C16 C 0.26123 0.16021 0.1139 0.0
N17 N 0.28817 0.16052 0.10314 0.0
N18 N 0.3015 0.12204 0.10086 0.0
C19 C 0.28074 0.09549 0.10923 0.0
C20 C 0.25526 0.11859 0.11823 0.0
C21 C 0.24357 0.19937 0.12022 0.0
H22 H 0.26372 0.22676 0.11775 0.0
H23 H 0.21159 0.2053 0.11608 0.0
H24 H 0.24137 0.19596 0.13152 0.0
O25 O 0.36515 0.21591 0.09171 0.0
O26 O 0.39369 0.15241 0.08985 0.0
H27 H 0.30597 0.03357 0.11221 0.0
H28 H 0.24931 0.03521 0.11036 0.0
C29 C 0.27941 0.04904 0.10682 0.0
H30 H 0.28218 0.04291 0.09572 0.0
H31 H 0.39834 0.06541 0.10826 0.0
O32 O 0.27167 0.25352 0.09209 0.0
C33 C 0.39746 0.19211 0.09135 0.0
Co34 Co 0.05296 0.04247 0.34138 0.0
Co35 Co 0.13816 0.0864 0.33588 0.0
C36 C 0.09544 0.0402 0.31351 0.0
O37 O 0.06603 0.03116 0.32184 0.0
O38 O 0.12708 0.06159 0.31739 0.0
C39 C 1.00506 0.96779 0.34254 0.0
O40 O 0.0403 0.9495 0.33869 0.0
C41 C 0.22782 0.09449 0.32937 0.0
C42 C 0.25021 0.13259 0.34677 0.0
C43 C 0.26419 0.10786 0.33597 0.0
N44 N 0.19419 0.1088 0.33637 0.0
N45 N 0.20781 0.13284 0.34648 0.0
C46 C 0.22484 0.06671 0.317 0.0
H47 H 0.21142 0.03581 0.31992 0.0
H48 H 0.25599 0.06207 0.31206 0.0
H49 H 0.2032 0.0814 0.30946 0.0
C50 C 0.1005 1.00366 0.3642 0.0
N51 N 0.09766 0.02911 0.35319 0.0
N52 N 0.13508 0.04312 0.3499 0.0
C53 C 0.1637 0.02397 0.35809 0.0
C54 C 0.14282 0.99877 0.36773 0.0
C55 C 0.06278 0.98761 0.37176 0.0
H56 H 0.0353 0.00851 0.36995 0.0
H57 H 0.05496 0.95565 0.36801 0.0
H58 H 0.06902 0.98603 0.38294 0.0
O59 O 0.03602 0.10112 0.34321 0.0
O60 O 0.09587 0.13473 0.33918 0.0
H61 H 0.22393 0.05316 0.36018 0.0
H62 H 0.226 0.99627 0.35932 0.0
C63 C 0.21001 0.02485 0.35537 0.0
H64 H 0.21547 0.02593 0.34421 0.0
H65 H 0.18829 0.1464 0.35388 0.0
O66 O 1.00457 0.00699 0.34508 0.0
C67 C 0.05631 0.13523 0.34182 0.0
Co68 Co 0.20821 0.808 0.59205 0.0
Co69 Co 0.17055 0.89695 0.58644 0.0
C70 C 0.21394 0.85016 0.56423 0.0
O71 O 0.21932 0.81961 0.57245 0.0
O72 O 0.1964 0.88412 0.56821 0.0
C73 C 0.28074 0.75644 0.59242 0.0
O74 O 0.2985 0.79147 0.58828 0.0
C75 C 0.16856 0.98785 0.58232 0.0
C76 C 0.10388 1.00449 0.58878 0.0
C77 C 0.14133 0.02149 0.58419 0.0
N78 N 0.1483 0.95247 0.58577 0.0
N79 N 0.10946 0.9625 0.58946 0.0
C80 C 0.21277 0.98895 0.57701 0.0
H81 H 0.21198 0.99451 0.56578 0.0
H82 H 0.22903 0.95859 0.57901 0.0
H83 H 0.23065 0.01509 0.58172 0.0
C84 C 0.24865 0.85419 0.61516 0.0
N85 N 0.22509 0.85315 0.60366 0.0
N86 N 0.20981 0.89105 0.60126 0.0
C87 C 0.22356 0.9174 0.61116 0.0
C88 C 0.24898 0.89504 0.62017 0.0
C89 C 0.26917 0.81647 0.6215 0.0
H90 H 0.2992 0.80993 0.61608 0.0
H91 H 0.27635 0.82175 0.63249 0.0
H92 H 0.24852 0.78862 0.62042 0.0
O93 O 0.14711 0.79619 0.59438 0.0
O94 O 0.1215 0.85962 0.58962 0.0
H95 H 0.21582 0.97362 0.62347 0.0
H96 H 0.22632 0.98227 0.60561 0.0
C97 C 0.20926 0.96199 0.61296 0.0
H98 H 0.17503 0.96458 0.61099 0.0
H99 H 0.08708 0.94082 0.59278 0.0
O100 O 0.24178 0.75661 0.5955 0.0
C101 C 0.11595 0.82114 0.59279 0.0
Co102 Co 0.44544 0.95379 0.83856 0.0
Co103 Co 0.35684 0.91316 0.83648 0.0
C104 C 0.39067 0.95976 0.81289 0.0
O105 O 0.42424 0.9668 0.81966 0.0
O106 O 0.36059 0.93874 0.81808 0.0
C107 C 0.49832 0.02563 0.83681 0.0
O108 O 0.46395 0.04343 0.83202 0.0
C109 C 0.2665 0.89769 0.8328 0.0
C110 C 0.25212 0.86128 0.85152 0.0
C111 C 0.23374 0.88021 0.84023 0.0
N112 N 0.30264 0.88958 0.83944 0.0
N113 N 0.29396 0.86677 0.85041 0.0
C114 C 0.26316 0.92629 0.82063 0.0
H115 H 0.27999 0.95611 0.8227 0.0
H116 H 0.22998 0.9334 0.81796 0.0
H117 H 0.27875 0.91102 0.81173 0.0
C118 C 0.40492 0.9957 0.86277 0.0
N119 N 0.40464 0.96915 0.85196 0.0
N120 N 0.36619 0.95543 0.85005 0.0
C121 C 0.34011 0.9751 0.8589 0.0
C122 C 0.36372 1.00077 0.86762 0.0
C123 C 0.44442 0.01378 0.86862 0.0
H124 H 0.4717 0.99322 0.86617 0.0
H125 H 0.45003 0.04521 0.86403 0.0
H126 H 0.44184 0.01717 0.87991 0.0
O127 O 0.46065 0.89342 0.84 0.0
O128 O 0.39739 0.86493 0.8382 0.0
H129 H 0.28068 0.94656 0.86338 0.0
H130 H 0.27834 1.00318 0.86151 0.0
C131 C 0.29313 0.97388 0.8576 0.0
H132 H 0.28426 0.9705 0.84671 0.0
H133 H 0.31632 0.85744 0.85763 0.0
O134 O 0.4971 0.98745 0.84069 0.0
C135 C 0.43713 0.86111 0.83955 0.0
Co136 Co 0.29834 0.80554 0.46016 0.0
Co137 Co 0.34893 0.88931 0.46417 0.0
C138 C 0.29326 0.85724 0.48634 0.0
O139 O 0.28258 0.82566 0.4791 0.0
O140 O 0.31915 0.88428 0.48184 0.0
C141 C 0.25178 0.73237 0.46596 0.0
O142 O 0.26624 0.74064 0.47828 0.0
C143 C 0.36427 0.97769 0.47036 0.0
C144 C 0.40312 0.99733 0.4528 0.0
C145 C 0.37928 0.01298 0.46358 0.0
N146 N 0.37615 0.94314 0.46341 0.0
N147 N 0.40113 0.95497 0.45329 0.0
C148 C 0.33543 0.9771 0.4825 0.0
H149 H 0.3038 0.96638 0.47924 0.0
H150 H 0.33282 0.00864 0.48732 0.0
H151 H 0.34778 0.95461 0.49022 0.0
C152 C 0.26854 0.85271 0.43511 0.0
N153 N 0.29104 0.84917 0.44683 0.0
N154 N 0.30908 0.88543 0.44946 0.0
C155 C 0.2962 0.91386 0.44011 0.0
C156 C 0.27117 0.89413 0.43033 0.0
C157 C 0.24676 0.81652 0.42841 0.0
H158 H 0.26241 0.78648 0.4312 0.0
H159 H 0.21365 0.81542 0.43203 0.0
H160 H 0.24689 0.82008 0.41709 0.0
O161 O 0.35752 0.78542 0.46006 0.0
O162 O 0.39344 0.84473 0.46252 0.0
H163 H 0.332 0.97012 0.43738 0.0
H164 H 0.27575 0.97819 0.43692 0.0
C165 C 0.30159 0.96023 0.44187 0.0
H166 H 0.30105 0.96767 0.4529 0.0
H167 H 0.41331 0.93452 0.44591 0.0
O168 O 0.2616 0.7566 0.45609 0.0
C169 C 0.3924 0.80485 0.46102 0.0
Co170 Co 0.45124 0.05697 0.70947 0.0
Co171 Co 0.36174 0.09518 0.71415 0.0
C172 C 0.40729 0.05361 0.73699 0.0
O173 O 0.43868 0.04817 0.72912 0.0
O174 O 0.3737 0.07068 0.73259 0.0
C175 C 0.50237 0.98665 0.71279 0.0
O176 O 0.46891 0.97509 0.71972 0.0
C177 C 0.27315 0.09097 0.72024 0.0
C178 C 0.24634 0.14718 0.71013 0.0
C179 C 0.23565 0.11165 0.71759 0.0
N180 N 0.30466 0.11319 0.7147 0.0
N181 N 0.28863 0.14715 0.70882 0.0
C182 C 0.27871 0.04814 0.72642 0.0
H183 H 0.30786 0.033 0.7225 0.0
H184 H 0.25137 0.02776 0.72407 0.0
H185 H 0.28124 0.05129 0.73771 0.0
C186 C 0.40619 0.01346 0.68683 0.0
N187 N 0.40671 0.03884 0.69791 0.0
N188 N 0.36878 0.05451 0.69988 0.0
C189 C 0.34282 0.03927 0.69011 0.0
C190 C 0.36558 0.01257 0.68158 0.0
C191 C 0.44412 0.99108 0.68132 0.0
H192 H 0.47066 0.0135 0.6804 0.0
H193 H 0.45361 0.96611 0.68864 0.0
H194 H 0.43786 0.97633 0.67122 0.0
O195 O 0.46272 0.11795 0.70674 0.0
O196 O 0.39907 0.14486 0.71078 0.0
H197 H 0.29611 0.08782 0.6886 0.0
H198 H 0.28549 0.04245 0.6781 0.0
C199 C 0.29814 0.05306 0.68811 0.0
H200 H 0.27837 0.03972 0.69639 0.0
H201 H 0.30633 0.16938 0.70349 0.0
O202 O 0.50207 0.02168 0.70644 0.0
C203 C 0.43805 0.14959 0.70792 0.0
Co204 Co 0.21156 0.20335 0.95808 0.0
Co205 Co 0.16696 0.11808 0.96563 0.0
C206 C 0.21924 0.16354 0.98621 0.0
O207 O 0.22742 0.19219 0.9775 0.0
O208 O 0.19617 0.13229 0.98309 0.0
C209 C 0.27958 0.26149 0.95741 0.0
O210 O 0.297 0.23403 0.96574 0.0
C211 C 0.16395 0.0287 0.97349 0.0
C212 C 0.11985 1.0031 0.95823 0.0
C213 C 0.14955 0.99105 0.96789 0.0
N214 N 0.14571 0.06112 0.96683 0.0
N215 N 0.11808 0.04551 0.9581 0.0
C216 C 0.19604 0.03409 0.98457 0.0
H217 H 0.225 0.04839 0.98028 0.0
H218 H 0.20377 1.00374 0.98962 0.0
H219 H 0.1833 0.05595 0.99242 0.0
C220 C 0.24341 0.15141 0.93473 0.0
N221 N 0.2217 0.15651 0.94655 0.0
N222 N 0.20653 0.12004 0.9505 0.0
C223 C 0.22084 0.0901 0.94183 0.0
C224 C 0.24348 0.10886 0.93123 0.0
C225 C 0.26131 0.18711 0.92665 0.0
H226 H 0.24311 0.21634 0.9286 0.0
H227 H 0.29436 0.19234 0.92987 0.0
H228 H 0.26083 0.18005 0.91551 0.0
O229 O 0.15193 0.21851 0.95778 0.0
O230 O 0.11788 0.1596 0.96287 0.0
H231 H 0.18749 0.03176 0.94184 0.0
H232 H 0.24343 0.0261 0.93914 0.0
C233 C 0.21881 0.04396 0.94475 0.0
H234 H 0.2244 0.03877 0.95577 0.0
H235 H 0.10082 0.06366 0.95118 0.0
O236 O 0.24368 0.25356 0.9523 0.0
C237 C 0.11772 0.19895 0.95994 0.0
Co238 Co 0.06013 0.95236 0.20913 0.0
Co239 Co 0.14828 0.91007 0.21354 0.0
C240 C 0.11059 0.96138 0.23566 0.0
O241 O 0.07803 0.96858 0.22837 0.0
O242 O 0.14068 0.93883 0.23117 0.0
C243 C 0.9824 0.99078 0.215 0.0
O244 O 0.98944 0.9709 0.2266 0.0
C245 C 0.23786 0.90044 0.21937 0.0
C246 C 0.25871 0.85995 0.20229 0.0
C247 C 0.27356 0.88554 0.21271 0.0
N248 N 0.20372 0.8865 0.2127 0.0
N249 N 0.21634 0.86075 0.20287 0.0
C250 C 0.23621 0.93021 0.23126 0.0
H251 H 0.22299 0.96086 0.2279 0.0
H252 H 0.26783 0.93504 0.23581 0.0
H253 H 0.21512 0.91717 0.23926 0.0
C254 C 0.10641 0.98844 0.18456 0.0
N255 N 0.10384 0.9648 0.19611 0.0
N256 N 0.14143 0.94977 0.19896 0.0
C257 C 0.16935 0.96545 0.18993 0.0
C258 C 0.14829 0.98936 0.18012 0.0
C259 C 0.06927 0.0084 0.17773 0.0
H260 H 0.04018 0.99073 0.18017 0.0
H261 H 0.06561 0.04107 0.18158 0.0
H262 H 0.0738 0.00951 0.16645 0.0
O263 O 0.04526 0.89108 0.20851 0.0
O264 O 0.10821 0.86232 0.21177 0.0
H265 H 0.22826 0.93311 0.18792 0.0
H266 H 0.23232 0.98966 0.18677 0.0
C267 C 0.21594 0.96332 0.19196 0.0
H268 H 0.22273 0.96562 0.20301 0.0
H269 H 0.19619 0.84681 0.19577 0.0
O270 O 0.00885 0.98673 0.20528 0.0
C271 C 0.06874 0.85863 0.20981 0.0
Co272 Co 0.70771 0.81068 0.9593 0.0
Co273 Co 0.66653 0.89983 0.95971 0.0
C274 C 0.71476 0.86624 0.98399 0.0
O275 O 0.72174 0.83135 0.97795 0.0
O276 O 0.69435 0.89567 0.97807 0.0
C277 C 0.77057 0.74542 0.96267 0.0
O278 O 0.78933 0.77289 0.97063 0.0
C279 C 0.66979 0.9906 0.95997 0.0
C280 C 0.60846 0.00951 0.95118 0.0
C281 C 0.64657 0.02516 0.95573 0.0
N282 N 0.64687 0.95596 0.95779 0.0
N283 N 0.60992 0.96737 0.95275 0.0
C284 C 0.71295 0.98991 0.96614 0.0
H285 H 0.73042 0.96148 0.96271 0.0
H286 H 0.73108 0.01861 0.96364 0.0
H287 H 0.70974 0.98811 0.97745 0.0
C288 C 0.75485 0.8495 0.93578 0.0
N289 N 0.72501 0.85033 0.94568 0.0
N290 N 0.70531 0.88684 0.94524 0.0
C291 C 0.72069 0.90943 0.93464 0.0
C292 C 0.75298 0.88693 0.92843 0.0
C293 C 0.78489 0.81381 0.93358 0.0
H294 H 0.76698 0.78422 0.93221 0.0
H295 H 0.80491 0.81012 0.94281 0.0
H296 H 0.80517 0.81921 0.92448 0.0
O297 O 0.64563 0.79905 0.95822 0.0
O298 O 0.61689 0.86268 0.95893 0.0
H299 H 0.67187 0.95587 0.93238 0.0
H300 H 0.71323 0.95965 0.91984 0.0
C301 C 0.70619 0.95263 0.93073 0.0
H302 H 0.72311 0.97593 0.93707 0.0
H303 H 0.58638 0.94633 0.9499 0.0
O304 O 0.73657 0.75576 0.95665 0.0
C305 C 0.6132 0.82287 0.95832 0.0
Co306 Co 0.93778 0.95791 0.71086 0.0
Co307 Co 0.85037 0.9151 0.71452 0.0
C308 C 0.88528 0.96483 0.73723 0.0
O309 O 0.91778 0.97231 0.72993 0.0
O310 O 0.85521 0.94257 0.73263 0.0
C311 C 0.01347 0.99854 0.71711 0.0
O312 O 0.0066 0.9794 0.72884 0.0
C313 C 0.7589 0.9009 0.7169 0.0
C314 C 0.75001 0.85501 0.70015 0.0
C315 C 0.7283 0.88047 0.70927 0.0
N316 N 0.79691 0.88882 0.71222 0.0
N317 N 0.79131 0.86017 0.70258 0.0
C318 C 0.75201 0.93604 0.72693 0.0
H319 H 0.77931 0.95758 0.72705 0.0
H320 H 0.7231 0.95419 0.72445 0.0
H321 H 0.74824 0.92246 0.73734 0.0
C322 C 0.8944 0.99252 0.68588 0.0
N323 N 0.89534 0.96981 0.6976 0.0
N324 N 0.85745 0.95539 0.70015 0.0
C325 C 0.83068 0.97059 0.69064 0.0
C326 C 0.85314 0.99366 0.68095 0.0
C327 C 0.93275 0.01056 0.67924 0.0
H328 H 0.96099 0.99178 0.682 0.0
H329 H 0.93729 0.04324 0.68295 0.0
H330 H 0.92933 0.01116 0.66792 0.0
O331 O 0.95526 0.8979 0.70998 0.0
O332 O 0.8927 0.86852 0.71282 0.0
H333 H 0.77336 0.93648 0.68803 0.0
H334 H 0.76763 0.99269 0.68587 0.0
C335 C 0.7838 0.96762 0.69179 0.0
H336 H 0.77441 0.97145 0.7026 0.0
H337 H 0.81569 0.84691 0.69682 0.0
O338 O 0.98755 0.99341 0.70736 0.0
C339 C 0.93236 0.86527 0.71103 0.0
Co340 Co 0.79686 0.21252 0.45828 0.0
Co341 Co 0.84314 0.12575 0.46085 0.0
C342 C 0.79488 0.16069 0.48444 0.0
O343 O 0.78485 0.19327 0.47752 0.0
O344 O 0.81772 0.13178 0.47928 0.0
C345 C 0.73132 0.2741 0.4623 0.0
O346 O 0.72164 0.2513 0.47307 0.0
C347 C 0.85518 0.03576 0.46619 0.0
C348 C 0.89003 0.01524 0.4478 0.0
C349 C 0.86852 1.00019 0.45913 0.0
N350 N 0.86653 0.07011 0.45906 0.0
N351 N 0.88876 0.05764 0.44833 0.0
C352 C 0.82913 0.03691 0.47898 0.0
H353 H 0.79729 0.04932 0.4766 0.0
H354 H 0.82635 1.00525 0.48369 0.0
H355 H 0.84405 0.05835 0.48649 0.0
C356 C 0.7564 0.16845 0.43466 0.0
N357 N 0.78374 0.17 0.44524 0.0
N358 N 0.79948 0.13233 0.44736 0.0
C359 C 0.77996 0.10484 0.43898 0.0
C360 C 0.7526 0.12671 0.43024 0.0
C361 C 0.73625 0.2068 0.4286 0.0
H362 H 0.75651 0.23467 0.43024 0.0
H363 H 0.70553 0.21256 0.43372 0.0
H364 H 0.7311 0.20281 0.41743 0.0
O365 O 0.85647 0.22924 0.45692 0.0
O366 O 0.89034 0.16821 0.45845 0.0
H367 H 0.80935 0.04496 0.43562 0.0
H368 H 0.75269 0.04258 0.4375 0.0
C369 C 0.78176 0.05825 0.44111 0.0
H370 H 0.78484 0.05162 0.45216 0.0
H371 H 0.89999 0.07786 0.44075 0.0
O372 O 0.76193 0.26303 0.45469 0.0
C373 C 0.89069 0.20828 0.45718 0.0
Co374 Co 0.5548 0.04506 0.20706 0.0
Co375 Co 0.637 0.09431 0.21335 0.0
C376 C 0.59321 0.04267 0.23494 0.0
O377 O 0.56535 0.03153 0.2264 0.0
O378 O 0.62318 0.06672 0.23134 0.0
C379 C 0.50754 0.97025 0.20541 0.0
O380 O 0.54214 0.95317 0.21028 0.0
C381 C 0.72465 0.09066 0.22045 0.0
C382 C 0.75193 0.14848 0.21169 0.0
C383 C 0.76238 0.11124 0.2183 0.0
N384 N 0.69328 0.1144 0.21538 0.0
N385 N 0.7096 0.14939 0.21037 0.0
C386 C 0.71901 0.04631 0.22532 0.0
H387 H 0.6902 0.03238 0.22084 0.0
H388 H 0.74658 0.02651 0.22253 0.0
H389 H 0.71586 0.04635 0.23665 0.0
C390 C 0.6065 0.01191 0.18407 0.0
N391 N 0.60164 0.03483 0.19561 0.0
N392 N 0.63668 0.05528 0.19818 0.0
C393 C 0.66521 0.04537 0.18836 0.0
C394 C 0.6471 0.01739 0.1792 0.0
C395 C 0.57242 0.98647 0.17756 0.0
H396 H 0.56837 0.95687 0.18342 0.0
H397 H 0.5802 0.9782 0.1668 0.0
H398 H 0.54228 1.00417 0.17785 0.0
O399 O 0.53707 0.10462 0.20596 0.0
O400 O 0.59489 0.14163 0.21026 0.0
H401 H 0.72182 0.05828 0.17673 0.0
H402 H 0.72896 0.05213 0.19489 0.0
C403 C 0.70772 0.06499 0.18692 0.0
H404 H 0.70513 0.09949 0.18825 0.0
H405 H 0.69222 0.17269 0.20536 0.0
O406 O 0.50708 0.00914 0.20234 0.0
C407 C 0.55547 0.13986 0.20755 0.0
Co408 Co 0.72024 0.21677 0.59077 0.0
Co409 Co 0.67611 0.13057 0.58531 0.0
C410 C 0.72059 0.17358 0.56279 0.0
O411 O 0.7292 0.20335 0.57104 0.0
O412 O 0.70033 0.14133 0.56679 0.0
C413 C 0.78817 0.27378 0.58767 0.0
O414 O 0.79814 0.24903 0.57738 0.0
C415 C 0.66789 0.0403 0.57945 0.0
C416 C 0.6291 0.01946 0.59692 0.0
C417 C 0.65421 1.00447 0.58634 0.0
N418 N 0.65348 0.07454 0.58611 0.0
N419 N 0.629 0.0618 0.59624 0.0
C420 C 0.69566 0.04225 0.56703 0.0
H421 H 0.72667 0.0557 0.56978 0.0
H422 H 0.70006 0.01074 0.56234 0.0
H423 H 0.68112 0.06352 0.55935 0.0
C424 C 0.75914 0.16841 0.61344 0.0
N425 N 0.73399 0.17145 0.60235 0.0
N426 N 0.71969 0.13412 0.5991 0.0
C427 C 0.7382 0.10543 0.60739 0.0
C428 C 0.76309 0.12609 0.6171 0.0
C429 C 0.77608 0.20595 0.62084 0.0
H430 H 0.75529 0.2336 0.61919 0.0
H431 H 0.80781 0.21347 0.61677 0.0
H432 H 0.7784 0.19984 0.63201 0.0
O433 O 0.66153 0.23293 0.5931 0.0
O434 O 0.62829 0.17301 0.58878 0.0
H435 H 0.70839 0.04539 0.60915 0.0
H436 H 0.7653 0.04292 0.609 0.0
C437 C 0.73733 0.05913 0.60469 0.0
H438 H 0.73766 0.0537 0.59353 0.0
H439 H 0.61524 0.08193 0.60342 0.0
O440 O 0.75614 0.26552 0.59499 0.0
C441 C 0.62757 0.21237 0.59169 0.0
Co442 Co 0.55737 0.95895 0.33978 0.0
Co443 Co 0.64511 0.91732 0.33523 0.0
C444 C 0.60697 0.9673 0.31307 0.0
O445 O 0.57435 0.97436 0.32038 0.0
O446 O 0.63736 0.94529 0.31757 0.0
C447 C 0.50319 0.03137 0.34158 0.0
O448 O 0.5377 0.05242 0.33884 0.0
C449 C 0.73394 0.90495 0.329 0.0
C450 C 0.75435 0.86513 0.34629 0.0
C451 C 0.76942 0.88916 0.33551 0.0
N452 N 0.69982 0.89292 0.33606 0.0
N453 N 0.71203 0.86755 0.34603 0.0
C454 C 0.73261 0.9337 0.31683 0.0
H455 H 0.72078 0.96511 0.32 0.0
H456 H 0.7641 0.93694 0.31202 0.0
H457 H 0.71051 0.92085 0.30912 0.0
C458 C 0.60426 0.99566 0.36426 0.0
N459 N 0.60125 0.97228 0.35267 0.0
N460 N 0.6388 0.95753 0.3496 0.0
C461 C 0.66714 0.97333 0.35841 0.0
C462 C 0.64644 0.99687 0.36842 0.0
C463 C 0.56725 0.01465 0.37147 0.0
H464 H 0.53801 0.9977 0.36872 0.0
H465 H 0.56392 0.04803 0.3683 0.0
H466 H 0.57181 0.01363 0.38275 0.0
O467 O 0.54259 0.8979 0.34081 0.0
O468 O 0.60569 0.86984 0.33746 0.0
H469 H 0.72655 0.94166 0.36008 0.0
H470 H 0.73006 0.99833 0.36083 0.0
C471 C 0.71361 0.97151 0.35596 0.0
H472 H 0.71966 0.97303 0.34483 0.0
H473 H 0.6918 0.8549 0.35337 0.0
O474 O 0.50523 0.9917 0.3432 0.0
C475 C 0.56644 0.86576 0.33964 0.0
Co476 Co 0.80439 0.81616 0.08932 0.0
Co477 Co 0.84552 0.90243 0.08314 0.0
C478 C 0.79743 0.8576 0.06152 0.0
O479 O 0.79142 0.82739 0.06982 0.0
O480 O 0.81721 0.89039 0.06526 0.0
C481 C 0.73226 0.76524 0.0899 0.0
O482 O 0.71622 0.79756 0.08329 0.0
C483 C 0.84717 0.99187 0.07805 0.0
C484 C 0.91093 0.01043 0.08469 0.0
C485 C 0.87321 0.02628 0.07978 0.0
N486 N 0.86828 0.9573 0.08189 0.0
N487 N 0.90665 0.96835 0.08565 0.0
C488 C 0.80304 0.99121 0.07266 0.0
H489 H 0.78447 0.96667 0.07801 0.0
H490 H 0.78729 0.02224 0.07363 0.0
H491 H 0.80407 0.98274 0.06163 0.0
C492 C 0.76736 0.86461 0.11251 0.0
N493 N 0.79045 0.86218 0.10092 0.0
N494 N 0.80739 0.89911 0.09838 0.0
C495 C 0.7953 0.92627 0.10833 0.0
C496 C 0.76929 0.90541 0.11751 0.0
C497 C 0.74458 0.82827 0.11879 0.0
H498 H 0.76547 0.80023 0.11899 0.0
H499 H 0.71678 0.82072 0.1124 0.0
H500 H 0.73358 0.83548 0.12933 0.0
O501 O 0.86488 0.80135 0.09106 0.0
O502 O 0.89364 0.86304 0.08606 0.0
H503 H 0.84521 0.97151 0.10756 0.0
H504 H 0.80547 0.98261 0.12032 0.0
C505 C 0.81106 0.97032 0.10982 0.0
H506 H 0.79414 0.99084 0.10248 0.0
H507 H 0.92936 0.94739 0.08931 0.0
O508 O 0.77016 0.76687 0.09403 0.0
C509 C 0.89722 0.82426 0.08923 0.0
Co510 Co 0.95094 0.05981 0.84093 0.0
Co511 Co 0.86276 0.10091 0.8361 0.0
C512 C 0.90939 0.05461 0.81357 0.0
O513 O 0.94046 0.04728 0.8214 0.0
O514 O 0.87715 0.07449 0.81793 0.0
C515 C 0.0123 0.99514 0.83991 0.0
O516 O 0.98677 0.98039 0.8305 0.0
C517 C 0.77338 0.08918 0.8321 0.0
C518 C 0.74518 0.14779 0.84013 0.0
C519 C 0.73517 0.10786 0.83544 0.0
N520 N 0.8045 0.11608 0.83514 0.0
N521 N 0.78745 0.15152 0.83964 0.0
C522 C 0.78065 0.04589 0.82644 0.0
H523 H 0.80384 0.04726 0.81799 0.0
H524 H 0.79385 0.02523 0.83454 0.0
H525 H 0.75122 0.032 0.82238 0.0
C526 C 0.90134 0.01134 0.86184 0.0
N527 N 0.90537 0.04159 0.85216 0.0
N528 N 0.86946 0.06193 0.85097 0.0
C529 C 0.84228 0.04685 0.8604 0.0
C530 C 0.86085 0.01338 0.86731 0.0
C531 C 0.9347 0.97943 0.86498 0.0
H532 H 0.96309 0.99567 0.8689 0.0
H533 H 0.94361 0.96283 0.8554 0.0
H534 H 0.924 0.9559 0.87259 0.0
O535 O 0.96145 0.12193 0.84277 0.0
O536 O 0.89891 0.15144 0.83902 0.0
H537 H 0.80166 0.10097 0.86186 0.0
H538 H 0.79348 0.06182 0.87498 0.0
C539 C 0.80092 0.06675 0.86397 0.0
H540 H 0.77564 0.05198 0.85792 0.0
H541 H 0.80469 0.17726 0.84311 0.0
O542 O 1.00282 0.02912 0.84609 0.0
C543 C 0.93823 0.15464 0.84155 0.0
Co544 Co 0.80268 0.71243 0.59379 0.0
Co545 Co 0.84205 0.62505 0.58666 0.0
C546 C 0.79694 0.67143 0.56536 0.0
O547 O 0.79052 0.70114 0.57391 0.0
O548 O 0.81655 0.63813 0.56882 0.0
C549 C 0.73013 0.76629 0.59576 0.0
O550 O 0.70947 0.73199 0.59252 0.0
C551 C 0.85822 0.53595 0.57963 0.0
C552 C 0.90628 0.52016 0.59519 0.0
C553 C 0.88199 0.503 0.58486 0.0
N554 N 0.86785 0.57099 0.58664 0.0
N555 N 0.89743 0.56153 0.59566 0.0
C556 C 0.82326 0.533 0.56939 0.0
H557 H 0.80101 0.55971 0.57052 0.0
H558 H 0.80597 0.50294 0.57058 0.0
H559 H 0.83685 0.5338 0.5589 0.0
C560 C 0.76472 0.66003 0.61668 0.0
N561 N 0.78752 0.66525 0.60507 0.0
N562 N 0.80135 0.62826 0.60099 0.0
C563 C 0.78596 0.59825 0.60931 0.0
C564 C 0.76317 0.6171 0.61989 0.0
C565 C 0.74745 0.69575 0.62496 0.0
H566 H 0.76473 0.72518 0.62264 0.0
H567 H 0.71381 0.70048 0.62231 0.0
H568 H 0.74967 0.68874 0.63608 0.0
O569 O 0.86349 0.72595 0.59581 0.0
O570 O 0.88961 0.66362 0.59016 0.0
H571 H 0.82072 0.54033 0.60974 0.0
H572 H 0.76439 0.53391 0.61143 0.0
C573 C 0.78959 0.55214 0.6063 0.0
H574 H 0.78671 0.54692 0.59514 0.0
H575 H 0.90984 0.5829 0.60269 0.0
O576 O 0.76961 0.76411 0.59784 0.0
C577 C 0.89488 0.70172 0.59372 0.0
Co578 Co 0.56645 0.5543 0.8393 0.0
Co579 Co 0.6542 0.59794 0.83733 0.0
C580 C 0.61859 0.55011 0.81361 0.0
O581 O 0.58515 0.54254 0.82029 0.0
O582 O 0.64835 0.57084 0.81902 0.0
C583 C 0.50878 0.48778 0.8345 0.0
O584 O 0.53841 0.47601 0.82591 0.0
C585 C 0.74349 0.59265 0.83396 0.0
C586 C 0.76718 0.65518 0.84001 0.0
C587 C 0.78005 0.61599 0.83527 0.0
N588 N 0.71073 0.61686 0.83761 0.0
N589 N 0.72485 0.65437 0.84114 0.0
C590 C 0.73941 0.5469 0.83048 0.0
H591 H 0.70933 0.53414 0.83444 0.0
H592 H 0.76602 0.52855 0.83482 0.0
H593 H 0.73952 0.54312 0.81918 0.0
C594 C 0.6094 0.51155 0.86294 0.0
N595 N 0.60881 0.53881 0.85231 0.0
N596 N 0.64492 0.55889 0.85188 0.0
C597 C 0.66909 0.54605 0.86247 0.0
C598 C 0.64779 0.51509 0.86976 0.0
C599 C 0.57437 0.48172 0.86607 0.0
H600 H 0.56373 0.4665 0.85647 0.0
H601 H 0.58424 0.45695 0.87341 0.0
H602 H 0.54735 0.49958 0.87039 0.0
O603 O 0.55225 0.61593 0.84084 0.0
O604 O 0.61494 0.64636 0.83898 0.0
H605 H 0.71622 0.56245 0.8775 0.0
H606 H 0.73602 0.55054 0.86065 0.0
C607 C 0.71002 0.56596 0.86636 0.0
H608 H 0.70956 0.59991 0.86381 0.0
H609 H 0.70574 0.67916 0.84445 0.0
O610 O 0.51438 0.52023 0.84195 0.0
C611 C 0.57507 0.64895 0.84037 0.0
Co612 Co 0.70386 0.3153 0.0899 0.0
Co613 Co 0.66436 0.40461 0.09005 0.0
C614 C 0.70981 0.37062 0.0652 0.0
O615 O 0.71646 0.33574 0.07122 0.0
O616 O 0.6905 0.40053 0.07127 0.0
C617 C 0.76639 0.25175 0.08587 0.0
O618 O 0.78407 0.27995 0.0779 0.0
C619 C 0.67153 0.49485 0.08999 0.0
C620 C 0.61219 0.51668 0.09952 0.0
C621 C 0.65066 0.53045 0.09459 0.0
N622 N 0.64701 0.4614 0.09232 0.0
N623 N 0.61124 0.47456 0.09782 0.0
C624 C 0.71391 0.49203 0.08328 0.0
H625 H 0.73158 0.46454 0.08733 0.0
H626 H 0.73254 0.52112 0.0846 0.0
H627 H 0.70934 0.48684 0.07214 0.0
C628 C 0.7535 0.35157 0.11304 0.0
N629 N 0.72315 0.3538 0.10338 0.0
N630 N 0.70443 0.39074 0.10412 0.0
C631 C 0.72122 0.41239 0.1147 0.0
C632 C 0.75326 0.38865 0.12053 0.0
C633 C 0.78234 0.31478 0.115 0.0
H634 H 0.7635 0.28572 0.11623 0.0
H635 H 0.80231 0.31102 0.10574 0.0
H636 H 0.80282 0.31899 0.12411 0.0
O637 O 0.6423 0.30418 0.09169 0.0
O638 O 0.61368 0.36791 0.09132 0.0
H639 H 0.67346 0.4595 0.11777 0.0
H640 H 0.71581 0.46118 0.13004 0.0
C641 C 0.70781 0.45544 0.11914 0.0
H642 H 0.72475 0.47898 0.11288 0.0
H643 H 0.58693 0.45469 0.1009 0.0
O644 O 0.73248 0.26086 0.09213 0.0
C645 C 0.60995 0.32801 0.09195 0.0
Co646 Co 0.95324 0.4603 0.34244 0.0
Co647 Co 0.86884 0.41287 0.33609 0.0
C648 C 0.90935 0.46431 0.31464 0.0
O649 O 0.93886 0.47269 0.32299 0.0
O650 O 0.87846 0.44143 0.31821 0.0
C651 C 0.01102 0.52834 0.33973 0.0
O652 O 0.98673 0.53836 0.32935 0.0
C653 C 0.77886 0.40311 0.32967 0.0
C654 C 0.76036 0.35161 0.34356 0.0
C655 C 0.74417 0.3813 0.33458 0.0
N656 N 0.81376 0.38778 0.33573 0.0
N657 N 0.80253 0.35618 0.34374 0.0
C658 C 0.77871 0.43918 0.31976 0.0
H659 H 0.79139 0.42798 0.3098 0.0
H660 H 0.79973 0.4646 0.32339 0.0
H661 H 0.74651 0.45175 0.31807 0.0
C662 C 0.90234 0.49216 0.366 0.0
N663 N 0.90695 0.46962 0.35435 0.0
N664 N 0.87062 0.453 0.35096 0.0
C665 C 0.8411 0.46672 0.35989 0.0
C666 C 0.86014 0.49121 0.37001 0.0
C667 C 0.9384 0.51164 0.37349 0.0
H668 H 0.96786 0.49394 0.37138 0.0
H669 H 0.94256 0.54447 0.36987 0.0
H670 H 0.93255 0.51198 0.3847 0.0
O671 O 0.97182 0.40145 0.34339 0.0
O672 O 0.91312 0.36645 0.3387 0.0
H673 H 0.78549 0.42887 0.36051 0.0
H674 H 0.77579 0.48434 0.36354 0.0
C675 C 0.79487 0.46129 0.35767 0.0
H676 H 0.7878 0.46677 0.34678 0.0
H677 H 0.82331 0.33956 0.35002 0.0
O678 O 1.00171 0.49686 0.34719 0.0
C679 C 0.95256 0.36692 0.34147 0.0
Co680 Co 0.79402 0.31163 0.96024 0.0
Co681 Co 0.84611 0.39262 0.96573 0.0
C682 C 0.79113 0.35403 0.98756 0.0
O683 O 0.78068 0.32475 0.97941 0.0
O684 O 0.81574 0.38328 0.98369 0.0
C685 C 0.7198 0.26235 0.95987 0.0
O686 O 0.70452 0.29358 0.96719 0.0
C687 C 0.84841 0.48258 0.97004 0.0
C688 C 0.91288 0.50062 0.96403 0.0
C689 C 0.87436 0.51705 0.96811 0.0
N690 N 0.87016 0.44752 0.96695 0.0
N691 N 0.90893 0.45837 0.96356 0.0
C692 C 0.80364 0.48233 0.97491 0.0
H693 H 0.80201 0.46533 0.98482 0.0
H694 H 0.78377 0.46488 0.96752 0.0
H695 H 0.79091 0.51449 0.97647 0.0
C696 C 0.76066 0.36338 0.93727 0.0
N697 N 0.78501 0.35812 0.94847 0.0
N698 N 0.80856 0.39165 0.9502 0.0
C699 C 0.80081 0.41876 0.93979 0.0
C700 C 0.76968 0.40207 0.93143 0.0
C701 C 0.73153 0.33069 0.93173 0.0
H702 H 0.7484 0.30016 0.9309 0.0
H703 H 0.70488 0.32657 0.93895 0.0
H704 H 0.71898 0.33966 0.92152 0.0
O705 O 0.85327 0.29137 0.9593 0.0
O706 O 0.89152 0.34839 0.96345 0.0
H707 H 0.85736 0.45548 0.94018 0.0
H708 H 0.82107 0.47002 0.92674 0.0
C709 C 0.82368 0.45924 0.93752 0.0
H710 H 0.80959 0.48386 0.94412 0.0
H711 H 0.93218 0.43713 0.96045 0.0
O712 O 0.75724 0.26453 0.95532 0.0
C713 C 0.88892 0.30895 0.96094 0.0
Co714 Co 0.94631 0.54928 0.21217 0.0
Co715 Co 0.85702 0.59287 0.2129 0.0
C716 C 0.89214 0.54876 0.23756 0.0
O717 O 0.92624 0.54088 0.23123 0.0
O718 O 0.86202 0.56799 0.23164 0.0
C719 C 1.0051 0.48397 0.21865 0.0
O720 O 0.97526 0.47413 0.22739 0.0
C721 C 0.7662 0.58718 0.21378 0.0
C722 C 0.74448 0.6468 0.20451 0.0
C723 C 0.73044 0.6084 0.20941 0.0
N724 N 0.79989 0.6113 0.21124 0.0
N725 N 0.78673 0.64731 0.20594 0.0
C726 C 0.76888 0.54457 0.22032 0.0
H727 H 0.79079 0.52417 0.21443 0.0
H728 H 0.73773 0.52929 0.22125 0.0
H729 H 0.78208 0.54804 0.23075 0.0
C730 C 0.90312 0.49976 0.18993 0.0
N731 N 0.90454 0.53102 0.19935 0.0
N732 N 0.86874 0.55202 0.19902 0.0
C733 C 0.84458 0.53622 0.18892 0.0
C734 C 0.86467 0.50183 0.18311 0.0
C735 C 0.93681 0.46724 0.18817 0.0
H736 H 0.96689 0.48297 0.18556 0.0
H737 H 0.94151 0.45042 0.19803 0.0
H738 H 0.92869 0.44426 0.18004 0.0
O739 O 0.95913 0.61122 0.20971 0.0
O740 O 0.89577 0.64121 0.21096 0.0
H741 H 0.79908 0.54821 0.17301 0.0
H742 H 0.77764 0.541 0.1898 0.0
C743 C 0.80405 0.55509 0.18405 0.0
H744 H 0.80411 0.58963 0.18552 0.0
H745 H 0.80666 0.67143 0.20275 0.0
O746 O 0.99938 0.51474 0.21046 0.0
C747 C 0.93564 0.64407 0.2097 0.0
Co748 Co 0.7192 0.7092 0.46127 0.0
Co749 Co 0.67148 0.62422 0.46409 0.0
C750 C 0.71981 0.6578 0.48753 0.0
O751 O 0.7306 0.68983 0.48049 0.0
O752 O 0.69656 0.62923 0.48249 0.0
C753 C 0.79418 0.76088 0.46009 0.0
O754 O 0.81505 0.72648 0.46328 0.0
C755 C 0.65235 0.53506 0.46908 0.0
C756 C 0.61138 0.52077 0.45141 0.0
C757 C 0.63162 0.50251 0.46249 0.0
N758 N 0.64482 0.57088 0.46216 0.0
N759 N 0.61942 0.5623 0.45182 0.0
C760 C 0.68347 0.53143 0.48057 0.0
H761 H 0.71145 0.55106 0.4784 0.0
H762 H 0.69381 0.49848 0.48224 0.0
H763 H 0.66868 0.54342 0.49012 0.0
C764 C 0.75681 0.664 0.4372 0.0
N765 N 0.73114 0.66626 0.44821 0.0
N766 N 0.71467 0.6291 0.45047 0.0
C767 C 0.73203 0.60109 0.44173 0.0
C768 C 0.75883 0.62222 0.43265 0.0
C769 C 0.77602 0.70196 0.43066 0.0
H770 H 0.75728 0.73048 0.43314 0.0
H771 H 0.80839 0.7063 0.43464 0.0
H772 H 0.77746 0.69828 0.41935 0.0
O773 O 0.66025 0.72794 0.45986 0.0
O774 O 0.62577 0.66778 0.46181 0.0
H775 H 0.69899 0.54361 0.43792 0.0
H776 H 0.75549 0.53729 0.43956 0.0
C777 C 0.72746 0.55447 0.44343 0.0
H778 H 0.72405 0.5467 0.4544 0.0
H779 H 0.60974 0.58436 0.44454 0.0
O780 O 0.75455 0.75929 0.45838 0.0
C781 C 0.62585 0.70767 0.46033 0.0
Co782 Co 0.55352 0.45875 0.70971 0.0
Co783 Co 0.64289 0.42045 0.714 0.0
C784 C 0.6006 0.46086 0.73715 0.0
O785 O 0.56894 0.4665 0.72938 0.0
O786 O 0.63414 0.4438 0.73264 0.0
C787 C 0.49926 0.52757 0.71427 0.0
O788 O 0.53063 0.53909 0.72215 0.0
C789 C 0.7333 0.4088 0.719 0.0
C790 C 0.74965 0.361 0.70344 0.0
C791 C 0.76683 0.38669 0.71339 0.0
N792 N 0.6979 0.39689 0.7126 0.0
N793 N 0.70775 0.36754 0.70354 0.0
C794 C 0.7351 0.44193 0.72992 0.0
H795 H 0.7264 0.42743 0.73987 0.0
H796 H 0.71201 0.46735 0.72782 0.0
H797 H 0.76716 0.45531 0.73089 0.0
C798 C 0.5983 0.50355 0.68708 0.0
N799 N 0.59742 0.47679 0.69782 0.0
N800 N 0.63579 0.4635 0.70039 0.0
C801 C 0.66276 0.48324 0.69186 0.0
C802 C 0.64001 0.50896 0.68285 0.0
C803 C 0.55937 0.5211 0.68058 0.0
H804 H 0.53241 0.49969 0.68233 0.0
H805 H 0.5518 0.55197 0.68531 0.0
H806 H 0.56388 0.52546 0.66939 0.0
O807 O 0.53996 0.39878 0.70674 0.0
O808 O 0.60338 0.37217 0.7108 0.0
H809 H 0.72149 0.45165 0.6884 0.0
H810 H 0.72548 0.50857 0.68893 0.0
C811 C 0.70959 0.48076 0.69338 0.0
H812 H 0.7178 0.47966 0.70435 0.0
H813 H 0.68614 0.35355 0.69693 0.0
O814 O 0.5025 0.494 0.70722 0.0
C815 C 0.56451 0.36723 0.70796 0.0
Co816 Co 0.21905 0.29659 0.45869 0.0
Co817 Co 0.17439 0.38215 0.46398 0.0
C818 C 0.21897 0.33843 0.48662 0.0
O819 O 0.22908 0.309 0.47839 0.0
O820 O 0.19745 0.36988 0.48255 0.0
C821 C 0.29448 0.24819 0.45751 0.0
O822 O 0.31249 0.28342 0.46134 0.0
C823 C 0.16435 0.47143 0.47112 0.0
C824 C 0.11928 0.493 0.45536 0.0
C825 C 0.14485 0.50717 0.46587 0.0
N826 N 0.15118 0.43785 0.46393 0.0
N827 N 0.12348 0.45085 0.45474 0.0
C828 C 0.19975 0.46994 0.48127 0.0
H829 H 0.22124 0.4433 0.47901 0.0
H830 H 0.21825 0.49945 0.48113 0.0
H831 H 0.18653 0.46555 0.49171 0.0
C832 C 0.25933 0.34537 0.43623 0.0
N833 N 0.23343 0.34213 0.44714 0.0
N834 N 0.21822 0.37941 0.45023 0.0
C835 C 0.2364 0.40822 0.44193 0.0
C836 C 0.26277 0.38766 0.43253 0.0
C837 C 0.27696 0.30804 0.42878 0.0
H838 H 0.2568 0.28011 0.43047 0.0
H839 H 0.30895 0.30097 0.43271 0.0
H840 H 0.27909 0.31436 0.41761 0.0
O841 O 0.15985 0.28037 0.4563 0.0
O842 O 0.12675 0.34093 0.46008 0.0
H843 H 0.20212 0.46588 0.43945 0.0
H844 H 0.25881 0.4722 0.43945 0.0
C845 C 0.23213 0.45472 0.44401 0.0
H846 H 0.23193 0.46182 0.45507 0.0
H847 H 0.10943 0.43128 0.4475 0.0
O848 O 0.25517 0.24772 0.45508 0.0
C849 C 0.12588 0.30153 0.45734 0.0
Co850 Co 0.44034 0.4605 0.21062 0.0
Co851 Co 0.35695 0.40924 0.2142 0.0
C852 C 0.39064 0.4615 0.23704 0.0
O853 O 0.42163 0.47316 0.22969 0.0
O854 O 0.36286 0.43653 0.2324 0.0
C855 C 0.49138 0.53498 0.2109 0.0
O856 O 0.45877 0.55229 0.21702 0.0
C857 C 0.26617 0.3979 0.21855 0.0
C858 C 0.25126 0.35109 0.20258 0.0
C859 C 0.2328 0.37872 0.21182 0.0
N860 N 0.30247 0.3832 0.2132 0.0
N861 N 0.2933 0.35401 0.20404 0.0
C862 C 0.26368 0.43475 0.22812 0.0
H863 H 0.28821 0.45816 0.22552 0.0
H864 H 0.23236 0.45024 0.22784 0.0
H865 H 0.26972 0.42355 0.23871 0.0
C866 C 0.39438 0.49216 0.18595 0.0
N867 N 0.39688 0.46925 0.1976 0.0
N868 N 0.3606 0.45068 0.19983 0.0
C869 C 0.33309 0.46336 0.19013 0.0
C870 C 0.35371 0.48905 0.18073 0.0
C871 C 0.43112 0.51401 0.17957 0.0
H872 H 0.4607 0.49698 0.18201 0.0
H873 H 0.43329 0.54633 0.1838 0.0
H874 H 0.42756 0.51601 0.16827 0.0
O875 O 0.46045 0.40202 0.20982 0.0
O876 O 0.40221 0.36413 0.21193 0.0
H877 H 0.28019 0.4228 0.18732 0.0
H878 H 0.26861 0.47766 0.18424 0.0
C879 C 0.28671 0.45538 0.19071 0.0
H880 H 0.2754 0.45994 0.20128 0.0
H881 H 0.31561 0.33895 0.19788 0.0
O882 O 0.48922 0.49693 0.20695 0.0
C883 C 0.44218 0.36652 0.21044 0.0
Co884 Co 0.30518 0.69904 0.96083 0.0
Co885 Co 0.34802 0.61045 0.96441 0.0
C886 C 0.29892 0.6469 0.98709 0.0
O887 O 0.29134 0.67979 0.97998 0.0
O888 O 0.32081 0.6167 0.98231 0.0
C889 C 0.2322 0.75351 0.96067 0.0
O890 O 0.21209 0.71867 0.96369 0.0
C891 C 0.36117 0.51949 0.96877 0.0
C892 C 0.41101 0.50583 0.9536 0.0
C893 C 0.38451 0.48705 0.96303 0.0
N894 N 0.37322 0.55589 0.96297 0.0
N895 N 0.40384 0.54759 0.95417 0.0
C896 C 0.32569 0.51547 0.97881 0.0
H897 H 0.33794 0.52165 0.98926 0.0
H898 H 0.30081 0.53911 0.97664 0.0
H899 H 0.31208 0.48338 0.97864 0.0
C900 C 0.26865 0.65398 0.9361 0.0
N901 N 0.29195 0.65583 0.94771 0.0
N902 N 0.30764 0.61819 0.95019 0.0
C903 C 0.2931 0.59096 0.94078 0.0
C904 C 0.26895 0.61264 0.9312 0.0
C905 C 0.24854 0.69144 0.92951 0.0
H906 H 0.26525 0.72062 0.93249 0.0
H907 H 0.2154 0.69389 0.93303 0.0
H908 H 0.24865 0.68816 0.91818 0.0
O909 O 0.36618 0.71395 0.95971 0.0
O910 O 0.39515 0.65098 0.96257 0.0
H911 H 0.33052 0.5352 0.93831 0.0
H912 H 0.27481 0.52702 0.93568 0.0
C913 C 0.29852 0.5442 0.94182 0.0
H914 H 0.29443 0.53435 0.95257 0.0
H915 H 0.41813 0.57017 0.94797 0.0
O916 O 0.27156 0.7518 0.95824 0.0
C917 C 0.39868 0.69048 0.96071 0.0
Co918 Co 0.05348 0.55937 0.70896 0.0
Co919 Co 0.14355 0.59416 0.71376 0.0
C920 C 0.10083 0.54993 0.73621 0.0
O921 O 0.06911 0.54536 0.72833 0.0
O922 O 0.13411 0.56835 0.73208 0.0
C923 C 0.9918 0.49422 0.70954 0.0
O924 O 0.0208 0.47308 0.71625 0.0
C925 C 0.23651 0.60383 0.71637 0.0
C926 C 0.24741 0.64536 0.69855 0.0
C927 C 0.26795 0.62153 0.70835 0.0
N928 N 0.199 0.61599 0.71129 0.0
N929 N 0.20592 0.64199 0.70096 0.0
C930 C 0.24233 0.57141 0.72735 0.0
H931 H 0.21242 0.55504 0.72961 0.0
H932 H 0.26666 0.54809 0.72426 0.0
H933 H 0.25354 0.58715 0.73682 0.0
C934 C 0.09676 0.51649 0.68549 0.0
N935 N 0.09606 0.5421 0.69654 0.0
N936 N 0.13468 0.55289 0.69966 0.0
C937 C 0.16152 0.53196 0.69136 0.0
C938 C 0.13863 0.5089 0.68171 0.0
C939 C 0.05777 0.50145 0.67848 0.0
H940 H 0.03128 0.52347 0.68045 0.0
H941 H 0.04916 0.47008 0.6826 0.0
H942 H 0.06287 0.49883 0.66726 0.0
O943 O 0.04211 0.61989 0.70763 0.0
O944 O 0.10566 0.64509 0.71172 0.0
H945 H 0.2241 0.55613 0.68965 0.0
H946 H 0.22142 0.49923 0.68994 0.0
C947 C 0.20772 0.52866 0.69415 0.0
H948 H 0.21293 0.52829 0.70534 0.0
H949 H 0.18218 0.65476 0.69483 0.0
O950 O 1.00006 0.53087 0.70513 0.0
C951 C 0.06663 0.65093 0.70929 0.0
Co952 Co 0.20355 0.70527 0.09173 0.0
Co953 Co 0.16842 0.61647 0.08554 0.0
C954 C 0.21207 0.66306 0.06383 0.0
O955 O 0.21726 0.69344 0.07215 0.0
O956 O 0.19354 0.62954 0.06754 0.0
C957 C 0.27588 0.7549 0.09422 0.0
O958 O 0.29461 0.71932 0.09099 0.0
C959 C 0.16382 0.52731 0.07854 0.0
C960 C 0.12595 0.50273 0.09573 0.0
C961 C 0.15081 0.49029 0.08477 0.0
N962 N 0.14898 0.55992 0.08587 0.0
N963 N 0.12511 0.54508 0.09585 0.0
C964 C 0.19143 0.53183 0.06617 0.0
H965 H 0.17604 0.55344 0.05877 0.0
H966 H 0.22193 0.54601 0.06912 0.0
H967 H 0.19699 0.50112 0.06105 0.0
C968 C 0.24426 0.65899 0.11473 0.0
N969 N 0.2199 0.66082 0.10344 0.0
N970 N 0.20979 0.6226 0.09967 0.0
C971 C 0.23042 0.59488 0.10772 0.0
C972 C 0.25241 0.61683 0.11787 0.0
C973 C 0.25603 0.69705 0.1229 0.0
H974 H 0.23376 0.72324 0.12082 0.0
H975 H 0.28814 0.70729 0.11996 0.0
H976 H 0.25569 0.68989 0.13403 0.0
O977 O 0.14318 0.71708 0.09335 0.0
O978 O 0.11779 0.65368 0.08872 0.0
H979 H 0.20654 0.53207 0.10892 0.0
H980 H 0.26344 0.53514 0.10837 0.0
C981 C 0.23373 0.54899 0.10443 0.0
H982 H 0.23348 0.54467 0.0932 0.0
H983 H 0.11103 0.56375 0.10337 0.0
O984 O 0.23617 0.75574 0.09581 0.0
C985 C 0.11213 0.69247 0.09164 0.0
Co986 Co 0.06573 0.45897 0.83895 0.0
Co987 Co 0.1553 0.41975 0.83713 0.0
C988 C 0.12065 0.4628 0.81304 0.0
O989 O 0.08724 0.47052 0.81989 0.0
O990 O 0.15115 0.44246 0.81834 0.0
C991 C 0.01482 0.5329 0.84053 0.0
O992 O 0.05096 0.55276 0.8402 0.0
C993 C 0.24805 0.40908 0.83579 0.0
C994 C 0.25827 0.37239 0.85476 0.0
C995 C 0.27921 0.39368 0.84444 0.0
N996 N 0.21035 0.39799 0.84095 0.0
N997 N 0.21685 0.37494 0.85203 0.0
C998 C 0.25401 0.43879 0.82401 0.0
H999 H 0.22595 0.45902 0.8226 0.0
H1000 H 0.28197 0.45901 0.8256 0.0
H1001 H 0.25897 0.42023 0.81451 0.0
C1002 C 0.10463 0.50073 0.8636 0.0
N1003 N 0.1056 0.47529 0.85249 0.0
N1004 N 0.1446 0.46379 0.85011 0.0
C1005 C 0.17021 0.48473 0.85871 0.0
C1006 C 0.14591 0.50808 0.86799 0.0
C1007 C 0.06473 0.51435 0.8705 0.0
H1008 H 0.03824 0.49387 0.86736 0.0
H1009 H 0.05721 0.54724 0.86757 0.0
H1010 H 0.06832 0.51301 0.88181 0.0
O1011 O 0.05119 0.39891 0.84079 0.0
O1012 O 0.11504 0.3708 0.83943 0.0
H1013 H 0.23284 0.46112 0.86164 0.0
H1014 H 0.22946 0.51787 0.86043 0.0
C1015 C 0.21675 0.48777 0.85649 0.0
H1016 H 0.22363 0.48652 0.8454 0.0
H1017 H 0.19284 0.36374 0.85835 0.0
O1018 O 0.01401 0.49293 0.84046 0.0
C1019 C 0.07521 0.36676 0.84071 0.0
Co1020 Co 0.30137 0.31205 0.59129 0.0
Co1021 Co 0.34895 0.3968 0.58637 0.0
C1022 C 0.29501 0.35895 0.56448 0.0
O1023 O 0.28524 0.3279 0.57209 0.0
O1024 O 0.31957 0.38766 0.56871 0.0
C1025 C 0.2346 0.25187 0.59062 0.0
O1026 O 0.21716 0.27833 0.58195 0.0
C1027 C 0.35689 0.48595 0.57947 0.0
C1028 C 0.39754 0.50912 0.59609 0.0
C1029 C 0.37065 0.52259 0.58579 0.0
N1030 N 0.37251 0.4526 0.58629 0.0
N1031 N 0.39837 0.46668 0.59583 0.0
C1032 C 0.32648 0.48261 0.56783 0.0
H1033 H 0.33959 0.46095 0.55998 0.0
H1034 H 0.29636 0.46933 0.57158 0.0
H1035 H 0.32064 0.51363 0.56295 0.0
C1036 C 0.26782 0.36035 0.61548 0.0
N1037 N 0.29148 0.35657 0.60399 0.0
N1038 N 0.30872 0.39309 0.60115 0.0
C1039 C 0.29429 0.42181 0.61021 0.0
C1040 C 0.26893 0.40209 0.61993 0.0
C1041 C 0.2463 0.32419 0.6223 0.0
H1042 H 0.26397 0.29461 0.6204 0.0
H1043 H 0.21424 0.32081 0.61795 0.0
H1044 H 0.24361 0.32943 0.63352 0.0
O1045 O 0.36091 0.29478 0.59148 0.0
O1046 O 0.39623 0.3542 0.58857 0.0
H1047 H 0.32975 0.47849 0.6123 0.0
H1048 H 0.27354 0.48608 0.6136 0.0
C1049 C 0.29884 0.46822 0.60831 0.0
H1050 H 0.29649 0.4755 0.59731 0.0
H1051 H 0.41332 0.44751 0.60303 0.0
O1052 O 0.26936 0.26135 0.59621 0.0
C1053 C 0.39557 0.31433 0.59034 0.0
Co1054 Co 0.45446 0.55514 0.34175 0.0
Co1055 Co 0.36501 0.59226 0.33543 0.0
C1056 C 0.41037 0.54563 0.31399 0.0
O1057 O 0.44122 0.54046 0.32219 0.0
O1058 O 0.37719 0.56514 0.31769 0.0
C1059 C 0.51762 0.4897 0.341 0.0
O1060 O 0.4892 0.4695 0.33381 0.0
C1061 C 0.27433 0.60306 0.32936 0.0
C1062 C 0.25707 0.64986 0.34519 0.0
C1063 C 0.24039 0.62428 0.33511 0.0
N1064 N 0.30948 0.61526 0.33589 0.0
N1065 N 0.29902 0.64409 0.34507 0.0
C1066 C 0.2727 0.56792 0.31914 0.0
H1067 H 0.29956 0.54602 0.32058 0.0
H1068 H 0.24274 0.55028 0.32001 0.0
H1069 H 0.27465 0.58136 0.30866 0.0
C1070 C 0.40583 0.51788 0.36553 0.0
N1071 N 0.40905 0.54014 0.35374 0.0
N1072 N 0.37127 0.55294 0.3501 0.0
C1073 C 0.3427 0.53725 0.3589 0.0
C1074 C 0.3634 0.51557 0.36933 0.0
C1075 C 0.44294 0.50144 0.3733 0.0
H1076 H 0.47156 0.51967 0.37069 0.0
H1077 H 0.4484 0.46807 0.37044 0.0
H1078 H 0.43714 0.50311 0.38451 0.0
O1079 O 0.46573 0.61643 0.34282 0.0
O1080 O 0.40247 0.64181 0.33791 0.0
H1081 H 0.28341 0.56953 0.35985 0.0
H1082 H 0.27957 0.51315 0.3619 0.0
C1083 C 0.29619 0.53877 0.35642 0.0
H1084 H 0.2899 0.53489 0.34536 0.0
H1085 H 0.32028 0.65791 0.35184 0.0
O1086 O 0.50828 0.52546 0.34609 0.0
C1087 C 0.44108 0.64752 0.34082 0.0
H1088 H 0.27051 0.04849 0.13352 0.0
H1089 H 0.18062 0.1499 0.12964 0.0
H1090 H 0.14029 0.12097 0.14878 0.0
H1091 H 0.13049 0.06513 0.16672 0.0
H1092 H 0.20921 0.95424 0.16439 0.0
H1093 H 0.25227 0.98716 0.14696 0.0
C1094 C 0.2412 0.06371 0.13627 0.0
C1095 C 0.22914 0.10154 0.12985 0.0
C1096 C 0.21577 0.04472 0.14625 0.0
C1097 C 0.19196 0.12146 0.13446 0.0
C1098 C 0.16823 0.10443 0.14531 0.0
C1099 C 0.15643 0.04778 0.16221 0.0
C1100 C 0.16787 0.00797 0.16753 0.0
C1101 C 0.17974 0.06578 0.15129 0.0
C1102 C 0.20111 0.98587 0.1612 0.0
C1103 C 0.22568 1.00451 0.15109 0.0
H1104 H 0.21475 0.01413 0.38234 0.0
H1105 H 0.11378 0.92424 0.37906 0.0
H1106 H 0.14193 0.88568 0.3986 0.0
H1107 H 0.19576 0.87793 0.41692 0.0
H1108 H 0.30748 0.95449 0.41444 0.0
H1109 H 0.27561 0.99661 0.39649 0.0
C1110 C 0.19945 0.98527 0.3854 0.0
C1111 C 0.1615 0.97304 0.37915 0.0
C1112 C 0.218 0.96066 0.39574 0.0
C1113 C 0.14189 0.93606 0.3839 0.0
C1114 C 0.15848 0.91328 0.39498 0.0
C1115 C 0.21373 0.90303 0.41227 0.0
C1116 C 0.25332 0.91416 0.41768 0.0
C1117 C 0.1966 0.92535 0.40104 0.0
C1118 C 0.27591 0.94669 0.41122 0.0
C1119 C 0.25793 0.97061 0.40077 0.0
H1120 H 0.31253 0.95092 0.62246 0.0
H1121 H 0.22775 0.87505 0.64635 0.0
H1122 H 0.25682 0.90416 0.6676 0.0
H1123 H 0.30526 0.95303 0.67935 0.0
H1124 H 0.39164 0.02715 0.65548 0.0
H1125 H 0.36355 0.99697 0.63425 0.0
C1126 C 0.30083 0.94064 0.63236 0.0
C1127 C 0.26836 0.91084 0.63295 0.0
C1128 C 0.31801 0.95725 0.64449 0.0
C1129 C 0.25307 0.89771 0.64574 0.0
C1130 C 0.26957 0.91445 0.65786 0.0
C1131 C 0.31804 0.96215 0.66947 0.0
C1132 C 0.3505 0.99198 0.66889 0.0
C1133 C 0.30189 0.94441 0.65736 0.0
C1134 C 0.3669 1.00387 0.6561 0.0
C1135 C 0.35072 0.98679 0.644 0.0
H1136 H 0.29726 0.98386 0.88439 0.0
H1137 H 0.39401 0.0766 0.87777 0.0
H1138 H 0.36796 0.11677 0.89738 0.0
H1139 H 0.31626 0.12569 0.91643 0.0
H1140 H 0.20781 0.04423 0.91726 0.0
H1141 H 0.23859 1.0007 0.89944 0.0
C1142 C 0.31197 0.01364 0.88673 0.0
C1143 C 0.34785 0.02663 0.87943 0.0
C1144 C 0.29437 0.03883 0.89707 0.0
C1145 C 0.36724 0.06458 0.88335 0.0
C1146 C 0.35183 0.08817 0.89446 0.0
C1147 C 0.29883 0.09906 0.91253 0.0
C1148 C 0.26056 0.08722 0.91878 0.0
C1149 C 0.31518 0.07567 0.90139 0.0
C1150 C 0.23845 0.05279 0.91332 0.0
C1151 C 0.25579 0.02801 0.90297 0.0
H1152 H 0.88615 0.98487 0.89264 0.0
H1153 H 0.78606 0.97539 0.86301 0.0
H1154 H 0.74508 0.93252 0.87885 0.0
H1155 H 0.73527 0.90174 0.90177 0.0
H1156 H 0.83487 0.9096 0.93148 0.0
H1157 H 0.87894 0.9478 0.91497 0.0
C1158 C 0.85575 0.97266 0.88959 0.0
C1159 C 0.839 0.98366 0.87671 0.0
C1160 C 0.8323 0.94759 0.89878 0.0
C1161 C 0.79934 0.968 0.87295 0.0
C1162 C 0.77594 0.94328 0.88198 0.0
C1163 C 0.76697 0.91116 0.90448 0.0
C1164 C 0.782 0.90295 0.91774 0.0
C1165 C 0.79174 0.93347 0.895 0.0
C1166 C 0.82293 0.91539 0.92125 0.0
C1167 C 0.84792 0.9375 0.91185 0.0
H1168 H 0.87534 0.06776 0.66778 0.0
H1169 H 0.79323 0.96034 0.66435 0.0
H1170 H 0.75506 0.99435 0.64588 0.0
H1171 H 0.74229 0.05599 0.63169 0.0
H1172 H 0.83721 0.15251 0.62943 0.0
H1173 H 0.87225 0.12235 0.64944 0.0
C1174 C 0.84981 0.05126 0.66281 0.0
C1175 C 0.83585 0.01235 0.66805 0.0
C1176 C 0.82974 0.0696 0.65134 0.0
C1177 C 0.80309 0.99141 0.66119 0.0
C1178 C 0.78143 0.01062 0.65048 0.0
C1179 C 0.77158 0.0698 0.63506 0.0
C1180 C 0.78649 0.10693 0.62891 0.0
C1181 C 0.79402 0.05002 0.64563 0.0
C1182 C 0.82368 0.12489 0.63412 0.0
C1183 C 0.84434 0.10716 0.64546 0.0
H1184 H 0.62669 0.07079 0.3826 0.0
H1185 H 0.71027 0.96329 0.38335 0.0
H1186 H 0.75334 0.9969 0.40058 0.0
H1187 H 0.76988 0.05811 0.4144 0.0
H1188 H 0.67507 0.15415 0.42012 0.0
H1189 H 0.63481 0.12499 0.40106 0.0
C1190 C 0.65371 0.05423 0.38672 0.0
C1191 C 0.6665 0.01545 0.38093 0.0
C1192 C 0.67693 0.07232 0.39761 0.0
C1193 C 0.70116 0.99437 0.38679 0.0
C1194 C 0.72569 0.01334 0.39683 0.0
C1195 C 0.73963 0.07205 0.41203 0.0
C1196 C 0.72625 0.10874 0.41887 0.0
C1197 C 0.71434 0.05263 0.40212 0.0
C1198 C 0.68756 0.1269 0.41487 0.0
C1199 C 0.66388 0.10967 0.40408 0.0
H1200 H 0.70912 0.95928 0.17684 0.0
H1201 H 0.62667 0.0385 0.15309 0.0
H1202 H 0.65792 0.01167 0.13178 0.0
H1203 H 0.7088 0.96512 0.11991 0.0
H1204 H 0.78876 0.88329 0.14363 0.0
H1205 H 0.75872 0.91137 0.16495 0.0
C1206 C 0.69811 0.97044 0.16696 0.0
C1207 C 0.66572 1.00057 0.16641 0.0
C1208 C 0.7158 0.95435 0.15479 0.0
C1209 C 0.65148 0.01507 0.15365 0.0
C1210 C 0.66937 0.99981 0.1415 0.0
C1211 C 0.71943 0.95354 0.12978 0.0
C1212 C 0.75068 0.92221 0.13031 0.0
C1213 C 0.7015 0.96938 0.14194 0.0
C1214 C 0.76447 0.90726 0.14308 0.0
C1215 C 0.74737 0.92334 0.15523 0.0
H1216 H 0.69055 0.63504 0.63474 0.0
H1217 H 0.79775 0.55114 0.63371 0.0
H1218 H 0.76622 0.50766 0.65132 0.0
H1219 H 0.70722 0.49152 0.66632 0.0
H1220 H 0.61086 0.58545 0.67288 0.0
H1221 H 0.63805 0.62608 0.65355 0.0
C1222 C 0.70747 0.60779 0.63852 0.0
C1223 C 0.74561 0.59533 0.63225 0.0
C1224 C 0.69058 0.58423 0.64953 0.0
C1225 C 0.76714 0.56018 0.6376 0.0
C1226 C 0.74938 0.53543 0.64786 0.0
C1227 C 0.69282 0.5216 0.664 0.0
C1228 C 0.65679 0.53493 0.67122 0.0
C1229 C 0.71087 0.54682 0.65376 0.0
C1230 C 0.63783 0.57332 0.66736 0.0
C1231 C 0.65385 0.5971 0.65641 0.0
H1232 H 0.6902 0.43051 0.92706 0.0
H1233 H 0.81028 0.41375 0.90725 0.0
H1234 H 0.78257 0.44538 0.88617 0.0
H1235 H 0.72455 0.47918 0.87357 0.0
H1236 H 0.60547 0.49996 0.89372 0.0
H1237 H 0.63184 0.46475 0.91435 0.0
C1238 C 0.71006 0.43376 0.91808 0.0
C1239 C 0.75219 0.42018 0.91864 0.0
C1240 C 0.69398 0.45248 0.90607 0.0
C1241 C 0.77784 0.42436 0.90701 0.0
C1242 C 0.76198 0.44236 0.89498 0.0
C1243 C 0.70445 0.47614 0.8825 0.0
C1244 C 0.66305 0.49203 0.88209 0.0
C1245 C 0.72021 0.45683 0.89443 0.0
C1246 C 0.63721 0.4874 0.89369 0.0
C1247 C 0.65241 0.46759 0.90553 0.0
H1248 H 0.73805 0.39662 0.14766 0.0
H1249 H 0.83452 0.4129 0.11715 0.0
H1250 H 0.88062 0.44583 0.13423 0.0
H1251 H 0.89019 0.47664 0.15749 0.0
H1252 H 0.79272 0.45972 0.18772 0.0
H1253 H 0.75059 0.42015 0.17132 0.0
C1254 C 0.7695 0.40673 0.14488 0.0
C1255 C 0.78306 0.40256 0.13126 0.0
C1256 C 0.79553 0.42577 0.15472 0.0
C1257 C 0.82369 0.41578 0.12765 0.0
C1258 C 0.84989 0.43475 0.13739 0.0
C1259 C 0.86023 0.46328 0.16052 0.0
C1260 C 0.84444 0.47114 0.17375 0.0
C1261 C 0.83581 0.4408 0.15092 0.0
C1262 C 0.80536 0.45415 0.17756 0.0
C1263 C 0.78119 0.43165 0.16817 0.0
H1264 H 0.87816 0.56604 0.38336 0.0
H1265 H 0.79638 0.45798 0.38529 0.0
H1266 H 0.75419 0.49223 0.40283 0.0
H1267 H 0.73889 0.55389 0.41685 0.0
H1268 H 0.83488 0.6486 0.4215 0.0
H1269 H 0.8724 0.61963 0.40184 0.0
C1270 C 0.85189 0.54931 0.38781 0.0
C1271 C 0.83932 0.51021 0.38234 0.0
C1272 C 0.8298 0.56743 0.39893 0.0
C1273 C 0.80529 0.48925 0.38853 0.0
C1274 C 0.78136 0.50856 0.39875 0.0
C1275 C 0.76891 0.56748 0.41415 0.0
C1276 C 0.78331 0.60391 0.42086 0.0
C1277 C 0.79304 0.54789 0.4039 0.0
C1278 C 0.82151 0.62171 0.41637 0.0
C1279 C 0.84368 0.60456 0.40523 0.0
H1280 H 0.24306 0.45615 0.41678 0.0
H1281 H 0.33984 0.36197 0.42217 0.0
H1282 H 0.37857 0.39091 0.40275 0.0
H1283 H 0.3846 0.44366 0.38397 0.0
H1284 H 0.29816 0.54883 0.38389 0.0
H1285 H 0.25691 0.51613 0.40187 0.0
C1286 C 0.27336 0.44263 0.41417 0.0
C1287 C 0.28791 0.40648 0.42105 0.0
C1288 C 0.29751 0.46167 0.40384 0.0
C1289 C 0.32667 0.38884 0.41689 0.0
C1290 C 0.34938 0.40586 0.40587 0.0
C1291 C 0.35734 0.45994 0.38806 0.0
C1292 C 0.34343 0.49776 0.38196 0.0
C1293 C 0.33508 0.44238 0.39923 0.0
C1294 C 0.30829 0.51847 0.38769 0.0
C1295 C 0.28481 0.50004 0.39814 0.0
H1296 H 0.36766 0.56642 0.16862 0.0
H1297 H 0.30044 0.44986 0.16314 0.0
H1298 H 0.25978 0.48089 0.14462 0.0
H1299 H 0.23999 0.54239 0.13122 0.0
H1300 H 0.32199 0.65037 0.13108 0.0
H1301 H 0.35917 0.62231 0.15094 0.0
C1302 C 0.34494 0.54741 0.16317 0.0
C1303 C 0.33562 0.50648 0.16781 0.0
C1304 C 0.32363 0.56439 0.15175 0.0
C1305 C 0.30655 0.48225 0.16037 0.0
C1306 C 0.28347 0.49981 0.14967 0.0
C1307 C 0.26707 0.55932 0.13499 0.0
C1308 C 0.27741 0.59893 0.12952 0.0
C1309 C 0.29119 0.54113 0.14546 0.0
C1310 C 0.31171 0.62069 0.13526 0.0
C1311 C 0.33371 0.60423 0.14652 0.0
H1312 H 0.21659 0.49428 0.8831 0.0
H1313 H 0.11061 0.5792 0.8804 0.0
H1314 H 0.13745 0.61847 0.90004 0.0
H1315 H 0.19283 0.62877 0.91807 0.0
H1316 H 0.30808 0.55714 0.91441 0.0
H1317 H 0.27739 0.51465 0.89641 0.0
C1318 C 0.19995 0.52248 0.88618 0.0
C1319 C 0.16153 0.53338 0.87995 0.0
C1320 C 0.21775 0.54774 0.89638 0.0
C1321 C 0.13965 0.5688 0.88504 0.0
C1322 C 0.15546 0.59198 0.89618 0.0
C1323 C 0.21154 0.60455 0.91313 0.0
C1324 C 0.25193 0.59453 0.91822 0.0
C1325 C 0.19477 0.58184 0.90192 0.0
C1326 C 0.276 0.56382 0.91135 0.0
C1327 C 0.25863 0.5396 0.90095 0.0
H1328 H 0.19174 0.38719 0.63252 0.0
H1329 H 0.30456 0.46174 0.63601 0.0
H1330 H 0.27176 0.50459 0.65362 0.0
H1331 H 0.21028 0.52334 0.66714 0.0
H1332 H 0.10642 0.43658 0.66953 0.0
H1333 H 0.13541 0.39715 0.65017 0.0
C1334 C 0.20958 0.4121 0.63733 0.0
C1335 C 0.25002 0.42238 0.63236 0.0
C1336 C 0.19162 0.43506 0.64833 0.0
C1337 C 0.27257 0.45452 0.63898 0.0
C1338 C 0.25399 0.47892 0.64919 0.0
C1339 C 0.19447 0.4949 0.66394 0.0
C1340 C 0.15596 0.48344 0.67 0.0
C1341 C 0.21333 0.46989 0.65379 0.0
C1342 C 0.13539 0.44741 0.66495 0.0
C1343 C 0.15242 0.42421 0.65398 0.0
H1344 H 0.23256 0.10133 1.00497 0.0
H1345 H 0.24302 0.23548 0.99927 0.0
H1346 H 0.26771 0.24339 1.02283 0.0
H1347 H 0.28599 0.21219 0.04522 0.0
H1348 H 0.27914 0.07761 0.05037 0.0
H1349 H 0.2533 0.06992 0.02697 0.0
C1350 C 0.2401 0.13229 1.00889 0.0
C1351 C 0.23561 0.16774 1.00038 0.0
C1352 C 0.25494 0.13656 1.0224 0.0
C1353 C 0.24625 0.2076 1.00558 0.0
C1354 C 0.26025 0.2122 1.01908 0.0
C1355 C 0.27872 0.18123 0.04121 0.0
C1356 C 0.28445 0.14554 0.04955 0.0
C1357 C 0.26461 0.17692 0.02761 0.0
C1358 C 0.27535 0.10557 0.04416 0.0
C1359 C 0.26042 0.10113 0.03077 0.0
H1360 H 0.15784 0.03113 0.29437 0.0
H1361 H 0.02381 0.01812 0.30006 0.0
H1362 H 0.0161 0.99515 0.27634 0.0
H1363 H 0.04751 0.97695 0.25398 0.0
H1364 H 0.18192 0.98589 0.24874 0.0
H1365 H 0.18931 0.01231 0.2721 0.0
C1366 C 0.12695 0.02346 0.2904 0.0
C1367 C 0.09152 0.02644 0.29901 0.0
C1368 C 0.12275 0.00944 0.27677 0.0
C1369 C 0.05173 0.01593 0.2937 0.0
C1370 C 0.04721 1.00287 0.28011 0.0
C1371 C 0.07833 0.985 0.25794 0.0
C1372 C 0.11409 0.97937 0.24964 0.0
C1373 C 0.08249 0.9993 0.27154 0.0
C1374 C 0.15391 0.98951 0.25496 0.0
C1375 C 0.15818 1.00475 0.26832 0.0
H1376 H 0.22853 0.91144 0.54512 0.0
H1377 H 0.22962 0.77672 0.55075 0.0
H1378 H 0.25171 0.76682 0.52702 0.0
H1379 H 0.27243 0.79626 0.50468 0.0
H1380 H 0.27527 0.93086 0.49941 0.0
H1381 H 0.24996 0.94091 0.52282 0.0
C1382 C 0.23347 0.87994 0.54114 0.0
C1383 C 0.22737 0.84495 0.54974 0.0
C1384 C 0.24698 0.87438 0.5275 0.0
C1385 C 0.23427 0.80431 0.54441 0.0
C1386 C 0.24682 0.79854 0.53081 0.0
C1387 C 0.26718 0.82774 0.50865 0.0
C1388 C 0.27585 0.86275 0.50033 0.0
C1389 C 0.25345 0.83331 0.52226 0.0
C1390 C 0.26934 0.90339 0.50565 0.0
C1391 C 0.25471 0.90917 0.51904 0.0
H1392 H 0.45305 0.98756 0.79614 0.0
H1393 H 0.31845 0.97094 0.79803 0.0
H1394 H 0.31126 1.0005 0.77502 0.0
H1395 H 0.34345 0.03036 0.75414 0.0
H1396 H 0.47849 0.04298 0.75199 0.0
H1397 H 0.48515 0.01602 0.77529 0.0
C1398 C 0.42211 0.99045 0.79154 0.0
C1399 C 0.38638 0.97704 0.79883 0.0
C1400 C 0.41824 0.00692 0.77824 0.0
C1401 C 0.34655 0.98076 0.79264 0.0
C1402 C 0.34237 0.99782 0.77949 0.0
C1403 C 0.37426 0.02752 0.75883 0.0
C1404 C 0.41037 0.03891 0.75136 0.0
C1405 C 0.37801 0.01098 0.77217 0.0
C1406 C 0.45016 0.03443 0.7575 0.0
C1407 C 0.45404 0.01899 0.77084 0.0
H1408 H 0.73479 0.80573 1.00251 0.0
H1409 H 0.72928 0.94046 0.99746 0.0
H1410 H 0.75546 0.95009 1.02085 0.0
H1411 H 0.77988 0.91989 0.04289 0.0
H1412 H 0.78081 0.78495 0.04798 0.0
H1413 H 0.75657 0.77587 1.0245 0.0
C1414 C 0.73943 0.83724 1.00649 0.0
C1415 C 0.7303 0.8723 0.9982 0.0
C1416 C 0.75367 0.84253 1.02001 0.0
C1417 C 0.73599 0.9129 1.00362 0.0
C1418 C 0.75105 0.91843 1.01699 0.0
C1419 C 0.77484 0.88855 0.03883 0.0
C1420 C 0.78232 0.85319 0.0472 0.0
C1421 C 0.76 0.88345 0.02531 0.0
C1422 C 0.77519 0.81277 0.04182 0.0
C1423 C 0.76139 0.80747 0.02836 0.0
H1424 H 0.84395 0.03567 0.79647 0.0
H1425 H 0.97956 0.03944 0.79833 0.0
H1426 H 0.98407 0.01359 0.77481 0.0
H1427 H 0.94975 0.98867 0.75379 0.0
H1428 H 0.81437 0.9799 0.75238 0.0
H1429 H 0.80954 0.00874 0.77558 0.0
C1430 C 0.87445 0.03103 0.7917 0.0
C1431 C 0.91133 0.0397 0.79915 0.0
C1432 C 0.87689 0.01507 0.77824 0.0
C1433 C 0.95065 0.03297 0.79285 0.0
C1434 C 0.95329 0.0182 0.77939 0.0
C1435 C 0.91917 0.99323 0.75854 0.0
C1436 C 0.88249 0.98231 0.75132 0.0
C1437 C 0.91665 0.00897 0.772 0.0
C1438 C 0.84313 0.98793 0.7577 0.0
C1439 C 0.84033 1.00452 0.77097 0.0
H1440 H 0.73365 0.11095 0.54404 0.0
H1441 H 0.73708 0.24586 0.5489 0.0
H1442 H 0.75852 0.25397 0.52503 0.0
H1443 H 0.77733 0.22289 0.50275 0.0
H1444 H 0.77829 0.08795 0.49823 0.0
H1445 H 0.75421 0.07973 0.52185 0.0
C1446 C 0.73894 0.14209 0.53984 0.0
C1447 C 0.7336 0.1777 0.54824 0.0
C1448 C 0.7522 0.14657 0.52614 0.0
C1449 C 0.74109 0.21785 0.54269 0.0
C1450 C 0.75328 0.22258 0.52901 0.0
C1451 C 0.7721 0.19172 0.50693 0.0
C1452 C 0.77967 0.1561 0.49873 0.0
C1453 C 0.75906 0.18719 0.52064 0.0
C1454 C 0.77314 0.11588 0.50434 0.0
C1455 C 0.75919 0.11115 0.51786 0.0
H1456 H 0.54452 0.97833 0.29428 0.0
H1457 H 0.67764 0.99551 0.30047 0.0
H1458 H 0.68531 0.02165 0.27707 0.0
H1459 H 0.65449 0.038 0.25452 0.0
H1460 H 0.52217 0.01596 0.24784 0.0
H1461 H 0.51394 0.99342 0.27159 0.0
C1462 C 0.57507 0.98815 0.29051 0.0
C1463 C 0.61042 0.98506 0.29909 0.0
C1464 C 0.57949 1.00207 0.27688 0.0
C1465 C 0.64998 0.99733 0.29403 0.0
C1466 C 0.6544 0.01235 0.28064 0.0
C1467 C 0.62388 0.02835 0.25828 0.0
C1468 C 0.58907 0.02871 0.2494 0.0
C1469 C 0.61945 0.01453 0.27192 0.0
C1470 C 0.54962 0.01577 0.25442 0.0
C1471 C 0.54479 1.00298 0.26803 0.0
H1472 H 0.78049 0.60912 0.54709 0.0
H1473 H 0.77973 0.7442 0.55155 0.0
H1474 H 0.75724 0.75205 0.52772 0.0
H1475 H 0.73795 0.72046 0.50554 0.0
H1476 H 0.73421 0.58533 0.50165 0.0
H1477 H 0.75835 0.57756 0.52528 0.0
C1478 C 0.77544 0.64028 0.54284 0.0
C1479 C 0.78201 0.67602 0.55106 0.0
C1480 C 0.76175 0.64454 0.52922 0.0
C1481 C 0.7748 0.71616 0.54545 0.0
C1482 C 0.76207 0.72069 0.53181 0.0
C1483 C 0.74259 0.68935 0.50987 0.0
C1484 C 0.73454 0.65353 0.50184 0.0
C1485 C 0.75553 0.68511 0.52359 0.0
C1486 C 0.74007 0.61339 0.50764 0.0
C1487 C 0.75395 0.60892 0.52114 0.0
H1488 H 0.66479 0.48415 0.75412 0.0
H1489 H 0.52983 0.47017 0.75249 0.0
H1490 H 0.5237 0.49561 0.776 0.0
H1491 H 0.55618 0.52286 0.79689 0.0
H1492 H 0.69057 0.54132 0.79833 0.0
H1493 H 0.69737 0.51334 0.77506 0.0
C1494 C 0.63412 0.48642 0.75897 0.0
C1495 C 0.59785 0.47505 0.75159 0.0
C1496 C 0.63066 0.50212 0.77243 0.0
C1497 C 0.55824 0.47875 0.75793 0.0
C1498 C 0.55467 0.4933 0.77138 0.0
C1499 C 0.58701 0.52072 0.79214 0.0
C1500 C 0.62282 0.53404 0.79939 0.0
C1501 C 0.5906 0.50528 0.7787 0.0
C1502 C 0.66245 0.53139 0.79299 0.0
C1503 C 0.66639 0.51528 0.77969 0.0
H1504 H 0.77673 0.41867 1.00581 0.0
H1505 H 0.77152 0.28356 1.00163 0.0
H1506 H 0.74679 0.27701 0.02513 0.0
H1507 H 0.72639 0.30892 0.04687 0.0
H1508 H 0.72647 0.44392 0.05123 0.0
H1509 H 0.7531 0.45126 0.02774 0.0
C1510 C 0.77025 0.38788 1.01009 0.0
C1511 C 0.77612 0.35167 1.00195 0.0
C1512 C 0.75495 0.38426 1.02364 0.0
C1513 C 0.76712 0.31198 1.0076 0.0
C1514 C 0.75303 0.30813 1.02108 0.0
C1515 C 0.73226 0.34002 0.04271 0.0
C1516 C 0.72468 0.37579 0.05085 0.0
C1517 C 0.74678 0.34397 0.02918 0.0
C1518 C 0.73196 0.41583 0.0452 0.0
C1519 C 0.74732 0.42003 0.03177 0.0
H1520 H 0.8452 0.48213 0.29686 0.0
H1521 H 0.98052 0.48331 0.3006 0.0
H1522 H 0.98702 0.50916 0.27716 0.0
H1523 H 0.95466 0.53092 0.25554 0.0
H1524 H 0.8194 0.53459 0.25199 0.0
H1525 H 0.81247 0.50768 0.27538 0.0
C1526 C 0.87605 0.48799 0.29251 0.0
C1527 C 0.91231 0.48052 0.30044 0.0
C1528 C 0.8796 0.50385 0.27907 0.0
C1529 C 0.95209 0.48884 0.29474 0.0
C1530 C 0.95588 0.50358 0.28132 0.0
C1531 C 0.92363 0.52588 0.25987 0.0
C1532 C 0.88761 0.53449 0.25196 0.0
C1533 C 0.91989 0.51113 0.27339 0.0
C1534 C 0.84765 0.52828 0.25783 0.0
C1535 C 0.84367 0.51275 0.2712 0.0
H1536 H 0.2795 0.29479 0.54678 0.0
H1537 H 0.27245 0.42975 0.55056 0.0
H1538 H 0.24695 0.43546 0.52702 0.0
H1539 H 0.22814 0.40218 0.50509 0.0
H1540 H 0.23966 0.26749 0.50082 0.0
H1541 H 0.26179 0.26158 0.5247 0.0
C1542 C 0.2721 0.32538 0.54245 0.0
C1543 C 0.27797 0.36181 0.55039 0.0
C1544 C 0.25835 0.32849 0.52877 0.0
C1545 C 0.2687 0.40129 0.54462 0.0
C1546 C 0.25395 0.40457 0.53116 0.0
C1547 C 0.23532 0.37154 0.50941 0.0
C1548 C 0.23213 0.33536 0.50117 0.0
C1549 C 0.24895 0.36841 0.5231 0.0
C1550 C 0.24201 0.29591 0.5069 0.0
C1551 C 0.25458 0.29245 0.52058 0.0
H1552 H 0.45428 0.48292 0.25416 0.0
H1553 H 0.31904 0.47423 0.25196 0.0
H1554 H 0.31305 0.50016 0.27549 0.0
H1555 H 0.34636 0.52548 0.29671 0.0
H1556 H 0.48185 0.52939 0.2994 0.0
H1557 H 0.48766 0.50502 0.27571 0.0
C1558 C 0.42351 0.48684 0.25883 0.0
C1559 C 0.38714 0.47694 0.25131 0.0
C1560 C 0.42037 0.50079 0.27247 0.0
C1561 C 0.34749 0.48154 0.25755 0.0
C1562 C 0.34406 0.49644 0.271 0.0
C1563 C 0.37714 0.52101 0.2921 0.0
C1564 C 0.41361 0.52949 0.29978 0.0
C1565 C 0.38028 0.50617 0.27856 0.0
C1566 C 0.45329 0.52301 0.29372 0.0
C1567 C 0.45665 0.5092 0.28016 0.0
H1568 H 0.23061 0.60014 0.04591 0.0
H1569 H 0.22873 0.73538 0.04981 0.0
H1570 H 0.25387 0.74252 0.02624 0.0
H1571 H 0.27705 0.71027 1.00453 0.0
H1572 H 0.28266 0.57496 1.00122 0.0
H1573 H 0.25528 0.56797 1.02449 0.0
C1574 C 0.2355 0.63117 0.04158 0.0
C1575 C 0.22758 0.66714 0.04958 0.0
C1576 C 0.25068 0.63506 0.02811 0.0
C1577 C 0.23468 0.70714 0.04388 0.0
C1578 C 0.24897 0.71128 0.03039 0.0
C1579 C 0.27209 0.67929 1.0089 0.0
C1580 C 0.28179 0.64322 1.00115 0.0
C1581 C 0.25713 0.67545 1.02241 0.0
C1582 C 0.27564 0.60326 1.00699 0.0
C1583 C 0.25991 0.59919 1.02029 0.0
H1584 H 0.05713 0.48522 0.79582 0.0
H1585 H 0.19241 0.47517 0.79807 0.0
H1586 H 0.19853 0.50225 0.77469 0.0
H1587 H 0.16532 0.52903 0.75351 0.0
H1588 H 0.0298 0.53491 0.751 0.0
H1589 H 0.02401 0.50934 0.7745 0.0
C1590 C 0.08797 0.48899 0.79121 0.0
C1591 C 0.12423 0.47834 0.79873 0.0
C1592 C 0.09125 0.50389 0.77767 0.0
C1593 C 0.16393 0.483 0.79252 0.0
C1594 C 0.16748 0.49861 0.77915 0.0
C1595 C 0.13456 0.5248 0.75813 0.0
C1596 C 0.09808 0.53409 0.7505 0.0
C1597 C 0.13135 0.50922 0.77162 0.0
C1598 C 0.05842 0.52794 0.7566 0.0
C1599 C 0.05504 0.51337 0.77006 0.0
H1600 H 0.24433 0.83269 0.09108 0.0
H1601 H 0.36091 0.76552 0.09742 0.0
H1602 H 0.39986 0.832 0.09658 0.0
H1603 H 0.4001 0.90981 0.09388 0.0
H1604 H 0.28217 0.97402 0.08676 0.0
H1605 H 0.24456 0.90814 0.08793 0.0
C1606 C 0.27825 0.83253 0.09239 0.0
C1607 C 0.29973 0.79447 0.09443 0.0
C1608 C 0.30026 0.87034 0.09156 0.0
C1609 C 0.34373 0.79464 0.09588 0.0
C1610 C 0.36596 0.83255 0.09537 0.0
C1611 C 0.36627 0.90904 0.09244 0.0
C1612 C 0.34417 0.94658 0.08988 0.0
C1613 C 0.34452 0.87065 0.09314 0.0
C1614 C 0.30022 0.94553 0.08828 0.0
C1615 C 0.27849 0.90784 0.08911 0.0
H1616 H 0.42737 0.99501 0.33776 0.0
H1617 H 0.48603 0.11559 0.3441 0.0
H1618 H 0.41728 0.15047 0.34241 0.0
H1619 H 0.33993 0.14624 0.33925 0.0
H1620 H 0.28331 0.02477 0.33258 0.0
H1621 H 0.35169 0.99097 0.33404 0.0
C1622 C 0.42516 0.02892 0.33887 0.0
C1623 C 0.46169 0.05263 0.34118 0.0
C1624 C 0.38587 0.04872 0.33759 0.0
C1625 C 0.45831 0.0966 0.34237 0.0
C1626 C 0.41904 0.11656 0.34136 0.0
C1627 C 0.34282 0.11247 0.33792 0.0
C1628 C 0.30661 0.08836 0.33538 0.0
C1629 C 0.38256 0.09292 0.33893 0.0
C1630 C 0.31062 0.04448 0.33397 0.0
C1631 C 0.34978 0.0249 0.33502 0.0
H1632 H 0.16917 0.21612 0.57693 0.0
H1633 H 0.26268 0.19093 0.60802 0.0
H1634 H 0.24142 0.11743 0.60881 0.0
H1635 H 0.19902 0.05948 0.59985 0.0
H1636 H 0.10523 0.08357 0.56899 0.0
H1637 H 0.12364 0.15858 0.56893 0.0
C1638 C 0.18456 0.19468 0.58399 0.0
C1639 C 0.21772 0.20895 0.5923 0.0
C1640 C 0.17247 0.15226 0.58431 0.0
C1641 C 0.23724 0.18075 0.60144 0.0
C1642 C 0.22523 0.13866 0.60188 0.0
C1643 C 0.183 0.08124 0.59304 0.0
C1644 C 0.15179 0.0664 0.58416 0.0
C1645 C 0.19353 0.12394 0.59317 0.0
C1646 C 0.12989 0.09466 0.57572 0.0
C1647 C 0.14036 0.13735 0.57572 0.0
H1648 H 0.19112 0.92912 0.85776 0.0
H1649 H 0.1784 0.85957 0.82011 0.0
H1650 H 0.10651 0.8868 0.81723 0.0
H1651 H 0.04984 0.93433 0.82467 0.0
H1652 H 0.06489 0.0076 0.86161 0.0
H1653 H 0.1335 0.97491 0.8656 0.0
C1654 C 0.17212 0.91943 0.84908 0.0
C1655 C 0.18927 0.89224 0.83921 0.0
C1656 C 0.13167 0.93621 0.84733 0.0
C1657 C 0.16524 0.88031 0.82784 0.0
C1658 C 0.12442 0.896 0.82619 0.0
C1659 C 0.06793 0.94283 0.83367 0.0
C1660 C 0.05243 0.97344 0.84281 0.0
C1661 C 0.10765 0.92456 0.83575 0.0
C1662 C 0.07631 0.98432 0.85438 0.0
C1663 C 0.11548 0.96562 0.85668 0.0
H1664 H 0.26147 0.17109 0.45963 0.0
H1665 H 0.38017 0.23572 0.45656 0.0
H1666 H 0.41784 0.16826 0.45833 0.0
H1667 H 0.41615 0.09015 0.46092 0.0
H1668 H 0.29539 0.02935 0.46483 0.0
H1669 H 0.25967 0.09594 0.46269 0.0
C1670 C 0.29561 0.17055 0.45922 0.0
C1671 C 0.31801 0.20816 0.45784 0.0
C1672 C 0.31676 0.13225 0.46059 0.0
C1673 C 0.36225 0.20697 0.45757 0.0
C1674 C 0.38374 0.16849 0.45862 0.0
C1675 C 0.38209 0.0918 0.46146 0.0
C1676 C 0.35873 0.05478 0.4634 0.0
C1677 C 0.36125 0.13083 0.46022 0.0
C1678 C 0.31451 0.05715 0.4638 0.0
C1679 C 0.29379 0.09536 0.46242 0.0
H1680 H 0.07257 0.01683 0.73617 0.0
H1681 H 0.039 0.0399 0.69395 0.0
H1682 H 0.10324 0.0808 0.69075 0.0
H1683 H 0.17134 0.10599 0.69958 0.0
H1684 H 0.2052 0.08102 0.74159 0.0
H1685 H 0.13817 0.04524 0.74531 0.0
C1686 C 0.07915 0.03092 0.72628 0.0
C1687 C 0.05124 0.02496 0.71529 0.0
C1688 C 0.11618 0.0541 0.72449 0.0
C1689 C 0.06012 0.04376 0.70256 0.0
C1690 C 0.09682 0.0672 0.70072 0.0
C1691 C 0.16355 0.09332 0.70959 0.0
C1692 C 0.193 0.09566 0.72028 0.0
C1693 C 0.12535 0.07209 0.71156 0.0
C1694 C 0.18299 0.07901 0.7332 0.0
C1695 C 0.14479 0.05857 0.73532 0.0
H1696 H 0.26734 0.83096 0.96319 0.0
H1697 H 0.14733 0.76861 0.96041 0.0
H1698 H 0.11096 0.83622 0.96295 0.0
H1699 H 0.11337 0.91365 0.9659 0.0
H1700 H 0.23419 0.97451 0.96876 0.0
H1701 H 0.26973 0.90723 0.96653 0.0
C1702 C 0.23322 0.83213 0.96304 0.0
C1703 C 0.21015 0.79475 0.9615 0.0
C1704 C 0.2125 0.87095 0.96478 0.0
C1705 C 0.16591 0.7969 0.96154 0.0
C1706 C 0.14506 0.83556 0.96303 0.0
C1707 C 0.14745 0.91201 0.96623 0.0
C1708 C 0.1708 0.9492 0.96798 0.0
C1709 C 0.16803 0.87285 0.96472 0.0
C1710 C 0.21505 0.94657 0.96806 0.0
C1711 C 0.23562 0.90797 0.96654 0.0
H1712 H 0.35098 0.8489 0.21037 0.0
H1713 H 0.28856 0.96956 0.21311 0.0
H1714 H 0.35479 1.00542 0.21027 0.0
H1715 H 0.43007 1.00351 0.20695 0.0
H1716 H 0.49591 0.88471 0.20524 0.0
H1717 H 0.42887 0.84714 0.20756 0.0
C1718 C 0.3522 0.883 0.21051 0.0
C1719 C 0.31496 0.90637 0.21231 0.0
C1720 C 0.39089 0.90381 0.20887 0.0
C1721 C 0.31669 0.95058 0.21221 0.0
C1722 C 0.35462 0.97131 0.21041 0.0
C1723 C 0.42984 0.96937 0.20693 0.0
C1724 C 0.46767 0.94686 0.20577 0.0
C1725 C 0.39178 0.9483 0.20869 0.0
C1726 C 0.46696 0.90266 0.20605 0.0
C1727 C 0.42874 0.88123 0.20742 0.0
H1728 H 0.61259 0.097 0.96589 0.0
H1729 H 0.71366 0.04944 0.94072 0.0
H1730 H 0.743 0.11991 0.93863 0.0
H1731 H 0.7431 0.1935 0.94546 0.0
H1732 H 0.6435 0.24217 0.97117 0.0
H1733 H 0.60985 0.17309 0.97135 0.0
C1734 C 0.64083 0.10241 0.9599 0.0
C1735 C 0.66178 0.0683 0.95379 0.0
C1736 C 0.6577 0.14307 0.95884 0.0
C1737 C 0.69789 0.07529 0.94583 0.0
C1738 C 0.7145 0.11553 0.94458 0.0
C1739 C 0.7138 0.18921 0.951 0.0
C1740 C 0.69614 0.22274 0.95843 0.0
C1741 C 0.6952 0.14943 0.95129 0.0
C1742 C 0.6579 0.21674 0.96542 0.0
C1743 C 0.63872 0.17722 0.96558 0.0
H1744 H 0.66501 0.88286 0.72788 0.0
H1745 H 0.69591 0.91331 0.68602 0.0
H1746 H 0.62815 0.94889 0.68319 0.0
H1747 H 0.56192 0.97542 0.69317 0.0
H1748 H 0.52894 0.94105 0.73456 0.0
H1749 H 0.59536 0.90281 0.73706 0.0
C1750 C 0.65636 0.89669 0.7181 0.0
C1751 C 0.68502 0.89568 0.70719 0.0
C1752 C 0.61721 0.91671 0.71652 0.0
C1753 C 0.67394 0.91359 0.69453 0.0
C1754 C 0.63541 0.93417 0.69293 0.0
C1755 C 0.56934 0.95931 0.70268 0.0
C1756 C 0.54107 0.96129 0.71371 0.0
C1757 C 0.60713 0.93662 0.70394 0.0
C1758 C 0.55042 0.93985 0.72593 0.0
C1759 C 0.58838 0.91809 0.72739 0.0
H1760 H 0.90831 0.92394 0.45794 0.0
H1761 H 0.78573 0.9819 0.46143 0.0
H1762 H 0.75251 0.91338 0.4617 0.0
H1763 H 0.75753 0.83735 0.4609 0.0
H1764 H 0.87896 0.77673 0.45808 0.0
H1765 H 0.91336 0.8457 0.45754 0.0
C1766 C 0.87441 0.92129 0.45887 0.0
C1767 C 0.84964 0.95788 0.46 0.0
C1768 C 0.85526 0.88138 0.45905 0.0
C1769 C 0.80566 0.95428 0.46097 0.0
C1770 C 0.78652 0.91505 0.461 0.0
C1771 C 0.79155 0.83907 0.4601 0.0
C1772 C 0.81563 0.80201 0.45945 0.0
C1773 C 0.81095 0.87848 0.46004 0.0
C1774 C 0.8597 0.80489 0.45858 0.0
C1775 C 0.87936 0.84429 0.45828 0.0
H1776 H 0.924 0.00845 0.23447 0.0
H1777 H 0.95576 0.03419 0.19226 0.0
H1778 H 0.89217 0.07731 0.18991 0.0
H1779 H 0.82534 0.1046 0.19958 0.0
H1780 H 0.79358 0.07677 0.24157 0.0
H1781 H 0.85967 0.03802 0.24435 0.0
C1782 C 0.91716 0.02352 0.22474 0.0
C1783 C 0.94449 0.01777 0.21353 0.0
C1784 C 0.88059 0.04809 0.22346 0.0
C1785 C 0.93517 0.03787 0.20104 0.0
C1786 C 0.89884 0.0626 0.1997 0.0
C1787 C 0.83344 0.09068 0.20939 0.0
C1788 C 0.80487 0.09338 0.22038 0.0
C1789 C 0.8711 0.06763 0.2108 0.0
C1790 C 0.81519 0.07485 0.23299 0.0
C1791 C 0.85283 0.05261 0.23456 0.0
H1792 H 0.76682 0.84138 0.59079 0.0
H1793 H 0.64611 0.7842 0.59826 0.0
H1794 H 0.61139 0.8527 0.59544 0.0
H1795 H 0.61576 0.92936 0.59091 0.0
H1796 H 0.73725 0.98445 0.58291 0.0
H1797 H 0.77094 0.91638 0.58559 0.0
C1798 C 0.73293 0.84392 0.59193 0.0
C1799 C 0.70912 0.80788 0.5949 0.0
C1800 C 0.71319 0.883 0.58993 0.0
C1801 C 0.66516 0.81157 0.59606 0.0
C1802 C 0.6453 0.85068 0.5944 0.0
C1803 C 0.64951 0.9262 0.58955 0.0
C1804 C 0.67363 0.96191 0.58629 0.0
C1805 C 0.669 0.88664 0.59127 0.0
C1806 C 0.71749 0.9575 0.58485 0.0
C1807 C 0.73702 0.91853 0.58661 0.0
H1808 H 0.84567 0.85025 0.33772 0.0
H1809 H 0.78663 0.97248 0.33446 0.0
H1810 H 0.85392 0.00657 0.33678 0.0
H1811 H 0.92877 1.00269 0.34014 0.0
H1812 H 0.9915 0.88236 0.34287 0.0
H1813 H 0.92354 0.84643 0.34051 0.0
C1814 C 0.8479 0.88427 0.33732 0.0
C1815 C 0.81135 0.90865 0.3355 0.0
C1816 C 0.88715 0.90404 0.33878 0.0
C1817 C 0.81428 0.95277 0.33531 0.0
C1818 C 0.85279 0.97247 0.33684 0.0
C1819 C 0.92773 0.96856 0.34034 0.0
C1820 C 0.96487 0.94515 0.34183 0.0
C1821 C 0.88923 0.94848 0.33865 0.0
C1822 C 0.96307 0.90099 0.34181 0.0
C1823 C 0.92434 0.88052 0.34042 0.0
H1824 H 0.81165 0.06105 0.09473 0.0
H1825 H 0.90825 0.09073 0.06534 0.0
H1826 H 0.88498 0.16462 0.06506 0.0
H1827 H 0.83462 0.21943 0.07249 0.0
H1828 H 0.73809 0.18796 0.10198 0.0
H1829 H 0.76383 0.11581 0.1029 0.0
C1830 C 0.82731 0.08373 0.0882 0.0
C1831 C 0.86069 0.07077 0.07979 0.0
C1832 C 0.81377 0.1256 0.08812 0.0
C1833 C 0.88197 0.10033 0.07172 0.0
C1834 C 0.86867 0.14235 0.07157 0.0
C1835 C 0.8194 0.19685 0.07918 0.0
C1836 C 0.78426 0.20899 0.08706 0.0
C1837 C 0.83423 0.1552 0.07962 0.0
C1838 C 0.76501 0.17942 0.09573 0.0
C1839 C 0.77965 0.13811 0.09627 0.0
H1840 H 0.65843 0.1413 0.82952 0.0
H1841 H 0.71839 0.02905 0.84512 0.0
H1842 H 0.6507 0.99484 0.84731 0.0
H1843 H 0.57467 0.99563 0.84438 0.0
H1844 H 0.51293 0.10697 0.8288 0.0
H1845 H 0.5808 0.14274 0.8272 0.0
C1846 C 0.65651 0.10933 0.83336 0.0
C1847 C 0.69359 0.08739 0.83672 0.0
C1848 C 0.61711 0.08968 0.83468 0.0
C1849 C 0.69068 0.04626 0.84194 0.0
C1850 C 0.65181 0.02669 0.84335 0.0
C1851 C 0.5759 0.0278 0.84069 0.0
C1852 C 0.53878 0.04849 0.83668 0.0
C1853 C 0.6149 0.04793 0.83964 0.0
C1854 C 0.54107 0.09024 0.83195 0.0
C1855 C 0.57988 0.1107 0.83099 0.0
H1856 H 0.8273 0.32037 0.56837 0.0
H1857 H 0.79871 0.31611 0.6116 0.0
H1858 H 0.83034 0.38548 0.61472 0.0
H1859 H 0.86028 0.44951 0.6048 0.0
H1860 H 0.88228 0.45708 0.56128 0.0
H1861 H 0.85931 0.3839 0.55853 0.0
C1862 C 0.82866 0.33442 0.5785 0.0
C1863 C 0.81088 0.31341 0.58976 0.0
C1864 C 0.84544 0.37483 0.5801 0.0
C1865 C 0.81214 0.33199 0.6028 0.0
C1866 C 0.83016 0.37154 0.60458 0.0
C1867 C 0.86079 0.43471 0.59477 0.0
C1868 C 0.87314 0.458 0.58325 0.0
C1869 C 0.84609 0.39354 0.59326 0.0
C1870 C 0.87294 0.43927 0.57024 0.0
C1871 C 0.85974 0.39766 0.56869 0.0
H1872 H 0.84923 0.63828 0.84985 0.0
H1873 H 0.80987 0.56296 0.8154 0.0
H1874 H 0.87909 0.53023 0.81421 0.0
H1875 H 0.94937 0.5195 0.8239 0.0
H1876 H 0.99231 0.59909 0.85672 0.0
H1877 H 0.92332 0.63426 0.85755 0.0
C1878 C 0.85604 0.61508 0.84199 0.0
C1879 C 0.82384 0.60142 0.83319 0.0
C1880 C 0.89644 0.59713 0.84111 0.0
C1881 C 0.83333 0.57219 0.82282 0.0
C1882 C 0.87309 0.55379 0.82201 0.0
C1883 C 0.94352 0.54473 0.83117 0.0
C1884 C 0.97511 0.55647 0.84038 0.0
C1885 C 0.90447 0.5652 0.83134 0.0
C1886 C 0.96799 0.58965 0.84959 0.0
C1887 C 0.92867 0.60959 0.85006 0.0
H1888 H 0.75661 0.69422 0.10298 0.0
H1889 H 0.65355 0.74808 0.08004 0.0
H1890 H 0.61732 0.68037 0.08029 0.0
H1891 H 0.61786 0.6041 0.08547 0.0
H1892 H 0.72202 0.55134 0.10799 0.0
H1893 H 0.7549 0.6203 0.1095 0.0
C1894 C 0.72606 0.69133 0.09813 0.0
C1895 C 0.70806 0.72597 0.09137 0.0
C1896 C 0.7058 0.65233 0.09812 0.0
C1897 C 0.66824 0.72177 0.08525 0.0
C1898 C 0.64754 0.68304 0.08535 0.0
C1899 C 0.64758 0.60804 0.09077 0.0
C1900 C 0.66821 0.57284 0.09629 0.0
C1901 C 0.66647 0.64786 0.0915 0.0
C1902 C 0.7063 0.57798 0.10334 0.0
C1903 C 0.72499 0.61739 0.10426 0.0
H1904 H 0.71327 0.45545 0.34351 0.0
H1905 H 0.67564 0.33715 0.32599 0.0
H1906 H 0.60153 0.35961 0.32674 0.0
H1907 H 0.54785 0.4136 0.33226 0.0
H1908 H 0.58663 0.53043 0.35091 0.0
H1909 H 0.65992 0.50764 0.35001 0.0
C1910 C 0.68885 0.4348 0.33974 0.0
C1911 C 0.69973 0.39517 0.33439 0.0
C1912 C 0.64658 0.44753 0.34054 0.0
C1913 C 0.66783 0.3681 0.32992 0.0
C1914 C 0.62558 0.38089 0.33041 0.0
C1915 C 0.57229 0.43397 0.33621 0.0
C1916 C 0.5616 0.4738 0.3416 0.0
C1917 C 0.61458 0.4206 0.33571 0.0
C1918 C 0.59377 0.49964 0.34673 0.0
C1919 C 0.6358 0.48673 0.34616 0.0
H1920 H 0.80856 0.55213 0.95483 0.0
H1921 H 0.9142 0.58254 0.98056 0.0
H1922 H 0.89252 0.65682 0.98076 0.0
H1923 H 0.84149 0.71223 0.97431 0.0
H1924 H 0.7363 0.68046 0.94832 0.0
H1925 H 0.75981 0.60746 0.94755 0.0
C1926 C 0.8266 0.57498 0.96058 0.0
C1927 C 0.8622 0.56194 0.96798 0.0
C1928 C 0.81402 0.61729 0.96058 0.0
C1929 C 0.88628 0.59198 0.97496 0.0
C1930 C 0.87388 0.63432 0.97507 0.0
C1931 C 0.82383 0.6894 0.96842 0.0
C1932 C 0.78698 0.70186 0.96147 0.0
C1933 C 0.83749 0.64725 0.96803 0.0
C1934 C 0.76466 0.67184 0.95382 0.0
C1935 C 0.77802 0.63 0.95338 0.0
H1936 H 0.65604 0.6447 0.21671 0.0
H1937 H 0.70918 0.53404 0.19773 0.0
H1938 H 0.6396 0.50323 0.19559 0.0
H1939 H 0.56444 0.50564 0.20024 0.0
H1940 H 0.50969 0.61482 0.21975 0.0
H1941 H 0.5788 0.6485 0.22039 0.0
C1942 C 0.65213 0.61393 0.21208 0.0
C1943 C 0.68769 0.59116 0.20772 0.0
C1944 C 0.61178 0.59615 0.21097 0.0
C1945 C 0.68241 0.55165 0.20152 0.0
C1946 C 0.64258 0.53408 0.20022 0.0
C1947 C 0.56742 0.53696 0.20454 0.0
C1948 C 0.53198 0.55751 0.21003 0.0
C1949 C 0.60717 0.55572 0.20511 0.0
C1950 C 0.53651 0.5982 0.21549 0.0
C1951 C 0.57605 0.61744 0.21591 0.0
H1952 H 0.68348 0.31949 0.48008 0.0
H1953 H 0.72954 0.31839 0.43842 0.0
H1954 H 0.69807 0.3875 0.43441 0.0
H1955 H 0.66295 0.45066 0.44332 0.0
H1956 H 0.62107 0.45428 0.48532 0.0
H1957 H 0.64497 0.38145 0.48865 0.0
C1958 C 0.68614 0.33416 0.47008 0.0
C1959 C 0.70901 0.31404 0.45959 0.0
C1960 C 0.66883 0.37432 0.46794 0.0
C1961 C 0.71241 0.33347 0.44669 0.0
C1962 C 0.6944 0.37293 0.44439 0.0
C1963 C 0.65833 0.43506 0.4531 0.0
C1964 C 0.64032 0.45729 0.46408 0.0
C1965 C 0.6733 0.39396 0.45501 0.0
C1966 C 0.63492 0.43738 0.47678 0.0
C1967 C 0.6487 0.39597 0.47867 0.0
H1968 H 0.79825 0.45806 0.70347 0.0
H1969 H 0.83383 0.34273 0.72356 0.0
H1970 H 0.90789 0.3651 0.72373 0.0
H1971 H 0.96168 0.41877 0.71855 0.0
H1972 H 0.92452 0.53318 0.6978 0.0
H1973 H 0.85179 0.5097 0.69737 0.0
C1974 C 0.82235 0.43803 0.70793 0.0
C1975 C 0.81113 0.39935 0.71372 0.0
C1976 C 0.86437 0.45084 0.70779 0.0
C1977 C 0.8422 0.37293 0.71922 0.0
C1978 C 0.88433 0.38568 0.71927 0.0
C1979 C 0.93771 0.43841 0.71385 0.0
C1980 C 0.94855 0.4778 0.7083 0.0
C1981 C 0.89573 0.42473 0.71364 0.0
C1982 C 0.91712 0.50279 0.7022 0.0
C1983 C 0.87544 0.48948 0.70196 0.0
H1984 H 0.22038 0.67947 0.48521 0.0
H1985 H 0.22606 0.6993 0.44146 0.0
H1986 H 0.18933 0.63287 0.43766 0.0
H1987 H 0.16105 0.56645 0.44674 0.0
H1988 H 0.15623 0.5465 0.49044 0.0
H1989 H 0.18691 0.616 0.49432 0.0
C1990 C 0.21338 0.66945 0.47484 0.0
C1991 C 0.22643 0.69407 0.46363 0.0
C1992 C 0.19251 0.63119 0.47273 0.0
C1993 C 0.21661 0.68083 0.45026 0.0
C1994 C 0.19563 0.64283 0.44808 0.0
C1995 C 0.166 0.57773 0.45711 0.0
C1996 C 0.15705 0.55135 0.4683 0.0
C1997 C 0.18415 0.61741 0.45923 0.0
C1998 C 0.16359 0.56614 0.48168 0.0
C1999 C 0.18112 0.60578 0.48389 0.0
H2000 H 0.06215 0.4718 0.19803 0.0
H2001 H 0.03904 0.44466 0.24071 0.0
H2002 H 0.10675 0.40857 0.2424 0.0
H2003 H 0.17403 0.38644 0.23193 0.0
H2004 H 0.19564 0.40991 0.18901 0.0
H2005 H 0.12729 0.44518 0.18716 0.0
C2006 C 0.07202 0.45793 0.20767 0.0
C2007 C 0.04579 0.46118 0.21924 0.0
C2008 C 0.11074 0.43635 0.20852 0.0
C2009 C 0.05865 0.44255 0.23164 0.0
C2010 C 0.09742 0.42194 0.23263 0.0
C2011 C 0.16336 0.3989 0.22218 0.0
C2012 C 0.18957 0.39567 0.21064 0.0
C2013 C 0.12385 0.4188 0.22117 0.0
C2014 C 0.17568 0.41181 0.19801 0.0
C2015 C 0.13677 0.43222 0.19697 0.0
H2016 H 0.34676 0.29442 0.97091 0.0
H2017 H 0.25422 0.32344 0.93988 0.0
H2018 H 0.27996 0.39554 0.93861 0.0
H2019 H 0.3259 0.4515 0.94726 0.0
H2020 H 0.41727 0.42376 0.97856 0.0
H2021 H 0.39495 0.34978 0.97884 0.0
C2022 C 0.33255 0.31634 0.96375 0.0
C2023 C 0.29847 0.30357 0.95555 0.0
C2024 C 0.34708 0.35799 0.96322 0.0
C2025 C 0.28037 0.33246 0.94635 0.0
C2026 C 0.29498 0.37374 0.94563 0.0
C2027 C 0.34096 0.42899 0.95405 0.0
C2028 C 0.37292 0.44243 0.9629 0.0
C2029 C 0.32778 0.38699 0.95418 0.0
C2030 C 0.39252 0.41361 0.9717 0.0
C2031 C 0.37975 0.37153 0.97184 0.0
H2032 H 0.43992 0.53287 0.69443 0.0
H2033 H 0.46881 0.57411 0.73546 0.0
H2034 H 0.39978 0.60783 0.73731 0.0
H2035 H 0.32952 0.62264 0.72758 0.0
H2036 H 0.30264 0.58496 0.68608 0.0
H2037 H 0.37241 0.55292 0.68403 0.0
C2038 C 0.43109 0.54947 0.70372 0.0
C2039 C 0.45909 0.55078 0.71482 0.0
C2040 C 0.39169 0.56933 0.70463 0.0
C2041 C 0.44769 0.57281 0.72676 0.0
C2042 C 0.40819 0.59193 0.72786 0.0
C2043 C 0.33934 0.60774 0.71809 0.0
C2044 C 0.31139 0.60596 0.70701 0.0
C2045 C 0.37973 0.58998 0.71691 0.0
C2046 C 0.32405 0.58683 0.69469 0.0
C2047 C 0.36376 0.56836 0.69354 0.0
H2048 H 0.26701 0.33046 0.08626 0.0
H2049 H 0.14739 0.26826 0.0908 0.0
H2050 H 0.11087 0.33616 0.08901 0.0
H2051 H 0.11362 0.41378 0.08665 0.0
H2052 H 0.23435 0.47387 0.08199 0.0
H2053 H 0.26967 0.40618 0.08309 0.0
C2054 C 0.23294 0.3317 0.08693 0.0
C2055 C 0.20992 0.29458 0.0888 0.0
C2056 C 0.21233 0.37043 0.08566 0.0
C2057 C 0.16577 0.29657 0.08941 0.0
C2058 C 0.14491 0.33531 0.08837 0.0
C2059 C 0.14757 0.41175 0.08566 0.0
C2060 C 0.17116 0.44862 0.08381 0.0
C2061 C 0.16793 0.3725 0.0865 0.0
C2062 C 0.21523 0.44591 0.08284 0.0
C2063 C 0.2356 0.4072 0.08369 0.0
H2064 H 0.45221 0.48319 0.85539 0.0
H2065 H 0.47513 0.44114 0.81398 0.0
H2066 H 0.40673 0.40652 0.81351 0.0
H2067 H 0.33868 0.391 0.82451 0.0
H2068 H 0.31694 0.43033 0.8662 0.0
H2069 H 0.38657 0.46272 0.86702 0.0
C2070 C 0.4422 0.46631 0.8463 0.0
C2071 C 0.46842 0.46502 0.83471 0.0
C2072 C 0.40308 0.44588 0.84617 0.0
C2073 C 0.45545 0.44255 0.82305 0.0
C2074 C 0.41631 0.42282 0.82275 0.0
C2075 C 0.34957 0.4063 0.83378 0.0
C2076 C 0.32301 0.40851 0.84524 0.0
C2077 C 0.38968 0.42464 0.83419 0.0
C2078 C 0.3372 0.42809 0.85728 0.0
C2079 C 0.37682 0.44685 0.85773 0.0
H2080 H 0.40507 0.60073 0.5882 0.0
H2081 H 0.28595 0.53674 0.58478 0.0
H2082 H 0.24852 0.60261 0.5871 0.0
H2083 H 0.24857 0.6784 0.59034 0.0
H2084 H 0.36619 0.74502 0.59306 0.0
H2085 H 0.40503 0.67849 0.59096 0.0
C2086 C 0.37096 0.60147 0.5878 0.0
C2087 C 0.34862 0.5638 0.58592 0.0
C2088 C 0.3492 0.63995 0.58921 0.0
C2089 C 0.30433 0.56509 0.5857 0.0
C2090 C 0.28264 0.60287 0.58722 0.0
C2091 C 0.28271 0.67838 0.5906 0.0
C2092 C 0.30447 0.71643 0.59198 0.0
C2093 C 0.30468 0.6404 0.58903 0.0
C2094 C 0.34873 0.71599 0.59205 0.0
C2095 C 0.37093 0.678 0.59081 0.0
H2096 H 0.05689 0.56721 0.32018 0.0
H2097 H 0.05643 0.53651 0.36327 0.0
H2098 H 0.12646 0.56738 0.3658 0.0
H2099 H 0.18944 0.59882 0.35542 0.0
H2100 H 0.19254 0.62339 0.31199 0.0
H2101 H 0.11955 0.5993 0.30985 0.0
C2102 C 0.07191 0.56782 0.33016 0.0
C2103 C 0.05161 0.54986 0.34155 0.0
C2104 C 0.11259 0.58428 0.33142 0.0
C2105 C 0.0716 0.55015 0.35437 0.0
C2106 C 0.11156 0.56775 0.35581 0.0
C2107 C 0.17375 0.59944 0.34554 0.0
C2108 C 0.19573 0.61306 0.33387 0.0
C2109 C 0.13256 0.58429 0.34437 0.0
C2110 C 0.17581 0.61307 0.32107 0.0
C2111 C 0.13428 0.59928 0.31986 0.0
H2112 H 0.5896 0.24449 0.09218 0.0
H2113 H 0.53377 0.36858 0.09319 0.0
H2114 H 0.46362 0.33762 0.09351 0.0
H2115 H 0.41786 0.27548 0.0929 0.0
H2116 H 0.47365 0.15141 0.09163 0.0
H2117 H 0.54383 0.18231 0.09206 0.0
C2118 C 0.56215 0.26485 0.09253 0.0
C2119 C 0.56723 0.30892 0.09263 0.0
C2120 C 0.52173 0.24684 0.09264 0.0
C2121 C 0.53106 0.33462 0.09308 0.0
C2122 C 0.49081 0.31692 0.09325 0.0
C2123 C 0.4453 0.2551 0.09278 0.0
C2124 C 0.44021 0.21106 0.09221 0.0
C2125 C 0.48573 0.27309 0.09295 0.0
C2126 C 0.47638 0.18534 0.09205 0.0
C2127 C 0.51664 0.20301 0.09229 0.0
H2128 H 0.92412 0.28546 0.34249 0.0
H2129 H 0.03816 0.35871 0.34151 0.0
H2130 H 0.08038 0.2946 0.34168 0.0
H2131 H 0.08553 0.21696 0.34169 0.0
H2132 H 0.97111 0.14422 0.34337 0.0
H2133 H 0.92926 0.20827 0.34339 0.0
C2134 C 0.95818 0.28743 0.34233 0.0
C2135 C 0.97764 0.3271 0.34195 0.0
C2136 C 0.98262 0.25024 0.34256 0.0
C2137 C 0.02201 0.32878 0.34184 0.0
C2138 C 0.04638 0.29201 0.34191 0.0
C2139 C 0.05148 0.21512 0.34212 0.0
C2140 C 0.03187 0.17548 0.3425 0.0
C2141 C 0.02711 0.25244 0.34222 0.0
C2142 C 0.9875 0.17402 0.3431 0.0
C2143 C 0.96326 0.21079 0.34307 0.0
H2144 H 0.08987 0.7396 0.59472 0.0
H2145 H 0.04338 0.86743 0.59396 0.0
H2146 H 0.97115 0.84207 0.59499 0.0
H2147 H 0.92075 0.78353 0.59503 0.0
H2148 H 0.96739 0.65574 0.59503 0.0
H2149 H 0.0396 0.6812 0.59545 0.0
C2150 C 0.06399 0.76195 0.59489 0.0
C2151 C 0.07223 0.80535 0.59421 0.0
C2152 C 0.02234 0.74717 0.5953 0.0
C2153 C 0.03812 0.8338 0.59439 0.0
C2154 C 0.99669 0.81935 0.59499 0.0
C2155 C 0.94669 0.76126 0.59525 0.0
C2156 C 0.93851 0.7178 0.59495 0.0
C2157 C 0.98836 0.77609 0.59529 0.0
C2158 C 0.97263 0.6894 0.59517 0.0
C2159 C 0.01405 0.7039 0.59541 0.0
H2160 H 0.52052 0.84063 0.84117 0.0
H2161 H 0.39688 0.78497 0.8396 0.0
H2162 H 0.42827 0.71474 0.84013 0.0
H2163 H 0.49099 0.66882 0.84047 0.0
H2164 H 0.61445 0.72507 0.84176 0.0
H2165 H 0.58285 0.79501 0.84196 0.0
C2166 C 0.50033 0.81321 0.84099 0.0
C2167 C 0.45632 0.81833 0.84031 0.0
C2168 C 0.51857 0.77279 0.84123 0.0
C2169 C 0.43084 0.7822 0.84009 0.0
C2170 C 0.44877 0.7419 0.8404 0.0
C2171 C 0.51102 0.69633 0.84086 0.0
C2172 C 0.55513 0.6914 0.84107 0.0
C2173 C 0.49264 0.73677 0.84088 0.0
C2174 C 0.58045 0.72764 0.84155 0.0
C2175 C 0.56241 0.76781 0.84166 0.0
H2176 H 0.54554 0.67649 0.46049 0.0
H2177 H 0.61513 0.79285 0.45877 0.0
H2178 H 0.54961 0.83279 0.45874 0.0
H2179 H 0.47252 0.83526 0.45969 0.0
H2180 H 0.40247 0.71922 0.46117 0.0
H2181 H 0.46802 0.67895 0.46079 0.0
C2182 C 0.54642 0.71057 0.46006 0.0
C2183 C 0.58544 0.73144 0.45967 0.0
C2184 C 0.50843 0.7336 0.46004 0.0
C2185 C 0.58574 0.77572 0.45908 0.0
C2186 C 0.54819 0.79874 0.45908 0.0
C2187 C 0.4715 0.80116 0.45993 0.0
C2188 C 0.43245 0.78046 0.46052 0.0
C2189 C 0.50936 0.77807 0.45965 0.0
C2190 C 0.43195 0.73616 0.46072 0.0
C2191 C 0.46949 0.713 0.46051 0.0
H2192 H 0.52055 0.17325 0.70648 0.0
H2193 H 0.39416 0.22372 0.70651 0.0
H2194 H 0.422 0.29511 0.70582 0.0
H2195 H 0.48211 0.34351 0.70625 0.0
H2196 H 0.60849 0.29308 0.70691 0.0
H2197 H 0.58069 0.22166 0.70622 0.0
C2198 C 0.49902 0.19981 0.70622 0.0
C2199 C 0.45525 0.1929 0.70658 0.0
C2200 C 0.51525 0.24096 0.706 0.0
C2201 C 0.42797 0.2279 0.7063 0.0
C2202 C 0.44387 0.26885 0.7059 0.0
C2203 C 0.50365 0.31695 0.70613 0.0
C2204 C 0.5474 0.32388 0.70667 0.0
C2205 C 0.48745 0.2758 0.70591 0.0
C2206 C 0.57469 0.28888 0.70656 0.0
C2207 C 0.55882 0.24792 0.70617 0.0
H2208 H 0.97096 0.33457 0.95998 0.0
H2209 H 0.89426 0.22287 0.9606 0.0
H2210 H 0.95731 0.17875 0.96037 0.0
H2211 H 0.03511 0.1715 0.96032 0.0
H2212 H 0.11064 0.28417 0.95905 0.0
H2213 H 0.0477 0.3275 0.95919 0.0
C2214 C 0.96795 0.30059 0.96005 0.0
C2215 C 0.92771 0.28233 0.96035 0.0
C2216 C 1.00442 0.2752 0.95981 0.0
C2217 C 0.9247 0.23807 0.96034 0.0
C2218 C 0.96085 0.21265 0.96024 0.0
C2219 C 0.03777 0.20549 0.96005 0.0
C2220 C 0.07791 0.22417 0.95968 0.0
C2221 C 1.00101 0.2308 0.96002 0.0
C2222 C 0.08045 0.26848 0.95928 0.0
C2223 C 0.04432 0.29358 0.95939 0.0
H2224 H 0.01921 0.66549 0.21022 0.0
H2225 H 0.89464 0.71937 0.20692 0.0
H2226 H 0.92445 0.78983 0.20634 0.0
H2227 H 0.98567 0.83683 0.20742 0.0
H2228 H 0.11022 0.7831 0.21099 0.0
H2229 H 0.08061 0.7125 0.21079 0.0
C2230 C 0.99855 0.69258 0.20929 0.0
C2231 C 0.95465 0.6868 0.20865 0.0
C2232 C 0.01589 0.73336 0.20906 0.0
C2233 C 0.92853 0.72256 0.20748 0.0
C2234 C 0.94554 0.76305 0.20715 0.0
C2235 C 0.0064 0.80973 0.2081 0.0
C2236 C 0.05018 0.81561 0.20926 0.0
C2237 C 0.98916 0.76892 0.20805 0.0
C2238 C 0.0764 0.77984 0.21014 0.0
C2239 C 0.0595 0.73927 0.21002 0.0
H2240 H 0.4202 0.77359 0.95852 0.0
H2241 H 0.47414 0.64888 0.96101 0.0
H2242 H 0.54471 0.67843 0.96016 0.0
H2243 H 0.59159 0.73965 0.95916 0.0
H2244 H 0.53777 0.86444 0.95689 0.0
H2245 H 0.46715 0.83482 0.95717 0.0
C2246 C 0.44734 0.75282 0.95884 0.0
C2247 C 0.44158 0.70902 0.95986 0.0
C2248 C 0.48812 0.77003 0.9584 0.0
C2249 C 0.47736 0.68272 0.96026 0.0
C2250 C 0.51789 0.69958 0.95977 0.0
C2251 C 0.56447 0.76041 0.95867 0.0
C2252 C 0.57027 0.80428 0.95803 0.0
C2253 C 0.5237 0.7432 0.9589 0.0
C2254 C 0.53451 0.83057 0.95742 0.0
C2255 C 0.49396 0.81366 0.95758 0.0
H2256 H 0.98405 0.67332 0.70801 0.0
H2257 H 0.10875 0.72633 0.71009 0.0
H2258 H 0.07848 0.79728 0.71051 0.0
H2259 H 0.01626 0.8443 0.7108 0.0
H2260 H 0.89196 0.78992 0.70927 0.0
H2261 H 0.92257 0.71967 0.70814 0.0
C2262 C 1.00478 0.70031 0.70848 0.0
C2263 C 0.04872 0.69429 0.709 0.0
C2264 C 0.98719 0.74093 0.70887 0.0
C2265 C 0.07485 0.72986 0.70969 0.0
C2266 C 0.05754 0.77051 0.70994 0.0
C2267 C 0.99585 0.81711 0.71018 0.0
C2268 C 0.95176 0.82264 0.71015 0.0
C2269 C 0.0137 0.77644 0.70962 0.0
C2270 C 0.92593 0.78685 0.70938 0.0
C2271 C 0.94341 0.74653 0.7087 0.0
H2272 H 0.97089 0.17648 0.45469 0.0
H2273 H 0.90216 0.2934 0.45839 0.0
H2274 H 0.96788 0.33253 0.45841 0.0
H2275 H 0.04548 0.33399 0.45807 0.0
H2276 H 0.11404 0.21706 0.45395 0.0
H2277 H 0.04828 0.17818 0.45335 0.0
C2278 C 0.97023 0.21051 0.45546 0.0
C2279 C 0.93134 0.23169 0.45658 0.0
C2280 C 0.00837 0.23315 0.4554 0.0
C2281 C 0.9314 0.27597 0.45749 0.0
C2282 C 0.96911 0.29855 0.45754 0.0
C2283 C 0.04608 0.30004 0.45697 0.0
C2284 C 0.085 0.27876 0.45612 0.0
C2285 C 0.00787 0.27752 0.45659 0.0
C2286 C 0.08482 0.23461 0.45464 0.0
C2287 C 0.04709 0.21214 0.45432 0.0
H2288 H 0.58073 0.22221 0.20989 0.0
H2289 H 0.47034 0.14545 0.20406 0.0
H2290 H 0.42579 0.20782 0.20447 0.0
H2291 H 0.41725 0.28451 0.207 0.0
H2292 H 0.52771 0.36142 0.21233 0.0
H2293 H 0.57243 0.29912 0.2116 0.0
C2294 C 0.54698 0.2191 0.20863 0.0
C2295 C 0.52923 0.1789 0.20698 0.0
C2296 C 0.52116 0.25534 0.20885 0.0
C2297 C 0.48524 0.17578 0.20535 0.0
C2298 C 0.4595 0.21155 0.20561 0.0
C2299 C 0.45108 0.28766 0.208 0.0
C2300 C 0.46881 0.32781 0.20976 0.0
C2301 C 0.47699 0.25152 0.20746 0.0
C2302 C 0.51291 0.33109 0.21094 0.0
C2303 C 0.5387 0.29537 0.21054 0.0
H2304 H 0.54641 0.18275 0.58954 0.0
H2305 H 0.61754 0.29664 0.59586 0.0
H2306 H 0.5531 0.33791 0.59593 0.0
H2307 H 0.47623 0.34279 0.59365 0.0
H2308 H 0.40444 0.22915 0.58798 0.0
H2309 H 0.4689 0.18735 0.58822 0.0
C2310 C 0.54781 0.21653 0.59102 0.0
C2311 C 0.5871 0.23624 0.59264 0.0
C2312 C 0.51029 0.24052 0.59111 0.0
C2313 C 0.588 0.28023 0.59457 0.0
C2314 C 0.55103 0.30413 0.59458 0.0
C2315 C 0.47467 0.3089 0.59247 0.0
C2316 C 0.43538 0.28939 0.59074 0.0
C2317 C 0.51198 0.28474 0.59275 0.0
C2318 C 0.43412 0.24525 0.58934 0.0
C2319 C 0.47107 0.22116 0.58946 0.0
H2320 H 0.48358 0.84207 0.34005 0.0
H2321 H 0.61006 0.79199 0.34164 0.0
H2322 H 0.58258 0.72071 0.3427 0.0
H2323 H 0.52301 0.67208 0.34251 0.0
H2324 H 0.39637 0.72135 0.34033 0.0
H2325 H 0.42359 0.79308 0.34023 0.0
C2326 C 0.50513 0.81559 0.34069 0.0
C2327 C 0.54886 0.82261 0.34072 0.0
C2328 C 0.48912 0.77434 0.34117 0.0
C2329 C 0.57626 0.78774 0.34152 0.0
C2330 C 0.56059 0.74682 0.34215 0.0
C2331 C 0.50128 0.69846 0.3421 0.0
C2332 C 0.45769 0.69114 0.34141 0.0
C2333 C 0.51712 0.7397 0.34188 0.0
C2334 C 0.43011 0.72589 0.34082 0.0
C2335 C 0.44563 0.76702 0.34076 0.0
H2336 H 0.0894 0.77488 0.09277 0.0
H2337 H 0.03724 0.64969 0.09175 0.0
H2338 H 0.96608 0.67932 0.09149 0.0
H2339 H 0.91874 0.74098 0.09067 0.0
H2340 H 0.97197 0.86582 0.09085 0.0
H2341 H 0.04256 0.83597 0.09233 0.0
C2342 C 0.06254 0.75394 0.0926 0.0
C2343 C 0.06879 0.71006 0.09229 0.0
C2344 C 0.0218 0.77115 0.09223 0.0
C2345 C 0.03345 0.68357 0.09197 0.0
C2346 C 0.9927 0.7005 0.09181 0.0
C2347 C 0.94575 0.76167 0.09112 0.0
C2348 C 0.93992 0.80563 0.09062 0.0
C2349 C 0.98651 0.74427 0.0918 0.0
C2350 C 0.9754 0.8319 0.09114 0.0
C2351 C 0.01586 0.81487 0.09201 0.0
H2352 H 0.99177 0.34642 0.84167 0.0
H2353 H 0.11578 0.29039 0.84201 0.0
H2354 H 0.08456 0.22028 0.84289 0.0
H2355 H 0.02201 0.17458 0.84285 0.0
H2356 H 0.89818 0.23106 0.84203 0.0
H2357 H 0.92948 0.30101 0.84212 0.0
C2358 C 0.0121 0.31896 0.842 0.0
C2359 C 0.05621 0.32397 0.84174 0.0
C2360 C 0.99394 0.27862 0.84241 0.0
C2361 C 0.0818 0.28774 0.84216 0.0
C2362 C 0.06394 0.24752 0.84267 0.0
C2363 C 1.00178 0.20214 0.84279 0.0
C2364 C 0.95764 0.19725 0.84243 0.0
C2365 C 0.02003 0.24253 0.8427 0.0
C2366 C 0.93216 0.23358 0.84229 0.0
C2367 C 0.95006 0.27373 0.84233 0.0
loop_
_geom_bond_atom_site_label_1
_geom_bond_atom_site_label_2
_geom_bond_distance
_geom_bond_site_symmetry_2
_ccdc_geom_bond_type
Co0 O3 1.970 . S
Co0 N17 1.989 . S
Co0 O25 1.967 . S
Co0 O32 1.920 . S
Co1 O4 1.966 . S
Co1 N10 2.022 . S
Co1 N18 1.993 . S
Co1 O26 1.941 . S
C2 O3 1.258 . S
C2 O4 1.263 . S
O3 Co0 1.970 . S
O3 C2 1.258 . S
O4 Co1 1.966 . S
O4 C2 1.263 . S
C5 O6 1.235 . S
C5 O32 1.289 . S
O6 C5 1.235 . S
C7 C9 1.400 . S
C7 N10 1.351 . S
C7 C12 1.501 . S
C8 C9 1.387 . S
C8 N11 1.341 . S
C9 C7 1.400 . S
C9 C8 1.387 . S
N10 Co1 2.022 . S
N10 C7 1.351 . S
N10 N11 1.365 . S
N11 C8 1.341 . S
N11 N10 1.365 . S
N11 H31 0.862 . S
C12 C7 1.501 . S
C12 H13 0.961 . S
C12 H14 0.961 . S
C12 H15 0.960 . S
H13 C12 0.961 . S
H14 C12 0.961 . S
H15 C12 0.960 . S
C16 N17 1.342 . S
C16 C20 1.401 . S
C16 C21 1.499 . S
N17 Co0 1.989 . S
N17 C16 1.342 . S
N17 N18 1.388 . S
N18 Co1 1.993 . S
N18 N17 1.388 . S
N18 C19 1.346 . S
C19 N18 1.346 . S
C19 C20 1.396 . S
C19 C29 1.510 . S
C20 C16 1.401 . S
C20 C19 1.396 . S
C21 C16 1.499 . S
C21 H22 0.959 . S
C21 H23 0.960 . S
C21 H24 0.961 . S
H22 C21 0.959 . S
H23 C21 0.960 . S
H24 C21 0.961 . S
O25 Co0 1.967 . S
O25 C33 1.258 . S
O26 Co1 1.941 . S
O26 C33 1.266 . S
H27 C29 0.959 . S
H28 C29 0.961 . S
C29 C19 1.510 . S
C29 H27 0.959 . S
C29 H28 0.961 . S
C29 H30 0.960 . S
H30 C29 0.960 . S
H31 N11 0.862 . S
O32 Co0 1.920 . S
O32 C5 1.289 . S
C33 O25 1.258 . S
C33 O26 1.266 . S
Co34 O37 1.970 . S
Co34 N51 1.989 1_545 S
Co34 O59 1.967 . S
Co34 O66 1.920 1_455 S
Co35 O38 1.966 . S
Co35 N44 2.022 . S
Co35 N52 1.993 . S
Co35 O60 1.941 . S
C36 O37 1.258 . S
C36 O38 1.263 . S
O37 Co34 1.970 . S
O37 C36 1.258 . S
O38 Co35 1.966 . S
O38 C36 1.263 . S
C39 O40 1.235 . S
C39 O66 1.289 1_565 S
O40 C39 1.235 . S
C41 C43 1.400 . S
C41 N44 1.351 . S
C41 C46 1.501 . S
C42 C43 1.387 . S
C42 N45 1.341 . S
C43 C41 1.400 . S
C43 C42 1.387 . S
N44 Co35 2.022 . S
N44 C41 1.351 . S
N44 N45 1.365 . S
N45 C42 1.341 . S
N45 N44 1.365 . S
N45 H65 0.862 . S
C46 C41 1.501 . S
C46 H47 0.961 . S
C46 H48 0.961 1_545 S
C46 H49 0.960 . S
H47 C46 0.961 . S
H48 C46 0.961 1_565 S
H49 C46 0.960 . S
C50 N51 1.342 . S
C50 C54 1.401 . S
C50 C55 1.499 . S
N51 Co34 1.989 1_565 S
N51 C50 1.342 . S
N51 N52 1.388 1_565 S
N52 Co35 1.993 . S
N52 N51 1.388 1_545 S
N52 C53 1.346 1_545 S
C53 N52 1.346 1_565 S
C53 C54 1.396 . S
C53 C63 1.510 . S
C54 C50 1.401 . S
C54 C53 1.396 . S
C55 C50 1.499 . S
C55 H56 0.959 1_455 S
C55 H57 0.960 . S
C55 H58 0.958 1_455 S
H56 C55 0.959 1_655 S
H57 C55 0.960 . S
H58 C55 0.958 1_655 S
O59 Co34 1.967 . S
O59 C67 1.258 . S
O60 Co35 1.941 . S
O60 C67 1.266 . S
H61 C63 0.959 . S
H62 C63 0.961 . S
C63 C53 1.510 . S
C63 H61 0.959 . S
C63 H62 0.961 . S
C63 H64 0.960 . S
H64 C63 0.960 . S
H65 N45 0.862 . S
O66 Co34 1.920 1_655 S
O66 C39 1.289 1_545 S
C67 O59 1.258 . S
C67 O60 1.266 . S
Co68 O71 1.970 . S
Co68 N85 1.989 . S
Co68 O93 1.967 . S
Co68 O100 1.920 . S
Co69 O72 1.966 . S
Co69 N78 2.022 . S
Co69 N86 1.993 . S
Co69 O94 1.941 . S
C70 O71 1.258 . S
C70 O72 1.263 . S
O71 Co68 1.970 . S
O71 C70 1.258 . S
O72 Co69 1.966 . S
O72 C70 1.263 . S
C73 O74 1.235 . S
C73 O100 1.289 . S
O74 C73 1.235 . S
C75 C77 1.400 . S
C75 N78 1.351 . S
C75 C80 1.501 . S
C76 C77 1.387 . S
C76 N79 1.341 . S
C77 C75 1.400 . S
C77 C76 1.387 . S
N78 Co69 2.022 . S
N78 C75 1.351 . S
N78 N79 1.365 . S
N79 C76 1.341 . S
N79 N78 1.365 . S
N79 H99 0.862 . S
C80 C75 1.501 . S
C80 H81 0.961 . S
C80 H82 0.961 . S
C80 H83 0.960 . S
H81 C80 0.961 . S
H82 C80 0.961 . S
H83 C80 0.960 . S
C84 N85 1.342 . S
C84 C88 1.401 . S
C84 C89 1.499 . S
N85 Co68 1.989 . S
N85 C84 1.342 . S
N85 N86 1.388 . S
N86 Co69 1.993 . S
N86 N85 1.388 . S
N86 C87 1.346 . S
C87 N86 1.346 . S
C87 C88 1.396 . S
C87 C97 1.510 . S
C88 C84 1.401 . S
C88 C87 1.396 . S
C89 C84 1.499 . S
C89 H90 0.959 . S
C89 H91 0.960 . S
C89 H92 0.961 . S
H90 C89 0.959 . S
H91 C89 0.960 . S
H92 C89 0.961 . S
O93 Co68 1.967 . S
O93 C101 1.258 . S
O94 Co69 1.941 . S
O94 C101 1.266 . S
H95 C97 0.959 . S
H96 C97 0.961 . S
C97 C87 1.510 . S
C97 H95 0.959 . S
C97 H96 0.961 . S
C97 H98 0.960 . S
H98 C97 0.960 . S
H99 N79 0.862 . S
O100 Co68 1.920 . S
O100 C73 1.289 . S
C101 O93 1.258 . S
C101 O94 1.266 . S
Co102 O105 1.970 . S
Co102 N119 1.989 1_565 S
Co102 O127 1.967 . S
Co102 O134 1.920 . S
Co103 O106 1.966 . S
Co103 N112 2.022 . S
Co103 N120 1.993 . S
Co103 O128 1.941 . S
C104 O105 1.258 . S
C104 O106 1.263 . S
O105 Co102 1.970 . S
O105 C104 1.258 . S
O106 Co103 1.966 . S
O106 C104 1.263 . S
C107 O108 1.235 . S
C107 O134 1.289 1_545 S
O108 C107 1.235 . S
C109 C111 1.400 . S
C109 N112 1.351 . S
C109 C114 1.501 . S
C110 C111 1.387 . S
C110 N113 1.341 . S
C111 C109 1.400 . S
C111 C110 1.387 . S
N112 Co103 2.022 . S
N112 C109 1.351 . S
N112 N113 1.365 . S
N113 C110 1.341 . S
N113 N112 1.365 . S
N113 H133 0.862 . S
C114 C109 1.501 . S
C114 H115 0.961 . S
C114 H116 0.961 1_565 S
C114 H117 0.960 . S
H115 C114 0.961 . S
H116 C114 0.961 1_545 S
H117 C114 0.960 . S
C118 N119 1.342 . S
C118 C122 1.401 . S
C118 C123 1.499 . S
N119 Co102 1.989 1_545 S
N119 C118 1.342 . S
N119 N120 1.388 1_545 S
N120 Co103 1.993 . S
N120 N119 1.388 1_565 S
N120 C121 1.346 1_565 S
C121 N120 1.346 1_545 S
C121 C122 1.396 . S
C121 C131 1.510 . S
C122 C118 1.401 . S
C122 C121 1.396 . S
C123 C118 1.499 . S
C123 H124 0.959 . S
C123 H125 0.960 . S
C123 H126 0.961 . S
H124 C123 0.959 . S
H125 C123 0.960 . S
H126 C123 0.961 . S
O127 Co102 1.967 . S
O127 C135 1.258 . S
O128 Co103 1.941 . S
O128 C135 1.266 . S
H129 C131 0.959 . S
H130 C131 0.961 . S
C131 C121 1.510 . S
C131 H129 0.959 . S
C131 H130 0.961 . S
C131 H132 0.960 . S
H132 C131 0.960 . S
H133 N113 0.862 . S
O134 Co102 1.920 . S
O134 C107 1.289 1_565 S
C135 O127 1.258 . S
C135 O128 1.266 . S
Co136 O139 1.970 . S
Co136 N153 1.989 . S
Co136 O161 1.967 . S
Co136 O168 1.920 . S
Co137 O140 1.966 . S
Co137 N146 2.022 . S
Co137 N154 1.993 . S
Co137 O162 1.941 . S
C138 O139 1.258 . S
C138 O140 1.263 . S
O139 Co136 1.970 . S
O139 C138 1.258 . S
O140 Co137 1.966 . S
O140 C138 1.263 . S
C141 O142 1.235 . S
C141 O168 1.289 . S
O142 C141 1.235 . S
C143 C145 1.400 . S
C143 N146 1.351 . S
C143 C148 1.501 . S
C144 C145 1.387 . S
C144 N147 1.341 . S
C145 C143 1.400 . S
C145 C144 1.387 . S
N146 Co137 2.022 . S
N146 C143 1.351 . S
N146 N147 1.365 . S
N147 C144 1.341 . S
N147 N146 1.365 . S
N147 H167 0.862 . S
C148 C143 1.501 . S
C148 H149 0.961 . S
C148 H150 0.961 . S
C148 H151 0.960 . S
H149 C148 0.961 . S
H150 C148 0.961 . S
H151 C148 0.960 . S
C152 N153 1.342 . S
C152 C156 1.401 . S
C152 C157 1.499 . S
N153 Co136 1.989 . S
N153 C152 1.342 . S
N153 N154 1.388 . S
N154 Co137 1.993 . S
N154 N153 1.388 . S
N154 C155 1.346 . S
C155 N154 1.346 . S
C155 C156 1.396 . S
C155 C165 1.510 . S
C156 C152 1.401 . S
C156 C155 1.396 . S
C157 C152 1.499 . S
C157 H158 0.959 . S
C157 H159 0.960 . S
C157 H160 0.961 . S
H158 C157 0.959 . S
H159 C157 0.960 . S
H160 C157 0.961 . S
O161 Co136 1.967 . S
O161 C169 1.258 . S
O162 Co137 1.941 . S
O162 C169 1.266 . S
H163 C165 0.959 . S
H164 C165 0.961 . S
C165 C155 1.510 . S
C165 H163 0.959 . S
C165 H164 0.961 . S
C165 H166 0.960 . S
H166 C165 0.960 . S
H167 N147 0.862 . S
O168 Co136 1.920 . S
O168 C141 1.289 . S
C169 O161 1.258 . S
C169 O162 1.266 . S
Co170 O173 1.970 . S
Co170 N187 1.989 1_545 S
Co170 O195 1.967 . S
Co170 O202 1.920 . S
Co171 O174 1.966 . S
Co171 N180 2.022 . S
Co171 N188 1.993 . S
Co171 O196 1.941 . S
C172 O173 1.258 . S
C172 O174 1.263 . S
O173 Co170 1.970 . S
O173 C172 1.258 . S
O174 Co171 1.966 . S
O174 C172 1.263 . S
C175 O176 1.235 . S
C175 O202 1.289 1_565 S
O176 C175 1.235 . S
C177 C179 1.400 . S
C177 N180 1.351 . S
C177 C182 1.501 . S
C178 C179 1.387 . S
C178 N181 1.341 . S
C179 C177 1.400 . S
C179 C178 1.387 . S
N180 Co171 2.022 . S
N180 C177 1.351 . S
N180 N181 1.365 . S
N181 C178 1.341 . S
N181 N180 1.365 . S
N181 H201 0.862 . S
C182 C177 1.501 . S
C182 H183 0.961 . S
C182 H184 0.961 1_545 S
C182 H185 0.960 . S
H183 C182 0.961 . S
H184 C182 0.961 1_565 S
H185 C182 0.960 . S
C186 N187 1.342 . S
C186 C190 1.401 . S
C186 C191 1.499 . S
N187 Co170 1.989 1_565 S
N187 C186 1.342 . S
N187 N188 1.388 1_565 S
N188 Co171 1.993 . S
N188 N187 1.388 1_545 S
N188 C189 1.346 1_545 S
C189 N188 1.346 1_565 S
C189 C190 1.396 . S
C189 C199 1.510 . S
C190 C186 1.401 . S
C190 C189 1.396 . S
C191 C186 1.499 . S
C191 H192 0.959 . S
C191 H193 0.960 . S
C191 H194 0.961 . S
H192 C191 0.959 . S
H193 C191 0.960 . S
H194 C191 0.961 . S
O195 Co170 1.967 . S
O195 C203 1.258 . S
O196 Co171 1.941 . S
O196 C203 1.266 . S
H197 C199 0.959 . S
H198 C199 0.961 . S
C199 C189 1.510 . S
C199 H197 0.959 . S
C199 H198 0.961 . S
C199 H200 0.960 . S
H200 C199 0.960 . S
H201 N181 0.862 . S
O202 Co170 1.920 . S
O202 C175 1.289 1_545 S
C203 O195 1.258 . S
C203 O196 1.266 . S
Co204 O207 1.970 . S
Co204 N221 1.989 . S
Co204 O229 1.967 . S
Co204 O236 1.920 . S
Co205 O208 1.966 . S
Co205 N214 2.022 . S
Co205 N222 1.993 . S
Co205 O230 1.941 . S
C206 O207 1.258 . S
C206 O208 1.263 . S
O207 Co204 1.970 . S
O207 C206 1.258 . S
O208 Co205 1.966 . S
O208 C206 1.263 . S
C209 O210 1.235 . S
C209 O236 1.289 . S
O210 C209 1.235 . S
C211 C213 1.400 . S
C211 N214 1.351 . S
C211 C216 1.501 . S
C212 C213 1.387 . S
C212 N215 1.341 . S
C213 C211 1.400 . S
C213 C212 1.387 . S
N214 Co205 2.022 . S
N214 C211 1.351 . S
N214 N215 1.365 . S
N215 C212 1.341 . S
N215 N214 1.365 . S
N215 H235 0.862 . S
C216 C211 1.501 . S
C216 H217 0.961 . S
C216 H218 0.961 . S
C216 H219 0.960 . S
H217 C216 0.961 . S
H218 C216 0.961 . S
H219 C216 0.960 . S
C220 N221 1.342 . S
C220 C224 1.401 . S
C220 C225 1.499 . S
N221 Co204 1.989 . S
N221 C220 1.342 . S
N221 N222 1.388 . S
N222 Co205 1.993 . S
N222 N221 1.388 . S
N222 C223 1.346 . S
C223 N222 1.346 . S
C223 C224 1.396 . S
C223 C233 1.510 . S
C224 C220 1.401 . S
C224 C223 1.396 . S
C225 C220 1.499 . S
C225 H226 0.959 . S
C225 H227 0.960 . S
C225 H228 0.961 . S
H226 C225 0.959 . S
H227 C225 0.960 . S
H228 C225 0.961 . S
O229 Co204 1.967 . S
O229 C237 1.258 . S
O230 Co205 1.941 . S
O230 C237 1.266 . S
H231 C233 0.959 . S
H232 C233 0.961 . S
C233 C223 1.510 . S
C233 H231 0.959 . S
C233 H232 0.961 . S
C233 H234 0.960 . S
H234 C233 0.960 . S
H235 N215 0.862 . S
O236 Co204 1.920 . S
O236 C209 1.289 . S
C237 O229 1.258 . S
C237 O230 1.266 . S
Co238 O241 1.970 . S
Co238 N255 1.989 1_565 S
Co238 O263 1.967 . S
Co238 O270 1.920 1_455 S
Co239 O242 1.966 . S
Co239 N248 2.022 . S
Co239 N256 1.993 . S
Co239 O264 1.941 . S
C240 O241 1.258 . S
C240 O242 1.263 . S
O241 Co238 1.970 . S
O241 C240 1.258 . S
O242 Co239 1.966 . S
O242 C240 1.263 . S
C243 O244 1.235 . S
C243 O270 1.289 1_545 S
O244 C243 1.235 . S
C245 C247 1.400 . S
C245 N248 1.351 . S
C245 C250 1.501 . S
C246 C247 1.387 . S
C246 N249 1.341 . S
C247 C245 1.400 . S
C247 C246 1.387 . S
N248 Co239 2.022 . S
N248 C245 1.351 . S
N248 N249 1.365 . S
N249 C246 1.341 . S
N249 N248 1.365 . S
N249 H269 0.862 . S
C250 C245 1.501 . S
C250 H251 0.961 . S
C250 H252 0.961 1_565 S
C250 H253 0.960 . S
H251 C250 0.961 . S
H252 C250 0.961 1_545 S
H253 C250 0.960 . S
C254 N255 1.342 . S
C254 C258 1.401 . S
C254 C259 1.499 . S
N255 Co238 1.989 1_545 S
N255 C254 1.342 . S
N255 N256 1.388 1_545 S
N256 Co239 1.993 . S
N256 N255 1.388 1_565 S
N256 C257 1.346 1_565 S
C257 N256 1.346 1_545 S
C257 C258 1.396 . S
C257 C267 1.510 . S
C258 C254 1.401 . S
C258 C257 1.396 . S
C259 C254 1.499 . S
C259 H260 0.959 1_455 S
C259 H261 0.960 . S
C259 H262 0.958 1_455 S
H260 C259 0.959 1_655 S
H261 C259 0.960 . S
H262 C259 0.958 1_655 S
O263 Co238 1.967 . S
O263 C271 1.258 . S
O264 Co239 1.941 . S
O264 C271 1.266 . S
H265 C267 0.959 . S
H266 C267 0.961 . S
C267 C257 1.510 . S
C267 H265 0.959 . S
C267 H266 0.961 . S
C267 H268 0.960 . S
H268 C267 0.960 . S
H269 N249 0.862 . S
O270 Co238 1.920 1_655 S
O270 C243 1.289 1_565 S
C271 O263 1.258 . S
C271 O264 1.266 . S
Co272 O275 1.970 . S
Co272 N289 1.989 . S
Co272 O297 1.967 . S
Co272 O304 1.920 . S
Co273 O276 1.966 . S
Co273 N282 2.022 . S
Co273 N290 1.993 . S
Co273 O298 1.941 . S
C274 O275 1.258 . S
C274 O276 1.263 . S
O275 Co272 1.970 . S
O275 C274 1.258 . S
O276 Co273 1.966 . S
O276 C274 1.263 . S
C277 O278 1.235 . S
C277 O304 1.289 . S
O278 C277 1.235 . S
C279 C281 1.400 . S
C279 N282 1.351 . S
C279 C284 1.501 . S
C280 C281 1.387 . S
C280 N283 1.341 . S
C281 C279 1.400 . S
C281 C280 1.387 . S
N282 Co273 2.022 . S
N282 C279 1.351 . S
N282 N283 1.365 . S
N283 C280 1.341 . S
N283 N282 1.365 . S
N283 H303 0.862 . S
C284 C279 1.501 . S
C284 H285 0.961 . S
C284 H286 0.961 . S
C284 H287 0.960 . S
H285 C284 0.961 . S
H286 C284 0.961 . S
H287 C284 0.960 . S
C288 N289 1.342 . S
C288 C292 1.401 . S
C288 C293 1.499 . S
N289 Co272 1.989 . S
N289 C288 1.342 . S
N289 N290 1.388 . S
N290 Co273 1.993 . S
N290 N289 1.388 . S
N290 C291 1.346 . S
C291 N290 1.346 . S
C291 C292 1.396 . S
C291 C301 1.510 . S
C292 C288 1.401 . S
C292 C291 1.396 . S
C293 C288 1.499 . S
C293 H294 0.959 . S
C293 H295 0.960 . S
C293 H296 0.961 . S
H294 C293 0.959 . S
H295 C293 0.960 . S
H296 C293 0.961 . S
O297 Co272 1.967 . S
O297 C305 1.258 . S
O298 Co273 1.941 . S
O298 C305 1.266 . S
H299 C301 0.959 . S
H300 C301 0.961 . S
C301 C291 1.510 . S
C301 H299 0.959 . S
C301 H300 0.961 . S
C301 H302 0.960 . S
H302 C301 0.960 . S
H303 N283 0.862 . S
O304 Co272 1.920 . S
O304 C277 1.289 . S
C305 O297 1.258 . S
C305 O298 1.266 . S
Co306 O309 1.970 . S
Co306 N323 1.989 1_565 S
Co306 O331 1.967 . S
Co306 O338 1.920 1_655 S
Co307 O310 1.966 . S
Co307 N316 2.022 . S
Co307 N324 1.993 . S
Co307 O332 1.941 . S
C308 O309 1.258 . S
C308 O310 1.263 . S
O309 Co306 1.970 . S
O309 C308 1.258 . S
O310 Co307 1.966 . S
O310 C308 1.263 . S
C311 O312 1.235 . S
C311 O338 1.289 1_545 S
O312 C311 1.235 . S
C313 C315 1.400 . S
C313 N316 1.351 . S
C313 C318 1.501 . S
C314 C315 1.387 . S
C314 N317 1.341 . S
C315 C313 1.400 . S
C315 C314 1.387 . S
N316 Co307 2.022 . S
N316 C313 1.351 . S
N316 N317 1.365 . S
N317 C314 1.341 . S
N317 N316 1.365 . S
N317 H337 0.862 . S
C318 C313 1.501 . S
C318 H319 0.961 . S
C318 H320 0.961 1_565 S
C318 H321 0.960 . S
H319 C318 0.961 . S
H320 C318 0.961 1_545 S
H321 C318 0.960 . S
C322 N323 1.342 . S
C322 C326 1.401 . S
C322 C327 1.499 . S
N323 Co306 1.989 1_545 S
N323 C322 1.342 . S
N323 N324 1.388 1_545 S
N324 Co307 1.993 . S
N324 N323 1.388 1_565 S
N324 C325 1.346 1_565 S
C325 N324 1.346 1_545 S
C325 C326 1.396 . S
C325 C335 1.510 . S
C326 C322 1.401 . S
C326 C325 1.396 . S
C327 C322 1.499 . S
C327 H328 0.959 1_655 S
C327 H329 0.960 . S
C327 H330 0.958 1_655 S
H328 C327 0.959 1_455 S
H329 C327 0.960 . S
H330 C327 0.958 1_455 S
O331 Co306 1.967 . S
O331 C339 1.258 . S
O332 Co307 1.941 . S
O332 C339 1.266 . S
H333 C335 0.959 . S
H334 C335 0.961 . S
C335 C325 1.510 . S
C335 H333 0.959 . S
C335 H334 0.961 . S
C335 H336 0.960 . S
H336 C335 0.960 . S
H337 N317 0.862 . S
O338 Co306 1.920 1_455 S
O338 C311 1.289 1_565 S
C339 O331 1.258 . S
C339 O332 1.266 . S
Co340 O343 1.970 . S
Co340 N357 1.989 . S
Co340 O365 1.967 . S
Co340 O372 1.920 . S
Co341 O344 1.966 . S
Co341 N350 2.022 . S
Co341 N358 1.993 . S
Co341 O366 1.941 . S
C342 O343 1.258 . S
C342 O344 1.263 . S
O343 Co340 1.970 . S
O343 C342 1.258 . S
O344 Co341 1.966 . S
O344 C342 1.263 . S
C345 O346 1.235 . S
C345 O372 1.289 . S
O346 C345 1.235 . S
C347 C349 1.400 . S
C347 N350 1.351 . S
C347 C352 1.501 . S
C348 C349 1.387 . S
C348 N351 1.341 . S
C349 C347 1.400 . S
C349 C348 1.387 . S
N350 Co341 2.022 . S
N350 C347 1.351 . S
N350 N351 1.365 . S
N351 C348 1.341 . S
N351 N350 1.365 . S
N351 H371 0.862 . S
C352 C347 1.501 . S
C352 H353 0.961 . S
C352 H354 0.961 . S
C352 H355 0.960 . S
H353 C352 0.961 . S
H354 C352 0.961 . S
H355 C352 0.960 . S
C356 N357 1.342 . S
C356 C360 1.401 . S
C356 C361 1.499 . S
N357 Co340 1.989 . S
N357 C356 1.342 . S
N357 N358 1.388 . S
N358 Co341 1.993 . S
N358 N357 1.388 . S
N358 C359 1.346 . S
C359 N358 1.346 . S
C359 C360 1.396 . S
C359 C369 1.510 . S
C360 C356 1.401 . S
C360 C359 1.396 . S
C361 C356 1.499 . S
C361 H362 0.959 . S
C361 H363 0.960 . S
C361 H364 0.961 . S
H362 C361 0.959 . S
H363 C361 0.960 . S
H364 C361 0.961 . S
O365 Co340 1.967 . S
O365 C373 1.258 . S
O366 Co341 1.941 . S
O366 C373 1.266 . S
H367 C369 0.959 . S
H368 C369 0.961 . S
C369 C359 1.510 . S
C369 H367 0.959 . S
C369 H368 0.961 . S
C369 H370 0.960 . S
H370 C369 0.960 . S
H371 N351 0.862 . S
O372 Co340 1.920 . S
O372 C345 1.289 . S
C373 O365 1.258 . S
C373 O366 1.266 . S
Co374 O377 1.970 . S
Co374 N391 1.989 1_545 S
Co374 O399 1.967 . S
Co374 O406 1.920 . S
Co375 O378 1.966 . S
Co375 N384 2.022 . S
Co375 N392 1.993 . S
Co375 O400 1.941 . S
C376 O377 1.258 . S
C376 O378 1.263 . S
O377 Co374 1.970 . S
O377 C376 1.258 . S
O378 Co375 1.966 . S
O378 C376 1.263 . S
C379 O380 1.235 . S
C379 O406 1.289 1_565 S
O380 C379 1.235 . S
C381 C383 1.400 . S
C381 N384 1.351 . S
C381 C386 1.501 . S
C382 C383 1.387 . S
C382 N385 1.341 . S
C383 C381 1.400 . S
C383 C382 1.387 . S
N384 Co375 2.022 . S
N384 C381 1.351 . S
N384 N385 1.365 . S
N385 C382 1.341 . S
N385 N384 1.365 . S
N385 H405 0.862 . S
C386 C381 1.501 . S
C386 H387 0.961 . S
C386 H388 0.961 1_545 S
C386 H389 0.960 . S
H387 C386 0.961 . S
H388 C386 0.961 1_565 S
H389 C386 0.960 . S
C390 N391 1.342 . S
C390 C394 1.401 . S
C390 C395 1.499 . S
N391 Co374 1.989 1_565 S
N391 C390 1.342 . S
N391 N392 1.388 1_565 S
N392 Co375 1.993 . S
N392 N391 1.388 1_545 S
N392 C393 1.346 1_545 S
C393 N392 1.346 1_565 S
C393 C394 1.396 . S
C393 C403 1.510 . S
C394 C390 1.401 . S
C394 C393 1.396 . S
C395 C390 1.499 . S
C395 H396 0.959 . S
C395 H397 0.960 . S
C395 H398 0.961 . S
H396 C395 0.959 . S
H397 C395 0.960 . S
H398 C395 0.961 . S
O399 Co374 1.967 . S
O399 C407 1.258 . S
O400 Co375 1.941 . S
O400 C407 1.266 . S
H401 C403 0.959 . S
H402 C403 0.961 . S
C403 C393 1.510 . S
C403 H401 0.959 . S
C403 H402 0.961 . S
C403 H404 0.960 . S
H404 C403 0.960 . S
H405 N385 0.862 . S
O406 Co374 1.920 . S
O406 C379 1.289 1_545 S
C407 O399 1.258 . S
C407 O400 1.266 . S
Co408 O411 1.970 . S
Co408 N425 1.989 . S
Co408 O433 1.967 . S
Co408 O440 1.920 . S
Co409 O412 1.966 . S
Co409 N418 2.022 . S
Co409 N426 1.993 . S
Co409 O434 1.941 . S
C410 O411 1.258 . S
C410 O412 1.263 . S
O411 Co408 1.970 . S
O411 C410 1.258 . S
O412 Co409 1.966 . S
O412 C410 1.263 . S
C413 O414 1.235 . S
C413 O440 1.289 . S
O414 C413 1.235 . S
C415 C417 1.400 . S
C415 N418 1.351 . S
C415 C420 1.501 . S
C416 C417 1.387 . S
C416 N419 1.341 . S
C417 C415 1.400 . S
C417 C416 1.387 . S
N418 Co409 2.022 . S
N418 C415 1.351 . S
N418 N419 1.365 . S
N419 C416 1.341 . S
N419 N418 1.365 . S
N419 H439 0.862 . S
C420 C415 1.501 . S
C420 H421 0.961 . S
C420 H422 0.961 . S
C420 H423 0.960 . S
H421 C420 0.961 . S
H422 C420 0.961 . S
H423 C420 0.960 . S
C424 N425 1.342 . S
C424 C428 1.401 . S
C424 C429 1.499 . S
N425 Co408 1.989 . S
N425 C424 1.342 . S
N425 N426 1.388 . S
N426 Co409 1.993 . S
N426 N425 1.388 . S
N426 C427 1.346 . S
C427 N426 1.346 . S
C427 C428 1.396 . S
C427 C437 1.510 . S
C428 C424 1.401 . S
C428 C427 1.396 . S
C429 C424 1.499 . S
C429 H430 0.959 . S
C429 H431 0.960 . S
C429 H432 0.961 . S
H430 C429 0.959 . S
H431 C429 0.960 . S
H432 C429 0.961 . S
O433 Co408 1.967 . S
O433 C441 1.258 . S
O434 Co409 1.941 . S
O434 C441 1.266 . S
H435 C437 0.959 . S
H436 C437 0.961 . S
C437 C427 1.510 . S
C437 H435 0.959 . S
C437 H436 0.961 . S
C437 H438 0.960 . S
H438 C437 0.960 . S
H439 N419 0.862 . S
O440 Co408 1.920 . S
O440 C413 1.289 . S
C441 O433 1.258 . S
C441 O434 1.266 . S
Co442 O445 1.970 . S
Co442 N459 1.989 1_565 S
Co442 O467 1.967 . S
Co442 O474 1.920 . S
Co443 O446 1.966 . S
Co443 N452 2.022 . S
Co443 N460 1.993 . S
Co443 O468 1.941 . S
C444 O445 1.258 . S
C444 O446 1.263 . S
O445 Co442 1.970 . S
O445 C444 1.258 . S
O446 Co443 1.966 . S
O446 C444 1.263 . S
C447 O448 1.235 . S
C447 O474 1.289 1_545 S
O448 C447 1.235 . S
C449 C451 1.400 . S
C449 N452 1.351 . S
C449 C454 1.501 . S
C450 C451 1.387 . S
C450 N453 1.341 . S
C451 C449 1.400 . S
C451 C450 1.387 . S
N452 Co443 2.022 . S
N452 C449 1.351 . S
N452 N453 1.365 . S
N453 C450 1.341 . S
N453 N452 1.365 . S
N453 H473 0.862 . S
C454 C449 1.501 . S
C454 H455 0.961 . S
C454 H456 0.961 1_565 S
C454 H457 0.960 . S
H455 C454 0.961 . S
H456 C454 0.961 1_545 S
H457 C454 0.960 . S
C458 N459 1.342 . S
C458 C462 1.401 . S
C458 C463 1.499 . S
N459 Co442 1.989 1_545 S
N459 C458 1.342 . S
N459 N460 1.388 1_545 S
N460 Co443 1.993 . S
N460 N459 1.388 1_565 S
N460 C461 1.346 1_565 S
C461 N460 1.346 1_545 S
C461 C462 1.396 . S
C461 C471 1.510 . S
C462 C458 1.401 . S
C462 C461 1.396 . S
C463 C458 1.499 . S
C463 H464 0.959 . S
C463 H465 0.960 . S
C463 H466 0.961 . S
H464 C463 0.959 . S
H465 C463 0.960 . S
H466 C463 0.961 . S
O467 Co442 1.967 . S
O467 C475 1.258 . S
O468 Co443 1.941 . S
O468 C475 1.266 . S
H469 C471 0.959 . S
H470 C471 0.961 . S
C471 C461 1.510 . S
C471 H469 0.959 . S
C471 H470 0.961 . S
C471 H472 0.960 . S
H472 C471 0.960 . S
H473 N453 0.862 . S
O474 Co442 1.920 . S
O474 C447 1.289 1_565 S
C475 O467 1.258 . S
C475 O468 1.266 . S
Co476 O479 1.970 . S
Co476 N493 1.989 . S
Co476 O501 1.967 . S
Co476 O508 1.920 . S
Co477 O480 1.966 . S
Co477 N486 2.022 . S
Co477 N494 1.993 . S
Co477 O502 1.941 . S
C478 O479 1.258 . S
C478 O480 1.263 . S
O479 Co476 1.970 . S
O479 C478 1.258 . S
O480 Co477 1.966 . S
O480 C478 1.263 . S
C481 O482 1.235 . S
C481 O508 1.289 . S
O482 C481 1.235 . S
C483 C485 1.400 . S
C483 N486 1.351 . S
C483 C488 1.501 . S
C484 C485 1.387 . S
C484 N487 1.341 . S
C485 C483 1.400 . S
C485 C484 1.387 . S
N486 Co477 2.022 . S
N486 C483 1.351 . S
N486 N487 1.365 . S
N487 C484 1.341 . S
N487 N486 1.365 . S
N487 H507 0.862 . S
C488 C483 1.501 . S
C488 H489 0.961 . S
C488 H490 0.961 . S
C488 H491 0.960 . S
H489 C488 0.961 . S
H490 C488 0.961 . S
H491 C488 0.960 . S
C492 N493 1.342 . S
C492 C496 1.401 . S
C492 C497 1.499 . S
N493 Co476 1.989 . S
N493 C492 1.342 . S
N493 N494 1.388 . S
N494 Co477 1.993 . S
N494 N493 1.388 . S
N494 C495 1.346 . S
C495 N494 1.346 . S
C495 C496 1.396 . S
C495 C505 1.510 . S
C496 C492 1.401 . S
C496 C495 1.396 . S
C497 C492 1.499 . S
C497 H498 0.959 . S
C497 H499 0.960 . S
C497 H500 0.961 . S
H498 C497 0.959 . S
H499 C497 0.960 . S
H500 C497 0.961 . S
O501 Co476 1.967 . S
O501 C509 1.258 . S
O502 Co477 1.941 . S
O502 C509 1.266 . S
H503 C505 0.959 . S
H504 C505 0.961 . S
C505 C495 1.510 . S
C505 H503 0.959 . S
C505 H504 0.961 . S
C505 H506 0.960 . S
H506 C505 0.960 . S
H507 N487 0.862 . S
O508 Co476 1.920 . S
O508 C481 1.289 . S
C509 O501 1.258 . S
C509 O502 1.266 . S
Co510 O513 1.970 . S
Co510 N527 1.989 1_545 S
Co510 O535 1.967 . S
Co510 O542 1.920 1_655 S
Co511 O514 1.966 . S
Co511 N520 2.022 . S
Co511 N528 1.993 . S
Co511 O536 1.941 . S
C512 O513 1.258 . S
C512 O514 1.263 . S
O513 Co510 1.970 . S
O513 C512 1.258 . S
O514 Co511 1.966 . S
O514 C512 1.263 . S
C515 O516 1.235 . S
C515 O542 1.289 1_565 S
O516 C515 1.235 . S
C517 C519 1.400 . S
C517 N520 1.351 . S
C517 C522 1.501 . S
C518 C519 1.387 . S
C518 N521 1.341 . S
C519 C517 1.400 . S
C519 C518 1.387 . S
N520 Co511 2.022 . S
N520 C517 1.351 . S
N520 N521 1.365 . S
N521 C518 1.341 . S
N521 N520 1.365 . S
N521 H541 0.862 . S
C522 C517 1.501 . S
C522 H523 0.961 . S
C522 H524 0.961 1_545 S
C522 H525 0.960 . S
H523 C522 0.961 . S
H524 C522 0.961 1_565 S
H525 C522 0.960 . S
C526 N527 1.342 . S
C526 C530 1.401 . S
C526 C531 1.499 . S
N527 Co510 1.989 1_565 S
N527 C526 1.342 . S
N527 N528 1.388 1_565 S
N528 Co511 1.993 . S
N528 N527 1.388 1_545 S
N528 C529 1.346 1_545 S
C529 N528 1.346 1_565 S
C529 C530 1.396 . S
C529 C539 1.510 . S
C530 C526 1.401 . S
C530 C529 1.396 . S
C531 C526 1.499 . S
C531 H532 0.959 1_655 S
C531 H533 0.960 . S
C531 H534 0.958 1_655 S
H532 C531 0.959 1_455 S
H533 C531 0.960 . S
H534 C531 0.958 1_455 S
O535 Co510 1.967 . S
O535 C543 1.258 . S
O536 Co511 1.941 . S
O536 C543 1.266 . S
H537 C539 0.959 . S
H538 C539 0.961 . S
C539 C529 1.510 . S
C539 H537 0.959 . S
C539 H538 0.961 . S
C539 H540 0.960 . S
H540 C539 0.960 . S
H541 N521 0.862 . S
O542 Co510 1.920 1_455 S
O542 C515 1.289 1_545 S
C543 O535 1.258 . S
C543 O536 1.266 . S
Co544 O547 1.970 . S
Co544 N561 1.989 . S
Co544 O569 1.967 . S
Co544 O576 1.920 . S
Co545 O548 1.966 . S
Co545 N554 2.022 . S
Co545 N562 1.993 . S
Co545 O570 1.941 . S
C546 O547 1.258 . S
C546 O548 1.263 . S
O547 Co544 1.970 . S
O547 C546 1.258 . S
O548 Co545 1.966 . S
O548 C546 1.263 . S
C549 O550 1.235 . S
C549 O576 1.289 . S
O550 C549 1.235 . S
C551 C553 1.400 . S
C551 N554 1.351 . S
C551 C556 1.501 . S
C552 C553 1.387 . S
C552 N555 1.341 . S
C553 C551 1.400 . S
C553 C552 1.387 . S
N554 Co545 2.022 . S
N554 C551 1.351 . S
N554 N555 1.365 . S
N555 C552 1.341 . S
N555 N554 1.365 . S
N555 H575 0.862 . S
C556 C551 1.501 . S
C556 H557 0.961 . S
C556 H558 0.961 . S
C556 H559 0.960 . S
H557 C556 0.961 . S
H558 C556 0.961 . S
H559 C556 0.960 . S
C560 N561 1.342 . S
C560 C564 1.401 . S
C560 C565 1.499 . S
N561 Co544 1.989 . S
N561 C560 1.342 . S
N561 N562 1.388 . S
N562 Co545 1.993 . S
N562 N561 1.388 . S
N562 C563 1.346 . S
C563 N562 1.346 . S
C563 C564 1.396 . S
C563 C573 1.510 . S
C564 C560 1.401 . S
C564 C563 1.396 . S
C565 C560 1.499 . S
C565 H566 0.959 . S
C565 H567 0.960 . S
C565 H568 0.961 . S
H566 C565 0.959 . S
H567 C565 0.960 . S
H568 C565 0.961 . S
O569 Co544 1.967 . S
O569 C577 1.258 . S
O570 Co545 1.941 . S
O570 C577 1.266 . S
H571 C573 0.959 . S
H572 C573 0.961 . S
C573 C563 1.510 . S
C573 H571 0.959 . S
C573 H572 0.961 . S
C573 H574 0.960 . S
H574 C573 0.960 . S
H575 N555 0.862 . S
O576 Co544 1.920 . S
O576 C549 1.289 . S
C577 O569 1.258 . S
C577 O570 1.266 . S
Co578 O581 1.970 . S
Co578 N595 1.989 . S
Co578 O603 1.967 . S
Co578 O610 1.920 . S
Co579 O582 1.966 . S
Co579 N588 2.022 . S
Co579 N596 1.993 . S
Co579 O604 1.941 . S
C580 O581 1.258 . S
C580 O582 1.263 . S
O581 Co578 1.970 . S
O581 C580 1.258 . S
O582 Co579 1.966 . S
O582 C580 1.263 . S
C583 O584 1.235 . S
C583 O610 1.289 . S
O584 C583 1.235 . S
C585 C587 1.400 . S
C585 N588 1.351 . S
C585 C590 1.501 . S
C586 C587 1.387 . S
C586 N589 1.341 . S
C587 C585 1.400 . S
C587 C586 1.387 . S
N588 Co579 2.022 . S
N588 C585 1.351 . S
N588 N589 1.365 . S
N589 C586 1.341 . S
N589 N588 1.365 . S
N589 H609 0.862 . S
C590 C585 1.501 . S
C590 H591 0.961 . S
C590 H592 0.961 . S
C590 H593 0.960 . S
H591 C590 0.961 . S
H592 C590 0.961 . S
H593 C590 0.960 . S
C594 N595 1.342 . S
C594 C598 1.401 . S
C594 C599 1.499 . S
N595 Co578 1.989 . S
N595 C594 1.342 . S
N595 N596 1.388 . S
N596 Co579 1.993 . S
N596 N595 1.388 . S
N596 C597 1.346 . S
C597 N596 1.346 . S
C597 C598 1.396 . S
C597 C607 1.510 . S
C598 C594 1.401 . S
C598 C597 1.396 . S
C599 C594 1.499 . S
C599 H600 0.959 . S
C599 H601 0.960 . S
C599 H602 0.961 . S
H600 C599 0.959 . S
H601 C599 0.960 . S
H602 C599 0.961 . S
O603 Co578 1.967 . S
O603 C611 1.258 . S
O604 Co579 1.941 . S
O604 C611 1.266 . S
H605 C607 0.959 . S
H606 C607 0.961 . S
C607 C597 1.510 . S
C607 H605 0.959 . S
C607 H606 0.961 . S
C607 H608 0.960 . S
H608 C607 0.960 . S
H609 N589 0.862 . S
O610 Co578 1.920 . S
O610 C583 1.289 . S
C611 O603 1.258 . S
C611 O604 1.266 . S
Co612 O615 1.970 . S
Co612 N629 1.989 . S
Co612 O637 1.967 . S
Co612 O644 1.920 . S
Co613 O616 1.966 . S
Co613 N622 2.022 . S
Co613 N630 1.993 . S
Co613 O638 1.941 . S
C614 O615 1.258 . S
C614 O616 1.263 . S
O615 Co612 1.970 . S
O615 C614 1.258 . S
O616 Co613 1.966 . S
O616 C614 1.263 . S
C617 O618 1.235 . S
C617 O644 1.289 . S
O618 C617 1.235 . S
C619 C621 1.400 . S
C619 N622 1.351 . S
C619 C624 1.501 . S
C620 C621 1.387 . S
C620 N623 1.341 . S
C621 C619 1.400 . S
C621 C620 1.387 . S
N622 Co613 2.022 . S
N622 C619 1.351 . S
N622 N623 1.365 . S
N623 C620 1.341 . S
N623 N622 1.365 . S
N623 H643 0.862 . S
C624 C619 1.501 . S
C624 H625 0.961 . S
C624 H626 0.961 . S
C624 H627 0.960 . S
H625 C624 0.961 . S
H626 C624 0.961 . S
H627 C624 0.960 . S
C628 N629 1.342 . S
C628 C632 1.401 . S
C628 C633 1.499 . S
N629 Co612 1.989 . S
N629 C628 1.342 . S
N629 N630 1.388 . S
N630 Co613 1.993 . S
N630 N629 1.388 . S
N630 C631 1.346 . S
C631 N630 1.346 . S
C631 C632 1.396 . S
C631 C641 1.510 . S
C632 C628 1.401 . S
C632 C631 1.396 . S
C633 C628 1.499 . S
C633 H634 0.959 . S
C633 H635 0.960 . S
C633 H636 0.961 . S
H634 C633 0.959 . S
H635 C633 0.960 . S
H636 C633 0.961 . S
O637 Co612 1.967 . S
O637 C645 1.258 . S
O638 Co613 1.941 . S
O638 C645 1.266 . S
H639 C641 0.959 . S
H640 C641 0.961 . S
C641 C631 1.510 . S
C641 H639 0.959 . S
C641 H640 0.961 . S
C641 H642 0.960 . S
H642 C641 0.960 . S
H643 N623 0.862 . S
O644 Co612 1.920 . S
O644 C617 1.289 . S
C645 O637 1.258 . S
C645 O638 1.266 . S
Co646 O649 1.970 . S
Co646 N663 1.989 . S
Co646 O671 1.967 . S
Co646 O678 1.920 1_655 S
Co647 O650 1.966 . S
Co647 N656 2.022 . S
Co647 N664 1.993 . S
Co647 O672 1.941 . S
C648 O649 1.258 . S
C648 O650 1.263 . S
O649 Co646 1.970 . S
O649 C648 1.258 . S
O650 Co647 1.966 . S
O650 C648 1.263 . S
C651 O652 1.235 . S
C651 O678 1.289 . S
O652 C651 1.235 . S
C653 C655 1.400 . S
C653 N656 1.351 . S
C653 C658 1.501 . S
C654 C655 1.387 . S
C654 N657 1.341 . S
C655 C653 1.400 . S
C655 C654 1.387 . S
N656 Co647 2.022 . S
N656 C653 1.351 . S
N656 N657 1.365 . S
N657 C654 1.341 . S
N657 N656 1.365 . S
N657 H677 0.862 . S
C658 C653 1.501 . S
C658 H659 0.961 . S
C658 H660 0.961 . S
C658 H661 0.960 . S
H659 C658 0.961 . S
H660 C658 0.961 . S
H661 C658 0.960 . S
C662 N663 1.342 . S
C662 C666 1.401 . S
C662 C667 1.499 . S
N663 Co646 1.989 . S
N663 C662 1.342 . S
N663 N664 1.388 . S
N664 Co647 1.993 . S
N664 N663 1.388 . S
N664 C665 1.346 . S
C665 N664 1.346 . S
C665 C666 1.396 . S
C665 C675 1.510 . S
C666 C662 1.401 . S
C666 C665 1.396 . S
C667 C662 1.499 . S
C667 H668 0.959 1_655 S
C667 H669 0.960 . S
C667 H670 0.958 1_655 S
H668 C667 0.959 1_455 S
H669 C667 0.960 . S
H670 C667 0.958 1_455 S
O671 Co646 1.967 . S
O671 C679 1.258 . S
O672 Co647 1.941 . S
O672 C679 1.266 . S
H673 C675 0.959 . S
H674 C675 0.961 . S
C675 C665 1.510 . S
C675 H673 0.959 . S
C675 H674 0.961 . S
C675 H676 0.960 . S
H676 C675 0.960 . S
H677 N657 0.862 . S
O678 Co646 1.920 1_455 S
O678 C651 1.289 . S
C679 O671 1.258 . S
C679 O672 1.266 . S
Co680 O683 1.970 . S
Co680 N697 1.989 . S
Co680 O705 1.967 . S
Co680 O712 1.920 . S
Co681 O684 1.966 . S
Co681 N690 2.022 . S
Co681 N698 1.993 . S
Co681 O706 1.941 . S
C682 O683 1.258 . S
C682 O684 1.263 . S
O683 Co680 1.970 . S
O683 C682 1.258 . S
O684 Co681 1.966 . S
O684 C682 1.263 . S
C685 O686 1.235 . S
C685 O712 1.289 . S
O686 C685 1.235 . S
C687 C689 1.400 . S
C687 N690 1.351 . S
C687 C692 1.501 . S
C688 C689 1.387 . S
C688 N691 1.341 . S
C689 C687 1.400 . S
C689 C688 1.387 . S
N690 Co681 2.022 . S
N690 C687 1.351 . S
N690 N691 1.365 . S
N691 C688 1.341 . S
N691 N690 1.365 . S
N691 H711 0.862 . S
C692 C687 1.501 . S
C692 H693 0.961 . S
C692 H694 0.961 . S
C692 H695 0.960 . S
H693 C692 0.961 . S
H694 C692 0.961 . S
H695 C692 0.960 . S
C696 N697 1.342 . S
C696 C700 1.401 . S
C696 C701 1.499 . S
N697 Co680 1.989 . S
N697 C696 1.342 . S
N697 N698 1.388 . S
N698 Co681 1.993 . S
N698 N697 1.388 . S
N698 C699 1.346 . S
C699 N698 1.346 . S
C699 C700 1.396 . S
C699 C709 1.510 . S
C700 C696 1.401 . S
C700 C699 1.396 . S
C701 C696 1.499 . S
C701 H702 0.959 . S
C701 H703 0.960 . S
C701 H704 0.961 . S
H702 C701 0.959 . S
H703 C701 0.960 . S
H704 C701 0.961 . S
O705 Co680 1.967 . S
O705 C713 1.258 . S
O706 Co681 1.941 . S
O706 C713 1.266 . S
H707 C709 0.959 . S
H708 C709 0.961 . S
C709 C699 1.510 . S
C709 H707 0.959 . S
C709 H708 0.961 . S
C709 H710 0.960 . S
H710 C709 0.960 . S
H711 N691 0.862 . S
O712 Co680 1.920 . S
O712 C685 1.289 . S
C713 O705 1.258 . S
C713 O706 1.266 . S
Co714 O717 1.970 . S
Co714 N731 1.989 . S
Co714 O739 1.967 . S
Co714 O746 1.920 1_655 S
Co715 O718 1.966 . S
Co715 N724 2.022 . S
Co715 N732 1.993 . S
Co715 O740 1.941 . S
C716 O717 1.258 . S
C716 O718 1.263 . S
O717 Co714 1.970 . S
O717 C716 1.258 . S
O718 Co715 1.966 . S
O718 C716 1.263 . S
C719 O720 1.235 . S
C719 O746 1.289 . S
O720 C719 1.235 . S
C721 C723 1.400 . S
C721 N724 1.351 . S
C721 C726 1.501 . S
C722 C723 1.387 . S
C722 N725 1.341 . S
C723 C721 1.400 . S
C723 C722 1.387 . S
N724 Co715 2.022 . S
N724 C721 1.351 . S
N724 N725 1.365 . S
N725 C722 1.341 . S
N725 N724 1.365 . S
N725 H745 0.862 . S
C726 C721 1.501 . S
C726 H727 0.961 . S
C726 H728 0.961 . S
C726 H729 0.960 . S
H727 C726 0.961 . S
H728 C726 0.961 . S
H729 C726 0.960 . S
C730 N731 1.342 . S
C730 C734 1.401 . S
C730 C735 1.499 . S
N731 Co714 1.989 . S
N731 C730 1.342 . S
N731 N732 1.388 . S
N732 Co715 1.993 . S
N732 N731 1.388 . S
N732 C733 1.346 . S
C733 N732 1.346 . S
C733 C734 1.396 . S
C733 C743 1.510 . S
C734 C730 1.401 . S
C734 C733 1.396 . S
C735 C730 1.499 . S
C735 H736 0.959 1_655 S
C735 H737 0.960 . S
C735 H738 0.958 1_655 S
H736 C735 0.959 1_455 S
H737 C735 0.960 . S
H738 C735 0.958 1_455 S
O739 Co714 1.967 . S
O739 C747 1.258 . S
O740 Co715 1.941 . S
O740 C747 1.266 . S
H741 C743 0.959 . S
H742 C743 0.961 . S
C743 C733 1.510 . S
C743 H741 0.959 . S
C743 H742 0.961 . S
C743 H744 0.960 . S
H744 C743 0.960 . S
H745 N725 0.862 . S
O746 Co714 1.920 1_455 S
O746 C719 1.289 . S
C747 O739 1.258 . S
C747 O740 1.266 . S
Co748 O751 1.970 . S
Co748 N765 1.989 . S
Co748 O773 1.967 . S
Co748 O780 1.920 . S
Co749 O752 1.966 . S
Co749 N758 2.022 . S
Co749 N766 1.993 . S
Co749 O774 1.941 . S
C750 O751 1.258 . S
C750 O752 1.263 . S
O751 Co748 1.970 . S
O751 C750 1.258 . S
O752 Co749 1.966 . S
O752 C750 1.263 . S
C753 O754 1.235 . S
C753 O780 1.289 . S
O754 C753 1.235 . S
C755 C757 1.400 . S
C755 N758 1.351 . S
C755 C760 1.501 . S
C756 C757 1.387 . S
C756 N759 1.341 . S
C757 C755 1.400 . S
C757 C756 1.387 . S
N758 Co749 2.022 . S
N758 C755 1.351 . S
N758 N759 1.365 . S
N759 C756 1.341 . S
N759 N758 1.365 . S
N759 H779 0.862 . S
C760 C755 1.501 . S
C760 H761 0.961 . S
C760 H762 0.961 . S
C760 H763 0.960 . S
H761 C760 0.961 . S
H762 C760 0.961 . S
H763 C760 0.960 . S
C764 N765 1.342 . S
C764 C768 1.401 . S
C764 C769 1.499 . S
N765 Co748 1.989 . S
N765 C764 1.342 . S
N765 N766 1.388 . S
N766 Co749 1.993 . S
N766 N765 1.388 . S
N766 C767 1.346 . S
C767 N766 1.346 . S
C767 C768 1.396 . S
C767 C777 1.510 . S
C768 C764 1.401 . S
C768 C767 1.396 . S
C769 C764 1.499 . S
C769 H770 0.959 . S
C769 H771 0.960 . S
C769 H772 0.961 . S
H770 C769 0.959 . S
H771 C769 0.960 . S
H772 C769 0.961 . S
O773 Co748 1.967 . S
O773 C781 1.258 . S
O774 Co749 1.941 . S
O774 C781 1.266 . S
H775 C777 0.959 . S
H776 C777 0.961 . S
C777 C767 1.510 . S
C777 H775 0.959 . S
C777 H776 0.961 . S
C777 H778 0.960 . S
H778 C777 0.960 . S
H779 N759 0.862 . S
O780 Co748 1.920 . S
O780 C753 1.289 . S
C781 O773 1.258 . S
C781 O774 1.266 . S
Co782 O785 1.970 . S
Co782 N799 1.989 . S
Co782 O807 1.967 . S
Co782 O814 1.920 . S
Co783 O786 1.966 . S
Co783 N792 2.022 . S
Co783 N800 1.993 . S
Co783 O808 1.941 . S
C784 O785 1.258 . S
C784 O786 1.263 . S
O785 Co782 1.970 . S
O785 C784 1.258 . S
O786 Co783 1.966 . S
O786 C784 1.263 . S
C787 O788 1.235 . S
C787 O814 1.289 . S
O788 C787 1.235 . S
C789 C791 1.400 . S
C789 N792 1.351 . S
C789 C794 1.501 . S
C790 C791 1.387 . S
C790 N793 1.341 . S
C791 C789 1.400 . S
C791 C790 1.387 . S
N792 Co783 2.022 . S
N792 C789 1.351 . S
N792 N793 1.365 . S
N793 C790 1.341 . S
N793 N792 1.365 . S
N793 H813 0.862 . S
C794 C789 1.501 . S
C794 H795 0.961 . S
C794 H796 0.961 . S
C794 H797 0.960 . S
H795 C794 0.961 . S
H796 C794 0.961 . S
H797 C794 0.960 . S
C798 N799 1.342 . S
C798 C802 1.401 . S
C798 C803 1.499 . S
N799 Co782 1.989 . S
N799 C798 1.342 . S
N799 N800 1.388 . S
N800 Co783 1.993 . S
N800 N799 1.388 . S
N800 C801 1.346 . S
C801 N800 1.346 . S
C801 C802 1.396 . S
C801 C811 1.510 . S
C802 C798 1.401 . S
C802 C801 1.396 . S
C803 C798 1.499 . S
C803 H804 0.959 . S
C803 H805 0.960 . S
C803 H806 0.961 . S
H804 C803 0.959 . S
H805 C803 0.960 . S
H806 C803 0.961 . S
O807 Co782 1.967 . S
O807 C815 1.258 . S
O808 Co783 1.941 . S
O808 C815 1.266 . S
H809 C811 0.959 . S
H810 C811 0.961 . S
C811 C801 1.510 . S
C811 H809 0.959 . S
C811 H810 0.961 . S
C811 H812 0.960 . S
H812 C811 0.960 . S
H813 N793 0.862 . S
O814 Co782 1.920 . S
O814 C787 1.289 . S
C815 O807 1.258 . S
C815 O808 1.266 . S
Co816 O819 1.970 . S
Co816 N833 1.989 . S
Co816 O841 1.967 . S
Co816 O848 1.920 . S
Co817 O820 1.966 . S
Co817 N826 2.022 . S
Co817 N834 1.993 . S
Co817 O842 1.941 . S
C818 O819 1.258 . S
C818 O820 1.263 . S
O819 Co816 1.970 . S
O819 C818 1.258 . S
O820 Co817 1.966 . S
O820 C818 1.263 . S
C821 O822 1.235 . S
C821 O848 1.289 . S
O822 C821 1.235 . S
C823 C825 1.400 . S
C823 N826 1.351 . S
C823 C828 1.501 . S
C824 C825 1.387 . S
C824 N827 1.341 . S
C825 C823 1.400 . S
C825 C824 1.387 . S
N826 Co817 2.022 . S
N826 C823 1.351 . S
N826 N827 1.365 . S
N827 C824 1.341 . S
N827 N826 1.365 . S
N827 H847 0.862 . S
C828 C823 1.501 . S
C828 H829 0.961 . S
C828 H830 0.961 . S
C828 H831 0.960 . S
H829 C828 0.961 . S
H830 C828 0.961 . S
H831 C828 0.960 . S
C832 N833 1.342 . S
C832 C836 1.401 . S
C832 C837 1.499 . S
N833 Co816 1.989 . S
N833 C832 1.342 . S
N833 N834 1.388 . S
N834 Co817 1.993 . S
N834 N833 1.388 . S
N834 C835 1.346 . S
C835 N834 1.346 . S
C835 C836 1.396 . S
C835 C845 1.510 . S
C836 C832 1.401 . S
C836 C835 1.396 . S
C837 C832 1.499 . S
C837 H838 0.959 . S
C837 H839 0.960 . S
C837 H840 0.961 . S
H838 C837 0.959 . S
H839 C837 0.960 . S
H840 C837 0.961 . S
O841 Co816 1.967 . S
O841 C849 1.258 . S
O842 Co817 1.941 . S
O842 C849 1.266 . S
H843 C845 0.959 . S
H844 C845 0.961 . S
C845 C835 1.510 . S
C845 H843 0.959 . S
C845 H844 0.961 . S
C845 H846 0.960 . S
H846 C845 0.960 . S
H847 N827 0.862 . S
O848 Co816 1.920 . S
O848 C821 1.289 . S
C849 O841 1.258 . S
C849 O842 1.266 . S
Co850 O853 1.970 . S
Co850 N867 1.989 . S
Co850 O875 1.967 . S
Co850 O882 1.920 . S
Co851 O854 1.966 . S
Co851 N860 2.022 . S
Co851 N868 1.993 . S
Co851 O876 1.941 . S
C852 O853 1.258 . S
C852 O854 1.263 . S
O853 Co850 1.970 . S
O853 C852 1.258 . S
O854 Co851 1.966 . S
O854 C852 1.263 . S
C855 O856 1.235 . S
C855 O882 1.289 . S
O856 C855 1.235 . S
C857 C859 1.400 . S
C857 N860 1.351 . S
C857 C862 1.501 . S
C858 C859 1.387 . S
C858 N861 1.341 . S
C859 C857 1.400 . S
C859 C858 1.387 . S
N860 Co851 2.022 . S
N860 C857 1.351 . S
N860 N861 1.365 . S
N861 C858 1.341 . S
N861 N860 1.365 . S
N861 H881 0.862 . S
C862 C857 1.501 . S
C862 H863 0.961 . S
C862 H864 0.961 . S
C862 H865 0.960 . S
H863 C862 0.961 . S
H864 C862 0.961 . S
H865 C862 0.960 . S
C866 N867 1.342 . S
C866 C870 1.401 . S
C866 C871 1.499 . S
N867 Co850 1.989 . S
N867 C866 1.342 . S
N867 N868 1.388 . S
N868 Co851 1.993 . S
N868 N867 1.388 . S
N868 C869 1.346 . S
C869 N868 1.346 . S
C869 C870 1.396 . S
C869 C879 1.510 . S
C870 C866 1.401 . S
C870 C869 1.396 . S
C871 C866 1.499 . S
C871 H872 0.959 . S
C871 H873 0.960 . S
C871 H874 0.961 . S
H872 C871 0.959 . S
H873 C871 0.960 . S
H874 C871 0.961 . S
O875 Co850 1.967 . S
O875 C883 1.258 . S
O876 Co851 1.941 . S
O876 C883 1.266 . S
H877 C879 0.959 . S
H878 C879 0.961 . S
C879 C869 1.510 . S
C879 H877 0.959 . S
C879 H878 0.961 . S
C879 H880 0.960 . S
H880 C879 0.960 . S
H881 N861 0.862 . S
O882 Co850 1.920 . S
O882 C855 1.289 . S
C883 O875 1.258 . S
C883 O876 1.266 . S
Co884 O887 1.970 . S
Co884 N901 1.989 . S
Co884 O909 1.967 . S
Co884 O916 1.920 . S
Co885 O888 1.966 . S
Co885 N894 2.022 . S
Co885 N902 1.993 . S
Co885 O910 1.941 . S
C886 O887 1.258 . S
C886 O888 1.263 . S
O887 Co884 1.970 . S
O887 C886 1.258 . S
O888 Co885 1.966 . S
O888 C886 1.263 . S
C889 O890 1.235 . S
C889 O916 1.289 . S
O890 C889 1.235 . S
C891 C893 1.400 . S
C891 N894 1.351 . S
C891 C896 1.501 . S
C892 C893 1.387 . S
C892 N895 1.341 . S
C893 C891 1.400 . S
C893 C892 1.387 . S
N894 Co885 2.022 . S
N894 C891 1.351 . S
N894 N895 1.365 . S
N895 C892 1.341 . S
N895 N894 1.365 . S
N895 H915 0.862 . S
C896 C891 1.501 . S
C896 H897 0.961 . S
C896 H898 0.961 . S
C896 H899 0.960 . S
H897 C896 0.961 . S
H898 C896 0.961 . S
H899 C896 0.960 . S
C900 N901 1.342 . S
C900 C904 1.401 . S
C900 C905 1.499 . S
N901 Co884 1.989 . S
N901 C900 1.342 . S
N901 N902 1.388 . S
N902 Co885 1.993 . S
N902 N901 1.388 . S
N902 C903 1.346 . S
C903 N902 1.346 . S
C903 C904 1.396 . S
C903 C913 1.510 . S
C904 C900 1.401 . S
C904 C903 1.396 . S
C905 C900 1.499 . S
C905 H906 0.959 . S
C905 H907 0.960 . S
C905 H908 0.961 . S
H906 C905 0.959 . S
H907 C905 0.960 . S
H908 C905 0.961 . S
O909 Co884 1.967 . S
O909 C917 1.258 . S
O910 Co885 1.941 . S
O910 C917 1.266 . S
H911 C913 0.959 . S
H912 C913 0.961 . S
C913 C903 1.510 . S
C913 H911 0.959 . S
C913 H912 0.961 . S
C913 H914 0.960 . S
H914 C913 0.960 . S
H915 N895 0.862 . S
O916 Co884 1.920 . S
O916 C889 1.289 . S
C917 O909 1.258 . S
C917 O910 1.266 . S
Co918 O921 1.970 . S
Co918 N935 1.989 . S
Co918 O943 1.967 . S
Co918 O950 1.920 1_455 S
Co919 O922 1.966 . S
Co919 N928 2.022 . S
Co919 N936 1.993 . S
Co919 O944 1.941 . S
C920 O921 1.258 . S
C920 O922 1.263 . S
O921 Co918 1.970 . S
O921 C920 1.258 . S
O922 Co919 1.966 . S
O922 C920 1.263 . S
C923 O924 1.235 . S
C923 O950 1.289 . S
O924 C923 1.235 . S
C925 C927 1.400 . S
C925 N928 1.351 . S
C925 C930 1.501 . S
C926 C927 1.387 . S
C926 N929 1.341 . S
C927 C925 1.400 . S
C927 C926 1.387 . S
N928 Co919 2.022 . S
N928 C925 1.351 . S
N928 N929 1.365 . S
N929 C926 1.341 . S
N929 N928 1.365 . S
N929 H949 0.862 . S
C930 C925 1.501 . S
C930 H931 0.961 . S
C930 H932 0.961 . S
C930 H933 0.960 . S
H931 C930 0.961 . S
H932 C930 0.961 . S
H933 C930 0.960 . S
C934 N935 1.342 . S
C934 C938 1.401 . S
C934 C939 1.499 . S
N935 Co918 1.989 . S
N935 C934 1.342 . S
N935 N936 1.388 . S
N936 Co919 1.993 . S
N936 N935 1.388 . S
N936 C937 1.346 . S
C937 N936 1.346 . S
C937 C938 1.396 . S
C937 C947 1.510 . S
C938 C934 1.401 . S
C938 C937 1.396 . S
C939 C934 1.499 . S
C939 H940 0.959 1_455 S
C939 H941 0.960 . S
C939 H942 0.958 1_455 S
H940 C939 0.959 1_655 S
H941 C939 0.960 . S
H942 C939 0.958 1_655 S
O943 Co918 1.967 . S
O943 C951 1.258 . S
O944 Co919 1.941 . S
O944 C951 1.266 . S
H945 C947 0.959 . S
H946 C947 0.961 . S
C947 C937 1.510 . S
C947 H945 0.959 . S
C947 H946 0.961 . S
C947 H948 0.960 . S
H948 C947 0.960 . S
H949 N929 0.862 . S
O950 Co918 1.920 1_655 S
O950 C923 1.289 . S
C951 O943 1.258 . S
C951 O944 1.266 . S
Co952 O955 1.970 . S
Co952 N969 1.989 . S
Co952 O977 1.967 . S
Co952 O984 1.920 . S
Co953 O956 1.966 . S
Co953 N962 2.022 . S
Co953 N970 1.993 . S
Co953 O978 1.941 . S
C954 O955 1.258 . S
C954 O956 1.263 . S
O955 Co952 1.970 . S
O955 C954 1.258 . S
O956 Co953 1.966 . S
O956 C954 1.263 . S
C957 O958 1.235 . S
C957 O984 1.289 . S
O958 C957 1.235 . S
C959 C961 1.400 . S
C959 N962 1.351 . S
C959 C964 1.501 . S
C960 C961 1.387 . S
C960 N963 1.341 . S
C961 C959 1.400 . S
C961 C960 1.387 . S
N962 Co953 2.022 . S
N962 C959 1.351 . S
N962 N963 1.365 . S
N963 C960 1.341 . S
N963 N962 1.365 . S
N963 H983 0.862 . S
C964 C959 1.501 . S
C964 H965 0.961 . S
C964 H966 0.961 . S
C964 H967 0.960 . S
H965 C964 0.961 . S
H966 C964 0.961 . S
H967 C964 0.960 . S
C968 N969 1.342 . S
C968 C972 1.401 . S
C968 C973 1.499 . S
N969 Co952 1.989 . S
N969 C968 1.342 . S
N969 N970 1.388 . S
N970 Co953 1.993 . S
N970 N969 1.388 . S
N970 C971 1.346 . S
C971 N970 1.346 . S
C971 C972 1.396 . S
C971 C981 1.510 . S
C972 C968 1.401 . S
C972 C971 1.396 . S
C973 C968 1.499 . S
C973 H974 0.959 . S
C973 H975 0.960 . S
C973 H976 0.961 . S
H974 C973 0.959 . S
H975 C973 0.960 . S
H976 C973 0.961 . S
O977 Co952 1.967 . S
O977 C985 1.258 . S
O978 Co953 1.941 . S
O978 C985 1.266 . S
H979 C981 0.959 . S
H980 C981 0.961 . S
C981 C971 1.510 . S
C981 H979 0.959 . S
C981 H980 0.961 . S
C981 H982 0.960 . S
H982 C981 0.960 . S
H983 N963 0.862 . S
O984 Co952 1.920 . S
O984 C957 1.289 . S
C985 O977 1.258 . S
C985 O978 1.266 . S
Co986 O989 1.970 . S
Co986 N1003 1.989 . S
Co986 O1011 1.967 . S
Co986 O1018 1.920 1_455 S
Co987 O990 1.966 . S
Co987 N996 2.022 . S
Co987 N1004 1.993 . S
Co987 O1012 1.941 . S
C988 O989 1.258 . S
C988 O990 1.263 . S
O989 Co986 1.970 . S
O989 C988 1.258 . S
O990 Co987 1.966 . S
O990 C988 1.263 . S
C991 O992 1.235 . S
C991 O1018 1.289 . S
O992 C991 1.235 . S
C993 C995 1.400 . S
C993 N996 1.351 . S
C993 C998 1.501 . S
C994 C995 1.387 . S
C994 N997 1.341 . S
C995 C993 1.400 . S
C995 C994 1.387 . S
N996 Co987 2.022 . S
N996 C993 1.351 . S
N996 N997 1.365 . S
N997 C994 1.341 . S
N997 N996 1.365 . S
N997 H1017 0.862 . S
C998 C993 1.501 . S
C998 H999 0.961 . S
C998 H1000 0.961 . S
C998 H1001 0.960 . S
H999 C998 0.961 . S
H1000 C998 0.961 . S
H1001 C998 0.960 . S
C1002 N1003 1.342 . S
C1002 C1006 1.401 . S
C1002 C1007 1.499 . S
N1003 Co986 1.989 . S
N1003 C1002 1.342 . S
N1003 N1004 1.388 . S
N1004 Co987 1.993 . S
N1004 N1003 1.388 . S
N1004 C1005 1.346 . S
C1005 N1004 1.346 . S
C1005 C1006 1.396 . S
C1005 C1015 1.510 . S
C1006 C1002 1.401 . S
C1006 C1005 1.396 . S
C1007 C1002 1.499 . S
C1007 H1008 0.959 1_455 S
C1007 H1009 0.960 . S
C1007 H1010 0.958 1_455 S
H1008 C1007 0.959 1_655 S
H1009 C1007 0.960 . S
H1010 C1007 0.958 1_655 S
O1011 Co986 1.967 . S
O1011 C1019 1.258 . S
O1012 Co987 1.941 . S
O1012 C1019 1.266 . S
H1013 C1015 0.959 . S
H1014 C1015 0.961 . S
C1015 C1005 1.510 . S
C1015 H1013 0.959 . S
C1015 H1014 0.961 . S
C1015 H1016 0.960 . S
H1016 C1015 0.960 . S
H1017 N997 0.862 . S
O1018 Co986 1.920 1_655 S
O1018 C991 1.289 . S
C1019 O1011 1.258 . S
C1019 O1012 1.266 . S
Co1020 O1023 1.970 . S
Co1020 N1037 1.989 . S
Co1020 O1045 1.967 . S
Co1020 O1052 1.920 . S
Co1021 O1024 1.966 . S
Co1021 N1030 2.022 . S
Co1021 N1038 1.993 . S
Co1021 O1046 1.941 . S
C1022 O1023 1.258 . S
C1022 O1024 1.263 . S
O1023 Co1020 1.970 . S
O1023 C1022 1.258 . S
O1024 Co1021 1.966 . S
O1024 C1022 1.263 . S
C1025 O1026 1.235 . S
C1025 O1052 1.289 . S
O1026 C1025 1.235 . S
C1027 C1029 1.400 . S
C1027 N1030 1.351 . S
C1027 C1032 1.501 . S
C1028 C1029 1.387 . S
C1028 N1031 1.341 . S
C1029 C1027 1.400 . S
C1029 C1028 1.387 . S
N1030 Co1021 2.022 . S
N1030 C1027 1.351 . S
N1030 N1031 1.365 . S
N1031 C1028 1.341 . S
N1031 N1030 1.365 . S
N1031 H1051 0.862 . S
C1032 C1027 1.501 . S
C1032 H1033 0.961 . S
C1032 H1034 0.961 . S
C1032 H1035 0.960 . S
H1033 C1032 0.961 . S
H1034 C1032 0.961 . S
H1035 C1032 0.960 . S
C1036 N1037 1.342 . S
C1036 C1040 1.401 . S
C1036 C1041 1.499 . S
N1037 Co1020 1.989 . S
N1037 C1036 1.342 . S
N1037 N1038 1.388 . S
N1038 Co1021 1.993 . S
N1038 N1037 1.388 . S
N1038 C1039 1.346 . S
C1039 N1038 1.346 . S
C1039 C1040 1.396 . S
C1039 C1049 1.510 . S
C1040 C1036 1.401 . S
C1040 C1039 1.396 . S
C1041 C1036 1.499 . S
C1041 H1042 0.959 . S
C1041 H1043 0.960 . S
C1041 H1044 0.961 . S
H1042 C1041 0.959 . S
H1043 C1041 0.960 . S
H1044 C1041 0.961 . S
O1045 Co1020 1.967 . S
O1045 C1053 1.258 . S
O1046 Co1021 1.941 . S
O1046 C1053 1.266 . S
H1047 C1049 0.959 . S
H1048 C1049 0.961 . S
C1049 C1039 1.510 . S
C1049 H1047 0.959 . S
C1049 H1048 0.961 . S
C1049 H1050 0.960 . S
H1050 C1049 0.960 . S
H1051 N1031 0.862 . S
O1052 Co1020 1.920 . S
O1052 C1025 1.289 . S
C1053 O1045 1.258 . S
C1053 O1046 1.266 . S
Co1054 O1057 1.970 . S
Co1054 N1071 1.989 . S
Co1054 O1079 1.967 . S
Co1054 O1086 1.920 . S
Co1055 O1058 1.966 . S
Co1055 N1064 2.022 . S
Co1055 N1072 1.993 . S
Co1055 O1080 1.941 . S
C1056 O1057 1.258 . S
C1056 O1058 1.263 . S
O1057 Co1054 1.970 . S
O1057 C1056 1.258 . S
O1058 Co1055 1.966 . S
O1058 C1056 1.263 . S
C1059 O1060 1.235 . S
C1059 O1086 1.289 . S
O1060 C1059 1.235 . S
C1061 C1063 1.400 . S
C1061 N1064 1.351 . S
C1061 C1066 1.501 . S
C1062 C1063 1.387 . S
C1062 N1065 1.341 . S
C1063 C1061 1.400 . S
C1063 C1062 1.387 . S
N1064 Co1055 2.022 . S
N1064 C1061 1.351 . S
N1064 N1065 1.365 . S
N1065 C1062 1.341 . S
N1065 N1064 1.365 . S
N1065 H1085 0.862 . S
C1066 C1061 1.501 . S
C1066 H1067 0.961 . S
C1066 H1068 0.961 . S
C1066 H1069 0.960 . S
H1067 C1066 0.961 . S
H1068 C1066 0.961 . S
H1069 C1066 0.960 . S
C1070 N1071 1.342 . S
C1070 C1074 1.401 . S
C1070 C1075 1.499 . S
N1071 Co1054 1.989 . S
N1071 C1070 1.342 . S
N1071 N1072 1.388 . S
N1072 Co1055 1.993 . S
N1072 N1071 1.388 . S
N1072 C1073 1.346 . S
C1073 N1072 1.346 . S
C1073 C1074 1.396 . S
C1073 C1083 1.510 . S
C1074 C1070 1.401 . S
C1074 C1073 1.396 . S
C1075 C1070 1.499 . S
C1075 H1076 0.959 . S
C1075 H1077 0.960 . S
C1075 H1078 0.961 . S
H1076 C1075 0.959 . S
H1077 C1075 0.960 . S
H1078 C1075 0.961 . S
O1079 Co1054 1.967 . S
O1079 C1087 1.258 . S
O1080 Co1055 1.941 . S
O1080 C1087 1.266 . S
H1081 C1083 0.959 . S
H1082 C1083 0.961 . S
C1083 C1073 1.510 . S
C1083 H1081 0.959 . S
C1083 H1082 0.961 . S
C1083 H1084 0.960 . S
H1084 C1083 0.960 . S
H1085 N1065 0.862 . S
O1086 Co1054 1.920 . S
O1086 C1059 1.289 . S
C1087 O1079 1.258 . S
C1087 O1080 1.266 . S
H1088 C1094 0.930 . S
H1089 C1097 0.930 . S
H1090 C1098 0.930 . S
H1091 C1099 0.930 . S
H1092 C1102 0.930 . S
H1093 C1103 0.930 . S
C1094 H1088 0.930 . S
C1094 C1095 1.355 . S
C1094 C1096 1.415 . S
C1095 C1094 1.355 . S
C1095 C1097 1.419 . S
C1096 C1094 1.415 . S
C1096 C1101 1.425 . S
C1096 C1103 1.409 . S
C1097 H1089 0.930 . S
C1097 C1095 1.419 . S
C1097 C1098 1.362 . S
C1098 H1090 0.930 . S
C1098 C1097 1.362 . S
C1098 C1101 1.409 . S
C1099 H1091 0.930 . S
C1099 C1100 1.355 . S
C1099 C1101 1.415 . S
C1100 C1099 1.355 . S
C1100 C1102 1.419 . S
C1101 C1096 1.425 . S
C1101 C1098 1.409 . S
C1101 C1099 1.415 . S
C1102 H1092 0.930 . S
C1102 C1100 1.419 . S
C1102 C1103 1.362 . S
C1103 H1093 0.930 . S
C1103 C1096 1.409 . S
C1103 C1102 1.362 . S
H1104 C1110 0.930 . S
H1105 C1113 0.930 . S
H1106 C1114 0.930 . S
H1107 C1115 0.930 . S
H1108 C1118 0.930 . S
H1109 C1119 0.930 . S
C1110 H1104 0.930 . S
C1110 C1111 1.355 . S
C1110 C1112 1.415 . S
C1111 C1110 1.355 . S
C1111 C1113 1.419 . S
C1112 C1110 1.415 . S
C1112 C1117 1.425 . S
C1112 C1119 1.409 . S
C1113 H1105 0.930 . S
C1113 C1111 1.419 . S
C1113 C1114 1.362 . S
C1114 H1106 0.930 . S
C1114 C1113 1.362 . S
C1114 C1117 1.409 . S
C1115 H1107 0.930 . S
C1115 C1116 1.355 . S
C1115 C1117 1.415 . S
C1116 C1115 1.355 . S
C1116 C1118 1.419 . S
C1117 C1112 1.425 . S
C1117 C1114 1.409 . S
C1117 C1115 1.415 . S
C1118 H1108 0.930 . S
C1118 C1116 1.419 . S
C1118 C1119 1.362 . S
C1119 H1109 0.930 . S
C1119 C1112 1.409 . S
C1119 C1118 1.362 . S
H1120 C1126 0.930 . S
H1121 C1129 0.930 . S
H1122 C1130 0.930 . S
H1123 C1131 0.930 . S
H1124 C1134 0.930 . S
H1125 C1135 0.930 . S
C1126 H1120 0.930 . S
C1126 C1127 1.355 . S
C1126 C1128 1.415 . S
C1127 C1126 1.355 . S
C1127 C1129 1.419 . S
C1128 C1126 1.415 . S
C1128 C1133 1.425 . S
C1128 C1135 1.409 . S
C1129 H1121 0.930 . S
C1129 C1127 1.419 . S
C1129 C1130 1.362 . S
C1130 H1122 0.930 . S
C1130 C1129 1.362 . S
C1130 C1133 1.409 . S
C1131 H1123 0.930 . S
C1131 C1132 1.355 . S
C1131 C1133 1.415 . S
C1132 C1131 1.355 . S
C1132 C1134 1.419 . S
C1133 C1128 1.425 . S
C1133 C1130 1.409 . S
C1133 C1131 1.415 . S
C1134 H1124 0.930 . S
C1134 C1132 1.419 . S
C1134 C1135 1.362 . S
C1135 H1125 0.930 . S
C1135 C1128 1.409 . S
C1135 C1134 1.362 . S
H1136 C1142 0.930 . S
H1137 C1145 0.930 . S
H1138 C1146 0.930 . S
H1139 C1147 0.930 . S
H1140 C1150 0.930 . S
H1141 C1151 0.930 . S
C1142 H1136 0.930 . S
C1142 C1143 1.355 . S
C1142 C1144 1.415 . S
C1143 C1142 1.355 . S
C1143 C1145 1.419 . S
C1144 C1142 1.415 . S
C1144 C1149 1.425 . S
C1144 C1151 1.409 . S
C1145 H1137 0.930 . S
C1145 C1143 1.419 . S
C1145 C1146 1.362 . S
C1146 H1138 0.930 . S
C1146 C1145 1.362 . S
C1146 C1149 1.409 . S
C1147 H1139 0.930 . S
C1147 C1148 1.355 . S
C1147 C1149 1.415 . S
C1148 C1147 1.355 . S
C1148 C1150 1.419 . S
C1149 C1144 1.425 . S
C1149 C1146 1.409 . S
C1149 C1147 1.415 . S
C1150 H1140 0.930 . S
C1150 C1148 1.419 . S
C1150 C1151 1.362 . S
C1151 H1141 0.930 . S
C1151 C1144 1.409 . S
C1151 C1150 1.362 . S
H1152 C1158 0.930 . S
H1153 C1161 0.930 . S
H1154 C1162 0.930 . S
H1155 C1163 0.930 . S
H1156 C1166 0.930 . S
H1157 C1167 0.930 . S
C1158 H1152 0.930 . S
C1158 C1159 1.355 . S
C1158 C1160 1.415 . S
C1159 C1158 1.355 . S
C1159 C1161 1.419 . S
C1160 C1158 1.415 . S
C1160 C1165 1.425 . S
C1160 C1167 1.409 . S
C1161 H1153 0.930 . S
C1161 C1159 1.419 . S
C1161 C1162 1.362 . S
C1162 H1154 0.930 . S
C1162 C1161 1.362 . S
C1162 C1165 1.409 . S
C1163 H1155 0.930 . S
C1163 C1164 1.355 . S
C1163 C1165 1.415 . S
C1164 C1163 1.355 . S
C1164 C1166 1.419 . S
C1165 C1160 1.425 . S
C1165 C1162 1.409 . S
C1165 C1163 1.415 . S
C1166 H1156 0.930 . S
C1166 C1164 1.419 . S
C1166 C1167 1.362 . S
C1167 H1157 0.930 . S
C1167 C1160 1.409 . S
C1167 C1166 1.362 . S
H1168 C1174 0.930 . S
H1169 C1177 0.930 . S
H1170 C1178 0.930 . S
H1171 C1179 0.930 . S
H1172 C1182 0.930 . S
H1173 C1183 0.930 . S
C1174 H1168 0.930 . S
C1174 C1175 1.355 . S
C1174 C1176 1.415 . S
C1175 C1174 1.355 . S
C1175 C1177 1.419 . S
C1176 C1174 1.415 . S
C1176 C1181 1.425 . S
C1176 C1183 1.409 . S
C1177 H1169 0.930 . S
C1177 C1175 1.419 . S
C1177 C1178 1.362 . S
C1178 H1170 0.930 . S
C1178 C1177 1.362 . S
C1178 C1181 1.409 . S
C1179 H1171 0.930 . S
C1179 C1180 1.355 . S
C1179 C1181 1.415 . S
C1180 C1179 1.355 . S
C1180 C1182 1.419 . S
C1181 C1176 1.425 . S
C1181 C1178 1.409 . S
C1181 C1179 1.415 . S
C1182 H1172 0.930 . S
C1182 C1180 1.419 . S
C1182 C1183 1.362 . S
C1183 H1173 0.930 . S
C1183 C1176 1.409 . S
C1183 C1182 1.362 . S
H1184 C1190 0.930 . S
H1185 C1193 0.930 . S
H1186 C1194 0.930 . S
H1187 C1195 0.930 . S
H1188 C1198 0.930 . S
H1189 C1199 0.930 . S
C1190 H1184 0.930 . S
C1190 C1191 1.355 . S
C1190 C1192 1.415 . S
C1191 C1190 1.355 . S
C1191 C1193 1.419 . S
C1192 C1190 1.415 . S
C1192 C1197 1.425 . S
C1192 C1199 1.409 . S
C1193 H1185 0.930 . S
C1193 C1191 1.419 . S
C1193 C1194 1.362 . S
C1194 H1186 0.930 . S
C1194 C1193 1.362 . S
C1194 C1197 1.409 . S
C1195 H1187 0.930 . S
C1195 C1196 1.355 . S
C1195 C1197 1.415 . S
C1196 C1195 1.355 . S
C1196 C1198 1.419 . S
C1197 C1192 1.425 . S
C1197 C1194 1.409 . S
C1197 C1195 1.415 . S
C1198 H1188 0.930 . S
C1198 C1196 1.419 . S
C1198 C1199 1.362 . S
C1199 H1189 0.930 . S
C1199 C1192 1.409 . S
C1199 C1198 1.362 . S
H1200 C1206 0.930 . S
H1201 C1209 0.930 . S
H1202 C1210 0.930 . S
H1203 C1211 0.930 . S
H1204 C1214 0.930 . S
H1205 C1215 0.930 . S
C1206 H1200 0.930 . S
C1206 C1207 1.355 . S
C1206 C1208 1.415 . S
C1207 C1206 1.355 . S
C1207 C1209 1.419 . S
C1208 C1206 1.415 . S
C1208 C1213 1.425 . S
C1208 C1215 1.409 . S
C1209 H1201 0.930 . S
C1209 C1207 1.419 . S
C1209 C1210 1.362 . S
C1210 H1202 0.930 . S
C1210 C1209 1.362 . S
C1210 C1213 1.409 . S
C1211 H1203 0.930 . S
C1211 C1212 1.355 . S
C1211 C1213 1.415 . S
C1212 C1211 1.355 . S
C1212 C1214 1.419 . S
C1213 C1208 1.425 . S
C1213 C1210 1.409 . S
C1213 C1211 1.415 . S
C1214 H1204 0.930 . S
C1214 C1212 1.419 . S
C1214 C1215 1.362 . S
C1215 H1205 0.930 . S
C1215 C1208 1.409 . S
C1215 C1214 1.362 . S
H1216 C1222 0.930 . S
H1217 C1225 0.930 . S
H1218 C1226 0.930 . S
H1219 C1227 0.930 . S
H1220 C1230 0.930 . S
H1221 C1231 0.930 . S
C1222 H1216 0.930 . S
C1222 C1223 1.355 . S
C1222 C1224 1.415 . S
C1223 C1222 1.355 . S
C1223 C1225 1.419 . S
C1224 C1222 1.415 . S
C1224 C1229 1.425 . S
C1224 C1231 1.409 . S
C1225 H1217 0.930 . S
C1225 C1223 1.419 . S
C1225 C1226 1.362 . S
C1226 H1218 0.930 . S
C1226 C1225 1.362 . S
C1226 C1229 1.409 . S
C1227 H1219 0.930 . S
C1227 C1228 1.355 . S
C1227 C1229 1.415 . S
C1228 C1227 1.355 . S
C1228 C1230 1.419 . S
C1229 C1224 1.425 . S
C1229 C1226 1.409 . S
C1229 C1227 1.415 . S
C1230 H1220 0.930 . S
C1230 C1228 1.419 . S
C1230 C1231 1.362 . S
C1231 H1221 0.930 . S
C1231 C1224 1.409 . S
C1231 C1230 1.362 . S
H1232 C1238 0.930 . S
H1233 C1241 0.930 . S
H1234 C1242 0.930 . S
H1235 C1243 0.930 . S
H1236 C1246 0.930 . S
H1237 C1247 0.930 . S
C1238 H1232 0.930 . S
C1238 C1239 1.355 . S
C1238 C1240 1.415 . S
C1239 C1238 1.355 . S
C1239 C1241 1.419 . S
C1240 C1238 1.415 . S
C1240 C1245 1.425 . S
C1240 C1247 1.409 . S
C1241 H1233 0.930 . S
C1241 C1239 1.419 . S
C1241 C1242 1.362 . S
C1242 H1234 0.930 . S
C1242 C1241 1.362 . S
C1242 C1245 1.409 . S
C1243 H1235 0.930 . S
C1243 C1244 1.355 . S
C1243 C1245 1.415 . S
C1244 C1243 1.355 . S
C1244 C1246 1.419 . S
C1245 C1240 1.425 . S
C1245 C1242 1.409 . S
C1245 C1243 1.415 . S
C1246 H1236 0.930 . S
C1246 C1244 1.419 . S
C1246 C1247 1.362 . S
C1247 H1237 0.930 . S
C1247 C1240 1.409 . S
C1247 C1246 1.362 . S
H1248 C1254 0.930 . S
H1249 C1257 0.930 . S
H1250 C1258 0.930 . S
H1251 C1259 0.930 . S
H1252 C1262 0.930 . S
H1253 C1263 0.930 . S
C1254 H1248 0.930 . S
C1254 C1255 1.355 . S
C1254 C1256 1.415 . S
C1255 C1254 1.355 . S
C1255 C1257 1.419 . S
C1256 C1254 1.415 . S
C1256 C1261 1.425 . S
C1256 C1263 1.409 . S
C1257 H1249 0.930 . S
C1257 C1255 1.419 . S
C1257 C1258 1.362 . S
C1258 H1250 0.930 . S
C1258 C1257 1.362 . S
C1258 C1261 1.409 . S
C1259 H1251 0.930 . S
C1259 C1260 1.355 . S
C1259 C1261 1.415 . S
C1260 C1259 1.355 . S
C1260 C1262 1.419 . S
C1261 C1256 1.425 . S
C1261 C1258 1.409 . S
C1261 C1259 1.415 . S
C1262 H1252 0.930 . S
C1262 C1260 1.419 . S
C1262 C1263 1.362 . S
C1263 H1253 0.930 . S
C1263 C1256 1.409 . S
C1263 C1262 1.362 . S
H1264 C1270 0.930 . S
H1265 C1273 0.930 . S
H1266 C1274 0.930 . S
H1267 C1275 0.930 . S
H1268 C1278 0.930 . S
H1269 C1279 0.930 . S
C1270 H1264 0.930 . S
C1270 C1271 1.355 . S
C1270 C1272 1.415 . S
C1271 C1270 1.355 . S
C1271 C1273 1.419 . S
C1272 C1270 1.415 . S
C1272 C1277 1.425 . S
C1272 C1279 1.409 . S
C1273 H1265 0.930 . S
C1273 C1271 1.419 . S
C1273 C1274 1.362 . S
C1274 H1266 0.930 . S
C1274 C1273 1.362 . S
C1274 C1277 1.409 . S
C1275 H1267 0.930 . S
C1275 C1276 1.355 . S
C1275 C1277 1.415 . S
C1276 C1275 1.355 . S
C1276 C1278 1.419 . S
C1277 C1272 1.425 . S
C1277 C1274 1.409 . S
C1277 C1275 1.415 . S
C1278 H1268 0.930 . S
C1278 C1276 1.419 . S
C1278 C1279 1.362 . S
C1279 H1269 0.930 . S
C1279 C1272 1.409 . S
C1279 C1278 1.362 . S
H1280 C1286 0.930 . S
H1281 C1289 0.930 . S
H1282 C1290 0.930 . S
H1283 C1291 0.930 . S
H1284 C1294 0.930 . S
H1285 C1295 0.930 . S
C1286 H1280 0.930 . S
C1286 C1287 1.355 . S
C1286 C1288 1.415 . S
C1287 C1286 1.355 . S
C1287 C1289 1.419 . S
C1288 C1286 1.415 . S
C1288 C1293 1.425 . S
C1288 C1295 1.409 . S
C1289 H1281 0.930 . S
C1289 C1287 1.419 . S
C1289 C1290 1.362 . S
C1290 H1282 0.930 . S
C1290 C1289 1.362 . S
C1290 C1293 1.409 . S
C1291 H1283 0.930 . S
C1291 C1292 1.355 . S
C1291 C1293 1.415 . S
C1292 C1291 1.355 . S
C1292 C1294 1.419 . S
C1293 C1288 1.425 . S
C1293 C1290 1.409 . S
C1293 C1291 1.415 . S
C1294 H1284 0.930 . S
C1294 C1292 1.419 . S
C1294 C1295 1.362 . S
C1295 H1285 0.930 . S
C1295 C1288 1.409 . S
C1295 C1294 1.362 . S
H1296 C1302 0.930 . S
H1297 C1305 0.930 . S
H1298 C1306 0.930 . S
H1299 C1307 0.930 . S
H1300 C1310 0.930 . S
H1301 C1311 0.930 . S
C1302 H1296 0.930 . S
C1302 C1303 1.355 . S
C1302 C1304 1.415 . S
C1303 C1302 1.355 . S
C1303 C1305 1.419 . S
C1304 C1302 1.415 . S
C1304 C1309 1.425 . S
C1304 C1311 1.409 . S
C1305 H1297 0.930 . S
C1305 C1303 1.419 . S
C1305 C1306 1.362 . S
C1306 H1298 0.930 . S
C1306 C1305 1.362 . S
C1306 C1309 1.409 . S
C1307 H1299 0.930 . S
C1307 C1308 1.355 . S
C1307 C1309 1.415 . S
C1308 C1307 1.355 . S
C1308 C1310 1.419 . S
C1309 C1304 1.425 . S
C1309 C1306 1.409 . S
C1309 C1307 1.415 . S
C1310 H1300 0.930 . S
C1310 C1308 1.419 . S
C1310 C1311 1.362 . S
C1311 H1301 0.930 . S
C1311 C1304 1.409 . S
C1311 C1310 1.362 . S
H1312 C1318 0.930 . S
H1313 C1321 0.930 . S
H1314 C1322 0.930 . S
H1315 C1323 0.930 . S
H1316 C1326 0.930 . S
H1317 C1327 0.930 . S
C1318 H1312 0.930 . S
C1318 C1319 1.355 . S
C1318 C1320 1.415 . S
C1319 C1318 1.355 . S
C1319 C1321 1.419 . S
C1320 C1318 1.415 . S
C1320 C1325 1.425 . S
C1320 C1327 1.409 . S
C1321 H1313 0.930 . S
C1321 C1319 1.419 . S
C1321 C1322 1.362 . S
C1322 H1314 0.930 . S
C1322 C1321 1.362 . S
C1322 C1325 1.409 . S
C1323 H1315 0.930 . S
C1323 C1324 1.355 . S
C1323 C1325 1.415 . S
C1324 C1323 1.355 . S
C1324 C1326 1.419 . S
C1325 C1320 1.425 . S
C1325 C1322 1.409 . S
C1325 C1323 1.415 . S
C1326 H1316 0.930 . S
C1326 C1324 1.419 . S
C1326 C1327 1.362 . S
C1327 H1317 0.930 . S
C1327 C1320 1.409 . S
C1327 C1326 1.362 . S
H1328 C1334 0.930 . S
H1329 C1337 0.930 . S
H1330 C1338 0.930 . S
H1331 C1339 0.930 . S
H1332 C1342 0.930 . S
H1333 C1343 0.930 . S
C1334 H1328 0.930 . S
C1334 C1335 1.355 . S
C1334 C1336 1.415 . S
C1335 C1334 1.355 . S
C1335 C1337 1.419 . S
C1336 C1334 1.415 . S
C1336 C1341 1.425 . S
C1336 C1343 1.409 . S
C1337 H1329 0.930 . S
C1337 C1335 1.419 . S
C1337 C1338 1.362 . S
C1338 H1330 0.930 . S
C1338 C1337 1.362 . S
C1338 C1341 1.409 . S
C1339 H1331 0.930 . S
C1339 C1340 1.355 . S
C1339 C1341 1.415 . S
C1340 C1339 1.355 . S
C1340 C1342 1.419 . S
C1341 C1336 1.425 . S
C1341 C1338 1.409 . S
C1341 C1339 1.415 . S
C1342 H1332 0.930 . S
C1342 C1340 1.419 . S
C1342 C1343 1.362 . S
C1343 H1333 0.930 . S
C1343 C1336 1.409 . S
C1343 C1342 1.362 . S
H1344 C1350 0.930 . S
H1345 C1353 0.930 . S
H1346 C1354 0.930 . S
H1347 C1355 0.930 . S
H1348 C1358 0.930 . S
H1349 C1359 0.930 . S
C1350 H1344 0.930 . S
C1350 C1351 1.355 . S
C1350 C1352 1.415 . S
C1351 C1350 1.355 . S
C1351 C1353 1.419 . S
C1352 C1350 1.415 . S
C1352 C1357 1.425 1_556 S
C1352 C1359 1.409 1_556 S
C1353 H1345 0.930 . S
C1353 C1351 1.419 . S
C1353 C1354 1.362 . S
C1354 H1346 0.930 . S
C1354 C1353 1.362 . S
C1354 C1357 1.409 1_556 S
C1355 H1347 0.930 . S
C1355 C1356 1.355 . S
C1355 C1357 1.415 . S
C1356 C1355 1.355 . S
C1356 C1358 1.419 . S
C1357 C1352 1.425 1_554 S
C1357 C1354 1.409 1_554 S
C1357 C1355 1.415 . S
C1358 H1348 0.930 . S
C1358 C1356 1.419 . S
C1358 C1359 1.362 . S
C1359 H1349 0.930 . S
C1359 C1352 1.409 1_554 S
C1359 C1358 1.362 . S
H1360 C1366 0.930 . S
H1361 C1369 0.930 . S
H1362 C1370 0.930 . S
H1363 C1371 0.930 . S
H1364 C1374 0.930 . S
H1365 C1375 0.930 . S
C1366 H1360 0.930 . S
C1366 C1367 1.355 1_565 S
C1366 C1368 1.415 . S
C1367 C1366 1.355 1_545 S
C1367 C1369 1.419 . S
C1368 C1366 1.415 . S
C1368 C1373 1.425 1_565 S
C1368 C1375 1.409 . S
C1369 H1361 0.930 . S
C1369 C1367 1.419 . S
C1369 C1370 1.362 . S
C1370 H1362 0.930 . S
C1370 C1369 1.362 . S
C1370 C1373 1.409 . S
C1371 H1363 0.930 . S
C1371 C1372 1.355 1_545 S
C1371 C1373 1.415 . S
C1372 C1371 1.355 1_565 S
C1372 C1374 1.419 . S
C1373 C1368 1.425 1_545 S
C1373 C1370 1.409 . S
C1373 C1371 1.415 . S
C1374 H1364 0.930 . S
C1374 C1372 1.419 . S
C1374 C1375 1.362 . S
C1375 H1365 0.930 . S
C1375 C1368 1.409 . S
C1375 C1374 1.362 . S
H1376 C1382 0.930 . S
H1377 C1385 0.930 . S
H1378 C1386 0.930 . S
H1379 C1387 0.930 . S
H1380 C1390 0.930 . S
H1381 C1391 0.930 . S
C1382 H1376 0.930 . S
C1382 C1383 1.355 . S
C1382 C1384 1.415 . S
C1383 C1382 1.355 . S
C1383 C1385 1.419 . S
C1384 C1382 1.415 . S
C1384 C1389 1.425 . S
C1384 C1391 1.409 . S
C1385 H1377 0.930 . S
C1385 C1383 1.419 . S
C1385 C1386 1.362 . S
C1386 H1378 0.930 . S
C1386 C1385 1.362 . S
C1386 C1389 1.409 . S
C1387 H1379 0.930 . S
C1387 C1388 1.355 . S
C1387 C1389 1.415 . S
C1388 C1387 1.355 . S
C1388 C1390 1.419 . S
C1389 C1384 1.425 . S
C1389 C1386 1.409 . S
C1389 C1387 1.415 . S
C1390 H1380 0.930 . S
C1390 C1388 1.419 . S
C1390 C1391 1.362 . S
C1391 H1381 0.930 . S
C1391 C1384 1.409 . S
C1391 C1390 1.362 . S
H1392 C1398 0.930 . S
H1393 C1401 0.930 . S
H1394 C1402 0.930 . S
H1395 C1403 0.930 . S
H1396 C1406 0.930 . S
H1397 C1407 0.930 . S
C1398 H1392 0.930 . S
C1398 C1399 1.355 . S
C1398 C1400 1.415 . S
C1399 C1398 1.355 . S
C1399 C1401 1.419 1_565 S
C1400 C1398 1.415 . S
C1400 C1405 1.425 1_565 S
C1400 C1407 1.409 . S
C1401 H1393 0.930 . S
C1401 C1399 1.419 1_545 S
C1401 C1402 1.362 . S
C1402 H1394 0.930 . S
C1402 C1401 1.362 . S
C1402 C1405 1.409 . S
C1403 H1395 0.930 . S
C1403 C1404 1.355 . S
C1403 C1405 1.415 . S
C1404 C1403 1.355 . S
C1404 C1406 1.419 1_545 S
C1405 C1400 1.425 1_545 S
C1405 C1402 1.409 . S
C1405 C1403 1.415 . S
C1406 H1396 0.930 . S
C1406 C1404 1.419 1_565 S
C1406 C1407 1.362 . S
C1407 H1397 0.930 . S
C1407 C1400 1.409 . S
C1407 C1406 1.362 . S
H1408 C1414 0.930 . S
H1409 C1417 0.930 . S
H1410 C1418 0.930 . S
H1411 C1419 0.930 . S
H1412 C1422 0.930 . S
H1413 C1423 0.930 . S
C1414 H1408 0.930 . S
C1414 C1415 1.355 . S
C1414 C1416 1.415 . S
C1415 C1414 1.355 . S
C1415 C1417 1.419 . S
C1416 C1414 1.415 . S
C1416 C1421 1.425 1_556 S
C1416 C1423 1.409 1_556 S
C1417 H1409 0.930 . S
C1417 C1415 1.419 . S
C1417 C1418 1.362 . S
C1418 H1410 0.930 . S
C1418 C1417 1.362 . S
C1418 C1421 1.409 1_556 S
C1419 H1411 0.930 . S
C1419 C1420 1.355 . S
C1419 C1421 1.415 . S
C1420 C1419 1.355 . S
C1420 C1422 1.419 . S
C1421 C1416 1.425 1_554 S
C1421 C1418 1.409 1_554 S
C1421 C1419 1.415 . S
C1422 H1412 0.930 . S
C1422 C1420 1.419 . S
C1422 C1423 1.362 . S
C1423 H1413 0.930 . S
C1423 C1416 1.409 1_554 S
C1423 C1422 1.362 . S
H1424 C1430 0.930 . S
H1425 C1433 0.930 . S
H1426 C1434 0.930 . S
H1427 C1435 0.930 . S
H1428 C1438 0.930 . S
H1429 C1439 0.930 . S
C1430 H1424 0.930 . S
C1430 C1431 1.355 1_565 S
C1430 C1432 1.415 . S
C1431 C1430 1.355 1_545 S
C1431 C1433 1.419 . S
C1432 C1430 1.415 . S
C1432 C1437 1.425 1_565 S
C1432 C1439 1.409 . S
C1433 H1425 0.930 . S
C1433 C1431 1.419 . S
C1433 C1434 1.362 . S
C1434 H1426 0.930 . S
C1434 C1433 1.362 . S
C1434 C1437 1.409 . S
C1435 H1427 0.930 . S
C1435 C1436 1.355 1_545 S
C1435 C1437 1.415 . S
C1436 C1435 1.355 1_565 S
C1436 C1438 1.419 . S
C1437 C1432 1.425 1_545 S
C1437 C1434 1.409 . S
C1437 C1435 1.415 . S
C1438 H1428 0.930 . S
C1438 C1436 1.419 . S
C1438 C1439 1.362 . S
C1439 H1429 0.930 . S
C1439 C1432 1.409 . S
C1439 C1438 1.362 . S
H1440 C1446 0.930 . S
H1441 C1449 0.930 . S
H1442 C1450 0.930 . S
H1443 C1451 0.930 . S
H1444 C1454 0.930 . S
H1445 C1455 0.930 . S
C1446 H1440 0.930 . S
C1446 C1447 1.355 . S
C1446 C1448 1.415 . S
C1447 C1446 1.355 . S
C1447 C1449 1.419 . S
C1448 C1446 1.415 . S
C1448 C1453 1.425 . S
C1448 C1455 1.409 . S
C1449 H1441 0.930 . S
C1449 C1447 1.419 . S
C1449 C1450 1.362 . S
C1450 H1442 0.930 . S
C1450 C1449 1.362 . S
C1450 C1453 1.409 . S
C1451 H1443 0.930 . S
C1451 C1452 1.355 . S
C1451 C1453 1.415 . S
C1452 C1451 1.355 . S
C1452 C1454 1.419 . S
C1453 C1448 1.425 . S
C1453 C1450 1.409 . S
C1453 C1451 1.415 . S
C1454 H1444 0.930 . S
C1454 C1452 1.419 . S
C1454 C1455 1.362 . S
C1455 H1445 0.930 . S
C1455 C1448 1.409 . S
C1455 C1454 1.362 . S
H1456 C1462 0.930 . S
H1457 C1465 0.930 . S
H1458 C1466 0.930 . S
H1459 C1467 0.930 . S
H1460 C1470 0.930 . S
H1461 C1471 0.930 . S
C1462 H1456 0.930 . S
C1462 C1463 1.355 . S
C1462 C1464 1.415 . S
C1463 C1462 1.355 . S
C1463 C1465 1.419 1_565 S
C1464 C1462 1.415 . S
C1464 C1469 1.425 1_565 S
C1464 C1471 1.409 . S
C1465 H1457 0.930 . S
C1465 C1463 1.419 1_545 S
C1465 C1466 1.362 . S
C1466 H1458 0.930 . S
C1466 C1465 1.362 . S
C1466 C1469 1.409 . S
C1467 H1459 0.930 . S
C1467 C1468 1.355 . S
C1467 C1469 1.415 . S
C1468 C1467 1.355 . S
C1468 C1470 1.419 1_545 S
C1469 C1464 1.425 1_545 S
C1469 C1466 1.409 . S
C1469 C1467 1.415 . S
C1470 H1460 0.930 . S
C1470 C1468 1.419 1_565 S
C1470 C1471 1.362 . S
C1471 H1461 0.930 . S
C1471 C1464 1.409 . S
C1471 C1470 1.362 . S
H1472 C1478 0.930 . S
H1473 C1481 0.930 . S
H1474 C1482 0.930 . S
H1475 C1483 0.930 . S
H1476 C1486 0.930 . S
H1477 C1487 0.930 . S
C1478 H1472 0.930 . S
C1478 C1479 1.355 . S
C1478 C1480 1.415 . S
C1479 C1478 1.355 . S
C1479 C1481 1.419 . S
C1480 C1478 1.415 . S
C1480 C1485 1.425 . S
C1480 C1487 1.409 . S
C1481 H1473 0.930 . S
C1481 C1479 1.419 . S
C1481 C1482 1.362 . S
C1482 H1474 0.930 . S
C1482 C1481 1.362 . S
C1482 C1485 1.409 . S
C1483 H1475 0.930 . S
C1483 C1484 1.355 . S
C1483 C1485 1.415 . S
C1484 C1483 1.355 . S
C1484 C1486 1.419 . S
C1485 C1480 1.425 . S
C1485 C1482 1.409 . S
C1485 C1483 1.415 . S
C1486 H1476 0.930 . S
C1486 C1484 1.419 . S
C1486 C1487 1.362 . S
C1487 H1477 0.930 . S
C1487 C1480 1.409 . S
C1487 C1486 1.362 . S
H1488 C1494 0.930 . S
H1489 C1497 0.930 . S
H1490 C1498 0.930 . S
H1491 C1499 0.930 . S
H1492 C1502 0.930 . S
H1493 C1503 0.930 . S
C1494 H1488 0.930 . S
C1494 C1495 1.355 . S
C1494 C1496 1.415 . S
C1495 C1494 1.355 . S
C1495 C1497 1.419 . S
C1496 C1494 1.415 . S
C1496 C1501 1.425 . S
C1496 C1503 1.409 . S
C1497 H1489 0.930 . S
C1497 C1495 1.419 . S
C1497 C1498 1.362 . S
C1498 H1490 0.930 . S
C1498 C1497 1.362 . S
C1498 C1501 1.409 . S
C1499 H1491 0.930 . S
C1499 C1500 1.355 . S
C1499 C1501 1.415 . S
C1500 C1499 1.355 . S
C1500 C1502 1.419 . S
C1501 C1496 1.425 . S
C1501 C1498 1.409 . S
C1501 C1499 1.415 . S
C1502 H1492 0.930 . S
C1502 C1500 1.419 . S
C1502 C1503 1.362 . S
C1503 H1493 0.930 . S
C1503 C1496 1.409 . S
C1503 C1502 1.362 . S
H1504 C1510 0.930 . S
H1505 C1513 0.930 . S
H1506 C1514 0.930 . S
H1507 C1515 0.930 . S
H1508 C1518 0.930 . S
H1509 C1519 0.930 . S
C1510 H1504 0.930 . S
C1510 C1511 1.355 . S
C1510 C1512 1.415 . S
C1511 C1510 1.355 . S
C1511 C1513 1.419 . S
C1512 C1510 1.415 . S
C1512 C1517 1.425 1_556 S
C1512 C1519 1.409 1_556 S
C1513 H1505 0.930 . S
C1513 C1511 1.419 . S
C1513 C1514 1.362 . S
C1514 H1506 0.930 . S
C1514 C1513 1.362 . S
C1514 C1517 1.409 1_556 S
C1515 H1507 0.930 . S
C1515 C1516 1.355 . S
C1515 C1517 1.415 . S
C1516 C1515 1.355 . S
C1516 C1518 1.419 . S
C1517 C1512 1.425 1_554 S
C1517 C1514 1.409 1_554 S
C1517 C1515 1.415 . S
C1518 H1508 0.930 . S
C1518 C1516 1.419 . S
C1518 C1519 1.362 . S
C1519 H1509 0.930 . S
C1519 C1512 1.409 1_554 S
C1519 C1518 1.362 . S
H1520 C1526 0.930 . S
H1521 C1529 0.930 . S
H1522 C1530 0.930 . S
H1523 C1531 0.930 . S
H1524 C1534 0.930 . S
H1525 C1535 0.930 . S
C1526 H1520 0.930 . S
C1526 C1527 1.355 . S
C1526 C1528 1.415 . S
C1527 C1526 1.355 . S
C1527 C1529 1.419 . S
C1528 C1526 1.415 . S
C1528 C1533 1.425 . S
C1528 C1535 1.409 . S
C1529 H1521 0.930 . S
C1529 C1527 1.419 . S
C1529 C1530 1.362 . S
C1530 H1522 0.930 . S
C1530 C1529 1.362 . S
C1530 C1533 1.409 . S
C1531 H1523 0.930 . S
C1531 C1532 1.355 . S
C1531 C1533 1.415 . S
C1532 C1531 1.355 . S
C1532 C1534 1.419 . S
C1533 C1528 1.425 . S
C1533 C1530 1.409 . S
C1533 C1531 1.415 . S
C1534 H1524 0.930 . S
C1534 C1532 1.419 . S
C1534 C1535 1.362 . S
C1535 H1525 0.930 . S
C1535 C1528 1.409 . S
C1535 C1534 1.362 . S
H1536 C1542 0.930 . S
H1537 C1545 0.930 . S
H1538 C1546 0.930 . S
H1539 C1547 0.930 . S
H1540 C1550 0.930 . S
H1541 C1551 0.930 . S
C1542 H1536 0.930 . S
C1542 C1543 1.355 . S
C1542 C1544 1.415 . S
C1543 C1542 1.355 . S
C1543 C1545 1.419 . S
C1544 C1542 1.415 . S
C1544 C1549 1.425 . S
C1544 C1551 1.409 . S
C1545 H1537 0.930 . S
C1545 C1543 1.419 . S
C1545 C1546 1.362 . S
C1546 H1538 0.930 . S
C1546 C1545 1.362 . S
C1546 C1549 1.409 . S
C1547 H1539 0.930 . S
C1547 C1548 1.355 . S
C1547 C1549 1.415 . S
C1548 C1547 1.355 . S
C1548 C1550 1.419 . S
C1549 C1544 1.425 . S
C1549 C1546 1.409 . S
C1549 C1547 1.415 . S
C1550 H1540 0.930 . S
C1550 C1548 1.419 . S
C1550 C1551 1.362 . S
C1551 H1541 0.930 . S
C1551 C1544 1.409 . S
C1551 C1550 1.362 . S
H1552 C1558 0.930 . S
H1553 C1561 0.930 . S
H1554 C1562 0.930 . S
H1555 C1563 0.930 . S
H1556 C1566 0.930 . S
H1557 C1567 0.930 . S
C1558 H1552 0.930 . S
C1558 C1559 1.355 . S
C1558 C1560 1.415 . S
C1559 C1558 1.355 . S
C1559 C1561 1.419 . S
C1560 C1558 1.415 . S
C1560 C1565 1.425 . S
C1560 C1567 1.409 . S
C1561 H1553 0.930 . S
C1561 C1559 1.419 . S
C1561 C1562 1.362 . S
C1562 H1554 0.930 . S
C1562 C1561 1.362 . S
C1562 C1565 1.409 . S
C1563 H1555 0.930 . S
C1563 C1564 1.355 . S
C1563 C1565 1.415 . S
C1564 C1563 1.355 . S
C1564 C1566 1.419 . S
C1565 C1560 1.425 . S
C1565 C1562 1.409 . S
C1565 C1563 1.415 . S
C1566 H1556 0.930 . S
C1566 C1564 1.419 . S
C1566 C1567 1.362 . S
C1567 H1557 0.930 . S
C1567 C1560 1.409 . S
C1567 C1566 1.362 . S
H1568 C1574 0.930 . S
H1569 C1577 0.930 . S
H1570 C1578 0.930 . S
H1571 C1579 0.930 . S
H1572 C1582 0.930 . S
H1573 C1583 0.930 . S
C1574 H1568 0.930 . S
C1574 C1575 1.355 . S
C1574 C1576 1.415 . S
C1575 C1574 1.355 . S
C1575 C1577 1.419 . S
C1576 C1574 1.415 . S
C1576 C1581 1.425 1_554 S
C1576 C1583 1.409 1_554 S
C1577 H1569 0.930 . S
C1577 C1575 1.419 . S
C1577 C1578 1.362 . S
C1578 H1570 0.930 . S
C1578 C1577 1.362 . S
C1578 C1581 1.409 1_554 S
C1579 H1571 0.930 . S
C1579 C1580 1.355 . S
C1579 C1581 1.415 . S
C1580 C1579 1.355 . S
C1580 C1582 1.419 . S
C1581 C1576 1.425 1_556 S
C1581 C1578 1.409 1_556 S
C1581 C1579 1.415 . S
C1582 H1572 0.930 . S
C1582 C1580 1.419 . S
C1582 C1583 1.362 . S
C1583 H1573 0.930 . S
C1583 C1576 1.409 1_556 S
C1583 C1582 1.362 . S
H1584 C1590 0.930 . S
H1585 C1593 0.930 . S
H1586 C1594 0.930 . S
H1587 C1595 0.930 . S
H1588 C1598 0.930 . S
H1589 C1599 0.930 . S
C1590 H1584 0.930 . S
C1590 C1591 1.355 . S
C1590 C1592 1.415 . S
C1591 C1590 1.355 . S
C1591 C1593 1.419 . S
C1592 C1590 1.415 . S
C1592 C1597 1.425 . S
C1592 C1599 1.409 . S
C1593 H1585 0.930 . S
C1593 C1591 1.419 . S
C1593 C1594 1.362 . S
C1594 H1586 0.930 . S
C1594 C1593 1.362 . S
C1594 C1597 1.409 . S
C1595 H1587 0.930 . S
C1595 C1596 1.355 . S
C1595 C1597 1.415 . S
C1596 C1595 1.355 . S
C1596 C1598 1.419 . S
C1597 C1592 1.425 . S
C1597 C1594 1.409 . S
C1597 C1595 1.415 . S
C1598 H1588 0.930 . S
C1598 C1596 1.419 . S
C1598 C1599 1.362 . S
C1599 H1589 0.930 . S
C1599 C1592 1.409 . S
C1599 C1598 1.362 . S
H1600 C1606 0.930 . S
H1601 C1609 0.930 . S
H1602 C1610 0.930 . S
H1603 C1611 0.930 . S
H1604 C1614 0.930 . S
H1605 C1615 0.930 . S
C1606 H1600 0.930 . S
C1606 C1607 1.355 . S
C1606 C1608 1.415 . S
C1607 C1606 1.355 . S
C1607 C1609 1.419 . S
C1608 C1606 1.415 . S
C1608 C1613 1.425 . S
C1608 C1615 1.409 . S
C1609 H1601 0.930 . S
C1609 C1607 1.419 . S
C1609 C1610 1.362 . S
C1610 H1602 0.930 . S
C1610 C1609 1.362 . S
C1610 C1613 1.409 . S
C1611 H1603 0.930 . S
C1611 C1612 1.355 . S
C1611 C1613 1.415 . S
C1612 C1611 1.355 . S
C1612 C1614 1.419 . S
C1613 C1608 1.425 . S
C1613 C1610 1.409 . S
C1613 C1611 1.415 . S
C1614 H1604 0.930 . S
C1614 C1612 1.419 . S
C1614 C1615 1.362 . S
C1615 H1605 0.930 . S
C1615 C1608 1.409 . S
C1615 C1614 1.362 . S
H1616 C1622 0.930 1_565 S
H1617 C1625 0.930 . S
H1618 C1626 0.930 . S
H1619 C1627 0.930 . S
H1620 C1630 0.930 . S
H1621 C1631 0.930 . S
C1622 H1616 0.930 1_545 S
C1622 C1623 1.355 . S
C1622 C1624 1.415 . S
C1623 C1622 1.355 . S
C1623 C1625 1.419 . S
C1624 C1622 1.415 . S
C1624 C1629 1.425 . S
C1624 C1631 1.409 1_545 S
C1625 H1617 0.930 . S
C1625 C1623 1.419 . S
C1625 C1626 1.362 . S
C1626 H1618 0.930 . S
C1626 C1625 1.362 . S
C1626 C1629 1.409 . S
C1627 H1619 0.930 . S
C1627 C1628 1.355 . S
C1627 C1629 1.415 . S
C1628 C1627 1.355 . S
C1628 C1630 1.419 1_545 S
C1629 C1624 1.425 . S
C1629 C1626 1.409 . S
C1629 C1627 1.415 . S
C1630 H1620 0.930 . S
C1630 C1628 1.419 1_565 S
C1630 C1631 1.362 . S
C1631 H1621 0.930 . S
C1631 C1624 1.409 1_565 S
C1631 C1630 1.362 . S
H1632 C1638 0.930 . S
H1633 C1641 0.930 . S
H1634 C1642 0.930 . S
H1635 C1643 0.930 . S
H1636 C1646 0.930 . S
H1637 C1647 0.930 . S
C1638 H1632 0.930 . S
C1638 C1639 1.355 . S
C1638 C1640 1.415 . S
C1639 C1638 1.355 . S
C1639 C1641 1.419 . S
C1640 C1638 1.415 . S
C1640 C1645 1.425 . S
C1640 C1647 1.409 . S
C1641 H1633 0.930 . S
C1641 C1639 1.419 . S
C1641 C1642 1.362 . S
C1642 H1634 0.930 . S
C1642 C1641 1.362 . S
C1642 C1645 1.409 . S
C1643 H1635 0.930 . S
C1643 C1644 1.355 . S
C1643 C1645 1.415 . S
C1644 C1643 1.355 . S
C1644 C1646 1.419 . S
C1645 C1640 1.425 . S
C1645 C1642 1.409 . S
C1645 C1643 1.415 . S
C1646 H1636 0.930 . S
C1646 C1644 1.419 . S
C1646 C1647 1.362 . S
C1647 H1637 0.930 . S
C1647 C1640 1.409 . S
C1647 C1646 1.362 . S
H1648 C1654 0.930 . S
H1649 C1657 0.930 . S
H1650 C1658 0.930 . S
H1651 C1659 0.930 . S
H1652 C1662 0.930 . S
H1653 C1663 0.930 . S
C1654 H1648 0.930 . S
C1654 C1655 1.355 1_545 S
C1654 C1656 1.419 . S
C1655 C1654 1.355 1_565 S
C1655 C1657 1.419 . S
C1656 C1654 1.419 . S
C1656 C1661 1.404 1_545 S
C1656 C1663 1.426 . S
C1657 H1649 0.930 . S
C1657 C1655 1.419 . S
C1657 C1658 1.362 . S
C1658 H1650 0.930 . S
C1658 C1657 1.362 . S
C1658 C1661 1.409 . S
C1659 H1651 0.930 . S
C1659 C1660 1.355 . S
C1659 C1661 1.415 . S
C1660 C1659 1.355 . S
C1660 C1662 1.419 1_565 S
C1661 C1656 1.404 1_565 S
C1661 C1658 1.409 . S
C1661 C1659 1.415 . S
C1662 H1652 0.930 . S
C1662 C1660 1.419 1_545 S
C1662 C1663 1.362 . S
C1663 H1653 0.930 . S
C1663 C1656 1.426 . S
C1663 C1662 1.362 . S
H1664 C1670 0.930 . S
H1665 C1673 0.930 . S
H1666 C1674 0.930 . S
H1667 C1675 0.930 . S
H1668 C1678 0.928 . S
H1669 C1679 0.930 . S
C1670 H1664 0.930 . S
C1670 C1671 1.355 . S
C1670 C1672 1.415 . S
C1671 C1670 1.355 . S
C1671 C1673 1.419 . S
C1672 C1670 1.415 . S
C1672 C1677 1.425 . S
C1672 C1679 1.409 . S
C1673 H1665 0.930 . S
C1673 C1671 1.419 . S
C1673 C1674 1.362 . S
C1674 H1666 0.930 . S
C1674 C1673 1.362 . S
C1674 C1677 1.409 . S
C1675 H1667 0.930 . S
C1675 C1676 1.355 . S
C1675 C1677 1.415 . S
C1676 C1675 1.355 . S
C1676 C1678 1.419 . S
C1677 C1672 1.425 . S
C1677 C1674 1.409 . S
C1677 C1675 1.415 . S
C1678 H1668 0.928 . S
C1678 C1676 1.419 . S
C1678 C1679 1.362 . S
C1679 H1669 0.930 . S
C1679 C1672 1.409 . S
C1679 C1678 1.362 . S
H1680 C1686 0.930 . S
H1681 C1689 0.930 . S
H1682 C1690 0.930 . S
H1683 C1691 0.930 . S
H1684 C1694 0.926 1_565 S
H1685 C1695 0.930 1_565 S
C1686 H1680 0.930 . S
C1686 C1687 1.355 . S
C1686 C1688 1.415 . S
C1687 C1686 1.355 . S
C1687 C1689 1.419 . S
C1688 C1686 1.415 . S
C1688 C1693 1.425 . S
C1688 C1695 1.409 . S
C1689 H1681 0.930 . S
C1689 C1687 1.419 . S
C1689 C1690 1.362 . S
C1690 H1682 0.930 . S
C1690 C1689 1.362 . S
C1690 C1693 1.409 . S
C1691 H1683 0.930 . S
C1691 C1692 1.355 . S
C1691 C1693 1.415 . S
C1692 C1691 1.355 . S
C1692 C1694 1.419 . S
C1693 C1688 1.425 . S
C1693 C1690 1.409 . S
C1693 C1691 1.415 . S
C1694 H1684 0.926 1_545 S
C1694 C1692 1.419 . S
C1694 C1695 1.362 . S
C1695 H1685 0.930 1_545 S
C1695 C1688 1.409 . S
C1695 C1694 1.362 . S
H1696 C1702 0.930 . S
H1697 C1705 0.930 . S
H1698 C1706 0.930 . S
H1699 C1707 0.930 . S
H1700 C1710 0.930 1_545 S
H1701 C1711 0.930 . S
C1702 H1696 0.930 . S
C1702 C1703 1.355 . S
C1702 C1704 1.415 . S
C1703 C1702 1.355 . S
C1703 C1705 1.419 . S
C1704 C1702 1.415 . S
C1704 C1709 1.425 . S
C1704 C1711 1.409 . S
C1705 H1697 0.930 . S
C1705 C1703 1.419 . S
C1705 C1706 1.362 . S
C1706 H1698 0.930 . S
C1706 C1705 1.362 . S
C1706 C1709 1.409 . S
C1707 H1699 0.930 . S
C1707 C1708 1.355 . S
C1707 C1709 1.415 . S
C1708 C1707 1.355 . S
C1708 C1710 1.419 . S
C1709 C1704 1.425 . S
C1709 C1706 1.409 . S
C1709 C1707 1.415 . S
C1710 H1700 0.930 1_565 S
C1710 C1708 1.419 . S
C1710 C1711 1.362 . S
C1711 H1701 0.930 . S
C1711 C1704 1.409 . S
C1711 C1710 1.362 . S
H1712 C1718 0.930 . S
H1713 C1721 0.934 . S
H1714 C1722 0.930 1_545 S
H1715 C1723 0.930 . S
H1716 C1726 0.930 . S
H1717 C1727 0.930 . S
C1718 H1712 0.930 . S
C1718 C1719 1.355 . S
C1718 C1720 1.415 . S
C1719 C1718 1.355 . S
C1719 C1721 1.419 . S
C1720 C1718 1.415 . S
C1720 C1725 1.425 . S
C1720 C1727 1.409 . S
C1721 H1713 0.934 . S
C1721 C1719 1.419 . S
C1721 C1722 1.362 . S
C1722 H1714 0.930 1_565 S
C1722 C1721 1.362 . S
C1722 C1725 1.409 . S
C1723 H1715 0.930 . S
C1723 C1724 1.355 . S
C1723 C1725 1.415 . S
C1724 C1723 1.355 . S
C1724 C1726 1.419 . S
C1725 C1720 1.425 . S
C1725 C1722 1.409 . S
C1725 C1723 1.415 . S
C1726 H1716 0.930 . S
C1726 C1724 1.419 . S
C1726 C1727 1.362 . S
C1727 H1717 0.930 . S
C1727 C1720 1.409 . S
C1727 C1726 1.362 . S
H1728 C1734 0.930 . S
H1729 C1737 0.930 . S
H1730 C1738 0.930 . S
H1731 C1739 0.930 . S
H1732 C1742 0.930 . S
H1733 C1743 0.930 . S
C1734 H1728 0.930 . S
C1734 C1735 1.355 . S
C1734 C1736 1.415 . S
C1735 C1734 1.355 . S
C1735 C1737 1.419 . S
C1736 C1734 1.415 . S
C1736 C1741 1.425 . S
C1736 C1743 1.409 . S
C1737 H1729 0.930 . S
C1737 C1735 1.419 . S
C1737 C1738 1.362 . S
C1738 H1730 0.930 . S
C1738 C1737 1.362 . S
C1738 C1741 1.409 . S
C1739 H1731 0.930 . S
C1739 C1740 1.355 . S
C1739 C1741 1.415 . S
C1740 C1739 1.355 . S
C1740 C1742 1.419 . S
C1741 C1736 1.425 . S
C1741 C1738 1.409 . S
C1741 C1739 1.415 . S
C1742 H1732 0.930 . S
C1742 C1740 1.419 . S
C1742 C1743 1.362 . S
C1743 H1733 0.930 . S
C1743 C1736 1.409 . S
C1743 C1742 1.362 . S
H1744 C1750 0.934 . S
H1745 C1753 0.930 . S
H1746 C1754 0.930 . S
H1747 C1755 0.930 . S
H1748 C1758 0.930 1_545 S
H1749 C1759 0.936 . S
C1750 H1744 0.934 . S
C1750 C1751 1.355 . S
C1750 C1752 1.415 . S
C1751 C1750 1.355 . S
C1751 C1753 1.419 . S
C1752 C1750 1.415 . S
C1752 C1757 1.425 . S
C1752 C1759 1.405 1_565 S
C1753 H1745 0.930 . S
C1753 C1751 1.419 . S
C1753 C1754 1.362 . S
C1754 H1746 0.930 . S
C1754 C1753 1.362 . S
C1754 C1757 1.409 . S
C1755 H1747 0.930 . S
C1755 C1756 1.355 . S
C1755 C1757 1.415 . S
C1756 C1755 1.355 . S
C1756 C1758 1.419 . S
C1757 C1752 1.425 . S
C1757 C1754 1.409 . S
C1757 C1755 1.415 . S
C1758 H1748 0.930 1_565 S
C1758 C1756 1.419 . S
C1758 C1759 1.361 1_565 S
C1759 H1749 0.936 . S
C1759 C1752 1.405 1_545 S
C1759 C1758 1.361 1_545 S
H1760 C1766 0.930 . S
H1761 C1769 0.930 . S
H1762 C1770 0.930 . S
H1763 C1771 0.930 . S
H1764 C1774 0.930 . S
H1765 C1775 0.930 . S
C1766 H1760 0.930 . S
C1766 C1767 1.355 . S
C1766 C1768 1.415 . S
C1767 C1766 1.355 . S
C1767 C1769 1.419 . S
C1768 C1766 1.415 . S
C1768 C1773 1.425 . S
C1768 C1775 1.409 . S
C1769 H1761 0.930 . S
C1769 C1767 1.419 . S
C1769 C1770 1.362 . S
C1770 H1762 0.930 . S
C1770 C1769 1.362 . S
C1770 C1773 1.409 . S
C1771 H1763 0.930 . S
C1771 C1772 1.355 . S
C1771 C1773 1.415 . S
C1772 C1771 1.355 . S
C1772 C1774 1.419 . S
C1773 C1768 1.425 . S
C1773 C1770 1.409 . S
C1773 C1771 1.415 . S
C1774 H1764 0.930 . S
C1774 C1772 1.419 . S
C1774 C1775 1.362 . S
C1775 H1765 0.930 . S
C1775 C1768 1.409 . S
C1775 C1774 1.362 . S
H1776 C1782 0.938 . S
H1777 C1785 0.930 . S
H1778 C1786 0.930 . S
H1779 C1787 0.930 . S
H1780 C1790 0.930 1_565 S
H1781 C1791 0.930 1_565 S
C1782 H1776 0.938 . S
C1782 C1783 1.355 . S
C1782 C1784 1.415 . S
C1783 C1782 1.355 . S
C1783 C1785 1.419 . S
C1784 C1782 1.415 . S
C1784 C1789 1.425 . S
C1784 C1791 1.409 . S
C1785 H1777 0.930 . S
C1785 C1783 1.419 . S
C1785 C1786 1.362 . S
C1786 H1778 0.930 . S
C1786 C1785 1.362 . S
C1786 C1789 1.409 . S
C1787 H1779 0.930 . S
C1787 C1788 1.355 . S
C1787 C1789 1.415 . S
C1788 C1787 1.355 . S
C1788 C1790 1.419 . S
C1789 C1784 1.425 . S
C1789 C1786 1.409 . S
C1789 C1787 1.415 . S
C1790 H1780 0.930 1_545 S
C1790 C1788 1.419 . S
C1790 C1791 1.362 . S
C1791 H1781 0.930 1_545 S
C1791 C1784 1.409 . S
C1791 C1790 1.362 . S
H1792 C1798 0.930 . S
H1793 C1801 0.930 . S
H1794 C1802 0.930 . S
H1795 C1803 0.930 . S
H1796 C1806 0.930 . S
H1797 C1807 0.930 . S
C1798 H1792 0.930 . S
C1798 C1799 1.355 . S
C1798 C1800 1.415 . S
C1799 C1798 1.355 . S
C1799 C1801 1.419 . S
C1800 C1798 1.415 . S
C1800 C1805 1.425 . S
C1800 C1807 1.409 . S
C1801 H1793 0.930 . S
C1801 C1799 1.419 . S
C1801 C1802 1.362 . S
C1802 H1794 0.930 . S
C1802 C1801 1.362 . S
C1802 C1805 1.409 . S
C1803 H1795 0.930 . S
C1803 C1804 1.355 . S
C1803 C1805 1.415 . S
C1804 C1803 1.355 . S
C1804 C1806 1.419 . S
C1805 C1800 1.425 . S
C1805 C1802 1.409 . S
C1805 C1803 1.415 . S
C1806 H1796 0.930 . S
C1806 C1804 1.419 . S
C1806 C1807 1.362 . S
C1807 H1797 0.930 . S
C1807 C1800 1.409 . S
C1807 C1806 1.362 . S
H1808 C1814 0.930 . S
H1809 C1817 0.930 . S
H1810 C1818 0.930 . S
H1811 C1819 0.930 1_545 S
H1812 C1822 0.930 . S
H1813 C1823 0.930 . S
C1814 H1808 0.930 . S
C1814 C1815 1.355 . S
C1814 C1816 1.415 . S
C1815 C1814 1.355 . S
C1815 C1817 1.419 1_565 S
C1816 C1814 1.415 . S
C1816 C1821 1.425 . S
C1816 C1823 1.409 . S
C1817 H1809 0.930 . S
C1817 C1815 1.419 1_545 S
C1817 C1818 1.362 . S
C1818 H1810 0.930 . S
C1818 C1817 1.362 . S
C1818 C1821 1.409 1_545 S
C1819 H1811 0.930 1_565 S
C1819 C1820 1.355 . S
C1819 C1821 1.415 . S
C1820 C1819 1.355 . S
C1820 C1822 1.419 . S
C1821 C1816 1.425 . S
C1821 C1818 1.409 1_565 S
C1821 C1819 1.415 . S
C1822 H1812 0.930 . S
C1822 C1820 1.419 . S
C1822 C1823 1.362 . S
C1823 H1813 0.930 . S
C1823 C1816 1.409 . S
C1823 C1822 1.362 . S
H1824 C1830 0.930 . S
H1825 C1833 0.930 . S
H1826 C1834 0.930 . S
H1827 C1835 0.930 . S
H1828 C1838 0.930 . S
H1829 C1839 0.930 . S
C1830 H1824 0.930 . S
C1830 C1831 1.355 . S
C1830 C1832 1.415 . S
C1831 C1830 1.355 . S
C1831 C1833 1.419 . S
C1832 C1830 1.415 . S
C1832 C1837 1.425 . S
C1832 C1839 1.409 . S
C1833 H1825 0.930 . S
C1833 C1831 1.419 . S
C1833 C1834 1.362 . S
C1834 H1826 0.930 . S
C1834 C1833 1.362 . S
C1834 C1837 1.409 . S
C1835 H1827 0.930 . S
C1835 C1836 1.355 . S
C1835 C1837 1.415 . S
C1836 C1835 1.355 . S
C1836 C1838 1.419 . S
C1837 C1832 1.425 . S
C1837 C1834 1.409 . S
C1837 C1835 1.415 . S
C1838 H1828 0.930 . S
C1838 C1836 1.419 . S
C1838 C1839 1.362 . S
C1839 H1829 0.930 . S
C1839 C1832 1.409 . S
C1839 C1838 1.362 . S
H1840 C1846 0.930 . S
H1841 C1849 0.930 . S
H1842 C1850 0.930 . S
H1843 C1851 0.930 . S
H1844 C1854 0.930 . S
H1845 C1855 0.930 . S
C1846 H1840 0.930 . S
C1846 C1847 1.355 . S
C1846 C1848 1.415 . S
C1847 C1846 1.355 . S
C1847 C1849 1.419 1_545 S
C1848 C1846 1.415 . S
C1848 C1853 1.426 . S
C1848 C1855 1.409 . S
C1849 H1841 0.930 . S
C1849 C1847 1.419 1_565 S
C1849 C1850 1.362 . S
C1850 H1842 0.930 . S
C1850 C1849 1.362 . S
C1850 C1853 1.409 1_565 S
C1851 H1843 0.930 . S
C1851 C1852 1.355 1_565 S
C1851 C1853 1.415 1_565 S
C1852 C1851 1.355 1_545 S
C1852 C1854 1.419 . S
C1853 C1848 1.426 . S
C1853 C1850 1.409 1_545 S
C1853 C1851 1.415 1_545 S
C1854 H1844 0.930 . S
C1854 C1852 1.419 . S
C1854 C1855 1.362 . S
C1855 H1845 0.930 . S
C1855 C1848 1.409 . S
C1855 C1854 1.362 . S
H1856 C1862 0.930 . S
H1857 C1865 0.930 . S
H1858 C1866 0.930 . S
H1859 C1867 0.930 . S
H1860 C1870 0.930 . S
H1861 C1871 0.930 . S
C1862 H1856 0.930 . S
C1862 C1863 1.355 . S
C1862 C1864 1.415 . S
C1863 C1862 1.355 . S
C1863 C1865 1.419 . S
C1864 C1862 1.415 . S
C1864 C1869 1.425 . S
C1864 C1871 1.409 . S
C1865 H1857 0.930 . S
C1865 C1863 1.419 . S
C1865 C1866 1.362 . S
C1866 H1858 0.930 . S
C1866 C1865 1.362 . S
C1866 C1869 1.409 . S
C1867 H1859 0.930 . S
C1867 C1868 1.355 . S
C1867 C1869 1.415 . S
C1868 C1867 1.355 . S
C1868 C1870 1.419 . S
C1869 C1864 1.425 . S
C1869 C1866 1.409 . S
C1869 C1867 1.415 . S
C1870 H1860 0.930 . S
C1870 C1868 1.419 . S
C1870 C1871 1.362 . S
C1871 H1861 0.930 . S
C1871 C1864 1.409 . S
C1871 C1870 1.362 . S
H1872 C1878 0.930 . S
H1873 C1881 0.930 . S
H1874 C1882 0.930 . S
H1875 C1883 0.930 . S
H1876 C1886 0.930 . S
H1877 C1887 0.930 . S
C1878 H1872 0.930 . S
C1878 C1879 1.355 . S
C1878 C1880 1.415 . S
C1879 C1878 1.355 . S
C1879 C1881 1.419 . S
C1880 C1878 1.415 . S
C1880 C1885 1.425 . S
C1880 C1887 1.409 . S
C1881 H1873 0.930 . S
C1881 C1879 1.419 . S
C1881 C1882 1.362 . S
C1882 H1874 0.930 . S
C1882 C1881 1.362 . S
C1882 C1885 1.409 . S
C1883 H1875 0.930 . S
C1883 C1884 1.355 . S
C1883 C1885 1.415 . S
C1884 C1883 1.355 . S
C1884 C1886 1.419 . S
C1885 C1880 1.425 . S
C1885 C1882 1.409 . S
C1885 C1883 1.415 . S
C1886 H1876 0.930 . S
C1886 C1884 1.419 . S
C1886 C1887 1.362 . S
C1887 H1877 0.930 . S
C1887 C1880 1.409 . S
C1887 C1886 1.362 . S
H1888 C1894 0.930 . S
H1889 C1897 0.930 . S
H1890 C1898 0.930 . S
H1891 C1899 0.930 . S
H1892 C1902 0.930 . S
H1893 C1903 0.930 . S
C1894 H1888 0.930 . S
C1894 C1895 1.355 . S
C1894 C1896 1.415 . S
C1895 C1894 1.355 . S
C1895 C1897 1.419 . S
C1896 C1894 1.415 . S
C1896 C1901 1.425 . S
C1896 C1903 1.409 . S
C1897 H1889 0.930 . S
C1897 C1895 1.419 . S
C1897 C1898 1.362 . S
C1898 H1890 0.930 . S
C1898 C1897 1.362 . S
C1898 C1901 1.409 . S
C1899 H1891 0.930 . S
C1899 C1900 1.355 . S
C1899 C1901 1.415 . S
C1900 C1899 1.355 . S
C1900 C1902 1.419 . S
C1901 C1896 1.425 . S
C1901 C1898 1.409 . S
C1901 C1899 1.415 . S
C1902 H1892 0.930 . S
C1902 C1900 1.419 . S
C1902 C1903 1.362 . S
C1903 H1893 0.930 . S
C1903 C1896 1.409 . S
C1903 C1902 1.362 . S
H1904 C1910 0.930 . S
H1905 C1913 0.930 . S
H1906 C1914 0.930 . S
H1907 C1915 0.930 . S
H1908 C1918 0.930 . S
H1909 C1919 0.930 . S
C1910 H1904 0.930 . S
C1910 C1911 1.355 . S
C1910 C1912 1.415 . S
C1911 C1910 1.355 . S
C1911 C1913 1.419 . S
C1912 C1910 1.415 . S
C1912 C1917 1.425 . S
C1912 C1919 1.409 . S
C1913 H1905 0.930 . S
C1913 C1911 1.419 . S
C1913 C1914 1.362 . S
C1914 H1906 0.930 . S
C1914 C1913 1.362 . S
C1914 C1917 1.409 . S
C1915 H1907 0.930 . S
C1915 C1916 1.355 . S
C1915 C1917 1.415 . S
C1916 C1915 1.355 . S
C1916 C1918 1.419 . S
C1917 C1912 1.425 . S
C1917 C1914 1.409 . S
C1917 C1915 1.415 . S
C1918 H1908 0.930 . S
C1918 C1916 1.419 . S
C1918 C1919 1.362 . S
C1919 H1909 0.930 . S
C1919 C1912 1.409 . S
C1919 C1918 1.362 . S
H1920 C1926 0.930 . S
H1921 C1929 0.930 . S
H1922 C1930 0.930 . S
H1923 C1931 0.930 . S
H1924 C1934 0.930 . S
H1925 C1935 0.930 . S
C1926 H1920 0.930 . S
C1926 C1927 1.355 . S
C1926 C1928 1.415 . S
C1927 C1926 1.355 . S
C1927 C1929 1.419 . S
C1928 C1926 1.415 . S
C1928 C1933 1.425 . S
C1928 C1935 1.409 . S
C1929 H1921 0.930 . S
C1929 C1927 1.419 . S
C1929 C1930 1.362 . S
C1930 H1922 0.930 . S
C1930 C1929 1.362 . S
C1930 C1933 1.409 . S
C1931 H1923 0.930 . S
C1931 C1932 1.355 . S
C1931 C1933 1.415 . S
C1932 C1931 1.355 . S
C1932 C1934 1.419 . S
C1933 C1928 1.425 . S
C1933 C1930 1.409 . S
C1933 C1931 1.415 . S
C1934 H1924 0.930 . S
C1934 C1932 1.419 . S
C1934 C1935 1.362 . S
C1935 H1925 0.930 . S
C1935 C1928 1.409 . S
C1935 C1934 1.362 . S
H1936 C1942 0.930 . S
H1937 C1945 0.930 . S
H1938 C1946 0.930 . S
H1939 C1947 0.930 . S
H1940 C1950 0.930 . S
H1941 C1951 0.930 . S
C1942 H1936 0.930 . S
C1942 C1943 1.355 . S
C1942 C1944 1.415 . S
C1943 C1942 1.355 . S
C1943 C1945 1.419 . S
C1944 C1942 1.415 . S
C1944 C1949 1.425 . S
C1944 C1951 1.409 . S
C1945 H1937 0.930 . S
C1945 C1943 1.419 . S
C1945 C1946 1.362 . S
C1946 H1938 0.930 . S
C1946 C1945 1.362 . S
C1946 C1949 1.409 . S
C1947 H1939 0.930 . S
C1947 C1948 1.355 . S
C1947 C1949 1.415 . S
C1948 C1947 1.355 . S
C1948 C1950 1.419 . S
C1949 C1944 1.425 . S
C1949 C1946 1.409 . S
C1949 C1947 1.415 . S
C1950 H1940 0.930 . S
C1950 C1948 1.419 . S
C1950 C1951 1.362 . S
C1951 H1941 0.930 . S
C1951 C1944 1.409 . S
C1951 C1950 1.362 . S
H1952 C1958 0.930 . S
H1953 C1961 0.930 . S
H1954 C1962 0.930 . S
H1955 C1963 0.930 . S
H1956 C1966 0.930 . S
H1957 C1967 0.930 . S
C1958 H1952 0.930 . S
C1958 C1959 1.355 . S
C1958 C1960 1.415 . S
C1959 C1958 1.355 . S
C1959 C1961 1.419 . S
C1960 C1958 1.415 . S
C1960 C1965 1.425 . S
C1960 C1967 1.409 . S
C1961 H1953 0.930 . S
C1961 C1959 1.419 . S
C1961 C1962 1.362 . S
C1962 H1954 0.930 . S
C1962 C1961 1.362 . S
C1962 C1965 1.409 . S
C1963 H1955 0.930 . S
C1963 C1964 1.355 . S
C1963 C1965 1.415 . S
C1964 C1963 1.355 . S
C1964 C1966 1.419 . S
C1965 C1960 1.425 . S
C1965 C1962 1.409 . S
C1965 C1963 1.415 . S
C1966 H1956 0.930 . S
C1966 C1964 1.419 . S
C1966 C1967 1.362 . S
C1967 H1957 0.930 . S
C1967 C1960 1.409 . S
C1967 C1966 1.362 . S
H1968 C1974 0.930 . S
H1969 C1977 0.930 . S
H1970 C1978 0.930 . S
H1971 C1979 0.930 . S
H1972 C1982 0.930 . S
H1973 C1983 0.930 . S
C1974 H1968 0.930 . S
C1974 C1975 1.355 . S
C1974 C1976 1.415 . S
C1975 C1974 1.355 . S
C1975 C1977 1.419 . S
C1976 C1974 1.415 . S
C1976 C1981 1.425 . S
C1976 C1983 1.409 . S
C1977 H1969 0.930 . S
C1977 C1975 1.419 . S
C1977 C1978 1.362 . S
C1978 H1970 0.930 . S
C1978 C1977 1.362 . S
C1978 C1981 1.409 . S
C1979 H1971 0.930 . S
C1979 C1980 1.355 . S
C1979 C1981 1.415 . S
C1980 C1979 1.355 . S
C1980 C1982 1.419 . S
C1981 C1976 1.425 . S
C1981 C1978 1.409 . S
C1981 C1979 1.415 . S
C1982 H1972 0.930 . S
C1982 C1980 1.419 . S
C1982 C1983 1.362 . S
C1983 H1973 0.930 . S
C1983 C1976 1.409 . S
C1983 C1982 1.362 . S
H1984 C1990 0.930 . S
H1985 C1993 0.930 . S
H1986 C1994 0.930 . S
H1987 C1995 0.930 . S
H1988 C1998 0.930 . S
H1989 C1999 0.930 . S
C1990 H1984 0.930 . S
C1990 C1991 1.355 . S
C1990 C1992 1.415 . S
C1991 C1990 1.355 . S
C1991 C1993 1.419 . S
C1992 C1990 1.415 . S
C1992 C1997 1.425 . S
C1992 C1999 1.409 . S
C1993 H1985 0.930 . S
C1993 C1991 1.419 . S
C1993 C1994 1.362 . S
C1994 H1986 0.930 . S
C1994 C1993 1.362 . S
C1994 C1997 1.409 . S
C1995 H1987 0.930 . S
C1995 C1996 1.355 . S
C1995 C1997 1.415 . S
C1996 C1995 1.355 . S
C1996 C1998 1.419 . S
C1997 C1992 1.425 . S
C1997 C1994 1.409 . S
C1997 C1995 1.415 . S
C1998 H1988 0.930 . S
C1998 C1996 1.419 . S
C1998 C1999 1.362 . S
C1999 H1989 0.930 . S
C1999 C1992 1.409 . S
C1999 C1998 1.362 . S
H2000 C2006 0.930 . S
H2001 C2009 0.930 . S
H2002 C2010 0.930 . S
H2003 C2011 0.930 . S
H2004 C2014 0.930 . S
H2005 C2015 0.930 . S
C2006 H2000 0.930 . S
C2006 C2007 1.355 . S
C2006 C2008 1.415 . S
C2007 C2006 1.355 . S
C2007 C2009 1.419 . S
C2008 C2006 1.415 . S
C2008 C2013 1.425 . S
C2008 C2015 1.409 . S
C2009 H2001 0.930 . S
C2009 C2007 1.419 . S
C2009 C2010 1.362 . S
C2010 H2002 0.930 . S
C2010 C2009 1.362 . S
C2010 C2013 1.409 . S
C2011 H2003 0.930 . S
C2011 C2012 1.355 . S
C2011 C2013 1.415 . S
C2012 C2011 1.355 . S
C2012 C2014 1.419 . S
C2013 C2008 1.425 . S
C2013 C2010 1.409 . S
C2013 C2011 1.415 . S
C2014 H2004 0.930 . S
C2014 C2012 1.419 . S
C2014 C2015 1.362 . S
C2015 H2005 0.930 . S
C2015 C2008 1.409 . S
C2015 C2014 1.362 . S
H2016 C2022 0.930 . S
H2017 C2025 0.930 . S
H2018 C2026 0.930 . S
H2019 C2027 0.930 . S
H2020 C2030 0.930 . S
H2021 C2031 0.930 . S
C2022 H2016 0.930 . S
C2022 C2023 1.355 . S
C2022 C2024 1.415 . S
C2023 C2022 1.355 . S
C2023 C2025 1.419 . S
C2024 C2022 1.415 . S
C2024 C2029 1.425 . S
C2024 C2031 1.409 . S
C2025 H2017 0.930 . S
C2025 C2023 1.419 . S
C2025 C2026 1.362 . S
C2026 H2018 0.930 . S
C2026 C2025 1.362 . S
C2026 C2029 1.409 . S
C2027 H2019 0.930 . S
C2027 C2028 1.355 . S
C2027 C2029 1.415 . S
C2028 C2027 1.355 . S
C2028 C2030 1.419 . S
C2029 C2024 1.425 . S
C2029 C2026 1.409 . S
C2029 C2027 1.415 . S
C2030 H2020 0.930 . S
C2030 C2028 1.419 . S
C2030 C2031 1.362 . S
C2031 H2021 0.930 . S
C2031 C2024 1.409 . S
C2031 C2030 1.362 . S
H2032 C2038 0.930 . S
H2033 C2041 0.930 . S
H2034 C2042 0.930 . S
H2035 C2043 0.930 . S
H2036 C2046 0.930 . S
H2037 C2047 0.930 . S
C2038 H2032 0.930 . S
C2038 C2039 1.355 . S
C2038 C2040 1.415 . S
C2039 C2038 1.355 . S
C2039 C2041 1.419 . S
C2040 C2038 1.415 . S
C2040 C2045 1.425 . S
C2040 C2047 1.409 . S
C2041 H2033 0.930 . S
C2041 C2039 1.419 . S
C2041 C2042 1.362 . S
C2042 H2034 0.930 . S
C2042 C2041 1.362 . S
C2042 C2045 1.409 . S
C2043 H2035 0.930 . S
C2043 C2044 1.355 . S
C2043 C2045 1.415 . S
C2044 C2043 1.355 . S
C2044 C2046 1.419 . S
C2045 C2040 1.425 . S
C2045 C2042 1.409 . S
C2045 C2043 1.415 . S
C2046 H2036 0.930 . S
C2046 C2044 1.419 . S
C2046 C2047 1.362 . S
C2047 H2037 0.930 . S
C2047 C2040 1.409 . S
C2047 C2046 1.362 . S
H2048 C2054 0.930 . S
H2049 C2057 0.930 . S
H2050 C2058 0.930 . S
H2051 C2059 0.930 . S
H2052 C2062 0.930 . S
H2053 C2063 0.930 . S
C2054 H2048 0.930 . S
C2054 C2055 1.355 . S
C2054 C2056 1.415 . S
C2055 C2054 1.355 . S
C2055 C2057 1.419 . S
C2056 C2054 1.415 . S
C2056 C2061 1.425 . S
C2056 C2063 1.409 . S
C2057 H2049 0.930 . S
C2057 C2055 1.419 . S
C2057 C2058 1.362 . S
C2058 H2050 0.930 . S
C2058 C2057 1.362 . S
C2058 C2061 1.409 . S
C2059 H2051 0.930 . S
C2059 C2060 1.355 . S
C2059 C2061 1.415 . S
C2060 C2059 1.355 . S
C2060 C2062 1.419 . S
C2061 C2056 1.425 . S
C2061 C2058 1.409 . S
C2061 C2059 1.415 . S
C2062 H2052 0.930 . S
C2062 C2060 1.419 . S
C2062 C2063 1.362 . S
C2063 H2053 0.930 . S
C2063 C2056 1.409 . S
C2063 C2062 1.362 . S
H2064 C2070 0.930 . S
H2065 C2073 0.930 . S
H2066 C2074 0.930 . S
H2067 C2075 0.930 . S
H2068 C2078 0.930 . S
H2069 C2079 0.930 . S
C2070 H2064 0.930 . S
C2070 C2071 1.355 . S
C2070 C2072 1.415 . S
C2071 C2070 1.355 . S
C2071 C2073 1.419 . S
C2072 C2070 1.415 . S
C2072 C2077 1.425 . S
C2072 C2079 1.409 . S
C2073 H2065 0.930 . S
C2073 C2071 1.419 . S
C2073 C2074 1.362 . S
C2074 H2066 0.930 . S
C2074 C2073 1.362 . S
C2074 C2077 1.409 . S
C2075 H2067 0.930 . S
C2075 C2076 1.355 . S
C2075 C2077 1.415 . S
C2076 C2075 1.355 . S
C2076 C2078 1.419 . S
C2077 C2072 1.425 . S
C2077 C2074 1.409 . S
C2077 C2075 1.415 . S
C2078 H2068 0.930 . S
C2078 C2076 1.419 . S
C2078 C2079 1.362 . S
C2079 H2069 0.930 . S
C2079 C2072 1.409 . S
C2079 C2078 1.362 . S
H2080 C2086 0.930 . S
H2081 C2089 0.930 . S
H2082 C2090 0.930 . S
H2083 C2091 0.930 . S
H2084 C2094 0.930 . S
H2085 C2095 0.930 . S
C2086 H2080 0.930 . S
C2086 C2087 1.355 . S
C2086 C2088 1.415 . S
C2087 C2086 1.355 . S
C2087 C2089 1.419 . S
C2088 C2086 1.415 . S
C2088 C2093 1.425 . S
C2088 C2095 1.409 . S
C2089 H2081 0.930 . S
C2089 C2087 1.419 . S
C2089 C2090 1.362 . S
C2090 H2082 0.930 . S
C2090 C2089 1.362 . S
C2090 C2093 1.409 . S
C2091 H2083 0.930 . S
C2091 C2092 1.355 . S
C2091 C2093 1.415 . S
C2092 C2091 1.355 . S
C2092 C2094 1.419 . S
C2093 C2088 1.425 . S
C2093 C2090 1.409 . S
C2093 C2091 1.415 . S
C2094 H2084 0.930 . S
C2094 C2092 1.419 . S
C2094 C2095 1.362 . S
C2095 H2085 0.930 . S
C2095 C2088 1.409 . S
C2095 C2094 1.362 . S
H2096 C2102 0.930 . S
H2097 C2105 0.930 . S
H2098 C2106 0.930 . S
H2099 C2107 0.930 . S
H2100 C2110 0.930 . S
H2101 C2111 0.930 . S
C2102 H2096 0.930 . S
C2102 C2103 1.355 . S
C2102 C2104 1.415 . S
C2103 C2102 1.355 . S
C2103 C2105 1.419 . S
C2104 C2102 1.415 . S
C2104 C2109 1.425 . S
C2104 C2111 1.409 . S
C2105 H2097 0.930 . S
C2105 C2103 1.419 . S
C2105 C2106 1.362 . S
C2106 H2098 0.930 . S
C2106 C2105 1.362 . S
C2106 C2109 1.409 . S
C2107 H2099 0.930 . S
C2107 C2108 1.355 . S
C2107 C2109 1.415 . S
C2108 C2107 1.355 . S
C2108 C2110 1.419 . S
C2109 C2104 1.425 . S
C2109 C2106 1.409 . S
C2109 C2107 1.415 . S
C2110 H2100 0.930 . S
C2110 C2108 1.419 . S
C2110 C2111 1.362 . S
C2111 H2101 0.930 . S
C2111 C2104 1.409 . S
C2111 C2110 1.362 . S
H2112 C2118 0.930 . S
H2113 C2121 0.930 . S
H2114 C2122 0.930 . S
H2115 C2123 0.930 . S
H2116 C2126 0.930 . S
H2117 C2127 0.930 . S
C2118 H2112 0.930 . S
C2118 C2119 1.355 . S
C2118 C2120 1.415 . S
C2119 C2118 1.355 . S
C2119 C2121 1.419 . S
C2120 C2118 1.415 . S
C2120 C2125 1.425 . S
C2120 C2127 1.409 . S
C2121 H2113 0.930 . S
C2121 C2119 1.419 . S
C2121 C2122 1.362 . S
C2122 H2114 0.930 . S
C2122 C2121 1.362 . S
C2122 C2125 1.409 . S
C2123 H2115 0.930 . S
C2123 C2124 1.355 . S
C2123 C2125 1.415 . S
C2124 C2123 1.355 . S
C2124 C2126 1.419 . S
C2125 C2120 1.425 . S
C2125 C2122 1.409 . S
C2125 C2123 1.415 . S
C2126 H2116 0.930 . S
C2126 C2124 1.419 . S
C2126 C2127 1.362 . S
C2127 H2117 0.930 . S
C2127 C2120 1.409 . S
C2127 C2126 1.362 . S
H2128 C2134 0.930 . S
H2129 C2137 0.930 . S
H2130 C2138 0.930 . S
H2131 C2139 0.930 . S
H2132 C2142 0.930 . S
H2133 C2143 0.930 . S
C2134 H2128 0.930 . S
C2134 C2135 1.355 . S
C2134 C2136 1.415 . S
C2135 C2134 1.355 . S
C2135 C2137 1.419 . S
C2136 C2134 1.415 . S
C2136 C2141 1.425 1_655 S
C2136 C2143 1.409 . S
C2137 H2129 0.930 . S
C2137 C2135 1.419 . S
C2137 C2138 1.362 1_655 S
C2138 H2130 0.930 . S
C2138 C2137 1.362 1_455 S
C2138 C2141 1.409 . S
C2139 H2131 0.930 . S
C2139 C2140 1.355 . S
C2139 C2141 1.415 . S
C2140 C2139 1.355 . S
C2140 C2142 1.419 . S
C2141 C2136 1.425 1_455 S
C2141 C2138 1.409 . S
C2141 C2139 1.415 . S
C2142 H2132 0.930 . S
C2142 C2140 1.419 . S
C2142 C2143 1.362 1_455 S
C2143 H2133 0.930 . S
C2143 C2136 1.409 . S
C2143 C2142 1.362 1_655 S
H2144 C2150 0.930 . S
H2145 C2153 0.930 . S
H2146 C2154 0.930 1_655 S
H2147 C2155 0.930 . S
H2148 C2158 0.930 . S
H2149 C2159 0.930 1_455 S
C2150 H2144 0.930 . S
C2150 C2151 1.355 . S
C2150 C2152 1.415 . S
C2151 C2150 1.355 . S
C2151 C2153 1.419 . S
C2152 C2150 1.415 . S
C2152 C2157 1.425 1_455 S
C2152 C2159 1.409 1_455 S
C2153 H2145 0.930 . S
C2153 C2151 1.419 . S
C2153 C2154 1.362 . S
C2154 H2146 0.930 1_455 S
C2154 C2153 1.362 . S
C2154 C2157 1.409 1_455 S
C2155 H2147 0.930 . S
C2155 C2156 1.355 . S
C2155 C2157 1.415 . S
C2156 C2155 1.355 . S
C2156 C2158 1.419 . S
C2157 C2152 1.425 1_655 S
C2157 C2154 1.409 1_655 S
C2157 C2155 1.415 . S
C2158 H2148 0.930 . S
C2158 C2156 1.419 . S
C2158 C2159 1.362 . S
C2159 H2149 0.930 1_655 S
C2159 C2152 1.409 1_655 S
C2159 C2158 1.362 . S
H2160 C2166 0.930 . S
H2161 C2169 0.930 . S
H2162 C2170 0.930 . S
H2163 C2171 0.930 . S
H2164 C2174 0.930 . S
H2165 C2175 0.930 . S
C2166 H2160 0.930 . S
C2166 C2167 1.355 . S
C2166 C2168 1.415 . S
C2167 C2166 1.355 . S
C2167 C2169 1.419 . S
C2168 C2166 1.415 . S
C2168 C2173 1.425 . S
C2168 C2175 1.409 . S
C2169 H2161 0.930 . S
C2169 C2167 1.419 . S
C2169 C2170 1.362 . S
C2170 H2162 0.930 . S
C2170 C2169 1.362 . S
C2170 C2173 1.409 . S
C2171 H2163 0.930 . S
C2171 C2172 1.355 . S
C2171 C2173 1.415 . S
C2172 C2171 1.355 . S
C2172 C2174 1.419 . S
C2173 C2168 1.425 . S
C2173 C2170 1.409 . S
C2173 C2171 1.415 . S
C2174 H2164 0.930 . S
C2174 C2172 1.419 . S
C2174 C2175 1.362 . S
C2175 H2165 0.930 . S
C2175 C2168 1.409 . S
C2175 C2174 1.362 . S
H2176 C2182 0.930 . S
H2177 C2185 0.930 . S
H2178 C2186 0.930 . S
H2179 C2187 0.930 . S
H2180 C2190 0.930 . S
H2181 C2191 0.930 . S
C2182 H2176 0.930 . S
C2182 C2183 1.355 . S
C2182 C2184 1.415 . S
C2183 C2182 1.355 . S
C2183 C2185 1.419 . S
C2184 C2182 1.415 . S
C2184 C2189 1.425 . S
C2184 C2191 1.409 . S
C2185 H2177 0.930 . S
C2185 C2183 1.419 . S
C2185 C2186 1.362 . S
C2186 H2178 0.930 . S
C2186 C2185 1.362 . S
C2186 C2189 1.409 . S
C2187 H2179 0.930 . S
C2187 C2188 1.355 . S
C2187 C2189 1.415 . S
C2188 C2187 1.355 . S
C2188 C2190 1.419 . S
C2189 C2184 1.425 . S
C2189 C2186 1.409 . S
C2189 C2187 1.415 . S
C2190 H2180 0.930 . S
C2190 C2188 1.419 . S
C2190 C2191 1.362 . S
C2191 H2181 0.930 . S
C2191 C2184 1.409 . S
C2191 C2190 1.362 . S
H2192 C2198 0.930 . S
H2193 C2201 0.930 . S
H2194 C2202 0.930 . S
H2195 C2203 0.930 . S
H2196 C2206 0.930 . S
H2197 C2207 0.930 . S
C2198 H2192 0.930 . S
C2198 C2199 1.355 . S
C2198 C2200 1.415 . S
C2199 C2198 1.355 . S
C2199 C2201 1.419 . S
C2200 C2198 1.415 . S
C2200 C2205 1.425 . S
C2200 C2207 1.409 . S
C2201 H2193 0.930 . S
C2201 C2199 1.419 . S
C2201 C2202 1.362 . S
C2202 H2194 0.930 . S
C2202 C2201 1.362 . S
C2202 C2205 1.409 . S
C2203 H2195 0.930 . S
C2203 C2204 1.355 . S
C2203 C2205 1.415 . S
C2204 C2203 1.355 . S
C2204 C2206 1.419 . S
C2205 C2200 1.425 . S
C2205 C2202 1.409 . S
C2205 C2203 1.415 . S
C2206 H2196 0.930 . S
C2206 C2204 1.419 . S
C2206 C2207 1.362 . S
C2207 H2197 0.930 . S
C2207 C2200 1.409 . S
C2207 C2206 1.362 . S
H2208 C2214 0.930 . S
H2209 C2217 0.930 . S
H2210 C2218 0.930 . S
H2211 C2219 0.930 . S
H2212 C2222 0.930 . S
H2213 C2223 0.930 . S
C2214 H2208 0.930 . S
C2214 C2215 1.355 . S
C2214 C2216 1.415 . S
C2215 C2214 1.355 . S
C2215 C2217 1.419 . S
C2216 C2214 1.415 . S
C2216 C2221 1.425 1_655 S
C2216 C2223 1.409 1_655 S
C2217 H2209 0.930 . S
C2217 C2215 1.419 . S
C2217 C2218 1.362 . S
C2218 H2210 0.930 . S
C2218 C2217 1.362 . S
C2218 C2221 1.409 1_655 S
C2219 H2211 0.930 . S
C2219 C2220 1.355 . S
C2219 C2221 1.415 . S
C2220 C2219 1.355 . S
C2220 C2222 1.419 . S
C2221 C2216 1.425 1_455 S
C2221 C2218 1.409 1_455 S
C2221 C2219 1.415 . S
C2222 H2212 0.930 . S
C2222 C2220 1.419 . S
C2222 C2223 1.362 . S
C2223 H2213 0.930 . S
C2223 C2216 1.409 1_455 S
C2223 C2222 1.362 . S
H2224 C2230 0.930 . S
H2225 C2233 0.930 . S
H2226 C2234 0.930 . S
H2227 C2235 0.930 . S
H2228 C2238 0.930 . S
H2229 C2239 0.930 . S
C2230 H2224 0.930 . S
C2230 C2231 1.355 1_455 S
C2230 C2232 1.415 . S
C2231 C2230 1.355 1_655 S
C2231 C2233 1.419 . S
C2232 C2230 1.415 . S
C2232 C2237 1.425 1_455 S
C2232 C2239 1.409 . S
C2233 H2225 0.930 . S
C2233 C2231 1.419 . S
C2233 C2234 1.362 . S
C2234 H2226 0.930 . S
C2234 C2233 1.362 . S
C2234 C2237 1.409 . S
C2235 H2227 0.930 . S
C2235 C2236 1.355 1_655 S
C2235 C2237 1.415 . S
C2236 C2235 1.355 1_455 S
C2236 C2238 1.419 . S
C2237 C2232 1.425 1_655 S
C2237 C2234 1.409 . S
C2237 C2235 1.415 . S
C2238 H2228 0.930 . S
C2238 C2236 1.419 . S
C2238 C2239 1.362 . S
C2239 H2229 0.930 . S
C2239 C2232 1.409 . S
C2239 C2238 1.362 . S
H2240 C2246 0.930 . S
H2241 C2249 0.930 . S
H2242 C2250 0.930 . S
H2243 C2251 0.930 . S
H2244 C2254 0.930 . S
H2245 C2255 0.930 . S
C2246 H2240 0.930 . S
C2246 C2247 1.355 . S
C2246 C2248 1.415 . S
C2247 C2246 1.355 . S
C2247 C2249 1.419 . S
C2248 C2246 1.415 . S
C2248 C2253 1.425 . S
C2248 C2255 1.409 . S
C2249 H2241 0.930 . S
C2249 C2247 1.419 . S
C2249 C2250 1.362 . S
C2250 H2242 0.930 . S
C2250 C2249 1.362 . S
C2250 C2253 1.409 . S
C2251 H2243 0.930 . S
C2251 C2252 1.355 . S
C2251 C2253 1.415 . S
C2252 C2251 1.355 . S
C2252 C2254 1.419 . S
C2253 C2248 1.425 . S
C2253 C2250 1.409 . S
C2253 C2251 1.415 . S
C2254 H2244 0.930 . S
C2254 C2252 1.419 . S
C2254 C2255 1.362 . S
C2255 H2245 0.930 . S
C2255 C2248 1.409 . S
C2255 C2254 1.362 . S
H2256 C2262 0.930 . S
H2257 C2265 0.930 . S
H2258 C2266 0.930 . S
H2259 C2267 0.930 . S
H2260 C2270 0.930 . S
H2261 C2271 0.930 . S
C2262 H2256 0.930 . S
C2262 C2263 1.355 1_655 S
C2262 C2264 1.415 . S
C2263 C2262 1.355 1_455 S
C2263 C2265 1.419 . S
C2264 C2262 1.415 . S
C2264 C2269 1.425 1_655 S
C2264 C2271 1.409 . S
C2265 H2257 0.930 . S
C2265 C2263 1.419 . S
C2265 C2266 1.362 . S
C2266 H2258 0.930 . S
C2266 C2265 1.362 . S
C2266 C2269 1.409 . S
C2267 H2259 0.930 . S
C2267 C2268 1.355 1_455 S
C2267 C2269 1.415 . S
C2268 C2267 1.355 1_655 S
C2268 C2270 1.419 . S
C2269 C2264 1.425 1_455 S
C2269 C2266 1.409 . S
C2269 C2267 1.415 . S
C2270 H2260 0.930 . S
C2270 C2268 1.419 . S
C2270 C2271 1.362 . S
C2271 H2261 0.930 . S
C2271 C2264 1.409 . S
C2271 C2270 1.362 . S
H2272 C2278 0.930 . S
H2273 C2281 0.930 . S
H2274 C2282 0.930 . S
H2275 C2283 0.930 . S
H2276 C2286 0.930 . S
H2277 C2287 0.930 . S
C2278 H2272 0.930 . S
C2278 C2279 1.355 . S
C2278 C2280 1.417 . S
C2279 C2278 1.355 . S
C2279 C2281 1.419 . S
C2280 C2278 1.417 . S
C2280 C2285 1.425 1_655 S
C2280 C2287 1.407 1_655 S
C2281 H2273 0.930 . S
C2281 C2279 1.419 . S
C2281 C2282 1.362 . S
C2282 H2274 0.930 . S
C2282 C2281 1.362 . S
C2282 C2285 1.407 1_655 S
C2283 H2275 0.930 . S
C2283 C2284 1.355 . S
C2283 C2285 1.417 . S
C2284 C2283 1.355 . S
C2284 C2286 1.419 . S
C2285 C2280 1.425 1_455 S
C2285 C2282 1.407 1_455 S
C2285 C2283 1.417 . S
C2286 H2276 0.930 . S
C2286 C2284 1.419 . S
C2286 C2287 1.362 . S
C2287 H2277 0.930 . S
C2287 C2280 1.407 1_455 S
C2287 C2286 1.362 . S
H2288 C2294 0.930 . S
H2289 C2297 0.930 . S
H2290 C2298 0.930 . S
H2291 C2299 0.930 . S
H2292 C2302 0.930 . S
H2293 C2303 0.930 . S
C2294 H2288 0.930 . S
C2294 C2295 1.355 . S
C2294 C2296 1.415 . S
C2295 C2294 1.355 . S
C2295 C2297 1.419 . S
C2296 C2294 1.415 . S
C2296 C2301 1.425 . S
C2296 C2303 1.409 . S
C2297 H2289 0.930 . S
C2297 C2295 1.419 . S
C2297 C2298 1.362 . S
C2298 H2290 0.930 . S
C2298 C2297 1.362 . S
C2298 C2301 1.409 . S
C2299 H2291 0.930 . S
C2299 C2300 1.355 . S
C2299 C2301 1.415 . S
C2300 C2299 1.355 . S
C2300 C2302 1.419 . S
C2301 C2296 1.425 . S
C2301 C2298 1.409 . S
C2301 C2299 1.415 . S
C2302 H2292 0.930 . S
C2302 C2300 1.419 . S
C2302 C2303 1.362 . S
C2303 H2293 0.930 . S
C2303 C2296 1.409 . S
C2303 C2302 1.362 . S
H2304 C2310 0.930 . S
H2305 C2313 0.930 . S
H2306 C2314 0.930 . S
H2307 C2315 0.930 . S
H2308 C2318 0.930 . S
H2309 C2319 0.930 . S
C2310 H2304 0.930 . S
C2310 C2311 1.355 . S
C2310 C2312 1.415 . S
C2311 C2310 1.355 . S
C2311 C2313 1.419 . S
C2312 C2310 1.415 . S
C2312 C2317 1.425 . S
C2312 C2319 1.409 . S
C2313 H2305 0.930 . S
C2313 C2311 1.419 . S
C2313 C2314 1.362 . S
C2314 H2306 0.930 . S
C2314 C2313 1.362 . S
C2314 C2317 1.409 . S
C2315 H2307 0.930 . S
C2315 C2316 1.355 . S
C2315 C2317 1.415 . S
C2316 C2315 1.355 . S
C2316 C2318 1.419 . S
C2317 C2312 1.425 . S
C2317 C2314 1.409 . S
C2317 C2315 1.415 . S
C2318 H2308 0.930 . S
C2318 C2316 1.419 . S
C2318 C2319 1.362 . S
C2319 H2309 0.930 . S
C2319 C2312 1.409 . S
C2319 C2318 1.362 . S
H2320 C2326 0.930 . S
H2321 C2329 0.930 . S
H2322 C2330 0.930 . S
H2323 C2331 0.930 . S
H2324 C2334 0.930 . S
H2325 C2335 0.930 . S
C2326 H2320 0.930 . S
C2326 C2327 1.355 . S
C2326 C2328 1.415 . S
C2327 C2326 1.355 . S
C2327 C2329 1.419 . S
C2328 C2326 1.415 . S
C2328 C2333 1.425 . S
C2328 C2335 1.409 . S
C2329 H2321 0.930 . S
C2329 C2327 1.419 . S
C2329 C2330 1.362 . S
C2330 H2322 0.930 . S
C2330 C2329 1.362 . S
C2330 C2333 1.409 . S
C2331 H2323 0.930 . S
C2331 C2332 1.355 . S
C2331 C2333 1.415 . S
C2332 C2331 1.355 . S
C2332 C2334 1.419 . S
C2333 C2328 1.425 . S
C2333 C2330 1.409 . S
C2333 C2331 1.415 . S
C2334 H2324 0.930 . S
C2334 C2332 1.419 . S
C2334 C2335 1.362 . S
C2335 H2325 0.930 . S
C2335 C2328 1.409 . S
C2335 C2334 1.362 . S
H2336 C2342 0.930 . S
H2337 C2345 0.930 . S
H2338 C2346 0.930 1_655 S
H2339 C2347 0.930 . S
H2340 C2350 0.930 . S
H2341 C2351 0.930 1_455 S
C2342 H2336 0.930 . S
C2342 C2343 1.355 . S
C2342 C2344 1.415 . S
C2343 C2342 1.355 . S
C2343 C2345 1.419 . S
C2344 C2342 1.415 . S
C2344 C2349 1.425 1_455 S
C2344 C2351 1.409 1_455 S
C2345 H2337 0.930 . S
C2345 C2343 1.419 . S
C2345 C2346 1.362 . S
C2346 H2338 0.930 1_455 S
C2346 C2345 1.362 . S
C2346 C2349 1.409 1_455 S
C2347 H2339 0.930 . S
C2347 C2348 1.355 . S
C2347 C2349 1.415 . S
C2348 C2347 1.355 . S
C2348 C2350 1.419 . S
C2349 C2344 1.425 1_655 S
C2349 C2346 1.409 1_655 S
C2349 C2347 1.415 . S
C2350 H2340 0.930 . S
C2350 C2348 1.419 . S
C2350 C2351 1.362 . S
C2351 H2341 0.930 1_655 S
C2351 C2344 1.409 1_655 S
C2351 C2350 1.362 . S
H2352 C2358 0.930 . S
H2353 C2361 0.930 . S
H2354 C2362 0.930 . S
H2355 C2363 0.930 . S
H2356 C2366 0.930 . S
H2357 C2367 0.930 . S
C2358 H2352 0.930 . S
C2358 C2359 1.355 1_655 S
C2358 C2360 1.415 . S
C2359 C2358 1.355 1_455 S
C2359 C2361 1.419 . S
C2360 C2358 1.415 . S
C2360 C2365 1.425 1_655 S
C2360 C2367 1.409 . S
C2361 H2353 0.930 . S
C2361 C2359 1.419 . S
C2361 C2362 1.362 . S
C2362 H2354 0.930 . S
C2362 C2361 1.362 . S
C2362 C2365 1.409 . S
C2363 H2355 0.930 . S
C2363 C2364 1.355 1_455 S
C2363 C2365 1.415 . S
C2364 C2363 1.355 1_655 S
C2364 C2366 1.419 . S
C2365 C2360 1.425 1_455 S
C2365 C2362 1.409 . S
C2365 C2363 1.415 . S
C2366 H2356 0.930 . S
C2366 C2364 1.419 . S
C2366 C2367 1.362 . S
C2367 H2357 0.930 . S
C2367 C2360 1.409 . S
C2367 C2366 1.362 . S
C1095 C20 1.844 . S
C1100 C258 1.828 . S
C1111 C54 1.839 . S
C1116 C156 1.824 . S
C1127 C88 1.858 . S
C1132 C190 1.845 . S
C1143 C122 1.836 . S
C1148 C224 1.821 . S
C1159 C530 1.821 . S
C1164 C292 1.816 . S
C1175 C326 1.819 . S
C1180 C428 1.831 . S
C1191 C462 1.817 . S
C1196 C360 1.828 . S
C1207 C394 1.863 . S
C1212 C496 1.858 . S
C1223 C564 1.833 . S
C1228 C802 1.850 . S
C1239 C700 1.860 . S
C1244 C598 1.863 . S
C1255 C632 1.820 . S
C1260 C734 1.815 . S
C1271 C666 1.826 . S
C1276 C768 1.842 . S
C1287 C836 1.848 . S
C1292 C1074 1.832 . S
C1303 C870 1.816 . S
C1308 C972 1.824 . S
C1319 C1006 1.862 . S
C1324 C904 1.851 . S
C1335 C1040 1.827 . S
C1340 C938 1.844 . S
C1351 C206 1.609 . S
C1356 C2 1.609 . S
C1367 C36 1.608 . S
C1372 C240 1.608 . S
C1383 C70 1.613 . S
C1388 C138 1.612 . S
C1399 C104 1.614 . S
C1404 C172 1.614 . S
C1415 C274 1.610 . S
C1420 C478 1.611 . S
C1431 C512 1.608 . S
C1436 C308 1.608 . S
C1447 C410 1.612 . S
C1452 C342 1.612 . S
C1463 C444 1.613 . S
C1468 C376 1.613 . S
C1479 C546 1.611 . S
C1484 C750 1.610 . S
C1495 C784 1.613 . S
C1500 C580 1.612 . S
C1511 C682 1.609 . S
C1516 C614 1.608 . S
C1527 C648 1.612 . S
C1532 C716 1.612 . S
C1543 C1022 1.608 . S
C1548 C818 1.608 . S
C1559 C852 1.611 . S
C1564 C1056 1.611 . S
C1575 C954 1.613 . S
C1580 C886 1.612 . S
C1591 C988 1.613 . S
C1596 C920 1.614 . S
C1607 C957 0.782 . S
C1612 C9 0.842 1_565 S
C1623 C447 0.729 . S
C1628 C43 0.723 . S
C1639 C1025 0.781 . S
C1644 C77 0.719 1_545 S
C1655 C111 0.710 . S
C1660 C515 0.776 . S
C1671 C821 0.735 . S
C1676 C145 0.749 1_545 S
C1687 C311 0.808 . S
C1692 C179 0.853 . S
C1703 C889 0.731 . S
C1708 C213 0.736 1_565 S
C1719 C247 0.751 . S
C1724 C379 0.735 . S
C1735 C281 0.831 1_545 S
C1740 C685 0.772 . S
C1751 C315 0.676 . S
C1756 C175 0.737 . S
C1767 C349 0.836 1_565 S
C1772 C753 0.777 . S
C1783 C243 0.814 . S
C1788 C383 0.827 . S
C1799 C549 0.784 . S
C1804 C417 0.844 1_565 S
C1815 C451 0.722 . S
C1820 C39 0.729 . S
C1831 C485 0.774 1_545 S
C1836 C617 0.804 . S
C1847 C519 0.841 . S
C1852 C107 0.781 . S
C1863 C413 0.814 . S
C1868 C553 0.834 . S
C1879 C587 0.833 . S
C1884 C991 0.815 . S
C1895 C481 0.770 . S
C1900 C621 0.827 . S
C1911 C655 0.677 . S
C1916 C1059 0.735 . S
C1927 C689 0.676 . S
C1932 C277 0.747 . S
C1943 C723 0.778 . S
C1948 C855 0.744 . S
C1959 C345 0.814 . S
C1964 C757 0.823 . S
C1975 C791 0.683 . S
C1980 C923 0.731 . S
C1991 C141 0.803 . S
C1996 C825 0.772 . S
C2007 C719 0.728 . S
C2012 C859 0.705 . S
C2023 C209 0.771 . S
C2028 C893 0.701 . S
C2039 C787 0.730 . S
C2044 C927 0.686 . S
C2055 C5 0.812 . S
C2060 C961 0.849 . S
C2071 C583 0.729 . S
C2076 C995 0.720 . S
C2087 C1029 0.837 . S
C2092 C73 0.777 . S
C2103 C651 0.812 . S
C2108 C1063 0.809 . S
C2119 C645 2.355 . S
C2124 C33 2.356 . S
C2135 C679 2.349 . S
C2140 C67 2.352 . S
C2151 C101 2.356 . S
C2156 C577 2.353 . S
C2167 C135 2.351 . S
C2172 C611 2.355 . S
C2183 C781 2.350 . S
C2188 C169 2.348 . S
C2199 C203 2.356 . S
C2204 C815 2.355 . S
C2215 C713 2.348 . S
C2220 C237 2.350 . S
C2231 C747 2.355 . S
C2236 C271 2.355 . S
C2247 C917 2.356 . S
C2252 C305 2.354 . S
C2263 C951 2.356 . S
C2268 C339 2.354 . S
C2279 C373 2.348 . S
C2284 C849 2.351 . S
C2295 C407 2.351 . S
C2300 C883 2.348 . S
C2311 C441 2.349 . S
C2316 C1053 2.352 . S
C2327 C475 2.356 . S
C2332 C1087 2.354 . S
C2343 C985 2.356 . S
C2348 C509 2.353 . S
C2359 C1019 2.356 . S
C2364 C543 2.355 . S
