# Generated by pormake.
# Topology rob, (6)-cn, num edge types: 1
# Building blocks:
#     Node 0, Type 0, BuildingBlock: CUKXOW_clean_sbu_0, # of connection points: 6
#     Node 1, Type 0, BuildingBlock: CUKXOW_clean_sbu_0, # of connection points: 6
#     Node 2, Type 0, BuildingBlock: CUKXOW_clean_sbu_0, # of connection points: 6
#     Node 3, Type 0, BuildingBlock: CUKXOW_clean_sbu_0, # of connection points: 6
#     Edge 4, Type (0, 0), BuildingBlock: ZUJKAS_clean_linker_0, # of connection points: 2
#     Edge 5, Type (0, 0), BuildingBlock: ZUJKAS_clean_linker_0, # of connection points: 2
#     Edge 6, Type (0, 0), BuildingBlock: ZUJKAS_clean_linker_0, # of connection points: 2
#     Edge 7, Type (0, 0), BuildingBlock: ZUJKAS_clean_linker_0, # of connection points: 2
#     Edge 8, Type (0, 0), BuildingBlock: ZUJKAS_clean_linker_0, # of connection points: 2
#     Edge 9, Type (0, 0), BuildingBlock: ZUJKAS_clean_linker_0, # of connection points: 2
#     Edge 10, Type (0, 0), BuildingBlock: ZUJKAS_clean_linker_0, # of connection points: 2
#     Edge 11, Type (0, 0), BuildingBlock: ZUJKAS_clean_linker_0, # of connection points: 2
#     Edge 12, Type (0, 0), BuildingBlock: ZUJKAS_clean_linker_0, # of connection points: 2
#     Edge 13, Type (0, 0), BuildingBlock: ZUJKAS_clean_linker_0, # of connection points: 2
#     Edge 14, Type (0, 0), BuildingBlock: ZUJKAS_clean_linker_0, # of connection points: 2
#     Edge 15, Type (0, 0), BuildingBlock: ZUJKAS_clean_linker_0, # of connection points: 2
# Relax obj value: 0.015
# Max RMSD: 0.092
# Mean RMSD: 0.092
data_MOF--net-rob--node1-CUKXOW_clean_sbu_0--edge1-ZUJKAS_clean_linker_0
_symmetry_space_group_name_H-M    P1
_symmetry_Int_Tables_number       1
_symmetry_cell_setting            triclinic
loop_
_symmetry_equiv_pos_as_xyz
'x, y, z'
_cell_length_a     16.317768
_cell_length_b     36.266703
_cell_length_c     37.001369
_cell_angle_alpha  103.08445
_cell_angle_beta   89.817336
_cell_angle_gamma 90.003234
loop_
_atom_site_label
_atom_site_type_symbol
_atom_site_fract_x
_atom_site_fract_y
_atom_site_fract_z
_atom_type_partial_charge
Tb0 Tb 0.30667 0.24224 0.03818 0.0
C1 C 0.32161 0.31524 0.0082 0.0
Tb2 Tb 0.19037 0.25162 0.97522 0.0
O3 O 0.41246 0.2364 1.00046 0.0
O4 O 0.29562 0.21963 0.98067 0.0
O5 O 0.32896 0.3012 0.03821 0.0
C6 C 0.13069 0.25841 0.91 0.0
O7 O 0.2796 0.29758 0.97853 0.0
C8 C 0.1291 0.26971 0.04233 0.0
C9 C 0.17833 0.17667 1.00397 0.0
O10 O 0.12297 0.28353 0.941 0.0
O11 O 0.17076 0.22955 0.91594 0.0
O12 O 0.08464 0.25764 0.01291 0.0
O13 O 0.20161 0.27448 0.03267 0.0
O14 O 0.15817 0.19405 0.97728 0.0
O15 O 0.23138 0.191 0.03075 0.0
C16 C 0.36345 0.2358 0.10406 0.0
O17 O 0.28906 0.2444 0.09713 0.0
O18 O 0.40647 0.23056 0.07374 0.0
C19 C 0.36813 0.22429 0.97103 0.0
Tb20 Tb 0.80957 0.74259 0.03783 0.0
C21 C 0.81821 0.81552 0.00645 0.0
Tb22 Tb 0.69765 0.74696 0.97136 0.0
O23 O 0.9187 0.74082 1.00273 0.0
O24 O 0.80666 0.71903 0.98028 0.0
O25 O 0.83235 0.80092 0.03567 0.0
C26 C 0.64282 0.75063 0.90429 0.0
O27 O 0.77389 0.79791 0.97748 0.0
C28 C 0.62881 0.76304 0.03705 0.0
C29 C 0.68907 0.67413 1.00273 0.0
O30 O 0.70374 0.73022 0.91085 0.0
O31 O 0.61183 0.76892 0.93564 0.0
O32 O 0.5889 0.74839 0.00681 0.0
O33 O 0.70079 0.7705 0.02883 0.0
O34 O 0.67634 0.68842 0.97318 0.0
O35 O 0.73187 0.69215 0.03203 0.0
C36 C 0.86436 0.73906 0.10486 0.0
O37 O 0.89174 0.71881 0.07361 0.0
O38 O 0.80703 0.76132 0.09823 0.0
C39 C 0.87896 0.72644 0.97238 0.0
Tb40 Tb 0.31015 0.74902 0.47208 0.0
C41 C 0.31645 0.67602 0.50357 0.0
Tb42 Tb 0.19624 0.7448 0.53827 0.0
O43 O 0.41874 0.75 0.50705 0.0
O44 O 0.3069 0.77194 0.52985 0.0
O45 O 0.33073 0.69044 0.47419 0.0
C46 C 0.13617 0.7411 0.60461 0.0
O47 O 0.27294 0.69409 0.53275 0.0
C48 C 0.12814 0.72979 0.47261 0.0
C49 C 0.18992 0.81778 0.50692 0.0
O50 O 0.11224 0.72035 0.57305 0.0
O51 O 0.19324 0.76389 0.59868 0.0
O52 O 0.08805 0.7441 0.50299 0.0
O53 O 0.19983 0.72184 0.48063 0.0
O54 O 0.1763 0.80345 0.53639 0.0
O55 O 0.23287 0.79962 0.47758 0.0
C56 C 0.36966 0.75212 0.40548 0.0
O57 O 0.39172 0.77403 0.43678 0.0
O58 O 0.31464 0.72857 0.41181 0.0
C59 C 0.3789 0.76401 0.53756 0.0
Tb60 Tb 0.80853 0.25213 0.47513 0.0
C61 C 0.82536 0.17889 0.50604 0.0
Tb62 Tb 0.68844 0.24087 0.53794 0.0
O63 O 0.91457 0.26124 0.51278 0.0
O64 O 0.79578 0.27176 0.53303 0.0
O65 O 0.83892 0.19438 0.47728 0.0
C66 C 0.61997 0.23565 0.60233 0.0
O67 O 0.77682 0.19456 0.53436 0.0
C68 C 0.62892 0.22438 0.4705 0.0
C69 C 0.67088 0.3134 0.50595 0.0
O70 O 0.62409 0.20842 0.57273 0.0
O71 O 0.65415 0.2657 0.59559 0.0
O72 O 0.58337 0.23391 0.50003 0.0
O73 O 0.70161 0.22062 0.48021 0.0
O74 O 0.65932 0.29868 0.53534 0.0
O75 O 0.71788 0.29708 0.47737 0.0
C76 C 0.87387 0.259 0.41063 0.0
O77 O 0.87031 0.28572 0.44063 0.0
O78 O 0.84142 0.22852 0.41713 0.0
C79 C 0.86903 0.26877 0.54242 0.0
H80 H 0.69367 0.63654 0.0591 0.0
H81 H 0.63427 0.5748 0.05972 0.0
H82 H 0.54383 0.56542 0.94864 0.0
H83 H 0.60365 0.62685 0.94746 0.0
H84 H 0.46838 0.55316 0.05011 0.0
H85 H 0.66637 0.46506 0.94174 0.0
H86 H 0.69191 0.51316 0.96444 0.0
H87 H 0.61716 0.50397 0.92793 0.0
C88 C 0.66166 0.62129 0.03467 0.0
C89 C 0.65389 0.6366 1.00313 0.0
C90 C 0.62766 0.58604 0.03513 0.0
C91 C 0.5858 0.56537 1.00403 0.0
C92 C 0.57737 0.58062 0.97264 0.0
H93 H 0.3225 0.35289 0.95189 0.0
H94 H 0.38593 0.41393 0.95181 0.0
C95 C 0.61125 0.61586 0.97213 0.0
C96 C 0.54867 0.52835 1.00485 0.0
H97 H 0.55206 0.43452 0.96203 0.0
C98 C 0.48692 0.52715 0.03103 0.0
C99 C 0.57299 0.49457 0.97982 0.0
C100 C 0.64124 0.49402 0.95208 0.0
C101 C 0.44755 0.49309 0.03237 0.0
C102 C 0.47172 0.45933 0.00727 0.0
C103 C 0.53365 0.46051 0.98117 0.0
C104 C 0.43338 0.42243 0.0076 0.0
C105 C 0.37912 0.49368 0.06004 0.0
C106 C 0.44005 0.40683 0.03886 0.0
C107 C 0.40379 0.37199 0.03907 0.0
C108 C 0.36056 0.35201 0.0079 0.0
C109 C 0.35497 0.36756 0.97643 0.0
C110 C 0.39127 0.40241 0.97628 0.0
H111 H 0.35452 0.52271 0.07061 0.0
H112 H 0.32812 0.47485 0.0475 0.0
H113 H 0.40278 0.48337 0.08405 0.0
H114 H 0.47374 0.42151 0.06303 0.0
H115 H 0.40978 0.36076 0.06368 0.0
H116 H 0.30357 0.63685 0.55857 0.0
H117 H 0.36075 0.57468 0.55901 0.0
H118 H 0.46451 0.56755 0.45033 0.0
H119 H 0.40678 0.62946 0.4493 0.0
H120 H 0.38283 0.50145 0.45784 0.0
H121 H 0.60282 0.55097 0.57286 0.0
H122 H 0.49859 0.56538 0.58363 0.0
H123 H 0.55331 0.58286 0.54874 0.0
C124 C 0.33859 0.62214 0.53473 0.0
C125 C 0.35072 0.63827 0.50393 0.0
C126 C 0.37162 0.58668 0.53515 0.0
C127 C 0.41783 0.5668 0.50493 0.0
C128 C 0.42931 0.58255 0.474 0.0
H129 H 0.67462 0.35175 0.45012 0.0
H130 H 0.61063 0.41248 0.44954 0.0
C131 C 0.39631 0.61799 0.47352 0.0
C132 C 0.45331 0.52929 0.5053 0.0
H133 H 0.58836 0.48462 0.55133 0.0
C134 C 0.42796 0.49773 0.47819 0.0
C135 C 0.51206 0.52461 0.53193 0.0
C136 C 0.544 0.55776 0.56077 0.0
C137 C 0.45898 0.46143 0.4773 0.0
C138 C 0.51787 0.45677 0.50388 0.0
C139 C 0.54303 0.48831 0.53105 0.0
C140 C 0.55492 0.41946 0.50382 0.0
C141 C 0.42733 0.42829 0.44838 0.0
C142 C 0.54605 0.40357 0.53482 0.0
C143 C 0.58299 0.36894 0.53539 0.0
C144 C 0.63007 0.34967 0.50502 0.0
C145 C 0.63872 0.36572 0.47397 0.0
C146 C 0.60171 0.40035 0.47345 0.0
H147 H 0.36789 0.43487 0.43669 0.0
H148 H 0.47224 0.42118 0.42527 0.0
H149 H 0.41931 0.40294 0.46017 0.0
H150 H 0.51047 0.41799 0.55861 0.0
H151 H 0.57507 0.35748 0.55978 0.0
H152 H 0.19787 0.13312 0.05491 0.0
H153 H 0.13634 0.07149 0.05404 0.0
H154 H 0.01292 0.07406 0.95179 0.0
H155 H 0.07454 0.13552 0.95209 0.0
H156 H 0.96629 0.05379 0.05301 0.0
H157 H 0.13003 0.97038 0.92931 0.0
H158 H 0.16417 0.01656 0.95403 0.0
H159 H 0.07931 0.01227 0.92255 0.0
C160 C 0.15802 0.12056 0.03208 0.0
C161 C 0.1415 0.13925 1.00346 0.0
C162 C 0.12285 0.08536 0.0317 0.0
C163 C 0.07106 0.06808 1.00261 0.0
C164 C 0.05396 0.08667 0.97413 0.0
H165 H 0.80084 0.85642 0.95307 0.0
H166 H 0.85982 0.91831 0.9527 0.0
C167 C 0.08895 0.1219 0.9745 0.0
C168 C 0.0331 0.03106 1.00264 0.0
H169 H 0.02431 0.93901 0.95449 0.0
C170 C 0.97908 0.02863 0.03157 0.0
C171 C 0.04982 -0.00156 0.9745 0.0
C172 C 0.10949 -0.00073 0.94346 0.0
C173 C 0.94035 0.99442 0.03289 0.0
C174 C 0.95751 0.9617 1.0049 0.0
C175 C 0.01128 0.96419 0.97587 0.0
C176 C 0.92112 0.92446 0.00548 0.0
C177 C 0.88023 0.99381 0.06383 0.0
C178 C 0.93692 0.90726 0.03509 0.0
C179 C 0.90313 0.87198 0.0355 0.0
C180 C 0.8534 0.85307 0.0061 0.0
C181 C 0.83852 0.87023 0.97624 0.0
C182 C 0.87224 0.90557 0.97593 0.0
H183 H 0.85725 0.02264 0.07673 0.0
H184 H 0.82707 0.97531 0.05361 0.0
H185 H 0.91119 0.98253 0.08572 0.0
H186 H 0.97603 0.92098 0.05776 0.0
H187 H 0.91652 0.85951 0.05879 0.0
H188 H 0.92256 0.13563 0.45222 0.0
H189 H 0.98501 0.07439 0.45223 0.0
H190 H 0.88245 0.07805 0.56052 0.0
H191 H 0.81888 0.13908 0.56071 0.0
H192 H 0.09695 0.05517 0.50232 0.0
H193 H 0.80613 0.97508 0.49938 0.0
H194 H 0.8107 0.02139 0.48912 0.0
H195 H 0.81253 0.01662 0.53642 0.0
C196 C 0.91307 0.12346 0.47607 0.0
C197 C 0.86508 0.14221 0.50635 0.0
C198 C 0.94892 0.08844 0.476 0.0
C199 C 0.93722 0.07142 0.50609 0.0
C200 C 0.89076 0.09033 0.53666 0.0
H201 H 0.09912 0.86392 0.56125 0.0
H202 H 0.04067 0.92572 0.56051 0.0
C203 C 0.85479 0.12533 0.53677 0.0
C204 C 0.97449 0.03407 0.50565 0.0
H205 H 0.92817 0.94308 0.50898 0.0
C206 C 0.06014 0.03059 0.50359 0.0
C207 C 0.92617 0.00209 0.50727 0.0
C208 C 0.83375 0.00373 0.50783 0.0
C209 C 0.09895 0.9961 0.5039 0.0
C210 C 0.05063 0.96421 0.50576 0.0
C211 C 0.96499 0.96765 0.50766 0.0
C212 C 0.08767 0.927 0.50609 0.0
C213 C 0.19134 0.9943 0.50313 0.0
C214 C 0.13289 0.90708 0.47554 0.0
C215 C 0.16651 0.87168 0.47582 0.0
C216 C 0.15519 0.85548 0.50664 0.0
C217 C 0.10937 0.87551 0.53709 0.0
C218 C 0.07577 0.91086 0.53674 0.0
H219 H 0.2193 0.02295 0.51062 0.0
H220 H 0.2144 0.97737 0.52249 0.0
H221 H 0.21213 0.98044 0.47472 0.0
H222 H 0.14144 0.91874 0.45131 0.0
H223 H 0.20092 0.85697 0.45178 0.0
H224 H 0.70803 0.19311 0.40604 0.0
H225 H 0.66841 0.19649 0.34306 0.0
H226 H 0.4448 0.25373 0.38612 0.0
H227 H 0.48712 0.25255 0.44928 0.0
H228 H 0.53938 0.1675 0.30211 0.0
H229 H 0.53025 0.32378 0.32476 0.0
H230 H 0.57479 0.30015 0.35796 0.0
H231 H 0.46551 0.30651 0.35651 0.0
C232 C 0.6516 0.20727 0.40203 0.0
C233 C 0.60193 0.22363 0.43244 0.0
C234 C 0.62844 0.20876 0.36608 0.0
C235 C 0.55463 0.22626 0.35997 0.0
C236 C 0.50325 0.24119 0.39028 0.0
H237 H 0.27825 0.25062 0.16877 0.0
H238 H 0.32789 0.24755 0.23041 0.0
C239 C 0.52696 0.2401 0.42627 0.0
C240 C 0.53042 0.228 0.32181 0.0
H241 H 0.47069 0.28874 0.26853 0.0
C242 C 0.52506 0.19403 0.29468 0.0
C243 C 0.51218 0.2627 0.31212 0.0
C244 C 0.52177 0.30037 0.33927 0.0
C245 C 0.49976 0.19374 0.25841 0.0
C246 C 0.47966 0.2283 0.24907 0.0
C247 C 0.48583 0.26229 0.27597 0.0
C248 C 0.45033 0.22971 0.21167 0.0
C249 C 0.49277 0.15644 0.23051 0.0
C250 C 0.50313 0.22093 0.18089 0.0
C251 C 0.47499 0.22277 0.14567 0.0
C252 C 0.39372 0.23338 0.14087 0.0
C253 C 0.34111 0.24221 0.17175 0.0
C254 C 0.36933 0.24054 0.20691 0.0
H255 H 0.49682 0.13192 0.24379 0.0
H256 H 0.43391 0.15485 0.21525 0.0
H257 H 0.54325 0.15409 0.20994 0.0
H258 H 0.56618 0.21298 0.1842 0.0
H259 H 0.51673 0.216 0.12228 0.0
H260 H 0.51173 0.7192 0.05906 0.0
H261 H 0.47028 0.71926 0.12297 0.0
H262 H 0.63992 0.81009 0.16435 0.0
H263 H 0.68068 0.81041 0.10053 0.0
H264 H 0.58341 0.70896 0.18225 0.0
H265 H 0.41519 0.84606 0.21561 0.0
H266 H 0.43473 0.82053 0.16848 0.0
H267 H 0.51568 0.84656 0.19557 0.0
C268 C 0.53924 0.73947 0.08183 0.0
C269 C 0.59956 0.76469 0.07508 0.0
C270 C 0.51596 0.73934 0.11823 0.0
C271 C 0.55177 0.76482 0.14829 0.0
C272 C 0.61102 0.79047 0.1415 0.0
H273 H 0.47833 0.8027 0.3879 0.0
H274 H 0.52749 0.80561 0.32578 0.0
C275 C 0.63454 0.79047 0.10515 0.0
C276 C 0.52878 0.76385 0.18681 0.0
H277 H 0.4318 0.81432 0.26424 0.0
C278 C 0.55009 0.73192 0.20019 0.0
C279 C 0.48626 0.79407 0.21018 0.0
C280 C 0.46095 0.82872 0.19683 0.0
C281 C 0.52992 0.72941 0.23648 0.0
C282 C 0.48569 0.75926 0.25961 0.0
C283 C 0.46551 0.79145 0.24639 0.0
C284 C 0.45753 0.75709 0.2972 0.0
C285 C 0.55713 0.6951 0.24996 0.0
C286 C 0.40139 0.72911 0.3016 0.0
C287 C 0.37336 0.72744 0.33691 0.0
C288 C 0.40065 0.75384 0.36841 0.0
C289 C 0.45659 0.78194 0.36404 0.0
C290 C 0.48456 0.78365 0.32864 0.0
H291 H 0.60835 0.68006 0.23292 0.0
H292 H 0.57704 0.70314 0.27937 0.0
H293 H 0.50502 0.67511 0.24807 0.0
H294 H 0.37849 0.70881 0.27765 0.0
H295 H 0.32993 0.70558 0.33952 0.0
H296 H 0.51374 0.79097 0.88645 0.0
H297 H 0.4685 0.79443 0.82404 0.0
H298 H 0.66569 0.71991 0.77602 0.0
H299 H 0.71059 0.71607 0.83813 0.0
H300 H 0.56132 0.81848 0.76724 0.0
H301 H 0.45771 0.6692 0.72288 0.0
H302 H 0.47443 0.69213 0.77094 0.0
H303 H 0.56 0.67518 0.74112 0.0
C304 C 0.54709 0.77525 0.86252 0.0
C305 C 0.6151 0.753 0.867 0.0
C306 C 0.52136 0.77729 0.82698 0.0
C307 C 0.56302 0.75697 0.79546 0.0
C308 C 0.63171 0.73518 0.79996 0.0
H309 H 0.50607 0.72446 0.55754 0.0
H310 H 0.55234 0.72465 0.62058 0.0
C311 C 0.65741 0.73313 0.83543 0.0
C312 C 0.53547 0.75888 0.75781 0.0
H313 H 0.46227 0.70486 0.67659 0.0
C314 C 0.53924 0.79373 0.74742 0.0
C315 C 0.50689 0.72649 0.7321 0.0
C316 C 0.4987 0.68865 0.74229 0.0
C317 C 0.5169 0.79689 0.71161 0.0
C318 C 0.48856 0.76444 0.68582 0.0
C319 C 0.48432 0.72966 0.69635 0.0
C320 C 0.4628 0.76584 0.64773 0.0
C321 C 0.52585 0.8347 0.70144 0.0
C322 C 0.39731 0.789 0.64208 0.0
C323 C 0.37146 0.78915 0.60613 0.0
C324 C 0.40962 0.76568 0.57531 0.0
C325 C 0.47574 0.74287 0.5809 0.0
C326 C 0.50187 0.74282 0.61684 0.0
H327 H 0.56869 0.85362 0.72036 0.0
H328 H 0.54831 0.83121 0.6725 0.0
H329 H 0.4652 0.84888 0.70365 0.0
H330 H 0.36536 0.80652 0.66548 0.0
H331 H 0.32135 0.80752 0.60244 0.0
H332 H 0.56747 0.17193 0.62294 0.0
H333 H 0.51831 0.16688 0.68448 0.0
H334 H 0.54835 0.28728 0.72477 0.0
H335 H 0.59832 0.29247 0.66357 0.0
H336 H 0.61521 0.19526 0.75507 0.0
H337 H 0.30561 0.25938 0.75385 0.0
H338 H 0.36 0.23764 0.71179 0.0
H339 H 0.38969 0.28363 0.73774 0.0
C340 C 0.56291 0.19732 0.64488 0.0
C341 C 0.58645 0.23259 0.63859 0.0
C342 C 0.53497 0.19439 0.67993 0.0
C343 C 0.5291 0.22676 0.70894 0.0
C344 C 0.55161 0.26207 0.70256 0.0
H345 H 0.50157 0.25746 0.94733 0.0
H346 H 0.54119 0.25604 0.883 0.0
C347 C 0.5803 0.26495 0.66768 0.0
C348 C 0.50343 0.22353 0.74648 0.0
H349 H 0.35092 0.24754 0.81089 0.0
C350 C 0.55729 0.20648 0.76728 0.0
C351 C 0.42761 0.23798 0.76205 0.0
C352 C 0.36681 0.2555 0.74026 0.0
C353 C 0.53806 0.20425 0.80373 0.0
C354 C 0.46334 0.21978 0.81979 0.0
C355 C 0.4085 0.23596 0.7986 0.0
C356 C 0.44112 0.2197 0.85863 0.0
C357 C 0.59759 0.18512 0.82471 0.0
C358 C 0.37161 0.19992 0.86619 0.0
C359 C 0.34927 0.20058 0.90283 0.0
C360 C 0.39522 0.22154 0.93247 0.0
C361 C 0.46536 0.24095 0.92492 0.0
C362 C 0.48798 0.24015 0.88825 0.0
H363 H 0.64157 0.16677 0.80578 0.0
H364 H 0.63321 0.20703 0.84418 0.0
H365 H 0.56467 0.16768 0.8412 0.0
H366 H 0.33478 0.1839 0.84373 0.0
H367 H 0.29609 0.18466 0.90799 0.0
H368 H 0.98308 0.69329 0.12279 0.0
H369 H 0.0261 0.68898 0.18522 0.0
H370 H 0.85081 0.77546 0.23313 0.0
H371 H 0.80678 0.7794 0.17098 0.0
H372 H 0.09125 0.7447 0.2415 0.0
H373 H 0.79781 0.69209 0.28677 0.0
H374 H 0.8193 0.69202 0.23887 0.0
H375 H 0.78713 0.73486 0.27054 0.0
C376 C 0.95367 0.71124 0.1467 0.0
C377 C 0.89158 0.73659 0.14218 0.0
C378 C 0.97822 0.70877 0.18228 0.0
C379 C 0.94068 0.73144 0.2138 0.0
C380 C 0.87929 0.75709 0.20922 0.0
H381 H 0.00454 0.77074 0.45169 0.0
H382 H 0.96044 0.77033 0.38827 0.0
C383 C 0.85468 0.75953 0.17372 0.0
C384 C 0.96731 0.72914 0.2515 0.0
H385 H 0.8983 0.71248 0.33356 0.0
C386 C 0.04927 0.73741 0.26158 0.0
C387 C 0.91232 0.71963 0.27761 0.0
C388 C 0.82444 0.70879 0.26787 0.0
C389 C 0.07735 0.73739 0.2974 0.0
C390 C 0.02218 0.7282 0.32364 0.0
C391 C 0.94037 0.71964 0.31345 0.0
C392 C 0.04788 0.72767 0.36193 0.0
C393 C 0.16541 0.74796 0.30698 0.0
C394 C 0.1103 0.70321 0.36817 0.0
C395 C 0.13543 0.70346 0.4043 0.0
C396 C 0.09836 0.72803 0.43473 0.0
C397 C 0.03414 0.75159 0.42861 0.0
C398 C 0.00914 0.75143 0.39246 0.0
H399 H 0.19246 0.76433 0.28787 0.0
H400 H 0.17111 0.7649 0.33588 0.0
H401 H 0.20194 0.7217 0.30438 0.0
H402 H 0.13955 0.68392 0.3451 0.0
H403 H 0.18371 0.68436 0.40845 0.0
H404 H 0.89441 0.20311 0.34856 0.0
H405 H 0.94336 0.20936 0.28755 0.0
H406 H 0.9726 0.32961 0.32941 0.0
H407 H 0.92431 0.32348 0.39077 0.0
H408 H 0.87944 0.30387 0.25879 0.0
H409 H 0.18469 0.23575 0.25923 0.0
H410 H 0.09926 0.21088 0.27333 0.0
H411 H 0.12902 0.25597 0.30136 0.0
C412 C 0.91194 0.23083 0.34483 0.0
C413 C 0.90602 0.26281 0.37434 0.0
C414 C 0.94004 0.23433 0.31004 0.0
C415 C 0.96224 0.26987 0.30415 0.0
C416 C 0.95617 0.30191 0.33355 0.0
H417 H 0.20184 0.30983 0.1052 0.0
H418 H 0.16087 0.31248 0.16961 0.0
C419 C 0.92878 0.29837 0.3685 0.0
C420 C 0.98884 0.27361 0.26685 0.0
H421 H 0.14031 0.24812 0.20216 0.0
C422 C 0.93671 0.29195 0.24644 0.0
C423 C 0.06382 0.25824 0.25104 0.0
C424 C 0.12299 0.23932 0.27235 0.0
C425 C 0.95666 0.29443 0.21011 0.0
C426 C 0.03039 0.27795 0.19382 0.0
C427 C 0.08361 0.26055 0.21465 0.0
C428 C 0.0528 0.27783 0.15495 0.0
C429 C 0.89883 0.31468 0.18942 0.0
C430 C 0.00547 0.25754 0.12544 0.0
C431 C 0.02916 0.25573 0.08871 0.0
C432 C 0.10085 0.27396 0.08096 0.0
C433 C 0.1469 0.29509 0.1105 0.0
C434 C 0.12353 0.2967 0.14722 0.0
H435 H 0.85566 0.33338 0.2085 0.0
H436 H 0.93325 0.33197 0.17326 0.0
H437 H 0.86225 0.29345 0.16965 0.0
H438 H 0.95124 0.24238 0.13082 0.0
H439 H 0.99265 0.23923 0.06641 0.0
H440 H 0.01045 0.30065 0.57356 0.0
H441 H 0.05873 0.30444 0.6371 0.0
H442 H 0.8441 0.24323 0.65899 0.0
H443 H 0.79535 0.2409 0.59647 0.0
H444 H 0.87099 0.29854 0.71528 0.0
H445 H 0.16565 0.22357 0.67655 0.0
H446 H 0.15653 0.26574 0.65929 0.0
H447 H 0.08819 0.22659 0.64272 0.0
C448 C 0.97377 0.28819 0.59215 0.0
C449 C 0.89835 0.27108 0.58046 0.0
C450 C 0.00162 0.29006 0.62829 0.0
C451 C 0.95571 0.27362 0.65279 0.0
C452 C 0.88052 0.25636 0.64082 0.0
H453 H 0.12639 0.20373 0.84658 0.0
H454 H 0.08288 0.20987 0.7851 0.0
C455 C 0.85212 0.25528 0.60511 0.0
C456 C 0.98462 0.27441 0.69102 0.0
H457 H 0.14342 0.24946 0.74044 0.0
C458 C 0.9306 0.28777 0.72076 0.0
C459 C 0.06206 0.25997 0.69818 0.0
C460 C 0.12111 0.24281 0.66748 0.0
C461 C 0.95101 0.28648 0.75726 0.0
C462 C 0.02915 0.27289 0.76452 0.0
C463 C 0.08377 0.26015 0.7349 0.0
C464 C 0.05408 0.26961 0.80223 0.0
C465 C 0.88717 0.2982 0.7873 0.0
C466 C 0.05267 0.30115 0.83239 0.0
C467 C 0.07594 0.29746 0.86777 0.0
C468 C 0.10271 0.26238 0.8733 0.0
C469 C 0.10548 0.23105 0.84306 0.0
C470 C 0.08101 0.23459 0.80791 0.0
H471 H 0.82435 0.29719 0.77561 0.0
H472 H 0.88896 0.27971 0.80745 0.0
H473 H 0.89914 0.32776 0.80248 0.0
H474 H 0.03439 0.3287 0.82854 0.0
H475 H 0.07444 0.32215 0.89061 0.0
H476 H 0.01869 0.69374 0.62114 0.0
H477 H 0.97232 0.68873 0.68302 0.0
H478 H 0.13923 0.77787 0.733 0.0
H479 H 0.18656 0.78254 0.67137 0.0
H480 H 0.1478 0.71535 0.76396 0.0
H481 H 0.82416 0.76061 0.75596 0.0
H482 H 0.85623 0.72219 0.71892 0.0
H483 H 0.90161 0.76815 0.72341 0.0
C484 C 0.04494 0.71239 0.64537 0.0
C485 C 0.10585 0.73863 0.64157 0.0
C486 C 0.01811 0.70968 0.68066 0.0
C487 C 0.05144 0.73333 0.7126 0.0
C488 C 0.11236 0.75951 0.70872 0.0
H489 H 0.99999 0.76864 0.95108 0.0
H490 H 0.04335 0.76853 0.88755 0.0
C491 C 0.13922 0.76219 0.67353 0.0
C492 C 0.02569 0.72991 0.75019 0.0
H493 H 0.86186 0.73893 0.80924 0.0
C494 C 0.08531 0.72057 0.7739 0.0
C495 C 0.94399 0.73649 0.76298 0.0
C496 C 0.87781 0.74774 0.73917 0.0
C497 C 0.06554 0.71751 0.81004 0.0
C498 C 0.9842 0.72469 0.82305 0.0
C499 C 0.92423 0.7335 0.79919 0.0
C500 C 0.96027 0.72386 0.86155 0.0
C501 C 0.13169 0.70605 0.83373 0.0
C502 C 0.89859 0.69912 0.868 0.0
C503 C 0.87374 0.69927 0.90421 0.0
C504 C 0.90944 0.72444 0.9345 0.0
C505 C 0.972 0.74878 0.92814 0.0
C506 C 0.99682 0.74868 0.89191 0.0
H507 H 0.18307 0.69129 0.81659 0.0
H508 H 0.15686 0.73178 0.85254 0.0
H509 H 0.10696 0.68721 0.85098 0.0
H510 H 0.86953 0.67978 0.84499 0.0
H511 H 0.82608 0.6799 0.90854 0.0
loop_
_geom_bond_atom_site_label_1
_geom_bond_atom_site_label_2
_geom_bond_distance
_geom_bond_site_symmetry_2
_ccdc_geom_bond_type
Tb0 O3 2.453 1_554 S
Tb0 O4 2.596 1_554 S
Tb0 O5 2.374 . S
Tb0 O13 2.343 . S
Tb0 O15 2.353 1_554 S
Tb0 O17 2.427 . S
Tb0 O18 2.513 . S
C1 O5 1.251 . S
C1 O7 1.263 . S
Tb2 O4 2.343 . S
Tb2 O7 2.353 1_556 S
Tb2 O10 2.427 . S
Tb2 O11 2.513 . S
Tb2 O12 2.453 1_556 S
Tb2 O13 2.596 1_556 S
Tb2 O14 2.374 . S
O3 Tb0 2.453 1_556 S
O3 C19 1.245 . S
O4 Tb0 2.596 1_556 S
O4 Tb2 2.343 . S
O4 C19 1.259 . S
O5 Tb0 2.374 . S
O5 C1 1.251 . S
C6 O10 1.275 . S
C6 O11 1.246 . S
O7 C1 1.263 . S
O7 Tb2 2.353 1_554 S
C8 O12 1.245 . S
C8 O13 1.259 . S
C9 O14 1.250 . S
C9 O15 1.263 . S
O10 Tb2 2.427 . S
O10 C6 1.275 . S
O11 Tb2 2.513 . S
O11 C6 1.246 . S
O12 Tb2 2.453 1_554 S
O12 C8 1.245 . S
O13 Tb0 2.343 . S
O13 Tb2 2.596 1_554 S
O13 C8 1.259 . S
O14 Tb2 2.374 . S
O14 C9 1.250 . S
O15 Tb0 2.353 1_556 S
O15 C9 1.263 . S
C16 O17 1.275 . S
C16 O18 1.246 . S
O17 Tb0 2.427 . S
O17 C16 1.275 . S
O18 Tb0 2.513 . S
O18 C16 1.246 . S
C19 O3 1.245 . S
C19 O4 1.259 . S
Tb20 O23 2.453 1_554 S
Tb20 O24 2.596 1_554 S
Tb20 O25 2.374 . S
Tb20 O33 2.343 . S
Tb20 O35 2.353 1_554 S
Tb20 O37 2.427 . S
Tb20 O38 2.513 . S
C21 O25 1.251 . S
C21 O27 1.263 . S
Tb22 O24 2.343 . S
Tb22 O27 2.353 1_556 S
Tb22 O30 2.427 . S
Tb22 O31 2.513 . S
Tb22 O32 2.453 1_556 S
Tb22 O33 2.596 1_556 S
Tb22 O34 2.374 . S
O23 Tb20 2.453 1_556 S
O23 C39 1.245 . S
O24 Tb20 2.596 1_556 S
O24 Tb22 2.343 . S
O24 C39 1.259 . S
O25 Tb20 2.374 . S
O25 C21 1.251 . S
C26 O30 1.275 . S
C26 O31 1.246 . S
O27 C21 1.263 . S
O27 Tb22 2.353 1_554 S
C28 O32 1.245 . S
C28 O33 1.259 . S
C29 O34 1.250 . S
C29 O35 1.263 . S
O30 Tb22 2.427 . S
O30 C26 1.275 . S
O31 Tb22 2.513 . S
O31 C26 1.246 . S
O32 Tb22 2.453 1_554 S
O32 C28 1.245 . S
O33 Tb20 2.343 . S
O33 Tb22 2.596 1_554 S
O33 C28 1.259 . S
O34 Tb22 2.374 . S
O34 C29 1.250 . S
O35 Tb20 2.353 1_556 S
O35 C29 1.263 . S
C36 O37 1.275 . S
C36 O38 1.246 . S
O37 Tb20 2.427 . S
O37 C36 1.275 . S
O38 Tb20 2.513 . S
O38 C36 1.246 . S
C39 O23 1.245 . S
C39 O24 1.259 . S
Tb40 O43 2.453 . S
Tb40 O44 2.596 . S
Tb40 O45 2.374 . S
Tb40 O53 2.343 . S
Tb40 O55 2.353 . S
Tb40 O57 2.427 . S
Tb40 O58 2.513 . S
C41 O45 1.251 . S
C41 O47 1.263 . S
Tb42 O44 2.343 . S
Tb42 O47 2.353 . S
Tb42 O50 2.427 . S
Tb42 O51 2.513 . S
Tb42 O52 2.453 . S
Tb42 O53 2.596 . S
Tb42 O54 2.374 . S
O43 Tb40 2.453 . S
O43 C59 1.245 . S
O44 Tb40 2.596 . S
O44 Tb42 2.343 . S
O44 C59 1.259 . S
O45 Tb40 2.374 . S
O45 C41 1.251 . S
C46 O50 1.275 . S
C46 O51 1.246 . S
O47 C41 1.263 . S
O47 Tb42 2.353 . S
C48 O52 1.245 . S
C48 O53 1.259 . S
C49 O54 1.250 . S
C49 O55 1.263 . S
O50 Tb42 2.427 . S
O50 C46 1.275 . S
O51 Tb42 2.513 . S
O51 C46 1.246 . S
O52 Tb42 2.453 . S
O52 C48 1.245 . S
O53 Tb40 2.343 . S
O53 Tb42 2.596 . S
O53 C48 1.259 . S
O54 Tb42 2.374 . S
O54 C49 1.250 . S
O55 Tb40 2.353 . S
O55 C49 1.263 . S
C56 O57 1.275 . S
C56 O58 1.246 . S
O57 Tb40 2.427 . S
O57 C56 1.275 . S
O58 Tb40 2.513 . S
O58 C56 1.246 . S
C59 O43 1.245 . S
C59 O44 1.259 . S
Tb60 O63 2.453 . S
Tb60 O64 2.596 . S
Tb60 O65 2.374 . S
Tb60 O73 2.343 . S
Tb60 O75 2.353 . S
Tb60 O77 2.427 . S
Tb60 O78 2.513 . S
C61 O65 1.251 . S
C61 O67 1.263 . S
Tb62 O64 2.343 . S
Tb62 O67 2.353 . S
Tb62 O70 2.427 . S
Tb62 O71 2.513 . S
Tb62 O72 2.453 . S
Tb62 O73 2.596 . S
Tb62 O74 2.374 . S
O63 Tb60 2.453 . S
O63 C79 1.245 . S
O64 Tb60 2.596 . S
O64 Tb62 2.343 . S
O64 C79 1.259 . S
O65 Tb60 2.374 . S
O65 C61 1.251 . S
C66 O70 1.275 . S
C66 O71 1.246 . S
O67 C61 1.263 . S
O67 Tb62 2.353 . S
C68 O72 1.245 . S
C68 O73 1.259 . S
C69 O74 1.250 . S
C69 O75 1.263 . S
O70 Tb62 2.427 . S
O70 C66 1.275 . S
O71 Tb62 2.513 . S
O71 C66 1.246 . S
O72 Tb62 2.453 . S
O72 C68 1.245 . S
O73 Tb60 2.343 . S
O73 Tb62 2.596 . S
O73 C68 1.259 . S
O74 Tb62 2.374 . S
O74 C69 1.250 . S
O75 Tb60 2.353 . S
O75 C69 1.263 . S
C76 O77 1.275 . S
C76 O78 1.246 . S
O77 Tb60 2.427 . S
O77 C76 1.275 . S
O78 Tb60 2.513 . S
O78 C76 1.246 . S
C79 O63 1.245 . S
C79 O64 1.259 . S
H80 C88 0.929 . S
H81 C90 0.930 . S
H82 C92 0.930 . S
H83 C95 0.929 . S
H84 C98 0.930 . S
H85 C100 0.960 . S
H86 C100 0.960 . S
H87 C100 0.960 . S
C88 H80 0.929 . S
C88 C89 1.383 . S
C88 C90 1.384 . S
C89 C88 1.383 . S
C89 C95 1.385 1_554 S
C90 H81 0.930 . S
C90 C88 1.384 . S
C90 C91 1.372 . S
C91 C90 1.372 . S
C91 C92 1.400 1_554 S
C91 C96 1.490 . S
C92 H82 0.930 . S
C92 C91 1.400 1_556 S
C92 C95 1.386 . S
H93 C109 0.930 . S
H94 C110 0.931 . S
C95 H83 0.929 . S
C95 C89 1.385 1_556 S
C95 C92 1.386 . S
C96 C91 1.490 . S
C96 C98 1.395 . S
C96 C99 1.403 1_554 S
H97 C103 0.930 . S
C98 H84 0.930 . S
C98 C96 1.395 . S
C98 C101 1.403 . S
C99 C96 1.403 1_556 S
C99 C100 1.524 . S
C99 C103 1.400 . S
C100 H85 0.960 . S
C100 H86 0.960 . S
C100 H87 0.960 . S
C100 C99 1.524 . S
C101 C98 1.403 . S
C101 C102 1.392 . S
C101 C105 1.495 . S
C102 C101 1.392 . S
C102 C103 1.385 1_554 S
C102 C104 1.478 . S
C103 H97 0.930 . S
C103 C99 1.400 . S
C103 C102 1.385 1_556 S
C104 C102 1.478 . S
C104 C106 1.381 . S
C104 C110 1.383 1_554 S
C105 C101 1.495 . S
C105 H111 0.959 . S
C105 H112 0.961 . S
C105 H113 0.960 . S
C106 C104 1.381 . S
C106 C107 1.394 . S
C106 H114 0.930 . S
C107 C106 1.394 . S
C107 C108 1.383 . S
C107 H115 0.929 . S
C108 C107 1.383 . S
C108 C109 1.377 1_554 S
C109 H93 0.930 . S
C109 C108 1.377 1_556 S
C109 C110 1.379 . S
C110 H94 0.931 . S
C110 C104 1.383 1_556 S
C110 C109 1.379 . S
H111 C105 0.959 . S
H112 C105 0.961 . S
H113 C105 0.960 . S
H114 C106 0.930 . S
H115 C107 0.929 . S
H116 C124 0.929 . S
H117 C126 0.930 . S
H118 C128 0.930 . S
H119 C131 0.929 . S
H120 C134 0.930 . S
H121 C136 0.960 . S
H122 C136 0.960 . S
H123 C136 0.960 . S
C124 H116 0.929 . S
C124 C125 1.377 . S
C124 C126 1.384 . S
C125 C124 1.377 . S
C125 C131 1.390 . S
C126 H117 0.930 . S
C126 C124 1.384 . S
C126 C127 1.372 . S
C127 C126 1.372 . S
C127 C128 1.400 . S
C127 C132 1.490 . S
C128 H118 0.930 . S
C128 C127 1.400 . S
C128 C131 1.386 . S
H129 C145 0.930 . S
H130 C146 0.931 . S
C131 H119 0.929 . S
C131 C125 1.390 . S
C131 C128 1.386 . S
C132 C127 1.490 . S
C132 C134 1.395 . S
C132 C135 1.403 . S
H133 C139 0.930 . S
C134 H120 0.930 . S
C134 C132 1.395 . S
C134 C137 1.403 . S
C135 C132 1.403 . S
C135 C136 1.524 . S
C135 C139 1.400 . S
C136 H121 0.960 . S
C136 H122 0.960 . S
C136 H123 0.960 . S
C136 C135 1.524 . S
C137 C134 1.403 . S
C137 C138 1.392 . S
C137 C141 1.495 . S
C138 C137 1.392 . S
C138 C139 1.385 . S
C138 C140 1.478 . S
C139 H133 0.930 . S
C139 C135 1.400 . S
C139 C138 1.385 . S
C140 C138 1.478 . S
C140 C142 1.381 . S
C140 C146 1.383 . S
C141 C137 1.495 . S
C141 H147 0.959 . S
C141 H148 0.961 . S
C141 H149 0.960 . S
C142 C140 1.381 . S
C142 C143 1.394 . S
C142 H150 0.930 . S
C143 C142 1.394 . S
C143 C144 1.383 . S
C143 H151 0.929 . S
C144 C143 1.383 . S
C144 C145 1.377 . S
C145 H129 0.930 . S
C145 C144 1.377 . S
C145 C146 1.379 . S
C146 H130 0.931 . S
C146 C140 1.383 . S
C146 C145 1.379 . S
H147 C141 0.959 . S
H148 C141 0.961 . S
H149 C141 0.960 . S
H150 C142 0.930 . S
H151 C143 0.929 . S
H152 C160 0.929 . S
H153 C162 0.925 . S
H154 C164 0.930 1_655 S
H155 C167 0.933 . S
H156 C170 0.930 . S
H157 C172 0.960 . S
H158 C172 0.960 1_455 S
H159 C172 0.960 . S
C160 H152 0.929 . S
C160 C161 1.375 . S
C160 C162 1.391 . S
C161 C160 1.375 . S
C161 C167 1.389 1_556 S
C162 H153 0.925 . S
C162 C160 1.391 . S
C162 C163 1.371 . S
C163 C162 1.371 . S
C163 C164 1.401 . S
C163 C168 1.489 1_556 S
C164 H154 0.930 1_455 S
C164 C163 1.401 . S
C164 C167 1.386 1_556 S
H165 C181 0.930 . S
H166 C182 0.931 . S
C167 H155 0.933 . S
C167 C161 1.389 1_554 S
C167 C164 1.386 1_554 S
C168 C163 1.489 1_554 S
C168 C170 1.395 . S
C168 C171 1.403 1_454 S
H169 C175 0.930 . S
C170 H156 0.930 . S
C170 C168 1.395 . S
C170 C173 1.403 1_545 S
C171 C168 1.403 1_656 S
C171 C172 1.524 . S
C171 C175 1.400 1_545 S
C172 H157 0.960 . S
C172 H158 0.960 1_655 S
C172 H159 0.960 . S
C172 C171 1.524 . S
C173 C170 1.403 1_565 S
C173 C174 1.392 1_455 S
C173 C177 1.495 . S
C174 C173 1.392 1_655 S
C174 C175 1.385 1_554 S
C174 C176 1.478 . S
C175 H169 0.930 . S
C175 C171 1.400 1_565 S
C175 C174 1.385 1_556 S
C176 C174 1.478 . S
C176 C178 1.381 . S
C176 C182 1.383 . S
C177 C173 1.495 . S
C177 H183 0.959 . S
C177 H184 0.961 1_455 S
C177 H185 0.960 . S
C178 C176 1.381 . S
C178 C179 1.395 1_554 S
C178 H186 0.930 1_655 S
C179 C178 1.395 1_556 S
C179 C180 1.383 1_556 S
C179 H187 0.929 . S
C180 C179 1.383 1_554 S
C180 C181 1.377 . S
C181 H165 0.930 . S
C181 C180 1.377 . S
C181 C182 1.379 . S
C182 H166 0.931 . S
C182 C176 1.383 . S
C182 C181 1.379 . S
H183 C177 0.959 . S
H184 C177 0.961 1_655 S
H185 C177 0.960 . S
H186 C178 0.930 1_455 S
H187 C179 0.929 . S
H188 C196 0.929 . S
H189 C198 0.930 . S
H190 C200 0.930 . S
H191 C203 0.929 . S
H192 C206 0.930 . S
H193 C208 0.960 . S
H194 C208 0.960 1_545 S
H195 C208 0.960 1_545 S
C196 H188 0.929 . S
C196 C197 1.377 . S
C196 C198 1.384 . S
C197 C196 1.377 . S
C197 C203 1.390 . S
C198 H189 0.930 . S
C198 C196 1.384 . S
C198 C199 1.372 . S
C199 C198 1.372 . S
C199 C200 1.400 . S
C199 C204 1.490 . S
C200 H190 0.930 . S
C200 C199 1.400 . S
C200 C203 1.386 . S
H201 C217 0.930 . S
H202 C218 0.931 . S
C203 H191 0.929 . S
C203 C197 1.390 . S
C203 C200 1.386 . S
C204 C199 1.490 . S
C204 C206 1.395 1_655 S
C204 C207 1.418 . S
H205 C211 0.930 . S
C206 H192 0.930 . S
C206 C204 1.395 1_455 S
C206 C209 1.403 . S
C207 C204 1.418 . S
C207 C208 1.523 1_545 S
C207 C211 1.385 1_545 S
C208 H193 0.960 . S
C208 H194 0.960 1_565 S
C208 H195 0.960 1_565 S
C208 C207 1.523 1_565 S
C209 C206 1.403 . S
C209 C210 1.392 1_545 S
C209 C213 1.495 . S
C210 C209 1.392 1_565 S
C210 C211 1.385 1_455 S
C210 C212 1.478 . S
C211 H205 0.930 . S
C211 C207 1.385 1_565 S
C211 C210 1.385 1_655 S
C212 C210 1.478 . S
C212 C214 1.381 . S
C212 C218 1.383 . S
C213 C209 1.495 . S
C213 H219 0.959 . S
C213 H220 0.961 1_545 S
C213 H221 0.960 1_545 S
C214 C212 1.381 . S
C214 C215 1.394 . S
C214 H222 0.930 . S
C215 C214 1.394 . S
C215 C216 1.383 . S
C215 H223 0.929 . S
C216 C215 1.383 . S
C216 C217 1.377 . S
C217 H201 0.930 . S
C217 C216 1.377 . S
C217 C218 1.379 . S
C218 H202 0.931 . S
C218 C212 1.383 . S
C218 C217 1.379 . S
H219 C213 0.959 . S
H220 C213 0.961 1_565 S
H221 C213 0.960 1_565 S
H222 C214 0.930 . S
H223 C215 0.929 . S
H224 C232 0.929 . S
H225 C234 0.930 . S
H226 C236 0.930 . S
H227 C239 0.929 . S
H228 C242 0.930 . S
H229 C244 0.960 . S
H230 C244 0.960 . S
H231 C244 0.960 . S
C232 H224 0.929 . S
C232 C233 1.377 . S
C232 C234 1.384 . S
C233 C232 1.377 . S
C233 C239 1.390 . S
C234 H225 0.930 . S
C234 C232 1.384 . S
C234 C235 1.372 . S
C235 C234 1.372 . S
C235 C236 1.400 . S
C235 C240 1.490 . S
C236 H226 0.930 . S
C236 C235 1.400 . S
C236 C239 1.386 . S
H237 C253 0.930 . S
H238 C254 0.931 . S
C239 H227 0.929 . S
C239 C233 1.390 . S
C239 C236 1.386 . S
C240 C235 1.490 . S
C240 C242 1.395 . S
C240 C243 1.403 . S
H241 C247 0.930 . S
C242 H228 0.930 . S
C242 C240 1.395 . S
C242 C245 1.403 . S
C243 C240 1.403 . S
C243 C244 1.524 . S
C243 C247 1.400 . S
C244 H229 0.960 . S
C244 H230 0.960 . S
C244 H231 0.960 . S
C244 C243 1.524 . S
C245 C242 1.403 . S
C245 C246 1.392 . S
C245 C249 1.495 . S
C246 C245 1.392 . S
C246 C247 1.385 . S
C246 C248 1.478 . S
C247 H241 0.930 . S
C247 C243 1.400 . S
C247 C246 1.385 . S
C248 C246 1.478 . S
C248 C250 1.381 . S
C248 C254 1.383 . S
C249 C245 1.495 . S
C249 H255 0.959 . S
C249 H256 0.961 . S
C249 H257 0.960 . S
C250 C248 1.381 . S
C250 C251 1.394 . S
C250 H258 0.930 . S
C251 C250 1.394 . S
C251 C252 1.383 . S
C251 H259 0.929 . S
C252 C251 1.383 . S
C252 C253 1.377 . S
C253 H237 0.930 . S
C253 C252 1.377 . S
C253 C254 1.379 . S
C254 H238 0.931 . S
C254 C248 1.383 . S
C254 C253 1.379 . S
H255 C249 0.959 . S
H256 C249 0.961 . S
H257 C249 0.960 . S
H258 C250 0.930 . S
H259 C251 0.929 . S
H260 C268 0.929 . S
H261 C270 0.930 . S
H262 C272 0.930 . S
H263 C275 0.929 . S
H264 C278 0.930 . S
H265 C280 0.960 . S
H266 C280 0.960 . S
H267 C280 0.960 . S
C268 H260 0.929 . S
C268 C269 1.377 . S
C268 C270 1.384 . S
C269 C268 1.377 . S
C269 C275 1.390 . S
C270 H261 0.930 . S
C270 C268 1.384 . S
C270 C271 1.372 . S
C271 C270 1.372 . S
C271 C272 1.400 . S
C271 C276 1.490 . S
C272 H262 0.930 . S
C272 C271 1.400 . S
C272 C275 1.386 . S
H273 C289 0.930 . S
H274 C290 0.931 . S
C275 H263 0.929 . S
C275 C269 1.390 . S
C275 C272 1.386 . S
C276 C271 1.490 . S
C276 C278 1.395 . S
C276 C279 1.403 . S
H277 C283 0.930 . S
C278 H264 0.930 . S
C278 C276 1.395 . S
C278 C281 1.403 . S
C279 C276 1.403 . S
C279 C280 1.524 . S
C279 C283 1.400 . S
C280 H265 0.960 . S
C280 H266 0.960 . S
C280 H267 0.960 . S
C280 C279 1.524 . S
C281 C278 1.403 . S
C281 C282 1.392 . S
C281 C285 1.495 . S
C282 C281 1.392 . S
C282 C283 1.385 . S
C282 C284 1.478 . S
C283 H277 0.930 . S
C283 C279 1.400 . S
C283 C282 1.385 . S
C284 C282 1.478 . S
C284 C286 1.381 . S
C284 C290 1.383 . S
C285 C281 1.495 . S
C285 H291 0.959 . S
C285 H292 0.961 . S
C285 H293 0.960 . S
C286 C284 1.381 . S
C286 C287 1.394 . S
C286 H294 0.930 . S
C287 C286 1.394 . S
C287 C288 1.383 . S
C287 H295 0.929 . S
C288 C287 1.383 . S
C288 C289 1.377 . S
C289 H273 0.930 . S
C289 C288 1.377 . S
C289 C290 1.379 . S
C290 H274 0.931 . S
C290 C284 1.383 . S
C290 C289 1.379 . S
H291 C285 0.959 . S
H292 C285 0.961 . S
H293 C285 0.960 . S
H294 C286 0.930 . S
H295 C287 0.929 . S
H296 C304 0.929 . S
H297 C306 0.930 . S
H298 C308 0.930 . S
H299 C311 0.929 . S
H300 C314 0.930 . S
H301 C316 0.960 . S
H302 C316 0.960 . S
H303 C316 0.960 . S
C304 H296 0.929 . S
C304 C305 1.377 . S
C304 C306 1.384 . S
C305 C304 1.377 . S
C305 C311 1.390 . S
C306 H297 0.930 . S
C306 C304 1.384 . S
C306 C307 1.372 . S
C307 C306 1.372 . S
C307 C308 1.400 . S
C307 C312 1.490 . S
C308 H298 0.930 . S
C308 C307 1.400 . S
C308 C311 1.386 . S
H309 C325 0.930 . S
H310 C326 0.931 . S
C311 H299 0.929 . S
C311 C305 1.390 . S
C311 C308 1.386 . S
C312 C307 1.490 . S
C312 C314 1.395 . S
C312 C315 1.403 . S
H313 C319 0.930 . S
C314 H300 0.930 . S
C314 C312 1.395 . S
C314 C317 1.403 . S
C315 C312 1.403 . S
C315 C316 1.524 . S
C315 C319 1.400 . S
C316 H301 0.960 . S
C316 H302 0.960 . S
C316 H303 0.960 . S
C316 C315 1.524 . S
C317 C314 1.403 . S
C317 C318 1.392 . S
C317 C321 1.495 . S
C318 C317 1.392 . S
C318 C319 1.385 . S
C318 C320 1.478 . S
C319 H313 0.930 . S
C319 C315 1.400 . S
C319 C318 1.385 . S
C320 C318 1.478 . S
C320 C322 1.381 . S
C320 C326 1.383 . S
C321 C317 1.495 . S
C321 H327 0.959 . S
C321 H328 0.961 . S
C321 H329 0.960 . S
C322 C320 1.381 . S
C322 C323 1.394 . S
C322 H330 0.930 . S
C323 C322 1.394 . S
C323 C324 1.383 . S
C323 H331 0.929 . S
C324 C323 1.383 . S
C324 C325 1.377 . S
C325 H309 0.930 . S
C325 C324 1.377 . S
C325 C326 1.379 . S
C326 H310 0.931 . S
C326 C320 1.383 . S
C326 C325 1.379 . S
H327 C321 0.959 . S
H328 C321 0.961 . S
H329 C321 0.960 . S
H330 C322 0.930 . S
H331 C323 0.929 . S
H332 C340 0.929 . S
H333 C342 0.930 . S
H334 C344 0.930 . S
H335 C347 0.929 . S
H336 C350 0.930 . S
H337 C352 0.960 . S
H338 C352 0.960 . S
H339 C352 0.960 . S
C340 H332 0.929 . S
C340 C341 1.377 . S
C340 C342 1.384 . S
C341 C340 1.377 . S
C341 C347 1.390 . S
C342 H333 0.930 . S
C342 C340 1.384 . S
C342 C343 1.372 . S
C343 C342 1.372 . S
C343 C344 1.400 . S
C343 C348 1.490 . S
C344 H334 0.930 . S
C344 C343 1.400 . S
C344 C347 1.386 . S
H345 C361 0.930 . S
H346 C362 0.931 . S
C347 H335 0.929 . S
C347 C341 1.390 . S
C347 C344 1.386 . S
C348 C343 1.490 . S
C348 C350 1.395 . S
C348 C351 1.403 . S
H349 C355 0.930 . S
C350 H336 0.930 . S
C350 C348 1.395 . S
C350 C353 1.403 . S
C351 C348 1.403 . S
C351 C352 1.524 . S
C351 C355 1.400 . S
C352 H337 0.960 . S
C352 H338 0.960 . S
C352 H339 0.960 . S
C352 C351 1.524 . S
C353 C350 1.403 . S
C353 C354 1.392 . S
C353 C357 1.495 . S
C354 C353 1.392 . S
C354 C355 1.385 . S
C354 C356 1.478 . S
C355 H349 0.930 . S
C355 C351 1.400 . S
C355 C354 1.385 . S
C356 C354 1.478 . S
C356 C358 1.381 . S
C356 C362 1.383 . S
C357 C353 1.495 . S
C357 H363 0.959 . S
C357 H364 0.961 . S
C357 H365 0.960 . S
C358 C356 1.381 . S
C358 C359 1.394 . S
C358 H366 0.930 . S
C359 C358 1.394 . S
C359 C360 1.383 . S
C359 H367 0.929 . S
C360 C359 1.383 . S
C360 C361 1.377 . S
C361 H345 0.930 . S
C361 C360 1.377 . S
C361 C362 1.379 . S
C362 H346 0.931 . S
C362 C356 1.383 . S
C362 C361 1.379 . S
H363 C357 0.959 . S
H364 C357 0.961 . S
H365 C357 0.960 . S
H366 C358 0.930 . S
H367 C359 0.929 . S
H368 C376 0.929 1_455 S
H369 C378 0.930 . S
H370 C380 0.930 . S
H371 C383 0.929 . S
H372 C386 0.930 . S
H373 C388 0.960 . S
H374 C388 0.960 . S
H375 C388 0.960 . S
C376 H368 0.929 1_655 S
C376 C377 1.377 . S
C376 C378 1.384 1_655 S
C377 C376 1.377 . S
C377 C383 1.390 . S
C378 H369 0.930 . S
C378 C376 1.384 1_455 S
C378 C379 1.372 1_455 S
C379 C378 1.372 1_655 S
C379 C380 1.400 . S
C379 C384 1.490 . S
C380 H370 0.930 . S
C380 C379 1.400 . S
C380 C383 1.386 . S
H381 C397 0.930 . S
H382 C398 0.931 1_655 S
C383 H371 0.929 . S
C383 C377 1.390 . S
C383 C380 1.386 . S
C384 C379 1.490 . S
C384 C386 1.395 1_655 S
C384 C387 1.403 . S
H385 C391 0.930 . S
C386 H372 0.930 . S
C386 C384 1.395 1_455 S
C386 C389 1.403 . S
C387 C384 1.403 . S
C387 C388 1.524 . S
C387 C391 1.400 1_655 S
C388 H373 0.960 . S
C388 H374 0.960 . S
C388 H375 0.960 . S
C388 C387 1.524 . S
C389 C386 1.403 . S
C389 C390 1.392 . S
C389 C393 1.495 . S
C390 C389 1.392 . S
C390 C391 1.385 . S
C390 C392 1.478 . S
C391 H385 0.930 . S
C391 C387 1.400 1_455 S
C391 C390 1.385 . S
C392 C390 1.478 . S
C392 C394 1.381 . S
C392 C398 1.383 . S
C393 C389 1.495 . S
C393 H399 0.959 . S
C393 H400 0.961 . S
C393 H401 0.960 . S
C394 C392 1.381 . S
C394 C395 1.394 . S
C394 H402 0.930 . S
C395 C394 1.394 . S
C395 C396 1.383 . S
C395 H403 0.929 . S
C396 C395 1.383 . S
C396 C397 1.377 . S
C397 H381 0.930 . S
C397 C396 1.377 . S
C397 C398 1.379 . S
C398 H382 0.931 1_455 S
C398 C392 1.383 . S
C398 C397 1.379 . S
H399 C393 0.959 . S
H400 C393 0.961 . S
H401 C393 0.960 . S
H402 C394 0.930 . S
H403 C395 0.929 . S
H404 C412 0.929 . S
H405 C414 0.930 . S
H406 C416 0.930 . S
H407 C419 0.929 . S
H408 C422 0.930 . S
H409 C424 0.960 . S
H410 C424 0.960 . S
H411 C424 0.960 . S
C412 H404 0.929 . S
C412 C413 1.377 . S
C412 C414 1.384 . S
C413 C412 1.377 . S
C413 C419 1.390 . S
C414 H405 0.930 . S
C414 C412 1.384 . S
C414 C415 1.372 . S
C415 C414 1.372 . S
C415 C416 1.400 . S
C415 C420 1.490 . S
C416 H406 0.930 . S
C416 C415 1.400 . S
C416 C419 1.386 . S
H417 C433 0.930 . S
H418 C434 0.931 . S
C419 H407 0.929 . S
C419 C413 1.390 . S
C419 C416 1.386 . S
C420 C415 1.490 . S
C420 C422 1.395 . S
C420 C423 1.403 1_655 S
H421 C427 0.930 . S
C422 H408 0.930 . S
C422 C420 1.395 . S
C422 C425 1.403 . S
C423 C420 1.403 1_455 S
C423 C424 1.524 . S
C423 C427 1.400 . S
C424 H409 0.960 . S
C424 H410 0.960 . S
C424 H411 0.960 . S
C424 C423 1.524 . S
C425 C422 1.403 . S
C425 C426 1.392 1_655 S
C425 C429 1.495 . S
C426 C425 1.392 1_455 S
C426 C427 1.385 . S
C426 C428 1.478 . S
C427 H421 0.930 . S
C427 C423 1.400 . S
C427 C426 1.385 . S
C428 C426 1.478 . S
C428 C430 1.381 . S
C428 C434 1.383 . S
C429 C425 1.495 . S
C429 H435 0.959 . S
C429 H436 0.961 . S
C429 H437 0.960 . S
C430 C428 1.381 . S
C430 C431 1.394 . S
C430 H438 0.930 . S
C431 C430 1.394 . S
C431 C432 1.383 . S
C431 H439 0.929 . S
C432 C431 1.383 . S
C432 C433 1.377 . S
C433 H417 0.930 . S
C433 C432 1.377 . S
C433 C434 1.379 . S
C434 H418 0.931 . S
C434 C428 1.383 . S
C434 C433 1.379 . S
H435 C429 0.959 . S
H436 C429 0.961 . S
H437 C429 0.960 . S
H438 C430 0.930 . S
H439 C431 0.929 . S
H440 C448 0.929 . S
H441 C450 0.930 . S
H442 C452 0.930 . S
H443 C455 0.929 . S
H444 C458 0.930 . S
H445 C460 0.960 . S
H446 C460 0.960 . S
H447 C460 0.960 1_655 S
C448 H440 0.929 . S
C448 C449 1.377 . S
C448 C450 1.384 . S
C449 C448 1.377 . S
C449 C455 1.390 . S
C450 H441 0.930 . S
C450 C448 1.384 . S
C450 C451 1.372 . S
C451 C450 1.372 . S
C451 C452 1.400 . S
C451 C456 1.490 . S
C452 H442 0.930 . S
C452 C451 1.400 . S
C452 C455 1.386 . S
H453 C469 0.930 . S
H454 C470 0.931 1_655 S
C455 H443 0.929 . S
C455 C449 1.390 . S
C455 C452 1.386 . S
C456 C451 1.490 . S
C456 C458 1.395 . S
C456 C459 1.403 1_655 S
H457 C463 0.930 . S
C458 H444 0.930 . S
C458 C456 1.395 . S
C458 C461 1.403 . S
C459 C456 1.403 1_455 S
C459 C460 1.524 . S
C459 C463 1.400 . S
C460 H445 0.960 . S
C460 H446 0.960 . S
C460 H447 0.960 1_455 S
C460 C459 1.524 . S
C461 C458 1.403 . S
C461 C462 1.392 1_655 S
C461 C465 1.495 . S
C462 C461 1.392 1_455 S
C462 C463 1.385 . S
C462 C464 1.478 . S
C463 H457 0.930 . S
C463 C459 1.400 . S
C463 C462 1.385 . S
C464 C462 1.478 . S
C464 C466 1.381 . S
C464 C470 1.383 . S
C465 C461 1.495 . S
C465 H471 0.959 . S
C465 H472 0.961 . S
C465 H473 0.960 . S
C466 C464 1.381 . S
C466 C467 1.394 . S
C466 H474 0.930 . S
C467 C466 1.394 . S
C467 C468 1.383 . S
C467 H475 0.929 . S
C468 C467 1.383 . S
C468 C469 1.377 . S
C469 H453 0.930 . S
C469 C468 1.377 . S
C469 C470 1.379 . S
C470 H454 0.931 1_455 S
C470 C464 1.383 . S
C470 C469 1.379 . S
H471 C465 0.959 . S
H472 C465 0.961 . S
H473 C465 0.960 . S
H474 C466 0.930 . S
H475 C467 0.929 . S
H476 C484 0.929 . S
H477 C486 0.930 . S
H478 C488 0.930 . S
H479 C491 0.929 . S
H480 C494 0.930 . S
H481 C496 0.960 . S
H482 C496 0.960 . S
H483 C496 0.960 . S
C484 H476 0.929 . S
C484 C485 1.377 . S
C484 C486 1.384 . S
C485 C484 1.377 . S
C485 C491 1.390 . S
C486 H477 0.930 . S
C486 C484 1.384 . S
C486 C487 1.372 . S
C487 C486 1.372 . S
C487 C488 1.400 . S
C487 C492 1.490 . S
C488 H478 0.930 . S
C488 C487 1.400 . S
C488 C491 1.386 . S
H489 C505 0.930 . S
H490 C506 0.931 . S
C491 H479 0.929 . S
C491 C485 1.390 . S
C491 C488 1.386 . S
C492 C487 1.490 . S
C492 C494 1.395 . S
C492 C495 1.403 1_455 S
H493 C499 0.930 . S
C494 H480 0.930 . S
C494 C492 1.395 . S
C494 C497 1.403 . S
C495 C492 1.403 1_655 S
C495 C496 1.524 . S
C495 C499 1.400 . S
C496 H481 0.960 . S
C496 H482 0.960 . S
C496 H483 0.960 . S
C496 C495 1.524 . S
C497 C494 1.403 . S
C497 C498 1.392 1_455 S
C497 C501 1.495 . S
C498 C497 1.392 1_655 S
C498 C499 1.385 . S
C498 C500 1.478 . S
C499 H493 0.930 . S
C499 C495 1.400 . S
C499 C498 1.385 . S
C500 C498 1.478 . S
C500 C502 1.381 . S
C500 C506 1.383 . S
C501 C497 1.495 . S
C501 H507 0.959 . S
C501 H508 0.961 . S
C501 H509 0.960 . S
C502 C500 1.381 . S
C502 C503 1.394 . S
C502 H510 0.930 . S
C503 C502 1.394 . S
C503 C504 1.383 . S
C503 H511 0.929 . S
C504 C503 1.383 . S
C504 C505 1.377 . S
C505 H489 0.930 . S
C505 C504 1.377 . S
C505 C506 1.379 . S
C506 H490 0.931 . S
C506 C500 1.383 . S
C506 C505 1.379 . S
H507 C501 0.959 . S
H508 C501 0.961 . S
H509 C501 0.960 . S
H510 C502 0.930 . S
H511 C503 0.929 . S
C89 C29 1.500 1_554 S
C108 C1 1.491 . S
C125 C41 1.503 . S
C144 C69 1.506 . S
C161 C9 1.502 . S
C180 C21 1.485 . S
C197 C61 1.498 . S
C216 C49 1.497 . S
C233 C68 1.248 . S
C252 C16 1.247 . S
C269 C28 1.239 . S
C288 C56 1.256 . S
C305 C26 1.259 . S
C324 C59 1.243 . S
C341 C66 1.259 . S
C360 C19 1.221 . S
C377 C36 1.259 . S
C396 C48 1.263 . S
C413 C76 1.258 . S
C432 C8 1.223 . S
C449 C79 1.240 . S
C468 C6 1.250 . S
C485 C46 1.259 . S
C504 C39 1.219 . S
