# Generated by pormake.
# Topology snl, (6)-cn, num edge types: 1
# Building blocks:
#     Node 0, Type 0, BuildingBlock: PAMTOO_clean_sbu_0, # of connection points: 6
#     Node 1, Type 0, BuildingBlock: PAMTOO_clean_sbu_0, # of connection points: 6
#     Node 2, Type 0, BuildingBlock: PAMTOO_clean_sbu_0, # of connection points: 6
#     Node 3, Type 0, BuildingBlock: PAMTOO_clean_sbu_0, # of connection points: 6
#     Node 4, Type 0, BuildingBlock: PAMTOO_clean_sbu_0, # of connection points: 6
#     Node 5, Type 0, BuildingBlock: PAMTOO_clean_sbu_0, # of connection points: 6
#     Node 6, Type 0, BuildingBlock: PAMTOO_clean_sbu_0, # of connection points: 6
#     Node 7, Type 0, BuildingBlock: PAMTOO_clean_sbu_0, # of connection points: 6
#     Node 8, Type 0, BuildingBlock: PAMTOO_clean_sbu_0, # of connection points: 6
#     Node 9, Type 0, BuildingBlock: PAMTOO_clean_sbu_0, # of connection points: 6
#     Node 10, Type 0, BuildingBlock: PAMTOO_clean_sbu_0, # of connection points: 6
#     Node 11, Type 0, BuildingBlock: PAMTOO_clean_sbu_0, # of connection points: 6
#     Node 12, Type 0, BuildingBlock: PAMTOO_clean_sbu_0, # of connection points: 6
#     Node 13, Type 0, BuildingBlock: PAMTOO_clean_sbu_0, # of connection points: 6
#     Node 14, Type 0, BuildingBlock: PAMTOO_clean_sbu_0, # of connection points: 6
#     Node 15, Type 0, BuildingBlock: PAMTOO_clean_sbu_0, # of connection points: 6
#     Edge 16, Type (0, 0), BuildingBlock: OJICUG_clean_linker_0, # of connection points: 2
#     Edge 17, Type (0, 0), BuildingBlock: OJICUG_clean_linker_0, # of connection points: 2
#     Edge 18, Type (0, 0), BuildingBlock: OJICUG_clean_linker_0, # of connection points: 2
#     Edge 19, Type (0, 0), BuildingBlock: OJICUG_clean_linker_0, # of connection points: 2
#     Edge 20, Type (0, 0), BuildingBlock: OJICUG_clean_linker_0, # of connection points: 2
#     Edge 21, Type (0, 0), BuildingBlock: OJICUG_clean_linker_0, # of connection points: 2
#     Edge 22, Type (0, 0), BuildingBlock: OJICUG_clean_linker_0, # of connection points: 2
#     Edge 23, Type (0, 0), BuildingBlock: OJICUG_clean_linker_0, # of connection points: 2
#     Edge 24, Type (0, 0), BuildingBlock: OJICUG_clean_linker_0, # of connection points: 2
#     Edge 25, Type (0, 0), BuildingBlock: OJICUG_clean_linker_0, # of connection points: 2
#     Edge 26, Type (0, 0), BuildingBlock: OJICUG_clean_linker_0, # of connection points: 2
#     Edge 27, Type (0, 0), BuildingBlock: OJICUG_clean_linker_0, # of connection points: 2
#     Edge 28, Type (0, 0), BuildingBlock: OJICUG_clean_linker_0, # of connection points: 2
#     Edge 29, Type (0, 0), BuildingBlock: OJICUG_clean_linker_0, # of connection points: 2
#     Edge 30, Type (0, 0), BuildingBlock: OJICUG_clean_linker_0, # of connection points: 2
#     Edge 31, Type (0, 0), BuildingBlock: OJICUG_clean_linker_0, # of connection points: 2
#     Edge 32, Type (0, 0), BuildingBlock: OJICUG_clean_linker_0, # of connection points: 2
#     Edge 33, Type (0, 0), BuildingBlock: OJICUG_clean_linker_0, # of connection points: 2
#     Edge 34, Type (0, 0), BuildingBlock: OJICUG_clean_linker_0, # of connection points: 2
#     Edge 35, Type (0, 0), BuildingBlock: OJICUG_clean_linker_0, # of connection points: 2
#     Edge 36, Type (0, 0), BuildingBlock: OJICUG_clean_linker_0, # of connection points: 2
#     Edge 37, Type (0, 0), BuildingBlock: OJICUG_clean_linker_0, # of connection points: 2
#     Edge 38, Type (0, 0), BuildingBlock: OJICUG_clean_linker_0, # of connection points: 2
#     Edge 39, Type (0, 0), BuildingBlock: OJICUG_clean_linker_0, # of connection points: 2
#     Edge 40, Type (0, 0), BuildingBlock: OJICUG_clean_linker_0, # of connection points: 2
#     Edge 41, Type (0, 0), BuildingBlock: OJICUG_clean_linker_0, # of connection points: 2
#     Edge 42, Type (0, 0), BuildingBlock: OJICUG_clean_linker_0, # of connection points: 2
#     Edge 43, Type (0, 0), BuildingBlock: OJICUG_clean_linker_0, # of connection points: 2
#     Edge 44, Type (0, 0), BuildingBlock: OJICUG_clean_linker_0, # of connection points: 2
#     Edge 45, Type (0, 0), BuildingBlock: OJICUG_clean_linker_0, # of connection points: 2
#     Edge 46, Type (0, 0), BuildingBlock: OJICUG_clean_linker_0, # of connection points: 2
#     Edge 47, Type (0, 0), BuildingBlock: OJICUG_clean_linker_0, # of connection points: 2
#     Edge 48, Type (0, 0), BuildingBlock: OJICUG_clean_linker_0, # of connection points: 2
#     Edge 49, Type (0, 0), BuildingBlock: OJICUG_clean_linker_0, # of connection points: 2
#     Edge 50, Type (0, 0), BuildingBlock: OJICUG_clean_linker_0, # of connection points: 2
#     Edge 51, Type (0, 0), BuildingBlock: OJICUG_clean_linker_0, # of connection points: 2
#     Edge 52, Type (0, 0), BuildingBlock: OJICUG_clean_linker_0, # of connection points: 2
#     Edge 53, Type (0, 0), BuildingBlock: OJICUG_clean_linker_0, # of connection points: 2
#     Edge 54, Type (0, 0), BuildingBlock: OJICUG_clean_linker_0, # of connection points: 2
#     Edge 55, Type (0, 0), BuildingBlock: OJICUG_clean_linker_0, # of connection points: 2
#     Edge 56, Type (0, 0), BuildingBlock: OJICUG_clean_linker_0, # of connection points: 2
#     Edge 57, Type (0, 0), BuildingBlock: OJICUG_clean_linker_0, # of connection points: 2
#     Edge 58, Type (0, 0), BuildingBlock: OJICUG_clean_linker_0, # of connection points: 2
#     Edge 59, Type (0, 0), BuildingBlock: OJICUG_clean_linker_0, # of connection points: 2
#     Edge 60, Type (0, 0), BuildingBlock: OJICUG_clean_linker_0, # of connection points: 2
#     Edge 61, Type (0, 0), BuildingBlock: OJICUG_clean_linker_0, # of connection points: 2
#     Edge 62, Type (0, 0), BuildingBlock: OJICUG_clean_linker_0, # of connection points: 2
#     Edge 63, Type (0, 0), BuildingBlock: OJICUG_clean_linker_0, # of connection points: 2
# Relax obj value: 0.163
# Max RMSD: 0.254
# Mean RMSD: 0.230
data_MOF--net-snl--node1-PAMTOO_clean_sbu_0--edge1-OJICUG_clean_linker_0
_symmetry_space_group_name_H-M    P1
_symmetry_Int_Tables_number       1
_symmetry_cell_setting            triclinic
loop_
_symmetry_equiv_pos_as_xyz
'x, y, z'
_cell_length_a     40.478978
_cell_length_b     41.493845
_cell_length_c     21.363571
_cell_angle_alpha  88.288205
_cell_angle_beta   91.543654
_cell_angle_gamma 89.708798
loop_
_atom_site_label
_atom_site_type_symbol
_atom_site_fract_x
_atom_site_fract_y
_atom_site_fract_z
_atom_type_partial_charge
Dy0 Dy 0.15821 0.63818 0.08262 0.0
Dy1 Dy 0.13415 0.60653 0.21836 0.0
C2 C 0.08177 0.62863 0.10949 0.0
O3 O 0.13785 0.6784 0.13628 0.0
O4 O 0.14786 0.6582 0.23639 0.0
O5 O 0.15245 0.6715 1.00336 0.0
O6 O 0.19524 0.64005 1.01144 0.0
O7 O 0.18783 0.59795 0.20909 0.0
O8 O 0.19946 0.64422 0.1553 0.0
O9 O 0.12437 0.56769 0.14869 0.0
O10 O 0.15985 0.58499 0.07224 0.0
O11 O 0.14241 0.57224 0.29567 0.0
O12 O 0.10144 0.60568 0.29672 0.0
C13 C 0.14114 0.68244 0.19677 0.0
O14 O 0.10437 0.62668 0.06657 0.0
O15 O 0.08917 0.62681 0.16967 0.0
C16 C 0.17338 0.65195 0.90976 0.0
C17 C 0.16324 0.63621 0.78272 0.0
C18 C 0.14687 0.61914 0.83063 0.0
C19 C 0.15188 0.62696 0.89349 0.0
C20 C 0.18993 0.66891 0.86246 0.0
C21 C 0.18494 0.66113 0.79954 0.0
C22 C 0.17841 0.66064 0.97573 0.0
C23 C 0.20816 0.6214 0.19662 0.0
C24 C 0.14039 0.56306 0.09666 0.0
C25 C 0.1267 0.59088 0.39409 0.0
C26 C 0.13986 0.6053 0.52092 0.0
C27 C 0.15544 0.62261 0.47233 0.0
C28 C 0.14888 0.61549 0.40948 0.0
C29 C 0.11145 0.57332 0.44219 0.0
C30 C 0.11795 0.58041 0.50494 0.0
C31 C 0.11858 0.58377 0.32829 0.0
H32 H 0.13036 0.59953 0.81965 0.0
H33 H 0.13891 0.61357 0.92944 0.0
H34 H 0.20656 0.68834 0.87413 0.0
H35 H 0.19765 0.67506 0.76401 0.0
H36 H 0.17218 0.64212 0.48277 0.0
H37 H 0.16083 0.62939 0.37288 0.0
H38 H 0.09432 0.55418 0.43119 0.0
H39 H 0.10592 0.56623 0.541 0.0
Dy40 Dy 0.62956 0.8976 0.34146 0.0
Dy41 Dy 0.66172 0.87215 0.47839 0.0
C42 C 0.6414 0.8228 0.3725 0.0
O43 O 0.58787 0.87758 0.39556 0.0
O44 O 0.60832 0.88366 0.49614 0.0
O45 O 0.59753 0.89152 0.26006 0.0
O46 O 0.62855 0.9336 0.26587 0.0
O47 O 0.6659 0.92553 0.47111 0.0
O48 O 0.61973 0.93667 0.41052 0.0
O49 O 0.70021 0.86383 0.40538 0.0
O50 O 0.68355 0.90671 0.34307 0.0
O51 O 0.69908 0.87743 0.552 0.0
O52 O 0.66206 0.84037 0.5604 0.0
C53 C 0.58368 0.87858 0.45619 0.0
O54 O 0.6447 0.84574 0.32919 0.0
O55 O 0.64122 0.82906 0.4323 0.0
C56 C 0.61892 0.91229 0.16547 0.0
C57 C 0.63685 0.90232 0.0401 0.0
C58 C 0.65514 0.88791 0.0907 0.0
C59 C 0.64628 0.89286 0.15273 0.0
C60 C 0.60077 0.92691 0.11543 0.0
C61 C 0.60962 0.92203 0.05344 0.0
C62 C 0.60867 0.91696 0.23045 0.0
C63 C 0.64153 0.94498 0.45396 0.0
C64 C 0.70568 0.88477 0.35929 0.0
C65 C 0.68045 0.86425 0.65382 0.0
C66 C 0.66806 0.8783 0.78016 0.0
C67 C 0.64853 0.89226 0.73074 0.0
C68 C 0.65466 0.88529 0.66825 0.0
C69 C 0.7003 0.85069 0.70263 0.0
C70 C 0.69422 0.85763 0.7651 0.0
C71 C 0.68615 0.85541 0.58848 0.0
H72 H 0.67649 0.87294 0.08243 0.0
H73 H 0.66068 0.88141 0.19077 0.0
H74 H 0.57951 0.9419 0.12428 0.0
H75 H 0.59466 0.93319 1.01591 0.0
H76 H 0.62797 0.90798 0.74036 0.0
H77 H 0.63898 0.89596 0.63121 0.0
H78 H 0.72038 0.83446 0.69247 0.0
H79 H 0.71013 0.84684 0.80162 0.0
Dy80 Dy 0.36018 0.36679 0.58355 0.0
Dy81 Dy 0.39623 0.3861 0.71822 0.0
C82 C 0.43878 0.36664 0.60314 0.0
O83 O 0.37315 0.32029 0.63193 0.0
O84 O 0.37734 0.33552 0.73472 0.0
O85 O 0.35713 0.33651 0.50326 0.0
O86 O 0.32402 0.37728 0.50877 0.0
O87 O 0.34284 0.39817 0.72254 0.0
O88 O 0.32133 0.3605 0.65715 0.0
O89 O 0.40615 0.42648 0.64709 0.0
O90 O 0.35775 0.41995 0.59221 0.0
O91 O 0.40262 0.42155 0.78976 0.0
O92 O 0.42822 0.37578 0.79921 0.0
C93 C 0.37408 0.31327 0.69222 0.0
O94 O 0.41406 0.37575 0.56525 0.0
O95 O 0.43509 0.36274 0.66357 0.0
C96 C 0.34167 0.3632 0.40807 0.0
C97 C 0.35688 0.37541 0.2809 0.0
C98 C 0.37808 0.38588 0.32954 0.0
C99 C 0.37054 0.37984 0.39245 0.0
C100 C 0.32009 0.35334 0.35998 0.0
C101 C 0.32755 0.35942 0.29705 0.0
C102 C 0.33478 0.3544 0.4739 0.0
C103 C 0.31859 0.3794 0.70527 0.0
C104 C 0.3834 0.43759 0.60655 0.0
C105 C 0.41049 0.39915 0.89209 0.0
C106 C 0.39217 0.3924 1.01888 0.0
C107 C 0.3713 0.38135 0.97027 0.0
C108 C 0.38039 0.38467 0.90751 0.0
C109 C 0.43123 0.41043 0.94012 0.0
C110 C 0.4222 0.40713 1.00281 0.0
C111 C 0.42064 0.40243 0.82637 0.0
H112 H 0.40058 0.39871 0.31903 0.0
H113 H 0.38751 0.38772 0.42892 0.0
H114 H 0.29774 0.34034 0.37107 0.0
H115 H 0.31079 0.35072 0.26106 0.0
H116 H 0.3482 0.36957 0.98072 0.0
H117 H 0.36403 0.37577 0.87102 0.0
H118 H 0.4545 0.42179 0.92915 0.0
H119 H 0.43867 0.41641 0.03868 0.0
Dy120 Dy 0.89541 0.11632 0.8439 0.0
Dy121 Dy 0.86364 0.13984 0.97532 0.0
C122 C 0.88535 0.19081 0.87041 0.0
O123 O 0.93757 0.13398 0.90155 0.0
O124 O 0.91674 0.12657 1.00012 0.0
O125 O 0.9273 0.12382 0.76532 0.0
O126 O 0.89744 0.08088 0.77178 0.0
O127 O 0.85867 0.08658 0.97231 0.0
O128 O 0.90408 0.07548 0.91551 0.0
O129 O 0.82467 0.14886 0.8984 0.0
O130 O 0.84139 0.10756 0.83844 0.0
O131 O 0.82662 0.13389 0.0461 0.0
O132 O 0.86284 0.17171 0.05338 0.0
C133 C 0.94167 0.13143 0.96258 0.0
O134 O 0.88117 0.16885 0.82762 0.0
O135 O 0.88588 0.18306 0.93028 0.0
C136 C 0.90695 0.10276 0.67062 0.0
C137 C 0.88906 0.11217 0.54242 0.0
C138 C 0.87119 0.12739 0.58905 0.0
C139 C 0.88003 0.12269 0.65255 0.0
C140 C 0.92469 0.08737 0.62454 0.0
C141 C 0.91585 0.09198 0.56109 0.0
C142 C 0.91704 0.09817 0.73709 0.0
C143 C 0.88224 0.06676 0.95734 0.0
C144 C 0.81893 0.12857 0.85311 0.0
C145 C 0.84485 0.14792 0.14779 0.0
C146 C 0.85753 0.13468 0.27692 0.0
C147 C 0.87643 0.11978 0.23134 0.0
C148 C 0.87015 0.12636 0.16738 0.0
C149 C 0.82564 0.16244 0.1928 0.0
C150 C 0.83187 0.15589 0.25671 0.0
C151 C 0.83903 0.15635 0.08088 0.0
H152 H 0.85019 0.14275 0.57653 0.0
H153 H 0.86595 0.13469 0.68757 0.0
H154 H 0.94559 0.07196 0.63762 0.0
H155 H 0.93043 0.08022 0.52657 0.0
H156 H 0.8966 0.10361 0.24506 0.0
H157 H 0.88534 0.11499 0.13323 0.0
H158 H 0.80597 0.1791 0.17853 0.0
H159 H 0.81649 0.16742 0.2903 0.0
Dy160 Dy 0.13254 0.39665 0.84818 0.0
Dy161 Dy 0.16189 0.36889 0.98626 0.0
C162 C 0.14003 0.3214 0.879 0.0
O163 O 0.08889 0.38009 0.90115 0.0
O164 O 0.10883 0.38158 1.00331 0.0
O165 O 0.10088 0.39157 0.76593 0.0
O166 O 0.13438 0.4318 0.77144 0.0
O167 O 0.16295 0.42235 0.99056 0.0
O168 O 0.12395 0.43709 0.91436 0.0
O169 O 0.20062 0.36101 0.91334 0.0
O170 O 0.18636 0.40565 0.85463 0.0
O171 O 0.20023 0.37059 0.05884 0.0
O172 O 0.16044 0.33624 0.06676 0.0
C173 C 0.08432 0.37976 0.96182 0.0
O174 O 0.14607 0.34422 0.83673 0.0
O175 O 0.13855 0.32763 0.93865 0.0
C176 C 0.1237 0.41061 0.67139 0.0
C177 C 0.14135 0.39943 0.54646 0.0
C178 C 0.15981 0.38553 0.59736 0.0
C179 C 0.15107 0.39109 0.65923 0.0
C180 C 0.10535 0.42463 0.62102 0.0
C181 C 0.11405 0.41914 0.55923 0.0
C182 C 0.11363 0.41615 0.73608 0.0
C183 C 0.14173 0.44325 0.96529 0.0
C184 C 0.20751 0.38273 0.86953 0.0
C185 C 0.18099 0.35834 0.16036 0.0
C186 C 0.17052 0.37337 0.28681 0.0
C187 C 0.15034 0.38702 0.23807 0.0
C188 C 0.15553 0.37959 0.17552 0.0
C189 C 0.2015 0.34505 0.20846 0.0
C190 C 0.19636 0.35247 0.27104 0.0
C191 C 0.18578 0.34933 0.09489 0.0
H192 H 0.18118 0.37055 0.58943 0.0
H193 H 0.1656 0.38008 0.69757 0.0
H194 H 0.08405 0.43966 0.62947 0.0
H195 H 0.09895 0.42987 0.52144 0.0
H196 H 0.12999 0.40289 0.24828 0.0
H197 H 0.13939 0.39009 0.13902 0.0
H198 H 0.22138 0.32872 0.19767 0.0
H199 H 0.21273 0.34191 0.30705 0.0
Dy200 Dy 0.89531 0.89614 0.21389 0.0
Dy201 Dy 0.86196 0.87284 0.07926 0.0
C202 C 0.87665 0.82171 0.19254 0.0
O203 O 0.93571 0.87322 0.16287 0.0
O204 O 0.91597 0.88208 0.06199 0.0
O205 O 0.9278 0.88922 0.29527 0.0
O206 O 0.89794 0.93242 0.28459 0.0
O207 O 0.85755 0.92608 0.08385 0.0
O208 O 0.90478 0.93548 0.14058 0.0
O209 O 0.82278 0.86573 0.15199 0.0
O210 O 0.84129 0.90579 0.21486 0.0
O211 O 0.82507 0.88009 1.0046 0.0
O212 O 0.86163 0.84217 0.9994 0.0
C213 C 0.94025 0.87499 0.10239 0.0
O214 O 0.87908 0.84489 0.23332 0.0
O215 O 0.87511 0.82743 0.13177 0.0
C216 C 0.90731 0.91105 0.38738 0.0
C217 C 0.88904 0.90232 0.51383 0.0
C218 C 0.87004 0.88888 0.46498 0.0
C219 C 0.87907 0.89322 0.40241 0.0
C220 C 0.92619 0.92468 0.43564 0.0
C221 C 0.91718 0.9204 0.4982 0.0
C222 C 0.91752 0.91516 0.32182 0.0
C223 C 0.8822 0.94497 0.09829 0.0
C224 C 0.81838 0.88534 0.19849 0.0
C225 C 0.84353 0.8671 0.90392 0.0
C226 C 0.85646 0.88065 0.77616 0.0
C227 C 0.87662 0.89347 0.82406 0.0
C228 C 0.87022 0.88675 0.88729 0.0
C229 C 0.823 0.85479 0.85657 0.0
C230 C 0.82935 0.86149 0.79339 0.0
C231 C 0.83773 0.85803 0.97005 0.0
H232 H 0.848 0.87519 0.47503 0.0
H233 H 0.86409 0.88258 0.36573 0.0
H234 H 0.94813 0.93843 0.42499 0.0
H235 H 0.93266 0.93074 0.53442 0.0
H236 H 0.8979 0.90802 0.81274 0.0
H237 H 0.88644 0.89641 0.9232 0.0
H238 H 0.80224 0.83962 0.86846 0.0
H239 H 0.81296 0.85163 0.75801 0.0
Dy240 Dy 0.40065 0.60686 0.34899 0.0
Dy241 Dy 0.37057 0.63313 0.48016 0.0
C242 C 0.39045 0.68209 0.37018 0.0
O243 O 0.44332 0.62608 0.40295 0.0
O244 O 0.42399 0.62038 0.50295 0.0
O245 O 0.43274 0.61189 0.27009 0.0
O246 O 0.40014 0.57097 0.27745 0.0
O247 O 0.36469 0.57991 0.48019 0.0
O248 O 0.40932 0.56697 0.42269 0.0
O249 O 0.33133 0.64208 0.40368 0.0
O250 O 0.34648 0.59912 0.34683 0.0
O251 O 0.33316 0.62965 0.5507 0.0
O252 O 0.37212 0.6648 0.5586 0.0
C253 C 0.44829 0.62489 0.46384 0.0
O254 O 0.38642 0.65915 0.32932 0.0
O255 O 0.39139 0.6758 0.43064 0.0
C256 C 0.4107 0.59182 0.1758 0.0
C257 C 0.39338 0.60238 0.04752 0.0
C258 C 0.3758 0.61777 0.09435 0.0
C259 C 0.38436 0.61252 0.15786 0.0
C260 C 0.4281 0.57622 0.12954 0.0
C261 C 0.41955 0.58139 0.06606 0.0
C262 C 0.42069 0.58684 0.24229 0.0
C263 C 0.38764 0.55933 0.4656 0.0
C264 C 0.32486 0.62129 0.35961 0.0
C265 C 0.35241 0.64206 0.65271 0.0
C266 C 0.36387 0.62756 0.78184 0.0
C267 C 0.38262 0.61248 0.73626 0.0
C268 C 0.37695 0.61967 0.67233 0.0
C269 C 0.33333 0.65677 0.6977 0.0
C270 C 0.33896 0.64961 0.76159 0.0
C271 C 0.34723 0.65106 0.58585 0.0
H272 H 0.35526 0.63375 0.08195 0.0
H273 H 0.37056 0.62473 0.19299 0.0
H274 H 0.44858 0.56024 0.14248 0.0
H275 H 0.43392 0.56946 1.03145 0.0
H276 H 0.40224 0.59567 0.74998 0.0
H277 H 0.39201 0.60811 0.63823 0.0
H278 H 0.31422 0.67406 0.68344 0.0
H279 H 0.32368 0.66131 0.79512 0.0
Dy280 Dy 0.65054 0.13571 0.58009 0.0
Dy281 Dy 0.6248 0.10471 0.71449 0.0
C282 C 0.57407 0.12562 0.60417 0.0
O283 O 0.63122 0.17721 0.63193 0.0
O284 O 0.63751 0.15649 0.73279 0.0
O285 O 0.64409 0.16695 0.49784 0.0
O286 O 0.68738 0.13638 0.50839 0.0
O287 O 0.67953 0.09988 0.71344 0.0
O288 O 0.69105 0.14443 0.65288 0.0
O289 O 0.61634 0.06682 0.64169 0.0
O290 O 0.6595 0.0828 0.58198 0.0
O291 O 0.63007 0.06844 0.78928 0.0
O292 O 0.59215 0.10508 0.79283 0.0
C293 C 0.63262 0.1809 0.6927 0.0
O294 O 0.59729 0.12172 0.56306 0.0
O295 O 0.58083 0.12598 0.66445 0.0
C296 C 0.66554 0.14609 0.40566 0.0
C297 C 0.65538 0.12902 0.27919 0.0
C298 C 0.63922 0.11228 0.32782 0.0
C299 C 0.64428 0.12071 0.39041 0.0
C300 C 0.68196 0.16262 0.35764 0.0
C301 C 0.67699 0.15419 0.29507 0.0
C302 C 0.67025 0.15595 0.47111 0.0
C303 C 0.69956 0.12325 0.69775 0.0
C304 C 0.63755 0.06117 0.59754 0.0
C305 C 0.61639 0.08699 0.88918 0.0
C306 C 0.63067 0.09917 1.01685 0.0
C307 C 0.64645 0.11676 0.96883 0.0
C308 C 0.63935 0.11074 0.90564 0.0
C309 C 0.60099 0.06908 0.93667 0.0
C310 C 0.60804 0.07506 0.99981 0.0
C311 C 0.60745 0.08142 0.82295 0.0
H312 H 0.62278 0.0925 0.31757 0.0
H313 H 0.63146 0.10755 0.4269 0.0
H314 H 0.69841 0.18233 0.36846 0.0
H315 H 0.68954 0.16789 0.25902 0.0
H316 H 0.66371 0.13572 0.97998 0.0
H317 H 0.65144 0.12491 0.86959 0.0
H318 H 0.58325 0.0506 0.92491 0.0
H319 H 0.59581 0.06067 0.03529 0.0
Dy320 Dy 0.89802 0.40282 0.84676 0.0
Dy321 Dy 0.86885 0.37577 0.98149 0.0
C322 C 0.82219 0.38635 0.85855 0.0
O323 O 0.90661 0.44161 0.91832 0.0
O324 O 0.86138 0.42874 0.9746 0.0
O325 O 0.89724 0.4396 0.77263 0.0
O326 O 0.9309 0.39913 0.76925 0.0
O327 O 0.9224 0.38814 1.00037 0.0
O328 O 0.9402 0.38069 0.90071 0.0
O329 O 0.88749 0.33269 0.93373 0.0
O330 O 0.88449 0.3508 0.83077 0.0
O331 O 0.87233 0.3446 0.06428 0.0
O332 O 0.83207 0.37883 0.05293 0.0
C333 C 0.88475 0.44904 0.96027 0.0
O334 O 0.84349 0.40785 0.83934 0.0
O335 O 0.82863 0.36754 0.90835 0.0
C336 C 0.90893 0.41982 0.67288 0.0
C337 C 0.89307 0.40978 0.54506 0.0
C338 C 0.87589 0.39338 0.59278 0.0
C339 C 0.88375 0.39835 0.65606 0.0
C340 C 0.92578 0.43657 0.62574 0.0
C341 C 0.91795 0.43165 0.5625 0.0
C342 C 0.9184 0.42432 0.73919 0.0
C343 C 0.94605 0.38221 0.96112 0.0
C344 C 0.88735 0.32726 0.87349 0.0
C345 C 0.85275 0.36754 0.15594 0.0
C346 C 0.86467 0.38352 0.28244 0.0
C347 C 0.88201 0.39904 0.23388 0.0
C348 C 0.87608 0.39114 0.17124 0.0
C349 C 0.83512 0.3523 0.2039 0.0
C350 C 0.84097 0.36021 0.2665 0.0
C351 C 0.84724 0.35796 0.09056 0.0
H352 H 0.85686 0.37612 0.5813 0.0
H353 H 0.87048 0.38514 0.69187 0.0
H354 H 0.94521 0.45333 0.63783 0.0
H355 H 0.93133 0.44511 0.52726 0.0
H356 H 0.9001 0.4174 0.24423 0.0
H357 H 0.88988 0.40325 0.13478 0.0
H358 H 0.81709 0.33394 0.19301 0.0
H359 H 0.82744 0.34748 0.30253 0.0
Dy360 Dy 0.35714 0.12726 0.5806 0.0
Dy361 Dy 0.38989 0.10239 0.71786 0.0
C362 C 0.37795 0.05516 0.60527 0.0
O363 O 0.31785 0.13493 0.65214 0.0
O364 O 0.33567 0.09408 0.71896 0.0
O365 O 0.32023 0.12096 0.50656 0.0
O366 O 0.35748 0.15784 0.4971 0.0
O367 O 0.37425 0.1538 0.73296 0.0
O368 O 0.36936 0.1722 0.62987 0.0
O369 O 0.43042 0.12581 0.66605 0.0
O370 O 0.41139 0.11815 0.56537 0.0
O371 O 0.42251 0.10768 0.79873 0.0
O372 O 0.39151 0.06565 0.79204 0.0
C373 C 0.31316 0.11535 0.70074 0.0
O374 O 0.35282 0.07403 0.5904 0.0
O375 O 0.40028 0.06408 0.64722 0.0
C376 C 0.33911 0.13322 0.40443 0.0
C377 C 0.35171 0.1189 0.27834 0.0
C378 C 0.37223 0.1064 0.32774 0.0
C379 C 0.36599 0.1135 0.39013 0.0
C380 C 0.31823 0.14522 0.35566 0.0
C381 C 0.32441 0.13814 0.29332 0.0
C382 C 0.33337 0.14259 0.46944 0.0
C383 C 0.37128 0.17734 0.69025 0.0
C384 C 0.43536 0.12472 0.6058 0.0
C385 C 0.40133 0.08626 0.89289 0.0
C386 C 0.38342 0.09561 1.01844 0.0
C387 C 0.36406 0.10878 0.96801 0.0
C388 C 0.37293 0.10414 0.9059 0.0
C389 C 0.42056 0.07288 0.94275 0.0
C390 C 0.41172 0.07746 1.00486 0.0
C391 C 0.41149 0.08202 0.82774 0.0
H392 H 0.39365 0.0918 0.31816 0.0
H393 H 0.38246 0.10404 0.42714 0.0
H394 H 0.2973 0.16042 0.36573 0.0
H395 H 0.30774 0.14775 0.25683 0.0
H396 H 0.34189 0.12252 0.97648 0.0
H397 H 0.3577 0.11464 0.868 0.0
H398 H 0.44264 0.05911 0.93368 0.0
H399 H 0.42748 0.06732 0.04226 0.0
Dy400 Dy 0.6329 0.61211 0.34959 0.0
Dy401 Dy 0.66431 0.63681 0.48443 0.0
C402 C 0.70849 0.62382 0.36664 0.0
O403 O 0.62464 0.57132 0.41967 0.0
O404 O 0.66672 0.58328 0.48916 0.0
O405 O 0.63232 0.57699 0.27666 0.0
O406 O 0.60116 0.6194 0.26731 0.0
O407 O 0.61135 0.62439 0.50439 0.0
O408 O 0.59012 0.62901 0.40318 0.0
O409 O 0.64074 0.67921 0.43561 0.0
O410 O 0.64718 0.66432 0.33428 0.0
O411 O 0.66448 0.66918 0.56175 0.0
O412 O 0.70229 0.63241 0.5577 0.0
C413 C 0.64419 0.56343 0.46824 0.0
O414 O 0.68663 0.6019 0.35337 0.0
O415 O 0.70262 0.64491 0.40989 0.0
C416 C 0.62217 0.59882 0.17444 0.0
C417 C 0.63932 0.6087 0.0477 0.0
C418 C 0.65752 0.62341 0.09615 0.0
C419 C 0.64901 0.61853 0.15893 0.0
C420 C 0.60424 0.58382 0.1266 0.0
C421 C 0.6127 0.58865 0.06394 0.0
C422 C 0.61227 0.59402 0.23998 0.0
C423 C 0.58628 0.62785 0.46406 0.0
C424 C 0.64193 0.68653 0.37568 0.0
C425 C 0.68346 0.64559 0.65772 0.0
C426 C 0.6707 0.63165 0.78531 0.0
C427 C 0.65212 0.61699 0.73732 0.0
C428 C 0.65846 0.62388 0.67419 0.0
C429 C 0.70247 0.6598 0.70516 0.0
C430 C 0.69622 0.65288 0.76834 0.0
C431 C 0.68899 0.65445 0.59146 0.0
H432 H 0.67794 0.63924 0.08552 0.0
H433 H 0.66317 0.63034 0.19531 0.0
H434 H 0.58354 0.56841 0.13769 0.0
H435 H 0.59847 0.57647 1.0282 0.0
H436 H 0.63265 0.60015 0.74853 0.0
H437 H 0.64359 0.61255 0.63819 0.0
H438 H 0.72183 0.67668 0.69335 0.0
H439 H 0.71082 0.66484 0.80387 0.0
Dy440 Dy 0.15587 0.86561 0.08612 0.0
Dy441 Dy 0.12641 0.89236 0.2176 0.0
C442 C 0.13815 0.93921 0.09977 0.0
O443 O 0.19568 0.85726 0.16149 0.0
O444 O 0.18062 0.90016 0.21878 0.0
O445 O 0.19309 0.86849 1.01518 0.0
O446 O 0.15345 0.834 1.00767 0.0
O447 O 0.14166 0.84066 0.23881 0.0
O448 O 0.13646 0.82296 0.13811 0.0
O449 O 0.084 0.87163 0.16495 0.0
O450 O 0.10235 0.8782 0.06455 0.0
O451 O 0.09413 0.88787 0.2963 0.0
O452 O 0.12713 0.92848 0.28867 0.0
C453 C 0.20227 0.87807 0.20543 0.0
O454 O 0.16137 0.91889 0.08528 0.0
O455 O 0.11682 0.93154 0.14321 0.0
C456 C 0.1733 0.85643 0.91337 0.0
C457 C 0.16198 0.87126 0.78435 0.0
C458 C 0.14278 0.88578 0.82994 0.0
C459 C 0.14839 0.87844 0.89382 0.0
C460 C 0.19281 0.84226 0.86838 0.0
C461 C 0.18726 0.84959 0.80455 0.0
C462 C 0.1785 0.84732 0.98016 0.0
C463 C 0.13799 0.81731 0.19882 0.0
C464 C 0.07845 0.8731 0.10421 0.0
C465 C 0.11624 0.90796 0.3904 0.0
C466 C 0.13317 0.89719 0.51874 0.0
C467 C 0.15133 0.88239 0.47198 0.0
C468 C 0.14295 0.88774 0.40843 0.0
C469 C 0.09827 0.92299 0.4366 0.0
C470 C 0.10664 0.91771 0.50012 0.0
C471 C 0.10638 0.9129 0.32387 0.0
H472 H 0.12289 0.90228 0.81625 0.0
H473 H 0.13301 0.88959 0.92792 0.0
H474 H 0.21221 0.82528 0.8826 0.0
H475 H 0.20288 0.83833 0.77101 0.0
H476 H 0.17215 0.86679 0.48447 0.0
H477 H 0.15717 0.87596 0.37334 0.0
H478 H 0.07749 0.93858 0.42357 0.0
H479 H 0.09183 0.92917 0.53469 0.0
Dy480 Dy 0.86464 0.63723 0.0843 0.0
Dy481 Dy 0.89639 0.61091 0.22123 0.0
C482 C 0.88422 0.56458 0.10706 0.0
O483 O 0.8249 0.644 0.15559 0.0
O484 O 0.84235 0.602 0.21977 0.0
O485 O 0.8277 0.63232 1.00984 0.0
O486 O 0.8661 0.6681 1.00126 0.0
O487 O 0.88007 0.66209 0.23749 0.0
O488 O 0.87719 0.68161 0.13503 0.0
O489 O 0.93719 0.63466 0.17109 0.0
O490 O 0.91886 0.62722 0.07005 0.0
O491 O 0.92913 0.61528 0.30221 0.0
O492 O 0.89682 0.57423 0.29557 0.0
C493 C 0.8199 0.62349 0.20264 0.0
O494 O 0.85961 0.58405 0.09197 0.0
O495 O 0.90648 0.57274 0.14987 0.0
C496 C 0.84717 0.64427 0.90807 0.0
C497 C 0.85935 0.62952 0.78199 0.0
C498 C 0.87924 0.61616 0.8315 0.0
C499 C 0.87322 0.62348 0.89388 0.0
C500 C 0.82693 0.65717 0.85918 0.0
C501 C 0.8329 0.64988 0.79685 0.0
C502 C 0.84159 0.65365 0.97313 0.0
C503 C 0.87814 0.68612 0.19563 0.0
C504 C 0.94266 0.6335 0.11108 0.0
C505 C 0.90731 0.59461 0.39644 0.0
C506 C 0.88988 0.60472 0.52205 0.0
C507 C 0.87112 0.61872 0.47162 0.0
C508 C 0.87975 0.61371 0.40949 0.0
C509 C 0.9259 0.58037 0.44631 0.0
C510 C 0.91729 0.58532 0.50842 0.0
C511 C 0.91731 0.59001 0.33128 0.0
H512 H 0.90001 0.60067 0.82201 0.0
H513 H 0.88919 0.6133 0.93098 0.0
H514 H 0.80663 0.67318 0.86916 0.0
H515 H 0.8167 0.66019 0.76028 0.0
H516 H 0.84962 0.63342 0.4801 0.0
H517 H 0.86501 0.62488 0.3716 0.0
H518 H 0.94732 0.56565 0.43723 0.0
H519 H 0.93259 0.57448 0.54581 0.0
Dy520 Dy 0.15755 0.13277 0.98065 0.0
Dy521 Dy 0.12351 0.11127 0.84612 0.0
C522 C 0.13736 0.06062 0.9585 0.0
O523 O 0.19568 0.14108 0.90608 0.0
O524 O 0.17723 0.10056 0.84453 0.0
O525 O 0.19416 0.12401 0.05525 0.0
O526 O 0.1609 0.16469 0.05865 0.0
O527 O 0.13938 0.16316 0.83235 0.0
O528 O 0.13569 0.17688 0.93502 0.0
O529 O 0.08237 0.12974 0.90209 0.0
O530 O 0.10446 0.12129 1.00183 0.0
O531 O 0.09179 0.12084 0.76454 0.0
O532 O 0.11952 0.07622 0.77331 0.0
C533 C 0.20024 0.12094 0.86047 0.0
O534 O 0.16166 0.07953 0.97488 0.0
O535 O 0.11487 0.07036 0.91626 0.0
C536 C 0.17702 0.13958 0.15512 0.0
C537 C 0.16334 0.12747 0.283 0.0
C538 C 0.14356 0.11399 0.23528 0.0
C539 C 0.15033 0.12001 0.172 0.0
C540 C 0.19709 0.15268 0.2023 0.0
C541 C 0.19036 0.1467 0.26557 0.0
C542 C 0.18347 0.14744 0.08875 0.0
C543 C 0.13611 0.18497 0.87534 0.0
C544 C 0.07914 0.12721 0.96301 0.0
C545 C 0.11113 0.09901 0.6714 0.0
C546 C 0.12979 0.1074 0.54515 0.0
C547 C 0.14841 0.12132 0.59398 0.0
C548 C 0.13918 0.11713 0.65648 0.0
C549 C 0.0926 0.08496 0.62314 0.0
C550 C 0.10182 0.08908 0.56068 0.0
C551 C 0.1008 0.09477 0.73685 0.0
H552 H 0.12235 0.09938 0.24676 0.0
H553 H 0.13446 0.10975 0.1362 0.0
H554 H 0.21785 0.16781 0.19021 0.0
H555 H 0.20644 0.15708 0.30084 0.0
H556 H 0.17031 0.13522 0.58398 0.0
H557 H 0.15391 0.12806 0.69318 0.0
H558 H 0.07083 0.07095 0.63372 0.0
H559 H 0.08663 0.07836 0.52445 0.0
Dy560 Dy 0.65532 0.36611 0.58768 0.0
Dy561 Dy 0.62357 0.39188 0.71811 0.0
C562 C 0.63672 0.43927 0.5995 0.0
O563 O 0.69765 0.38252 0.65083 0.0
O564 O 0.67335 0.37327 0.74495 0.0
O565 O 0.68874 0.37413 0.51169 0.0
O566 O 0.65836 0.33132 0.51449 0.0
O567 O 0.61681 0.3378 0.71662 0.0
O568 O 0.66078 0.32502 0.65615 0.0
O569 O 0.58296 0.39679 0.64648 0.0
O570 O 0.60041 0.35645 0.58365 0.0
O571 O 0.58719 0.39004 0.79077 0.0
O572 O 0.62719 0.42444 0.79484 0.0
C573 C 0.6998 0.37769 0.71223 0.0
O574 O 0.63423 0.41438 0.56375 0.0
O575 O 0.6404 0.43543 0.66086 0.0
C576 C 0.66959 0.35448 0.41477 0.0
C577 C 0.6536 0.36563 0.28596 0.0
C578 C 0.63565 0.38094 0.3324 0.0
C579 C 0.64356 0.3754 0.39614 0.0
C580 C 0.68749 0.3391 0.36888 0.0
C581 C 0.6796 0.34458 0.30517 0.0
C582 C 0.67863 0.34892 0.48166 0.0
C583 C 0.63832 0.31672 0.69657 0.0
C584 C 0.57705 0.37568 0.6032 0.0
C585 C 0.60884 0.403 0.89114 0.0
C586 C 0.62265 0.38977 1.02015 0.0
C587 C 0.64104 0.37479 0.97391 0.0
C588 C 0.63421 0.38136 0.91009 0.0
C589 C 0.59019 0.41768 0.93683 0.0
C590 C 0.59698 0.41114 1.00063 0.0
C591 C 0.60251 0.41146 0.82424 0.0
H592 H 0.61523 0.39698 0.31957 0.0
H593 H 0.6294 0.3875 0.4309 0.0
H594 H 0.70777 0.32297 0.38232 0.0
H595 H 0.69428 0.33271 0.27093 0.0
H596 H 0.66122 0.35851 0.98701 0.0
H597 H 0.64904 0.36989 0.87551 0.0
H598 H 0.57051 0.43445 0.92317 0.0
H599 H 0.58196 0.42276 0.03468 0.0
Dy600 Dy 0.39574 0.89369 0.34693 0.0
Dy601 Dy 0.3688 0.86416 0.4813 0.0
C602 C 0.32077 0.87713 0.36308 0.0
O603 O 0.40396 0.93237 0.4185 0.0
O604 O 0.36058 0.91718 0.47852 0.0
O605 O 0.39161 0.92977 0.27167 0.0
O606 O 0.42838 0.892 0.26867 0.0
O607 O 0.42182 0.87847 0.50009 0.0
O608 O 0.43951 0.87369 0.39952 0.0
O609 O 0.38957 0.82267 0.43162 0.0
O610 O 0.38295 0.84162 0.3298 0.0
O611 O 0.37394 0.83253 0.56322 0.0
O612 O 0.33173 0.86449 0.55257 0.0
C613 C 0.38265 0.93856 0.46225 0.0
O614 O 0.34132 0.90005 0.34774 0.0
O615 O 0.32875 0.85563 0.40763 0.0
C616 C 0.40482 0.9106 0.17206 0.0
C617 C 0.39005 0.89881 0.04445 0.0
C618 C 0.37312 0.88236 0.09245 0.0
C619 C 0.38046 0.88818 0.15563 0.0
C620 C 0.42142 0.92736 0.12459 0.0
C621 C 0.41413 0.92157 0.06148 0.0
C622 C 0.41386 0.91603 0.23827 0.0
C623 C 0.44555 0.87466 0.45997 0.0
C624 C 0.38812 0.81781 0.37121 0.0
C625 C 0.35309 0.85394 0.65534 0.0
C626 C 0.36391 0.87033 0.78199 0.0
C627 C 0.38126 0.88607 0.7337 0.0
C628 C 0.37587 0.87798 0.67102 0.0
C629 C 0.33546 0.83846 0.70301 0.0
C630 C 0.34075 0.84656 0.76568 0.0
C631 C 0.34812 0.84432 0.58982 0.0
H632 H 0.3547 0.86444 0.08129 0.0
H633 H 0.36743 0.87491 0.19169 0.0
H634 H 0.44025 0.9448 0.13634 0.0
H635 H 0.4273 0.93507 1.02599 0.0
H636 H 0.39891 0.90479 0.74429 0.0
H637 H 0.38965 0.89033 0.63481 0.0
H638 H 0.31782 0.81979 0.69185 0.0
H639 H 0.32722 0.83366 0.80148 0.0
C640 C 0.18349 0.62858 0.6733 0.0
C641 C 0.15738 0.62831 0.71556 0.0
H642 H 0.19864 0.62116 0.57941 0.0
C643 C 0.12551 0.62057 0.69302 0.0
H644 H 0.20844 0.63399 0.68909 0.0
C645 C 0.11991 0.61319 0.63014 0.0
C646 C 0.146 0.61334 0.58791 0.0
H647 H 0.10469 0.6207 0.72378 0.0
H648 H 0.09493 0.60785 0.61439 0.0
C649 C 0.17787 0.62121 0.61032 0.0
C650 C 0.64331 0.92132 0.92753 0.0
C651 C 0.64567 0.89644 0.97376 0.0
H652 H 0.64895 0.9354 0.83108 0.0
C653 C 0.65598 0.8657 0.95578 0.0
H654 H 0.63599 0.94543 0.93965 0.0
C655 C 0.66341 0.85993 0.89338 0.0
C656 C 0.66079 0.88474 0.84704 0.0
H657 H 0.65759 0.84579 0.98968 0.0
H658 H 0.67051 0.83576 0.88126 0.0
C659 C 0.65075 0.91555 0.8651 0.0
C660 C 0.39866 0.37616 0.19544 0.0
C661 C 0.36582 0.38026 0.21379 0.0
H662 H 0.43256 0.37611 0.12027 0.0
C663 C 0.34164 0.38843 0.16732 0.0
H664 H 0.41787 0.36925 0.22956 0.0
C665 C 0.3501 0.3924 0.10433 0.0
C666 C 0.38298 0.38829 0.08603 0.0
H667 H 0.31616 0.39217 0.1797 0.0
H668 H 0.3309 0.39916 0.07008 0.0
C669 C 0.40711 0.3801 0.13255 0.0
C670 C 0.87112 0.14862 0.45117 0.0
C671 C 0.88023 0.11771 0.47461 0.0
H672 H 0.85743 0.17831 0.3709 0.0
C673 C 0.88138 0.0923 0.43252 0.0
H674 H 0.87048 0.16888 0.48193 0.0
C675 C 0.87385 0.0977 0.36867 0.0
C676 C 0.86496 0.12868 0.34516 0.0
H677 H 0.88779 0.06808 0.44901 0.0
H678 H 0.87465 0.07749 0.33782 0.0
C679 C 0.86361 0.15403 0.38736 0.0
C680 C 0.15451 0.41138 0.37118 0.0
C681 C 0.1642 0.38036 0.35374 0.0
H682 H 0.14038 0.44187 0.44518 0.0
C683 C 0.16715 0.35589 0.40068 0.0
H684 H 0.15253 0.43099 0.33665 0.0
C685 C 0.16019 0.36215 0.46307 0.0
C686 C 0.15005 0.39306 0.48034 0.0
H687 H 0.17405 0.33159 0.38902 0.0
H688 H 0.16195 0.34249 0.49752 0.0
C689 C 0.14754 0.41764 0.43356 0.0
C690 C 0.86051 0.86177 0.66539 0.0
C691 C 0.86412 0.88654 0.70865 0.0
H692 H 0.86587 0.84709 0.57093 0.0
C693 C 0.87555 0.91673 0.68695 0.0
H694 H 0.85235 0.83804 0.68043 0.0
C695 C 0.88334 0.92193 0.62392 0.0
C696 C 0.87995 0.89708 0.58078 0.0
H697 H 0.87816 0.93653 0.71856 0.0
H698 H 0.89173 0.94558 0.60888 0.0
C699 C 0.8683 0.86697 0.6024 0.0
C700 C 0.3787 0.58956 0.87295 0.0
C701 C 0.3707 0.62087 0.85013 0.0
H702 H 0.39149 0.55904 0.95269 0.0
C703 C 0.36968 0.64591 0.89309 0.0
H704 H 0.37922 0.56957 0.84152 0.0
C705 C 0.37669 0.63986 0.95693 0.0
C706 C 0.38496 0.6086 0.97967 0.0
H707 H 0.36417 0.67043 0.87724 0.0
H708 H 0.37637 0.65989 0.98826 0.0
C709 C 0.38574 0.58351 0.93681 0.0
C710 C 0.61138 0.10595 0.12709 0.0
C711 C 0.63724 0.10632 0.08429 0.0
H712 H 0.59663 0.11314 0.22119 0.0
C713 C 0.66925 0.11387 0.10646 0.0
H714 H 0.5863 0.10082 0.11168 0.0
C715 C 0.67518 0.12099 0.1695 0.0
C716 C 0.64928 0.12074 0.2122 0.0
H717 H 0.68988 0.11393 0.07523 0.0
H718 H 0.70021 0.12634 0.18493 0.0
C719 C 0.61731 0.11303 0.19008 0.0
C720 C 0.9044 0.39584 0.37135 0.0
C721 C 0.87176 0.39104 0.34945 0.0
H722 H 0.93674 0.40487 0.44969 0.0
C723 C 0.84609 0.39284 0.39241 0.0
H724 H 0.92486 0.39409 0.33998 0.0
C725 C 0.85291 0.39908 0.45556 0.0
C726 C 0.8856 0.40368 0.47752 0.0
H727 H 0.82061 0.38974 0.37713 0.0
H728 H 0.83248 0.40066 0.48703 0.0
C729 C 0.91122 0.40204 0.43444 0.0
C730 C 0.371 0.08232 0.19388 0.0
C731 C 0.35916 0.11259 0.21152 0.0
H732 H 0.38731 0.05302 0.11964 0.0
C733 C 0.35491 0.13703 0.16479 0.0
H734 H 0.37412 0.06275 0.22824 0.0
C735 C 0.36248 0.13144 0.10241 0.0
C736 C 0.37455 0.10125 0.08483 0.0
H737 H 0.3464 0.16082 0.17658 0.0
H738 H 0.35956 0.1511 0.06818 0.0
C739 C 0.37858 0.07673 0.13145 0.0
C740 C 0.68065 0.61655 0.96194 0.0
C741 C 0.64759 0.61453 0.98051 0.0
H742 H 0.7139 0.62297 0.88617 0.0
C743 C 0.62234 0.61817 0.93421 0.0
H744 H 0.70077 0.61345 0.99606 0.0
C745 C 0.62987 0.62353 0.87121 0.0
C746 C 0.66288 0.62549 0.85258 0.0
H747 H 0.5966 0.61742 0.94672 0.0
H748 H 0.60971 0.62675 0.8372 0.0
C749 C 0.68819 0.62198 0.89883 0.0
C750 C 0.13988 0.91564 0.62987 0.0
C751 C 0.14137 0.89079 0.5866 0.0
H752 H 0.1457 0.92922 0.7255 0.0
C753 C 0.15016 0.85958 0.6089 0.0
H754 H 0.1337 0.94007 0.61432 0.0
C755 C 0.157 0.85335 0.67273 0.0
C756 C 0.15529 0.87815 0.7161 0.0
H757 H 0.15103 0.83973 0.57721 0.0
H758 H 0.16293 0.82886 0.68823 0.0
C759 C 0.14675 0.90941 0.69373 0.0
C760 C 0.86339 0.64742 0.66843 0.0
C761 C 0.86654 0.62286 0.71518 0.0
H762 H 0.86861 0.6612 0.57182 0.0
C763 C 0.87701 0.59211 0.69755 0.0
H764 H 0.85597 0.67155 0.68021 0.0
C765 C 0.88429 0.58615 0.63512 0.0
C766 C 0.88133 0.61078 0.58846 0.0
H767 H 0.87926 0.57245 0.73192 0.0
H768 H 0.89193 0.56208 0.62332 0.0
C769 C 0.87066 0.64147 0.60605 0.0
C770 C 0.13637 0.08704 0.4359 0.0
C771 C 0.13917 0.11228 0.4783 0.0
H772 H 0.14223 0.07176 0.34188 0.0
C773 C 0.15049 0.14239 0.45599 0.0
H774 H 0.12827 0.06337 0.4515 0.0
C775 C 0.1585 0.14721 0.39302 0.0
C776 C 0.15545 0.12205 0.35049 0.0
H777 H 0.15248 0.16254 0.48691 0.0
H778 H 0.16641 0.17094 0.37739 0.0
C779 C 0.14438 0.09186 0.37291 0.0
C780 C 0.63666 0.40284 0.19487 0.0
C781 C 0.64544 0.37174 0.21788 0.0
H782 H 0.6232 0.433 0.11506 0.0
C783 C 0.64658 0.34659 0.17515 0.0
H784 H 0.63606 0.42293 0.22603 0.0
C785 C 0.63919 0.35238 0.11131 0.0
C786 C 0.63042 0.38348 0.08832 0.0
H787 H 0.65273 0.32223 0.19115 0.0
H788 H 0.63988 0.33232 0.08009 0.0
C789 C 0.62927 0.40862 0.13106 0.0
C790 C 0.40908 0.89053 0.93457 0.0
C791 C 0.38315 0.89189 0.97705 0.0
H792 H 0.4235 0.88232 0.84066 0.0
C793 C 0.35073 0.88635 0.95457 0.0
H794 H 0.43443 0.89406 0.95025 0.0
C795 C 0.34445 0.87958 0.89147 0.0
C796 C 0.37041 0.87815 0.84907 0.0
H797 H 0.33007 0.88766 0.98558 0.0
H798 H 0.31914 0.87583 0.87575 0.0
C799 C 0.4028 0.88378 0.87154 0.0
C800 C 0.10843 0.73265 0.19601 0.0
C801 C 0.13656 0.71556 0.21817 0.0
H802 H 0.08667 0.77886 0.17459 0.0
C803 C 0.16262 0.73241 0.24693 0.0
H804 H 0.08818 0.72019 0.17321 0.0
C805 C 0.16175 0.76632 0.24768 0.0
C806 C 0.13479 0.78338 0.21985 0.0
H807 H 0.18482 0.71971 0.26322 0.0
H808 H 0.18334 0.77915 0.26439 0.0
C809 C 0.10754 0.7662 0.19688 0.0
C810 C 0.53228 0.89734 0.50767 0.0
C811 C 0.54982 0.87319 0.47758 0.0
H812 H 0.48414 0.91655 0.52677 0.0
C813 C 0.5327 0.84651 0.45479 0.0
H814 H 0.54503 0.91839 0.52462 0.0
C815 C 0.49837 0.84539 0.45629 0.0
C816 C 0.48042 0.87098 0.48043 0.0
H817 H 0.54573 0.8277 0.43115 0.0
H818 H 0.48565 0.8258 0.43357 0.0
C819 C 0.49756 0.89625 0.50902 0.0
C820 C 0.34269 0.26309 0.67985 0.0
C821 C 0.36883 0.27907 0.70988 0.0
H822 H 0.32283 0.21801 0.65163 0.0
C823 C 0.3928 0.26083 0.74436 0.0
H824 H 0.32393 0.27663 0.65294 0.0
C825 C 0.39216 0.22689 0.74363 0.0
C826 C 0.36758 0.2112 0.7083 0.0
H827 H 0.41344 0.27269 0.76713 0.0
H828 H 0.41228 0.21318 0.76598 0.0
C829 C 0.34208 0.22956 0.67902 0.0
C830 C 0.99402 0.16116 0.96799 0.0
C831 C 0.97596 0.13393 0.98666 0.0
H832 H 0.0416 0.18035 0.9475 0.0
C833 C 0.99299 0.10656 1.01115 0.0
H834 H 0.98141 0.18233 0.94804 0.0
C835 C 0.02773 0.10541 1.01085 0.0
C836 C 0.04548 0.13163 0.98596 0.0
H837 H 0.97952 0.08501 1.02433 0.0
H838 H 0.04038 0.08305 1.02401 0.0
C839 C 0.02844 0.16 0.96757 0.0
C840 C 0.15609 0.27073 0.82418 0.0
C841 C 0.13427 0.28759 0.8618 0.0
H842 H 0.17372 0.22393 0.79815 0.0
C843 C 0.10957 0.27044 0.8931 0.0
H844 H 0.17555 0.28344 0.8001 0.0
C845 C 0.10846 0.23695 0.8918 0.0
C846 C 0.13204 0.21967 0.85924 0.0
H847 H 0.09231 0.28286 0.92208 0.0
H848 H 0.09046 0.22437 0.92 0.0
C849 C 0.15501 0.23677 0.82297 0.0
C850 C 0.02637 0.89363 0.05014 0.0
C851 C 0.04389 0.8688 0.08288 0.0
H852 H 0.97847 0.91494 1.02966 0.0
C853 C 0.02638 0.84295 0.10938 0.0
H854 H 0.03942 0.91409 1.03036 0.0
C855 C 0.99198 0.84345 0.1091 0.0
C856 C 0.97435 0.86979 0.08224 0.0
H857 H 0.03937 0.82364 0.13515 0.0
H858 H 0.97922 0.8245 0.13461 0.0
C859 C 0.99158 0.89412 0.04978 0.0
C860 C 0.42047 0.7333 0.37924 0.0
C861 C 0.39457 0.71627 0.35075 0.0
H862 H 0.43884 0.77914 0.40651 0.0
C863 C 0.36939 0.7336 0.31762 0.0
H864 H 0.44001 0.72051 0.40545 0.0
C865 C 0.36872 0.76758 0.31821 0.0
C866 C 0.39317 0.78425 0.35207 0.0
H867 H 0.34881 0.72097 0.29637 0.0
H868 H 0.34768 0.78048 0.29721 0.0
C869 C 0.41977 0.76686 0.37995 0.0
C870 C 0.52143 0.1069 0.55217 0.0
C871 C 0.53911 0.13043 0.58497 0.0
H872 H 0.47343 0.08678 0.53216 0.0
C873 C 0.52173 0.15537 0.61261 0.0
H874 H 0.53439 0.08716 0.53138 0.0
C875 C 0.48736 0.15513 0.61315 0.0
C876 C 0.46958 0.12996 0.58602 0.0
H877 H 0.53485 0.17372 0.63827 0.0
H878 H 0.47475 0.17331 0.63918 0.0
C879 C 0.48665 0.10669 0.55264 0.0
C880 C 0.86806 0.24351 0.81652 0.0
C881 C 0.8908 0.22524 0.85402 0.0
H882 H 0.8492 0.29119 0.79249 0.0
C883 C 0.91561 0.24134 0.8877 0.0
H884 H 0.84839 0.23164 0.79088 0.0
C885 C 0.916 0.27488 0.8888 0.0
C886 C 0.89164 0.29328 0.85609 0.0
H887 H 0.93344 0.22786 0.91699 0.0
H888 H 0.93413 0.28642 0.9188 0.0
C889 C 0.8685 0.2775 0.81751 0.0
C890 C 0.61214 0.77135 0.38734 0.0
C891 C 0.63666 0.78879 0.3562 0.0
H892 H 0.59426 0.72505 0.416 0.0
C893 C 0.65954 0.77211 0.32055 0.0
H894 H 0.59419 0.78365 0.415 0.0
C895 C 0.65962 0.73812 0.32118 0.0
C896 C 0.6368 0.72083 0.35743 0.0
H897 H 0.67892 0.7851 0.29678 0.0
H898 H 0.6791 0.72552 0.29798 0.0
C899 C 0.61218 0.73781 0.38788 0.0
C900 C 0.89947 0.73658 0.24439 0.0
C901 C 0.87373 0.71972 0.21462 0.0
H902 H 0.92043 0.78324 0.26178 0.0
C903 C 0.84637 0.73699 0.18943 0.0
H904 H 0.9211 0.72373 0.2631 0.0
C905 C 0.846 0.7706 0.18867 0.0
C906 C 0.87298 0.78769 0.2131 0.0
H907 H 0.82636 0.72452 0.16585 0.0
H908 H 0.82571 0.7833 0.16451 0.0
C909 C 0.89909 0.77053 0.24365 0.0
C910 C 0.66326 0.22978 0.72211 0.0
C911 C 0.63286 0.21429 0.71374 0.0
H912 H 0.68871 0.27492 0.72349 0.0
C913 C 0.60367 0.23278 0.70988 0.0
H914 H 0.68607 0.216 0.72369 0.0
C915 C 0.60506 0.26653 0.71081 0.0
C916 C 0.63576 0.2821 0.71359 0.0
H917 H 0.58004 0.22125 0.70187 0.0
H918 H 0.58244 0.28039 0.7037 0.0
C919 C 0.66473 0.26344 0.72154 0.0
C920 C 0.99868 0.40116 1.01216 0.0
C921 C 0.98059 0.37689 0.98239 0.0
H922 H 0.04707 0.42094 1.02981 0.0
C923 C 0.99749 0.35062 0.95821 0.0
H924 H 0.9861 0.42193 1.03004 0.0
C925 C 0.03187 0.35016 0.95776 0.0
C926 C 0.05004 0.37587 0.98176 0.0
H927 H 0.98403 0.33175 0.9347 0.0
H928 H 0.04418 0.33092 0.93408 0.0
C929 C 0.03344 0.40063 1.01188 0.0
C930 C 0.50114 0.60433 0.51459 0.0
C931 C 0.48262 0.62975 0.48602 0.0
H932 H 0.5498 0.58398 0.53111 0.0
C933 C 0.49913 0.65706 0.46287 0.0
H934 H 0.48889 0.58272 0.53142 0.0
C935 C 0.53354 0.65771 0.46241 0.0
C936 C 0.55215 0.63111 0.4853 0.0
H937 H 0.48536 0.67675 0.43992 0.0
H938 H 0.54554 0.67792 0.43929 0.0
C939 C 0.53589 0.60503 0.51431 0.0
C940 C 0.488 0.3958 0.56577 0.0
C941 C 0.47297 0.36643 0.58174 0.0
H942 H 0.53361 0.42177 0.56057 0.0
C943 C 0.49278 0.33889 0.59333 0.0
H944 H 0.4732 0.41746 0.55809 0.0
C945 C 0.52728 0.34114 0.59311 0.0
C946 C 0.5423 0.37121 0.58346 0.0
H947 H 0.48163 0.31616 0.60703 0.0
H948 H 0.54208 0.32009 0.60653 0.0
C949 C 0.52248 0.39828 0.56753 0.0
C950 C 0.02809 0.61391 0.05558 0.0
C951 C 0.04681 0.63511 0.09227 0.0
H952 H 0.97919 0.59695 1.03193 0.0
C953 C 0.03058 0.65944 0.12386 0.0
H954 H 0.04017 0.59472 1.03145 0.0
C955 C 0.99623 0.66079 0.12396 0.0
C956 C 0.97728 0.63774 0.09268 0.0
H957 H 0.04449 0.67605 0.15241 0.0
H958 H 0.98448 0.67842 0.15261 0.0
C959 C 0.99331 0.61523 0.05579 0.0
C960 C 0.13639 0.50265 0.09622 0.0
C961 C 0.13695 0.53236 0.06326 0.0
H962 H 0.13805 0.45113 0.09057 0.0
C963 C 0.13653 0.53257 0.99722 0.0
H964 H 0.13683 0.50174 0.14697 0.0
C965 C 0.13628 0.50365 0.96481 0.0
C966 C 0.13755 0.47397 0.99792 0.0
H967 H 0.13681 0.55518 0.97058 0.0
H968 H 0.13663 0.50451 0.9141 0.0
C969 C 0.13723 0.47375 0.06389 0.0
C970 C 0.74982 0.91291 0.30089 0.0
C971 C 0.73587 0.88374 0.32172 0.0
H972 H 0.78654 0.93611 0.24555 0.0
C973 C 0.74833 0.85464 0.29938 0.0
H974 H 0.74045 0.93571 0.31666 0.0
C975 C 0.77418 0.85494 0.25649 0.0
C976 C 0.78827 0.88429 0.23643 0.0
H977 H 0.73751 0.83185 0.31367 0.0
H978 H 0.78369 0.83229 0.24033 0.0
C979 C 0.77595 0.91316 0.25958 0.0
C980 C 0.41645 0.48251 0.55504 0.0
C981 C 0.38601 0.46957 0.57371 0.0
H982 H 0.44103 0.52074 0.50401 0.0
C983 C 0.35679 0.48596 0.55488 0.0
H984 H 0.43936 0.47019 0.5681 0.0
C985 C 0.35774 0.51454 0.5189 0.0
C986 C 0.38791 0.52743 0.49931 0.0
H987 H 0.33292 0.47663 0.56805 0.0
H988 H 0.3346 0.52655 0.50608 0.0
C989 C 0.41737 0.51109 0.51753 0.0
C990 C 0.77233 0.15697 0.7921 0.0
C991 C 0.78726 0.12842 0.81655 0.0
H992 H 0.73343 0.17785 0.73277 0.0
C993 C 0.77385 0.0987 0.79953 0.0
H994 H 0.78261 0.1802 0.80344 0.0
C995 C 0.74592 0.09736 0.75995 0.0
C996 C 0.73104 0.12569 0.73471 0.0
H997 H 0.78503 0.07629 0.81704 0.0
H998 H 0.73599 0.07394 0.74884 0.0
C999 C 0.74462 0.15561 0.75085 0.0
C1000 C 0.85625 0.51947 0.05352 0.0
C1001 C 0.88595 0.5339 0.07297 0.0
H1002 H 0.83278 0.48203 1.00262 0.0
C1003 C 0.91596 0.52085 0.05299 0.0
H1004 H 0.8327 0.52902 0.06756 0.0
C1005 C 0.91597 0.49402 1.0138 0.0
C1006 C 0.88601 0.4796 0.99498 0.0
H1007 H 0.93922 0.53185 0.06628 0.0
H1008 H 0.93931 0.48416 0.99946 0.0
C1009 C 0.85628 0.49263 1.01574 0.0
C1010 C 0.24331 0.14912 0.79595 0.0
C1011 C 0.23078 0.12076 0.82389 0.0
H1012 H 0.27868 0.16965 0.73266 0.0
C1013 C 0.24475 0.091 0.80911 0.0
H1014 H 0.23243 0.17231 0.80548 0.0
C1015 C 0.27096 0.08948 0.76811 0.0
C1016 C 0.2833 0.11761 0.73918 0.0
H1017 H 0.23524 0.06874 0.82921 0.0
H1018 H 0.28149 0.06612 0.75866 0.0
C1019 C 0.26921 0.14753 0.75336 0.0
C1020 C 0.65304 0.52803 0.56473 0.0
C1021 C 0.64057 0.532 0.50262 0.0
H1022 H 0.66108 0.49596 0.64455 0.0
C1023 C 0.6251 0.50577 0.47442 0.0
H1024 H 0.66474 0.5479 0.58829 0.0
C1025 C 0.6233 0.47594 0.50664 0.0
C1026 C 0.63638 0.47177 0.56827 0.0
H1027 H 0.61511 0.50803 0.42694 0.0
H1028 H 0.61186 0.45598 0.48291 0.0
C1029 C 0.65074 0.49834 0.59734 0.0
C1030 C 0.2738 0.90517 0.30752 0.0
C1031 C 0.28915 0.87598 0.32672 0.0
H1032 H 0.23474 0.92852 0.2541 0.0
C1033 C 0.27634 0.84696 0.30407 0.0
H1034 H 0.28332 0.92792 0.32365 0.0
C1035 C 0.2488 0.84737 0.26222 0.0
C1036 C 0.23343 0.87675 0.24356 0.0
H1037 H 0.28816 0.82418 0.31717 0.0
H1038 H 0.23916 0.82478 0.24558 0.0
C1039 C 0.24614 0.90552 0.26717 0.0
C1040 C 0.60882 0.98781 0.50749 0.0
C1041 C 0.63913 0.97584 0.48688 0.0
H1042 H 0.58444 0.02381 0.56097 0.0
C1043 C 0.66838 0.99158 0.50461 0.0
H1044 H 0.58594 0.97574 0.49549 0.0
C1045 C 0.66753 0.01878 0.54137 0.0
C1046 C 0.63747 0.03065 0.56296 0.0
H1047 H 0.69213 0.98275 0.49001 0.0
H1048 H 0.69063 0.03049 0.55333 0.0
C1049 C 0.60802 0.01486 0.54585 0.0
C1050 C 0.24791 0.35123 0.80702 0.0
C1051 C 0.2373 0.38063 0.83108 0.0
H1052 H 0.2814 0.3278 0.74577 0.0
C1053 C 0.2526 0.40926 0.81102 0.0
H1054 H 0.23599 0.32888 0.82066 0.0
C1055 C 0.27828 0.40864 0.76879 0.0
C1056 C 0.28877 0.37947 0.74396 0.0
H1057 H 0.24462 0.43229 0.82807 0.0
H1058 H 0.28999 0.43114 0.75538 0.0
C1059 C 0.2733 0.35069 0.76323 0.0
C1060 C 0.85381 0.99185 0.0447 0.0
C1061 C 0.88359 0.97683 0.06471 0.0
H1062 H 0.83025 0.03153 0.99518 0.0
C1063 C 0.91359 0.99107 0.04707 0.0
H1064 H 0.83027 0.98147 0.05709 0.0
C1065 C 0.91355 0.01968 1.00962 0.0
C1066 C 0.88353 0.03473 0.99042 0.0
H1067 H 0.93692 0.97976 0.06099 0.0
H1068 H 0.93688 0.03042 0.99703 0.0
C1069 C 0.85379 0.02048 1.00877 0.0
C1070 C 0.25384 0.59357 0.25697 0.0
C1071 C 0.2392 0.62266 0.23502 0.0
H1072 H 0.29185 0.57056 0.31369 0.0
C1073 C 0.25219 0.65188 0.25649 0.0
H1074 H 0.24424 0.57066 0.24186 0.0
C1075 C 0.2792 0.65179 0.2996 0.0
C1076 C 0.29388 0.6225 0.32086 0.0
H1077 H 0.24098 0.67464 0.24128 0.0
H1078 H 0.28907 0.67452 0.31503 0.0
C1079 C 0.28094 0.59351 0.29866 0.0
C1080 C 0.35244 0.98185 0.51539 0.0
C1081 C 0.38268 0.96945 0.49577 0.0
H1082 H 0.32749 0.01816 0.56529 0.0
C1083 C 0.41209 0.98487 0.51449 0.0
H1084 H 0.32937 0.97043 0.50223 0.0
C1085 C 0.41105 0.01203 0.55265 0.0
C1086 C 0.38056 0.02446 0.57155 0.0
H1087 H 0.43579 0.9755 0.50097 0.0
H1088 H 0.43392 0.02372 0.56608 0.0
C1089 C 0.35138 0.00909 0.55203 0.0
C1090 C 0.77737 0.59571 0.26575 0.0
C1091 C 0.78992 0.6247 0.24083 0.0
H1092 H 0.74226 0.57295 0.32528 0.0
C1093 C 0.77646 0.65404 0.26002 0.0
H1094 H 0.78749 0.57274 0.25251 0.0
C1095 C 0.751 0.65418 0.30379 0.0
C1096 C 0.73837 0.62497 0.32802 0.0
H1097 H 0.78619 0.67676 0.24256 0.0
H1098 H 0.74065 0.67698 0.31735 0.0
C1099 C 0.75173 0.59584 0.30807 0.0
C1100 C 0.10635 0.01529 1.01217 0.0
C1101 C 0.13606 0.02845 0.99044 0.0
H1102 H 0.08362 0.97699 0.06598 0.0
C1103 C 0.16588 0.01237 1.00601 0.0
H1104 H 0.08306 0.02754 1.00176 0.0
C1105 C 0.1662 0.98378 0.04204 0.0
C1106 C 0.13677 0.97073 0.06494 0.0
H1107 H 0.18918 0.02205 0.99042 0.0
H1108 H 0.18973 0.972 0.05255 0.0
C1109 C 0.10673 0.98676 0.04976 0.0
C1110 C 0.73454 0.36434 0.80859 0.0
C1111 C 0.73202 0.37792 0.74724 0.0
H1112 H 0.7648 0.35608 0.89165 0.0
C1113 C 0.75974 0.39322 0.72233 0.0
H1114 H 0.71368 0.35216 0.82921 0.0
C1115 C 0.78889 0.39585 0.75868 0.0
C1116 C 0.79118 0.38284 0.8205 0.0
H1117 H 0.75863 0.40397 0.67548 0.0
H1118 H 0.80969 0.40819 0.73818 0.0
C1119 C 0.76383 0.36655 0.84458 0.0
loop_
_geom_bond_atom_site_label_1
_geom_bond_atom_site_label_2
_geom_bond_distance
_geom_bond_site_symmetry_2
_ccdc_geom_bond_type
Dy0 O3 2.307 1_556 S
Dy0 O5 2.395 . S
Dy0 O6 2.379 . S
Dy0 O8 2.339 1_556 S
Dy0 O10 2.298 1_556 S
Dy0 O14 2.275 1_556 S
Dy0 C22 2.738 . S
Dy1 O4 2.298 . S
Dy1 O7 2.275 . S
Dy1 O9 2.307 . S
Dy1 O11 2.395 . S
Dy1 O12 2.379 . S
Dy1 O15 2.339 . S
Dy1 C31 2.738 . S
C2 O14 1.254 . S
C2 O15 1.257 . S
O3 Dy0 2.307 1_554 S
O3 C13 1.266 . S
O4 Dy1 2.298 . S
O4 C13 1.236 . S
O5 Dy0 2.395 . S
O5 C22 1.255 . S
O6 Dy0 2.379 . S
O6 C22 1.249 . S
O7 Dy1 2.275 . S
O7 C23 1.254 . S
O8 Dy0 2.339 1_554 S
O8 C23 1.257 . S
O9 Dy1 2.307 . S
O9 C24 1.266 . S
O10 Dy0 2.298 1_554 S
O10 C24 1.236 . S
O11 Dy1 2.395 . S
O11 C31 1.255 . S
O12 Dy1 2.379 . S
O12 C31 1.249 . S
C13 O3 1.266 . S
C13 O4 1.236 . S
O14 Dy0 2.275 1_554 S
O14 C2 1.254 . S
O15 Dy1 2.339 . S
O15 C2 1.257 . S
C16 C19 1.344 . S
C16 C20 1.328 . S
C16 C22 1.516 . S
C17 C18 1.304 . S
C17 C21 1.323 . S
C18 C17 1.304 . S
C18 C19 1.371 . S
C18 H32 0.930 . S
C19 C16 1.344 . S
C19 C18 1.371 . S
C19 H33 0.931 . S
C20 C16 1.328 . S
C20 C21 1.433 . S
C20 H34 0.931 . S
C21 C17 1.323 . S
C21 C20 1.433 . S
C21 H35 0.933 . S
C22 Dy0 2.738 . S
C22 O5 1.255 . S
C22 O6 1.249 . S
C22 C16 1.516 . S
C23 O7 1.254 . S
C23 O8 1.257 . S
C24 O9 1.266 . S
C24 O10 1.236 . S
C25 C28 1.344 . S
C25 C29 1.328 . S
C25 C31 1.516 . S
C26 C27 1.304 . S
C26 C30 1.323 . S
C27 C26 1.304 . S
C27 C28 1.371 . S
C27 H36 0.930 . S
C28 C25 1.344 . S
C28 C27 1.371 . S
C28 H37 0.931 . S
C29 C25 1.328 . S
C29 C30 1.433 . S
C29 H38 0.931 . S
C30 C26 1.323 . S
C30 C29 1.433 . S
C30 H39 0.933 . S
C31 Dy1 2.738 . S
C31 O11 1.255 . S
C31 O12 1.249 . S
C31 C25 1.516 . S
H32 C18 0.930 . S
H33 C19 0.931 . S
H34 C20 0.931 . S
H35 C21 0.933 . S
H36 C27 0.930 . S
H37 C28 0.931 . S
H38 C29 0.931 . S
H39 C30 0.933 . S
Dy40 O43 2.307 . S
Dy40 O45 2.395 . S
Dy40 O46 2.379 . S
Dy40 O48 2.339 . S
Dy40 O50 2.298 . S
Dy40 O54 2.275 . S
Dy40 C62 2.738 . S
Dy41 O44 2.298 . S
Dy41 O47 2.275 . S
Dy41 O49 2.307 . S
Dy41 O51 2.395 . S
Dy41 O52 2.379 . S
Dy41 O55 2.339 . S
Dy41 C71 2.738 . S
C42 O54 1.254 . S
C42 O55 1.257 . S
O43 Dy40 2.307 . S
O43 C53 1.266 . S
O44 Dy41 2.298 . S
O44 C53 1.236 . S
O45 Dy40 2.395 . S
O45 C62 1.255 . S
O46 Dy40 2.379 . S
O46 C62 1.249 . S
O47 Dy41 2.275 . S
O47 C63 1.254 . S
O48 Dy40 2.339 . S
O48 C63 1.257 . S
O49 Dy41 2.307 . S
O49 C64 1.266 . S
O50 Dy40 2.298 . S
O50 C64 1.236 . S
O51 Dy41 2.395 . S
O51 C71 1.255 . S
O52 Dy41 2.379 . S
O52 C71 1.249 . S
C53 O43 1.266 . S
C53 O44 1.236 . S
O54 Dy40 2.275 . S
O54 C42 1.254 . S
O55 Dy41 2.339 . S
O55 C42 1.257 . S
C56 C59 1.344 . S
C56 C60 1.328 . S
C56 C62 1.516 . S
C57 C58 1.304 1_556 S
C57 C61 1.325 . S
C58 C57 1.304 1_554 S
C58 C59 1.371 . S
C58 H72 0.930 . S
C59 C56 1.344 . S
C59 C58 1.371 . S
C59 H73 0.931 . S
C60 C56 1.328 . S
C60 C61 1.430 1_554 S
C60 H74 0.931 . S
C61 C57 1.325 . S
C61 C60 1.430 1_556 S
C61 H75 0.935 . S
C62 Dy40 2.738 . S
C62 O45 1.255 . S
C62 O46 1.249 . S
C62 C56 1.516 . S
C63 O47 1.254 . S
C63 O48 1.257 . S
C64 O49 1.266 . S
C64 O50 1.236 . S
C65 C68 1.344 . S
C65 C69 1.328 . S
C65 C71 1.516 . S
C66 C67 1.304 . S
C66 C70 1.323 . S
C67 C66 1.304 . S
C67 C68 1.371 . S
C67 H76 0.930 . S
C68 C65 1.344 . S
C68 C67 1.371 . S
C68 H77 0.931 . S
C69 C65 1.328 . S
C69 C70 1.433 . S
C69 H78 0.931 . S
C70 C66 1.323 . S
C70 C69 1.433 . S
C70 H79 0.933 . S
C71 Dy41 2.738 . S
C71 O51 1.255 . S
C71 O52 1.249 . S
C71 C65 1.516 . S
H72 C58 0.930 . S
H73 C59 0.931 . S
H74 C60 0.931 . S
H75 C61 0.935 . S
H76 C67 0.930 . S
H77 C68 0.931 . S
H78 C69 0.931 . S
H79 C70 0.933 . S
Dy80 O83 2.307 . S
Dy80 O85 2.395 . S
Dy80 O86 2.379 . S
Dy80 O88 2.339 . S
Dy80 O90 2.298 . S
Dy80 O94 2.275 . S
Dy80 C102 2.738 . S
Dy81 O84 2.298 . S
Dy81 O87 2.275 . S
Dy81 O89 2.307 . S
Dy81 O91 2.395 . S
Dy81 O92 2.379 . S
Dy81 O95 2.339 . S
Dy81 C111 2.738 . S
C82 O94 1.254 . S
C82 O95 1.257 . S
O83 Dy80 2.307 . S
O83 C93 1.266 . S
O84 Dy81 2.298 . S
O84 C93 1.236 . S
O85 Dy80 2.395 . S
O85 C102 1.255 . S
O86 Dy80 2.379 . S
O86 C102 1.249 . S
O87 Dy81 2.275 . S
O87 C103 1.254 . S
O88 Dy80 2.339 . S
O88 C103 1.257 . S
O89 Dy81 2.307 . S
O89 C104 1.266 . S
O90 Dy80 2.298 . S
O90 C104 1.236 . S
O91 Dy81 2.395 . S
O91 C111 1.255 . S
O92 Dy81 2.379 . S
O92 C111 1.249 . S
C93 O83 1.266 . S
C93 O84 1.236 . S
O94 Dy80 2.275 . S
O94 C82 1.254 . S
O95 Dy81 2.339 . S
O95 C82 1.257 . S
C96 C99 1.344 . S
C96 C100 1.328 . S
C96 C102 1.516 . S
C97 C98 1.304 . S
C97 C101 1.323 . S
C98 C97 1.304 . S
C98 C99 1.371 . S
C98 H112 0.930 . S
C99 C96 1.344 . S
C99 C98 1.371 . S
C99 H113 0.931 . S
C100 C96 1.328 . S
C100 C101 1.433 . S
C100 H114 0.931 . S
C101 C97 1.323 . S
C101 C100 1.433 . S
C101 H115 0.933 . S
C102 Dy80 2.738 . S
C102 O85 1.255 . S
C102 O86 1.249 . S
C102 C96 1.516 . S
C103 O87 1.254 . S
C103 O88 1.257 . S
C104 O89 1.266 . S
C104 O90 1.236 . S
C105 C108 1.344 . S
C105 C109 1.328 . S
C105 C111 1.516 . S
C106 C107 1.304 . S
C106 C110 1.323 . S
C107 C106 1.304 . S
C107 C108 1.371 . S
C107 H116 0.930 . S
C108 C105 1.344 . S
C108 C107 1.371 . S
C108 H117 0.931 . S
C109 C105 1.328 . S
C109 C110 1.433 . S
C109 H118 0.931 . S
C110 C106 1.323 . S
C110 C109 1.433 . S
C110 H119 0.933 . S
C111 Dy81 2.738 . S
C111 O91 1.255 . S
C111 O92 1.249 . S
C111 C105 1.516 . S
H112 C98 0.930 . S
H113 C99 0.931 . S
H114 C100 0.931 . S
H115 C101 0.933 . S
H116 C107 0.930 . S
H117 C108 0.931 . S
H118 C109 0.931 . S
H119 C110 0.933 . S
Dy120 O123 2.307 . S
Dy120 O125 2.395 . S
Dy120 O126 2.379 . S
Dy120 O128 2.339 . S
Dy120 O130 2.298 . S
Dy120 O134 2.275 . S
Dy120 C142 2.738 . S
Dy121 O124 2.298 . S
Dy121 O127 2.275 . S
Dy121 O129 2.307 . S
Dy121 O131 2.395 1_556 S
Dy121 O132 2.379 1_556 S
Dy121 O135 2.339 . S
Dy121 C151 2.738 1_556 S
C122 O134 1.254 . S
C122 O135 1.257 . S
O123 Dy120 2.307 . S
O123 C133 1.266 . S
O124 Dy121 2.298 . S
O124 C133 1.236 . S
O125 Dy120 2.395 . S
O125 C142 1.255 . S
O126 Dy120 2.379 . S
O126 C142 1.249 . S
O127 Dy121 2.275 . S
O127 C143 1.254 . S
O128 Dy120 2.339 . S
O128 C143 1.257 . S
O129 Dy121 2.307 . S
O129 C144 1.266 . S
O130 Dy120 2.298 . S
O130 C144 1.236 . S
O131 Dy121 2.395 1_554 S
O131 C151 1.255 . S
O132 Dy121 2.379 1_554 S
O132 C151 1.249 . S
C133 O123 1.266 . S
C133 O124 1.236 . S
O134 Dy120 2.275 . S
O134 C122 1.254 . S
O135 Dy121 2.339 . S
O135 C122 1.257 . S
C136 C139 1.344 . S
C136 C140 1.328 . S
C136 C142 1.516 . S
C137 C138 1.304 . S
C137 C141 1.323 . S
C138 C137 1.304 . S
C138 C139 1.371 . S
C138 H152 0.930 . S
C139 C136 1.344 . S
C139 C138 1.371 . S
C139 H153 0.931 . S
C140 C136 1.328 . S
C140 C141 1.433 . S
C140 H154 0.931 . S
C141 C137 1.323 . S
C141 C140 1.433 . S
C141 H155 0.933 . S
C142 Dy120 2.738 . S
C142 O125 1.255 . S
C142 O126 1.249 . S
C142 C136 1.516 . S
C143 O127 1.254 . S
C143 O128 1.257 . S
C144 O129 1.266 . S
C144 O130 1.236 . S
C145 C148 1.344 . S
C145 C149 1.328 . S
C145 C151 1.516 . S
C146 C147 1.304 . S
C146 C150 1.323 . S
C147 C146 1.304 . S
C147 C148 1.371 . S
C147 H156 0.930 . S
C148 C145 1.344 . S
C148 C147 1.371 . S
C148 H157 0.931 . S
C149 C145 1.328 . S
C149 C150 1.433 . S
C149 H158 0.931 . S
C150 C146 1.323 . S
C150 C149 1.433 . S
C150 H159 0.933 . S
C151 Dy121 2.738 1_554 S
C151 O131 1.255 . S
C151 O132 1.249 . S
C151 C145 1.516 . S
H152 C138 0.930 . S
H153 C139 0.931 . S
H154 C140 0.931 . S
H155 C141 0.933 . S
H156 C147 0.930 . S
H157 C148 0.931 . S
H158 C149 0.931 . S
H159 C150 0.933 . S
Dy160 O163 2.307 . S
Dy160 O165 2.395 . S
Dy160 O166 2.379 . S
Dy160 O168 2.339 . S
Dy160 O170 2.298 . S
Dy160 O174 2.275 . S
Dy160 C182 2.738 . S
Dy161 O164 2.298 . S
Dy161 O167 2.275 . S
Dy161 O169 2.307 . S
Dy161 O171 2.395 1_556 S
Dy161 O172 2.379 1_556 S
Dy161 O175 2.339 . S
Dy161 C191 2.738 1_556 S
C162 O174 1.254 . S
C162 O175 1.257 . S
O163 Dy160 2.307 . S
O163 C173 1.266 . S
O164 Dy161 2.298 . S
O164 C173 1.236 . S
O165 Dy160 2.395 . S
O165 C182 1.255 . S
O166 Dy160 2.379 . S
O166 C182 1.249 . S
O167 Dy161 2.275 . S
O167 C183 1.254 . S
O168 Dy160 2.339 . S
O168 C183 1.257 . S
O169 Dy161 2.307 . S
O169 C184 1.266 . S
O170 Dy160 2.298 . S
O170 C184 1.236 . S
O171 Dy161 2.395 1_554 S
O171 C191 1.255 . S
O172 Dy161 2.379 1_554 S
O172 C191 1.249 . S
C173 O163 1.266 . S
C173 O164 1.236 . S
O174 Dy160 2.275 . S
O174 C162 1.254 . S
O175 Dy161 2.339 . S
O175 C162 1.257 . S
C176 C179 1.344 . S
C176 C180 1.328 . S
C176 C182 1.516 . S
C177 C178 1.304 . S
C177 C181 1.323 . S
C178 C177 1.304 . S
C178 C179 1.371 . S
C178 H192 0.930 . S
C179 C176 1.344 . S
C179 C178 1.371 . S
C179 H193 0.931 . S
C180 C176 1.328 . S
C180 C181 1.433 . S
C180 H194 0.931 . S
C181 C177 1.323 . S
C181 C180 1.433 . S
C181 H195 0.933 . S
C182 Dy160 2.738 . S
C182 O165 1.255 . S
C182 O166 1.249 . S
C182 C176 1.516 . S
C183 O167 1.254 . S
C183 O168 1.257 . S
C184 O169 1.266 . S
C184 O170 1.236 . S
C185 C188 1.344 . S
C185 C189 1.328 . S
C185 C191 1.516 . S
C186 C187 1.304 . S
C186 C190 1.323 . S
C187 C186 1.304 . S
C187 C188 1.371 . S
C187 H196 0.930 . S
C188 C185 1.344 . S
C188 C187 1.371 . S
C188 H197 0.931 . S
C189 C185 1.328 . S
C189 C190 1.433 . S
C189 H198 0.931 . S
C190 C186 1.323 . S
C190 C189 1.433 . S
C190 H199 0.933 . S
C191 Dy161 2.738 1_554 S
C191 O171 1.255 . S
C191 O172 1.249 . S
C191 C185 1.516 . S
H192 C178 0.930 . S
H193 C179 0.931 . S
H194 C180 0.931 . S
H195 C181 0.933 . S
H196 C187 0.930 . S
H197 C188 0.931 . S
H198 C189 0.931 . S
H199 C190 0.933 . S
Dy200 O203 2.307 . S
Dy200 O205 2.395 . S
Dy200 O206 2.379 . S
Dy200 O208 2.339 . S
Dy200 O210 2.298 . S
Dy200 O214 2.275 . S
Dy200 C222 2.738 . S
Dy201 O204 2.298 . S
Dy201 O207 2.275 . S
Dy201 O209 2.307 . S
Dy201 O211 2.395 1_554 S
Dy201 O212 2.379 1_554 S
Dy201 O215 2.339 . S
Dy201 C231 2.738 1_554 S
C202 O214 1.254 . S
C202 O215 1.257 . S
O203 Dy200 2.307 . S
O203 C213 1.266 . S
O204 Dy201 2.298 . S
O204 C213 1.236 . S
O205 Dy200 2.395 . S
O205 C222 1.255 . S
O206 Dy200 2.379 . S
O206 C222 1.249 . S
O207 Dy201 2.275 . S
O207 C223 1.254 . S
O208 Dy200 2.339 . S
O208 C223 1.257 . S
O209 Dy201 2.307 . S
O209 C224 1.266 . S
O210 Dy200 2.298 . S
O210 C224 1.236 . S
O211 Dy201 2.395 1_556 S
O211 C231 1.255 . S
O212 Dy201 2.379 1_556 S
O212 C231 1.249 . S
C213 O203 1.266 . S
C213 O204 1.236 . S
O214 Dy200 2.275 . S
O214 C202 1.254 . S
O215 Dy201 2.339 . S
O215 C202 1.257 . S
C216 C219 1.344 . S
C216 C220 1.328 . S
C216 C222 1.516 . S
C217 C218 1.304 . S
C217 C221 1.323 . S
C218 C217 1.304 . S
C218 C219 1.371 . S
C218 H232 0.930 . S
C219 C216 1.344 . S
C219 C218 1.371 . S
C219 H233 0.931 . S
C220 C216 1.328 . S
C220 C221 1.433 . S
C220 H234 0.931 . S
C221 C217 1.323 . S
C221 C220 1.433 . S
C221 H235 0.933 . S
C222 Dy200 2.738 . S
C222 O205 1.255 . S
C222 O206 1.249 . S
C222 C216 1.516 . S
C223 O207 1.254 . S
C223 O208 1.257 . S
C224 O209 1.266 . S
C224 O210 1.236 . S
C225 C228 1.344 . S
C225 C229 1.328 . S
C225 C231 1.516 . S
C226 C227 1.304 . S
C226 C230 1.323 . S
C227 C226 1.304 . S
C227 C228 1.371 . S
C227 H236 0.930 . S
C228 C225 1.344 . S
C228 C227 1.371 . S
C228 H237 0.931 . S
C229 C225 1.328 . S
C229 C230 1.433 . S
C229 H238 0.931 . S
C230 C226 1.323 . S
C230 C229 1.433 . S
C230 H239 0.933 . S
C231 Dy201 2.738 1_556 S
C231 O211 1.255 . S
C231 O212 1.249 . S
C231 C225 1.516 . S
H232 C218 0.930 . S
H233 C219 0.931 . S
H234 C220 0.931 . S
H235 C221 0.933 . S
H236 C227 0.930 . S
H237 C228 0.931 . S
H238 C229 0.931 . S
H239 C230 0.933 . S
Dy240 O243 2.307 . S
Dy240 O245 2.395 . S
Dy240 O246 2.379 . S
Dy240 O248 2.339 . S
Dy240 O250 2.298 . S
Dy240 O254 2.275 . S
Dy240 C262 2.738 . S
Dy241 O244 2.298 . S
Dy241 O247 2.275 . S
Dy241 O249 2.307 . S
Dy241 O251 2.395 . S
Dy241 O252 2.379 . S
Dy241 O255 2.339 . S
Dy241 C271 2.738 . S
C242 O254 1.254 . S
C242 O255 1.257 . S
O243 Dy240 2.307 . S
O243 C253 1.266 . S
O244 Dy241 2.298 . S
O244 C253 1.236 . S
O245 Dy240 2.395 . S
O245 C262 1.255 . S
O246 Dy240 2.379 . S
O246 C262 1.249 . S
O247 Dy241 2.275 . S
O247 C263 1.254 . S
O248 Dy240 2.339 . S
O248 C263 1.257 . S
O249 Dy241 2.307 . S
O249 C264 1.266 . S
O250 Dy240 2.298 . S
O250 C264 1.236 . S
O251 Dy241 2.395 . S
O251 C271 1.255 . S
O252 Dy241 2.379 . S
O252 C271 1.249 . S
C253 O243 1.266 . S
C253 O244 1.236 . S
O254 Dy240 2.275 . S
O254 C242 1.254 . S
O255 Dy241 2.339 . S
O255 C242 1.257 . S
C256 C259 1.344 . S
C256 C260 1.328 . S
C256 C262 1.516 . S
C257 C258 1.304 . S
C257 C261 1.323 . S
C258 C257 1.304 . S
C258 C259 1.371 1_556 S
C258 H272 0.930 . S
C259 C256 1.344 . S
C259 C258 1.371 1_554 S
C259 H273 0.931 . S
C260 C256 1.328 . S
C260 C261 1.433 1_554 S
C260 H274 0.931 . S
C261 C257 1.323 . S
C261 C260 1.433 1_556 S
C261 H275 0.933 . S
C262 Dy240 2.738 . S
C262 O245 1.255 . S
C262 O246 1.249 . S
C262 C256 1.516 . S
C263 O247 1.254 . S
C263 O248 1.257 . S
C264 O249 1.266 . S
C264 O250 1.236 . S
C265 C268 1.344 . S
C265 C269 1.328 . S
C265 C271 1.516 . S
C266 C267 1.304 . S
C266 C270 1.323 . S
C267 C266 1.304 . S
C267 C268 1.371 . S
C267 H276 0.930 . S
C268 C265 1.344 . S
C268 C267 1.371 . S
C268 H277 0.931 . S
C269 C265 1.328 . S
C269 C270 1.433 . S
C269 H278 0.931 . S
C270 C266 1.323 . S
C270 C269 1.433 . S
C270 H279 0.933 . S
C271 Dy241 2.738 . S
C271 O251 1.255 . S
C271 O252 1.249 . S
C271 C265 1.516 . S
H272 C258 0.930 . S
H273 C259 0.931 . S
H274 C260 0.931 . S
H275 C261 0.933 . S
H276 C267 0.930 . S
H277 C268 0.931 . S
H278 C269 0.931 . S
H279 C270 0.933 . S
Dy280 O283 2.307 . S
Dy280 O285 2.395 . S
Dy280 O286 2.379 . S
Dy280 O288 2.339 . S
Dy280 O290 2.298 . S
Dy280 O294 2.275 . S
Dy280 C302 2.738 . S
Dy281 O284 2.298 . S
Dy281 O287 2.275 . S
Dy281 O289 2.307 . S
Dy281 O291 2.395 . S
Dy281 O292 2.379 . S
Dy281 O295 2.339 . S
Dy281 C311 2.738 . S
C282 O294 1.254 . S
C282 O295 1.257 . S
O283 Dy280 2.307 . S
O283 C293 1.266 . S
O284 Dy281 2.298 . S
O284 C293 1.236 . S
O285 Dy280 2.395 . S
O285 C302 1.255 . S
O286 Dy280 2.379 . S
O286 C302 1.249 . S
O287 Dy281 2.275 . S
O287 C303 1.254 . S
O288 Dy280 2.339 . S
O288 C303 1.257 . S
O289 Dy281 2.307 . S
O289 C304 1.266 . S
O290 Dy280 2.298 . S
O290 C304 1.236 . S
O291 Dy281 2.395 . S
O291 C311 1.255 . S
O292 Dy281 2.379 . S
O292 C311 1.249 . S
C293 O283 1.266 . S
C293 O284 1.236 . S
O294 Dy280 2.275 . S
O294 C282 1.254 . S
O295 Dy281 2.339 . S
O295 C282 1.257 . S
C296 C299 1.344 . S
C296 C300 1.328 . S
C296 C302 1.516 . S
C297 C298 1.304 . S
C297 C301 1.323 . S
C298 C297 1.304 . S
C298 C299 1.371 . S
C298 H312 0.930 . S
C299 C296 1.344 . S
C299 C298 1.371 . S
C299 H313 0.931 . S
C300 C296 1.328 . S
C300 C301 1.433 . S
C300 H314 0.931 . S
C301 C297 1.323 . S
C301 C300 1.433 . S
C301 H315 0.933 . S
C302 Dy280 2.738 . S
C302 O285 1.255 . S
C302 O286 1.249 . S
C302 C296 1.516 . S
C303 O287 1.254 . S
C303 O288 1.257 . S
C304 O289 1.266 . S
C304 O290 1.236 . S
C305 C308 1.344 . S
C305 C309 1.328 . S
C305 C311 1.516 . S
C306 C307 1.304 . S
C306 C310 1.323 . S
C307 C306 1.304 . S
C307 C308 1.371 . S
C307 H316 0.930 . S
C308 C305 1.344 . S
C308 C307 1.371 . S
C308 H317 0.931 . S
C309 C305 1.328 . S
C309 C310 1.433 . S
C309 H318 0.931 . S
C310 C306 1.323 . S
C310 C309 1.433 . S
C310 H319 0.933 . S
C311 Dy281 2.738 . S
C311 O291 1.255 . S
C311 O292 1.249 . S
C311 C305 1.516 . S
H312 C298 0.930 . S
H313 C299 0.931 . S
H314 C300 0.931 . S
H315 C301 0.933 . S
H316 C307 0.930 . S
H317 C308 0.931 . S
H318 C309 0.931 . S
H319 C310 0.933 . S
Dy320 O323 2.307 . S
Dy320 O325 2.395 . S
Dy320 O326 2.379 . S
Dy320 O328 2.339 . S
Dy320 O330 2.298 . S
Dy320 O334 2.275 . S
Dy320 C342 2.738 . S
Dy321 O324 2.298 1_554 S
Dy321 O327 2.275 1_554 S
Dy321 O329 2.307 1_554 S
Dy321 O331 2.395 . S
Dy321 O332 2.379 . S
Dy321 O335 2.339 1_554 S
Dy321 C351 2.738 . S
C322 O334 1.254 . S
C322 O335 1.257 . S
O323 Dy320 2.307 . S
O323 C333 1.266 . S
O324 Dy321 2.298 1_556 S
O324 C333 1.236 . S
O325 Dy320 2.395 . S
O325 C342 1.255 . S
O326 Dy320 2.379 . S
O326 C342 1.249 . S
O327 Dy321 2.275 1_556 S
O327 C343 1.254 . S
O328 Dy320 2.339 . S
O328 C343 1.257 . S
O329 Dy321 2.307 1_556 S
O329 C344 1.266 . S
O330 Dy320 2.298 . S
O330 C344 1.236 . S
O331 Dy321 2.395 . S
O331 C351 1.255 . S
O332 Dy321 2.379 . S
O332 C351 1.249 . S
C333 O323 1.266 . S
C333 O324 1.236 . S
O334 Dy320 2.275 . S
O334 C322 1.254 . S
O335 Dy321 2.339 1_556 S
O335 C322 1.257 . S
C336 C339 1.344 . S
C336 C340 1.328 . S
C336 C342 1.516 . S
C337 C338 1.304 . S
C337 C341 1.323 . S
C338 C337 1.304 . S
C338 C339 1.371 . S
C338 H352 0.930 . S
C339 C336 1.344 . S
C339 C338 1.371 . S
C339 H353 0.931 . S
C340 C336 1.328 . S
C340 C341 1.433 . S
C340 H354 0.931 . S
C341 C337 1.323 . S
C341 C340 1.433 . S
C341 H355 0.933 . S
C342 Dy320 2.738 . S
C342 O325 1.255 . S
C342 O326 1.249 . S
C342 C336 1.516 . S
C343 O327 1.254 . S
C343 O328 1.257 . S
C344 O329 1.266 . S
C344 O330 1.236 . S
C345 C348 1.344 . S
C345 C349 1.328 . S
C345 C351 1.516 . S
C346 C347 1.304 . S
C346 C350 1.323 . S
C347 C346 1.304 . S
C347 C348 1.371 . S
C347 H356 0.930 . S
C348 C345 1.344 . S
C348 C347 1.371 . S
C348 H357 0.931 . S
C349 C345 1.328 . S
C349 C350 1.433 . S
C349 H358 0.931 . S
C350 C346 1.323 . S
C350 C349 1.433 . S
C350 H359 0.933 . S
C351 Dy321 2.738 . S
C351 O331 1.255 . S
C351 O332 1.249 . S
C351 C345 1.516 . S
H352 C338 0.930 . S
H353 C339 0.931 . S
H354 C340 0.931 . S
H355 C341 0.933 . S
H356 C347 0.930 . S
H357 C348 0.931 . S
H358 C349 0.931 . S
H359 C350 0.933 . S
Dy360 O363 2.307 . S
Dy360 O365 2.395 . S
Dy360 O366 2.379 . S
Dy360 O368 2.339 . S
Dy360 O370 2.298 . S
Dy360 O374 2.275 . S
Dy360 C382 2.738 . S
Dy361 O364 2.298 . S
Dy361 O367 2.275 . S
Dy361 O369 2.307 . S
Dy361 O371 2.395 . S
Dy361 O372 2.379 . S
Dy361 O375 2.339 . S
Dy361 C391 2.738 . S
C362 O374 1.254 . S
C362 O375 1.257 . S
O363 Dy360 2.307 . S
O363 C373 1.266 . S
O364 Dy361 2.298 . S
O364 C373 1.236 . S
O365 Dy360 2.395 . S
O365 C382 1.255 . S
O366 Dy360 2.379 . S
O366 C382 1.249 . S
O367 Dy361 2.275 . S
O367 C383 1.254 . S
O368 Dy360 2.339 . S
O368 C383 1.257 . S
O369 Dy361 2.307 . S
O369 C384 1.266 . S
O370 Dy360 2.298 . S
O370 C384 1.236 . S
O371 Dy361 2.395 . S
O371 C391 1.255 . S
O372 Dy361 2.379 . S
O372 C391 1.249 . S
C373 O363 1.266 . S
C373 O364 1.236 . S
O374 Dy360 2.275 . S
O374 C362 1.254 . S
O375 Dy361 2.339 . S
O375 C362 1.257 . S
C376 C379 1.344 . S
C376 C380 1.328 . S
C376 C382 1.516 . S
C377 C378 1.304 . S
C377 C381 1.323 . S
C378 C377 1.304 . S
C378 C379 1.371 . S
C378 H392 0.930 . S
C379 C376 1.344 . S
C379 C378 1.371 . S
C379 H393 0.931 . S
C380 C376 1.328 . S
C380 C381 1.433 . S
C380 H394 0.931 . S
C381 C377 1.323 . S
C381 C380 1.433 . S
C381 H395 0.933 . S
C382 Dy360 2.738 . S
C382 O365 1.255 . S
C382 O366 1.249 . S
C382 C376 1.516 . S
C383 O367 1.254 . S
C383 O368 1.257 . S
C384 O369 1.266 . S
C384 O370 1.236 . S
C385 C388 1.344 . S
C385 C389 1.328 . S
C385 C391 1.516 . S
C386 C387 1.304 1_554 S
C386 C390 1.325 . S
C387 C386 1.304 1_556 S
C387 C388 1.371 . S
C387 H396 0.930 . S
C388 C385 1.344 . S
C388 C387 1.371 . S
C388 H397 0.931 . S
C389 C385 1.328 . S
C389 C390 1.430 1_556 S
C389 H398 0.931 . S
C390 C386 1.325 . S
C390 C389 1.430 1_554 S
C390 H399 0.935 . S
C391 Dy361 2.738 . S
C391 O371 1.255 . S
C391 O372 1.249 . S
C391 C385 1.516 . S
H392 C378 0.930 . S
H393 C379 0.931 . S
H394 C380 0.931 . S
H395 C381 0.933 . S
H396 C387 0.930 . S
H397 C388 0.931 . S
H398 C389 0.931 . S
H399 C390 0.935 . S
Dy400 O403 2.307 . S
Dy400 O405 2.395 . S
Dy400 O406 2.379 . S
Dy400 O408 2.339 . S
Dy400 O410 2.298 . S
Dy400 O414 2.275 . S
Dy400 C422 2.738 . S
Dy401 O404 2.298 . S
Dy401 O407 2.275 . S
Dy401 O409 2.307 . S
Dy401 O411 2.395 . S
Dy401 O412 2.379 . S
Dy401 O415 2.339 . S
Dy401 C431 2.738 . S
C402 O414 1.254 . S
C402 O415 1.257 . S
O403 Dy400 2.307 . S
O403 C413 1.266 . S
O404 Dy401 2.298 . S
O404 C413 1.236 . S
O405 Dy400 2.395 . S
O405 C422 1.255 . S
O406 Dy400 2.379 . S
O406 C422 1.249 . S
O407 Dy401 2.275 . S
O407 C423 1.254 . S
O408 Dy400 2.339 . S
O408 C423 1.257 . S
O409 Dy401 2.307 . S
O409 C424 1.266 . S
O410 Dy400 2.298 . S
O410 C424 1.236 . S
O411 Dy401 2.395 . S
O411 C431 1.255 . S
O412 Dy401 2.379 . S
O412 C431 1.249 . S
C413 O403 1.266 . S
C413 O404 1.236 . S
O414 Dy400 2.275 . S
O414 C402 1.254 . S
O415 Dy401 2.339 . S
O415 C402 1.257 . S
C416 C419 1.344 . S
C416 C420 1.328 . S
C416 C422 1.516 . S
C417 C418 1.304 . S
C417 C421 1.323 . S
C418 C417 1.304 . S
C418 C419 1.371 . S
C418 H432 0.930 . S
C419 C416 1.344 . S
C419 C418 1.371 . S
C419 H433 0.931 . S
C420 C416 1.328 . S
C420 C421 1.433 . S
C420 H434 0.931 . S
C421 C417 1.323 . S
C421 C420 1.433 . S
C421 H435 0.933 . S
C422 Dy400 2.738 . S
C422 O405 1.255 . S
C422 O406 1.249 . S
C422 C416 1.516 . S
C423 O407 1.254 . S
C423 O408 1.257 . S
C424 O409 1.266 . S
C424 O410 1.236 . S
C425 C428 1.344 . S
C425 C429 1.328 . S
C425 C431 1.516 . S
C426 C427 1.304 . S
C426 C430 1.323 . S
C427 C426 1.304 . S
C427 C428 1.371 . S
C427 H436 0.930 . S
C428 C425 1.344 . S
C428 C427 1.371 . S
C428 H437 0.931 . S
C429 C425 1.328 . S
C429 C430 1.433 . S
C429 H438 0.931 . S
C430 C426 1.323 . S
C430 C429 1.433 . S
C430 H439 0.933 . S
C431 Dy401 2.738 . S
C431 O411 1.255 . S
C431 O412 1.249 . S
C431 C425 1.516 . S
H432 C418 0.930 . S
H433 C419 0.931 . S
H434 C420 0.931 . S
H435 C421 0.933 . S
H436 C427 0.930 . S
H437 C428 0.931 . S
H438 C429 0.931 . S
H439 C430 0.933 . S
Dy440 O443 2.307 . S
Dy440 O445 2.395 1_554 S
Dy440 O446 2.379 1_554 S
Dy440 O448 2.339 . S
Dy440 O450 2.298 . S
Dy440 O454 2.275 . S
Dy440 C462 2.738 1_554 S
Dy441 O444 2.298 . S
Dy441 O447 2.275 . S
Dy441 O449 2.307 . S
Dy441 O451 2.395 . S
Dy441 O452 2.379 . S
Dy441 O455 2.339 . S
Dy441 C471 2.738 . S
C442 O454 1.254 . S
C442 O455 1.257 . S
O443 Dy440 2.307 . S
O443 C453 1.266 . S
O444 Dy441 2.298 . S
O444 C453 1.236 . S
O445 Dy440 2.395 1_556 S
O445 C462 1.255 . S
O446 Dy440 2.379 1_556 S
O446 C462 1.249 . S
O447 Dy441 2.275 . S
O447 C463 1.254 . S
O448 Dy440 2.339 . S
O448 C463 1.257 . S
O449 Dy441 2.307 . S
O449 C464 1.266 . S
O450 Dy440 2.298 . S
O450 C464 1.236 . S
O451 Dy441 2.395 . S
O451 C471 1.255 . S
O452 Dy441 2.379 . S
O452 C471 1.249 . S
C453 O443 1.266 . S
C453 O444 1.236 . S
O454 Dy440 2.275 . S
O454 C442 1.254 . S
O455 Dy441 2.339 . S
O455 C442 1.257 . S
C456 C459 1.344 . S
C456 C460 1.328 . S
C456 C462 1.516 . S
C457 C458 1.304 . S
C457 C461 1.323 . S
C458 C457 1.304 . S
C458 C459 1.371 . S
C458 H472 0.930 . S
C459 C456 1.344 . S
C459 C458 1.371 . S
C459 H473 0.931 . S
C460 C456 1.328 . S
C460 C461 1.433 . S
C460 H474 0.931 . S
C461 C457 1.323 . S
C461 C460 1.433 . S
C461 H475 0.933 . S
C462 Dy440 2.738 1_556 S
C462 O445 1.255 . S
C462 O446 1.249 . S
C462 C456 1.516 . S
C463 O447 1.254 . S
C463 O448 1.257 . S
C464 O449 1.266 . S
C464 O450 1.236 . S
C465 C468 1.344 . S
C465 C469 1.328 . S
C465 C471 1.516 . S
C466 C467 1.304 . S
C466 C470 1.323 . S
C467 C466 1.304 . S
C467 C468 1.371 . S
C467 H476 0.930 . S
C468 C465 1.344 . S
C468 C467 1.371 . S
C468 H477 0.931 . S
C469 C465 1.328 . S
C469 C470 1.433 . S
C469 H478 0.931 . S
C470 C466 1.323 . S
C470 C469 1.433 . S
C470 H479 0.933 . S
C471 Dy441 2.738 . S
C471 O451 1.255 . S
C471 O452 1.249 . S
C471 C465 1.516 . S
H472 C458 0.930 . S
H473 C459 0.931 . S
H474 C460 0.931 . S
H475 C461 0.933 . S
H476 C467 0.930 . S
H477 C468 0.931 . S
H478 C469 0.931 . S
H479 C470 0.933 . S
Dy480 O483 2.307 . S
Dy480 O485 2.395 1_554 S
Dy480 O486 2.379 1_554 S
Dy480 O488 2.339 . S
Dy480 O490 2.298 . S
Dy480 O494 2.275 . S
Dy480 C502 2.738 1_554 S
Dy481 O484 2.298 . S
Dy481 O487 2.275 . S
Dy481 O489 2.307 . S
Dy481 O491 2.395 . S
Dy481 O492 2.379 . S
Dy481 O495 2.339 . S
Dy481 C511 2.738 . S
C482 O494 1.254 . S
C482 O495 1.257 . S
O483 Dy480 2.307 . S
O483 C493 1.266 . S
O484 Dy481 2.298 . S
O484 C493 1.236 . S
O485 Dy480 2.395 1_556 S
O485 C502 1.255 . S
O486 Dy480 2.379 1_556 S
O486 C502 1.249 . S
O487 Dy481 2.275 . S
O487 C503 1.254 . S
O488 Dy480 2.339 . S
O488 C503 1.257 . S
O489 Dy481 2.307 . S
O489 C504 1.266 . S
O490 Dy480 2.298 . S
O490 C504 1.236 . S
O491 Dy481 2.395 . S
O491 C511 1.255 . S
O492 Dy481 2.379 . S
O492 C511 1.249 . S
C493 O483 1.266 . S
C493 O484 1.236 . S
O494 Dy480 2.275 . S
O494 C482 1.254 . S
O495 Dy481 2.339 . S
O495 C482 1.257 . S
C496 C499 1.344 . S
C496 C500 1.328 . S
C496 C502 1.516 . S
C497 C498 1.304 . S
C497 C501 1.323 . S
C498 C497 1.304 . S
C498 C499 1.371 . S
C498 H512 0.930 . S
C499 C496 1.344 . S
C499 C498 1.371 . S
C499 H513 0.931 . S
C500 C496 1.328 . S
C500 C501 1.433 . S
C500 H514 0.931 . S
C501 C497 1.323 . S
C501 C500 1.433 . S
C501 H515 0.933 . S
C502 Dy480 2.738 1_556 S
C502 O485 1.255 . S
C502 O486 1.249 . S
C502 C496 1.516 . S
C503 O487 1.254 . S
C503 O488 1.257 . S
C504 O489 1.266 . S
C504 O490 1.236 . S
C505 C508 1.344 . S
C505 C509 1.328 . S
C505 C511 1.516 . S
C506 C507 1.304 . S
C506 C510 1.323 . S
C507 C506 1.304 . S
C507 C508 1.371 . S
C507 H516 0.930 . S
C508 C505 1.344 . S
C508 C507 1.371 . S
C508 H517 0.931 . S
C509 C505 1.328 . S
C509 C510 1.433 . S
C509 H518 0.931 . S
C510 C506 1.323 . S
C510 C509 1.433 . S
C510 H519 0.933 . S
C511 Dy481 2.738 . S
C511 O491 1.255 . S
C511 O492 1.249 . S
C511 C505 1.516 . S
H512 C498 0.930 . S
H513 C499 0.931 . S
H514 C500 0.931 . S
H515 C501 0.933 . S
H516 C507 0.930 . S
H517 C508 0.931 . S
H518 C509 0.931 . S
H519 C510 0.933 . S
Dy520 O523 2.307 . S
Dy520 O525 2.395 1_556 S
Dy520 O526 2.379 1_556 S
Dy520 O528 2.339 . S
Dy520 O530 2.298 . S
Dy520 O534 2.275 . S
Dy520 C542 2.738 1_556 S
Dy521 O524 2.298 . S
Dy521 O527 2.275 . S
Dy521 O529 2.307 . S
Dy521 O531 2.395 . S
Dy521 O532 2.379 . S
Dy521 O535 2.339 . S
Dy521 C551 2.738 . S
C522 O534 1.254 . S
C522 O535 1.257 . S
O523 Dy520 2.307 . S
O523 C533 1.266 . S
O524 Dy521 2.298 . S
O524 C533 1.236 . S
O525 Dy520 2.395 1_554 S
O525 C542 1.255 . S
O526 Dy520 2.379 1_554 S
O526 C542 1.249 . S
O527 Dy521 2.275 . S
O527 C543 1.254 . S
O528 Dy520 2.339 . S
O528 C543 1.257 . S
O529 Dy521 2.307 . S
O529 C544 1.266 . S
O530 Dy520 2.298 . S
O530 C544 1.236 . S
O531 Dy521 2.395 . S
O531 C551 1.255 . S
O532 Dy521 2.379 . S
O532 C551 1.249 . S
C533 O523 1.266 . S
C533 O524 1.236 . S
O534 Dy520 2.275 . S
O534 C522 1.254 . S
O535 Dy521 2.339 . S
O535 C522 1.257 . S
C536 C539 1.344 . S
C536 C540 1.328 . S
C536 C542 1.516 . S
C537 C538 1.304 . S
C537 C541 1.323 . S
C538 C537 1.304 . S
C538 C539 1.371 . S
C538 H552 0.930 . S
C539 C536 1.344 . S
C539 C538 1.371 . S
C539 H553 0.931 . S
C540 C536 1.328 . S
C540 C541 1.433 . S
C540 H554 0.931 . S
C541 C537 1.323 . S
C541 C540 1.433 . S
C541 H555 0.933 . S
C542 Dy520 2.738 1_554 S
C542 O525 1.255 . S
C542 O526 1.249 . S
C542 C536 1.516 . S
C543 O527 1.254 . S
C543 O528 1.257 . S
C544 O529 1.266 . S
C544 O530 1.236 . S
C545 C548 1.344 . S
C545 C549 1.328 . S
C545 C551 1.516 . S
C546 C547 1.304 . S
C546 C550 1.323 . S
C547 C546 1.304 . S
C547 C548 1.371 . S
C547 H556 0.930 . S
C548 C545 1.344 . S
C548 C547 1.371 . S
C548 H557 0.931 . S
C549 C545 1.328 . S
C549 C550 1.433 . S
C549 H558 0.931 . S
C550 C546 1.323 . S
C550 C549 1.433 . S
C550 H559 0.933 . S
C551 Dy521 2.738 . S
C551 O531 1.255 . S
C551 O532 1.249 . S
C551 C545 1.516 . S
H552 C538 0.930 . S
H553 C539 0.931 . S
H554 C540 0.931 . S
H555 C541 0.933 . S
H556 C547 0.930 . S
H557 C548 0.931 . S
H558 C549 0.931 . S
H559 C550 0.933 . S
Dy560 O563 2.307 . S
Dy560 O565 2.395 . S
Dy560 O566 2.379 . S
Dy560 O568 2.339 . S
Dy560 O570 2.298 . S
Dy560 O574 2.275 . S
Dy560 C582 2.738 . S
Dy561 O564 2.298 . S
Dy561 O567 2.275 . S
Dy561 O569 2.307 . S
Dy561 O571 2.395 . S
Dy561 O572 2.379 . S
Dy561 O575 2.339 . S
Dy561 C591 2.738 . S
C562 O574 1.254 . S
C562 O575 1.257 . S
O563 Dy560 2.307 . S
O563 C573 1.266 . S
O564 Dy561 2.298 . S
O564 C573 1.236 . S
O565 Dy560 2.395 . S
O565 C582 1.255 . S
O566 Dy560 2.379 . S
O566 C582 1.249 . S
O567 Dy561 2.275 . S
O567 C583 1.254 . S
O568 Dy560 2.339 . S
O568 C583 1.257 . S
O569 Dy561 2.307 . S
O569 C584 1.266 . S
O570 Dy560 2.298 . S
O570 C584 1.236 . S
O571 Dy561 2.395 . S
O571 C591 1.255 . S
O572 Dy561 2.379 . S
O572 C591 1.249 . S
C573 O563 1.266 . S
C573 O564 1.236 . S
O574 Dy560 2.275 . S
O574 C562 1.254 . S
O575 Dy561 2.339 . S
O575 C562 1.257 . S
C576 C579 1.344 . S
C576 C580 1.328 . S
C576 C582 1.516 . S
C577 C578 1.304 . S
C577 C581 1.323 . S
C578 C577 1.304 . S
C578 C579 1.371 . S
C578 H592 0.930 . S
C579 C576 1.344 . S
C579 C578 1.371 . S
C579 H593 0.931 . S
C580 C576 1.328 . S
C580 C581 1.433 . S
C580 H594 0.931 . S
C581 C577 1.323 . S
C581 C580 1.433 . S
C581 H595 0.933 . S
C582 Dy560 2.738 . S
C582 O565 1.255 . S
C582 O566 1.249 . S
C582 C576 1.516 . S
C583 O567 1.254 . S
C583 O568 1.257 . S
C584 O569 1.266 . S
C584 O570 1.236 . S
C585 C588 1.344 . S
C585 C589 1.328 . S
C585 C591 1.516 . S
C586 C587 1.304 . S
C586 C590 1.323 . S
C587 C586 1.304 . S
C587 C588 1.371 1_554 S
C587 H596 0.930 . S
C588 C585 1.344 . S
C588 C587 1.371 1_556 S
C588 H597 0.931 . S
C589 C585 1.328 . S
C589 C590 1.433 1_556 S
C589 H598 0.931 . S
C590 C586 1.323 . S
C590 C589 1.433 1_554 S
C590 H599 0.933 . S
C591 Dy561 2.738 . S
C591 O571 1.255 . S
C591 O572 1.249 . S
C591 C585 1.516 . S
H592 C578 0.930 . S
H593 C579 0.931 . S
H594 C580 0.931 . S
H595 C581 0.933 . S
H596 C587 0.930 . S
H597 C588 0.931 . S
H598 C589 0.931 . S
H599 C590 0.933 . S
Dy600 O603 2.307 . S
Dy600 O605 2.395 . S
Dy600 O606 2.379 . S
Dy600 O608 2.339 . S
Dy600 O610 2.298 . S
Dy600 O614 2.275 . S
Dy600 C622 2.738 . S
Dy601 O604 2.298 . S
Dy601 O607 2.275 . S
Dy601 O609 2.307 . S
Dy601 O611 2.395 . S
Dy601 O612 2.379 . S
Dy601 O615 2.339 . S
Dy601 C631 2.738 . S
C602 O614 1.254 . S
C602 O615 1.257 . S
O603 Dy600 2.307 . S
O603 C613 1.266 . S
O604 Dy601 2.298 . S
O604 C613 1.236 . S
O605 Dy600 2.395 . S
O605 C622 1.255 . S
O606 Dy600 2.379 . S
O606 C622 1.249 . S
O607 Dy601 2.275 . S
O607 C623 1.254 . S
O608 Dy600 2.339 . S
O608 C623 1.257 . S
O609 Dy601 2.307 . S
O609 C624 1.266 . S
O610 Dy600 2.298 . S
O610 C624 1.236 . S
O611 Dy601 2.395 . S
O611 C631 1.255 . S
O612 Dy601 2.379 . S
O612 C631 1.249 . S
C613 O603 1.266 . S
C613 O604 1.236 . S
O614 Dy600 2.275 . S
O614 C602 1.254 . S
O615 Dy601 2.339 . S
O615 C602 1.257 . S
C616 C619 1.344 . S
C616 C620 1.328 . S
C616 C622 1.516 . S
C617 C618 1.304 . S
C617 C621 1.323 . S
C618 C617 1.304 . S
C618 C619 1.371 . S
C618 H632 0.930 . S
C619 C616 1.344 . S
C619 C618 1.371 . S
C619 H633 0.931 . S
C620 C616 1.328 . S
C620 C621 1.433 . S
C620 H634 0.931 . S
C621 C617 1.323 . S
C621 C620 1.433 . S
C621 H635 0.933 . S
C622 Dy600 2.738 . S
C622 O605 1.255 . S
C622 O606 1.249 . S
C622 C616 1.516 . S
C623 O607 1.254 . S
C623 O608 1.257 . S
C624 O609 1.266 . S
C624 O610 1.236 . S
C625 C628 1.344 . S
C625 C629 1.328 . S
C625 C631 1.516 . S
C626 C627 1.304 . S
C626 C630 1.323 . S
C627 C626 1.304 . S
C627 C628 1.371 . S
C627 H636 0.930 . S
C628 C625 1.344 . S
C628 C627 1.371 . S
C628 H637 0.931 . S
C629 C625 1.328 . S
C629 C630 1.433 . S
C629 H638 0.931 . S
C630 C626 1.323 . S
C630 C629 1.433 . S
C630 H639 0.933 . S
C631 Dy601 2.738 . S
C631 O611 1.255 . S
C631 O612 1.249 . S
C631 C625 1.516 . S
H632 C618 0.930 . S
H633 C619 0.931 . S
H634 C620 0.931 . S
H635 C621 0.933 . S
H636 C627 0.930 . S
H637 C628 0.931 . S
H638 C629 0.931 . S
H639 C630 0.933 . S
C640 C641 1.387 . S
C640 H644 0.950 . S
C640 C649 1.390 . S
C641 C640 1.387 . S
C641 C643 1.387 . S
H642 C649 0.950 . S
C643 C641 1.387 . S
C643 C645 1.390 . S
C643 H647 0.950 . S
H644 C640 0.950 . S
C645 C643 1.390 . S
C645 C646 1.387 . S
C645 H648 0.950 . S
C646 C645 1.387 . S
C646 C649 1.387 . S
H647 C643 0.950 . S
H648 C645 0.950 . S
C649 C640 1.390 . S
C649 H642 0.950 . S
C649 C646 1.387 . S
C650 C651 1.387 . S
C650 H654 0.950 . S
C650 C659 1.390 . S
C651 C650 1.387 . S
C651 C653 1.387 . S
H652 C659 0.950 . S
C653 C651 1.387 . S
C653 C655 1.390 . S
C653 H657 0.950 . S
H654 C650 0.950 . S
C655 C653 1.390 . S
C655 C656 1.387 . S
C655 H658 0.950 . S
C656 C655 1.387 . S
C656 C659 1.387 . S
H657 C653 0.950 . S
H658 C655 0.950 . S
C659 C650 1.390 . S
C659 H652 0.950 . S
C659 C656 1.387 . S
C660 C661 1.387 . S
C660 H664 0.950 . S
C660 C669 1.390 . S
C661 C660 1.387 . S
C661 C663 1.387 . S
H662 C669 0.950 . S
C663 C661 1.387 . S
C663 C665 1.390 . S
C663 H667 0.950 . S
H664 C660 0.950 . S
C665 C663 1.390 . S
C665 C666 1.387 . S
C665 H668 0.950 . S
C666 C665 1.387 . S
C666 C669 1.387 . S
H667 C663 0.950 . S
H668 C665 0.950 . S
C669 C660 1.390 . S
C669 H662 0.950 . S
C669 C666 1.387 . S
C670 C671 1.387 . S
C670 H674 0.950 . S
C670 C679 1.390 . S
C671 C670 1.387 . S
C671 C673 1.387 . S
H672 C679 0.950 . S
C673 C671 1.387 . S
C673 C675 1.390 . S
C673 H677 0.950 . S
H674 C670 0.950 . S
C675 C673 1.390 . S
C675 C676 1.387 . S
C675 H678 0.950 . S
C676 C675 1.387 . S
C676 C679 1.387 . S
H677 C673 0.950 . S
H678 C675 0.950 . S
C679 C670 1.390 . S
C679 H672 0.950 . S
C679 C676 1.387 . S
C680 C681 1.387 . S
C680 H684 0.950 . S
C680 C689 1.390 . S
C681 C680 1.387 . S
C681 C683 1.387 . S
H682 C689 0.950 . S
C683 C681 1.387 . S
C683 C685 1.390 . S
C683 H687 0.950 . S
H684 C680 0.950 . S
C685 C683 1.390 . S
C685 C686 1.387 . S
C685 H688 0.950 . S
C686 C685 1.387 . S
C686 C689 1.387 . S
H687 C683 0.950 . S
H688 C685 0.950 . S
C689 C680 1.390 . S
C689 H682 0.950 . S
C689 C686 1.387 . S
C690 C691 1.387 . S
C690 H694 0.950 . S
C690 C699 1.390 . S
C691 C690 1.387 . S
C691 C693 1.387 . S
H692 C699 0.950 . S
C693 C691 1.387 . S
C693 C695 1.390 . S
C693 H697 0.950 . S
H694 C690 0.950 . S
C695 C693 1.390 . S
C695 C696 1.387 . S
C695 H698 0.950 . S
C696 C695 1.387 . S
C696 C699 1.387 . S
H697 C693 0.950 . S
H698 C695 0.950 . S
C699 C690 1.390 . S
C699 H692 0.950 . S
C699 C696 1.387 . S
C700 C701 1.387 . S
C700 H704 0.950 . S
C700 C709 1.390 . S
C701 C700 1.387 . S
C701 C703 1.387 . S
H702 C709 0.950 . S
C703 C701 1.387 . S
C703 C705 1.390 . S
C703 H707 0.950 . S
H704 C700 0.950 . S
C705 C703 1.390 . S
C705 C706 1.387 . S
C705 H708 0.950 . S
C706 C705 1.387 . S
C706 C709 1.387 . S
H707 C703 0.950 . S
H708 C705 0.950 . S
C709 C700 1.390 . S
C709 H702 0.950 . S
C709 C706 1.387 . S
C710 C711 1.387 . S
C710 H714 0.950 . S
C710 C719 1.390 . S
C711 C710 1.387 . S
C711 C713 1.387 . S
H712 C719 0.950 . S
C713 C711 1.387 . S
C713 C715 1.390 . S
C713 H717 0.950 . S
H714 C710 0.950 . S
C715 C713 1.390 . S
C715 C716 1.387 . S
C715 H718 0.950 . S
C716 C715 1.387 . S
C716 C719 1.387 . S
H717 C713 0.950 . S
H718 C715 0.950 . S
C719 C710 1.390 . S
C719 H712 0.950 . S
C719 C716 1.387 . S
C720 C721 1.387 . S
C720 H724 0.950 . S
C720 C729 1.390 . S
C721 C720 1.387 . S
C721 C723 1.387 . S
H722 C729 0.950 . S
C723 C721 1.387 . S
C723 C725 1.390 . S
C723 H727 0.950 . S
H724 C720 0.950 . S
C725 C723 1.390 . S
C725 C726 1.387 . S
C725 H728 0.950 . S
C726 C725 1.387 . S
C726 C729 1.387 . S
H727 C723 0.950 . S
H728 C725 0.950 . S
C729 C720 1.390 . S
C729 H722 0.950 . S
C729 C726 1.387 . S
C730 C731 1.387 . S
C730 H734 0.950 . S
C730 C739 1.390 . S
C731 C730 1.387 . S
C731 C733 1.387 . S
H732 C739 0.950 . S
C733 C731 1.387 . S
C733 C735 1.390 . S
C733 H737 0.950 . S
H734 C730 0.950 . S
C735 C733 1.390 . S
C735 C736 1.387 . S
C735 H738 0.950 . S
C736 C735 1.387 . S
C736 C739 1.387 . S
H737 C733 0.950 . S
H738 C735 0.950 . S
C739 C730 1.390 . S
C739 H732 0.950 . S
C739 C736 1.387 . S
C740 C741 1.387 . S
C740 H744 0.950 . S
C740 C749 1.390 . S
C741 C740 1.387 . S
C741 C743 1.387 . S
H742 C749 0.950 . S
C743 C741 1.387 . S
C743 C745 1.390 . S
C743 H747 0.950 . S
H744 C740 0.950 . S
C745 C743 1.390 . S
C745 C746 1.387 . S
C745 H748 0.950 . S
C746 C745 1.387 . S
C746 C749 1.387 . S
H747 C743 0.950 . S
H748 C745 0.950 . S
C749 C740 1.390 . S
C749 H742 0.950 . S
C749 C746 1.387 . S
C750 C751 1.387 . S
C750 H754 0.950 . S
C750 C759 1.390 . S
C751 C750 1.387 . S
C751 C753 1.387 . S
H752 C759 0.950 . S
C753 C751 1.387 . S
C753 C755 1.390 . S
C753 H757 0.950 . S
H754 C750 0.950 . S
C755 C753 1.390 . S
C755 C756 1.387 . S
C755 H758 0.950 . S
C756 C755 1.387 . S
C756 C759 1.387 . S
H757 C753 0.950 . S
H758 C755 0.950 . S
C759 C750 1.390 . S
C759 H752 0.950 . S
C759 C756 1.387 . S
C760 C761 1.387 . S
C760 H764 0.950 . S
C760 C769 1.390 . S
C761 C760 1.387 . S
C761 C763 1.387 . S
H762 C769 0.950 . S
C763 C761 1.387 . S
C763 C765 1.390 . S
C763 H767 0.950 . S
H764 C760 0.950 . S
C765 C763 1.390 . S
C765 C766 1.387 . S
C765 H768 0.950 . S
C766 C765 1.387 . S
C766 C769 1.387 . S
H767 C763 0.950 . S
H768 C765 0.950 . S
C769 C760 1.390 . S
C769 H762 0.950 . S
C769 C766 1.387 . S
C770 C771 1.387 . S
C770 H774 0.950 . S
C770 C779 1.390 . S
C771 C770 1.387 . S
C771 C773 1.387 . S
H772 C779 0.950 . S
C773 C771 1.387 . S
C773 C775 1.390 . S
C773 H777 0.950 . S
H774 C770 0.950 . S
C775 C773 1.390 . S
C775 C776 1.387 . S
C775 H778 0.950 . S
C776 C775 1.387 . S
C776 C779 1.387 . S
H777 C773 0.950 . S
H778 C775 0.950 . S
C779 C770 1.390 . S
C779 H772 0.950 . S
C779 C776 1.387 . S
C780 C781 1.387 . S
C780 H784 0.950 . S
C780 C789 1.390 . S
C781 C780 1.387 . S
C781 C783 1.387 . S
H782 C789 0.950 . S
C783 C781 1.387 . S
C783 C785 1.390 . S
C783 H787 0.950 . S
H784 C780 0.950 . S
C785 C783 1.390 . S
C785 C786 1.387 . S
C785 H788 0.950 . S
C786 C785 1.387 . S
C786 C789 1.387 . S
H787 C783 0.950 . S
H788 C785 0.950 . S
C789 C780 1.390 . S
C789 H782 0.950 . S
C789 C786 1.387 . S
C790 C791 1.387 . S
C790 H794 0.950 . S
C790 C799 1.390 . S
C791 C790 1.387 . S
C791 C793 1.387 . S
H792 C799 0.950 . S
C793 C791 1.387 . S
C793 C795 1.390 . S
C793 H797 0.950 . S
H794 C790 0.950 . S
C795 C793 1.390 . S
C795 C796 1.387 . S
C795 H798 0.950 . S
C796 C795 1.387 . S
C796 C799 1.387 . S
H797 C793 0.950 . S
H798 C795 0.950 . S
C799 C790 1.390 . S
C799 H792 0.950 . S
C799 C796 1.387 . S
C800 C801 1.387 . S
C800 H804 0.950 . S
C800 C809 1.390 . S
C801 C800 1.387 . S
C801 C803 1.387 . S
H802 C809 0.950 . S
C803 C801 1.387 . S
C803 C805 1.390 . S
C803 H807 0.950 . S
H804 C800 0.950 . S
C805 C803 1.390 . S
C805 C806 1.387 . S
C805 H808 0.950 . S
C806 C805 1.387 . S
C806 C809 1.387 . S
H807 C803 0.950 . S
H808 C805 0.950 . S
C809 C800 1.390 . S
C809 H802 0.950 . S
C809 C806 1.387 . S
C810 C811 1.387 . S
C810 H814 0.950 . S
C810 C819 1.390 . S
C811 C810 1.387 . S
C811 C813 1.387 . S
H812 C819 0.950 . S
C813 C811 1.387 . S
C813 C815 1.390 . S
C813 H817 0.950 . S
H814 C810 0.950 . S
C815 C813 1.390 . S
C815 C816 1.387 . S
C815 H818 0.950 . S
C816 C815 1.387 . S
C816 C819 1.387 . S
H817 C813 0.950 . S
H818 C815 0.950 . S
C819 C810 1.390 . S
C819 H812 0.950 . S
C819 C816 1.387 . S
C820 C821 1.387 . S
C820 H824 0.950 . S
C820 C829 1.390 . S
C821 C820 1.387 . S
C821 C823 1.387 . S
H822 C829 0.950 . S
C823 C821 1.387 . S
C823 C825 1.390 . S
C823 H827 0.950 . S
H824 C820 0.950 . S
C825 C823 1.390 . S
C825 C826 1.387 . S
C825 H828 0.950 . S
C826 C825 1.387 . S
C826 C829 1.387 . S
H827 C823 0.950 . S
H828 C825 0.950 . S
C829 C820 1.390 . S
C829 H822 0.950 . S
C829 C826 1.387 . S
C830 C831 1.387 . S
C830 H834 0.950 1_556 S
C830 C839 1.390 1_656 S
C831 C830 1.387 . S
C831 C833 1.387 . S
H832 C839 0.950 . S
C833 C831 1.387 . S
C833 C835 1.390 1_655 S
C833 H837 0.950 . S
H834 C830 0.950 1_554 S
C835 C833 1.390 1_455 S
C835 C836 1.387 . S
C835 H838 0.950 . S
C836 C835 1.387 . S
C836 C839 1.387 1_556 S
H837 C833 0.950 . S
H838 C835 0.950 . S
C839 C830 1.390 1_454 S
C839 H832 0.950 . S
C839 C836 1.387 1_554 S
C840 C841 1.387 . S
C840 H844 0.950 . S
C840 C849 1.390 . S
C841 C840 1.387 . S
C841 C843 1.387 . S
H842 C849 0.950 . S
C843 C841 1.387 . S
C843 C845 1.390 . S
C843 H847 0.950 . S
H844 C840 0.950 . S
C845 C843 1.390 . S
C845 C846 1.387 . S
C845 H848 0.950 . S
C846 C845 1.387 . S
C846 C849 1.387 . S
H847 C843 0.950 . S
H848 C845 0.950 . S
C849 C840 1.390 . S
C849 H842 0.950 . S
C849 C846 1.387 . S
C850 C851 1.387 . S
C850 H854 0.950 1_554 S
C850 C859 1.390 1_455 S
C851 C850 1.387 . S
C851 C853 1.387 . S
H852 C859 0.950 1_556 S
C853 C851 1.387 . S
C853 C855 1.390 1_455 S
C853 H857 0.950 . S
H854 C850 0.950 1_556 S
C855 C853 1.390 1_655 S
C855 C856 1.387 . S
C855 H858 0.950 . S
C856 C855 1.387 . S
C856 C859 1.387 . S
H857 C853 0.950 . S
H858 C855 0.950 . S
C859 C850 1.390 1_655 S
C859 H852 0.950 1_554 S
C859 C856 1.387 . S
C860 C861 1.387 . S
C860 H864 0.950 . S
C860 C869 1.390 . S
C861 C860 1.387 . S
C861 C863 1.387 . S
H862 C869 0.950 . S
C863 C861 1.387 . S
C863 C865 1.390 . S
C863 H867 0.950 . S
H864 C860 0.950 . S
C865 C863 1.390 . S
C865 C866 1.387 . S
C865 H868 0.950 . S
C866 C865 1.387 . S
C866 C869 1.387 . S
H867 C863 0.950 . S
H868 C865 0.950 . S
C869 C860 1.390 . S
C869 H862 0.950 . S
C869 C866 1.387 . S
C870 C871 1.387 . S
C870 H874 0.950 . S
C870 C879 1.390 . S
C871 C870 1.387 . S
C871 C873 1.387 . S
H872 C879 0.950 . S
C873 C871 1.387 . S
C873 C875 1.390 . S
C873 H877 0.950 . S
H874 C870 0.950 . S
C875 C873 1.390 . S
C875 C876 1.387 . S
C875 H878 0.950 . S
C876 C875 1.387 . S
C876 C879 1.387 . S
H877 C873 0.950 . S
H878 C875 0.950 . S
C879 C870 1.390 . S
C879 H872 0.950 . S
C879 C876 1.387 . S
C880 C881 1.387 . S
C880 H884 0.950 . S
C880 C889 1.390 . S
C881 C880 1.387 . S
C881 C883 1.387 . S
H882 C889 0.950 . S
C883 C881 1.387 . S
C883 C885 1.390 . S
C883 H887 0.950 . S
H884 C880 0.950 . S
C885 C883 1.390 . S
C885 C886 1.387 . S
C885 H888 0.950 . S
C886 C885 1.387 . S
C886 C889 1.387 . S
H887 C883 0.950 . S
H888 C885 0.950 . S
C889 C880 1.390 . S
C889 H882 0.950 . S
C889 C886 1.387 . S
C890 C891 1.387 . S
C890 H894 0.950 . S
C890 C899 1.390 . S
C891 C890 1.387 . S
C891 C893 1.387 . S
H892 C899 0.950 . S
C893 C891 1.387 . S
C893 C895 1.390 . S
C893 H897 0.950 . S
H894 C890 0.950 . S
C895 C893 1.390 . S
C895 C896 1.387 . S
C895 H898 0.950 . S
C896 C895 1.387 . S
C896 C899 1.387 . S
H897 C893 0.950 . S
H898 C895 0.950 . S
C899 C890 1.390 . S
C899 H892 0.950 . S
C899 C896 1.387 . S
C900 C901 1.387 . S
C900 H904 0.950 . S
C900 C909 1.390 . S
C901 C900 1.387 . S
C901 C903 1.387 . S
H902 C909 0.950 . S
C903 C901 1.387 . S
C903 C905 1.390 . S
C903 H907 0.950 . S
H904 C900 0.950 . S
C905 C903 1.390 . S
C905 C906 1.387 . S
C905 H908 0.950 . S
C906 C905 1.387 . S
C906 C909 1.387 . S
H907 C903 0.950 . S
H908 C905 0.950 . S
C909 C900 1.390 . S
C909 H902 0.950 . S
C909 C906 1.387 . S
C910 C911 1.387 . S
C910 H914 0.950 . S
C910 C919 1.390 . S
C911 C910 1.387 . S
C911 C913 1.387 . S
H912 C919 0.950 . S
C913 C911 1.387 . S
C913 C915 1.390 . S
C913 H917 0.950 . S
H914 C910 0.950 . S
C915 C913 1.390 . S
C915 C916 1.387 . S
C915 H918 0.950 . S
C916 C915 1.387 . S
C916 C919 1.387 . S
H917 C913 0.950 . S
H918 C915 0.950 . S
C919 C910 1.390 . S
C919 H912 0.950 . S
C919 C916 1.387 . S
C920 C921 1.387 . S
C920 H924 0.950 1_556 S
C920 C929 1.390 1_655 S
C921 C920 1.387 . S
C921 C923 1.387 . S
H922 C929 0.950 . S
C923 C921 1.387 . S
C923 C925 1.390 1_655 S
C923 H927 0.950 . S
H924 C920 0.950 1_554 S
C925 C923 1.390 1_455 S
C925 C926 1.387 . S
C925 H928 0.950 . S
C926 C925 1.387 . S
C926 C929 1.387 . S
H927 C923 0.950 . S
H928 C925 0.950 . S
C929 C920 1.390 1_455 S
C929 H922 0.950 . S
C929 C926 1.387 . S
C930 C931 1.387 . S
C930 H934 0.950 . S
C930 C939 1.390 . S
C931 C930 1.387 . S
C931 C933 1.387 . S
H932 C939 0.950 . S
C933 C931 1.387 . S
C933 C935 1.390 . S
C933 H937 0.950 . S
H934 C930 0.950 . S
C935 C933 1.390 . S
C935 C936 1.387 . S
C935 H938 0.950 . S
C936 C935 1.387 . S
C936 C939 1.387 . S
H937 C933 0.950 . S
H938 C935 0.950 . S
C939 C930 1.390 . S
C939 H932 0.950 . S
C939 C936 1.387 . S
C940 C941 1.387 . S
C940 H944 0.950 . S
C940 C949 1.390 . S
C941 C940 1.387 . S
C941 C943 1.387 . S
H942 C949 0.950 . S
C943 C941 1.387 . S
C943 C945 1.390 . S
C943 H947 0.950 . S
H944 C940 0.950 . S
C945 C943 1.390 . S
C945 C946 1.387 . S
C945 H948 0.950 . S
C946 C945 1.387 . S
C946 C949 1.387 . S
H947 C943 0.950 . S
H948 C945 0.950 . S
C949 C940 1.390 . S
C949 H942 0.950 . S
C949 C946 1.387 . S
C950 C951 1.387 . S
C950 H954 0.950 . S
C950 C959 1.390 1_455 S
C951 C950 1.387 . S
C951 C953 1.387 . S
H952 C959 0.950 . S
C953 C951 1.387 . S
C953 C955 1.390 1_455 S
C953 H957 0.950 . S
H954 C950 0.950 . S
C955 C953 1.390 1_655 S
C955 C956 1.387 . S
C955 H958 0.950 . S
C956 C955 1.387 . S
C956 C959 1.387 . S
H957 C953 0.950 . S
H958 C955 0.950 . S
C959 C950 1.390 1_655 S
C959 H952 0.950 . S
C959 C956 1.387 . S
C960 C961 1.387 1_554 S
C960 H964 0.950 . S
C960 C969 1.390 1_554 S
C961 C960 1.387 1_556 S
C961 C963 1.387 . S
H962 C969 0.950 . S
C963 C961 1.387 . S
C963 C965 1.390 . S
C963 H967 0.950 . S
H964 C960 0.950 . S
C965 C963 1.390 . S
C965 C966 1.387 . S
C965 H968 0.950 . S
C966 C965 1.387 . S
C966 C969 1.387 . S
H967 C963 0.950 . S
H968 C965 0.950 . S
C969 C960 1.390 1_556 S
C969 H962 0.950 . S
C969 C966 1.387 . S
C970 C971 1.387 . S
C970 H974 0.950 . S
C970 C979 1.390 . S
C971 C970 1.387 . S
C971 C973 1.387 . S
H972 C979 0.950 . S
C973 C971 1.387 . S
C973 C975 1.390 . S
C973 H977 0.950 . S
H974 C970 0.950 . S
C975 C973 1.390 . S
C975 C976 1.387 . S
C975 H978 0.950 . S
C976 C975 1.387 . S
C976 C979 1.387 . S
H977 C973 0.950 . S
H978 C975 0.950 . S
C979 C970 1.390 . S
C979 H972 0.950 . S
C979 C976 1.387 . S
C980 C981 1.387 . S
C980 H984 0.950 . S
C980 C989 1.390 . S
C981 C980 1.387 . S
C981 C983 1.387 . S
H982 C989 0.950 . S
C983 C981 1.387 . S
C983 C985 1.390 . S
C983 H987 0.950 . S
H984 C980 0.950 . S
C985 C983 1.390 . S
C985 C986 1.387 . S
C985 H988 0.950 . S
C986 C985 1.387 . S
C986 C989 1.387 . S
H987 C983 0.950 . S
H988 C985 0.950 . S
C989 C980 1.390 . S
C989 H982 0.950 . S
C989 C986 1.387 . S
C990 C991 1.387 . S
C990 H994 0.950 . S
C990 C999 1.390 . S
C991 C990 1.387 . S
C991 C993 1.387 . S
H992 C999 0.950 . S
C993 C991 1.387 . S
C993 C995 1.390 . S
C993 H997 0.950 . S
H994 C990 0.950 . S
C995 C993 1.390 . S
C995 C996 1.387 . S
C995 H998 0.950 . S
C996 C995 1.387 . S
C996 C999 1.387 . S
H997 C993 0.950 . S
H998 C995 0.950 . S
C999 C990 1.390 . S
C999 H992 0.950 . S
C999 C996 1.387 . S
C1000 C1001 1.387 . S
C1000 H1004 0.950 . S
C1000 C1009 1.390 . S
C1001 C1000 1.387 . S
C1001 C1003 1.387 . S
H1002 C1009 0.950 . S
C1003 C1001 1.387 . S
C1003 C1005 1.390 . S
C1003 H1007 0.950 . S
H1004 C1000 0.950 . S
C1005 C1003 1.390 . S
C1005 C1006 1.387 . S
C1005 H1008 0.950 . S
C1006 C1005 1.387 . S
C1006 C1009 1.387 . S
H1007 C1003 0.950 . S
H1008 C1005 0.950 . S
C1009 C1000 1.390 . S
C1009 H1002 0.950 . S
C1009 C1006 1.387 . S
C1010 C1011 1.387 . S
C1010 H1014 0.950 . S
C1010 C1019 1.390 . S
C1011 C1010 1.387 . S
C1011 C1013 1.387 . S
H1012 C1019 0.950 . S
C1013 C1011 1.387 . S
C1013 C1015 1.390 . S
C1013 H1017 0.950 . S
H1014 C1010 0.950 . S
C1015 C1013 1.390 . S
C1015 C1016 1.387 . S
C1015 H1018 0.950 . S
C1016 C1015 1.387 . S
C1016 C1019 1.387 . S
H1017 C1013 0.950 . S
H1018 C1015 0.950 . S
C1019 C1010 1.390 . S
C1019 H1012 0.950 . S
C1019 C1016 1.387 . S
C1020 C1021 1.387 . S
C1020 H1024 0.950 . S
C1020 C1029 1.390 . S
C1021 C1020 1.387 . S
C1021 C1023 1.387 . S
H1022 C1029 0.950 . S
C1023 C1021 1.387 . S
C1023 C1025 1.390 . S
C1023 H1027 0.950 . S
H1024 C1020 0.950 . S
C1025 C1023 1.390 . S
C1025 C1026 1.387 . S
C1025 H1028 0.950 . S
C1026 C1025 1.387 . S
C1026 C1029 1.387 . S
H1027 C1023 0.950 . S
H1028 C1025 0.950 . S
C1029 C1020 1.390 . S
C1029 H1022 0.950 . S
C1029 C1026 1.387 . S
C1030 C1031 1.387 . S
C1030 H1034 0.950 . S
C1030 C1039 1.390 . S
C1031 C1030 1.387 . S
C1031 C1033 1.387 . S
H1032 C1039 0.950 . S
C1033 C1031 1.387 . S
C1033 C1035 1.390 . S
C1033 H1037 0.950 . S
H1034 C1030 0.950 . S
C1035 C1033 1.390 . S
C1035 C1036 1.387 . S
C1035 H1038 0.950 . S
C1036 C1035 1.387 . S
C1036 C1039 1.387 . S
H1037 C1033 0.950 . S
H1038 C1035 0.950 . S
C1039 C1030 1.390 . S
C1039 H1032 0.950 . S
C1039 C1036 1.387 . S
C1040 C1041 1.387 . S
C1040 H1044 0.950 . S
C1040 C1049 1.390 1_565 S
C1041 C1040 1.387 . S
C1041 C1043 1.387 . S
H1042 C1049 0.950 . S
C1043 C1041 1.387 . S
C1043 C1045 1.390 1_565 S
C1043 H1047 0.950 . S
H1044 C1040 0.950 . S
C1045 C1043 1.390 1_545 S
C1045 C1046 1.387 . S
C1045 H1048 0.950 . S
C1046 C1045 1.387 . S
C1046 C1049 1.387 . S
H1047 C1043 0.950 . S
H1048 C1045 0.950 . S
C1049 C1040 1.390 1_545 S
C1049 H1042 0.950 . S
C1049 C1046 1.387 . S
C1050 C1051 1.387 . S
C1050 H1054 0.950 . S
C1050 C1059 1.390 . S
C1051 C1050 1.387 . S
C1051 C1053 1.387 . S
H1052 C1059 0.950 . S
C1053 C1051 1.387 . S
C1053 C1055 1.390 . S
C1053 H1057 0.950 . S
H1054 C1050 0.950 . S
C1055 C1053 1.390 . S
C1055 C1056 1.387 . S
C1055 H1058 0.950 . S
C1056 C1055 1.387 . S
C1056 C1059 1.387 . S
H1057 C1053 0.950 . S
H1058 C1055 0.950 . S
C1059 C1050 1.390 . S
C1059 H1052 0.950 . S
C1059 C1056 1.387 . S
C1060 C1061 1.387 1_556 S
C1060 H1064 0.946 1_556 S
C1060 C1069 1.390 1_565 S
C1061 C1060 1.387 1_554 S
C1061 C1063 1.387 . S
H1062 C1069 0.950 . S
C1063 C1061 1.387 . S
C1063 C1065 1.390 1_564 S
C1063 H1067 0.950 . S
H1064 C1060 0.946 1_554 S
C1065 C1063 1.390 1_546 S
C1065 C1066 1.387 . S
C1065 H1068 0.950 . S
C1066 C1065 1.387 . S
C1066 C1069 1.387 . S
H1067 C1063 0.950 . S
H1068 C1065 0.950 . S
C1069 C1060 1.390 1_545 S
C1069 H1062 0.950 . S
C1069 C1066 1.387 . S
C1070 C1071 1.387 . S
C1070 H1074 0.950 . S
C1070 C1079 1.390 . S
C1071 C1070 1.387 . S
C1071 C1073 1.387 . S
H1072 C1079 0.950 . S
C1073 C1071 1.387 . S
C1073 C1075 1.390 . S
C1073 H1077 0.950 . S
H1074 C1070 0.950 . S
C1075 C1073 1.390 . S
C1075 C1076 1.387 . S
C1075 H1078 0.950 . S
C1076 C1075 1.387 . S
C1076 C1079 1.387 . S
H1077 C1073 0.950 . S
H1078 C1075 0.950 . S
C1079 C1070 1.390 . S
C1079 H1072 0.950 . S
C1079 C1076 1.387 . S
C1080 C1081 1.387 . S
C1080 H1084 0.950 . S
C1080 C1089 1.390 1_565 S
C1081 C1080 1.387 . S
C1081 C1083 1.387 . S
H1082 C1089 0.950 . S
C1083 C1081 1.387 . S
C1083 C1085 1.390 . S
C1083 H1087 0.950 . S
H1084 C1080 0.950 . S
C1085 C1083 1.390 . S
C1085 C1086 1.387 1_565 S
C1085 H1088 0.950 . S
C1086 C1085 1.387 1_545 S
C1086 C1089 1.387 . S
H1087 C1083 0.950 . S
H1088 C1085 0.950 . S
C1089 C1080 1.390 1_545 S
C1089 H1082 0.950 . S
C1089 C1086 1.387 . S
C1090 C1091 1.387 . S
C1090 H1094 0.950 . S
C1090 C1099 1.390 . S
C1091 C1090 1.387 . S
C1091 C1093 1.387 . S
H1092 C1099 0.950 . S
C1093 C1091 1.387 . S
C1093 C1095 1.390 . S
C1093 H1097 0.950 . S
H1094 C1090 0.950 . S
C1095 C1093 1.390 . S
C1095 C1096 1.387 . S
C1095 H1098 0.950 . S
C1096 C1095 1.387 . S
C1096 C1099 1.387 . S
H1097 C1093 0.950 . S
H1098 C1095 0.950 . S
C1099 C1090 1.390 . S
C1099 H1092 0.950 . S
C1099 C1096 1.387 . S
C1100 C1101 1.387 1_554 S
C1100 H1104 0.950 . S
C1100 C1109 1.376 1_545 S
C1101 C1100 1.387 1_556 S
C1101 C1103 1.387 . S
H1102 C1109 0.952 . S
C1103 C1101 1.387 . S
C1103 C1105 1.390 1_546 S
C1103 H1107 0.950 . S
H1104 C1100 0.950 . S
C1105 C1103 1.390 1_564 S
C1105 C1106 1.387 . S
C1105 H1108 0.950 . S
C1106 C1105 1.387 . S
C1106 C1109 1.400 . S
H1107 C1103 0.950 . S
H1108 C1105 0.950 . S
C1109 C1100 1.376 1_565 S
C1109 H1102 0.952 . S
C1109 C1106 1.400 . S
C1110 C1111 1.387 . S
C1110 H1114 0.950 . S
C1110 C1119 1.390 . S
C1111 C1110 1.387 . S
C1111 C1113 1.387 . S
H1112 C1119 0.950 . S
C1113 C1111 1.387 . S
C1113 C1115 1.390 . S
C1113 H1117 0.950 . S
H1114 C1110 0.950 . S
C1115 C1113 1.390 . S
C1115 C1116 1.387 . S
C1115 H1118 0.950 . S
C1116 C1115 1.387 . S
C1116 C1119 1.387 . S
H1117 C1113 0.950 . S
H1118 C1115 0.950 . S
C1119 C1110 1.390 . S
C1119 H1112 0.950 . S
C1119 C1116 1.387 . S
C641 C17 1.512 . S
C646 C26 1.512 . S
C651 C57 1.450 . S
C656 C66 1.450 . S
C661 C97 1.590 . S
C666 C106 1.590 1_554 S
C671 C137 1.553 . S
C676 C146 1.553 . S
C681 C186 1.406 . S
C686 C177 1.406 . S
C691 C226 1.581 . S
C696 C217 1.581 . S
C701 C266 1.506 . S
C706 C257 1.506 . S
C711 C306 1.451 1_554 S
C716 C297 1.451 . S
C721 C346 1.512 . S
C726 C337 1.512 . S
C731 C377 1.452 . S
C736 C386 1.452 . S
C741 C417 1.589 1_556 S
C746 C426 1.589 . S
C751 C466 1.553 . S
C756 C457 1.553 . S
C761 C497 1.406 . S
C766 C506 1.406 . S
C771 C546 1.582 . S
C776 C537 1.582 . S
C781 C577 1.508 . S
C786 C586 1.508 . S
C791 C617 1.450 1_556 S
C796 C626 1.450 . S
C801 C13 1.652 . S
C806 C463 1.586 . S
C811 C53 1.783 . S
C816 C623 1.703 . S
C821 C93 1.729 . S
C826 C383 1.685 . S
C831 C133 1.838 . S
C836 C544 1.824 . S
C841 C162 1.600 . S
C846 C543 1.684 . S
C851 C464 1.838 . S
C856 C213 1.824 . S
C861 C242 1.636 . S
C866 C624 1.756 . S
C871 C282 1.705 . S
C876 C384 1.783 . S
C881 C122 1.586 . S
C886 C344 1.652 . S
C891 C42 1.684 . S
C896 C424 1.728 . S
C901 C503 1.599 . S
C906 C202 1.684 . S
C911 C293 1.755 . S
C916 C583 1.638 . S
C921 C343 1.694 . S
C926 C173 1.810 . S
C931 C253 1.758 . S
C936 C423 1.662 . S
C941 C82 1.666 . S
C946 C584 1.757 . S
C951 C2 1.697 . S
C956 C504 1.809 . S
C961 C24 1.798 1_556 S
C966 C183 1.818 . S
C971 C64 1.823 . S
C976 C224 1.805 . S
C981 C104 1.836 . S
C986 C263 1.852 . S
C991 C144 1.884 . S
C996 C303 1.917 . S
C1001 C482 1.818 . S
C1006 C333 1.799 1_554 S
C1011 C533 1.805 . S
C1016 C373 1.823 . S
C1021 C413 1.836 . S
C1026 C562 1.852 . S
C1031 C602 1.917 . S
C1036 C453 1.884 . S
C1041 C63 1.930 . S
C1046 C304 1.909 . S
C1051 C184 2.037 . S
C1056 C103 2.063 . S
C1061 C223 1.708 . S
C1066 C143 1.706 . S
C1071 C23 1.806 . S
C1076 C264 1.787 . S
C1081 C613 1.909 . S
C1086 C362 1.930 . S
C1091 C493 2.037 . S
C1096 C402 2.063 . S
C1101 C522 1.708 . S
C1106 C442 1.706 . S
C1111 C573 1.787 . S
C1116 C322 1.806 . S
