# Generated by pormake.
# Topology ukb, (4)-cn, num edge types: 1
# Building blocks:
#     Node 0, Type 0, BuildingBlock: ICAMEG_clean_sbu_1, # of connection points: 4
#     Node 1, Type 0, BuildingBlock: ICAMEG_clean_sbu_1, # of connection points: 4
#     Node 2, Type 0, BuildingBlock: ICAMEG_clean_sbu_1, # of connection points: 4
#     Node 3, Type 0, BuildingBlock: ICAMEG_clean_sbu_1, # of connection points: 4
#     Node 4, Type 0, BuildingBlock: ICAMEG_clean_sbu_1, # of connection points: 4
#     Node 5, Type 0, BuildingBlock: ICAMEG_clean_sbu_1, # of connection points: 4
#     Node 6, Type 0, BuildingBlock: ICAMEG_clean_sbu_1, # of connection points: 4
#     Node 7, Type 0, BuildingBlock: ICAMEG_clean_sbu_1, # of connection points: 4
#     Node 8, Type 0, BuildingBlock: ICAMEG_clean_sbu_1, # of connection points: 4
#     Node 9, Type 0, BuildingBlock: ICAMEG_clean_sbu_1, # of connection points: 4
#     Node 10, Type 0, BuildingBlock: ICAMEG_clean_sbu_1, # of connection points: 4
#     Node 11, Type 0, BuildingBlock: ICAMEG_clean_sbu_1, # of connection points: 4
#     Node 12, Type 0, BuildingBlock: ICAMEG_clean_sbu_1, # of connection points: 4
#     Node 13, Type 0, BuildingBlock: ICAMEG_clean_sbu_1, # of connection points: 4
#     Node 14, Type 0, BuildingBlock: ICAMEG_clean_sbu_1, # of connection points: 4
#     Node 15, Type 0, BuildingBlock: ICAMEG_clean_sbu_1, # of connection points: 4
#     Edge 16, Type (0, 0), BuildingBlock: MIFKUJ_clean_linker_0, # of connection points: 2
#     Edge 17, Type (0, 0), BuildingBlock: MIFKUJ_clean_linker_0, # of connection points: 2
#     Edge 18, Type (0, 0), BuildingBlock: MIFKUJ_clean_linker_0, # of connection points: 2
#     Edge 19, Type (0, 0), BuildingBlock: MIFKUJ_clean_linker_0, # of connection points: 2
#     Edge 20, Type (0, 0), BuildingBlock: MIFKUJ_clean_linker_0, # of connection points: 2
#     Edge 21, Type (0, 0), BuildingBlock: MIFKUJ_clean_linker_0, # of connection points: 2
#     Edge 22, Type (0, 0), BuildingBlock: MIFKUJ_clean_linker_0, # of connection points: 2
#     Edge 23, Type (0, 0), BuildingBlock: MIFKUJ_clean_linker_0, # of connection points: 2
#     Edge 24, Type (0, 0), BuildingBlock: MIFKUJ_clean_linker_0, # of connection points: 2
#     Edge 25, Type (0, 0), BuildingBlock: MIFKUJ_clean_linker_0, # of connection points: 2
#     Edge 26, Type (0, 0), BuildingBlock: MIFKUJ_clean_linker_0, # of connection points: 2
#     Edge 27, Type (0, 0), BuildingBlock: MIFKUJ_clean_linker_0, # of connection points: 2
#     Edge 28, Type (0, 0), BuildingBlock: MIFKUJ_clean_linker_0, # of connection points: 2
#     Edge 29, Type (0, 0), BuildingBlock: MIFKUJ_clean_linker_0, # of connection points: 2
#     Edge 30, Type (0, 0), BuildingBlock: MIFKUJ_clean_linker_0, # of connection points: 2
#     Edge 31, Type (0, 0), BuildingBlock: MIFKUJ_clean_linker_0, # of connection points: 2
#     Edge 32, Type (0, 0), BuildingBlock: MIFKUJ_clean_linker_0, # of connection points: 2
#     Edge 33, Type (0, 0), BuildingBlock: MIFKUJ_clean_linker_0, # of connection points: 2
#     Edge 34, Type (0, 0), BuildingBlock: MIFKUJ_clean_linker_0, # of connection points: 2
#     Edge 35, Type (0, 0), BuildingBlock: MIFKUJ_clean_linker_0, # of connection points: 2
#     Edge 36, Type (0, 0), BuildingBlock: MIFKUJ_clean_linker_0, # of connection points: 2
#     Edge 37, Type (0, 0), BuildingBlock: MIFKUJ_clean_linker_0, # of connection points: 2
#     Edge 38, Type (0, 0), BuildingBlock: MIFKUJ_clean_linker_0, # of connection points: 2
#     Edge 39, Type (0, 0), BuildingBlock: MIFKUJ_clean_linker_0, # of connection points: 2
#     Edge 40, Type (0, 0), BuildingBlock: MIFKUJ_clean_linker_0, # of connection points: 2
#     Edge 41, Type (0, 0), BuildingBlock: MIFKUJ_clean_linker_0, # of connection points: 2
#     Edge 42, Type (0, 0), BuildingBlock: MIFKUJ_clean_linker_0, # of connection points: 2
#     Edge 43, Type (0, 0), BuildingBlock: MIFKUJ_clean_linker_0, # of connection points: 2
#     Edge 44, Type (0, 0), BuildingBlock: MIFKUJ_clean_linker_0, # of connection points: 2
#     Edge 45, Type (0, 0), BuildingBlock: MIFKUJ_clean_linker_0, # of connection points: 2
#     Edge 46, Type (0, 0), BuildingBlock: MIFKUJ_clean_linker_0, # of connection points: 2
#     Edge 47, Type (0, 0), BuildingBlock: MIFKUJ_clean_linker_0, # of connection points: 2
# Relax obj value: 0.077
# Max RMSD: 0.092
# Mean RMSD: 0.092
data_MOF--net-ukb--node1-ICAMEG_clean_sbu_1--edge1-MIFKUJ_clean_linker_0
_symmetry_space_group_name_H-M    P1
_symmetry_Int_Tables_number       1
_symmetry_cell_setting            triclinic
loop_
_symmetry_equiv_pos_as_xyz
'x, y, z'
_cell_length_a     59.380818
_cell_length_b     59.378923
_cell_length_c     54.515791
_cell_angle_alpha  90.004617
_cell_angle_beta   90.015705
_cell_angle_gamma 90.012008
loop_
_atom_site_label
_atom_site_type_symbol
_atom_site_fract_x
_atom_site_fract_y
_atom_site_fract_z
_atom_type_partial_charge
Co0 Co 0.56675 0.19302 0.16247 0.0
Co1 Co 0.53197 0.19918 0.21268 0.0
O2 O 0.53727 0.1906 0.17844 0.0
C3 C 0.53719 0.21796 0.12775 0.0
O4 O 0.52842 0.22866 0.14655 0.0
C5 C 0.51437 0.15243 0.21079 0.0
O6 O 0.53235 0.14678 0.1982 0.0
O7 O 0.55773 0.18031 0.22399 0.0
O8 O 0.5825 0.18331 0.19304 0.0
H9 H 0.55475 0.22558 0.29666 0.0
H10 H 0.53075 0.16626 0.13868 0.0
O11 O 0.55208 0.20285 0.13116 0.0
H12 H 0.59263 0.11265 0.15378 0.0
H13 H 0.62114 0.18337 0.0924 0.0
H14 H 0.61123 0.21157 0.17679 0.0
H15 H 0.59657 0.15261 0.16532 0.0
H16 H 0.58445 0.17997 0.11326 0.0
O17 O 0.51134 0.1728 0.21729 0.0
H18 H 0.56097 0.21512 0.2534 0.0
H19 H 0.49132 0.20088 0.24481 0.0
H20 H 0.64827 0.21513 0.15671 0.0
H21 H 0.52619 0.12647 0.12661 0.0
H22 H 0.6534 0.20098 0.11419 0.0
H23 H 0.55725 0.09935 0.13424 0.0
O24 O 0.5698 0.22503 0.17278 0.0
H25 H 0.4615 0.21434 0.16448 0.0
H26 H 0.51694 0.2464 0.22208 0.0
H27 H 0.48563 0.27005 0.20728 0.0
H28 H 0.4576 0.25401 0.17829 0.0
H29 H 0.49322 0.19136 0.17959 0.0
H30 H 0.48437 0.21101 0.28803 0.0
H31 H 0.51622 0.22355 0.31424 0.0
O32 O 0.55237 0.22583 0.20931 0.0
C33 C 0.57727 0.17749 0.21481 0.0
C34 C 0.54073 0.22021 0.2854 0.0
C35 C 0.50123 0.212 0.28057 0.0
N36 N 0.52651 0.20754 0.24656 0.0
C37 C 0.54414 0.21432 0.26088 0.0
C38 C 0.50527 0.20624 0.25612 0.0
C39 C 0.5191 0.21904 0.29526 0.0
C40 C 0.54442 0.1546 0.14182 0.0
N41 N 0.56393 0.16177 0.15259 0.0
C42 C 0.54171 0.13207 0.13505 0.0
C43 C 0.55913 0.11686 0.13937 0.0
C44 C 0.57898 0.1243 0.15035 0.0
C45 C 0.58109 0.14695 0.15691 0.0
C46 C 0.61913 0.18955 0.11095 0.0
C47 C 0.61337 0.20522 0.15836 0.0
C48 C 0.59838 0.18772 0.12284 0.0
N49 N 0.59575 0.19539 0.1463 0.0
C50 C 0.63437 0.20735 0.14705 0.0
C51 C 0.63723 0.19943 0.12319 0.0
C52 C 0.56485 0.23477 0.19292 0.0
C53 C 0.47358 0.22151 0.17715 0.0
C54 C 0.50488 0.23934 0.20939 0.0
C55 C 0.48714 0.25279 0.20112 0.0
C56 C 0.47142 0.24378 0.18488 0.0
N57 N 0.50687 0.21751 0.20173 0.0
C58 C 0.49152 0.20855 0.18582 0.0
Co59 Co 0.31453 0.56406 0.66188 0.0
Co60 Co 0.30692 0.53095 0.7134 0.0
O61 O 0.31566 0.53514 0.67905 0.0
C62 C 0.28595 0.53596 0.62895 0.0
O63 O 0.27389 0.52997 0.64806 0.0
C64 C 0.35385 0.51405 0.71232 0.0
O65 O 0.35915 0.53191 0.69935 0.0
O66 O 0.32527 0.55728 0.72412 0.0
O67 O 0.32634 0.58013 0.69135 0.0
H68 H 0.27949 0.55588 0.79626 0.0
H69 H 0.33831 0.52531 0.63956 0.0
O70 O 0.30294 0.54882 0.63161 0.0
H71 H 0.39594 0.58455 0.64847 0.0
H72 H 0.32458 0.61521 0.58899 0.0
H73 H 0.29976 0.61015 0.67513 0.0
H74 H 0.35664 0.59159 0.66086 0.0
H75 H 0.32652 0.57911 0.61128 0.0
O76 O 0.33353 0.51079 0.71894 0.0
H77 H 0.29039 0.56099 0.75295 0.0
H78 H 0.30534 0.49126 0.74688 0.0
H79 H 0.29764 0.64661 0.65358 0.0
H80 H 0.37736 0.5176 0.62662 0.0
H81 H 0.31012 0.6493 0.61019 0.0
H82 H 0.40652 0.54732 0.63117 0.0
O83 O 0.28299 0.56953 0.6731 0.0
H84 H 0.29288 0.45864 0.66809 0.0
H85 H 0.25965 0.51606 0.7225 0.0
H86 H 0.23642 0.484 0.70878 0.0
H87 H 0.25305 0.45498 0.68142 0.0
H88 H 0.31544 0.49109 0.68208 0.0
H89 H 0.29479 0.48543 0.79018 0.0
H90 H 0.28167 0.51787 0.81515 0.0
O91 O 0.28028 0.55096 0.70889 0.0
C92 C 0.33048 0.57583 0.71382 0.0
C93 C 0.28511 0.54159 0.78555 0.0
C94 C 0.29373 0.50206 0.78215 0.0
N95 N 0.2983 0.52641 0.74736 0.0
C96 C 0.29124 0.54437 0.761 0.0
C97 C 0.29972 0.50547 0.75766 0.0
C98 C 0.28636 0.52027 0.79614 0.0
C99 C 0.35086 0.53839 0.64138 0.0
N100 N 0.34521 0.55887 0.65099 0.0
C101 C 0.37296 0.5339 0.63411 0.0
C102 C 0.38932 0.55057 0.6367 0.0
C103 C 0.3834 0.57145 0.64642 0.0
C104 C 0.36114 0.57532 0.65351 0.0
C105 C 0.31914 0.61426 0.60791 0.0
C106 C 0.30534 0.61122 0.6563 0.0
C107 C 0.32016 0.59386 0.62061 0.0
N108 N 0.31341 0.59257 0.64454 0.0
C109 C 0.30405 0.6319 0.64417 0.0
C110 C 0.31103 0.63339 0.61982 0.0
C111 C 0.27238 0.56422 0.69263 0.0
C112 C 0.28546 0.47114 0.68006 0.0
C113 C 0.26698 0.50354 0.71053 0.0
C114 C 0.25376 0.4854 0.70287 0.0
C115 C 0.2631 0.46911 0.68752 0.0
N116 N 0.28891 0.50536 0.70319 0.0
C117 C 0.29818 0.4895 0.6881 0.0
Co118 Co 0.93652 0.30942 0.16043 0.0
Co119 Co 0.96973 0.30056 0.21175 0.0
O120 O 0.96551 0.31001 0.17756 0.0
C121 C 0.96537 0.28184 0.12726 0.0
O122 O 0.97337 0.27117 0.14648 0.0
C123 C 0.98631 0.34761 0.21168 0.0
O124 O 0.96858 0.3529 0.19851 0.0
O125 O 0.94327 0.31855 0.22298 0.0
O126 O 0.92081 0.32124 0.19001 0.0
H127 H 0.94492 0.27088 0.2937 0.0
H128 H 0.97555 0.33273 0.13817 0.0
O129 O 0.95124 0.29777 0.12997 0.0
H130 H 0.91734 0.39128 0.14779 0.0
H131 H 0.88493 0.3211 0.08816 0.0
H132 H 0.89039 0.29492 0.1738 0.0
H133 H 0.90967 0.35201 0.15986 0.0
H134 H 0.9212 0.32242 0.11019 0.0
O135 O 0.98967 0.32724 0.21804 0.0
H136 H 0.93981 0.28269 0.25068 0.0
H137 H 0.00934 0.29871 0.24534 0.0
H138 H 0.85376 0.29344 0.15253 0.0
H139 H 0.98387 0.37174 0.12552 0.0
H140 H 0.85087 0.3066 0.10938 0.0
H141 H 0.95468 0.40135 0.13043 0.0
O142 O 0.93071 0.27786 0.17127 0.0
H143 H 0.04213 0.28809 0.16609 0.0
H144 H 0.98506 0.25325 0.21974 0.0
H145 H 0.01727 0.23059 0.20542 0.0
H146 H 0.04611 0.24802 0.17843 0.0
H147 H 0.00953 0.31009 0.18069 0.0
H148 H 0.01518 0.28726 0.28837 0.0
H149 H 0.98283 0.27314 0.31282 0.0
O150 O 0.94996 0.27383 0.20647 0.0
C151 C 0.92498 0.3246 0.21264 0.0
C152 C 0.95916 0.27694 0.28322 0.0
C153 C 0.99859 0.28616 0.28023 0.0
N154 N 0.97428 0.29122 0.24547 0.0
C155 C 0.95638 0.28359 0.25883 0.0
C156 C 0.99517 0.29267 0.2559 0.0
C157 C 0.98043 0.27823 0.29394 0.0
C158 C 0.9627 0.34548 0.14015 0.0
N159 N 0.94215 0.3401 0.14978 0.0
C160 C 0.96753 0.36756 0.13304 0.0
C161 C 0.95116 0.38417 0.13583 0.0
C162 C 0.93021 0.37853 0.14559 0.0
C163 C 0.92599 0.35628 0.15251 0.0
C164 C 0.88597 0.31536 0.10697 0.0
C165 C 0.88924 0.30079 0.15507 0.0
C166 C 0.90647 0.31601 0.11951 0.0
N167 N 0.90788 0.30887 0.1433 0.0
C168 C 0.86847 0.29987 0.1431 0.0
C169 C 0.86686 0.30723 0.11889 0.0
C170 C 0.93637 0.26653 0.19019 0.0
C171 C 0.0297 0.28032 0.17789 0.0
C172 C 0.9975 0.26094 0.20793 0.0
C173 C 0.01573 0.24803 0.19993 0.0
C174 C 0.03191 0.25783 0.1848 0.0
N175 N 0.99548 0.283 0.20113 0.0
C176 C 0.01126 0.29272 0.18628 0.0
Co177 Co 0.19253 0.94381 0.66849 0.0
Co178 Co 0.19937 0.97378 0.72271 0.0
O179 O 0.19239 0.97177 0.68758 0.0
C180 C 0.22839 0.95508 0.63232 0.0
O181 O 0.24091 0.93948 0.64253 0.0
C182 C 0.15285 0.99189 0.71915 0.0
O183 O 0.14827 0.97594 0.70324 0.0
O184 O 0.18058 0.94675 0.73041 0.0
O185 O 0.17604 0.92776 0.69505 0.0
H186 H 0.22337 0.9436 0.80477 0.0
H187 H 0.17544 0.98599 0.64618 0.0
O188 O 0.20896 0.95972 0.64105 0.0
H189 H 0.11169 0.93282 0.6432 0.0
H190 H 0.18541 0.8977 0.59126 0.0
H191 H 0.20133 0.89583 0.68003 0.0
H192 H 0.14835 0.92108 0.6602 0.0
H193 H 0.18429 0.93257 0.61582 0.0
O194 O 0.17252 0.99356 0.7283 0.0
H195 H 0.21456 0.94134 0.76062 0.0
H196 H 0.19889 0.01112 0.75935 0.0
H197 H 0.2026 0.86058 0.65619 0.0
H198 H 0.13915 0.99838 0.62877 0.0
H199 H 0.19456 0.86134 0.61149 0.0
H200 H 0.10693 0.97173 0.62729 0.0
O201 O 0.2216 0.93427 0.68362 0.0
H202 H 0.21521 0.04895 0.68409 0.0
H203 H 0.24593 0.9883 0.73603 0.0
H204 H 0.26951 0.02135 0.72654 0.0
H205 H 0.25414 0.05202 0.70046 0.0
H206 H 0.19228 0.01547 0.69386 0.0
H207 H 0.20734 0.01409 0.80353 0.0
H208 H 0.21976 0.98018 0.82652 0.0
O209 O 0.22624 0.95422 0.71821 0.0
C210 C 0.17284 0.93023 0.71803 0.0
C211 C 0.21803 0.95851 0.79494 0.0
C212 C 0.209 0.99806 0.79425 0.0
N213 N 0.20634 0.9761 0.75739 0.0
C214 C 0.21307 0.95734 0.76993 0.0
C215 C 0.20418 0.99627 0.76925 0.0
C216 C 0.21598 0.97903 0.80714 0.0
C217 C 0.16155 0.97424 0.64539 0.0
N218 N 0.16402 0.95282 0.65415 0.0
C219 C 0.14102 0.98137 0.6356 0.0
C220 C 0.12295 0.96642 0.63481 0.0
C221 C 0.1256 0.94459 0.64375 0.0
C222 C 0.14637 0.93806 0.65344 0.0
C223 C 0.18889 0.89713 0.61074 0.0
C224 C 0.19773 0.8963 0.6606 0.0
C225 C 0.18832 0.91683 0.62473 0.0
N226 N 0.19269 0.91624 0.64934 0.0
C227 C 0.19848 0.87628 0.64719 0.0
C228 C 0.19402 0.87674 0.6221 0.0
C229 C 0.2328 0.93958 0.70272 0.0
C230 C 0.22208 0.03572 0.69552 0.0
C231 C 0.23917 0.0015 0.72455 0.0
C232 C 0.25257 0.02021 0.7193 0.0
C233 C 0.24393 0.03742 0.70468 0.0
N234 N 0.21772 1.0 0.71557 0.0
C235 C 0.20916 0.01676 0.70116 0.0
Co236 Co 0.56786 0.3078 0.84218 0.0
Co237 Co 0.53213 0.30208 0.79277 0.0
O238 O 0.53821 0.31118 0.82673 0.0
C239 C 0.53762 0.28528 0.87803 0.0
O240 O 0.52799 0.27478 0.85959 0.0
C241 C 0.5158 0.34931 0.79402 0.0
O242 O 0.53383 0.35469 0.80667 0.0
O243 O 0.55819 0.32 0.78071 0.0
O244 O 0.58348 0.31616 0.811 0.0
H245 H 0.55287 0.27364 0.70896 0.0
H246 H 0.53372 0.33687 0.86598 0.0
O247 O 0.55334 0.29942 0.87407 0.0
H248 H 0.59762 0.3871 0.84738 0.0
H249 H 0.62418 0.31613 0.91069 0.0
H250 H 0.61103 0.28682 0.82727 0.0
H251 H 0.59955 0.34664 0.83744 0.0
H252 H 0.58727 0.32105 0.8906 0.0
O253 O 0.51223 0.32894 0.78784 0.0
H254 H 0.56008 0.2848 0.75184 0.0
H255 H 0.49094 0.30084 0.76143 0.0
H256 H 0.6482 0.2816 0.84661 0.0
H257 H 0.53122 0.37718 0.87661 0.0
H258 H 0.65497 0.29634 0.88863 0.0
H259 H 0.56329 0.40261 0.86717 0.0
O260 O 0.56911 0.27543 0.83287 0.0
H261 H 0.4618 0.28982 0.84214 0.0
H262 H 0.51587 0.25502 0.7849 0.0
H263 H 0.4841 0.23254 0.80067 0.0
H264 H 0.45677 0.24995 0.82947 0.0
H265 H 0.49396 0.31164 0.82607 0.0
H266 H 0.48301 0.29006 0.71859 0.0
H267 H 0.5141 0.27625 0.69208 0.0
O268 O 0.55179 0.27494 0.79631 0.0
C269 C 0.57801 0.32222 0.78936 0.0
C270 C 0.53917 0.27956 0.72035 0.0
C271 C 0.49997 0.2888 0.72575 0.0
N272 N 0.52592 0.29327 0.75918 0.0
C273 C 0.54314 0.28584 0.74466 0.0
C274 C 0.50457 0.29492 0.74998 0.0
C275 C 0.51742 0.28105 0.71089 0.0
C276 C 0.54785 0.34778 0.86211 0.0
N277 N 0.56677 0.33939 0.85118 0.0
C278 C 0.5463 0.37061 0.86806 0.0
C279 C 0.56428 0.38487 0.86272 0.0
C280 C 0.58355 0.37618 0.85161 0.0
C281 C 0.58451 0.35327 0.84595 0.0
C282 C 0.62145 0.30968 0.89235 0.0
C283 C 0.61388 0.29339 0.8455 0.0
C284 C 0.60058 0.31239 0.8809 0.0
N285 N 0.59705 0.30438 0.85772 0.0
C286 C 0.63495 0.29034 0.85638 0.0
C287 C 0.63872 0.29858 0.87997 0.0
C288 C 0.56375 0.26564 0.81289 0.0
C289 C 0.47357 0.28206 0.82954 0.0
C290 C 0.5041 0.2627 0.79749 0.0
C291 C 0.4861 0.2499 0.80631 0.0
C292 C 0.47077 0.25968 0.82246 0.0
N293 N 0.5067 0.28465 0.8045 0.0
C294 C 0.49174 0.29436 0.82032 0.0
Co295 Co 0.18754 0.561 0.34276 0.0
Co296 Co 0.19418 0.53012 0.28915 0.0
O297 O 0.18644 0.53287 0.32397 0.0
C298 C 0.22152 0.55048 0.38072 0.0
O299 O 0.23287 0.56781 0.37228 0.0
C300 C 0.14637 0.51498 0.29123 0.0
O301 O 0.14228 0.531 0.3072 0.0
O302 O 0.17755 0.55838 0.28068 0.0
O303 O 0.17215 0.5775 0.31577 0.0
H304 H 0.22262 0.55822 0.20795 0.0
H305 H 0.1686 0.51985 0.36559 0.0
O306 O 0.20308 0.54463 0.37044 0.0
H307 H 0.10661 0.57509 0.3658 0.0
H308 H 0.17959 0.60804 0.41923 0.0
H309 H 0.19855 0.60852 0.33116 0.0
H310 H 0.14394 0.58531 0.3494 0.0
H311 H 0.17841 0.57294 0.39509 0.0
O312 O 0.16613 0.51229 0.28263 0.0
H313 H 0.21276 0.56122 0.2518 0.0
H314 H 0.19199 0.49277 0.25254 0.0
H315 H 0.2 0.64402 0.35464 0.0
H316 H 0.13161 0.509 0.38244 0.0
H317 H 0.19049 0.6439 0.39901 0.0
H318 H 0.10028 0.5367 0.38253 0.0
O319 O 0.21736 0.56918 0.32814 0.0
H320 H 0.20309 0.45413 0.32848 0.0
H321 H 0.23968 0.51186 0.27712 0.0
H322 H 0.26033 0.47706 0.28736 0.0
H323 H 0.24197 0.44785 0.31313 0.0
H324 H 0.18319 0.48932 0.31806 0.0
H325 H 0.20142 0.48909 0.20867 0.0
H326 H 0.21694 0.52195 0.1861 0.0
O327 O 0.22232 0.54755 0.29473 0.0
C328 C 0.16988 0.5752 0.29266 0.0
C329 C 0.21593 0.54377 0.2176 0.0
C330 C 0.204 0.50497 0.218 0.0
N331 N 0.20196 0.52716 0.25475 0.0
C332 C 0.21038 0.54534 0.24244 0.0
C333 C 0.19864 0.50718 0.24282 0.0
C334 C 0.21272 0.52342 0.20535 0.0
C335 C 0.15511 0.53207 0.36579 0.0
N336 N 0.15846 0.55322 0.35661 0.0
C337 C 0.13418 0.5258 0.37526 0.0
C338 C 0.11659 0.54134 0.37527 0.0
C339 C 0.12013 0.56287 0.36587 0.0
C340 C 0.14128 0.56854 0.35653 0.0
C341 C 0.1838 0.6083 0.39992 0.0
C342 C 0.19436 0.60836 0.35046 0.0
C343 C 0.18315 0.58848 0.38615 0.0
N344 N 0.18836 0.5887 0.36172 0.0
C345 C 0.19523 0.62849 0.36366 0.0
C346 C 0.1899 0.62842 0.38856 0.0
C347 C 0.22906 0.56233 0.30999 0.0
C348 C 0.21127 0.46672 0.31723 0.0
C349 C 0.23168 0.49933 0.28854 0.0
C350 C 0.24341 0.47961 0.29419 0.0
C351 C 0.23309 0.46322 0.30862 0.0
N352 N 0.21027 0.50261 0.297 0.0
C353 C 0.20007 0.48666 0.31122 0.0
Co354 Co 0.93583 0.19735 0.83949 0.0
Co355 Co 0.97308 0.20492 0.79178 0.0
O356 O 0.96586 0.19456 0.82497 0.0
C357 C 0.96553 0.21785 0.87705 0.0
O358 O 0.97568 0.22871 0.85922 0.0
C359 C 0.98832 0.15751 0.79169 0.0
O360 O 0.96923 0.15231 0.80244 0.0
O361 O 0.94723 0.18782 0.77775 0.0
O362 O 0.92113 0.19066 0.8074 0.0
H363 H 0.95565 0.23752 0.70887 0.0
H364 H 0.96917 0.16724 0.86316 0.0
O365 O 0.9495 0.20429 0.87225 0.0
H366 H 0.90609 0.1179 0.83916 0.0
H367 H 0.87723 0.18483 0.90485 0.0
H368 H 0.89291 0.21866 0.82404 0.0
H369 H 0.9045 0.15878 0.83118 0.0
H370 H 0.91509 0.18205 0.88647 0.0
O371 O 0.99281 0.17796 0.78658 0.0
H372 H 0.94681 0.22457 0.75078 0.0
H373 H 0.01525 0.20661 0.76214 0.0
H374 H 0.85478 0.2216 0.84162 0.0
H375 H 0.97131 0.12652 0.87183 0.0
H376 H 0.84672 0.20457 0.88228 0.0
H377 H 0.93964 0.10155 0.8597 0.0
O378 O 0.93489 0.23001 0.83177 0.0
H379 H 0.04208 0.21425 0.84412 0.0
H380 H 0.98999 0.25208 0.78697 0.0
H381 H 0.02152 0.2735 0.80493 0.0
H382 H 0.04786 0.25456 0.8337 0.0
H383 H 0.01018 0.19352 0.82591 0.0
H384 H 0.0248 0.21916 0.72028 0.0
H385 H 0.9949 0.23484 0.69338 0.0
O386 O 0.95348 0.23214 0.79596 0.0
C387 C 0.92714 0.18577 0.78562 0.0
C388 C 0.96884 0.23077 0.72044 0.0
C389 C 0.00765 0.22045 0.72683 0.0
N390 N 0.98052 0.21501 0.75894 0.0
C391 C 0.96395 0.22347 0.74421 0.0
C392 C 0.00213 0.21332 0.7505 0.0
C393 C 0.99086 0.22925 0.71175 0.0
C394 C 0.9552 0.15652 0.85813 0.0
N395 N 0.93668 0.16539 0.84682 0.0
C396 C 0.95655 0.13346 0.86297 0.0
C397 C 0.93879 0.11946 0.85612 0.0
C398 C 0.91996 0.12863 0.84459 0.0
C399 C 0.91919 0.15177 0.84005 0.0
C400 C 0.88053 0.19228 0.8871 0.0
C401 C 0.88953 0.21113 0.84171 0.0
C402 C 0.90195 0.19082 0.87664 0.0
N403 N 0.90617 0.20002 0.85412 0.0
C404 C 0.86791 0.2129 0.85159 0.0
C405 C 0.86341 0.20336 0.87442 0.0
C406 C 0.94088 0.24066 0.81253 0.0
C407 C 0.03075 0.22268 0.83156 0.0
C408 C 0.00132 0.24374 0.79955 0.0
C409 C 0.01918 0.25595 0.80961 0.0
C410 C 0.03397 0.2453 0.82573 0.0
N411 N 0.9983 0.22155 0.80534 0.0
C412 C 0.01272 0.211 0.82112 0.0
Co413 Co 0.31067 0.9376 0.33925 0.0
Co414 Co 0.30404 0.97068 0.28735 0.0
O415 O 0.312 0.96652 0.32199 0.0
C416 C 0.27988 0.94863 0.38031 0.0
O417 O 0.26634 0.93311 0.37156 0.0
C418 C 0.35095 0.98782 0.28983 0.0
O419 O 0.35603 0.97037 0.30354 0.0
O420 O 0.32258 0.94425 0.27733 0.0
O421 O 0.32319 0.92147 0.31021 0.0
H422 H 0.27828 0.94546 0.20396 0.0
H423 H 0.33355 0.97634 0.36283 0.0
O424 O 0.29815 0.95341 0.36906 0.0
H425 H 0.39195 0.91781 0.35449 0.0
H426 H 0.32058 0.88647 0.41225 0.0
H427 H 0.29588 0.89148 0.32605 0.0
H428 H 0.35309 0.91063 0.34059 0.0
H429 H 0.32252 0.92256 0.38996 0.0
O430 O 0.33082 0.99073 0.28239 0.0
H431 H 0.28813 0.94055 0.24759 0.0
H432 H 0.30355 0.01019 0.25353 0.0
H433 H 0.29376 0.85503 0.34761 0.0
H434 H 0.37217 0.98415 0.37719 0.0
H435 H 0.30615 0.85237 0.39103 0.0
H436 H 0.40169 0.95479 0.37298 0.0
O437 O 0.27968 0.93189 0.32663 0.0
H438 H 0.28945 0.04346 0.33157 0.0
H439 H 0.25715 0.98593 0.2766 0.0
H440 H 0.23391 0.01835 0.28917 0.0
H441 H 0.25008 0.04745 0.31678 0.0
H442 H 0.31202 0.01061 0.31875 0.0
H443 H 0.29405 0.01582 0.20991 0.0
H444 H 0.28123 0.98332 0.18484 0.0
O445 O 0.27714 0.95086 0.29113 0.0
C446 C 0.32765 0.92573 0.2878 0.0
C447 C 0.28378 0.95977 0.21471 0.0
C448 C 0.29266 0.99925 0.21804 0.0
N449 N 0.29625 0.97509 0.25313 0.0
C450 C 0.28932 0.9571 0.23944 0.0
C451 C 0.29807 0.99595 0.24272 0.0
C452 C 0.28546 0.98101 0.20399 0.0
C453 C 0.34625 0.96339 0.36118 0.0
N454 N 0.34103 0.94301 0.35104 0.0
C455 C 0.36811 0.96795 0.36924 0.0
C456 C 0.38468 0.95148 0.36684 0.0
C457 C 0.37923 0.93073 0.35645 0.0
C458 C 0.3572 0.92679 0.34856 0.0
C459 C 0.31516 0.88741 0.39332 0.0
C460 C 0.30139 0.89044 0.34492 0.0
C461 C 0.31621 0.9078 0.38061 0.0
N462 N 0.30941 0.9091 0.35669 0.0
C463 C 0.30011 0.86976 0.35704 0.0
C464 C 0.30706 0.86828 0.38141 0.0
C465 C 0.26922 0.9373 0.30708 0.0
C466 C 0.28223 0.03091 0.3195 0.0
C467 C 0.26426 0.99844 0.28875 0.0
C468 C 0.25104 0.0168 0.29573 0.0
C469 C 0.26013 0.03313 0.31121 0.0
N470 N 0.28594 0.99642 0.29689 0.0
C471 C 0.29494 0.01231 0.31213 0.0
Co472 Co 0.4374 0.81003 0.83946 0.0
Co473 Co 0.47421 0.80413 0.79114 0.0
O474 O 0.46739 0.81338 0.82488 0.0
C475 C 0.46668 0.78829 0.8767 0.0
O476 O 0.4769 0.77769 0.85872 0.0
C477 C 0.49039 0.85133 0.79267 0.0
O478 O 0.47187 0.85667 0.80445 0.0
O479 O 0.44844 0.82201 0.77813 0.0
O480 O 0.42251 0.81738 0.80764 0.0
H481 H 0.45555 0.77488 0.70707 0.0
H482 H 0.47057 0.83963 0.86405 0.0
O483 O 0.45107 0.80235 0.87201 0.0
H484 H 0.40746 0.88941 0.84139 0.0
H485 H 0.37873 0.82056 0.9052 0.0
H486 H 0.39473 0.78849 0.82362 0.0
H487 H 0.40592 0.84871 0.83226 0.0
H488 H 0.41651 0.82427 0.88679 0.0
O489 O 0.49424 0.83096 0.78668 0.0
H490 H 0.44728 0.78642 0.7496 0.0
H491 H 0.51611 0.80282 0.761 0.0
H492 H 0.3567 0.78458 0.84122 0.0
H493 H 0.47261 0.88012 0.87393 0.0
H494 H 0.34848 0.80073 0.88229 0.0
H495 H 0.44092 0.9053 0.86248 0.0
O496 O 0.4367 0.77754 0.8308 0.0
H497 H 0.54352 0.7922 0.84233 0.0
H498 H 0.49053 0.75699 0.78416 0.0
H499 H 0.52197 0.73461 0.80088 0.0
H500 H 0.54876 0.75223 0.83015 0.0
H501 H 0.51169 0.8139 0.82535 0.0
H502 H 0.52509 0.79168 0.71852 0.0
H503 H 0.4947 0.77749 0.69128 0.0
O504 O 0.45438 0.77699 0.79441 0.0
C505 C 0.42834 0.82334 0.78613 0.0
C506 C 0.46895 0.78097 0.71879 0.0
C507 C 0.50798 0.79042 0.72521 0.0
N508 N 0.48122 0.7951 0.75782 0.0
C509 C 0.46438 0.78746 0.7429 0.0
C510 C 0.50278 0.79675 0.74922 0.0
C511 C 0.49091 0.78246 0.70993 0.0
C512 C 0.45657 0.85043 0.85933 0.0
N513 N 0.43808 0.8418 0.84774 0.0
C514 C 0.45788 0.87336 0.86485 0.0
C515 C 0.44011 0.88748 0.85838 0.0
C516 C 0.42131 0.87856 0.84654 0.0
C517 C 0.42058 0.85553 0.84135 0.0
C518 C 0.38209 0.81349 0.88727 0.0
C519 C 0.39128 0.79564 0.84146 0.0
C520 C 0.40347 0.81549 0.87679 0.0
N521 N 0.40778 0.80677 0.85407 0.0
C522 C 0.36971 0.79332 0.85136 0.0
C523 C 0.36513 0.80236 0.87441 0.0
C524 C 0.4423 0.76769 0.81094 0.0
C525 C 0.53199 0.78435 0.82955 0.0
C526 C 0.50206 0.76475 0.79697 0.0
C527 C 0.51987 0.75201 0.80632 0.0
C528 C 0.5349 0.76192 0.82273 0.0
N529 N 0.49934 0.78675 0.80372 0.0
C530 C 0.514 0.79658 0.81981 0.0
Co531 Co 0.6936 0.43736 0.33628 0.0
Co532 Co 0.69985 0.47457 0.28833 0.0
O533 O 0.69049 0.46748 0.32196 0.0
C534 C 0.71571 0.46635 0.37347 0.0
O535 O 0.72638 0.47641 0.35544 0.0
C536 C 0.65265 0.49062 0.2899 0.0
O537 O 0.64746 0.47185 0.30131 0.0
O538 O 0.68187 0.44901 0.27506 0.0
O539 O 0.68595 0.42276 0.30435 0.0
H540 H 0.72912 0.45658 0.20412 0.0
H541 H 0.66421 0.47064 0.36102 0.0
O542 O 0.7015 0.45084 0.36888 0.0
H543 H 0.6142 0.40759 0.33865 0.0
H544 H 0.68301 0.37843 0.40174 0.0
H545 H 0.71447 0.39454 0.3199 0.0
H546 H 0.6548 0.40603 0.32922 0.0
H547 H 0.67961 0.41637 0.38365 0.0
O548 O 0.67302 0.49471 0.28405 0.0
H549 H 0.71753 0.44796 0.24654 0.0
H550 H 0.70128 0.51673 0.25862 0.0
H551 H 0.71798 0.35633 0.33716 0.0
H552 H 0.62377 0.47276 0.37112 0.0
H553 H 0.70216 0.34806 0.37836 0.0
H554 H 0.59846 0.44111 0.35982 0.0
O555 O 0.72602 0.43644 0.32754 0.0
H556 H 0.71199 0.54337 0.34027 0.0
H557 H 0.74706 0.49079 0.28159 0.0
H558 H 0.76954 0.52199 0.29869 0.0
H559 H 0.75199 0.54858 0.32822 0.0
H560 H 0.69018 0.51178 0.3229 0.0
H561 H 0.71249 0.52606 0.21626 0.0
H562 H 0.72662 0.49588 0.18872 0.0
O563 O 0.72696 0.45459 0.29142 0.0
C564 C 0.68008 0.4289 0.28291 0.0
C565 C 0.72306 0.46989 0.21596 0.0
C566 C 0.7137 0.50888 0.22277 0.0
N567 N 0.70893 0.48185 0.25509 0.0
C568 C 0.71654 0.46513 0.24002 0.0
C569 C 0.70734 0.50349 0.24672 0.0
C570 C 0.72163 0.49194 0.20733 0.0
C571 C 0.65335 0.45668 0.35633 0.0
N572 N 0.66187 0.43819 0.34467 0.0
C573 C 0.63045 0.45803 0.36198 0.0
C574 C 0.61625 0.44027 0.35559 0.0
C575 C 0.62507 0.42146 0.34371 0.0
C576 C 0.64806 0.42071 0.33835 0.0
C577 C 0.68994 0.38182 0.38375 0.0
C578 C 0.70745 0.39107 0.3378 0.0
C579 C 0.68812 0.40328 0.37345 0.0
N580 N 0.69667 0.40762 0.35066 0.0
C581 C 0.70956 0.36941 0.3475 0.0
C582 C 0.70069 0.36478 0.37063 0.0
C583 C 0.73604 0.44222 0.30785 0.0
C584 C 0.71981 0.53193 0.32737 0.0
C585 C 0.73932 0.50223 0.29451 0.0
C586 C 0.75212 0.51991 0.30407 0.0
C587 C 0.74226 0.53482 0.32063 0.0
N588 N 0.7173 0.49953 0.30119 0.0
C589 C 0.70752 0.51408 0.31741 0.0
Co590 Co 0.06709 0.68813 0.83991 0.0
Co591 Co 0.03293 0.69566 0.78904 0.0
O592 O 0.03773 0.68726 0.82347 0.0
C593 C 0.03897 0.71679 0.87287 0.0
O594 O 0.03014 0.72653 0.85351 0.0
C595 C 0.01517 0.64899 0.7914 0.0
O596 O 0.03256 0.64365 0.80509 0.0
O597 O 0.0589 0.67699 0.77787 0.0
O598 O 0.0821 0.67534 0.81032 0.0
H599 H 0.05652 0.72232 0.70542 0.0
H600 H 0.02838 0.6659 0.86406 0.0
O601 O 0.05316 0.70087 0.87034 0.0
H602 H 0.08577 0.6065 0.85484 0.0
H603 H 0.11991 0.67782 0.91134 0.0
H604 H 0.11316 0.70159 0.82498 0.0
H605 H 0.0935 0.6453 0.84112 0.0
H606 H 0.0832 0.67647 0.89021 0.0
O607 O 0.01247 0.66918 0.78406 0.0
H608 H 0.06234 0.71172 0.74871 0.0
H609 H 0.99265 0.69724 0.75637 0.0
H610 H 0.15024 0.70301 0.84533 0.0
H611 H 0.02 0.62737 0.87834 0.0
H612 H 0.15377 0.69109 0.88884 0.0
H613 H 0.04879 0.59733 0.87365 0.0
O614 O 0.07303 0.71933 0.8278 0.0
H615 H 0.96154 0.71056 0.83569 0.0
H616 H 0.01827 0.743 0.77986 0.0
H617 H 0.98668 0.76658 0.7941 0.0
H618 H 0.95801 0.75035 0.82218 0.0
H619 H 0.99354 0.68764 0.82118 0.0
H620 H 0.9861 0.7075 0.71311 0.0
H621 H 0.01816 0.72024 0.68735 0.0
O622 O 0.05322 0.72214 0.79283 0.0
C623 C 0.07744 0.67131 0.78792 0.0
C624 C 0.0424 0.71687 0.71648 0.0
C625 C 0.00288 0.70852 0.72079 0.0
N626 N 0.02783 0.70405 0.7551 0.0
C627 C 0.04558 0.7109 0.74102 0.0
C628 C 0.0067 0.7027 0.74526 0.0
C629 C 0.02088 0.71567 0.70635 0.0
C630 C 0.04106 0.65296 0.86217 0.0
N631 N 0.0614 0.65784 0.85174 0.0
C632 C 0.03619 0.63116 0.8702 0.0
C633 C 0.05234 0.6143 0.86753 0.0
C634 C 0.07308 0.61943 0.85696 0.0
C635 C 0.07734 0.64141 0.84911 0.0
C636 C 0.11859 0.68304 0.89238 0.0
C637 C 0.11459 0.69626 0.84387 0.0
C638 C 0.09784 0.68237 0.88033 0.0
N639 N 0.09606 0.68885 0.85635 0.0
C640 C 0.13562 0.69715 0.85532 0.0
C641 C 0.13758 0.69048 0.87973 0.0
C642 C 0.06723 0.7299 0.80841 0.0
C643 C 0.97389 0.7178 0.82341 0.0
C644 C 0.0059 0.73584 0.79215 0.0
C645 C 0.98802 0.74926 0.8001 0.0
C646 C 0.97194 0.74014 0.81584 0.0
N647 N 0.00767 0.71393 0.79961 0.0
C648 C 0.99199 0.70488 0.81506 0.0
Co649 Co 0.81173 0.06749 0.34172 0.0
Co650 Co 0.80194 0.03089 0.29345 0.0
O651 O 0.81343 0.03767 0.32636 0.0
C652 C 0.78921 0.03837 0.37868 0.0
O653 O 0.77863 0.02817 0.36068 0.0
C654 C 0.84977 0.01651 0.29013 0.0
O655 O 0.85541 0.03499 0.30184 0.0
O656 O 0.81764 0.05758 0.2791 0.0
O657 O 0.8196 0.08234 0.31015 0.0
H658 H 0.76492 0.0491 0.21294 0.0
H659 H 0.83991 0.03215 0.3647 0.0
O660 O 0.80361 0.0537 0.37407 0.0
H661 H 0.8925 0.09333 0.34317 0.0
H662 H 0.82543 0.12361 0.40936 0.0
H663 H 0.79248 0.11165 0.32735 0.0
H664 H 0.85185 0.09718 0.33497 0.0
H665 H 0.82757 0.08639 0.3894 0.0
O666 O 0.82912 0.01203 0.2861 0.0
H667 H 0.77956 0.05746 0.25432 0.0
H668 H 0.80008 0.98936 0.26272 0.0
H669 H 0.79012 0.14919 0.34653 0.0
H670 H 0.88043 0.02772 0.37356 0.0
H671 H 0.80667 0.15535 0.38785 0.0
H672 H 0.90703 0.05842 0.36266 0.0
O673 O 0.77913 0.07038 0.33363 0.0
H674 H 0.79696 0.96094 0.34495 0.0
H675 H 0.75532 0.01224 0.29019 0.0
H676 H 0.73566 0.97979 0.30858 0.0
H677 H 0.75653 0.95384 0.33616 0.0
H678 H 0.81589 0.99375 0.32633 0.0
H679 H 0.78587 0.98037 0.22135 0.0
H680 H 0.76803 0.01035 0.19622 0.0
O681 O 0.77451 0.04948 0.29964 0.0
C682 C 0.8222 0.07704 0.28769 0.0
C683 C 0.7726 0.0359 0.22376 0.0
C684 C 0.78439 0.99732 0.22845 0.0
N685 N 0.79055 0.02389 0.26097 0.0
C686 C 0.78087 0.04051 0.24721 0.0
C687 C 0.79247 0.00254 0.25184 0.0
C688 C 0.77437 0.01415 0.21437 0.0
C689 C 0.85136 0.04569 0.3602 0.0
N690 N 0.84351 0.06493 0.34946 0.0
C691 C 0.87429 0.04305 0.36514 0.0
C692 C 0.88921 0.06026 0.35899 0.0
C693 C 0.88107 0.07985 0.34805 0.0
C694 C 0.85804 0.08191 0.34339 0.0
C695 C 0.8182 0.12115 0.39133 0.0
C696 C 0.79985 0.11424 0.34526 0.0
C697 C 0.81932 0.1001 0.37996 0.0
N698 N 0.8103 0.0969 0.35715 0.0
C699 C 0.7984 0.13552 0.35606 0.0
C700 C 0.80767 0.13895 0.37925 0.0
C701 C 0.76726 0.0633 0.31572 0.0
C702 C 0.78769 0.97211 0.33294 0.0
C703 C 0.76446 1.00112 0.30228 0.0
C704 C 0.75327 0.98272 0.31257 0.0
C705 C 0.765 0.96815 0.32802 0.0
N706 N 0.78672 0.00489 0.30719 0.0
C707 C 0.79834 0.99066 0.32228 0.0
Co708 Co 0.43237 0.68845 0.16046 0.0
Co709 Co 0.46663 0.69713 0.21082 0.0
O710 O 0.46169 0.68719 0.17693 0.0
C711 C 0.4618 0.71337 0.12574 0.0
O712 O 0.47039 0.72419 0.14455 0.0
C713 C 0.4846 0.65048 0.21081 0.0
O714 O 0.46694 0.64434 0.19795 0.0
O715 O 0.44076 0.6787 0.22282 0.0
O716 O 0.41667 0.67894 0.19107 0.0
H717 H 0.44322 0.72724 0.29308 0.0
H718 H 0.4694 0.66219 0.13803 0.0
O719 O 0.44706 0.69809 0.12911 0.0
H720 H 0.40854 0.60734 0.15274 0.0
H721 H 0.37894 0.67564 0.09006 0.0
H722 H 0.38723 0.70594 0.1738 0.0
H723 H 0.40354 0.64732 0.16374 0.0
H724 H 0.41555 0.67392 0.11136 0.0
O725 O 0.48726 0.67101 0.2169 0.0
H726 H 0.43731 0.7148 0.25038 0.0
H727 H 0.507 0.70014 0.24325 0.0
H728 H 0.35026 0.70783 0.15328 0.0
H729 H 0.47512 0.62234 0.12682 0.0
H730 H 0.34594 0.6926 0.1111 0.0
H731 H 0.44454 0.59461 0.13423 0.0
O732 O 0.42828 0.7206 0.16981 0.0
H733 H 0.53748 0.71051 0.16265 0.0
H734 H 0.4815 0.74474 0.21804 0.0
H735 H 0.51281 0.76788 0.20234 0.0
H736 H 0.54111 0.75075 0.17446 0.0
H737 H 0.50573 0.68805 0.17859 0.0
H738 H 0.51364 0.71222 0.28594 0.0
H739 H 0.48162 0.72598 0.31112 0.0
O740 O 0.44626 0.72355 0.20591 0.0
C741 C 0.42156 0.6746 0.21334 0.0
C742 C 0.45732 0.72133 0.28227 0.0
C743 C 0.49684 0.71288 0.27827 0.0
N744 N 0.47181 0.7069 0.2443 0.0
C745 C 0.45408 0.71432 0.25807 0.0
C746 C 0.49297 0.70601 0.25414 0.0
C747 C 0.47886 0.7206 0.29239 0.0
C748 C 0.45598 0.65024 0.14116 0.0
N749 N 0.43614 0.65709 0.15142 0.0
C750 C 0.45934 0.62769 0.13486 0.0
C751 C 0.44219 0.61213 0.13906 0.0
C752 C 0.42199 0.61925 0.14951 0.0
C753 C 0.41928 0.64191 0.15571 0.0
C754 C 0.38059 0.68229 0.10846 0.0
C755 C 0.38544 0.69914 0.15551 0.0
C756 C 0.40129 0.6814 0.1206 0.0
N757 N 0.40347 0.68964 0.14389 0.0
C758 C 0.36449 0.70032 0.14396 0.0
C759 C 0.36208 0.6918 0.12028 0.0
C760 C 0.4334 0.73142 0.18923 0.0
C761 C 0.52528 0.71815 0.17483 0.0
C762 C 0.49367 0.7372 0.20583 0.0
C763 C 0.51141 0.75036 0.19706 0.0
C764 C 0.52729 0.74074 0.18143 0.0
N765 N 0.4918 0.71506 0.19926 0.0
C766 C 0.50732 0.7055 0.18398 0.0
Co767 Co 0.80753 0.43681 0.6613 0.0
Co768 Co 0.80085 0.47309 0.71012 0.0
O769 O 0.81064 0.46657 0.6765 0.0
C770 C 0.78544 0.46649 0.62459 0.0
O771 O 0.7747 0.47638 0.64268 0.0
C772 C 0.84841 0.48848 0.71039 0.0
O773 O 0.85379 0.46979 0.69892 0.0
O774 O 0.81808 0.44687 0.7231 0.0
O775 O 0.8153 0.42152 0.69276 0.0
H776 H 0.76996 0.45376 0.7933 0.0
H777 H 0.83701 0.47083 0.63789 0.0
O778 O 0.79967 0.45099 0.62907 0.0
H779 H 0.88696 0.40719 0.65836 0.0
H780 H 0.81729 0.37987 0.59365 0.0
H781 H 0.78631 0.39372 0.6762 0.0
H782 H 0.8463 0.40522 0.66722 0.0
H783 H 0.82172 0.41698 0.61343 0.0
O784 O 0.8279 0.49271 0.71545 0.0
H785 H 0.78207 0.44588 0.75087 0.0
H786 H 0.79951 0.51464 0.74086 0.0
H787 H 0.78161 0.35635 0.65718 0.0
H788 H 0.87756 0.47338 0.62836 0.0
H789 H 0.79717 0.34922 0.6156 0.0
H790 H 0.90284 0.44145 0.63874 0.0
O791 O 0.77503 0.43556 0.66997 0.0
H792 H 0.79072 0.543 0.65947 0.0
H793 H 0.75385 0.49004 0.71641 0.0
H794 H 0.73217 0.52191 0.69956 0.0
H795 H 0.75063 0.54868 0.6709 0.0
H796 H 0.81172 0.51077 0.6766 0.0
H797 H 0.78779 0.52323 0.78324 0.0
H798 H 0.7728 0.49267 0.80974 0.0
O799 O 0.77355 0.4537 0.70604 0.0
C800 C 0.82055 0.42702 0.71462 0.0
C801 C 0.77641 0.46723 0.78191 0.0
C802 C 0.78644 0.50621 0.77628 0.0
N803 N 0.79133 0.47981 0.74336 0.0
C804 C 0.78323 0.46288 0.75786 0.0
C805 C 0.79309 0.50124 0.75231 0.0
C806 C 0.77802 0.48906 0.79113 0.0
C807 C 0.84787 0.45676 0.64216 0.0
N808 N 0.83928 0.43788 0.653 0.0
C809 C 0.87082 0.45834 0.63684 0.0
C810 C 0.88501 0.44043 0.6427 0.0
C811 C 0.87611 0.42121 0.65372 0.0
C812 C 0.85307 0.42021 0.65875 0.0
C813 C 0.81048 0.38275 0.6118 0.0
C814 C 0.79324 0.39073 0.65816 0.0
C815 C 0.81291 0.40374 0.62307 0.0
N816 N 0.80443 0.40747 0.64601 0.0
C817 C 0.79048 0.36954 0.64746 0.0
C818 C 0.79919 0.36556 0.62413 0.0
C819 C 0.76471 0.44134 0.68949 0.0
C820 C 0.78251 0.53148 0.67199 0.0
C821 C 0.76198 0.50157 0.70388 0.0
C822 C 0.74963 0.51962 0.69445 0.0
C823 C 0.76 0.53464 0.67838 0.0
N824 N 0.78405 0.49861 0.69755 0.0
C825 C 0.79433 0.51326 0.68181 0.0
Co826 Co 0.06338 0.80907 0.15868 0.0
Co827 Co 0.02903 0.8072 0.21003 0.0
O828 O 0.0341 0.81345 0.17495 0.0
C829 C 0.02892 0.79092 0.12224 0.0
O830 O 0.01189 0.79446 0.13706 0.0
C831 C 0.01293 0.85451 0.20516 0.0
O832 O 0.03037 0.8589 0.19115 0.0
O833 O 0.05573 0.82551 0.21955 0.0
O834 O 0.07947 0.8213 0.18793 0.0
H835 H 0.05224 0.78505 0.29532 0.0
H836 H 0.02725 0.83569 0.13406 0.0
O837 O 0.04893 0.7962 0.12843 0.0
H838 H 0.09223 0.88698 0.14029 0.0
H839 H 0.11757 0.8103 0.08757 0.0
H840 H 0.10757 0.79128 0.17495 0.0
H841 H 0.09474 0.84815 0.15599 0.0
H842 H 0.08114 0.81683 0.10807 0.0
O843 O 0.00967 0.83468 0.2133 0.0
H844 H 0.05813 0.79271 0.25132 0.0
H845 H 0.9889 0.80902 0.24294 0.0
H846 H 0.14433 0.78463 0.1552 0.0
H847 H 0.02412 0.87423 0.11786 0.0
H848 H 0.1495 0.79417 0.11119 0.0
H849 H 0.05675 0.90024 0.12096 0.0
O850 O 0.06576 0.77797 0.17192 0.0
H851 H 0.95556 0.79319 0.16694 0.0
H852 H 0.01283 0.76089 0.22219 0.0
H853 H 0.97978 0.73812 0.21062 0.0
H854 H 0.9508 0.75429 0.18287 0.0
H855 H 0.98908 0.81526 0.17868 0.0
H856 H 0.98231 0.80172 0.28688 0.0
H857 H 0.0141 0.78955 0.31338 0.0
O858 O 0.04821 0.7796 0.20829 0.0
C859 C 0.07495 0.82805 0.20956 0.0
C860 C 0.03823 0.79027 0.28395 0.0
C861 C 0.99899 0.79965 0.27922 0.0
N862 N 0.02385 0.80113 0.24453 0.0
C863 C 0.04145 0.79457 0.25901 0.0
C864 C 0.00284 0.8038 0.25436 0.0
C865 C 0.01684 0.79282 0.29408 0.0
C866 C 0.04165 0.84668 0.13514 0.0
N867 N 0.06126 0.83945 0.14561 0.0
C868 C 0.03972 0.8686 0.12608 0.0
C869 C 0.05802 0.8832 0.12788 0.0
C870 C 0.07792 0.87578 0.13873 0.0
C871 C 0.07922 0.85375 0.14761 0.0
C872 C 0.11554 0.80615 0.10677 0.0
C873 C 0.10974 0.79564 0.15584 0.0
C874 C 0.09494 0.80978 0.11848 0.0
N875 N 0.09228 0.80464 0.14276 0.0
C876 C 0.13057 0.79177 0.14474 0.0
C877 C 0.13346 0.7971 0.12004 0.0
C878 C 0.06042 0.76945 0.19256 0.0
C879 C 0.96806 0.78596 0.17905 0.0
C880 C 1.00044 0.76797 0.20989 0.0
C881 C 0.98169 0.75503 0.20351 0.0
C882 C 0.96542 0.76413 0.18797 0.0
N883 N 0.00292 0.78938 0.20104 0.0
C884 C 0.98703 0.79841 0.18584 0.0
Co885 Co 0.69396 0.06387 0.66377 0.0
Co886 Co 0.70305 0.03107 0.71565 0.0
O887 O 0.69457 0.03482 0.68102 0.0
C888 C 0.7198 0.03254 0.62993 0.0
O889 O 0.7203 0.01633 0.64624 0.0
C890 C 0.65637 0.01325 0.71402 0.0
O891 O 0.65106 0.03015 0.69963 0.0
O892 O 0.6844 0.05736 0.726 0.0
O893 O 0.67837 0.07805 0.69218 0.0
H894 H 0.73033 0.05733 0.79808 0.0
H895 H 0.67541 0.02261 0.64018 0.0
O896 O 0.7099 0.05113 0.63439 0.0
H897 H 0.61237 0.07652 0.64271 0.0
H898 H 0.68404 0.11446 0.59038 0.0
H899 H 0.7023 0.1112 0.67857 0.0
H900 H 0.64971 0.08711 0.65873 0.0
H901 H 0.68432 0.07814 0.61228 0.0
O902 O 0.67655 0.01083 0.72149 0.0
H903 H 0.71951 0.06174 0.75466 0.0
H904 H 0.70464 0.9919 0.74989 0.0
H905 H 0.70195 0.14793 0.65743 0.0
H906 H 0.63847 0.01142 0.62366 0.0
H907 H 0.6928 0.14971 0.613 0.0
H908 H 0.60657 0.03843 0.62493 0.0
O909 O 0.72388 0.07261 0.6775 0.0
H910 H 0.71712 0.95706 0.67366 0.0
H911 H 0.75059 0.01695 0.72464 0.0
H912 H 0.77387 0.98451 0.71225 0.0
H913 H 0.75712 0.95423 0.68665 0.0
H914 H 0.69455 0.99 0.68613 0.0
H915 H 0.71512 0.98677 0.79331 0.0
H916 H 0.72816 0.01963 0.81769 0.0
O917 O 0.72948 0.0512 0.71092 0.0
C918 C 0.67604 0.07439 0.71506 0.0
C919 C 0.72474 0.04287 0.78764 0.0
C920 C 0.71617 0.00328 0.78497 0.0
N921 N 0.71159 0.02707 0.74971 0.0
C922 C 0.71864 0.04525 0.76303 0.0
C923 C 0.71021 0.00629 0.7604 0.0
C924 C 0.72349 0.02172 0.79863 0.0
C925 C 0.66177 0.03459 0.64051 0.0
N926 N 0.66485 0.05559 0.6502 0.0
C927 C 0.64081 0.0281 0.63125 0.0
C928 C 0.62291 0.04325 0.63201 0.0
C929 C 0.62615 0.06461 0.64199 0.0
C930 C 0.64733 0.07049 0.65109 0.0
C931 C 0.688 0.11391 0.60975 0.0
C932 C 0.69812 0.11187 0.65929 0.0
C933 C 0.68824 0.09339 0.62225 0.0
N934 N 0.69316 0.09257 0.64674 0.0
C935 C 0.69802 0.1327 0.64739 0.0
C936 C 0.69291 0.13368 0.62246 0.0
C937 C 0.73563 0.06648 0.69593 0.0
C938 C 0.72461 0.97013 0.68485 0.0
C939 C 0.74324 0.00397 0.71329 0.0
C940 C 0.75648 0.98557 0.70644 0.0
C941 C 0.74706 0.96857 0.69211 0.0
N942 N 0.72124 0.00539 0.70608 0.0
C943 C 0.71188 0.98876 0.69207 0.0
H944 H 0.484 0.15554 0.24803 0.0
H945 H 0.45783 0.12688 0.26247 0.0
H946 H 0.48078 0.08165 0.20574 0.0
H947 H 0.50789 0.11007 0.19191 0.0
H948 H 0.42361 0.10842 0.24469 0.0
H949 H 0.47438 0.02731 0.22272 0.0
H950 H 0.51398 0.01493 0.22019 0.0
H951 H 0.53345 0.06728 0.27023 0.0
H952 H 0.49395 0.07977 0.27331 0.0
H953 H 0.34962 0.01683 0.2512 0.0
H954 H 0.37837 0.04361 0.23831 0.0
H955 H 0.42078 0.02277 0.29847 0.0
H956 H 0.3923 0.99508 0.31086 0.0
H957 H 0.44593 0.02925 0.26056 0.0
H958 H 0.38914 0.07286 0.29977 0.0
H959 H 0.35067 0.08644 0.30818 0.0
H960 H 0.3456 0.11172 0.2346 0.0
H961 H 0.38394 0.098 0.22562 0.0
C962 C 0.48352 0.13948 0.23861 0.0
C963 C 0.49807 0.13505 0.21884 0.0
C964 C 0.46849 0.12308 0.24689 0.0
C965 C 0.46738 0.10192 0.23543 0.0
C966 C 0.48161 0.09761 0.21532 0.0
C967 C 0.49701 0.11391 0.2073 0.0
C968 C 0.45107 0.08467 0.24441 0.0
C969 C 0.42856 0.09112 0.24814 0.0
C970 C 0.45747 0.06216 0.24953 0.0
C971 C 0.48124 0.0546 0.24803 0.0
C972 C 0.48711 0.03612 0.23325 0.0
C973 C 0.50954 0.02909 0.23171 0.0
C974 C 0.52623 0.04036 0.24498 0.0
C975 C 0.52052 0.05862 0.25989 0.0
C976 C 0.49812 0.06569 0.26152 0.0
C977 C 0.36505 0.01794 0.26173 0.0
C978 C 0.3686 0.00398 0.2822 0.0
C979 C 0.38148 0.03334 0.25437 0.0
C980 C 0.40161 0.03562 0.26769 0.0
C981 C 0.40538 0.0214 0.28792 0.0
C982 C 0.38907 0.00564 0.29504 0.0
C983 C 0.41851 0.053 0.26057 0.0
C984 C 0.44105 0.04657 0.25713 0.0
C985 C 0.41235 0.07577 0.2566 0.0
C986 C 0.38935 0.08423 0.26197 0.0
C987 C 0.37977 0.08119 0.28533 0.0
C988 C 0.35799 0.08893 0.29021 0.0
C989 C 0.34568 0.09989 0.27192 0.0
C990 C 0.35515 0.1032 0.24874 0.0
C991 C 0.37691 0.09547 0.24375 0.0
H992 H 0.32882 0.10586 0.27573 0.0
H993 H 0.54359 0.03491 0.24374 0.0
H994 H 0.3967 0.50947 0.69421 0.0
H995 H 0.42533 0.48205 0.70681 0.0
H996 H 0.37976 0.45566 0.76136 0.0
H997 H 0.35096 0.4823 0.74828 0.0
H998 H 0.44803 0.47386 0.74635 0.0
H999 H 0.38621 0.40057 0.76935 0.0
H1000 H 0.34948 0.38609 0.7552 0.0
H1001 H 0.35966 0.41705 0.68489 0.0
H1002 H 0.39657 0.43142 0.69848 0.0
H1003 H 0.50769 0.3908 0.81428 0.0
H1004 H 0.48112 0.41944 0.79975 0.0
H1005 H 0.46317 0.3766 0.73877 0.0
H1006 H 0.48859 0.34763 0.75401 0.0
H1007 H 0.42764 0.39316 0.75394 0.0
H1008 H 0.4987 0.42577 0.73415 0.0
H1009 H 0.53737 0.43936 0.74152 0.0
H1010 H 0.51245 0.48777 0.79335 0.0
H1011 H 0.47364 0.47429 0.78649 0.0
C1012 C 0.3928 0.49776 0.70883 0.0
C1013 C 0.37147 0.49788 0.72004 0.0
C1014 C 0.4092 0.48215 0.71609 0.0
C1015 C 0.40463 0.4665 0.73479 0.0
C1016 C 0.38356 0.46714 0.74648 0.0
C1017 C 0.36709 0.48245 0.73901 0.0
C1018 C 0.42166 0.44927 0.74196 0.0
C1019 C 0.4436 0.4562 0.74796 0.0
C1020 C 0.41614 0.42611 0.74347 0.0
C1021 C 0.39406 0.41726 0.73505 0.0
C1022 C 0.38065 0.4042 0.75084 0.0
C1023 C 0.35979 0.39603 0.74292 0.0
C1024 C 0.35221 0.40071 0.71919 0.0
C1025 C 0.36551 0.4135 0.7033 0.0
C1026 C 0.38639 0.42169 0.71111 0.0
C1027 C 0.49802 0.38757 0.7978 0.0
C1028 C 0.50014 0.36697 0.78535 0.0
C1029 C 0.48295 0.404 0.78937 0.0
C1030 C 0.47025 0.40042 0.7679 0.0
C1031 C 0.47258 0.37984 0.75543 0.0
C1032 C 0.48718 0.36326 0.76415 0.0
C1033 C 0.45408 0.41769 0.75863 0.0
C1034 C 0.4322 0.41078 0.75229 0.0
C1035 C 0.45999 0.44069 0.75582 0.0
C1036 C 0.48329 0.44888 0.75996 0.0
C1037 C 0.50149 0.43922 0.74724 0.0
C1038 C 0.52343 0.44691 0.75131 0.0
C1039 C 0.52737 0.46438 0.76793 0.0
C1040 C 0.50937 0.47422 0.78049 0.0
C1041 C 0.4874 0.46658 0.7765 0.0
H1042 H 0.54436 0.47034 0.77104 0.0
H1043 H 0.33605 0.39439 0.71311 0.0
H1044 H 0.01774 0.34453 0.24804 0.0
H1045 H 0.04298 0.37388 0.26298 0.0
H1046 H 0.01642 0.41999 0.20904 0.0
H1047 H 0.99042 0.39086 0.19464 0.0
H1048 H 0.07587 0.39467 0.24447 0.0
H1049 H 0.01987 0.47334 0.22796 0.0
H1050 H 0.97955 0.48348 0.22808 0.0
H1051 H 0.96569 0.42929 0.278 0.0
H1052 H 0.00588 0.41889 0.27822 0.0
H1053 H 0.14564 0.48908 0.25006 0.0
H1054 H 0.11692 0.4622 0.23736 0.0
H1055 H 0.07762 0.47831 0.30158 0.0
H1056 H 0.10609 0.50605 0.31396 0.0
H1057 H 0.05039 0.4721 0.26447 0.0
H1058 H 0.11118 0.43051 0.29882 0.0
H1059 H 0.15075 0.41901 0.30449 0.0
H1060 H 0.15345 0.39603 0.22987 0.0
H1061 H 0.11399 0.40773 0.22363 0.0
C1062 C 0.01722 0.36093 0.23936 0.0
C1063 C 0.00202 0.36538 0.22018 0.0
C1064 C 0.03171 0.37772 0.24792 0.0
C1065 C 0.03152 0.39931 0.23739 0.0
C1066 C 0.01659 0.40368 0.21791 0.0
C1067 C 0.00182 0.38695 0.20957 0.0
C1068 C 0.0473 0.41698 0.24649 0.0
C1069 C 0.07023 0.41158 0.24884 0.0
C1070 C 0.04002 0.43896 0.25281 0.0
C1071 C 0.01584 0.44523 0.25292 0.0
C1072 C 0.00821 0.46363 0.23899 0.0
C1073 C 0.98537 0.46939 0.23896 0.0
C1074 C 0.97004 0.45697 0.25294 0.0
C1075 C 0.97753 0.43881 0.26705 0.0
C1076 C 1.00033 0.43294 0.26709 0.0
C1077 C 0.13085 0.487 0.26147 0.0
C1078 C 0.12825 0.49952 0.28317 0.0
C1079 C 0.11444 0.47155 0.2542 0.0
C1080 C 0.0953 0.4678 0.26877 0.0
C1081 C 0.09228 0.48081 0.29007 0.0
C1082 C 0.10858 0.49661 0.29717 0.0
C1083 C 0.07893 0.44982 0.26203 0.0
C1084 C 0.05595 0.45517 0.26012 0.0
C1085 C 0.08602 0.42751 0.25696 0.0
C1086 C 0.10968 0.42017 0.26071 0.0
C1087 C 0.12025 0.42312 0.28358 0.0
C1088 C 0.14266 0.41657 0.2869 0.0
C1089 C 0.15462 0.40684 0.26754 0.0
C1090 C 0.14417 0.40359 0.24484 0.0
C1091 C 0.12178 0.41016 0.24141 0.0
H1092 H 0.17196 0.40179 0.27014 0.0
H1093 H 0.95238 0.46146 0.2529 0.0
H1094 H 0.15263 0.01784 0.76031 0.0
H1095 H 0.12373 0.04422 0.77376 0.0
H1096 H 0.08468 0.02946 0.70891 0.0
H1097 H 0.11322 0.00219 0.69588 0.0
H1098 H 0.10963 0.08108 0.75709 0.0
H1099 H 0.02916 0.03777 0.71899 0.0
H1100 H 0.01499 0.99943 0.71078 0.0
H1101 H 0.0597 0.97266 0.76539 0.0
H1102 H 0.07391 0.01085 0.77415 0.0
H1103 H 0.02202 0.16017 0.75793 0.0
H1104 H 0.04874 0.13093 0.7462 0.0
H1105 H 0.01853 0.08542 0.79843 0.0
H1106 H 0.991 0.11445 0.80951 0.0
H1107 H 0.0281 0.063 0.75939 0.0
H1108 H 0.06961 0.11366 0.80985 0.0
H1109 H 0.08416 0.15039 0.82379 0.0
H1110 H 0.11846 0.15921 0.75513 0.0
H1111 H 0.10385 0.12265 0.74063 0.0
C1112 C 0.13784 0.02013 0.74893 0.0
C1113 C 0.13517 0.00789 0.72705 0.0
C1114 C 0.12132 0.03528 0.75664 0.0
C1115 C 0.10184 0.03878 0.74253 0.0
C1116 C 0.09927 0.02675 0.72046 0.0
C1117 C 0.11565 0.01124 0.71294 0.0
C1118 C 0.08462 0.05541 0.75075 0.0
C1119 C 0.09181 0.07706 0.75759 0.0
C1120 C 0.06136 0.05016 0.75198 0.0
C1121 C 0.05275 0.02715 0.74703 0.0
C1122 C 0.0359 0.02371 0.7293 0.0
C1123 C 0.02787 0.002 0.72454 0.0
C1124 C 0.03649 0.98362 0.7375 0.0
C1125 C 0.0531 0.98691 0.7553 0.0
C1126 C 0.06116 0.00857 0.76015 0.0
C1127 C 0.02106 0.14395 0.76696 0.0
C1128 C 0.00451 0.13967 0.7848 0.0
C1129 C 0.03642 0.12724 0.76029 0.0
C1130 C 0.036 0.10605 0.77175 0.0
C1131 C 0.01926 0.10163 0.78934 0.0
C1132 C 0.00358 0.11825 0.79573 0.0
C1133 C 0.05314 0.08867 0.76546 0.0
C1134 C 0.04593 0.06695 0.75892 0.0
C1135 C 0.07649 0.09358 0.76536 0.0
C1136 C 0.08547 0.1155 0.77408 0.0
C1137 C 0.08014 0.12349 0.79766 0.0
C1138 C 0.08841 0.14428 0.80567 0.0
C1139 C 0.10218 0.15715 0.79034 0.0
C1140 C 0.10777 0.14923 0.76698 0.0
C1141 C 0.09952 0.12847 0.75886 0.0
H1142 H 0.10856 0.17324 0.79657 0.0
H1143 H 0.03027 0.96683 0.73377 0.0
H1144 H 0.5199 0.84985 0.75462 0.0
H1145 H 0.54687 0.87854 0.74207 0.0
H1146 H 0.52525 0.9211 0.8018 0.0
H1147 H 0.49723 0.89274 0.81364 0.0
H1148 H 0.53271 0.94635 0.76483 0.0
H1149 H 0.57557 0.88877 0.80354 0.0
H1150 H 0.58877 0.85012 0.81168 0.0
H1151 H 0.61438 0.84541 0.73821 0.0
H1152 H 0.60104 0.88394 0.72951 0.0
H1153 H 0.65933 0.98337 0.75185 0.0
H1154 H 0.63049 0.9576 0.76676 0.0
H1155 H 0.58514 0.98055 0.71014 0.0
H1156 H 0.61378 0.00709 0.69568 0.0
H1157 H 0.61166 0.92335 0.74886 0.0
H1158 H 0.53146 0.97594 0.72746 0.0
H1159 H 0.51969 0.01581 0.7264 0.0
H1160 H 0.57175 0.03268 0.77792 0.0
H1161 H 0.58377 0.99298 0.77929 0.0
C1162 C 0.52088 0.86531 0.76511 0.0
C1163 C 0.50662 0.86896 0.78528 0.0
C1164 C 0.5364 0.8817 0.75797 0.0
C1165 C 0.53856 0.90184 0.77131 0.0
C1166 C 0.52401 0.9057 0.79123 0.0
C1167 C 0.50806 0.88946 0.79806 0.0
C1168 C 0.55615 0.91864 0.76451 0.0
C1169 C 0.54997 0.9413 0.76137 0.0
C1170 C 0.57889 0.9123 0.76061 0.0
C1171 C 0.58713 0.88918 0.76582 0.0
C1172 C 0.5839 0.87945 0.78907 0.0
C1173 C 0.59141 0.85756 0.79379 0.0
C1174 C 0.60236 0.8453 0.77546 0.0
C1175 C 0.60588 0.85493 0.75238 0.0
C1176 C 0.59836 0.8768 0.74755 0.0
C1177 C 0.64321 0.98299 0.74256 0.0
C1178 C 0.63884 0.99732 0.72258 0.0
C1179 C 0.6267 0.96819 0.75111 0.0
C1180 C 0.60548 0.9672 0.73979 0.0
C1181 C 0.60117 0.98129 0.71958 0.0
C1182 C 0.61761 0.99637 0.71121 0.0
C1183 C 0.58818 0.95101 0.74885 0.0
C1184 C 0.59441 0.92843 0.75235 0.0
C1185 C 0.56576 0.95762 0.75408 0.0
C1186 C 0.55864 0.98154 0.75327 0.0
C1187 C 0.54037 0.98818 0.73856 0.0
C1188 C 0.53369 0.01075 0.73786 0.0
C1189 C 0.54504 0.0268 0.75197 0.0
C1190 C 0.56307 0.02029 0.76684 0.0
C1191 C 0.56986 0.99777 0.76753 0.0
H1192 H 0.5398 0.04425 0.75146 0.0
H1193 H 0.60816 0.82836 0.77914 0.0
H1194 H 0.49289 0.60854 0.19175 0.0
H1195 H 0.52085 0.58108 0.20581 0.0
H1196 H 0.54083 0.62646 0.26375 0.0
H1197 H 0.51383 0.65424 0.24904 0.0
H1198 H 0.57607 0.60982 0.24666 0.0
H1199 H 0.50671 0.5774 0.27296 0.0
H1200 H 0.46788 0.56316 0.26882 0.0
H1201 H 0.49052 0.51272 0.21805 0.0
H1202 H 0.52946 0.52687 0.22164 0.0
H1203 H 0.61057 0.49557 0.30979 0.0
H1204 H 0.58145 0.52267 0.29774 0.0
H1205 H 0.62487 0.54773 0.2404 0.0
H1206 H 0.65428 0.52163 0.25318 0.0
H1207 H 0.5572 0.52938 0.25996 0.0
H1208 H 0.61655 0.60178 0.22841 0.0
H1209 H 0.65395 0.61719 0.23877 0.0
H1210 H 0.64859 0.59004 0.31153 0.0
H1211 H 0.61104 0.57474 0.30173 0.0
C1212 C 0.50327 0.6126 0.20748 0.0
C1213 C 0.50118 0.63355 0.21926 0.0
C1214 C 0.51917 0.59684 0.21563 0.0
C1215 C 0.53284 0.60148 0.23612 0.0
C1216 C 0.53063 0.62242 0.24787 0.0
C1217 C 0.51512 0.63831 0.23945 0.0
C1218 C 0.54976 0.58484 0.24514 0.0
C1219 C 0.57187 0.59224 0.24957 0.0
C1220 C 0.54434 0.56194 0.24955 0.0
C1221 C 0.52097 0.55334 0.2474 0.0
C1222 C 0.50338 0.56337 0.26079 0.0
C1223 C 0.48136 0.55531 0.25855 0.0
C1224 C 0.47673 0.53709 0.24313 0.0
C1225 C 0.49413 0.52686 0.22996 0.0
C1226 C 0.51619 0.53488 0.2321 0.0
C1227 C 0.6139 0.50699 0.29472 0.0
C1228 C 0.6348 0.50668 0.28264 0.0
C1229 C 0.59722 0.52241 0.28776 0.0
C1230 C 0.60102 0.5376 0.2684 0.0
C1231 C 0.62168 0.53673 0.25585 0.0
C1232 C 0.63849 0.52171 0.26313 0.0
C1233 C 0.58349 0.55437 0.26127 0.0
C1234 C 0.56133 0.54698 0.25711 0.0
C1235 C 0.58863 0.57749 0.25804 0.0
C1236 C 0.61107 0.58694 0.26424 0.0
C1237 C 0.62331 0.59919 0.24665 0.0
C1238 C 0.64455 0.60789 0.25242 0.0
C1239 C 0.65367 0.60454 0.27577 0.0
C1240 C 0.64154 0.59256 0.29343 0.0
C1241 C 0.62029 0.58386 0.28777 0.0
H1242 H 0.67013 0.61126 0.28019 0.0
H1243 H 0.45967 0.53086 0.24143 0.0
H1244 H 0.98842 0.64958 0.75091 0.0
H1245 H 0.96147 0.62112 0.73762 0.0
H1246 H 0.97748 0.58077 0.80115 0.0
H1247 H 0.00551 0.60882 0.81383 0.0
H1248 H 0.97174 0.55407 0.76506 0.0
H1249 H 0.92827 0.61481 0.79682 0.0
H1250 H 0.91588 0.65421 0.80148 0.0
H1251 H 0.89563 0.65578 0.72588 0.0
H1252 H 0.90819 0.61647 0.72067 0.0
H1253 H 0.84467 0.52102 0.74535 0.0
H1254 H 0.87373 0.54645 0.76035 0.0
H1255 H 0.92121 0.51784 0.70911 0.0
H1256 H 0.89226 0.49152 0.69476 0.0
H1257 H 0.89483 0.57851 0.74165 0.0
H1258 H 0.97508 0.52324 0.73025 0.0
H1259 H 0.98628 0.48328 0.73239 0.0
H1260 H 0.9295 0.46904 0.77861 0.0
H1261 H 0.91817 0.50897 0.77709 0.0
C1262 C 0.98621 0.63464 0.76207 0.0
C1263 C 0.99891 0.63152 0.78356 0.0
C1264 C 0.9707 0.61839 0.7545 0.0
C1265 C 0.96695 0.59896 0.76865 0.0
C1266 C 0.97996 0.59562 0.78992 0.0
C1267 C 0.99591 0.61168 0.79722 0.0
C1268 C 0.94931 0.58237 0.76131 0.0
C1269 C 0.95491 0.55941 0.75997 0.0
C1270 C 0.92713 0.58916 0.7552 0.0
C1271 C 0.91935 0.61275 0.75831 0.0
C1272 C 0.92129 0.6236 0.78115 0.0
C1273 C 0.91423 0.64591 0.7839 0.0
C1274 C 0.90502 0.65751 0.76398 0.0
C1275 C 0.90279 0.64679 0.74129 0.0
C1276 C 0.90986 0.62448 0.73843 0.0
C1277 C 0.8613 0.52008 0.73726 0.0
C1278 C 0.86615 0.50423 0.71885 0.0
C1279 C 0.87795 0.53469 0.74586 0.0
C1280 C 0.89982 0.53404 0.73609 0.0
C1281 C 0.90464 0.51842 0.71739 0.0
C1282 C 0.88804 0.50347 0.70906 0.0
C1283 C 0.91724 0.55014 0.74517 0.0
C1284 C 0.91162 0.57308 0.74676 0.0
C1285 C 0.93909 0.54317 0.75242 0.0
C1286 C 0.94566 0.51907 0.75333 0.0
C1287 C 0.96502 0.51159 0.74091 0.0
C1288 C 0.97139 0.48895 0.74203 0.0
C1289 C 0.9586 0.47364 0.75561 0.0
C1290 C 0.93937 0.48092 0.76807 0.0
C1291 C 0.93295 0.50355 0.76705 0.0
H1292 H 0.96364 0.45614 0.75653 0.0
H1293 H 0.89957 0.67479 0.76614 0.0
H1294 H 0.89402 0.01289 0.30426 0.0
H1295 H 0.92243 0.98688 0.28812 0.0
H1296 H 0.87366 0.96044 0.23691 0.0
H1297 H 0.84512 0.98551 0.2537 0.0
H1298 H 0.89441 0.92761 0.25401 0.0
H1299 H 0.91862 0.99742 0.22044 0.0
H1300 H 0.93037 0.03726 0.22011 0.0
H1301 H 0.98744 0.02116 0.26518 0.0
H1302 H 0.97583 0.98127 0.26613 0.0
H1303 H 0.00452 0.89485 0.18217 0.0
H1304 H 0.97724 0.92382 0.19451 0.0
H1305 H 0.96013 0.88456 0.25848 0.0
H1306 H 0.98635 0.85534 0.24568 0.0
H1307 H 0.97173 0.95108 0.23096 0.0
H1308 H 0.90669 0.88916 0.27397 0.0
H1309 H 0.8935 0.85016 0.26791 0.0
H1310 H 0.91459 0.85247 0.19262 0.0
H1311 H 0.9276 0.89158 0.19812 0.0
C1312 C 0.88941 0.00151 0.28955 0.0
C1313 C 0.8673 0.00118 0.28035 0.0
C1314 C 0.90571 0.98675 0.2802 0.0
C1315 C 0.90036 0.97177 0.26103 0.0
C1316 C 0.87829 0.97167 0.25174 0.0
C1317 C 0.86194 0.98607 0.26138 0.0
C1318 C 0.91736 0.95563 0.25114 0.0
C1319 C 0.91129 0.93284 0.24896 0.0
C1320 C 0.93929 0.96236 0.24389 0.0
C1321 C 0.94624 0.98637 0.24353 0.0
C1322 C 0.93357 0.0024 0.23046 0.0
C1323 C 0.94022 0.02499 0.23013 0.0
C1324 C 0.95963 0.03173 0.24262 0.0
C1325 C 0.97241 0.01591 0.25551 0.0
C1326 C 0.9658 0.9933 0.25595 0.0
C1327 C 0.99485 0.89244 0.19881 0.0
C1328 C 0.9973 0.87267 0.21273 0.0
C1329 C 0.97933 0.90903 0.20591 0.0
C1330 C 0.96621 0.90622 0.22719 0.0
C1331 C 0.96947 0.88689 0.2416 0.0
C1332 C 0.98455 0.87018 0.23428 0.0
C1333 C 0.94881 0.92313 0.23426 0.0
C1334 C 0.95481 0.94597 0.23595 0.0
C1335 C 0.92648 0.91665 0.24015 0.0
C1336 C 0.9183 0.89325 0.23654 0.0
C1337 C 0.9084 0.88139 0.25609 0.0
C1338 C 0.90097 0.85925 0.25275 0.0
C1339 C 0.90326 0.84882 0.22991 0.0
C1340 C 0.91289 0.86054 0.21032 0.0
C1341 C 0.9203 0.88269 0.21355 0.0
H1342 H 0.89754 0.83167 0.22739 0.0
H1343 H 0.96482 0.0492 0.24225 0.0
H1344 H 0.55483 0.26293 0.23108 0.0
H1345 H 0.57316 0.29818 0.24201 0.0
H1346 H 0.61678 0.2922 0.17906 0.0
H1347 H 0.59804 0.25709 0.16752 0.0
H1348 H 0.61425 0.30494 0.25558 0.0
H1349 H 0.63399 0.34449 0.16059 0.0
H1350 H 0.61747 0.34606 0.11909 0.0
H1351 H 0.55172 0.33406 0.14914 0.0
H1352 H 0.56779 0.33274 0.19083 0.0
H1353 H 0.69527 0.38646 0.27615 0.0
H1354 H 0.67586 0.35555 0.25546 0.0
H1355 H 0.62216 0.40077 0.23491 0.0
H1356 H 0.64233 0.43212 0.25453 0.0
H1357 H 0.62759 0.36994 0.20023 0.0
H1358 H 0.61874 0.36824 0.28798 0.0
H1359 H 0.63268 0.36877 0.33062 0.0
H1360 H 0.67024 0.30823 0.31743 0.0
H1361 H 0.65656 0.30733 0.27468 0.0
C1362 C 0.5681 0.2692 0.21929 0.0
C1363 C 0.5749 0.25711 0.19836 0.0
C1364 C 0.57864 0.28937 0.22566 0.0
C1365 C 0.59632 0.29794 0.21136 0.0
C1366 C 0.60295 0.28614 0.1902 0.0
C1367 C 0.59225 0.266 0.18367 0.0
C1368 C 0.60852 0.31853 0.21943 0.0
C1369 C 0.61709 0.31913 0.24343 0.0
C1370 C 0.61203 0.33725 0.20377 0.0
C1371 C 0.60215 0.33828 0.1788 0.0
C1372 C 0.616 0.34228 0.15834 0.0
C1373 C 0.60671 0.34311 0.13479 0.0
C1374 C 0.58357 0.34009 0.13148 0.0
C1375 C 0.56965 0.33631 0.15172 0.0
C1376 C 0.57885 0.33548 0.17531 0.0
C1377 C 0.67956 0.38987 0.26672 0.0
C1378 C 0.67013 0.41153 0.26703 0.0
C1379 C 0.66843 0.37221 0.25502 0.0
C1380 C 0.64722 0.37568 0.24427 0.0
C1381 C 0.63843 0.39766 0.24321 0.0
C1382 C 0.64992 0.41553 0.2544 0.0
C1383 C 0.63349 0.35611 0.23618 0.0
C1384 C 0.62468 0.3557 0.21228 0.0
C1385 C 0.62918 0.33776 0.25212 0.0
C1386 C 0.63673 0.33779 0.2781 0.0
C1387 C 0.62998 0.35505 0.29417 0.0
C1388 C 0.63786 0.35544 0.31834 0.0
C1389 C 0.65243 0.33863 0.32668 0.0
C1390 C 0.65898 0.32126 0.31093 0.0
C1391 C 0.65111 0.32075 0.28676 0.0
H1392 H 0.65858 0.33903 0.34537 0.0
H1393 H 0.57642 0.34072 0.11322 0.0
H1394 H 0.24544 0.58816 0.66076 0.0
H1395 H 0.20855 0.60492 0.66941 0.0
H1396 H 0.21202 0.58009 0.74372 0.0
H1397 H 0.24813 0.56274 0.73506 0.0
H1398 H 0.17165 0.57431 0.72768 0.0
H1399 H 0.22501 0.6362 0.72642 0.0
H1400 H 0.25388 0.66038 0.70732 0.0
H1401 H 0.20726 0.67882 0.65054 0.0
H1402 H 0.17821 0.65447 0.66914 0.0
H1403 H 0.11497 0.64958 0.80447 0.0
H1404 H 0.14373 0.63044 0.78058 0.0
H1405 H 0.10906 0.6477 0.71372 0.0
H1406 H 0.07953 0.66667 0.73767 0.0
H1407 H 0.15988 0.65645 0.71695 0.0
H1408 H 0.10435 0.59822 0.7252 0.0
H1409 H 0.07673 0.57537 0.74802 0.0
H1410 H 0.12917 0.55126 0.79547 0.0
H1411 H 0.15706 0.57425 0.77318 0.0
C1412 C 0.23826 0.5862 0.6789 0.0
C1413 C 0.24984 0.57416 0.69722 0.0
C1414 C 0.2172 0.59585 0.68384 0.0
C1415 C 0.20755 0.59398 0.70732 0.0
C1416 C 0.21899 0.58171 0.72544 0.0
C1417 C 0.23979 0.57185 0.72045 0.0
C1418 C 0.18587 0.60514 0.71364 0.0
C1419 C 0.16912 0.59227 0.72525 0.0
C1420 C 0.1822 0.6285 0.70999 0.0
C1421 C 0.19955 0.64332 0.69898 0.0
C1422 C 0.22098 0.6453 0.70977 0.0
C1423 C 0.23737 0.65904 0.69905 0.0
C1424 C 0.23244 0.67107 0.67768 0.0
C1425 C 0.21108 0.66945 0.66705 0.0
C1426 C 0.19464 0.65569 0.67768 0.0
C1427 C 0.11321 0.64924 0.78472 0.0
C1428 C 0.09473 0.65951 0.77305 0.0
C1429 C 0.12976 0.63831 0.77109 0.0
C1430 C 0.12843 0.6376 0.74545 0.0
C1431 C 0.11029 0.64807 0.73354 0.0
C1432 C 0.09342 0.65878 0.74726 0.0
C1433 C 0.14623 0.62569 0.73157 0.0
C1434 C 0.16222 0.6384 0.71867 0.0
C1435 C 0.14943 0.60225 0.73438 0.0
C1436 C 0.13278 0.58806 0.74757 0.0
C1437 C 0.10998 0.58816 0.74059 0.0
C1438 C 0.09427 0.57517 0.75342 0.0
C1439 C 0.10119 0.56189 0.7732 0.0
C1440 C 0.12384 0.56154 0.78014 0.0
C1441 C 0.13961 0.57453 0.76739 0.0
H1442 H 0.089 0.55186 0.78312 0.0
H1443 H 0.24515 0.68169 0.66939 0.0
H1444 H 0.84335 0.07165 0.24313 0.0
H1445 H 0.8617 0.10109 0.21851 0.0
H1446 H 0.84025 0.15129 0.27069 0.0
H1447 H 0.8221 0.12231 0.29518 0.0
H1448 H 0.83628 0.16647 0.22352 0.0
H1449 H 0.89104 0.12992 0.27576 0.0
H1450 H 0.91128 0.09666 0.2915 0.0
H1451 H 0.93711 0.08321 0.2194 0.0
H1452 H 0.91667 0.11624 0.20315 0.0
H1453 H 0.9427 0.23816 0.22911 0.0
H1454 H 0.92333 0.20296 0.23773 0.0
H1455 H 0.88775 0.20799 0.16895 0.0
H1456 H 0.90673 0.24372 0.16034 0.0
H1457 H 0.9196 0.16239 0.2178 0.0
H1458 H 0.83411 0.18908 0.17793 0.0
H1459 H 0.81358 0.22386 0.16716 0.0
H1460 H 0.84962 0.26011 0.2229 0.0
H1461 H 0.8701 0.22549 0.23421 0.0
C1462 C 0.84229 0.08901 0.24911 0.0
C1463 C 0.83146 0.0946 0.27124 0.0
C1464 C 0.85279 0.10578 0.23507 0.0
C1465 C 0.8524 0.12835 0.24285 0.0
C1466 C 0.84069 0.13401 0.26428 0.0
C1467 C 0.83045 0.11734 0.27838 0.0
C1468 C 0.86562 0.14603 0.23011 0.0
C1469 C 0.85446 0.16543 0.22184 0.0
C1470 C 0.88937 0.14485 0.22841 0.0
C1471 C 0.90214 0.12537 0.2382 0.0
C1472 C 0.90093 0.11979 0.26324 0.0
C1473 C 0.91243 0.10099 0.27225 0.0
C1474 C 0.92541 0.08779 0.25644 0.0
C1475 C 0.927 0.09343 0.2316 0.0
C1476 C 0.91547 0.11219 0.22248 0.0
C1477 C 0.93092 0.23178 0.21563 0.0
C1478 C 0.9261 0.24401 0.19413 0.0
C1479 C 0.91994 0.21149 0.22055 0.0
C1480 C 0.90391 0.2029 0.20413 0.0
C1481 C 0.89985 0.21444 0.18205 0.0
C1482 C 0.91074 0.23487 0.17716 0.0
C1483 C 0.89027 0.18296 0.2113 0.0
C1484 C 0.90136 0.16317 0.21867 0.0
C1485 C 0.86647 0.18401 0.21282 0.0
C1486 C 0.8538 0.20477 0.20668 0.0
C1487 C 0.83756 0.20446 0.18794 0.0
C1488 C 0.82595 0.22414 0.18174 0.0
C1489 C 0.83037 0.2442 0.19426 0.0
C1490 C 0.84628 0.24459 0.21315 0.0
C1491 C 0.85789 0.22494 0.21946 0.0
H1492 H 0.82142 0.25943 0.18938 0.0
H1493 H 0.93426 0.07323 0.26346 0.0
H1494 H 0.26394 0.94932 0.73811 0.0
H1495 H 0.29868 0.92927 0.74728 0.0
H1496 H 0.28519 0.88266 0.68838 0.0
H1497 H 0.25049 0.90296 0.67865 0.0
H1498 H 0.30389 0.88764 0.7625 0.0
H1499 H 0.33551 0.86236 0.66644 0.0
H1500 H 0.33289 0.87594 0.62374 0.0
H1501 H 0.32523 0.94384 0.6495 0.0
H1502 H 0.3281 0.93071 0.69231 0.0
H1503 H 0.38623 0.80696 0.7806 0.0
H1504 H 0.35443 0.82521 0.76032 0.0
H1505 H 0.39791 0.87941 0.73709 0.0
H1506 H 0.43017 0.86048 0.75651 0.0
H1507 H 0.36509 0.87136 0.70308 0.0
H1508 H 0.36776 0.88409 0.79135 0.0
H1509 H 0.36999 0.87148 0.83444 0.0
H1510 H 0.31018 0.83189 0.82488 0.0
H1511 H 0.30743 0.84442 0.7818 0.0
C1512 C 0.26838 0.93494 0.72691 0.0
C1513 C 0.25438 0.92782 0.70758 0.0
C1514 C 0.28827 0.92345 0.73224 0.0
C1515 C 0.29464 0.90454 0.71844 0.0
C1516 C 0.28081 0.89742 0.69903 0.0
C1517 C 0.26092 0.90902 0.69355 0.0
C1518 C 0.31526 0.89185 0.72524 0.0
C1519 C 0.31724 0.88413 0.74946 0.0
C1520 C 0.33275 0.88729 0.70828 0.0
C1521 C 0.33183 0.8955 0.68259 0.0
C1522 C 0.33342 0.8802 0.66298 0.0
C1523 C 0.33185 0.88782 0.63876 0.0
C1524 C 0.32883 0.91073 0.63391 0.0
C1525 C 0.3275 0.92609 0.65328 0.0
C1526 C 0.32908 0.91857 0.67752 0.0
C1527 C 0.38908 0.82252 0.77068 0.0
C1528 C 0.4105 0.83251 0.77028 0.0
C1529 C 0.37092 0.83296 0.75916 0.0
C1530 C 0.37367 0.85398 0.74777 0.0
C1531 C 0.39539 0.86325 0.74589 0.0
C1532 C 0.41377 0.85248 0.75697 0.0
C1533 C 0.35359 0.8672 0.74029 0.0
C1534 C 0.35169 0.87493 0.71602 0.0
C1535 C 0.33619 0.87208 0.75725 0.0
C1536 C 0.33747 0.86508 0.78334 0.0
C1537 C 0.3551 0.87269 0.79845 0.0
C1538 C 0.35647 0.86555 0.82284 0.0
C1539 C 0.34036 0.85078 0.83233 0.0
C1540 C 0.32268 0.8433 0.8175 0.0
C1541 C 0.32113 0.8505 0.79313 0.0
H1542 H 0.34152 0.84521 0.85119 0.0
H1543 H 0.32755 0.91657 0.61516 0.0
H1544 H 0.58819 0.23813 0.84363 0.0
H1545 H 0.60501 0.2016 0.83373 0.0
H1546 H 0.57708 0.20535 0.76076 0.0
H1547 H 0.55966 0.24122 0.77066 0.0
H1548 H 0.5742 0.16401 0.7765 0.0
H1549 H 0.6325 0.22107 0.77488 0.0
H1550 H 0.65524 0.25154 0.79314 0.0
H1551 H 0.67934 0.20607 0.84848 0.0
H1552 H 0.65642 0.17542 0.83077 0.0
H1553 H 0.64817 0.10727 0.69767 0.0
H1554 H 0.62763 0.13554 0.72098 0.0
H1555 H 0.65413 0.10849 0.78845 0.0
H1556 H 0.67474 0.07969 0.76517 0.0
H1557 H 0.65727 0.15714 0.78317 0.0
H1558 H 0.60284 0.09814 0.77786 0.0
H1559 H 0.58082 0.06888 0.75663 0.0
H1560 H 0.54987 0.11924 0.71131 0.0
H1561 H 0.57215 0.1488 0.73183 0.0
C1562 C 0.58542 0.23105 0.82556 0.0
C1563 C 0.57271 0.24277 0.80789 0.0
C1564 C 0.59512 0.2102 0.81991 0.0
C1565 C 0.59261 0.20086 0.79636 0.0
C1566 C 0.57927 0.21216 0.77905 0.0
C1567 C 0.56939 0.23281 0.78474 0.0
C1568 C 0.6047 0.17999 0.78902 0.0
C1569 C 0.59236 0.16254 0.77796 0.0
C1570 C 0.62837 0.17778 0.79139 0.0
C1571 C 0.64255 0.19604 0.80169 0.0
C1572 C 0.64256 0.21761 0.79102 0.0
C1573 C 0.65547 0.23491 0.80127 0.0
C1574 C 0.66867 0.23076 0.822 0.0
C1575 C 0.66906 0.20927 0.83246 0.0
C1576 C 0.65611 0.19193 0.82233 0.0
C1577 C 0.6496 0.10714 0.71746 0.0
C1578 C 0.66306 0.09109 0.72953 0.0
C1579 C 0.63779 0.12334 0.73076 0.0
C1580 C 0.63926 0.124 0.75641 0.0
C1581 C 0.65276 0.10818 0.76864 0.0
C1582 C 0.66441 0.0917 0.75532 0.0
C1583 C 0.62679 0.14159 0.77009 0.0
C1584 C 0.63906 0.15841 0.78226 0.0
C1585 C 0.60309 0.14339 0.76841 0.0
C1586 C 0.58929 0.1257 0.75633 0.0
C1587 C 0.59146 0.10298 0.76326 0.0
C1588 C 0.57891 0.08633 0.75136 0.0
C1589 C 0.56394 0.09218 0.73265 0.0
C1590 C 0.56147 0.11472 0.72582 0.0
C1591 C 0.57406 0.13145 0.73758 0.0
H1592 H 0.55425 0.07925 0.72345 0.0
H1593 H 0.67863 0.24418 0.82994 0.0
H1594 H 0.42622 0.64999 0.25591 0.0
H1595 H 0.39643 0.62946 0.27789 0.0
H1596 H 0.34708 0.65547 0.22721 0.0
H1597 H 0.37645 0.67533 0.20502 0.0
H1598 H 0.35653 0.63967 0.30122 0.0
H1599 H 0.31281 0.61564 0.20948 0.0
H1600 H 0.32367 0.60861 0.16646 0.0
H1601 H 0.39001 0.58927 0.18969 0.0
H1602 H 0.3795 0.59599 0.23279 0.0
H1603 H 0.24338 0.60489 0.32143 0.0
H1604 H 0.27927 0.62236 0.31027 0.0
H1605 H 0.30166 0.55942 0.27897 0.0
H1606 H 0.26548 0.54236 0.28895 0.0
H1607 H 0.31039 0.58938 0.24864 0.0
H1608 H 0.32407 0.58329 0.33411 0.0
H1609 H 0.31637 0.58728 0.37834 0.0
H1610 H 0.31547 0.65926 0.37088 0.0
H1611 H 0.32281 0.6557 0.32651 0.0
C1612 C 0.40897 0.65146 0.24965 0.0
C1613 C 0.40377 0.66397 0.22846 0.0
C1614 C 0.39198 0.63979 0.26225 0.0
C1615 C 0.36961 0.6406 0.25389 0.0
C1616 C 0.36429 0.6542 0.23368 0.0
C1617 C 0.38116 0.66556 0.22098 0.0
C1618 C 0.35183 0.62622 0.26492 0.0
C1619 C 0.34646 0.62856 0.28985 0.0
C1620 C 0.33919 0.61118 0.25023 0.0
C1621 C 0.34539 0.60646 0.22435 0.0
C1622 C 0.32967 0.60975 0.20541 0.0
C1623 C 0.33579 0.60588 0.181 0.0
C1624 C 0.35755 0.59859 0.17532 0.0
C1625 C 0.3732 0.59504 0.19406 0.0
C1626 C 0.36718 0.59889 0.21848 0.0
C1627 C 0.25609 0.59475 0.31242 0.0
C1628 C 0.25155 0.57232 0.30585 0.0
C1629 C 0.27669 0.6047 0.30617 0.0
C1630 C 0.29336 0.59221 0.29387 0.0
C1631 C 0.28909 0.56952 0.28826 0.0
C1632 C 0.26837 0.55975 0.294 0.0
C1633 C 0.31446 0.60314 0.28503 0.0
C1634 C 0.32048 0.60021 0.26031 0.0
C1635 C 0.32809 0.61696 0.30021 0.0
C1636 C 0.32383 0.61921 0.32693 0.0
C1637 C 0.32208 0.59997 0.34186 0.0
C1638 C 0.3178 0.60215 0.36696 0.0
C1639 C 0.31539 0.6235 0.3774 0.0
C1640 C 0.31732 0.64272 0.36276 0.0
C1641 C 0.32157 0.64063 0.33764 0.0
H1642 H 0.31207 0.62516 0.39684 0.0
H1643 H 0.36227 0.59565 0.15642 0.0
H1644 H 0.84349 0.43214 0.75813 0.0
H1645 H 0.86337 0.40281 0.78128 0.0
H1646 H 0.84072 0.35284 0.7294 0.0
H1647 H 0.8208 0.38174 0.70642 0.0
H1648 H 0.83946 0.33642 0.77541 0.0
H1649 H 0.89141 0.37547 0.72294 0.0
H1650 H 0.91009 0.4094 0.70666 0.0
H1651 H 0.93746 0.42359 0.77793 0.0
H1652 H 0.91859 0.38988 0.79473 0.0
H1653 H 0.94834 0.2684 0.77324 0.0
H1654 H 0.92845 0.30301 0.76299 0.0
H1655 H 0.8921 0.29948 0.83137 0.0
H1656 H 0.91156 0.26447 0.84162 0.0
H1657 H 0.92252 0.34439 0.78115 0.0
H1658 H 0.83732 0.31379 0.81993 0.0
H1659 H 0.81852 0.278 0.83056 0.0
H1660 H 0.85844 0.24316 0.77697 0.0
H1661 H 0.87715 0.27879 0.76572 0.0
C1662 C 0.84248 0.41485 0.75187 0.0
C1663 C 0.83076 0.40935 0.73026 0.0
C1664 C 0.85388 0.39813 0.76509 0.0
C1665 C 0.85366 0.37568 0.75693 0.0
C1666 C 0.84109 0.37003 0.73606 0.0
C1667 C 0.82983 0.38666 0.72283 0.0
C1668 C 0.86782 0.35821 0.7688 0.0
C1669 C 0.85758 0.33829 0.77701 0.0
C1670 C 0.89153 0.36041 0.77028 0.0
C1671 C 0.9034 0.38031 0.76015 0.0
C1672 C 0.90132 0.38589 0.73517 0.0
C1673 C 0.91193 0.40508 0.72584 0.0
C1674 C 0.92489 0.41868 0.74127 0.0
C1675 C 0.92737 0.41306 0.76602 0.0
C1676 C 0.91672 0.39391 0.77546 0.0
C1677 C 0.93635 0.27507 0.78632 0.0
C1678 C 0.93133 0.26339 0.80811 0.0
C1679 C 0.92507 0.295 0.78046 0.0
C1680 C 0.90856 0.30368 0.79624 0.0
C1681 C 0.90456 0.2929 0.81876 0.0
C1682 C 0.91575 0.27289 0.8246 0.0
C1683 C 0.89413 0.32263 0.78794 0.0
C1684 C 0.90434 0.34276 0.78022 0.0
C1685 C 0.87044 0.32032 0.78613 0.0
C1686 C 0.8588 0.29892 0.79222 0.0
C1687 C 0.84199 0.29851 0.81034 0.0
C1688 C 0.83136 0.27825 0.81647 0.0
C1689 C 0.83733 0.25832 0.80449 0.0
C1690 C 0.85387 0.2586 0.78627 0.0
C1691 C 0.86448 0.27882 0.78001 0.0
H1692 H 0.8291 0.24266 0.80929 0.0
H1693 H 0.93305 0.43355 0.73399 0.0
H1694 H 0.11899 0.83297 0.19605 0.0
H1695 H 0.14935 0.85064 0.21899 0.0
H1696 H 0.10342 0.86589 0.27796 0.0
H1697 H 0.07263 0.84814 0.25502 0.0
H1698 H 0.13043 0.90196 0.26605 0.0
H1699 H 0.13995 0.8245 0.2856 0.0
H1700 H 0.14356 0.78378 0.27768 0.0
H1701 H 0.20362 0.79558 0.23579 0.0
H1702 H 0.20018 0.83643 0.24309 0.0
H1703 H 0.24814 0.90352 0.33281 0.0
H1704 H 0.21254 0.88489 0.32279 0.0
H1705 H 0.20487 0.9279 0.2596 0.0
H1706 H 0.24018 0.94669 0.26945 0.0
H1707 H 0.20172 0.86099 0.28242 0.0
H1708 H 0.14979 0.93829 0.24948 0.0
H1709 H 0.146 0.97865 0.25935 0.0
H1710 H 0.16954 0.96619 0.33258 0.0
H1711 H 0.17315 0.92571 0.32328 0.0
C1712 C 0.1152 0.84003 0.21389 0.0
C1713 C 0.09328 0.83907 0.22367 0.0
C1714 C 0.13268 0.85005 0.22705 0.0
C1715 C 0.12871 0.85934 0.2503 0.0
C1716 C 0.10684 0.85872 0.26007 0.0
C1717 C 0.08929 0.84855 0.24694 0.0
C1718 C 0.14749 0.87002 0.26397 0.0
C1719 C 0.14596 0.89298 0.26981 0.0
C1720 C 0.16759 0.85817 0.2693 0.0
C1721 C 0.16972 0.83358 0.2648 0.0
C1722 C 0.15383 0.81845 0.27453 0.0
C1723 C 0.15586 0.79533 0.27018 0.0
C1724 C 0.17381 0.78711 0.25626 0.0
C1725 C 0.18974 0.80198 0.2466 0.0
C1726 C 0.18776 0.82512 0.25086 0.0
C1727 C 0.23876 0.90922 0.31694 0.0
C1728 C 0.24705 0.92672 0.30202 0.0
C1729 C 0.21845 0.89848 0.3112 0.0
C1730 C 0.20593 0.90515 0.2906 0.0
C1731 C 0.21404 0.92272 0.27583 0.0
C1732 C 0.23433 0.9334 0.28147 0.0
C1733 C 0.18495 0.89313 0.28367 0.0
C1734 C 0.18608 0.86991 0.27902 0.0
C1735 C 0.16442 0.90469 0.2797 0.0
C1736 C 0.16188 0.92897 0.28561 0.0
C1737 C 0.15402 0.94413 0.26774 0.0
C1738 C 0.15194 0.96704 0.27322 0.0
C1739 C 0.15758 0.97498 0.29655 0.0
C1740 C 0.16524 0.96002 0.31449 0.0
C1741 C 0.16733 0.9371 0.30911 0.0
H1742 H 0.15598 0.99273 0.30075 0.0
H1743 H 0.17542 0.7692 0.25301 0.0
H1744 H 0.35097 0.61393 0.69681 0.0
H1745 H 0.37102 0.64247 0.72024 0.0
H1746 H 0.35603 0.60719 0.78735 0.0
H1747 H 0.33626 0.57788 0.76389 0.0
H1748 H 0.34793 0.65941 0.7837 0.0
H1749 H 0.40377 0.60093 0.77523 0.0
H1750 H 0.42487 0.57234 0.75184 0.0
H1751 H 0.45018 0.6237 0.70373 0.0
H1752 H 0.42891 0.65255 0.7266 0.0
H1753 H 0.41909 0.73972 0.8422 0.0
H1754 H 0.40197 0.70331 0.83243 0.0
H1755 H 0.42735 0.70808 0.75844 0.0
H1756 H 0.44513 0.74383 0.76823 0.0
H1757 H 0.43062 0.66668 0.77296 0.0
H1758 H 0.3725 0.72357 0.77515 0.0
H1759 H 0.35054 0.75387 0.7948 0.0
H1760 H 0.32824 0.70775 0.8504 0.0
H1761 H 0.35042 0.67727 0.83131 0.0
C1762 C 0.35195 0.61203 0.71651 0.0
C1763 C 0.34219 0.59339 0.7284 0.0
C1764 C 0.36338 0.62845 0.72988 0.0
C1765 C 0.36503 0.62684 0.75544 0.0
C1766 C 0.3549 0.60865 0.76758 0.0
C1767 C 0.34373 0.5919 0.75414 0.0
C1768 C 0.37789 0.64416 0.769 0.0
C1769 C 0.36608 0.66077 0.78197 0.0
C1770 C 0.40144 0.64612 0.76606 0.0
C1771 C 0.41462 0.62888 0.75255 0.0
C1772 C 0.4137 0.6061 0.75956 0.0
C1773 C 0.42572 0.58985 0.74641 0.0
C1774 C 0.43883 0.59619 0.72628 0.0
C1775 C 0.44001 0.61881 0.71932 0.0
C1776 C 0.42801 0.63512 0.7324 0.0
C1777 C 0.42123 0.73289 0.82393 0.0
C1778 C 0.43333 0.74485 0.80595 0.0
C1779 C 0.41136 0.7121 0.81835 0.0
C1780 C 0.41304 0.7031 0.79457 0.0
C1781 C 0.4258 0.71463 0.77692 0.0
C1782 C 0.43589 0.7352 0.78254 0.0
C1783 C 0.40067 0.68235 0.78739 0.0
C1784 C 0.41255 0.66511 0.7754 0.0
C1785 C 0.3771 0.68006 0.79085 0.0
C1786 C 0.36332 0.69822 0.80198 0.0
C1787 C 0.36301 0.71993 0.79164 0.0
C1788 C 0.35053 0.73713 0.80268 0.0
C1789 C 0.33806 0.73275 0.82387 0.0
C1790 C 0.33795 0.71113 0.83401 0.0
C1791 C 0.35048 0.69389 0.8231 0.0
H1792 H 0.32843 0.7461 0.83241 0.0
H1793 H 0.4481 0.58359 0.71611 0.0
H1794 H 0.88757 0.34621 0.19554 0.0
H1795 H 0.85982 0.36742 0.21875 0.0
H1796 H 0.89421 0.35122 0.28608 0.0
H1797 H 0.92287 0.3303 0.2628 0.0
H1798 H 0.84153 0.34513 0.28168 0.0
H1799 H 0.90237 0.39803 0.27415 0.0
H1800 H 0.93223 0.41777 0.25132 0.0
H1801 H 0.88274 0.44675 0.20338 0.0
H1802 H 0.85258 0.42663 0.22549 0.0
H1803 H 0.76344 0.41864 0.3393 0.0
H1804 H 0.79947 0.40072 0.32982 0.0
H1805 H 0.79584 0.42627 0.25583 0.0
H1806 H 0.76035 0.44483 0.26533 0.0
H1807 H 0.83756 0.42805 0.27094 0.0
H1808 H 0.77847 0.37218 0.27199 0.0
H1809 H 0.74711 0.35117 0.2909 0.0
H1810 H 0.79154 0.32686 0.34713 0.0
H1811 H 0.82308 0.34809 0.3288 0.0
C1812 C 0.88947 0.34716 0.21525 0.0
C1813 C 0.90771 0.33674 0.22723 0.0
C1814 C 0.87349 0.35927 0.22848 0.0
C1815 C 0.87509 0.36096 0.25403 0.0
C1816 C 0.8928 0.35011 0.26631 0.0
C1817 C 0.90916 0.33825 0.25297 0.0
C1818 C 0.85819 0.37451 0.26741 0.0
C1819 C 0.84091 0.36332 0.27998 0.0
C1820 C 0.85718 0.39813 0.26445 0.0
C1821 C 0.87521 0.41066 0.2514 0.0
C1822 C 0.89785 0.40845 0.25861 0.0
C1823 C 0.91484 0.41974 0.24582 0.0
C1824 C 0.9094 0.43353 0.22593 0.0
C1825 C 0.88693 0.43606 0.2188 0.0
C1826 C 0.86988 0.4247 0.23145 0.0
C1827 C 0.77044 0.42068 0.32109 0.0
C1828 C 0.75883 0.433 0.30301 0.0
C1829 C 0.79102 0.41035 0.31568 0.0
C1830 C 0.8002 0.41179 0.29198 0.0
C1831 C 0.78912 0.42488 0.27425 0.0
C1832 C 0.76872 0.43542 0.2797 0.0
C1833 C 0.82055 0.39869 0.28499 0.0
C1834 C 0.83842 0.40993 0.27336 0.0
C1835 C 0.8219 0.37505 0.28846 0.0
C1836 C 0.80306 0.36192 0.2992 0.0
C1837 C 0.78152 0.36246 0.28848 0.0
C1838 C 0.76371 0.35052 0.29909 0.0
C1839 C 0.76733 0.33773 0.32024 0.0
C1840 C 0.78876 0.33681 0.33078 0.0
C1841 C 0.80661 0.3488 0.3203 0.0
H1842 H 0.75353 0.3285 0.32843 0.0
H1843 H 0.92258 0.44227 0.21606 0.0
H1844 H 0.096 0.75502 0.83727 0.0
H1845 H 0.11456 0.79063 0.8264 0.0
H1846 H 0.08114 0.79005 0.75619 0.0
H1847 H 0.06247 0.75495 0.76676 0.0
H1848 H 0.12787 0.79666 0.75333 0.0
H1849 H 0.06329 0.82464 0.79862 0.0
H1850 H 0.03913 0.82781 0.83523 0.0
H1851 H 0.09507 0.85301 0.87694 0.0
H1852 H 0.11966 0.84967 0.84063 0.0
H1853 H 0.14296 0.90045 0.69836 0.0
H1854 H 0.12547 0.86821 0.71824 0.0
H1855 H 0.15737 0.88611 0.78663 0.0
H1856 H 0.17444 0.9191 0.7669 0.0
H1857 H 0.11589 0.87003 0.79491 0.0
H1858 H 0.17988 0.84553 0.74964 0.0
H1859 H 0.20494 0.84198 0.71378 0.0
H1860 H 0.15225 0.80912 0.67342 0.0
H1861 H 0.12671 0.81287 0.70885 0.0
C1862 C 0.09248 0.76257 0.81959 0.0
C1863 C 0.07776 0.75202 0.80289 0.0
C1864 C 0.10307 0.78292 0.81345 0.0
C1865 C 0.09923 0.79291 0.79047 0.0
C1866 C 0.08439 0.78256 0.77397 0.0
C1867 C 0.07368 0.76246 0.78013 0.0
C1868 C 0.11109 0.81376 0.78292 0.0
C1869 C 0.12516 0.81274 0.76231 0.0
C1870 C 0.10818 0.83453 0.79523 0.0
C1871 C 0.09337 0.83664 0.817 0.0
C1872 C 0.07049 0.83065 0.81566 0.0
C1873 C 0.05671 0.83252 0.83634 0.0
C1874 C 0.06558 0.84054 0.85842 0.0
C1875 C 0.08824 0.84676 0.85984 0.0
C1876 C 0.1021 0.84489 0.83921 0.0
C1877 C 0.14611 0.89773 0.71768 0.0
C1878 C 0.16032 0.91221 0.73096 0.0
C1879 C 0.13615 0.8792 0.72903 0.0
C1880 C 0.14059 0.87437 0.75377 0.0
C1881 C 0.15385 0.8894 0.76746 0.0
C1882 C 0.16359 0.90824 0.75616 0.0
C1883 C 0.13212 0.85307 0.76475 0.0
C1884 C 0.11883 0.85394 0.78605 0.0
C1885 C 0.13595 0.83201 0.75324 0.0
C1886 C 0.15133 0.8296 0.73189 0.0
C1887 C 0.17358 0.83768 0.73307 0.0
C1888 C 0.18787 0.83563 0.71281 0.0
C1889 C 0.18019 0.82532 0.69135 0.0
C1890 C 0.15818 0.81709 0.69007 0.0
C1891 C 0.14379 0.81916 0.71024 0.0
H1892 H 0.1913 0.82363 0.67573 0.0
H1893 H 0.05488 0.84198 0.87442 0.0
H1894 H 0.57275 0.14583 0.25116 0.0
H1895 H 0.60315 0.12619 0.2729 0.0
H1896 H 0.65225 0.16662 0.23451 0.0
H1897 H 0.62216 0.18533 0.21209 0.0
H1898 H 0.66521 0.12662 0.23248 0.0
H1899 H 0.63855 0.1732 0.2978 0.0
H1900 H 0.61048 0.1893 0.32614 0.0
H1901 H 0.59721 0.12354 0.35554 0.0
H1902 H 0.62499 0.10698 0.32711 0.0
H1903 H 0.74924 0.10162 0.33602 0.0
H1904 H 0.71443 0.12061 0.32375 0.0
H1905 H 0.69867 0.06547 0.27518 0.0
H1906 H 0.73361 0.04681 0.28663 0.0
H1907 H 0.66941 0.11361 0.32226 0.0
H1908 H 0.68152 0.0858 0.22098 0.0
H1909 H 0.71238 0.07475 0.19314 0.0
H1910 H 0.75952 0.11221 0.23679 0.0
H1911 H 0.72891 0.12379 0.26462 0.0
C1912 C 0.59005 0.1506 0.2476 0.0
C1913 C 0.59511 0.16697 0.22982 0.0
C1914 C 0.60742 0.13945 0.26009 0.0
C1915 C 0.63009 0.14494 0.25545 0.0
C1916 C 0.63498 0.16188 0.23829 0.0
C1917 C 0.61774 0.17261 0.2255 0.0
C1918 C 0.64889 0.13237 0.26726 0.0
C1919 C 0.66602 0.12382 0.25212 0.0
C1920 C 0.6503 0.12892 0.29295 0.0
C1921 C 0.63369 0.13883 0.31016 0.0
C1922 C 0.62953 0.16215 0.31019 0.0
C1923 C 0.61369 0.17136 0.32628 0.0
C1924 C 0.60203 0.15744 0.34259 0.0
C1925 C 0.60624 0.13429 0.34288 0.0
C1926 C 0.62204 0.12499 0.32679 0.0
C1927 C 0.73818 0.09334 0.32305 0.0
C1928 C 0.74444 0.07285 0.31199 0.0
C1929 C 0.71823 0.1042 0.31613 0.0
C1930 C 0.70418 0.09467 0.29818 0.0
C1931 C 0.70948 0.07335 0.28871 0.0
C1932 C 0.7295 0.06266 0.29532 0.0
C1933 C 0.68542 0.1079 0.28738 0.0
C1934 C 0.6684 0.11645 0.30264 0.0
C1935 C 0.68445 0.11215 0.26185 0.0
C1936 C 0.70294 0.10547 0.24501 0.0
C1937 C 0.69846 0.09175 0.22457 0.0
C1938 C 0.7159 0.0854 0.20879 0.0
C1939 C 0.73789 0.09277 0.2132 0.0
C1940 C 0.74249 0.10649 0.23341 0.0
C1941 C 0.7251 0.11295 0.24919 0.0
H1942 H 0.75135 0.08791 0.20092 0.0
H1943 H 0.58977 0.16461 0.35503 0.0
H1944 H 0.39974 0.75213 0.16292 0.0
H1945 H 0.38155 0.78825 0.17192 0.0
H1946 H 0.42568 0.79757 0.23392 0.0
H1947 H 0.44384 0.76172 0.22525 0.0
H1948 H 0.35862 0.79994 0.21361 0.0
H1949 H 0.43737 0.85285 0.24058 0.0
H1950 H 0.47712 0.85647 0.22808 0.0
H1951 H 0.46083 0.83118 0.15644 0.0
H1952 H 0.42094 0.82772 0.16838 0.0
H1953 H 0.33619 0.88235 0.3017 0.0
H1954 H 0.35331 0.85244 0.27756 0.0
H1955 H 0.36177 0.89808 0.21676 0.0
H1956 H 0.34442 0.92839 0.24082 0.0
H1957 H 0.40014 0.87156 0.22637 0.0
H1958 H 0.32178 0.86154 0.21205 0.0
H1959 H 0.28172 0.85828 0.22336 0.0
H1960 H 0.29617 0.7989 0.26545 0.0
H1961 H 0.3364 0.802 0.25473 0.0
C1962 C 0.40577 0.76199 0.17829 0.0
C1963 C 0.42332 0.75398 0.19332 0.0
C1964 C 0.3953 0.78259 0.18343 0.0
C1965 C 0.4024 0.79568 0.20344 0.0
C1966 C 0.42015 0.78792 0.21816 0.0
C1967 C 0.43048 0.76732 0.21319 0.0
C1968 C 0.39056 0.81681 0.21007 0.0
C1969 C 0.36763 0.81566 0.21615 0.0
C1970 C 0.40224 0.83744 0.21294 0.0
C1971 C 0.42616 0.83991 0.20545 0.0
C1972 C 0.44223 0.8482 0.22211 0.0
C1973 C 0.4648 0.85019 0.21513 0.0
C1974 C 0.4715 0.84401 0.1915 0.0
C1975 C 0.45563 0.8359 0.17477 0.0
C1976 C 0.43304 0.83389 0.18164 0.0
C1977 C 0.34168 0.88618 0.28323 0.0
C1978 C 0.33883 0.90784 0.27321 0.0
C1979 C 0.35141 0.86898 0.26941 0.0
C1980 C 0.35857 0.87299 0.2453 0.0
C1981 C 0.35626 0.89465 0.23533 0.0
C1982 C 0.34631 0.91191 0.24909 0.0
C1983 C 0.36849 0.85435 0.2308 0.0
C1984 C 0.39104 0.85596 0.22336 0.0
C1985 C 0.3564 0.83421 0.22639 0.0
C1986 C 0.33215 0.83208 0.23268 0.0
C1987 C 0.31645 0.84786 0.22385 0.0
C1988 C 0.2937 0.84603 0.23014 0.0
C1989 C 0.28641 0.82841 0.24514 0.0
C1990 C 0.30184 0.81254 0.25383 0.0
C1991 C 0.32462 0.81431 0.24762 0.0
H1992 H 0.26878 0.82702 0.24999 0.0
H1993 H 0.48899 0.84554 0.18615 0.0
H1994 H 0.73777 0.44871 0.7294 0.0
H1995 H 0.70305 0.42928 0.74009 0.0
H1996 H 0.70484 0.3935 0.67126 0.0
H1997 H 0.74004 0.4125 0.66055 0.0
H1998 H 0.66142 0.4244 0.7228 0.0
H1999 H 0.68873 0.33921 0.68204 0.0
H2000 H 0.72366 0.31977 0.66959 0.0
H2001 H 0.7612 0.35772 0.72275 0.0
H2002 H 0.72645 0.37708 0.73578 0.0
H2003 H 0.57279 0.34597 0.74645 0.0
H2004 H 0.60202 0.36609 0.72344 0.0
H2005 H 0.65218 0.34291 0.77479 0.0
H2006 H 0.62332 0.32283 0.79776 0.0
H2007 H 0.6677 0.34117 0.72783 0.0
H2008 H 0.63066 0.3936 0.7816 0.0
H2009 H 0.59766 0.41327 0.79874 0.0
H2010 H 0.58309 0.44155 0.728 0.0
H2011 H 0.61584 0.4217 0.71033 0.0
C2012 C 0.73071 0.43693 0.71631 0.0
C2013 C 0.74196 0.43194 0.69424 0.0
C2014 C 0.71072 0.42592 0.72244 0.0
C2015 C 0.7015 0.4097 0.70665 0.0
C2016 C 0.71185 0.40572 0.68389 0.0
C2017 C 0.73197 0.41665 0.67778 0.0
C2018 C 0.68238 0.3956 0.7152 0.0
C2019 C 0.66267 0.40619 0.72358 0.0
C2020 C 0.68417 0.37185 0.71674 0.0
C2021 C 0.70504 0.35975 0.70966 0.0
C2022 C 0.70442 0.3433 0.69115 0.0
C2023 C 0.72419 0.33231 0.68399 0.0
C2024 C 0.74464 0.33756 0.69532 0.0
C2025 C 0.74536 0.35371 0.71395 0.0
C2026 C 0.72563 0.36468 0.72123 0.0
C2027 C 0.59008 0.34495 0.75267 0.0
C2028 C 0.59566 0.33293 0.77407 0.0
C2029 C 0.60675 0.35648 0.73953 0.0
C2030 C 0.62924 0.35609 0.74751 0.0
C2031 C 0.63495 0.34339 0.76827 0.0
C2032 C 0.61835 0.33203 0.78148 0.0
C2033 C 0.64675 0.36997 0.73533 0.0
C2034 C 0.6662 0.35933 0.72642 0.0
C2035 C 0.64499 0.39371 0.73397 0.0
C2036 C 0.62553 0.40597 0.74458 0.0
C2037 C 0.62033 0.40389 0.76965 0.0
C2038 C 0.60168 0.41508 0.77947 0.0
C2039 C 0.58826 0.4286 0.76445 0.0
C2040 C 0.59349 0.43102 0.73959 0.0
C2041 C 0.61209 0.41981 0.72966 0.0
H2042 H 0.57384 0.43724 0.77209 0.0
H2043 H 0.75993 0.32908 0.6897 0.0
H2044 H 0.14397 0.60885 0.31191 0.0
H2045 H 0.12456 0.63895 0.29016 0.0
H2046 H 0.14922 0.61337 0.22121 0.0
H2047 H 0.16866 0.58277 0.24288 0.0
H2048 H 0.15401 0.66179 0.22828 0.0
H2049 H 0.09756 0.60407 0.23232 0.0
H2050 H 0.07464 0.57511 0.25299 0.0
H2051 H 0.04669 0.62542 0.30067 0.0
H2052 H 0.06972 0.65464 0.28053 0.0
H2053 H 0.08555 0.74063 0.16409 0.0
H2054 H 0.1026 0.70489 0.17648 0.0
H2055 H 0.07395 0.71222 0.24876 0.0
H2056 H 0.05634 0.74744 0.23641 0.0
H2057 H 0.07106 0.67003 0.23492 0.0
H2058 H 0.12888 0.72681 0.23504 0.0
H2059 H 0.15166 0.75689 0.21616 0.0
H2060 H 0.17787 0.7098 0.16368 0.0
H2061 H 0.15471 0.67954 0.18178 0.0
C2062 C 0.14526 0.60946 0.29212 0.0
C2063 C 0.1578 0.59324 0.27916 0.0
C2064 C 0.13412 0.62672 0.27971 0.0
C2065 C 0.13536 0.6283 0.25409 0.0
C2066 C 0.14805 0.61238 0.24101 0.0
C2067 C 0.15902 0.59486 0.25342 0.0
C2068 C 0.12327 0.6467 0.24125 0.0
C2069 C 0.13583 0.66341 0.22924 0.0
C2070 C 0.09963 0.649 0.24308 0.0
C2071 C 0.0855 0.63152 0.25501 0.0
C2072 C 0.08665 0.60894 0.24732 0.0
C2073 C 0.07362 0.59248 0.25893 0.0
C2074 C 0.05924 0.59842 0.27816 0.0
C2075 C 0.05783 0.62084 0.28577 0.0
C2076 C 0.07085 0.63736 0.27425 0.0
C2077 C 0.08269 0.73454 0.18256 0.0
C2078 C 0.06966 0.74705 0.19928 0.0
C2079 C 0.09253 0.71413 0.18964 0.0
C2080 C 0.08985 0.70601 0.21368 0.0
C2081 C 0.07628 0.71811 0.23012 0.0
C2082 C 0.06628 0.73836 0.22302 0.0
C2083 C 0.10178 0.68543 0.22221 0.0
C2084 C 0.0892 0.66831 0.23353 0.0
C2085 C 0.12544 0.68294 0.22005 0.0
C2086 C 0.13986 0.70096 0.20959 0.0
C2087 C 0.1394 0.72289 0.21937 0.0
C2088 C 0.15237 0.73998 0.20882 0.0
C2089 C 0.16621 0.73526 0.18874 0.0
C2090 C 0.16712 0.71343 0.17921 0.0
C2091 C 0.15404 0.69631 0.18958 0.0
H2092 H 0.17623 0.74852 0.18059 0.0
H2093 H 0.04918 0.58565 0.28713 0.0
H2094 H 0.8847 0.20135 0.77998 0.0
H2095 H 0.85354 0.18279 0.75881 0.0
H2096 H 0.89851 0.12999 0.73509 0.0
H2097 H 0.93008 0.14932 0.75528 0.0
H2098 H 0.86691 0.13698 0.7011 0.0
H2099 H 0.86696 0.12443 0.78897 0.0
H2100 H 0.86783 0.13697 0.83214 0.0
H2101 H 0.80717 0.17489 0.82098 0.0
H2102 H 0.80586 0.1625 0.77777 0.0
H2103 H 0.76622 0.057 0.73197 0.0
H2104 H 0.80026 0.07769 0.74238 0.0
H2105 H 0.78791 0.12387 0.68281 0.0
H2106 H 0.75379 0.10299 0.67191 0.0
H2107 H 0.80388 0.11959 0.7578 0.0
H2108 H 0.83929 0.14439 0.66271 0.0
H2109 H 0.84001 0.12973 0.62036 0.0
H2110 H 0.83241 0.06226 0.64748 0.0
H2111 H 0.83196 0.07648 0.68997 0.0
C2112 C 0.88799 0.18605 0.76975 0.0
C2113 C 0.90964 0.17658 0.76937 0.0
C2114 C 0.87019 0.1754 0.75776 0.0
C2115 C 0.87355 0.15464 0.74597 0.0
C2116 C 0.8955 0.14592 0.74419 0.0
C2117 C 0.9135 0.15693 0.7557 0.0
C2118 C 0.85391 0.14111 0.7377 0.0
C2119 C 0.85309 0.13322 0.71344 0.0
C2120 C 0.83604 0.13584 0.75394 0.0
C2121 C 0.83638 0.14265 0.78013 0.0
C2122 C 0.85382 0.13545 0.79573 0.0
C2123 C 0.85441 0.14254 0.82018 0.0
C2124 C 0.83766 0.15682 0.82924 0.0
C2125 C 0.82015 0.16386 0.81393 0.0
C2126 C 0.81941 0.15673 0.78949 0.0
C2127 C 0.77076 0.0714 0.72084 0.0
C2128 C 0.75716 0.07829 0.70106 0.0
C2129 C 0.79025 0.08328 0.72691 0.0
C2130 C 0.79669 0.1023 0.71338 0.0
C2131 C 0.78342 0.10907 0.69335 0.0
C2132 C 0.76387 0.09714 0.68718 0.0
C2133 C 0.81673 0.11551 0.72109 0.0
C2134 C 0.81762 0.12338 0.74534 0.0
C2135 C 0.83479 0.12033 0.70496 0.0
C2136 C 0.83535 0.11155 0.6795 0.0
C2137 C 0.83785 0.12642 0.65963 0.0
C2138 C 0.83821 0.11819 0.6356 0.0
C2139 C 0.83618 0.09509 0.63123 0.0
C2140 C 0.83388 0.08016 0.65088 0.0
C2141 C 0.83355 0.0883 0.67494 0.0
H2142 H 0.83643 0.08875 0.61261 0.0
H2143 H 0.83822 0.16237 0.84815 0.0
H2144 H 0.50361 0.24652 0.11208 0.0
H2145 H 0.49521 0.25778 0.06973 0.0
H2146 H 0.54958 0.21586 0.04382 0.0
H2147 H 0.55749 0.20406 0.08557 0.0
H2148 H 0.51804 0.28007 0.03767 0.0
H2149 H 0.54128 0.19569 0.98846 0.0
H2150 H 0.53767 0.15491 0.99598 0.0
H2151 H 0.48213 0.16697 0.04464 0.0
H2152 H 0.48517 0.2078 0.03714 0.0
H2153 H 0.55917 0.29862 0.91974 0.0
H2154 H 0.55106 0.28783 0.9618 0.0
H2155 H 0.49397 0.24892 0.93718 0.0
H2156 H 0.50252 0.25914 0.89459 0.0
H2157 H 0.51582 0.22553 0.96876 0.0
H2158 H 0.48755 0.29966 0.96974 0.0
H2159 H 0.48685 0.34062 0.96235 0.0
H2160 H 0.54366 0.34928 0.01017 0.0
H2161 H 0.54494 0.30834 0.01757 0.0
C2162 C 0.51357 0.23952 0.09729 0.0
C2163 C 0.53114 0.2243 0.10225 0.0
C2164 C 0.50879 0.24601 0.0731 0.0
C2165 C 0.5215 0.23741 0.05344 0.0
C2166 C 0.53908 0.22228 0.05848 0.0
C2167 C 0.54369 0.21564 0.0825 0.0
C2168 C 0.51743 0.24496 0.02774 0.0
C2169 C 0.51735 0.26814 0.02262 0.0
C2170 C 0.51573 0.22947 0.00805 0.0
C2171 C 0.51355 0.20485 0.01232 0.0
C2172 C 0.52819 0.18965 1.00063 0.0
C2173 C 0.52627 0.16651 0.00492 0.0
C2174 C 0.50971 0.15836 0.02081 0.0
C2175 C 0.49499 0.17331 0.03239 0.0
C2176 C 0.49682 0.19646 0.02814 0.0
C2177 C 0.54473 0.28794 0.92318 0.0
C2178 C 0.53148 0.27977 0.90373 0.0
C2179 C 0.54 0.28188 0.94737 0.0
C2180 C 0.52164 0.26785 0.95285 0.0
C2181 C 0.50818 0.25984 0.93348 0.0
C2182 C 0.51306 0.26572 0.90914 0.0
C2183 C 0.51755 0.26061 0.97865 0.0
C2184 C 0.51609 0.23748 0.9838 0.0
C2185 C 0.51713 0.27618 0.99837 0.0
C2186 C 0.51639 0.30088 0.99412 0.0
C2187 C 0.49999 0.31028 0.97857 0.0
C2188 C 0.49948 0.3335 0.97439 0.0
C2189 C 0.51522 0.34754 0.98576 0.0
C2190 C 0.53148 0.33838 1.00138 0.0
C2191 C 0.53207 0.31517 0.00561 0.0
H2192 H 0.5148 0.36551 0.98249 0.0
H2193 H 0.50827 0.14044 0.02414 0.0
H2194 H 0.19591 0.52481 0.41191 0.0
H2195 H 0.20543 0.51364 0.45393 0.0
H2196 H 0.27153 0.54273 0.44548 0.0
H2197 H 0.26219 0.55393 0.40358 0.0
H2198 H 0.27231 0.50268 0.4722 0.0
H2199 H 0.23152 0.5734 0.47071 0.0
H2200 H 0.19924 0.59753 0.45985 0.0
H2201 H 0.15492 0.55422 0.50047 0.0
H2202 H 0.18697 0.52968 0.51135 0.0
H2203 H 0.30969 0.54165 0.58663 0.0
H2204 H 0.29694 0.53539 0.54476 0.0
H2205 H 0.23355 0.51005 0.57177 0.0
H2206 H 0.24617 0.51653 0.61407 0.0
H2207 H 0.22743 0.54131 0.53642 0.0
H2208 H 0.2707 0.47447 0.54431 0.0
H2209 H 0.30366 0.45122 0.55498 0.0
H2210 H 0.34382 0.48715 0.50249 0.0
H2211 H 0.31119 0.51087 0.49174 0.0
C2212 C 0.21264 0.52839 0.41881 0.0
C2213 C 0.22825 0.54043 0.40449 0.0
C2214 C 0.21802 0.52207 0.44286 0.0
C2215 C 0.23911 0.52757 0.45291 0.0
C2216 C 0.25517 0.53831 0.4381 0.0
C2217 C 0.24976 0.5448 0.41418 0.0
C2218 C 0.24387 0.52412 0.47939 0.0
C2219 C 0.26254 0.5111 0.48628 0.0
C2220 C 0.23078 0.53469 0.49778 0.0
C2221 C 0.21157 0.54958 0.49159 0.0
C2222 C 0.21486 0.56895 0.47718 0.0
C2223 C 0.19662 0.5827 0.47103 0.0
C2224 C 0.17502 0.57736 0.47936 0.0
C2225 C 0.17165 0.55831 0.49397 0.0
C2226 C 0.18985 0.54448 0.50015 0.0
C2227 C 0.29312 0.53448 0.58378 0.0
C2228 C 0.27892 0.52966 0.60375 0.0
C2229 C 0.2859 0.53077 0.55975 0.0
C2230 C 0.26435 0.52204 0.55507 0.0
C2231 C 0.25027 0.51672 0.57496 0.0
C2232 C 0.25754 0.52035 0.59911 0.0
C2233 C 0.2562 0.52017 0.52934 0.0
C2234 C 0.23692 0.53234 0.52251 0.0
C2235 C 0.2688 0.50885 0.51103 0.0
C2236 C 0.28849 0.49455 0.51732 0.0
C2237 C 0.28659 0.47753 0.53516 0.0
C2238 C 0.30522 0.46424 0.5412 0.0
C2239 C 0.32583 0.46773 0.52944 0.0
C2240 C 0.32784 0.48448 0.51158 0.0
C2241 C 0.30927 0.49782 0.50547 0.0
H2242 H 0.34023 0.45743 0.53415 0.0
H2243 H 0.1609 0.58802 0.47456 0.0
H2244 H 0.9978 0.25144 0.11266 0.0
H2245 H 0.00647 0.23952 0.07053 0.0
H2246 H 0.9544 0.28352 0.04316 0.0
H2247 H 0.94622 0.29589 0.08458 0.0
H2248 H 0.98304 0.2183 0.03723 0.0
H2249 H 0.96547 0.30447 0.98906 0.0
H2250 H 0.97093 0.34488 0.99762 0.0
H2251 H 0.02468 0.32917 0.04745 0.0
H2252 H 0.01979 0.28868 0.03894 0.0
H2253 H 0.94276 0.20447 0.91797 0.0
H2254 H 0.95104 0.21357 0.96051 0.0
H2255 H 0.01054 0.24978 0.9379 0.0
H2256 H 0.00186 0.24133 0.89491 0.0
H2257 H 0.98969 0.27366 0.96944 0.0
H2258 H 0.0135 0.19799 0.96941 0.0
H2259 H 0.01191 0.1572 0.96116 0.0
H2260 H 0.95399 0.15109 0.00782 0.0
H2261 H 0.95501 0.19191 0.01607 0.0
C2262 C 0.98839 0.25871 0.09759 0.0
C2263 C 0.97144 0.27475 0.10202 0.0
C2264 C 0.99332 0.25185 0.07354 0.0
C2265 C 0.98138 0.26091 0.05357 0.0
C2266 C 0.96432 0.27672 0.0581 0.0
C2267 C 0.95956 0.28371 0.08194 0.0
C2268 C 0.98582 0.25343 0.02795 0.0
C2269 C 0.98472 0.23037 0.02242 0.0
C2270 C 0.98881 0.2691 0.00861 0.0
C2271 C 0.99218 0.2935 0.01342 0.0
C2272 C 0.97858 0.30963 1.0017 0.0
C2273 C 0.98154 0.33256 0.00658 0.0
C2274 C 0.99811 0.33958 0.02309 0.0
C2275 C 0.01181 0.3237 0.0347 0.0
C2276 C 0.00893 0.30076 0.02987 0.0
C2277 C 0.95776 0.21419 0.92198 0.0
C2278 C 0.97164 0.22219 0.90299 0.0
C2279 C 0.96258 0.21925 0.94643 0.0
C2280 C 0.98165 0.23206 0.95259 0.0
C2281 C 0.99576 0.23981 0.93367 0.0
C2282 C 0.9908 0.23495 0.9091 0.0
C2283 C 0.98575 0.23858 0.97861 0.0
C2284 C 0.98847 0.2615 0.98422 0.0
C2285 C 0.98492 0.2227 0.99801 0.0
C2286 C 0.98428 0.19807 0.99327 0.0
C2287 C 1.00034 0.18798 0.9778 0.0
C2288 C 0.99955 0.16485 0.97314 0.0
C2289 C 0.98284 0.15157 0.98394 0.0
C2290 C 0.96692 0.1614 0.99947 0.0
C2291 C 0.96762 0.18454 0.00419 0.0
H2292 H 0.98226 0.13366 0.98029 0.0
H2293 H 1.00035 0.35734 0.02688 0.0
H2294 H 0.23973 0.95146 0.40429 0.0
H2295 H 0.2335 0.96093 0.44746 0.0
H2296 H 0.30442 0.97424 0.45633 0.0
H2297 H 0.31074 0.96518 0.41297 0.0
H2298 H 0.28549 0.94228 0.49019 0.0
H2299 H 0.27158 0.01683 0.46025 0.0
H2300 H 0.25402 0.04536 0.43355 0.0
H2301 H 0.18863 0.02697 0.46053 0.0
H2302 H 0.20577 0.99807 0.48714 0.0
H2303 H 0.27093 0.96222 0.61539 0.0
H2304 H 0.28221 0.97006 0.5731 0.0
H2305 H 0.21227 0.97348 0.55175 0.0
H2306 H 0.20102 0.96725 0.59433 0.0
H2307 H 0.23436 1.00056 0.52412 0.0
H2308 H 0.24557 0.92317 0.54809 0.0
H2309 H 0.26077 0.89297 0.57439 0.0
H2310 H 0.3282 0.91397 0.55746 0.0
H2311 H 0.31337 0.94447 0.53124 0.0
C2312 C 0.25393 0.95684 0.41531 0.0
C2313 C 0.27571 0.95757 0.40525 0.0
C2314 C 0.25034 0.96229 0.43994 0.0
C2315 C 0.2685 0.9683 0.45507 0.0
C2316 C 0.29018 0.9697 0.44493 0.0
C2317 C 0.29373 0.96464 0.42014 0.0
C2318 C 0.26498 0.97116 0.48184 0.0
C2319 C 0.2747 0.95532 0.4977 0.0
C2320 C 0.25033 0.98772 0.49147 0.0
C2321 C 0.23996 0.00515 0.47556 0.0
C2322 C 0.25344 0.01873 0.46035 0.0
C2323 C 0.24357 0.035 0.44525 0.0
C2324 C 0.22022 0.03794 0.44531 0.0
C2325 C 0.20671 0.02466 0.4605 0.0
C2326 C 0.2165 0.00835 0.47562 0.0
C2327 C 0.258 0.96523 0.60175 0.0
C2328 C 0.23512 0.96388 0.60806 0.0
C2329 C 0.26444 0.96952 0.57753 0.0
C2330 C 0.24811 0.97157 0.55897 0.0
C2331 C 0.22523 0.97178 0.56562 0.0
C2332 C 0.21879 0.96818 0.58999 0.0
C2333 C 0.25469 0.97151 0.53257 0.0
C2334 C 0.24544 0.98774 0.51672 0.0
C2335 C 0.26941 0.95496 0.52279 0.0
C2336 C 0.27837 0.93621 0.5379 0.0
C2337 C 0.26364 0.92136 0.55002 0.0
C2338 C 0.27218 0.90421 0.56492 0.0
C2339 C 0.29544 0.90159 0.56764 0.0
C2340 C 0.31019 0.91604 0.55535 0.0
C2341 C 0.30173 0.93324 0.54045 0.0
H2342 H 0.30203 0.88835 0.57926 0.0
H2343 H 0.21261 0.05055 0.43361 0.0
H2344 H 0.50065 0.76158 0.89485 0.0
H2345 H 0.50639 0.74992 0.93752 0.0
H2346 H 0.44897 0.78959 0.95955 0.0
H2347 H 0.44365 0.80186 0.91738 0.0
H2348 H 0.47913 0.7929 0.99323 0.0
H2349 H 0.44598 0.73131 0.94831 0.0
H2350 H 0.44382 0.70292 0.91536 0.0
H2351 H 0.50628 0.67401 0.93955 0.0
H2352 H 0.50894 0.70245 0.97247 0.0
H2353 H 0.4407 0.70043 0.08365 0.0
H2354 H 0.44755 0.71362 0.04213 0.0
H2355 H 0.50306 0.75411 0.068 0.0
H2356 H 0.49568 0.74154 0.11009 0.0
H2357 H 0.47911 0.71089 0.01054 0.0
H2358 H 0.50731 0.80147 0.03285 0.0
H2359 H 0.50322 0.82974 0.06577 0.0
H2360 H 0.43995 0.80048 0.08675 0.0
H2361 H 0.44354 0.77224 0.05378 0.0
C2362 C 0.48942 0.76801 0.90885 0.0
C2363 C 0.47158 0.78251 0.90263 0.0
C2364 C 0.49267 0.76126 0.93324 0.0
C2365 C 0.4779 0.76858 0.95178 0.0
C2366 C 0.46063 0.78371 0.94567 0.0
C2367 C 0.45755 0.79065 0.92144 0.0
C2368 C 0.47943 0.75968 0.97729 0.0
C2369 C 0.47934 0.77496 0.99699 0.0
C2370 C 0.47938 0.73628 0.98236 0.0
C2371 C 0.4778 0.71915 0.96264 0.0
C2372 C 0.45933 0.719 0.94648 0.0
C2373 C 0.45801 0.70289 0.92783 0.0
C2374 C 0.47494 0.68672 0.92531 0.0
C2375 C 0.49321 0.68658 0.94149 0.0
C2376 C 0.49463 0.70268 0.96015 0.0
C2377 C 0.45448 0.71204 0.08059 0.0
C2378 C 0.46753 0.72007 0.10028 0.0
C2379 C 0.45845 0.71952 0.05672 0.0
C2380 C 0.47567 0.73508 0.05183 0.0
C2381 C 0.48938 0.74244 0.07131 0.0
C2382 C 0.48521 0.73517 0.09536 0.0
C2383 C 0.47837 0.7441 0.02648 0.0
C2384 C 0.47933 0.72884 0.00681 0.0
C2385 C 0.47836 0.76751 0.02143 0.0
C2386 C 0.47586 0.7846 0.04107 0.0
C2387 C 0.49251 0.80113 0.04446 0.0
C2388 C 0.49027 0.81713 0.06312 0.0
C2389 C 0.47138 0.81684 0.0784 0.0
C2390 C 0.45462 0.80063 0.07497 0.0
C2391 C 0.45675 0.78461 0.05631 0.0
H2392 H 0.4697 0.82922 0.09287 0.0
H2393 H 0.47388 0.67426 0.91087 0.0
H2394 H 0.75899 0.50081 0.60669 0.0
H2395 H 0.74772 0.50716 0.56396 0.0
H2396 H 0.78694 0.44954 0.54158 0.0
H2397 H 0.79883 0.44365 0.58375 0.0
H2398 H 0.79137 0.48001 0.50874 0.0
H2399 H 0.72805 0.44764 0.55171 0.0
H2400 H 0.6989 0.44592 0.58389 0.0
H2401 H 0.67205 0.50925 0.55958 0.0
H2402 H 0.70124 0.51146 0.52743 0.0
H2403 H 0.7013 0.4443 0.41448 0.0
H2404 H 0.71314 0.45024 0.45671 0.0
H2405 H 0.75443 0.50626 0.43391 0.0
H2406 H 0.74312 0.49994 0.39122 0.0
H2407 H 0.70979 0.48167 0.48926 0.0
H2408 H 0.80145 0.50843 0.46997 0.0
H2409 H 0.83048 0.50412 0.4379 0.0
H2410 H 0.80034 0.44184 0.41492 0.0
H2411 H 0.77134 0.44565 0.44703 0.0
C2412 C 0.76537 0.48966 0.5926 0.0
C2413 C 0.7797 0.47164 0.5987 0.0
C2414 C 0.75885 0.49324 0.56818 0.0
C2415 C 0.7662 0.47863 0.5495 0.0
C2416 C 0.78105 0.4611 0.55555 0.0
C2417 C 0.78778 0.4577 0.57979 0.0
C2418 C 0.75782 0.4807 0.52381 0.0
C2419 C 0.77352 0.48059 0.50452 0.0
C2420 C 0.73454 0.48117 0.51814 0.0
C2421 C 0.71697 0.47984 0.53738 0.0
C2422 C 0.71602 0.46127 0.55335 0.0
C2423 C 0.69948 0.46019 0.57156 0.0
C2424 C 0.68367 0.4775 0.57383 0.0
C2425 C 0.68433 0.49588 0.55783 0.0
C2426 C 0.70086 0.49705 0.53961 0.0
C2427 C 0.71279 0.45801 0.41837 0.0
C2428 C 0.72143 0.47151 0.39937 0.0
C2429 C 0.71949 0.46145 0.44264 0.0
C2430 C 0.7349 0.47853 0.44856 0.0
C2431 C 0.74283 0.49271 0.42978 0.0
C2432 C 0.73629 0.48912 0.40538 0.0
C2433 C 0.74333 0.48056 0.47422 0.0
C2434 C 0.72765 0.48152 0.49349 0.0
C2435 C 0.76661 0.48007 0.47989 0.0
C2436 C 0.78408 0.4775 0.46068 0.0
C2437 C 0.80107 0.4938 0.45809 0.0
C2438 C 0.81751 0.49144 0.43991 0.0
C2439 C 0.8172 0.47277 0.42432 0.0
C2440 C 0.80051 0.45635 0.42694 0.0
C2441 C 0.78406 0.45861 0.44511 0.0
H2442 H 0.82993 0.47098 0.41024 0.0
H2443 H 0.67088 0.47664 0.58793 0.0
H2444 H 0.05779 0.76543 0.09579 0.0
H2445 H 0.0545 0.75406 0.05301 0.0
H2446 H 0.98934 0.78598 0.04861 0.0
H2447 H 0.99215 0.79652 0.09217 0.0
H2448 H 0.98947 0.7488 0.02136 0.0
H2449 H 0.03714 0.81275 0.02742 0.0
H2450 H 0.06814 0.83571 0.04419 0.0
H2451 H 0.1161 0.7861 0.02072 0.0
H2452 H 0.08537 0.76263 0.00418 0.0
H2453 H 0.00518 0.74554 0.88784 0.0
H2454 H 0.99863 0.75999 0.92957 0.0
H2455 H 0.0554 0.72174 0.95588 0.0
H2456 H 0.06185 0.7071 0.91481 0.0
H2457 H 0.05546 0.7682 0.96966 0.0
H2458 H 0.00557 0.703 0.96773 0.0
H2459 H 0.97375 0.68099 0.95128 0.0
H2460 H 0.92886 0.73611 0.96574 0.0
H2461 H 0.96052 0.75857 0.98197 0.0
C2462 C 0.04262 0.7698 0.08581 0.0
C2463 C 0.02532 0.78206 0.09721 0.0
C2464 C 0.0408 0.7634 0.0613 0.0
C2465 C 0.02198 0.76978 0.0473 0.0
C2466 C 0.00411 0.78106 0.05895 0.0
C2467 C 0.00572 0.78706 0.08381 0.0
C2468 C 0.02176 0.76538 0.02039 0.0
C2469 C 0.0037 0.75343 0.00997 0.0
C2470 C 0.04026 0.7715 0.00536 0.0
C2471 C 0.05891 0.78588 0.01464 0.0
C2472 C 0.05429 0.8067 0.0259 0.0
C2473 C 0.07182 0.81979 0.03539 0.0
C2474 C 0.09407 0.81236 0.03354 0.0
C2475 C 0.09885 0.79184 0.02213 0.0
C2476 C 0.08139 0.77864 0.01266 0.0
C2477 C 0.01616 0.74014 0.90258 0.0
C2478 C 0.03403 0.72515 0.89796 0.0
C2479 C 0.01238 0.74838 0.92637 0.0
C2480 C 0.02657 0.74194 0.94578 0.0
C2481 C 0.04429 0.72696 0.94117 0.0
C2482 C 0.04788 0.71853 0.91762 0.0
C2483 C 0.02361 0.75098 0.97096 0.0
C2484 C 0.04107 0.76393 0.981 0.0
C2485 C 0.00444 0.7461 0.98542 0.0
C2486 C 0.98545 0.73256 0.97576 0.0
C2487 C 0.98895 0.7105 0.96718 0.0
C2488 C 0.97094 0.69793 0.95795 0.0
C2489 C 0.94931 0.70717 0.95738 0.0
C2490 C 0.94563 0.72899 0.96613 0.0
C2491 C 0.9636 0.74164 0.97536 0.0
H2492 H 0.93538 0.69741 0.95023 0.0
H2493 H 0.10761 0.82252 0.04092 0.0
H2494 H 0.7395 0.06421 0.60149 0.0
H2495 H 0.75195 0.06057 0.55909 0.0
H2496 H 0.73327 0.99031 0.5595 0.0
H2497 H 0.72188 0.99368 0.60273 0.0
H2498 H 0.76948 0.99553 0.53226 0.0
H2499 H 0.69808 0.03135 0.53498 0.0
H2500 H 0.66987 0.05875 0.5495 0.0
H2501 H 0.71028 0.11318 0.5221 0.0
H2502 H 0.73894 0.08614 0.5078 0.0
H2503 H 0.76578 0.00233 0.39757 0.0
H2504 H 0.75402 0.99669 0.44043 0.0
H2505 H 0.7862 0.05905 0.46068 0.0
H2506 H 0.79834 0.06459 0.41841 0.0
H2507 H 0.73885 0.05339 0.47565 0.0
H2508 H 0.81157 0.01528 0.47634 0.0
H2509 H 0.83848 0.98652 0.46201 0.0
H2510 H 0.79192 0.93419 0.4816 0.0
H2511 H 0.76458 0.96269 0.49572 0.0
C2512 C 0.73833 0.0479 0.59265 0.0
C2513 C 0.72953 0.02927 0.60526 0.0
C2514 C 0.74531 0.04585 0.56834 0.0
C2515 C 0.74287 0.02534 0.55577 0.0
C2516 C 0.73512 0.00637 0.56871 0.0
C2517 C 0.72862 0.00829 0.59337 0.0
C2518 C 0.74751 0.02428 0.52894 0.0
C2519 C 0.76245 0.00794 0.51983 0.0
C2520 C 0.73827 0.04037 0.51255 0.0
C2521 C 0.72073 0.0567 0.52043 0.0
C2522 C 0.70099 0.04917 0.53212 0.0
C2523 C 0.68493 0.06464 0.54034 0.0
C2524 C 0.68829 0.08769 0.53675 0.0
C2525 C 0.70769 0.09532 0.52486 0.0
C2526 C 0.72385 0.07992 0.51667 0.0
C2527 C 0.77049 0.01472 0.41122 0.0
C2528 C 0.783 0.03389 0.40457 0.0
C2529 C 0.76379 0.01146 0.43565 0.0
C2530 C 0.76923 0.0275 0.45364 0.0
C2531 C 0.78183 0.04651 0.44704 0.0
C2532 C 0.78883 0.04958 0.42285 0.0
C2533 C 0.76129 0.02515 0.47929 0.0
C2534 C 0.74559 0.04082 0.48809 0.0
C2535 C 0.76947 0.0082 0.49518 0.0
C2536 C 0.78593 0.99112 0.48678 0.0
C2537 C 0.80698 0.99765 0.47736 0.0
C2538 C 0.82233 0.9814 0.46933 0.0
C2539 C 0.81688 0.95854 0.47081 0.0
C2540 C 0.7961 0.9519 0.48041 0.0
C2541 C 0.78068 0.96809 0.48844 0.0
H2542 H 0.82879 0.94599 0.46459 0.0
H2543 H 0.67586 0.09964 0.54316 0.0
loop_
_geom_bond_atom_site_label_1
_geom_bond_atom_site_label_2
_geom_bond_distance
_geom_bond_site_symmetry_2
_ccdc_geom_bond_type
Co0 O2 2.143 . S
Co0 O8 2.074 . S
Co0 O11 2.093 . S
Co0 O24 2.097 . S
Co0 N41 2.151 . S
Co0 N49 2.214 . S
Co1 O2 2.160 . S
Co1 O7 2.058 . S
Co1 O17 2.057 . S
Co1 O32 2.037 . S
Co1 N36 2.145 . S
Co1 N57 2.257 . S
O2 Co0 2.143 . S
O2 Co1 2.160 . S
C3 O4 1.278 . S
C3 O11 1.224 . S
O4 C3 1.278 . S
C5 O6 1.245 . S
C5 O17 1.232 . S
O6 C5 1.245 . S
O7 Co1 2.058 . S
O7 C33 1.269 . S
O8 Co0 2.074 . S
O8 C33 1.257 . S
H9 C34 0.930 . S
H10 C40 0.930 . S
O11 Co0 2.093 . S
O11 C3 1.224 . S
H12 C44 0.929 . S
H13 C46 0.930 . S
H14 C47 0.930 . S
H15 C45 0.929 . S
H16 C48 0.928 . S
O17 Co1 2.057 . S
O17 C5 1.232 . S
H18 C37 0.929 . S
H19 C38 0.929 . S
H20 C50 0.931 . S
H21 C42 0.929 . S
H22 C51 0.930 . S
H23 C43 0.931 . S
O24 Co0 2.097 . S
O24 C52 1.214 . S
H25 C53 0.929 . S
H26 C54 0.929 . S
H27 C55 0.930 . S
H28 C56 0.929 . S
H29 C58 0.930 . S
H30 C35 0.930 . S
H31 C39 0.930 . S
O32 Co1 2.037 . S
O32 C52 1.234 . S
C33 O7 1.269 . S
C33 O8 1.257 . S
C34 H9 0.930 . S
C34 C37 1.388 . S
C34 C39 1.418 . S
C35 H30 0.930 . S
C35 C38 1.404 . S
C35 C39 1.353 . S
N36 Co1 2.145 . S
N36 C37 1.397 . S
N36 C38 1.334 . S
C37 H18 0.929 . S
C37 C34 1.388 . S
C37 N36 1.397 . S
C38 H19 0.929 . S
C38 C35 1.404 . S
C38 N36 1.334 . S
C39 H31 0.930 . S
C39 C34 1.418 . S
C39 C35 1.353 . S
C40 H10 0.930 . S
C40 N41 1.330 . S
C40 C42 1.446 . S
N41 Co0 2.151 . S
N41 C40 1.330 . S
N41 C45 1.418 . S
C42 H21 0.929 . S
C42 C40 1.446 . S
C42 C43 1.332 . S
C43 H23 0.931 . S
C43 C42 1.332 . S
C43 C44 1.267 . S
C44 H12 0.929 . S
C44 C43 1.267 . S
C44 C45 1.251 . S
C45 H15 0.929 . S
C45 N41 1.418 . S
C45 C44 1.251 . S
C46 H13 0.930 . S
C46 C48 1.406 . S
C46 C51 1.261 . S
C47 H14 0.930 . S
C47 N49 1.325 . S
C47 C50 1.357 . S
C48 H16 0.928 . S
C48 C46 1.406 . S
C48 N49 1.261 . S
N49 Co0 2.214 . S
N49 C47 1.325 . S
N49 C48 1.261 . S
C50 H20 0.931 . S
C50 C47 1.357 . S
C50 C51 1.312 . S
C51 H22 0.930 . S
C51 C46 1.261 . S
C51 C50 1.312 . S
C52 O24 1.214 . S
C52 O32 1.234 . S
C53 H25 0.929 . S
C53 C56 1.391 . S
C53 C58 1.391 . S
C54 H26 0.929 . S
C54 C55 1.390 . S
C54 N57 1.391 . S
C55 H27 0.930 . S
C55 C54 1.390 . S
C55 C56 1.392 . S
C56 H28 0.929 . S
C56 C53 1.391 . S
C56 C55 1.392 . S
N57 Co1 2.257 . S
N57 C54 1.391 . S
N57 C58 1.388 . S
C58 H29 0.930 . S
C58 C53 1.391 . S
C58 N57 1.388 . S
Co59 O61 2.143 . S
Co59 O67 2.074 . S
Co59 O70 2.093 . S
Co59 O83 2.097 . S
Co59 N100 2.151 . S
Co59 N108 2.214 . S
Co60 O61 2.160 . S
Co60 O66 2.058 . S
Co60 O76 2.057 . S
Co60 O91 2.037 . S
Co60 N95 2.145 . S
Co60 N116 2.257 . S
O61 Co59 2.143 . S
O61 Co60 2.160 . S
C62 O63 1.278 . S
C62 O70 1.224 . S
O63 C62 1.278 . S
C64 O65 1.245 . S
C64 O76 1.232 . S
O65 C64 1.245 . S
O66 Co60 2.058 . S
O66 C92 1.269 . S
O67 Co59 2.074 . S
O67 C92 1.257 . S
H68 C93 0.930 . S
H69 C99 0.930 . S
O70 Co59 2.093 . S
O70 C62 1.224 . S
H71 C103 0.929 . S
H72 C105 0.930 . S
H73 C106 0.930 . S
H74 C104 0.929 . S
H75 C107 0.928 . S
O76 Co60 2.057 . S
O76 C64 1.232 . S
H77 C96 0.929 . S
H78 C97 0.929 . S
H79 C109 0.931 . S
H80 C101 0.929 . S
H81 C110 0.930 . S
H82 C102 0.931 . S
O83 Co59 2.097 . S
O83 C111 1.214 . S
H84 C112 0.929 . S
H85 C113 0.929 . S
H86 C114 0.930 . S
H87 C115 0.929 . S
H88 C117 0.930 . S
H89 C94 0.930 . S
H90 C98 0.930 . S
O91 Co60 2.037 . S
O91 C111 1.234 . S
C92 O66 1.269 . S
C92 O67 1.257 . S
C93 H68 0.930 . S
C93 C96 1.388 . S
C93 C98 1.418 . S
C94 H89 0.930 . S
C94 C97 1.404 . S
C94 C98 1.353 . S
N95 Co60 2.145 . S
N95 C96 1.397 . S
N95 C97 1.334 . S
C96 H77 0.929 . S
C96 C93 1.388 . S
C96 N95 1.397 . S
C97 H78 0.929 . S
C97 C94 1.404 . S
C97 N95 1.334 . S
C98 H90 0.930 . S
C98 C93 1.418 . S
C98 C94 1.353 . S
C99 H69 0.930 . S
C99 N100 1.330 . S
C99 C101 1.446 . S
N100 Co59 2.151 . S
N100 C99 1.330 . S
N100 C104 1.418 . S
C101 H80 0.929 . S
C101 C99 1.446 . S
C101 C102 1.332 . S
C102 H82 0.931 . S
C102 C101 1.332 . S
C102 C103 1.267 . S
C103 H71 0.929 . S
C103 C102 1.267 . S
C103 C104 1.251 . S
C104 H74 0.929 . S
C104 N100 1.418 . S
C104 C103 1.251 . S
C105 H72 0.930 . S
C105 C107 1.406 . S
C105 C110 1.261 . S
C106 H73 0.930 . S
C106 N108 1.325 . S
C106 C109 1.357 . S
C107 H75 0.928 . S
C107 C105 1.406 . S
C107 N108 1.261 . S
N108 Co59 2.214 . S
N108 C106 1.325 . S
N108 C107 1.261 . S
C109 H79 0.931 . S
C109 C106 1.357 . S
C109 C110 1.312 . S
C110 H81 0.930 . S
C110 C105 1.261 . S
C110 C109 1.312 . S
C111 O83 1.214 . S
C111 O91 1.234 . S
C112 H84 0.929 . S
C112 C115 1.391 . S
C112 C117 1.391 . S
C113 H85 0.929 . S
C113 C114 1.390 . S
C113 N116 1.391 . S
C114 H86 0.930 . S
C114 C113 1.390 . S
C114 C115 1.392 . S
C115 H87 0.929 . S
C115 C112 1.391 . S
C115 C114 1.392 . S
N116 Co60 2.257 . S
N116 C113 1.391 . S
N116 C117 1.388 . S
C117 H88 0.930 . S
C117 C112 1.391 . S
C117 N116 1.388 . S
Co118 O120 2.143 . S
Co118 O126 2.074 . S
Co118 O129 2.093 . S
Co118 O142 2.097 . S
Co118 N159 2.151 . S
Co118 N167 2.214 . S
Co119 O120 2.160 . S
Co119 O125 2.058 . S
Co119 O135 2.057 1_655 S
Co119 O150 2.037 . S
Co119 N154 2.145 . S
Co119 N175 2.257 1_655 S
O120 Co118 2.143 . S
O120 Co119 2.160 . S
C121 O122 1.278 . S
C121 O129 1.224 . S
O122 C121 1.278 . S
C123 O124 1.245 . S
C123 O135 1.232 . S
O124 C123 1.245 . S
O125 Co119 2.058 . S
O125 C151 1.269 . S
O126 Co118 2.074 . S
O126 C151 1.257 . S
H127 C152 0.930 . S
H128 C158 0.930 . S
O129 Co118 2.093 . S
O129 C121 1.224 . S
H130 C162 0.929 . S
H131 C164 0.930 . S
H132 C165 0.930 . S
H133 C163 0.929 . S
H134 C166 0.928 . S
O135 Co119 2.057 1_455 S
O135 C123 1.232 . S
H136 C155 0.929 . S
H137 C156 0.929 . S
H138 C168 0.931 . S
H139 C160 0.929 . S
H140 C169 0.930 . S
H141 C161 0.931 . S
O142 Co118 2.097 . S
O142 C170 1.214 . S
H143 C171 0.929 . S
H144 C172 0.929 1_655 S
H145 C173 0.930 . S
H146 C174 0.929 . S
H147 C176 0.930 . S
H148 C153 0.930 . S
H149 C157 0.930 . S
O150 Co119 2.037 . S
O150 C170 1.234 . S
C151 O125 1.269 . S
C151 O126 1.257 . S
C152 H127 0.930 . S
C152 C155 1.388 . S
C152 C157 1.418 . S
C153 H148 0.930 . S
C153 C156 1.404 . S
C153 C157 1.353 1_455 S
N154 Co119 2.145 . S
N154 C155 1.397 . S
N154 C156 1.334 1_655 S
C155 H136 0.929 . S
C155 C152 1.388 . S
C155 N154 1.397 . S
C156 H137 0.929 . S
C156 C153 1.404 . S
C156 N154 1.334 1_455 S
C157 H149 0.930 . S
C157 C152 1.418 . S
C157 C153 1.353 1_655 S
C158 H128 0.930 . S
C158 N159 1.330 . S
C158 C160 1.446 . S
N159 Co118 2.151 . S
N159 C158 1.330 . S
N159 C163 1.418 . S
C160 H139 0.929 . S
C160 C158 1.446 . S
C160 C161 1.332 . S
C161 H141 0.931 . S
C161 C160 1.332 . S
C161 C162 1.267 . S
C162 H130 0.929 . S
C162 C161 1.267 . S
C162 C163 1.251 . S
C163 H133 0.929 . S
C163 N159 1.418 . S
C163 C162 1.251 . S
C164 H131 0.930 . S
C164 C166 1.406 . S
C164 C169 1.261 . S
C165 H132 0.930 . S
C165 N167 1.325 . S
C165 C168 1.357 . S
C166 H134 0.928 . S
C166 C164 1.406 . S
C166 N167 1.261 . S
N167 Co118 2.214 . S
N167 C165 1.325 . S
N167 C166 1.261 . S
C168 H138 0.931 . S
C168 C165 1.357 . S
C168 C169 1.312 . S
C169 H140 0.930 . S
C169 C164 1.261 . S
C169 C168 1.312 . S
C170 O142 1.214 . S
C170 O150 1.234 . S
C171 H143 0.929 . S
C171 C174 1.391 . S
C171 C176 1.391 . S
C172 H144 0.929 1_455 S
C172 C173 1.390 . S
C172 N175 1.391 . S
C173 H145 0.930 . S
C173 C172 1.390 . S
C173 C174 1.392 . S
C174 H146 0.929 . S
C174 C171 1.391 . S
C174 C173 1.392 . S
N175 Co119 2.257 1_455 S
N175 C172 1.391 . S
N175 C176 1.388 . S
C176 H147 0.930 . S
C176 C171 1.391 . S
C176 N175 1.388 . S
Co177 O179 2.143 . S
Co177 O185 2.074 . S
Co177 O188 2.093 . S
Co177 O201 2.097 . S
Co177 N218 2.151 . S
Co177 N226 2.214 . S
Co178 O179 2.160 . S
Co178 O184 2.058 . S
Co178 O194 2.057 1_565 S
Co178 O209 2.037 . S
Co178 N213 2.145 . S
Co178 N234 2.257 1_565 S
O179 Co177 2.143 . S
O179 Co178 2.160 . S
C180 O181 1.278 . S
C180 O188 1.224 . S
O181 C180 1.278 . S
C182 O183 1.245 . S
C182 O194 1.232 . S
O183 C182 1.245 . S
O184 Co178 2.058 . S
O184 C210 1.269 . S
O185 Co177 2.074 . S
O185 C210 1.257 . S
H186 C211 0.930 . S
H187 C217 0.930 . S
O188 Co177 2.093 . S
O188 C180 1.224 . S
H189 C221 0.929 . S
H190 C223 0.930 . S
H191 C224 0.930 . S
H192 C222 0.929 . S
H193 C225 0.928 . S
O194 Co178 2.057 1_545 S
O194 C182 1.232 . S
H195 C214 0.929 . S
H196 C215 0.929 . S
H197 C227 0.931 . S
H198 C219 0.929 . S
H199 C228 0.930 . S
H200 C220 0.931 . S
O201 Co177 2.097 . S
O201 C229 1.214 . S
H202 C230 0.929 . S
H203 C231 0.929 1_565 S
H204 C232 0.930 . S
H205 C233 0.929 . S
H206 C235 0.930 . S
H207 C212 0.930 . S
H208 C216 0.930 . S
O209 Co178 2.037 . S
O209 C229 1.234 . S
C210 O184 1.269 . S
C210 O185 1.257 . S
C211 H186 0.930 . S
C211 C214 1.388 . S
C211 C216 1.418 . S
C212 H207 0.930 . S
C212 C215 1.404 . S
C212 C216 1.353 1_545 S
N213 Co178 2.145 . S
N213 C214 1.397 . S
N213 C215 1.334 1_565 S
C214 H195 0.929 . S
C214 C211 1.388 . S
C214 N213 1.397 . S
C215 H196 0.929 . S
C215 C212 1.404 . S
C215 N213 1.334 1_545 S
C216 H208 0.930 . S
C216 C211 1.418 . S
C216 C212 1.353 1_565 S
C217 H187 0.930 . S
C217 N218 1.330 . S
C217 C219 1.446 . S
N218 Co177 2.151 . S
N218 C217 1.330 . S
N218 C222 1.418 . S
C219 H198 0.929 . S
C219 C217 1.446 . S
C219 C220 1.332 . S
C220 H200 0.931 . S
C220 C219 1.332 . S
C220 C221 1.267 . S
C221 H189 0.929 . S
C221 C220 1.267 . S
C221 C222 1.251 . S
C222 H192 0.929 . S
C222 N218 1.418 . S
C222 C221 1.251 . S
C223 H190 0.930 . S
C223 C225 1.406 . S
C223 C228 1.261 . S
C224 H191 0.930 . S
C224 N226 1.325 . S
C224 C227 1.357 . S
C225 H193 0.928 . S
C225 C223 1.406 . S
C225 N226 1.261 . S
N226 Co177 2.214 . S
N226 C224 1.325 . S
N226 C225 1.261 . S
C227 H197 0.931 . S
C227 C224 1.357 . S
C227 C228 1.312 . S
C228 H199 0.930 . S
C228 C223 1.261 . S
C228 C227 1.312 . S
C229 O201 1.214 . S
C229 O209 1.234 . S
C230 H202 0.929 . S
C230 C233 1.391 . S
C230 C235 1.391 . S
C231 H203 0.929 1_545 S
C231 C232 1.390 . S
C231 N234 1.391 . S
C232 H204 0.930 . S
C232 C231 1.390 . S
C232 C233 1.392 . S
C233 H205 0.929 . S
C233 C230 1.391 . S
C233 C232 1.392 . S
N234 Co178 2.257 1_545 S
N234 C231 1.391 . S
N234 C235 1.388 . S
C235 H206 0.930 . S
C235 C230 1.391 . S
C235 N234 1.388 . S
Co236 O238 2.143 . S
Co236 O244 2.074 . S
Co236 O247 2.093 . S
Co236 O260 2.097 . S
Co236 N277 2.151 . S
Co236 N285 2.214 . S
Co237 O238 2.160 . S
Co237 O243 2.058 . S
Co237 O253 2.057 . S
Co237 O268 2.037 . S
Co237 N272 2.145 . S
Co237 N293 2.257 . S
O238 Co236 2.143 . S
O238 Co237 2.160 . S
C239 O240 1.278 . S
C239 O247 1.224 . S
O240 C239 1.278 . S
C241 O242 1.245 . S
C241 O253 1.232 . S
O242 C241 1.245 . S
O243 Co237 2.058 . S
O243 C269 1.269 . S
O244 Co236 2.074 . S
O244 C269 1.257 . S
H245 C270 0.930 . S
H246 C276 0.930 . S
O247 Co236 2.093 . S
O247 C239 1.224 . S
H248 C280 0.929 . S
H249 C282 0.930 . S
H250 C283 0.930 . S
H251 C281 0.929 . S
H252 C284 0.928 . S
O253 Co237 2.057 . S
O253 C241 1.232 . S
H254 C273 0.929 . S
H255 C274 0.929 . S
H256 C286 0.931 . S
H257 C278 0.929 . S
H258 C287 0.930 . S
H259 C279 0.931 . S
O260 Co236 2.097 . S
O260 C288 1.214 . S
H261 C289 0.929 . S
H262 C290 0.929 . S
H263 C291 0.930 . S
H264 C292 0.929 . S
H265 C294 0.930 . S
H266 C271 0.930 . S
H267 C275 0.930 . S
O268 Co237 2.037 . S
O268 C288 1.234 . S
C269 O243 1.269 . S
C269 O244 1.257 . S
C270 H245 0.930 . S
C270 C273 1.388 . S
C270 C275 1.418 . S
C271 H266 0.930 . S
C271 C274 1.404 . S
C271 C275 1.353 . S
N272 Co237 2.145 . S
N272 C273 1.397 . S
N272 C274 1.334 . S
C273 H254 0.929 . S
C273 C270 1.388 . S
C273 N272 1.397 . S
C274 H255 0.929 . S
C274 C271 1.404 . S
C274 N272 1.334 . S
C275 H267 0.930 . S
C275 C270 1.418 . S
C275 C271 1.353 . S
C276 H246 0.930 . S
C276 N277 1.330 . S
C276 C278 1.446 . S
N277 Co236 2.151 . S
N277 C276 1.330 . S
N277 C281 1.418 . S
C278 H257 0.929 . S
C278 C276 1.446 . S
C278 C279 1.332 . S
C279 H259 0.931 . S
C279 C278 1.332 . S
C279 C280 1.267 . S
C280 H248 0.929 . S
C280 C279 1.267 . S
C280 C281 1.251 . S
C281 H251 0.929 . S
C281 N277 1.418 . S
C281 C280 1.251 . S
C282 H249 0.930 . S
C282 C284 1.406 . S
C282 C287 1.261 . S
C283 H250 0.930 . S
C283 N285 1.325 . S
C283 C286 1.357 . S
C284 H252 0.928 . S
C284 C282 1.406 . S
C284 N285 1.261 . S
N285 Co236 2.214 . S
N285 C283 1.325 . S
N285 C284 1.261 . S
C286 H256 0.931 . S
C286 C283 1.357 . S
C286 C287 1.312 . S
C287 H258 0.930 . S
C287 C282 1.261 . S
C287 C286 1.312 . S
C288 O260 1.214 . S
C288 O268 1.234 . S
C289 H261 0.929 . S
C289 C292 1.391 . S
C289 C294 1.391 . S
C290 H262 0.929 . S
C290 C291 1.390 . S
C290 N293 1.391 . S
C291 H263 0.930 . S
C291 C290 1.390 . S
C291 C292 1.392 . S
C292 H264 0.929 . S
C292 C289 1.391 . S
C292 C291 1.392 . S
N293 Co237 2.257 . S
N293 C290 1.391 . S
N293 C294 1.388 . S
C294 H265 0.930 . S
C294 C289 1.391 . S
C294 N293 1.388 . S
Co295 O297 2.143 . S
Co295 O303 2.074 . S
Co295 O306 2.093 . S
Co295 O319 2.097 . S
Co295 N336 2.151 . S
Co295 N344 2.214 . S
Co296 O297 2.160 . S
Co296 O302 2.058 . S
Co296 O312 2.057 . S
Co296 O327 2.037 . S
Co296 N331 2.145 . S
Co296 N352 2.257 . S
O297 Co295 2.143 . S
O297 Co296 2.160 . S
C298 O299 1.278 . S
C298 O306 1.224 . S
O299 C298 1.278 . S
C300 O301 1.245 . S
C300 O312 1.232 . S
O301 C300 1.245 . S
O302 Co296 2.058 . S
O302 C328 1.269 . S
O303 Co295 2.074 . S
O303 C328 1.257 . S
H304 C329 0.930 . S
H305 C335 0.930 . S
O306 Co295 2.093 . S
O306 C298 1.224 . S
H307 C339 0.929 . S
H308 C341 0.930 . S
H309 C342 0.930 . S
H310 C340 0.929 . S
H311 C343 0.928 . S
O312 Co296 2.057 . S
O312 C300 1.232 . S
H313 C332 0.929 . S
H314 C333 0.929 . S
H315 C345 0.931 . S
H316 C337 0.929 . S
H317 C346 0.930 . S
H318 C338 0.931 . S
O319 Co295 2.097 . S
O319 C347 1.214 . S
H320 C348 0.929 . S
H321 C349 0.929 . S
H322 C350 0.930 . S
H323 C351 0.929 . S
H324 C353 0.930 . S
H325 C330 0.930 . S
H326 C334 0.930 . S
O327 Co296 2.037 . S
O327 C347 1.234 . S
C328 O302 1.269 . S
C328 O303 1.257 . S
C329 H304 0.930 . S
C329 C332 1.388 . S
C329 C334 1.418 . S
C330 H325 0.930 . S
C330 C333 1.404 . S
C330 C334 1.353 . S
N331 Co296 2.145 . S
N331 C332 1.397 . S
N331 C333 1.334 . S
C332 H313 0.929 . S
C332 C329 1.388 . S
C332 N331 1.397 . S
C333 H314 0.929 . S
C333 C330 1.404 . S
C333 N331 1.334 . S
C334 H326 0.930 . S
C334 C329 1.418 . S
C334 C330 1.353 . S
C335 H305 0.930 . S
C335 N336 1.330 . S
C335 C337 1.446 . S
N336 Co295 2.151 . S
N336 C335 1.330 . S
N336 C340 1.418 . S
C337 H316 0.929 . S
C337 C335 1.446 . S
C337 C338 1.332 . S
C338 H318 0.931 . S
C338 C337 1.332 . S
C338 C339 1.267 . S
C339 H307 0.929 . S
C339 C338 1.267 . S
C339 C340 1.251 . S
C340 H310 0.929 . S
C340 N336 1.418 . S
C340 C339 1.251 . S
C341 H308 0.930 . S
C341 C343 1.406 . S
C341 C346 1.261 . S
C342 H309 0.930 . S
C342 N344 1.325 . S
C342 C345 1.357 . S
C343 H311 0.928 . S
C343 C341 1.406 . S
C343 N344 1.261 . S
N344 Co295 2.214 . S
N344 C342 1.325 . S
N344 C343 1.261 . S
C345 H315 0.931 . S
C345 C342 1.357 . S
C345 C346 1.312 . S
C346 H317 0.930 . S
C346 C341 1.261 . S
C346 C345 1.312 . S
C347 O319 1.214 . S
C347 O327 1.234 . S
C348 H320 0.929 . S
C348 C351 1.391 . S
C348 C353 1.391 . S
C349 H321 0.929 . S
C349 C350 1.390 . S
C349 N352 1.391 . S
C350 H322 0.930 . S
C350 C349 1.390 . S
C350 C351 1.392 . S
C351 H323 0.929 . S
C351 C348 1.391 . S
C351 C350 1.392 . S
N352 Co296 2.257 . S
N352 C349 1.391 . S
N352 C353 1.388 . S
C353 H324 0.930 . S
C353 C348 1.391 . S
C353 N352 1.388 . S
Co354 O356 2.143 . S
Co354 O362 2.074 . S
Co354 O365 2.093 . S
Co354 O378 2.097 . S
Co354 N395 2.151 . S
Co354 N403 2.214 . S
Co355 O356 2.160 . S
Co355 O361 2.058 . S
Co355 O371 2.057 1_655 S
Co355 O386 2.037 . S
Co355 N390 2.145 . S
Co355 N411 2.257 1_655 S
O356 Co354 2.143 . S
O356 Co355 2.160 . S
C357 O358 1.278 . S
C357 O365 1.224 . S
O358 C357 1.278 . S
C359 O360 1.245 . S
C359 O371 1.232 . S
O360 C359 1.245 . S
O361 Co355 2.058 . S
O361 C387 1.269 . S
O362 Co354 2.074 . S
O362 C387 1.257 . S
H363 C388 0.930 . S
H364 C394 0.930 . S
O365 Co354 2.093 . S
O365 C357 1.224 . S
H366 C398 0.929 . S
H367 C400 0.930 . S
H368 C401 0.930 . S
H369 C399 0.929 . S
H370 C402 0.928 . S
O371 Co355 2.057 1_455 S
O371 C359 1.232 . S
H372 C391 0.929 . S
H373 C392 0.929 . S
H374 C404 0.931 . S
H375 C396 0.929 . S
H376 C405 0.930 . S
H377 C397 0.931 . S
O378 Co354 2.097 . S
O378 C406 1.214 . S
H379 C407 0.929 . S
H380 C408 0.929 1_655 S
H381 C409 0.930 . S
H382 C410 0.929 . S
H383 C412 0.930 . S
H384 C389 0.930 . S
H385 C393 0.930 . S
O386 Co355 2.037 . S
O386 C406 1.234 . S
C387 O361 1.269 . S
C387 O362 1.257 . S
C388 H363 0.930 . S
C388 C391 1.388 . S
C388 C393 1.418 . S
C389 H384 0.930 . S
C389 C392 1.404 . S
C389 C393 1.353 1_455 S
N390 Co355 2.145 . S
N390 C391 1.397 . S
N390 C392 1.334 1_655 S
C391 H372 0.929 . S
C391 C388 1.388 . S
C391 N390 1.397 . S
C392 H373 0.929 . S
C392 C389 1.404 . S
C392 N390 1.334 1_455 S
C393 H385 0.930 . S
C393 C388 1.418 . S
C393 C389 1.353 1_655 S
C394 H364 0.930 . S
C394 N395 1.330 . S
C394 C396 1.446 . S
N395 Co354 2.151 . S
N395 C394 1.330 . S
N395 C399 1.418 . S
C396 H375 0.929 . S
C396 C394 1.446 . S
C396 C397 1.332 . S
C397 H377 0.931 . S
C397 C396 1.332 . S
C397 C398 1.267 . S
C398 H366 0.929 . S
C398 C397 1.267 . S
C398 C399 1.251 . S
C399 H369 0.929 . S
C399 N395 1.418 . S
C399 C398 1.251 . S
C400 H367 0.930 . S
C400 C402 1.406 . S
C400 C405 1.261 . S
C401 H368 0.930 . S
C401 N403 1.325 . S
C401 C404 1.357 . S
C402 H370 0.928 . S
C402 C400 1.406 . S
C402 N403 1.261 . S
N403 Co354 2.214 . S
N403 C401 1.325 . S
N403 C402 1.261 . S
C404 H374 0.931 . S
C404 C401 1.357 . S
C404 C405 1.312 . S
C405 H376 0.930 . S
C405 C400 1.261 . S
C405 C404 1.312 . S
C406 O378 1.214 . S
C406 O386 1.234 . S
C407 H379 0.929 . S
C407 C410 1.391 . S
C407 C412 1.391 . S
C408 H380 0.929 1_455 S
C408 C409 1.390 . S
C408 N411 1.391 . S
C409 H381 0.930 . S
C409 C408 1.390 . S
C409 C410 1.392 . S
C410 H382 0.929 . S
C410 C407 1.391 . S
C410 C409 1.392 . S
N411 Co355 2.257 1_455 S
N411 C408 1.391 . S
N411 C412 1.388 . S
C412 H383 0.930 . S
C412 C407 1.391 . S
C412 N411 1.388 . S
Co413 O415 2.143 . S
Co413 O421 2.074 . S
Co413 O424 2.093 . S
Co413 O437 2.097 . S
Co413 N454 2.151 . S
Co413 N462 2.214 . S
Co414 O415 2.160 . S
Co414 O420 2.058 . S
Co414 O430 2.057 1_565 S
Co414 O445 2.037 . S
Co414 N449 2.145 . S
Co414 N470 2.257 1_565 S
O415 Co413 2.143 . S
O415 Co414 2.160 . S
C416 O417 1.278 . S
C416 O424 1.224 . S
O417 C416 1.278 . S
C418 O419 1.245 . S
C418 O430 1.232 . S
O419 C418 1.245 . S
O420 Co414 2.058 . S
O420 C446 1.269 . S
O421 Co413 2.074 . S
O421 C446 1.257 . S
H422 C447 0.930 . S
H423 C453 0.930 . S
O424 Co413 2.093 . S
O424 C416 1.224 . S
H425 C457 0.929 . S
H426 C459 0.930 . S
H427 C460 0.930 . S
H428 C458 0.929 . S
H429 C461 0.928 . S
O430 Co414 2.057 1_545 S
O430 C418 1.232 . S
H431 C450 0.929 . S
H432 C451 0.929 . S
H433 C463 0.931 . S
H434 C455 0.929 . S
H435 C464 0.930 . S
H436 C456 0.931 . S
O437 Co413 2.097 . S
O437 C465 1.214 . S
H438 C466 0.929 . S
H439 C467 0.929 1_565 S
H440 C468 0.930 . S
H441 C469 0.929 . S
H442 C471 0.930 . S
H443 C448 0.930 . S
H444 C452 0.930 . S
O445 Co414 2.037 . S
O445 C465 1.234 . S
C446 O420 1.269 . S
C446 O421 1.257 . S
C447 H422 0.930 . S
C447 C450 1.388 . S
C447 C452 1.418 . S
C448 H443 0.930 . S
C448 C451 1.404 . S
C448 C452 1.353 1_545 S
N449 Co414 2.145 . S
N449 C450 1.397 . S
N449 C451 1.334 1_565 S
C450 H431 0.929 . S
C450 C447 1.388 . S
C450 N449 1.397 . S
C451 H432 0.929 . S
C451 C448 1.404 . S
C451 N449 1.334 1_545 S
C452 H444 0.930 . S
C452 C447 1.418 . S
C452 C448 1.353 1_565 S
C453 H423 0.930 . S
C453 N454 1.330 . S
C453 C455 1.446 . S
N454 Co413 2.151 . S
N454 C453 1.330 . S
N454 C458 1.418 . S
C455 H434 0.929 . S
C455 C453 1.446 . S
C455 C456 1.332 . S
C456 H436 0.931 . S
C456 C455 1.332 . S
C456 C457 1.267 . S
C457 H425 0.929 . S
C457 C456 1.267 . S
C457 C458 1.251 . S
C458 H428 0.929 . S
C458 N454 1.418 . S
C458 C457 1.251 . S
C459 H426 0.930 . S
C459 C461 1.406 . S
C459 C464 1.261 . S
C460 H427 0.930 . S
C460 N462 1.325 . S
C460 C463 1.357 . S
C461 H429 0.928 . S
C461 C459 1.406 . S
C461 N462 1.261 . S
N462 Co413 2.214 . S
N462 C460 1.325 . S
N462 C461 1.261 . S
C463 H433 0.931 . S
C463 C460 1.357 . S
C463 C464 1.312 . S
C464 H435 0.930 . S
C464 C459 1.261 . S
C464 C463 1.312 . S
C465 O437 1.214 . S
C465 O445 1.234 . S
C466 H438 0.929 . S
C466 C469 1.391 . S
C466 C471 1.391 . S
C467 H439 0.929 1_545 S
C467 C468 1.390 . S
C467 N470 1.391 . S
C468 H440 0.930 . S
C468 C467 1.390 . S
C468 C469 1.392 . S
C469 H441 0.929 . S
C469 C466 1.391 . S
C469 C468 1.392 . S
N470 Co414 2.257 1_545 S
N470 C467 1.391 . S
N470 C471 1.388 . S
C471 H442 0.930 . S
C471 C466 1.391 . S
C471 N470 1.388 . S
Co472 O474 2.143 . S
Co472 O480 2.074 . S
Co472 O483 2.093 . S
Co472 O496 2.097 . S
Co472 N513 2.151 . S
Co472 N521 2.214 . S
Co473 O474 2.160 . S
Co473 O479 2.058 . S
Co473 O489 2.057 . S
Co473 O504 2.037 . S
Co473 N508 2.145 . S
Co473 N529 2.257 . S
O474 Co472 2.143 . S
O474 Co473 2.160 . S
C475 O476 1.278 . S
C475 O483 1.224 . S
O476 C475 1.278 . S
C477 O478 1.245 . S
C477 O489 1.232 . S
O478 C477 1.245 . S
O479 Co473 2.058 . S
O479 C505 1.269 . S
O480 Co472 2.074 . S
O480 C505 1.257 . S
H481 C506 0.930 . S
H482 C512 0.930 . S
O483 Co472 2.093 . S
O483 C475 1.224 . S
H484 C516 0.929 . S
H485 C518 0.930 . S
H486 C519 0.930 . S
H487 C517 0.929 . S
H488 C520 0.928 . S
O489 Co473 2.057 . S
O489 C477 1.232 . S
H490 C509 0.929 . S
H491 C510 0.929 . S
H492 C522 0.931 . S
H493 C514 0.929 . S
H494 C523 0.930 . S
H495 C515 0.931 . S
O496 Co472 2.097 . S
O496 C524 1.214 . S
H497 C525 0.929 . S
H498 C526 0.929 . S
H499 C527 0.930 . S
H500 C528 0.929 . S
H501 C530 0.930 . S
H502 C507 0.930 . S
H503 C511 0.930 . S
O504 Co473 2.037 . S
O504 C524 1.234 . S
C505 O479 1.269 . S
C505 O480 1.257 . S
C506 H481 0.930 . S
C506 C509 1.388 . S
C506 C511 1.418 . S
C507 H502 0.930 . S
C507 C510 1.404 . S
C507 C511 1.353 . S
N508 Co473 2.145 . S
N508 C509 1.397 . S
N508 C510 1.334 . S
C509 H490 0.929 . S
C509 C506 1.388 . S
C509 N508 1.397 . S
C510 H491 0.929 . S
C510 C507 1.404 . S
C510 N508 1.334 . S
C511 H503 0.930 . S
C511 C506 1.418 . S
C511 C507 1.353 . S
C512 H482 0.930 . S
C512 N513 1.330 . S
C512 C514 1.446 . S
N513 Co472 2.151 . S
N513 C512 1.330 . S
N513 C517 1.418 . S
C514 H493 0.929 . S
C514 C512 1.446 . S
C514 C515 1.332 . S
C515 H495 0.931 . S
C515 C514 1.332 . S
C515 C516 1.267 . S
C516 H484 0.929 . S
C516 C515 1.267 . S
C516 C517 1.251 . S
C517 H487 0.929 . S
C517 N513 1.418 . S
C517 C516 1.251 . S
C518 H485 0.930 . S
C518 C520 1.406 . S
C518 C523 1.261 . S
C519 H486 0.930 . S
C519 N521 1.325 . S
C519 C522 1.357 . S
C520 H488 0.928 . S
C520 C518 1.406 . S
C520 N521 1.261 . S
N521 Co472 2.214 . S
N521 C519 1.325 . S
N521 C520 1.261 . S
C522 H492 0.931 . S
C522 C519 1.357 . S
C522 C523 1.312 . S
C523 H494 0.930 . S
C523 C518 1.261 . S
C523 C522 1.312 . S
C524 O496 1.214 . S
C524 O504 1.234 . S
C525 H497 0.929 . S
C525 C528 1.391 . S
C525 C530 1.391 . S
C526 H498 0.929 . S
C526 C527 1.390 . S
C526 N529 1.391 . S
C527 H499 0.930 . S
C527 C526 1.390 . S
C527 C528 1.392 . S
C528 H500 0.929 . S
C528 C525 1.391 . S
C528 C527 1.392 . S
N529 Co473 2.257 . S
N529 C526 1.391 . S
N529 C530 1.388 . S
C530 H501 0.930 . S
C530 C525 1.391 . S
C530 N529 1.388 . S
Co531 O533 2.143 . S
Co531 O539 2.074 . S
Co531 O542 2.093 . S
Co531 O555 2.097 . S
Co531 N572 2.151 . S
Co531 N580 2.214 . S
Co532 O533 2.160 . S
Co532 O538 2.058 . S
Co532 O548 2.057 . S
Co532 O563 2.037 . S
Co532 N567 2.145 . S
Co532 N588 2.257 . S
O533 Co531 2.143 . S
O533 Co532 2.160 . S
C534 O535 1.278 . S
C534 O542 1.224 . S
O535 C534 1.278 . S
C536 O537 1.245 . S
C536 O548 1.232 . S
O537 C536 1.245 . S
O538 Co532 2.058 . S
O538 C564 1.269 . S
O539 Co531 2.074 . S
O539 C564 1.257 . S
H540 C565 0.930 . S
H541 C571 0.930 . S
O542 Co531 2.093 . S
O542 C534 1.224 . S
H543 C575 0.929 . S
H544 C577 0.930 . S
H545 C578 0.930 . S
H546 C576 0.929 . S
H547 C579 0.928 . S
O548 Co532 2.057 . S
O548 C536 1.232 . S
H549 C568 0.929 . S
H550 C569 0.929 . S
H551 C581 0.931 . S
H552 C573 0.929 . S
H553 C582 0.930 . S
H554 C574 0.931 . S
O555 Co531 2.097 . S
O555 C583 1.214 . S
H556 C584 0.929 . S
H557 C585 0.929 . S
H558 C586 0.930 . S
H559 C587 0.929 . S
H560 C589 0.930 . S
H561 C566 0.930 . S
H562 C570 0.930 . S
O563 Co532 2.037 . S
O563 C583 1.234 . S
C564 O538 1.269 . S
C564 O539 1.257 . S
C565 H540 0.930 . S
C565 C568 1.388 . S
C565 C570 1.418 . S
C566 H561 0.930 . S
C566 C569 1.404 . S
C566 C570 1.353 . S
N567 Co532 2.145 . S
N567 C568 1.397 . S
N567 C569 1.334 . S
C568 H549 0.929 . S
C568 C565 1.388 . S
C568 N567 1.397 . S
C569 H550 0.929 . S
C569 C566 1.404 . S
C569 N567 1.334 . S
C570 H562 0.930 . S
C570 C565 1.418 . S
C570 C566 1.353 . S
C571 H541 0.930 . S
C571 N572 1.330 . S
C571 C573 1.446 . S
N572 Co531 2.151 . S
N572 C571 1.330 . S
N572 C576 1.418 . S
C573 H552 0.929 . S
C573 C571 1.446 . S
C573 C574 1.332 . S
C574 H554 0.931 . S
C574 C573 1.332 . S
C574 C575 1.267 . S
C575 H543 0.929 . S
C575 C574 1.267 . S
C575 C576 1.251 . S
C576 H546 0.929 . S
C576 N572 1.418 . S
C576 C575 1.251 . S
C577 H544 0.930 . S
C577 C579 1.406 . S
C577 C582 1.261 . S
C578 H545 0.930 . S
C578 N580 1.325 . S
C578 C581 1.357 . S
C579 H547 0.928 . S
C579 C577 1.406 . S
C579 N580 1.261 . S
N580 Co531 2.214 . S
N580 C578 1.325 . S
N580 C579 1.261 . S
C581 H551 0.931 . S
C581 C578 1.357 . S
C581 C582 1.312 . S
C582 H553 0.930 . S
C582 C577 1.261 . S
C582 C581 1.312 . S
C583 O555 1.214 . S
C583 O563 1.234 . S
C584 H556 0.929 . S
C584 C587 1.391 . S
C584 C589 1.391 . S
C585 H557 0.929 . S
C585 C586 1.390 . S
C585 N588 1.391 . S
C586 H558 0.930 . S
C586 C585 1.390 . S
C586 C587 1.392 . S
C587 H559 0.929 . S
C587 C584 1.391 . S
C587 C586 1.392 . S
N588 Co532 2.257 . S
N588 C585 1.391 . S
N588 C589 1.388 . S
C589 H560 0.930 . S
C589 C584 1.391 . S
C589 N588 1.388 . S
Co590 O592 2.143 . S
Co590 O598 2.074 . S
Co590 O601 2.093 . S
Co590 O614 2.097 . S
Co590 N631 2.151 . S
Co590 N639 2.214 . S
Co591 O592 2.160 . S
Co591 O597 2.058 . S
Co591 O607 2.057 1_455 S
Co591 O622 2.037 . S
Co591 N626 2.145 . S
Co591 N647 2.257 1_455 S
O592 Co590 2.143 . S
O592 Co591 2.160 . S
C593 O594 1.278 . S
C593 O601 1.224 . S
O594 C593 1.278 . S
C595 O596 1.245 . S
C595 O607 1.232 . S
O596 C595 1.245 . S
O597 Co591 2.058 . S
O597 C623 1.269 . S
O598 Co590 2.074 . S
O598 C623 1.257 . S
H599 C624 0.930 . S
H600 C630 0.930 . S
O601 Co590 2.093 . S
O601 C593 1.224 . S
H602 C634 0.929 . S
H603 C636 0.930 . S
H604 C637 0.930 . S
H605 C635 0.929 . S
H606 C638 0.928 . S
O607 Co591 2.057 1_655 S
O607 C595 1.232 . S
H608 C627 0.929 . S
H609 C628 0.929 . S
H610 C640 0.931 . S
H611 C632 0.929 . S
H612 C641 0.930 . S
H613 C633 0.931 . S
O614 Co590 2.097 . S
O614 C642 1.214 . S
H615 C643 0.929 . S
H616 C644 0.929 1_455 S
H617 C645 0.930 . S
H618 C646 0.929 . S
H619 C648 0.930 . S
H620 C625 0.930 . S
H621 C629 0.930 . S
O622 Co591 2.037 . S
O622 C642 1.234 . S
C623 O597 1.269 . S
C623 O598 1.257 . S
C624 H599 0.930 . S
C624 C627 1.388 . S
C624 C629 1.418 . S
C625 H620 0.930 . S
C625 C628 1.404 . S
C625 C629 1.353 1_655 S
N626 Co591 2.145 . S
N626 C627 1.397 . S
N626 C628 1.334 1_455 S
C627 H608 0.929 . S
C627 C624 1.388 . S
C627 N626 1.397 . S
C628 H609 0.929 . S
C628 C625 1.404 . S
C628 N626 1.334 1_655 S
C629 H621 0.930 . S
C629 C624 1.418 . S
C629 C625 1.353 1_455 S
C630 H600 0.930 . S
C630 N631 1.330 . S
C630 C632 1.446 . S
N631 Co590 2.151 . S
N631 C630 1.330 . S
N631 C635 1.418 . S
C632 H611 0.929 . S
C632 C630 1.446 . S
C632 C633 1.332 . S
C633 H613 0.931 . S
C633 C632 1.332 . S
C633 C634 1.267 . S
C634 H602 0.929 . S
C634 C633 1.267 . S
C634 C635 1.251 . S
C635 H605 0.929 . S
C635 N631 1.418 . S
C635 C634 1.251 . S
C636 H603 0.930 . S
C636 C638 1.406 . S
C636 C641 1.261 . S
C637 H604 0.930 . S
C637 N639 1.325 . S
C637 C640 1.357 . S
C638 H606 0.928 . S
C638 C636 1.406 . S
C638 N639 1.261 . S
N639 Co590 2.214 . S
N639 C637 1.325 . S
N639 C638 1.261 . S
C640 H610 0.931 . S
C640 C637 1.357 . S
C640 C641 1.312 . S
C641 H612 0.930 . S
C641 C636 1.261 . S
C641 C640 1.312 . S
C642 O614 1.214 . S
C642 O622 1.234 . S
C643 H615 0.929 . S
C643 C646 1.391 . S
C643 C648 1.391 . S
C644 H616 0.929 1_655 S
C644 C645 1.390 . S
C644 N647 1.391 . S
C645 H617 0.930 . S
C645 C644 1.390 . S
C645 C646 1.392 . S
C646 H618 0.929 . S
C646 C643 1.391 . S
C646 C645 1.392 . S
N647 Co591 2.257 1_655 S
N647 C644 1.391 . S
N647 C648 1.388 . S
C648 H619 0.930 . S
C648 C643 1.391 . S
C648 N647 1.388 . S
Co649 O651 2.143 . S
Co649 O657 2.074 . S
Co649 O660 2.093 . S
Co649 O673 2.097 . S
Co649 N690 2.151 . S
Co649 N698 2.214 . S
Co650 O651 2.160 . S
Co650 O656 2.058 . S
Co650 O666 2.057 1_545 S
Co650 O681 2.037 . S
Co650 N685 2.145 . S
Co650 N706 2.257 1_545 S
O651 Co649 2.143 . S
O651 Co650 2.160 . S
C652 O653 1.278 . S
C652 O660 1.224 . S
O653 C652 1.278 . S
C654 O655 1.245 . S
C654 O666 1.232 . S
O655 C654 1.245 . S
O656 Co650 2.058 . S
O656 C682 1.269 . S
O657 Co649 2.074 . S
O657 C682 1.257 . S
H658 C683 0.930 . S
H659 C689 0.930 . S
O660 Co649 2.093 . S
O660 C652 1.224 . S
H661 C693 0.929 . S
H662 C695 0.930 . S
H663 C696 0.930 . S
H664 C694 0.929 . S
H665 C697 0.928 . S
O666 Co650 2.057 1_565 S
O666 C654 1.232 . S
H667 C686 0.929 . S
H668 C687 0.929 . S
H669 C699 0.931 . S
H670 C691 0.929 . S
H671 C700 0.930 . S
H672 C692 0.931 . S
O673 Co649 2.097 . S
O673 C701 1.214 . S
H674 C702 0.929 . S
H675 C703 0.929 1_545 S
H676 C704 0.930 . S
H677 C705 0.929 . S
H678 C707 0.930 . S
H679 C684 0.930 . S
H680 C688 0.930 . S
O681 Co650 2.037 . S
O681 C701 1.234 . S
C682 O656 1.269 . S
C682 O657 1.257 . S
C683 H658 0.930 . S
C683 C686 1.388 . S
C683 C688 1.418 . S
C684 H679 0.930 . S
C684 C687 1.404 . S
C684 C688 1.353 1_565 S
N685 Co650 2.145 . S
N685 C686 1.397 . S
N685 C687 1.334 1_545 S
C686 H667 0.929 . S
C686 C683 1.388 . S
C686 N685 1.397 . S
C687 H668 0.929 . S
C687 C684 1.404 . S
C687 N685 1.334 1_565 S
C688 H680 0.930 . S
C688 C683 1.418 . S
C688 C684 1.353 1_545 S
C689 H659 0.930 . S
C689 N690 1.330 . S
C689 C691 1.446 . S
N690 Co649 2.151 . S
N690 C689 1.330 . S
N690 C694 1.418 . S
C691 H670 0.929 . S
C691 C689 1.446 . S
C691 C692 1.332 . S
C692 H672 0.931 . S
C692 C691 1.332 . S
C692 C693 1.267 . S
C693 H661 0.929 . S
C693 C692 1.267 . S
C693 C694 1.251 . S
C694 H664 0.929 . S
C694 N690 1.418 . S
C694 C693 1.251 . S
C695 H662 0.930 . S
C695 C697 1.406 . S
C695 C700 1.261 . S
C696 H663 0.930 . S
C696 N698 1.325 . S
C696 C699 1.357 . S
C697 H665 0.928 . S
C697 C695 1.406 . S
C697 N698 1.261 . S
N698 Co649 2.214 . S
N698 C696 1.325 . S
N698 C697 1.261 . S
C699 H669 0.931 . S
C699 C696 1.357 . S
C699 C700 1.312 . S
C700 H671 0.930 . S
C700 C695 1.261 . S
C700 C699 1.312 . S
C701 O673 1.214 . S
C701 O681 1.234 . S
C702 H674 0.929 . S
C702 C705 1.391 . S
C702 C707 1.391 . S
C703 H675 0.929 1_565 S
C703 C704 1.390 . S
C703 N706 1.391 . S
C704 H676 0.930 . S
C704 C703 1.390 . S
C704 C705 1.392 . S
C705 H677 0.929 . S
C705 C702 1.391 . S
C705 C704 1.392 . S
N706 Co650 2.257 1_565 S
N706 C703 1.391 . S
N706 C707 1.388 . S
C707 H678 0.930 . S
C707 C702 1.391 . S
C707 N706 1.388 . S
Co708 O710 2.143 . S
Co708 O716 2.074 . S
Co708 O719 2.093 . S
Co708 O732 2.097 . S
Co708 N749 2.151 . S
Co708 N757 2.214 . S
Co709 O710 2.160 . S
Co709 O715 2.058 . S
Co709 O725 2.057 . S
Co709 O740 2.037 . S
Co709 N744 2.145 . S
Co709 N765 2.257 . S
O710 Co708 2.143 . S
O710 Co709 2.160 . S
C711 O712 1.278 . S
C711 O719 1.224 . S
O712 C711 1.278 . S
C713 O714 1.245 . S
C713 O725 1.232 . S
O714 C713 1.245 . S
O715 Co709 2.058 . S
O715 C741 1.269 . S
O716 Co708 2.074 . S
O716 C741 1.257 . S
H717 C742 0.930 . S
H718 C748 0.930 . S
O719 Co708 2.093 . S
O719 C711 1.224 . S
H720 C752 0.929 . S
H721 C754 0.930 . S
H722 C755 0.930 . S
H723 C753 0.929 . S
H724 C756 0.928 . S
O725 Co709 2.057 . S
O725 C713 1.232 . S
H726 C745 0.929 . S
H727 C746 0.929 . S
H728 C758 0.931 . S
H729 C750 0.929 . S
H730 C759 0.930 . S
H731 C751 0.931 . S
O732 Co708 2.097 . S
O732 C760 1.214 . S
H733 C761 0.929 . S
H734 C762 0.929 . S
H735 C763 0.930 . S
H736 C764 0.929 . S
H737 C766 0.930 . S
H738 C743 0.930 . S
H739 C747 0.930 . S
O740 Co709 2.037 . S
O740 C760 1.234 . S
C741 O715 1.269 . S
C741 O716 1.257 . S
C742 H717 0.930 . S
C742 C745 1.388 . S
C742 C747 1.418 . S
C743 H738 0.930 . S
C743 C746 1.404 . S
C743 C747 1.353 . S
N744 Co709 2.145 . S
N744 C745 1.397 . S
N744 C746 1.334 . S
C745 H726 0.929 . S
C745 C742 1.388 . S
C745 N744 1.397 . S
C746 H727 0.929 . S
C746 C743 1.404 . S
C746 N744 1.334 . S
C747 H739 0.930 . S
C747 C742 1.418 . S
C747 C743 1.353 . S
C748 H718 0.930 . S
C748 N749 1.330 . S
C748 C750 1.446 . S
N749 Co708 2.151 . S
N749 C748 1.330 . S
N749 C753 1.418 . S
C750 H729 0.929 . S
C750 C748 1.446 . S
C750 C751 1.332 . S
C751 H731 0.931 . S
C751 C750 1.332 . S
C751 C752 1.267 . S
C752 H720 0.929 . S
C752 C751 1.267 . S
C752 C753 1.251 . S
C753 H723 0.929 . S
C753 N749 1.418 . S
C753 C752 1.251 . S
C754 H721 0.930 . S
C754 C756 1.406 . S
C754 C759 1.261 . S
C755 H722 0.930 . S
C755 N757 1.325 . S
C755 C758 1.357 . S
C756 H724 0.928 . S
C756 C754 1.406 . S
C756 N757 1.261 . S
N757 Co708 2.214 . S
N757 C755 1.325 . S
N757 C756 1.261 . S
C758 H728 0.931 . S
C758 C755 1.357 . S
C758 C759 1.312 . S
C759 H730 0.930 . S
C759 C754 1.261 . S
C759 C758 1.312 . S
C760 O732 1.214 . S
C760 O740 1.234 . S
C761 H733 0.929 . S
C761 C764 1.391 . S
C761 C766 1.391 . S
C762 H734 0.929 . S
C762 C763 1.390 . S
C762 N765 1.391 . S
C763 H735 0.930 . S
C763 C762 1.390 . S
C763 C764 1.392 . S
C764 H736 0.929 . S
C764 C761 1.391 . S
C764 C763 1.392 . S
N765 Co709 2.257 . S
N765 C762 1.391 . S
N765 C766 1.388 . S
C766 H737 0.930 . S
C766 C761 1.391 . S
C766 N765 1.388 . S
Co767 O769 2.143 . S
Co767 O775 2.074 . S
Co767 O778 2.093 . S
Co767 O791 2.097 . S
Co767 N808 2.151 . S
Co767 N816 2.214 . S
Co768 O769 2.160 . S
Co768 O774 2.058 . S
Co768 O784 2.057 . S
Co768 O799 2.037 . S
Co768 N803 2.145 . S
Co768 N824 2.257 . S
O769 Co767 2.143 . S
O769 Co768 2.160 . S
C770 O771 1.278 . S
C770 O778 1.224 . S
O771 C770 1.278 . S
C772 O773 1.245 . S
C772 O784 1.232 . S
O773 C772 1.245 . S
O774 Co768 2.058 . S
O774 C800 1.269 . S
O775 Co767 2.074 . S
O775 C800 1.257 . S
H776 C801 0.930 . S
H777 C807 0.930 . S
O778 Co767 2.093 . S
O778 C770 1.224 . S
H779 C811 0.929 . S
H780 C813 0.930 . S
H781 C814 0.930 . S
H782 C812 0.929 . S
H783 C815 0.928 . S
O784 Co768 2.057 . S
O784 C772 1.232 . S
H785 C804 0.929 . S
H786 C805 0.929 . S
H787 C817 0.931 . S
H788 C809 0.929 . S
H789 C818 0.930 . S
H790 C810 0.931 . S
O791 Co767 2.097 . S
O791 C819 1.214 . S
H792 C820 0.929 . S
H793 C821 0.929 . S
H794 C822 0.930 . S
H795 C823 0.929 . S
H796 C825 0.930 . S
H797 C802 0.930 . S
H798 C806 0.930 . S
O799 Co768 2.037 . S
O799 C819 1.234 . S
C800 O774 1.269 . S
C800 O775 1.257 . S
C801 H776 0.930 . S
C801 C804 1.388 . S
C801 C806 1.418 . S
C802 H797 0.930 . S
C802 C805 1.404 . S
C802 C806 1.353 . S
N803 Co768 2.145 . S
N803 C804 1.397 . S
N803 C805 1.334 . S
C804 H785 0.929 . S
C804 C801 1.388 . S
C804 N803 1.397 . S
C805 H786 0.929 . S
C805 C802 1.404 . S
C805 N803 1.334 . S
C806 H798 0.930 . S
C806 C801 1.418 . S
C806 C802 1.353 . S
C807 H777 0.930 . S
C807 N808 1.330 . S
C807 C809 1.446 . S
N808 Co767 2.151 . S
N808 C807 1.330 . S
N808 C812 1.418 . S
C809 H788 0.929 . S
C809 C807 1.446 . S
C809 C810 1.332 . S
C810 H790 0.931 . S
C810 C809 1.332 . S
C810 C811 1.267 . S
C811 H779 0.929 . S
C811 C810 1.267 . S
C811 C812 1.251 . S
C812 H782 0.929 . S
C812 N808 1.418 . S
C812 C811 1.251 . S
C813 H780 0.930 . S
C813 C815 1.406 . S
C813 C818 1.261 . S
C814 H781 0.930 . S
C814 N816 1.325 . S
C814 C817 1.357 . S
C815 H783 0.928 . S
C815 C813 1.406 . S
C815 N816 1.261 . S
N816 Co767 2.214 . S
N816 C814 1.325 . S
N816 C815 1.261 . S
C817 H787 0.931 . S
C817 C814 1.357 . S
C817 C818 1.312 . S
C818 H789 0.930 . S
C818 C813 1.261 . S
C818 C817 1.312 . S
C819 O791 1.214 . S
C819 O799 1.234 . S
C820 H792 0.929 . S
C820 C823 1.391 . S
C820 C825 1.391 . S
C821 H793 0.929 . S
C821 C822 1.390 . S
C821 N824 1.391 . S
C822 H794 0.930 . S
C822 C821 1.390 . S
C822 C823 1.392 . S
C823 H795 0.929 . S
C823 C820 1.391 . S
C823 C822 1.392 . S
N824 Co768 2.257 . S
N824 C821 1.391 . S
N824 C825 1.388 . S
C825 H796 0.930 . S
C825 C820 1.391 . S
C825 N824 1.388 . S
Co826 O828 2.143 . S
Co826 O834 2.074 . S
Co826 O837 2.093 . S
Co826 O850 2.097 . S
Co826 N867 2.151 . S
Co826 N875 2.214 . S
Co827 O828 2.160 . S
Co827 O833 2.058 . S
Co827 O843 2.057 1_455 S
Co827 O858 2.037 . S
Co827 N862 2.145 . S
Co827 N883 2.257 1_455 S
O828 Co826 2.143 . S
O828 Co827 2.160 . S
C829 O830 1.278 . S
C829 O837 1.224 . S
O830 C829 1.278 . S
C831 O832 1.245 . S
C831 O843 1.232 . S
O832 C831 1.245 . S
O833 Co827 2.058 . S
O833 C859 1.269 . S
O834 Co826 2.074 . S
O834 C859 1.257 . S
H835 C860 0.930 . S
H836 C866 0.930 . S
O837 Co826 2.093 . S
O837 C829 1.224 . S
H838 C870 0.929 . S
H839 C872 0.930 . S
H840 C873 0.930 . S
H841 C871 0.929 . S
H842 C874 0.928 . S
O843 Co827 2.057 1_655 S
O843 C831 1.232 . S
H844 C863 0.929 . S
H845 C864 0.929 . S
H846 C876 0.931 . S
H847 C868 0.929 . S
H848 C877 0.930 . S
H849 C869 0.931 . S
O850 Co826 2.097 . S
O850 C878 1.214 . S
H851 C879 0.929 . S
H852 C880 0.929 1_455 S
H853 C881 0.930 . S
H854 C882 0.929 . S
H855 C884 0.930 . S
H856 C861 0.930 . S
H857 C865 0.930 . S
O858 Co827 2.037 . S
O858 C878 1.234 . S
C859 O833 1.269 . S
C859 O834 1.257 . S
C860 H835 0.930 . S
C860 C863 1.388 . S
C860 C865 1.418 . S
C861 H856 0.930 . S
C861 C864 1.404 . S
C861 C865 1.353 1_655 S
N862 Co827 2.145 . S
N862 C863 1.397 . S
N862 C864 1.334 1_455 S
C863 H844 0.929 . S
C863 C860 1.388 . S
C863 N862 1.397 . S
C864 H845 0.929 . S
C864 C861 1.404 . S
C864 N862 1.334 1_655 S
C865 H857 0.930 . S
C865 C860 1.418 . S
C865 C861 1.353 1_455 S
C866 H836 0.930 . S
C866 N867 1.330 . S
C866 C868 1.446 . S
N867 Co826 2.151 . S
N867 C866 1.330 . S
N867 C871 1.418 . S
C868 H847 0.929 . S
C868 C866 1.446 . S
C868 C869 1.332 . S
C869 H849 0.931 . S
C869 C868 1.332 . S
C869 C870 1.267 . S
C870 H838 0.929 . S
C870 C869 1.267 . S
C870 C871 1.251 . S
C871 H841 0.929 . S
C871 N867 1.418 . S
C871 C870 1.251 . S
C872 H839 0.930 . S
C872 C874 1.406 . S
C872 C877 1.261 . S
C873 H840 0.930 . S
C873 N875 1.325 . S
C873 C876 1.357 . S
C874 H842 0.928 . S
C874 C872 1.406 . S
C874 N875 1.261 . S
N875 Co826 2.214 . S
N875 C873 1.325 . S
N875 C874 1.261 . S
C876 H846 0.931 . S
C876 C873 1.357 . S
C876 C877 1.312 . S
C877 H848 0.930 . S
C877 C872 1.261 . S
C877 C876 1.312 . S
C878 O850 1.214 . S
C878 O858 1.234 . S
C879 H851 0.929 . S
C879 C882 1.391 . S
C879 C884 1.391 . S
C880 H852 0.929 1_655 S
C880 C881 1.390 . S
C880 N883 1.391 . S
C881 H853 0.930 . S
C881 C880 1.390 . S
C881 C882 1.392 . S
C882 H854 0.929 . S
C882 C879 1.391 . S
C882 C881 1.392 . S
N883 Co827 2.257 1_655 S
N883 C880 1.391 . S
N883 C884 1.388 . S
C884 H855 0.930 . S
C884 C879 1.391 . S
C884 N883 1.388 . S
Co885 O887 2.143 . S
Co885 O893 2.074 . S
Co885 O896 2.093 . S
Co885 O909 2.097 . S
Co885 N926 2.151 . S
Co885 N934 2.214 . S
Co886 O887 2.160 . S
Co886 O892 2.058 . S
Co886 O902 2.057 1_545 S
Co886 O917 2.037 . S
Co886 N921 2.145 . S
Co886 N942 2.257 1_545 S
O887 Co885 2.143 . S
O887 Co886 2.160 . S
C888 O889 1.278 . S
C888 O896 1.224 . S
O889 C888 1.278 . S
C890 O891 1.245 . S
C890 O902 1.232 . S
O891 C890 1.245 . S
O892 Co886 2.058 . S
O892 C918 1.269 . S
O893 Co885 2.074 . S
O893 C918 1.257 . S
H894 C919 0.930 . S
H895 C925 0.930 . S
O896 Co885 2.093 . S
O896 C888 1.224 . S
H897 C929 0.929 . S
H898 C931 0.930 . S
H899 C932 0.930 . S
H900 C930 0.929 . S
H901 C933 0.928 . S
O902 Co886 2.057 1_565 S
O902 C890 1.232 . S
H903 C922 0.929 . S
H904 C923 0.929 . S
H905 C935 0.931 . S
H906 C927 0.929 . S
H907 C936 0.930 . S
H908 C928 0.931 . S
O909 Co885 2.097 . S
O909 C937 1.214 . S
H910 C938 0.929 . S
H911 C939 0.929 1_545 S
H912 C940 0.930 . S
H913 C941 0.929 . S
H914 C943 0.930 . S
H915 C920 0.930 . S
H916 C924 0.930 . S
O917 Co886 2.037 . S
O917 C937 1.234 . S
C918 O892 1.269 . S
C918 O893 1.257 . S
C919 H894 0.930 . S
C919 C922 1.388 . S
C919 C924 1.418 . S
C920 H915 0.930 . S
C920 C923 1.404 . S
C920 C924 1.353 1_565 S
N921 Co886 2.145 . S
N921 C922 1.397 . S
N921 C923 1.334 1_545 S
C922 H903 0.929 . S
C922 C919 1.388 . S
C922 N921 1.397 . S
C923 H904 0.929 . S
C923 C920 1.404 . S
C923 N921 1.334 1_565 S
C924 H916 0.930 . S
C924 C919 1.418 . S
C924 C920 1.353 1_545 S
C925 H895 0.930 . S
C925 N926 1.330 . S
C925 C927 1.446 . S
N926 Co885 2.151 . S
N926 C925 1.330 . S
N926 C930 1.418 . S
C927 H906 0.929 . S
C927 C925 1.446 . S
C927 C928 1.332 . S
C928 H908 0.931 . S
C928 C927 1.332 . S
C928 C929 1.267 . S
C929 H897 0.929 . S
C929 C928 1.267 . S
C929 C930 1.251 . S
C930 H900 0.929 . S
C930 N926 1.418 . S
C930 C929 1.251 . S
C931 H898 0.930 . S
C931 C933 1.406 . S
C931 C936 1.261 . S
C932 H899 0.930 . S
C932 N934 1.325 . S
C932 C935 1.357 . S
C933 H901 0.928 . S
C933 C931 1.406 . S
C933 N934 1.261 . S
N934 Co885 2.214 . S
N934 C932 1.325 . S
N934 C933 1.261 . S
C935 H905 0.931 . S
C935 C932 1.357 . S
C935 C936 1.312 . S
C936 H907 0.930 . S
C936 C931 1.261 . S
C936 C935 1.312 . S
C937 O909 1.214 . S
C937 O917 1.234 . S
C938 H910 0.929 . S
C938 C941 1.391 . S
C938 C943 1.391 . S
C939 H911 0.929 1_565 S
C939 C940 1.390 . S
C939 N942 1.391 . S
C940 H912 0.930 . S
C940 C939 1.390 . S
C940 C941 1.392 . S
C941 H913 0.929 . S
C941 C938 1.391 . S
C941 C940 1.392 . S
N942 Co886 2.257 1_565 S
N942 C939 1.391 . S
N942 C943 1.388 . S
C943 H914 0.930 . S
C943 C938 1.391 . S
C943 N942 1.388 . S
H944 C962 0.951 . S
H945 C964 0.951 . S
H946 C966 0.950 . S
H947 C967 0.950 . S
H948 C969 0.950 . S
H949 C972 0.950 . S
H950 C973 0.950 . S
H951 C975 0.950 . S
H952 C976 0.950 . S
H953 C977 0.951 . S
H954 C979 0.951 . S
H955 C981 0.950 . S
H956 C982 0.950 . S
H957 C984 0.950 . S
H958 C987 0.950 . S
H959 C988 0.950 . S
H960 C990 0.950 . S
H961 C991 0.950 . S
C962 H944 0.951 . S
C962 C963 1.366 . S
C962 C964 1.388 . S
C963 C962 1.366 . S
C963 C967 1.385 . S
C964 H945 0.951 . S
C964 C962 1.388 . S
C964 C965 1.366 . S
C965 C964 1.366 . S
C965 C966 1.414 . S
C965 C968 1.499 . S
C966 H946 0.950 . S
C966 C965 1.414 . S
C966 C967 1.374 . S
C967 H947 0.950 . S
C967 C963 1.385 . S
C967 C966 1.374 . S
C968 C965 1.499 . S
C968 C969 1.373 . S
C968 C970 1.389 . S
C969 H948 0.950 . S
C969 C968 1.373 . S
C969 C985 1.377 . S
C970 C968 1.389 . S
C970 C971 1.524 . S
C970 C984 1.377 . S
C971 C970 1.524 . S
C971 C972 1.397 . S
C971 C976 1.363 . S
C972 H949 0.950 . S
C972 C971 1.397 . S
C972 C973 1.334 . S
C973 H950 0.950 . S
C973 C972 1.334 . S
C973 C974 1.287 . S
C974 C973 1.287 . S
C974 C975 1.524 . S
C974 H993 0.913 . S
C975 H951 0.950 . S
C975 C974 1.524 . S
C975 C976 1.415 . S
C976 H952 0.950 . S
C976 C971 1.363 . S
C976 C975 1.415 . S
C977 H953 0.951 . S
C977 C978 1.366 . S
C977 C979 1.388 . S
C978 C977 1.366 . S
C978 C982 1.385 . S
C979 H954 0.951 . S
C979 C977 1.388 . S
C979 C980 1.366 . S
C980 C979 1.366 . S
C980 C981 1.414 . S
C980 C983 1.499 . S
C981 H955 0.950 . S
C981 C980 1.414 . S
C981 C982 1.374 . S
C982 H956 0.950 . S
C982 C978 1.385 . S
C982 C981 1.374 . S
C983 C980 1.499 . S
C983 C984 1.373 . S
C983 C985 1.389 . S
C984 H957 0.950 . S
C984 C970 1.377 . S
C984 C983 1.373 . S
C985 C969 1.377 . S
C985 C983 1.389 . S
C985 C986 1.524 . S
C986 C985 1.524 . S
C986 C987 1.397 . S
C986 C991 1.363 . S
C987 H958 0.950 . S
C987 C986 1.397 . S
C987 C988 1.334 . S
C988 H959 0.950 . S
C988 C987 1.334 . S
C988 C989 1.287 . S
C989 C988 1.287 . S
C989 C990 1.524 . S
C989 H992 0.999 . S
C990 H960 0.950 . S
C990 C989 1.524 . S
C990 C991 1.415 . S
C991 H961 0.950 . S
C991 C986 1.363 . S
C991 C990 1.415 . S
H992 C989 0.999 . S
H993 C974 0.913 . S
H994 C1012 0.951 . S
H995 C1014 0.951 . S
H996 C1016 0.950 . S
H997 C1017 0.950 . S
H998 C1019 0.950 . S
H999 C1022 0.950 . S
H1000 C1023 0.950 . S
H1001 C1025 0.950 . S
H1002 C1026 0.950 . S
H1003 C1027 0.951 . S
H1004 C1029 0.951 . S
H1005 C1031 0.950 . S
H1006 C1032 0.950 . S
H1007 C1034 0.950 . S
H1008 C1037 0.950 . S
H1009 C1038 0.950 . S
H1010 C1040 0.950 . S
H1011 C1041 0.950 . S
C1012 H994 0.951 . S
C1012 C1013 1.366 . S
C1012 C1014 1.388 . S
C1013 C1012 1.366 . S
C1013 C1017 1.385 . S
C1014 H995 0.951 . S
C1014 C1012 1.388 . S
C1014 C1015 1.366 . S
C1015 C1014 1.366 . S
C1015 C1016 1.414 . S
C1015 C1018 1.499 . S
C1016 H996 0.950 . S
C1016 C1015 1.414 . S
C1016 C1017 1.374 . S
C1017 H997 0.950 . S
C1017 C1013 1.385 . S
C1017 C1016 1.374 . S
C1018 C1015 1.499 . S
C1018 C1019 1.373 . S
C1018 C1020 1.389 . S
C1019 H998 0.950 . S
C1019 C1018 1.373 . S
C1019 C1035 1.377 . S
C1020 C1018 1.389 . S
C1020 C1021 1.524 . S
C1020 C1034 1.377 . S
C1021 C1020 1.524 . S
C1021 C1022 1.397 . S
C1021 C1026 1.363 . S
C1022 H999 0.950 . S
C1022 C1021 1.397 . S
C1022 C1023 1.334 . S
C1023 H1000 0.950 . S
C1023 C1022 1.334 . S
C1023 C1024 1.287 . S
C1024 C1023 1.287 . S
C1024 C1025 1.524 . S
C1024 H1043 0.913 . S
C1025 H1001 0.950 . S
C1025 C1024 1.524 . S
C1025 C1026 1.415 . S
C1026 H1002 0.950 . S
C1026 C1021 1.363 . S
C1026 C1025 1.415 . S
C1027 H1003 0.951 . S
C1027 C1028 1.366 . S
C1027 C1029 1.388 . S
C1028 C1027 1.366 . S
C1028 C1032 1.385 . S
C1029 H1004 0.951 . S
C1029 C1027 1.388 . S
C1029 C1030 1.366 . S
C1030 C1029 1.366 . S
C1030 C1031 1.414 . S
C1030 C1033 1.499 . S
C1031 H1005 0.950 . S
C1031 C1030 1.414 . S
C1031 C1032 1.374 . S
C1032 H1006 0.950 . S
C1032 C1028 1.385 . S
C1032 C1031 1.374 . S
C1033 C1030 1.499 . S
C1033 C1034 1.373 . S
C1033 C1035 1.389 . S
C1034 H1007 0.950 . S
C1034 C1020 1.377 . S
C1034 C1033 1.373 . S
C1035 C1019 1.377 . S
C1035 C1033 1.389 . S
C1035 C1036 1.524 . S
C1036 C1035 1.524 . S
C1036 C1037 1.397 . S
C1036 C1041 1.363 . S
C1037 H1008 0.950 . S
C1037 C1036 1.397 . S
C1037 C1038 1.334 . S
C1038 H1009 0.950 . S
C1038 C1037 1.334 . S
C1038 C1039 1.287 . S
C1039 C1038 1.287 . S
C1039 C1040 1.524 . S
C1039 H1042 0.999 . S
C1040 H1010 0.950 . S
C1040 C1039 1.524 . S
C1040 C1041 1.415 . S
C1041 H1011 0.950 . S
C1041 C1036 1.363 . S
C1041 C1040 1.415 . S
H1042 C1039 0.999 . S
H1043 C1024 0.913 . S
H1044 C1062 0.951 . S
H1045 C1064 0.951 . S
H1046 C1066 0.950 . S
H1047 C1067 0.950 . S
H1048 C1069 0.950 . S
H1049 C1072 0.950 . S
H1050 C1073 0.950 . S
H1051 C1075 0.950 . S
H1052 C1076 0.950 . S
H1053 C1077 0.951 . S
H1054 C1079 0.951 . S
H1055 C1081 0.950 . S
H1056 C1082 0.950 . S
H1057 C1084 0.950 . S
H1058 C1087 0.950 . S
H1059 C1088 0.950 . S
H1060 C1090 0.950 . S
H1061 C1091 0.950 . S
C1062 H1044 0.951 . S
C1062 C1063 1.366 . S
C1062 C1064 1.388 . S
C1063 C1062 1.366 . S
C1063 C1067 1.385 . S
C1064 H1045 0.951 . S
C1064 C1062 1.388 . S
C1064 C1065 1.366 . S
C1065 C1064 1.366 . S
C1065 C1066 1.414 . S
C1065 C1068 1.499 . S
C1066 H1046 0.950 . S
C1066 C1065 1.414 . S
C1066 C1067 1.374 . S
C1067 H1047 0.950 . S
C1067 C1063 1.385 . S
C1067 C1066 1.374 . S
C1068 C1065 1.499 . S
C1068 C1069 1.373 . S
C1068 C1070 1.389 . S
C1069 H1048 0.950 . S
C1069 C1068 1.373 . S
C1069 C1085 1.377 . S
C1070 C1068 1.389 . S
C1070 C1071 1.524 . S
C1070 C1084 1.377 . S
C1071 C1070 1.524 . S
C1071 C1072 1.397 . S
C1071 C1076 1.363 . S
C1072 H1049 0.950 . S
C1072 C1071 1.397 . S
C1072 C1073 1.334 . S
C1073 H1050 0.950 . S
C1073 C1072 1.334 . S
C1073 C1074 1.287 . S
C1074 C1073 1.287 . S
C1074 C1075 1.524 . S
C1074 H1093 0.913 . S
C1075 H1051 0.950 . S
C1075 C1074 1.524 . S
C1075 C1076 1.415 . S
C1076 H1052 0.950 . S
C1076 C1071 1.363 . S
C1076 C1075 1.415 . S
C1077 H1053 0.951 . S
C1077 C1078 1.366 . S
C1077 C1079 1.388 . S
C1078 C1077 1.366 . S
C1078 C1082 1.385 . S
C1079 H1054 0.951 . S
C1079 C1077 1.388 . S
C1079 C1080 1.366 . S
C1080 C1079 1.366 . S
C1080 C1081 1.414 . S
C1080 C1083 1.499 . S
C1081 H1055 0.950 . S
C1081 C1080 1.414 . S
C1081 C1082 1.374 . S
C1082 H1056 0.950 . S
C1082 C1078 1.385 . S
C1082 C1081 1.374 . S
C1083 C1080 1.499 . S
C1083 C1084 1.373 . S
C1083 C1085 1.389 . S
C1084 H1057 0.950 . S
C1084 C1070 1.377 . S
C1084 C1083 1.373 . S
C1085 C1069 1.377 . S
C1085 C1083 1.389 . S
C1085 C1086 1.524 . S
C1086 C1085 1.524 . S
C1086 C1087 1.397 . S
C1086 C1091 1.363 . S
C1087 H1058 0.950 . S
C1087 C1086 1.397 . S
C1087 C1088 1.334 . S
C1088 H1059 0.950 . S
C1088 C1087 1.334 . S
C1088 C1089 1.287 . S
C1089 C1088 1.287 . S
C1089 C1090 1.524 . S
C1089 H1092 0.999 . S
C1090 H1060 0.950 . S
C1090 C1089 1.524 . S
C1090 C1091 1.415 . S
C1091 H1061 0.950 . S
C1091 C1086 1.363 . S
C1091 C1090 1.415 . S
H1092 C1089 0.999 . S
H1093 C1074 0.913 . S
H1094 C1112 0.951 . S
H1095 C1114 0.951 . S
H1096 C1116 0.950 . S
H1097 C1117 0.950 . S
H1098 C1119 0.950 . S
H1099 C1122 0.950 . S
H1100 C1123 0.950 . S
H1101 C1125 0.950 . S
H1102 C1126 0.950 . S
H1103 C1127 0.951 . S
H1104 C1129 0.951 . S
H1105 C1131 0.950 . S
H1106 C1132 0.950 . S
H1107 C1134 0.950 . S
H1108 C1137 0.950 . S
H1109 C1138 0.950 . S
H1110 C1140 0.950 . S
H1111 C1141 0.950 . S
C1112 H1094 0.951 . S
C1112 C1113 1.366 . S
C1112 C1114 1.388 . S
C1113 C1112 1.366 . S
C1113 C1117 1.385 . S
C1114 H1095 0.951 . S
C1114 C1112 1.388 . S
C1114 C1115 1.366 . S
C1115 C1114 1.366 . S
C1115 C1116 1.414 . S
C1115 C1118 1.499 . S
C1116 H1096 0.950 . S
C1116 C1115 1.414 . S
C1116 C1117 1.374 . S
C1117 H1097 0.950 . S
C1117 C1113 1.385 . S
C1117 C1116 1.374 . S
C1118 C1115 1.499 . S
C1118 C1119 1.373 . S
C1118 C1120 1.389 . S
C1119 H1098 0.950 . S
C1119 C1118 1.373 . S
C1119 C1135 1.377 . S
C1120 C1118 1.389 . S
C1120 C1121 1.524 . S
C1120 C1134 1.377 . S
C1121 C1120 1.524 . S
C1121 C1122 1.397 . S
C1121 C1126 1.363 . S
C1122 H1099 0.950 . S
C1122 C1121 1.397 . S
C1122 C1123 1.334 . S
C1123 H1100 0.950 . S
C1123 C1122 1.334 . S
C1123 C1124 1.287 . S
C1124 C1123 1.287 . S
C1124 C1125 1.524 . S
C1124 H1143 0.913 1_545 S
C1125 H1101 0.950 . S
C1125 C1124 1.524 . S
C1125 C1126 1.415 . S
C1126 H1102 0.950 . S
C1126 C1121 1.363 . S
C1126 C1125 1.415 . S
C1127 H1103 0.951 . S
C1127 C1128 1.366 . S
C1127 C1129 1.388 . S
C1128 C1127 1.366 . S
C1128 C1132 1.385 . S
C1129 H1104 0.951 . S
C1129 C1127 1.388 . S
C1129 C1130 1.366 . S
C1130 C1129 1.366 . S
C1130 C1131 1.414 . S
C1130 C1133 1.499 . S
C1131 H1105 0.950 . S
C1131 C1130 1.414 . S
C1131 C1132 1.374 . S
C1132 H1106 0.950 . S
C1132 C1128 1.385 . S
C1132 C1131 1.374 . S
C1133 C1130 1.499 . S
C1133 C1134 1.373 . S
C1133 C1135 1.389 . S
C1134 H1107 0.950 . S
C1134 C1120 1.377 . S
C1134 C1133 1.373 . S
C1135 C1119 1.377 . S
C1135 C1133 1.389 . S
C1135 C1136 1.524 . S
C1136 C1135 1.524 . S
C1136 C1137 1.397 . S
C1136 C1141 1.363 . S
C1137 H1108 0.950 . S
C1137 C1136 1.397 . S
C1137 C1138 1.334 . S
C1138 H1109 0.950 . S
C1138 C1137 1.334 . S
C1138 C1139 1.287 . S
C1139 C1138 1.287 . S
C1139 C1140 1.524 . S
C1139 H1142 0.999 . S
C1140 H1110 0.950 . S
C1140 C1139 1.524 . S
C1140 C1141 1.415 . S
C1141 H1111 0.950 . S
C1141 C1136 1.363 . S
C1141 C1140 1.415 . S
H1142 C1139 0.999 . S
H1143 C1124 0.913 1_565 S
H1144 C1162 0.951 . S
H1145 C1164 0.951 . S
H1146 C1166 0.950 . S
H1147 C1167 0.950 . S
H1148 C1169 0.950 . S
H1149 C1172 0.950 . S
H1150 C1173 0.950 . S
H1151 C1175 0.950 . S
H1152 C1176 0.950 . S
H1153 C1177 0.951 . S
H1154 C1179 0.951 . S
H1155 C1181 0.950 . S
H1156 C1182 0.950 . S
H1157 C1184 0.950 . S
H1158 C1187 0.950 . S
H1159 C1188 0.986 . S
H1160 C1190 0.950 . S
H1161 C1191 0.950 . S
C1162 H1144 0.951 . S
C1162 C1163 1.366 . S
C1162 C1164 1.388 . S
C1163 C1162 1.366 . S
C1163 C1167 1.385 . S
C1164 H1145 0.951 . S
C1164 C1162 1.388 . S
C1164 C1165 1.366 . S
C1165 C1164 1.366 . S
C1165 C1166 1.414 . S
C1165 C1168 1.499 . S
C1166 H1146 0.950 . S
C1166 C1165 1.414 . S
C1166 C1167 1.374 . S
C1167 H1147 0.950 . S
C1167 C1163 1.385 . S
C1167 C1166 1.374 . S
C1168 C1165 1.499 . S
C1168 C1169 1.373 . S
C1168 C1170 1.389 . S
C1169 H1148 0.950 . S
C1169 C1168 1.373 . S
C1169 C1185 1.377 . S
C1170 C1168 1.389 . S
C1170 C1171 1.524 . S
C1170 C1184 1.377 . S
C1171 C1170 1.524 . S
C1171 C1172 1.397 . S
C1171 C1176 1.363 . S
C1172 H1149 0.950 . S
C1172 C1171 1.397 . S
C1172 C1173 1.334 . S
C1173 H1150 0.950 . S
C1173 C1172 1.334 . S
C1173 C1174 1.287 . S
C1174 C1173 1.287 . S
C1174 C1175 1.524 . S
C1174 H1193 0.913 . S
C1175 H1151 0.950 . S
C1175 C1174 1.524 . S
C1175 C1176 1.415 . S
C1176 H1152 0.950 . S
C1176 C1171 1.363 . S
C1176 C1175 1.415 . S
C1177 H1153 0.951 . S
C1177 C1178 1.366 . S
C1177 C1179 1.388 . S
C1178 C1177 1.366 . S
C1178 C1182 1.385 . S
C1179 H1154 0.951 . S
C1179 C1177 1.388 . S
C1179 C1180 1.366 . S
C1180 C1179 1.366 . S
C1180 C1181 1.414 . S
C1180 C1183 1.499 . S
C1181 H1155 0.950 . S
C1181 C1180 1.414 . S
C1181 C1182 1.374 . S
C1182 H1156 0.950 . S
C1182 C1178 1.385 . S
C1182 C1181 1.374 . S
C1183 C1180 1.499 . S
C1183 C1184 1.373 . S
C1183 C1185 1.389 . S
C1184 H1157 0.950 . S
C1184 C1170 1.377 . S
C1184 C1183 1.373 . S
C1185 C1169 1.377 . S
C1185 C1183 1.389 . S
C1185 C1186 1.524 . S
C1186 C1185 1.524 . S
C1186 C1187 1.397 . S
C1186 C1191 1.363 . S
C1187 H1158 0.950 . S
C1187 C1186 1.397 . S
C1187 C1188 1.334 . S
C1188 H1159 0.986 . S
C1188 C1187 1.334 . S
C1188 C1189 1.287 . S
C1189 C1188 1.287 . S
C1189 C1190 1.524 . S
C1189 H1192 1.006 . S
C1190 H1160 0.950 . S
C1190 C1189 1.524 . S
C1190 C1191 1.415 . S
C1191 H1161 0.950 . S
C1191 C1186 1.363 . S
C1191 C1190 1.415 . S
H1192 C1189 1.006 . S
H1193 C1174 0.913 . S
H1194 C1212 0.951 . S
H1195 C1214 0.951 . S
H1196 C1216 0.950 . S
H1197 C1217 0.950 . S
H1198 C1219 0.950 . S
H1199 C1222 0.950 . S
H1200 C1223 0.950 . S
H1201 C1225 0.950 . S
H1202 C1226 0.950 . S
H1203 C1227 0.951 . S
H1204 C1229 0.951 . S
H1205 C1231 0.950 . S
H1206 C1232 0.950 . S
H1207 C1234 0.950 . S
H1208 C1237 0.950 . S
H1209 C1238 0.950 . S
H1210 C1240 0.950 . S
H1211 C1241 0.950 . S
C1212 H1194 0.951 . S
C1212 C1213 1.366 . S
C1212 C1214 1.388 . S
C1213 C1212 1.366 . S
C1213 C1217 1.385 . S
C1214 H1195 0.951 . S
C1214 C1212 1.388 . S
C1214 C1215 1.366 . S
C1215 C1214 1.366 . S
C1215 C1216 1.414 . S
C1215 C1218 1.499 . S
C1216 H1196 0.950 . S
C1216 C1215 1.414 . S
C1216 C1217 1.374 . S
C1217 H1197 0.950 . S
C1217 C1213 1.385 . S
C1217 C1216 1.374 . S
C1218 C1215 1.499 . S
C1218 C1219 1.373 . S
C1218 C1220 1.389 . S
C1219 H1198 0.950 . S
C1219 C1218 1.373 . S
C1219 C1235 1.377 . S
C1220 C1218 1.389 . S
C1220 C1221 1.524 . S
C1220 C1234 1.377 . S
C1221 C1220 1.524 . S
C1221 C1222 1.397 . S
C1221 C1226 1.363 . S
C1222 H1199 0.950 . S
C1222 C1221 1.397 . S
C1222 C1223 1.334 . S
C1223 H1200 0.950 . S
C1223 C1222 1.334 . S
C1223 C1224 1.287 . S
C1224 C1223 1.287 . S
C1224 C1225 1.524 . S
C1224 H1243 0.913 . S
C1225 H1201 0.950 . S
C1225 C1224 1.524 . S
C1225 C1226 1.415 . S
C1226 H1202 0.950 . S
C1226 C1221 1.363 . S
C1226 C1225 1.415 . S
C1227 H1203 0.951 . S
C1227 C1228 1.366 . S
C1227 C1229 1.388 . S
C1228 C1227 1.366 . S
C1228 C1232 1.385 . S
C1229 H1204 0.951 . S
C1229 C1227 1.388 . S
C1229 C1230 1.366 . S
C1230 C1229 1.366 . S
C1230 C1231 1.414 . S
C1230 C1233 1.499 . S
C1231 H1205 0.950 . S
C1231 C1230 1.414 . S
C1231 C1232 1.374 . S
C1232 H1206 0.950 . S
C1232 C1228 1.385 . S
C1232 C1231 1.374 . S
C1233 C1230 1.499 . S
C1233 C1234 1.373 . S
C1233 C1235 1.389 . S
C1234 H1207 0.950 . S
C1234 C1220 1.377 . S
C1234 C1233 1.373 . S
C1235 C1219 1.377 . S
C1235 C1233 1.389 . S
C1235 C1236 1.524 . S
C1236 C1235 1.524 . S
C1236 C1237 1.397 . S
C1236 C1241 1.363 . S
C1237 H1208 0.950 . S
C1237 C1236 1.397 . S
C1237 C1238 1.334 . S
C1238 H1209 0.950 . S
C1238 C1237 1.334 . S
C1238 C1239 1.287 . S
C1239 C1238 1.287 . S
C1239 C1240 1.524 . S
C1239 H1242 0.999 . S
C1240 H1210 0.950 . S
C1240 C1239 1.524 . S
C1240 C1241 1.415 . S
C1241 H1211 0.950 . S
C1241 C1236 1.363 . S
C1241 C1240 1.415 . S
H1242 C1239 0.999 . S
H1243 C1224 0.913 . S
H1244 C1262 0.951 . S
H1245 C1264 0.951 . S
H1246 C1266 0.950 . S
H1247 C1267 0.950 . S
H1248 C1269 0.950 . S
H1249 C1272 0.950 . S
H1250 C1273 0.950 . S
H1251 C1275 0.950 . S
H1252 C1276 0.950 . S
H1253 C1277 0.951 . S
H1254 C1279 0.951 . S
H1255 C1281 0.950 . S
H1256 C1282 0.950 . S
H1257 C1284 0.950 . S
H1258 C1287 0.950 . S
H1259 C1288 0.950 . S
H1260 C1290 0.950 . S
H1261 C1291 0.950 . S
C1262 H1244 0.951 . S
C1262 C1263 1.366 . S
C1262 C1264 1.388 . S
C1263 C1262 1.366 . S
C1263 C1267 1.385 . S
C1264 H1245 0.951 . S
C1264 C1262 1.388 . S
C1264 C1265 1.366 . S
C1265 C1264 1.366 . S
C1265 C1266 1.414 . S
C1265 C1268 1.499 . S
C1266 H1246 0.950 . S
C1266 C1265 1.414 . S
C1266 C1267 1.374 . S
C1267 H1247 0.950 . S
C1267 C1263 1.385 . S
C1267 C1266 1.374 . S
C1268 C1265 1.499 . S
C1268 C1269 1.373 . S
C1268 C1270 1.389 . S
C1269 H1248 0.950 . S
C1269 C1268 1.373 . S
C1269 C1285 1.377 . S
C1270 C1268 1.389 . S
C1270 C1271 1.524 . S
C1270 C1284 1.377 . S
C1271 C1270 1.524 . S
C1271 C1272 1.397 . S
C1271 C1276 1.363 . S
C1272 H1249 0.950 . S
C1272 C1271 1.397 . S
C1272 C1273 1.334 . S
C1273 H1250 0.950 . S
C1273 C1272 1.334 . S
C1273 C1274 1.287 . S
C1274 C1273 1.287 . S
C1274 C1275 1.524 . S
C1274 H1293 0.913 . S
C1275 H1251 0.950 . S
C1275 C1274 1.524 . S
C1275 C1276 1.415 . S
C1276 H1252 0.950 . S
C1276 C1271 1.363 . S
C1276 C1275 1.415 . S
C1277 H1253 0.951 . S
C1277 C1278 1.366 . S
C1277 C1279 1.388 . S
C1278 C1277 1.366 . S
C1278 C1282 1.385 . S
C1279 H1254 0.951 . S
C1279 C1277 1.388 . S
C1279 C1280 1.366 . S
C1280 C1279 1.366 . S
C1280 C1281 1.414 . S
C1280 C1283 1.499 . S
C1281 H1255 0.950 . S
C1281 C1280 1.414 . S
C1281 C1282 1.374 . S
C1282 H1256 0.950 . S
C1282 C1278 1.385 . S
C1282 C1281 1.374 . S
C1283 C1280 1.499 . S
C1283 C1284 1.373 . S
C1283 C1285 1.389 . S
C1284 H1257 0.950 . S
C1284 C1270 1.377 . S
C1284 C1283 1.373 . S
C1285 C1269 1.377 . S
C1285 C1283 1.389 . S
C1285 C1286 1.524 . S
C1286 C1285 1.524 . S
C1286 C1287 1.397 . S
C1286 C1291 1.363 . S
C1287 H1258 0.950 . S
C1287 C1286 1.397 . S
C1287 C1288 1.334 . S
C1288 H1259 0.950 . S
C1288 C1287 1.334 . S
C1288 C1289 1.287 . S
C1289 C1288 1.287 . S
C1289 C1290 1.524 . S
C1289 H1292 0.999 . S
C1290 H1260 0.950 . S
C1290 C1289 1.524 . S
C1290 C1291 1.415 . S
C1291 H1261 0.950 . S
C1291 C1286 1.363 . S
C1291 C1290 1.415 . S
H1292 C1289 0.999 . S
H1293 C1274 0.913 . S
H1294 C1312 0.951 . S
H1295 C1314 0.951 . S
H1296 C1316 0.950 . S
H1297 C1317 0.950 . S
H1298 C1319 0.950 . S
H1299 C1322 0.950 . S
H1300 C1323 0.950 . S
H1301 C1325 0.950 . S
H1302 C1326 0.950 . S
H1303 C1327 0.951 . S
H1304 C1329 0.951 . S
H1305 C1331 0.950 . S
H1306 C1332 0.950 . S
H1307 C1334 0.950 . S
H1308 C1337 0.950 . S
H1309 C1338 0.950 . S
H1310 C1340 0.950 . S
H1311 C1341 0.950 . S
C1312 H1294 0.951 . S
C1312 C1313 1.366 . S
C1312 C1314 1.388 . S
C1313 C1312 1.366 . S
C1313 C1317 1.385 . S
C1314 H1295 0.951 . S
C1314 C1312 1.388 . S
C1314 C1315 1.366 . S
C1315 C1314 1.366 . S
C1315 C1316 1.414 . S
C1315 C1318 1.499 . S
C1316 H1296 0.950 . S
C1316 C1315 1.414 . S
C1316 C1317 1.374 . S
C1317 H1297 0.950 . S
C1317 C1313 1.385 . S
C1317 C1316 1.374 . S
C1318 C1315 1.499 . S
C1318 C1319 1.373 . S
C1318 C1320 1.389 . S
C1319 H1298 0.950 . S
C1319 C1318 1.373 . S
C1319 C1335 1.377 . S
C1320 C1318 1.389 . S
C1320 C1321 1.524 . S
C1320 C1334 1.377 . S
C1321 C1320 1.524 . S
C1321 C1322 1.397 . S
C1321 C1326 1.363 . S
C1322 H1299 0.950 . S
C1322 C1321 1.397 . S
C1322 C1323 1.334 . S
C1323 H1300 0.950 . S
C1323 C1322 1.334 . S
C1323 C1324 1.287 . S
C1324 C1323 1.287 . S
C1324 C1325 1.524 . S
C1324 H1343 0.913 1_565 S
C1325 H1301 0.950 . S
C1325 C1324 1.524 . S
C1325 C1326 1.415 . S
C1326 H1302 0.950 . S
C1326 C1321 1.363 . S
C1326 C1325 1.415 . S
C1327 H1303 0.951 . S
C1327 C1328 1.366 . S
C1327 C1329 1.388 . S
C1328 C1327 1.366 . S
C1328 C1332 1.385 . S
C1329 H1304 0.951 . S
C1329 C1327 1.388 . S
C1329 C1330 1.366 . S
C1330 C1329 1.366 . S
C1330 C1331 1.414 . S
C1330 C1333 1.499 . S
C1331 H1305 0.950 . S
C1331 C1330 1.414 . S
C1331 C1332 1.374 . S
C1332 H1306 0.950 . S
C1332 C1328 1.385 . S
C1332 C1331 1.374 . S
C1333 C1330 1.499 . S
C1333 C1334 1.373 . S
C1333 C1335 1.389 . S
C1334 H1307 0.950 . S
C1334 C1320 1.377 . S
C1334 C1333 1.373 . S
C1335 C1319 1.377 . S
C1335 C1333 1.389 . S
C1335 C1336 1.524 . S
C1336 C1335 1.524 . S
C1336 C1337 1.397 . S
C1336 C1341 1.363 . S
C1337 H1308 0.950 . S
C1337 C1336 1.397 . S
C1337 C1338 1.334 . S
C1338 H1309 0.950 . S
C1338 C1337 1.334 . S
C1338 C1339 1.287 . S
C1339 C1338 1.287 . S
C1339 C1340 1.524 . S
C1339 H1342 0.999 . S
C1340 H1310 0.950 . S
C1340 C1339 1.524 . S
C1340 C1341 1.415 . S
C1341 H1311 0.950 . S
C1341 C1336 1.363 . S
C1341 C1340 1.415 . S
H1342 C1339 0.999 . S
H1343 C1324 0.913 1_545 S
H1344 C1362 0.951 . S
H1345 C1364 0.951 . S
H1346 C1366 0.950 . S
H1347 C1367 0.950 . S
H1348 C1369 0.950 . S
H1349 C1372 0.950 . S
H1350 C1373 0.950 . S
H1351 C1375 0.950 . S
H1352 C1376 0.950 . S
H1353 C1377 0.951 . S
H1354 C1379 0.951 . S
H1355 C1381 0.950 . S
H1356 C1382 0.950 . S
H1357 C1384 0.950 . S
H1358 C1387 0.950 . S
H1359 C1388 0.950 . S
H1360 C1390 0.950 . S
H1361 C1391 0.950 . S
C1362 H1344 0.951 . S
C1362 C1363 1.366 . S
C1362 C1364 1.388 . S
C1363 C1362 1.366 . S
C1363 C1367 1.385 . S
C1364 H1345 0.951 . S
C1364 C1362 1.388 . S
C1364 C1365 1.366 . S
C1365 C1364 1.366 . S
C1365 C1366 1.414 . S
C1365 C1368 1.499 . S
C1366 H1346 0.950 . S
C1366 C1365 1.414 . S
C1366 C1367 1.374 . S
C1367 H1347 0.950 . S
C1367 C1363 1.385 . S
C1367 C1366 1.374 . S
C1368 C1365 1.499 . S
C1368 C1369 1.373 . S
C1368 C1370 1.389 . S
C1369 H1348 0.950 . S
C1369 C1368 1.373 . S
C1369 C1385 1.377 . S
C1370 C1368 1.389 . S
C1370 C1371 1.524 . S
C1370 C1384 1.377 . S
C1371 C1370 1.524 . S
C1371 C1372 1.397 . S
C1371 C1376 1.363 . S
C1372 H1349 0.950 . S
C1372 C1371 1.397 . S
C1372 C1373 1.334 . S
C1373 H1350 0.950 . S
C1373 C1372 1.334 . S
C1373 C1374 1.287 . S
C1374 C1373 1.287 . S
C1374 C1375 1.524 . S
C1374 H1393 0.913 . S
C1375 H1351 0.950 . S
C1375 C1374 1.524 . S
C1375 C1376 1.415 . S
C1376 H1352 0.950 . S
C1376 C1371 1.363 . S
C1376 C1375 1.415 . S
C1377 H1353 0.951 . S
C1377 C1378 1.366 . S
C1377 C1379 1.388 . S
C1378 C1377 1.366 . S
C1378 C1382 1.385 . S
C1379 H1354 0.951 . S
C1379 C1377 1.388 . S
C1379 C1380 1.366 . S
C1380 C1379 1.366 . S
C1380 C1381 1.414 . S
C1380 C1383 1.499 . S
C1381 H1355 0.950 . S
C1381 C1380 1.414 . S
C1381 C1382 1.374 . S
C1382 H1356 0.950 . S
C1382 C1378 1.385 . S
C1382 C1381 1.374 . S
C1383 C1380 1.499 . S
C1383 C1384 1.373 . S
C1383 C1385 1.389 . S
C1384 H1357 0.950 . S
C1384 C1370 1.377 . S
C1384 C1383 1.373 . S
C1385 C1369 1.377 . S
C1385 C1383 1.389 . S
C1385 C1386 1.524 . S
C1386 C1385 1.524 . S
C1386 C1387 1.397 . S
C1386 C1391 1.363 . S
C1387 H1358 0.950 . S
C1387 C1386 1.397 . S
C1387 C1388 1.334 . S
C1388 H1359 0.950 . S
C1388 C1387 1.334 . S
C1388 C1389 1.287 . S
C1389 C1388 1.287 . S
C1389 C1390 1.524 . S
C1389 H1392 0.999 . S
C1390 H1360 0.950 . S
C1390 C1389 1.524 . S
C1390 C1391 1.415 . S
C1391 H1361 0.950 . S
C1391 C1386 1.363 . S
C1391 C1390 1.415 . S
H1392 C1389 0.999 . S
H1393 C1374 0.913 . S
H1394 C1412 0.951 . S
H1395 C1414 0.951 . S
H1396 C1416 0.950 . S
H1397 C1417 0.950 . S
H1398 C1419 0.950 . S
H1399 C1422 0.950 . S
H1400 C1423 0.950 . S
H1401 C1425 0.950 . S
H1402 C1426 0.950 . S
H1403 C1427 0.951 . S
H1404 C1429 0.951 . S
H1405 C1431 0.950 . S
H1406 C1432 0.950 . S
H1407 C1434 0.950 . S
H1408 C1437 0.950 . S
H1409 C1438 0.950 . S
H1410 C1440 0.950 . S
H1411 C1441 0.950 . S
C1412 H1394 0.951 . S
C1412 C1413 1.366 . S
C1412 C1414 1.388 . S
C1413 C1412 1.366 . S
C1413 C1417 1.385 . S
C1414 H1395 0.951 . S
C1414 C1412 1.388 . S
C1414 C1415 1.366 . S
C1415 C1414 1.366 . S
C1415 C1416 1.414 . S
C1415 C1418 1.499 . S
C1416 H1396 0.950 . S
C1416 C1415 1.414 . S
C1416 C1417 1.374 . S
C1417 H1397 0.950 . S
C1417 C1413 1.385 . S
C1417 C1416 1.374 . S
C1418 C1415 1.499 . S
C1418 C1419 1.373 . S
C1418 C1420 1.389 . S
C1419 H1398 0.950 . S
C1419 C1418 1.373 . S
C1419 C1435 1.377 . S
C1420 C1418 1.389 . S
C1420 C1421 1.524 . S
C1420 C1434 1.377 . S
C1421 C1420 1.524 . S
C1421 C1422 1.397 . S
C1421 C1426 1.363 . S
C1422 H1399 0.950 . S
C1422 C1421 1.397 . S
C1422 C1423 1.334 . S
C1423 H1400 0.950 . S
C1423 C1422 1.334 . S
C1423 C1424 1.287 . S
C1424 C1423 1.287 . S
C1424 C1425 1.524 . S
C1424 H1443 0.913 . S
C1425 H1401 0.950 . S
C1425 C1424 1.524 . S
C1425 C1426 1.415 . S
C1426 H1402 0.950 . S
C1426 C1421 1.363 . S
C1426 C1425 1.415 . S
C1427 H1403 0.951 . S
C1427 C1428 1.366 . S
C1427 C1429 1.388 . S
C1428 C1427 1.366 . S
C1428 C1432 1.385 . S
C1429 H1404 0.951 . S
C1429 C1427 1.388 . S
C1429 C1430 1.366 . S
C1430 C1429 1.366 . S
C1430 C1431 1.414 . S
C1430 C1433 1.499 . S
C1431 H1405 0.950 . S
C1431 C1430 1.414 . S
C1431 C1432 1.374 . S
C1432 H1406 0.950 . S
C1432 C1428 1.385 . S
C1432 C1431 1.374 . S
C1433 C1430 1.499 . S
C1433 C1434 1.373 . S
C1433 C1435 1.389 . S
C1434 H1407 0.950 . S
C1434 C1420 1.377 . S
C1434 C1433 1.373 . S
C1435 C1419 1.377 . S
C1435 C1433 1.389 . S
C1435 C1436 1.524 . S
C1436 C1435 1.524 . S
C1436 C1437 1.397 . S
C1436 C1441 1.363 . S
C1437 H1408 0.950 . S
C1437 C1436 1.397 . S
C1437 C1438 1.334 . S
C1438 H1409 0.950 . S
C1438 C1437 1.334 . S
C1438 C1439 1.287 . S
C1439 C1438 1.287 . S
C1439 C1440 1.524 . S
C1439 H1442 0.999 . S
C1440 H1410 0.950 . S
C1440 C1439 1.524 . S
C1440 C1441 1.415 . S
C1441 H1411 0.950 . S
C1441 C1436 1.363 . S
C1441 C1440 1.415 . S
H1442 C1439 0.999 . S
H1443 C1424 0.913 . S
H1444 C1462 0.951 . S
H1445 C1464 0.951 . S
H1446 C1466 0.950 . S
H1447 C1467 0.950 . S
H1448 C1469 0.950 . S
H1449 C1472 0.950 . S
H1450 C1473 0.950 . S
H1451 C1475 0.950 . S
H1452 C1476 0.950 . S
H1453 C1477 0.951 . S
H1454 C1479 0.951 . S
H1455 C1481 0.950 . S
H1456 C1482 0.950 . S
H1457 C1484 0.950 . S
H1458 C1487 0.950 . S
H1459 C1488 0.950 . S
H1460 C1490 0.950 . S
H1461 C1491 0.950 . S
C1462 H1444 0.951 . S
C1462 C1463 1.366 . S
C1462 C1464 1.388 . S
C1463 C1462 1.366 . S
C1463 C1467 1.385 . S
C1464 H1445 0.951 . S
C1464 C1462 1.388 . S
C1464 C1465 1.366 . S
C1465 C1464 1.366 . S
C1465 C1466 1.414 . S
C1465 C1468 1.499 . S
C1466 H1446 0.950 . S
C1466 C1465 1.414 . S
C1466 C1467 1.374 . S
C1467 H1447 0.950 . S
C1467 C1463 1.385 . S
C1467 C1466 1.374 . S
C1468 C1465 1.499 . S
C1468 C1469 1.373 . S
C1468 C1470 1.389 . S
C1469 H1448 0.950 . S
C1469 C1468 1.373 . S
C1469 C1485 1.377 . S
C1470 C1468 1.389 . S
C1470 C1471 1.524 . S
C1470 C1484 1.377 . S
C1471 C1470 1.524 . S
C1471 C1472 1.397 . S
C1471 C1476 1.363 . S
C1472 H1449 0.950 . S
C1472 C1471 1.397 . S
C1472 C1473 1.334 . S
C1473 H1450 0.950 . S
C1473 C1472 1.334 . S
C1473 C1474 1.287 . S
C1474 C1473 1.287 . S
C1474 C1475 1.524 . S
C1474 H1493 0.913 . S
C1475 H1451 0.950 . S
C1475 C1474 1.524 . S
C1475 C1476 1.415 . S
C1476 H1452 0.950 . S
C1476 C1471 1.363 . S
C1476 C1475 1.415 . S
C1477 H1453 0.951 . S
C1477 C1478 1.366 . S
C1477 C1479 1.388 . S
C1478 C1477 1.366 . S
C1478 C1482 1.385 . S
C1479 H1454 0.951 . S
C1479 C1477 1.388 . S
C1479 C1480 1.366 . S
C1480 C1479 1.366 . S
C1480 C1481 1.414 . S
C1480 C1483 1.499 . S
C1481 H1455 0.950 . S
C1481 C1480 1.414 . S
C1481 C1482 1.374 . S
C1482 H1456 0.950 . S
C1482 C1478 1.385 . S
C1482 C1481 1.374 . S
C1483 C1480 1.499 . S
C1483 C1484 1.373 . S
C1483 C1485 1.389 . S
C1484 H1457 0.950 . S
C1484 C1470 1.377 . S
C1484 C1483 1.373 . S
C1485 C1469 1.377 . S
C1485 C1483 1.389 . S
C1485 C1486 1.524 . S
C1486 C1485 1.524 . S
C1486 C1487 1.397 . S
C1486 C1491 1.363 . S
C1487 H1458 0.950 . S
C1487 C1486 1.397 . S
C1487 C1488 1.334 . S
C1488 H1459 0.950 . S
C1488 C1487 1.334 . S
C1488 C1489 1.287 . S
C1489 C1488 1.287 . S
C1489 C1490 1.524 . S
C1489 H1492 0.999 . S
C1490 H1460 0.950 . S
C1490 C1489 1.524 . S
C1490 C1491 1.415 . S
C1491 H1461 0.950 . S
C1491 C1486 1.363 . S
C1491 C1490 1.415 . S
H1492 C1489 0.999 . S
H1493 C1474 0.913 . S
H1494 C1512 0.951 . S
H1495 C1514 0.951 . S
H1496 C1516 0.950 . S
H1497 C1517 0.950 . S
H1498 C1519 0.950 . S
H1499 C1522 0.950 . S
H1500 C1523 0.950 . S
H1501 C1525 0.950 . S
H1502 C1526 0.950 . S
H1503 C1527 0.951 . S
H1504 C1529 0.951 . S
H1505 C1531 0.950 . S
H1506 C1532 0.950 . S
H1507 C1534 0.950 . S
H1508 C1537 0.950 . S
H1509 C1538 0.950 . S
H1510 C1540 0.950 . S
H1511 C1541 0.950 . S
C1512 H1494 0.951 . S
C1512 C1513 1.366 . S
C1512 C1514 1.388 . S
C1513 C1512 1.366 . S
C1513 C1517 1.385 . S
C1514 H1495 0.951 . S
C1514 C1512 1.388 . S
C1514 C1515 1.366 . S
C1515 C1514 1.366 . S
C1515 C1516 1.414 . S
C1515 C1518 1.499 . S
C1516 H1496 0.950 . S
C1516 C1515 1.414 . S
C1516 C1517 1.374 . S
C1517 H1497 0.950 . S
C1517 C1513 1.385 . S
C1517 C1516 1.374 . S
C1518 C1515 1.499 . S
C1518 C1519 1.373 . S
C1518 C1520 1.389 . S
C1519 H1498 0.950 . S
C1519 C1518 1.373 . S
C1519 C1535 1.377 . S
C1520 C1518 1.389 . S
C1520 C1521 1.524 . S
C1520 C1534 1.377 . S
C1521 C1520 1.524 . S
C1521 C1522 1.397 . S
C1521 C1526 1.363 . S
C1522 H1499 0.950 . S
C1522 C1521 1.397 . S
C1522 C1523 1.334 . S
C1523 H1500 0.950 . S
C1523 C1522 1.334 . S
C1523 C1524 1.287 . S
C1524 C1523 1.287 . S
C1524 C1525 1.524 . S
C1524 H1543 0.913 . S
C1525 H1501 0.950 . S
C1525 C1524 1.524 . S
C1525 C1526 1.415 . S
C1526 H1502 0.950 . S
C1526 C1521 1.363 . S
C1526 C1525 1.415 . S
C1527 H1503 0.951 . S
C1527 C1528 1.366 . S
C1527 C1529 1.388 . S
C1528 C1527 1.366 . S
C1528 C1532 1.385 . S
C1529 H1504 0.951 . S
C1529 C1527 1.388 . S
C1529 C1530 1.366 . S
C1530 C1529 1.366 . S
C1530 C1531 1.414 . S
C1530 C1533 1.499 . S
C1531 H1505 0.950 . S
C1531 C1530 1.414 . S
C1531 C1532 1.374 . S
C1532 H1506 0.950 . S
C1532 C1528 1.385 . S
C1532 C1531 1.374 . S
C1533 C1530 1.499 . S
C1533 C1534 1.373 . S
C1533 C1535 1.389 . S
C1534 H1507 0.950 . S
C1534 C1520 1.377 . S
C1534 C1533 1.373 . S
C1535 C1519 1.377 . S
C1535 C1533 1.389 . S
C1535 C1536 1.524 . S
C1536 C1535 1.524 . S
C1536 C1537 1.397 . S
C1536 C1541 1.363 . S
C1537 H1508 0.950 . S
C1537 C1536 1.397 . S
C1537 C1538 1.334 . S
C1538 H1509 0.950 . S
C1538 C1537 1.334 . S
C1538 C1539 1.287 . S
C1539 C1538 1.287 . S
C1539 C1540 1.524 . S
C1539 H1542 0.999 . S
C1540 H1510 0.950 . S
C1540 C1539 1.524 . S
C1540 C1541 1.415 . S
C1541 H1511 0.950 . S
C1541 C1536 1.363 . S
C1541 C1540 1.415 . S
H1542 C1539 0.999 . S
H1543 C1524 0.913 . S
H1544 C1562 0.951 . S
H1545 C1564 0.951 . S
H1546 C1566 0.950 . S
H1547 C1567 0.950 . S
H1548 C1569 0.950 . S
H1549 C1572 0.950 . S
H1550 C1573 0.950 . S
H1551 C1575 0.950 . S
H1552 C1576 0.950 . S
H1553 C1577 0.951 . S
H1554 C1579 0.951 . S
H1555 C1581 0.950 . S
H1556 C1582 0.950 . S
H1557 C1584 0.950 . S
H1558 C1587 0.950 . S
H1559 C1588 0.950 . S
H1560 C1590 0.950 . S
H1561 C1591 0.950 . S
C1562 H1544 0.951 . S
C1562 C1563 1.366 . S
C1562 C1564 1.388 . S
C1563 C1562 1.366 . S
C1563 C1567 1.385 . S
C1564 H1545 0.951 . S
C1564 C1562 1.388 . S
C1564 C1565 1.366 . S
C1565 C1564 1.366 . S
C1565 C1566 1.414 . S
C1565 C1568 1.499 . S
C1566 H1546 0.950 . S
C1566 C1565 1.414 . S
C1566 C1567 1.374 . S
C1567 H1547 0.950 . S
C1567 C1563 1.385 . S
C1567 C1566 1.374 . S
C1568 C1565 1.499 . S
C1568 C1569 1.373 . S
C1568 C1570 1.389 . S
C1569 H1548 0.950 . S
C1569 C1568 1.373 . S
C1569 C1585 1.377 . S
C1570 C1568 1.389 . S
C1570 C1571 1.524 . S
C1570 C1584 1.377 . S
C1571 C1570 1.524 . S
C1571 C1572 1.397 . S
C1571 C1576 1.363 . S
C1572 H1549 0.950 . S
C1572 C1571 1.397 . S
C1572 C1573 1.334 . S
C1573 H1550 0.950 . S
C1573 C1572 1.334 . S
C1573 C1574 1.287 . S
C1574 C1573 1.287 . S
C1574 C1575 1.524 . S
C1574 H1593 0.913 . S
C1575 H1551 0.950 . S
C1575 C1574 1.524 . S
C1575 C1576 1.415 . S
C1576 H1552 0.950 . S
C1576 C1571 1.363 . S
C1576 C1575 1.415 . S
C1577 H1553 0.951 . S
C1577 C1578 1.366 . S
C1577 C1579 1.388 . S
C1578 C1577 1.366 . S
C1578 C1582 1.385 . S
C1579 H1554 0.951 . S
C1579 C1577 1.388 . S
C1579 C1580 1.366 . S
C1580 C1579 1.366 . S
C1580 C1581 1.414 . S
C1580 C1583 1.499 . S
C1581 H1555 0.950 . S
C1581 C1580 1.414 . S
C1581 C1582 1.374 . S
C1582 H1556 0.950 . S
C1582 C1578 1.385 . S
C1582 C1581 1.374 . S
C1583 C1580 1.499 . S
C1583 C1584 1.373 . S
C1583 C1585 1.389 . S
C1584 H1557 0.950 . S
C1584 C1570 1.377 . S
C1584 C1583 1.373 . S
C1585 C1569 1.377 . S
C1585 C1583 1.389 . S
C1585 C1586 1.524 . S
C1586 C1585 1.524 . S
C1586 C1587 1.397 . S
C1586 C1591 1.363 . S
C1587 H1558 0.950 . S
C1587 C1586 1.397 . S
C1587 C1588 1.334 . S
C1588 H1559 0.950 . S
C1588 C1587 1.334 . S
C1588 C1589 1.287 . S
C1589 C1588 1.287 . S
C1589 C1590 1.524 . S
C1589 H1592 0.999 . S
C1590 H1560 0.950 . S
C1590 C1589 1.524 . S
C1590 C1591 1.415 . S
C1591 H1561 0.950 . S
C1591 C1586 1.363 . S
C1591 C1590 1.415 . S
H1592 C1589 0.999 . S
H1593 C1574 0.913 . S
H1594 C1612 0.951 . S
H1595 C1614 0.951 . S
H1596 C1616 0.950 . S
H1597 C1617 0.950 . S
H1598 C1619 0.950 . S
H1599 C1622 0.950 . S
H1600 C1623 0.950 . S
H1601 C1625 0.950 . S
H1602 C1626 0.950 . S
H1603 C1627 0.951 . S
H1604 C1629 0.951 . S
H1605 C1631 0.950 . S
H1606 C1632 0.950 . S
H1607 C1634 0.950 . S
H1608 C1637 0.950 . S
H1609 C1638 0.950 . S
H1610 C1640 0.950 . S
H1611 C1641 0.950 . S
C1612 H1594 0.951 . S
C1612 C1613 1.366 . S
C1612 C1614 1.388 . S
C1613 C1612 1.366 . S
C1613 C1617 1.385 . S
C1614 H1595 0.951 . S
C1614 C1612 1.388 . S
C1614 C1615 1.366 . S
C1615 C1614 1.366 . S
C1615 C1616 1.414 . S
C1615 C1618 1.499 . S
C1616 H1596 0.950 . S
C1616 C1615 1.414 . S
C1616 C1617 1.374 . S
C1617 H1597 0.950 . S
C1617 C1613 1.385 . S
C1617 C1616 1.374 . S
C1618 C1615 1.499 . S
C1618 C1619 1.373 . S
C1618 C1620 1.389 . S
C1619 H1598 0.950 . S
C1619 C1618 1.373 . S
C1619 C1635 1.377 . S
C1620 C1618 1.389 . S
C1620 C1621 1.524 . S
C1620 C1634 1.377 . S
C1621 C1620 1.524 . S
C1621 C1622 1.397 . S
C1621 C1626 1.363 . S
C1622 H1599 0.950 . S
C1622 C1621 1.397 . S
C1622 C1623 1.334 . S
C1623 H1600 0.950 . S
C1623 C1622 1.334 . S
C1623 C1624 1.287 . S
C1624 C1623 1.287 . S
C1624 C1625 1.524 . S
C1624 H1643 0.913 . S
C1625 H1601 0.950 . S
C1625 C1624 1.524 . S
C1625 C1626 1.415 . S
C1626 H1602 0.950 . S
C1626 C1621 1.363 . S
C1626 C1625 1.415 . S
C1627 H1603 0.951 . S
C1627 C1628 1.366 . S
C1627 C1629 1.388 . S
C1628 C1627 1.366 . S
C1628 C1632 1.385 . S
C1629 H1604 0.951 . S
C1629 C1627 1.388 . S
C1629 C1630 1.366 . S
C1630 C1629 1.366 . S
C1630 C1631 1.414 . S
C1630 C1633 1.499 . S
C1631 H1605 0.950 . S
C1631 C1630 1.414 . S
C1631 C1632 1.374 . S
C1632 H1606 0.950 . S
C1632 C1628 1.385 . S
C1632 C1631 1.374 . S
C1633 C1630 1.499 . S
C1633 C1634 1.373 . S
C1633 C1635 1.389 . S
C1634 H1607 0.950 . S
C1634 C1620 1.377 . S
C1634 C1633 1.373 . S
C1635 C1619 1.377 . S
C1635 C1633 1.389 . S
C1635 C1636 1.524 . S
C1636 C1635 1.524 . S
C1636 C1637 1.397 . S
C1636 C1641 1.363 . S
C1637 H1608 0.950 . S
C1637 C1636 1.397 . S
C1637 C1638 1.334 . S
C1638 H1609 0.950 . S
C1638 C1637 1.334 . S
C1638 C1639 1.287 . S
C1639 C1638 1.287 . S
C1639 C1640 1.524 . S
C1639 H1642 0.999 . S
C1640 H1610 0.950 . S
C1640 C1639 1.524 . S
C1640 C1641 1.415 . S
C1641 H1611 0.950 . S
C1641 C1636 1.363 . S
C1641 C1640 1.415 . S
H1642 C1639 0.999 . S
H1643 C1624 0.913 . S
H1644 C1662 0.951 . S
H1645 C1664 0.951 . S
H1646 C1666 0.950 . S
H1647 C1667 0.950 . S
H1648 C1669 0.950 . S
H1649 C1672 0.950 . S
H1650 C1673 0.950 . S
H1651 C1675 0.950 . S
H1652 C1676 0.950 . S
H1653 C1677 0.951 . S
H1654 C1679 0.951 . S
H1655 C1681 0.950 . S
H1656 C1682 0.950 . S
H1657 C1684 0.950 . S
H1658 C1687 0.950 . S
H1659 C1688 0.950 . S
H1660 C1690 0.950 . S
H1661 C1691 0.950 . S
C1662 H1644 0.951 . S
C1662 C1663 1.366 . S
C1662 C1664 1.388 . S
C1663 C1662 1.366 . S
C1663 C1667 1.385 . S
C1664 H1645 0.951 . S
C1664 C1662 1.388 . S
C1664 C1665 1.366 . S
C1665 C1664 1.366 . S
C1665 C1666 1.414 . S
C1665 C1668 1.499 . S
C1666 H1646 0.950 . S
C1666 C1665 1.414 . S
C1666 C1667 1.374 . S
C1667 H1647 0.950 . S
C1667 C1663 1.385 . S
C1667 C1666 1.374 . S
C1668 C1665 1.499 . S
C1668 C1669 1.373 . S
C1668 C1670 1.389 . S
C1669 H1648 0.950 . S
C1669 C1668 1.373 . S
C1669 C1685 1.377 . S
C1670 C1668 1.389 . S
C1670 C1671 1.524 . S
C1670 C1684 1.377 . S
C1671 C1670 1.524 . S
C1671 C1672 1.397 . S
C1671 C1676 1.363 . S
C1672 H1649 0.950 . S
C1672 C1671 1.397 . S
C1672 C1673 1.334 . S
C1673 H1650 0.950 . S
C1673 C1672 1.334 . S
C1673 C1674 1.287 . S
C1674 C1673 1.287 . S
C1674 C1675 1.524 . S
C1674 H1693 0.913 . S
C1675 H1651 0.950 . S
C1675 C1674 1.524 . S
C1675 C1676 1.415 . S
C1676 H1652 0.950 . S
C1676 C1671 1.363 . S
C1676 C1675 1.415 . S
C1677 H1653 0.951 . S
C1677 C1678 1.366 . S
C1677 C1679 1.388 . S
C1678 C1677 1.366 . S
C1678 C1682 1.385 . S
C1679 H1654 0.951 . S
C1679 C1677 1.388 . S
C1679 C1680 1.366 . S
C1680 C1679 1.366 . S
C1680 C1681 1.414 . S
C1680 C1683 1.499 . S
C1681 H1655 0.950 . S
C1681 C1680 1.414 . S
C1681 C1682 1.374 . S
C1682 H1656 0.950 . S
C1682 C1678 1.385 . S
C1682 C1681 1.374 . S
C1683 C1680 1.499 . S
C1683 C1684 1.373 . S
C1683 C1685 1.389 . S
C1684 H1657 0.950 . S
C1684 C1670 1.377 . S
C1684 C1683 1.373 . S
C1685 C1669 1.377 . S
C1685 C1683 1.389 . S
C1685 C1686 1.524 . S
C1686 C1685 1.524 . S
C1686 C1687 1.397 . S
C1686 C1691 1.363 . S
C1687 H1658 0.950 . S
C1687 C1686 1.397 . S
C1687 C1688 1.334 . S
C1688 H1659 0.950 . S
C1688 C1687 1.334 . S
C1688 C1689 1.287 . S
C1689 C1688 1.287 . S
C1689 C1690 1.524 . S
C1689 H1692 0.999 . S
C1690 H1660 0.950 . S
C1690 C1689 1.524 . S
C1690 C1691 1.415 . S
C1691 H1661 0.950 . S
C1691 C1686 1.363 . S
C1691 C1690 1.415 . S
H1692 C1689 0.999 . S
H1693 C1674 0.913 . S
H1694 C1712 0.951 . S
H1695 C1714 0.951 . S
H1696 C1716 0.950 . S
H1697 C1717 0.950 . S
H1698 C1719 0.950 . S
H1699 C1722 0.950 . S
H1700 C1723 0.950 . S
H1701 C1725 0.950 . S
H1702 C1726 0.950 . S
H1703 C1727 0.951 . S
H1704 C1729 0.951 . S
H1705 C1731 0.950 . S
H1706 C1732 0.950 . S
H1707 C1734 0.950 . S
H1708 C1737 0.950 . S
H1709 C1738 0.950 . S
H1710 C1740 0.950 . S
H1711 C1741 0.950 . S
C1712 H1694 0.951 . S
C1712 C1713 1.366 . S
C1712 C1714 1.388 . S
C1713 C1712 1.366 . S
C1713 C1717 1.385 . S
C1714 H1695 0.951 . S
C1714 C1712 1.388 . S
C1714 C1715 1.366 . S
C1715 C1714 1.366 . S
C1715 C1716 1.414 . S
C1715 C1718 1.499 . S
C1716 H1696 0.950 . S
C1716 C1715 1.414 . S
C1716 C1717 1.374 . S
C1717 H1697 0.950 . S
C1717 C1713 1.385 . S
C1717 C1716 1.374 . S
C1718 C1715 1.499 . S
C1718 C1719 1.373 . S
C1718 C1720 1.389 . S
C1719 H1698 0.950 . S
C1719 C1718 1.373 . S
C1719 C1735 1.377 . S
C1720 C1718 1.389 . S
C1720 C1721 1.524 . S
C1720 C1734 1.377 . S
C1721 C1720 1.524 . S
C1721 C1722 1.397 . S
C1721 C1726 1.363 . S
C1722 H1699 0.950 . S
C1722 C1721 1.397 . S
C1722 C1723 1.334 . S
C1723 H1700 0.950 . S
C1723 C1722 1.334 . S
C1723 C1724 1.287 . S
C1724 C1723 1.287 . S
C1724 C1725 1.524 . S
C1724 H1743 0.913 . S
C1725 H1701 0.950 . S
C1725 C1724 1.524 . S
C1725 C1726 1.415 . S
C1726 H1702 0.950 . S
C1726 C1721 1.363 . S
C1726 C1725 1.415 . S
C1727 H1703 0.951 . S
C1727 C1728 1.366 . S
C1727 C1729 1.388 . S
C1728 C1727 1.366 . S
C1728 C1732 1.385 . S
C1729 H1704 0.951 . S
C1729 C1727 1.388 . S
C1729 C1730 1.366 . S
C1730 C1729 1.366 . S
C1730 C1731 1.414 . S
C1730 C1733 1.499 . S
C1731 H1705 0.950 . S
C1731 C1730 1.414 . S
C1731 C1732 1.374 . S
C1732 H1706 0.950 . S
C1732 C1728 1.385 . S
C1732 C1731 1.374 . S
C1733 C1730 1.499 . S
C1733 C1734 1.373 . S
C1733 C1735 1.389 . S
C1734 H1707 0.950 . S
C1734 C1720 1.377 . S
C1734 C1733 1.373 . S
C1735 C1719 1.377 . S
C1735 C1733 1.389 . S
C1735 C1736 1.524 . S
C1736 C1735 1.524 . S
C1736 C1737 1.397 . S
C1736 C1741 1.363 . S
C1737 H1708 0.950 . S
C1737 C1736 1.397 . S
C1737 C1738 1.334 . S
C1738 H1709 0.950 . S
C1738 C1737 1.334 . S
C1738 C1739 1.287 . S
C1739 C1738 1.287 . S
C1739 C1740 1.524 . S
C1739 H1742 0.999 . S
C1740 H1710 0.950 . S
C1740 C1739 1.524 . S
C1740 C1741 1.415 . S
C1741 H1711 0.950 . S
C1741 C1736 1.363 . S
C1741 C1740 1.415 . S
H1742 C1739 0.999 . S
H1743 C1724 0.913 . S
H1744 C1762 0.951 . S
H1745 C1764 0.951 . S
H1746 C1766 0.950 . S
H1747 C1767 0.950 . S
H1748 C1769 0.950 . S
H1749 C1772 0.950 . S
H1750 C1773 0.950 . S
H1751 C1775 0.950 . S
H1752 C1776 0.950 . S
H1753 C1777 0.951 . S
H1754 C1779 0.951 . S
H1755 C1781 0.950 . S
H1756 C1782 0.950 . S
H1757 C1784 0.950 . S
H1758 C1787 0.950 . S
H1759 C1788 0.950 . S
H1760 C1790 0.950 . S
H1761 C1791 0.950 . S
C1762 H1744 0.951 . S
C1762 C1763 1.366 . S
C1762 C1764 1.388 . S
C1763 C1762 1.366 . S
C1763 C1767 1.385 . S
C1764 H1745 0.951 . S
C1764 C1762 1.388 . S
C1764 C1765 1.366 . S
C1765 C1764 1.366 . S
C1765 C1766 1.414 . S
C1765 C1768 1.499 . S
C1766 H1746 0.950 . S
C1766 C1765 1.414 . S
C1766 C1767 1.374 . S
C1767 H1747 0.950 . S
C1767 C1763 1.385 . S
C1767 C1766 1.374 . S
C1768 C1765 1.499 . S
C1768 C1769 1.373 . S
C1768 C1770 1.389 . S
C1769 H1748 0.950 . S
C1769 C1768 1.373 . S
C1769 C1785 1.377 . S
C1770 C1768 1.389 . S
C1770 C1771 1.524 . S
C1770 C1784 1.377 . S
C1771 C1770 1.524 . S
C1771 C1772 1.397 . S
C1771 C1776 1.363 . S
C1772 H1749 0.950 . S
C1772 C1771 1.397 . S
C1772 C1773 1.334 . S
C1773 H1750 0.950 . S
C1773 C1772 1.334 . S
C1773 C1774 1.287 . S
C1774 C1773 1.287 . S
C1774 C1775 1.524 . S
C1774 H1793 0.913 . S
C1775 H1751 0.950 . S
C1775 C1774 1.524 . S
C1775 C1776 1.415 . S
C1776 H1752 0.950 . S
C1776 C1771 1.363 . S
C1776 C1775 1.415 . S
C1777 H1753 0.951 . S
C1777 C1778 1.366 . S
C1777 C1779 1.388 . S
C1778 C1777 1.366 . S
C1778 C1782 1.385 . S
C1779 H1754 0.951 . S
C1779 C1777 1.388 . S
C1779 C1780 1.366 . S
C1780 C1779 1.366 . S
C1780 C1781 1.414 . S
C1780 C1783 1.499 . S
C1781 H1755 0.950 . S
C1781 C1780 1.414 . S
C1781 C1782 1.374 . S
C1782 H1756 0.950 . S
C1782 C1778 1.385 . S
C1782 C1781 1.374 . S
C1783 C1780 1.499 . S
C1783 C1784 1.373 . S
C1783 C1785 1.389 . S
C1784 H1757 0.950 . S
C1784 C1770 1.377 . S
C1784 C1783 1.373 . S
C1785 C1769 1.377 . S
C1785 C1783 1.389 . S
C1785 C1786 1.524 . S
C1786 C1785 1.524 . S
C1786 C1787 1.397 . S
C1786 C1791 1.363 . S
C1787 H1758 0.950 . S
C1787 C1786 1.397 . S
C1787 C1788 1.334 . S
C1788 H1759 0.950 . S
C1788 C1787 1.334 . S
C1788 C1789 1.287 . S
C1789 C1788 1.287 . S
C1789 C1790 1.524 . S
C1789 H1792 0.999 . S
C1790 H1760 0.950 . S
C1790 C1789 1.524 . S
C1790 C1791 1.415 . S
C1791 H1761 0.950 . S
C1791 C1786 1.363 . S
C1791 C1790 1.415 . S
H1792 C1789 0.999 . S
H1793 C1774 0.913 . S
H1794 C1812 0.951 . S
H1795 C1814 0.951 . S
H1796 C1816 0.950 . S
H1797 C1817 0.950 . S
H1798 C1819 0.950 . S
H1799 C1822 0.950 . S
H1800 C1823 0.950 . S
H1801 C1825 0.950 . S
H1802 C1826 0.950 . S
H1803 C1827 0.951 . S
H1804 C1829 0.951 . S
H1805 C1831 0.950 . S
H1806 C1832 0.950 . S
H1807 C1834 0.950 . S
H1808 C1837 0.950 . S
H1809 C1838 0.950 . S
H1810 C1840 0.950 . S
H1811 C1841 0.950 . S
C1812 H1794 0.951 . S
C1812 C1813 1.366 . S
C1812 C1814 1.388 . S
C1813 C1812 1.366 . S
C1813 C1817 1.385 . S
C1814 H1795 0.951 . S
C1814 C1812 1.388 . S
C1814 C1815 1.366 . S
C1815 C1814 1.366 . S
C1815 C1816 1.414 . S
C1815 C1818 1.499 . S
C1816 H1796 0.950 . S
C1816 C1815 1.414 . S
C1816 C1817 1.374 . S
C1817 H1797 0.950 . S
C1817 C1813 1.385 . S
C1817 C1816 1.374 . S
C1818 C1815 1.499 . S
C1818 C1819 1.373 . S
C1818 C1820 1.389 . S
C1819 H1798 0.950 . S
C1819 C1818 1.373 . S
C1819 C1835 1.377 . S
C1820 C1818 1.389 . S
C1820 C1821 1.524 . S
C1820 C1834 1.377 . S
C1821 C1820 1.524 . S
C1821 C1822 1.397 . S
C1821 C1826 1.363 . S
C1822 H1799 0.950 . S
C1822 C1821 1.397 . S
C1822 C1823 1.334 . S
C1823 H1800 0.950 . S
C1823 C1822 1.334 . S
C1823 C1824 1.287 . S
C1824 C1823 1.287 . S
C1824 C1825 1.524 . S
C1824 H1843 0.913 . S
C1825 H1801 0.950 . S
C1825 C1824 1.524 . S
C1825 C1826 1.415 . S
C1826 H1802 0.950 . S
C1826 C1821 1.363 . S
C1826 C1825 1.415 . S
C1827 H1803 0.951 . S
C1827 C1828 1.366 . S
C1827 C1829 1.388 . S
C1828 C1827 1.366 . S
C1828 C1832 1.385 . S
C1829 H1804 0.951 . S
C1829 C1827 1.388 . S
C1829 C1830 1.366 . S
C1830 C1829 1.366 . S
C1830 C1831 1.414 . S
C1830 C1833 1.499 . S
C1831 H1805 0.950 . S
C1831 C1830 1.414 . S
C1831 C1832 1.374 . S
C1832 H1806 0.950 . S
C1832 C1828 1.385 . S
C1832 C1831 1.374 . S
C1833 C1830 1.499 . S
C1833 C1834 1.373 . S
C1833 C1835 1.389 . S
C1834 H1807 0.950 . S
C1834 C1820 1.377 . S
C1834 C1833 1.373 . S
C1835 C1819 1.377 . S
C1835 C1833 1.389 . S
C1835 C1836 1.524 . S
C1836 C1835 1.524 . S
C1836 C1837 1.397 . S
C1836 C1841 1.363 . S
C1837 H1808 0.950 . S
C1837 C1836 1.397 . S
C1837 C1838 1.334 . S
C1838 H1809 0.950 . S
C1838 C1837 1.334 . S
C1838 C1839 1.287 . S
C1839 C1838 1.287 . S
C1839 C1840 1.524 . S
C1839 H1842 0.999 . S
C1840 H1810 0.950 . S
C1840 C1839 1.524 . S
C1840 C1841 1.415 . S
C1841 H1811 0.950 . S
C1841 C1836 1.363 . S
C1841 C1840 1.415 . S
H1842 C1839 0.999 . S
H1843 C1824 0.913 . S
H1844 C1862 0.951 . S
H1845 C1864 0.951 . S
H1846 C1866 0.950 . S
H1847 C1867 0.950 . S
H1848 C1869 0.950 . S
H1849 C1872 0.950 . S
H1850 C1873 0.950 . S
H1851 C1875 0.950 . S
H1852 C1876 0.950 . S
H1853 C1877 0.951 . S
H1854 C1879 0.951 . S
H1855 C1881 0.950 . S
H1856 C1882 0.950 . S
H1857 C1884 0.950 . S
H1858 C1887 0.950 . S
H1859 C1888 0.950 . S
H1860 C1890 0.950 . S
H1861 C1891 0.950 . S
C1862 H1844 0.951 . S
C1862 C1863 1.366 . S
C1862 C1864 1.388 . S
C1863 C1862 1.366 . S
C1863 C1867 1.385 . S
C1864 H1845 0.951 . S
C1864 C1862 1.388 . S
C1864 C1865 1.366 . S
C1865 C1864 1.366 . S
C1865 C1866 1.414 . S
C1865 C1868 1.499 . S
C1866 H1846 0.950 . S
C1866 C1865 1.414 . S
C1866 C1867 1.374 . S
C1867 H1847 0.950 . S
C1867 C1863 1.385 . S
C1867 C1866 1.374 . S
C1868 C1865 1.499 . S
C1868 C1869 1.373 . S
C1868 C1870 1.389 . S
C1869 H1848 0.950 . S
C1869 C1868 1.373 . S
C1869 C1885 1.377 . S
C1870 C1868 1.389 . S
C1870 C1871 1.524 . S
C1870 C1884 1.377 . S
C1871 C1870 1.524 . S
C1871 C1872 1.397 . S
C1871 C1876 1.363 . S
C1872 H1849 0.950 . S
C1872 C1871 1.397 . S
C1872 C1873 1.334 . S
C1873 H1850 0.950 . S
C1873 C1872 1.334 . S
C1873 C1874 1.287 . S
C1874 C1873 1.287 . S
C1874 C1875 1.524 . S
C1874 H1893 0.913 . S
C1875 H1851 0.950 . S
C1875 C1874 1.524 . S
C1875 C1876 1.415 . S
C1876 H1852 0.950 . S
C1876 C1871 1.363 . S
C1876 C1875 1.415 . S
C1877 H1853 0.951 . S
C1877 C1878 1.366 . S
C1877 C1879 1.388 . S
C1878 C1877 1.366 . S
C1878 C1882 1.385 . S
C1879 H1854 0.951 . S
C1879 C1877 1.388 . S
C1879 C1880 1.366 . S
C1880 C1879 1.366 . S
C1880 C1881 1.414 . S
C1880 C1883 1.499 . S
C1881 H1855 0.950 . S
C1881 C1880 1.414 . S
C1881 C1882 1.374 . S
C1882 H1856 0.950 . S
C1882 C1878 1.385 . S
C1882 C1881 1.374 . S
C1883 C1880 1.499 . S
C1883 C1884 1.373 . S
C1883 C1885 1.389 . S
C1884 H1857 0.950 . S
C1884 C1870 1.377 . S
C1884 C1883 1.373 . S
C1885 C1869 1.377 . S
C1885 C1883 1.389 . S
C1885 C1886 1.524 . S
C1886 C1885 1.524 . S
C1886 C1887 1.397 . S
C1886 C1891 1.363 . S
C1887 H1858 0.950 . S
C1887 C1886 1.397 . S
C1887 C1888 1.334 . S
C1888 H1859 0.950 . S
C1888 C1887 1.334 . S
C1888 C1889 1.287 . S
C1889 C1888 1.287 . S
C1889 C1890 1.524 . S
C1889 H1892 0.999 . S
C1890 H1860 0.950 . S
C1890 C1889 1.524 . S
C1890 C1891 1.415 . S
C1891 H1861 0.950 . S
C1891 C1886 1.363 . S
C1891 C1890 1.415 . S
H1892 C1889 0.999 . S
H1893 C1874 0.913 . S
H1894 C1912 0.951 . S
H1895 C1914 0.951 . S
H1896 C1916 0.950 . S
H1897 C1917 0.950 . S
H1898 C1919 0.950 . S
H1899 C1922 0.950 . S
H1900 C1923 0.950 . S
H1901 C1925 0.950 . S
H1902 C1926 0.950 . S
H1903 C1927 0.951 . S
H1904 C1929 0.951 . S
H1905 C1931 0.950 . S
H1906 C1932 0.950 . S
H1907 C1934 0.950 . S
H1908 C1937 0.950 . S
H1909 C1938 0.950 . S
H1910 C1940 0.950 . S
H1911 C1941 0.950 . S
C1912 H1894 0.951 . S
C1912 C1913 1.366 . S
C1912 C1914 1.388 . S
C1913 C1912 1.366 . S
C1913 C1917 1.385 . S
C1914 H1895 0.951 . S
C1914 C1912 1.388 . S
C1914 C1915 1.366 . S
C1915 C1914 1.366 . S
C1915 C1916 1.414 . S
C1915 C1918 1.499 . S
C1916 H1896 0.950 . S
C1916 C1915 1.414 . S
C1916 C1917 1.374 . S
C1917 H1897 0.950 . S
C1917 C1913 1.385 . S
C1917 C1916 1.374 . S
C1918 C1915 1.499 . S
C1918 C1919 1.373 . S
C1918 C1920 1.389 . S
C1919 H1898 0.950 . S
C1919 C1918 1.373 . S
C1919 C1935 1.377 . S
C1920 C1918 1.389 . S
C1920 C1921 1.524 . S
C1920 C1934 1.377 . S
C1921 C1920 1.524 . S
C1921 C1922 1.397 . S
C1921 C1926 1.363 . S
C1922 H1899 0.950 . S
C1922 C1921 1.397 . S
C1922 C1923 1.334 . S
C1923 H1900 0.950 . S
C1923 C1922 1.334 . S
C1923 C1924 1.287 . S
C1924 C1923 1.287 . S
C1924 C1925 1.524 . S
C1924 H1943 0.913 . S
C1925 H1901 0.950 . S
C1925 C1924 1.524 . S
C1925 C1926 1.415 . S
C1926 H1902 0.950 . S
C1926 C1921 1.363 . S
C1926 C1925 1.415 . S
C1927 H1903 0.951 . S
C1927 C1928 1.366 . S
C1927 C1929 1.388 . S
C1928 C1927 1.366 . S
C1928 C1932 1.385 . S
C1929 H1904 0.951 . S
C1929 C1927 1.388 . S
C1929 C1930 1.366 . S
C1930 C1929 1.366 . S
C1930 C1931 1.414 . S
C1930 C1933 1.499 . S
C1931 H1905 0.950 . S
C1931 C1930 1.414 . S
C1931 C1932 1.374 . S
C1932 H1906 0.950 . S
C1932 C1928 1.385 . S
C1932 C1931 1.374 . S
C1933 C1930 1.499 . S
C1933 C1934 1.373 . S
C1933 C1935 1.389 . S
C1934 H1907 0.950 . S
C1934 C1920 1.377 . S
C1934 C1933 1.373 . S
C1935 C1919 1.377 . S
C1935 C1933 1.389 . S
C1935 C1936 1.524 . S
C1936 C1935 1.524 . S
C1936 C1937 1.397 . S
C1936 C1941 1.363 . S
C1937 H1908 0.950 . S
C1937 C1936 1.397 . S
C1937 C1938 1.334 . S
C1938 H1909 0.950 . S
C1938 C1937 1.334 . S
C1938 C1939 1.287 . S
C1939 C1938 1.287 . S
C1939 C1940 1.524 . S
C1939 H1942 0.999 . S
C1940 H1910 0.950 . S
C1940 C1939 1.524 . S
C1940 C1941 1.415 . S
C1941 H1911 0.950 . S
C1941 C1936 1.363 . S
C1941 C1940 1.415 . S
H1942 C1939 0.999 . S
H1943 C1924 0.913 . S
H1944 C1962 0.951 . S
H1945 C1964 0.951 . S
H1946 C1966 0.950 . S
H1947 C1967 0.950 . S
H1948 C1969 0.950 . S
H1949 C1972 0.950 . S
H1950 C1973 0.950 . S
H1951 C1975 0.950 . S
H1952 C1976 0.950 . S
H1953 C1977 0.951 . S
H1954 C1979 0.951 . S
H1955 C1981 0.950 . S
H1956 C1982 0.950 . S
H1957 C1984 0.950 . S
H1958 C1987 0.950 . S
H1959 C1988 0.950 . S
H1960 C1990 0.950 . S
H1961 C1991 0.950 . S
C1962 H1944 0.951 . S
C1962 C1963 1.366 . S
C1962 C1964 1.388 . S
C1963 C1962 1.366 . S
C1963 C1967 1.385 . S
C1964 H1945 0.951 . S
C1964 C1962 1.388 . S
C1964 C1965 1.366 . S
C1965 C1964 1.366 . S
C1965 C1966 1.414 . S
C1965 C1968 1.499 . S
C1966 H1946 0.950 . S
C1966 C1965 1.414 . S
C1966 C1967 1.374 . S
C1967 H1947 0.950 . S
C1967 C1963 1.385 . S
C1967 C1966 1.374 . S
C1968 C1965 1.499 . S
C1968 C1969 1.373 . S
C1968 C1970 1.389 . S
C1969 H1948 0.950 . S
C1969 C1968 1.373 . S
C1969 C1985 1.377 . S
C1970 C1968 1.389 . S
C1970 C1971 1.524 . S
C1970 C1984 1.377 . S
C1971 C1970 1.524 . S
C1971 C1972 1.397 . S
C1971 C1976 1.363 . S
C1972 H1949 0.950 . S
C1972 C1971 1.397 . S
C1972 C1973 1.334 . S
C1973 H1950 0.950 . S
C1973 C1972 1.334 . S
C1973 C1974 1.287 . S
C1974 C1973 1.287 . S
C1974 C1975 1.524 . S
C1974 H1993 0.913 . S
C1975 H1951 0.950 . S
C1975 C1974 1.524 . S
C1975 C1976 1.415 . S
C1976 H1952 0.950 . S
C1976 C1971 1.363 . S
C1976 C1975 1.415 . S
C1977 H1953 0.951 . S
C1977 C1978 1.366 . S
C1977 C1979 1.388 . S
C1978 C1977 1.366 . S
C1978 C1982 1.385 . S
C1979 H1954 0.951 . S
C1979 C1977 1.388 . S
C1979 C1980 1.366 . S
C1980 C1979 1.366 . S
C1980 C1981 1.414 . S
C1980 C1983 1.499 . S
C1981 H1955 0.950 . S
C1981 C1980 1.414 . S
C1981 C1982 1.374 . S
C1982 H1956 0.950 . S
C1982 C1978 1.385 . S
C1982 C1981 1.374 . S
C1983 C1980 1.499 . S
C1983 C1984 1.373 . S
C1983 C1985 1.389 . S
C1984 H1957 0.950 . S
C1984 C1970 1.377 . S
C1984 C1983 1.373 . S
C1985 C1969 1.377 . S
C1985 C1983 1.389 . S
C1985 C1986 1.524 . S
C1986 C1985 1.524 . S
C1986 C1987 1.397 . S
C1986 C1991 1.363 . S
C1987 H1958 0.950 . S
C1987 C1986 1.397 . S
C1987 C1988 1.334 . S
C1988 H1959 0.950 . S
C1988 C1987 1.334 . S
C1988 C1989 1.287 . S
C1989 C1988 1.287 . S
C1989 C1990 1.524 . S
C1989 H1992 0.999 . S
C1990 H1960 0.950 . S
C1990 C1989 1.524 . S
C1990 C1991 1.415 . S
C1991 H1961 0.950 . S
C1991 C1986 1.363 . S
C1991 C1990 1.415 . S
H1992 C1989 0.999 . S
H1993 C1974 0.913 . S
H1994 C2012 0.951 . S
H1995 C2014 0.951 . S
H1996 C2016 0.950 . S
H1997 C2017 0.950 . S
H1998 C2019 0.950 . S
H1999 C2022 0.950 . S
H2000 C2023 0.950 . S
H2001 C2025 0.950 . S
H2002 C2026 0.950 . S
H2003 C2027 0.951 . S
H2004 C2029 0.951 . S
H2005 C2031 0.950 . S
H2006 C2032 0.950 . S
H2007 C2034 0.950 . S
H2008 C2037 0.950 . S
H2009 C2038 0.950 . S
H2010 C2040 0.950 . S
H2011 C2041 0.950 . S
C2012 H1994 0.951 . S
C2012 C2013 1.366 . S
C2012 C2014 1.388 . S
C2013 C2012 1.366 . S
C2013 C2017 1.385 . S
C2014 H1995 0.951 . S
C2014 C2012 1.388 . S
C2014 C2015 1.366 . S
C2015 C2014 1.366 . S
C2015 C2016 1.414 . S
C2015 C2018 1.499 . S
C2016 H1996 0.950 . S
C2016 C2015 1.414 . S
C2016 C2017 1.374 . S
C2017 H1997 0.950 . S
C2017 C2013 1.385 . S
C2017 C2016 1.374 . S
C2018 C2015 1.499 . S
C2018 C2019 1.373 . S
C2018 C2020 1.389 . S
C2019 H1998 0.950 . S
C2019 C2018 1.373 . S
C2019 C2035 1.377 . S
C2020 C2018 1.389 . S
C2020 C2021 1.524 . S
C2020 C2034 1.377 . S
C2021 C2020 1.524 . S
C2021 C2022 1.397 . S
C2021 C2026 1.363 . S
C2022 H1999 0.950 . S
C2022 C2021 1.397 . S
C2022 C2023 1.334 . S
C2023 H2000 0.950 . S
C2023 C2022 1.334 . S
C2023 C2024 1.287 . S
C2024 C2023 1.287 . S
C2024 C2025 1.524 . S
C2024 H2043 0.913 . S
C2025 H2001 0.950 . S
C2025 C2024 1.524 . S
C2025 C2026 1.415 . S
C2026 H2002 0.950 . S
C2026 C2021 1.363 . S
C2026 C2025 1.415 . S
C2027 H2003 0.951 . S
C2027 C2028 1.366 . S
C2027 C2029 1.388 . S
C2028 C2027 1.366 . S
C2028 C2032 1.385 . S
C2029 H2004 0.951 . S
C2029 C2027 1.388 . S
C2029 C2030 1.366 . S
C2030 C2029 1.366 . S
C2030 C2031 1.414 . S
C2030 C2033 1.499 . S
C2031 H2005 0.950 . S
C2031 C2030 1.414 . S
C2031 C2032 1.374 . S
C2032 H2006 0.950 . S
C2032 C2028 1.385 . S
C2032 C2031 1.374 . S
C2033 C2030 1.499 . S
C2033 C2034 1.373 . S
C2033 C2035 1.389 . S
C2034 H2007 0.950 . S
C2034 C2020 1.377 . S
C2034 C2033 1.373 . S
C2035 C2019 1.377 . S
C2035 C2033 1.389 . S
C2035 C2036 1.524 . S
C2036 C2035 1.524 . S
C2036 C2037 1.397 . S
C2036 C2041 1.363 . S
C2037 H2008 0.950 . S
C2037 C2036 1.397 . S
C2037 C2038 1.334 . S
C2038 H2009 0.950 . S
C2038 C2037 1.334 . S
C2038 C2039 1.287 . S
C2039 C2038 1.287 . S
C2039 C2040 1.524 . S
C2039 H2042 0.999 . S
C2040 H2010 0.950 . S
C2040 C2039 1.524 . S
C2040 C2041 1.415 . S
C2041 H2011 0.950 . S
C2041 C2036 1.363 . S
C2041 C2040 1.415 . S
H2042 C2039 0.999 . S
H2043 C2024 0.913 . S
H2044 C2062 0.951 . S
H2045 C2064 0.951 . S
H2046 C2066 0.950 . S
H2047 C2067 0.950 . S
H2048 C2069 0.950 . S
H2049 C2072 0.950 . S
H2050 C2073 0.950 . S
H2051 C2075 0.950 . S
H2052 C2076 0.950 . S
H2053 C2077 0.951 . S
H2054 C2079 0.951 . S
H2055 C2081 0.950 . S
H2056 C2082 0.950 . S
H2057 C2084 0.950 . S
H2058 C2087 0.950 . S
H2059 C2088 0.950 . S
H2060 C2090 0.950 . S
H2061 C2091 0.950 . S
C2062 H2044 0.951 . S
C2062 C2063 1.366 . S
C2062 C2064 1.388 . S
C2063 C2062 1.366 . S
C2063 C2067 1.385 . S
C2064 H2045 0.951 . S
C2064 C2062 1.388 . S
C2064 C2065 1.366 . S
C2065 C2064 1.366 . S
C2065 C2066 1.414 . S
C2065 C2068 1.499 . S
C2066 H2046 0.950 . S
C2066 C2065 1.414 . S
C2066 C2067 1.374 . S
C2067 H2047 0.950 . S
C2067 C2063 1.385 . S
C2067 C2066 1.374 . S
C2068 C2065 1.499 . S
C2068 C2069 1.373 . S
C2068 C2070 1.389 . S
C2069 H2048 0.950 . S
C2069 C2068 1.373 . S
C2069 C2085 1.377 . S
C2070 C2068 1.389 . S
C2070 C2071 1.524 . S
C2070 C2084 1.377 . S
C2071 C2070 1.524 . S
C2071 C2072 1.397 . S
C2071 C2076 1.363 . S
C2072 H2049 0.950 . S
C2072 C2071 1.397 . S
C2072 C2073 1.334 . S
C2073 H2050 0.950 . S
C2073 C2072 1.334 . S
C2073 C2074 1.287 . S
C2074 C2073 1.287 . S
C2074 C2075 1.524 . S
C2074 H2093 0.913 . S
C2075 H2051 0.950 . S
C2075 C2074 1.524 . S
C2075 C2076 1.415 . S
C2076 H2052 0.950 . S
C2076 C2071 1.363 . S
C2076 C2075 1.415 . S
C2077 H2053 0.951 . S
C2077 C2078 1.366 . S
C2077 C2079 1.388 . S
C2078 C2077 1.366 . S
C2078 C2082 1.385 . S
C2079 H2054 0.951 . S
C2079 C2077 1.388 . S
C2079 C2080 1.366 . S
C2080 C2079 1.366 . S
C2080 C2081 1.414 . S
C2080 C2083 1.499 . S
C2081 H2055 0.950 . S
C2081 C2080 1.414 . S
C2081 C2082 1.374 . S
C2082 H2056 0.950 . S
C2082 C2078 1.385 . S
C2082 C2081 1.374 . S
C2083 C2080 1.499 . S
C2083 C2084 1.373 . S
C2083 C2085 1.389 . S
C2084 H2057 0.950 . S
C2084 C2070 1.377 . S
C2084 C2083 1.373 . S
C2085 C2069 1.377 . S
C2085 C2083 1.389 . S
C2085 C2086 1.524 . S
C2086 C2085 1.524 . S
C2086 C2087 1.397 . S
C2086 C2091 1.363 . S
C2087 H2058 0.950 . S
C2087 C2086 1.397 . S
C2087 C2088 1.334 . S
C2088 H2059 0.950 . S
C2088 C2087 1.334 . S
C2088 C2089 1.287 . S
C2089 C2088 1.287 . S
C2089 C2090 1.524 . S
C2089 H2092 0.999 . S
C2090 H2060 0.950 . S
C2090 C2089 1.524 . S
C2090 C2091 1.415 . S
C2091 H2061 0.950 . S
C2091 C2086 1.363 . S
C2091 C2090 1.415 . S
H2092 C2089 0.999 . S
H2093 C2074 0.913 . S
H2094 C2112 0.951 . S
H2095 C2114 0.951 . S
H2096 C2116 0.950 . S
H2097 C2117 0.950 . S
H2098 C2119 0.950 . S
H2099 C2122 0.950 . S
H2100 C2123 0.950 . S
H2101 C2125 0.950 . S
H2102 C2126 0.950 . S
H2103 C2127 0.951 . S
H2104 C2129 0.951 . S
H2105 C2131 0.950 . S
H2106 C2132 0.950 . S
H2107 C2134 0.950 . S
H2108 C2137 0.950 . S
H2109 C2138 0.950 . S
H2110 C2140 0.950 . S
H2111 C2141 0.950 . S
C2112 H2094 0.951 . S
C2112 C2113 1.366 . S
C2112 C2114 1.388 . S
C2113 C2112 1.366 . S
C2113 C2117 1.385 . S
C2114 H2095 0.951 . S
C2114 C2112 1.388 . S
C2114 C2115 1.366 . S
C2115 C2114 1.366 . S
C2115 C2116 1.414 . S
C2115 C2118 1.499 . S
C2116 H2096 0.950 . S
C2116 C2115 1.414 . S
C2116 C2117 1.374 . S
C2117 H2097 0.950 . S
C2117 C2113 1.385 . S
C2117 C2116 1.374 . S
C2118 C2115 1.499 . S
C2118 C2119 1.373 . S
C2118 C2120 1.389 . S
C2119 H2098 0.950 . S
C2119 C2118 1.373 . S
C2119 C2135 1.377 . S
C2120 C2118 1.389 . S
C2120 C2121 1.524 . S
C2120 C2134 1.377 . S
C2121 C2120 1.524 . S
C2121 C2122 1.397 . S
C2121 C2126 1.363 . S
C2122 H2099 0.950 . S
C2122 C2121 1.397 . S
C2122 C2123 1.334 . S
C2123 H2100 0.950 . S
C2123 C2122 1.334 . S
C2123 C2124 1.287 . S
C2124 C2123 1.287 . S
C2124 C2125 1.524 . S
C2124 H2143 0.913 . S
C2125 H2101 0.950 . S
C2125 C2124 1.524 . S
C2125 C2126 1.415 . S
C2126 H2102 0.950 . S
C2126 C2121 1.363 . S
C2126 C2125 1.415 . S
C2127 H2103 0.951 . S
C2127 C2128 1.366 . S
C2127 C2129 1.388 . S
C2128 C2127 1.366 . S
C2128 C2132 1.385 . S
C2129 H2104 0.951 . S
C2129 C2127 1.388 . S
C2129 C2130 1.366 . S
C2130 C2129 1.366 . S
C2130 C2131 1.414 . S
C2130 C2133 1.499 . S
C2131 H2105 0.950 . S
C2131 C2130 1.414 . S
C2131 C2132 1.374 . S
C2132 H2106 0.950 . S
C2132 C2128 1.385 . S
C2132 C2131 1.374 . S
C2133 C2130 1.499 . S
C2133 C2134 1.373 . S
C2133 C2135 1.389 . S
C2134 H2107 0.950 . S
C2134 C2120 1.377 . S
C2134 C2133 1.373 . S
C2135 C2119 1.377 . S
C2135 C2133 1.389 . S
C2135 C2136 1.524 . S
C2136 C2135 1.524 . S
C2136 C2137 1.397 . S
C2136 C2141 1.363 . S
C2137 H2108 0.950 . S
C2137 C2136 1.397 . S
C2137 C2138 1.334 . S
C2138 H2109 0.950 . S
C2138 C2137 1.334 . S
C2138 C2139 1.287 . S
C2139 C2138 1.287 . S
C2139 C2140 1.524 . S
C2139 H2142 0.999 . S
C2140 H2110 0.950 . S
C2140 C2139 1.524 . S
C2140 C2141 1.415 . S
C2141 H2111 0.950 . S
C2141 C2136 1.363 . S
C2141 C2140 1.415 . S
H2142 C2139 0.999 . S
H2143 C2124 0.913 . S
H2144 C2162 0.951 . S
H2145 C2164 0.951 . S
H2146 C2166 0.950 . S
H2147 C2167 0.950 . S
H2148 C2169 0.950 . S
H2149 C2172 0.950 . S
H2150 C2173 0.950 . S
H2151 C2175 0.950 . S
H2152 C2176 0.950 1_556 S
H2153 C2177 0.951 . S
H2154 C2179 0.951 . S
H2155 C2181 0.950 . S
H2156 C2182 0.950 . S
H2157 C2184 0.950 . S
H2158 C2187 0.950 . S
H2159 C2188 0.950 . S
H2160 C2190 0.950 . S
H2161 C2191 0.950 1_554 S
C2162 H2144 0.951 . S
C2162 C2163 1.366 . S
C2162 C2164 1.388 . S
C2163 C2162 1.366 . S
C2163 C2167 1.385 . S
C2164 H2145 0.951 . S
C2164 C2162 1.388 . S
C2164 C2165 1.366 . S
C2165 C2164 1.366 . S
C2165 C2166 1.414 . S
C2165 C2168 1.499 . S
C2166 H2146 0.950 . S
C2166 C2165 1.414 . S
C2166 C2167 1.374 . S
C2167 H2147 0.950 . S
C2167 C2163 1.385 . S
C2167 C2166 1.374 . S
C2168 C2165 1.499 . S
C2168 C2169 1.373 . S
C2168 C2170 1.389 . S
C2169 H2148 0.950 . S
C2169 C2168 1.373 . S
C2169 C2185 1.377 1_554 S
C2170 C2168 1.389 . S
C2170 C2171 1.524 . S
C2170 C2184 1.377 1_554 S
C2171 C2170 1.524 . S
C2171 C2172 1.397 . S
C2171 C2176 1.363 . S
C2172 H2149 0.950 . S
C2172 C2171 1.397 . S
C2172 C2173 1.334 . S
C2173 H2150 0.950 . S
C2173 C2172 1.334 . S
C2173 C2174 1.287 . S
C2174 C2173 1.287 . S
C2174 C2175 1.524 . S
C2174 H2193 0.913 . S
C2175 H2151 0.950 . S
C2175 C2174 1.524 . S
C2175 C2176 1.415 . S
C2176 H2152 0.950 1_554 S
C2176 C2171 1.363 . S
C2176 C2175 1.415 . S
C2177 H2153 0.951 . S
C2177 C2178 1.366 . S
C2177 C2179 1.388 . S
C2178 C2177 1.366 . S
C2178 C2182 1.385 . S
C2179 H2154 0.951 . S
C2179 C2177 1.388 . S
C2179 C2180 1.366 . S
C2180 C2179 1.366 . S
C2180 C2181 1.414 . S
C2180 C2183 1.499 . S
C2181 H2155 0.950 . S
C2181 C2180 1.414 . S
C2181 C2182 1.374 . S
C2182 H2156 0.950 . S
C2182 C2178 1.385 . S
C2182 C2181 1.374 . S
C2183 C2180 1.499 . S
C2183 C2184 1.373 . S
C2183 C2185 1.389 . S
C2184 H2157 0.950 . S
C2184 C2170 1.377 1_556 S
C2184 C2183 1.373 . S
C2185 C2169 1.377 1_556 S
C2185 C2183 1.389 . S
C2185 C2186 1.524 . S
C2186 C2185 1.524 . S
C2186 C2187 1.397 . S
C2186 C2191 1.363 . S
C2187 H2158 0.950 . S
C2187 C2186 1.397 . S
C2187 C2188 1.334 . S
C2188 H2159 0.950 . S
C2188 C2187 1.334 . S
C2188 C2189 1.287 . S
C2189 C2188 1.287 . S
C2189 C2190 1.524 . S
C2189 H2192 0.999 . S
C2190 H2160 0.950 . S
C2190 C2189 1.524 . S
C2190 C2191 1.415 . S
C2191 H2161 0.950 1_556 S
C2191 C2186 1.363 . S
C2191 C2190 1.415 . S
H2192 C2189 0.999 . S
H2193 C2174 0.913 . S
H2194 C2212 0.951 . S
H2195 C2214 0.951 . S
H2196 C2216 0.950 . S
H2197 C2217 0.950 . S
H2198 C2219 0.950 . S
H2199 C2222 0.950 . S
H2200 C2223 0.950 . S
H2201 C2225 0.950 . S
H2202 C2226 0.950 . S
H2203 C2227 0.951 . S
H2204 C2229 0.951 . S
H2205 C2231 0.950 . S
H2206 C2232 0.950 . S
H2207 C2234 0.950 . S
H2208 C2237 0.950 . S
H2209 C2238 0.950 . S
H2210 C2240 0.950 . S
H2211 C2241 0.950 . S
C2212 H2194 0.951 . S
C2212 C2213 1.366 . S
C2212 C2214 1.388 . S
C2213 C2212 1.366 . S
C2213 C2217 1.385 . S
C2214 H2195 0.951 . S
C2214 C2212 1.388 . S
C2214 C2215 1.366 . S
C2215 C2214 1.366 . S
C2215 C2216 1.414 . S
C2215 C2218 1.499 . S
C2216 H2196 0.950 . S
C2216 C2215 1.414 . S
C2216 C2217 1.374 . S
C2217 H2197 0.950 . S
C2217 C2213 1.385 . S
C2217 C2216 1.374 . S
C2218 C2215 1.499 . S
C2218 C2219 1.373 . S
C2218 C2220 1.389 . S
C2219 H2198 0.950 . S
C2219 C2218 1.373 . S
C2219 C2235 1.377 . S
C2220 C2218 1.389 . S
C2220 C2221 1.524 . S
C2220 C2234 1.377 . S
C2221 C2220 1.524 . S
C2221 C2222 1.397 . S
C2221 C2226 1.363 . S
C2222 H2199 0.950 . S
C2222 C2221 1.397 . S
C2222 C2223 1.334 . S
C2223 H2200 0.950 . S
C2223 C2222 1.334 . S
C2223 C2224 1.287 . S
C2224 C2223 1.287 . S
C2224 C2225 1.524 . S
C2224 H2243 0.913 . S
C2225 H2201 0.950 . S
C2225 C2224 1.524 . S
C2225 C2226 1.415 . S
C2226 H2202 0.950 . S
C2226 C2221 1.363 . S
C2226 C2225 1.415 . S
C2227 H2203 0.951 . S
C2227 C2228 1.366 . S
C2227 C2229 1.388 . S
C2228 C2227 1.366 . S
C2228 C2232 1.385 . S
C2229 H2204 0.951 . S
C2229 C2227 1.388 . S
C2229 C2230 1.366 . S
C2230 C2229 1.366 . S
C2230 C2231 1.414 . S
C2230 C2233 1.499 . S
C2231 H2205 0.950 . S
C2231 C2230 1.414 . S
C2231 C2232 1.374 . S
C2232 H2206 0.950 . S
C2232 C2228 1.385 . S
C2232 C2231 1.374 . S
C2233 C2230 1.499 . S
C2233 C2234 1.373 . S
C2233 C2235 1.389 . S
C2234 H2207 0.950 . S
C2234 C2220 1.377 . S
C2234 C2233 1.373 . S
C2235 C2219 1.377 . S
C2235 C2233 1.389 . S
C2235 C2236 1.524 . S
C2236 C2235 1.524 . S
C2236 C2237 1.397 . S
C2236 C2241 1.363 . S
C2237 H2208 0.950 . S
C2237 C2236 1.397 . S
C2237 C2238 1.334 . S
C2238 H2209 0.950 . S
C2238 C2237 1.334 . S
C2238 C2239 1.287 . S
C2239 C2238 1.287 . S
C2239 C2240 1.524 . S
C2239 H2242 0.999 . S
C2240 H2210 0.950 . S
C2240 C2239 1.524 . S
C2240 C2241 1.415 . S
C2241 H2211 0.950 . S
C2241 C2236 1.363 . S
C2241 C2240 1.415 . S
H2242 C2239 0.999 . S
H2243 C2224 0.913 . S
H2244 C2262 0.951 . S
H2245 C2264 0.951 . S
H2246 C2266 0.950 . S
H2247 C2267 0.950 . S
H2248 C2269 0.950 . S
H2249 C2272 0.950 . S
H2250 C2273 0.950 . S
H2251 C2275 0.950 1_455 S
H2252 C2276 0.973 1_556 S
H2253 C2277 0.951 . S
H2254 C2279 0.951 . S
H2255 C2281 0.950 . S
H2256 C2282 0.950 . S
H2257 C2284 0.950 . S
H2258 C2287 0.950 . S
H2259 C2288 0.950 . S
H2260 C2290 0.950 . S
H2261 C2291 0.950 1_554 S
C2262 H2244 0.951 . S
C2262 C2263 1.366 1_455 S
C2262 C2264 1.388 . S
C2263 C2262 1.366 1_655 S
C2263 C2267 1.385 . S
C2264 H2245 0.951 . S
C2264 C2262 1.388 . S
C2264 C2265 1.366 1_455 S
C2265 C2264 1.366 1_655 S
C2265 C2266 1.414 . S
C2265 C2268 1.499 . S
C2266 H2246 0.950 . S
C2266 C2265 1.414 . S
C2266 C2267 1.374 . S
C2267 H2247 0.950 . S
C2267 C2263 1.385 . S
C2267 C2266 1.374 . S
C2268 C2265 1.499 . S
C2268 C2269 1.373 . S
C2268 C2270 1.389 . S
C2269 H2248 0.950 . S
C2269 C2268 1.373 . S
C2269 C2285 1.377 1_554 S
C2270 C2268 1.389 . S
C2270 C2271 1.524 . S
C2270 C2284 1.377 1_554 S
C2271 C2270 1.524 . S
C2271 C2272 1.397 . S
C2271 C2276 1.343 1_655 S
C2272 H2249 0.950 . S
C2272 C2271 1.397 . S
C2272 C2273 1.334 . S
C2273 H2250 0.950 . S
C2273 C2272 1.334 . S
C2273 C2274 1.287 . S
C2274 C2273 1.287 . S
C2274 C2275 1.524 . S
C2274 H2293 0.913 . S
C2275 H2251 0.950 1_655 S
C2275 C2274 1.524 . S
C2275 C2276 1.413 1_655 S
C2276 H2252 0.973 1_554 S
C2276 C2271 1.343 1_455 S
C2276 C2275 1.413 1_455 S
C2277 H2253 0.951 . S
C2277 C2278 1.366 . S
C2277 C2279 1.388 . S
C2278 C2277 1.366 . S
C2278 C2282 1.385 1_655 S
C2279 H2254 0.951 . S
C2279 C2277 1.388 . S
C2279 C2280 1.366 . S
C2280 C2279 1.366 . S
C2280 C2281 1.414 1_655 S
C2280 C2283 1.499 . S
C2281 H2255 0.950 . S
C2281 C2280 1.414 1_455 S
C2281 C2282 1.374 . S
C2282 H2256 0.950 . S
C2282 C2278 1.385 1_455 S
C2282 C2281 1.374 . S
C2283 C2280 1.499 . S
C2283 C2284 1.373 . S
C2283 C2285 1.389 . S
C2284 H2257 0.950 . S
C2284 C2270 1.377 1_556 S
C2284 C2283 1.373 . S
C2285 C2269 1.377 1_556 S
C2285 C2283 1.389 . S
C2285 C2286 1.524 . S
C2286 C2285 1.524 . S
C2286 C2287 1.397 1_655 S
C2286 C2291 1.363 . S
C2287 H2258 0.950 . S
C2287 C2286 1.397 1_455 S
C2287 C2288 1.334 . S
C2288 H2259 0.950 . S
C2288 C2287 1.334 . S
C2288 C2289 1.287 1_455 S
C2289 C2288 1.287 1_655 S
C2289 C2290 1.524 . S
C2289 H2292 0.999 . S
C2290 H2260 0.950 . S
C2290 C2289 1.524 . S
C2290 C2291 1.415 . S
C2291 H2261 0.950 1_556 S
C2291 C2286 1.363 . S
C2291 C2290 1.415 . S
H2292 C2289 0.999 . S
H2293 C2274 0.913 . S
H2294 C2312 0.951 . S
H2295 C2314 0.951 . S
H2296 C2316 0.950 . S
H2297 C2317 0.950 . S
H2298 C2319 0.950 . S
H2299 C2322 0.950 . S
H2300 C2323 0.950 . S
H2301 C2325 0.950 . S
H2302 C2326 0.950 . S
H2303 C2327 0.951 . S
H2304 C2329 0.951 . S
H2305 C2331 0.950 . S
H2306 C2332 0.950 . S
H2307 C2334 0.950 . S
H2308 C2337 0.950 . S
H2309 C2338 0.950 . S
H2310 C2340 0.950 . S
H2311 C2341 0.950 . S
C2312 H2294 0.951 . S
C2312 C2313 1.366 . S
C2312 C2314 1.388 . S
C2313 C2312 1.366 . S
C2313 C2317 1.385 . S
C2314 H2295 0.951 . S
C2314 C2312 1.388 . S
C2314 C2315 1.366 . S
C2315 C2314 1.366 . S
C2315 C2316 1.414 . S
C2315 C2318 1.499 . S
C2316 H2296 0.950 . S
C2316 C2315 1.414 . S
C2316 C2317 1.374 . S
C2317 H2297 0.950 . S
C2317 C2313 1.385 . S
C2317 C2316 1.374 . S
C2318 C2315 1.499 . S
C2318 C2319 1.373 . S
C2318 C2320 1.389 1_565 S
C2319 H2298 0.950 . S
C2319 C2318 1.373 . S
C2319 C2335 1.377 . S
C2320 C2318 1.389 1_545 S
C2320 C2321 1.524 . S
C2320 C2334 1.377 . S
C2321 C2320 1.524 . S
C2321 C2322 1.397 . S
C2321 C2326 1.363 . S
C2322 H2299 0.950 . S
C2322 C2321 1.397 . S
C2322 C2323 1.334 . S
C2323 H2300 0.950 . S
C2323 C2322 1.334 . S
C2323 C2324 1.287 . S
C2324 C2323 1.287 . S
C2324 C2325 1.524 . S
C2324 H2343 0.913 . S
C2325 H2301 0.950 . S
C2325 C2324 1.524 . S
C2325 C2326 1.415 . S
C2326 H2302 0.950 . S
C2326 C2321 1.363 . S
C2326 C2325 1.415 . S
C2327 H2303 0.951 . S
C2327 C2328 1.366 . S
C2327 C2329 1.388 . S
C2328 C2327 1.366 . S
C2328 C2332 1.385 . S
C2329 H2304 0.951 . S
C2329 C2327 1.388 . S
C2329 C2330 1.366 . S
C2330 C2329 1.366 . S
C2330 C2331 1.414 . S
C2330 C2333 1.499 . S
C2331 H2305 0.950 . S
C2331 C2330 1.414 . S
C2331 C2332 1.374 . S
C2332 H2306 0.950 . S
C2332 C2328 1.385 . S
C2332 C2331 1.374 . S
C2333 C2330 1.499 . S
C2333 C2334 1.373 1_565 S
C2333 C2335 1.389 . S
C2334 H2307 0.950 . S
C2334 C2320 1.377 . S
C2334 C2333 1.373 1_545 S
C2335 C2319 1.377 . S
C2335 C2333 1.389 . S
C2335 C2336 1.524 . S
C2336 C2335 1.524 . S
C2336 C2337 1.397 . S
C2336 C2341 1.363 . S
C2337 H2308 0.950 . S
C2337 C2336 1.397 . S
C2337 C2338 1.334 . S
C2338 H2309 0.950 . S
C2338 C2337 1.334 . S
C2338 C2339 1.287 . S
C2339 C2338 1.287 . S
C2339 C2340 1.524 . S
C2339 H2342 0.999 . S
C2340 H2310 0.950 . S
C2340 C2339 1.524 . S
C2340 C2341 1.415 . S
C2341 H2311 0.950 . S
C2341 C2336 1.363 . S
C2341 C2340 1.415 . S
H2342 C2339 0.999 . S
H2343 C2324 0.913 . S
H2344 C2362 0.951 . S
H2345 C2364 0.951 . S
H2346 C2366 0.950 . S
H2347 C2367 0.950 . S
H2348 C2369 0.950 . S
H2349 C2372 0.950 . S
H2350 C2373 0.950 . S
H2351 C2375 0.950 . S
H2352 C2376 0.950 . S
H2353 C2377 0.951 . S
H2354 C2379 0.951 . S
H2355 C2381 0.950 . S
H2356 C2382 0.950 . S
H2357 C2384 0.950 . S
H2358 C2387 0.950 . S
H2359 C2388 0.950 . S
H2360 C2390 0.950 . S
H2361 C2391 0.950 . S
C2362 H2344 0.951 . S
C2362 C2363 1.366 . S
C2362 C2364 1.388 . S
C2363 C2362 1.366 . S
C2363 C2367 1.385 . S
C2364 H2345 0.951 . S
C2364 C2362 1.388 . S
C2364 C2365 1.366 . S
C2365 C2364 1.366 . S
C2365 C2366 1.414 . S
C2365 C2368 1.499 . S
C2366 H2346 0.950 . S
C2366 C2365 1.414 . S
C2366 C2367 1.374 . S
C2367 H2347 0.950 . S
C2367 C2363 1.385 . S
C2367 C2366 1.374 . S
C2368 C2365 1.499 . S
C2368 C2369 1.373 . S
C2368 C2370 1.389 . S
C2369 H2348 0.950 . S
C2369 C2368 1.373 . S
C2369 C2385 1.377 1_556 S
C2370 C2368 1.389 . S
C2370 C2371 1.524 . S
C2370 C2384 1.377 1_556 S
C2371 C2370 1.524 . S
C2371 C2372 1.397 . S
C2371 C2376 1.363 . S
C2372 H2349 0.950 . S
C2372 C2371 1.397 . S
C2372 C2373 1.334 . S
C2373 H2350 0.950 . S
C2373 C2372 1.334 . S
C2373 C2374 1.287 . S
C2374 C2373 1.287 . S
C2374 C2375 1.524 . S
C2374 H2393 0.913 . S
C2375 H2351 0.950 . S
C2375 C2374 1.524 . S
C2375 C2376 1.415 . S
C2376 H2352 0.950 . S
C2376 C2371 1.363 . S
C2376 C2375 1.415 . S
C2377 H2353 0.951 . S
C2377 C2378 1.366 . S
C2377 C2379 1.388 . S
C2378 C2377 1.366 . S
C2378 C2382 1.385 . S
C2379 H2354 0.951 . S
C2379 C2377 1.388 . S
C2379 C2380 1.366 . S
C2380 C2379 1.366 . S
C2380 C2381 1.414 . S
C2380 C2383 1.499 . S
C2381 H2355 0.950 . S
C2381 C2380 1.414 . S
C2381 C2382 1.374 . S
C2382 H2356 0.950 . S
C2382 C2378 1.385 . S
C2382 C2381 1.374 . S
C2383 C2380 1.499 . S
C2383 C2384 1.373 . S
C2383 C2385 1.389 . S
C2384 H2357 0.950 . S
C2384 C2370 1.377 1_554 S
C2384 C2383 1.373 . S
C2385 C2369 1.377 1_554 S
C2385 C2383 1.389 . S
C2385 C2386 1.524 . S
C2386 C2385 1.524 . S
C2386 C2387 1.397 . S
C2386 C2391 1.363 . S
C2387 H2358 0.950 . S
C2387 C2386 1.397 . S
C2387 C2388 1.334 . S
C2388 H2359 0.950 . S
C2388 C2387 1.334 . S
C2388 C2389 1.287 . S
C2389 C2388 1.287 . S
C2389 C2390 1.524 . S
C2389 H2392 0.999 . S
C2390 H2360 0.950 . S
C2390 C2389 1.524 . S
C2390 C2391 1.415 . S
C2391 H2361 0.950 . S
C2391 C2386 1.363 . S
C2391 C2390 1.415 . S
H2392 C2389 0.999 . S
H2393 C2374 0.913 . S
H2394 C2412 0.951 . S
H2395 C2414 0.951 . S
H2396 C2416 0.950 . S
H2397 C2417 0.950 . S
H2398 C2419 0.950 . S
H2399 C2422 0.950 . S
H2400 C2423 0.950 . S
H2401 C2425 0.950 . S
H2402 C2426 0.950 . S
H2403 C2427 0.951 . S
H2404 C2429 0.951 . S
H2405 C2431 0.950 . S
H2406 C2432 0.950 . S
H2407 C2434 0.950 . S
H2408 C2437 0.950 . S
H2409 C2438 0.950 . S
H2410 C2440 0.950 . S
H2411 C2441 0.950 . S
C2412 H2394 0.951 . S
C2412 C2413 1.366 . S
C2412 C2414 1.388 . S
C2413 C2412 1.366 . S
C2413 C2417 1.385 . S
C2414 H2395 0.951 . S
C2414 C2412 1.388 . S
C2414 C2415 1.366 . S
C2415 C2414 1.366 . S
C2415 C2416 1.414 . S
C2415 C2418 1.499 . S
C2416 H2396 0.950 . S
C2416 C2415 1.414 . S
C2416 C2417 1.374 . S
C2417 H2397 0.950 . S
C2417 C2413 1.385 . S
C2417 C2416 1.374 . S
C2418 C2415 1.499 . S
C2418 C2419 1.373 . S
C2418 C2420 1.389 . S
C2419 H2398 0.950 . S
C2419 C2418 1.373 . S
C2419 C2435 1.377 . S
C2420 C2418 1.389 . S
C2420 C2421 1.524 . S
C2420 C2434 1.377 . S
C2421 C2420 1.524 . S
C2421 C2422 1.397 . S
C2421 C2426 1.363 . S
C2422 H2399 0.950 . S
C2422 C2421 1.397 . S
C2422 C2423 1.334 . S
C2423 H2400 0.950 . S
C2423 C2422 1.334 . S
C2423 C2424 1.287 . S
C2424 C2423 1.287 . S
C2424 C2425 1.524 . S
C2424 H2443 0.913 . S
C2425 H2401 0.950 . S
C2425 C2424 1.524 . S
C2425 C2426 1.415 . S
C2426 H2402 0.950 . S
C2426 C2421 1.363 . S
C2426 C2425 1.415 . S
C2427 H2403 0.951 . S
C2427 C2428 1.366 . S
C2427 C2429 1.388 . S
C2428 C2427 1.366 . S
C2428 C2432 1.385 . S
C2429 H2404 0.951 . S
C2429 C2427 1.388 . S
C2429 C2430 1.366 . S
C2430 C2429 1.366 . S
C2430 C2431 1.414 . S
C2430 C2433 1.499 . S
C2431 H2405 0.950 . S
C2431 C2430 1.414 . S
C2431 C2432 1.374 . S
C2432 H2406 0.950 . S
C2432 C2428 1.385 . S
C2432 C2431 1.374 . S
C2433 C2430 1.499 . S
C2433 C2434 1.373 . S
C2433 C2435 1.389 . S
C2434 H2407 0.950 . S
C2434 C2420 1.377 . S
C2434 C2433 1.373 . S
C2435 C2419 1.377 . S
C2435 C2433 1.389 . S
C2435 C2436 1.524 . S
C2436 C2435 1.524 . S
C2436 C2437 1.397 . S
C2436 C2441 1.363 . S
C2437 H2408 0.950 . S
C2437 C2436 1.397 . S
C2437 C2438 1.334 . S
C2438 H2409 0.950 . S
C2438 C2437 1.334 . S
C2438 C2439 1.287 . S
C2439 C2438 1.287 . S
C2439 C2440 1.524 . S
C2439 H2442 0.999 . S
C2440 H2410 0.950 . S
C2440 C2439 1.524 . S
C2440 C2441 1.415 . S
C2441 H2411 0.950 . S
C2441 C2436 1.363 . S
C2441 C2440 1.415 . S
H2442 C2439 0.999 . S
H2443 C2424 0.913 . S
H2444 C2462 0.951 . S
H2445 C2464 0.951 . S
H2446 C2466 0.950 . S
H2447 C2467 0.950 . S
H2448 C2469 0.950 . S
H2449 C2472 0.950 . S
H2450 C2473 0.950 . S
H2451 C2475 0.950 . S
H2452 C2476 0.950 . S
H2453 C2477 0.951 . S
H2454 C2479 0.951 . S
H2455 C2481 0.950 . S
H2456 C2482 0.950 . S
H2457 C2484 0.950 . S
H2458 C2487 0.950 . S
H2459 C2488 0.950 . S
H2460 C2490 0.950 . S
H2461 C2491 0.950 . S
C2462 H2444 0.951 . S
C2462 C2463 1.366 . S
C2462 C2464 1.388 . S
C2463 C2462 1.366 . S
C2463 C2467 1.385 . S
C2464 H2445 0.951 . S
C2464 C2462 1.388 . S
C2464 C2465 1.366 . S
C2465 C2464 1.366 . S
C2465 C2466 1.414 . S
C2465 C2468 1.499 . S
C2466 H2446 0.950 . S
C2466 C2465 1.414 . S
C2466 C2467 1.374 . S
C2467 H2447 0.950 . S
C2467 C2463 1.385 . S
C2467 C2466 1.374 . S
C2468 C2465 1.499 . S
C2468 C2469 1.373 1_455 S
C2468 C2470 1.389 . S
C2469 H2448 0.950 . S
C2469 C2468 1.373 1_655 S
C2469 C2485 1.377 1_554 S
C2470 C2468 1.389 . S
C2470 C2471 1.524 . S
C2470 C2484 1.377 1_554 S
C2471 C2470 1.524 . S
C2471 C2472 1.397 . S
C2471 C2476 1.363 . S
C2472 H2449 0.950 . S
C2472 C2471 1.397 . S
C2472 C2473 1.334 . S
C2473 H2450 0.950 . S
C2473 C2472 1.334 . S
C2473 C2474 1.287 . S
C2474 C2473 1.287 . S
C2474 C2475 1.524 . S
C2474 H2493 0.913 . S
C2475 H2451 0.950 . S
C2475 C2474 1.524 . S
C2475 C2476 1.415 . S
C2476 H2452 0.950 . S
C2476 C2471 1.363 . S
C2476 C2475 1.415 . S
C2477 H2453 0.951 . S
C2477 C2478 1.366 . S
C2477 C2479 1.388 . S
C2478 C2477 1.366 . S
C2478 C2482 1.385 . S
C2479 H2454 0.951 . S
C2479 C2477 1.388 . S
C2479 C2480 1.366 . S
C2480 C2479 1.366 . S
C2480 C2481 1.414 . S
C2480 C2483 1.499 . S
C2481 H2455 0.950 . S
C2481 C2480 1.414 . S
C2481 C2482 1.374 . S
C2482 H2456 0.950 . S
C2482 C2478 1.385 . S
C2482 C2481 1.374 . S
C2483 C2480 1.499 . S
C2483 C2484 1.373 . S
C2483 C2485 1.389 1_455 S
C2484 H2457 0.950 . S
C2484 C2470 1.377 1_556 S
C2484 C2483 1.373 . S
C2485 C2469 1.377 1_556 S
C2485 C2483 1.389 1_655 S
C2485 C2486 1.524 . S
C2486 C2485 1.524 . S
C2486 C2487 1.397 . S
C2486 C2491 1.363 . S
C2487 H2458 0.950 . S
C2487 C2486 1.397 . S
C2487 C2488 1.334 . S
C2488 H2459 0.950 . S
C2488 C2487 1.334 . S
C2488 C2489 1.287 . S
C2489 C2488 1.287 . S
C2489 C2490 1.524 . S
C2489 H2492 0.999 . S
C2490 H2460 0.950 . S
C2490 C2489 1.524 . S
C2490 C2491 1.415 . S
C2491 H2461 0.950 . S
C2491 C2486 1.363 . S
C2491 C2490 1.415 . S
H2492 C2489 0.999 . S
H2493 C2474 0.913 . S
H2494 C2512 0.951 . S
H2495 C2514 0.951 . S
H2496 C2516 0.950 . S
H2497 C2517 0.950 . S
H2498 C2519 0.962 . S
H2499 C2522 0.950 . S
H2500 C2523 0.950 . S
H2501 C2525 0.950 . S
H2502 C2526 0.950 . S
H2503 C2527 0.951 . S
H2504 C2529 0.951 . S
H2505 C2531 0.950 . S
H2506 C2532 0.950 . S
H2507 C2534 0.950 . S
H2508 C2537 0.950 1_545 S
H2509 C2538 0.950 . S
H2510 C2540 0.950 . S
H2511 C2541 0.950 . S
C2512 H2494 0.951 . S
C2512 C2513 1.366 . S
C2512 C2514 1.388 . S
C2513 C2512 1.366 . S
C2513 C2517 1.385 1_545 S
C2514 H2495 0.951 . S
C2514 C2512 1.388 . S
C2514 C2515 1.366 . S
C2515 C2514 1.366 . S
C2515 C2516 1.414 1_545 S
C2515 C2518 1.499 . S
C2516 H2496 0.950 . S
C2516 C2515 1.414 1_565 S
C2516 C2517 1.374 . S
C2517 H2497 0.950 . S
C2517 C2513 1.385 1_565 S
C2517 C2516 1.374 . S
C2518 C2515 1.499 . S
C2518 C2519 1.363 1_545 S
C2518 C2520 1.389 . S
C2519 H2498 0.962 . S
C2519 C2518 1.363 1_565 S
C2519 C2535 1.376 1_565 S
C2520 C2518 1.389 . S
C2520 C2521 1.524 . S
C2520 C2534 1.377 . S
C2521 C2520 1.524 . S
C2521 C2522 1.397 . S
C2521 C2526 1.363 . S
C2522 H2499 0.950 . S
C2522 C2521 1.397 . S
C2522 C2523 1.334 . S
C2523 H2500 0.950 . S
C2523 C2522 1.334 . S
C2523 C2524 1.287 . S
C2524 C2523 1.287 . S
C2524 C2525 1.524 . S
C2524 H2543 0.913 . S
C2525 H2501 0.950 . S
C2525 C2524 1.524 . S
C2525 C2526 1.415 . S
C2526 H2502 0.950 . S
C2526 C2521 1.363 . S
C2526 C2525 1.415 . S
C2527 H2503 0.951 . S
C2527 C2528 1.366 1_565 S
C2527 C2529 1.388 . S
C2528 C2527 1.366 1_545 S
C2528 C2532 1.385 . S
C2529 H2504 0.951 . S
C2529 C2527 1.388 . S
C2529 C2530 1.366 1_565 S
C2530 C2529 1.366 1_545 S
C2530 C2531 1.414 . S
C2530 C2533 1.499 . S
C2531 H2505 0.950 . S
C2531 C2530 1.414 . S
C2531 C2532 1.374 . S
C2532 H2506 0.950 . S
C2532 C2528 1.385 . S
C2532 C2531 1.374 . S
C2533 C2530 1.499 . S
C2533 C2534 1.373 . S
C2533 C2535 1.399 . S
C2534 H2507 0.950 . S
C2534 C2520 1.377 . S
C2534 C2533 1.373 . S
C2535 C2519 1.376 1_545 S
C2535 C2533 1.399 . S
C2535 C2536 1.516 1_545 S
C2536 C2535 1.516 1_565 S
C2536 C2537 1.397 . S
C2536 C2541 1.363 . S
C2537 H2508 0.950 1_565 S
C2537 C2536 1.397 . S
C2537 C2538 1.334 . S
C2538 H2509 0.950 . S
C2538 C2537 1.334 . S
C2538 C2539 1.287 . S
C2539 C2538 1.287 . S
C2539 C2540 1.524 . S
C2539 H2542 0.999 . S
C2540 H2510 0.950 . S
C2540 C2539 1.524 . S
C2540 C2541 1.415 . S
C2541 H2511 0.950 . S
C2541 C2536 1.363 . S
C2541 C2540 1.415 . S
H2542 C2539 0.999 . S
H2543 C2524 0.913 . S
C963 C5 1.457 . S
C978 C418 1.457 . S
C1013 C64 1.457 . S
C1028 C241 1.457 . S
C1063 C123 1.457 . S
C1078 C300 1.457 . S
C1113 C182 1.457 . S
C1128 C359 1.457 . S
C1163 C477 1.457 . S
C1178 C890 1.457 . S
C1213 C713 1.457 . S
C1228 C536 1.457 . S
C1263 C595 1.457 . S
C1278 C772 1.457 . S
C1313 C654 1.457 . S
C1328 C831 1.457 . S
C1363 C52 1.610 . S
C1378 C564 1.608 . S
C1413 C111 1.610 . S
C1428 C623 1.607 . S
C1463 C682 1.608 . S
C1478 C170 1.610 . S
C1513 C229 1.610 . S
C1528 C505 1.608 . S
C1563 C288 1.610 . S
C1578 C918 1.608 . S
C1613 C741 1.608 . S
C1628 C347 1.610 . S
C1663 C800 1.608 . S
C1678 C406 1.610 . S
C1713 C859 1.607 . S
C1728 C465 1.610 . S
C1763 C92 1.607 . S
C1778 C524 1.610 . S
C1813 C151 1.608 . S
C1828 C583 1.610 . S
C1863 C642 1.610 . S
C1878 C210 1.608 . S
C1913 C33 1.607 . S
C1928 C701 1.610 . S
C1963 C760 1.610 . S
C1978 C446 1.607 . S
C2013 C819 1.610 . S
C2028 C269 1.608 . S
C2063 C328 1.608 . S
C2078 C878 1.610 . S
C2113 C387 1.608 . S
C2128 C937 1.610 . S
C2163 C3 1.666 . S
C2178 C239 1.666 . S
C2213 C298 1.667 . S
C2228 C62 1.666 . S
C2263 C121 1.666 . S
C2278 C357 1.666 . S
C2313 C416 1.666 . S
C2328 C180 1.667 . S
C2363 C475 1.667 . S
C2378 C711 1.666 . S
C2413 C770 1.666 . S
C2428 C534 1.666 . S
C2463 C829 1.667 . S
C2478 C593 1.666 . S
C2513 C888 1.666 . S
C2528 C652 1.666 . S
