# Generated by pormake.
# Topology wkl, (6)-cn, num edge types: 1
# Building blocks:
#     Node 0, Type 0, BuildingBlock: OJICUG_clean_sbu_0, # of connection points: 6
#     Node 1, Type 0, BuildingBlock: OJICUG_clean_sbu_0, # of connection points: 6
#     Node 2, Type 0, BuildingBlock: OJICUG_clean_sbu_0, # of connection points: 6
#     Node 3, Type 0, BuildingBlock: OJICUG_clean_sbu_0, # of connection points: 6
#     Node 4, Type 0, BuildingBlock: OJICUG_clean_sbu_0, # of connection points: 6
#     Node 5, Type 0, BuildingBlock: OJICUG_clean_sbu_0, # of connection points: 6
#     Node 6, Type 0, BuildingBlock: OJICUG_clean_sbu_0, # of connection points: 6
#     Node 7, Type 0, BuildingBlock: OJICUG_clean_sbu_0, # of connection points: 6
#     Node 8, Type 0, BuildingBlock: OJICUG_clean_sbu_0, # of connection points: 6
#     Node 9, Type 0, BuildingBlock: OJICUG_clean_sbu_0, # of connection points: 6
#     Node 10, Type 0, BuildingBlock: OJICUG_clean_sbu_0, # of connection points: 6
#     Node 11, Type 0, BuildingBlock: OJICUG_clean_sbu_0, # of connection points: 6
#     Edge 12, Type (0, 0), BuildingBlock: EZIPEK_clean_linker_0, # of connection points: 2
#     Edge 13, Type (0, 0), BuildingBlock: EZIPEK_clean_linker_0, # of connection points: 2
#     Edge 14, Type (0, 0), BuildingBlock: EZIPEK_clean_linker_0, # of connection points: 2
#     Edge 15, Type (0, 0), BuildingBlock: EZIPEK_clean_linker_0, # of connection points: 2
#     Edge 16, Type (0, 0), BuildingBlock: EZIPEK_clean_linker_0, # of connection points: 2
#     Edge 17, Type (0, 0), BuildingBlock: EZIPEK_clean_linker_0, # of connection points: 2
#     Edge 18, Type (0, 0), BuildingBlock: EZIPEK_clean_linker_0, # of connection points: 2
#     Edge 19, Type (0, 0), BuildingBlock: EZIPEK_clean_linker_0, # of connection points: 2
#     Edge 20, Type (0, 0), BuildingBlock: EZIPEK_clean_linker_0, # of connection points: 2
#     Edge 21, Type (0, 0), BuildingBlock: EZIPEK_clean_linker_0, # of connection points: 2
#     Edge 22, Type (0, 0), BuildingBlock: EZIPEK_clean_linker_0, # of connection points: 2
#     Edge 23, Type (0, 0), BuildingBlock: EZIPEK_clean_linker_0, # of connection points: 2
#     Edge 24, Type (0, 0), BuildingBlock: EZIPEK_clean_linker_0, # of connection points: 2
#     Edge 25, Type (0, 0), BuildingBlock: EZIPEK_clean_linker_0, # of connection points: 2
#     Edge 26, Type (0, 0), BuildingBlock: EZIPEK_clean_linker_0, # of connection points: 2
#     Edge 27, Type (0, 0), BuildingBlock: EZIPEK_clean_linker_0, # of connection points: 2
#     Edge 28, Type (0, 0), BuildingBlock: EZIPEK_clean_linker_0, # of connection points: 2
#     Edge 29, Type (0, 0), BuildingBlock: EZIPEK_clean_linker_0, # of connection points: 2
#     Edge 30, Type (0, 0), BuildingBlock: EZIPEK_clean_linker_0, # of connection points: 2
#     Edge 31, Type (0, 0), BuildingBlock: EZIPEK_clean_linker_0, # of connection points: 2
#     Edge 32, Type (0, 0), BuildingBlock: EZIPEK_clean_linker_0, # of connection points: 2
#     Edge 33, Type (0, 0), BuildingBlock: EZIPEK_clean_linker_0, # of connection points: 2
#     Edge 34, Type (0, 0), BuildingBlock: EZIPEK_clean_linker_0, # of connection points: 2
#     Edge 35, Type (0, 0), BuildingBlock: EZIPEK_clean_linker_0, # of connection points: 2
#     Edge 36, Type (0, 0), BuildingBlock: EZIPEK_clean_linker_0, # of connection points: 2
#     Edge 37, Type (0, 0), BuildingBlock: EZIPEK_clean_linker_0, # of connection points: 2
#     Edge 38, Type (0, 0), BuildingBlock: EZIPEK_clean_linker_0, # of connection points: 2
#     Edge 39, Type (0, 0), BuildingBlock: EZIPEK_clean_linker_0, # of connection points: 2
#     Edge 40, Type (0, 0), BuildingBlock: EZIPEK_clean_linker_0, # of connection points: 2
#     Edge 41, Type (0, 0), BuildingBlock: EZIPEK_clean_linker_0, # of connection points: 2
#     Edge 42, Type (0, 0), BuildingBlock: EZIPEK_clean_linker_0, # of connection points: 2
#     Edge 43, Type (0, 0), BuildingBlock: EZIPEK_clean_linker_0, # of connection points: 2
#     Edge 44, Type (0, 0), BuildingBlock: EZIPEK_clean_linker_0, # of connection points: 2
#     Edge 45, Type (0, 0), BuildingBlock: EZIPEK_clean_linker_0, # of connection points: 2
#     Edge 46, Type (0, 0), BuildingBlock: EZIPEK_clean_linker_0, # of connection points: 2
#     Edge 47, Type (0, 0), BuildingBlock: EZIPEK_clean_linker_0, # of connection points: 2
# Relax obj value: 0.345
# Max RMSD: 0.288
# Mean RMSD: 0.288
data_MOF--net-wkl--node1-OJICUG_clean_sbu_0--edge1-EZIPEK_clean_linker_0
_symmetry_space_group_name_H-M    P1
_symmetry_Int_Tables_number       1
_symmetry_cell_setting            triclinic
loop_
_symmetry_equiv_pos_as_xyz
'x, y, z'
_cell_length_a     54.864151
_cell_length_b     54.836536
_cell_length_c     11.820217
_cell_angle_alpha  89.994514
_cell_angle_beta   90.015871
_cell_angle_gamma 120.08197
loop_
_atom_site_label
_atom_site_type_symbol
_atom_site_fract_x
_atom_site_fract_y
_atom_site_fract_z
_atom_type_partial_charge
Sc0 Sc 0.45776 0.08193 0.096 0.0
Sc1 Sc 0.48741 0.13697 0.90567 0.0
Sc2 Sc 0.41856 0.11254 1.00501 0.0
O3 O 0.45413 0.11012 1.0004 0.0
C4 C 0.39193 0.04776 0.02995 0.0
C5 C 0.48811 0.07836 0.88677 0.0
C6 C 0.43619 0.1196 0.74212 0.0
C7 C 0.51954 0.13616 0.11459 0.0
C8 C 0.42963 0.10461 0.26529 0.0
C9 C 0.4655 0.17672 0.99331 0.0
O10 O 0.41389 0.05054 0.0785 0.0
O11 O 0.49783 0.10467 0.87064 0.0
O12 O 0.41914 0.11716 0.82098 0.0
O13 O 0.50202 0.10993 0.1259 0.0
O14 O 0.41465 0.1072 0.18868 0.0
O15 O 0.48207 0.17258 0.93256 0.0
O16 O 0.44878 0.09871 0.2433 0.0
O17 O 0.51547 0.15165 0.04723 0.0
O18 O 0.44254 0.15703 0.03287 0.0
O19 O 0.46808 0.06399 0.95494 0.0
O20 O 0.39088 0.06809 0.98385 0.0
O21 O 0.46109 0.12443 0.75942 0.0
Sc22 Sc 0.3588 0.46 0.24803 0.0
Sc23 Sc 0.31417 0.46489 0.05722 0.0
Sc24 Sc 0.29553 0.40015 0.1687 0.0
O25 O 0.32263 0.4417 0.16175 0.0
C26 C 0.35453 0.40264 0.18258 0.0
C27 C 0.37614 0.48788 1.00089 0.0
C28 C 0.2947 0.41144 0.91091 0.0
C29 C 0.34943 0.51034 0.2506 0.0
C30 C 0.31249 0.41617 0.42522 0.0
C31 C 0.25701 0.42837 0.16889 0.0
O32 O 0.36902 0.42931 0.18915 0.0
O33 O 0.35108 0.47394 0.96438 0.0
O34 O 0.29873 0.39707 0.98562 0.0
O35 O 0.35223 0.49282 0.31136 0.0
O36 O 0.29327 0.40252 0.35159 0.0
O37 O 0.27696 0.45349 0.15221 0.0
O38 O 0.33761 0.43518 0.39893 0.0
O39 O 0.33744 0.50363 0.15445 0.0
O40 O 0.25967 0.40679 0.15274 0.0
O41 O 0.38223 0.48735 0.10508 0.0
O42 O 0.3278 0.38894 0.18741 0.0
O43 O 0.29035 0.43122 0.93927 0.0
Sc44 Sc 0.87776 0.38302 0.46651 0.0
Sc45 Sc 0.82131 0.35356 0.27477 0.0
Sc46 Sc 0.85196 0.31382 0.36927 0.0
O47 O 0.85024 0.35006 0.37029 0.0
C48 C 0.91637 0.35853 0.38241 0.0
C49 C 0.87753 0.41336 0.24186 0.0
C50 C 0.84161 0.32149 0.10822 0.0
C51 C 0.82258 0.38883 0.48537 0.0
C52 C 0.85938 0.33137 0.63179 0.0
C53 C 0.7862 0.29104 0.36996 0.0
O54 O 0.9125 0.37661 0.43345 0.0
O55 O 0.85221 0.39502 0.21818 0.0
O56 O 0.84848 0.31 0.18604 0.0
O57 O 0.84752 0.39522 0.51129 0.0
O58 O 0.8559 0.31404 0.55279 0.0
O59 O 0.78747 0.31255 0.32363 0.0
O60 O 0.86598 0.35683 0.61417 0.0
O61 O 0.80838 0.37127 0.40846 0.0
O62 O 0.80752 0.28866 0.39198 0.0
O63 O 0.89114 0.41133 0.32485 0.0
O64 O 0.8966 0.33527 0.34608 0.0
O65 O 0.83163 0.33752 0.12799 0.0
Sc66 Sc 0.52292 0.90761 0.64657 0.0
Sc67 Sc 0.49264 0.85214 0.45174 0.0
Sc68 Sc 0.56213 0.87712 0.54631 0.0
O69 O 0.52592 0.87908 0.54778 0.0
C70 C 0.5864 0.94331 0.57286 0.0
C71 C 0.4888 0.90799 0.42954 0.0
C72 C 0.54595 0.87165 0.28666 0.0
C73 C 0.46181 0.85396 0.6751 0.0
C74 C 0.55379 0.88405 0.80725 0.0
C75 C 0.51547 0.81211 0.52467 0.0
O76 O 0.56275 0.94128 0.5926 0.0
O77 O 0.48468 0.88448 0.39232 0.0
O78 O 0.56489 0.88093 0.36339 0.0
O79 O 0.4823 0.87707 0.71013 0.0
O80 O 0.56109 0.87291 0.72924 0.0
O81 O 0.49528 0.81641 0.50515 0.0
O82 O 0.54175 0.89835 0.78837 0.0
O83 O 0.46241 0.84193 0.58442 0.0
O84 O 0.54091 0.83182 0.53151 0.0
O85 O 0.50315 0.91976 0.51779 0.0
O86 O 0.5897 0.92212 0.56211 0.0
O87 O 0.51966 0.85967 0.30774 0.0
Sc88 Sc 0.61596 0.52735 0.78841 0.0
Sc89 Sc 0.65934 0.51307 0.61835 0.0
Sc90 Sc 0.68252 0.58219 0.70827 0.0
O91 O 0.65251 0.54069 0.70538 0.0
C92 C 0.62663 0.58562 0.70197 0.0
C93 C 0.5957 0.4911 0.55949 0.0
C94 C 0.68065 0.56652 0.45085 0.0
C95 C 0.62508 0.47572 0.83411 0.0
C96 C 0.66398 0.56899 0.96458 0.0
C97 C 0.7195 0.55248 0.71339 0.0
O98 O 0.61027 0.55958 0.71693 0.0
O99 O 0.61986 0.49522 0.5331 0.0
O100 O 0.68128 0.58382 0.5246 0.0
O101 O 0.61651 0.49226 0.86525 0.0
O102 O 0.68381 0.5807 0.89208 0.0
O103 O 0.69922 0.5277 0.69765 0.0
O104 O 0.63825 0.55274 0.93576 0.0
O105 O 0.64002 0.47991 0.74575 0.0
O106 O 0.7172 0.5743 0.70483 0.0
O107 O 0.59074 0.50059 0.64972 0.0
O108 O 0.65318 0.59752 0.71083 0.0
O109 O 0.67756 0.54249 0.47732 0.0
Sc110 Sc 0.10304 0.60757 0.98251 0.0
Sc111 Sc 0.16117 0.63995 0.80086 0.0
Sc112 Sc 0.12986 0.67755 0.90443 0.0
O113 O 0.13128 0.64152 0.89476 0.0
C114 C 0.06487 0.63074 0.89998 0.0
C115 C 0.10922 0.57923 0.75661 0.0
C116 C 0.13947 0.673 0.64334 0.0
C117 C 0.15933 0.60541 0.02155 0.0
C118 C 0.11971 0.6576 0.15881 0.0
C119 C 0.19558 0.70067 0.90255 0.0
O120 O 0.0686 0.60981 0.91002 0.0
O121 O 0.13101 0.60119 0.72062 0.0
O122 O 0.12667 0.67839 0.72098 0.0
O123 O 0.13627 0.60277 0.05863 0.0
O124 O 0.13369 0.67737 0.08819 0.0
O125 O 0.19417 0.67758 0.87686 0.0
O126 O 0.10323 0.6325 0.12561 0.0
O127 O 0.1697 0.61667 0.92658 0.0
O128 O 0.17459 0.70437 0.90085 0.0
O129 O 0.09814 0.57792 0.85231 0.0
O130 O 0.08445 0.65616 0.91095 0.0
O131 O 0.15517 0.6625 0.66342 0.0
Sc132 Sc 0.89033 0.58871 0.82187 0.0
Sc133 Sc 0.84649 0.51953 0.92355 0.0
Sc134 Sc 0.89922 0.53289 0.72511 0.0
O135 O 0.87861 0.54705 0.82339 0.0
C136 C 0.89287 0.57478 0.55975 0.0
C137 C 0.82386 0.55884 0.82967 0.0
C138 C 0.83613 0.48063 0.7131 0.0
C139 C 0.87825 0.57301 0.08444 0.0
C140 C 0.94931 0.59235 0.8069 0.0
C141 C 0.89156 0.4992 0.95015 0.0
O142 O 0.89409 0.59124 0.63851 0.0
O143 O 0.82037 0.5367 0.87836 0.0
O144 O 0.86176 0.49425 0.683 0.0
O145 O 0.88801 0.59106 1.0048 0.0
O146 O 0.93973 0.56895 0.75629 0.0
O147 O 0.86918 0.49923 0.97727 0.0
O148 O 0.93405 0.60193 0.84356 0.0
O149 O 0.86345 0.54668 0.06748 0.0
O150 O 0.90672 0.51238 0.86533 0.0
O151 O 0.84765 0.57924 0.80056 0.0
O152 O 0.89305 0.552 0.57751 0.0
O153 O 0.82608 0.48848 0.79253 0.0
Sc154 Sc 0.29695 0.86721 0.06688 0.0
Sc155 Sc 0.34422 0.84618 0.16786 0.0
Sc156 Sc 0.3672 0.90117 0.9714 0.0
O157 O 0.33614 0.87169 0.06952 0.0
C158 C 0.31482 0.87624 0.80547 0.0
C159 C 0.28297 0.80376 0.07601 0.0
C160 C 0.37839 0.84953 0.95125 0.0
C161 C 0.30683 0.86028 0.33006 0.0
C162 C 0.33465 0.93314 0.04796 0.0
C163 C 0.40187 0.9055 0.18848 0.0
O164 O 0.29663 0.87013 0.88351 0.0
O165 O 0.30512 0.80889 0.12893 0.0
O166 O 0.38297 0.87394 0.92587 0.0
O167 O 0.29293 0.86335 0.25027 0.0
O168 O 0.35506 0.93201 1.00312 0.0
O169 O 0.38518 0.87994 0.21518 0.0
O170 O 0.31248 0.91173 0.08438 0.0
O171 O 0.32676 0.85523 0.31327 0.0
O172 O 0.39697 0.9181 0.10906 0.0
O173 O 0.27742 0.82256 0.04485 0.0
O174 O 0.34094 0.88648 0.8242 0.0
O175 O 0.36242 0.83487 0.03145 0.0
Sc176 Sc 0.4413 0.30699 0.14906 0.0
Sc177 Sc 0.51146 0.34357 0.24678 0.0
Sc178 Sc 0.48729 0.37552 0.05807 0.0
O179 O 0.47999 0.34176 0.15102 0.0
C180 C 0.45445 0.32565 0.8875 0.0
C181 C 0.48173 0.28125 0.15068 0.0
C182 C 0.54822 0.37993 0.05109 0.0
C183 C 0.45846 0.31325 0.41092 0.0
C184 C 0.42389 0.35278 0.13052 0.0
C185 C 0.51592 0.40398 0.28289 0.0
O186 O 0.4383 0.30928 0.96517 0.0
O187 O 0.50192 0.30165 0.20258 0.0
O188 O 0.5307 0.38813 0.03079 0.0
O189 O 0.44029 0.30194 0.33215 0.0
O190 O 0.44556 0.36912 0.0736 0.0
O191 O 0.52405 0.38601 0.29501 0.0
O192 O 0.42022 0.33035 0.17648 0.0
O193 O 0.4846 0.32922 0.39272 0.0
O194 O 0.4989 0.4019 0.20575 0.0
O195 O 0.45912 0.28063 0.1222 0.0
O196 O 0.47549 0.35001 0.90763 0.0
O197 O 0.54251 0.3592 0.11473 0.0
Sc198 Sc 0.09042 0.40101 0.3078 0.0
Sc199 Sc 0.13662 0.46574 0.42388 0.0
Sc200 Sc 0.08806 0.46131 0.22835 0.0
O201 O 0.10543 0.44266 0.31555 0.0
C202 C 0.0893 0.41669 0.05071 0.0
C203 C 0.15803 0.43064 0.30549 0.0
C204 C 0.14764 0.51152 0.23033 0.0
C205 C 0.10316 0.4119 0.56676 0.0
C206 C 0.03423 0.40423 0.29946 0.0
C207 C 0.0978 0.48852 0.47703 0.0
O208 O 0.09295 0.40198 0.12523 0.0
O209 O 0.16336 0.4553 0.33261 0.0
O210 O 0.12784 0.494 0.16753 0.0
O211 O 0.08507 0.39785 0.49094 0.0
O212 O 0.04677 0.43075 0.28529 0.0
O213 O 0.10781 0.47371 0.51442 0.0
O214 O 0.04681 0.39007 0.29815 0.0
O215 O 0.12724 0.43207 0.54083 0.0
O216 O 0.09177 0.48848 0.37228 0.0
O217 O 0.1335 0.40866 0.31152 0.0
O218 O 0.08494 0.43692 0.07627 0.0
O219 O 0.15221 0.50473 0.32768 0.0
Sc220 Sc 0.68455 0.12479 0.53397 0.0
Sc221 Sc 0.63599 0.14511 0.62339 0.0
Sc222 Sc 0.61494 0.08839 0.43734 0.0
O223 O 0.64516 0.11939 0.53213 0.0
C224 C 0.66911 0.11166 0.27331 0.0
C225 C 0.696 0.18796 0.53028 0.0
C226 C 0.60289 0.13728 0.38855 0.0
C227 C 0.67441 0.13323 0.79361 0.0
C228 C 0.64596 0.05795 0.53418 0.0
C229 C 0.57976 0.08797 0.65817 0.0
O230 O 0.68704 0.12557 0.35007 0.0
O231 O 0.67135 0.18209 0.55744 0.0
O232 O 0.60492 0.11656 0.35392 0.0
O233 O 0.68436 0.12407 0.71786 0.0
O234 O 0.62331 0.05777 0.51042 0.0
O235 O 0.59931 0.11085 0.69863 0.0
O236 O 0.67001 0.08014 0.5378 0.0
O237 O 0.65889 0.14376 0.77095 0.0
O238 O 0.58181 0.07812 0.56303 0.0
O239 O 0.70413 0.16998 0.52689 0.0
O240 O 0.64312 0.09576 0.29681 0.0
O241 O 0.61118 0.14837 0.48609 0.0
Sc242 Sc 0.53663 0.6749 0.58225 0.0
Sc243 Sc 0.46609 0.63763 0.67901 0.0
Sc244 Sc 0.49134 0.60496 0.49539 0.0
O245 O 0.49794 0.63921 0.5852 0.0
C246 C 0.52623 0.6567 0.32322 0.0
C247 C 0.49579 0.70054 0.59327 0.0
C248 C 0.43251 0.60355 0.46142 0.0
C249 C 0.51958 0.66751 0.84366 0.0
C250 C 0.55426 0.62803 0.57971 0.0
C251 C 0.45711 0.57583 0.71755 0.0
O252 O 0.5377 0.67576 0.39879 0.0
O253 O 0.47406 0.67845 0.62719 0.0
O254 O 0.45097 0.59698 0.43454 0.0
O255 O 0.53821 0.67588 0.76604 0.0
O256 O 0.5301 0.60809 0.55156 0.0
O257 O 0.45343 0.59631 0.74186 0.0
O258 O 0.56015 0.65343 0.58589 0.0
O259 O 0.49321 0.65462 0.82438 0.0
O260 O 0.47103 0.57565 0.63219 0.0
O261 O 0.51941 0.70225 0.57744 0.0
O262 O 0.51027 0.6307 0.3469 0.0
O263 O 0.43555 0.61959 0.54426 0.0
C264 C 0.41876 0.08693 0.57897 0.0
C265 C 0.42616 0.11363 0.62394 0.0
C266 C 0.42628 0.13144 0.43332 0.0
C267 C 0.42373 0.10626 0.38719 0.0
N268 N 0.41646 0.05933 0.41574 0.0
N269 N 0.43613 0.16122 0.59939 0.0
C270 C 0.41919 0.08362 0.46006 0.0
C271 C 0.42912 0.13572 0.55273 0.0
N272 N 0.41154 0.06479 0.65089 0.0
N273 N 0.4265 0.15144 0.36359 0.0
H274 H 0.43673 0.16428 0.68668 0.0
H275 H 0.44239 0.17952 0.55279 0.0
H276 H 0.42575 0.1499 0.27585 0.0
H277 H 0.42555 0.16887 0.39241 0.0
H278 H 0.40296 0.04396 0.62466 0.0
H279 H 0.41208 0.06695 0.73867 0.0
H280 H 0.41717 0.04378 0.46371 0.0
H281 H 0.41472 0.05502 0.32943 0.0
C282 C 0.32013 0.40643 0.74009 0.0
C283 C 0.29638 0.40678 0.78682 0.0
C284 C 0.2832 0.41368 0.59558 0.0
C285 C 0.30531 0.4106 0.54831 0.0
N286 N 0.33931 0.39558 0.57571 0.0
N287 N 0.25116 0.40284 0.75308 0.0
C288 C 0.32197 0.40418 0.62071 0.0
C289 C 0.27651 0.40772 0.71238 0.0
N290 N 0.34212 0.41052 0.80739 0.0
N291 N 0.26988 0.42425 0.53171 0.0
H292 H 0.2452 0.39748 0.83737 0.0
H293 H 0.23504 0.40104 0.70075 0.0
H294 H 0.2754 0.43073 0.44811 0.0
H295 H 0.25545 0.42937 0.56538 0.0
H296 H 0.36092 0.41306 0.77495 0.0
H297 H 0.34302 0.41458 0.89375 0.0
H298 H 0.35027 0.3885 0.62514 0.0
H299 H 0.33997 0.39235 0.4891 0.0
C300 C 0.87908 0.33468 0.82596 0.0
C301 C 0.85567 0.32201 0.75144 0.0
C302 C 0.82329 0.30409 0.91241 0.0
C303 C 0.84656 0.31755 0.98763 0.0
N304 N 0.89682 0.34084 0.01825 0.0
N305 N 0.8066 0.28821 0.72174 0.0
C306 C 0.87458 0.33103 0.94501 0.0
C307 C 0.82815 0.30441 0.79416 0.0
N308 N 0.90554 0.351 0.78233 0.0
N309 N 0.79646 0.29222 0.95356 0.0
H310 H 0.80918 0.28845 0.63441 0.0
H311 H 0.78678 0.2726 0.74868 0.0
H312 H 0.79204 0.29094 0.03966 0.0
H313 H 0.77871 0.28531 0.90265 0.0
H314 H 0.92324 0.36392 0.83071 0.0
H315 H 0.90966 0.35236 0.69564 0.0
H316 H 0.91758 0.34851 0.99308 0.0
H317 H 0.8945 0.33959 0.1058 0.0
C318 C 0.57163 0.9008 0.11467 0.0
C319 C 0.55409 0.87413 0.16553 0.0
C320 C 0.53933 0.85261 0.97837 0.0
C321 C 0.55754 0.87903 0.92756 0.0
N322 N 0.59783 0.92543 0.9469 0.0
N323 N 0.52945 0.82361 0.14537 0.0
C324 C 0.57605 0.90221 0.99584 0.0
C325 C 0.54073 0.84964 0.09695 0.0
N326 N 0.58238 0.92491 0.17738 0.0
N327 N 0.51938 0.83092 0.91537 0.0
H328 H 0.53148 0.82106 0.23169 0.0
H329 H 0.52124 0.80506 0.09842 0.0
H330 H 0.51669 0.83282 0.82921 0.0
H331 H 0.50383 0.81209 0.95075 0.0
H332 H 0.59302 0.94497 0.1416 0.0
H333 H 0.57839 0.92492 0.26348 0.0
H334 H 0.61319 0.94231 0.99337 0.0
H335 H 0.6022 0.92603 0.86066 0.0
C336 C 0.69105 0.59577 0.14515 0.0
C337 C 0.67067 0.57066 0.08888 0.0
C338 C 0.65377 0.54865 0.27231 0.0
C339 C 0.67694 0.57086 0.32825 0.0
N340 N 0.71993 0.61556 0.31432 0.0
N341 N 0.64177 0.52001 0.10703 0.0
C342 C 0.69638 0.59461 0.26379 0.0
C343 C 0.65468 0.54612 0.15484 0.0
N344 N 0.70442 0.62071 0.08796 0.0
N345 N 0.63021 0.53054 0.33065 0.0
H346 H 0.6462 0.51702 0.02437 0.0
H347 H 0.63083 0.50159 0.15472 0.0
H348 H 0.62748 0.53483 0.41407 0.0
H349 H 0.61235 0.5145 0.29096 0.0
H350 H 0.71761 0.6399 0.12749 0.0
H351 H 0.70023 0.62262 1.00348 0.0
H352 H 0.73613 0.63205 0.26926 0.0
H353 H 0.72405 0.6152 0.40029 0.0
C354 C 0.11543 0.6436 0.47723 0.0
C355 C 0.13016 0.67086 0.52378 0.0
C356 C 0.13204 0.69001 0.334 0.0
C357 C 0.1232 0.6629 0.28507 0.0
N358 N 0.11577 0.61581 0.32309 0.0
N359 N 0.15477 0.72099 0.49499 0.0
C360 C 0.1172 0.64009 0.36009 0.0
C361 C 0.1392 0.69448 0.4518 0.0
N362 N 0.10029 0.62079 0.54525 0.0
N363 N 0.13219 0.71098 0.2713 0.0
H364 H 0.15939 0.72464 0.58113 0.0
H365 H 0.16446 0.73893 0.44424 0.0
H366 H 0.12425 0.70796 0.18934 0.0
H367 H 0.13669 0.73028 0.30592 0.0
H368 H 0.08737 0.60071 0.51208 0.0
H369 H 0.09809 0.62264 0.63207 0.0
H370 H 0.11326 0.59981 0.37805 0.0
H371 H 0.12172 0.61339 0.24255 0.0
C372 C 0.91149 0.5915 0.24899 0.0
C373 C 0.88425 0.58232 0.20416 0.0
C374 C 0.8657 0.57847 0.39644 0.0
C375 C 0.89145 0.58225 0.44033 0.0
N376 N 0.93941 0.59339 0.41173 0.0
N377 N 0.83557 0.56857 0.23205 0.0
C378 C 0.91465 0.58947 0.36753 0.0
C379 C 0.86148 0.57667 0.27721 0.0
N380 N 0.93421 0.60196 0.17825 0.0
N381 N 0.84528 0.57632 0.46875 0.0
H382 H 0.8323 0.5688 0.14518 0.0
H383 H 0.81717 0.56065 0.27947 0.0
H384 H 0.84763 0.57723 0.55636 0.0
H385 H 0.82699 0.57595 0.44263 0.0
H386 H 0.95496 0.61121 0.20613 0.0
H387 H 0.9326 0.60384 0.0913 0.0
H388 H 0.95597 0.59508 0.36293 0.0
H389 H 0.94294 0.59368 0.49859 0.0
C390 C 0.31319 0.89419 0.61216 0.0
C391 C 0.3056 0.87105 0.68586 0.0
C392 C 0.2919 0.83913 0.5234 0.0
C393 C 0.29997 0.86243 0.44985 0.0
N394 N 0.30849 0.90972 0.42592 0.0
N395 N 0.28115 0.82075 0.71486 0.0
C396 C 0.30722 0.88915 0.49488 0.0
C397 C 0.29251 0.8432 0.64246 0.0
N398 N 0.32731 0.92109 0.65324 0.0
N399 N 0.28469 0.81334 0.47922 0.0
H400 H 0.28187 0.82304 0.80249 0.0
H401 H 0.26895 0.79993 0.68836 0.0
H402 H 0.28257 0.80936 0.39249 0.0
H403 H 0.28209 0.79634 0.52767 0.0
H404 H 0.33625 0.9389 0.60168 0.0
H405 H 0.33198 0.9256 0.73875 0.0
H406 H 0.31141 0.92886 0.4559 0.0
H407 H 0.30339 0.90639 0.34037 0.0
C408 C 0.44905 0.29383 0.7229 0.0
C409 C 0.44768 0.31727 0.76655 0.0
C410 C 0.44215 0.33047 0.57341 0.0
C411 C 0.44899 0.31052 0.53023 0.0
N412 N 0.45724 0.27194 0.55967 0.0
N413 N 0.43915 0.35583 0.73651 0.0
C414 C 0.45146 0.2915 0.60385 0.0
C415 C 0.44279 0.3348 0.69244 0.0
N416 N 0.44796 0.2738 0.7947 0.0
N417 N 0.43505 0.34516 0.49993 0.0
H418 H 0.43677 0.3578 0.82304 0.0
H419 H 0.43901 0.37166 0.68859 0.0
H420 H 0.43426 0.34212 0.41266 0.0
H421 H 0.42782 0.35863 0.52451 0.0
H422 H 0.44551 0.25466 0.76743 0.0
H423 H 0.4471 0.27509 0.88227 0.0
H424 H 0.46311 0.25985 0.608 0.0
H425 H 0.45704 0.26855 0.4728 0.0
C426 C 0.06914 0.40838 0.85328 0.0
C427 C 0.09033 0.41027 0.92772 0.0
C428 C 0.11389 0.40308 0.76417 0.0
C429 C 0.0959 0.40697 0.68949 0.0
N430 N 0.05877 0.41819 0.66587 0.0
N431 N 0.13505 0.41186 0.94993 0.0
C432 C 0.07394 0.41066 0.73457 0.0
C433 C 0.11316 0.40791 0.88237 0.0
N434 N 0.04395 0.40345 0.89577 0.0
N435 N 0.13154 0.39449 0.72198 0.0
H436 H 0.13585 0.41565 0.03633 0.0
H437 H 0.15365 0.41374 0.91846 0.0
H438 H 0.13202 0.39023 0.63624 0.0
H439 H 0.14332 0.38872 0.77293 0.0
H440 H 0.02688 0.39962 0.84478 0.0
H441 H 0.03912 0.39953 0.98143 0.0
H442 H 0.04465 0.42402 0.69704 0.0
H443 H 0.06213 0.42127 0.57905 0.0
C444 C 0.65717 0.10001 0.95829 0.0
C445 C 0.67678 0.12692 0.91451 0.0
C446 C 0.6989 0.14116 0.10292 0.0
C447 C 0.67711 0.11525 0.14904 0.0
N448 N 0.64533 0.06619 0.1094 0.0
N449 N 0.71533 0.17394 0.94413 0.0
C450 C 0.65921 0.09351 0.07299 0.0
C451 C 0.69756 0.14766 0.98639 0.0
N452 N 0.63537 0.08112 0.89229 0.0
N453 N 0.72195 0.1585 0.16665 0.0
H454 H 0.7155 0.17899 0.85888 0.0
H455 H 0.72846 0.19122 0.99425 0.0
H456 H 0.72588 0.15297 0.2458 0.0
H457 H 0.73936 0.17656 0.13533 0.0
H458 H 0.61841 0.06268 0.924 0.0
H459 H 0.63299 0.08478 0.80748 0.0
H460 H 0.6341 0.04903 0.0558 0.0
H461 H 0.64818 0.06055 0.19048 0.0
C462 C 0.52716 0.6861 0.15398 0.0
C463 C 0.53125 0.66443 0.20069 0.0
C464 C 0.5316 0.64721 0.0097 0.0
C465 C 0.52827 0.66917 0.96333 0.0
N466 N 0.53192 0.71432 0.9881 0.0
N467 N 0.54791 0.63183 0.16942 0.0
C468 C 0.52913 0.69029 0.03465 0.0
C469 C 0.53687 0.64737 0.12714 0.0
N470 N 0.51957 0.70143 0.2213 0.0
N471 N 0.52844 0.62545 0.94305 0.0
H472 H 0.55373 0.63317 0.25404 0.0
H473 H 0.55451 0.62071 0.11852 0.0
H474 H 0.52438 0.6244 0.85642 0.0
H475 H 0.52776 0.60745 0.97557 0.0
H476 H 0.51352 0.71528 0.18911 0.0
H477 H 0.51695 0.69873 0.30838 0.0
H478 H 0.53491 0.73157 0.03588 0.0
H479 H 0.53457 0.71807 0.90123 0.0
C480 C 0.35279 0.0035 0.94062 0.0
C481 C 0.36624 0.01975 0.03806 0.0
C482 C 0.34836 0.97752 0.15352 0.0
C483 C 0.33747 0.96116 0.05455 0.0
N484 N 0.31877 0.95728 0.86772 0.0
N485 N 0.36436 0.02305 0.24004 0.0
C486 C 0.33597 0.97382 0.95252 0.0
C487 C 0.35951 0.00691 0.14591 0.0
N488 N 0.3573 0.01598 0.837 0.0
N489 N 0.35021 0.96547 0.25171 0.0
H490 H 0.3718 0.04467 0.23402 0.0
H491 H 0.3582 0.01458 0.32092 0.0
H492 H 0.34296 0.94397 0.25825 0.0
H493 H 0.36067 0.97713 0.32331 0.0
H494 H 0.35095 0.00469 0.76149 0.0
H495 H 0.36801 0.03774 0.82661 0.0
H496 H 0.31525 0.9653 0.79351 0.0
H497 H 0.30591 0.93553 0.87774 0.0
C498 C 0.40947 0.38196 0.24062 0.0
C499 C 0.40365 0.36219 0.15296 0.0
C500 C 0.36457 0.3677 0.08601 0.0
C501 C 0.36983 0.38693 0.1761 0.0
N502 N 0.39247 0.40679 0.35513 0.0
N503 N 0.37312 0.33188 1.00607 0.0
C504 C 0.39085 0.39237 0.25833 0.0
C505 C 0.38024 0.35353 0.08042 0.0
N506 N 0.43333 0.39151 0.30459 0.0
N507 N 0.3459 0.36422 1.00225 0.0
H508 H 0.38468 0.32157 0.99828 0.0
H509 H 0.35458 0.32259 0.95898 0.0
H510 H 0.33389 0.37406 1.00269 0.0
H511 H 0.34377 0.35322 0.92767 0.0
H512 H 0.44057 0.40856 0.35979 0.0
H513 H 0.44704 0.38363 0.29721 0.0
H514 H 0.4052 0.40855 0.42363 0.0
H515 H 0.37919 0.4148 0.37196 0.0
C516 C -0.00948 0.37183 0.41021 0.0
C517 C 0.00331 0.38929 0.31405 0.0
C518 C 0.95818 0.38473 0.25921 0.0
C519 C 0.94542 0.36673 0.35308 0.0
N520 N 0.94719 0.33838 0.50472 0.0
N521 N -0.00191 0.40675 0.13305 0.0
C522 C 0.96087 0.35861 0.42398 0.0
C523 C 0.98674 0.39404 0.23425 0.0
N524 N 0.00673 0.36931 0.49202 0.0
N525 N 0.94322 0.39364 0.1959 0.0
H526 H 0.01901 0.41408 0.11138 0.0
H527 H 0.98623 0.40779 0.06641 0.0
H528 H 0.92184 0.38636 0.20846 0.0
H529 H 0.95234 0.40958 0.13557 0.0
H530 H -0.00108 0.35982 0.57015 0.0
H531 H 0.0285 0.37859 0.48629 0.0
H532 H 0.95678 0.32937 0.55127 0.0
H533 H 0.92554 0.32885 0.51868 0.0
C534 C 0.6269 0.98383 0.47371 0.0
C535 C 0.6112 0.97199 0.5742 0.0
C536 C 0.63444 0.01852 0.66309 0.0
C537 C 0.64354 0.03045 0.55532 0.0
N538 N 0.65355 0.02632 0.36123 0.0
N539 N 0.60196 0.97736 0.77001 0.0
C540 C 0.64193 0.01363 0.46195 0.0
C541 C 0.61608 0.98909 0.67165 0.0
N542 N 0.62686 0.96674 0.38962 0.0
N543 N 0.64306 0.03563 0.75586 0.0
H544 H 0.58877 0.95572 0.77994 0.0
H545 H 0.60219 0.98906 0.83977 0.0
H546 H 0.65711 0.05724 0.74868 0.0
H547 H 0.63881 0.02825 0.83877 0.0
H548 H 0.6392 0.97412 0.3171 0.0
H549 H 0.6163 0.94488 0.39675 0.0
H550 H 0.65043 0.01555 0.28529 0.0
H551 H 0.66609 0.04818 0.35429 0.0
C552 C 0.60451 0.59953 0.55279 0.0
C553 C 0.61372 0.60213 0.66612 0.0
C554 C 0.58924 0.6275 0.71617 0.0
C555 C 0.57655 0.62124 0.60672 0.0
N556 N 0.57173 0.60104 0.42039 0.0
N557 N 0.61494 0.6173 0.85787 0.0
C558 C 0.58424 0.60734 0.52457 0.0
C559 C 0.60652 0.61619 0.74808 0.0
N560 N 0.61543 0.58974 0.47234 0.0
N561 N 0.58457 0.64386 0.79034 0.0
H562 H 0.62863 0.61029 0.88288 0.0
H563 H 0.60727 0.62368 0.92534 0.0
H564 H 0.57063 0.65111 0.77524 0.0
H565 H 0.59587 0.65188 0.86502 0.0
H566 H 0.61176 0.58975 0.38596 0.0
H567 H 0.63031 0.5838 0.49112 0.0
H568 H 0.57359 0.58779 0.36238 0.0
H569 H 0.55814 0.6079 0.3934 0.0
C570 C 0.02824 0.63173 0.7768 0.0
C571 C 0.03598 0.625 0.88183 0.0
C572 C 0.98688 0.59937 0.94212 0.0
C573 C 0.97915 0.60665 0.83848 0.0
N574 N -0.008 0.63414 0.66756 0.0
N575 N 0.02427 0.60921 0.07496 0.0
C576 C -0.00024 0.62441 0.75922 0.0
C577 C 0.01577 0.61098 0.968 0.0
N578 N 0.0477 0.64368 0.69214 0.0
N579 N 0.96663 0.58025 0.0131 0.0
H580 H 0.04542 0.6178 0.09708 0.0
H581 H 0.01064 0.60171 0.14394 0.0
H582 H 0.94512 0.57146 0.99775 0.0
H583 H 0.97109 0.57162 0.08313 0.0
H584 H 0.04265 0.6462 0.60971 0.0
H585 H 0.06877 0.64932 0.70204 0.0
H586 H 0.00632 0.64915 0.61162 0.0
H587 H 0.97117 0.62897 0.65319 0.0
C588 C 0.50678 0.07593 0.70614 0.0
C589 C 0.50091 0.06535 0.81639 0.0
C590 C 0.54197 0.05866 0.80335 0.0
C591 C 0.55147 0.07722 0.70896 0.0
N592 N 0.54651 0.11406 0.61874 0.0
N593 N 0.51208 0.04404 0.97122 0.0
C594 C 0.53475 0.08847 0.67036 0.0
C595 C 0.51786 0.05518 0.865 0.0
N596 N 0.48724 0.07886 0.64604 0.0
N597 N 0.55641 0.04562 0.83613 0.0
H598 H 0.4941 0.04047 0.01511 0.0
H599 H 0.52544 0.03915 0.01596 0.0
H600 H 0.57426 0.04853 0.79279 0.0
H601 H 0.54948 0.03056 0.90018 0.0
H602 H 0.49118 0.08679 0.56394 0.0
H603 H 0.46672 0.07091 0.67609 0.0
H604 H 0.53496 0.12408 0.60211 0.0
H605 H 0.56797 0.12613 0.60251 0.0
C606 C 0.38979 0.52101 0.83523 0.0
C607 C 0.3979 0.50822 0.9213 0.0
C608 C 0.4473 0.53855 0.86454 0.0
C609 C 0.43821 0.54901 0.77451 0.0
N610 N 0.40052 0.54115 0.64861 0.0
N611 N 0.43429 0.49963 0.99384 0.0
C612 C 0.40932 0.53686 0.75075 0.0
C613 C 0.42671 0.51539 0.92922 0.0
N614 N 0.36469 0.52067 0.83857 0.0
N615 N 0.47531 0.55086 0.8891 0.0
H616 H 0.41964 0.48127 0.03508 0.0
H617 H 0.45472 0.50295 0.99553 0.0
H618 H 0.49068 0.567 0.83951 0.0
H619 H 0.48292 0.54605 0.96147 0.0
H620 H 0.3595 0.5316 0.78014 0.0
H621 H 0.35099 0.5135 0.90726 0.0
H622 H 0.37934 0.53059 0.62501 0.0
H623 H 0.41461 0.55237 0.58374 0.0
C624 C 0.8949 0.45574 0.97627 0.0
C625 C 0.89886 0.48158 0.02007 0.0
C626 C 0.89621 0.46494 0.21378 0.0
C627 C 0.89097 0.43865 0.16998 0.0
N628 N 0.89377 0.41172 0.01498 0.0
N629 N 0.91185 0.51408 0.1753 0.0
C630 C 0.89342 0.43511 0.05269 0.0
C631 C 0.90272 0.48733 0.13746 0.0
N632 N 0.89022 0.44996 0.86325 0.0
N633 N 0.89266 0.46785 0.32652 0.0
H634 H 0.91633 0.53068 0.12015 0.0
H635 H 0.9174 0.5203 0.25905 0.0
H636 H 0.88788 0.45201 0.38577 0.0
H637 H 0.89264 0.48535 0.36057 0.0
H638 H 0.88344 0.43008 0.82893 0.0
H639 H 0.89148 0.4646 0.8039 0.0
H640 H 0.89789 0.40897 0.93137 0.0
H641 H 0.89254 0.39624 0.06998 0.0
C642 C 0.45028 0.92019 0.42978 0.0
C643 C 0.47306 0.91998 0.37287 0.0
C644 C 0.45335 0.92169 0.18949 0.0
C645 C 0.42947 0.91941 0.24619 0.0
N646 N 0.40941 0.92625 0.41472 0.0
N647 N 0.50115 0.93014 0.20508 0.0
C648 C 0.42965 0.92235 0.36485 0.0
C649 C 0.4763 0.92429 0.25458 0.0
N650 N 0.44687 0.91579 0.54395 0.0
N651 N 0.45311 0.919 0.0745 0.0
H652 H 0.51813 0.93208 0.25238 0.0
H653 H 0.50584 0.93567 0.12029 0.0
H654 H 0.43711 0.91793 0.02352 0.0
H655 H 0.46812 0.91657 0.02993 0.0
H656 H 0.42872 0.91195 0.58695 0.0
H657 H 0.4614 0.91437 0.59593 0.0
H658 H 0.40944 0.93081 0.50027 0.0
H659 H 0.39408 0.92764 0.36722 0.0
C660 C 0.56311 0.44128 0.5085 0.0
C661 C 0.57175 0.46999 0.49261 0.0
C662 C 0.53675 0.45617 0.34081 0.0
C663 C 0.52737 0.42738 0.36683 0.0
N664 N 0.52165 0.39552 0.51769 0.0
N665 N 0.5624 0.50465 0.40922 0.0
C666 C 0.53677 0.42124 0.46751 0.0
C667 C 0.5569 0.47751 0.41457 0.0
N668 N 0.58051 0.43271 0.553 0.0
N669 N 0.52763 0.46335 0.24601 0.0
H670 H 0.5774 0.52053 0.46083 0.0
H671 H 0.55064 0.51079 0.35992 0.0
H672 H 0.51145 0.44873 0.19503 0.0
H673 H 0.53669 0.48404 0.21702 0.0
H674 H 0.57478 0.41145 0.55542 0.0
H675 H 0.60089 0.44656 0.5809 0.0
H676 H 0.52817 0.39049 0.59232 0.0
H677 H 0.50148 0.38078 0.48964 0.0
C678 C 0.07601 0.51639 0.55529 0.0
C679 C 0.09811 0.50987 0.55539 0.0
C680 C 0.11967 0.54153 0.71577 0.0
C681 C 0.10167 0.55253 0.699 0.0
N682 N 0.06115 0.54985 0.609 0.0
N683 N 0.14523 0.5227 0.62289 0.0
C684 C 0.07925 0.53977 0.62047 0.0
C685 C 0.12101 0.52396 0.63278 0.0
N686 N 0.05163 0.49964 0.49756 0.0
N687 N 0.13552 0.54777 0.8117 0.0
H688 H 0.14954 0.51302 0.55642 0.0
H689 H 0.16298 0.53486 0.67267 0.0
H690 H 0.13417 0.55987 0.87658 0.0
H691 H 0.14685 0.53779 0.83245 0.0
H692 H 0.03401 0.50207 0.50164 0.0
H693 H 0.04796 0.48152 0.45447 0.0
H694 H 0.04622 0.54358 0.5447 0.0
H695 H 0.0621 0.56558 0.66171 0.0
C696 C 0.48037 0.22725 0.9545 0.0
C697 C 0.47511 0.20553 0.03257 0.0
C698 C 0.4813 0.23643 0.19198 0.0
C699 C 0.48502 0.25754 0.11391 0.0
N700 N 0.49809 0.27721 0.92699 0.0
N701 N 0.48094 0.19259 0.22173 0.0
C702 C 0.48789 0.2543 0.99677 0.0
C703 C 0.47883 0.21109 0.15046 0.0
N704 N 0.47684 0.22171 0.84107 0.0
N705 N 0.47911 0.24017 0.30496 0.0
H706 H 0.48002 0.17412 0.19341 0.0
H707 H 0.48627 0.1968 0.30692 0.0
H708 H 0.48254 0.25922 0.33837 0.0
H709 H 0.47272 0.22409 0.36445 0.0
H710 H 0.47786 0.23607 0.78102 0.0
H711 H 0.4712 0.20206 0.807 0.0
H712 H 0.50315 0.27683 0.84235 0.0
H713 H 0.50387 0.29733 0.95684 0.0
C714 C 0.19097 0.41216 0.3323 0.0
C715 C 0.18158 0.42735 0.26549 0.0
C716 C 0.218 0.43741 0.12436 0.0
C717 C 0.22894 0.42439 0.19546 0.0
N718 N 0.22222 0.39319 0.35206 0.0
N719 N 0.18749 0.45712 0.10471 0.0
C720 C 0.21426 0.40973 0.29468 0.0
C721 C 0.19536 0.44061 0.16306 0.0
N722 N 0.17908 0.40209 0.4361 0.0
N723 N 0.22825 0.44516 0.01683 0.0
H724 H 0.17001 0.45893 0.12593 0.0
H725 H 0.19918 0.47039 0.0386 0.0
H726 H 0.24394 0.44179 0.98371 0.0
H727 H 0.21924 0.45201 0.95625 0.0
H728 H 0.18712 0.39405 0.49583 0.0
H729 H 0.1622 0.40374 0.46727 0.0
H730 H 0.21039 0.37931 0.41629 0.0
H731 H 0.23977 0.39162 0.3312 0.0
C732 C 0.72126 0.21896 0.36827 0.0
C733 C 0.71516 0.21618 0.48547 0.0
C734 C 0.74872 0.26619 0.51349 0.0
C735 C 0.75868 0.26726 0.40199 0.0
N736 N 0.75554 0.24488 0.22286 0.0
N737 N 0.7222 0.23652 0.67177 0.0
C738 C 0.745 0.24383 0.32851 0.0
C739 C 0.72828 0.23975 0.55873 0.0
N740 N 0.70409 0.19801 0.29514 0.0
N741 N 0.75903 0.2904 0.57558 0.0
H742 H 0.70707 0.21742 0.70708 0.0
H743 H 0.73317 0.25223 0.73154 0.0
H744 H 0.77423 0.30999 0.54414 0.0
H745 H 0.75102 0.29149 0.65407 0.0
H746 H 0.70581 0.20021 0.2075 0.0
H747 H 0.68634 0.17946 0.32181 0.0
H748 H 0.74838 0.22738 0.17018 0.0
H749 H 0.77279 0.263 0.19093 0.0
C750 C 0.4943 0.76206 0.45687 0.0
C751 C 0.50872 0.78269 0.54268 0.0
C752 C 0.50491 0.74597 0.67094 0.0
C753 C 0.49476 0.7266 0.5807 0.0
N754 N 0.47833 0.71444 0.38954 0.0
N755 N 0.53079 0.7946 0.72791 0.0
C756 C 0.48873 0.73405 0.47424 0.0
C757 C 0.51487 0.77476 0.64884 0.0
N758 N 0.48631 0.76929 0.35865 0.0
N759 N 0.50429 0.73656 0.77851 0.0
H760 H 0.53847 0.81602 0.71734 0.0
H761 H 0.53845 0.79005 0.80075 0.0
H762 H 0.4961 0.71524 0.7969 0.0
H763 H 0.5088 0.7492 0.85008 0.0
H764 H 0.47313 0.75477 0.29868 0.0
H765 H 0.49176 0.78988 0.33835 0.0
H766 H 0.47622 0.71896 0.30586 0.0
H767 H 0.47258 0.6934 0.40271 0.0
C768 C 0.78465 0.54594 0.69438 0.0
C769 C 0.79853 0.5595 0.79601 0.0
C770 C 0.76024 0.56794 0.84558 0.0
C771 C 0.74727 0.55609 0.74021 0.0
N772 N 0.75 0.53973 0.55357 0.0
N773 N 0.80283 0.58789 0.95859 0.0
C774 C 0.76031 0.54679 0.66129 0.0
C775 C 0.78742 0.57206 0.8684 0.0
N776 N 0.79428 0.53162 0.63109 0.0
N777 N 0.746 0.57378 0.92606 0.0
H778 H 0.82272 0.59096 0.97824 0.0
H779 H 0.79702 0.59987 0.00797 0.0
H780 H 0.72571 0.57035 0.91365 0.0
H781 H 0.75319 0.57964 0.00863 0.0
H782 H 0.78313 0.51864 0.56337 0.0
H783 H 0.81257 0.53112 0.6508 0.0
H784 H 0.7604 0.53564 0.48911 0.0
H785 H 0.73243 0.54061 0.52544 0.0
C786 C 0.24514 0.74067 0.88536 0.0
C787 C 0.22149 0.7233 0.95337 0.0
C788 C 0.2402 0.75698 0.10911 0.0
C789 C 0.26361 0.77468 0.04062 0.0
N790 N 0.2927 0.78057 0.87823 0.0
N791 N 0.20083 0.7099 0.13897 0.0
C792 C 0.26757 0.76551 0.93347 0.0
C793 C 0.22049 0.72985 0.06863 0.0
N794 N 0.24546 0.73423 0.77389 0.0
N795 N 0.23624 0.7665 0.21042 0.0
H796 H 0.18691 0.68941 0.11174 0.0
H797 H 0.20029 0.71265 0.22594 0.0
H798 H 0.25059 0.78625 0.24305 0.0
H799 H 0.21791 0.75566 0.25822 0.0
H800 H 0.26062 0.74781 0.7166 0.0
H801 H 0.22955 0.71579 0.73713 0.0
H802 H 0.29775 0.77366 0.80457 0.0
H803 H 0.30941 0.79906 0.91114 0.0
C804 C 0.53693 0.13607 0.30175 0.0
C805 C 0.54358 0.14819 0.1939 0.0
C806 C 0.59297 0.16256 0.23172 0.0
C807 C 0.58367 0.1434 0.32404 0.0
N808 N 0.54313 0.10167 0.39845 0.0
N809 N 0.57924 0.17423 0.05286 0.0
C810 C 0.55465 0.12742 0.34806 0.0
C811 C 0.5722 0.16248 0.15794 0.0
N812 N 0.51216 0.12969 0.35246 0.0
N813 N 0.62107 0.17963 0.21245 0.0
H814 H 0.56466 0.17505 0.99885 0.0
H815 H 0.59926 0.18213 0.0182 0.0
H816 H 0.63633 0.17925 0.2641 0.0
H817 H 0.629 0.19534 0.15086 0.0
H818 H 0.50694 0.12074 0.43276 0.0
H819 H 0.49887 0.13631 0.31822 0.0
H820 H 0.52135 0.08851 0.40518 0.0
H821 H 0.55505 0.09273 0.42447 0.0
C822 C 0.359 0.54652 0.39955 0.0
C823 C 0.36414 0.54031 0.28845 0.0
C824 C 0.40737 0.58649 0.27941 0.0
C825 C 0.40553 0.58923 0.39712 0.0
N826 N 0.37491 0.57942 0.55768 0.0
N827 N 0.3919 0.55599 0.11617 0.0
C828 C 0.37964 0.57179 0.45359 0.0
C829 C 0.38738 0.56121 0.22485 0.0
N830 N 0.33493 0.52746 0.45414 0.0
N831 N 0.42871 0.60825 0.22123 0.0
H832 H 0.37734 0.53878 0.06978 0.0
H833 H 0.41055 0.56834 0.07205 0.0
H834 H 0.44325 0.62687 0.26179 0.0
H835 H 0.43043 0.60911 0.13344 0.0
H836 H 0.33076 0.52865 0.53912 0.0
H837 H 0.31892 0.50983 0.4131 0.0
H838 H 0.35631 0.56816 0.60311 0.0
H839 H 0.38869 0.59871 0.59489 0.0
C840 C 0.80861 0.40386 0.65864 0.0
C841 C 0.8117 0.40566 0.53987 0.0
C842 C 0.81468 0.4517 0.54233 0.0
C843 C 0.81877 0.4527 0.66057 0.0
N844 N 0.81763 0.42933 0.83535 0.0
N845 N 0.8154 0.42997 0.36484 0.0
C846 C 0.81418 0.4283 0.7206 0.0
C847 C 0.81309 0.42879 0.48008 0.0
N848 N 0.80135 0.37895 0.71124 0.0
N849 N 0.81337 0.47325 0.49035 0.0
H850 H 0.81343 0.41322 0.31626 0.0
H851 H 0.82033 0.44787 0.31752 0.0
H852 H 0.81473 0.49019 0.53607 0.0
H853 H 0.80846 0.47313 0.4052 0.0
H854 H 0.79677 0.37536 0.79716 0.0
H855 H 0.79742 0.36102 0.66564 0.0
H856 H 0.81838 0.41363 0.88205 0.0
H857 H 0.82088 0.44655 0.884 0.0
C858 C 0.3889 0.83679 0.76539 0.0
C859 C 0.39337 0.83875 0.88359 0.0
C860 C 0.43646 0.83686 0.85706 0.0
C861 C 0.43544 0.842 0.74033 0.0
N862 N 0.41062 0.84718 0.58077 0.0
N863 N 0.42107 0.84027 0.04515 0.0
C864 C 0.41126 0.84121 0.69271 0.0
C865 C 0.41665 0.83786 0.93089 0.0
N866 N 0.36356 0.83173 0.72349 0.0
N867 N 0.4567 0.83153 0.89659 0.0
H868 H 0.40677 0.84056 0.10237 0.0
H869 H 0.43963 0.84352 0.08279 0.0
H870 H 0.47107 0.83033 0.84238 0.0
H871 H 0.45741 0.82554 0.97962 0.0
H872 H 0.35803 0.82771 0.6384 0.0
H873 H 0.34709 0.82891 0.77626 0.0
H874 H 0.39511 0.8505 0.54561 0.0
H875 H 0.42653 0.85084 0.52365 0.0
C876 C 0.61938 0.44066 0.98736 0.0
C877 C 0.61038 0.44716 0.88476 0.0
C878 C 0.57184 0.39902 0.87556 0.0
C879 C 0.57524 0.39504 0.98972 0.0
N880 N 0.60393 0.41149 0.15725 0.0
N881 N 0.56885 0.43456 0.77307 0.0
C882 C 0.60004 0.41539 0.04633 0.0
C883 C 0.58442 0.4268 0.83702 0.0
N884 N 0.64536 0.45892 0.03005 0.0
N885 N 0.55251 0.3772 0.81188 0.0
H886 H 0.57554 0.45542 0.75302 0.0
H887 H 0.54802 0.42025 0.75107 0.0
H888 H 0.54161 0.35665 0.84363 0.0
H889 H 0.5498 0.37968 0.72629 0.0
H890 H 0.65363 0.45448 0.10128 0.0
H891 H 0.65927 0.47762 0.98854 0.0
H892 H 0.61992 0.42692 0.20687 0.0
H893 H 0.59032 0.39284 0.19966 0.0
C894 C 0.16095 0.56257 0.25701 0.0
C895 C 0.16307 0.54156 0.19324 0.0
C896 C 0.18099 0.57399 0.03146 0.0
C897 C 0.17192 0.59103 0.08648 0.0
N898 N 0.16984 0.61069 0.26359 0.0
N899 N 0.17994 0.52909 0.02762 0.0
C900 C 0.16753 0.58832 0.20392 0.0
C901 C 0.17518 0.54814 0.08331 0.0
N902 N 0.15011 0.55714 0.36381 0.0
N903 N 0.19599 0.58305 0.93322 0.0
H904 H 0.17763 0.51101 0.06708 0.0
H905 H 0.18547 0.53071 0.94262 0.0
H906 H 0.2032 0.60323 0.90138 0.0
H907 H 0.20429 0.57222 0.89086 0.0
H908 H 0.14419 0.56994 0.4068 0.0
H909 H 0.14579 0.5392 0.40833 0.0
H910 H 0.16942 0.61136 0.3516 0.0
H911 H 0.17511 0.62973 0.22375 0.0
loop_
_geom_bond_atom_site_label_1
_geom_bond_atom_site_label_2
_geom_bond_distance
_geom_bond_site_symmetry_2
_ccdc_geom_bond_type
Sc0 O3 2.025 . S
Sc0 O10 2.105 . S
Sc0 O13 2.105 . S
Sc0 O16 2.105 . S
Sc0 O19 2.105 1_554 S
Sc1 O3 2.025 1_556 S
Sc1 O11 2.105 . S
Sc1 O15 2.105 1_556 S
Sc1 O17 2.105 1_556 S
Sc1 O21 2.105 . S
Sc2 O3 2.025 . S
Sc2 O12 2.105 1_554 S
Sc2 O14 2.105 . S
Sc2 O18 2.105 . S
Sc2 O20 2.105 1_554 S
O3 Sc0 2.025 . S
O3 Sc1 2.025 1_554 S
O3 Sc2 2.025 . S
C4 O10 1.268 1_556 S
C4 O20 1.268 . S
C5 O11 1.268 . S
C5 O19 1.268 . S
C6 O12 1.268 . S
C6 O21 1.268 . S
C7 O13 1.268 . S
C7 O17 1.268 . S
C8 O14 1.268 . S
C8 O16 1.268 . S
C9 O15 1.268 . S
C9 O18 1.268 . S
O10 Sc0 2.105 . S
O10 C4 1.268 1_554 S
O11 Sc1 2.105 . S
O11 C5 1.268 . S
O12 Sc2 2.105 1_556 S
O12 C6 1.268 . S
O13 Sc0 2.105 . S
O13 C7 1.268 . S
O14 Sc2 2.105 . S
O14 C8 1.268 . S
O15 Sc1 2.105 1_554 S
O15 C9 1.268 . S
O16 Sc0 2.105 . S
O16 C8 1.268 . S
O17 Sc1 2.105 1_554 S
O17 C7 1.268 . S
O18 Sc2 2.105 . S
O18 C9 1.268 . S
O19 Sc0 2.105 1_556 S
O19 C5 1.268 . S
O20 Sc2 2.105 1_556 S
O20 C4 1.268 . S
O21 Sc1 2.105 . S
O21 C6 1.268 . S
Sc22 O25 2.025 . S
Sc22 O32 2.105 . S
Sc22 O35 2.105 . S
Sc22 O38 2.105 . S
Sc22 O41 2.105 . S
Sc23 O25 2.025 . S
Sc23 O33 2.105 . S
Sc23 O37 2.105 . S
Sc23 O39 2.105 . S
Sc23 O43 2.105 1_554 S
Sc24 O25 2.025 . S
Sc24 O34 2.105 . S
Sc24 O36 2.105 . S
Sc24 O40 2.105 . S
Sc24 O42 2.105 . S
O25 Sc22 2.025 . S
O25 Sc23 2.025 . S
O25 Sc24 2.025 . S
C26 O32 1.268 . S
C26 O42 1.268 . S
C27 O33 1.268 . S
C27 O41 1.268 . S
C28 O34 1.268 1_556 S
C28 O43 1.268 . S
C29 O35 1.268 . S
C29 O39 1.268 . S
C30 O36 1.268 . S
C30 O38 1.268 . S
C31 O37 1.268 . S
C31 O40 1.268 . S
O32 Sc22 2.105 . S
O32 C26 1.268 . S
O33 Sc23 2.105 . S
O33 C27 1.268 . S
O34 Sc24 2.105 . S
O34 C28 1.268 1_554 S
O35 Sc22 2.105 . S
O35 C29 1.268 . S
O36 Sc24 2.105 . S
O36 C30 1.268 . S
O37 Sc23 2.105 . S
O37 C31 1.268 . S
O38 Sc22 2.105 . S
O38 C30 1.268 . S
O39 Sc23 2.105 . S
O39 C29 1.268 . S
O40 Sc24 2.105 . S
O40 C31 1.268 . S
O41 Sc22 2.105 . S
O41 C27 1.268 . S
O42 Sc24 2.105 . S
O42 C26 1.268 . S
O43 Sc23 2.105 1_556 S
O43 C28 1.268 . S
Sc44 O47 2.025 . S
Sc44 O54 2.105 . S
Sc44 O57 2.105 . S
Sc44 O60 2.105 . S
Sc44 O63 2.105 . S
Sc45 O47 2.025 . S
Sc45 O55 2.105 . S
Sc45 O59 2.105 . S
Sc45 O61 2.105 . S
Sc45 O65 2.105 . S
Sc46 O47 2.025 . S
Sc46 O56 2.105 . S
Sc46 O58 2.105 . S
Sc46 O62 2.105 . S
Sc46 O64 2.105 . S
O47 Sc44 2.025 . S
O47 Sc45 2.025 . S
O47 Sc46 2.025 . S
C48 O54 1.268 . S
C48 O64 1.268 . S
C49 O55 1.268 . S
C49 O63 1.268 . S
C50 O56 1.268 . S
C50 O65 1.268 . S
C51 O57 1.268 . S
C51 O61 1.268 . S
C52 O58 1.268 . S
C52 O60 1.268 . S
C53 O59 1.268 . S
C53 O62 1.268 . S
O54 Sc44 2.105 . S
O54 C48 1.268 . S
O55 Sc45 2.105 . S
O55 C49 1.268 . S
O56 Sc46 2.105 . S
O56 C50 1.268 . S
O57 Sc44 2.105 . S
O57 C51 1.268 . S
O58 Sc46 2.105 . S
O58 C52 1.268 . S
O59 Sc45 2.105 . S
O59 C53 1.268 . S
O60 Sc44 2.105 . S
O60 C52 1.268 . S
O61 Sc45 2.105 . S
O61 C51 1.268 . S
O62 Sc46 2.105 . S
O62 C53 1.268 . S
O63 Sc44 2.105 . S
O63 C49 1.268 . S
O64 Sc46 2.105 . S
O64 C48 1.268 . S
O65 Sc45 2.105 . S
O65 C50 1.268 . S
Sc66 O69 2.025 . S
Sc66 O76 2.105 . S
Sc66 O79 2.105 . S
Sc66 O82 2.105 . S
Sc66 O85 2.105 . S
Sc67 O69 2.025 . S
Sc67 O77 2.105 . S
Sc67 O81 2.105 . S
Sc67 O83 2.105 . S
Sc67 O87 2.105 . S
Sc68 O69 2.025 . S
Sc68 O78 2.105 . S
Sc68 O80 2.105 . S
Sc68 O84 2.105 . S
Sc68 O86 2.105 . S
O69 Sc66 2.025 . S
O69 Sc67 2.025 . S
O69 Sc68 2.025 . S
C70 O76 1.268 . S
C70 O86 1.268 . S
C71 O77 1.268 . S
C71 O85 1.268 . S
C72 O78 1.268 . S
C72 O87 1.268 . S
C73 O79 1.268 . S
C73 O83 1.268 . S
C74 O80 1.268 . S
C74 O82 1.268 . S
C75 O81 1.268 . S
C75 O84 1.268 . S
O76 Sc66 2.105 . S
O76 C70 1.268 . S
O77 Sc67 2.105 . S
O77 C71 1.268 . S
O78 Sc68 2.105 . S
O78 C72 1.268 . S
O79 Sc66 2.105 . S
O79 C73 1.268 . S
O80 Sc68 2.105 . S
O80 C74 1.268 . S
O81 Sc67 2.105 . S
O81 C75 1.268 . S
O82 Sc66 2.105 . S
O82 C74 1.268 . S
O83 Sc67 2.105 . S
O83 C73 1.268 . S
O84 Sc68 2.105 . S
O84 C75 1.268 . S
O85 Sc66 2.105 . S
O85 C71 1.268 . S
O86 Sc68 2.105 . S
O86 C70 1.268 . S
O87 Sc67 2.105 . S
O87 C72 1.268 . S
Sc88 O91 2.025 . S
Sc88 O98 2.105 . S
Sc88 O101 2.105 . S
Sc88 O104 2.105 . S
Sc88 O107 2.105 . S
Sc89 O91 2.025 . S
Sc89 O99 2.105 . S
Sc89 O103 2.105 . S
Sc89 O105 2.105 . S
Sc89 O109 2.105 . S
Sc90 O91 2.025 . S
Sc90 O100 2.105 . S
Sc90 O102 2.105 . S
Sc90 O106 2.105 . S
Sc90 O108 2.105 . S
O91 Sc88 2.025 . S
O91 Sc89 2.025 . S
O91 Sc90 2.025 . S
C92 O98 1.268 . S
C92 O108 1.268 . S
C93 O99 1.268 . S
C93 O107 1.268 . S
C94 O100 1.268 . S
C94 O109 1.268 . S
C95 O101 1.268 . S
C95 O105 1.268 . S
C96 O102 1.268 . S
C96 O104 1.268 . S
C97 O103 1.268 . S
C97 O106 1.268 . S
O98 Sc88 2.105 . S
O98 C92 1.268 . S
O99 Sc89 2.105 . S
O99 C93 1.268 . S
O100 Sc90 2.105 . S
O100 C94 1.268 . S
O101 Sc88 2.105 . S
O101 C95 1.268 . S
O102 Sc90 2.105 . S
O102 C96 1.268 . S
O103 Sc89 2.105 . S
O103 C97 1.268 . S
O104 Sc88 2.105 . S
O104 C96 1.268 . S
O105 Sc89 2.105 . S
O105 C95 1.268 . S
O106 Sc90 2.105 . S
O106 C97 1.268 . S
O107 Sc88 2.105 . S
O107 C93 1.268 . S
O108 Sc90 2.105 . S
O108 C92 1.268 . S
O109 Sc89 2.105 . S
O109 C94 1.268 . S
Sc110 O113 2.025 . S
Sc110 O120 2.105 . S
Sc110 O123 2.105 1_556 S
Sc110 O126 2.105 1_556 S
Sc110 O129 2.105 . S
Sc111 O113 2.025 . S
Sc111 O121 2.105 . S
Sc111 O125 2.105 . S
Sc111 O127 2.105 . S
Sc111 O131 2.105 . S
Sc112 O113 2.025 . S
Sc112 O122 2.105 . S
Sc112 O124 2.105 1_556 S
Sc112 O128 2.105 . S
Sc112 O130 2.105 . S
O113 Sc110 2.025 . S
O113 Sc111 2.025 . S
O113 Sc112 2.025 . S
C114 O120 1.268 . S
C114 O130 1.268 . S
C115 O121 1.268 . S
C115 O129 1.268 . S
C116 O122 1.268 . S
C116 O131 1.268 . S
C117 O123 1.268 1_556 S
C117 O127 1.268 . S
C118 O124 1.268 . S
C118 O126 1.268 . S
C119 O125 1.268 . S
C119 O128 1.268 . S
O120 Sc110 2.105 . S
O120 C114 1.268 . S
O121 Sc111 2.105 . S
O121 C115 1.268 . S
O122 Sc112 2.105 . S
O122 C116 1.268 . S
O123 Sc110 2.105 1_554 S
O123 C117 1.268 1_554 S
O124 Sc112 2.105 1_554 S
O124 C118 1.268 . S
O125 Sc111 2.105 . S
O125 C119 1.268 . S
O126 Sc110 2.105 1_554 S
O126 C118 1.268 . S
O127 Sc111 2.105 . S
O127 C117 1.268 . S
O128 Sc112 2.105 . S
O128 C119 1.268 . S
O129 Sc110 2.105 . S
O129 C115 1.268 . S
O130 Sc112 2.105 . S
O130 C114 1.268 . S
O131 Sc111 2.105 . S
O131 C116 1.268 . S
Sc132 O135 2.025 . S
Sc132 O142 2.105 . S
Sc132 O145 2.105 . S
Sc132 O148 2.105 . S
Sc132 O151 2.105 . S
Sc133 O135 2.025 . S
Sc133 O143 2.105 . S
Sc133 O147 2.105 . S
Sc133 O149 2.105 1_556 S
Sc133 O153 2.105 . S
Sc134 O135 2.025 . S
Sc134 O144 2.105 . S
Sc134 O146 2.105 . S
Sc134 O150 2.105 . S
Sc134 O152 2.105 . S
O135 Sc132 2.025 . S
O135 Sc133 2.025 . S
O135 Sc134 2.025 . S
C136 O142 1.268 . S
C136 O152 1.268 . S
C137 O143 1.268 . S
C137 O151 1.268 . S
C138 O144 1.268 . S
C138 O153 1.268 . S
C139 O145 1.268 1_554 S
C139 O149 1.268 . S
C140 O146 1.268 . S
C140 O148 1.268 . S
C141 O147 1.268 . S
C141 O150 1.268 . S
O142 Sc132 2.105 . S
O142 C136 1.268 . S
O143 Sc133 2.105 . S
O143 C137 1.268 . S
O144 Sc134 2.105 . S
O144 C138 1.268 . S
O145 Sc132 2.105 . S
O145 C139 1.268 1_556 S
O146 Sc134 2.105 . S
O146 C140 1.268 . S
O147 Sc133 2.105 . S
O147 C141 1.268 . S
O148 Sc132 2.105 . S
O148 C140 1.268 . S
O149 Sc133 2.105 1_554 S
O149 C139 1.268 . S
O150 Sc134 2.105 . S
O150 C141 1.268 . S
O151 Sc132 2.105 . S
O151 C137 1.268 . S
O152 Sc134 2.105 . S
O152 C136 1.268 . S
O153 Sc133 2.105 . S
O153 C138 1.268 . S
Sc154 O157 2.025 . S
Sc154 O164 2.105 . S
Sc154 O167 2.105 1_556 S
Sc154 O170 2.105 1_556 S
Sc154 O173 2.105 . S
Sc155 O157 2.025 1_554 S
Sc155 O165 2.105 . S
Sc155 O169 2.105 . S
Sc155 O171 2.105 . S
Sc155 O175 2.105 1_554 S
Sc156 O157 2.025 . S
Sc156 O166 2.105 . S
Sc156 O168 2.105 . S
Sc156 O172 2.105 1_556 S
Sc156 O174 2.105 . S
O157 Sc154 2.025 . S
O157 Sc155 2.025 1_556 S
O157 Sc156 2.025 . S
C158 O164 1.268 . S
C158 O174 1.268 . S
C159 O165 1.268 1_556 S
C159 O173 1.268 . S
C160 O166 1.268 . S
C160 O175 1.268 . S
C161 O167 1.268 . S
C161 O171 1.268 . S
C162 O168 1.268 1_554 S
C162 O170 1.268 . S
C163 O169 1.268 . S
C163 O172 1.268 . S
O164 Sc154 2.105 . S
O164 C158 1.268 . S
O165 Sc155 2.105 . S
O165 C159 1.268 1_554 S
O166 Sc156 2.105 . S
O166 C160 1.268 . S
O167 Sc154 2.105 1_554 S
O167 C161 1.268 . S
O168 Sc156 2.105 . S
O168 C162 1.268 1_556 S
O169 Sc155 2.105 . S
O169 C163 1.268 . S
O170 Sc154 2.105 1_554 S
O170 C162 1.268 . S
O171 Sc155 2.105 . S
O171 C161 1.268 . S
O172 Sc156 2.105 1_554 S
O172 C163 1.268 . S
O173 Sc154 2.105 . S
O173 C159 1.268 . S
O174 Sc156 2.105 . S
O174 C158 1.268 . S
O175 Sc155 2.105 1_556 S
O175 C160 1.268 . S
Sc176 O179 2.025 . S
Sc176 O186 2.105 1_554 S
Sc176 O189 2.105 . S
Sc176 O192 2.105 . S
Sc176 O195 2.105 . S
Sc177 O179 2.025 . S
Sc177 O187 2.105 . S
Sc177 O191 2.105 . S
Sc177 O193 2.105 . S
Sc177 O197 2.105 . S
Sc178 O179 2.025 . S
Sc178 O188 2.105 . S
Sc178 O190 2.105 . S
Sc178 O194 2.105 . S
Sc178 O196 2.105 1_554 S
O179 Sc176 2.025 . S
O179 Sc177 2.025 . S
O179 Sc178 2.025 . S
C180 O186 1.268 . S
C180 O196 1.268 . S
C181 O187 1.268 . S
C181 O195 1.268 . S
C182 O188 1.268 . S
C182 O197 1.268 . S
C183 O189 1.268 . S
C183 O193 1.268 . S
C184 O190 1.268 . S
C184 O192 1.268 . S
C185 O191 1.268 . S
C185 O194 1.268 . S
O186 Sc176 2.105 1_556 S
O186 C180 1.268 . S
O187 Sc177 2.105 . S
O187 C181 1.268 . S
O188 Sc178 2.105 . S
O188 C182 1.268 . S
O189 Sc176 2.105 . S
O189 C183 1.268 . S
O190 Sc178 2.105 . S
O190 C184 1.268 . S
O191 Sc177 2.105 . S
O191 C185 1.268 . S
O192 Sc176 2.105 . S
O192 C184 1.268 . S
O193 Sc177 2.105 . S
O193 C183 1.268 . S
O194 Sc178 2.105 . S
O194 C185 1.268 . S
O195 Sc176 2.105 . S
O195 C181 1.268 . S
O196 Sc178 2.105 1_556 S
O196 C180 1.268 . S
O197 Sc177 2.105 . S
O197 C182 1.268 . S
Sc198 O201 2.025 . S
Sc198 O208 2.105 . S
Sc198 O211 2.105 . S
Sc198 O214 2.105 . S
Sc198 O217 2.105 . S
Sc199 O201 2.025 . S
Sc199 O209 2.105 . S
Sc199 O213 2.105 . S
Sc199 O215 2.105 . S
Sc199 O219 2.105 . S
Sc200 O201 2.025 . S
Sc200 O210 2.105 . S
Sc200 O212 2.105 . S
Sc200 O216 2.105 . S
Sc200 O218 2.105 . S
O201 Sc198 2.025 . S
O201 Sc199 2.025 . S
O201 Sc200 2.025 . S
C202 O208 1.268 . S
C202 O218 1.268 . S
C203 O209 1.268 . S
C203 O217 1.268 . S
C204 O210 1.268 . S
C204 O219 1.268 . S
C205 O211 1.268 . S
C205 O215 1.268 . S
C206 O212 1.268 . S
C206 O214 1.268 . S
C207 O213 1.268 . S
C207 O216 1.268 . S
O208 Sc198 2.105 . S
O208 C202 1.268 . S
O209 Sc199 2.105 . S
O209 C203 1.268 . S
O210 Sc200 2.105 . S
O210 C204 1.268 . S
O211 Sc198 2.105 . S
O211 C205 1.268 . S
O212 Sc200 2.105 . S
O212 C206 1.268 . S
O213 Sc199 2.105 . S
O213 C207 1.268 . S
O214 Sc198 2.105 . S
O214 C206 1.268 . S
O215 Sc199 2.105 . S
O215 C205 1.268 . S
O216 Sc200 2.105 . S
O216 C207 1.268 . S
O217 Sc198 2.105 . S
O217 C203 1.268 . S
O218 Sc200 2.105 . S
O218 C202 1.268 . S
O219 Sc199 2.105 . S
O219 C204 1.268 . S
Sc220 O223 2.025 . S
Sc220 O230 2.105 . S
Sc220 O233 2.105 . S
Sc220 O236 2.105 . S
Sc220 O239 2.105 . S
Sc221 O223 2.025 . S
Sc221 O231 2.105 . S
Sc221 O235 2.105 . S
Sc221 O237 2.105 . S
Sc221 O241 2.105 . S
Sc222 O223 2.025 . S
Sc222 O232 2.105 . S
Sc222 O234 2.105 . S
Sc222 O238 2.105 . S
Sc222 O240 2.105 . S
O223 Sc220 2.025 . S
O223 Sc221 2.025 . S
O223 Sc222 2.025 . S
C224 O230 1.268 . S
C224 O240 1.268 . S
C225 O231 1.268 . S
C225 O239 1.268 . S
C226 O232 1.268 . S
C226 O241 1.268 . S
C227 O233 1.268 . S
C227 O237 1.268 . S
C228 O234 1.268 . S
C228 O236 1.268 . S
C229 O235 1.268 . S
C229 O238 1.268 . S
O230 Sc220 2.105 . S
O230 C224 1.268 . S
O231 Sc221 2.105 . S
O231 C225 1.268 . S
O232 Sc222 2.105 . S
O232 C226 1.268 . S
O233 Sc220 2.105 . S
O233 C227 1.268 . S
O234 Sc222 2.105 . S
O234 C228 1.268 . S
O235 Sc221 2.105 . S
O235 C229 1.268 . S
O236 Sc220 2.105 . S
O236 C228 1.268 . S
O237 Sc221 2.105 . S
O237 C227 1.268 . S
O238 Sc222 2.105 . S
O238 C229 1.268 . S
O239 Sc220 2.105 . S
O239 C225 1.268 . S
O240 Sc222 2.105 . S
O240 C224 1.268 . S
O241 Sc221 2.105 . S
O241 C226 1.268 . S
Sc242 O245 2.025 . S
Sc242 O252 2.105 . S
Sc242 O255 2.105 . S
Sc242 O258 2.105 . S
Sc242 O261 2.105 . S
Sc243 O245 2.025 . S
Sc243 O253 2.105 . S
Sc243 O257 2.105 . S
Sc243 O259 2.105 . S
Sc243 O263 2.105 . S
Sc244 O245 2.025 . S
Sc244 O254 2.105 . S
Sc244 O256 2.105 . S
Sc244 O260 2.105 . S
Sc244 O262 2.105 . S
O245 Sc242 2.025 . S
O245 Sc243 2.025 . S
O245 Sc244 2.025 . S
C246 O252 1.268 . S
C246 O262 1.268 . S
C247 O253 1.268 . S
C247 O261 1.268 . S
C248 O254 1.268 . S
C248 O263 1.268 . S
C249 O255 1.268 . S
C249 O259 1.268 . S
C250 O256 1.268 . S
C250 O258 1.268 . S
C251 O257 1.268 . S
C251 O260 1.268 . S
O252 Sc242 2.105 . S
O252 C246 1.268 . S
O253 Sc243 2.105 . S
O253 C247 1.268 . S
O254 Sc244 2.105 . S
O254 C248 1.268 . S
O255 Sc242 2.105 . S
O255 C249 1.268 . S
O256 Sc244 2.105 . S
O256 C250 1.268 . S
O257 Sc243 2.105 . S
O257 C251 1.268 . S
O258 Sc242 2.105 . S
O258 C250 1.268 . S
O259 Sc243 2.105 . S
O259 C249 1.268 . S
O260 Sc244 2.105 . S
O260 C251 1.268 . S
O261 Sc242 2.105 . S
O261 C247 1.268 . S
O262 Sc244 2.105 . S
O262 C246 1.268 . S
O263 Sc243 2.105 . S
O263 C248 1.268 . S
C264 C265 1.363 . S
C264 C270 1.379 . S
C264 N272 1.356 . S
C265 C264 1.363 . S
C265 C271 1.363 . S
C266 C267 1.363 . S
C266 C271 1.379 . S
C266 N273 1.356 . S
C267 C266 1.363 . S
C267 C270 1.363 . S
N268 C270 1.356 . S
N268 H280 0.984 . S
N268 H281 0.985 . S
N269 C271 1.356 . S
N269 H274 0.984 . S
N269 H275 0.985 . S
C270 C264 1.379 . S
C270 C267 1.363 . S
C270 N268 1.356 . S
C271 C265 1.363 . S
C271 C266 1.379 . S
C271 N269 1.356 . S
N272 C264 1.356 . S
N272 H278 0.984 . S
N272 H279 0.984 . S
N273 C266 1.356 . S
N273 H276 0.984 . S
N273 H277 0.985 . S
H274 N269 0.984 . S
H275 N269 0.985 . S
H276 N273 0.984 . S
H277 N273 0.985 . S
H278 N272 0.984 . S
H279 N272 0.984 . S
H280 N268 0.984 . S
H281 N268 0.985 . S
C282 C283 1.363 . S
C282 C288 1.379 . S
C282 N290 1.356 . S
C283 C282 1.363 . S
C283 C289 1.363 . S
C284 C285 1.363 . S
C284 C289 1.379 . S
C284 N291 1.356 . S
C285 C284 1.363 . S
C285 C288 1.363 . S
N286 C288 1.356 . S
N286 H298 0.984 . S
N286 H299 0.985 . S
N287 C289 1.356 . S
N287 H292 0.984 . S
N287 H293 0.985 . S
C288 C282 1.379 . S
C288 C285 1.363 . S
C288 N286 1.356 . S
C289 C283 1.363 . S
C289 C284 1.379 . S
C289 N287 1.356 . S
N290 C282 1.356 . S
N290 H296 0.984 . S
N290 H297 0.984 . S
N291 C284 1.356 . S
N291 H294 0.984 . S
N291 H295 0.985 . S
H292 N287 0.984 . S
H293 N287 0.985 . S
H294 N291 0.984 . S
H295 N291 0.985 . S
H296 N290 0.984 . S
H297 N290 0.984 . S
H298 N286 0.984 . S
H299 N286 0.985 . S
C300 C301 1.363 . S
C300 C306 1.379 . S
C300 N308 1.356 . S
C301 C300 1.363 . S
C301 C307 1.363 . S
C302 C303 1.363 . S
C302 C307 1.379 . S
C302 N309 1.356 . S
C303 C302 1.363 . S
C303 C306 1.363 . S
N304 C306 1.356 1_554 S
N304 H316 0.984 . S
N304 H317 0.985 . S
N305 C307 1.356 . S
N305 H310 0.984 . S
N305 H311 0.985 . S
C306 C300 1.379 . S
C306 C303 1.363 . S
C306 N304 1.356 1_556 S
C307 C301 1.363 . S
C307 C302 1.379 . S
C307 N305 1.356 . S
N308 C300 1.356 . S
N308 H314 0.984 . S
N308 H315 0.984 . S
N309 C302 1.356 . S
N309 H312 0.984 1_556 S
N309 H313 0.985 . S
H310 N305 0.984 . S
H311 N305 0.985 . S
H312 N309 0.984 1_554 S
H313 N309 0.985 . S
H314 N308 0.984 . S
H315 N308 0.984 . S
H316 N304 0.984 . S
H317 N304 0.985 . S
C318 C319 1.363 . S
C318 C324 1.379 1_554 S
C318 N326 1.356 . S
C319 C318 1.363 . S
C319 C325 1.363 . S
C320 C321 1.363 . S
C320 C325 1.379 1_556 S
C320 N327 1.356 . S
C321 C320 1.363 . S
C321 C324 1.363 . S
N322 C324 1.356 . S
N322 H334 0.984 . S
N322 H335 0.985 . S
N323 C325 1.356 . S
N323 H328 0.984 . S
N323 H329 0.985 . S
C324 C318 1.379 1_556 S
C324 C321 1.363 . S
C324 N322 1.356 . S
C325 C319 1.363 . S
C325 C320 1.379 1_554 S
C325 N323 1.356 . S
N326 C318 1.356 . S
N326 H332 0.984 . S
N326 H333 0.984 . S
N327 C320 1.356 . S
N327 H330 0.984 . S
N327 H331 0.985 . S
H328 N323 0.984 . S
H329 N323 0.985 . S
H330 N327 0.984 . S
H331 N327 0.985 . S
H332 N326 0.984 . S
H333 N326 0.984 . S
H334 N322 0.984 . S
H335 N322 0.985 . S
C336 C337 1.363 . S
C336 C342 1.379 . S
C336 N344 1.356 . S
C337 C336 1.363 . S
C337 C343 1.363 . S
C338 C339 1.363 . S
C338 C343 1.379 . S
C338 N345 1.356 . S
C339 C338 1.363 . S
C339 C342 1.363 . S
N340 C342 1.356 . S
N340 H352 0.984 . S
N340 H353 0.985 . S
N341 C343 1.356 . S
N341 H346 0.984 1_554 S
N341 H347 0.985 . S
C342 C336 1.379 . S
C342 C339 1.363 . S
C342 N340 1.356 . S
C343 C337 1.363 . S
C343 C338 1.379 . S
C343 N341 1.356 . S
N344 C336 1.356 . S
N344 H350 0.984 . S
N344 H351 0.984 1_554 S
N345 C338 1.356 . S
N345 H348 0.984 . S
N345 H349 0.985 . S
H346 N341 0.984 1_556 S
H347 N341 0.985 . S
H348 N345 0.984 . S
H349 N345 0.985 . S
H350 N344 0.984 . S
H351 N344 0.984 1_556 S
H352 N340 0.984 . S
H353 N340 0.985 . S
C354 C355 1.363 . S
C354 C360 1.379 . S
C354 N362 1.356 . S
C355 C354 1.363 . S
C355 C361 1.363 . S
C356 C357 1.363 . S
C356 C361 1.379 . S
C356 N363 1.356 . S
C357 C356 1.363 . S
C357 C360 1.363 . S
N358 C360 1.356 . S
N358 H370 0.984 . S
N358 H371 0.985 . S
N359 C361 1.356 . S
N359 H364 0.984 . S
N359 H365 0.985 . S
C360 C354 1.379 . S
C360 C357 1.363 . S
C360 N358 1.356 . S
C361 C355 1.363 . S
C361 C356 1.379 . S
C361 N359 1.356 . S
N362 C354 1.356 . S
N362 H368 0.984 . S
N362 H369 0.984 . S
N363 C356 1.356 . S
N363 H366 0.984 . S
N363 H367 0.985 . S
H364 N359 0.984 . S
H365 N359 0.985 . S
H366 N363 0.984 . S
H367 N363 0.985 . S
H368 N362 0.984 . S
H369 N362 0.984 . S
H370 N358 0.984 . S
H371 N358 0.985 . S
C372 C373 1.363 . S
C372 C378 1.379 . S
C372 N380 1.356 . S
C373 C372 1.363 . S
C373 C379 1.363 . S
C374 C375 1.363 . S
C374 C379 1.379 . S
C374 N381 1.356 . S
C375 C374 1.363 . S
C375 C378 1.363 . S
N376 C378 1.356 . S
N376 H388 0.984 . S
N376 H389 0.985 . S
N377 C379 1.356 . S
N377 H382 0.984 . S
N377 H383 0.985 . S
C378 C372 1.379 . S
C378 C375 1.363 . S
C378 N376 1.356 . S
C379 C373 1.363 . S
C379 C374 1.379 . S
C379 N377 1.356 . S
N380 C372 1.356 . S
N380 H386 0.984 . S
N380 H387 0.984 . S
N381 C374 1.356 . S
N381 H384 0.984 . S
N381 H385 0.985 . S
H382 N377 0.984 . S
H383 N377 0.985 . S
H384 N381 0.984 . S
H385 N381 0.985 . S
H386 N380 0.984 . S
H387 N380 0.984 . S
H388 N376 0.984 . S
H389 N376 0.985 . S
C390 C391 1.363 . S
C390 C396 1.379 . S
C390 N398 1.356 . S
C391 C390 1.363 . S
C391 C397 1.363 . S
C392 C393 1.363 . S
C392 C397 1.379 . S
C392 N399 1.356 . S
C393 C392 1.363 . S
C393 C396 1.363 . S
N394 C396 1.356 . S
N394 H406 0.984 . S
N394 H407 0.985 . S
N395 C397 1.356 . S
N395 H400 0.984 . S
N395 H401 0.985 . S
C396 C390 1.379 . S
C396 C393 1.363 . S
C396 N394 1.356 . S
C397 C391 1.363 . S
C397 C392 1.379 . S
C397 N395 1.356 . S
N398 C390 1.356 . S
N398 H404 0.984 . S
N398 H405 0.984 . S
N399 C392 1.356 . S
N399 H402 0.984 . S
N399 H403 0.985 . S
H400 N395 0.984 . S
H401 N395 0.985 . S
H402 N399 0.984 . S
H403 N399 0.985 . S
H404 N398 0.984 . S
H405 N398 0.984 . S
H406 N394 0.984 . S
H407 N394 0.985 . S
C408 C409 1.363 . S
C408 C414 1.379 . S
C408 N416 1.356 . S
C409 C408 1.363 . S
C409 C415 1.363 . S
C410 C411 1.363 . S
C410 C415 1.379 . S
C410 N417 1.356 . S
C411 C410 1.363 . S
C411 C414 1.363 . S
N412 C414 1.356 . S
N412 H424 0.984 . S
N412 H425 0.985 . S
N413 C415 1.356 . S
N413 H418 0.984 . S
N413 H419 0.985 . S
C414 C408 1.379 . S
C414 C411 1.363 . S
C414 N412 1.356 . S
C415 C409 1.363 . S
C415 C410 1.379 . S
C415 N413 1.356 . S
N416 C408 1.356 . S
N416 H422 0.984 . S
N416 H423 0.984 . S
N417 C410 1.356 . S
N417 H420 0.984 . S
N417 H421 0.985 . S
H418 N413 0.984 . S
H419 N413 0.985 . S
H420 N417 0.984 . S
H421 N417 0.985 . S
H422 N416 0.984 . S
H423 N416 0.984 . S
H424 N412 0.984 . S
H425 N412 0.985 . S
C426 C427 1.363 . S
C426 C432 1.379 . S
C426 N434 1.356 . S
C427 C426 1.363 . S
C427 C433 1.363 . S
C428 C429 1.363 . S
C428 C433 1.379 . S
C428 N435 1.356 . S
C429 C428 1.363 . S
C429 C432 1.363 . S
N430 C432 1.356 . S
N430 H442 0.984 . S
N430 H443 0.985 . S
N431 C433 1.363 . S
N431 H436 0.978 1_556 S
N431 H437 0.984 1_556 S
C432 C426 1.379 . S
C432 C429 1.363 . S
C432 N430 1.356 . S
C433 C427 1.363 . S
C433 C428 1.379 . S
C433 N431 1.363 . S
N434 C426 1.356 . S
N434 H440 0.984 . S
N434 H441 0.984 1_556 S
N435 C428 1.356 . S
N435 H438 0.984 . S
N435 H439 0.985 . S
H436 N431 0.978 1_554 S
H437 N431 0.984 1_554 S
H438 N435 0.984 . S
H439 N435 0.985 . S
H440 N434 0.984 . S
H441 N434 0.984 1_554 S
H442 N430 0.984 . S
H443 N430 0.985 . S
C444 C445 1.363 . S
C444 C450 1.379 1_556 S
C444 N452 1.356 . S
C445 C444 1.363 . S
C445 C451 1.363 . S
C446 C447 1.363 . S
C446 C451 1.379 1_554 S
C446 N453 1.356 . S
C447 C446 1.363 . S
C447 C450 1.363 . S
N448 C450 1.356 . S
N448 H460 0.984 . S
N448 H461 0.985 . S
N449 C451 1.356 . S
N449 H454 0.984 . S
N449 H455 0.985 . S
C450 C444 1.379 1_554 S
C450 C447 1.363 . S
C450 N448 1.356 . S
C451 C445 1.363 . S
C451 C446 1.379 1_556 S
C451 N449 1.356 . S
N452 C444 1.356 . S
N452 H458 0.984 . S
N452 H459 0.984 . S
N453 C446 1.356 . S
N453 H456 0.984 . S
N453 H457 0.985 . S
H454 N449 0.984 . S
H455 N449 0.985 . S
H456 N453 0.984 . S
H457 N453 0.985 . S
H458 N452 0.984 . S
H459 N452 0.984 . S
H460 N448 0.984 . S
H461 N448 0.985 . S
C462 C463 1.363 . S
C462 C468 1.379 . S
C462 N470 1.356 . S
C463 C462 1.363 . S
C463 C469 1.363 . S
C464 C465 1.363 . S
C464 C469 1.379 . S
C464 N471 1.356 1_554 S
C465 C464 1.363 . S
C465 C468 1.363 . S
N466 C468 1.356 . S
N466 H478 0.984 . S
N466 H479 0.985 1_554 S
N467 C469 1.356 . S
N467 H472 0.984 . S
N467 H473 0.985 . S
C468 C462 1.379 . S
C468 C465 1.363 . S
C468 N466 1.356 . S
C469 C463 1.363 . S
C469 C464 1.379 . S
C469 N467 1.356 . S
N470 C462 1.356 . S
N470 H476 0.984 . S
N470 H477 0.984 . S
N471 C464 1.356 1_556 S
N471 H474 0.984 . S
N471 H475 0.985 . S
H472 N467 0.984 . S
H473 N467 0.985 . S
H474 N471 0.984 . S
H475 N471 0.985 . S
H476 N470 0.984 . S
H477 N470 0.984 . S
H478 N466 0.984 . S
H479 N466 0.985 1_556 S
C480 C481 1.363 . S
C480 C486 1.379 1_545 S
C480 N488 1.356 . S
C481 C480 1.363 . S
C481 C487 1.363 1_556 S
C482 C483 1.363 . S
C482 C487 1.379 1_565 S
C482 N489 1.356 . S
C483 C482 1.363 . S
C483 C486 1.363 1_554 S
N484 C486 1.356 . S
N484 H496 0.984 . S
N484 H497 0.985 . S
N485 C487 1.356 . S
N485 H490 0.984 . S
N485 H491 0.985 . S
C486 C480 1.379 1_565 S
C486 C483 1.363 1_556 S
C486 N484 1.356 . S
C487 C481 1.363 1_554 S
C487 C482 1.379 1_545 S
C487 N485 1.356 . S
N488 C480 1.356 . S
N488 H494 0.984 . S
N488 H495 0.984 . S
N489 C482 1.356 . S
N489 H492 0.984 . S
N489 H493 0.985 . S
H490 N485 0.984 . S
H491 N485 0.985 . S
H492 N489 0.984 . S
H493 N489 0.985 . S
H494 N488 0.984 . S
H495 N488 0.984 . S
H496 N484 0.984 . S
H497 N484 0.985 . S
C498 C499 1.363 . S
C498 C504 1.379 . S
C498 N506 1.356 . S
C499 C498 1.363 . S
C499 C505 1.363 . S
C500 C501 1.363 . S
C500 C505 1.379 . S
C500 N507 1.356 1_554 S
C501 C500 1.363 . S
C501 C504 1.363 . S
N502 C504 1.356 . S
N502 H514 0.984 . S
N502 H515 0.985 . S
N503 C505 1.356 . S
N503 H508 0.984 . S
N503 H509 0.985 1_554 S
C504 C498 1.379 . S
C504 C501 1.363 . S
C504 N502 1.356 . S
C505 C499 1.363 . S
C505 C500 1.379 . S
C505 N503 1.356 . S
N506 C498 1.356 . S
N506 H512 0.984 . S
N506 H513 0.984 . S
N507 C500 1.356 1_556 S
N507 H510 0.984 . S
N507 H511 0.985 . S
H508 N503 0.984 . S
H509 N503 0.985 1_556 S
H510 N507 0.984 . S
H511 N507 0.985 . S
H512 N506 0.984 . S
H513 N506 0.984 . S
H514 N502 0.984 . S
H515 N502 0.985 . S
C516 C517 1.363 . S
C516 C522 1.379 1_455 S
C516 N524 1.356 . S
C517 C516 1.363 . S
C517 C523 1.363 . S
C518 C519 1.363 . S
C518 C523 1.379 1_655 S
C518 N525 1.356 . S
C519 C518 1.363 . S
C519 C522 1.363 . S
N520 C522 1.356 . S
N520 H532 0.984 . S
N520 H533 0.985 . S
N521 C523 1.356 . S
N521 H526 0.984 . S
N521 H527 0.985 . S
C522 C516 1.379 1_655 S
C522 C519 1.363 . S
C522 N520 1.356 . S
C523 C517 1.363 . S
C523 C518 1.379 1_455 S
C523 N521 1.356 . S
N524 C516 1.356 . S
N524 H530 0.984 . S
N524 H531 0.984 . S
N525 C518 1.356 . S
N525 H528 0.984 . S
N525 H529 0.985 . S
H526 N521 0.984 . S
H527 N521 0.985 . S
H528 N525 0.984 . S
H529 N525 0.985 . S
H530 N524 0.984 . S
H531 N524 0.984 . S
H532 N520 0.984 . S
H533 N520 0.985 . S
C534 C535 1.363 . S
C534 C540 1.379 1_565 S
C534 N542 1.356 . S
C535 C534 1.363 . S
C535 C541 1.363 . S
C536 C537 1.363 . S
C536 C541 1.379 1_545 S
C536 N543 1.356 . S
C537 C536 1.363 . S
C537 C540 1.363 . S
N538 C540 1.356 . S
N538 H550 0.984 . S
N538 H551 0.985 . S
N539 C541 1.356 . S
N539 H544 0.984 . S
N539 H545 0.985 . S
C540 C534 1.379 1_545 S
C540 C537 1.363 . S
C540 N538 1.356 . S
C541 C535 1.363 . S
C541 C536 1.379 1_565 S
C541 N539 1.356 . S
N542 C534 1.356 . S
N542 H548 0.984 . S
N542 H549 0.984 . S
N543 C536 1.356 . S
N543 H546 0.984 . S
N543 H547 0.985 . S
H544 N539 0.984 . S
H545 N539 0.985 . S
H546 N543 0.984 . S
H547 N543 0.985 . S
H548 N542 0.984 . S
H549 N542 0.984 . S
H550 N538 0.984 . S
H551 N538 0.985 . S
C552 C553 1.363 . S
C552 C558 1.379 . S
C552 N560 1.356 . S
C553 C552 1.363 . S
C553 C559 1.363 . S
C554 C555 1.363 . S
C554 C559 1.379 . S
C554 N561 1.356 . S
C555 C554 1.363 . S
C555 C558 1.363 . S
N556 C558 1.356 . S
N556 H568 0.984 . S
N556 H569 0.985 . S
N557 C559 1.356 . S
N557 H562 0.984 . S
N557 H563 0.985 . S
C558 C552 1.379 . S
C558 C555 1.363 . S
C558 N556 1.356 . S
C559 C553 1.363 . S
C559 C554 1.379 . S
C559 N557 1.356 . S
N560 C552 1.356 . S
N560 H566 0.984 . S
N560 H567 0.984 . S
N561 C554 1.356 . S
N561 H564 0.984 . S
N561 H565 0.985 . S
H562 N557 0.984 . S
H563 N557 0.985 . S
H564 N561 0.984 . S
H565 N561 0.985 . S
H566 N560 0.984 . S
H567 N560 0.984 . S
H568 N556 0.984 . S
H569 N556 0.985 . S
C570 C571 1.363 . S
C570 C576 1.379 1_455 S
C570 N578 1.356 . S
C571 C570 1.363 . S
C571 C577 1.363 . S
C572 C573 1.363 . S
C572 C577 1.379 1_655 S
C572 N579 1.356 1_556 S
C573 C572 1.363 . S
C573 C576 1.363 . S
N574 C576 1.356 . S
N574 H586 0.984 . S
N574 H587 0.985 . S
N575 C577 1.356 . S
N575 H580 0.984 . S
N575 H581 0.985 1_556 S
C576 C570 1.379 1_655 S
C576 C573 1.363 . S
C576 N574 1.356 . S
C577 C571 1.363 . S
C577 C572 1.379 1_455 S
C577 N575 1.356 . S
N578 C570 1.356 . S
N578 H584 0.984 . S
N578 H585 0.984 . S
N579 C572 1.356 1_554 S
N579 H582 0.984 . S
N579 H583 0.985 . S
H580 N575 0.984 . S
H581 N575 0.985 1_554 S
H582 N579 0.984 . S
H583 N579 0.985 . S
H584 N578 0.984 . S
H585 N578 0.984 . S
H586 N574 0.984 . S
H587 N574 0.985 . S
C588 C589 1.363 . S
C588 C594 1.379 . S
C588 N596 1.356 . S
C589 C588 1.363 . S
C589 C595 1.363 . S
C590 C591 1.363 . S
C590 C595 1.379 . S
C590 N597 1.356 . S
C591 C590 1.363 . S
C591 C594 1.363 . S
N592 C594 1.356 . S
N592 H604 0.984 . S
N592 H605 0.985 . S
N593 C595 1.356 . S
N593 H598 0.984 . S
N593 H599 0.985 . S
C594 C588 1.379 . S
C594 C591 1.363 . S
C594 N592 1.356 . S
C595 C589 1.363 . S
C595 C590 1.379 . S
C595 N593 1.356 . S
N596 C588 1.356 . S
N596 H602 0.984 . S
N596 H603 0.984 . S
N597 C590 1.356 . S
N597 H600 0.984 . S
N597 H601 0.985 . S
H598 N593 0.984 . S
H599 N593 0.985 . S
H600 N597 0.984 . S
H601 N597 0.985 . S
H602 N596 0.984 . S
H603 N596 0.984 . S
H604 N592 0.984 . S
H605 N592 0.985 . S
C606 C607 1.363 . S
C606 C612 1.379 . S
C606 N614 1.356 1_556 S
C607 C606 1.363 . S
C607 C613 1.363 . S
C608 C609 1.363 . S
C608 C613 1.379 . S
C608 N615 1.356 . S
C609 C608 1.363 . S
C609 C612 1.363 . S
N610 C612 1.356 . S
N610 H622 0.984 . S
N610 H623 0.985 . S
N611 C613 1.356 . S
N611 H616 0.984 1_556 S
N611 H617 0.985 . S
C612 C606 1.379 . S
C612 C609 1.363 . S
C612 N610 1.356 . S
C613 C607 1.363 . S
C613 C608 1.379 . S
C613 N611 1.356 . S
N614 C606 1.356 1_554 S
N614 H620 0.984 1_554 S
N614 H621 0.984 . S
N615 C608 1.356 . S
N615 H618 0.984 . S
N615 H619 0.985 . S
H616 N611 0.984 1_554 S
H617 N611 0.985 . S
H618 N615 0.984 . S
H619 N615 0.985 . S
H620 N614 0.984 1_556 S
H621 N614 0.984 . S
H622 N610 0.984 . S
H623 N610 0.985 . S
C624 C625 1.363 . S
C624 C630 1.379 . S
C624 N632 1.356 1_554 S
C625 C624 1.363 . S
C625 C631 1.363 . S
C626 C627 1.363 . S
C626 C631 1.379 . S
C626 N633 1.356 . S
C627 C626 1.363 . S
C627 C630 1.363 . S
N628 C630 1.356 . S
N628 H640 0.984 . S
N628 H641 0.985 . S
N629 C631 1.356 . S
N629 H634 0.984 . S
N629 H635 0.985 . S
C630 C624 1.379 . S
C630 C627 1.363 . S
C630 N628 1.356 . S
C631 C625 1.363 . S
C631 C626 1.379 . S
C631 N629 1.356 . S
N632 C624 1.356 1_556 S
N632 H638 0.984 . S
N632 H639 0.984 . S
N633 C626 1.356 . S
N633 H636 0.984 . S
N633 H637 0.985 . S
H634 N629 0.984 . S
H635 N629 0.985 . S
H636 N633 0.984 . S
H637 N633 0.985 . S
H638 N632 0.984 . S
H639 N632 0.984 . S
H640 N628 0.984 . S
H641 N628 0.985 . S
C642 C643 1.363 . S
C642 C648 1.379 . S
C642 N650 1.356 . S
C643 C642 1.363 . S
C643 C649 1.363 . S
C644 C645 1.363 . S
C644 C649 1.379 . S
C644 N651 1.356 . S
C645 C644 1.363 . S
C645 C648 1.363 . S
N646 C648 1.356 . S
N646 H658 0.984 . S
N646 H659 0.985 . S
N647 C649 1.356 . S
N647 H652 0.984 . S
N647 H653 0.985 . S
C648 C642 1.379 . S
C648 C645 1.363 . S
C648 N646 1.356 . S
C649 C643 1.363 . S
C649 C644 1.379 . S
C649 N647 1.356 . S
N650 C642 1.356 . S
N650 H656 0.984 . S
N650 H657 0.984 . S
N651 C644 1.356 . S
N651 H654 0.984 . S
N651 H655 0.985 . S
H652 N647 0.984 . S
H653 N647 0.985 . S
H654 N651 0.984 . S
H655 N651 0.985 . S
H656 N650 0.984 . S
H657 N650 0.984 . S
H658 N646 0.984 . S
H659 N646 0.985 . S
C660 C661 1.363 . S
C660 C666 1.379 . S
C660 N668 1.356 . S
C661 C660 1.363 . S
C661 C667 1.363 . S
C662 C663 1.363 . S
C662 C667 1.379 . S
C662 N669 1.356 . S
C663 C662 1.363 . S
C663 C666 1.363 . S
N664 C666 1.356 . S
N664 H676 0.984 . S
N664 H677 0.985 . S
N665 C667 1.356 . S
N665 H670 0.984 . S
N665 H671 0.985 . S
C666 C660 1.379 . S
C666 C663 1.363 . S
C666 N664 1.356 . S
C667 C661 1.363 . S
C667 C662 1.379 . S
C667 N665 1.356 . S
N668 C660 1.356 . S
N668 H674 0.984 . S
N668 H675 0.984 . S
N669 C662 1.356 . S
N669 H672 0.984 . S
N669 H673 0.985 . S
H670 N665 0.984 . S
H671 N665 0.985 . S
H672 N669 0.984 . S
H673 N669 0.985 . S
H674 N668 0.984 . S
H675 N668 0.984 . S
H676 N664 0.984 . S
H677 N664 0.985 . S
C678 C679 1.363 . S
C678 C684 1.379 . S
C678 N686 1.356 . S
C679 C678 1.363 . S
C679 C685 1.363 . S
C680 C681 1.363 . S
C680 C685 1.379 . S
C680 N687 1.356 . S
C681 C680 1.363 . S
C681 C684 1.363 . S
N682 C684 1.356 . S
N682 H694 0.984 . S
N682 H695 0.985 . S
N683 C685 1.356 . S
N683 H688 0.984 . S
N683 H689 0.985 . S
C684 C678 1.379 . S
C684 C681 1.363 . S
C684 N682 1.356 . S
C685 C679 1.363 . S
C685 C680 1.379 . S
C685 N683 1.356 . S
N686 C678 1.356 . S
N686 H692 0.984 . S
N686 H693 0.984 . S
N687 C680 1.356 . S
N687 H690 0.984 . S
N687 H691 0.985 . S
H688 N683 0.984 . S
H689 N683 0.985 . S
H690 N687 0.984 . S
H691 N687 0.985 . S
H692 N686 0.984 . S
H693 N686 0.984 . S
H694 N682 0.984 . S
H695 N682 0.985 . S
C696 C697 1.363 . S
C696 C702 1.379 . S
C696 N704 1.356 1_554 S
C697 C696 1.363 . S
C697 C703 1.363 . S
C698 C699 1.363 . S
C698 C703 1.379 . S
C698 N705 1.356 . S
C699 C698 1.363 . S
C699 C702 1.363 . S
N700 C702 1.356 1_556 S
N700 H712 0.984 . S
N700 H713 0.985 . S
N701 C703 1.356 . S
N701 H706 0.984 . S
N701 H707 0.985 . S
C702 C696 1.379 . S
C702 C699 1.363 . S
C702 N700 1.356 1_554 S
C703 C697 1.363 . S
C703 C698 1.379 . S
C703 N701 1.356 . S
N704 C696 1.356 1_556 S
N704 H710 0.984 . S
N704 H711 0.984 . S
N705 C698 1.356 . S
N705 H708 0.984 . S
N705 H709 0.985 . S
H706 N701 0.984 . S
H707 N701 0.985 . S
H708 N705 0.984 . S
H709 N705 0.985 . S
H710 N704 0.984 . S
H711 N704 0.984 . S
H712 N700 0.984 . S
H713 N700 0.985 . S
C714 C715 1.363 . S
C714 C720 1.379 . S
C714 N722 1.356 . S
C715 C714 1.363 . S
C715 C721 1.363 . S
C716 C717 1.363 . S
C716 C721 1.379 . S
C716 N723 1.356 . S
C717 C716 1.363 . S
C717 C720 1.363 . S
N718 C720 1.356 . S
N718 H730 0.984 . S
N718 H731 0.985 . S
N719 C721 1.356 . S
N719 H724 0.984 . S
N719 H725 0.985 . S
C720 C714 1.379 . S
C720 C717 1.363 . S
C720 N718 1.356 . S
C721 C715 1.363 . S
C721 C716 1.379 . S
C721 N719 1.356 . S
N722 C714 1.356 . S
N722 H728 0.984 . S
N722 H729 0.984 . S
N723 C716 1.356 . S
N723 H726 0.984 . S
N723 H727 0.985 . S
H724 N719 0.984 . S
H725 N719 0.985 . S
H726 N723 0.984 . S
H727 N723 0.985 . S
H728 N722 0.984 . S
H729 N722 0.984 . S
H730 N718 0.984 . S
H731 N718 0.985 . S
C732 C733 1.363 . S
C732 C738 1.379 . S
C732 N740 1.356 . S
C733 C732 1.363 . S
C733 C739 1.363 . S
C734 C735 1.363 . S
C734 C739 1.379 . S
C734 N741 1.356 . S
C735 C734 1.363 . S
C735 C738 1.363 . S
N736 C738 1.356 . S
N736 H748 0.984 . S
N736 H749 0.985 . S
N737 C739 1.356 . S
N737 H742 0.984 . S
N737 H743 0.985 . S
C738 C732 1.379 . S
C738 C735 1.363 . S
C738 N736 1.356 . S
C739 C733 1.363 . S
C739 C734 1.379 . S
C739 N737 1.356 . S
N740 C732 1.356 . S
N740 H746 0.984 . S
N740 H747 0.984 . S
N741 C734 1.356 . S
N741 H744 0.984 . S
N741 H745 0.985 . S
H742 N737 0.984 . S
H743 N737 0.985 . S
H744 N741 0.984 . S
H745 N741 0.985 . S
H746 N740 0.984 . S
H747 N740 0.984 . S
H748 N736 0.984 . S
H749 N736 0.985 . S
C750 C751 1.363 . S
C750 C756 1.379 . S
C750 N758 1.356 . S
C751 C750 1.363 . S
C751 C757 1.363 . S
C752 C753 1.363 . S
C752 C757 1.379 . S
C752 N759 1.356 . S
C753 C752 1.363 . S
C753 C756 1.363 . S
N754 C756 1.356 . S
N754 H766 0.984 . S
N754 H767 0.985 . S
N755 C757 1.356 . S
N755 H760 0.984 . S
N755 H761 0.985 . S
C756 C750 1.379 . S
C756 C753 1.363 . S
C756 N754 1.356 . S
C757 C751 1.363 . S
C757 C752 1.379 . S
C757 N755 1.356 . S
N758 C750 1.356 . S
N758 H764 0.984 . S
N758 H765 0.984 . S
N759 C752 1.356 . S
N759 H762 0.984 . S
N759 H763 0.985 . S
H760 N755 0.984 . S
H761 N755 0.985 . S
H762 N759 0.984 . S
H763 N759 0.985 . S
H764 N758 0.984 . S
H765 N758 0.984 . S
H766 N754 0.984 . S
H767 N754 0.985 . S
C768 C769 1.363 . S
C768 C774 1.379 . S
C768 N776 1.356 . S
C769 C768 1.363 . S
C769 C775 1.363 . S
C770 C771 1.363 . S
C770 C775 1.379 . S
C770 N777 1.356 . S
C771 C770 1.363 . S
C771 C774 1.363 . S
N772 C774 1.356 . S
N772 H784 0.984 . S
N772 H785 0.985 . S
N773 C775 1.356 . S
N773 H778 0.984 . S
N773 H779 0.985 . S
C774 C768 1.379 . S
C774 C771 1.363 . S
C774 N772 1.356 . S
C775 C769 1.363 . S
C775 C770 1.379 . S
C775 N773 1.356 . S
N776 C768 1.356 . S
N776 H782 0.984 . S
N776 H783 0.984 . S
N777 C770 1.356 . S
N777 H780 0.984 . S
N777 H781 0.985 . S
H778 N773 0.984 . S
H779 N773 0.985 . S
H780 N777 0.984 . S
H781 N777 0.985 . S
H782 N776 0.984 . S
H783 N776 0.984 . S
H784 N772 0.984 . S
H785 N772 0.985 . S
C786 C787 1.363 . S
C786 C792 1.379 . S
C786 N794 1.356 . S
C787 C786 1.363 . S
C787 C793 1.363 1_556 S
C788 C789 1.363 1_554 S
C788 C793 1.379 . S
C788 N795 1.356 . S
C789 C788 1.363 1_556 S
C789 C792 1.363 . S
N790 C792 1.356 . S
N790 H802 0.984 . S
N790 H803 0.985 . S
N791 C793 1.356 . S
N791 H796 0.984 . S
N791 H797 0.985 . S
C792 C786 1.379 . S
C792 C789 1.363 . S
C792 N790 1.356 . S
C793 C787 1.363 1_554 S
C793 C788 1.379 . S
C793 N791 1.356 . S
N794 C786 1.356 . S
N794 H800 0.984 . S
N794 H801 0.984 . S
N795 C788 1.356 . S
N795 H798 0.984 . S
N795 H799 0.985 . S
H796 N791 0.984 . S
H797 N791 0.985 . S
H798 N795 0.984 . S
H799 N795 0.985 . S
H800 N794 0.984 . S
H801 N794 0.984 . S
H802 N790 0.984 . S
H803 N790 0.985 . S
C804 C805 1.363 . S
C804 C810 1.379 . S
C804 N812 1.356 . S
C805 C804 1.363 . S
C805 C811 1.363 . S
C806 C807 1.363 . S
C806 C811 1.379 . S
C806 N813 1.356 . S
C807 C806 1.363 . S
C807 C810 1.363 . S
N808 C810 1.356 . S
N808 H820 0.984 . S
N808 H821 0.985 . S
N809 C811 1.356 . S
N809 H814 0.984 . S
N809 H815 0.985 . S
C810 C804 1.379 . S
C810 C807 1.363 . S
C810 N808 1.356 . S
C811 C805 1.363 . S
C811 C806 1.379 . S
C811 N809 1.356 . S
N812 C804 1.356 . S
N812 H818 0.984 . S
N812 H819 0.984 . S
N813 C806 1.356 . S
N813 H816 0.984 . S
N813 H817 0.985 . S
H814 N809 0.984 . S
H815 N809 0.985 . S
H816 N813 0.984 . S
H817 N813 0.985 . S
H818 N812 0.984 . S
H819 N812 0.984 . S
H820 N808 0.984 . S
H821 N808 0.985 . S
C822 C823 1.363 . S
C822 C828 1.379 . S
C822 N830 1.356 . S
C823 C822 1.363 . S
C823 C829 1.363 . S
C824 C825 1.363 . S
C824 C829 1.379 . S
C824 N831 1.356 . S
C825 C824 1.363 . S
C825 C828 1.363 . S
N826 C828 1.356 . S
N826 H838 0.984 . S
N826 H839 0.985 . S
N827 C829 1.356 . S
N827 H832 0.984 . S
N827 H833 0.985 . S
C828 C822 1.379 . S
C828 C825 1.363 . S
C828 N826 1.356 . S
C829 C823 1.363 . S
C829 C824 1.379 . S
C829 N827 1.356 . S
N830 C822 1.356 . S
N830 H836 0.984 . S
N830 H837 0.984 . S
N831 C824 1.356 . S
N831 H834 0.984 . S
N831 H835 0.985 . S
H832 N827 0.984 . S
H833 N827 0.985 . S
H834 N831 0.984 . S
H835 N831 0.985 . S
H836 N830 0.984 . S
H837 N830 0.984 . S
H838 N826 0.984 . S
H839 N826 0.985 . S
C840 C841 1.363 . S
C840 C846 1.379 . S
C840 N848 1.356 . S
C841 C840 1.363 . S
C841 C847 1.363 . S
C842 C843 1.363 . S
C842 C847 1.379 . S
C842 N849 1.356 . S
C843 C842 1.363 . S
C843 C846 1.363 . S
N844 C846 1.356 . S
N844 H856 0.984 . S
N844 H857 0.985 . S
N845 C847 1.356 . S
N845 H850 0.984 . S
N845 H851 0.985 . S
C846 C840 1.379 . S
C846 C843 1.363 . S
C846 N844 1.356 . S
C847 C841 1.363 . S
C847 C842 1.379 . S
C847 N845 1.356 . S
N848 C840 1.356 . S
N848 H854 0.984 . S
N848 H855 0.984 . S
N849 C842 1.356 . S
N849 H852 0.984 . S
N849 H853 0.985 . S
H850 N845 0.984 . S
H851 N845 0.985 . S
H852 N849 0.984 . S
H853 N849 0.985 . S
H854 N848 0.984 . S
H855 N848 0.984 . S
H856 N844 0.984 . S
H857 N844 0.985 . S
C858 C859 1.363 . S
C858 C864 1.379 . S
C858 N866 1.356 . S
C859 C858 1.363 . S
C859 C865 1.363 . S
C860 C861 1.363 . S
C860 C865 1.379 . S
C860 N867 1.356 . S
C861 C860 1.363 . S
C861 C864 1.363 . S
N862 C864 1.356 . S
N862 H874 0.984 . S
N862 H875 0.985 . S
N863 C865 1.356 . S
N863 H868 0.984 . S
N863 H869 0.985 . S
C864 C858 1.379 . S
C864 C861 1.363 . S
C864 N862 1.356 . S
C865 C859 1.363 . S
C865 C860 1.379 . S
C865 N863 1.356 . S
N866 C858 1.356 . S
N866 H872 0.984 . S
N866 H873 0.984 . S
N867 C860 1.356 . S
N867 H870 0.984 . S
N867 H871 0.985 . S
H868 N863 0.984 . S
H869 N863 0.985 . S
H870 N867 0.984 . S
H871 N867 0.985 . S
H872 N866 0.984 . S
H873 N866 0.984 . S
H874 N862 0.984 . S
H875 N862 0.985 . S
C876 C877 1.363 . S
C876 C882 1.379 . S
C876 N884 1.356 . S
C877 C876 1.363 . S
C877 C883 1.363 . S
C878 C879 1.363 . S
C878 C883 1.379 . S
C878 N885 1.356 . S
C879 C878 1.363 . S
C879 C882 1.363 . S
N880 C882 1.356 1_554 S
N880 H892 0.984 . S
N880 H893 0.985 . S
N881 C883 1.356 . S
N881 H886 0.984 . S
N881 H887 0.985 . S
C882 C876 1.379 . S
C882 C879 1.363 . S
C882 N880 1.356 1_556 S
C883 C877 1.363 . S
C883 C878 1.379 . S
C883 N881 1.356 . S
N884 C876 1.356 . S
N884 H890 0.984 . S
N884 H891 0.984 . S
N885 C878 1.356 . S
N885 H888 0.984 . S
N885 H889 0.985 . S
H886 N881 0.984 . S
H887 N881 0.985 . S
H888 N885 0.984 . S
H889 N885 0.985 . S
H890 N884 0.984 . S
H891 N884 0.984 . S
H892 N880 0.984 . S
H893 N880 0.985 . S
C894 C895 1.363 . S
C894 C900 1.379 . S
C894 N902 1.356 . S
C895 C894 1.363 . S
C895 C901 1.363 . S
C896 C897 1.363 1_556 S
C896 C901 1.379 1_556 S
C896 N903 1.356 . S
C897 C896 1.363 1_554 S
C897 C900 1.363 . S
N898 C900 1.356 . S
N898 H910 0.984 . S
N898 H911 0.985 . S
N899 C901 1.356 1_556 S
N899 H904 0.984 1_556 S
N899 H905 0.985 . S
C900 C894 1.379 . S
C900 C897 1.363 . S
C900 N898 1.356 . S
C901 C895 1.363 . S
C901 C896 1.379 1_554 S
C901 N899 1.356 1_554 S
N902 C894 1.356 . S
N902 H908 0.984 . S
N902 H909 0.984 . S
N903 C896 1.356 . S
N903 H906 0.984 . S
N903 H907 0.985 . S
H904 N899 0.984 1_554 S
H905 N899 0.985 . S
H906 N903 0.984 . S
H907 N903 0.985 . S
H908 N902 0.984 . S
H909 N902 0.984 . S
H910 N898 0.984 . S
H911 N898 0.985 . S
C265 C6 1.722 . S
C267 C8 1.731 . S
C283 C28 1.722 . S
C285 C30 1.731 . S
C301 C52 1.730 . S
C303 C50 1.722 1_556 S
C319 C72 1.722 . S
C321 C74 1.731 . S
C337 C96 1.731 1_554 S
C339 C94 1.722 . S
C355 C116 1.722 . S
C357 C118 1.731 . S
C373 C139 1.722 . S
C375 C136 1.731 . S
C391 C158 1.731 . S
C393 C161 1.722 . S
C409 C180 1.731 . S
C411 C183 1.722 . S
C427 C202 1.731 1_556 S
C429 C205 1.722 . S
C445 C227 1.722 . S
C447 C224 1.731 . S
C463 C246 1.731 . S
C465 C249 1.722 1_554 S
C481 C4 1.506 . S
C483 C162 1.506 . S
C499 C184 1.505 . S
C501 C26 1.505 . S
C517 C206 1.506 . S
C519 C48 1.506 . S
C535 C70 1.506 . S
C537 C228 1.506 . S
C553 C92 1.505 . S
C555 C250 1.505 . S
C571 C114 1.506 . S
C573 C140 1.506 . S
C589 C5 1.198 . S
C591 C229 1.198 . S
C607 C27 1.198 1_556 S
C609 C251 1.198 . S
C625 C141 1.198 1_554 S
C627 C49 1.198 . S
C643 C71 1.198 . S
C645 C163 1.198 . S
C661 C93 1.198 . S
C663 C185 1.198 . S
C679 C207 1.198 . S
C681 C115 1.198 . S
C697 C9 1.229 . S
C699 C181 1.229 . S
C715 C203 1.229 . S
C717 C31 1.229 . S
C733 C225 1.230 . S
C735 C53 1.230 . S
C751 C75 1.230 . S
C753 C247 1.230 . S
C769 C137 1.229 . S
C771 C97 1.229 . S
C787 C119 1.230 . S
C789 C159 1.230 . S
C805 C7 1.340 . S
C807 C226 1.340 . S
C823 C29 1.340 . S
C825 C248 1.340 . S
C841 C51 1.340 . S
C843 C138 1.340 . S
C859 C160 1.340 . S
C861 C73 1.340 . S
C877 C95 1.340 . S
C879 C182 1.340 1_556 S
C895 C204 1.340 . S
C897 C117 1.340 1_554 S
