# Generated by pormake.
# Topology upa, (4)-cn, num edge types: 1
# Building blocks:
#     Node 0, Type 0, BuildingBlock: GALJAG_clean_sbu_0, # of connection points: 4
#     Node 1, Type 0, BuildingBlock: GALJAG_clean_sbu_0, # of connection points: 4
#     Node 2, Type 0, BuildingBlock: GALJAG_clean_sbu_0, # of connection points: 4
#     Node 3, Type 0, BuildingBlock: GALJAG_clean_sbu_0, # of connection points: 4
#     Node 4, Type 0, BuildingBlock: GALJAG_clean_sbu_0, # of connection points: 4
#     Node 5, Type 0, BuildingBlock: GALJAG_clean_sbu_0, # of connection points: 4
#     Node 6, Type 0, BuildingBlock: GALJAG_clean_sbu_0, # of connection points: 4
#     Node 7, Type 0, BuildingBlock: GALJAG_clean_sbu_0, # of connection points: 4
#     Edge 8, Type (0, 0), BuildingBlock: FUNLAD_clean_linker_0, # of connection points: 2
#     Edge 9, Type (0, 0), BuildingBlock: FUNLAD_clean_linker_0, # of connection points: 2
#     Edge 10, Type (0, 0), BuildingBlock: FUNLAD_clean_linker_0, # of connection points: 2
#     Edge 11, Type (0, 0), BuildingBlock: FUNLAD_clean_linker_0, # of connection points: 2
#     Edge 12, Type (0, 0), BuildingBlock: FUNLAD_clean_linker_0, # of connection points: 2
#     Edge 13, Type (0, 0), BuildingBlock: FUNLAD_clean_linker_0, # of connection points: 2
#     Edge 14, Type (0, 0), BuildingBlock: FUNLAD_clean_linker_0, # of connection points: 2
#     Edge 15, Type (0, 0), BuildingBlock: FUNLAD_clean_linker_0, # of connection points: 2
#     Edge 16, Type (0, 0), BuildingBlock: FUNLAD_clean_linker_0, # of connection points: 2
#     Edge 17, Type (0, 0), BuildingBlock: FUNLAD_clean_linker_0, # of connection points: 2
#     Edge 18, Type (0, 0), BuildingBlock: FUNLAD_clean_linker_0, # of connection points: 2
#     Edge 19, Type (0, 0), BuildingBlock: FUNLAD_clean_linker_0, # of connection points: 2
#     Edge 20, Type (0, 0), BuildingBlock: FUNLAD_clean_linker_0, # of connection points: 2
#     Edge 21, Type (0, 0), BuildingBlock: FUNLAD_clean_linker_0, # of connection points: 2
#     Edge 22, Type (0, 0), BuildingBlock: FUNLAD_clean_linker_0, # of connection points: 2
#     Edge 23, Type (0, 0), BuildingBlock: FUNLAD_clean_linker_0, # of connection points: 2
# Relax obj value: 0.230
# Max RMSD: 0.125
# Mean RMSD: 0.125
data_MOF--net-upa--node1-GALJAG_clean_sbu_0--edge1-FUNLAD_clean_linker_0
_symmetry_space_group_name_H-M    P1
_symmetry_Int_Tables_number       1
_symmetry_cell_setting            triclinic
loop_
_symmetry_equiv_pos_as_xyz
'x, y, z'
_cell_length_a     31.09373
_cell_length_b     31.07908
_cell_length_c     49.464572
_cell_angle_alpha  89.974136
_cell_angle_beta   90.019151
_cell_angle_gamma 89.939743
loop_
_atom_site_label
_atom_site_type_symbol
_atom_site_fract_x
_atom_site_fract_y
_atom_site_fract_z
_atom_type_partial_charge
In0 In 0.20166 0.20201 0.3243 0.0
O1 O 0.21344 0.24846 0.35979 0.0
O2 O 0.22818 0.18218 0.36503 0.0
C3 C 0.14113 0.24273 0.2946 0.0
C4 C 0.27724 0.20551 0.29739 0.0
C5 C 0.15107 0.13258 0.33086 0.0
O6 O 0.14954 0.2535 0.31868 0.0
O7 O 0.16513 0.21362 0.28519 0.0
O8 O 0.18396 0.13169 0.31582 0.0
O9 O 0.14476 0.16782 0.34282 0.0
C10 C 0.22673 0.21914 0.37545 0.0
O11 O 0.26111 0.1706 0.30558 0.0
O12 O 0.25516 0.23859 0.30265 0.0
In13 In 0.29364 0.69281 0.82591 0.0
O14 O 0.32477 0.75361 0.80863 0.0
O15 O 0.25664 0.74942 0.80766 0.0
C16 C 0.36381 0.64187 0.82803 0.0
C17 C 0.27741 0.71381 0.87788 0.0
C18 C 0.24857 0.63371 0.79749 0.0
O19 O 0.36041 0.67231 0.81122 0.0
O20 O 0.33288 0.63865 0.84436 0.0
O21 O 0.24032 0.64239 0.82187 0.0
O22 O 0.27733 0.65695 0.78704 0.0
C23 C 0.28968 0.77149 0.80241 0.0
O24 O 0.24874 0.69916 0.86229 0.0
O25 O 0.3139 0.71846 0.8671 0.0
In26 In 0.80715 0.79668 0.32675 0.0
O27 O 0.753 0.82981 0.30354 0.0
O28 O 0.74642 0.76293 0.31147 0.0
C29 C 0.8591 0.86481 0.33495 0.0
C30 C 0.78515 0.77731 0.37817 0.0
C31 C 0.86344 0.75539 0.29404 0.0
O32 O 0.82302 0.86852 0.32341 0.0
O33 O 0.86801 0.82731 0.34286 0.0
O34 O 0.85614 0.74325 0.31797 0.0
O35 O 0.84017 0.78619 0.28617 0.0
C36 C 0.73023 0.79643 0.30116 0.0
O37 O 0.80086 0.74967 0.36224 0.0
O38 O 0.77974 0.8141 0.36793 0.0
In39 In 0.7059 0.31432 0.82552 0.0
O40 O 0.67658 0.24988 0.81284 0.0
O41 O 0.7443 0.25714 0.80946 0.0
C42 C 0.6253 0.34596 0.82059 0.0
C43 C 0.7275 0.3138 0.87857 0.0
C44 C 0.75304 0.37381 0.7985 0.0
O45 O 0.63699 0.32416 0.84082 0.0
O46 O 0.65332 0.34937 0.80235 0.0
O47 O 0.75291 0.37117 0.82393 0.0
O48 O 0.73203 0.3446 0.78679 0.0
C49 C 0.71204 0.23298 0.80636 0.0
O50 O 0.73807 0.28375 0.86274 0.0
O51 O 0.70709 0.34412 0.86751 0.0
In52 In 0.69804 0.29524 0.17737 0.0
O53 O 0.7528 0.3277 0.20025 0.0
O54 O 0.75766 0.26036 0.19357 0.0
C55 C 0.65116 0.36796 0.18217 0.0
C56 C 0.7236 0.28317 0.12576 0.0
C57 C 0.63469 0.24318 0.19589 0.0
O58 O 0.6669 0.34878 0.20237 0.0
O59 O 0.66076 0.35157 0.15967 0.0
O60 O 0.63572 0.25765 0.17211 0.0
O61 O 0.66723 0.25253 0.20997 0.0
C62 C 0.77472 0.29386 0.20324 0.0
O63 O 0.70631 0.25355 0.13949 0.0
O64 O 0.72863 0.31819 0.13827 0.0
In65 In 0.21567 0.19239 0.6759 0.0
O66 O 0.18612 0.25217 0.69538 0.0
O67 O 0.25404 0.2503 0.69102 0.0
C68 C 0.14558 0.14175 0.67577 0.0
C69 C 0.22213 0.21292 0.62304 0.0
C70 C 0.26309 0.13328 0.70292 0.0
O71 O 0.14949 0.17283 0.69208 0.0
O72 O 0.17635 0.13724 0.65942 0.0
O73 O 0.26959 0.14197 0.67831 0.0
O74 O 0.23511 0.15657 0.71416 0.0
C75 C 0.22149 0.27131 0.69872 0.0
O76 O 0.25466 0.20223 0.63688 0.0
O77 O 0.18729 0.21418 0.63605 0.0
In78 In 0.3064 0.70018 0.17733 0.0
O79 O 0.24848 0.66646 0.19613 0.0
O80 O 0.24653 0.73461 0.19361 0.0
C81 C 0.35091 0.62546 0.17686 0.0
C82 C 0.28679 0.7224 0.12608 0.0
C83 C 0.36899 0.74583 0.20243 0.0
O84 O 0.33633 0.64171 0.19833 0.0
O85 O 0.34149 0.64588 0.15568 0.0
O86 O 0.36813 0.74018 0.1772 0.0
O87 O 0.33675 0.73101 0.21478 0.0
C88 C 0.22752 0.70048 0.20058 0.0
O89 O 0.27868 0.68582 0.13592 0.0
O90 O 0.30403 0.74858 0.14238 0.0
In91 In 0.79175 0.81427 0.67681 0.0
O92 O 0.82757 0.75865 0.69678 0.0
O93 O 0.75949 0.75438 0.69471 0.0
C94 C 0.86074 0.86549 0.66949 0.0
C95 C 0.77256 0.78977 0.62589 0.0
C96 C 0.74716 0.87249 0.70653 0.0
O97 O 0.85911 0.83768 0.68806 0.0
O98 O 0.82821 0.86657 0.65431 0.0
O99 O 0.7372 0.8634 0.68247 0.0
O100 O 0.77759 0.85032 0.71597 0.0
C101 C 0.79434 0.73697 0.702 0.0
O102 O 0.74488 0.80628 0.64149 0.0
O103 O 0.80933 0.78475 0.63626 0.0
C104 C 0.08278 0.1015 0.34851 0.0
C105 C 0.12059 0.09641 0.33329 0.0
C106 C 0.05232 0.06864 0.3497 0.0
C107 C 0.059 0.02994 0.33561 0.0
C108 C 0.09745 0.02429 0.32113 0.0
C109 C 0.12788 0.05735 0.3198 0.0
C110 C 0.02685 0.9947 0.33612 0.0
C111 C 0.9843 0.00183 0.33887 0.0
C112 C 0.95208 0.96666 0.33889 0.0
C113 C 0.91028 0.97497 0.32945 0.0
C114 C 0.87959 0.94212 0.32854 0.0
C115 C 0.89007 0.90053 0.33747 0.0
H116 H 0.99351 0.91809 0.35685 0.0
C117 C 0.93141 0.89262 0.34783 0.0
C118 C 0.96211 0.9253 0.34856 0.0
H119 H 0.94034 0.86093 0.35506 0.0
H120 H 0.0764 0.13114 0.35932 0.0
H121 H 0.02379 0.0736 0.36184 0.0
H122 H 0.10357 0.99454 0.31038 0.0
H123 H 0.15683 0.0525 0.308 0.0
H124 H 0.03849 0.96222 0.33258 0.0
H125 H 0.97223 0.03462 0.33955 0.0
H126 H 0.90162 0.00673 0.32221 0.0
H127 H 0.84791 0.94915 0.32055 0.0
C128 C 0.39924 0.57539 0.84556 0.0
C129 C 0.39859 0.60955 0.82695 0.0
C130 C 0.42908 0.54205 0.84295 0.0
C131 C 0.45879 0.54201 0.82149 0.0
C132 C 0.45923 0.57711 0.80357 0.0
C133 C 0.42934 0.61049 0.80619 0.0
C134 C 0.49026 0.50657 0.81735 0.0
C135 C 0.48515 0.46638 0.82718 0.0
C136 C 0.518 0.43219 0.82353 0.0
C137 C 0.52366 0.40129 0.84394 0.0
C138 C 0.55721 0.37138 0.84237 0.0
C139 C 0.58526 0.37152 0.82013 0.0
H140 H 0.53974 0.45259 0.7838 0.0
C141 C 0.57761 0.40038 0.79878 0.0
C142 C 0.54431 0.43042 0.80044 0.0
H143 H 0.59845 0.401 0.78124 0.0
H144 H 0.37614 0.57398 0.86193 0.0
H145 H 0.42866 0.51662 0.85787 0.0
H146 H 0.48215 0.57825 0.78709 0.0
H147 H 0.42963 0.63643 0.79156 0.0
H148 H 0.51867 0.51408 0.80549 0.0
H149 H 0.4572 0.45841 0.83929 0.0
H150 H 0.50333 0.40155 0.86173 0.0
H151 H 0.56224 0.34941 0.85909 0.0
C152 C 0.60085 0.42097 0.16135 0.0
C153 C 0.61985 0.40345 0.18464 0.0
C154 C 0.56726 0.45057 0.1635 0.0
C155 C 0.55179 0.46309 0.18905 0.0
C156 C 0.57234 0.44732 0.21231 0.0
C157 C 0.60593 0.41754 0.21016 0.0
C158 C 0.51464 0.49273 0.19203 0.0
C159 C 0.48271 0.49506 0.17365 0.0
C160 C 0.44643 0.52596 0.17548 0.0
C161 C 0.42662 0.53959 0.15146 0.0
C162 C 0.39435 0.57082 0.152 0.0
C163 C 0.38076 0.58856 0.17665 0.0
H164 H 0.44484 0.5314 0.2193 0.0
C165 C 0.39886 0.57329 0.20085 0.0
C166 C 0.43145 0.54227 0.2003 0.0
H167 H 0.38881 0.58627 0.22016 0.0
H168 H 0.61121 0.41104 0.14139 0.0
H169 H 0.55353 0.46344 0.14509 0.0
H170 H 0.56151 0.45702 0.23222 0.0
H171 H 0.62009 0.40466 0.22846 0.0
H172 H 0.51355 0.51259 0.21007 0.0
H173 H 0.48388 0.4748 0.15578 0.0
H174 H 0.43715 0.52711 0.1321 0.0
H175 H 0.38082 0.58184 0.13303 0.0
C176 C 0.10622 0.07902 0.65664 0.0
C177 C 0.10926 0.11128 0.67642 0.0
C178 C 0.07378 0.04816 0.65794 0.0
C179 C 0.04349 0.04898 0.67904 0.0
C180 C 0.04645 0.08132 0.69878 0.0
C181 C 0.07888 0.11242 0.6974 0.0
C182 C 0.0099 0.01534 0.68166 0.0
C183 C 0.99385 0.99387 0.66029 0.0
C184 C 0.9607 0.95992 0.6629 0.0
C185 C 0.93135 0.95387 0.64171 0.0
C186 C 0.89924 0.92267 0.64368 0.0
C187 C 0.89644 0.89634 0.66669 0.0
H188 H 0.98153 0.93585 0.70202 0.0
C189 C 0.92672 0.9013 0.68752 0.0
C190 C 0.95853 0.9329 0.68569 0.0
H191 H 0.92537 0.88132 0.70544 0.0
H192 H 0.12942 0.0771 0.64035 0.0
H193 H 0.07342 0.02302 0.64281 0.0
H194 H 0.02373 0.08244 0.71536 0.0
H195 H 0.08069 0.13675 0.71303 0.0
H196 H 0.99695 0.0093 0.70171 0.0
H197 H 0.00346 0.00293 0.63996 0.0
H198 H 0.93273 0.97392 0.6238 0.0
H199 H 0.8764 0.9194 0.62726 0.0
C200 C 0.24047 0.19043 0.42163 0.0
C201 C 0.23645 0.22613 0.40437 0.0
C202 C 0.2457 0.19609 0.44939 0.0
C203 C 0.24753 0.23759 0.46051 0.0
C204 C 0.24573 0.27339 0.44322 0.0
C205 C 0.23966 0.26773 0.41534 0.0
C206 C 0.24981 0.24345 0.49022 0.0
C207 C 0.22422 0.22039 0.50667 0.0
C208 C 0.22453 0.22382 0.53651 0.0
C209 C 0.18567 0.21835 0.55041 0.0
C210 C 0.18497 0.21676 0.57857 0.0
C211 C 0.22335 0.2194 0.59346 0.0
H212 H 0.29346 0.23169 0.54104 0.0
C213 C 0.26235 0.22557 0.57963 0.0
C214 C 0.26291 0.22819 0.55132 0.0
H215 H 0.2924 0.2276 0.59064 0.0
H216 H 0.23832 0.15795 0.41381 0.0
H217 H 0.24788 0.16791 0.46222 0.0
H218 H 0.24738 0.30568 0.45139 0.0
H219 H 0.23688 0.2958 0.40247 0.0
H220 H 0.2706 0.26829 0.49845 0.0
H221 H 0.20045 0.19897 0.49778 0.0
H222 H 0.15575 0.21461 0.53941 0.0
H223 H 0.15443 0.21177 0.58863 0.0
C224 C 0.30341 0.73686 0.92349 0.0
C225 C 0.26979 0.72217 0.90693 0.0
C226 C 0.29753 0.74118 0.95138 0.0
C227 C 0.25768 0.73109 0.96333 0.0
C228 C 0.22382 0.71738 0.94661 0.0
C229 C 0.22971 0.71312 0.9187 0.0
C230 C 0.25144 0.73049 0.99319 0.0
C231 C 0.27682 0.75174 0.01081 0.0
C232 C 0.27453 0.74577 0.04067 0.0
C233 C 0.29281 0.77705 0.05766 0.0
C234 C 0.29529 0.77041 0.08562 0.0
C235 C 0.2799 0.73207 0.09711 0.0
H236 H 0.24488 0.68234 0.0401 0.0
C237 C 0.26064 0.70126 0.08025 0.0
C238 C 0.25807 0.7079 0.05237 0.0
H239 H 0.24871 0.67125 0.08848 0.0
H240 H 0.33476 0.74387 0.91502 0.0
H241 H 0.32489 0.75068 0.96346 0.0
H242 H 0.1929 0.70906 0.95523 0.0
H243 H 0.2032 0.70163 0.90647 0.0
H244 H 0.22495 0.71127 1.0008 0.0
H245 H 0.30068 0.7742 0.00327 0.0
H246 H 0.30607 0.80635 0.04921 0.0
H247 H 0.31049 0.79467 0.09809 0.0
C248 C 0.79656 0.76328 0.58062 0.0
C249 C 0.76399 0.78057 0.59704 0.0
C250 C 0.79048 0.75895 0.55276 0.0
C251 C 0.75146 0.77166 0.54066 0.0
C252 C 0.71849 0.78777 0.55725 0.0
C253 C 0.72457 0.79201 0.58516 0.0
C254 C 0.74566 0.77266 0.51076 0.0
C255 C 0.76962 0.74939 0.49334 0.0
C256 C 0.76859 0.75548 0.46347 0.0
C257 C 0.78482 0.72276 0.44672 0.0
C258 C 0.78869 0.72911 0.4188 0.0
C259 C 0.77681 0.76855 0.4071 0.0
H260 H 0.74409 0.82113 0.46369 0.0
C261 C 0.75958 0.80091 0.42371 0.0
C262 C 0.75559 0.79456 0.45156 0.0
H263 H 0.75036 0.83177 0.41531 0.0
H264 H 0.8274 0.75439 0.58916 0.0
H265 H 0.81722 0.7475 0.54078 0.0
H266 H 0.68824 0.79811 0.5485 0.0
H267 H 0.6989 0.80557 0.59727 0.0
H268 H 0.72094 0.79399 0.50294 0.0
H269 H 0.79143 0.72505 0.50111 0.0
H270 H 0.79542 0.69249 0.45532 0.0
H271 H 0.80223 0.70361 0.40654 0.0
C272 C 0.75306 0.27603 0.92052 0.0
C273 C 0.73601 0.31288 0.90798 0.0
C274 C 0.75807 0.27451 0.94866 0.0
C275 C 0.74605 0.30993 0.96476 0.0
C276 C 0.73044 0.34716 0.95201 0.0
C277 C 0.72523 0.34857 0.924 0.0
C278 C 0.74905 0.30976 0.99479 0.0
C279 C 0.74873 0.27381 0.01009 0.0
C280 C 0.74638 0.27506 0.04017 0.0
C281 C 0.72725 0.24054 0.05402 0.0
C282 C 0.72111 0.24235 0.08204 0.0
C283 C 0.7342 0.2787 0.09676 0.0
H284 H 0.7782 0.33679 0.04553 0.0
C285 C 0.75535 0.31221 0.08314 0.0
C286 C 0.76165 0.31034 0.05521 0.0
H287 H 0.76641 0.34037 0.094 0.0
H288 H 0.7619 0.24811 0.90864 0.0
H289 H 0.77142 0.24568 0.95761 0.0
H290 H 0.72129 0.37507 0.96382 0.0
H291 H 0.71221 0.37753 0.91493 0.0
H292 H 0.7477 0.34093 0.00465 0.0
H293 H 0.74608 0.24257 1.00043 0.0
H294 H 0.71568 0.21271 0.04303 0.0
H295 H 0.70491 0.2159 0.09202 0.0
C296 C 0.55715 0.22303 0.19236 0.0
C297 C 0.59545 0.22352 0.20747 0.0
C298 C 0.51817 0.21187 0.20453 0.0
C299 C 0.51669 0.20074 0.23207 0.0
C300 C 0.55536 0.19826 0.24667 0.0
C301 C 0.59437 0.20994 0.23457 0.0
C302 C 0.47516 0.19312 0.24617 0.0
C303 C 0.43947 0.21592 0.2402 0.0
C304 C 0.39831 0.21217 0.25531 0.0
C305 C 0.37086 0.24803 0.25642 0.0
C306 C 0.33172 0.24593 0.27024 0.0
C307 C 0.31878 0.2076 0.28286 0.0
H308 H 0.4052 0.1451 0.2669 0.0
C309 C 0.34587 0.17141 0.28144 0.0
C310 C 0.38535 0.17368 0.26789 0.0
H311 H 0.33663 0.14136 0.29088 0.0
H312 H 0.55691 0.23309 0.17139 0.0
H313 H 0.48913 0.21274 0.19246 0.0
H314 H 0.55513 0.18924 0.26783 0.0
H315 H 0.62337 0.20988 0.24671 0.0
H316 H 0.47512 0.17135 0.26336 0.0
H317 H 0.44123 0.24082 0.2248 0.0
H318 H 0.3799 0.27798 0.24675 0.0
H319 H 0.31146 0.27429 0.27087 0.0
C320 C 0.32496 0.83845 0.78469 0.0
C321 C 0.28732 0.81546 0.79095 0.0
C322 C 0.3226 0.88074 0.77495 0.0
C323 C 0.28243 0.90089 0.77129 0.0
C324 C 0.24493 0.87773 0.77749 0.0
C325 C 0.24729 0.83547 0.78705 0.0
C326 C 0.27805 0.9464 0.76224 0.0
C327 C 0.30799 0.9679 0.74784 0.0
C328 C 0.30074 0.01263 0.73804 0.0
C329 C 0.31767 0.02538 0.71296 0.0
C330 C 0.3075 0.06574 0.70203 0.0
C331 C 0.28073 0.09436 0.71623 0.0
H332 H 0.264 0.03426 0.77281 0.0
C333 C 0.26637 0.08276 0.74217 0.0
C334 C 0.27625 0.04237 0.75297 0.0
H335 H 0.24595 0.10418 0.75374 0.0
H336 H 0.35631 0.82396 0.78765 0.0
H337 H 0.35229 0.89774 0.77102 0.0
H338 H 0.21356 0.89244 0.77501 0.0
H339 H 0.2177 0.8187 0.79177 0.0
H340 H 0.24754 0.96211 0.76646 0.0
H341 H 0.33688 0.95141 0.74114 0.0
H342 H 0.33715 0.00332 0.70122 0.0
H343 H 0.31912 0.07378 0.68202 0.0
C344 C 0.65998 0.76133 0.28985 0.0
C345 C 0.68769 0.79684 0.28773 0.0
C346 C 0.61944 0.76208 0.27756 0.0
C347 C 0.60586 0.79835 0.26275 0.0
C348 C 0.63392 0.83347 0.26024 0.0
C349 C 0.67423 0.83294 0.27283 0.0
C350 C 0.56357 0.79954 0.24868 0.0
C351 C 0.52851 0.77899 0.25814 0.0
C352 C 0.4866 0.77705 0.24359 0.0
C353 C 0.44937 0.76659 0.25826 0.0
C354 C 0.41033 0.75922 0.24501 0.0
C355 C 0.40775 0.76166 0.2167 0.0
H356 H 0.51152 0.78861 0.20315 0.0
C357 C 0.44448 0.77392 0.20205 0.0
C358 C 0.48352 0.7815 0.21531 0.0
H359 H 0.4436 0.77573 0.18018 0.0
H360 H 0.66955 0.73297 0.3011 0.0
H361 H 0.59921 0.73389 0.27926 0.0
H362 H 0.62448 0.86158 0.2487 0.0
H363 H 0.69498 0.86072 0.27072 0.0
H364 H 0.56116 0.81911 0.23055 0.0
H365 H 0.53029 0.76301 0.27765 0.0
H366 H 0.45076 0.76282 0.28002 0.0
H367 H 0.38268 0.74962 0.25688 0.0
C368 C 0.67883 0.16309 0.79187 0.0
C369 C 0.71572 0.18822 0.79637 0.0
C370 C 0.68254 0.12058 0.78273 0.0
C371 C 0.72331 0.10237 0.77791 0.0
C372 C 0.76006 0.12753 0.78264 0.0
C373 C 0.75635 0.17 0.79161 0.0
C374 C 0.72921 0.05711 0.76877 0.0
C375 C 0.69925 0.03427 0.75522 0.0
C376 C 0.70794 0.99028 0.74464 0.0
C377 C 0.68851 0.97707 0.72039 0.0
C378 C 0.69949 0.93762 0.70855 0.0
C379 C 0.72969 0.91037 0.72099 0.0
H380 H 0.75048 0.97013 0.77713 0.0
C381 C 0.74689 0.9223 0.74617 0.0
C382 C 0.73613 0.96177 0.7579 0.0
H383 H 0.76998 0.90185 0.7564 0.0
H384 H 0.64707 0.17618 0.79554 0.0
H385 H 0.65346 0.10199 0.78 0.0
H386 H 0.79188 0.11433 0.77928 0.0
H387 H 0.78539 0.18845 0.79499 0.0
H388 H 0.76084 0.04303 0.77187 0.0
H389 H 0.66902 0.04935 0.74964 0.0
H390 H 0.66622 0.99813 0.70995 0.0
H391 H 0.6856 0.92927 0.68917 0.0
C392 C 0.06973 0.2803 0.29368 0.0
C393 C 0.10212 0.25734 0.28009 0.0
C394 C 0.02958 0.28701 0.2815 0.0
C395 C 0.02118 0.27115 0.25532 0.0
C396 C 0.05445 0.25015 0.24135 0.0
C397 C 0.09441 0.24334 0.25354 0.0
C398 C 0.97767 0.2724 0.24264 0.0
C399 C 0.94477 0.29715 0.25126 0.0
C400 C 0.90112 0.29539 0.23891 0.0
C401 C 0.87492 0.33217 0.23963 0.0
C402 C 0.83377 0.3316 0.22819 0.0
C403 C 0.81766 0.29395 0.21616 0.0
H404 H 0.90326 0.22799 0.22718 0.0
C405 C 0.84337 0.25678 0.21604 0.0
C406 C 0.88466 0.25744 0.2273 0.0
H407 H 0.83173 0.2272 0.20708 0.0
H408 H 0.07459 0.29113 0.31427 0.0
H409 H 0.0049 0.30276 0.29328 0.0
H410 H 0.04909 0.23761 0.22119 0.0
H411 H 0.11868 0.22548 0.24254 0.0
H412 H 0.97272 0.25187 0.22515 0.0
H413 H 0.94994 0.32065 0.26712 0.0
H414 H 0.88654 0.36165 0.24874 0.0
H415 H 0.81462 0.36073 0.22871 0.0
C416 C 0.18709 0.33816 0.71717 0.0
C417 C 0.2244 0.31552 0.70969 0.0
C418 C 0.18972 0.38067 0.7264 0.0
C419 C 0.22986 0.40139 0.72844 0.0
C420 C 0.26705 0.37856 0.72099 0.0
C421 C 0.26441 0.33611 0.71182 0.0
C422 C 0.2345 0.44698 0.73728 0.0
C423 C 0.20484 0.46873 0.75179 0.0
C424 C 0.21221 0.51339 0.76162 0.0
C425 C 0.19393 0.52641 0.78626 0.0
C426 C 0.20377 0.56667 0.79734 0.0
C427 C 0.23167 0.59492 0.78377 0.0
H428 H 0.25121 0.53458 0.7277 0.0
C429 C 0.24755 0.58309 0.75823 0.0
C430 C 0.23791 0.5428 0.74725 0.0
H431 H 0.26888 0.60427 0.74716 0.0
H432 H 0.15573 0.32325 0.71554 0.0
H433 H 0.16015 0.39728 0.73126 0.0
H434 H 0.29839 0.39366 0.72221 0.0
H435 H 0.29373 0.31961 0.70611 0.0
H436 H 0.26498 0.46249 0.7328 0.0
H437 H 0.17596 0.45249 0.75864 0.0
H438 H 0.1735 0.50465 0.79756 0.0
H439 H 0.19094 0.5749 0.81703 0.0
C440 C 0.15956 0.73817 0.21412 0.0
C441 C 0.18382 0.70012 0.21243 0.0
C442 C 0.11787 0.73757 0.22477 0.0
C443 C 0.09953 0.69879 0.23397 0.0
C444 C 0.12417 0.66097 0.23273 0.0
C445 C 0.16572 0.66152 0.22188 0.0
C446 C 0.0557 0.69712 0.24605 0.0
C447 C 0.02407 0.72473 0.23912 0.0
C448 C 0.98079 0.72616 0.2521 0.0
C449 C 0.94825 0.75035 0.23953 0.0
C450 C 0.90889 0.75744 0.25242 0.0
C451 C 0.90114 0.74056 0.27831 0.0
H452 H 0.99637 0.68917 0.28823 0.0
C453 C 0.93268 0.71445 0.29038 0.0
C454 C 0.97219 0.70743 0.2775 0.0
H455 H 0.92781 0.70133 0.31043 0.0
H456 H 0.17274 0.76846 0.20716 0.0
H457 H 0.10051 0.76767 0.22621 0.0
H458 H 0.1111 0.63078 0.23996 0.0
H459 H 0.18369 0.63168 0.22097 0.0
H460 H 0.04931 0.67147 0.26037 0.0
H461 H 0.02996 0.74768 0.22298 0.0
H462 H 0.95381 0.76517 0.22001 0.0
H463 H 0.88529 0.77779 0.2426 0.0
C464 C 0.78504 0.44778 0.79826 0.0
C465 C 0.76881 0.4123 0.78392 0.0
C466 C 0.79159 0.48725 0.78524 0.0
C467 C 0.78215 0.49193 0.75753 0.0
C468 C 0.76814 0.45577 0.743 0.0
C469 C 0.76173 0.41635 0.75599 0.0
C470 C 0.78227 0.53452 0.74372 0.0
C471 C 0.80449 0.56902 0.75244 0.0
C472 C 0.80128 0.61184 0.73916 0.0
C473 C 0.8371 0.63926 0.73921 0.0
C474 C 0.83486 0.67986 0.72706 0.0
C475 C 0.7964 0.69425 0.71514 0.0
H476 H 0.734 0.60663 0.72774 0.0
C477 C 0.76022 0.66726 0.71562 0.0
C478 C 0.76264 0.6264 0.72742 0.0
H479 H 0.7301 0.67757 0.70671 0.0
H480 H 0.79047 0.44576 0.81986 0.0
H481 H 0.80169 0.5144 0.79734 0.0
H482 H 0.76061 0.45837 0.72167 0.0
H483 H 0.74908 0.38967 0.74437 0.0
H484 H 0.76321 0.53739 0.72538 0.0
H485 H 0.82689 0.56575 0.76916 0.0
H486 H 0.86706 0.62904 0.74838 0.0
H487 H 0.86322 0.70007 0.72714 0.0
loop_
_geom_bond_atom_site_label_1
_geom_bond_atom_site_label_2
_geom_bond_distance
_geom_bond_site_symmetry_2
_ccdc_geom_bond_type
In0 O1 2.294 . S
In0 O2 2.326 . S
In0 O6 2.266 . S
In0 O7 2.326 . S
In0 O8 2.266 . S
In0 O9 2.326 . S
In0 O11 2.294 . S
In0 O12 2.326 . S
O1 In0 2.294 . S
O1 C10 1.240 . S
O2 In0 2.326 . S
O2 C10 1.252 . S
C3 O6 1.252 . S
C3 O7 1.260 . S
C4 O11 1.240 . S
C4 O12 1.252 . S
C5 O8 1.252 . S
C5 O9 1.260 . S
O6 In0 2.266 . S
O6 C3 1.252 . S
O7 In0 2.326 . S
O7 C3 1.260 . S
O8 In0 2.266 . S
O8 C5 1.252 . S
O9 In0 2.326 . S
O9 C5 1.260 . S
C10 O1 1.240 . S
C10 O2 1.252 . S
O11 In0 2.294 . S
O11 C4 1.240 . S
O12 In0 2.326 . S
O12 C4 1.252 . S
In13 O14 2.294 . S
In13 O15 2.326 . S
In13 O19 2.266 . S
In13 O20 2.326 . S
In13 O21 2.266 . S
In13 O22 2.326 . S
In13 O24 2.294 . S
In13 O25 2.326 . S
O14 In13 2.294 . S
O14 C23 1.240 . S
O15 In13 2.326 . S
O15 C23 1.252 . S
C16 O19 1.252 . S
C16 O20 1.260 . S
C17 O24 1.240 . S
C17 O25 1.252 . S
C18 O21 1.252 . S
C18 O22 1.260 . S
O19 In13 2.266 . S
O19 C16 1.252 . S
O20 In13 2.326 . S
O20 C16 1.260 . S
O21 In13 2.266 . S
O21 C18 1.252 . S
O22 In13 2.326 . S
O22 C18 1.260 . S
C23 O14 1.240 . S
C23 O15 1.252 . S
O24 In13 2.294 . S
O24 C17 1.240 . S
O25 In13 2.326 . S
O25 C17 1.252 . S
In26 O27 2.294 . S
In26 O28 2.326 . S
In26 O32 2.266 . S
In26 O33 2.326 . S
In26 O34 2.266 . S
In26 O35 2.326 . S
In26 O37 2.294 . S
In26 O38 2.326 . S
O27 In26 2.294 . S
O27 C36 1.240 . S
O28 In26 2.326 . S
O28 C36 1.252 . S
C29 O32 1.252 . S
C29 O33 1.260 . S
C30 O37 1.240 . S
C30 O38 1.252 . S
C31 O34 1.252 . S
C31 O35 1.260 . S
O32 In26 2.266 . S
O32 C29 1.252 . S
O33 In26 2.326 . S
O33 C29 1.260 . S
O34 In26 2.266 . S
O34 C31 1.252 . S
O35 In26 2.326 . S
O35 C31 1.260 . S
C36 O27 1.240 . S
C36 O28 1.252 . S
O37 In26 2.294 . S
O37 C30 1.240 . S
O38 In26 2.326 . S
O38 C30 1.252 . S
In39 O40 2.294 . S
In39 O41 2.326 . S
In39 O45 2.266 . S
In39 O46 2.326 . S
In39 O47 2.266 . S
In39 O48 2.326 . S
In39 O50 2.294 . S
In39 O51 2.326 . S
O40 In39 2.294 . S
O40 C49 1.240 . S
O41 In39 2.326 . S
O41 C49 1.252 . S
C42 O45 1.252 . S
C42 O46 1.260 . S
C43 O50 1.240 . S
C43 O51 1.252 . S
C44 O47 1.252 . S
C44 O48 1.260 . S
O45 In39 2.266 . S
O45 C42 1.252 . S
O46 In39 2.326 . S
O46 C42 1.260 . S
O47 In39 2.266 . S
O47 C44 1.252 . S
O48 In39 2.326 . S
O48 C44 1.260 . S
C49 O40 1.240 . S
C49 O41 1.252 . S
O50 In39 2.294 . S
O50 C43 1.240 . S
O51 In39 2.326 . S
O51 C43 1.252 . S
In52 O53 2.294 . S
In52 O54 2.326 . S
In52 O58 2.266 . S
In52 O59 2.326 . S
In52 O60 2.266 . S
In52 O61 2.326 . S
In52 O63 2.294 . S
In52 O64 2.326 . S
O53 In52 2.294 . S
O53 C62 1.240 . S
O54 In52 2.326 . S
O54 C62 1.252 . S
C55 O58 1.252 . S
C55 O59 1.260 . S
C56 O63 1.240 . S
C56 O64 1.252 . S
C57 O60 1.252 . S
C57 O61 1.260 . S
O58 In52 2.266 . S
O58 C55 1.252 . S
O59 In52 2.326 . S
O59 C55 1.260 . S
O60 In52 2.266 . S
O60 C57 1.252 . S
O61 In52 2.326 . S
O61 C57 1.260 . S
C62 O53 1.240 . S
C62 O54 1.252 . S
O63 In52 2.294 . S
O63 C56 1.240 . S
O64 In52 2.326 . S
O64 C56 1.252 . S
In65 O66 2.294 . S
In65 O67 2.326 . S
In65 O71 2.266 . S
In65 O72 2.326 . S
In65 O73 2.266 . S
In65 O74 2.326 . S
In65 O76 2.294 . S
In65 O77 2.326 . S
O66 In65 2.294 . S
O66 C75 1.240 . S
O67 In65 2.326 . S
O67 C75 1.252 . S
C68 O71 1.252 . S
C68 O72 1.260 . S
C69 O76 1.240 . S
C69 O77 1.252 . S
C70 O73 1.252 . S
C70 O74 1.260 . S
O71 In65 2.266 . S
O71 C68 1.252 . S
O72 In65 2.326 . S
O72 C68 1.260 . S
O73 In65 2.266 . S
O73 C70 1.252 . S
O74 In65 2.326 . S
O74 C70 1.260 . S
C75 O66 1.240 . S
C75 O67 1.252 . S
O76 In65 2.294 . S
O76 C69 1.240 . S
O77 In65 2.326 . S
O77 C69 1.252 . S
In78 O79 2.294 . S
In78 O80 2.326 . S
In78 O84 2.266 . S
In78 O85 2.326 . S
In78 O86 2.266 . S
In78 O87 2.326 . S
In78 O89 2.294 . S
In78 O90 2.326 . S
O79 In78 2.294 . S
O79 C88 1.240 . S
O80 In78 2.326 . S
O80 C88 1.252 . S
C81 O84 1.252 . S
C81 O85 1.260 . S
C82 O89 1.240 . S
C82 O90 1.252 . S
C83 O86 1.252 . S
C83 O87 1.260 . S
O84 In78 2.266 . S
O84 C81 1.252 . S
O85 In78 2.326 . S
O85 C81 1.260 . S
O86 In78 2.266 . S
O86 C83 1.252 . S
O87 In78 2.326 . S
O87 C83 1.260 . S
C88 O79 1.240 . S
C88 O80 1.252 . S
O89 In78 2.294 . S
O89 C82 1.240 . S
O90 In78 2.326 . S
O90 C82 1.252 . S
In91 O92 2.294 . S
In91 O93 2.326 . S
In91 O97 2.266 . S
In91 O98 2.326 . S
In91 O99 2.266 . S
In91 O100 2.326 . S
In91 O102 2.294 . S
In91 O103 2.326 . S
O92 In91 2.294 . S
O92 C101 1.240 . S
O93 In91 2.326 . S
O93 C101 1.252 . S
C94 O97 1.252 . S
C94 O98 1.260 . S
C95 O102 1.240 . S
C95 O103 1.252 . S
C96 O99 1.252 . S
C96 O100 1.260 . S
O97 In91 2.266 . S
O97 C94 1.252 . S
O98 In91 2.326 . S
O98 C94 1.260 . S
O99 In91 2.266 . S
O99 C96 1.252 . S
O100 In91 2.326 . S
O100 C96 1.260 . S
C101 O92 1.240 . S
C101 O93 1.252 . S
O102 In91 2.294 . S
O102 C95 1.240 . S
O103 In91 2.326 . S
O103 C95 1.252 . S
C104 C105 1.386 . S
C104 C106 1.383 . S
C104 H120 0.951 . S
C105 C104 1.386 . S
C105 C109 1.383 . S
C106 C104 1.383 . S
C106 C107 1.402 . S
C106 H121 0.951 1_455 S
C107 C106 1.402 . S
C107 C108 1.375 . S
C107 C110 1.481 . S
C108 C107 1.375 . S
C108 C109 1.367 . S
C108 H122 0.951 . S
C109 C105 1.383 . S
C109 C108 1.367 . S
C109 H123 0.950 . S
C110 C107 1.481 . S
C110 C111 1.297 1_445 S
C110 H124 0.950 1_545 S
C111 C110 1.297 1_665 S
C111 C112 1.479 . S
C111 H125 0.950 1_565 S
C112 C111 1.479 . S
C112 C113 1.375 . S
C112 C118 1.404 . S
C113 C112 1.375 . S
C113 C114 1.369 . S
C113 H126 0.950 . S
C114 C113 1.369 . S
C114 C115 1.392 . S
C114 H127 0.951 . S
C115 C114 1.392 . S
C115 C117 1.384 . S
H116 C118 0.949 1_455 S
C117 C115 1.384 . S
C117 C118 1.385 . S
C117 H119 0.950 . S
C118 C112 1.404 . S
C118 H116 0.949 1_655 S
C118 C117 1.385 . S
H119 C117 0.950 . S
H120 C104 0.951 . S
H121 C106 0.951 1_655 S
H122 C108 0.951 . S
H123 C109 0.950 . S
H124 C110 0.950 1_565 S
H125 C111 0.950 1_545 S
H126 C113 0.950 . S
H127 C114 0.951 . S
C128 C129 1.386 . S
C128 C130 1.383 . S
C128 H144 0.951 . S
C129 C128 1.386 . S
C129 C133 1.383 . S
C130 C128 1.383 . S
C130 C131 1.402 . S
C130 H145 0.951 . S
C131 C130 1.402 . S
C131 C132 1.375 . S
C131 C134 1.481 . S
C132 C131 1.375 . S
C132 C133 1.367 . S
C132 H146 0.951 . S
C133 C129 1.383 . S
C133 C132 1.367 . S
C133 H147 0.950 . S
C134 C131 1.481 . S
C134 C135 1.297 . S
C134 H148 0.950 . S
C135 C134 1.297 . S
C135 C136 1.479 . S
C135 H149 0.950 . S
C136 C135 1.479 . S
C136 C137 1.375 . S
C136 C142 1.404 . S
C137 C136 1.375 . S
C137 C138 1.369 . S
C137 H150 0.950 . S
C138 C137 1.369 . S
C138 C139 1.392 . S
C138 H151 0.951 . S
C139 C138 1.392 . S
C139 C141 1.384 . S
H140 C142 0.949 . S
C141 C139 1.384 . S
C141 C142 1.385 . S
C141 H143 0.950 . S
C142 C136 1.404 . S
C142 H140 0.949 . S
C142 C141 1.385 . S
H143 C141 0.950 . S
H144 C128 0.951 . S
H145 C130 0.951 . S
H146 C132 0.951 . S
H147 C133 0.950 . S
H148 C134 0.950 . S
H149 C135 0.950 . S
H150 C137 0.950 . S
H151 C138 0.951 . S
C152 C153 1.386 . S
C152 C154 1.383 . S
C152 H168 0.951 . S
C153 C152 1.386 . S
C153 C157 1.383 . S
C154 C152 1.383 . S
C154 C155 1.402 . S
C154 H169 0.951 . S
C155 C154 1.402 . S
C155 C156 1.375 . S
C155 C158 1.481 . S
C156 C155 1.375 . S
C156 C157 1.367 . S
C156 H170 0.951 . S
C157 C153 1.383 . S
C157 C156 1.367 . S
C157 H171 0.950 . S
C158 C155 1.481 . S
C158 C159 1.297 . S
C158 H172 0.950 . S
C159 C158 1.297 . S
C159 C160 1.479 . S
C159 H173 0.950 . S
C160 C159 1.479 . S
C160 C161 1.375 . S
C160 C166 1.404 . S
C161 C160 1.375 . S
C161 C162 1.369 . S
C161 H174 0.950 . S
C162 C161 1.369 . S
C162 C163 1.392 . S
C162 H175 0.951 . S
C163 C162 1.392 . S
C163 C165 1.384 . S
H164 C166 0.949 . S
C165 C163 1.384 . S
C165 C166 1.385 . S
C165 H167 0.950 . S
C166 C160 1.404 . S
C166 H164 0.949 . S
C166 C165 1.385 . S
H167 C165 0.950 . S
H168 C152 0.951 . S
H169 C154 0.951 . S
H170 C156 0.951 . S
H171 C157 0.950 . S
H172 C158 0.950 . S
H173 C159 0.950 . S
H174 C161 0.950 . S
H175 C162 0.951 . S
C176 C177 1.386 . S
C176 C178 1.383 . S
C176 H192 0.951 . S
C177 C176 1.386 . S
C177 C181 1.383 . S
C178 C176 1.383 . S
C178 C179 1.402 . S
C178 H193 0.951 . S
C179 C178 1.402 . S
C179 C180 1.375 . S
C179 C182 1.481 1_545 S
C180 C179 1.375 . S
C180 C181 1.367 . S
C180 H194 0.951 . S
C181 C177 1.383 . S
C181 C180 1.367 . S
C181 H195 0.950 . S
C182 C179 1.481 1_565 S
C182 C183 1.297 1_455 S
C182 H196 0.950 . S
C183 C182 1.297 1_655 S
C183 C184 1.479 . S
C183 H197 0.950 1_655 S
C184 C183 1.479 . S
C184 C185 1.375 . S
C184 C190 1.404 . S
C185 C184 1.375 . S
C185 C186 1.369 . S
C185 H198 0.950 . S
C186 C185 1.369 . S
C186 C187 1.392 . S
C186 H199 0.951 . S
C187 C186 1.392 . S
C187 C189 1.384 . S
H188 C190 0.949 . S
C189 C187 1.384 . S
C189 C190 1.385 . S
C189 H191 0.950 . S
C190 C184 1.404 . S
C190 H188 0.949 . S
C190 C189 1.385 . S
H191 C189 0.950 . S
H192 C176 0.951 . S
H193 C178 0.951 . S
H194 C180 0.951 . S
H195 C181 0.950 . S
H196 C182 0.950 . S
H197 C183 0.950 1_455 S
H198 C185 0.950 . S
H199 C186 0.951 . S
C200 C201 1.386 . S
C200 C202 1.383 . S
C200 H216 0.951 . S
C201 C200 1.386 . S
C201 C205 1.383 . S
C202 C200 1.383 . S
C202 C203 1.402 . S
C202 H217 0.951 . S
C203 C202 1.402 . S
C203 C204 1.375 . S
C203 C206 1.481 . S
C204 C203 1.375 . S
C204 C205 1.367 . S
C204 H218 0.951 . S
C205 C201 1.383 . S
C205 C204 1.367 . S
C205 H219 0.950 . S
C206 C203 1.481 . S
C206 C207 1.297 . S
C206 H220 0.950 . S
C207 C206 1.297 . S
C207 C208 1.479 . S
C207 H221 0.950 . S
C208 C207 1.479 . S
C208 C209 1.375 . S
C208 C214 1.404 . S
C209 C208 1.375 . S
C209 C210 1.369 . S
C209 H222 0.950 . S
C210 C209 1.369 . S
C210 C211 1.392 . S
C210 H223 0.951 . S
C211 C210 1.392 . S
C211 C213 1.384 . S
H212 C214 0.949 . S
C213 C211 1.384 . S
C213 C214 1.385 . S
C213 H215 0.950 . S
C214 C208 1.404 . S
C214 H212 0.949 . S
C214 C213 1.385 . S
H215 C213 0.950 . S
H216 C200 0.951 . S
H217 C202 0.951 . S
H218 C204 0.951 . S
H219 C205 0.950 . S
H220 C206 0.950 . S
H221 C207 0.950 . S
H222 C209 0.950 . S
H223 C210 0.951 . S
C224 C225 1.386 . S
C224 C226 1.383 . S
C224 H240 0.951 . S
C225 C224 1.386 . S
C225 C229 1.383 . S
C226 C224 1.383 . S
C226 C227 1.402 . S
C226 H241 0.951 . S
C227 C226 1.402 . S
C227 C228 1.375 . S
C227 C230 1.481 . S
C228 C227 1.375 . S
C228 C229 1.367 . S
C228 H242 0.951 . S
C229 C225 1.383 . S
C229 C228 1.367 . S
C229 H243 0.950 . S
C230 C227 1.481 . S
C230 C231 1.297 1_556 S
C230 H244 0.950 . S
C231 C230 1.297 1_554 S
C231 C232 1.479 . S
C231 H245 0.950 1_554 S
C232 C231 1.479 . S
C232 C233 1.375 . S
C232 C238 1.404 . S
C233 C232 1.375 . S
C233 C234 1.369 . S
C233 H246 0.950 . S
C234 C233 1.369 . S
C234 C235 1.392 . S
C234 H247 0.951 . S
C235 C234 1.392 . S
C235 C237 1.384 . S
H236 C238 0.949 . S
C237 C235 1.384 . S
C237 C238 1.385 . S
C237 H239 0.950 . S
C238 C232 1.404 . S
C238 H236 0.949 . S
C238 C237 1.385 . S
H239 C237 0.950 . S
H240 C224 0.951 . S
H241 C226 0.951 . S
H242 C228 0.951 . S
H243 C229 0.950 . S
H244 C230 0.950 . S
H245 C231 0.950 1_556 S
H246 C233 0.950 . S
H247 C234 0.951 . S
C248 C249 1.386 . S
C248 C250 1.383 . S
C248 H264 0.951 . S
C249 C248 1.386 . S
C249 C253 1.383 . S
C250 C248 1.383 . S
C250 C251 1.402 . S
C250 H265 0.951 . S
C251 C250 1.402 . S
C251 C252 1.375 . S
C251 C254 1.481 . S
C252 C251 1.375 . S
C252 C253 1.367 . S
C252 H266 0.951 . S
C253 C249 1.383 . S
C253 C252 1.367 . S
C253 H267 0.950 . S
C254 C251 1.481 . S
C254 C255 1.297 . S
C254 H268 0.950 . S
C255 C254 1.297 . S
C255 C256 1.479 . S
C255 H269 0.950 . S
C256 C255 1.479 . S
C256 C257 1.375 . S
C256 C262 1.404 . S
C257 C256 1.375 . S
C257 C258 1.369 . S
C257 H270 0.950 . S
C258 C257 1.369 . S
C258 C259 1.392 . S
C258 H271 0.951 . S
C259 C258 1.392 . S
C259 C261 1.384 . S
H260 C262 0.949 . S
C261 C259 1.384 . S
C261 C262 1.385 . S
C261 H263 0.950 . S
C262 C256 1.404 . S
C262 H260 0.949 . S
C262 C261 1.385 . S
H263 C261 0.950 . S
H264 C248 0.951 . S
H265 C250 0.951 . S
H266 C252 0.951 . S
H267 C253 0.950 . S
H268 C254 0.950 . S
H269 C255 0.950 . S
H270 C257 0.950 . S
H271 C258 0.951 . S
C272 C273 1.386 . S
C272 C274 1.383 . S
C272 H288 0.951 . S
C273 C272 1.386 . S
C273 C277 1.383 . S
C274 C272 1.383 . S
C274 C275 1.402 . S
C274 H289 0.951 . S
C275 C274 1.402 . S
C275 C276 1.375 . S
C275 C278 1.481 . S
C276 C275 1.375 . S
C276 C277 1.367 . S
C276 H290 0.951 . S
C277 C273 1.383 . S
C277 C276 1.367 . S
C277 H291 0.950 . S
C278 C275 1.481 . S
C278 C279 1.297 1_556 S
C278 H292 0.950 1_556 S
C279 C278 1.297 1_554 S
C279 C280 1.479 . S
C279 H293 0.950 . S
C280 C279 1.479 . S
C280 C281 1.375 . S
C280 C286 1.404 . S
C281 C280 1.375 . S
C281 C282 1.369 . S
C281 H294 0.950 . S
C282 C281 1.369 . S
C282 C283 1.392 . S
C282 H295 0.951 . S
C283 C282 1.392 . S
C283 C285 1.384 . S
H284 C286 0.949 . S
C285 C283 1.384 . S
C285 C286 1.385 . S
C285 H287 0.950 . S
C286 C280 1.404 . S
C286 H284 0.949 . S
C286 C285 1.385 . S
H287 C285 0.950 . S
H288 C272 0.951 . S
H289 C274 0.951 . S
H290 C276 0.951 . S
H291 C277 0.950 . S
H292 C278 0.950 1_554 S
H293 C279 0.950 . S
H294 C281 0.950 . S
H295 C282 0.951 . S
C296 C297 1.386 . S
C296 C298 1.383 . S
C296 H312 0.951 . S
C297 C296 1.386 . S
C297 C301 1.383 . S
C298 C296 1.383 . S
C298 C299 1.402 . S
C298 H313 0.951 . S
C299 C298 1.402 . S
C299 C300 1.375 . S
C299 C302 1.481 . S
C300 C299 1.375 . S
C300 C301 1.367 . S
C300 H314 0.951 . S
C301 C297 1.383 . S
C301 C300 1.367 . S
C301 H315 0.950 . S
C302 C299 1.481 . S
C302 C303 1.297 . S
C302 H316 0.950 . S
C303 C302 1.297 . S
C303 C304 1.479 . S
C303 H317 0.950 . S
C304 C303 1.479 . S
C304 C305 1.375 . S
C304 C310 1.404 . S
C305 C304 1.375 . S
C305 C306 1.369 . S
C305 H318 0.950 . S
C306 C305 1.369 . S
C306 C307 1.392 . S
C306 H319 0.951 . S
C307 C306 1.392 . S
C307 C309 1.384 . S
H308 C310 0.949 . S
C309 C307 1.384 . S
C309 C310 1.385 . S
C309 H311 0.950 . S
C310 C304 1.404 . S
C310 H308 0.949 . S
C310 C309 1.385 . S
H311 C309 0.950 . S
H312 C296 0.951 . S
H313 C298 0.951 . S
H314 C300 0.951 . S
H315 C301 0.950 . S
H316 C302 0.950 . S
H317 C303 0.950 . S
H318 C305 0.950 . S
H319 C306 0.951 . S
C320 C321 1.386 . S
C320 C322 1.383 . S
C320 H336 0.951 . S
C321 C320 1.386 . S
C321 C325 1.383 . S
C322 C320 1.383 . S
C322 C323 1.402 . S
C322 H337 0.951 . S
C323 C322 1.402 . S
C323 C324 1.375 . S
C323 C326 1.481 . S
C324 C323 1.375 . S
C324 C325 1.367 . S
C324 H338 0.951 . S
C325 C321 1.383 . S
C325 C324 1.367 . S
C325 H339 0.950 . S
C326 C323 1.481 . S
C326 C327 1.297 . S
C326 H340 0.950 . S
C327 C326 1.297 . S
C327 C328 1.479 . S
C327 H341 0.950 . S
C328 C327 1.479 . S
C328 C329 1.375 . S
C328 C334 1.404 . S
C329 C328 1.375 . S
C329 C330 1.369 1_565 S
C329 H342 0.950 . S
C330 C329 1.369 1_545 S
C330 C331 1.392 . S
C330 H343 0.951 . S
C331 C330 1.392 . S
C331 C333 1.384 1_545 S
H332 C334 0.949 . S
C333 C331 1.384 1_565 S
C333 C334 1.385 . S
C333 H335 0.950 1_565 S
C334 C328 1.404 . S
C334 H332 0.949 . S
C334 C333 1.385 . S
H335 C333 0.950 1_545 S
H336 C320 0.951 . S
H337 C322 0.951 . S
H338 C324 0.951 . S
H339 C325 0.950 . S
H340 C326 0.950 . S
H341 C327 0.950 . S
H342 C329 0.950 . S
H343 C330 0.951 . S
C344 C345 1.386 . S
C344 C346 1.383 . S
C344 H360 0.951 . S
C345 C344 1.386 . S
C345 C349 1.383 . S
C346 C344 1.383 . S
C346 C347 1.402 . S
C346 H361 0.951 . S
C347 C346 1.402 . S
C347 C348 1.375 . S
C347 C350 1.481 . S
C348 C347 1.375 . S
C348 C349 1.367 . S
C348 H362 0.951 . S
C349 C345 1.383 . S
C349 C348 1.367 . S
C349 H363 0.950 . S
C350 C347 1.481 . S
C350 C351 1.297 . S
C350 H364 0.950 . S
C351 C350 1.297 . S
C351 C352 1.479 . S
C351 H365 0.950 . S
C352 C351 1.479 . S
C352 C353 1.375 . S
C352 C358 1.404 . S
C353 C352 1.375 . S
C353 C354 1.369 . S
C353 H366 0.950 . S
C354 C353 1.369 . S
C354 C355 1.392 . S
C354 H367 0.951 . S
C355 C354 1.392 . S
C355 C357 1.384 . S
H356 C358 0.949 . S
C357 C355 1.384 . S
C357 C358 1.385 . S
C357 H359 0.950 . S
C358 C352 1.404 . S
C358 H356 0.949 . S
C358 C357 1.385 . S
H359 C357 0.950 . S
H360 C344 0.951 . S
H361 C346 0.951 . S
H362 C348 0.951 . S
H363 C349 0.950 . S
H364 C350 0.950 . S
H365 C351 0.950 . S
H366 C353 0.950 . S
H367 C354 0.951 . S
C368 C369 1.386 . S
C368 C370 1.383 . S
C368 H384 0.951 . S
C369 C368 1.386 . S
C369 C373 1.383 . S
C370 C368 1.383 . S
C370 C371 1.402 . S
C370 H385 0.951 . S
C371 C370 1.402 . S
C371 C372 1.375 . S
C371 C374 1.481 . S
C372 C371 1.375 . S
C372 C373 1.367 . S
C372 H386 0.951 . S
C373 C369 1.383 . S
C373 C372 1.367 . S
C373 H387 0.950 . S
C374 C371 1.481 . S
C374 C375 1.297 . S
C374 H388 0.950 . S
C375 C374 1.297 . S
C375 C376 1.479 . S
C375 H389 0.950 . S
C376 C375 1.479 . S
C376 C377 1.375 . S
C376 C382 1.404 . S
C377 C376 1.375 . S
C377 C378 1.387 . S
C377 H390 0.950 . S
C378 C377 1.387 . S
C378 C379 1.383 1_545 S
C378 H391 0.941 1_545 S
C379 C378 1.383 1_565 S
C379 C381 1.384 1_565 S
H380 C382 0.949 . S
C381 C379 1.384 1_545 S
C381 C382 1.385 . S
C381 H383 0.950 1_545 S
C382 C376 1.404 . S
C382 H380 0.949 . S
C382 C381 1.385 . S
H383 C381 0.950 1_565 S
H384 C368 0.951 . S
H385 C370 0.951 . S
H386 C372 0.951 . S
H387 C373 0.950 . S
H388 C374 0.950 . S
H389 C375 0.950 . S
H390 C377 0.950 . S
H391 C378 0.941 1_565 S
C392 C393 1.383 1_655 S
C392 C394 1.387 . S
C392 H408 0.949 1_655 S
C393 C392 1.383 1_455 S
C393 C397 1.383 . S
C394 C392 1.387 . S
C394 C395 1.402 . S
C394 H409 0.951 . S
C395 C394 1.402 . S
C395 C396 1.375 . S
C395 C398 1.481 . S
C396 C395 1.375 . S
C396 C397 1.367 1_655 S
C396 H410 0.951 . S
C397 C393 1.383 . S
C397 C396 1.367 1_455 S
C397 H411 0.950 . S
C398 C395 1.481 . S
C398 C399 1.297 . S
C398 H412 0.950 . S
C399 C398 1.297 . S
C399 C400 1.479 . S
C399 H413 0.950 . S
C400 C399 1.479 . S
C400 C401 1.375 . S
C400 C406 1.404 . S
C401 C400 1.375 . S
C401 C402 1.369 . S
C401 H414 0.950 . S
C402 C401 1.369 . S
C402 C403 1.392 . S
C402 H415 0.951 . S
C403 C402 1.392 . S
C403 C405 1.384 . S
H404 C406 0.949 . S
C405 C403 1.384 . S
C405 C406 1.385 . S
C405 H407 0.950 . S
C406 C400 1.404 . S
C406 H404 0.949 . S
C406 C405 1.385 . S
H407 C405 0.950 . S
H408 C392 0.949 1_455 S
H409 C394 0.951 . S
H410 C396 0.951 . S
H411 C397 0.950 . S
H412 C398 0.950 . S
H413 C399 0.950 . S
H414 C401 0.950 . S
H415 C402 0.951 . S
C416 C417 1.386 . S
C416 C418 1.383 . S
C416 H432 0.951 . S
C417 C416 1.386 . S
C417 C421 1.383 . S
C418 C416 1.383 . S
C418 C419 1.402 . S
C418 H433 0.951 . S
C419 C418 1.402 . S
C419 C420 1.375 . S
C419 C422 1.481 . S
C420 C419 1.375 . S
C420 C421 1.367 . S
C420 H434 0.951 . S
C421 C417 1.383 . S
C421 C420 1.367 . S
C421 H435 0.950 . S
C422 C419 1.481 . S
C422 C423 1.297 . S
C422 H436 0.950 . S
C423 C422 1.297 . S
C423 C424 1.479 . S
C423 H437 0.950 . S
C424 C423 1.479 . S
C424 C425 1.375 . S
C424 C430 1.404 . S
C425 C424 1.375 . S
C425 C426 1.369 . S
C425 H438 0.950 . S
C426 C425 1.369 . S
C426 C427 1.392 . S
C426 H439 0.951 . S
C427 C426 1.392 . S
C427 C429 1.384 . S
H428 C430 0.949 . S
C429 C427 1.384 . S
C429 C430 1.385 . S
C429 H431 0.950 . S
C430 C424 1.404 . S
C430 H428 0.949 . S
C430 C429 1.385 . S
H431 C429 0.950 . S
H432 C416 0.951 . S
H433 C418 0.951 . S
H434 C420 0.951 . S
H435 C421 0.950 . S
H436 C422 0.950 . S
H437 C423 0.950 . S
H438 C425 0.950 . S
H439 C426 0.951 . S
C440 C441 1.386 . S
C440 C442 1.383 . S
C440 H456 0.951 . S
C441 C440 1.386 . S
C441 C445 1.383 . S
C442 C440 1.383 . S
C442 C443 1.402 . S
C442 H457 0.951 . S
C443 C442 1.402 . S
C443 C444 1.375 . S
C443 C446 1.481 . S
C444 C443 1.375 . S
C444 C445 1.367 . S
C444 H458 0.951 . S
C445 C441 1.383 . S
C445 C444 1.367 . S
C445 H459 0.950 . S
C446 C443 1.481 . S
C446 C447 1.297 . S
C446 H460 0.950 . S
C447 C446 1.297 . S
C447 C448 1.479 . S
C447 H461 0.950 . S
C448 C447 1.479 . S
C448 C449 1.375 . S
C448 C454 1.404 . S
C449 C448 1.375 . S
C449 C450 1.369 1_455 S
C449 H462 0.950 . S
C450 C449 1.369 1_655 S
C450 C451 1.392 . S
C450 H463 0.951 . S
C451 C450 1.392 . S
C451 C453 1.384 . S
H452 C454 0.949 . S
C453 C451 1.384 . S
C453 C454 1.385 1_655 S
C453 H455 0.950 . S
C454 C448 1.404 . S
C454 H452 0.949 . S
C454 C453 1.385 1_455 S
H455 C453 0.950 . S
H456 C440 0.951 . S
H457 C442 0.951 . S
H458 C444 0.951 . S
H459 C445 0.950 . S
H460 C446 0.950 . S
H461 C447 0.950 . S
H462 C449 0.950 . S
H463 C450 0.951 . S
C464 C465 1.386 . S
C464 C466 1.383 . S
C464 H480 0.951 . S
C465 C464 1.386 . S
C465 C469 1.383 . S
C466 C464 1.383 . S
C466 C467 1.402 . S
C466 H481 0.951 . S
C467 C466 1.402 . S
C467 C468 1.375 . S
C467 C470 1.481 . S
C468 C467 1.375 . S
C468 C469 1.367 . S
C468 H482 0.951 . S
C469 C465 1.383 . S
C469 C468 1.367 . S
C469 H483 0.950 . S
C470 C467 1.481 . S
C470 C471 1.297 . S
C470 H484 0.950 . S
C471 C470 1.297 . S
C471 C472 1.479 . S
C471 H485 0.950 . S
C472 C471 1.479 . S
C472 C473 1.375 . S
C472 C478 1.404 . S
C473 C472 1.375 . S
C473 C474 1.369 . S
C473 H486 0.950 . S
C474 C473 1.369 . S
C474 C475 1.392 . S
C474 H487 0.951 . S
C475 C474 1.392 . S
C475 C477 1.384 . S
H476 C478 0.949 . S
C477 C475 1.384 . S
C477 C478 1.385 . S
C477 H479 0.950 . S
C478 C472 1.404 . S
C478 H476 0.949 . S
C478 C477 1.385 . S
H479 C477 0.950 . S
H480 C464 0.951 . S
H481 C466 0.951 . S
H482 C468 0.951 . S
H483 C469 0.950 . S
H484 C470 0.950 . S
H485 C471 0.950 . S
H486 C473 0.950 . S
H487 C474 0.951 . S
C105 C5 0.732 . S
C115 C29 0.734 . S
C129 C16 0.732 . S
C139 C42 0.735 . S
C153 C55 0.728 . S
C163 C81 0.736 . S
C177 C68 0.726 . S
C187 C94 0.735 . S
C201 C10 1.464 . S
C211 C69 1.446 . S
C225 C17 1.473 . S
C235 C82 1.463 . S
C249 C95 1.471 . S
C259 C30 1.480 . S
C273 C43 1.456 . S
C283 C56 1.460 . S
C297 C57 1.721 . S
C307 C4 1.709 . S
C321 C23 1.739 . S
C331 C70 1.694 . S
C345 C36 1.710 . S
C355 C83 1.726 . S
C369 C49 1.741 . S
C379 C96 1.688 . S
C393 C3 1.684 . S
C403 C62 1.718 . S
C417 C75 1.739 . S
C427 C18 1.694 . S
C441 C88 1.717 . S
C451 C31 1.688 . S
C465 C44 1.718 . S
C475 C101 1.688 . S
