# Generated by pormake.
# Topology cab, (5)-cn, num edge types: 1
# Building blocks:
#     Node 0, Type 0, BuildingBlock: XOMCOT_clean_sbu_1, # of connection points: 5
#     Node 1, Type 0, BuildingBlock: XOMCOT_clean_sbu_1, # of connection points: 5
#     Node 2, Type 0, BuildingBlock: XOMCOT_clean_sbu_1, # of connection points: 5
#     Node 3, Type 0, BuildingBlock: XOMCOT_clean_sbu_1, # of connection points: 5
#     Node 4, Type 0, BuildingBlock: XOMCOT_clean_sbu_1, # of connection points: 5
#     Node 5, Type 0, BuildingBlock: XOMCOT_clean_sbu_1, # of connection points: 5
#     Edge 6, Type (0, 0), BuildingBlock: XUDNAN_clean_linker_2, # of connection points: 2
#     Edge 7, Type (0, 0), BuildingBlock: XUDNAN_clean_linker_2, # of connection points: 2
#     Edge 8, Type (0, 0), BuildingBlock: XUDNAN_clean_linker_2, # of connection points: 2
#     Edge 9, Type (0, 0), BuildingBlock: XUDNAN_clean_linker_2, # of connection points: 2
#     Edge 10, Type (0, 0), BuildingBlock: XUDNAN_clean_linker_2, # of connection points: 2
#     Edge 11, Type (0, 0), BuildingBlock: XUDNAN_clean_linker_2, # of connection points: 2
#     Edge 12, Type (0, 0), BuildingBlock: XUDNAN_clean_linker_2, # of connection points: 2
#     Edge 13, Type (0, 0), BuildingBlock: XUDNAN_clean_linker_2, # of connection points: 2
#     Edge 14, Type (0, 0), BuildingBlock: XUDNAN_clean_linker_2, # of connection points: 2
#     Edge 15, Type (0, 0), BuildingBlock: XUDNAN_clean_linker_2, # of connection points: 2
#     Edge 16, Type (0, 0), BuildingBlock: XUDNAN_clean_linker_2, # of connection points: 2
#     Edge 17, Type (0, 0), BuildingBlock: XUDNAN_clean_linker_2, # of connection points: 2
#     Edge 18, Type (0, 0), BuildingBlock: XUDNAN_clean_linker_2, # of connection points: 2
#     Edge 19, Type (0, 0), BuildingBlock: XUDNAN_clean_linker_2, # of connection points: 2
#     Edge 20, Type (0, 0), BuildingBlock: XUDNAN_clean_linker_2, # of connection points: 2
# Relax obj value: 0.864
# Max RMSD: 0.209
# Mean RMSD: 0.207
data_MOF--net-cab--node1-XOMCOT_clean_sbu_1--edge1-XUDNAN_clean_linker_2
_symmetry_space_group_name_H-M    P1
_symmetry_Int_Tables_number       1
_symmetry_cell_setting            triclinic
loop_
_symmetry_equiv_pos_as_xyz
'x, y, z'
_cell_length_a     35.955396
_cell_length_b     35.970759
_cell_length_c     35.879399
_cell_angle_alpha  80.080259
_cell_angle_beta   69.516295
_cell_angle_gamma 80.051539
loop_
_atom_site_label
_atom_site_type_symbol
_atom_site_fract_x
_atom_site_fract_y
_atom_site_fract_z
_atom_type_partial_charge
C0 C 0.07244 0.96003 0.47883 0.0
C1 C 0.08716 0.92203 0.47707 0.0
N2 N 0.0987 0.91532 0.43861 0.0
N3 N 0.07511 0.977 0.44154 0.0
C4 C 0.09191 0.94923 0.41778 0.0
H5 H 0.05777 0.97352 0.50584 0.0
Co6 Co 0.05018 0.02362 0.42559 0.0
C7 C 0.11693 0.05885 0.35951 0.0
O8 O 0.10486 0.09257 0.37198 0.0
N9 N 0.02374 0.07016 0.40882 0.0
C10 C 0.98279 0.12362 0.4047 0.0
C11 C 0.99461 0.09486 0.43028 0.0
C12 C 0.02725 0.08369 0.37029 0.0
N13 N 0.00366 0.11668 0.36685 0.0
O14 O 0.0295 0.99986 0.39544 0.0
H15 H 0.98129 0.09209 0.46242 0.0
H16 H 0.04696 0.06946 0.34509 0.0
O17 O 0.0982 0.03052 0.37876 0.0
C18 C 0.00011 0.98112 0.41407 0.0
O19 O 0.98995 0.9732 0.45322 0.0
N20 N 0.06777 0.04715 0.45756 0.0
C21 C 0.07856 0.09347 0.50647 0.0
C22 C 0.11134 0.0787 0.47539 0.0
C23 C 0.10535 0.05505 0.45143 0.0
C24 C 0.03728 0.05626 0.49104 0.0
C25 C 0.04138 0.08074 0.5149 0.0
H26 H 0.13072 0.04368 0.42787 0.0
H27 H 0.0088 0.04595 0.49798 0.0
H28 H 0.09605 0.95324 0.38604 0.0
H29 H 0.08604 0.90047 0.50242 0.0
H30 H 0.95985 0.14727 0.41344 0.0
H31 H 0.14127 0.08535 0.46945 0.0
H32 H 0.01512 0.09027 0.53885 0.0
C33 C 0.10438 0.04871 0.82534 0.0
C34 C 0.06952 0.04738 0.85757 0.0
N35 N 0.07418 0.06215 0.88751 0.0
N36 N 0.13078 0.0642 0.83504 0.0
C37 C 0.11162 0.07196 0.87311 0.0
H38 H 0.11028 0.03888 0.79673 0.0
Co39 Co 0.18275 0.07101 0.80298 0.0
C40 C 0.20457 0.11488 0.85173 0.0
O41 O 0.23495 0.08927 0.85347 0.0
N42 N 0.23503 0.0782 0.77068 0.0
C43 C 0.28817 0.10584 0.73105 0.0
C44 C 0.24785 0.11157 0.75097 0.0
C45 C 0.26809 0.05264 0.76234 0.0
N46 N 0.30105 0.06877 0.73851 0.0
O47 O 0.20101 0.03434 0.83983 0.0
H48 H 0.22924 0.13869 0.75195 0.0
H49 H 0.26844 0.02328 0.77567 0.0
O50 O 0.18231 0.11059 0.83233 0.0
C51 C 0.19878 0.99929 0.84073 0.0
O52 O 0.19002 0.98842 0.81196 0.0
N53 N 0.16338 0.1058 0.76751 0.0
C54 C 0.13826 0.15435 0.70996 0.0
C55 C 0.12511 0.1631 0.74934 0.0
C56 C 0.13835 0.13833 0.7779 0.0
C57 C 0.17503 0.09631 0.72966 0.0
C58 C 0.16345 0.12063 0.70015 0.0
H59 H 0.12773 0.1448 0.80848 0.0
H60 H 0.19374 0.06981 0.72239 0.0
H61 H 0.12517 0.08366 0.89037 0.0
H62 H 0.04275 0.03664 0.85875 0.0
H63 H 0.30687 0.12771 0.71419 0.0
H64 H 0.10425 0.18819 0.758 0.0
H65 H 0.17266 0.11241 0.67024 0.0
C66 C 0.3838 0.09756 0.05164 0.0
C67 C 0.35718 0.10256 0.0896 0.0
N68 N 0.33157 0.07632 0.10016 0.0
N69 N 0.37477 0.06834 0.03867 0.0
C70 C 0.3424 0.05669 0.06853 0.0
H71 H 0.40898 0.11316 0.03525 0.0
Co72 Co 0.40178 0.0451 0.99231 0.0
C73 C 0.362 0.97658 0.00963 0.0
O74 O 0.35607 0.98356 0.97484 0.0
N75 N 0.42907 0.02069 0.94631 0.0
C76 C 0.46642 0.9767 0.90748 0.0
C77 C 0.45108 0.98611 0.9459 0.0
C78 C 0.43188 0.03184 0.9077 0.0
N79 N 0.45438 0.00558 0.88348 0.0
O80 O 0.35614 0.06237 0.9758 0.0
H81 H 0.45503 0.96835 0.97214 0.0
H82 H 0.41612 0.05781 0.89765 0.0
O83 O 0.38034 0.99869 0.01917 0.0
C84 C 0.35684 0.09587 0.95722 0.0
O85 O 0.39051 0.11098 0.94467 0.0
N86 N 0.44605 0.03125 0.00861 0.0
C87 C 0.51627 0.01453 0.02695 0.0
C88 C 0.48148 0.99923 0.05251 0.0
C89 C 0.44643 0.0081 0.04285 0.0
C90 C 0.47919 0.04709 0.98394 0.0
C91 C 0.51489 0.03863 0.99221 0.0
H92 H 0.41956 0.99695 0.06317 0.0
H93 H 0.47786 0.06606 0.95741 0.0
H94 H 0.32707 0.03374 0.06754 0.0
H95 H 0.35788 0.12253 0.10865 0.0
H96 H 0.48396 0.95023 0.89812 0.0
H97 H 0.48097 0.9815 0.08029 0.0
H98 H 0.54106 0.05103 0.97169 0.0
C99 C 0.10886 0.32823 0.10997 0.0
C100 C 0.14387 0.30354 0.0998 0.0
N101 N 0.15526 0.30078 0.0603 0.0
N102 N 0.09782 0.3403 0.07716 0.0
C103 C 0.12757 0.32407 0.04736 0.0
H104 H 0.09101 0.33424 0.13999 0.0
Co105 Co 0.04691 0.36136 0.07463 0.0
C106 C 0.04934 0.32196 0.00355 0.0
O107 O 0.02451 0.34333 0.98688 0.0
N108 N -0.00432 0.38149 0.07125 0.0
C109 C 0.94718 0.40637 0.04557 0.0
C110 C 0.98665 0.40644 0.04186 0.0
C111 C 0.96073 0.36769 0.09287 0.0
N112 N 0.93107 0.38188 0.07779 0.0
O113 O 0.02573 0.31945 0.11132 0.0
H114 H 0.00801 0.42126 0.01701 0.0
H115 H 0.95751 0.34457 0.11682 0.0
O116 O 0.05483 0.33153 0.03344 0.0
C117 C 0.01311 0.32029 0.14899 0.0
O118 O 0.01066 0.35235 0.16306 0.0
N119 N 0.0695 0.40234 0.0399 0.0
C120 C 0.1148 0.46192 0.00413 0.0
C121 C 0.11856 0.43139 0.98303 0.0
C122 C 0.09493 0.40192 0.00132 0.0
C123 C 0.06381 0.43288 0.05975 0.0
C124 C 0.08582 0.46329 0.04221 0.0
H125 H 0.0992 0.3779 0.98535 0.0
H126 H 0.04385 0.4324 0.09041 0.0
H127 H 0.12697 0.32586 0.01728 0.0
H128 H 0.15838 0.28722 0.12029 0.0
H129 H 0.93242 0.42092 0.02456 0.0
H130 H 0.1408 0.42949 0.95361 0.0
H131 H 0.08253 0.48618 0.05963 0.0
C132 C 0.74543 0.13659 0.23717 0.0
C133 C 0.74491 0.17501 0.22475 0.0
N134 N 0.77256 0.17985 0.18817 0.0
N135 N 0.77375 0.11752 0.2088 0.0
C136 C 0.78966 0.14467 0.17914 0.0
H137 H 0.72737 0.12335 0.26569 0.0
Co138 Co 0.78787 0.06553 0.21543 0.0
C139 C 0.85449 0.04656 0.14252 0.0
O140 O 0.8377 0.01641 0.14393 0.0
N141 N 0.8023 0.01217 0.22434 0.0
C142 C 0.80499 0.94964 0.24326 0.0
C143 C 0.78092 0.98222 0.23592 0.0
C144 C 0.83895 0.99683 0.22591 0.0
N145 N 0.84144 0.95905 0.23716 0.0
O146 O 0.81501 0.07154 0.24981 0.0
H147 H 0.74952 0.98338 0.24056 0.0
H148 H 0.8635 0.01334 0.21902 0.0
O149 O 0.83768 0.06938 0.16911 0.0
C150 C 0.79768 0.05962 0.28634 0.0
O151 O 0.76069 0.05181 0.29722 0.0
N152 N 0.75859 0.06001 0.18344 0.0
C153 C 0.71322 0.04158 0.14262 0.0
C154 C 0.74594 0.06174 0.12196 0.0
C155 C 0.76793 0.07146 0.14323 0.0
C156 C 0.72349 0.04577 0.20441 0.0
C157 C 0.70089 0.03503 0.18448 0.0
H158 H 0.7928 0.08739 0.12712 0.0
H159 H 0.71392 0.04131 0.23679 0.0
H160 H 0.8146 0.13909 0.15231 0.0
H161 H 0.72646 0.19768 0.24159 0.0
H162 H 0.79596 0.92144 0.25354 0.0
H163 H 0.75505 0.0689 0.08971 0.0
H164 H 0.67429 0.02153 0.20152 0.0
C165 C 0.12736 0.73917 0.09327 0.0
C166 C 0.1282 0.76569 0.06031 0.0
N167 N 0.13956 0.79768 0.06564 0.0
N168 N 0.13862 0.75433 0.1189 0.0
C169 C 0.14518 0.79003 0.10155 0.0
H170 H 0.12026 0.71037 0.09769 0.0
Co171 Co 0.14719 0.7316 0.16645 0.0
C172 C 0.196 0.78371 0.17629 0.0
O173 O 0.17195 0.7865 0.21319 0.0
N174 N 0.15604 0.7093 0.21451 0.0
C175 C 0.18877 0.69605 0.25839 0.0
C176 C 0.19172 0.69549 0.21916 0.0
C177 C 0.13152 0.71565 0.25167 0.0
N178 N 0.15107 0.71004 0.27856 0.0
O179 O 0.10926 0.77071 0.19321 0.0
H180 H 0.21932 0.69049 0.19472 0.0
H181 H 0.10101 0.72888 0.25793 0.0
O182 O 0.1898 0.76201 0.15508 0.0
C183 C 0.07282 0.76743 0.19961 0.0
O184 O 0.06434 0.73713 0.18977 0.0
N185 N 0.18228 0.69323 0.13914 0.0
C186 C 0.21213 0.63939 0.08607 0.0
C187 C 0.22874 0.67355 0.07734 0.0
C188 C 0.21346 0.7003 0.10467 0.0
C189 C 0.16834 0.65879 0.14953 0.0
C190 C 0.18317 0.63119 0.12342 0.0
H191 H 0.22352 0.7281 0.09592 0.0
H192 H 0.14292 0.65416 0.17632 0.0
H193 H 0.15532 0.80968 0.11447 0.0
H194 H 0.12146 0.76149 0.03432 0.0
H195 H 0.21378 0.69183 0.26947 0.0
H196 H 0.25048 0.68091 0.0483 0.0
H197 H 0.16928 0.60526 0.13054 0.0
H198 H 0.98351 0.31189 0.23096 0.0
H199 H 0.02781 0.24808 0.12853 0.0
H200 H 0.02485 0.18811 0.17406 0.0
H201 H 0.03859 0.25625 0.28615 0.0
H202 H 0.00029 0.25895 0.33443 0.0
H203 H 0.00059 0.29673 0.29438 0.0
H204 H 0.92798 0.2887 0.30172 0.0
H205 H 0.92726 0.25105 0.34216 0.0
H206 H 0.91616 0.24266 0.29928 0.0
H207 H 0.02617 0.13597 0.22971 0.0
H208 H 0.02625 0.09488 0.29206 0.0
H209 H 0.97967 0.19263 0.35824 0.0
C210 C 0.99168 0.2853 0.21814 0.0
C211 C 0.00586 0.28464 0.17626 0.0
C212 C 0.01663 0.24927 0.16059 0.0
C213 C 0.01509 0.21503 0.18618 0.0
C214 C 0.00218 0.2167 0.22731 0.0
C215 C 0.99006 0.25088 0.24325 0.0
C216 C 0.97975 0.24494 0.28833 0.0
C217 C 0.0064 0.26542 0.30157 0.0
C218 C 0.93513 0.25758 0.30909 0.0
C219 C 0.98937 0.20222 0.29506 0.0
C220 C 0.00207 0.18644 0.25955 0.0
C221 C 0.01554 0.14789 0.25785 0.0
C222 C 0.01588 0.12484 0.29345 0.0
C223 C 0.00239 0.1403 0.3304 0.0
C224 C 0.98895 0.17957 0.33091 0.0
H225 H 0.87138 0.07633 0.27792 0.0
H226 H 0.78061 0.00394 0.35009 0.0
H227 H 0.82661 0.96942 0.38543 0.0
H228 H 0.95879 0.00795 0.26654 0.0
H229 H 0.98785 0.04106 0.27286 0.0
H230 H 0.94816 0.05814 0.25219 0.0
H231 H 0.91863 0.10332 0.30618 0.0
H232 H 0.95412 0.08435 0.33179 0.0
H233 H 0.90176 0.08428 0.35843 0.0
H234 H 0.88204 0.94456 0.41446 0.0
H235 H 0.93944 0.93628 0.43935 0.0
H236 H 0.99376 0.02354 0.34584 0.0
C237 C 0.86116 0.05324 0.30119 0.0
C238 C 0.82255 0.04282 0.31133 0.0
C239 C 0.81002 0.0127 0.34219 0.0
C240 C 0.8361 0.99254 0.362 0.0
C241 C 0.87443 0.00298 0.35054 0.0
C242 C 0.88664 0.03294 0.32121 0.0
C243 C 0.92774 0.04097 0.31705 0.0
C244 C 0.95737 0.03675 0.27463 0.0
C245 C 0.92539 0.08062 0.32898 0.0
C246 C 0.93748 0.01001 0.34757 0.0
C247 C 0.9063 0.98849 0.36689 0.0
C248 C 0.90693 0.96083 0.39914 0.0
C249 C 0.93965 0.95621 0.41296 0.0
C250 C 0.97115 0.97897 0.39424 0.0
C251 C 0.97063 0.00506 0.36021 0.0
H252 H 0.07459 0.89704 0.38146 0.0
H253 H 0.14048 0.85105 0.46315 0.0
H254 H 0.15552 0.78899 0.43604 0.0
H255 H 0.03229 0.81154 0.38411 0.0
H256 H 0.03769 0.82079 0.33158 0.0
H257 H 0.02983 0.8598 0.36004 0.0
H258 H 0.09436 0.88511 0.30933 0.0
H259 H 0.10219 0.84638 0.28074 0.0
H260 H 0.14093 0.85402 0.29861 0.0
H261 H 0.16816 0.73378 0.3944 0.0
H262 H 0.1775 0.69199 0.34271 0.0
H263 H 0.10206 0.7765 0.29069 0.0
C264 C 0.09232 0.87404 0.39365 0.0
C265 C 0.1069 0.87891 0.42402 0.0
C266 C 0.12912 0.84776 0.43982 0.0
C267 C 0.13769 0.81252 0.42466 0.0
C268 C 0.12321 0.80892 0.3942 0.0
C269 C 0.10081 0.83896 0.37913 0.0
C270 C 0.09034 0.82903 0.34513 0.0
C271 C 0.04483 0.83036 0.35589 0.0
C272 C 0.10803 0.85517 0.30617 0.0
C273 C 0.11092 0.7888 0.34276 0.0
C274 C 0.12961 0.7774 0.37129 0.0
C275 C 0.15307 0.74225 0.37238 0.0
C276 C 0.15823 0.7187 0.34297 0.0
C277 C 0.14004 0.73045 0.31293 0.0
C278 C 0.11537 0.76567 0.31377 0.0
H279 H 0.28361 0.12508 0.15295 0.0
H280 H 0.31363 0.00598 0.13488 0.0
H281 H 0.26279 0.98878 0.19956 0.0
H282 H 0.26505 0.1112 0.26021 0.0
H283 H 0.2233 0.14815 0.2707 0.0
H284 H 0.26274 0.15136 0.22296 0.0
H285 H 0.21075 0.15774 0.18653 0.0
H286 H 0.17112 0.15453 0.23412 0.0
H287 H 0.17755 0.12191 0.19881 0.0
H288 H 0.20862 0.98407 0.2654 0.0
H289 H 0.15332 0.99232 0.32877 0.0
H290 H 0.15737 0.11442 0.30534 0.0
C291 C 0.27957 0.09544 0.16287 0.0
C292 C 0.30235 0.0669 0.13868 0.0
C293 C 0.29606 0.02838 0.15249 0.0
C294 C 0.26742 0.01827 0.18936 0.0
C295 C 0.24515 0.04701 0.21227 0.0
C296 C 0.25073 0.08481 0.19968 0.0
C297 C 0.22191 0.11003 0.2299 0.0
C298 C 0.24461 0.13144 0.24695 0.0
C299 C 0.19366 0.13768 0.21122 0.0
C300 C 0.19961 0.08039 0.26142 0.0
C301 C 0.21356 0.04425 0.25056 0.0
C302 C 0.19744 0.01221 0.27438 0.0
C303 C 0.16602 0.0172 0.31032 0.0
C304 C 0.15106 0.05397 0.32215 0.0
C305 C 0.1683 0.0859 0.29732 0.0
H306 H 0.15895 0.80486 0.98428 0.0
H307 H 0.13894 0.8683 0.08357 0.0
H308 H 0.15809 0.92534 0.03597 0.0
H309 H 0.2433 0.84904 0.91488 0.0
H310 H 0.22798 0.85008 0.8719 0.0
H311 H 0.21422 0.81345 0.9136 0.0
H312 H 0.13933 0.83227 0.9207 0.0
H313 H 0.15291 0.86849 0.87865 0.0
H314 H 0.11751 0.88094 0.9259 0.0
H315 H 0.17991 0.97553 0.97762 0.0
H316 H 0.19435 0.01736 0.91337 0.0
H317 H 0.19731 0.92212 0.85223 0.0
C318 C 0.15824 0.83075 0.99614 0.0
C319 C 0.14788 0.83175 0.03781 0.0
C320 C 0.14751 0.86641 0.05185 0.0
C321 C 0.15829 0.89908 0.02501 0.0
C322 C 0.16924 0.89679 0.98417 0.0
C323 C 0.16871 0.86371 0.96979 0.0
C324 C 0.17989 0.86938 0.92456 0.0
C325 C 0.21866 0.84397 0.9051 0.0
C326 C 0.14535 0.86237 0.91171 0.0
C327 C 0.18629 0.91095 0.91583 0.0
C328 C 0.18066 0.92605 0.95057 0.0
C329 C 0.18439 0.96403 0.9502 0.0
C330 C 0.19284 0.98752 0.91348 0.0
C331 C 0.19699 0.97302 0.87773 0.0
C332 C 0.19446 0.93402 0.87898 0.0
H333 H 0.45754 0.06609 0.82775 0.0
H334 H 0.45455 0.94457 0.84848 0.0
H335 H 0.43619 0.94751 0.78827 0.0
H336 H 0.37568 0.09021 0.81658 0.0
H337 H 0.38566 0.12915 0.77677 0.0
H338 H 0.41751 0.11621 0.80655 0.0
H339 H 0.47901 0.10702 0.74279 0.0
H340 H 0.4469 0.12018 0.71245 0.0
H341 H 0.47926 0.07575 0.70846 0.0
H342 H 0.39263 0.965 0.74838 0.0
H343 H 0.33183 0.99477 0.73314 0.0
H344 H 0.36121 0.1058 0.73537 0.0
C345 C 0.45494 0.04007 0.81809 0.0
C346 C 0.45692 0.00536 0.8427 0.0
C347 C 0.45347 0.97152 0.82982 0.0
C348 C 0.4431 0.97297 0.79543 0.0
C349 C 0.43694 0.00837 0.77396 0.0
C350 C 0.44402 0.04139 0.7841 0.0
C351 C 0.42654 0.0764 0.76292 0.0
C352 C 0.39973 0.10451 0.79249 0.0
C353 C 0.45992 0.09597 0.72967 0.0
C354 C 0.4028 0.05809 0.74513 0.0
C355 C 0.41107 0.01882 0.74966 0.0
C356 C 0.38696 0.99567 0.74328 0.0
C357 C 0.3522 0.01275 0.735 0.0
C358 C 0.34172 0.05255 0.73348 0.0
C359 C 0.36893 0.0754 0.73554 0.0
H360 H 0.16202 0.18257 0.83792 0.0
H361 H 0.2175 0.11677 0.92213 0.0
H362 H 0.18426 0.16401 0.96989 0.0
H363 H 0.1665 0.27768 0.86257 0.0
H364 H 0.11907 0.29629 0.85589 0.0
H365 H 0.15115 0.25966 0.82704 0.0
H366 H 0.09296 0.21811 0.85281 0.0
H367 H 0.06096 0.25402 0.88264 0.0
H368 H 0.06967 0.2063 0.90601 0.0
H369 H 0.13704 0.21204 0.01166 0.0
H370 H 0.08807 0.26458 0.04132 0.0
H371 H 0.06616 0.30154 0.92824 0.0
C372 C 0.16787 0.17858 0.86607 0.0
C373 C 0.192 0.14609 0.87663 0.0
C374 C 0.19924 0.1417 0.91352 0.0
C375 C 0.18035 0.16821 0.94084 0.0
C376 C 0.15513 0.19902 0.93023 0.0
C377 C 0.1497 0.20488 0.89333 0.0
C378 C 0.12005 0.23954 0.88976 0.0
C379 C 0.14042 0.27011 0.85687 0.0
C380 C 0.08377 0.22883 0.88238 0.0
C381 C 0.1086 0.25169 0.93096 0.0
C382 C 0.12909 0.22779 0.95383 0.0
C383 C 0.12175 0.23162 0.9937 0.0
C384 C 0.09385 0.2616 0.0102 0.0
C385 C 0.07424 0.28786 0.98664 0.0
C386 C 0.08108 0.28226 0.94676 0.0
H387 H 0.89123 0.00661 0.07869 0.0
H388 H 0.89892 0.10616 0.12772 0.0
H389 H 0.95781 0.1205 0.0681 0.0
H390 H -0.00276 0.97935 0.03459 0.0
H391 H 0.99197 0.96433 0.99148 0.0
H392 H 0.95192 0.96146 0.03876 0.0
H393 H 0.90296 0.00227 0.00484 0.0
H394 H 0.94285 0.0054 0.9575 0.0
H395 H 0.91472 0.04816 0.97772 0.0
H396 H 0.01583 0.12386 0.00162 0.0
H397 H 0.06579 0.11704 0.93432 0.0
H398 H 0.01774 0.01591 0.92998 0.0
C399 C 0.90533 0.03134 0.07724 0.0
C400 C 0.89053 0.0552 0.108 0.0
C401 C 0.90983 0.0874 0.10457 0.0
C402 C 0.94328 0.09574 0.07084 0.0
C403 C 0.95687 0.07163 0.04091 0.0
C404 C 0.93836 0.04012 0.04392 0.0
C405 C 0.95767 0.01921 0.00741 0.0
C406 C 0.97578 0.97869 0.01875 0.0
C407 C 0.92777 0.01876 0.98559 0.0
C408 C 0.98986 0.044 0.983 0.0
C409 C 0.98928 0.07394 0.00284 0.0
C410 C 0.01651 0.10047 0.98594 0.0
C411 C 0.04486 0.09629 0.9478 0.0
C412 C 0.04552 0.066 0.92688 0.0
C413 C 0.01764 0.03961 0.94496 0.0
H414 H 0.29269 0.1033 0.02492 0.0
H415 H 0.33996 0.14939 0.90024 0.0
H416 H 0.28797 0.20492 0.91243 0.0
H417 H 0.18342 0.14442 0.04279 0.0
H418 H 0.17813 0.15387 0.09223 0.0
H419 H 0.21161 0.1136 0.07133 0.0
H420 H 0.26905 0.13826 0.08389 0.0
H421 H 0.23626 0.17911 0.1037 0.0
H422 H 0.2818 0.18535 0.06224 0.0
H423 H 0.2397 0.25982 0.94017 0.0
H424 H 0.19495 0.30895 0.98053 0.0
H425 H 0.18081 0.22897 0.08846 0.0
C426 C 0.29066 0.12412 -0.00017 0.0
C427 C 0.31955 0.12179 0.96139 0.0
C428 C 0.31743 0.15043 0.92961 0.0
C429 C 0.28817 0.1821 0.93636 0.0
C430 C 0.26165 0.18482 0.9752 0.0
C431 C 0.26219 0.15635 0.00636 0.0
C432 C 0.23406 0.16849 0.04617 0.0
C433 C 0.19976 0.14362 0.06417 0.0
C434 C 0.25666 0.16779 0.07571 0.0
C435 C 0.21901 0.20879 0.03272 0.0
C436 C 0.23474 0.21732 0.99161 0.0
C437 C 0.2267 0.25326 0.97231 0.0
C438 C 0.2014 0.28105 0.99551 0.0
C439 C 0.18441 0.27293 0.03768 0.0
C440 C 0.19365 0.23627 0.05642 0.0
H441 H 0.32694 0.91909 0.99867 0.0
H442 H 0.35833 0.96264 0.08794 0.0
H443 H 0.32385 0.91415 0.13969 0.0
H444 H 0.23093 0.8994 0.05788 0.0
H445 H 0.23401 0.85577 0.03802 0.0
H446 H 0.26359 0.89237 0.00776 0.0
H447 H 0.32733 0.8432 0.9981 0.0
H448 H 0.29725 0.80697 0.02906 0.0
H449 H 0.33845 0.81747 0.04148 0.0
H450 H 0.27893 0.8668 0.18307 0.0
H451 H 0.23014 0.82039 0.21437 0.0
H452 H 0.23208 0.80443 0.09646 0.0
C453 C 0.32709 0.91803 0.02896 0.0
C454 C 0.34494 0.94491 0.03934 0.0
C455 C 0.34462 0.94252 0.07931 0.0
C456 C 0.32523 0.91497 0.10894 0.0
C457 C 0.30716 0.88942 0.09794 0.0
C458 C 0.30848 0.89023 0.05882 0.0
C459 C 0.28559 0.86018 0.05528 0.0
C460 C 0.25151 0.87806 0.03879 0.0
C461 C 0.31386 0.83017 0.02945 0.0
C462 C 0.26964 0.84372 0.0988 0.0
C463 C 0.28264 0.86079 0.12289 0.0
C464 C 0.26919 0.85257 0.16451 0.0
C465 C 0.24142 0.82635 0.18201 0.0
C466 C 0.22773 0.80863 0.15781 0.0
C467 C 0.24261 0.817 0.11568 0.0
H468 H 0.78982 0.23642 0.21722 0.0
H469 H 0.78712 0.20111 0.10903 0.0
H470 H 0.81588 0.25931 0.06965 0.0
H471 H 0.7731 0.34212 0.19001 0.0
H472 H 0.80872 0.35014 0.21189 0.0
H473 H 0.78002 0.31054 0.23253 0.0
H474 H 0.84558 0.26421 0.22357 0.0
H475 H 0.87425 0.30359 0.20332 0.0
H476 H 0.88352 0.26433 0.17481 0.0
H477 H 0.85234 0.31653 0.04139 0.0
H478 H 0.90113 0.36248 0.02529 0.0
H479 H 0.88285 0.35892 0.15158 0.0
C480 C 0.79401 0.24185 0.18547 0.0
C481 C 0.78558 0.21509 0.16603 0.0
C482 C 0.79304 0.22181 0.12422 0.0
C483 C 0.80903 0.25481 0.10184 0.0
C484 C 0.81768 0.28052 0.12179 0.0
C485 C 0.81076 0.27417 0.16268 0.0
C486 C 0.82854 0.30261 0.17598 0.0
C487 C 0.79562 0.32785 0.20428 0.0
C488 C 0.85982 0.28248 0.19553 0.0
C489 C 0.84779 0.32511 0.13602 0.0
C490 C 0.84022 0.31272 0.10527 0.0
C491 C 0.85785 0.32699 0.06528 0.0
C492 C 0.88528 0.3533 0.05639 0.0
C493 C 0.8953 0.36441 0.08731 0.0
C494 C 0.87507 0.35125 0.12759 0.0
H495 H 0.99479 0.77275 0.20471 0.0
H496 H 0.07853 0.83209 0.22744 0.0
H497 H 0.02543 0.8859 0.24682 0.0
H498 H 0.95068 0.85116 0.15814 0.0
H499 H 0.90098 0.83719 0.17823 0.0
H500 H 0.94373 0.80157 0.17184 0.0
H501 H 0.91637 0.77525 0.24702 0.0
H502 H 0.87334 0.81079 0.25364 0.0
H503 H 0.90425 0.80685 0.28465 0.0
H504 H 0.96454 0.93566 0.25721 0.0
H505 H 0.90206 0.977 0.25694 0.0
H506 H 0.85989 0.88487 0.22537 0.0
C507 C 0.00184 0.79667 0.21457 0.0
C508 C 0.0407 0.79819 0.21482 0.0
C509 C 0.04884 0.83031 0.22726 0.0
C510 C 0.01886 0.86093 0.23837 0.0
C511 C 0.98102 0.85885 0.23686 0.0
C512 C 0.97248 0.82742 0.2254 0.0
C513 C 0.93068 0.83321 0.223 0.0
C514 C 0.9316 0.83065 0.18027 0.0
C515 C 0.90462 0.80484 0.25393 0.0
C516 C 0.91725 0.87326 0.23384 0.0
C517 C 0.94642 0.88748 0.24224 0.0
C518 C 0.94144 0.92469 0.25094 0.0
C519 C 0.90601 0.94804 0.2504 0.0
C520 C 0.87618 0.93415 0.24097 0.0
C521 C 0.8818 0.89607 0.23331 0.0
H522 H 0.06566 0.15028 0.70925 0.0
H523 H 0.17449 0.19978 0.64245 0.0
H524 H 0.15753 0.20674 0.58054 0.0
H525 H 0.08108 0.08931 0.65278 0.0
H526 H 0.03124 0.08627 0.65364 0.0
H527 H 0.03796 0.10354 0.6943 0.0
H528 H 0.99316 0.16637 0.68453 0.0
H529 H 0.98498 0.14883 0.64421 0.0
H530 H 0.0036 0.19402 0.63588 0.0
H531 H 0.14262 0.18798 0.52531 0.0
H532 H 0.13048 0.14797 0.48262 0.0
H533 H 0.03747 0.10109 0.58576 0.0
C534 C 0.08397 0.16537 0.68201 0.0
C535 C 0.12062 0.17539 0.68026 0.0
C536 C 0.14565 0.19306 0.64417 0.0
C537 C 0.13623 0.19688 0.60889 0.0
C538 C 0.10203 0.18243 0.61043 0.0
C539 C 0.07575 0.16753 0.64641 0.0
C540 C 0.04788 0.14443 0.63947 0.0
C541 C 0.04976 0.10352 0.66128 0.0
C542 C 0.00485 0.16464 0.65174 0.0
C543 C 0.06546 0.14505 0.59455 0.0
C544 C 0.09514 0.16866 0.57807 0.0
C545 C 0.11874 0.17016 0.53777 0.0
C546 C 0.11217 0.14665 0.51391 0.0
C547 C 0.0831 0.12097 0.53071 0.0
C548 C 0.05908 0.12101 0.5714 0.0
H549 H 0.68209 0.08245 0.08697 0.0
H550 H 0.69495 0.96977 0.15079 0.0
H551 H 0.65347 0.94745 0.11881 0.0
H552 H 0.58277 0.08592 0.10135 0.0
H553 H 0.58387 0.11178 0.05332 0.0
H554 H 0.62074 0.11675 0.07476 0.0
H555 H 0.67733 0.09661 0.01078 0.0
H556 H 0.64045 0.09155 0.98908 0.0
H557 H 0.6779 0.05226 0.99349 0.0
H558 H 0.60426 0.93979 0.08725 0.0
H559 H 0.54827 0.94799 0.06059 0.0
H560 H 0.5659 0.06649 0.0199 0.0
C561 C 0.67711 0.05283 0.09313 0.0
C562 C 0.69166 0.02764 0.1209 0.0
C563 C 0.6838 0.98934 0.12945 0.0
C564 C 0.66069 0.97639 0.11121 0.0
C565 C 0.64588 0.00218 0.08456 0.0
C566 C 0.65378 0.03961 0.07551 0.0
C567 C 0.63019 0.06276 0.05012 0.0
C568 C 0.60277 0.09625 0.07116 0.0
C569 C 0.65814 0.0766 0.00839 0.0
C570 C 0.60645 0.03295 0.04785 0.0
C571 C 0.6166 0.99798 0.06704 0.0
C572 C 0.59643 0.96686 0.07158 0.0
C573 C 0.5645 0.97187 0.05671 0.0
C574 C 0.55288 0.00784 0.03812 0.0
C575 C 0.57473 0.03842 0.03301 0.0
H576 H 0.16164 0.64633 0.04528 0.0
H577 H 0.26968 0.5804 0.05851 0.0
H578 H 0.26521 0.53396 0.017 0.0
H579 H 0.11059 0.57515 0.06657 0.0
H580 H 0.08189 0.59081 0.03316 0.0
H581 H 0.10143 0.62501 0.04966 0.0
H582 H 0.13797 0.65041 0.97586 0.0
H583 H 0.11832 0.616 0.95902 0.0
H584 H 0.17148 0.6181 0.9421 0.0
H585 H 0.2402 0.48805 0.99012 0.0
H586 H 0.19499 0.44495 0.98747 0.0
H587 H 0.10078 0.53894 0.995 0.0
C588 C 0.1854 0.62309 0.03741 0.0
C589 C 0.21646 0.61702 0.05389 0.0
C590 C 0.2463 0.58571 0.04506 0.0
C591 C 0.24395 0.5594 0.02144 0.0
C592 C 0.21159 0.56505 0.00714 0.0
C593 C 0.18289 0.59641 0.0147 0.0
C594 C 0.14669 0.59215 0.00423 0.0
C595 C 0.10794 0.59595 0.04057 0.0
C596 C 0.14345 0.62087 0.96814 0.0
C597 C 0.15772 0.55209 0.9931 0.0
C598 C 0.19606 0.53758 0.993 0.0
C599 C 0.2107 0.49944 0.9889 0.0
C600 C 0.18488 0.47514 0.98723 0.0
C601 C 0.14471 0.489 0.99059 0.0
C602 C 0.13173 0.52816 0.99142 0.0
loop_
_geom_bond_atom_site_label_1
_geom_bond_atom_site_label_2
_geom_bond_distance
_geom_bond_site_symmetry_2
_ccdc_geom_bond_type
C0 C1 1.349 1_655 S
C0 N3 1.363 1_655 S
C0 H5 0.936 . S
C1 C0 1.349 1_455 S
C1 N2 1.373 . S
C1 H29 0.930 1_455 S
N2 C1 1.373 . S
N2 C4 1.340 . S
N3 C0 1.363 1_455 S
N3 C4 1.321 . S
N3 Co6 2.135 1_565 S
C4 N2 1.340 . S
C4 N3 1.321 . S
C4 H28 0.930 . S
H5 C0 0.936 . S
Co6 N3 2.135 1_545 S
Co6 N9 2.121 . S
Co6 O14 2.055 1_455 S
Co6 O17 2.039 . S
Co6 N20 2.140 . S
C7 O8 1.227 1_545 S
C7 O17 1.265 . S
O8 C7 1.227 1_565 S
N9 Co6 2.121 . S
N9 C11 1.375 . S
N9 C12 1.313 . S
C10 C11 1.338 . S
C10 N13 1.377 . S
C10 H30 0.930 . S
C11 N9 1.375 . S
C11 C10 1.338 . S
C11 H15 0.931 . S
C12 N9 1.313 . S
C12 N13 1.344 . S
C12 H16 0.930 1_455 S
N13 C10 1.377 . S
N13 C12 1.344 . S
O14 Co6 2.055 1_655 S
O14 C18 1.253 . S
H15 C11 0.931 . S
H16 C12 0.930 1_655 S
O17 Co6 2.039 . S
O17 C7 1.265 . S
C18 O14 1.253 . S
C18 O19 1.227 . S
O19 C18 1.227 . S
N20 Co6 2.140 . S
N20 C23 1.346 1_545 S
N20 C24 1.345 . S
C21 C22 1.387 1_545 S
C21 C25 1.391 . S
C22 C21 1.387 1_565 S
C22 C23 1.369 . S
C22 H31 0.929 . S
C23 N20 1.346 1_565 S
C23 C22 1.369 . S
C23 H26 0.928 . S
C24 N20 1.345 . S
C24 C25 1.371 . S
C24 H27 0.931 . S
C25 C21 1.391 . S
C25 C24 1.371 . S
C25 H32 0.930 . S
H26 C23 0.928 . S
H27 C24 0.931 . S
H28 C4 0.930 . S
H29 C1 0.930 1_655 S
H30 C10 0.930 . S
H31 C22 0.929 . S
H32 C25 0.930 . S
C33 C34 1.351 . S
C33 N36 1.368 . S
C33 H38 0.931 . S
C34 C33 1.351 . S
C34 N35 1.373 . S
C34 H62 0.930 . S
N35 C34 1.373 . S
N35 C37 1.340 . S
N36 C33 1.368 . S
N36 C37 1.321 . S
N36 Co39 2.135 . S
C37 N35 1.340 . S
C37 N36 1.321 . S
C37 H61 0.930 . S
H38 C33 0.931 . S
Co39 N36 2.135 . S
Co39 N42 2.121 . S
Co39 O47 2.055 . S
Co39 O50 2.039 . S
Co39 N53 2.140 . S
C40 O41 1.227 . S
C40 O50 1.265 . S
O41 C40 1.227 . S
N42 Co39 2.121 . S
N42 C44 1.375 . S
N42 C45 1.313 . S
C43 C44 1.338 . S
C43 N46 1.377 . S
C43 H63 0.930 . S
C44 N42 1.375 . S
C44 C43 1.338 . S
C44 H48 0.931 . S
C45 N42 1.313 . S
C45 N46 1.344 . S
C45 H49 0.930 . S
N46 C43 1.377 . S
N46 C45 1.344 . S
O47 Co39 2.055 . S
O47 C51 1.253 . S
H48 C44 0.931 . S
H49 C45 0.930 . S
O50 Co39 2.039 . S
O50 C40 1.265 . S
C51 O47 1.253 . S
C51 O52 1.227 . S
O52 C51 1.227 . S
N53 Co39 2.140 . S
N53 C56 1.346 . S
N53 C57 1.345 . S
C54 C55 1.387 . S
C54 C58 1.391 . S
C55 C54 1.387 . S
C55 C56 1.369 . S
C55 H64 0.929 . S
C56 N53 1.346 . S
C56 C55 1.369 . S
C56 H59 0.928 . S
C57 N53 1.345 . S
C57 C58 1.371 . S
C57 H60 0.931 . S
C58 C54 1.391 . S
C58 C57 1.371 . S
C58 H65 0.930 . S
H59 C56 0.928 . S
H60 C57 0.931 . S
H61 C37 0.930 . S
H62 C34 0.930 . S
H63 C43 0.930 . S
H64 C55 0.929 . S
H65 C58 0.930 . S
C66 C67 1.351 . S
C66 N69 1.368 . S
C66 H71 0.931 . S
C67 C66 1.351 . S
C67 N68 1.373 . S
C67 H95 0.930 . S
N68 C67 1.373 . S
N68 C70 1.340 . S
N69 C66 1.368 . S
N69 C70 1.321 . S
N69 Co72 2.135 . S
C70 N68 1.340 . S
C70 N69 1.321 . S
C70 H94 0.930 1_545 S
H71 C66 0.931 . S
Co72 N69 2.135 . S
Co72 N75 2.121 1_554 S
Co72 O80 2.055 . S
Co72 O83 2.039 1_545 S
Co72 N86 2.140 . S
C73 O74 1.227 . S
C73 O83 1.265 . S
O74 C73 1.227 . S
N75 Co72 2.121 1_556 S
N75 C77 1.375 1_545 S
N75 C78 1.313 . S
C76 C77 1.338 . S
C76 N79 1.377 1_565 S
C76 H96 0.930 . S
C77 N75 1.375 1_565 S
C77 C76 1.338 . S
C77 H81 0.931 . S
C78 N75 1.313 . S
C78 N79 1.344 . S
C78 H82 0.930 . S
N79 C76 1.377 1_545 S
N79 C78 1.344 . S
O80 Co72 2.055 . S
O80 C84 1.253 . S
H81 C77 0.931 . S
H82 C78 0.930 . S
O83 Co72 2.039 1_565 S
O83 C73 1.265 . S
C84 O80 1.253 . S
C84 O85 1.227 . S
O85 C84 1.227 . S
N86 Co72 2.140 . S
N86 C89 1.346 . S
N86 C90 1.353 . S
C87 C88 1.387 . S
C87 C91 1.391 . S
C88 C87 1.387 . S
C88 C89 1.369 . S
C88 H97 0.929 1_545 S
C89 N86 1.346 . S
C89 C88 1.369 . S
C89 H92 0.928 1_545 S
C90 N86 1.353 . S
C90 C91 1.378 . S
C90 H93 0.915 1_554 S
C91 C87 1.391 . S
C91 C90 1.378 . S
C91 H98 0.930 1_554 S
H92 C89 0.928 1_565 S
H93 C90 0.915 1_556 S
H94 C70 0.930 1_565 S
H95 C67 0.930 . S
H96 C76 0.930 . S
H97 C88 0.929 1_565 S
H98 C91 0.930 1_556 S
C99 C100 1.351 . S
C99 N102 1.368 . S
C99 H104 0.931 . S
C100 C99 1.351 . S
C100 N101 1.373 . S
C100 H128 0.930 . S
N101 C100 1.373 . S
N101 C103 1.340 . S
N102 C99 1.368 . S
N102 C103 1.321 . S
N102 Co105 2.135 . S
C103 N101 1.340 . S
C103 N102 1.321 . S
C103 H127 0.930 1_554 S
H104 C99 0.931 . S
Co105 N102 2.135 . S
Co105 N108 2.121 . S
Co105 O113 2.055 . S
Co105 O116 2.039 . S
Co105 N119 2.140 . S
C106 O107 1.227 . S
C106 O116 1.265 1_556 S
O107 C106 1.227 . S
N108 Co105 2.121 . S
N108 C110 1.375 1_455 S
N108 C111 1.313 1_455 S
C109 C110 1.338 . S
C109 N112 1.377 . S
C109 H129 0.930 . S
C110 N108 1.375 1_655 S
C110 C109 1.338 . S
C110 H114 0.931 1_655 S
C111 N108 1.313 1_655 S
C111 N112 1.344 . S
C111 H115 0.930 . S
N112 C109 1.377 . S
N112 C111 1.344 . S
O113 Co105 2.055 . S
O113 C117 1.253 . S
H114 C110 0.931 1_455 S
H115 C111 0.930 . S
O116 Co105 2.039 . S
O116 C106 1.265 1_554 S
C117 O113 1.253 . S
C117 O118 1.227 . S
O118 C117 1.227 . S
N119 Co105 2.140 . S
N119 C122 1.346 . S
N119 C123 1.345 . S
C120 C121 1.387 . S
C120 C124 1.391 . S
C121 C120 1.387 . S
C121 C122 1.369 . S
C121 H130 0.929 . S
C122 N119 1.346 . S
C122 C121 1.369 . S
C122 H125 0.928 . S
C123 N119 1.345 . S
C123 C124 1.371 . S
C123 H126 0.931 . S
C124 C120 1.391 . S
C124 C123 1.371 . S
C124 H131 0.930 . S
H125 C122 0.928 . S
H126 C123 0.931 . S
H127 C103 0.930 1_556 S
H128 C100 0.930 . S
H129 C109 0.930 . S
H130 C121 0.929 . S
H131 C124 0.930 . S
C132 C133 1.351 . S
C132 N135 1.368 . S
C132 H137 0.931 . S
C133 C132 1.351 . S
C133 N134 1.373 . S
C133 H161 0.930 . S
N134 C133 1.373 . S
N134 C136 1.340 . S
N135 C132 1.368 . S
N135 C136 1.321 . S
N135 Co138 2.135 . S
C136 N134 1.340 . S
C136 N135 1.321 . S
C136 H160 0.930 . S
H137 C132 0.931 . S
Co138 N135 2.135 . S
Co138 N141 2.121 . S
Co138 O146 2.055 . S
Co138 O149 2.039 . S
Co138 N152 2.140 . S
C139 O140 1.227 . S
C139 O149 1.265 . S
O140 C139 1.227 . S
N141 Co138 2.121 . S
N141 C143 1.375 . S
N141 C144 1.305 1_545 S
C142 C143 1.338 1_565 S
C142 N145 1.377 . S
C142 H162 0.930 . S
C143 N141 1.375 . S
C143 C142 1.338 1_545 S
C143 H147 0.931 . S
C144 N141 1.305 1_565 S
C144 N145 1.356 . S
C144 H148 0.927 1_565 S
N145 C142 1.377 . S
N145 C144 1.356 . S
O146 Co138 2.055 . S
O146 C150 1.253 . S
H147 C143 0.931 . S
H148 C144 0.927 1_545 S
O149 Co138 2.039 . S
O149 C139 1.265 . S
C150 O146 1.253 . S
C150 O151 1.227 . S
O151 C150 1.227 . S
N152 Co138 2.140 . S
N152 C155 1.346 . S
N152 C156 1.345 . S
C153 C154 1.387 . S
C153 C157 1.391 . S
C154 C153 1.387 . S
C154 C155 1.369 . S
C154 H163 0.929 . S
C155 N152 1.346 . S
C155 C154 1.369 . S
C155 H158 0.928 . S
C156 N152 1.345 . S
C156 C157 1.371 . S
C156 H159 0.931 . S
C157 C153 1.391 . S
C157 C156 1.371 . S
C157 H164 0.930 . S
H158 C155 0.928 . S
H159 C156 0.931 . S
H160 C136 0.930 . S
H161 C133 0.930 . S
H162 C142 0.930 . S
H163 C154 0.929 . S
H164 C157 0.930 . S
C165 C166 1.351 . S
C165 N168 1.368 . S
C165 H170 0.931 . S
C166 C165 1.351 . S
C166 N167 1.373 . S
C166 H194 0.930 . S
N167 C166 1.373 . S
N167 C169 1.340 . S
N168 C165 1.368 . S
N168 C169 1.321 . S
N168 Co171 2.135 . S
C169 N167 1.340 . S
C169 N168 1.321 . S
C169 H193 0.930 . S
H170 C165 0.931 . S
Co171 N168 2.135 . S
Co171 N174 2.121 . S
Co171 O179 2.055 . S
Co171 O182 2.039 . S
Co171 N185 2.140 . S
C172 O173 1.227 . S
C172 O182 1.265 . S
O173 C172 1.227 . S
N174 Co171 2.121 . S
N174 C176 1.375 . S
N174 C177 1.313 . S
C175 C176 1.338 . S
C175 N178 1.377 . S
C175 H195 0.930 . S
C176 N174 1.375 . S
C176 C175 1.338 . S
C176 H180 0.931 . S
C177 N174 1.313 . S
C177 N178 1.344 . S
C177 H181 0.930 . S
N178 C175 1.377 . S
N178 C177 1.344 . S
O179 Co171 2.055 . S
O179 C183 1.253 . S
H180 C176 0.931 . S
H181 C177 0.930 . S
O182 Co171 2.039 . S
O182 C172 1.265 . S
C183 O179 1.253 . S
C183 O184 1.227 . S
O184 C183 1.227 . S
N185 Co171 2.140 . S
N185 C188 1.346 . S
N185 C189 1.345 . S
C186 C187 1.387 . S
C186 C190 1.391 . S
C187 C186 1.387 . S
C187 C188 1.369 . S
C187 H196 0.929 . S
C188 N185 1.346 . S
C188 C187 1.369 . S
C188 H191 0.928 . S
C189 N185 1.345 . S
C189 C190 1.371 . S
C189 H192 0.931 . S
C190 C186 1.391 . S
C190 C189 1.371 . S
C190 H197 0.930 . S
H191 C188 0.928 . S
H192 C189 0.931 . S
H193 C169 0.930 . S
H194 C166 0.930 . S
H195 C175 0.930 . S
H196 C187 0.929 . S
H197 C190 0.930 . S
H198 C210 0.930 . S
H199 C212 0.921 1_655 S
H200 C213 0.942 . S
H201 C217 0.959 . S
H202 C217 0.959 . S
H203 C217 0.961 . S
H204 C218 0.960 . S
H205 C218 0.961 . S
H206 C218 0.959 1_655 S
H207 C221 0.929 . S
H208 C222 0.931 . S
H209 C224 0.930 . S
C210 H198 0.930 . S
C210 C211 1.399 . S
C210 C215 1.399 . S
C211 C210 1.399 . S
C211 C212 1.376 . S
C212 H199 0.921 1_455 S
C212 C211 1.376 . S
C212 C213 1.388 1_455 S
C213 H200 0.942 . S
C213 C212 1.388 1_655 S
C213 C214 1.378 1_655 S
C214 C213 1.378 1_455 S
C214 C215 1.394 . S
C214 C220 1.465 . S
C215 C210 1.399 . S
C215 C214 1.394 . S
C215 C216 1.516 . S
C216 C215 1.516 . S
C216 C217 1.502 . S
C216 C218 1.561 . S
C216 C219 1.526 . S
C217 H201 0.959 . S
C217 H202 0.959 . S
C217 H203 0.961 . S
C217 C216 1.502 . S
C218 H204 0.960 . S
C218 H205 0.961 . S
C218 H206 0.959 1_455 S
C218 C216 1.561 . S
C219 C216 1.526 . S
C219 C220 1.396 . S
C219 C224 1.390 . S
C220 C214 1.465 . S
C220 C219 1.396 . S
C220 C221 1.399 1_455 S
C221 H207 0.929 . S
C221 C220 1.399 1_655 S
C221 C222 1.385 . S
C222 H208 0.931 . S
C222 C221 1.385 . S
C222 C223 1.389 1_655 S
C223 C222 1.389 1_455 S
C223 C224 1.387 . S
C224 H209 0.930 . S
C224 C219 1.390 . S
C224 C223 1.387 . S
H225 C237 0.930 . S
H226 C239 0.930 . S
H227 C240 0.930 1_565 S
H228 C244 0.959 . S
H229 C244 0.959 . S
H230 C244 0.961 . S
H231 C245 0.960 . S
H232 C245 0.961 . S
H233 C245 0.959 . S
H234 C248 0.929 . S
H235 C249 0.931 . S
H236 C251 0.930 . S
C237 H225 0.930 . S
C237 C238 1.399 . S
C237 C242 1.399 . S
C238 C237 1.399 . S
C238 C239 1.376 . S
C239 H226 0.930 . S
C239 C238 1.376 . S
C239 C240 1.388 . S
C240 H227 0.930 1_545 S
C240 C239 1.388 . S
C240 C241 1.390 . S
C241 C240 1.390 . S
C241 C242 1.394 . S
C241 C247 1.465 . S
C242 C237 1.399 . S
C242 C241 1.394 . S
C242 C243 1.516 . S
C243 C242 1.516 . S
C243 C244 1.502 . S
C243 C245 1.561 . S
C243 C246 1.526 . S
C244 H228 0.959 . S
C244 H229 0.959 . S
C244 H230 0.961 . S
C244 C243 1.502 . S
C245 H231 0.960 . S
C245 H232 0.961 . S
C245 H233 0.959 . S
C245 C243 1.561 . S
C246 C243 1.526 . S
C246 C247 1.396 . S
C246 C251 1.390 . S
C247 C241 1.465 . S
C247 C246 1.396 . S
C247 C248 1.399 1_545 S
C248 H234 0.929 . S
C248 C247 1.399 1_565 S
C248 C249 1.385 . S
C249 H235 0.931 . S
C249 C248 1.385 . S
C249 C250 1.389 1_565 S
C250 C249 1.389 1_545 S
C250 C251 1.387 . S
C251 H236 0.930 . S
C251 C246 1.390 . S
C251 C250 1.387 . S
H252 C264 0.930 . S
H253 C266 0.930 . S
H254 C267 0.930 . S
H255 C271 0.959 . S
H256 C271 0.959 . S
H257 C271 0.961 . S
H258 C272 0.960 1_655 S
H259 C272 0.961 . S
H260 C272 0.959 . S
H261 C275 0.929 . S
H262 C276 0.931 . S
H263 C278 0.930 . S
C264 H252 0.930 . S
C264 C265 1.399 . S
C264 C269 1.399 . S
C265 C264 1.399 . S
C265 C266 1.376 . S
C266 H253 0.930 . S
C266 C265 1.376 . S
C266 C267 1.388 . S
C267 H254 0.930 . S
C267 C266 1.388 . S
C267 C268 1.390 . S
C268 C267 1.390 . S
C268 C269 1.394 . S
C268 C274 1.465 . S
C269 C264 1.399 . S
C269 C268 1.394 . S
C269 C270 1.516 . S
C270 C269 1.516 . S
C270 C271 1.502 . S
C270 C272 1.561 . S
C270 C273 1.526 . S
C271 H255 0.959 . S
C271 H256 0.959 . S
C271 H257 0.961 . S
C271 C270 1.502 . S
C272 H258 0.960 1_455 S
C272 H259 0.961 . S
C272 H260 0.959 . S
C272 C270 1.561 . S
C273 C270 1.526 . S
C273 C274 1.396 . S
C273 C278 1.390 . S
C274 C268 1.465 . S
C274 C273 1.396 . S
C274 C275 1.399 . S
C275 H261 0.929 . S
C275 C274 1.399 . S
C275 C276 1.385 . S
C276 H262 0.931 . S
C276 C275 1.385 . S
C276 C277 1.389 . S
C277 C276 1.389 . S
C277 C278 1.387 . S
C278 H263 0.930 . S
C278 C273 1.390 . S
C278 C277 1.387 . S
H279 C291 0.930 . S
H280 C293 0.930 . S
H281 C294 0.930 . S
H282 C298 0.959 . S
H283 C298 0.959 . S
H284 C298 0.961 . S
H285 C299 0.960 . S
H286 C299 0.961 . S
H287 C299 0.959 . S
H288 C302 0.929 . S
H289 C303 0.931 . S
H290 C305 0.930 . S
C291 H279 0.930 . S
C291 C292 1.399 . S
C291 C296 1.399 . S
C292 C291 1.399 . S
C292 C293 1.376 1_545 S
C293 H280 0.930 . S
C293 C292 1.376 1_565 S
C293 C294 1.388 . S
C294 H281 0.930 . S
C294 C293 1.388 . S
C294 C295 1.390 . S
C295 C294 1.390 . S
C295 C296 1.394 1_565 S
C295 C301 1.465 . S
C296 C291 1.399 . S
C296 C295 1.394 1_545 S
C296 C297 1.516 . S
C297 C296 1.516 . S
C297 C298 1.502 . S
C297 C299 1.561 . S
C297 C300 1.526 . S
C298 H282 0.959 . S
C298 H283 0.959 . S
C298 H284 0.961 . S
C298 C297 1.502 . S
C299 H285 0.960 . S
C299 H286 0.961 . S
C299 H287 0.959 . S
C299 C297 1.561 . S
C300 C297 1.526 . S
C300 C301 1.396 1_545 S
C300 C305 1.390 . S
C301 C295 1.465 . S
C301 C300 1.396 1_565 S
C301 C302 1.399 . S
C302 H288 0.929 . S
C302 C301 1.399 . S
C302 C303 1.385 . S
C303 H289 0.931 . S
C303 C302 1.385 . S
C303 C304 1.389 . S
C304 C303 1.389 . S
C304 C305 1.387 1_565 S
C305 H290 0.930 . S
C305 C300 1.390 . S
C305 C304 1.387 1_545 S
H306 C318 0.930 . S
H307 C320 0.930 . S
H308 C321 0.930 . S
H309 C325 0.959 . S
H310 C325 0.959 . S
H311 C325 0.961 . S
H312 C326 0.960 . S
H313 C326 0.961 . S
H314 C326 0.959 . S
H315 C329 0.929 . S
H316 C330 0.931 1_545 S
H317 C332 0.930 . S
C318 H306 0.930 . S
C318 C319 1.409 . S
C318 C323 1.399 . S
C319 C318 1.409 . S
C319 C320 1.370 1_556 S
C320 H307 0.930 . S
C320 C319 1.370 1_554 S
C320 C321 1.388 . S
C321 H308 0.930 . S
C321 C320 1.388 . S
C321 C322 1.390 1_554 S
C322 C321 1.390 1_556 S
C322 C323 1.394 . S
C322 C328 1.465 . S
C323 C318 1.399 . S
C323 C322 1.394 . S
C323 C324 1.516 . S
C324 C323 1.516 . S
C324 C325 1.502 . S
C324 C326 1.561 . S
C324 C327 1.526 . S
C325 H309 0.959 . S
C325 H310 0.959 . S
C325 H311 0.961 . S
C325 C324 1.502 . S
C326 H312 0.960 . S
C326 H313 0.961 . S
C326 H314 0.959 . S
C326 C324 1.561 . S
C327 C324 1.526 . S
C327 C328 1.396 . S
C327 C332 1.390 . S
C328 C322 1.465 . S
C328 C327 1.396 . S
C328 C329 1.399 . S
C329 H315 0.929 . S
C329 C328 1.399 . S
C329 C330 1.385 . S
C330 H316 0.931 1_565 S
C330 C329 1.385 . S
C330 C331 1.389 . S
C331 C330 1.389 . S
C331 C332 1.387 . S
C332 H317 0.930 . S
C332 C327 1.390 . S
C332 C331 1.387 . S
H333 C345 0.930 . S
H334 C347 0.930 1_565 S
H335 C348 0.930 . S
H336 C352 0.959 . S
H337 C352 0.959 . S
H338 C352 0.961 . S
H339 C353 0.960 . S
H340 C353 0.961 . S
H341 C353 0.959 . S
H342 C356 0.929 1_565 S
H343 C357 0.931 . S
H344 C359 0.930 . S
C345 H333 0.930 . S
C345 C346 1.399 . S
C345 C350 1.399 . S
C346 C345 1.399 . S
C346 C347 1.376 . S
C347 H334 0.930 1_545 S
C347 C346 1.376 . S
C347 C348 1.388 1_545 S
C348 H335 0.930 . S
C348 C347 1.388 1_565 S
C348 C349 1.390 1_565 S
C349 C348 1.390 1_545 S
C349 C350 1.394 . S
C349 C355 1.465 . S
C350 C345 1.399 . S
C350 C349 1.394 . S
C350 C351 1.516 . S
C351 C350 1.516 . S
C351 C352 1.502 . S
C351 C353 1.561 . S
C351 C354 1.526 . S
C352 H336 0.959 . S
C352 H337 0.959 . S
C352 H338 0.961 . S
C352 C351 1.502 . S
C353 H339 0.960 . S
C353 H340 0.961 . S
C353 H341 0.959 . S
C353 C351 1.561 . S
C354 C351 1.526 . S
C354 C355 1.396 . S
C354 C359 1.390 . S
C355 C349 1.465 . S
C355 C354 1.396 . S
C355 C356 1.399 . S
C356 H342 0.929 1_545 S
C356 C355 1.399 . S
C356 C357 1.385 . S
C357 H343 0.931 . S
C357 C356 1.385 . S
C357 C358 1.389 . S
C358 C357 1.389 . S
C358 C359 1.387 . S
C359 H344 0.930 . S
C359 C354 1.390 . S
C359 C358 1.387 . S
H360 C372 0.930 . S
H361 C374 0.930 . S
H362 C375 0.930 . S
H363 C379 0.959 . S
H364 C379 0.959 . S
H365 C379 0.961 . S
H366 C380 0.960 . S
H367 C380 0.961 . S
H368 C380 0.959 . S
H369 C383 0.929 . S
H370 C384 0.931 1_554 S
H371 C386 0.930 . S
C372 H360 0.930 . S
C372 C373 1.399 . S
C372 C377 1.399 . S
C373 C372 1.399 . S
C373 C374 1.376 . S
C374 H361 0.930 . S
C374 C373 1.376 . S
C374 C375 1.388 . S
C375 H362 0.930 . S
C375 C374 1.388 . S
C375 C376 1.390 . S
C376 C375 1.390 . S
C376 C377 1.394 . S
C376 C382 1.465 . S
C377 C372 1.399 . S
C377 C376 1.394 . S
C377 C378 1.516 . S
C378 C377 1.516 . S
C378 C379 1.502 . S
C378 C380 1.561 . S
C378 C381 1.526 . S
C379 H363 0.959 . S
C379 H364 0.959 . S
C379 H365 0.961 . S
C379 C378 1.502 . S
C380 H366 0.960 . S
C380 H367 0.961 . S
C380 H368 0.959 . S
C380 C378 1.561 . S
C381 C378 1.526 . S
C381 C382 1.396 . S
C381 C386 1.390 . S
C382 C376 1.465 . S
C382 C381 1.396 . S
C382 C383 1.399 . S
C383 H369 0.929 . S
C383 C382 1.399 . S
C383 C384 1.385 . S
C384 H370 0.931 1_556 S
C384 C383 1.385 . S
C384 C385 1.389 . S
C385 C384 1.389 . S
C385 C386 1.387 . S
C386 H371 0.930 . S
C386 C381 1.390 . S
C386 C385 1.387 . S
H387 C399 0.930 . S
H388 C401 0.930 . S
H389 C402 0.930 . S
H390 C406 0.959 . S
H391 C406 0.959 . S
H392 C406 0.961 . S
H393 C407 0.960 . S
H394 C407 0.961 . S
H395 C407 0.959 . S
H396 C410 0.929 . S
H397 C411 0.931 . S
H398 C413 0.930 . S
C399 H387 0.930 . S
C399 C400 1.399 . S
C399 C404 1.399 1_554 S
C400 C399 1.399 . S
C400 C401 1.376 . S
C401 H388 0.930 . S
C401 C400 1.376 . S
C401 C402 1.388 . S
C402 H389 0.930 . S
C402 C401 1.388 . S
C402 C403 1.390 1_554 S
C403 C402 1.390 1_556 S
C403 C404 1.394 . S
C403 C409 1.465 . S
C404 C399 1.399 1_556 S
C404 C403 1.394 . S
C404 C405 1.516 . S
C405 C404 1.516 . S
C405 C406 1.502 . S
C405 C407 1.561 . S
C405 C408 1.526 . S
C406 H390 0.959 . S
C406 H391 0.959 . S
C406 H392 0.961 . S
C406 C405 1.502 . S
C407 H393 0.960 . S
C407 H394 0.961 . S
C407 H395 0.959 . S
C407 C405 1.561 . S
C408 C405 1.526 . S
C408 C409 1.396 . S
C408 C413 1.390 . S
C409 C403 1.465 . S
C409 C408 1.396 . S
C409 C410 1.399 1_655 S
C410 H396 0.929 . S
C410 C409 1.399 1_455 S
C410 C411 1.385 . S
C411 H397 0.931 . S
C411 C410 1.385 . S
C411 C412 1.389 . S
C412 C411 1.389 . S
C412 C413 1.387 1_455 S
C413 H398 0.930 . S
C413 C408 1.390 . S
C413 C412 1.387 1_655 S
H414 C426 0.930 . S
H415 C428 0.930 . S
H416 C429 0.930 . S
H417 C433 0.959 . S
H418 C433 0.959 . S
H419 C433 0.961 . S
H420 C434 0.960 . S
H421 C434 0.961 . S
H422 C434 0.959 . S
H423 C437 0.929 . S
H424 C438 0.931 . S
H425 C440 0.930 . S
C426 H414 0.930 . S
C426 C427 1.399 . S
C426 C431 1.399 . S
C427 C426 1.399 . S
C427 C428 1.376 1_554 S
C428 H415 0.930 . S
C428 C427 1.376 1_556 S
C428 C429 1.388 . S
C429 H416 0.930 . S
C429 C428 1.388 . S
C429 C430 1.390 . S
C430 C429 1.390 . S
C430 C431 1.394 1_556 S
C430 C436 1.465 1_556 S
C431 C426 1.399 . S
C431 C430 1.394 1_554 S
C431 C432 1.516 . S
C432 C431 1.516 . S
C432 C433 1.502 . S
C432 C434 1.561 . S
C432 C435 1.526 . S
C433 H417 0.959 . S
C433 H418 0.959 . S
C433 H419 0.961 . S
C433 C432 1.502 . S
C434 H420 0.960 . S
C434 H421 0.961 . S
C434 H422 0.959 . S
C434 C432 1.561 . S
C435 C432 1.526 . S
C435 C436 1.400 . S
C435 C440 1.390 . S
C436 C430 1.465 1_554 S
C436 C435 1.400 . S
C436 C437 1.395 1_554 S
C437 H423 0.929 . S
C437 C436 1.395 1_556 S
C437 C438 1.385 . S
C438 H424 0.931 . S
C438 C437 1.385 . S
C438 C439 1.389 1_556 S
C439 C438 1.389 1_554 S
C439 C440 1.387 . S
C440 H425 0.930 . S
C440 C435 1.390 . S
C440 C439 1.387 . S
H441 C453 0.930 . S
H442 C455 0.930 . S
H443 C456 0.930 . S
H444 C460 0.959 . S
H445 C460 0.959 . S
H446 C460 0.961 . S
H447 C461 0.960 1_556 S
H448 C461 0.961 . S
H449 C461 0.959 . S
H450 C464 0.929 . S
H451 C465 0.931 . S
H452 C467 0.930 . S
C453 H441 0.930 . S
C453 C454 1.399 . S
C453 C458 1.399 . S
C454 C453 1.399 . S
C454 C455 1.376 . S
C455 H442 0.930 . S
C455 C454 1.376 . S
C455 C456 1.388 . S
C456 H443 0.930 . S
C456 C455 1.388 . S
C456 C457 1.390 . S
C457 C456 1.390 . S
C457 C458 1.394 . S
C457 C463 1.465 . S
C458 C453 1.399 . S
C458 C457 1.394 . S
C458 C459 1.516 . S
C459 C458 1.516 . S
C459 C460 1.502 . S
C459 C461 1.561 . S
C459 C462 1.526 . S
C460 H444 0.959 . S
C460 H445 0.959 . S
C460 H446 0.961 . S
C460 C459 1.502 . S
C461 H447 0.960 1_554 S
C461 H448 0.961 . S
C461 H449 0.959 . S
C461 C459 1.561 . S
C462 C459 1.526 . S
C462 C463 1.396 . S
C462 C467 1.390 . S
C463 C457 1.465 . S
C463 C462 1.396 . S
C463 C464 1.399 . S
C464 H450 0.929 . S
C464 C463 1.399 . S
C464 C465 1.385 . S
C465 H451 0.931 . S
C465 C464 1.385 . S
C465 C466 1.389 . S
C466 C465 1.389 . S
C466 C467 1.387 . S
C467 H452 0.930 . S
C467 C462 1.390 . S
C467 C466 1.387 . S
H468 C480 0.930 . S
H469 C482 0.930 . S
H470 C483 0.930 . S
H471 C487 0.959 . S
H472 C487 0.959 . S
H473 C487 0.961 . S
H474 C488 0.960 . S
H475 C488 0.961 . S
H476 C488 0.959 . S
H477 C491 0.929 . S
H478 C492 0.931 . S
H479 C494 0.930 . S
C480 H468 0.930 . S
C480 C481 1.399 . S
C480 C485 1.399 . S
C481 C480 1.399 . S
C481 C482 1.376 . S
C482 H469 0.930 . S
C482 C481 1.376 . S
C482 C483 1.388 . S
C483 H470 0.930 . S
C483 C482 1.388 . S
C483 C484 1.390 . S
C484 C483 1.390 . S
C484 C485 1.394 . S
C484 C490 1.465 . S
C485 C480 1.399 . S
C485 C484 1.394 . S
C485 C486 1.516 . S
C486 C485 1.516 . S
C486 C487 1.502 . S
C486 C488 1.561 . S
C486 C489 1.526 . S
C487 H471 0.959 . S
C487 H472 0.959 . S
C487 H473 0.961 . S
C487 C486 1.502 . S
C488 H474 0.960 . S
C488 H475 0.961 . S
C488 H476 0.959 . S
C488 C486 1.561 . S
C489 C486 1.526 . S
C489 C490 1.396 . S
C489 C494 1.390 . S
C490 C484 1.465 . S
C490 C489 1.396 . S
C490 C491 1.399 . S
C491 H477 0.929 . S
C491 C490 1.399 . S
C491 C492 1.385 . S
C492 H478 0.931 . S
C492 C491 1.385 . S
C492 C493 1.389 . S
C493 C492 1.389 . S
C493 C494 1.387 . S
C494 H479 0.930 . S
C494 C489 1.390 . S
C494 C493 1.387 . S
H495 C507 0.930 . S
H496 C509 0.930 . S
H497 C510 0.930 . S
H498 C514 0.959 . S
H499 C514 0.959 . S
H500 C514 0.972 . S
H501 C515 0.960 . S
H502 C515 0.961 . S
H503 C515 0.959 . S
H504 C518 0.929 . S
H505 C519 0.931 . S
H506 C521 0.930 . S
C507 H495 0.930 . S
C507 C508 1.399 . S
C507 C512 1.399 1_455 S
C508 C507 1.399 . S
C508 C509 1.376 . S
C509 H496 0.930 . S
C509 C508 1.376 . S
C509 C510 1.388 1_455 S
C510 H497 0.930 . S
C510 C509 1.388 1_655 S
C510 C511 1.390 . S
C511 C510 1.390 . S
C511 C512 1.394 . S
C511 C517 1.465 . S
C512 C507 1.399 1_655 S
C512 C511 1.394 . S
C512 C513 1.516 . S
C513 C512 1.516 . S
C513 C514 1.502 . S
C513 C515 1.561 . S
C513 C516 1.526 . S
C514 H498 0.959 . S
C514 H499 0.959 . S
C514 H500 0.972 . S
C514 C513 1.502 . S
C515 H501 0.960 . S
C515 H502 0.961 . S
C515 H503 0.959 . S
C515 C513 1.561 . S
C516 C513 1.526 . S
C516 C517 1.396 . S
C516 C521 1.390 . S
C517 C511 1.465 . S
C517 C516 1.396 . S
C517 C518 1.399 . S
C518 H504 0.929 . S
C518 C517 1.399 . S
C518 C519 1.385 . S
C519 H505 0.931 . S
C519 C518 1.385 . S
C519 C520 1.389 . S
C520 C519 1.389 . S
C520 C521 1.387 . S
C521 H506 0.930 . S
C521 C516 1.390 . S
C521 C520 1.387 . S
H522 C534 0.930 . S
H523 C536 0.930 . S
H524 C537 0.930 . S
H525 C541 0.959 . S
H526 C541 0.959 . S
H527 C541 0.961 . S
H528 C542 0.960 . S
H529 C542 0.961 . S
H530 C542 0.972 . S
H531 C545 0.929 . S
H532 C546 0.931 . S
H533 C548 0.930 1_565 S
C534 H522 0.930 . S
C534 C535 1.399 . S
C534 C539 1.399 . S
C535 C534 1.399 . S
C535 C536 1.376 . S
C536 H523 0.930 . S
C536 C535 1.376 . S
C536 C537 1.388 . S
C537 H524 0.930 . S
C537 C536 1.388 . S
C537 C538 1.390 . S
C538 C537 1.390 . S
C538 C539 1.394 . S
C538 C544 1.465 . S
C539 C534 1.399 . S
C539 C538 1.394 . S
C539 C540 1.516 . S
C540 C539 1.516 . S
C540 C541 1.502 1_545 S
C540 C542 1.561 1_545 S
C540 C543 1.526 . S
C541 H525 0.959 . S
C541 H526 0.959 . S
C541 H527 0.961 . S
C541 C540 1.502 1_565 S
C542 H528 0.960 . S
C542 H529 0.961 . S
C542 H530 0.972 . S
C542 C540 1.561 1_565 S
C543 C540 1.526 . S
C543 C544 1.396 . S
C543 C548 1.390 . S
C544 C538 1.465 . S
C544 C543 1.396 . S
C544 C545 1.399 . S
C545 H531 0.929 . S
C545 C544 1.399 . S
C545 C546 1.385 . S
C546 H532 0.931 . S
C546 C545 1.385 . S
C546 C547 1.389 . S
C547 C546 1.389 . S
C547 C548 1.387 . S
C548 H533 0.930 1_545 S
C548 C543 1.390 . S
C548 C547 1.387 . S
H549 C561 0.930 . S
H550 C563 0.930 . S
H551 C564 0.930 1_565 S
H552 C568 0.959 . S
H553 C568 0.959 . S
H554 C568 0.961 . S
H555 C569 0.960 . S
H556 C569 0.961 . S
H557 C569 0.959 . S
H558 C572 0.929 . S
H559 C573 0.931 . S
H560 C575 0.930 . S
C561 H549 0.930 . S
C561 C562 1.399 . S
C561 C566 1.399 . S
C562 C561 1.399 . S
C562 C563 1.376 . S
C563 H550 0.930 . S
C563 C562 1.376 . S
C563 C564 1.388 . S
C564 H551 0.930 1_545 S
C564 C563 1.388 . S
C564 C565 1.390 . S
C565 C564 1.390 . S
C565 C566 1.394 . S
C565 C571 1.465 . S
C566 C561 1.399 . S
C566 C565 1.394 . S
C566 C567 1.516 . S
C567 C566 1.516 . S
C567 C568 1.502 . S
C567 C569 1.561 . S
C567 C570 1.526 . S
C568 H552 0.959 . S
C568 H553 0.959 . S
C568 H554 0.961 . S
C568 C567 1.502 . S
C569 H555 0.960 . S
C569 H556 0.961 . S
C569 H557 0.959 . S
C569 C567 1.561 . S
C570 C567 1.526 . S
C570 C571 1.396 . S
C570 C575 1.390 . S
C571 C565 1.465 . S
C571 C570 1.396 . S
C571 C572 1.399 1_545 S
C572 H558 0.929 . S
C572 C571 1.399 1_565 S
C572 C573 1.385 . S
C573 H559 0.931 . S
C573 C572 1.385 . S
C573 C574 1.389 1_565 S
C574 C573 1.389 1_545 S
C574 C575 1.387 . S
C575 H560 0.930 . S
C575 C570 1.390 . S
C575 C574 1.387 . S
H576 C588 0.930 . S
H577 C590 0.930 . S
H578 C591 0.930 . S
H579 C595 0.959 . S
H580 C595 0.959 . S
H581 C595 0.961 . S
H582 C596 0.960 . S
H583 C596 0.961 . S
H584 C596 0.959 . S
H585 C599 0.929 . S
H586 C600 0.931 . S
H587 C602 0.930 . S
C588 H576 0.930 . S
C588 C589 1.399 . S
C588 C593 1.399 . S
C589 C588 1.399 . S
C589 C590 1.376 . S
C590 H577 0.930 . S
C590 C589 1.376 . S
C590 C591 1.388 . S
C591 H578 0.930 . S
C591 C590 1.388 . S
C591 C592 1.390 . S
C592 C591 1.390 . S
C592 C593 1.394 . S
C592 C598 1.465 . S
C593 C588 1.399 . S
C593 C592 1.394 . S
C593 C594 1.516 . S
C594 C593 1.516 . S
C594 C595 1.502 . S
C594 C596 1.561 . S
C594 C597 1.526 . S
C595 H579 0.959 . S
C595 H580 0.959 . S
C595 H581 0.961 . S
C595 C594 1.502 . S
C596 H582 0.960 . S
C596 H583 0.961 . S
C596 H584 0.959 . S
C596 C594 1.561 . S
C597 C594 1.526 . S
C597 C598 1.396 . S
C597 C602 1.390 . S
C598 C592 1.465 . S
C598 C597 1.396 . S
C598 C599 1.399 . S
C599 H585 0.929 . S
C599 C598 1.399 . S
C599 C600 1.385 . S
C600 H586 0.931 . S
C600 C599 1.385 . S
C600 C601 1.389 . S
C601 C600 1.389 . S
C601 C602 1.387 . S
C602 H587 0.930 . S
C602 C597 1.390 . S
C602 C601 1.387 . S
C211 C117 1.558 . S
C223 N13 1.337 . S
C238 C150 0.723 . S
C250 C18 0.755 . S
C265 N2 0.556 . S
C277 N178 0.497 . S
C292 N68 1.209 . S
C304 C7 1.392 1_565 S
C319 N167 1.146 1_556 S
C331 C51 1.431 1_565 S
C346 N79 0.673 . S
C358 N46 0.766 . S
C373 C40 0.865 . S
C385 C106 0.850 . S
C400 C139 1.400 . S
C412 N35 1.157 . S
C427 C84 1.425 . S
C439 N101 1.302 . S
C454 C73 0.892 . S
C466 C172 0.964 . S
C481 N134 0.610 . S
C493 N112 0.518 . S
C508 C183 1.553 . S
C520 N145 1.391 . S
C535 C54 1.103 . S
C547 C21 1.112 . S
C562 C153 1.085 . S
C574 C87 1.130 . S
C589 C186 1.160 . S
C601 C120 1.038 . S
