# Generated by pormake.
# Topology uou, (4)-cn, num edge types: 1
# Building blocks:
#     Node 0, Type 0, BuildingBlock: CEKHIL_clean_sbu_0, # of connection points: 4
#     Node 1, Type 0, BuildingBlock: CEKHIL_clean_sbu_0, # of connection points: 4
#     Node 2, Type 0, BuildingBlock: CEKHIL_clean_sbu_0, # of connection points: 4
#     Node 3, Type 0, BuildingBlock: CEKHIL_clean_sbu_0, # of connection points: 4
#     Node 4, Type 0, BuildingBlock: CEKHIL_clean_sbu_0, # of connection points: 4
#     Node 5, Type 0, BuildingBlock: CEKHIL_clean_sbu_0, # of connection points: 4
#     Node 6, Type 0, BuildingBlock: CEKHIL_clean_sbu_0, # of connection points: 4
#     Node 7, Type 0, BuildingBlock: CEKHIL_clean_sbu_0, # of connection points: 4
#     Node 8, Type 0, BuildingBlock: CEKHIL_clean_sbu_0, # of connection points: 4
#     Node 9, Type 0, BuildingBlock: CEKHIL_clean_sbu_0, # of connection points: 4
#     Node 10, Type 0, BuildingBlock: CEKHIL_clean_sbu_0, # of connection points: 4
#     Node 11, Type 0, BuildingBlock: CEKHIL_clean_sbu_0, # of connection points: 4
#     Node 12, Type 0, BuildingBlock: CEKHIL_clean_sbu_0, # of connection points: 4
#     Node 13, Type 0, BuildingBlock: CEKHIL_clean_sbu_0, # of connection points: 4
#     Node 14, Type 0, BuildingBlock: CEKHIL_clean_sbu_0, # of connection points: 4
#     Node 15, Type 0, BuildingBlock: CEKHIL_clean_sbu_0, # of connection points: 4
#     Edge 16, Type (0, 0), BuildingBlock: ZUJKAS_clean_linker_0, # of connection points: 2
#     Edge 17, Type (0, 0), BuildingBlock: ZUJKAS_clean_linker_0, # of connection points: 2
#     Edge 18, Type (0, 0), BuildingBlock: ZUJKAS_clean_linker_0, # of connection points: 2
#     Edge 19, Type (0, 0), BuildingBlock: ZUJKAS_clean_linker_0, # of connection points: 2
#     Edge 20, Type (0, 0), BuildingBlock: ZUJKAS_clean_linker_0, # of connection points: 2
#     Edge 21, Type (0, 0), BuildingBlock: ZUJKAS_clean_linker_0, # of connection points: 2
#     Edge 22, Type (0, 0), BuildingBlock: ZUJKAS_clean_linker_0, # of connection points: 2
#     Edge 23, Type (0, 0), BuildingBlock: ZUJKAS_clean_linker_0, # of connection points: 2
#     Edge 24, Type (0, 0), BuildingBlock: ZUJKAS_clean_linker_0, # of connection points: 2
#     Edge 25, Type (0, 0), BuildingBlock: ZUJKAS_clean_linker_0, # of connection points: 2
#     Edge 26, Type (0, 0), BuildingBlock: ZUJKAS_clean_linker_0, # of connection points: 2
#     Edge 27, Type (0, 0), BuildingBlock: ZUJKAS_clean_linker_0, # of connection points: 2
#     Edge 28, Type (0, 0), BuildingBlock: ZUJKAS_clean_linker_0, # of connection points: 2
#     Edge 29, Type (0, 0), BuildingBlock: ZUJKAS_clean_linker_0, # of connection points: 2
#     Edge 30, Type (0, 0), BuildingBlock: ZUJKAS_clean_linker_0, # of connection points: 2
#     Edge 31, Type (0, 0), BuildingBlock: ZUJKAS_clean_linker_0, # of connection points: 2
#     Edge 32, Type (0, 0), BuildingBlock: ZUJKAS_clean_linker_0, # of connection points: 2
#     Edge 33, Type (0, 0), BuildingBlock: ZUJKAS_clean_linker_0, # of connection points: 2
#     Edge 34, Type (0, 0), BuildingBlock: ZUJKAS_clean_linker_0, # of connection points: 2
#     Edge 35, Type (0, 0), BuildingBlock: ZUJKAS_clean_linker_0, # of connection points: 2
#     Edge 36, Type (0, 0), BuildingBlock: ZUJKAS_clean_linker_0, # of connection points: 2
#     Edge 37, Type (0, 0), BuildingBlock: ZUJKAS_clean_linker_0, # of connection points: 2
#     Edge 38, Type (0, 0), BuildingBlock: ZUJKAS_clean_linker_0, # of connection points: 2
#     Edge 39, Type (0, 0), BuildingBlock: ZUJKAS_clean_linker_0, # of connection points: 2
#     Edge 40, Type (0, 0), BuildingBlock: ZUJKAS_clean_linker_0, # of connection points: 2
#     Edge 41, Type (0, 0), BuildingBlock: ZUJKAS_clean_linker_0, # of connection points: 2
#     Edge 42, Type (0, 0), BuildingBlock: ZUJKAS_clean_linker_0, # of connection points: 2
#     Edge 43, Type (0, 0), BuildingBlock: ZUJKAS_clean_linker_0, # of connection points: 2
#     Edge 44, Type (0, 0), BuildingBlock: ZUJKAS_clean_linker_0, # of connection points: 2
#     Edge 45, Type (0, 0), BuildingBlock: ZUJKAS_clean_linker_0, # of connection points: 2
#     Edge 46, Type (0, 0), BuildingBlock: ZUJKAS_clean_linker_0, # of connection points: 2
#     Edge 47, Type (0, 0), BuildingBlock: ZUJKAS_clean_linker_0, # of connection points: 2
# Relax obj value: 0.038
# Max RMSD: 0.067
# Mean RMSD: 0.067
data_MOF--net-uou--node1-CEKHIL_clean_sbu_0--edge1-ZUJKAS_clean_linker_0
_symmetry_space_group_name_H-M    P1
_symmetry_Int_Tables_number       1
_symmetry_cell_setting            triclinic
loop_
_symmetry_equiv_pos_as_xyz
'x, y, z'
_cell_length_a     48.801989
_cell_length_b     51.874801
_cell_length_c     69.276201
_cell_angle_alpha  90.005763
_cell_angle_beta   89.989751
_cell_angle_gamma 90.027581
loop_
_atom_site_label
_atom_site_type_symbol
_atom_site_fract_x
_atom_site_fract_y
_atom_site_fract_z
_atom_type_partial_charge
Co0 Co 0.07536 0.07158 0.12181 0.0
O1 O 0.09955 0.04246 0.12437 0.0
O2 O 0.11014 0.0784 0.10896 0.0
C3 C 0.06182 0.07233 0.15295 0.0
O4 O 0.05595 0.10618 0.11729 0.0
Co5 Co 0.01278 0.06497 0.12988 0.0
O6 O 0.01276 0.10311 0.12857 0.0
C7 C 0.03654 0.04492 0.09376 0.0
C8 C 0.11761 0.05561 0.11482 0.0
C9 C 0.03252 0.11626 0.12162 0.0
O10 O 0.05934 0.0566 0.09728 0.0
O11 O 0.01668 0.044 0.10582 0.0
O12 O 0.08488 0.083 0.14799 0.0
O13 O 0.04944 0.05981 0.13948 0.0
Co14 Co 0.4326 0.93324 0.12091 0.0
O15 O 0.40873 0.96261 0.12345 0.0
O16 O 0.39764 0.92665 0.10824 0.0
C17 C 0.44635 0.93249 0.15204 0.0
O18 O 0.4516 0.89841 0.11645 0.0
Co19 Co 0.49529 0.9395 0.12859 0.0
O20 O 0.49531 0.90143 0.12676 0.0
C21 C 0.47167 0.95851 0.0921 0.0
C22 C 0.39045 0.94956 0.11403 0.0
C23 C 0.47523 0.88835 0.12021 0.0
O24 O 0.4485 0.94783 0.09617 0.0
O25 O 0.49184 0.95918 0.1039 0.0
O26 O 0.42313 0.92208 0.14714 0.0
O27 O 0.45881 0.94488 0.13851 0.0
Co28 Co 0.5736 0.93281 0.37419 0.0
O29 O 0.5975 0.9624 0.37314 0.0
O30 O 0.60823 0.92536 0.38694 0.0
C31 C 0.56076 0.93373 0.3429 0.0
O32 O 0.55448 0.89779 0.3773 0.0
Co33 Co 0.51117 0.93933 0.36583 0.0
O34 O 0.51126 0.90116 0.36616 0.0
C35 C 0.53395 0.95702 0.40297 0.0
C36 C 0.61553 0.9487 0.38228 0.0
C37 C 0.53109 0.88779 0.37274 0.0
O38 O 0.55701 0.94601 0.39911 0.0
O39 O 0.51422 0.95843 0.39084 0.0
O40 O 0.58385 0.92315 0.34782 0.0
O41 O 0.54789 0.94543 0.35658 0.0
Co42 Co 0.93039 0.06882 0.3736 0.0
O43 O 0.90668 0.03914 0.37267 0.0
O44 O 0.89561 0.07626 0.38622 0.0
C45 C 0.94339 0.06767 0.34236 0.0
O46 O 0.9495 0.10391 0.3765 0.0
Co47 Co 0.9929 0.06214 0.3653 0.0
O48 O 0.99236 0.1003 0.36471 0.0
C49 C 0.96988 0.04466 0.40241 0.0
C50 C 0.88852 0.05282 0.38169 0.0
C51 C 0.97271 0.11383 0.37139 0.0
O52 O 0.94694 0.0559 0.39859 0.0
O53 O 0.98958 0.04303 0.39027 0.0
O54 O 0.9202 0.07819 0.34714 0.0
O55 O 0.95617 0.05611 0.35614 0.0
Co56 Co 0.93045 0.93272 0.87394 0.0
O57 O 0.90694 0.96253 0.87306 0.0
O58 O 0.89539 0.92526 0.88619 0.0
C59 C 0.94412 0.93437 0.84285 0.0
O60 O 0.94933 0.89752 0.87672 0.0
Co61 Co 0.99318 0.93962 0.86635 0.0
O62 O 0.99325 0.90147 0.86698 0.0
C63 C 0.96928 0.9568 0.90321 0.0
C64 C 0.88856 0.94883 0.88185 0.0
C65 C 0.97311 0.88786 0.8728 0.0
O66 O 0.94659 0.94521 0.89921 0.0
O67 O 0.98906 0.95889 0.89117 0.0
O68 O 0.92078 0.92382 0.84726 0.0
O69 O 0.95662 0.94564 0.85688 0.0
Co70 Co 0.57622 0.07325 0.87299 0.0
O71 O 0.59985 0.0435 0.87236 0.0
O72 O 0.61043 0.0804 0.88644 0.0
C73 C 0.56479 0.07238 0.84146 0.0
O74 O 0.55729 0.10842 0.87572 0.0
Co75 Co 0.51421 0.06761 0.86307 0.0
O76 O 0.5162 0.10568 0.86108 0.0
C77 C 0.53457 0.05064 0.90119 0.0
C78 C 0.61768 0.05703 0.88183 0.0
C79 C 0.53525 0.11884 0.86894 0.0
O80 O 0.55842 0.06021 0.89754 0.0
O81 O 0.51511 0.05005 0.8888 0.0
O82 O 0.58763 0.08301 0.84688 0.0
O83 O 0.55123 0.06072 0.85483 0.0
Co84 Co 0.43112 0.07237 0.62225 0.0
O85 O 0.40693 0.04308 0.62395 0.0
O86 O 0.39663 0.07957 0.60921 0.0
C87 C 0.44381 0.07266 0.65355 0.0
O88 O 0.45059 0.10709 0.61843 0.0
Co89 Co 0.49338 0.06565 0.6309 0.0
O90 O 0.49356 0.10383 0.63003 0.0
C91 C 0.47069 0.04679 0.59408 0.0
C92 C 0.38911 0.05649 0.61438 0.0
C93 C 0.47392 0.11711 0.62307 0.0
O94 O 0.44768 0.05801 0.59769 0.0
O95 O 0.4904 0.04574 0.60624 0.0
O96 O 0.42092 0.08338 0.64834 0.0
O97 O 0.45657 0.06017 0.64021 0.0
Co98 Co 0.07578 0.93405 0.6222 0.0
O99 O 0.09955 0.96371 0.62268 0.0
O100 O 0.11032 0.92636 0.60934 0.0
C101 C 0.06336 0.93578 0.65354 0.0
O102 O 0.05654 0.89897 0.61969 0.0
Co103 Co 0.01345 0.94092 0.63101 0.0
O104 O 0.01366 0.90275 0.6314 0.0
C105 C 0.03588 0.958 0.5936 0.0
C106 C 0.11751 0.94986 0.6136 0.0
C107 C 0.03326 0.88915 0.62475 0.0
O108 O 0.05883 0.94669 0.59727 0.0
O109 O 0.01642 0.95983 0.60592 0.0
O110 O 0.08639 0.92504 0.64864 0.0
O111 O 0.05035 0.94712 0.63977 0.0
Co112 Co 0.57459 0.57132 0.12169 0.0
O113 O 0.59853 0.54197 0.12398 0.0
O114 O 0.6095 0.57814 0.109 0.0
C115 C 0.56093 0.57175 0.15284 0.0
O116 O 0.55542 0.60613 0.11754 0.0
Co117 Co 0.51198 0.56474 0.12939 0.0
O118 O 0.51234 0.60291 0.12898 0.0
C119 C 0.53561 0.54616 0.09279 0.0
C120 C 0.61675 0.55517 0.11461 0.0
C121 C 0.53209 0.61619 0.12215 0.0
O122 O 0.55866 0.55704 0.09688 0.0
O123 O 0.51547 0.5452 0.10461 0.0
O124 O 0.58414 0.5822 0.14797 0.0
O125 O 0.54849 0.55942 0.13927 0.0
Co126 Co 0.93145 0.43225 0.12112 0.0
O127 O 0.90714 0.46121 0.12408 0.0
O128 O 0.8967 0.42563 0.10816 0.0
C129 C 0.94495 0.43064 0.15226 0.0
O130 O 0.95108 0.39788 0.11617 0.0
Co131 Co 0.99393 0.43944 0.12916 0.0
O132 O 0.99456 0.40138 0.12687 0.0
C133 C 0.97009 0.45956 0.09314 0.0
C134 C 0.88914 0.44826 0.11432 0.0
C135 C 0.97483 0.38811 0.12001 0.0
O136 O 0.94735 0.44782 0.09674 0.0
O137 O 0.99002 0.4605 0.10513 0.0
O138 O 0.92193 0.42008 0.14708 0.0
O139 O 0.95727 0.44371 0.13904 0.0
Co140 Co 0.07424 0.43077 0.37353 0.0
O141 O 0.09769 0.46048 0.37096 0.0
O142 O 0.10917 0.42482 0.3864 0.0
C143 C 0.06072 0.4294 0.34237 0.0
O144 O 0.05572 0.39572 0.37808 0.0
Co145 Co 0.01148 0.4362 0.36555 0.0
O146 O 0.01184 0.3982 0.36799 0.0
C147 C 0.0345 0.45574 0.40205 0.0
C148 C 0.11607 0.44778 0.38054 0.0
C149 C 0.03213 0.38542 0.37453 0.0
O150 O 0.05786 0.44533 0.39813 0.0
O151 O 0.01446 0.45613 0.39014 0.0
O152 O 0.08413 0.41951 0.34739 0.0
O153 O 0.048 0.4418 0.35576 0.0
Co154 Co 0.43082 0.57137 0.37419 0.0
O155 O 0.40649 0.54234 0.37157 0.0
O156 O 0.39594 0.57835 0.38689 0.0
C157 C 0.44454 0.57216 0.34306 0.0
O158 O 0.45047 0.60587 0.37867 0.0
Co159 Co 0.49335 0.5639 0.3665 0.0
O160 O 0.49404 0.602 0.36821 0.0
C161 C 0.46921 0.54482 0.40275 0.0
C162 C 0.38839 0.55558 0.381 0.0
C163 C 0.47428 0.61549 0.37477 0.0
O164 O 0.44651 0.55647 0.39888 0.0
O165 O 0.48921 0.54352 0.39083 0.0
O166 O 0.4215 0.58282 0.34802 0.0
O167 O 0.45677 0.55944 0.35651 0.0
Co168 Co 0.43116 0.43486 0.87302 0.0
O169 O 0.40742 0.46454 0.87231 0.0
O170 O 0.39709 0.42776 0.88666 0.0
C171 C 0.44238 0.4353 0.84143 0.0
O172 O 0.45028 0.39983 0.8759 0.0
Co173 Co 0.49308 0.44063 0.86291 0.0
O174 O 0.49095 0.40256 0.86065 0.0
C175 C 0.4728 0.4581 0.90091 0.0
C176 C 0.38974 0.45107 0.88197 0.0
C177 C 0.47211 0.38943 0.86879 0.0
O178 O 0.44907 0.4482 0.8974 0.0
O179 O 0.49219 0.45873 0.88846 0.0
O180 O 0.41957 0.42475 0.84703 0.0
O181 O 0.45599 0.44722 0.85466 0.0
Co182 Co 0.07587 0.57161 0.87353 0.0
O183 O 0.10005 0.5423 0.87296 0.0
O184 O 0.11011 0.57951 0.88678 0.0
C185 C 0.06422 0.57038 0.84206 0.0
O186 O 0.05603 0.60634 0.87615 0.0
Co187 Co 0.01396 0.56377 0.86405 0.0
O188 O 0.01352 0.60196 0.86388 0.0
C189 C 0.03555 0.54725 0.90182 0.0
C190 C 0.11767 0.55617 0.88233 0.0
C191 C 0.03271 0.61582 0.87085 0.0
O192 O 0.05863 0.55839 0.89821 0.0
O193 O 0.01625 0.54536 0.88938 0.0
O194 O 0.08687 0.58147 0.84737 0.0
O195 O 0.05111 0.55838 0.85549 0.0
Co196 Co 0.93222 0.57231 0.62154 0.0
O197 O 0.9082 0.54302 0.62376 0.0
O198 O 0.89755 0.57899 0.60845 0.0
C199 C 0.94502 0.57284 0.65283 0.0
O200 O 0.95154 0.60707 0.61742 0.0
Co201 Co 0.99458 0.56572 0.63016 0.0
O202 O 0.99492 0.60379 0.62837 0.0
C203 C 0.97205 0.54721 0.59317 0.0
C204 C 0.89016 0.55609 0.61417 0.0
C205 C 0.97511 0.61699 0.62156 0.0
O206 O 0.94872 0.55772 0.597 0.0
O207 O 0.99189 0.54648 0.60524 0.0
O208 O 0.92215 0.58359 0.64761 0.0
O209 O 0.95777 0.56037 0.63949 0.0
Co210 Co 0.57564 0.433 0.62209 0.0
O211 O 0.60026 0.46177 0.62487 0.0
O212 O 0.61025 0.42604 0.60901 0.0
C213 C 0.56239 0.43165 0.65329 0.0
O214 O 0.55563 0.39878 0.61731 0.0
Co215 Co 0.51336 0.44067 0.63037 0.0
O216 O 0.51238 0.40258 0.62837 0.0
C217 C 0.53697 0.46024 0.59408 0.0
C218 C 0.61806 0.44866 0.61507 0.0
C219 C 0.53191 0.38914 0.62141 0.0
O220 O 0.55973 0.44857 0.59771 0.0
O221 O 0.5171 0.46132 0.60611 0.0
O222 O 0.58517 0.42074 0.64801 0.0
O223 O 0.55012 0.44485 0.64012 0.0
H224 H 0.3661 0.98803 0.13428 0.0
H225 H 0.31995 0.00518 0.13067 0.0
H226 H 0.30577 0.95372 0.08274 0.0
H227 H 0.35173 0.93536 0.08711 0.0
H228 H 0.29541 0.03045 0.10423 0.0
H229 H 0.23905 0.93836 0.11285 0.0
H230 H 0.2754 0.94081 0.11697 0.0
H231 H 0.2622 0.93812 0.09276 0.0
C232 C 0.35314 0.98024 0.123 0.0
C233 C 0.36252 0.96018 0.11106 0.0
C234 C 0.32669 0.99014 0.12091 0.0
C235 C 0.30894 0.98056 0.10663 0.0
C236 C 0.31858 0.96097 0.09428 0.0
H237 H 0.15572 0.06944 0.08734 0.0
H238 H 0.2017 0.05121 0.08273 0.0
C239 C 0.34496 0.9506 0.09666 0.0
C240 C 0.2806 0.99135 0.10495 0.0
H241 H 0.2127 0.97505 0.10521 0.0
C242 C 0.27733 0.01829 0.10445 0.0
C243 C 0.25684 0.97561 0.10537 0.0
C244 C 0.25846 0.94665 0.10721 0.0
C245 C 0.25127 0.02991 0.10498 0.0
C246 C 0.22752 0.01417 0.10513 0.0
C247 C 0.23078 0.98722 0.105 0.0
C248 C 0.19921 0.02498 0.10704 0.0
C249 C 0.24969 0.05891 0.10638 0.0
C250 C 0.18185 0.01571 0.12166 0.0
C251 C 0.15538 0.02552 0.12389 0.0
C252 C 0.14561 0.04519 0.11176 0.0
C253 C 0.1628 0.0545 0.09705 0.0
C254 C 0.1892 0.04421 0.09452 0.0
H255 H 0.26924 0.06737 0.11163 0.0
H256 H 0.24557 0.06703 0.09185 0.0
H257 H 0.23301 0.06504 0.11627 0.0
H258 H 0.18888 1.00096 0.13157 0.0
H259 H 0.14271 0.01796 0.13542 0.0
H260 H 0.66204 0.92222 0.39262 0.0
H261 H 0.70869 0.93962 0.39594 0.0
H262 H 0.67845 0.01599 0.38399 0.0
H263 H 0.63202 0.99883 0.3804 0.0
H264 H 0.73488 0.97236 0.3632 0.0
H265 H 0.72913 0.02054 0.43487 0.0
H266 H 0.70761 0.99341 0.4286 0.0
H267 H 0.70068 0.02459 0.41858 0.0
C268 C 0.66528 0.94276 0.39096 0.0
C269 C 0.64332 0.95913 0.38621 0.0
C270 C 0.69193 0.95265 0.39283 0.0
C271 C 0.69697 0.97912 0.39035 0.0
C272 C 0.67497 0.99556 0.38616 0.0
H273 H 0.84092 0.07904 0.38986 0.0
H274 H 0.79454 0.06091 0.39259 0.0
C275 C 0.64846 0.98568 0.38405 0.0
C276 C 0.72539 0.98941 0.39067 0.0
H277 H 0.76931 0.02744 0.41651 0.0
C278 C 0.74254 0.98423 0.37491 0.0
C279 C 0.73507 0.00527 0.4058 0.0
C280 C 0.71733 0.01129 0.42303 0.0
C281 C 0.76903 0.99479 0.3737 0.0
C282 C 0.77906 0.0103 0.38903 0.0
C283 C 0.76179 0.01549 0.40481 0.0
C284 C 0.80736 0.02126 0.38883 0.0
C285 C 0.78556 0.9899 0.35564 0.0
C286 C 0.83016 0.00505 0.3865 0.0
C287 C 0.85651 0.01538 0.38467 0.0
C288 C 0.86083 0.04216 0.38561 0.0
C289 C 0.83825 0.05834 0.38906 0.0
C290 C 0.81174 0.04798 0.39059 0.0
H291 H 0.77218 0.98491 0.34321 0.0
H292 H 0.79805 0.00699 0.35168 0.0
H293 H 0.79955 0.97339 0.35814 0.0
H294 H 0.82755 0.98435 0.38575 0.0
H295 H 0.87351 1.00233 0.3823 0.0
H296 H 0.87423 0.99945 0.88286 0.0
H297 H 0.82867 0.01797 0.887 0.0
H298 H 0.79461 0.94162 0.89299 0.0
H299 H 0.84057 0.92301 0.88962 0.0
H300 H 0.78635 0.01338 0.86454 0.0
H301 H 0.75608 0.97653 0.93644 0.0
H302 H 0.79074 0.97416 0.92756 0.0
H303 H 0.76521 0.95112 0.92013 0.0
C304 C 0.85711 0.98658 0.88536 0.0
C305 C 0.86104 0.95974 0.88596 0.0
C306 C 0.831 0.99722 0.88771 0.0
C307 C 0.80805 0.98131 0.89055 0.0
C308 C 0.81196 0.95444 0.89136 0.0
H309 H 0.63405 0.00695 0.87916 0.0
H310 H 0.68031 0.98956 0.88293 0.0
C311 C 0.83825 0.94377 0.88931 0.0
C312 C 0.78004 0.99294 0.89126 0.0
H313 H 0.72037 0.99508 0.91725 0.0
C314 C 0.77211 0.00956 0.87621 0.0
C315 C 0.76126 0.98805 0.90646 0.0
C316 C 0.76883 0.9717 0.92366 0.0
C317 C 0.74598 0.02093 0.87575 0.0
C318 C 0.72713 0.01562 0.89071 0.0
C319 C 0.73492 0.99914 0.90581 0.0
C320 C 0.6988 0.02612 0.89027 0.0
C321 C 0.73839 0.03811 0.85901 0.0
C322 C 0.69372 0.05243 0.89356 0.0
C323 C 0.66715 0.06247 0.89156 0.0
C324 C 0.6453 0.04638 0.88605 0.0
C325 C 0.65042 0.01992 0.88334 0.0
C326 C 0.67684 0.00989 0.88553 0.0
H327 H 0.75407 0.03777 0.84738 0.0
H328 H 0.71837 0.03212 0.85285 0.0
H329 H 0.73622 0.05825 0.8642 0.0
H330 H 0.7104 0.06527 0.89731 0.0
H331 H 0.66391 0.08292 0.89372 0.0
H332 H 0.13184 1.00033 0.61066 0.0
H333 H 0.17757 0.01856 0.60647 0.0
H334 H 0.21161 0.94188 0.60393 0.0
H335 H 0.16551 0.92355 0.60723 0.0
H336 H 0.21872 0.01578 0.62972 0.0
H337 H 0.25246 0.97344 0.56036 0.0
H338 H 0.21741 0.97154 0.56851 0.0
H339 H 0.24265 0.9492 0.57745 0.0
C340 C 0.14901 0.98733 0.60886 0.0
C341 C 0.14505 0.96049 0.60922 0.0
C342 C 0.17521 0.99779 0.60649 0.0
C343 C 0.19822 0.98171 0.60465 0.0
C344 C 0.19425 0.95481 0.60476 0.0
H345 H 0.37185 0.00687 0.61881 0.0
H346 H 0.32552 0.98972 0.61484 0.0
C347 C 0.16788 0.9443 0.60677 0.0
C348 C 0.2263 0.99324 0.60413 0.0
H349 H 0.28738 0.99303 0.57978 0.0
C350 C 0.23354 0.01098 0.61862 0.0
C351 C 0.24586 0.98708 0.58969 0.0
C352 C 0.23912 0.96948 0.57302 0.0
C353 C 0.25972 0.02225 0.61932 0.0
C354 C 0.27935 0.01565 0.60517 0.0
C355 C 0.27225 0.99806 0.59061 0.0
C356 C 0.30776 0.02597 0.60594 0.0
C357 C 0.26651 0.04069 0.63547 0.0
C358 C 0.31328 0.05201 0.60189 0.0
C359 C 0.33989 0.06191 0.60402 0.0
C360 C 0.36136 0.04595 0.6104 0.0
C361 C 0.3558 0.01974 0.61395 0.0
C362 C 0.32933 0.00985 0.61165 0.0
H363 H 0.25028 0.0412 0.64671 0.0
H364 H 0.28622 0.03524 0.64236 0.0
H365 H 0.26892 0.06041 0.62949 0.0
H366 H 0.29692 0.06475 0.59738 0.0
H367 H 0.34349 0.08216 0.60118 0.0
H368 H 0.86396 0.48541 0.13538 0.0
H369 H 0.81789 0.50264 0.13158 0.0
H370 H 0.80525 0.45358 0.08205 0.0
H371 H 0.85115 0.4351 0.08657 0.0
H372 H 0.79444 0.52927 0.10541 0.0
H373 H 0.7374 0.43705 0.11052 0.0
H374 H 0.7736 0.43914 0.11533 0.0
H375 H 0.76124 0.43777 0.09085 0.0
C376 C 0.85135 0.47815 0.12371 0.0
C377 C 0.86115 0.45874 0.11135 0.0
C378 C 0.82494 0.4881 0.12151 0.0
C379 C 0.80766 0.47924 0.1067 0.0
C380 C 0.81769 0.46026 0.09397 0.0
H381 H 0.65547 0.56986 0.0878 0.0
H382 H 0.70138 0.55147 0.08316 0.0
C383 C 0.84404 0.44982 0.09646 0.0
C384 C 0.77942 0.49022 0.10483 0.0
H385 H 0.71145 0.47427 0.10365 0.0
C386 C 0.77629 0.51719 0.10502 0.0
C387 C 0.75559 0.4746 0.10445 0.0
C388 C 0.75703 0.44556 0.10547 0.0
C389 C 0.75029 0.5289 0.1055 0.0
C390 C 0.72646 0.51328 0.10488 0.0
C391 C 0.7296 0.48634 0.10404 0.0
C392 C 0.69817 0.52415 0.10674 0.0
C393 C 0.7488 0.55783 0.10768 0.0
C394 C 0.68045 0.51434 0.12094 0.0
C395 C 0.65403 0.52428 0.12319 0.0
C396 C 0.64467 0.54459 0.11149 0.0
C397 C 0.66222 0.55441 0.09718 0.0
C398 C 0.68857 0.54402 0.09463 0.0
H399 H 0.76827 0.56594 0.11337 0.0
H400 H 0.74504 0.56667 0.09334 0.0
H401 H 0.73193 0.56353 0.11754 0.0
H402 H 0.68716 0.49909 0.13052 0.0
H403 H 0.64109 0.5163 0.1344 0.0
H404 H 0.3634 0.51814 0.36012 0.0
H405 H 0.31718 0.50114 0.36368 0.0
H406 H 0.30385 0.55118 0.41256 0.0
H407 H 0.34992 0.56944 0.40826 0.0
H408 H 0.29337 0.47502 0.38988 0.0
H409 H 0.23632 0.56702 0.38355 0.0
H410 H 0.27259 0.56493 0.37902 0.0
H411 H 0.25988 0.5667 0.4034 0.0
C412 C 0.35061 0.52567 0.3716 0.0
C413 C 0.36029 0.54526 0.38384 0.0
C414 C 0.32411 0.51585 0.37366 0.0
C415 C 0.3066 0.52503 0.38822 0.0
C416 C 0.31648 0.54423 0.40082 0.0
H417 H 0.15479 0.4341 0.40759 0.0
H418 H 0.20049 0.453 0.41211 0.0
C419 C 0.34292 0.55454 0.39847 0.0
C420 C 0.27832 0.51405 0.39002 0.0
H421 H 0.21031 0.52988 0.39074 0.0
C422 C 0.27522 0.48707 0.39006 0.0
C423 C 0.25447 0.52963 0.39013 0.0
C424 C 0.25589 0.55865 0.38883 0.0
C425 C 0.24924 0.4753 0.38959 0.0
C426 C 0.22538 0.49087 0.38999 0.0
C427 C 0.22848 0.51784 0.39055 0.0
C428 C 0.19711 0.47986 0.38826 0.0
C429 C 0.24783 0.44634 0.38765 0.0
C430 C 0.17931 0.48931 0.37397 0.0
C431 C 0.15298 0.47908 0.37179 0.0
C432 C 0.14381 0.45884 0.38364 0.0
C433 C 0.16141 0.44946 0.39809 0.0
C434 C 0.18764 0.46015 0.40056 0.0
H435 H 0.26731 0.43822 0.38199 0.0
H436 H 0.24413 0.4377 0.40206 0.0
H437 H 0.23096 0.44043 0.37785 0.0
H438 H 0.1859 0.50445 0.36425 0.0
H439 H 0.13999 0.48674 0.36049 0.0
H440 H 0.16547 0.5828 0.88921 0.0
H441 H 0.21183 0.56466 0.89211 0.0
H442 H 0.17821 0.48787 0.88889 0.0
H443 H 0.1323 0.50583 0.88518 0.0
H444 H 0.23792 0.53289 0.91673 0.0
H445 H 0.23185 0.48499 0.84543 0.0
H446 H 0.20641 0.50775 0.85349 0.0
H447 H 0.20503 0.47466 0.86133 0.0
C448 C 0.16802 0.56206 0.88927 0.0
C449 C 0.1453 0.54575 0.8867 0.0
C450 C 0.19452 0.55169 0.8909 0.0
C451 C 0.1987 0.52486 0.89014 0.0
C452 C 0.17574 0.50862 0.88881 0.0
H453 H 0.34337 0.42504 0.89334 0.0
H454 H 0.29697 0.4428 0.89722 0.0
C455 C 0.14943 0.51893 0.88685 0.0
C456 C 0.22693 0.51376 0.89024 0.0
H457 H 0.26975 0.47359 0.8652 0.0
C458 C 0.24488 0.52001 0.90542 0.0
C459 C 0.23623 0.49703 0.87541 0.0
C460 C 0.21898 0.49092 0.8579 0.0
C461 C 0.27155 0.50968 0.90631 0.0
C462 C 0.2805 0.49262 0.89169 0.0
C463 C 0.26266 0.48637 0.87655 0.0
C464 C 0.30886 0.48216 0.89118 0.0
C465 C 0.28998 0.51688 0.92292 0.0
C466 C 0.33088 0.49839 0.88656 0.0
C467 C 0.35723 0.48829 0.88413 0.0
C468 C 0.3622 0.46174 0.8864 0.0
C469 C 0.34026 0.44558 0.89161 0.0
C470 C 0.31375 0.45569 0.8938 0.0
H471 H 0.27853 0.52644 0.93478 0.0
H472 H 0.30042 0.49951 0.92872 0.0
H473 H 0.30604 0.53035 0.91771 0.0
H474 H 0.32752 0.5188 0.88424 0.0
H475 H 0.37366 0.50129 0.88012 0.0
H476 H 0.65623 0.43422 0.58776 0.0
H477 H 0.70214 0.45256 0.58284 0.0
H478 H 0.68917 0.50403 0.63093 0.0
H479 H 0.64315 0.48685 0.63514 0.0
H480 H 0.71262 0.52939 0.60384 0.0
H481 H 0.76986 0.43775 0.61217 0.0
H482 H 0.7461 0.43731 0.59244 0.0
H483 H 0.73364 0.44002 0.61683 0.0
C484 C 0.66327 0.44944 0.59725 0.0
C485 C 0.64607 0.45903 0.61186 0.0
C486 C 0.68962 0.45981 0.59454 0.0
C487 C 0.69954 0.47944 0.60674 0.0
C488 C 0.68219 0.48897 0.62126 0.0
H489 H 0.86528 0.51832 0.63474 0.0
H490 H 0.81932 0.50089 0.63082 0.0
C491 C 0.65581 0.47905 0.6237 0.0
C492 C 0.72776 0.49042 0.60462 0.0
H493 H 0.79578 0.47467 0.60445 0.0
C494 C 0.7308 0.51738 0.60396 0.0
C495 C 0.75163 0.47487 0.60489 0.0
C496 C 0.75024 0.44591 0.60681 0.0
C497 C 0.75677 0.52922 0.60426 0.0
C498 C 0.78065 0.51367 0.60434 0.0
C499 C 0.7776 0.48669 0.6043 0.0
C500 C 0.80887 0.52473 0.60622 0.0
C501 C 0.75813 0.55824 0.60551 0.0
C502 C 0.81876 0.54402 0.5937 0.0
C503 C 0.84505 0.55458 0.59627 0.0
C504 C 0.86226 0.54547 0.61103 0.0
C505 C 0.8526 0.52574 0.62317 0.0
C506 C 0.82625 0.51567 0.6209 0.0
H507 H 0.73851 0.56661 0.61071 0.0
H508 H 0.77475 0.56457 0.61537 0.0
H509 H 0.76222 0.56626 0.59094 0.0
H510 H 0.80624 0.55088 0.58188 0.0
H511 H 0.85205 0.56956 0.58655 0.0
H512 H 0.92051 0.08948 0.31017 0.0
H513 H 0.94087 0.09257 0.27784 0.0
H514 H 0.01429 0.05571 0.29876 0.0
H515 H 0.99398 0.05202 0.3308 0.0
H516 H 0.98942 0.11625 0.265 0.0
H517 H 0.99204 0.01046 0.25324 0.0
H518 H 0.97265 0.02509 0.27252 0.0
H519 H 0.00903 0.02058 0.27493 0.0
C520 C 0.94097 0.08201 0.30783 0.0
C521 C 0.95555 0.07028 0.32295 0.0
C522 C 0.95259 0.08386 0.28941 0.0
C523 C 0.9789 0.074 0.28588 0.0
C524 C 0.99374 0.06295 0.3011 0.0
H525 H 0.08317 0.09686 0.18469 0.0
H526 H 0.063 0.09907 0.21715 0.0
C527 C 0.98211 0.06095 0.31942 0.0
C528 C 0.99078 0.07479 0.26623 0.0
H529 H 0.01568 0.03625 0.23039 0.0
C530 C 0.9951 0.09879 0.25737 0.0
C531 C 0.9979 0.05194 0.25628 0.0
C532 C 0.99245 0.02554 0.26463 0.0
C533 C 0.00672 0.10055 0.23886 0.0
C534 C 0.0145 0.07771 0.22916 0.0
C535 C 0.00993 0.05374 0.23797 0.0
C536 C 0.02629 0.07795 0.20948 0.0
C537 C 0.01005 0.12672 0.22966 0.0
C538 C 0.01249 0.06515 0.19455 0.0
C539 C 0.02401 0.06368 0.17619 0.0
C540 C 0.04963 0.07495 0.17236 0.0
C541 C 0.06336 0.08807 0.18724 0.0
C542 C 0.05179 0.08949 0.20572 0.0
H543 H 0.99754 0.14163 0.23707 0.0
H544 H 0.03187 0.13263 0.23052 0.0
H545 H 0.00414 0.12613 0.21419 0.0
H546 H 0.99284 0.05606 0.19718 0.0
H547 H 0.01288 0.05344 0.16504 0.0
H548 H 0.49615 0.94962 0.16406 0.0
H549 H 0.51594 0.94665 0.1963 0.0
H550 H 0.44367 0.907 0.21644 0.0
H551 H 0.42384 0.90947 0.18395 0.0
H552 H 0.49506 0.96771 0.22926 0.0
H553 H 0.50564 0.86166 0.23709 0.0
H554 H 0.49957 0.87701 0.21409 0.0
H555 H 0.47178 0.87227 0.23075 0.0
C556 C 0.48452 0.94004 0.17528 0.0
C557 C 0.45843 0.92976 0.17148 0.0
C558 C 0.49588 0.93837 0.19371 0.0
C559 C 0.48143 0.92636 0.20872 0.0
C560 C 0.45541 0.91589 0.20497 0.0
H561 H 0.51152 0.9518 0.33038 0.0
H562 H 0.49231 0.94905 0.29791 0.0
C563 C 0.44404 0.91747 0.18645 0.0
C564 C 0.49311 0.92625 0.22846 0.0
H565 H 0.51412 0.88691 0.26513 0.0
C566 C 0.49927 0.95004 0.23708 0.0
C567 C 0.49889 0.90316 0.23853 0.0
C568 C 0.49389 0.87705 0.22962 0.0
C569 C 0.51081 0.95141 0.25558 0.0
C570 C 0.51583 0.92837 0.2659 0.0
C571 C 0.51002 0.90454 0.25722 0.0
C572 C 0.527 0.92878 0.28577 0.0
C573 C 0.51793 0.97753 0.26378 0.0
C574 C 0.55254 0.91758 0.28984 0.0
C575 C 0.56355 0.91898 0.30847 0.0
C576 C 0.5491 0.93152 0.32329 0.0
C577 C 0.52326 0.94218 0.31923 0.0
C578 C 0.51228 0.94072 0.30067 0.0
H579 H 0.51964 0.9924 0.2523 0.0
H580 H 0.50155 0.98366 0.2739 0.0
H581 H 0.53756 0.97684 0.27188 0.0
H582 H 0.56415 0.90817 0.27852 0.0
H583 H 0.58345 0.91048 0.3112 0.0
H584 H 0.01457 0.9548 0.66598 0.0
H585 H 0.99511 0.95234 0.69836 0.0
H586 H 0.06607 0.91031 0.71795 0.0
H587 H 0.08564 0.91235 0.68533 0.0
H588 H 0.01522 0.88967 0.7308 0.0
H589 H 0.02281 0.99484 0.74441 0.0
H590 H 0.00504 0.9868 0.72252 0.0
H591 H 0.04082 0.97914 0.72492 0.0
C592 C 0.02608 0.94501 0.67715 0.0
C593 C 0.05174 0.93392 0.67316 0.0
C594 C 0.01496 0.94372 0.69566 0.0
C595 C 0.02936 0.9315 0.71058 0.0
C596 C 0.05474 0.91993 0.70661 0.0
H597 H 0.99433 0.95161 0.83185 0.0
H598 H 0.01536 0.94889 0.8 0.0
C599 C 0.0659 0.92118 0.68802 0.0
C600 C 0.01786 0.93109 0.73034 0.0
H601 H 0.99659 0.97047 0.7668 0.0
C602 C 0.01125 0.90729 0.73876 0.0
C603 C 0.01302 0.95412 0.7407 0.0
C604 C 0.02101 0.98017 0.73278 0.0
C605 C 0.99939 0.90594 0.75721 0.0
C606 C 0.99367 0.92904 0.76728 0.0
C607 C 1.00074 0.95279 0.75896 0.0
C608 C 0.9811 0.92919 0.78674 0.0
C609 C 0.99349 0.87984 0.76587 0.0
C610 C 0.95478 0.91904 0.78986 0.0
C611 C 0.94269 0.92046 0.80816 0.0
C612 C 0.95668 0.93227 0.82353 0.0
C613 C 0.98301 0.94237 0.82032 0.0
C614 C 0.99509 0.94084 0.80212 0.0
H615 H 0.00534 0.86434 0.75861 0.0
H616 H 0.9984 0.87958 0.78152 0.0
H617 H 0.97138 0.87541 0.76417 0.0
H618 H 0.94339 0.91046 0.77808 0.0
H619 H 0.92233 0.91261 0.81021 0.0
H620 H 0.43086 0.10904 0.6807 0.0
H621 H 0.45258 0.11533 0.7123 0.0
H622 H 0.50464 0.04957 0.70176 0.0
H623 H 0.48397 0.04402 0.67 0.0
H624 H 0.45441 0.08682 0.74299 0.0
H625 H 0.56092 0.10007 0.71846 0.0
H626 H 0.53241 0.10016 0.7019 0.0
H627 H 0.54773 0.07017 0.70947 0.0
C628 C 0.44705 0.09605 0.68515 0.0
C629 C 0.45589 0.07615 0.67289 0.0
C630 C 0.45948 0.09968 0.70316 0.0
C631 C 0.48078 0.08334 0.70923 0.0
C632 C 0.48901 0.06304 0.69715 0.0
H633 H 0.52522 0.04346 0.82459 0.0
H634 H 0.50498 0.04904 0.79268 0.0
C635 C 0.47697 0.0597 0.67907 0.0
C636 C 0.49354 0.08653 0.72856 0.0
H637 H 0.5553 0.08668 0.7517 0.0
C638 C 0.47647 0.08719 0.74487 0.0
C639 C 0.52232 0.08775 0.73109 0.0
C640 C 0.54184 0.08981 0.71426 0.0
C641 C 0.48739 0.0876 0.7636 0.0
C642 C 0.51616 0.08629 0.76612 0.0
C643 C 0.53323 0.0871 0.74982 0.0
C644 C 0.52889 0.08289 0.78544 0.0
C645 C 0.46787 0.08951 0.78045 0.0
C646 C 0.55013 0.09922 0.79166 0.0
C647 C 0.56233 0.09556 0.80975 0.0
C648 C 0.5533 0.07565 0.82193 0.0
C649 C 0.53236 0.05914 0.81557 0.0
C650 C 0.52056 0.0625 0.79741 0.0
H651 H 0.4488 0.0998 0.7763 0.0
H652 H 0.46196 0.06982 0.78513 0.0
H653 H 0.47731 0.09974 0.79286 0.0
H654 H 0.5571 0.11493 0.7826 0.0
H655 H 0.57839 0.1086 0.81434 0.0
H656 H 0.51058 0.55567 0.16458 0.0
H657 H 0.49038 0.55934 0.19666 0.0
H658 H 0.5634 0.59733 0.21722 0.0
H659 H 0.58361 0.59426 0.18488 0.0
H660 H 0.50956 0.53801 0.22963 0.0
H661 H 0.50307 0.64429 0.23761 0.0
H662 H 0.50923 0.62883 0.21466 0.0
H663 H 0.53671 0.63269 0.2317 0.0
C664 C 0.52229 0.56504 0.17586 0.0
C665 C 0.54869 0.57471 0.17221 0.0
C666 C 0.51069 0.56711 0.1942 0.0
C667 C 0.52522 0.57888 0.20928 0.0
C668 C 0.55158 0.58868 0.20569 0.0
H669 H 0.49359 0.55361 0.3306 0.0
H670 H 0.5131 0.55648 0.29823 0.0
C671 C 0.56317 0.58674 0.18726 0.0
C672 C 0.51327 0.57937 0.22895 0.0
H673 H 0.49366 0.61928 0.26568 0.0
C674 C 0.50601 0.5558 0.23748 0.0
C675 C 0.50835 0.60262 0.23907 0.0
C676 C 0.51449 0.62858 0.23026 0.0
C677 C 0.49429 0.55477 0.25593 0.0
C678 C 0.49022 0.57792 0.26632 0.0
C679 C 0.49706 0.60156 0.25772 0.0
C680 C 0.47905 0.57777 0.28619 0.0
C681 C 0.48601 0.52889 0.26404 0.0
C682 C 0.45382 0.58955 0.2903 0.0
C683 C 0.44262 0.58807 0.30887 0.0
C684 C 0.45659 0.57486 0.3236 0.0
C685 C 0.48221 0.56374 0.31953 0.0
C686 C 0.49337 0.56528 0.30102 0.0
H687 H 0.48376 0.51416 0.2525 0.0
H688 H 0.50204 0.52212 0.27419 0.0
H689 H 0.46636 0.53029 0.27206 0.0
H690 H 0.44253 0.5994 0.27903 0.0
H691 H 0.42291 0.59693 0.31162 0.0
H692 H 0.00922 0.44219 0.33098 0.0
H693 H 0.98921 0.43811 0.2989 0.0
H694 H 0.06477 0.40562 0.27764 0.0
H695 H 0.08478 0.40898 0.31004 0.0
H696 H 0.00656 0.46201 0.26679 0.0
H697 H 0.00839 0.35609 0.25557 0.0
H698 H 0.01359 0.37066 0.27896 0.0
H699 H 0.0411 0.36966 0.26171 0.0
C700 C 0.02153 0.43389 0.31956 0.0
C701 C 0.04859 0.42589 0.32302 0.0
C702 C 0.01004 0.43157 0.30122 0.0
C703 C 0.02536 0.4213 0.28592 0.0
C704 C 0.05236 0.41307 0.28933 0.0
H705 H 0.99312 0.45027 0.16538 0.0
H706 H 0.01253 0.44659 0.19773 0.0
C707 C 0.06384 0.41518 0.3078 0.0
C708 C 0.0135 0.421 0.26621 0.0
H709 H 0.99705 0.38189 0.22824 0.0
C710 C 0.0044 0.44445 0.25841 0.0
C711 C 0.01043 0.39805 0.25538 0.0
C712 C 0.01864 0.37213 0.26337 0.0
C713 C 0.99262 0.44567 0.23999 0.0
C714 C 0.99036 0.42289 0.22891 0.0
C715 C 0.99904 0.39933 0.23676 0.0
C716 C 0.97933 0.42344 0.20903 0.0
C717 C 0.98238 0.47131 0.23263 0.0
C718 C 0.95459 0.41098 0.20455 0.0
C719 C 0.94341 0.41301 0.18599 0.0
C720 C 0.95693 0.42741 0.17168 0.0
C721 C 0.9821 0.43919 0.17612 0.0
C722 C 0.99321 0.43717 0.19461 0.0
H723 H 0.97934 0.48536 0.24454 0.0
H724 H 0.99768 0.47951 0.22249 0.0
H725 H 0.96273 0.469 0.22474 0.0
H726 H 0.94366 0.40022 0.21551 0.0
H727 H 0.92407 0.40361 0.18294 0.0
H728 H 0.57446 0.39469 0.68024 0.0
H729 H 0.55276 0.38873 0.7119 0.0
H730 H 0.50231 0.45567 0.70171 0.0
H731 H 0.52291 0.46091 0.6699 0.0
H732 H 0.55192 0.41721 0.74267 0.0
H733 H 0.44488 0.40654 0.71865 0.0
H734 H 0.47321 0.40579 0.70193 0.0
H735 H 0.45875 0.43612 0.70958 0.0
C736 C 0.5586 0.40798 0.68476 0.0
C737 C 0.5502 0.42814 0.6726 0.0
C738 C 0.54619 0.40455 0.70281 0.0
C739 C 0.52535 0.42135 0.70902 0.0
C740 C 0.51755 0.44186 0.697 0.0
H741 H 0.4828 0.46304 0.82437 0.0
H742 H 0.50282 0.4566 0.79246 0.0
C743 C 0.52956 0.44501 0.67889 0.0
C744 C 0.51269 0.41843 0.72841 0.0
H745 H 0.45116 0.42 0.75183 0.0
C746 C 0.52987 0.41741 0.74464 0.0
C747 C 0.48391 0.41796 0.73107 0.0
C748 C 0.46419 0.41635 0.71434 0.0
C749 C 0.51911 0.41738 0.76343 0.0
C750 C 0.49041 0.41946 0.76608 0.0
C751 C 0.47318 0.41899 0.74986 0.0
C752 C 0.47794 0.4233 0.78544 0.0
C753 C 0.5387 0.41508 0.7802 0.0
C754 C 0.4563 0.40755 0.7918 0.0
C755 C 0.44427 0.41168 0.80988 0.0
C756 C 0.45383 0.43152 0.82193 0.0
C757 C 0.47521 0.44743 0.81545 0.0
C758 C 0.48689 0.44358 0.79729 0.0
H759 H 0.55745 0.4043 0.776 0.0
H760 H 0.5452 0.43464 0.7848 0.0
H761 H 0.52908 0.40515 0.79267 0.0
H762 H 0.44886 0.39193 0.78284 0.0
H763 H 0.42785 0.39908 0.81456 0.0
H764 H 0.02639 0.53955 0.82507 0.0
H765 H 0.00683 0.54365 0.79278 0.0
H766 H 0.05516 0.61216 0.78309 0.0
H767 H 0.07588 0.60728 0.81511 0.0
H768 H 0.97637 0.5792 0.77731 0.0
H769 H 0.07292 0.57319 0.73529 0.0
H770 H 0.07161 0.56655 0.76081 0.0
H771 H 0.07267 0.59931 0.75224 0.0
C772 C 0.03303 0.55534 0.81597 0.0
C773 C 0.05284 0.57294 0.82246 0.0
C774 C 0.02177 0.55773 0.79755 0.0
C775 C 0.0298 0.57798 0.78534 0.0
C776 C 0.04922 0.59593 0.79198 0.0
H777 H 0.93186 0.60819 0.68072 0.0
H778 H 0.95236 0.6123 0.71292 0.0
C779 C 0.06094 0.59322 0.8103 0.0
C780 C 0.01739 0.58025 0.76583 0.0
H781 H 0.03262 0.58277 0.71778 0.0
C782 C 0.98868 0.57997 0.76428 0.0
C783 C 0.03345 0.58107 0.74882 0.0
C784 C 0.06435 0.5798 0.74931 0.0
C785 C 0.97558 0.57984 0.74624 0.0
C786 C 0.99163 0.58107 0.72925 0.0
C787 C 0.02032 0.582 0.73081 0.0
C788 C 0.97936 0.57943 0.70967 0.0
C789 C 0.94478 0.5772 0.74564 0.0
C790 C 0.98834 0.56021 0.69689 0.0
C791 C 0.97718 0.55826 0.67843 0.0
C792 C 0.95654 0.57529 0.67241 0.0
C793 C 0.94751 0.59461 0.68512 0.0
C794 C 0.9591 0.59687 0.70354 0.0
H795 H 0.9365 0.56945 0.75941 0.0
H796 H 0.9355 0.59646 0.74327 0.0
H797 H 0.93824 0.5643 0.73371 0.0
H798 H 0.00393 0.54653 0.70126 0.0
H799 H 0.98453 0.54318 0.66894 0.0
H800 H 0.07016 0.15433 0.11301 0.0
H801 H 0.06145 0.20078 0.10972 0.0
H802 H 0.97543 0.18796 0.12007 0.0
H803 H 0.98373 0.1419 0.12327 0.0
H804 H 0.98725 0.22246 0.08863 0.0
H805 H 0.04216 0.24815 0.15634 0.0
H806 H 0.06106 0.22925 0.13912 0.0
H807 H 0.03171 0.21556 0.15091 0.0
C808 C 0.04938 0.16139 0.11447 0.0
C809 C 0.02773 0.14431 0.11856 0.0
C810 C 0.04445 0.18794 0.11268 0.0
C811 C 0.01781 0.19783 0.11487 0.0
C812 C 0.99614 0.18077 0.11838 0.0
H813 H 0.93748 0.34842 0.11684 0.0
H814 H 0.94749 0.30216 0.11428 0.0
C815 C 1.00101 0.15438 0.12028 0.0
C816 C 0.01231 0.22598 0.11406 0.0
H817 H 0.02313 0.28224 0.13845 0.0
C818 C 0.99517 0.23561 0.09945 0.0
C819 C 0.02253 0.24301 0.12826 0.0
C820 C 0.04023 0.23358 0.14467 0.0
C821 C 0.98825 0.26191 0.09853 0.0
C822 C 0.99822 0.27893 0.11289 0.0
C823 C 0.01546 0.26924 0.12744 0.0
C824 C 0.99156 0.30696 0.11308 0.0
C825 C 0.9708 0.27127 0.08199 0.0
C826 C 0.01289 0.32507 0.11345 0.0
C827 C 0.00725 0.35134 0.1152 0.0
C828 C 0.98007 0.36027 0.11656 0.0
C829 C 0.9586 0.34221 0.11566 0.0
C830 C 0.96432 0.31576 0.1141 0.0
H831 H 0.97148 0.25773 0.06957 0.0
H832 H 0.94919 0.2727 0.08685 0.0
H833 H 0.97751 0.2906 0.07699 0.0
H834 H 0.03405 0.31884 0.11266 0.0
H835 H 0.02433 0.36466 0.11569 0.0
H836 H 0.52406 0.86471 0.11371 0.0
H837 H 0.5334 0.81878 0.11089 0.0
H838 H 0.44721 0.80238 0.11729 0.0
H839 H 0.43756 0.84874 0.11955 0.0
H840 H 0.5256 0.78305 0.13754 0.0
H841 H 0.46589 0.7564 0.07246 0.0
H842 H 0.47254 0.7895 0.07898 0.0
H843 H 0.4456 0.77175 0.09074 0.0
C844 C 0.50697 0.8514 0.1143 0.0
C845 C 0.48002 0.86043 0.1169 0.0
C846 C 0.51238 0.82508 0.11268 0.0
C847 C 0.49105 0.80701 0.11371 0.0
C848 C 0.46399 0.81592 0.116 0.0
H849 H 0.4839 0.64229 0.12651 0.0
H850 H 0.4756 0.68833 0.12344 0.0
C851 C 0.45849 0.84243 0.11738 0.0
C852 C 0.49766 0.77896 0.11365 0.0
H853 H 0.48377 0.72172 0.09121 0.0
C854 C 0.51662 0.76971 0.12728 0.0
C855 C 0.48599 0.76148 0.10027 0.0
C856 C 0.46658 0.77029 0.08466 0.0
C857 C 0.52377 0.74351 0.12816 0.0
C858 C 0.51185 0.72602 0.11496 0.0
C859 C 0.49299 0.73521 0.10127 0.0
C860 C 0.51737 0.69788 0.11594 0.0
C861 C 0.54341 0.73459 0.1436 0.0
C862 C 0.54367 0.6878 0.1125 0.0
C863 C 0.54861 0.66124 0.11424 0.0
C864 C 0.52732 0.64432 0.11949 0.0
C865 C 0.50093 0.65461 0.12256 0.0
C866 C 0.49604 0.681 0.12075 0.0
H867 H 0.54665 0.74951 0.15489 0.0
H868 H 0.53579 0.71673 0.15061 0.0
H869 H 0.56354 0.73021 0.13691 0.0
H870 H 0.56037 0.70049 0.10852 0.0
H871 H 0.56912 0.65404 0.1117 0.0
H872 H 0.43703 0.65538 0.377 0.0
H873 H 0.44725 0.70176 0.37866 0.0
H874 H 0.53365 0.68483 0.3814 0.0
H875 H 0.52378 0.63892 0.3793 0.0
H876 H 0.47472 0.73228 0.40523 0.0
H877 H 0.53029 0.7327 0.33543 0.0
H878 H 0.50973 0.70573 0.34322 0.0
H879 H 0.54396 0.70994 0.35236 0.0
C880 C 0.45817 0.66158 0.37807 0.0
C881 C 0.47958 0.64343 0.37772 0.0
C882 C 0.464 0.68807 0.37899 0.0
C883 C 0.49128 0.69681 0.37963 0.0
C884 C 0.51251 0.67864 0.38029 0.0
H885 H 0.56881 0.84941 0.38024 0.0
H886 H 0.5599 0.80294 0.38341 0.0
C887 C 0.50677 0.65233 0.37919 0.0
C888 C 0.4978 0.72484 0.37934 0.0
H889 H 0.53359 0.77073 0.35439 0.0
C890 C 0.48749 0.74069 0.39408 0.0
C891 C 0.51453 0.73586 0.36478 0.0
C892 C 0.52506 0.72025 0.34795 0.0
C893 C 0.49375 0.76716 0.39478 0.0
C894 C 0.51056 0.77808 0.38028 0.0
C895 C 0.52097 0.76224 0.36561 0.0
C896 C 0.51608 0.80621 0.37931 0.0
C897 C 0.48253 0.7832 0.41112 0.0
C898 C 0.49449 0.82334 0.37578 0.0
C899 C 0.4995 0.84971 0.37384 0.0
C900 C 0.52629 0.85967 0.37537 0.0
C901 C 0.54795 0.84246 0.37905 0.0
C902 C 0.5429 0.81592 0.38085 0.0
H903 H 0.47609 0.77106 0.42353 0.0
H904 H 0.49798 0.7974 0.41619 0.0
H905 H 0.46434 0.79402 0.40597 0.0
H906 H 0.47373 0.81625 0.37418 0.0
H907 H 0.48223 0.86227 0.37103 0.0
H908 H 0.98433 0.36222 0.38441 0.0
H909 H 0.97474 0.31626 0.38706 0.0
H910 H 0.05932 0.29927 0.37416 0.0
H911 H 0.06927 0.34562 0.37217 0.0
H912 H 0.97774 0.28191 0.35931 0.0
H913 H 0.04675 0.25104 0.41845 0.0
H914 H 0.03996 0.28456 0.41339 0.0
H915 H 0.06453 0.26695 0.39918 0.0
C916 C 1.00103 0.34873 0.38242 0.0
C917 C 0.02759 0.35755 0.37806 0.0
C918 C 0.99549 0.32241 0.38392 0.0
C919 C 0.01628 0.30417 0.38095 0.0
C920 C 0.04302 0.3129 0.37697 0.0
H921 H 0.01962 0.14031 0.36303 0.0
H922 H 0.02849 0.18621 0.36629 0.0
C923 C 0.0487 0.3394 0.37576 0.0
C924 C 0.00923 0.27621 0.38069 0.0
H925 H 0.02579 0.21759 0.39996 0.0
C926 C 0.9881 0.26791 0.36836 0.0
C927 C 0.02269 0.25786 0.39248 0.0
C928 C 0.04456 0.26556 0.40676 0.0
C929 C 0.98048 0.24184 0.36718 0.0
C930 C 0.9942 0.22349 0.37874 0.0
C931 C 0.01522 0.23172 0.39116 0.0
C932 C 0.98823 0.19547 0.37725 0.0
C933 C 0.95835 0.234 0.35313 0.0
C934 C 0.96256 0.18528 0.38246 0.0
C935 C 0.95728 0.15878 0.3806 0.0
C936 C 0.97762 0.14203 0.37353 0.0
C937 C 1.00334 0.15246 0.3685 0.0
C938 C 0.00856 0.17879 0.3704 0.0
H939 H 0.95352 0.24961 0.34269 0.0
H940 H 0.96455 0.21653 0.34496 0.0
H941 H 0.93937 0.22934 0.36124 0.0
H942 H 0.94666 0.19781 0.38802 0.0
H943 H 0.93732 0.15147 0.3847 0.0
H944 H 0.06884 0.65487 0.88025 0.0
H945 H 0.05876 0.70117 0.88291 0.0
H946 H 0.97416 0.68643 0.86891 0.0
H947 H 0.9838 0.64058 0.86626 0.0
H948 H 0.03516 0.73325 0.85272 0.0
H949 H 0.97002 0.73107 0.91841 0.0
H950 H 0.99309 0.70516 0.91214 0.0
H951 H 0.9607 0.70824 0.90004 0.0
C952 C 0.04806 0.66147 0.87789 0.0
C953 C 0.02718 0.64389 0.87306 0.0
C954 C 0.04234 0.68792 0.8794 0.0
C955 C 0.01561 0.69718 0.87639 0.0
C956 C 0.9948 0.67969 0.87165 0.0
H957 H 0.93569 0.84793 0.87244 0.0
H958 H 0.94575 0.80147 0.87355 0.0
C959 C 1.00048 0.65342 0.87001 0.0
C960 C 0.00945 0.7252 0.8772 0.0
H961 H 0.9704 0.77017 0.90054 0.0
C962 C 0.02122 0.7414 0.86328 0.0
C963 C 0.9909 0.73568 0.8908 0.0
C964 C 0.97807 0.71922 0.90632 0.0
C965 C 0.01457 0.76772 0.86235 0.0
C966 C 0.9962 0.77833 0.87608 0.0
C967 C 0.98444 0.76209 0.89002 0.0
C968 C 0.98964 0.80635 0.87645 0.0
C969 C 0.02671 0.78371 0.84627 0.0
C970 C 0.01076 0.82448 0.87835 0.0
C971 C 0.00512 0.85082 0.87753 0.0
C972 C 0.9781 0.85978 0.87515 0.0
C973 C 0.9567 0.84166 0.87423 0.0
C974 C 0.96245 0.81513 0.87483 0.0
H975 H 0.03305 0.77153 0.83386 0.0
H976 H 0.01194 0.7984 0.84103 0.0
H977 H 0.04522 0.79381 0.85169 0.0
H978 H 0.03177 0.81826 0.88027 0.0
H979 H 0.02209 0.86421 0.87866 0.0
H980 H 0.4541 0.35649 0.89722 0.0
H981 H 0.46615 0.31078 0.9012 0.0
H982 H 0.51136 0.31315 0.8477 0.0
H983 H 0.50042 0.35873 0.84414 0.0
H984 H 0.45665 0.2688 0.88146 0.0
H985 H 0.56861 0.28318 0.8817 0.0
H986 H 0.54493 0.30978 0.88322 0.0
H987 H 0.55404 0.29627 0.8601 0.0
C988 C 0.46655 0.34717 0.88632 0.0
C989 C 0.47661 0.36126 0.87051 0.0
C990 C 0.47353 0.32109 0.88863 0.0
C991 C 0.49048 0.30865 0.87508 0.0
C992 C 0.49927 0.32247 0.85879 0.0
H993 H 0.50016 0.14845 0.848 0.0
H994 H 0.49014 0.1941 0.85173 0.0
C995 C 0.49274 0.34851 0.85667 0.0
C996 C 0.49845 0.28108 0.8775 0.0
H997 H 0.55309 0.24001 0.87449 0.0
C998 C 0.47779 0.26258 0.8802 0.0
C999 C 0.52611 0.27281 0.87641 0.0
C1000 C 0.54967 0.29162 0.87543 0.0
C1001 C 0.48384 0.2361 0.88074 0.0
C1002 C 0.51121 0.22776 0.87787 0.0
C1003 C 0.53205 0.24629 0.87628 0.0
C1004 C 0.51832 0.20002 0.87544 0.0
C1005 C 0.46076 0.21736 0.88441 0.0
C1006 C 0.53867 0.18826 0.88682 0.0
C1007 C 0.5449 0.16201 0.88446 0.0
C1008 C 0.53079 0.14708 0.87071 0.0
C1009 C 0.5111 0.1592 0.85897 0.0
C1010 C 0.50514 0.18533 0.86119 0.0
H1011 H 0.44412 0.22647 0.89297 0.0
H1012 H 0.45185 0.21123 0.87041 0.0
H1013 H 0.46803 0.19997 0.89223 0.0
H1014 H 0.54941 0.19927 0.89774 0.0
H1015 H 0.5602 0.15329 0.8937 0.0
H1016 H 0.52272 0.14277 0.62508 0.0
H1017 H 0.53107 0.18888 0.62205 0.0
H1018 H 0.4451 0.20173 0.61163 0.0
H1019 H 0.43635 0.15526 0.61469 0.0
H1020 H 0.51868 0.2235 0.59027 0.0
H1021 H 0.46503 0.24894 0.65855 0.0
H1022 H 0.47574 0.21643 0.6531 0.0
H1023 H 0.44607 0.22977 0.64152 0.0
C1024 C 0.50546 0.15527 0.62211 0.0
C1025 C 0.47875 0.1452 0.62028 0.0
C1026 C 0.51036 0.18168 0.62031 0.0
C1027 C 0.48871 0.19876 0.6168 0.0
C1028 C 0.46207 0.18888 0.61455 0.0
H1029 H 0.48222 0.36565 0.61805 0.0
H1030 H 0.47237 0.31981 0.6152 0.0
C1031 C 0.45712 0.16231 0.61623 0.0
C1032 C 0.49423 0.2269 0.616 0.0
H1033 H 0.48388 0.28307 0.6406 0.0
C1034 C 0.51101 0.2366 0.60121 0.0
C1035 C 0.4843 0.24388 0.63034 0.0
C1036 C 0.46694 0.23434 0.64689 0.0
C1037 C 0.51784 0.26293 0.60024 0.0
C1038 C 0.5082 0.2799 0.61474 0.0
C1039 C 0.49131 0.27012 0.62948 0.0
C1040 C 0.51485 0.30794 0.6149 0.0
C1041 C 0.53484 0.27237 0.58347 0.0
C1042 C 0.54213 0.31675 0.61549 0.0
C1043 C 0.5479 0.34321 0.61694 0.0
C1044 C 0.52649 0.36127 0.61817 0.0
C1045 C 0.49927 0.35233 0.61728 0.0
C1046 C 0.49355 0.32605 0.61564 0.0
H1047 H 0.53377 0.2589 0.57102 0.0
H1048 H 0.52803 0.29173 0.57862 0.0
H1049 H 0.55659 0.27375 0.58802 0.0
H1050 H 0.55895 0.30316 0.61539 0.0
H1051 H 0.56906 0.34941 0.61775 0.0
H1052 H 0.06971 0.85084 0.61425 0.0
H1053 H 0.06024 0.80448 0.61105 0.0
H1054 H 0.97607 0.8175 0.62713 0.0
H1055 H 0.98509 0.86339 0.63032 0.0
H1056 H 0.03843 0.77086 0.64091 0.0
H1057 H 0.97032 0.77481 0.57682 0.0
H1058 H 0.99326 0.80081 0.58319 0.0
H1059 H 0.96143 0.79675 0.59589 0.0
C1060 C 0.04916 0.84385 0.617 0.0
C1061 C 0.02821 0.86098 0.62251 0.0
C1062 C 0.04378 0.81736 0.61516 0.0
C1063 C 0.01733 0.80762 0.61854 0.0
C1064 C 0.99649 0.82463 0.62407 0.0
H1065 H 0.93793 0.65696 0.62213 0.0
H1066 H 0.94822 0.70336 0.62084 0.0
C1067 C 1.00181 0.85094 0.62601 0.0
C1068 C 0.0115 0.77956 0.61724 0.0
H1069 H 0.97167 0.73511 0.59395 0.0
C1070 C 0.02407 0.76296 0.63052 0.0
C1071 C 0.99241 0.7694 0.60386 0.0
C1072 C 0.9787 0.78629 0.58901 0.0
C1073 C 0.01764 0.73656 0.6311 0.0
C1074 C 0.99868 0.72629 0.61762 0.0
C1075 C 0.98618 0.74293 0.60427 0.0
C1076 C 0.99194 0.6983 0.61704 0.0
C1077 C 0.0306 0.72014 0.6466 0.0
C1078 C 0.01286 0.68006 0.61463 0.0
C1079 C 0.00709 0.65374 0.61558 0.0
C1080 C 0.98014 0.64493 0.61856 0.0
C1081 C 0.95888 0.66314 0.61985 0.0
C1082 C 0.96477 0.68963 0.61915 0.0
H1083 H 0.03757 0.73198 0.65904 0.0
H1084 H 0.01611 0.70529 0.65198 0.0
H1085 H 0.04883 0.71024 0.64055 0.0
H1086 H 0.03382 0.68618 0.61231 0.0
H1087 H 0.0239 0.64022 0.61419 0.0
H1088 H 0.93864 0.94859 0.93601 0.0
H1089 H 0.94943 0.96291 0.96888 0.0
H1090 H 0.02095 0.0027 0.94767 0.0
H1091 H 0.01065 0.98841 0.91502 0.0
H1092 H 0.03167 0.97048 0.97899 0.0
H1093 H 0.94294 0.03492 0.99323 0.0
H1094 H 0.9343 0.00296 0.98528 0.0
H1095 H 0.95208 0.02441 0.96923 0.0
C1096 C 0.95645 0.96067 0.93831 0.0
C1097 C 0.97382 0.96723 0.92287 0.0
C1098 C 0.96255 0.96887 0.95709 0.0
C1099 C 0.98593 0.98396 0.96065 0.0
C1100 C 1.00286 0.99102 0.94522 0.0
H1101 H 0.067 0.05091 0.06064 0.0
H1102 H 0.05577 0.03487 0.02831 0.0
C1103 C 0.99687 0.98282 0.92654 0.0
C1104 C 0.99368 0.99152 0.98051 0.0
H1105 H 0.97314 0.02713 0.01929 0.0
C1106 C 0.01891 0.98289 0.98782 0.0
C1107 C 0.97697 0.0077 0.99193 0.0
C1108 C 0.95016 0.01826 0.98453 0.0
C1109 C 0.02779 0.98982 0.00637 0.0
C1110 C 0.01115 0.00612 0.01775 0.0
C1111 C 0.98586 0.01464 0.01048 0.0
C1112 C 0.01931 0.01437 0.03738 0.0
C1113 C 0.05462 0.97928 0.01376 0.0
C1114 C 1.00256 0.00817 0.05312 0.0
C1115 C 0.0088 0.01737 0.0715 0.0
C1116 C 0.03191 0.03312 0.07455 0.0
C1117 C 0.04915 0.03872 0.05883 0.0
C1118 C 0.0428 0.02953 0.04036 0.0
H1119 H 0.06144 0.96222 0.00533 0.0
H1120 H 0.07064 0.99437 0.01249 0.0
H1121 H 0.05295 0.97373 0.0292 0.0
H1122 H 0.98438 0.99647 0.05113 0.0
H1123 H 0.99513 0.0125 0.08327 0.0
H1124 H 0.48595 0.03152 0.91456 0.0
H1125 H 0.47504 0.01678 0.94699 0.0
H1126 H 0.55817 0.03159 0.96491 0.0
H1127 H 0.56937 0.04691 0.93238 0.0
H1128 H 0.49732 0.97685 0.96821 0.0
H1129 H 0.51286 0.07087 0.005 0.0
H1130 H 0.51041 0.06802 0.97909 0.0
H1131 H 0.54174 0.0598 0.99125 0.0
C1132 C 0.50205 0.0317 0.92532 0.0
C1133 C 0.52857 0.0406 0.92082 0.0
C1134 C 0.4957 0.02322 0.94389 0.0
C1135 C 0.51564 0.02347 0.95842 0.0
C1136 C 0.54232 0.03177 0.95397 0.0
H1137 H 0.51877 0.9797 0.07791 0.0
H1138 H 0.52764 0.99537 0.04546 0.0
C1139 C 0.54872 0.04036 0.93534 0.0
C1140 C 0.50833 0.01479 0.97814 0.0
H1141 H 0.50397 0.03477 0.02499 0.0
C1142 C 0.49867 0.98951 0.98063 0.0
C1143 C 0.50998 0.03143 0.99427 0.0
C1144 C 0.51907 0.05912 0.99233 0.0
C1145 C 0.49124 0.98019 -0.00108 0.0
C1146 C 0.49304 0.99679 0.01508 0.0
C1147 C 0.50252 0.02212 0.01255 0.0
C1148 C 0.48672 0.98784 0.03491 0.0
C1149 C 0.48229 0.95246 0.00086 0.0
C1150 C 0.46051 0.97878 0.0399 0.0
C1151 C 0.45529 0.96959 0.05856 0.0
C1152 C 0.47617 0.96953 0.07257 0.0
C1153 C 0.50214 0.97934 0.06756 0.0
C1154 C 0.50731 0.98837 0.04897 0.0
H1155 H 0.48812 0.94081 0.98804 0.0
H1156 H 0.4914 0.94347 0.01391 0.0
H1157 H 0.45966 0.95171 0.00231 0.0
H1158 H 0.44414 0.97873 0.02935 0.0
H1159 H 0.43503 0.96235 0.06194 0.0
H1160 H 0.43804 0.04995 0.56176 0.0
H1161 H 0.44838 0.0337 0.52933 0.0
H1162 H 0.52482 0.00258 0.55002 0.0
H1163 H 0.5147 0.01831 0.58232 0.0
H1164 H 0.49465 0.04726 0.50691 0.0
H1165 H 0.49136 0.94189 0.5205 0.0
H1166 H 0.47654 0.96508 0.53689 0.0
H1167 H 0.51288 0.95939 0.53694 0.0
C1168 C 0.45687 0.03935 0.55948 0.0
C1169 C 0.47551 0.03548 0.57469 0.0
C1170 C 0.46277 0.03014 0.54093 0.0
C1171 C 0.48721 0.01669 0.53735 0.0
C1172 C 0.50561 0.01248 0.55254 0.0
H1173 H 0.56682 0.95325 0.43516 0.0
H1174 H 0.55669 0.96898 0.46779 0.0
C1175 C 0.49981 0.02168 0.57101 0.0
C1176 C 0.49439 0.00828 0.51756 0.0
H1177 H 0.51055 0.95533 0.49058 0.0
C1178 C 0.49794 0.02715 0.50328 0.0
C1179 C 0.49893 0.98205 0.51296 0.0
C1180 C 0.49451 0.96088 0.52757 0.0
C1181 C 0.50629 0.02054 0.48454 0.0
C1182 C 0.51077 0.99432 0.47992 0.0
C1183 C 0.50728 0.97544 0.49422 0.0
C1184 C 0.51771 0.98594 0.46008 0.0
C1185 C 0.51071 0.04172 0.46993 0.0
C1186 C 0.49912 0.99023 0.44503 0.0
C1187 C 0.50479 0.98134 0.42646 0.0
C1188 C 0.52915 0.96776 0.42253 0.0
C1189 C 0.54793 0.9637 0.43764 0.0
C1190 C 0.54217 0.97261 0.45629 0.0
H1191 H 0.51397 0.06069 0.47701 0.0
H1192 H 0.52861 0.03747 0.46056 0.0
H1193 H 0.49229 0.04329 0.46061 0.0
H1194 H 0.4799 1.00005 0.44772 0.0
H1195 H 0.48978 0.98483 0.41526 0.0
H1196 H 0.06696 0.95184 0.56077 0.0
H1197 H 0.05616 0.96725 0.52816 0.0
H1198 H 0.9824 0.00288 0.5496 0.0
H1199 H 0.99296 0.98796 0.58204 0.0
H1200 H 0.00761 0.95519 0.50705 0.0
H1201 H 0.01877 0.06064 0.51816 0.0
H1202 H 0.03306 0.03719 0.53458 0.0
H1203 H 0.9972 0.04498 0.53559 0.0
C1204 C 0.04863 0.96323 0.55858 0.0
C1205 C 0.03084 0.96861 0.57405 0.0
C1206 C 0.04247 0.97195 0.53995 0.0
C1207 C 0.01865 0.98642 0.53656 0.0
C1208 C 1.00112 0.99213 0.55198 0.0
H1209 H 0.93844 0.0508 0.43509 0.0
H1210 H 0.94887 0.0353 0.46773 0.0
C1211 C 0.00716 0.9834 0.57052 0.0
C1212 C 0.01114 0.99447 0.51677 0.0
H1213 H 0.99726 0.04725 0.48903 0.0
C1214 C 0.00553 0.9753 0.50304 0.0
C1215 C 0.00819 0.02073 0.5117 0.0
C1216 C 0.01484 0.04211 0.52571 0.0
C1217 C 0.99665 0.98171 0.48439 0.0
C1218 C 0.99374 0.00797 0.47931 0.0
C1219 C 0.99932 0.02713 0.49305 0.0
C1220 C 0.98639 0.01601 0.45949 0.0
C1221 C 0.99001 0.96033 0.47038 0.0
C1222 C 0.00403 0.01027 0.44414 0.0
C1223 C 0.9982 0.01904 0.42558 0.0
C1224 C 0.97462 0.03392 0.42196 0.0
C1225 C 0.95669 0.03932 0.43734 0.0
C1226 C 0.96265 0.03056 0.456 0.0
H1227 H 0.98598 0.94182 0.47794 0.0
H1228 H 0.97187 0.96528 0.46145 0.0
H1229 H 0.00771 0.95738 0.46056 0.0
H1230 H 0.0227 0.99946 0.4466 0.0
H1231 H 0.0125 0.01446 0.41413 0.0
H1232 H 0.56928 0.54962 0.06097 0.0
H1233 H 0.55926 0.53487 0.02806 0.0
H1234 H 0.48215 0.5036 0.0474 0.0
H1235 H 0.49169 0.51825 0.08009 0.0
H1236 H 0.54653 0.48422 0.0138 0.0
H1237 H 0.46046 0.5527 0.00315 0.0
H1238 H 0.48525 0.55629 0.02232 0.0
H1239 H 0.45779 0.53337 0.02458 0.0
C1240 C 0.55027 0.53946 0.05825 0.0
C1241 C 0.53118 0.5354 0.07318 0.0
C1242 C 0.54457 0.5311 0.03944 0.0
C1243 C 0.51971 0.51867 0.03527 0.0
C1244 C 0.50117 0.5137 0.05025 0.0
H1245 H 0.44045 0.45582 0.93341 0.0
H1246 H 0.45215 0.47052 0.966 0.0
C1247 C 0.50678 0.52202 0.06897 0.0
C1248 C 0.51287 0.51091 0.01528 0.0
H1249 H 0.46595 0.52014 0.97936 0.0
C1250 C 0.52905 0.49217 0.00619 0.0
C1251 C 0.48996 0.52129 0.00547 0.0
C1252 C 0.47247 0.5422 0.01428 0.0
C1253 C 0.52255 0.48307 0.98765 0.0
C1254 C 0.49956 0.49338 0.97787 0.0
C1255 C 0.48347 0.51222 0.98694 0.0
C1256 C 0.49214 0.48513 0.95808 0.0
C1257 C 0.53996 0.46206 0.97891 0.0
C1258 C 0.51044 0.4891 0.94278 0.0
C1259 C 0.50388 0.48074 0.92421 0.0
C1260 C 0.47872 0.46838 0.92047 0.0
C1261 C 0.46001 0.46517 0.93575 0.0
C1262 C 0.46667 0.47353 0.95438 0.0
H1263 H 0.55196 0.4516 0.99006 0.0
H1264 H 0.52714 0.44793 0.97093 0.0
H1265 H 0.55465 0.47078 0.96856 0.0
H1266 H 0.52991 0.4986 0.94523 0.0
H1267 H 0.51871 0.48382 0.91281 0.0
H1268 H 0.93865 0.45426 0.0604 0.0
H1269 H 0.9496 0.46983 0.02786 0.0
H1270 H 0.02243 0.50671 0.04974 0.0
H1271 H 0.01195 0.49122 0.08209 0.0
H1272 H 0.95925 0.52086 0.01349 0.0
H1273 H 0.05143 0.4587 0.00699 0.0
H1274 H 0.02564 0.45373 0.02531 0.0
H1275 H 0.05084 0.47873 0.02814 0.0
C1276 C 0.95686 0.46588 0.05832 0.0
C1277 C 0.97459 0.47118 0.07384 0.0
C1278 C 0.9631 0.4747 0.03972 0.0
C1279 C 0.98715 0.48889 0.03637 0.0
C1280 C 0.00413 0.49524 0.05196 0.0
H1281 H 0.06654 0.55348 0.93469 0.0
H1282 H 0.05486 0.53956 0.96751 0.0
C1283 C 0.99799 0.48643 0.07047 0.0
C1284 C 0.99487 0.49678 0.01657 0.0
H1285 H 0.04462 0.48969 0.98229 0.0
C1286 C 0.97782 0.51397 0.0066 0.0
C1287 C 0.0192 0.48781 0.00771 0.0
C1288 C 0.03775 0.46854 0.01749 0.0
C1289 C 0.98471 0.5228 0.98807 0.0
C1290 C 0.00901 0.51379 0.97919 0.0
C1291 C 0.02607 0.49662 0.98918 0.0
C1292 C 0.01666 0.52141 0.95931 0.0
C1293 C 0.96617 0.54209 0.97831 0.0
C1294 C 0.99947 0.51512 0.94383 0.0
C1295 C 0.00603 0.523 0.92514 0.0
C1296 C 0.03008 0.5372 0.9215 0.0
C1297 C 0.04784 0.54265 0.93697 0.0
C1298 C 0.04118 0.53477 0.95573 0.0
H1299 H 0.95283 0.55222 0.98887 0.0
H1300 H 0.97825 0.55667 0.97023 0.0
H1301 H 0.95272 0.53186 0.96791 0.0
H1302 H 0.98083 0.50424 0.94621 0.0
H1303 H 0.99199 0.51815 0.91359 0.0
H1304 H 0.02005 0.52771 0.57918 0.0
H1305 H 0.02992 0.51273 0.54669 0.0
H1306 H 0.94612 0.52693 0.5301 0.0
H1307 H 0.93599 0.54261 0.56273 0.0
H1308 H 0.00803 0.47288 0.5259 0.0
H1309 H 0.98916 0.56646 0.48922 0.0
H1310 H 0.99216 0.56373 0.51511 0.0
H1311 H 0.96087 0.55462 0.50324 0.0
C1312 C 0.00356 0.52766 0.56872 0.0
C1313 C 0.97719 0.53658 0.57361 0.0
C1314 C 0.00932 0.51905 0.5501 0.0
C1315 C 0.98891 0.51911 0.5359 0.0
C1316 C 0.96234 0.52728 0.54076 0.0
H1317 H 0.98667 0.47554 0.41609 0.0
H1318 H 0.97705 0.49078 0.44855 0.0
C1319 C 0.95654 0.53607 0.55945 0.0
C1320 C 0.99577 0.51053 0.51607 0.0
H1321 H 0.99911 0.53069 0.46923 0.0
C1322 C 0.00613 0.48551 0.51349 0.0
C1323 C 0.99341 0.52712 0.49996 0.0
C1324 C 0.98353 0.55456 0.50196 0.0
C1325 C 0.01374 0.47645 0.49517 0.0
C1326 C 0.01136 0.49305 0.47906 0.0
C1327 C 1.00102 0.51806 0.48164 0.0
C1328 C 0.01812 0.48442 0.45923 0.0
C1329 C 0.02359 0.44901 0.49317 0.0
C1330 C 0.04465 0.47619 0.45431 0.0
C1331 C 0.05031 0.46724 0.43564 0.0
C1332 C 0.02955 0.46663 0.42156 0.0
C1333 C 1.00323 0.47565 0.42649 0.0
C1334 C 0.99762 0.48441 0.44509 0.0
H1335 H 0.01804 0.43713 0.50593 0.0
H1336 H 0.01488 0.43983 0.48005 0.0
H1337 H 0.04625 0.44894 0.49182 0.0
H1338 H 0.06094 0.47658 0.46492 0.0
H1339 H 0.07082 0.46062 0.43232 0.0
H1340 H 0.5676 0.45359 0.56111 0.0
H1341 H 0.55652 0.46882 0.52851 0.0
H1342 H 0.48451 0.50692 0.55053 0.0
H1343 H 0.49541 0.49217 0.58299 0.0
H1344 H 0.5073 0.45702 0.5085 0.0
H1345 H 0.5205 0.56266 0.51709 0.0
H1346 H 0.53482 0.53966 0.53386 0.0
H1347 H 0.49914 0.54807 0.53516 0.0
C1348 C 0.54968 0.4656 0.55907 0.0
C1349 C 0.53239 0.4716 0.57469 0.0
C1350 C 0.54333 0.47419 0.54044 0.0
C1351 C 0.51982 0.48918 0.53716 0.0
C1352 C 0.50298 0.49575 0.55278 0.0
H1353 H 0.43829 0.55196 0.43554 0.0
H1354 H 0.44892 0.53689 0.46826 0.0
C1355 C 0.5092 0.48713 0.57134 0.0
C1356 C 0.51176 0.4966 0.51732 0.0
H1357 H 0.49782 0.54846 0.48862 0.0
C1358 C 0.50542 0.477 0.50409 0.0
C1359 C 0.50904 0.52268 0.5117 0.0
C1360 C 0.51645 0.54451 0.52512 0.0
C1361 C 0.49604 0.4828 0.48543 0.0
C1362 C 0.49338 0.50888 0.4798 0.0
C1363 C 0.49968 0.52848 0.49304 0.0
C1364 C 0.48558 0.51628 0.45989 0.0
C1365 C 0.48862 0.46096 0.47202 0.0
C1366 C 0.50257 0.50954 0.44439 0.0
C1367 C 0.49659 0.51805 0.42578 0.0
C1368 C 0.47354 0.53367 0.42223 0.0
C1369 C 0.45612 0.53988 0.43773 0.0
C1370 C 0.46221 0.53138 0.45644 0.0
H1371 H 0.48434 0.44288 0.48008 0.0
H1372 H 0.4704 0.46588 0.46316 0.0
H1373 H 0.50604 0.45722 0.46211 0.0
H1374 H 0.52095 0.49828 0.44678 0.0
H1375 H 0.51049 0.51284 0.41422 0.0
loop_
_geom_bond_atom_site_label_1
_geom_bond_atom_site_label_2
_geom_bond_distance
_geom_bond_site_symmetry_2
_ccdc_geom_bond_type
Co0 O1 2.216 . S
Co0 O2 2.091 . S
Co0 O4 2.004 . S
Co0 O10 2.021 . S
Co0 O12 2.137 . S
Co0 O13 2.244 . S
O1 Co0 2.216 . S
O1 C8 1.247 . S
O2 Co0 2.091 . S
O2 C8 1.261 . S
C3 O12 1.247 . S
C3 O13 1.272 . S
O4 Co0 2.004 . S
O4 C9 1.259 . S
Co5 O6 2.045 1_655 S
Co5 O11 2.036 1_655 S
Co5 O13 2.103 1_655 S
O6 Co5 2.045 1_455 S
O6 C9 1.235 . S
C7 O10 1.238 . S
C7 O11 1.241 . S
C8 O1 1.247 . S
C8 O2 1.261 . S
C9 O4 1.259 . S
C9 O6 1.235 . S
O10 Co0 2.021 . S
O10 C7 1.238 . S
O11 Co5 2.036 1_455 S
O11 C7 1.241 . S
O12 Co0 2.137 . S
O12 C3 1.247 . S
O13 Co0 2.244 . S
O13 C3 1.272 . S
O13 Co5 2.103 1_455 S
Co14 O15 2.216 . S
Co14 O16 2.091 . S
Co14 O18 2.004 . S
Co14 O24 2.021 . S
Co14 O26 2.137 . S
Co14 O27 2.244 . S
O15 Co14 2.216 . S
O15 C22 1.247 . S
O16 Co14 2.091 . S
O16 C22 1.261 . S
C17 O26 1.247 . S
C17 O27 1.272 . S
O18 Co14 2.004 . S
O18 C23 1.259 . S
Co19 O20 2.061 . S
Co19 O25 2.052 . S
Co19 O27 2.135 . S
O20 Co19 2.061 . S
O20 C23 1.235 . S
C21 O24 1.238 . S
C21 O25 1.241 . S
C22 O15 1.247 . S
C22 O16 1.261 . S
C23 O18 1.259 . S
C23 O20 1.235 . S
O24 Co14 2.021 . S
O24 C21 1.238 . S
O25 Co19 2.052 . S
O25 C21 1.241 . S
O26 Co14 2.137 . S
O26 C17 1.247 . S
O27 Co14 2.244 . S
O27 C17 1.272 . S
O27 Co19 2.135 . S
Co28 O29 2.216 . S
Co28 O30 2.091 . S
Co28 O32 2.004 . S
Co28 O38 2.021 . S
Co28 O40 2.137 . S
Co28 O41 2.244 . S
O29 Co28 2.216 . S
O29 C36 1.247 . S
O30 Co28 2.091 . S
O30 C36 1.261 . S
C31 O40 1.247 . S
C31 O41 1.272 . S
O32 Co28 2.004 . S
O32 C37 1.259 . S
Co33 O34 2.061 . S
Co33 O39 2.052 . S
Co33 O41 2.135 . S
O34 Co33 2.061 . S
O34 C37 1.235 . S
C35 O38 1.238 . S
C35 O39 1.241 . S
C36 O29 1.247 . S
C36 O30 1.261 . S
C37 O32 1.259 . S
C37 O34 1.235 . S
O38 Co28 2.021 . S
O38 C35 1.238 . S
O39 Co33 2.052 . S
O39 C35 1.241 . S
O40 Co28 2.137 . S
O40 C31 1.247 . S
O41 Co28 2.244 . S
O41 C31 1.272 . S
O41 Co33 2.135 . S
Co42 O43 2.216 . S
Co42 O44 2.091 . S
Co42 O46 2.004 . S
Co42 O52 2.021 . S
Co42 O54 2.137 . S
Co42 O55 2.244 . S
O43 Co42 2.216 . S
O43 C50 1.247 . S
O44 Co42 2.091 . S
O44 C50 1.261 . S
C45 O54 1.247 . S
C45 O55 1.272 . S
O46 Co42 2.004 . S
O46 C51 1.259 . S
Co47 O48 2.045 1_455 S
Co47 O53 2.036 1_455 S
Co47 O55 2.103 1_455 S
O48 Co47 2.045 1_655 S
O48 C51 1.235 . S
C49 O52 1.238 . S
C49 O53 1.241 . S
C50 O43 1.247 . S
C50 O44 1.261 . S
C51 O46 1.259 . S
C51 O48 1.235 . S
O52 Co42 2.021 . S
O52 C49 1.238 . S
O53 Co47 2.036 1_655 S
O53 C49 1.241 . S
O54 Co42 2.137 . S
O54 C45 1.247 . S
O55 Co42 2.244 . S
O55 C45 1.272 . S
O55 Co47 2.103 1_655 S
Co56 O57 2.216 . S
Co56 O58 2.091 . S
Co56 O60 2.004 . S
Co56 O66 2.021 . S
Co56 O68 2.137 . S
Co56 O69 2.244 . S
O57 Co56 2.216 . S
O57 C64 1.247 . S
O58 Co56 2.091 . S
O58 C64 1.261 . S
C59 O68 1.247 . S
C59 O69 1.272 . S
O60 Co56 2.004 . S
O60 C65 1.259 . S
Co61 O62 2.045 1_455 S
Co61 O67 2.036 1_455 S
Co61 O69 2.103 1_455 S
O62 Co61 2.045 1_655 S
O62 C65 1.235 . S
C63 O66 1.238 . S
C63 O67 1.241 . S
C64 O57 1.247 . S
C64 O58 1.261 . S
C65 O60 1.259 . S
C65 O62 1.235 . S
O66 Co56 2.021 . S
O66 C63 1.238 . S
O67 Co61 2.036 1_655 S
O67 C63 1.241 . S
O68 Co56 2.137 . S
O68 C59 1.247 . S
O69 Co56 2.244 . S
O69 C59 1.272 . S
O69 Co61 2.103 1_655 S
Co70 O71 2.216 . S
Co70 O72 2.091 . S
Co70 O74 2.004 . S
Co70 O80 2.021 . S
Co70 O82 2.137 . S
Co70 O83 2.244 . S
O71 Co70 2.216 . S
O71 C78 1.247 . S
O72 Co70 2.091 . S
O72 C78 1.261 . S
C73 O82 1.247 . S
C73 O83 1.272 . S
O74 Co70 2.004 . S
O74 C79 1.259 . S
Co75 O76 2.061 . S
Co75 O81 2.052 . S
Co75 O83 2.135 . S
O76 Co75 2.061 . S
O76 C79 1.235 . S
C77 O80 1.238 . S
C77 O81 1.241 . S
C78 O71 1.247 . S
C78 O72 1.261 . S
C79 O74 1.259 . S
C79 O76 1.235 . S
O80 Co70 2.021 . S
O80 C77 1.238 . S
O81 Co75 2.052 . S
O81 C77 1.241 . S
O82 Co70 2.137 . S
O82 C73 1.247 . S
O83 Co70 2.244 . S
O83 C73 1.272 . S
O83 Co75 2.135 . S
Co84 O85 2.216 . S
Co84 O86 2.091 . S
Co84 O88 2.004 . S
Co84 O94 2.021 . S
Co84 O96 2.137 . S
Co84 O97 2.244 . S
O85 Co84 2.216 . S
O85 C92 1.247 . S
O86 Co84 2.091 . S
O86 C92 1.261 . S
C87 O96 1.247 . S
C87 O97 1.272 . S
O88 Co84 2.004 . S
O88 C93 1.259 . S
Co89 O90 2.061 . S
Co89 O95 2.052 . S
Co89 O97 2.135 . S
O90 Co89 2.061 . S
O90 C93 1.235 . S
C91 O94 1.238 . S
C91 O95 1.241 . S
C92 O85 1.247 . S
C92 O86 1.261 . S
C93 O88 1.259 . S
C93 O90 1.235 . S
O94 Co84 2.021 . S
O94 C91 1.238 . S
O95 Co89 2.052 . S
O95 C91 1.241 . S
O96 Co84 2.137 . S
O96 C87 1.247 . S
O97 Co84 2.244 . S
O97 C87 1.272 . S
O97 Co89 2.135 . S
Co98 O99 2.216 . S
Co98 O100 2.091 . S
Co98 O102 2.004 . S
Co98 O108 2.021 . S
Co98 O110 2.137 . S
Co98 O111 2.244 . S
O99 Co98 2.216 . S
O99 C106 1.247 . S
O100 Co98 2.091 . S
O100 C106 1.261 . S
C101 O110 1.247 . S
C101 O111 1.272 . S
O102 Co98 2.004 . S
O102 C107 1.259 . S
Co103 O104 2.045 1_655 S
Co103 O109 2.036 1_655 S
Co103 O111 2.103 1_655 S
O104 Co103 2.045 1_455 S
O104 C107 1.235 . S
C105 O108 1.238 . S
C105 O109 1.241 . S
C106 O99 1.247 . S
C106 O100 1.261 . S
C107 O102 1.259 . S
C107 O104 1.235 . S
O108 Co98 2.021 . S
O108 C105 1.238 . S
O109 Co103 2.036 1_455 S
O109 C105 1.241 . S
O110 Co98 2.137 . S
O110 C101 1.247 . S
O111 Co98 2.244 . S
O111 C101 1.272 . S
O111 Co103 2.103 1_455 S
Co112 O113 2.216 . S
Co112 O114 2.091 . S
Co112 O116 2.004 . S
Co112 O122 2.021 . S
Co112 O124 2.137 . S
Co112 O125 2.244 . S
O113 Co112 2.216 . S
O113 C120 1.247 . S
O114 Co112 2.091 . S
O114 C120 1.261 . S
C115 O124 1.247 . S
C115 O125 1.272 . S
O116 Co112 2.004 . S
O116 C121 1.259 . S
Co117 O118 2.061 . S
Co117 O123 2.052 . S
Co117 O125 2.135 . S
O118 Co117 2.061 . S
O118 C121 1.235 . S
C119 O122 1.238 . S
C119 O123 1.241 . S
C120 O113 1.247 . S
C120 O114 1.261 . S
C121 O116 1.259 . S
C121 O118 1.235 . S
O122 Co112 2.021 . S
O122 C119 1.238 . S
O123 Co117 2.052 . S
O123 C119 1.241 . S
O124 Co112 2.137 . S
O124 C115 1.247 . S
O125 Co112 2.244 . S
O125 C115 1.272 . S
O125 Co117 2.135 . S
Co126 O127 2.216 . S
Co126 O128 2.091 . S
Co126 O130 2.004 . S
Co126 O136 2.021 . S
Co126 O138 2.137 . S
Co126 O139 2.244 . S
O127 Co126 2.216 . S
O127 C134 1.247 . S
O128 Co126 2.091 . S
O128 C134 1.261 . S
C129 O138 1.247 . S
C129 O139 1.272 . S
O130 Co126 2.004 . S
O130 C135 1.259 . S
Co131 O132 2.045 1_455 S
Co131 O137 2.036 1_455 S
Co131 O139 2.103 1_455 S
O132 Co131 2.045 1_655 S
O132 C135 1.235 . S
C133 O136 1.238 . S
C133 O137 1.241 . S
C134 O127 1.247 . S
C134 O128 1.261 . S
C135 O130 1.259 . S
C135 O132 1.235 . S
O136 Co126 2.021 . S
O136 C133 1.238 . S
O137 Co131 2.036 1_655 S
O137 C133 1.241 . S
O138 Co126 2.137 . S
O138 C129 1.247 . S
O139 Co126 2.244 . S
O139 C129 1.272 . S
O139 Co131 2.103 1_655 S
Co140 O141 2.216 . S
Co140 O142 2.091 . S
Co140 O144 2.004 . S
Co140 O150 2.021 . S
Co140 O152 2.137 . S
Co140 O153 2.244 . S
O141 Co140 2.216 . S
O141 C148 1.247 . S
O142 Co140 2.091 . S
O142 C148 1.261 . S
C143 O152 1.247 . S
C143 O153 1.272 . S
O144 Co140 2.004 . S
O144 C149 1.259 . S
Co145 O146 2.045 1_655 S
Co145 O151 2.036 1_655 S
Co145 O153 2.103 1_655 S
O146 Co145 2.045 1_455 S
O146 C149 1.235 . S
C147 O150 1.238 . S
C147 O151 1.241 . S
C148 O141 1.247 . S
C148 O142 1.261 . S
C149 O144 1.259 . S
C149 O146 1.235 . S
O150 Co140 2.021 . S
O150 C147 1.238 . S
O151 Co145 2.036 1_455 S
O151 C147 1.241 . S
O152 Co140 2.137 . S
O152 C143 1.247 . S
O153 Co140 2.244 . S
O153 C143 1.272 . S
O153 Co145 2.103 1_455 S
Co154 O155 2.216 . S
Co154 O156 2.091 . S
Co154 O158 2.004 . S
Co154 O164 2.021 . S
Co154 O166 2.137 . S
Co154 O167 2.244 . S
O155 Co154 2.216 . S
O155 C162 1.247 . S
O156 Co154 2.091 . S
O156 C162 1.261 . S
C157 O166 1.247 . S
C157 O167 1.272 . S
O158 Co154 2.004 . S
O158 C163 1.259 . S
Co159 O160 2.061 . S
Co159 O165 2.052 . S
Co159 O167 2.135 . S
O160 Co159 2.061 . S
O160 C163 1.235 . S
C161 O164 1.238 . S
C161 O165 1.241 . S
C162 O155 1.247 . S
C162 O156 1.261 . S
C163 O158 1.259 . S
C163 O160 1.235 . S
O164 Co154 2.021 . S
O164 C161 1.238 . S
O165 Co159 2.052 . S
O165 C161 1.241 . S
O166 Co154 2.137 . S
O166 C157 1.247 . S
O167 Co154 2.244 . S
O167 C157 1.272 . S
O167 Co159 2.135 . S
Co168 O169 2.216 . S
Co168 O170 2.091 . S
Co168 O172 2.004 . S
Co168 O178 2.021 . S
Co168 O180 2.137 . S
Co168 O181 2.244 . S
O169 Co168 2.216 . S
O169 C176 1.247 . S
O170 Co168 2.091 . S
O170 C176 1.261 . S
C171 O180 1.247 . S
C171 O181 1.272 . S
O172 Co168 2.004 . S
O172 C177 1.259 . S
Co173 O174 2.061 . S
Co173 O179 2.052 . S
Co173 O181 2.135 . S
O174 Co173 2.061 . S
O174 C177 1.235 . S
C175 O178 1.238 . S
C175 O179 1.241 . S
C176 O169 1.247 . S
C176 O170 1.261 . S
C177 O172 1.259 . S
C177 O174 1.235 . S
O178 Co168 2.021 . S
O178 C175 1.238 . S
O179 Co173 2.052 . S
O179 C175 1.241 . S
O180 Co168 2.137 . S
O180 C171 1.247 . S
O181 Co168 2.244 . S
O181 C171 1.272 . S
O181 Co173 2.135 . S
Co182 O183 2.216 . S
Co182 O184 2.091 . S
Co182 O186 2.004 . S
Co182 O192 2.021 . S
Co182 O194 2.137 . S
Co182 O195 2.244 . S
O183 Co182 2.216 . S
O183 C190 1.247 . S
O184 Co182 2.091 . S
O184 C190 1.261 . S
C185 O194 1.247 . S
C185 O195 1.272 . S
O186 Co182 2.004 . S
O186 C191 1.259 . S
Co187 O188 2.045 1_655 S
Co187 O193 2.036 1_655 S
Co187 O195 2.103 1_655 S
O188 Co187 2.045 1_455 S
O188 C191 1.235 . S
C189 O192 1.238 . S
C189 O193 1.241 . S
C190 O183 1.247 . S
C190 O184 1.261 . S
C191 O186 1.259 . S
C191 O188 1.235 . S
O192 Co182 2.021 . S
O192 C189 1.238 . S
O193 Co187 2.036 1_455 S
O193 C189 1.241 . S
O194 Co182 2.137 . S
O194 C185 1.247 . S
O195 Co182 2.244 . S
O195 C185 1.272 . S
O195 Co187 2.103 1_455 S
Co196 O197 2.216 . S
Co196 O198 2.091 . S
Co196 O200 2.004 . S
Co196 O206 2.021 . S
Co196 O208 2.137 . S
Co196 O209 2.244 . S
O197 Co196 2.216 . S
O197 C204 1.247 . S
O198 Co196 2.091 . S
O198 C204 1.261 . S
C199 O208 1.247 . S
C199 O209 1.272 . S
O200 Co196 2.004 . S
O200 C205 1.259 . S
Co201 O202 2.045 1_455 S
Co201 O207 2.036 1_455 S
Co201 O209 2.103 1_455 S
O202 Co201 2.045 1_655 S
O202 C205 1.235 . S
C203 O206 1.238 . S
C203 O207 1.241 . S
C204 O197 1.247 . S
C204 O198 1.261 . S
C205 O200 1.259 . S
C205 O202 1.235 . S
O206 Co196 2.021 . S
O206 C203 1.238 . S
O207 Co201 2.036 1_655 S
O207 C203 1.241 . S
O208 Co196 2.137 . S
O208 C199 1.247 . S
O209 Co196 2.244 . S
O209 C199 1.272 . S
O209 Co201 2.103 1_655 S
Co210 O211 2.216 . S
Co210 O212 2.091 . S
Co210 O214 2.004 . S
Co210 O220 2.021 . S
Co210 O222 2.137 . S
Co210 O223 2.244 . S
O211 Co210 2.216 . S
O211 C218 1.247 . S
O212 Co210 2.091 . S
O212 C218 1.261 . S
C213 O222 1.247 . S
C213 O223 1.272 . S
O214 Co210 2.004 . S
O214 C219 1.259 . S
Co215 O216 2.061 . S
Co215 O221 2.052 . S
Co215 O223 2.135 . S
O216 Co215 2.061 . S
O216 C219 1.235 . S
C217 O220 1.238 . S
C217 O221 1.241 . S
C218 O211 1.247 . S
C218 O212 1.261 . S
C219 O214 1.259 . S
C219 O216 1.235 . S
O220 Co210 2.021 . S
O220 C217 1.238 . S
O221 Co215 2.052 . S
O221 C217 1.241 . S
O222 Co210 2.137 . S
O222 C213 1.247 . S
O223 Co210 2.244 . S
O223 C213 1.272 . S
O223 Co215 2.135 . S
H224 C232 0.929 . S
H225 C234 0.930 . S
H226 C236 0.930 . S
H227 C239 0.929 . S
H228 C242 0.930 . S
H229 C244 0.960 . S
H230 C244 0.960 . S
H231 C244 0.960 . S
C232 H224 0.929 . S
C232 C233 1.377 . S
C232 C234 1.384 . S
C233 C232 1.377 . S
C233 C239 1.390 . S
C234 H225 0.930 . S
C234 C232 1.384 . S
C234 C235 1.372 . S
C235 C234 1.372 . S
C235 C236 1.400 . S
C235 C240 1.490 . S
C236 H226 0.930 . S
C236 C235 1.400 . S
C236 C239 1.386 . S
H237 C253 0.930 . S
H238 C254 0.931 . S
C239 H227 0.929 . S
C239 C233 1.390 . S
C239 C236 1.386 . S
C240 C235 1.490 . S
C240 C242 1.395 1_565 S
C240 C243 1.403 . S
H241 C247 0.930 . S
C242 H228 0.930 . S
C242 C240 1.395 1_545 S
C242 C245 1.403 . S
C243 C240 1.403 . S
C243 C244 1.524 . S
C243 C247 1.400 . S
C244 H229 0.960 . S
C244 H230 0.960 . S
C244 H231 0.960 . S
C244 C243 1.524 . S
C245 C242 1.403 . S
C245 C246 1.392 . S
C245 C249 1.495 . S
C246 C245 1.392 . S
C246 C247 1.385 1_545 S
C246 C248 1.478 . S
C247 H241 0.930 . S
C247 C243 1.400 . S
C247 C246 1.385 1_565 S
C248 C246 1.478 . S
C248 C250 1.381 . S
C248 C254 1.383 . S
C249 C245 1.495 . S
C249 H255 0.959 . S
C249 H256 0.961 . S
C249 H257 0.960 . S
C250 C248 1.381 . S
C250 C251 1.394 . S
C250 H258 0.930 . S
C251 C250 1.394 . S
C251 C252 1.383 . S
C251 H259 0.929 . S
C252 C251 1.383 . S
C252 C253 1.377 . S
C253 H237 0.930 . S
C253 C252 1.377 . S
C253 C254 1.379 . S
C254 H238 0.931 . S
C254 C248 1.383 . S
C254 C253 1.379 . S
H255 C249 0.959 . S
H256 C249 0.961 . S
H257 C249 0.960 . S
H258 C250 0.930 . S
H259 C251 0.929 . S
H260 C268 0.929 . S
H261 C270 0.930 . S
H262 C272 0.930 1_545 S
H263 C275 0.938 . S
H264 C278 0.930 . S
H265 C280 0.960 . S
H266 C280 0.960 . S
H267 C280 0.960 . S
C268 H260 0.929 . S
C268 C269 1.377 . S
C268 C270 1.384 . S
C269 C268 1.377 . S
C269 C275 1.390 . S
C270 H261 0.930 . S
C270 C268 1.384 . S
C270 C271 1.372 . S
C271 C270 1.372 . S
C271 C272 1.400 . S
C271 C276 1.490 . S
C272 H262 0.930 1_565 S
C272 C271 1.400 . S
C272 C275 1.386 . S
H273 C289 0.930 . S
H274 C290 0.931 . S
C275 H263 0.938 . S
C275 C269 1.390 . S
C275 C272 1.386 . S
C276 C271 1.490 . S
C276 C278 1.395 . S
C276 C279 1.403 1_565 S
H277 C283 0.930 . S
C278 H264 0.930 . S
C278 C276 1.395 . S
C278 C281 1.403 . S
C279 C276 1.403 1_545 S
C279 C280 1.524 . S
C279 C283 1.400 . S
C280 H265 0.960 . S
C280 H266 0.960 . S
C280 H267 0.960 . S
C280 C279 1.524 . S
C281 C278 1.403 . S
C281 C282 1.392 1_565 S
C281 C285 1.495 . S
C282 C281 1.392 1_545 S
C282 C283 1.385 . S
C282 C284 1.478 . S
C283 H277 0.930 . S
C283 C279 1.400 . S
C283 C282 1.385 . S
C284 C282 1.478 . S
C284 C286 1.395 . S
C284 C290 1.383 . S
C285 C281 1.495 . S
C285 H291 0.959 . S
C285 H292 0.961 . S
C285 H293 0.960 . S
C286 C284 1.395 . S
C286 C287 1.404 . S
C286 H294 0.907 1_545 S
C287 C286 1.404 . S
C287 C288 1.383 . S
C287 H295 0.929 . S
C288 C287 1.383 . S
C288 C289 1.377 . S
C289 H273 0.930 . S
C289 C288 1.377 . S
C289 C290 1.379 . S
C290 H274 0.931 . S
C290 C284 1.383 . S
C290 C289 1.379 . S
H291 C285 0.959 . S
H292 C285 0.961 . S
H293 C285 0.960 . S
H294 C286 0.907 1_565 S
H295 C287 0.929 . S
H296 C304 0.929 . S
H297 C306 0.930 . S
H298 C308 0.930 . S
H299 C311 0.929 . S
H300 C314 0.930 . S
H301 C316 0.960 . S
H302 C316 0.960 . S
H303 C316 0.960 . S
C304 H296 0.929 . S
C304 C305 1.377 . S
C304 C306 1.384 . S
C305 C304 1.377 . S
C305 C311 1.390 . S
C306 H297 0.930 . S
C306 C304 1.384 . S
C306 C307 1.372 . S
C307 C306 1.372 . S
C307 C308 1.400 . S
C307 C312 1.490 . S
C308 H298 0.930 . S
C308 C307 1.400 . S
C308 C311 1.386 . S
H309 C325 0.930 . S
H310 C326 0.931 . S
C311 H299 0.929 . S
C311 C305 1.390 . S
C311 C308 1.386 . S
C312 C307 1.490 . S
C312 C314 1.395 1_565 S
C312 C315 1.403 . S
H313 C319 0.930 . S
C314 H300 0.930 . S
C314 C312 1.395 1_545 S
C314 C317 1.403 . S
C315 C312 1.403 . S
C315 C316 1.524 . S
C315 C319 1.400 . S
C316 H301 0.960 . S
C316 H302 0.960 . S
C316 H303 0.960 . S
C316 C315 1.524 . S
C317 C314 1.403 . S
C317 C318 1.392 . S
C317 C321 1.495 . S
C318 C317 1.392 . S
C318 C319 1.385 1_545 S
C318 C320 1.478 . S
C319 H313 0.930 . S
C319 C315 1.400 . S
C319 C318 1.385 1_565 S
C320 C318 1.478 . S
C320 C322 1.381 . S
C320 C326 1.383 . S
C321 C317 1.495 . S
C321 H327 0.959 . S
C321 H328 0.961 . S
C321 H329 0.960 . S
C322 C320 1.381 . S
C322 C323 1.394 . S
C322 H330 0.930 . S
C323 C322 1.394 . S
C323 C324 1.383 . S
C323 H331 0.929 . S
C324 C323 1.383 . S
C324 C325 1.377 . S
C325 H309 0.930 . S
C325 C324 1.377 . S
C325 C326 1.379 . S
C326 H310 0.931 . S
C326 C320 1.383 . S
C326 C325 1.379 . S
H327 C321 0.959 . S
H328 C321 0.961 . S
H329 C321 0.960 . S
H330 C322 0.930 . S
H331 C323 0.929 . S
H332 C340 0.929 . S
H333 C342 0.930 . S
H334 C344 0.930 . S
H335 C347 0.929 . S
H336 C350 0.930 . S
H337 C352 0.960 . S
H338 C352 0.960 . S
H339 C352 0.960 . S
C340 H332 0.929 . S
C340 C341 1.377 . S
C340 C342 1.384 . S
C341 C340 1.377 . S
C341 C347 1.390 . S
C342 H333 0.930 . S
C342 C340 1.384 . S
C342 C343 1.372 . S
C343 C342 1.372 . S
C343 C344 1.400 . S
C343 C348 1.490 . S
C344 H334 0.930 . S
C344 C343 1.400 . S
C344 C347 1.386 . S
H345 C361 0.930 . S
H346 C362 0.931 . S
C347 H335 0.929 . S
C347 C341 1.390 . S
C347 C344 1.386 . S
C348 C343 1.490 . S
C348 C350 1.395 1_565 S
C348 C351 1.403 . S
H349 C355 0.930 . S
C350 H336 0.930 . S
C350 C348 1.395 1_545 S
C350 C353 1.403 . S
C351 C348 1.403 . S
C351 C352 1.524 . S
C351 C355 1.400 . S
C352 H337 0.960 . S
C352 H338 0.960 . S
C352 H339 0.960 . S
C352 C351 1.524 . S
C353 C350 1.403 . S
C353 C354 1.392 . S
C353 C357 1.495 . S
C354 C353 1.392 . S
C354 C355 1.385 1_545 S
C354 C356 1.478 . S
C355 H349 0.930 . S
C355 C351 1.400 . S
C355 C354 1.385 1_565 S
C356 C354 1.478 . S
C356 C358 1.381 . S
C356 C362 1.383 . S
C357 C353 1.495 . S
C357 H363 0.959 . S
C357 H364 0.961 . S
C357 H365 0.960 . S
C358 C356 1.381 . S
C358 C359 1.394 . S
C358 H366 0.930 . S
C359 C358 1.394 . S
C359 C360 1.383 . S
C359 H367 0.929 . S
C360 C359 1.383 . S
C360 C361 1.377 . S
C361 H345 0.930 . S
C361 C360 1.377 . S
C361 C362 1.379 . S
C362 H346 0.931 . S
C362 C356 1.383 . S
C362 C361 1.379 . S
H363 C357 0.959 . S
H364 C357 0.961 . S
H365 C357 0.960 . S
H366 C358 0.930 . S
H367 C359 0.929 . S
H368 C376 0.929 . S
H369 C378 0.930 . S
H370 C380 0.930 . S
H371 C383 0.929 . S
H372 C386 0.930 . S
H373 C388 0.960 . S
H374 C388 0.960 . S
H375 C388 0.960 . S
C376 H368 0.929 . S
C376 C377 1.377 . S
C376 C378 1.384 . S
C377 C376 1.377 . S
C377 C383 1.390 . S
C378 H369 0.930 . S
C378 C376 1.384 . S
C378 C379 1.372 . S
C379 C378 1.372 . S
C379 C380 1.400 . S
C379 C384 1.490 . S
C380 H370 0.930 . S
C380 C379 1.400 . S
C380 C383 1.386 . S
H381 C397 0.930 . S
H382 C398 0.931 . S
C383 H371 0.929 . S
C383 C377 1.390 . S
C383 C380 1.386 . S
C384 C379 1.490 . S
C384 C386 1.395 . S
C384 C387 1.403 . S
H385 C391 0.930 . S
C386 H372 0.930 . S
C386 C384 1.395 . S
C386 C389 1.403 . S
C387 C384 1.403 . S
C387 C388 1.524 . S
C387 C391 1.400 . S
C388 H373 0.960 . S
C388 H374 0.960 . S
C388 H375 0.960 . S
C388 C387 1.524 . S
C389 C386 1.403 . S
C389 C390 1.392 . S
C389 C393 1.495 . S
C390 C389 1.392 . S
C390 C391 1.385 . S
C390 C392 1.478 . S
C391 H385 0.930 . S
C391 C387 1.400 . S
C391 C390 1.385 . S
C392 C390 1.478 . S
C392 C394 1.381 . S
C392 C398 1.383 . S
C393 C389 1.495 . S
C393 H399 0.959 . S
C393 H400 0.961 . S
C393 H401 0.960 . S
C394 C392 1.381 . S
C394 C395 1.394 . S
C394 H402 0.930 . S
C395 C394 1.394 . S
C395 C396 1.383 . S
C395 H403 0.929 . S
C396 C395 1.383 . S
C396 C397 1.377 . S
C397 H381 0.930 . S
C397 C396 1.377 . S
C397 C398 1.379 . S
C398 H382 0.931 . S
C398 C392 1.383 . S
C398 C397 1.379 . S
H399 C393 0.959 . S
H400 C393 0.961 . S
H401 C393 0.960 . S
H402 C394 0.930 . S
H403 C395 0.929 . S
H404 C412 0.929 . S
H405 C414 0.930 . S
H406 C416 0.930 . S
H407 C419 0.929 . S
H408 C422 0.930 . S
H409 C424 0.960 . S
H410 C424 0.960 . S
H411 C424 0.960 . S
C412 H404 0.929 . S
C412 C413 1.377 . S
C412 C414 1.384 . S
C413 C412 1.377 . S
C413 C419 1.390 . S
C414 H405 0.930 . S
C414 C412 1.384 . S
C414 C415 1.372 . S
C415 C414 1.372 . S
C415 C416 1.400 . S
C415 C420 1.490 . S
C416 H406 0.930 . S
C416 C415 1.400 . S
C416 C419 1.386 . S
H417 C433 0.930 . S
H418 C434 0.931 . S
C419 H407 0.929 . S
C419 C413 1.390 . S
C419 C416 1.386 . S
C420 C415 1.490 . S
C420 C422 1.395 . S
C420 C423 1.403 . S
H421 C427 0.930 . S
C422 H408 0.930 . S
C422 C420 1.395 . S
C422 C425 1.403 . S
C423 C420 1.403 . S
C423 C424 1.524 . S
C423 C427 1.400 . S
C424 H409 0.960 . S
C424 H410 0.960 . S
C424 H411 0.960 . S
C424 C423 1.524 . S
C425 C422 1.403 . S
C425 C426 1.392 . S
C425 C429 1.495 . S
C426 C425 1.392 . S
C426 C427 1.385 . S
C426 C428 1.478 . S
C427 H421 0.930 . S
C427 C423 1.400 . S
C427 C426 1.385 . S
C428 C426 1.478 . S
C428 C430 1.381 . S
C428 C434 1.383 . S
C429 C425 1.495 . S
C429 H435 0.959 . S
C429 H436 0.961 . S
C429 H437 0.960 . S
C430 C428 1.381 . S
C430 C431 1.394 . S
C430 H438 0.930 . S
C431 C430 1.394 . S
C431 C432 1.383 . S
C431 H439 0.929 . S
C432 C431 1.383 . S
C432 C433 1.377 . S
C433 H417 0.930 . S
C433 C432 1.377 . S
C433 C434 1.379 . S
C434 H418 0.931 . S
C434 C428 1.383 . S
C434 C433 1.379 . S
H435 C429 0.959 . S
H436 C429 0.961 . S
H437 C429 0.960 . S
H438 C430 0.930 . S
H439 C431 0.929 . S
H440 C448 0.929 . S
H441 C450 0.930 . S
H442 C452 0.930 . S
H443 C455 0.929 . S
H444 C458 0.930 . S
H445 C460 0.960 . S
H446 C460 0.960 . S
H447 C460 0.960 . S
C448 H440 0.929 . S
C448 C449 1.377 . S
C448 C450 1.384 . S
C449 C448 1.377 . S
C449 C455 1.390 . S
C450 H441 0.930 . S
C450 C448 1.384 . S
C450 C451 1.372 . S
C451 C450 1.372 . S
C451 C452 1.400 . S
C451 C456 1.490 . S
C452 H442 0.930 . S
C452 C451 1.400 . S
C452 C455 1.386 . S
H453 C469 0.930 . S
H454 C470 0.931 . S
C455 H443 0.929 . S
C455 C449 1.390 . S
C455 C452 1.386 . S
C456 C451 1.490 . S
C456 C458 1.395 . S
C456 C459 1.403 . S
H457 C463 0.930 . S
C458 H444 0.930 . S
C458 C456 1.395 . S
C458 C461 1.403 . S
C459 C456 1.403 . S
C459 C460 1.524 . S
C459 C463 1.400 . S
C460 H445 0.960 . S
C460 H446 0.960 . S
C460 H447 0.960 . S
C460 C459 1.524 . S
C461 C458 1.403 . S
C461 C462 1.392 . S
C461 C465 1.495 . S
C462 C461 1.392 . S
C462 C463 1.385 . S
C462 C464 1.478 . S
C463 H457 0.930 . S
C463 C459 1.400 . S
C463 C462 1.385 . S
C464 C462 1.478 . S
C464 C466 1.381 . S
C464 C470 1.383 . S
C465 C461 1.495 . S
C465 H471 0.959 . S
C465 H472 0.961 . S
C465 H473 0.960 . S
C466 C464 1.381 . S
C466 C467 1.394 . S
C466 H474 0.930 . S
C467 C466 1.394 . S
C467 C468 1.383 . S
C467 H475 0.929 . S
C468 C467 1.383 . S
C468 C469 1.377 . S
C469 H453 0.930 . S
C469 C468 1.377 . S
C469 C470 1.379 . S
C470 H454 0.931 . S
C470 C464 1.383 . S
C470 C469 1.379 . S
H471 C465 0.959 . S
H472 C465 0.961 . S
H473 C465 0.960 . S
H474 C466 0.930 . S
H475 C467 0.929 . S
H476 C484 0.929 . S
H477 C486 0.930 . S
H478 C488 0.930 . S
H479 C491 0.929 . S
H480 C494 0.930 . S
H481 C496 0.960 . S
H482 C496 0.960 . S
H483 C496 0.960 . S
C484 H476 0.929 . S
C484 C485 1.377 . S
C484 C486 1.384 . S
C485 C484 1.377 . S
C485 C491 1.390 . S
C486 H477 0.930 . S
C486 C484 1.384 . S
C486 C487 1.372 . S
C487 C486 1.372 . S
C487 C488 1.400 . S
C487 C492 1.490 . S
C488 H478 0.930 . S
C488 C487 1.400 . S
C488 C491 1.386 . S
H489 C505 0.930 . S
H490 C506 0.931 . S
C491 H479 0.929 . S
C491 C485 1.390 . S
C491 C488 1.386 . S
C492 C487 1.490 . S
C492 C494 1.395 . S
C492 C495 1.403 . S
H493 C499 0.930 . S
C494 H480 0.930 . S
C494 C492 1.395 . S
C494 C497 1.403 . S
C495 C492 1.403 . S
C495 C496 1.524 . S
C495 C499 1.400 . S
C496 H481 0.960 . S
C496 H482 0.960 . S
C496 H483 0.960 . S
C496 C495 1.524 . S
C497 C494 1.403 . S
C497 C498 1.392 . S
C497 C501 1.495 . S
C498 C497 1.392 . S
C498 C499 1.385 . S
C498 C500 1.478 . S
C499 H493 0.930 . S
C499 C495 1.400 . S
C499 C498 1.385 . S
C500 C498 1.478 . S
C500 C502 1.381 . S
C500 C506 1.383 . S
C501 C497 1.495 . S
C501 H507 0.959 . S
C501 H508 0.961 . S
C501 H509 0.960 . S
C502 C500 1.381 . S
C502 C503 1.394 . S
C502 H510 0.930 . S
C503 C502 1.394 . S
C503 C504 1.383 . S
C503 H511 0.929 . S
C504 C503 1.383 . S
C504 C505 1.377 . S
C505 H489 0.930 . S
C505 C504 1.377 . S
C505 C506 1.379 . S
C506 H490 0.931 . S
C506 C500 1.383 . S
C506 C505 1.379 . S
H507 C501 0.959 . S
H508 C501 0.961 . S
H509 C501 0.960 . S
H510 C502 0.930 . S
H511 C503 0.929 . S
H512 C520 0.929 . S
H513 C522 0.930 . S
H514 C524 0.930 1_455 S
H515 C527 0.929 . S
H516 C530 0.930 . S
H517 C532 0.960 . S
H518 C532 0.960 . S
H519 C532 0.960 . S
C520 H512 0.929 . S
C520 C521 1.377 . S
C520 C522 1.384 . S
C521 C520 1.377 . S
C521 C527 1.390 . S
C522 H513 0.930 . S
C522 C520 1.384 . S
C522 C523 1.372 . S
C523 C522 1.372 . S
C523 C524 1.400 . S
C523 C528 1.490 . S
C524 H514 0.930 1_655 S
C524 C523 1.400 . S
C524 C527 1.386 . S
H525 C541 0.930 . S
H526 C542 0.931 . S
C527 H515 0.929 . S
C527 C521 1.390 . S
C527 C524 1.386 . S
C528 C523 1.490 . S
C528 C530 1.395 . S
C528 C531 1.403 1_655 S
H529 C535 0.930 . S
C530 H516 0.930 . S
C530 C528 1.395 . S
C530 C533 1.403 . S
C531 C528 1.403 1_455 S
C531 C532 1.524 . S
C531 C535 1.400 . S
C532 H517 0.960 . S
C532 H518 0.960 . S
C532 H519 0.960 . S
C532 C531 1.524 . S
C533 C530 1.403 . S
C533 C534 1.392 1_655 S
C533 C537 1.495 . S
C534 C533 1.392 1_455 S
C534 C535 1.385 . S
C534 C536 1.478 . S
C535 H529 0.930 . S
C535 C531 1.400 . S
C535 C534 1.385 . S
C536 C534 1.478 . S
C536 C538 1.381 . S
C536 C542 1.383 . S
C537 C533 1.495 . S
C537 H543 0.959 . S
C537 H544 0.961 . S
C537 H545 0.960 . S
C538 C536 1.381 . S
C538 C539 1.394 . S
C538 H546 0.930 1_455 S
C539 C538 1.394 . S
C539 C540 1.383 . S
C539 H547 0.929 . S
C540 C539 1.383 . S
C540 C541 1.377 . S
C541 H525 0.930 . S
C541 C540 1.377 . S
C541 C542 1.379 . S
C542 H526 0.931 . S
C542 C536 1.383 . S
C542 C541 1.379 . S
H543 C537 0.959 . S
H544 C537 0.961 . S
H545 C537 0.960 . S
H546 C538 0.930 1_655 S
H547 C539 0.929 . S
H548 C556 0.929 . S
H549 C558 0.930 . S
H550 C560 0.930 . S
H551 C563 0.929 . S
H552 C566 0.930 . S
H553 C568 0.960 . S
H554 C568 0.960 . S
H555 C568 0.960 . S
C556 H548 0.929 . S
C556 C557 1.377 . S
C556 C558 1.384 . S
C557 C556 1.377 . S
C557 C563 1.390 . S
C558 H549 0.930 . S
C558 C556 1.384 . S
C558 C559 1.372 . S
C559 C558 1.372 . S
C559 C560 1.400 . S
C559 C564 1.490 . S
C560 H550 0.930 . S
C560 C559 1.400 . S
C560 C563 1.386 . S
H561 C577 0.930 . S
H562 C578 0.931 . S
C563 H551 0.929 . S
C563 C557 1.390 . S
C563 C560 1.386 . S
C564 C559 1.490 . S
C564 C566 1.395 . S
C564 C567 1.403 . S
H565 C571 0.930 . S
C566 H552 0.930 . S
C566 C564 1.395 . S
C566 C569 1.403 . S
C567 C564 1.403 . S
C567 C568 1.524 . S
C567 C571 1.400 . S
C568 H553 0.960 . S
C568 H554 0.960 . S
C568 H555 0.960 . S
C568 C567 1.524 . S
C569 C566 1.403 . S
C569 C570 1.392 . S
C569 C573 1.495 . S
C570 C569 1.392 . S
C570 C571 1.385 . S
C570 C572 1.478 . S
C571 H565 0.930 . S
C571 C567 1.400 . S
C571 C570 1.385 . S
C572 C570 1.478 . S
C572 C574 1.381 . S
C572 C578 1.383 . S
C573 C569 1.495 . S
C573 H579 0.959 1_565 S
C573 H580 0.961 . S
C573 H581 0.960 . S
C574 C572 1.381 . S
C574 C575 1.394 . S
C574 H582 0.930 . S
C575 C574 1.394 . S
C575 C576 1.383 . S
C575 H583 0.929 . S
C576 C575 1.383 . S
C576 C577 1.377 . S
C577 H561 0.930 . S
C577 C576 1.377 . S
C577 C578 1.379 . S
C578 H562 0.931 . S
C578 C572 1.383 . S
C578 C577 1.379 . S
H579 C573 0.959 1_545 S
H580 C573 0.961 . S
H581 C573 0.960 . S
H582 C574 0.930 . S
H583 C575 0.929 . S
H584 C592 0.929 1_655 S
H585 C594 0.941 . S
H586 C596 0.930 . S
H587 C599 0.929 . S
H588 C602 0.930 . S
H589 C604 0.960 . S
H590 C604 0.960 . S
H591 C604 0.960 . S
C592 H584 0.929 1_455 S
C592 C593 1.377 . S
C592 C594 1.380 1_455 S
C593 C592 1.377 . S
C593 C599 1.390 . S
C594 H585 0.941 . S
C594 C592 1.380 1_655 S
C594 C595 1.365 1_655 S
C595 C594 1.365 1_455 S
C595 C596 1.400 . S
C595 C600 1.490 . S
C596 H586 0.930 . S
C596 C595 1.400 . S
C596 C599 1.386 . S
H597 C613 0.930 1_455 S
H598 C614 0.931 1_455 S
C599 H587 0.929 . S
C599 C593 1.390 . S
C599 C596 1.386 . S
C600 C595 1.490 . S
C600 C602 1.395 1_455 S
C600 C603 1.403 . S
H601 C607 0.929 1_455 S
C602 H588 0.930 . S
C602 C600 1.395 1_655 S
C602 C605 1.403 . S
C603 C600 1.403 . S
C603 C604 1.524 . S
C603 C607 1.390 1_455 S
C604 H589 0.960 . S
C604 H590 0.960 . S
C604 H591 0.960 . S
C604 C603 1.524 . S
C605 C602 1.403 . S
C605 C606 1.392 . S
C605 C609 1.495 . S
C606 C605 1.392 . S
C606 C607 1.398 . S
C606 C608 1.478 . S
C607 H601 0.929 1_655 S
C607 C603 1.390 1_655 S
C607 C606 1.398 . S
C608 C606 1.478 . S
C608 C610 1.381 . S
C608 C614 1.383 . S
C609 C605 1.495 . S
C609 H615 0.959 . S
C609 H616 0.961 . S
C609 H617 0.960 . S
C610 C608 1.381 . S
C610 C611 1.394 . S
C610 H618 0.930 . S
C611 C610 1.394 . S
C611 C612 1.383 . S
C611 H619 0.929 . S
C612 C611 1.383 . S
C612 C613 1.377 . S
C613 H597 0.930 1_655 S
C613 C612 1.377 . S
C613 C614 1.379 . S
C614 H598 0.931 1_655 S
C614 C608 1.383 . S
C614 C613 1.379 . S
H615 C609 0.959 . S
H616 C609 0.961 . S
H617 C609 0.960 . S
H618 C610 0.930 . S
H619 C611 0.929 . S
H620 C628 0.929 . S
H621 C630 0.930 . S
H622 C632 0.930 . S
H623 C635 0.929 . S
H624 C638 0.930 . S
H625 C640 0.960 . S
H626 C640 0.960 . S
H627 C640 0.960 . S
C628 H620 0.929 . S
C628 C629 1.377 . S
C628 C630 1.384 . S
C629 C628 1.377 . S
C629 C635 1.390 . S
C630 H621 0.930 . S
C630 C628 1.384 . S
C630 C631 1.372 . S
C631 C630 1.372 . S
C631 C632 1.400 . S
C631 C636 1.490 . S
C632 H622 0.930 . S
C632 C631 1.400 . S
C632 C635 1.386 . S
H633 C649 0.930 . S
H634 C650 0.931 . S
C635 H623 0.929 . S
C635 C629 1.390 . S
C635 C632 1.386 . S
C636 C631 1.490 . S
C636 C638 1.395 . S
C636 C639 1.403 . S
H637 C643 0.930 . S
C638 H624 0.930 . S
C638 C636 1.395 . S
C638 C641 1.403 . S
C639 C636 1.403 . S
C639 C640 1.524 . S
C639 C643 1.400 . S
C640 H625 0.960 . S
C640 H626 0.960 . S
C640 H627 0.960 . S
C640 C639 1.524 . S
C641 C638 1.403 . S
C641 C642 1.392 . S
C641 C645 1.495 . S
C642 C641 1.392 . S
C642 C643 1.385 . S
C642 C644 1.478 . S
C643 H637 0.930 . S
C643 C639 1.400 . S
C643 C642 1.385 . S
C644 C642 1.478 . S
C644 C646 1.381 . S
C644 C650 1.383 . S
C645 C641 1.495 . S
C645 H651 0.959 . S
C645 H652 0.961 . S
C645 H653 0.960 . S
C646 C644 1.381 . S
C646 C647 1.394 . S
C646 H654 0.930 . S
C647 C646 1.394 . S
C647 C648 1.383 . S
C647 H655 0.929 . S
C648 C647 1.383 . S
C648 C649 1.377 . S
C649 H633 0.930 . S
C649 C648 1.377 . S
C649 C650 1.379 . S
C650 H634 0.931 . S
C650 C644 1.383 . S
C650 C649 1.379 . S
H651 C645 0.959 . S
H652 C645 0.961 . S
H653 C645 0.960 . S
H654 C646 0.930 . S
H655 C647 0.929 . S
H656 C664 0.929 . S
H657 C666 0.930 . S
H658 C668 0.930 . S
H659 C671 0.929 . S
H660 C674 0.930 . S
H661 C676 0.960 . S
H662 C676 0.960 . S
H663 C676 0.960 . S
C664 H656 0.929 . S
C664 C665 1.377 . S
C664 C666 1.384 . S
C665 C664 1.377 . S
C665 C671 1.390 . S
C666 H657 0.930 . S
C666 C664 1.384 . S
C666 C667 1.372 . S
C667 C666 1.372 . S
C667 C668 1.400 . S
C667 C672 1.490 . S
C668 H658 0.930 . S
C668 C667 1.400 . S
C668 C671 1.386 . S
H669 C685 0.930 . S
H670 C686 0.931 . S
C671 H659 0.929 . S
C671 C665 1.390 . S
C671 C668 1.386 . S
C672 C667 1.490 . S
C672 C674 1.395 . S
C672 C675 1.403 . S
H673 C679 0.930 . S
C674 H660 0.930 . S
C674 C672 1.395 . S
C674 C677 1.403 . S
C675 C672 1.403 . S
C675 C676 1.524 . S
C675 C679 1.400 . S
C676 H661 0.960 . S
C676 H662 0.960 . S
C676 H663 0.960 . S
C676 C675 1.524 . S
C677 C674 1.403 . S
C677 C678 1.392 . S
C677 C681 1.495 . S
C678 C677 1.392 . S
C678 C679 1.385 . S
C678 C680 1.478 . S
C679 H673 0.930 . S
C679 C675 1.400 . S
C679 C678 1.385 . S
C680 C678 1.478 . S
C680 C682 1.381 . S
C680 C686 1.383 . S
C681 C677 1.495 . S
C681 H687 0.959 . S
C681 H688 0.961 . S
C681 H689 0.960 . S
C682 C680 1.381 . S
C682 C683 1.394 . S
C682 H690 0.930 . S
C683 C682 1.394 . S
C683 C684 1.383 . S
C683 H691 0.929 . S
C684 C683 1.383 . S
C684 C685 1.377 . S
C685 H669 0.930 . S
C685 C684 1.377 . S
C685 C686 1.379 . S
C686 H670 0.931 . S
C686 C680 1.383 . S
C686 C685 1.379 . S
H687 C681 0.959 . S
H688 C681 0.961 . S
H689 C681 0.960 . S
H690 C682 0.930 . S
H691 C683 0.929 . S
H692 C700 0.929 . S
H693 C702 0.930 1_655 S
H694 C704 0.930 . S
H695 C707 0.929 . S
H696 C710 0.930 . S
H697 C712 0.960 . S
H698 C712 0.960 . S
H699 C712 0.960 . S
C700 H692 0.929 . S
C700 C701 1.377 . S
C700 C702 1.384 . S
C701 C700 1.377 . S
C701 C707 1.390 . S
C702 H693 0.930 1_455 S
C702 C700 1.384 . S
C702 C703 1.372 . S
C703 C702 1.372 . S
C703 C704 1.400 . S
C703 C708 1.490 . S
C704 H694 0.930 . S
C704 C703 1.400 . S
C704 C707 1.386 . S
H705 C721 0.930 . S
H706 C722 0.931 1_455 S
C707 H695 0.929 . S
C707 C701 1.390 . S
C707 C704 1.386 . S
C708 C703 1.490 . S
C708 C710 1.395 1_455 S
C708 C711 1.403 . S
H709 C715 0.930 . S
C710 H696 0.930 . S
C710 C708 1.395 1_655 S
C710 C713 1.403 . S
C711 C708 1.403 . S
C711 C712 1.524 . S
C711 C715 1.400 . S
C712 H697 0.960 . S
C712 H698 0.960 . S
C712 H699 0.960 . S
C712 C711 1.524 . S
C713 C710 1.403 . S
C713 C714 1.392 . S
C713 C717 1.495 . S
C714 C713 1.392 . S
C714 C715 1.385 1_655 S
C714 C716 1.478 . S
C715 H709 0.930 . S
C715 C711 1.400 . S
C715 C714 1.385 1_455 S
C716 C714 1.478 . S
C716 C718 1.381 . S
C716 C722 1.383 . S
C717 C713 1.495 . S
C717 H723 0.959 . S
C717 H724 0.961 . S
C717 H725 0.960 . S
C718 C716 1.381 . S
C718 C719 1.394 . S
C718 H726 0.930 . S
C719 C718 1.394 . S
C719 C720 1.383 . S
C719 H727 0.929 . S
C720 C719 1.383 . S
C720 C721 1.377 . S
C721 H705 0.930 . S
C721 C720 1.377 . S
C721 C722 1.379 . S
C722 H706 0.931 1_655 S
C722 C716 1.383 . S
C722 C721 1.379 . S
H723 C717 0.959 . S
H724 C717 0.961 . S
H725 C717 0.960 . S
H726 C718 0.930 . S
H727 C719 0.929 . S
H728 C736 0.929 . S
H729 C738 0.930 . S
H730 C740 0.930 . S
H731 C743 0.929 . S
H732 C746 0.930 . S
H733 C748 0.960 . S
H734 C748 0.960 . S
H735 C748 0.960 . S
C736 H728 0.929 . S
C736 C737 1.377 . S
C736 C738 1.384 . S
C737 C736 1.377 . S
C737 C743 1.390 . S
C738 H729 0.930 . S
C738 C736 1.384 . S
C738 C739 1.372 . S
C739 C738 1.372 . S
C739 C740 1.400 . S
C739 C744 1.490 . S
C740 H730 0.930 . S
C740 C739 1.400 . S
C740 C743 1.386 . S
H741 C757 0.930 . S
H742 C758 0.931 . S
C743 H731 0.929 . S
C743 C737 1.390 . S
C743 C740 1.386 . S
C744 C739 1.490 . S
C744 C746 1.395 . S
C744 C747 1.403 . S
H745 C751 0.930 . S
C746 H732 0.930 . S
C746 C744 1.395 . S
C746 C749 1.403 . S
C747 C744 1.403 . S
C747 C748 1.524 . S
C747 C751 1.400 . S
C748 H733 0.960 . S
C748 H734 0.960 . S
C748 H735 0.960 . S
C748 C747 1.524 . S
C749 C746 1.403 . S
C749 C750 1.392 . S
C749 C753 1.495 . S
C750 C749 1.392 . S
C750 C751 1.385 . S
C750 C752 1.478 . S
C751 H745 0.930 . S
C751 C747 1.400 . S
C751 C750 1.385 . S
C752 C750 1.478 . S
C752 C754 1.381 . S
C752 C758 1.383 . S
C753 C749 1.495 . S
C753 H759 0.959 . S
C753 H760 0.961 . S
C753 H761 0.960 . S
C754 C752 1.381 . S
C754 C755 1.394 . S
C754 H762 0.930 . S
C755 C754 1.394 . S
C755 C756 1.383 . S
C755 H763 0.929 . S
C756 C755 1.383 . S
C756 C757 1.377 . S
C757 H741 0.930 . S
C757 C756 1.377 . S
C757 C758 1.379 . S
C758 H742 0.931 . S
C758 C752 1.383 . S
C758 C757 1.379 . S
H759 C753 0.959 . S
H760 C753 0.961 . S
H761 C753 0.960 . S
H762 C754 0.930 . S
H763 C755 0.929 . S
H764 C772 0.929 . S
H765 C774 0.930 . S
H766 C776 0.930 . S
H767 C779 0.929 . S
H768 C782 0.930 . S
H769 C784 0.960 . S
H770 C784 0.960 . S
H771 C784 0.960 . S
C772 H764 0.929 . S
C772 C773 1.377 . S
C772 C774 1.384 . S
C773 C772 1.377 . S
C773 C779 1.390 . S
C774 H765 0.930 . S
C774 C772 1.384 . S
C774 C775 1.372 . S
C775 C774 1.372 . S
C775 C776 1.400 . S
C775 C780 1.490 . S
C776 H766 0.930 . S
C776 C775 1.400 . S
C776 C779 1.386 . S
H777 C793 0.930 . S
H778 C794 0.931 . S
C779 H767 0.929 . S
C779 C773 1.390 . S
C779 C776 1.386 . S
C780 C775 1.490 . S
C780 C782 1.395 1_455 S
C780 C783 1.403 . S
H781 C787 0.930 . S
C782 H768 0.930 . S
C782 C780 1.395 1_655 S
C782 C785 1.403 . S
C783 C780 1.403 . S
C783 C784 1.524 . S
C783 C787 1.400 . S
C784 H769 0.960 . S
C784 H770 0.960 . S
C784 H771 0.960 . S
C784 C783 1.524 . S
C785 C782 1.403 . S
C785 C786 1.392 . S
C785 C789 1.495 . S
C786 C785 1.392 . S
C786 C787 1.385 1_655 S
C786 C788 1.478 . S
C787 H781 0.930 . S
C787 C783 1.400 . S
C787 C786 1.385 1_455 S
C788 C786 1.478 . S
C788 C790 1.381 . S
C788 C794 1.383 . S
C789 C785 1.495 . S
C789 H795 0.959 . S
C789 H796 0.961 . S
C789 H797 0.960 . S
C790 C788 1.381 . S
C790 C791 1.394 . S
C790 H798 0.930 . S
C791 C790 1.394 . S
C791 C792 1.383 . S
C791 H799 0.929 . S
C792 C791 1.383 . S
C792 C793 1.377 . S
C793 H777 0.930 . S
C793 C792 1.377 . S
C793 C794 1.379 . S
C794 H778 0.931 . S
C794 C788 1.383 . S
C794 C793 1.379 . S
H795 C789 0.959 . S
H796 C789 0.961 . S
H797 C789 0.960 . S
H798 C790 0.930 . S
H799 C791 0.929 . S
H800 C808 0.929 . S
H801 C810 0.930 . S
H802 C812 0.930 . S
H803 C815 0.929 . S
H804 C818 0.930 . S
H805 C820 0.960 . S
H806 C820 0.960 . S
H807 C820 0.960 . S
C808 H800 0.929 . S
C808 C809 1.377 . S
C808 C810 1.384 . S
C809 C808 1.377 . S
C809 C815 1.390 . S
C810 H801 0.930 . S
C810 C808 1.384 . S
C810 C811 1.372 . S
C811 C810 1.372 . S
C811 C812 1.400 . S
C811 C816 1.490 . S
C812 H802 0.930 . S
C812 C811 1.400 . S
C812 C815 1.386 . S
H813 C829 0.930 . S
H814 C830 0.931 . S
C815 H803 0.929 . S
C815 C809 1.390 . S
C815 C812 1.386 . S
C816 C811 1.490 . S
C816 C818 1.395 1_455 S
C816 C819 1.403 . S
H817 C823 0.930 . S
C818 H804 0.930 . S
C818 C816 1.395 1_655 S
C818 C821 1.403 . S
C819 C816 1.403 . S
C819 C820 1.524 . S
C819 C823 1.400 . S
C820 H805 0.960 . S
C820 H806 0.960 . S
C820 H807 0.960 . S
C820 C819 1.524 . S
C821 C818 1.403 . S
C821 C822 1.392 . S
C821 C825 1.495 . S
C822 C821 1.392 . S
C822 C823 1.385 1_655 S
C822 C824 1.478 . S
C823 H817 0.930 . S
C823 C819 1.400 . S
C823 C822 1.385 1_455 S
C824 C822 1.478 . S
C824 C826 1.381 . S
C824 C830 1.383 . S
C825 C821 1.495 . S
C825 H831 0.959 . S
C825 H832 0.961 . S
C825 H833 0.960 . S
C826 C824 1.381 . S
C826 C827 1.394 . S
C826 H834 0.930 . S
C827 C826 1.394 . S
C827 C828 1.383 . S
C827 H835 0.929 . S
C828 C827 1.383 . S
C828 C829 1.377 . S
C829 H813 0.930 . S
C829 C828 1.377 . S
C829 C830 1.379 . S
C830 H814 0.931 . S
C830 C824 1.383 . S
C830 C829 1.379 . S
H831 C825 0.959 . S
H832 C825 0.961 . S
H833 C825 0.960 . S
H834 C826 0.930 . S
H835 C827 0.929 . S
H836 C844 0.929 . S
H837 C846 0.930 . S
H838 C848 0.930 . S
H839 C851 0.929 . S
H840 C854 0.930 . S
H841 C856 0.960 . S
H842 C856 0.960 . S
H843 C856 0.960 . S
C844 H836 0.929 . S
C844 C845 1.377 . S
C844 C846 1.384 . S
C845 C844 1.377 . S
C845 C851 1.390 . S
C846 H837 0.930 . S
C846 C844 1.384 . S
C846 C847 1.372 . S
C847 C846 1.372 . S
C847 C848 1.400 . S
C847 C852 1.490 . S
C848 H838 0.930 . S
C848 C847 1.400 . S
C848 C851 1.386 . S
H849 C865 0.930 . S
H850 C866 0.931 . S
C851 H839 0.929 . S
C851 C845 1.390 . S
C851 C848 1.386 . S
C852 C847 1.490 . S
C852 C854 1.395 . S
C852 C855 1.403 . S
H853 C859 0.930 . S
C854 H840 0.930 . S
C854 C852 1.395 . S
C854 C857 1.403 . S
C855 C852 1.403 . S
C855 C856 1.524 . S
C855 C859 1.400 . S
C856 H841 0.960 . S
C856 H842 0.960 . S
C856 H843 0.960 . S
C856 C855 1.524 . S
C857 C854 1.403 . S
C857 C858 1.392 . S
C857 C861 1.495 . S
C858 C857 1.392 . S
C858 C859 1.385 . S
C858 C860 1.478 . S
C859 H853 0.930 . S
C859 C855 1.400 . S
C859 C858 1.385 . S
C860 C858 1.478 . S
C860 C862 1.381 . S
C860 C866 1.383 . S
C861 C857 1.495 . S
C861 H867 0.959 . S
C861 H868 0.961 . S
C861 H869 0.960 . S
C862 C860 1.381 . S
C862 C863 1.394 . S
C862 H870 0.930 . S
C863 C862 1.394 . S
C863 C864 1.383 . S
C863 H871 0.929 . S
C864 C863 1.383 . S
C864 C865 1.377 . S
C865 H849 0.930 . S
C865 C864 1.377 . S
C865 C866 1.379 . S
C866 H850 0.931 . S
C866 C860 1.383 . S
C866 C865 1.379 . S
H867 C861 0.959 . S
H868 C861 0.961 . S
H869 C861 0.960 . S
H870 C862 0.930 . S
H871 C863 0.929 . S
H872 C880 0.929 . S
H873 C882 0.930 . S
H874 C884 0.930 . S
H875 C887 0.929 . S
H876 C890 0.930 . S
H877 C892 0.960 . S
H878 C892 0.960 . S
H879 C892 0.960 . S
C880 H872 0.929 . S
C880 C881 1.377 . S
C880 C882 1.384 . S
C881 C880 1.377 . S
C881 C887 1.390 . S
C882 H873 0.930 . S
C882 C880 1.384 . S
C882 C883 1.372 . S
C883 C882 1.372 . S
C883 C884 1.400 . S
C883 C888 1.490 . S
C884 H874 0.930 . S
C884 C883 1.400 . S
C884 C887 1.386 . S
H885 C901 0.930 . S
H886 C902 0.931 . S
C887 H875 0.929 . S
C887 C881 1.390 . S
C887 C884 1.386 . S
C888 C883 1.490 . S
C888 C890 1.395 . S
C888 C891 1.403 . S
H889 C895 0.930 . S
C890 H876 0.930 . S
C890 C888 1.395 . S
C890 C893 1.403 . S
C891 C888 1.403 . S
C891 C892 1.524 . S
C891 C895 1.400 . S
C892 H877 0.960 . S
C892 H878 0.960 . S
C892 H879 0.960 . S
C892 C891 1.524 . S
C893 C890 1.403 . S
C893 C894 1.392 . S
C893 C897 1.495 . S
C894 C893 1.392 . S
C894 C895 1.385 . S
C894 C896 1.478 . S
C895 H889 0.930 . S
C895 C891 1.400 . S
C895 C894 1.385 . S
C896 C894 1.478 . S
C896 C898 1.381 . S
C896 C902 1.383 . S
C897 C893 1.495 . S
C897 H903 0.959 . S
C897 H904 0.961 . S
C897 H905 0.960 . S
C898 C896 1.381 . S
C898 C899 1.394 . S
C898 H906 0.930 . S
C899 C898 1.394 . S
C899 C900 1.383 . S
C899 H907 0.929 . S
C900 C899 1.383 . S
C900 C901 1.377 . S
C901 H885 0.930 . S
C901 C900 1.377 . S
C901 C902 1.379 . S
C902 H886 0.931 . S
C902 C896 1.383 . S
C902 C901 1.379 . S
H903 C897 0.959 . S
H904 C897 0.961 . S
H905 C897 0.960 . S
H906 C898 0.930 . S
H907 C899 0.929 . S
H908 C916 0.929 . S
H909 C918 0.930 . S
H910 C920 0.930 . S
H911 C923 0.929 . S
H912 C926 0.930 . S
H913 C928 0.960 . S
H914 C928 0.960 . S
H915 C928 0.960 . S
C916 H908 0.929 . S
C916 C917 1.377 . S
C916 C918 1.384 . S
C917 C916 1.377 . S
C917 C923 1.390 . S
C918 H909 0.930 . S
C918 C916 1.384 . S
C918 C919 1.372 . S
C919 C918 1.372 . S
C919 C920 1.400 . S
C919 C924 1.490 . S
C920 H910 0.930 . S
C920 C919 1.400 . S
C920 C923 1.386 . S
H921 C937 0.930 . S
H922 C938 0.931 . S
C923 H911 0.929 . S
C923 C917 1.390 . S
C923 C920 1.386 . S
C924 C919 1.490 . S
C924 C926 1.395 1_455 S
C924 C927 1.403 . S
H925 C931 0.930 . S
C926 H912 0.930 . S
C926 C924 1.395 1_655 S
C926 C929 1.403 . S
C927 C924 1.403 . S
C927 C928 1.524 . S
C927 C931 1.400 . S
C928 H913 0.960 . S
C928 H914 0.960 . S
C928 H915 0.960 . S
C928 C927 1.524 . S
C929 C926 1.403 . S
C929 C930 1.392 . S
C929 C933 1.495 . S
C930 C929 1.392 . S
C930 C931 1.385 1_655 S
C930 C932 1.478 . S
C931 H925 0.930 . S
C931 C927 1.400 . S
C931 C930 1.385 1_455 S
C932 C930 1.478 . S
C932 C934 1.381 . S
C932 C938 1.383 . S
C933 C929 1.495 . S
C933 H939 0.959 . S
C933 H940 0.961 . S
C933 H941 0.960 . S
C934 C932 1.381 . S
C934 C935 1.394 . S
C934 H942 0.930 . S
C935 C934 1.394 . S
C935 C936 1.383 . S
C935 H943 0.929 . S
C936 C935 1.383 . S
C936 C937 1.377 . S
C937 H921 0.930 . S
C937 C936 1.377 . S
C937 C938 1.379 . S
C938 H922 0.931 . S
C938 C932 1.383 . S
C938 C937 1.379 . S
H939 C933 0.959 . S
H940 C933 0.961 . S
H941 C933 0.960 . S
H942 C934 0.930 . S
H943 C935 0.929 . S
H944 C952 0.929 . S
H945 C954 0.930 . S
H946 C956 0.930 1_655 S
H947 C959 0.929 . S
H948 C962 0.930 . S
H949 C964 0.960 . S
H950 C964 0.960 . S
H951 C964 0.960 . S
C952 H944 0.929 . S
C952 C953 1.377 . S
C952 C954 1.384 . S
C953 C952 1.377 . S
C953 C959 1.390 . S
C954 H945 0.930 . S
C954 C952 1.384 . S
C954 C955 1.372 . S
C955 C954 1.372 . S
C955 C956 1.400 . S
C955 C960 1.490 . S
C956 H946 0.930 1_455 S
C956 C955 1.400 . S
C956 C959 1.386 . S
H957 C973 0.930 . S
H958 C974 0.931 . S
C959 H947 0.929 . S
C959 C953 1.390 . S
C959 C956 1.386 . S
C960 C955 1.490 . S
C960 C962 1.395 . S
C960 C963 1.403 1_455 S
H961 C967 0.930 . S
C962 H948 0.930 . S
C962 C960 1.395 . S
C962 C965 1.403 . S
C963 C960 1.403 1_655 S
C963 C964 1.524 . S
C963 C967 1.400 . S
C964 H949 0.960 . S
C964 H950 0.960 . S
C964 H951 0.960 . S
C964 C963 1.524 . S
C965 C962 1.403 . S
C965 C966 1.392 1_455 S
C965 C969 1.495 . S
C966 C965 1.392 1_655 S
C966 C967 1.385 . S
C966 C968 1.478 . S
C967 H961 0.930 . S
C967 C963 1.400 . S
C967 C966 1.385 . S
C968 C966 1.478 . S
C968 C970 1.381 . S
C968 C974 1.383 . S
C969 C965 1.495 . S
C969 H975 0.959 . S
C969 H976 0.961 . S
C969 H977 0.960 . S
C970 C968 1.381 . S
C970 C971 1.394 . S
C970 H978 0.930 1_655 S
C971 C970 1.394 . S
C971 C972 1.383 . S
C971 H979 0.929 . S
C972 C971 1.383 . S
C972 C973 1.377 . S
C973 H957 0.930 . S
C973 C972 1.377 . S
C973 C974 1.379 . S
C974 H958 0.931 . S
C974 C968 1.383 . S
C974 C973 1.379 . S
H975 C969 0.959 . S
H976 C969 0.961 . S
H977 C969 0.960 . S
H978 C970 0.930 1_455 S
H979 C971 0.929 . S
H980 C988 0.929 . S
H981 C990 0.930 . S
H982 C992 0.930 . S
H983 C995 0.929 . S
H984 C998 0.930 . S
H985 C1000 0.960 . S
H986 C1000 0.960 . S
H987 C1000 0.960 . S
C988 H980 0.929 . S
C988 C989 1.377 . S
C988 C990 1.384 . S
C989 C988 1.377 . S
C989 C995 1.390 . S
C990 H981 0.930 . S
C990 C988 1.384 . S
C990 C991 1.372 . S
C991 C990 1.372 . S
C991 C992 1.400 . S
C991 C996 1.490 . S
C992 H982 0.930 . S
C992 C991 1.400 . S
C992 C995 1.386 . S
H993 C1009 0.930 . S
H994 C1010 0.931 . S
C995 H983 0.929 . S
C995 C989 1.390 . S
C995 C992 1.386 . S
C996 C991 1.490 . S
C996 C998 1.395 . S
C996 C999 1.403 . S
H997 C1003 0.930 . S
C998 H984 0.930 . S
C998 C996 1.395 . S
C998 C1001 1.403 . S
C999 C996 1.403 . S
C999 C1000 1.524 . S
C999 C1003 1.400 . S
C1000 H985 0.960 . S
C1000 H986 0.960 . S
C1000 H987 0.960 . S
C1000 C999 1.524 . S
C1001 C998 1.403 . S
C1001 C1002 1.392 . S
C1001 C1005 1.495 . S
C1002 C1001 1.392 . S
C1002 C1003 1.385 . S
C1002 C1004 1.478 . S
C1003 H997 0.930 . S
C1003 C999 1.400 . S
C1003 C1002 1.385 . S
C1004 C1002 1.478 . S
C1004 C1006 1.381 . S
C1004 C1010 1.383 . S
C1005 C1001 1.495 . S
C1005 H1011 0.959 . S
C1005 H1012 0.961 . S
C1005 H1013 0.960 . S
C1006 C1004 1.381 . S
C1006 C1007 1.394 . S
C1006 H1014 0.930 . S
C1007 C1006 1.394 . S
C1007 C1008 1.383 . S
C1007 H1015 0.929 . S
C1008 C1007 1.383 . S
C1008 C1009 1.377 . S
C1009 H993 0.930 . S
C1009 C1008 1.377 . S
C1009 C1010 1.379 . S
C1010 H994 0.931 . S
C1010 C1004 1.383 . S
C1010 C1009 1.379 . S
H1011 C1005 0.959 . S
H1012 C1005 0.961 . S
H1013 C1005 0.960 . S
H1014 C1006 0.930 . S
H1015 C1007 0.929 . S
H1016 C1024 0.929 . S
H1017 C1026 0.930 . S
H1018 C1028 0.930 . S
H1019 C1031 0.929 . S
H1020 C1034 0.930 . S
H1021 C1036 0.960 . S
H1022 C1036 0.960 . S
H1023 C1036 0.960 . S
C1024 H1016 0.929 . S
C1024 C1025 1.377 . S
C1024 C1026 1.384 . S
C1025 C1024 1.377 . S
C1025 C1031 1.390 . S
C1026 H1017 0.930 . S
C1026 C1024 1.384 . S
C1026 C1027 1.372 . S
C1027 C1026 1.372 . S
C1027 C1028 1.400 . S
C1027 C1032 1.490 . S
C1028 H1018 0.930 . S
C1028 C1027 1.400 . S
C1028 C1031 1.386 . S
H1029 C1045 0.930 . S
H1030 C1046 0.931 . S
C1031 H1019 0.929 . S
C1031 C1025 1.390 . S
C1031 C1028 1.386 . S
C1032 C1027 1.490 . S
C1032 C1034 1.395 . S
C1032 C1035 1.403 . S
H1033 C1039 0.930 . S
C1034 H1020 0.930 . S
C1034 C1032 1.395 . S
C1034 C1037 1.403 . S
C1035 C1032 1.403 . S
C1035 C1036 1.524 . S
C1035 C1039 1.400 . S
C1036 H1021 0.960 . S
C1036 H1022 0.960 . S
C1036 H1023 0.960 . S
C1036 C1035 1.524 . S
C1037 C1034 1.403 . S
C1037 C1038 1.392 . S
C1037 C1041 1.495 . S
C1038 C1037 1.392 . S
C1038 C1039 1.385 . S
C1038 C1040 1.478 . S
C1039 H1033 0.930 . S
C1039 C1035 1.400 . S
C1039 C1038 1.385 . S
C1040 C1038 1.478 . S
C1040 C1042 1.381 . S
C1040 C1046 1.383 . S
C1041 C1037 1.495 . S
C1041 H1047 0.959 . S
C1041 H1048 0.961 . S
C1041 H1049 0.960 . S
C1042 C1040 1.381 . S
C1042 C1043 1.394 . S
C1042 H1050 0.930 . S
C1043 C1042 1.394 . S
C1043 C1044 1.383 . S
C1043 H1051 0.929 . S
C1044 C1043 1.383 . S
C1044 C1045 1.377 . S
C1045 H1029 0.930 . S
C1045 C1044 1.377 . S
C1045 C1046 1.379 . S
C1046 H1030 0.931 . S
C1046 C1040 1.383 . S
C1046 C1045 1.379 . S
H1047 C1041 0.959 . S
H1048 C1041 0.961 . S
H1049 C1041 0.960 . S
H1050 C1042 0.930 . S
H1051 C1043 0.929 . S
H1052 C1060 0.929 . S
H1053 C1062 0.930 . S
H1054 C1064 0.941 . S
H1055 C1067 0.929 . S
H1056 C1070 0.930 . S
H1057 C1072 0.960 . S
H1058 C1072 0.960 . S
H1059 C1072 0.960 . S
C1060 H1052 0.929 . S
C1060 C1061 1.377 . S
C1060 C1062 1.384 . S
C1061 C1060 1.377 . S
C1061 C1067 1.390 . S
C1062 H1053 0.930 . S
C1062 C1060 1.384 . S
C1062 C1063 1.372 . S
C1063 C1062 1.372 . S
C1063 C1064 1.400 . S
C1063 C1068 1.490 . S
C1064 H1054 0.941 . S
C1064 C1063 1.400 . S
C1064 C1067 1.386 . S
H1065 C1081 0.930 . S
H1066 C1082 0.931 . S
C1067 H1055 0.929 . S
C1067 C1061 1.390 . S
C1067 C1064 1.386 . S
C1068 C1063 1.490 . S
C1068 C1070 1.395 . S
C1068 C1071 1.403 1_455 S
H1069 C1075 0.930 . S
C1070 H1056 0.930 . S
C1070 C1068 1.395 . S
C1070 C1073 1.403 . S
C1071 C1068 1.403 1_655 S
C1071 C1072 1.524 . S
C1071 C1075 1.400 . S
C1072 H1057 0.960 . S
C1072 H1058 0.960 . S
C1072 H1059 0.960 . S
C1072 C1071 1.524 . S
C1073 C1070 1.403 . S
C1073 C1074 1.392 1_455 S
C1073 C1077 1.495 . S
C1074 C1073 1.392 1_655 S
C1074 C1075 1.385 . S
C1074 C1076 1.478 . S
C1075 H1069 0.930 . S
C1075 C1071 1.400 . S
C1075 C1074 1.385 . S
C1076 C1074 1.478 . S
C1076 C1078 1.381 . S
C1076 C1082 1.383 . S
C1077 C1073 1.495 . S
C1077 H1083 0.959 . S
C1077 H1084 0.961 . S
C1077 H1085 0.960 . S
C1078 C1076 1.381 . S
C1078 C1079 1.394 . S
C1078 H1086 0.931 . S
C1079 C1078 1.394 . S
C1079 C1080 1.383 . S
C1079 H1087 0.929 . S
C1080 C1079 1.383 . S
C1080 C1081 1.377 . S
C1081 H1065 0.930 . S
C1081 C1080 1.377 . S
C1081 C1082 1.379 . S
C1082 H1066 0.931 . S
C1082 C1076 1.383 . S
C1082 C1081 1.379 . S
H1083 C1077 0.959 . S
H1084 C1077 0.961 . S
H1085 C1077 0.960 . S
H1086 C1078 0.931 . S
H1087 C1079 0.929 . S
H1088 C1096 0.929 . S
H1089 C1098 0.930 . S
H1090 C1100 0.930 1_545 S
H1091 C1103 0.929 . S
H1092 C1106 0.930 . S
H1093 C1108 0.960 . S
H1094 C1108 0.960 . S
H1095 C1108 0.960 . S
C1096 H1088 0.929 . S
C1096 C1097 1.377 . S
C1096 C1098 1.384 . S
C1097 C1096 1.377 . S
C1097 C1103 1.390 . S
C1098 H1089 0.930 . S
C1098 C1096 1.384 . S
C1098 C1099 1.372 . S
C1099 C1098 1.372 . S
C1099 C1100 1.400 . S
C1099 C1104 1.490 . S
C1100 H1090 0.930 1_565 S
C1100 C1099 1.400 . S
C1100 C1103 1.386 . S
H1101 C1117 0.930 . S
H1102 C1118 0.931 . S
C1103 H1091 0.929 . S
C1103 C1097 1.390 . S
C1103 C1100 1.386 . S
C1104 C1099 1.490 . S
C1104 C1106 1.395 1_655 S
C1104 C1107 1.403 1_565 S
H1105 C1111 0.930 . S
C1106 H1092 0.930 . S
C1106 C1104 1.395 1_455 S
C1106 C1109 1.403 1_556 S
C1107 C1104 1.403 1_545 S
C1107 C1108 1.524 . S
C1107 C1111 1.400 1_556 S
C1108 H1093 0.960 . S
C1108 H1094 0.960 . S
C1108 H1095 0.960 . S
C1108 C1107 1.524 . S
C1109 C1106 1.403 1_554 S
C1109 C1110 1.392 1_565 S
C1109 C1113 1.495 . S
C1110 C1109 1.392 1_545 S
C1110 C1111 1.385 1_455 S
C1110 C1112 1.478 . S
C1111 H1105 0.930 . S
C1111 C1107 1.400 1_554 S
C1111 C1110 1.385 1_655 S
C1112 C1110 1.478 . S
C1112 C1114 1.381 . S
C1112 C1118 1.383 . S
C1113 C1109 1.495 . S
C1113 H1119 0.959 . S
C1113 H1120 0.961 . S
C1113 H1121 0.960 . S
C1114 C1112 1.381 . S
C1114 C1115 1.394 . S
C1114 H1122 0.930 1_545 S
C1115 C1114 1.394 . S
C1115 C1116 1.383 . S
C1115 H1123 0.929 . S
C1116 C1115 1.383 . S
C1116 C1117 1.377 . S
C1117 H1101 0.930 . S
C1117 C1116 1.377 . S
C1117 C1118 1.379 . S
C1118 H1102 0.931 . S
C1118 C1112 1.383 . S
C1118 C1117 1.379 . S
H1119 C1113 0.959 . S
H1120 C1113 0.961 . S
H1121 C1113 0.960 . S
H1122 C1114 0.930 1_565 S
H1123 C1115 0.929 . S
H1124 C1132 0.929 . S
H1125 C1134 0.930 . S
H1126 C1136 0.930 . S
H1127 C1139 0.929 . S
H1128 C1142 0.930 . S
H1129 C1144 0.979 . S
H1130 C1144 0.955 1_556 S
H1131 C1144 0.948 1_556 S
C1132 H1124 0.929 . S
C1132 C1133 1.377 . S
C1132 C1134 1.384 . S
C1133 C1132 1.377 . S
C1133 C1139 1.390 . S
C1134 H1125 0.930 . S
C1134 C1132 1.384 . S
C1134 C1135 1.372 . S
C1135 C1134 1.372 . S
C1135 C1136 1.400 . S
C1135 C1140 1.490 . S
C1136 H1126 0.930 . S
C1136 C1135 1.400 . S
C1136 C1139 1.386 . S
H1137 C1153 0.930 . S
H1138 C1154 0.931 . S
C1139 H1127 0.929 . S
C1139 C1133 1.390 . S
C1139 C1136 1.386 . S
C1140 C1135 1.490 . S
C1140 C1142 1.395 1_545 S
C1140 C1143 1.440 . S
H1141 C1147 0.930 . S
C1142 H1128 0.930 . S
C1142 C1140 1.395 1_565 S
C1142 C1145 1.426 . S
C1143 C1140 1.440 . S
C1143 C1144 1.522 1_556 S
C1143 C1147 1.363 1_556 S
C1144 H1129 0.979 . S
C1144 H1130 0.955 1_554 S
C1144 H1131 0.948 1_554 S
C1144 C1143 1.522 1_554 S
C1145 C1142 1.426 . S
C1145 C1146 1.370 1_556 S
C1145 C1149 1.496 . S
C1146 C1145 1.370 1_554 S
C1146 C1147 1.385 1_565 S
C1146 C1148 1.478 . S
C1147 H1141 0.930 . S
C1147 C1143 1.363 1_554 S
C1147 C1146 1.385 1_545 S
C1148 C1146 1.478 . S
C1148 C1150 1.381 . S
C1148 C1154 1.383 . S
C1149 C1145 1.496 . S
C1149 H1155 0.959 . S
C1149 H1156 0.961 1_556 S
C1149 H1157 0.960 1_556 S
C1150 C1148 1.381 . S
C1150 C1151 1.394 . S
C1150 H1158 0.938 . S
C1151 C1150 1.394 . S
C1151 C1152 1.383 . S
C1151 H1159 0.929 . S
C1152 C1151 1.383 . S
C1152 C1153 1.377 . S
C1153 H1137 0.930 . S
C1153 C1152 1.377 . S
C1153 C1154 1.379 . S
C1154 H1138 0.931 . S
C1154 C1148 1.383 . S
C1154 C1153 1.379 . S
H1155 C1149 0.959 . S
H1156 C1149 0.961 1_554 S
H1157 C1149 0.960 1_554 S
H1158 C1150 0.938 . S
H1159 C1151 0.929 . S
H1160 C1168 0.929 . S
H1161 C1170 0.930 . S
H1162 C1172 0.930 . S
H1163 C1175 0.929 . S
H1164 C1178 0.930 . S
H1165 C1180 0.960 . S
H1166 C1180 0.960 . S
H1167 C1180 0.960 . S
C1168 H1160 0.929 . S
C1168 C1169 1.377 . S
C1168 C1170 1.384 . S
C1169 C1168 1.377 . S
C1169 C1175 1.390 . S
C1170 H1161 0.930 . S
C1170 C1168 1.384 . S
C1170 C1171 1.372 . S
C1171 C1170 1.372 . S
C1171 C1172 1.400 . S
C1171 C1176 1.490 . S
C1172 H1162 0.930 . S
C1172 C1171 1.400 . S
C1172 C1175 1.386 . S
H1173 C1189 0.930 . S
H1174 C1190 0.931 . S
C1175 H1163 0.929 . S
C1175 C1169 1.390 . S
C1175 C1172 1.386 . S
C1176 C1171 1.490 . S
C1176 C1178 1.395 . S
C1176 C1179 1.403 1_545 S
H1177 C1183 0.930 . S
C1178 H1164 0.930 . S
C1178 C1176 1.395 . S
C1178 C1181 1.403 . S
C1179 C1176 1.403 1_565 S
C1179 C1180 1.524 . S
C1179 C1183 1.400 . S
C1180 H1165 0.960 . S
C1180 H1166 0.960 . S
C1180 H1167 0.960 . S
C1180 C1179 1.524 . S
C1181 C1178 1.403 . S
C1181 C1182 1.392 1_545 S
C1181 C1185 1.495 . S
C1182 C1181 1.392 1_565 S
C1182 C1183 1.385 . S
C1182 C1184 1.478 . S
C1183 H1177 0.930 . S
C1183 C1179 1.400 . S
C1183 C1182 1.385 . S
C1184 C1182 1.478 . S
C1184 C1186 1.381 . S
C1184 C1190 1.383 . S
C1185 C1181 1.495 . S
C1185 H1191 0.959 . S
C1185 H1192 0.961 . S
C1185 H1193 0.960 . S
C1186 C1184 1.381 . S
C1186 C1187 1.394 . S
C1186 H1194 0.930 . S
C1187 C1186 1.394 . S
C1187 C1188 1.383 . S
C1187 H1195 0.929 . S
C1188 C1187 1.383 . S
C1188 C1189 1.377 . S
C1189 H1173 0.930 . S
C1189 C1188 1.377 . S
C1189 C1190 1.379 . S
C1190 H1174 0.931 . S
C1190 C1184 1.383 . S
C1190 C1189 1.379 . S
H1191 C1185 0.959 . S
H1192 C1185 0.961 . S
H1193 C1185 0.960 . S
H1194 C1186 0.930 . S
H1195 C1187 0.929 . S
H1196 C1204 0.929 . S
H1197 C1206 0.930 . S
H1198 C1208 0.930 1_645 S
H1199 C1211 0.929 . S
H1200 C1214 0.930 . S
H1201 C1216 0.960 . S
H1202 C1216 0.960 . S
H1203 C1216 0.960 . S
C1204 H1196 0.929 . S
C1204 C1205 1.377 . S
C1204 C1206 1.384 . S
C1205 C1204 1.377 . S
C1205 C1211 1.390 . S
C1206 H1197 0.930 . S
C1206 C1204 1.384 . S
C1206 C1207 1.372 . S
C1207 C1206 1.372 . S
C1207 C1208 1.400 . S
C1207 C1212 1.490 . S
C1208 H1198 0.930 1_465 S
C1208 C1207 1.400 . S
C1208 C1211 1.386 . S
H1209 C1225 0.930 . S
H1210 C1226 0.931 . S
C1211 H1199 0.929 . S
C1211 C1205 1.390 . S
C1211 C1208 1.386 . S
C1212 C1207 1.490 . S
C1212 C1214 1.395 1_455 S
C1212 C1215 1.403 1_565 S
H1213 C1219 0.930 . S
C1214 H1200 0.930 . S
C1214 C1212 1.395 1_655 S
C1214 C1217 1.403 . S
C1215 C1212 1.403 1_545 S
C1215 C1216 1.524 . S
C1215 C1219 1.400 . S
C1216 H1201 0.960 . S
C1216 H1202 0.960 . S
C1216 H1203 0.960 . S
C1216 C1215 1.524 . S
C1217 C1214 1.403 . S
C1217 C1218 1.392 1_565 S
C1217 C1221 1.495 . S
C1218 C1217 1.392 1_545 S
C1218 C1219 1.385 1_655 S
C1218 C1220 1.478 . S
C1219 H1213 0.930 . S
C1219 C1215 1.400 . S
C1219 C1218 1.385 1_455 S
C1220 C1218 1.478 . S
C1220 C1222 1.381 . S
C1220 C1226 1.383 . S
C1221 C1217 1.495 . S
C1221 H1227 0.959 . S
C1221 H1228 0.961 . S
C1221 H1229 0.960 . S
C1222 C1220 1.381 . S
C1222 C1223 1.394 . S
C1222 H1230 0.930 1_645 S
C1223 C1222 1.394 . S
C1223 C1224 1.383 . S
C1223 H1231 0.929 . S
C1224 C1223 1.383 . S
C1224 C1225 1.377 . S
C1225 H1209 0.930 . S
C1225 C1224 1.377 . S
C1225 C1226 1.379 . S
C1226 H1210 0.931 . S
C1226 C1220 1.383 . S
C1226 C1225 1.379 . S
H1227 C1221 0.959 . S
H1228 C1221 0.961 . S
H1229 C1221 0.960 . S
H1230 C1222 0.930 1_465 S
H1231 C1223 0.929 . S
H1232 C1240 0.929 . S
H1233 C1242 0.930 . S
H1234 C1244 0.930 . S
H1235 C1247 0.929 . S
H1236 C1250 0.930 . S
H1237 C1252 0.960 . S
H1238 C1252 0.960 . S
H1239 C1252 0.960 . S
C1240 H1232 0.929 . S
C1240 C1241 1.377 . S
C1240 C1242 1.384 . S
C1241 C1240 1.377 . S
C1241 C1247 1.390 . S
C1242 H1233 0.930 . S
C1242 C1240 1.384 . S
C1242 C1243 1.372 . S
C1243 C1242 1.372 . S
C1243 C1244 1.400 . S
C1243 C1248 1.490 . S
C1244 H1234 0.930 . S
C1244 C1243 1.400 . S
C1244 C1247 1.386 . S
H1245 C1261 0.930 . S
H1246 C1262 0.931 . S
C1247 H1235 0.929 . S
C1247 C1241 1.390 . S
C1247 C1244 1.386 . S
C1248 C1243 1.490 . S
C1248 C1250 1.395 . S
C1248 C1251 1.403 . S
H1249 C1255 0.930 . S
C1250 H1236 0.930 . S
C1250 C1248 1.395 . S
C1250 C1253 1.403 1_554 S
C1251 C1248 1.403 . S
C1251 C1252 1.524 . S
C1251 C1255 1.400 1_554 S
C1252 H1237 0.960 . S
C1252 H1238 0.960 . S
C1252 H1239 0.960 . S
C1252 C1251 1.524 . S
C1253 C1250 1.403 1_556 S
C1253 C1254 1.392 . S
C1253 C1257 1.495 . S
C1254 C1253 1.392 . S
C1254 C1255 1.385 . S
C1254 C1256 1.478 . S
C1255 H1249 0.930 . S
C1255 C1251 1.400 1_556 S
C1255 C1254 1.385 . S
C1256 C1254 1.478 . S
C1256 C1258 1.381 . S
C1256 C1262 1.383 . S
C1257 C1253 1.495 . S
C1257 H1263 0.959 . S
C1257 H1264 0.961 . S
C1257 H1265 0.960 . S
C1258 C1256 1.381 . S
C1258 C1259 1.394 . S
C1258 H1266 0.930 . S
C1259 C1258 1.394 . S
C1259 C1260 1.383 . S
C1259 H1267 0.929 . S
C1260 C1259 1.383 . S
C1260 C1261 1.377 . S
C1261 H1245 0.930 . S
C1261 C1260 1.377 . S
C1261 C1262 1.379 . S
C1262 H1246 0.931 . S
C1262 C1256 1.383 . S
C1262 C1261 1.379 . S
H1263 C1257 0.959 . S
H1264 C1257 0.961 . S
H1265 C1257 0.960 . S
H1266 C1258 0.930 . S
H1267 C1259 0.929 . S
H1268 C1276 0.929 . S
H1269 C1278 0.930 . S
H1270 C1280 0.936 . S
H1271 C1283 0.929 . S
H1272 C1286 0.930 . S
H1273 C1288 0.960 . S
H1274 C1288 0.960 . S
H1275 C1288 0.960 . S
C1276 H1268 0.929 . S
C1276 C1277 1.377 . S
C1276 C1278 1.384 . S
C1277 C1276 1.377 . S
C1277 C1283 1.390 . S
C1278 H1269 0.930 . S
C1278 C1276 1.384 . S
C1278 C1279 1.372 . S
C1279 C1278 1.372 . S
C1279 C1280 1.400 . S
C1279 C1284 1.490 . S
C1280 H1270 0.936 . S
C1280 C1279 1.400 . S
C1280 C1283 1.386 . S
H1281 C1297 0.930 . S
H1282 C1298 0.931 . S
C1283 H1271 0.929 . S
C1283 C1277 1.390 . S
C1283 C1280 1.386 . S
C1284 C1279 1.490 . S
C1284 C1286 1.395 . S
C1284 C1287 1.403 1_655 S
H1285 C1291 0.930 . S
C1286 H1272 0.930 . S
C1286 C1284 1.395 . S
C1286 C1289 1.403 1_554 S
C1287 C1284 1.403 1_455 S
C1287 C1288 1.524 . S
C1287 C1291 1.400 1_554 S
C1288 H1273 0.960 . S
C1288 H1274 0.960 . S
C1288 H1275 0.960 . S
C1288 C1287 1.524 . S
C1289 C1286 1.403 1_556 S
C1289 C1290 1.392 1_655 S
C1289 C1293 1.495 . S
C1290 C1289 1.392 1_455 S
C1290 C1291 1.385 . S
C1290 C1292 1.478 . S
C1291 H1285 0.930 . S
C1291 C1287 1.400 1_556 S
C1291 C1290 1.385 . S
C1292 C1290 1.478 . S
C1292 C1294 1.381 . S
C1292 C1298 1.383 . S
C1293 C1289 1.495 . S
C1293 H1299 0.959 . S
C1293 H1300 0.961 . S
C1293 H1301 0.960 . S
C1294 C1292 1.381 . S
C1294 C1295 1.394 . S
C1294 H1302 0.931 1_455 S
C1295 C1294 1.394 . S
C1295 C1296 1.383 . S
C1295 H1303 0.929 . S
C1296 C1295 1.383 . S
C1296 C1297 1.377 . S
C1297 H1281 0.930 . S
C1297 C1296 1.377 . S
C1297 C1298 1.379 . S
C1298 H1282 0.931 . S
C1298 C1292 1.383 . S
C1298 C1297 1.379 . S
H1299 C1293 0.959 . S
H1300 C1293 0.961 . S
H1301 C1293 0.960 . S
H1302 C1294 0.931 1_655 S
H1303 C1295 0.929 . S
H1304 C1312 0.929 . S
H1305 C1314 0.930 1_455 S
H1306 C1316 0.930 . S
H1307 C1319 0.929 . S
H1308 C1322 0.930 . S
H1309 C1324 0.960 . S
H1310 C1324 0.960 . S
H1311 C1324 0.960 . S
C1312 H1304 0.929 . S
C1312 C1313 1.377 . S
C1312 C1314 1.384 . S
C1313 C1312 1.377 . S
C1313 C1319 1.390 . S
C1314 H1305 0.930 1_655 S
C1314 C1312 1.384 . S
C1314 C1315 1.372 . S
C1315 C1314 1.372 . S
C1315 C1316 1.400 . S
C1315 C1320 1.490 . S
C1316 H1306 0.930 . S
C1316 C1315 1.400 . S
C1316 C1319 1.386 . S
H1317 C1333 0.930 . S
H1318 C1334 0.931 . S
C1319 H1307 0.929 . S
C1319 C1313 1.390 . S
C1319 C1316 1.386 . S
C1320 C1315 1.490 . S
C1320 C1322 1.395 1_655 S
C1320 C1323 1.403 . S
H1321 C1327 0.930 . S
C1322 H1308 0.930 . S
C1322 C1320 1.395 1_455 S
C1322 C1325 1.403 . S
C1323 C1320 1.403 . S
C1323 C1324 1.524 . S
C1323 C1327 1.400 . S
C1324 H1309 0.960 . S
C1324 H1310 0.960 . S
C1324 H1311 0.960 . S
C1324 C1323 1.524 . S
C1325 C1322 1.403 . S
C1325 C1326 1.392 . S
C1325 C1329 1.495 . S
C1326 C1325 1.392 . S
C1326 C1327 1.385 1_455 S
C1326 C1328 1.478 . S
C1327 H1321 0.930 . S
C1327 C1323 1.400 . S
C1327 C1326 1.385 1_655 S
C1328 C1326 1.478 . S
C1328 C1330 1.381 . S
C1328 C1334 1.383 . S
C1329 C1325 1.495 . S
C1329 H1335 0.959 . S
C1329 H1336 0.961 . S
C1329 H1337 0.960 . S
C1330 C1328 1.381 . S
C1330 C1331 1.394 . S
C1330 H1338 0.930 . S
C1331 C1330 1.394 . S
C1331 C1332 1.383 . S
C1331 H1339 0.929 . S
C1332 C1331 1.383 . S
C1332 C1333 1.377 . S
C1333 H1317 0.930 . S
C1333 C1332 1.377 . S
C1333 C1334 1.379 . S
C1334 H1318 0.931 . S
C1334 C1328 1.383 . S
C1334 C1333 1.379 . S
H1335 C1329 0.959 . S
H1336 C1329 0.961 . S
H1337 C1329 0.960 . S
H1338 C1330 0.930 . S
H1339 C1331 0.929 . S
H1340 C1348 0.929 . S
H1341 C1350 0.930 . S
H1342 C1352 0.930 . S
H1343 C1355 0.929 . S
H1344 C1358 0.930 . S
H1345 C1360 0.960 . S
H1346 C1360 0.960 . S
H1347 C1360 0.960 . S
C1348 H1340 0.929 . S
C1348 C1349 1.377 . S
C1348 C1350 1.384 . S
C1349 C1348 1.377 . S
C1349 C1355 1.390 . S
C1350 H1341 0.930 . S
C1350 C1348 1.384 . S
C1350 C1351 1.372 . S
C1351 C1350 1.372 . S
C1351 C1352 1.400 . S
C1351 C1356 1.490 . S
C1352 H1342 0.930 . S
C1352 C1351 1.400 . S
C1352 C1355 1.386 . S
H1353 C1369 0.930 . S
H1354 C1370 0.931 . S
C1355 H1343 0.929 . S
C1355 C1349 1.390 . S
C1355 C1352 1.386 . S
C1356 C1351 1.490 . S
C1356 C1358 1.395 . S
C1356 C1359 1.403 . S
H1357 C1363 0.930 . S
C1358 H1344 0.930 . S
C1358 C1356 1.395 . S
C1358 C1361 1.403 . S
C1359 C1356 1.403 . S
C1359 C1360 1.524 . S
C1359 C1363 1.400 . S
C1360 H1345 0.960 . S
C1360 H1346 0.960 . S
C1360 H1347 0.960 . S
C1360 C1359 1.524 . S
C1361 C1358 1.403 . S
C1361 C1362 1.392 . S
C1361 C1365 1.495 . S
C1362 C1361 1.392 . S
C1362 C1363 1.385 . S
C1362 C1364 1.478 . S
C1363 H1357 0.930 . S
C1363 C1359 1.400 . S
C1363 C1362 1.385 . S
C1364 C1362 1.478 . S
C1364 C1366 1.381 . S
C1364 C1370 1.383 . S
C1365 C1361 1.495 . S
C1365 H1371 0.959 . S
C1365 H1372 0.961 . S
C1365 H1373 0.960 . S
C1366 C1364 1.381 . S
C1366 C1367 1.394 . S
C1366 H1374 0.930 . S
C1367 C1366 1.394 . S
C1367 C1368 1.383 . S
C1367 H1375 0.929 . S
C1368 C1367 1.383 . S
C1368 C1369 1.377 . S
C1369 H1353 0.930 . S
C1369 C1368 1.377 . S
C1369 C1370 1.379 . S
C1370 H1354 0.931 . S
C1370 C1364 1.383 . S
C1370 C1369 1.379 . S
H1371 C1365 0.959 . S
H1372 C1365 0.961 . S
H1373 C1365 0.960 . S
H1374 C1366 0.930 . S
H1375 C1367 0.929 . S
C233 C22 1.500 . S
C252 C8 1.491 . S
C269 C36 1.502 . S
C288 C50 1.502 . S
C305 C64 1.501 . S
C324 C78 1.491 . S
C341 C106 1.501 . S
C360 C92 1.491 . S
C377 C134 1.500 . S
C396 C120 1.490 . S
C413 C162 1.500 . S
C432 C148 1.490 . S
C449 C190 1.502 . S
C468 C176 1.506 . S
C485 C218 1.500 . S
C504 C204 1.493 . S
C521 C45 1.366 . S
C540 C3 1.362 . S
C557 C17 1.364 . S
C576 C31 1.373 . S
C593 C101 1.366 . S
C612 C59 1.349 . S
C629 C87 1.362 . S
C648 C73 1.368 . S
C665 C115 1.362 . S
C684 C157 1.365 . S
C701 C143 1.361 . S
C720 C129 1.361 . S
C737 C213 1.364 . S
C756 C171 1.361 . S
C773 C185 1.364 . S
C792 C199 1.362 . S
C809 C9 1.486 . S
C828 C135 1.494 . S
C845 C23 1.485 . S
C864 C121 1.489 . S
C881 C163 1.482 . S
C900 C37 1.477 . S
C917 C149 1.485 . S
C936 C51 1.492 . S
C953 C191 1.483 . S
C972 C65 1.466 . S
C989 C177 1.481 . S
C1008 C79 1.475 . S
C1025 C93 1.480 . S
C1044 C219 1.494 . S
C1061 C107 1.483 . S
C1080 C205 1.467 . S
C1097 C63 1.294 . S
C1116 C7 1.308 . S
C1133 C77 1.290 . S
C1152 C21 1.301 . S
C1169 C91 1.295 . S
C1188 C35 1.292 . S
C1205 C105 1.295 . S
C1224 C49 1.302 . S
C1241 C119 1.290 . S
C1260 C175 1.270 . S
C1277 C133 1.289 . S
C1296 C189 1.270 . S
C1313 C203 1.291 . S
C1332 C147 1.305 . S
C1349 C217 1.296 . S
C1368 C161 1.300 . S
