# Generated by pormake.
# Topology thp-x, (12)-cn, num edge types: 1
# Building blocks:
#     Node 0, Type 0, BuildingBlock: QEWDON_clean_sbu_0, # of connection points: 12
#     Node 1, Type 0, BuildingBlock: QEWDON_clean_sbu_0, # of connection points: 12
#     Node 2, Type 0, BuildingBlock: QEWDON_clean_sbu_0, # of connection points: 12
#     Node 3, Type 0, BuildingBlock: QEWDON_clean_sbu_0, # of connection points: 12
#     Node 4, Type 0, BuildingBlock: QEWDON_clean_sbu_0, # of connection points: 12
#     Node 5, Type 0, BuildingBlock: QEWDON_clean_sbu_0, # of connection points: 12
#     Node 6, Type 0, BuildingBlock: QEWDON_clean_sbu_0, # of connection points: 12
#     Node 7, Type 0, BuildingBlock: QEWDON_clean_sbu_0, # of connection points: 12
#     Node 8, Type 0, BuildingBlock: QEWDON_clean_sbu_0, # of connection points: 12
#     Node 9, Type 0, BuildingBlock: QEWDON_clean_sbu_0, # of connection points: 12
#     Node 10, Type 0, BuildingBlock: QEWDON_clean_sbu_0, # of connection points: 12
#     Node 11, Type 0, BuildingBlock: QEWDON_clean_sbu_0, # of connection points: 12
#     Edge 12, Type (0, 0), BuildingBlock: KIFKEQ_clean_linker_1, # of connection points: 2
#     Edge 13, Type (0, 0), BuildingBlock: KIFKEQ_clean_linker_1, # of connection points: 2
#     Edge 14, Type (0, 0), BuildingBlock: KIFKEQ_clean_linker_1, # of connection points: 2
#     Edge 15, Type (0, 0), BuildingBlock: KIFKEQ_clean_linker_1, # of connection points: 2
#     Edge 16, Type (0, 0), BuildingBlock: KIFKEQ_clean_linker_1, # of connection points: 2
#     Edge 17, Type (0, 0), BuildingBlock: KIFKEQ_clean_linker_1, # of connection points: 2
#     Edge 18, Type (0, 0), BuildingBlock: KIFKEQ_clean_linker_1, # of connection points: 2
#     Edge 19, Type (0, 0), BuildingBlock: KIFKEQ_clean_linker_1, # of connection points: 2
#     Edge 20, Type (0, 0), BuildingBlock: KIFKEQ_clean_linker_1, # of connection points: 2
#     Edge 21, Type (0, 0), BuildingBlock: KIFKEQ_clean_linker_1, # of connection points: 2
#     Edge 22, Type (0, 0), BuildingBlock: KIFKEQ_clean_linker_1, # of connection points: 2
#     Edge 23, Type (0, 0), BuildingBlock: KIFKEQ_clean_linker_1, # of connection points: 2
#     Edge 24, Type (0, 0), BuildingBlock: KIFKEQ_clean_linker_1, # of connection points: 2
#     Edge 25, Type (0, 0), BuildingBlock: KIFKEQ_clean_linker_1, # of connection points: 2
#     Edge 26, Type (0, 0), BuildingBlock: KIFKEQ_clean_linker_1, # of connection points: 2
#     Edge 27, Type (0, 0), BuildingBlock: KIFKEQ_clean_linker_1, # of connection points: 2
#     Edge 28, Type (0, 0), BuildingBlock: KIFKEQ_clean_linker_1, # of connection points: 2
#     Edge 29, Type (0, 0), BuildingBlock: KIFKEQ_clean_linker_1, # of connection points: 2
#     Edge 30, Type (0, 0), BuildingBlock: KIFKEQ_clean_linker_1, # of connection points: 2
#     Edge 31, Type (0, 0), BuildingBlock: KIFKEQ_clean_linker_1, # of connection points: 2
#     Edge 32, Type (0, 0), BuildingBlock: KIFKEQ_clean_linker_1, # of connection points: 2
#     Edge 33, Type (0, 0), BuildingBlock: KIFKEQ_clean_linker_1, # of connection points: 2
#     Edge 34, Type (0, 0), BuildingBlock: KIFKEQ_clean_linker_1, # of connection points: 2
#     Edge 35, Type (0, 0), BuildingBlock: KIFKEQ_clean_linker_1, # of connection points: 2
#     Edge 36, Type (0, 0), BuildingBlock: KIFKEQ_clean_linker_1, # of connection points: 2
#     Edge 37, Type (0, 0), BuildingBlock: KIFKEQ_clean_linker_1, # of connection points: 2
#     Edge 38, Type (0, 0), BuildingBlock: KIFKEQ_clean_linker_1, # of connection points: 2
#     Edge 39, Type (0, 0), BuildingBlock: KIFKEQ_clean_linker_1, # of connection points: 2
#     Edge 40, Type (0, 0), BuildingBlock: KIFKEQ_clean_linker_1, # of connection points: 2
#     Edge 41, Type (0, 0), BuildingBlock: KIFKEQ_clean_linker_1, # of connection points: 2
#     Edge 42, Type (0, 0), BuildingBlock: KIFKEQ_clean_linker_1, # of connection points: 2
#     Edge 43, Type (0, 0), BuildingBlock: KIFKEQ_clean_linker_1, # of connection points: 2
#     Edge 44, Type (0, 0), BuildingBlock: KIFKEQ_clean_linker_1, # of connection points: 2
#     Edge 45, Type (0, 0), BuildingBlock: KIFKEQ_clean_linker_1, # of connection points: 2
#     Edge 46, Type (0, 0), BuildingBlock: KIFKEQ_clean_linker_1, # of connection points: 2
#     Edge 47, Type (0, 0), BuildingBlock: KIFKEQ_clean_linker_1, # of connection points: 2
#     Edge 48, Type (0, 0), BuildingBlock: KIFKEQ_clean_linker_1, # of connection points: 2
#     Edge 49, Type (0, 0), BuildingBlock: KIFKEQ_clean_linker_1, # of connection points: 2
#     Edge 50, Type (0, 0), BuildingBlock: KIFKEQ_clean_linker_1, # of connection points: 2
#     Edge 51, Type (0, 0), BuildingBlock: KIFKEQ_clean_linker_1, # of connection points: 2
#     Edge 52, Type (0, 0), BuildingBlock: KIFKEQ_clean_linker_1, # of connection points: 2
#     Edge 53, Type (0, 0), BuildingBlock: KIFKEQ_clean_linker_1, # of connection points: 2
#     Edge 54, Type (0, 0), BuildingBlock: KIFKEQ_clean_linker_1, # of connection points: 2
#     Edge 55, Type (0, 0), BuildingBlock: KIFKEQ_clean_linker_1, # of connection points: 2
#     Edge 56, Type (0, 0), BuildingBlock: KIFKEQ_clean_linker_1, # of connection points: 2
#     Edge 57, Type (0, 0), BuildingBlock: KIFKEQ_clean_linker_1, # of connection points: 2
#     Edge 58, Type (0, 0), BuildingBlock: KIFKEQ_clean_linker_1, # of connection points: 2
#     Edge 59, Type (0, 0), BuildingBlock: KIFKEQ_clean_linker_1, # of connection points: 2
#     Edge 60, Type (0, 0), BuildingBlock: KIFKEQ_clean_linker_1, # of connection points: 2
#     Edge 61, Type (0, 0), BuildingBlock: KIFKEQ_clean_linker_1, # of connection points: 2
#     Edge 62, Type (0, 0), BuildingBlock: KIFKEQ_clean_linker_1, # of connection points: 2
#     Edge 63, Type (0, 0), BuildingBlock: KIFKEQ_clean_linker_1, # of connection points: 2
#     Edge 64, Type (0, 0), BuildingBlock: KIFKEQ_clean_linker_1, # of connection points: 2
#     Edge 65, Type (0, 0), BuildingBlock: KIFKEQ_clean_linker_1, # of connection points: 2
#     Edge 66, Type (0, 0), BuildingBlock: KIFKEQ_clean_linker_1, # of connection points: 2
#     Edge 67, Type (0, 0), BuildingBlock: KIFKEQ_clean_linker_1, # of connection points: 2
#     Edge 68, Type (0, 0), BuildingBlock: KIFKEQ_clean_linker_1, # of connection points: 2
#     Edge 69, Type (0, 0), BuildingBlock: KIFKEQ_clean_linker_1, # of connection points: 2
#     Edge 70, Type (0, 0), BuildingBlock: KIFKEQ_clean_linker_1, # of connection points: 2
#     Edge 71, Type (0, 0), BuildingBlock: KIFKEQ_clean_linker_1, # of connection points: 2
#     Edge 72, Type (0, 0), BuildingBlock: KIFKEQ_clean_linker_1, # of connection points: 2
#     Edge 73, Type (0, 0), BuildingBlock: KIFKEQ_clean_linker_1, # of connection points: 2
#     Edge 74, Type (0, 0), BuildingBlock: KIFKEQ_clean_linker_1, # of connection points: 2
#     Edge 75, Type (0, 0), BuildingBlock: KIFKEQ_clean_linker_1, # of connection points: 2
#     Edge 76, Type (0, 0), BuildingBlock: KIFKEQ_clean_linker_1, # of connection points: 2
#     Edge 77, Type (0, 0), BuildingBlock: KIFKEQ_clean_linker_1, # of connection points: 2
#     Edge 78, Type (0, 0), BuildingBlock: KIFKEQ_clean_linker_1, # of connection points: 2
#     Edge 79, Type (0, 0), BuildingBlock: KIFKEQ_clean_linker_1, # of connection points: 2
#     Edge 80, Type (0, 0), BuildingBlock: KIFKEQ_clean_linker_1, # of connection points: 2
#     Edge 81, Type (0, 0), BuildingBlock: KIFKEQ_clean_linker_1, # of connection points: 2
#     Edge 82, Type (0, 0), BuildingBlock: KIFKEQ_clean_linker_1, # of connection points: 2
#     Edge 83, Type (0, 0), BuildingBlock: KIFKEQ_clean_linker_1, # of connection points: 2
# Relax obj value: 0.238
# Max RMSD: 0.296
# Mean RMSD: 0.294
data_MOF--net-thp-x--node1-QEWDON_clean_sbu_0--edge1-KIFKEQ_clean_linker_1
_symmetry_space_group_name_H-M    P1
_symmetry_Int_Tables_number       1
_symmetry_cell_setting            triclinic
loop_
_symmetry_equiv_pos_as_xyz
'x, y, z'
_cell_length_a     37.791443
_cell_length_b     37.682321
_cell_length_c     37.719135
_cell_angle_alpha  90.052301
_cell_angle_beta   89.943572
_cell_angle_gamma 90.044091
loop_
_atom_site_label
_atom_site_type_symbol
_atom_site_fract_x
_atom_site_fract_y
_atom_site_fract_z
_atom_type_partial_charge
Zn0 Zn 0.9244 0.33203 0.2996 0.0
Zn1 Zn 0.00755 0.33253 0.31339 0.0
O2 O 0.9683 0.30194 0.29915 0.0
H3 H 0.97106 0.28547 0.27969 0.0
C4 C 0.92256 0.31963 0.3959 0.0
O5 O 0.94355 0.34319 0.41059 0.0
Zn6 Zn 0.04359 0.20814 0.45038 0.0
Zn7 Zn 0.95824 0.19442 0.47879 0.0
O8 O -0.00066 0.23206 0.47227 0.0
H9 H 0.97911 0.21679 0.47586 0.0
Zn10 Zn 0.96854 0.27742 0.43619 0.0
O11 O 0.01682 0.26752 0.41547 0.0
Zn12 Zn 0.04892 0.29845 0.44269 0.0
H13 H 0.01885 0.26538 0.39013 0.0
Zn14 Zn 0.95837 0.20753 0.29325 0.0
O15 O 0.99194 0.23946 0.32095 0.0
H16 H 0.98604 0.25168 0.34264 0.0
Zn17 Zn 0.03915 0.2256 0.30456 0.0
C18 C 0.9286 0.18497 0.36087 0.0
O19 O 0.92833 0.21885 0.36885 0.0
O20 O 0.93501 0.38593 0.29499 0.0
O21 O 0.99313 0.38451 0.30495 0.0
O22 O 0.9827 0.1439 0.48142 0.0
O23 O 0.03698 0.15707 0.46153 0.0
O24 O 0.96915 0.30737 0.48137 0.0
O25 O 0.02696 0.31551 0.48946 0.0
C26 C 0.06752 0.29671 0.26847 0.0
O27 O 0.98183 0.17249 0.2581 0.0
O28 O 0.03715 0.17943 0.27637 0.0
O29 O 0.89978 0.20187 0.48383 0.0
C30 C 0.96473 0.40176 0.29827 0.0
O31 O 0.88634 0.30592 0.2702 0.0
C32 C 0.11246 0.25092 0.46543 0.0
O33 O 0.92753 0.28704 0.40239 0.0
C34 C 0.01419 0.13469 0.47261 0.0
O35 O 0.93635 0.17496 0.32977 0.0
C36 C 0.03907 0.34804 0.38164 0.0
O37 O 0.04824 0.32124 0.2815 0.0
O38 O 0.06362 0.26397 0.27618 0.0
C39 C 0.99493 0.31901 0.49962 0.0
O40 O 0.09323 0.22314 0.46933 0.0
O41 O 0.09919 0.27957 0.45301 0.0
C42 C 0.07409 0.20712 0.37658 0.0
O43 O 0.05147 0.34216 0.41253 0.0
O44 O 0.02424 0.32371 0.36369 0.0
C45 C 0.0139 0.16219 0.25894 0.0
O46 O 0.07207 0.2128 0.3435 0.0
O47 O 0.04692 0.21026 0.39636 0.0
C48 C 0.88145 0.22923 0.49257 0.0
O49 O 0.89837 0.2588 0.49997 0.0
C50 C 0.88563 0.27303 0.27766 0.0
O51 O 0.90559 0.26101 0.30343 0.0
Zn52 Zn 0.42466 0.8261 0.8088 0.0
Zn53 Zn 0.50861 0.8299 0.80841 0.0
O54 O 0.46908 0.79731 0.81764 0.0
H55 H 0.47031 0.77839 0.83484 0.0
C56 C 0.40329 0.79495 0.89436 0.0
O57 O 0.4007 0.76258 0.90673 0.0
Zn58 Zn 0.55017 0.71368 0.94339 0.0
Zn59 Zn 0.46014 0.71023 0.96223 0.0
O60 O 0.50644 0.74205 0.96154 0.0
H61 H 0.48419 0.72945 0.96234 0.0
Zn62 Zn 0.46856 0.78802 0.93159 0.0
O63 O 0.52276 0.78354 0.91104 0.0
Zn64 Zn 0.57081 0.80687 0.92463 0.0
H65 H 0.5233 0.77049 0.88902 0.0
Zn66 Zn 0.46162 0.69754 0.80351 0.0
O67 O 0.49934 0.71489 0.83764 0.0
H68 H 0.49767 0.71865 0.86289 0.0
Zn69 Zn 0.54116 0.7163 0.80731 0.0
C70 C 0.42702 0.67354 0.86542 0.0
O71 O 0.43293 0.70634 0.87531 0.0
O72 O 0.43262 0.88031 0.80158 0.0
O73 O 0.4915 0.88005 0.80146 0.0
O74 O 0.47933 0.65948 0.96918 0.0
O75 O 0.53727 0.6634 0.95653 0.0
O76 O 0.51389 0.81213 0.9446 0.0
O77 O 0.55906 0.83885 0.96633 0.0
C78 C 0.54951 0.78661 0.7643 0.0
O79 O 0.48262 0.66596 0.76447 0.0
O80 O 0.54008 0.67373 0.77386 0.0
O81 O 0.40209 0.72015 0.96647 0.0
C82 C 0.46216 0.89654 0.79912 0.0
O83 O 0.3898 0.79864 0.77707 0.0
C84 C 0.62182 0.74941 0.95805 0.0
O85 O 0.43062 0.81313 0.9016 0.0
C86 C 0.51 0.64554 0.96594 0.0
O87 O 0.43093 0.66507 0.83317 0.0
C88 C 0.56486 0.8457 0.85871 0.0
O89 O 0.53714 0.81778 0.76543 0.0
O90 O 0.53741 0.76418 0.78608 0.0
C91 C 0.52631 0.8325 0.96835 0.0
O92 O 0.59929 0.72503 0.96537 0.0
O93 O 0.61274 0.77731 0.94117 0.0
C94 C 0.58656 0.70963 0.87043 0.0
O95 O 0.58412 0.84002 0.88578 0.0
O96 O 0.54213 0.82292 0.84925 0.0
C97 C 0.51466 0.65698 0.75912 0.0
O98 O 0.58417 0.71161 0.83689 0.0
O99 O 0.55907 0.71485 0.88968 0.0
C100 C 0.384 0.73766 0.98942 0.0
O101 O 0.4012 0.75466 0.01449 0.0
C102 C 0.39152 0.76508 0.78008 0.0
O103 O 0.41235 0.75129 0.80424 0.0
Zn104 Zn 0.02101 0.77542 0.06884 0.0
Zn105 Zn 0.94137 0.79736 0.05918 0.0
O106 O 0.97261 0.76961 0.09129 0.0
H107 H 0.96971 0.76853 0.11672 0.0
C108 C 0.11089 0.73482 0.01202 0.0
O109 O 0.09588 0.76285 0.02629 0.0
Zn110 Zn 0.9654 0.7212 0.19506 0.0
Zn111 Zn 0.04563 0.70081 0.20312 0.0
O112 O 0.00983 0.71995 0.16797 0.0
H113 H 0.01156 0.71918 0.14243 0.0
Zn114 Zn 0.03468 0.69652 0.02003 0.0
O115 O 0.99283 0.73223 0.03156 0.0
Zn116 Zn 0.95031 0.70649 0.05405 0.0
H117 H 0.01303 0.71772 0.02555 0.0
Zn118 Zn 0.06422 0.82552 0.21265 0.0
O119 O 0.02919 0.80361 0.179 0.0
H120 H 0.03243 0.78299 0.1642 0.0
Zn121 Zn 0.99168 0.8395 0.17564 0.0
C122 C 0.09965 0.76166 0.23156 0.0
O123 O 0.10138 0.76199 0.19682 0.0
O124 O 0.02181 0.80018 0.02072 0.0
O125 O 0.96474 0.81236 0.01327 0.0
O126 O 0.02197 0.66729 0.23891 0.0
O127 O 0.96524 0.68185 0.23306 0.0
O128 O 0.01111 0.64536 0.01561 0.0
O129 O 0.95831 0.65635 0.04024 0.0
C130 C 0.94747 0.85396 0.11154 0.0
O131 O 0.05849 0.88076 0.2197 0.0
O132 O 0.0105 0.88836 0.18598 0.0
O133 O 0.08472 0.67496 0.17612 0.0
C134 C 0.9966 0.81267 0.00238 0.0
O135 O 0.06432 0.78436 0.09929 0.0
C136 C 0.92198 0.70411 0.12983 0.0
O137 O 0.09164 0.70712 0.00682 0.0
C138 C 0.9895 0.6623 0.24642 0.0
O139 O 0.08607 0.78826 0.2474 0.0
C140 C 0.88064 0.74654 0.03732 0.0
O141 O 0.93302 0.84335 0.08307 0.0
O142 O 0.96846 0.83382 0.12825 0.0
C143 C 0.9804 0.63507 0.02604 0.0
O144 O 0.92618 0.7083 0.16298 0.0
O145 O 0.94795 0.70788 0.10844 0.0
C146 C 0.94372 0.80047 0.22167 0.0
O147 O 0.90032 0.71902 0.03527 0.0
O148 O 0.89313 0.77609 0.0481 0.0
C149 C 0.03541 0.90092 0.20515 0.0
O150 O 0.95492 0.83078 0.21232 0.0
O151 O 0.95741 0.77293 0.20775 0.0
C152 C 0.09422 0.68702 0.14623 0.0
O153 O 0.08212 0.71795 0.13583 0.0
C154 C 0.06962 0.81645 0.10779 0.0
O155 O 0.04646 0.84065 0.09834 0.0
Zn156 Zn 0.30623 0.97599 0.1787 0.0
Zn157 Zn 0.3038 0.05998 0.19907 0.0
O158 O 0.32528 0.01352 0.21239 0.0
H159 H 0.34641 0.00968 0.22611 0.0
C160 C 0.27614 0.90346 0.24428 0.0
O161 O 0.30086 0.92438 0.23152 0.0
Zn162 Zn 0.43937 0.05741 0.28471 0.0
Zn163 Zn 0.40488 0.98612 0.26999 0.0
O164 O 0.40243 0.03815 0.25273 0.0
H165 H 0.38126 0.052 0.24919 0.0
Zn166 Zn 0.2949 0.94397 0.30361 0.0
O167 O 0.3023 0.98702 0.27366 0.0
Zn168 Zn 0.31332 0.02545 0.30691 0.0
H169 H 0.28435 0.99062 0.25579 0.0
Zn170 Zn 0.50744 0.97002 0.21116 0.0
O171 O 0.46245 0.00846 0.21696 0.0
H172 H 0.44253 0.9954 0.2264 0.0
Zn173 Zn 0.44722 0.05864 0.19393 0.0
C174 C 0.48813 0.88733 0.21487 0.0
O175 O 0.45711 0.89705 0.22714 0.0
O176 O 0.27671 0.99783 0.13875 0.0
O177 O 0.27803 0.05554 0.15109 0.0
O178 O 0.45306 0.9713 0.2874 0.0
O179 O 0.48065 0.02288 0.29496 0.0
O180 O 0.28282 0.95506 0.35519 0.0
O181 O 0.2979 0.01232 0.35568 0.0
C182 C 0.37663 0.09222 0.18368 0.0
O183 O 0.48135 0.00754 0.18039 0.0
O184 O 0.46783 0.05154 0.14591 0.0
O185 O 0.36685 0.95401 0.29347 0.0
C186 C 0.26949 0.02981 0.13068 0.0
O187 O 0.34151 0.93967 0.15693 0.0
C188 C 0.38288 0.04868 0.3355 0.0
O189 O 0.2686 0.90484 0.27704 0.0
C190 C 0.48032 0.9889 0.29606 0.0
O191 O 0.5101 0.9116 0.20567 0.0
C192 C 0.26819 0.08683 0.27099 0.0
O193 O 0.34314 0.09344 0.18717 0.0
O194 O 0.39358 0.06344 0.18876 0.0
C195 C 0.28664 0.98456 0.37108 0.0
O196 O 0.41471 0.05867 0.33103 0.0
O197 O 0.36388 0.04054 0.30896 0.0
C198 C 0.46478 0.12458 0.24402 0.0
O199 O 0.28354 0.06566 0.29205 0.0
O200 O 0.27198 0.08523 0.2372 0.0
C201 C 0.48633 0.0239 0.15121 0.0
O202 O 0.46605 0.10799 0.21422 0.0
O203 O 0.45427 0.10856 0.27201 0.0
C204 C 0.36925 0.92163 0.2841 0.0
O205 O 0.39125 0.91307 0.25855 0.0
C206 C 0.37494 0.94119 0.16026 0.0
O207 O 0.38883 0.96509 0.18147 0.0
Zn208 Zn 0.19573 0.29931 0.05368 0.0
Zn209 Zn 0.18535 0.32566 0.97683 0.0
O210 O 0.20782 0.33968 0.02162 0.0
H211 H 0.22964 0.35273 0.02298 0.0
C212 C 0.21794 0.39375 0.07828 0.0
O213 O 0.25199 0.40042 0.07827 0.0
Zn214 Zn 0.29277 0.4524 0.94108 0.0
Zn215 Zn 0.2867 0.47438 0.02978 0.0
O216 O 0.26029 0.47273 0.98035 0.0
H217 H 0.27041 0.4743 0.0038 0.0
Zn218 Zn 0.21897 0.43397 0.01241 0.0
O219 O 0.23145 0.41422 0.96347 0.0
Zn220 Zn 0.20207 0.44495 0.93124 0.0
H221 H 0.23753 0.38963 0.95981 0.0
Zn222 Zn 0.31418 0.30067 0.02893 0.0
O223 O 0.28366 0.32394 0.99124 0.0
H224 H 0.27799 0.34885 0.99226 0.0
Zn225 Zn 0.29963 0.30444 0.94544 0.0
C226 C 0.33968 0.36783 0.05937 0.0
O227 O 0.32079 0.38146 0.03356 0.0
O228 O 0.14457 0.28353 0.04389 0.0
O229 O 0.13965 0.29992 0.98715 0.0
O230 O 0.33807 0.48469 0.01444 0.0
O231 O 0.34087 0.46981 0.95689 0.0
O232 O 0.19405 0.48116 0.01206 0.0
O233 O 0.1833 0.49011 0.95482 0.0
C234 C 0.23123 0.27351 0.93284 0.0
O235 O 0.35278 0.26865 0.00813 0.0
O236 O 0.34853 0.2818 0.95084 0.0
O237 O 0.26869 0.49123 0.08333 0.0
C238 C 0.1267 0.28624 0.0153 0.0
O239 O 0.23656 0.26568 0.06938 0.0
C240 C 0.25303 0.46941 0.87048 0.0
O241 O 0.19908 0.40412 0.05254 0.0
C242 C 0.3553 0.48111 0.98552 0.0
O243 O 0.33928 0.3345 0.06417 0.0
C244 C 0.15441 0.3848 0.93099 0.0
O245 O 0.22406 0.29982 0.95239 0.0
O246 O 0.2637 0.26826 0.92554 0.0
C247 C 0.18162 0.49984 0.98712 0.0
O248 O 0.28151 0.47008 0.88904 0.0
O249 O 0.22387 0.4594 0.88422 0.0
C250 C 0.30436 0.37956 0.91126 0.0
O251 O 0.15948 0.41605 0.91937 0.0
O252 O 0.17762 0.37062 0.95046 0.0
C253 C 0.3651 0.26765 0.97673 0.0
O254 O 0.30543 0.34567 0.91168 0.0
O255 O 0.29674 0.39756 0.93897 0.0
C256 C 0.27819 0.47453 0.11147 0.0
O257 O 0.29833 0.44645 0.10785 0.0
C258 C 0.26367 0.27929 0.08412 0.0
O259 O 0.26444 0.31368 0.08973 0.0
Zn260 Zn 0.59116 0.47366 0.23038 0.0
Zn261 Zn 0.58908 0.55454 0.20334 0.0
O262 O 0.60738 0.52391 0.24212 0.0
H263 H 0.63218 0.52662 0.24723 0.0
C264 C 0.50119 0.39591 0.2592 0.0
O265 O 0.48149 0.41495 0.23776 0.0
Zn266 Zn 0.69708 0.55861 0.2943 0.0
Zn267 Zn 0.704 0.47935 0.31496 0.0
O268 O 0.66862 0.51542 0.29907 0.0
H269 H 0.64514 0.51576 0.30917 0.0
Zn270 Zn 0.52558 0.47146 0.29152 0.0
O271 O 0.5431 0.5123 0.25688 0.0
Zn272 Zn 0.55857 0.5586 0.28263 0.0
H273 H 0.53489 0.4928 0.27133 0.0
Zn274 Zn 0.69244 0.43923 0.18549 0.0
O275 O 0.6855 0.48818 0.20771 0.0
H276 H 0.68394 0.49435 0.23248 0.0
Zn277 Zn 0.70727 0.51663 0.16937 0.0
C278 C 0.72286 0.40997 0.24713 0.0
O279 O 0.70316 0.43575 0.25951 0.0
O280 O 0.55131 0.47364 0.19455 0.0
O281 O 0.54813 0.52992 0.17672 0.0
O282 O 0.7363 0.50304 0.35174 0.0
O283 O 0.73064 0.56024 0.33771 0.0
O284 O 0.51825 0.49625 0.34189 0.0
O285 O 0.53935 0.55103 0.33128 0.0
C286 C 0.64003 0.5431 0.14373 0.0
O287 O 0.70486 0.44167 0.13258 0.0
O288 O 0.7402 0.48788 0.13933 0.0
O289 O 0.67681 0.43554 0.33296 0.0
C290 C 0.53748 0.49776 0.17561 0.0
O291 O 0.62588 0.43447 0.21548 0.0
C292 C 0.62906 0.5987 0.29791 0.0
O293 O 0.52072 0.41247 0.28176 0.0
C294 C 0.74269 0.5357 0.3579 0.0
O295 O 0.72241 0.40371 0.21415 0.0
C296 C 0.55297 0.62238 0.23575 0.0
O297 O 0.63457 0.55073 0.17597 0.0
O298 O 0.67016 0.53156 0.13461 0.0
C299 C 0.52565 0.528 0.35202 0.0
O300 O 0.66272 0.59817 0.2997 0.0
O301 O 0.61179 0.57047 0.29013 0.0
C302 C 0.73449 0.57219 0.21821 0.0
O303 O 0.53919 0.60459 0.26117 0.0
O304 O 0.57508 0.60756 0.21449 0.0
C305 C 0.72875 0.46222 0.12064 0.0
O306 O 0.73357 0.5583 0.18755 0.0
O307 O 0.71642 0.55857 0.24337 0.0
C308 C 0.64619 0.43017 0.3201 0.0
O309 O 0.63531 0.44974 0.29349 0.0
C310 C 0.62041 0.4021 0.22324 0.0
O311 O 0.59497 0.39379 0.24548 0.0
Zn312 Zn 0.6955 -0.00085 0.03523 0.0
Zn313 Zn 0.69708 0.05932 0.94446 0.0
O314 O 0.71498 0.03493 0.99203 0.0
H315 H 0.74041 0.03622 0.99247 0.0
C316 C 0.68422 0.13397 0.05327 0.0
O317 O 0.69526 0.13495 0.02033 0.0
Zn318 Zn 0.82001 0.19652 0.96367 0.0
Zn319 Zn 0.81254 0.19314 0.04536 0.0
O320 O 0.80714 0.16206 0.00244 0.0
H321 H 0.81239 0.13699 0.00294 0.0
Zn322 Zn 0.68745 0.20586 0.03677 0.0
O323 O 0.7212 0.19582 0.99614 0.0
Zn324 Zn 0.69573 0.20648 0.9514 0.0
H325 H 0.74421 0.18518 -0.00113 0.0
Zn326 Zn 0.75368 0.09295 0.02698 0.0
O327 O 0.75129 0.10466 0.97502 0.0
H328 H 0.7485 0.12957 0.96977 0.0
Zn329 Zn 0.78955 0.08053 0.94903 0.0
C330 C 0.77583 0.11493 0.09527 0.0
O331 O 0.76181 0.08369 0.10168 0.0
O332 O 0.67153 0.02449 0.99183 0.0
O333 O 0.64796 0.04563 0.94376 0.0
O334 O 0.85481 0.22547 0.04143 0.0
O335 O 0.85361 0.23443 0.98324 0.0
O336 O 0.63959 0.22629 0.01942 0.0
O337 O 0.64711 0.22702 0.96094 0.0
C338 C 0.75008 0.04409 0.88307 0.0
O339 O 0.78671 0.05267 0.03434 0.0
O340 O 0.81742 0.04762 0.98416 0.0
O341 O 0.77189 0.20823 0.07835 0.0
C342 C 0.64476 0.02654 0.97109 0.0
O343 O 0.69934 0.01 0.09296 0.0
C344 C 0.7591 0.23629 0.9232 0.0
O345 O 0.68068 0.16299 0.06996 0.0
C346 C 0.86694 0.24044 0.01379 0.0
O347 O 0.77344 0.12802 0.06427 0.0
C348 C 0.68522 0.13168 0.91748 0.0
O349 O 0.71959 0.04145 0.89762 0.0
O350 O 0.77613 0.058 0.89991 0.0
C351 C 0.62795 0.23239 0.98829 0.0
O352 O 0.77267 0.21395 0.9445 0.0
O353 O 0.72557 0.23906 0.92224 0.0
C354 C 0.84551 0.13642 0.92802 0.0
O355 O 0.68582 0.16528 0.91955 0.0
O356 O 0.69386 0.11266 0.94382 0.0
C357 C 0.81196 0.0393 0.01671 0.0
O358 O 0.81543 0.12537 0.93775 0.0
O359 O 0.85097 0.16959 0.92933 0.0
C360 C 0.75349 0.23423 0.06785 0.0
O361 O 0.76006 0.24809 0.03657 0.0
C362 C 0.72554 0.99732 0.1106 0.0
O363 O 0.75013 0.98022 0.09285 0.0
Zn364 Zn 0.20044 0.5254 0.52607 0.0
Zn365 Zn 0.20886 0.55746 0.43969 0.0
O366 O 0.23464 0.54425 0.48579 0.0
H367 H 0.22044 0.53548 0.50521 0.0
C368 C 0.17813 0.63533 0.57002 0.0
O369 O 0.208 0.63254 0.55266 0.0
Zn370 Zn 0.31735 0.69316 0.47822 0.0
Zn371 Zn 0.3086 0.69621 0.56207 0.0
O372 O 0.28149 0.6902 0.51588 0.0
H373 H 0.25952 0.67744 0.51321 0.0
Zn374 Zn 0.17731 0.69682 0.52702 0.0
O375 O 0.19753 0.66531 0.48888 0.0
Zn376 Zn 0.19829 0.69485 0.4464 0.0
H377 H 0.19369 0.64 0.48867 0.0
Zn378 Zn 0.27356 0.59315 0.51608 0.0
O379 O 0.26343 0.60615 0.46455 0.0
H380 H 0.25768 0.63013 0.45762 0.0
Zn381 Zn 0.29435 0.5716 0.4375 0.0
C382 C 0.28196 0.62149 0.58623 0.0
O383 O 0.25642 0.5986 0.59177 0.0
O384 O 0.15122 0.51605 0.50162 0.0
O385 O 0.16026 0.54045 0.44828 0.0
O386 O 0.36241 0.70317 0.55642 0.0
O387 O 0.36447 0.7052 0.49747 0.0
O388 O 0.13909 0.72842 0.50423 0.0
O389 O 0.15457 0.72769 0.44715 0.0
C390 C 0.25269 0.54345 0.37284 0.0
O391 O 0.29576 0.54504 0.52112 0.0
O392 O 0.30691 0.52647 0.46621 0.0
O393 O 0.28203 0.72546 0.59968 0.0
C394 C 0.14014 0.52573 0.47103 0.0
O395 O 0.20874 0.51803 0.5843 0.0
C396 C 0.27241 0.73351 0.43146 0.0
O397 O 0.15999 0.66347 0.56658 0.0
C398 C 0.37939 0.70732 0.52756 0.0
O399 O 0.29345 0.62632 0.55491 0.0
C400 C 0.19437 0.62852 0.40399 0.0
O401 O 0.22566 0.53592 0.39185 0.0
O402 O 0.27905 0.5598 0.38635 0.0
C403 C 0.13344 0.73711 0.47203 0.0
O404 O 0.30388 0.72975 0.44255 0.0
O405 O 0.24816 0.71436 0.44487 0.0
C406 C 0.34641 0.62674 0.44585 0.0
O407 O 0.19216 0.66218 0.40562 0.0
O408 O 0.20283 0.61058 0.43134 0.0
C409 C 0.30685 0.5216 0.49976 0.0
O410 O 0.34105 0.59552 0.43439 0.0
O411 O 0.32031 0.64582 0.4549 0.0
C412 C 0.2487 0.72172 0.59815 0.0
O413 O 0.2354 0.699 0.57543 0.0
C414 C 0.23749 0.52004 0.60234 0.0
O415 O 0.26684 0.52783 0.58557 0.0
Zn416 Zn 0.79069 0.47044 0.67753 0.0
Zn417 Zn 0.79026 0.55049 0.6961 0.0
O418 O 0.77837 0.50397 0.71743 0.0
H419 H 0.75942 0.50055 0.73432 0.0
C420 C 0.77591 0.4009 0.74137 0.0
O421 O 0.77662 0.43437 0.73236 0.0
Zn422 Zn 0.93568 0.56428 0.79577 0.0
Zn423 Zn 0.91867 0.4871 0.77087 0.0
O424 O 0.90411 0.53835 0.76181 0.0
H425 H 0.88062 0.54538 0.75487 0.0
Zn426 Zn 0.81093 0.43572 0.79766 0.0
O427 O 0.82737 0.48053 0.77255 0.0
Zn428 Zn 0.81575 0.5223 0.8032 0.0
H429 H 0.83803 0.48195 0.7493 0.0
Zn430 Zn 0.99706 0.4688 0.7239 0.0
O431 O 0.95362 0.50821 0.72099 0.0
H432 H 0.93083 0.49651 0.71759 0.0
Zn433 Zn 0.94866 0.56109 0.70282 0.0
C434 C 0.99508 0.3931 0.74765 0.0
O435 O 0.00034 0.4102 0.77754 0.0
O436 O 0.78019 0.49263 0.62939 0.0
O437 O 0.77567 0.55001 0.64257 0.0
O438 O 0.96597 0.48026 0.79269 0.0
O439 O 0.9768 0.5338 0.81476 0.0
O440 O 0.79013 0.44795 0.84572 0.0
O441 O 0.7898 0.50718 0.84768 0.0
C442 C 0.86468 0.58248 0.69566 0.0
O443 O 0.98156 0.50897 0.68922 0.0
O444 O 0.96951 0.55334 0.65477 0.0
O445 O 0.88773 0.44395 0.77992 0.0
C446 C 0.77462 0.52459 0.61997 0.0
O447 O 0.83531 0.43818 0.67886 0.0
C448 C 0.87632 0.55923 0.84321 0.0
O449 O 0.78963 0.39215 0.77068 0.0
C450 C 0.98487 0.50115 0.81078 0.0
O451 O 0.99094 0.41147 0.71939 0.0
C452 C 0.76876 0.57986 0.7618 0.0
O453 O 0.84448 0.55544 0.69824 0.0
O454 O 0.89808 0.57861 0.69789 0.0
C455 C 0.78291 0.47697 0.86146 0.0
O456 O 0.9073 0.57183 0.8398 0.0
O457 O 0.86095 0.54658 0.81615 0.0
C458 C 0.96951 0.62478 0.75152 0.0
O459 O 0.79002 0.55517 0.77005 0.0
O460 O 0.76396 0.58589 0.72885 0.0
C461 C 0.98631 0.52452 0.65964 0.0
O462 O 0.97529 0.60536 0.72413 0.0
O463 O 0.95263 0.61257 0.7782 0.0
C464 C 0.88906 0.4357 0.81245 0.0
O465 O 0.90659 0.45618 0.83446 0.0
C466 C 0.86505 0.45354 0.67557 0.0
O467 O 0.86589 0.48836 0.67558 0.0
Zn468 Zn 0.69319 0.81453 0.56508 0.0
Zn469 Zn 0.68696 0.82463 0.48131 0.0
O470 O 0.71587 0.83813 0.52319 0.0
H471 H 0.73955 0.8478 0.52254 0.0
C472 C 0.7081 0.88944 0.59365 0.0
O473 O 0.73858 0.90423 0.60153 0.0
Zn474 Zn 0.79109 0.95545 0.44915 0.0
Zn475 Zn 0.7892 0.97237 0.53969 0.0
O476 O 0.75987 0.9671 0.49223 0.0
H477 H 0.77171 0.96948 0.5148 0.0
Zn478 Zn 0.71801 0.92737 0.52593 0.0
O479 O 0.72964 0.91066 0.47488 0.0
Zn480 Zn 0.70083 0.94505 0.44587 0.0
H481 H 0.73771 0.88737 0.46799 0.0
Zn482 Zn 0.82293 0.79257 0.53823 0.0
O483 O 0.77825 0.78201 0.51061 0.0
H484 H 0.75871 0.76686 0.5173 0.0
Zn485 Zn 0.79679 0.79275 0.46219 0.0
C486 C 0.84206 0.86811 0.54747 0.0
O487 O 0.84899 0.86613 0.51339 0.0
O488 O 0.64623 0.7914 0.55441 0.0
O489 O 0.6435 0.79677 0.49576 0.0
O490 O 0.8381 0.99012 0.5228 0.0
O491 O 0.8377 0.97759 0.46445 0.0
O492 O 0.70075 0.9789 0.52982 0.0
O493 O 0.68673 0.98954 0.47346 0.0
C494 C 0.73079 0.7756 0.42893 0.0
O495 O 0.86749 0.77496 0.51341 0.0
O496 O 0.84989 0.77755 0.4573 0.0
O497 O 0.77349 0.97611 0.59644 0.0
C498 C 0.63067 0.78591 0.5251 0.0
O499 O 0.72304 0.78916 0.60233 0.0
C500 C 0.74702 0.97204 0.38182 0.0
O501 O 0.6947 0.89452 0.56318 0.0
C502 C 0.8529 0.98998 0.49227 0.0
O503 O 0.83008 0.84094 0.56336 0.0
C504 C 0.6512 0.88755 0.44045 0.0
O505 O 0.72231 0.7971 0.45334 0.0
O506 O 0.76345 0.76789 0.42617 0.0
C507 C 0.68874 -0.00075 0.50582 0.0
O508 O 0.77598 0.97587 0.39918 0.0
O509 O 0.71973 0.95946 0.39721 0.0
C510 C 0.80309 0.86887 0.433 0.0
O511 O 0.65655 0.92001 0.43343 0.0
O512 O 0.67412 0.87074 0.45832 0.0
C513 C 0.87391 0.77164 0.48046 0.0
O514 O 0.79416 0.84691 0.4572 0.0
O515 O 0.79854 0.90197 0.4391 0.0
C516 C 0.77476 0.00532 0.61394 0.0
O517 O 0.78353 0.03423 0.59657 0.0
C518 C 0.75432 0.79859 0.60985 0.0
O519 O 0.7686 0.82555 0.59322 0.0
Zn520 Zn 0.07615 0.98203 0.72401 0.0
Zn521 Zn 0.06162 0.0621 0.70455 0.0
O522 O 0.09568 0.03208 0.73269 0.0
H523 H 0.12008 0.03748 0.73784 0.0
C524 C 0.02693 0.8924 0.7509 0.0
O525 O 0.0374 0.90708 0.72119 0.0
Zn526 Zn 0.20406 0.06194 0.79894 0.0
Zn527 Zn 0.20835 0.97972 0.81615 0.0
O528 O 0.18568 0.01548 0.78372 0.0
H529 H 0.16093 0.01383 0.77788 0.0
Zn530 Zn 0.04395 0.96624 0.79157 0.0
O531 O 0.03892 0.01533 0.76491 0.0
Zn532 Zn 0.05853 0.0566 0.79506 0.0
H533 H 0.04028 0.99203 0.77548 0.0
Zn534 Zn 0.18691 0.94003 0.68261 0.0
O535 O 0.16614 0.98128 0.70877 0.0
H536 H 0.15262 0.98004 0.73036 0.0
Zn537 Zn 0.1798 0.02599 0.68538 0.0
C538 C 0.21635 0.9078 0.74425 0.0
O539 O 0.19579 0.93223 0.75795 0.0
O540 O 0.02681 0.97989 0.70188 0.0
O541 O 0.01486 0.0369 0.69304 0.0
O542 O 0.23663 0.00169 0.85688 0.0
O543 O 0.22658 0.05909 0.8485 0.0
O544 O 0.04084 0.98064 0.8444 0.0
O545 O 0.04569 0.04012 0.84456 0.0
C546 C 0.11426 0.0569 0.65024 0.0
O547 O 0.20507 0.95725 0.6351 0.0
O548 O 0.20626 0.01648 0.63995 0.0
O549 O 0.17208 0.94653 0.83919 0.0
C550 C 0.00587 0.00425 0.69185 0.0
O551 O 0.10643 0.93716 0.71772 0.0
C552 C 0.12897 0.09292 0.80549 0.0
O553 O 0.02622 0.91144 0.77912 0.0
C554 C 0.23844 0.03369 0.8675 0.0
O555 O 0.21757 0.90443 0.7108 0.0
C556 C 0.03998 0.12495 0.75374 0.0
O557 O 0.08298 0.06755 0.65621 0.0
O558 O 0.13424 0.05065 0.67638 0.0
C559 C 0.04078 0.01046 0.86058 0.0
O560 O 0.16269 0.09447 0.80566 0.0
O561 O 0.1127 0.06457 0.79613 0.0
C562 C 0.23187 0.0729 0.72926 0.0
O563 O 0.03746 0.10653 0.78231 0.0
O564 O 0.05093 0.11093 0.72491 0.0
C565 C 0.21229 0.98789 0.62278 0.0
O566 O 0.20556 0.05288 0.72328 0.0
O567 O 0.23808 0.08136 0.76136 0.0
C568 C 0.14191 0.93901 0.82653 0.0
O569 O 0.13287 0.95058 0.79501 0.0
C570 C 0.10637 0.92571 0.68612 0.0
O571 O 0.08798 0.94284 0.66211 0.0
Zn572 Zn 0.51842 0.27736 0.57115 0.0
Zn573 Zn 0.43888 0.30066 0.5555 0.0
O574 O 0.46773 0.27145 0.5891 0.0
H575 H 0.46162 0.27008 0.61386 0.0
C576 C 0.60803 0.23412 0.51246 0.0
O577 O 0.59271 0.26541 0.51273 0.0
Zn578 Zn 0.44755 0.21866 0.69965 0.0
Zn579 Zn 0.53212 0.20864 0.70356 0.0
O580 O 0.49265 0.23706 0.68069 0.0
H581 H 0.49393 0.24585 0.65678 0.0
Zn582 Zn 0.52967 0.19923 0.51906 0.0
O583 O 0.48876 0.23541 0.53228 0.0
Zn584 Zn 0.44518 0.20935 0.55306 0.0
H585 H 0.50863 0.22073 0.5256 0.0
Zn586 Zn 0.54395 0.32101 0.72049 0.0
O587 O 0.53065 0.31009 0.67013 0.0
H588 H 0.53598 0.28706 0.66048 0.0
Zn589 Zn 0.48376 0.33271 0.67618 0.0
C590 C 0.5908 0.2627 0.73995 0.0
O591 O 0.60802 0.27513 0.71237 0.0
O592 O 0.52189 0.30887 0.52805 0.0
O593 O 0.46601 0.31836 0.51213 0.0
O594 O 0.51325 0.16596 0.73196 0.0
O595 O 0.45506 0.17345 0.72818 0.0
O596 O 0.50542 0.1488 0.51348 0.0
O597 O 0.45267 0.15947 0.53824 0.0
C598 C 0.43771 0.35237 0.6133 0.0
O599 O 0.53776 0.37432 0.73358 0.0
O600 O 0.49236 0.38173 0.69668 0.0
O601 O 0.57235 0.19366 0.66973 0.0
C602 C 0.49917 0.32187 0.50699 0.0
O603 O 0.56445 0.27475 0.60062 0.0
C604 C 0.41445 0.2008 0.62641 0.0
O605 O 0.58832 0.2064 0.51458 0.0
C606 C 0.48183 0.15563 0.7385 0.0
O607 O 0.56314 0.27872 0.75071 0.0
C608 C 0.37687 0.25085 0.53227 0.0
O609 O 0.42639 0.34378 0.58276 0.0
O610 O 0.46178 0.33408 0.62788 0.0
C611 C 0.47464 0.13846 0.52352 0.0
O612 O 0.41499 0.20393 0.66004 0.0
O613 O 0.44124 0.20948 0.60761 0.0
C614 C 0.4301 0.28915 0.72517 0.0
O615 O 0.39525 0.22238 0.53332 0.0
O616 O 0.39069 0.28048 0.54097 0.0
C617 C 0.51501 0.39436 0.71851 0.0
O618 O 0.45467 0.29726 0.70366 0.0
O619 O 0.42288 0.25638 0.72919 0.0
C620 C 0.56277 0.1874 0.63809 0.0
O621 O 0.52977 0.19352 0.62908 0.0
C622 C 0.57734 0.30545 0.60571 0.0
O623 O 0.55991 0.33326 0.59406 0.0
H624 H 0.15225 0.36473 0.07827 0.0
H625 H 0.24629 0.37645 0.14266 0.0
H626 H 0.12223 0.33574 0.12747 0.0
H627 H 0.21546 0.34759 0.19227 0.0
H628 H 0.10737 0.25331 0.22596 0.0
H629 H 0.15076 0.27177 0.18126 0.0
H630 H 0.13539 0.38116 0.21106 0.0
H631 H 0.09189 0.36338 0.25531 0.0
C632 C 0.16665 0.36077 0.10277 0.0
C633 C 0.20146 0.37322 0.1069 0.0
C634 C 0.14955 0.34394 0.13066 0.0
C635 C 0.1669 0.3395 0.16306 0.0
C636 C 0.20201 0.35068 0.16711 0.0
C637 C 0.2194 0.36726 0.13895 0.0
C638 C 0.1136 0.28125 0.22333 0.0
C639 C 0.09585 0.30696 0.24375 0.0
C640 C 0.1385 0.29162 0.19805 0.0
C641 C 0.14627 0.32764 0.19349 0.0
C642 C 0.1299 0.35318 0.21482 0.0
C643 C 0.10481 0.34295 0.23976 0.0
H644 H 0.63334 0.50146 0.08537 0.0
H645 H 0.58338 0.5872 0.14261 0.0
H646 H 0.59039 0.50809 0.03746 0.0
H647 H 0.54046 0.59369 0.09522 0.0
H648 H 0.47022 0.61287 0.0159 0.0
H649 H 0.49228 0.56958 0.05797 0.0
H650 H 0.58767 0.55849 0.99571 0.0
H651 H 0.56458 0.60018 0.95252 0.0
C652 C 0.61266 0.52121 0.08798 0.0
C653 C 0.61152 0.54397 0.1175 0.0
C654 C 0.58801 0.52473 0.06077 0.0
C655 C 0.56195 0.55113 0.0627 0.0
C656 C 0.55969 0.57247 0.09329 0.0
C657 C 0.58444 0.56907 0.12034 0.0
C658 C 0.49475 0.59934 0.00986 0.0
C659 C 0.51607 0.61036 0.98144 0.0
C660 C 0.50757 0.57483 0.03422 0.0
C661 C 0.54217 0.56185 0.03078 0.0
C662 C 0.56098 0.56833 -0.00075 0.0
C663 C 0.5479 0.59248 0.9746 0.0
H664 H 0.92143 0.23582 0.22883 0.0
H665 H 0.81687 0.25277 0.27132 0.0
H666 H 0.89781 0.19254 0.18666 0.0
H667 H 0.79274 0.20969 0.22893 0.0
H668 H 0.76317 0.11229 0.16622 0.0
H669 H 0.79235 0.14679 0.21276 0.0
H670 H 0.86134 0.19376 0.13424 0.0
H671 H 0.8337 0.15743 0.08851 0.0
C672 C 0.89329 0.23019 0.22887 0.0
C673 C 0.87066 0.2477 0.25253 0.0
C674 C 0.87977 0.20553 0.20484 0.0
C675 C 0.84337 0.19782 0.20433 0.0
C676 C 0.82093 0.21487 0.22885 0.0
C677 C 0.83451 0.23976 0.25275 0.0
C678 C 0.78467 0.12993 0.15908 0.0
C679 C 0.79493 0.13389 0.12354 0.0
C680 C 0.80124 0.14978 0.18562 0.0
C681 C 0.82848 0.17373 0.17705 0.0
C682 C 0.84021 0.17583 0.14173 0.0
C683 C 0.82381 0.15579 0.11533 0.0
H684 H 0.44735 0.93634 0.1601 0.0
H685 H 0.35418 0.89912 0.10515 0.0
H686 H 0.48467 0.90693 0.11629 0.0
H687 H 0.3911 0.8716 0.06042 0.0
H688 H 0.46471 0.80508 0.99461 0.0
H689 H 0.42982 0.82691 0.04431 0.0
H690 H 0.50337 0.91396 0.05766 0.0
H691 H 0.53909 0.89082 0.00908 0.0
C692 C 0.43483 0.92169 0.13881 0.0
C693 C 0.39778 0.92018 0.13613 0.0
C694 C 0.45623 0.90514 0.11337 0.0
C695 C 0.44107 0.88713 0.08433 0.0
C696 C 0.40395 0.88471 0.08248 0.0
C697 C 0.38264 0.90076 0.10814 0.0
C698 C 0.47332 0.82892 0.00814 0.0
C699 C 0.50449 0.84637 0.99783 0.0
C700 C 0.45328 0.84155 0.03668 0.0
C701 C 0.46356 0.87237 0.05521 0.0
C702 C 0.49485 0.88978 0.04469 0.0
C703 C 0.51521 0.87675 0.01656 0.0
H704 H 0.13008 0.60232 0.3893 0.0
H705 H 0.23165 0.62437 0.34291 0.0
H706 H 0.10086 0.62443 0.33647 0.0
H707 H 0.20292 0.64792 0.29049 0.0
H708 H 0.14386 0.70928 0.20842 0.0
H709 H 0.16308 0.65635 0.24044 0.0
H710 H 0.101 0.68922 0.33097 0.0
H711 H 0.08129 0.74149 0.2987 0.0
C712 C 0.14626 0.60901 0.36662 0.0
C713 C 0.18299 0.61258 0.37053 0.0
C714 C 0.12948 0.62287 0.33667 0.0
C715 C 0.14953 0.63982 0.31021 0.0
C716 C 0.18655 0.63577 0.31069 0.0
C717 C 0.20318 0.62168 0.34064 0.0
C718 C 0.13401 0.70492 0.23504 0.0
C719 C 0.11133 0.72975 0.2512 0.0
C720 C 0.14495 0.67453 0.2533 0.0
C721 C 0.13337 0.66824 0.28813 0.0
C722 C 0.10988 0.69268 0.30388 0.0
C723 C 0.09908 0.72309 0.28567 0.0
H724 H 0.92416 0.60023 0.05461 0.0
H725 H 0.00133 0.59336 0.97027 0.0
H726 H 0.88251 0.56579 0.01931 0.0
H727 H 0.96019 0.55712 0.93602 0.0
H728 H 0.85204 0.60892 0.8889 0.0
H729 H 0.8739 0.60874 0.94959 0.0
H730 H 0.90159 0.49825 0.93923 0.0
H731 H 0.87687 0.49786 0.87943 0.0
C732 C 0.93308 0.58956 0.02946 0.0
C733 C 0.96551 0.60066 0.01455 0.0
C734 C 0.90916 0.56971 0.00943 0.0
C735 C 0.91812 0.55935 0.975 0.0
C736 C 0.95288 0.56481 0.96274 0.0
C737 C 0.97653 0.58551 0.9824 0.0
C738 C 0.85972 0.58385 0.90067 0.0
C739 C 0.86365 0.55361 0.8794 0.0
C740 C 0.87272 0.5838 0.93528 0.0
C741 C 0.89014 0.55364 0.94848 0.0
C742 C 0.88835 0.52177 0.92947 0.0
C743 C 0.87396 0.52156 0.89533 0.0
H744 H 0.88387 0.83864 0.21701 0.0
H745 H 0.93776 0.7625 0.28296 0.0
H746 H 0.8444 0.85374 0.26598 0.0
H747 H 0.89873 0.77794 0.33241 0.0
H748 H 0.81341 0.8006 0.40952 0.0
H749 H 0.83947 0.7793 0.35624 0.0
H750 H 0.85448 0.88732 0.3215 0.0
H751 H 0.82693 0.90886 0.37634 0.0
C752 C 0.88646 0.82436 0.24181 0.0
C753 C 0.9138 0.79951 0.24647 0.0
C754 C 0.86426 0.83341 0.26993 0.0
C755 C 0.86907 0.81784 0.3033 0.0
C756 C 0.89436 0.79051 0.30699 0.0
C757 C 0.91655 0.78134 0.27867 0.0
C758 C 0.82183 0.82009 0.39127 0.0
C759 C 0.81822 0.85645 0.39847 0.0
C760 C 0.83712 0.80769 0.36016 0.0
C761 C 0.84957 0.83145 0.33471 0.0
C762 C 0.84501 0.86815 0.34066 0.0
C763 C 0.82949 0.88052 0.37225 0.0
H764 H 0.1384 0.94141 0.89814 0.0
H765 H 0.08748 0.89643 0.80612 0.0
H766 H 0.0948 0.91322 0.9364 0.0
H767 H 0.04331 0.86812 0.84481 0.0
H768 H 0.01731 0.78604 0.93898 0.0
H769 H 0.04706 0.81929 0.89171 0.0
H770 H 0.0288 0.9169 0.9491 0.0
H771 H -0.00133 0.88354 0.99592 0.0
C772 C 0.11768 0.92557 0.88612 0.0
C773 C 0.11588 0.92123 0.84922 0.0
C774 C 0.09249 0.90985 0.90796 0.0
C775 C 0.06529 0.88915 0.89334 0.0
C776 C 0.06374 0.88443 0.85647 0.0
C777 C 0.08877 0.90059 0.83448 0.0
C778 C 0.01862 0.81472 0.94061 0.0
C779 C 0.00575 0.83251 0.97054 0.0
C780 C 0.03555 0.83371 0.91374 0.0
C781 C 0.04051 0.87052 0.91712 0.0
C782 C 0.02547 0.88849 0.94609 0.0
C783 C 0.00806 0.86956 0.97261 0.0
H784 H 0.13722 0.24085 0.38166 0.0
H785 H 0.08676 0.13894 0.39226 0.0
H786 H 0.18999 0.21226 0.35756 0.0
H787 H 0.13924 0.11021 0.3679 0.0
H788 H 0.19701 0.09075 0.26084 0.0
H789 H 0.15433 0.11939 0.30068 0.0
H790 H 0.24024 0.16464 0.36108 0.0
H791 H 0.2828 0.13539 0.32159 0.0
C792 C 0.13838 0.21211 0.38126 0.0
C793 C 0.10779 0.19209 0.38848 0.0
C794 C 0.16834 0.19578 0.36672 0.0
C795 C 0.16798 0.15922 0.35945 0.0
C796 C 0.13974 0.13861 0.37233 0.0
C797 C 0.11006 0.15496 0.38733 0.0
C798 C 0.20665 0.10772 0.28194 0.0
C799 C 0.24306 0.11153 0.28777 0.0
C800 C 0.18236 0.12345 0.30521 0.0
C801 C 0.19408 0.14357 0.33446 0.0
C802 C 0.23051 0.14905 0.33899 0.0
C803 C 0.25476 0.13275 0.31615 0.0
H804 H 0.3874 0.66452 0.9247 0.0
H805 H 0.47463 0.62054 0.86547 0.0
H806 H 0.39048 0.61496 0.96609 0.0
H807 H 0.47884 0.57143 0.90733 0.0
H808 H 0.40454 0.47314 0.93318 0.0
H809 H 0.43977 0.52235 0.91239 0.0
H810 H 0.41899 0.57862 0.01022 0.0
H811 H 0.38452 0.52896 0.03128 0.0
C812 C 0.40765 0.64452 0.92117 0.0
C813 C 0.42998 0.64541 0.89171 0.0
C814 C 0.4099 0.6164 0.94502 0.0
C815 C 0.43491 0.58908 0.93985 0.0
C816 C 0.45899 0.5917 0.91165 0.0
C817 C 0.45635 0.61952 0.88761 0.0
C818 C 0.40923 0.49516 0.95107 0.0
C819 C 0.38998 0.49845 0.98268 0.0
C820 C 0.4296 0.52352 0.93921 0.0
C821 C 0.43061 0.55517 0.95898 0.0
C822 C 0.41787 0.55498 0.99396 0.0
C823 C 0.39799 0.52637 0.00604 0.0
H824 H 0.74576 0.43313 0.31117 0.0
H825 H 0.75991 0.34872 0.23482 0.0
H826 H 0.79328 0.40916 0.34692 0.0
H827 H 0.80824 0.32468 0.27093 0.0
H828 H 0.86882 0.27874 0.36991 0.0
H829 H 0.81881 0.29815 0.33375 0.0
H830 H 0.85948 0.40528 0.33503 0.0
H831 H 0.90929 0.38613 0.37121 0.0
C832 C 0.75856 0.40909 0.3023 0.0
C833 C 0.74909 0.39281 0.27021 0.0
C834 C 0.78607 0.3956 0.32262 0.0
C835 C 0.80457 0.36541 0.31138 0.0
C836 C 0.79427 0.34806 0.28006 0.0
C837 C 0.76679 0.36183 0.25944 0.0
C838 C 0.86712 0.30641 0.36236 0.0
C839 C 0.89287 0.33097 0.37343 0.0
C840 C 0.83859 0.31741 0.34165 0.0
C841 C 0.83534 0.35315 0.3319 0.0
C842 C 0.86123 0.37762 0.34267 0.0
C843 C 0.88972 0.36665 0.36332 0.0
H844 H 0.50612 0.8836 0.86884 0.0
H845 H 0.61384 0.89152 0.83204 0.0
H846 H 0.51369 0.9369 0.9039 0.0
H847 H 0.62152 0.94509 0.86731 0.0
H848 H 0.64679 0.95551 0.98077 0.0
H849 H 0.61462 0.91901 0.93827 0.0
H850 H 0.54425 0.00628 0.91603 0.0
H851 H 0.57597 0.04257 0.95943 0.0
C852 C 0.53041 0.89856 0.86548 0.0
C853 C 0.56005 0.8828 0.84926 0.0
C854 C 0.53488 0.92872 0.88634 0.0
C855 C 0.56866 0.94337 0.88956 0.0
C856 C 0.59548 0.9331 0.86584 0.0
C857 C 0.59092 0.90289 0.84508 0.0
C858 C 0.62295 0.96608 0.96883 0.0
C859 C 0.6148 0.00213 0.9717 0.0
C860 C 0.60522 0.94564 0.94375 0.0
C861 C 0.57879 0.9611 0.92257 0.0
C862 C 0.56548 0.99453 0.93132 0.0
C863 C 0.58312 0.01485 0.95668 0.0
H864 H 0.08431 0.88006 0.13874 0.0
H865 H 0.12751 0.77529 0.12056 0.0
H866 H 0.13872 0.89715 0.16917 0.0
H867 H 0.18159 0.79244 0.15173 0.0
H868 H 0.24251 0.84074 0.25594 0.0
H869 H 0.19396 0.81604 0.22038 0.0
H870 H 0.20693 0.90067 0.14436 0.0
H871 H 0.25591 0.92469 0.1791 0.0
C872 C 0.10536 0.86073 0.14123 0.0
C873 C 0.10176 0.82641 0.12725 0.0
C874 C 0.13639 0.87052 0.15852 0.0
C875 C 0.16412 0.84608 0.16224 0.0
C876 C 0.1604 0.81158 0.14898 0.0
C877 C 0.1295 0.80188 0.1313 0.0
C878 C 0.23545 0.85338 0.23113 0.0
C879 C 0.25251 0.88458 0.22017 0.0
C880 C 0.2079 0.83933 0.21093 0.0
C881 C 0.19676 0.85693 0.18016 0.0
C882 C 0.21515 0.88695 0.16822 0.0
C883 C 0.2432 0.90045 0.18789 0.0
H884 H 0.20388 0.56808 0.98012 0.0
H885 H 0.11921 0.50259 0.02019 0.0
H886 H 0.18311 0.6176 0.01703 0.0
H887 H 0.09827 0.5517 0.05673 0.0
H888 H 0.11219 0.61768 0.15602 0.0
H889 H 0.13025 0.5755 0.11065 0.0
H890 H 0.13248 0.65913 0.03309 0.0
H891 H 0.11469 0.70211 0.07865 0.0
C892 C 0.17989 0.56496 0.99557 0.0
C893 C 0.16287 0.53197 0.99745 0.0
C894 C 0.16823 0.59301 0.01688 0.0
C895 C 0.13978 0.58791 0.04039 0.0
C896 C 0.1208 0.55591 0.03945 0.0
C897 C 0.13238 0.52808 0.01821 0.0
C898 C 0.117 0.62735 0.12941 0.0
C899 C 0.11147 0.66313 0.12065 0.0
C900 C 0.12695 0.60311 0.10338 0.0
C901 C 0.13178 0.61424 0.0682 0.0
C902 C 0.12855 0.65027 0.05994 0.0
C903 C 0.11842 0.67461 0.08594 0.0
H904 H 0.71623 0.63848 0.19858 0.0
H905 H 0.80261 0.5758 0.23862 0.0
H906 H 0.75781 0.67469 0.16458 0.0
H907 H 0.84433 0.61202 0.2051 0.0
H908 H 0.90351 0.63798 0.10987 0.0
H909 H 0.85257 0.61096 0.13897 0.0
H910 H 0.81027 0.715 0.16123 0.0
H911 H 0.86109 0.74176 0.13156 0.0
C912 C 0.74434 0.63399 0.20202 0.0
C913 C 0.75619 0.60425 0.22114 0.0
C914 C 0.76809 0.65416 0.18179 0.0
C915 C 0.80408 0.64496 0.18073 0.0
C916 C 0.81647 0.61875 0.20421 0.0
C917 C 0.79273 0.59876 0.22446 0.0
C918 C 0.88214 0.655 0.11871 0.0
C919 C 0.8867 0.6919 0.11939 0.0
C920 C 0.85353 0.63959 0.13654 0.0
C921 C 0.8286 0.66099 0.15427 0.0
C922 C 0.82955 0.69781 0.14872 0.0
C923 C 0.85827 0.71313 0.13089 0.0
H924 H 0.81025 0.02679 0.08746 0.0
H925 H 0.87015 0.00163 0.99284 0.0
H926 H 0.85036 0.99223 0.12282 0.0
H927 H 0.91036 0.96561 0.02893 0.0
H928 H 0.88975 0.87586 0.14684 0.0
H929 H 0.85944 0.92931 0.12796 0.0
H930 H 0.95539 0.96624 0.07752 0.0
H931 H 0.98552 0.91222 0.09661 0.0
C932 C 0.83195 0.01375 0.07396 0.0
C933 C 0.83671 0.01672 0.03697 0.0
C934 C 0.8551 0.99405 0.09454 0.0
C935 C 0.88358 0.9764 0.07881 0.0
C936 C 0.88893 0.97961 0.04191 0.0
C937 C 0.86569 -0.00026 0.02113 0.0
C938 C 0.90497 0.8966 0.134 0.0
C939 C 0.93962 0.89002 0.1227 0.0
C940 C 0.88751 0.92705 0.12259 0.0
C941 C 0.90479 0.95124 0.10003 0.0
C942 C 0.94125 0.94744 0.09401 0.0
C943 C 0.95872 0.91701 0.10569 0.0
H944 H 0.32008 0.29758 0.12596 0.0
H945 H 0.27613 0.21028 0.06611 0.0
H946 H 0.36817 0.25927 0.14626 0.0
H947 H 0.32359 0.17208 0.0867 0.0
H948 H 0.40335 0.10361 0.11845 0.0
H949 H 0.3876 0.15814 0.08752 0.0
H950 H 0.36719 0.20898 0.18813 0.0
H951 H 0.38314 0.15458 0.21863 0.0
C952 C 0.32093 0.27037 0.11673 0.0
C953 C 0.29406 0.25684 0.0947 0.0
C954 C 0.34854 0.2485 0.12831 0.0
C955 C 0.34998 0.2127 0.1179 0.0
C956 C 0.32386 0.19971 0.09464 0.0
C957 C 0.29624 0.22147 0.08326 0.0
C958 C 0.39813 0.12726 0.13398 0.0
C959 C 0.39345 0.12477 0.17078 0.0
C960 C 0.38835 0.15832 0.11623 0.0
C961 C 0.37452 0.18727 0.13533 0.0
C962 C 0.37717 0.18702 0.17252 0.0
C963 C 0.38678 0.15589 0.19015 0.0
H964 H 0.2403 0.79812 0.42977 0.0
H965 H 0.29707 0.72225 0.36602 0.0
H966 H 0.25701 0.84537 0.38853 0.0
H967 H 0.31537 0.76889 0.32595 0.0
H968 H 0.34694 0.85883 0.25633 0.0
H969 H 0.31063 0.81363 0.28474 0.0
H970 H 0.31146 0.8748 0.38191 0.0
H971 H 0.34633 0.92061 0.35264 0.0
C972 C 0.25486 0.79134 0.40596 0.0
C973 C 0.26726 0.7567 0.40078 0.0
C974 C 0.26524 0.81846 0.38276 0.0
C975 C 0.2886 0.8113 0.35444 0.0
C976 C 0.29739 0.77574 0.34723 0.0
C977 C 0.2867 0.74876 0.37012 0.0
C978 C 0.33916 0.86258 0.28373 0.0
C979 C 0.34862 0.8936 0.30205 0.0
C980 C 0.3183 0.83667 0.30008 0.0
C981 C 0.3075 0.84056 0.33562 0.0
C982 C 0.31803 0.87128 0.35419 0.0
C983 C 0.33839 0.89743 0.3376 0.0
H984 H 0.05234 0.48069 0.79726 0.0
H985 H 0.96941 0.47802 0.87566 0.0
H986 H 0.08417 0.43456 0.82941 0.0
H987 H -0.00061 0.43002 0.9066 0.0
H988 H 0.09611 0.38767 0.97177 0.0
H989 H 0.04666 0.41524 0.9421 0.0
H990 H 0.08391 0.37343 0.84194 0.0
H991 H 0.13488 0.34815 0.87212 0.0
C992 C 0.0416 0.47086 0.82202 0.0
C993 C 0.00935 0.48363 0.83486 0.0
C994 C 0.05901 0.44352 0.83983 0.0
C995 C 0.04384 0.42765 0.87016 0.0
C996 C 0.01198 0.44148 0.88349 0.0
C997 C 0.9951 0.4694 0.86615 0.0
C998 C 0.09241 0.38236 0.94376 0.0
C999 C 0.1203 0.36844 0.92363 0.0
C1000 C 0.06424 0.39882 0.92646 0.0
C1001 C 0.06299 0.39897 0.88916 0.0
C1002 C 0.0856 0.37588 0.8705 0.0
C1003 C 0.11419 0.36029 0.88792 0.0
H1004 H 0.59927 0.61306 0.36098 0.0
H1005 H 0.62777 0.66022 0.26118 0.0
H1006 H 0.6145 0.66782 0.39153 0.0
H1007 H 0.64377 0.71506 0.29158 0.0
H1008 H 0.74237 0.74315 0.36547 0.0
H1009 H 0.70027 0.71021 0.32934 0.0
H1010 H 0.61665 0.73594 0.40301 0.0
H1011 H 0.65896 0.76977 0.43879 0.0
C1012 C 0.60581 0.6361 0.3452 0.0
C1013 C 0.61254 0.63224 0.3088 0.0
C1014 C 0.61537 0.66742 0.36282 0.0
C1015 C 0.63157 0.69527 0.34405 0.0
C1016 C 0.63204 0.69371 0.30681 0.0
C1017 C 0.62218 0.66249 0.28928 0.0
C1018 C 0.71491 0.74235 0.37371 0.0
C1019 C 0.70411 0.75878 0.40534 0.0
C1020 C 0.69064 0.72378 0.35277 0.0
C1021 C 0.65499 0.72067 0.36316 0.0
C1022 C 0.64386 0.73802 0.39421 0.0
C1023 C 0.66812 0.7573 0.41479 0.0
H1024 H 0.39207 0.65951 0.40149 0.0
H1025 H 0.38294 0.61147 0.50468 0.0
H1026 H 0.45263 0.63803 0.3968 0.0
H1027 H 0.44297 0.58821 0.49923 0.0
H1028 H 0.55385 0.58288 0.38897 0.0
H1029 H 0.52116 0.62053 0.43003 0.0
H1030 H 0.43884 0.54143 0.43592 0.0
H1031 H 0.47064 0.50447 0.39328 0.0
C1032 C 0.40396 0.64676 0.4243 0.0
C1033 C 0.38299 0.63658 0.45315 0.0
C1034 C 0.43855 0.63412 0.42155 0.0
C1035 C 0.45186 0.61081 0.44737 0.0
C1036 C 0.4331 0.60604 0.47904 0.0
C1037 C 0.39888 0.61961 0.48219 0.0
C1038 C 0.5294 0.57292 0.40001 0.0
C1039 C 0.5141 0.54141 0.38694 0.0
C1040 C 0.51096 0.59439 0.42377 0.0
C1041 C 0.47756 0.58391 0.43573 0.0
C1042 C 0.46485 0.54984 0.42714 0.0
C1043 C 0.48299 0.52865 0.40269 0.0
H1044 H 0.12151 0.90247 0.61981 0.0
H1045 H 0.13581 0.87658 0.73055 0.0
H1046 H 0.15376 0.84916 0.60309 0.0
H1047 H 0.16851 0.82304 0.71354 0.0
H1048 H 0.26516 0.76462 0.65404 0.0
H1049 H 0.22829 0.81139 0.67961 0.0
H1050 H 0.14291 0.78171 0.60965 0.0
H1051 H 0.17931 0.73466 0.58462 0.0
C1052 C 0.13126 0.88521 0.64056 0.0
C1053 C 0.12596 0.89346 0.67644 0.0
C1054 C 0.14961 0.8547 0.63098 0.0
C1055 C 0.16307 0.83192 0.65709 0.0
C1056 C 0.15818 0.84024 0.69302 0.0
C1057 C 0.13956 0.87077 0.70266 0.0
C1058 C 0.23826 0.76755 0.64482 0.0
C1059 C 0.22519 0.74618 0.6173 0.0
C1060 C 0.2172 0.79421 0.65946 0.0
C1061 C 0.18304 0.8002 0.64626 0.0
C1062 C 0.16933 0.77767 0.62002 0.0
C1063 C 0.19014 0.75069 0.60584 0.0
H1064 H 0.99205 0.53991 0.59 0.0
H1065 H 0.04614 0.48771 0.67609 0.0
H1066 H 0.04776 0.55086 0.56106 0.0
H1067 H 0.10273 0.49792 0.64664 0.0
H1068 H 0.16886 0.60473 0.63488 0.0
H1069 H 0.12766 0.55659 0.64856 0.0
H1070 H 0.10305 0.54638 0.53709 0.0
H1071 H 0.14463 0.59394 0.52377 0.0
C1072 C 0.0159 0.52916 0.60178 0.0
C1073 C 0.01529 0.51474 0.6359 0.0
C1074 C 0.04809 0.53524 0.58512 0.0
C1075 C 0.07995 0.52685 0.60255 0.0
C1076 C 0.07862 0.50595 0.63337 0.0
C1077 C 0.04622 0.49982 0.65005 0.0
C1078 C 0.15537 0.5912 0.61344 0.0
C1079 C 0.1592 0.60283 0.57849 0.0
C1080 C 0.13213 0.56337 0.62103 0.0
C1081 C 0.11215 0.5474 0.5937 0.0
C1082 C 0.11827 0.55778 0.55855 0.0
C1083 C 0.14175 0.58513 0.55098 0.0
H1084 H 0.96687 0.03932 0.64166 0.0
H1085 H 0.96883 0.94422 0.70549 0.0
H1086 H 0.91708 0.01509 0.60763 0.0
H1087 H 0.91965 0.92022 0.67181 0.0
H1088 H 0.82607 0.88358 0.61636 0.0
H1089 H 0.85659 0.92587 0.65463 0.0
H1090 H 0.91641 0.96398 0.56474 0.0
H1091 H 0.88578 0.92195 0.52642 0.0
C1092 C 0.95601 0.01376 0.64907 0.0
C1093 C 0.9718 0.99353 0.67604 0.0
C1094 C 0.92771 -0.00015 0.6295 0.0
C1095 C 0.91447 0.96578 0.63705 0.0
C1096 C 0.92884 0.94674 0.66563 0.0
C1097 C 0.95725 0.96038 0.68478 0.0
C1098 C 0.84515 0.90156 0.60461 0.0
C1099 C 0.85418 0.89887 0.56855 0.0
C1100 C 0.86258 0.92577 0.62653 0.0
C1101 C 0.88938 0.9477 0.61281 0.0
C1102 C 0.89588 0.94745 0.57611 0.0
C1103 C 0.87844 0.92319 0.55416 0.0
H1104 H 0.64099 0.86368 0.58925 0.0
H1105 H 0.73334 0.86355 0.65664 0.0
H1106 H 0.61048 0.82542 0.63061 0.0
H1107 H 0.70345 0.82337 0.69751 0.0
H1108 H 0.61421 0.80846 0.78194 0.0
H1109 H 0.65931 0.82556 0.7397 0.0
H1110 H 0.6024 0.77024 0.65681 0.0
H1111 H 0.55593 0.7552 0.69945 0.0
C1112 C 0.65494 0.85511 0.61281 0.0
C1113 C 0.68963 0.86657 0.61958 0.0
C1114 C 0.63765 0.8325 0.63634 0.0
C1115 C 0.65454 0.82062 0.66737 0.0
C1116 C 0.6894 0.83207 0.67409 0.0
C1117 C 0.70655 0.85521 0.6507 0.0
C1118 C 0.61231 0.79856 0.755 0.0
C1119 C 0.58173 0.78081 0.74368 0.0
C1120 C 0.63818 0.80844 0.73059 0.0
C1121 C 0.63395 0.80046 0.69441 0.0
C1122 C 0.6058 0.77803 0.68424 0.0
C1123 C 0.5795 0.76873 0.70868 0.0
H1124 H 0.98883 0.08718 0.52134 0.0
H1125 H 0.07136 0.10195 0.44346 0.0
H1126 H 0.02638 0.04548 0.5529 0.0
H1127 H 0.1093 0.06109 0.47568 0.0
H1128 H 0.14828 0.0932 0.59833 0.0
H1129 H 0.12771 0.09027 0.53729 0.0
H1130 H 0.07233 0.99279 0.56043 0.0
H1131 H 0.09373 0.99561 0.62116 0.0
C1132 C 0.01417 0.08011 0.50988 0.0
C1133 C 0.02784 0.09899 0.48095 0.0
C1134 C 0.03578 0.05608 0.52791 0.0
C1135 C 0.07117 0.05096 0.51719 0.0
C1136 C 0.08235 0.06498 0.4847 0.0
C1137 C 0.06059 0.08855 0.46644 0.0
C1138 C 0.13416 0.06973 0.58959 0.0
C1139 C 0.12219 0.0448 0.61428 0.0
C1140 C 0.12215 0.06802 0.5546 0.0
C1141 C 0.09757 0.04174 0.54454 0.0
C1142 C 0.09103 0.01338 0.56762 0.0
C1143 C 0.10358 0.01484 0.60235 0.0
H1144 H 0.33807 0.78279 0.73517 0.0
H1145 H 0.40468 0.69518 0.76667 0.0
H1146 H 0.31014 0.74504 0.6906 0.0
H1147 H 0.37766 0.65807 0.72079 0.0
H1148 H 0.35062 0.64101 0.59476 0.0
H1149 H 0.37629 0.6735 0.64494 0.0
H1150 H 0.27384 0.67704 0.69544 0.0
H1151 H 0.24826 0.64378 0.64572 0.0
C1152 C 0.34636 0.75543 0.73291 0.0
C1153 C 0.3732 0.74184 0.75466 0.0
C1154 C 0.33048 0.73396 0.70738 0.0
C1155 C 0.34184 0.69892 0.70257 0.0
C1156 C 0.36854 0.68511 0.72428 0.0
C1157 C 0.38382 0.70631 0.75049 0.0
C1158 C 0.3337 0.64874 0.61664 0.0
C1159 C 0.29749 0.6405 0.61636 0.0
C1160 C 0.34836 0.66695 0.6453 0.0
C1161 C 0.32686 0.67751 0.67372 0.0
C1162 C 0.29075 0.66897 0.67367 0.0
C1163 C 0.27625 0.65005 0.64539 0.0
H1164 H 0.01295 0.30639 0.56886 0.0
H1165 H 0.95719 0.37909 0.50059 0.0
H1166 H 0.99096 0.33904 0.62127 0.0
H1167 H 0.93652 0.41217 0.55226 0.0
H1168 H 0.9249 0.48008 0.6456 0.0
H1169 H 0.96721 0.44762 0.60922 0.0
H1170 H 0.91742 0.34889 0.63854 0.0
H1171 H 0.87461 0.38136 0.67498 0.0
C1172 C 0.99679 0.32983 0.56519 0.0
C1173 C 0.98664 0.34046 0.53102 0.0
C1174 C 0.98426 0.34835 0.59496 0.0
C1175 C 0.96245 0.37821 0.59058 0.0
C1176 C 0.95376 0.38955 0.55624 0.0
C1177 C 0.96541 0.37061 0.52677 0.0
C1178 C 0.92374 0.45138 0.64551 0.0
C1179 C 0.896 0.43333 0.66259 0.0
C1180 C 0.948 0.43285 0.62465 0.0
C1181 C 0.94523 0.39592 0.62094 0.0
C1182 C 0.9201 0.3774 0.64119 0.0
C1183 C 0.89549 0.39601 0.6618 0.0
H1184 H 0.61722 0.11674 0.90484 0.0
H1185 H 0.71983 0.11788 0.85553 0.0
H1186 H 0.59076 0.1384 0.85139 0.0
H1187 H 0.6933 0.136 0.79977 0.0
H1188 H 0.65857 0.23966 0.74722 0.0
H1189 H 0.6795 0.18929 0.78065 0.0
H1190 H 0.57081 0.1583 0.80134 0.0
H1191 H 0.55077 0.21156 0.7715 0.0
C1192 C 0.63378 0.11905 0.88146 0.0
C1193 C 0.67061 0.11703 0.88464 0.0
C1194 C 0.61862 0.13217 0.85037 0.0
C1195 C 0.64011 0.14212 0.82135 0.0
C1196 C 0.676 0.13164 0.8222 0.0
C1197 C 0.69127 0.11984 0.85389 0.0
C1198 C 0.63929 0.22198 0.7591 0.0
C1199 C 0.60313 0.22997 0.75761 0.0
C1200 C 0.65121 0.19238 0.77797 0.0
C1201 C 0.62716 0.16909 0.79487 0.0
C1202 C 0.59066 0.17581 0.7904 0.0
C1203 C 0.57891 0.20634 0.77292 0.0
H1204 H 0.4994 0.09542 0.47045 0.0
H1205 H 0.41507 0.1054 0.54732 0.0
H1206 H 0.46202 0.05634 0.43512 0.0
H1207 H 0.37737 0.0678 0.51099 0.0
H1208 H 0.39302 0.99066 0.3747 0.0
H1209 H 0.41156 0.99602 0.43644 0.0
H1210 H 0.36792 0.10167 0.44025 0.0
H1211 H 0.351 0.09686 0.37805 0.0
C1212 C 0.47372 0.0879 0.48079 0.0
C1213 C 0.45987 0.10433 0.51115 0.0
C1214 C 0.45225 0.06554 0.46055 0.0
C1215 C 0.41682 0.05958 0.47039 0.0
C1216 C 0.40461 0.07205 0.50304 0.0
C1217 C 0.4263 0.0937 0.52367 0.0
C1218 C 0.3852 0.01403 0.38954 0.0
C1219 C 0.37113 0.04358 0.37189 0.0
C1220 C 0.396 0.0171 0.42474 0.0
C1221 C 0.3916 0.04937 0.44258 0.0
C1222 C 0.37134 0.07641 0.42691 0.0
C1223 C 0.36139 0.07364 0.3914 0.0
H1224 H 0.26767 0.38293 0.84998 0.0
H1225 H 0.36774 0.40953 0.89762 0.0
H1226 H 0.2967 0.37502 0.79282 0.0
H1227 H 0.3973 0.40001 0.84104 0.0
H1228 H 0.4467 0.35866 0.74097 0.0
H1229 H 0.4119 0.40021 0.77711 0.0
H1230 H 0.33027 0.32052 0.78789 0.0
H1231 H 0.36433 0.28011 0.75181 0.0
C1232 C 0.29557 0.3892 0.84769 0.0
C1233 C 0.31565 0.3963 0.87811 0.0
C1234 C 0.31236 0.38412 0.81508 0.0
C1235 C 0.34952 0.38519 0.81281 0.0
C1236 C 0.36869 0.39855 0.84188 0.0
C1237 C 0.35172 0.40428 0.87439 0.0
C1238 C 0.42091 0.35062 0.75031 0.0
C1239 C 0.40838 0.31613 0.74366 0.0
C1240 C 0.40102 0.3743 0.77109 0.0
C1241 C 0.36807 0.36394 0.78515 0.0
C1242 C 0.35504 0.32995 0.7769 0.0
C1243 C 0.37491 0.30642 0.75658 0.0
H1244 H 0.57454 0.43424 0.31772 0.0
H1245 H 0.66058 0.37893 0.36865 0.0
H1246 H 0.53267 0.40797 0.35981 0.0
H1247 H 0.61896 0.35309 0.4108 0.0
H1248 H 0.55333 0.36763 0.5082 0.0
H1249 H 0.58514 0.39168 0.45763 0.0
H1250 H 0.50851 0.34507 0.38659 0.0
H1251 H 0.47598 0.32095 0.43797 0.0
C1252 C 0.58423 0.41544 0.33705 0.0
C1253 C 0.62067 0.40859 0.34005 0.0
C1254 C 0.56036 0.40065 0.36117 0.0
C1255 C 0.57285 0.37909 0.38865 0.0
C1256 C 0.6089 0.37013 0.38998 0.0
C1257 C 0.63265 0.38479 0.36589 0.0
C1258 C 0.54292 0.36298 0.48182 0.0
C1259 C 0.51275 0.34196 0.47669 0.0
C1260 C 0.56118 0.37655 0.45298 0.0
C1261 C 0.54976 0.36913 0.41843 0.0
C1262 C 0.51788 0.35065 0.41315 0.0
C1263 C 0.49931 0.33708 0.44234 0.0
H1264 H 0.79014 0.62704 0.81301 0.0
H1265 H 0.69849 0.57287 0.7719 0.0
H1266 H 0.75235 0.65855 0.85613 0.0
H1267 H 0.66103 0.60312 0.81517 0.0
H1268 H 0.59744 0.64472 0.89884 0.0
H1269 H 0.64876 0.60951 0.88114 0.0
H1270 H 0.7029 0.70504 0.84899 0.0
H1271 H 0.65148 0.73997 0.86648 0.0
C1272 C 0.762 0.6216 0.81358 0.0
C1273 C 0.74702 0.59784 0.78906 0.0
C1274 C 0.74042 0.63947 0.83826 0.0
C1275 C 0.7037 0.633 0.8395 0.0
C1276 C 0.68923 0.60828 0.81553 0.0
C1277 C 0.71057 0.59122 0.79043 0.0
C1278 C 0.6212 0.65843 0.89036 0.0
C1279 C 0.62025 0.69505 0.88365 0.0
C1280 C 0.65039 0.63816 0.87945 0.0
C1281 C 0.67941 0.65436 0.86244 0.0
C1282 C 0.68092 0.69163 0.86167 0.0
C1283 C 0.65155 0.71179 0.87222 0.0
H1284 H 0.88251 0.17862 0.41592 0.0
H1285 H 0.9755 0.13198 0.36862 0.0
H1286 H 0.88004 0.12988 0.45872 0.0
H1287 H 0.97383 0.08388 0.41177 0.0
H1288 H 0.9011 0.98485 0.43906 0.0
H1289 H 0.9325 0.03528 0.41483 0.0
H1290 H 0.90699 0.09668 0.50825 0.0
H1291 H 0.87505 0.04599 0.53247 0.0
C1292 C 0.9028 0.15833 0.41537 0.0
C1293 C 0.92869 0.15835 0.38893 0.0
C1294 C 0.90173 0.1307 0.43997 0.0
C1295 C 0.92684 0.10309 0.43856 0.0
C1296 C 0.95396 0.10454 0.41322 0.0
C1297 C 0.95479 0.13188 0.38852 0.0
C1298 C 0.90363 0.00854 0.45519 0.0
C1299 C 0.88445 0.0121 0.48682 0.0
C1300 C 0.92173 0.03752 0.44135 0.0
C1301 C 0.92087 0.07031 0.4591 0.0
C1302 C 0.90703 0.07191 0.49362 0.0
C1303 C 0.88905 0.04276 0.5076 0.0
H1304 H 0.23381 0.92242 0.81249 0.0
H1305 H 0.2533 0.84743 0.72803 0.0
H1306 H 0.27789 0.89311 0.84898 0.0
H1307 H 0.29709 0.81744 0.76531 0.0
H1308 H 0.34884 0.75918 0.86319 0.0
H1309 H 0.30141 0.78393 0.82671 0.0
H1310 H 0.34613 0.88863 0.83948 0.0
H1311 H 0.39371 0.86407 0.87557 0.0
C1312 C 0.24712 0.89941 0.80186 0.0
C1313 C 0.24037 0.88748 0.76725 0.0
C1314 C 0.27248 0.88276 0.82273 0.0
C1315 C 0.29117 0.85346 0.8096 0.0
C1316 C 0.28317 0.84021 0.77576 0.0
C1317 C 0.25819 0.85735 0.75452 0.0
C1318 C 0.34846 0.7875 0.85827 0.0
C1319 C 0.3748 0.80979 0.87235 0.0
C1320 C 0.32148 0.80152 0.8373 0.0
C1321 C 0.32012 0.8381 0.83069 0.0
C1322 C 0.34647 0.86035 0.84466 0.0
C1323 C 0.37369 0.8463 0.86518 0.0
H1324 H 0.10236 0.55745 0.41896 0.0
H1325 H 0.09861 0.47082 0.49369 0.0
H1326 H 0.06166 0.52591 0.37994 0.0
H1327 H 0.05598 0.44051 0.45579 0.0
H1328 H 0.09278 0.38679 0.35411 0.0
H1329 H 0.09961 0.44951 0.36841 0.0
H1330 H 0.9908 0.4539 0.40256 0.0
H1331 H 0.98347 0.39179 0.38628 0.0
C1332 C 0.0914 0.53252 0.42787 0.0
C1333 C 0.1048 0.51566 0.45836 0.0
C1334 C 0.06786 0.51482 0.40569 0.0
C1335 C 0.05631 0.48093 0.41492 0.0
C1336 C 0.06464 0.46695 0.44848 0.0
C1337 C 0.08904 0.48421 0.47018 0.0
C1338 C 0.06966 0.40193 0.36187 0.0
C1339 C 0.03787 0.38475 0.36994 0.0
C1340 C 0.07344 0.4378 0.36998 0.0
C1341 C 0.04584 0.45578 0.38738 0.0
C1342 C 0.01231 0.4403 0.38928 0.0
C1343 C 0.00828 0.40472 0.38024 0.0
H1344 H 0.63731 0.26461 0.60754 0.0
H1345 H 0.5888 0.35808 0.65272 0.0
H1346 H 0.69241 0.27804 0.64009 0.0
H1347 H 0.64295 0.37065 0.68555 0.0
H1348 H 0.74544 0.33787 0.76168 0.0
H1349 H 0.70033 0.30468 0.72829 0.0
H1350 H 0.71555 0.37422 0.63886 0.0
H1351 H 0.75995 0.40752 0.67184 0.0
C1352 C 0.63825 0.28747 0.62497 0.0
C1353 C 0.60915 0.31058 0.62749 0.0
C1354 C 0.66953 0.295 0.64352 0.0
C1355 C 0.67145 0.32521 0.66521 0.0
C1356 C 0.64181 0.34721 0.66891 0.0
C1357 C 0.61103 0.34014 0.65002 0.0
C1358 C 0.73997 0.34525 0.73448 0.0
C1359 C 0.75562 0.37563 0.71952 0.0
C1360 C 0.71439 0.32619 0.71543 0.0
C1361 C 0.70487 0.33705 0.68118 0.0
C1362 C 0.72287 0.36531 0.66517 0.0
C1363 C 0.748 0.38448 0.68418 0.0
H1364 H 0.62874 0.16046 0.65128 0.0
H1365 H 0.54942 0.16997 0.56979 0.0
H1366 H 0.66216 0.12018 0.61401 0.0
H1367 H 0.5841 0.13247 0.5309 0.0
H1368 H 0.62286 0.02399 0.49455 0.0
H1369 H 0.59548 0.07488 0.52264 0.0
H1370 H 0.6968 0.10441 0.56783 0.0
H1371 H 0.72286 0.05096 0.54231 0.0
C1372 C 0.61899 0.15478 0.62488 0.0
C1373 C 0.58631 0.1682 0.61347 0.0
C1374 C 0.63837 0.13184 0.60318 0.0
C1375 C 0.62584 0.12237 0.56924 0.0
C1376 C 0.59425 0.13792 0.55716 0.0
C1377 C 0.57454 0.16007 0.57921 0.0
C1378 C 0.6392 0.04183 0.51005 0.0
C1379 C 0.6747 0.03378 0.51657 0.0
C1380 C 0.62366 0.07132 0.52609 0.0
C1381 C 0.64367 0.09401 0.54813 0.0
C1382 C 0.6801 0.08713 0.55217 0.0
C1383 C 0.69526 0.05683 0.53718 0.0
H1384 H 0.2137 0.09819 0.66347 0.0
H1385 H 0.30318 0.07673 0.73106 0.0
H1386 H 0.25346 0.12679 0.62006 0.0
H1387 H 0.34266 0.10354 0.68747 0.0
H1388 H 0.41221 0.13314 0.60475 0.0
H1389 H 0.36172 0.09488 0.61766 0.0
H1390 H 0.29644 0.18719 0.63424 0.0
H1391 H 0.34717 0.22538 0.62141 0.0
C1392 C 0.24191 0.09874 0.66853 0.0
C1393 C 0.25549 0.08542 0.7006 0.0
C1394 C 0.26454 0.11504 0.64377 0.0
C1395 C 0.30115 0.11693 0.65023 0.0
C1396 C 0.31466 0.10192 0.68151 0.0
C1397 C 0.29207 0.0868 0.70658 0.0
C1398 C 0.38644 0.14522 0.60824 0.0
C1399 C 0.38354 0.18215 0.61185 0.0
C1400 C 0.35762 0.1233 0.61628 0.0
C1401 C 0.32539 0.13811 0.62758 0.0
C1402 C 0.32093 0.17506 0.6255 0.0
C1403 C 0.34993 0.19698 0.61784 0.0
H1404 H 0.37507 0.50047 0.4949 0.0
H1405 H 0.27525 0.47519 0.54384 0.0
H1406 H 0.40576 0.46553 0.53944 0.0
H1407 H 0.30553 0.44431 0.59133 0.0
H1408 H 0.37201 0.35463 0.64073 0.0
H1409 H 0.33468 0.39808 0.61288 0.0
H1410 H 0.42605 0.46548 0.59613 0.0
H1411 H 0.46357 0.41914 0.62027 0.0
C1412 C 0.3597 0.48662 0.51484 0.0
C1413 C 0.32294 0.49042 0.51618 0.0
C1414 C 0.37729 0.46779 0.5414 0.0
C1415 C 0.3585 0.45325 0.57038 0.0
C1416 C 0.32131 0.45509 0.56997 0.0
C1417 C 0.30379 0.47276 0.54267 0.0
C1418 C 0.3838 0.3797 0.63297 0.0
C1419 C 0.42068 0.3827 0.63018 0.0
C1420 C 0.36233 0.40464 0.61618 0.0
C1421 C 0.37773 0.43417 0.59922 0.0
C1422 C 0.41363 0.44164 0.60619 0.0
C1423 C 0.43513 0.41578 0.62161 0.0
H1424 H 0.82568 0.78706 0.61031 0.0
H1425 H 0.72878 0.76143 0.66549 0.0
H1426 H 0.85591 0.73899 0.64153 0.0
H1427 H 0.75914 0.71422 0.69726 0.0
H1428 H 0.80061 0.60172 0.6689 0.0
H1429 H 0.77712 0.66025 0.66039 0.0
H1430 H 0.87409 0.70563 0.7005 0.0
H1431 H 0.89735 0.64567 0.71058 0.0
C1432 C 0.81128 0.77213 0.63013 0.0
C1433 C 0.77479 0.77716 0.63491 0.0
C1434 C 0.82861 0.74481 0.64813 0.0
C1435 C 0.80955 0.72266 0.67121 0.0
C1436 C 0.77417 0.73069 0.67914 0.0
C1437 C 0.75683 0.75756 0.6609 0.0
C1438 C 0.8165 0.62367 0.67723 0.0
C1439 C 0.85032 0.61862 0.69123 0.0
C1440 C 0.8031 0.65752 0.67221 0.0
C1441 C 0.82353 0.68743 0.68054 0.0
C1442 C 0.8577 0.68286 0.69429 0.0
C1443 C 0.87094 0.64862 0.69984 0.0
H1444 H 0.83156 0.24191 0.92041 0.0
H1445 H 0.73543 0.28401 0.87482 0.0
H1446 H 0.86578 0.28763 0.88957 0.0
H1447 H 0.76992 0.32856 0.84322 0.0
H1448 H 0.86409 0.42398 0.87859 0.0
H1449 H 0.83505 0.37036 0.90066 0.0
H1450 H 0.8463 0.32121 0.79794 0.0
H1451 H 0.87538 0.37509 0.77544 0.0
C1452 C 0.8178 0.26059 0.90377 0.0
C1453 C 0.78076 0.26015 0.90116 0.0
C1454 C 0.83739 0.28633 0.8858 0.0
C1455 C 0.82012 0.31118 0.86435 0.0
C1456 C 0.7835 0.30933 0.85967 0.0
C1457 C 0.76392 0.28402 0.87798 0.0
C1458 C 0.86077 0.40159 0.86086 0.0
C1459 C 0.87194 0.4034 0.82545 0.0
C1460 C 0.8443 0.3711 0.87346 0.0
C1461 C 0.83922 0.34201 0.85093 0.0
C1462 C 0.85042 0.34353 0.81558 0.0
C1463 C 0.86674 0.37421 0.80283 0.0
H1464 H 0.50335 0.92339 0.27807 0.0
H1465 H 0.51933 0.00765 0.35378 0.0
H1466 H 0.5381 0.88304 0.31479 0.0
H1467 H 0.55405 0.96738 0.39076 0.0
H1468 H 0.58519 0.89091 0.46743 0.0
H1469 H 0.53949 0.91259 0.42743 0.0
H1470 H 0.60016 0.87503 0.33794 0.0
H1471 H 0.64542 0.85304 0.3782 0.0
C1472 C 0.51519 0.93347 0.3021 0.0
C1473 C 0.50904 0.96867 0.31289 0.0
C1474 C 0.53465 0.91028 0.32331 0.0
C1475 C 0.54779 0.92176 0.3561 0.0
C1476 C 0.54329 0.95755 0.36602 0.0
C1477 C 0.52422 0.98087 0.3445 0.0
C1478 C 0.58743 0.88487 0.43942 0.0
C1479 C 0.61928 0.87165 0.42567 0.0
C1480 C 0.56177 0.89823 0.41643 0.0
C1481 C 0.5674 0.89724 0.37961 0.0
C1482 C 0.59554 0.8769 0.36623 0.0
C1483 C 0.62115 0.86356 0.38938 0.0
H1484 H 0.12028 0.15968 0.78003 0.0
H1485 H 0.10375 0.0943 0.87214 0.0
H1486 H 0.13423 0.21016 0.81821 0.0
H1487 H 0.11893 0.14437 0.91031 0.0
H1488 H 0.23716 0.20327 0.91815 0.0
H1489 H 0.19309 0.16418 0.89132 0.0
H1490 H 0.1185 0.25065 0.88732 0.0
H1491 H 0.1625 0.2899 0.91556 0.0
C1492 C 0.11695 0.15679 0.80842 0.0
C1493 C 0.1114 0.12295 0.82312 0.0
C1494 C 0.12543 0.18563 0.83033 0.0
C1495 C 0.1284 0.18085 0.86712 0.0
C1496 C 0.11688 0.14868 0.88199 0.0
C1497 C 0.10765 0.1201 0.86007 0.0
C1498 C 0.21121 0.21386 0.91212 0.0
C1499 C 0.20328 0.24959 0.91898 0.0
C1500 C 0.18592 0.19145 0.897 0.0
C1501 C 0.15235 0.20437 0.88762 0.0
C1502 C 0.14407 0.24002 0.89471 0.0
C1503 C 0.16921 0.26235 0.91083 0.0
H1504 H 0.91478 0.15405 0.91988 0.0
H1505 H 0.84502 0.0638 0.92711 0.0
H1506 H 0.96511 0.11544 0.92282 0.0
H1507 H 0.89501 0.0251 0.93598 0.0
H1508 H 0.98784 0.96846 0.88427 0.0
H1509 H 0.93811 0.99505 0.91294 0.0
H1510 H 0.00484 0.08137 0.94907 0.0
H1511 H 0.05376 0.05652 0.91543 0.0
C1512 C 0.91017 0.12582 0.92277 0.0
C1513 C 0.87574 0.11206 0.92432 0.0
C1514 C 0.93927 0.10345 0.92569 0.0
C1515 C 0.93489 0.06665 0.93118 0.0
C1516 C 0.90017 0.05302 0.93206 0.0
C1517 C 0.87111 0.07534 0.92754 0.0
C1518 C 0.9923 0.99248 0.89947 0.0
C1519 C 0.0236 0.01205 0.89537 0.0
C1520 C 0.96334 0.00817 0.91602 0.0
C1521 C 0.96634 0.04267 0.93019 0.0
C1522 C 0.00065 0.05658 0.93519 0.0
C1523 C 0.02913 0.04184 0.91688 0.0
H1524 H 0.64484 0.40781 0.15628 0.0
H1525 H 0.63403 0.33321 0.24238 0.0
H1526 H 0.67404 0.36318 0.1207 0.0
H1527 H 0.66159 0.28705 0.20558 0.0
H1528 H 0.75307 0.23277 0.14024 0.0
H1529 H 0.71796 0.27038 0.17958 0.0
H1530 H 0.66084 0.31091 0.08896 0.0
H1531 H 0.69726 0.27494 0.04974 0.0
C1532 C 0.64909 0.38181 0.16772 0.0
C1533 C 0.63816 0.37424 0.20242 0.0
C1534 C 0.66511 0.3559 0.147 0.0
C1535 C 0.66979 0.32132 0.16008 0.0
C1536 C 0.65855 0.3135 0.19481 0.0
C1537 C 0.64269 0.33978 0.2158 0.0
C1538 C 0.73262 0.24939 0.12889 0.0
C1539 C 0.72825 0.25159 0.09195 0.0
C1540 C 0.71241 0.27081 0.15143 0.0
C1541 C 0.68717 0.29428 0.13734 0.0
C1542 C 0.6809 0.29402 0.10057 0.0
C1543 C 0.70155 0.27327 0.07809 0.0
H1544 H 0.67446 0.11126 0.12163 0.0
H1545 H 0.64943 0.08762 0.01266 0.0
H1546 H 0.63111 0.067 0.14091 0.0
H1547 H 0.6074 0.04281 0.03176 0.0
H1548 H 0.4954 0.04146 0.08253 0.0
H1549 H 0.55177 0.05459 0.05539 0.0
H1550 H 0.60595 0.00681 0.14435 0.0
H1551 H 0.549 0.99444 0.17196 0.0
C1552 C 0.66078 0.09549 0.1019 0.0
C1553 C 0.66544 0.10234 0.06568 0.0
C1554 C 0.63629 0.0699 0.11282 0.0
C1555 C 0.61611 0.05117 0.08757 0.0
C1556 C 0.62297 0.05641 0.05154 0.0
C1557 C 0.64721 0.08187 0.04069 0.0
C1558 C 0.51931 0.03243 0.09557 0.0
C1559 C 0.51799 0.01794 0.12967 0.0
C1560 C 0.55178 0.03979 0.07999 0.0
C1561 C 0.5834 0.03261 0.09834 0.0
C1562 C 0.58195 0.01337 0.13013 0.0
C1563 C 0.54929 0.00592 0.14571 0.0
H1564 H 0.47103 0.52599 0.16928 0.0
H1565 H 0.53986 0.44377 0.12954 0.0
H1566 H 0.42022 0.4967 0.14077 0.0
H1567 H 0.48982 0.41502 0.10074 0.0
H1568 H 0.39229 0.34619 0.10425 0.0
H1569 H 0.43952 0.38251 0.12918 0.0
H1570 H 0.39342 0.4761 0.08205 0.0
H1571 H 0.34575 0.43936 0.05778 0.0
C1572 C 0.47536 0.50239 0.15345 0.0
C1573 C 0.509 0.4868 0.15167 0.0
C1574 C 0.44641 0.48554 0.13738 0.0
C1575 C 0.45107 0.45309 0.11945 0.0
C1576 C 0.48534 0.43942 0.11529 0.0
C1577 C 0.51398 0.45601 0.13141 0.0
C1578 C 0.39196 0.37454 0.09953 0.0
C1579 C 0.36562 0.3901 0.07847 0.0
C1580 C 0.41917 0.3953 0.11354 0.0
C1581 C 0.4205 0.43202 0.10688 0.0
C1582 C 0.39321 0.44785 0.08739 0.0
C1583 C 0.36616 0.42693 0.07323 0.0
H1584 H 0.93044 0.62182 0.23602 0.0
H1585 H 0.0286 0.62472 0.29432 0.0
H1586 H 0.92324 0.55946 0.25087 0.0
H1587 H 0.02056 0.56283 0.31106 0.0
H1588 H 0.02368 0.44366 0.29248 0.0
H1589 H 0.02657 0.50757 0.28501 0.0
H1590 H 0.91236 0.51326 0.28998 0.0
H1591 H 0.90957 0.44897 0.29573 0.0
C1592 C 0.94975 0.60953 0.2533 0.0
C1593 C 0.98008 0.62832 0.26401 0.0
C1594 C 0.94572 0.57353 0.26177 0.0
C1595 C 0.97164 0.55551 0.28172 0.0
C1596 C 0.00055 0.57524 0.29472 0.0
C1597 C 0.0049 0.61101 0.28567 0.0
C1598 C -0.00084 0.45853 0.29196 0.0
C1599 C 0.96639 0.44104 0.29452 0.0
C1600 C 0.00079 0.49543 0.28804 0.0
C1601 C 0.9697 0.51609 0.28708 0.0
C1602 C 0.93691 0.49849 0.29006 0.0
C1603 C 0.93528 0.46149 0.29354 0.0
H1604 H 0.67391 0.79943 0.95185 0.0
H1605 H 0.65626 0.69325 0.99109 0.0
H1606 H 0.735 0.79668 0.9709 0.0
H1607 H 0.71813 0.69073 0.0109 0.0
H1608 H 0.84275 0.68979 0.00975 0.0
H1609 H 0.78053 0.6886 0.99129 0.0
H1610 H 0.76921 0.79782 0.02396 0.0
H1611 H 0.83093 0.79924 0.04161 0.0
C1612 C 0.68292 0.7754 0.9647 0.0
C1613 C 0.65963 0.74665 0.97007 0.0
C1614 C 0.71821 0.77393 0.97592 0.0
C1615 C 0.7318 0.74365 0.99293 0.0
C1616 C 0.7088 0.7145 0.99781 0.0
C1617 C 0.67318 0.71602 0.98665 0.0
C1618 C 0.82697 0.71355 0.013 0.0
C1619 C 0.84231 0.74473 0.02688 0.0
C1620 C 0.79112 0.7128 0.00258 0.0
C1621 C 0.7696 0.74323 0.00568 0.0
C1622 C 0.78487 0.77404 0.02033 0.0
C1623 C 0.82049 0.77479 0.03068 0.0
H1624 H 0.06824 0.11882 0.27919 0.0
H1625 H 0.97864 0.12393 0.20843 0.0
H1626 H 0.07547 0.05612 0.26565 0.0
H1627 H 0.98707 0.06181 0.19313 0.0
H1628 H 0.97834 0.94406 0.20753 0.0
H1629 H 0.97635 0.0073 0.21827 0.0
H1630 H 0.09043 0.00942 0.22771 0.0
H1631 H 0.09195 0.94499 0.21895 0.0
C1632 C 0.05074 0.10682 0.25984 0.0
C1633 C 0.02272 0.12641 0.24498 0.0
C1634 C 0.05491 0.0707 0.25204 0.0
C1635 C 0.0315 0.05336 0.22872 0.0
C1636 C 0.00497 0.07372 0.21212 0.0
C1637 C 0.00037 0.1096 0.22046 0.0
C1638 C 0.00306 0.95801 0.21182 0.0
C1639 C 0.03536 0.9396 0.21208 0.0
C1640 C 0.00198 0.99453 0.21767 0.0
C1641 C 0.03328 0.01404 0.22314 0.0
C1642 C 0.0657 0.99546 0.2238 0.0
C1643 C 0.06669 0.95855 0.21864 0.0
H1644 H 0.33625 0.70403 0.94381 0.0
H1645 H 0.33957 0.77191 0.03578 0.0
H1646 H 0.2714 0.70371 0.94664 0.0
H1647 H 0.27558 0.77085 0.03939 0.0
H1648 H 0.15839 0.78801 0.02702 0.0
H1649 H 0.22199 0.78965 0.01867 0.0
H1650 H 0.2189 0.68419 0.97392 0.0
H1651 H 0.15443 0.68361 0.98033 0.0
C1652 C 0.32331 0.71888 0.96469 0.0
C1653 C 0.34379 0.73792 0.98956 0.0
C1654 C 0.28579 0.71852 0.96654 0.0
C1655 C 0.2672 0.73725 0.9933 0.0
C1656 C 0.28797 0.75648 0.01786 0.0
C1657 C 0.32523 0.75688 0.01596 0.0
C1658 C 0.17101 0.76508 0.01518 0.0
C1659 C 0.15056 0.73537 0.00504 0.0
C1660 C 0.20807 0.76586 0.01068 0.0
C1661 C 0.22676 0.7368 0.99612 0.0
C1662 C 0.20619 0.70734 0.98513 0.0
C1663 C 0.16887 0.70676 0.98926 0.0
H1664 H 0.22186 0.99875 0.39643 0.0
H1665 H 0.32952 0.97711 0.42752 0.0
H1666 H 0.20484 0.00406 0.45905 0.0
H1667 H 0.3128 0.98334 0.49023 0.0
H1668 H 0.25638 0.03761 0.5938 0.0
H1669 H 0.27626 0.04013 0.53164 0.0
H1670 H 0.21481 0.94641 0.5082 0.0
H1671 H 0.19575 0.94318 0.56976 0.0
C1672 C 0.24174 0.99536 0.41685 0.0
C1673 C 0.27675 0.98735 0.40797 0.0
C1674 C 0.23219 0.9987 0.45227 0.0
C1675 C 0.25776 0.99445 0.47881 0.0
C1676 C 0.293 0.98724 0.46983 0.0
C1677 C 0.30245 0.9835 0.43436 0.0
C1678 C 0.24736 0.0176 0.57524 0.0
C1679 C 0.22491 0.99004 0.5863 0.0
C1680 C 0.25867 0.01903 0.54004 0.0
C1681 C 0.24672 0.9935 0.51579 0.0
C1682 C 0.22406 0.96632 0.52678 0.0
C1683 C 0.21346 0.9644 0.56188 0.0
H1684 H 0.30684 0.466 0.82024 0.0
H1685 H 0.19768 0.49654 0.83268 0.0
H1686 H 0.30269 0.47732 0.75654 0.0
H1687 H 0.19388 0.51004 0.76989 0.0
H1688 H 0.18366 0.50134 0.64938 0.0
H1689 H 0.18822 0.48996 0.71302 0.0
H1690 H 0.29977 0.51504 0.7092 0.0
H1691 H 0.29532 0.52478 0.64588 0.0
C1692 C 0.28211 0.47574 0.80954 0.0
C1693 C 0.25259 0.48001 0.83191 0.0
C1694 C 0.27962 0.48248 0.77272 0.0
C1695 C 0.2477 0.49451 0.75701 0.0
C1696 C 0.21868 0.4999 0.77995 0.0
C1697 C 0.22098 0.49247 0.81644 0.0
C1698 C 0.20916 0.50432 0.66212 0.0
C1699 C 0.23904 0.51386 0.64194 0.0
C1700 C 0.21188 0.49804 0.69901 0.0
C1701 C 0.24454 0.50133 0.71725 0.0
C1702 C 0.27422 0.51131 0.69684 0.0
C1703 C 0.27154 0.5173 0.6601 0.0
H1704 H 0.77426 0.5889 0.58435 0.0
H1705 H 0.76417 0.47581 0.56792 0.0
H1706 H 0.7726 0.59796 0.51981 0.0
H1707 H 0.76229 0.48482 0.50457 0.0
H1708 H 0.79274 0.49908 0.39437 0.0
H1709 H 0.80308 0.50145 0.45804 0.0
H1710 H 0.73367 0.59205 0.46635 0.0
H1711 H 0.72426 0.59032 0.40213 0.0
C1712 C 0.77132 0.56607 0.56713 0.0
C1713 C 0.76964 0.53161 0.58145 0.0
C1714 C 0.77049 0.57125 0.53017 0.0
C1715 C 0.76822 0.54205 0.5069 0.0
C1716 C 0.76522 0.50788 0.5215 0.0
C1717 C 0.76594 0.50274 0.55806 0.0
C1718 C 0.78073 0.52032 0.40957 0.0
C1719 C 0.75764 0.54443 0.3932 0.0
C1720 C 0.78624 0.52142 0.44618 0.0
C1721 C 0.76834 0.54629 0.46752 0.0
C1722 C 0.74781 0.57251 0.45076 0.0
C1723 C 0.7426 0.57165 0.41388 0.0
H1724 H 0.70987 0.99779 0.84217 0.0
H1725 H 0.79982 0.06794 0.83551 0.0
H1726 H 0.71494 0.98534 0.7783 0.0
H1727 H 0.80429 0.05622 0.77198 0.0
H1728 H 0.77306 0.06514 0.65492 0.0
H1729 H 0.76727 0.07119 0.71877 0.0
H1730 H 0.75614 0.95782 0.72886 0.0
H1731 H 0.76241 0.95149 0.66398 0.0
C1732 C 0.73089 0.01041 0.82725 0.0
C1733 C 0.75448 0.0339 0.84446 0.0
C1734 C 0.73385 0.00315 0.7905 0.0
C1735 C 0.75991 0.01988 0.76949 0.0
C1736 C 0.78367 0.04296 0.7869 0.0
C1737 C 0.78124 0.04955 0.82363 0.0
C1738 C 0.76942 0.04124 0.67041 0.0
C1739 C 0.76855 0.00773 0.65364 0.0
C1740 C 0.76622 0.0448 0.7074 0.0
C1741 C 0.76166 0.01508 0.72952 0.0
C1742 C 0.7596 0.98144 0.7129 0.0
C1743 C 0.76322 0.97779 0.67556 0.0
H1744 H 0.27628 0.09104 0.09158 0.0
H1745 H 0.23617 0.98378 0.08614 0.0
H1746 H 0.27017 0.09641 0.02713 0.0
H1747 H 0.22986 0.9893 0.02224 0.0
H1748 H 0.27269 0.98824 0.91178 0.0
H1749 H 0.2764 0.99166 0.97594 0.0
H1750 H 0.22871 0.0957 0.97381 0.0
H1751 H 0.225 0.09241 0.90899 0.0
C1752 C 0.26513 0.06903 0.07686 0.0
C1753 C 0.25711 0.03681 0.094 0.0
C1754 C 0.26184 0.07206 0.0399 0.0
C1755 C 0.2505 0.04293 0.01951 0.0
C1756 C 0.23969 0.01187 0.03708 0.0
C1757 C 0.24297 0.00883 0.0738 0.0
C1758 C 0.26356 0.01219 0.92478 0.0
C1759 C 0.24826 0.0399 0.90513 0.0
C1760 C 0.26533 0.01398 0.96167 0.0
C1761 C 0.25193 0.04353 0.98004 0.0
C1762 C 0.23901 0.07247 0.9604 0.0
C1763 C 0.23712 0.07065 0.92325 0.0
H1764 H 0.28976 0.57599 0.31925 0.0
H1765 H 0.21655 0.49015 0.33779 0.0
H1766 H 0.29132 0.56113 0.25607 0.0
H1767 H 0.21874 0.47474 0.27458 0.0
H1768 H 0.27303 0.43282 0.17021 0.0
H1769 H 0.26387 0.45005 0.23182 0.0
H1770 H 0.25339 0.55938 0.19987 0.0
H1771 H 0.262 0.54186 0.13748 0.0
C1772 C 0.27405 0.55382 0.30992 0.0
C1773 C 0.25324 0.53414 0.33397 0.0
C1774 C 0.27471 0.54549 0.27349 0.0
C1775 C 0.25518 0.51668 0.25986 0.0
C1776 C 0.23429 0.49701 0.28392 0.0
C1777 C 0.23297 0.50589 0.32027 0.0
C1778 C 0.26825 0.46055 0.17606 0.0
C1779 C 0.26825 0.48588 0.1485 0.0
C1780 C 0.26288 0.47043 0.21162 0.0
C1781 C 0.25801 0.50619 0.22122 0.0
C1782 C 0.25733 0.5316 0.19365 0.0
C1783 C 0.26197 0.52155 0.15777 0.0
H1784 H 0.69912 0.42098 0.06917 0.0
H1785 H 0.77938 0.50104 0.08666 0.0
H1786 H 0.70842 0.42565 0.00554 0.0
H1787 H 0.78931 0.50492 0.02305 0.0
H1788 H 0.77212 0.53173 0.908 0.0
H1789 H 0.75808 0.52689 0.97093 0.0
H1790 H 0.75198 0.41276 0.96076 0.0
H1791 H 0.76478 0.4175 0.89803 0.0
C1792 C 0.71924 0.43904 0.05949 0.0
C1793 C 0.73847 0.4607 0.0829 0.0
C1794 C 0.72448 0.44178 0.02304 0.0
C1795 C 0.74923 0.466 0.00938 0.0
C1796 C 0.76944 0.48664 0.03284 0.0
C1797 C 0.76408 0.48405 0.06927 0.0
C1798 C 0.76711 0.5057 0.91909 0.0
C1799 C 0.76971 0.47502 0.8981 0.0
C1800 C 0.75947 0.50289 0.95515 0.0
C1801 C 0.75441 0.4694 0.97076 0.0
C1802 C 0.75552 0.43893 0.94943 0.0
C1803 C 0.76299 0.4417 0.91346 0.0
H1804 H 0.67545 0.01786 0.16123 0.0
H1805 H 0.78291 0.98077 0.15164 0.0
H1806 H 0.6809 0.01631 0.22604 0.0
H1807 H 0.78816 0.97829 0.21571 0.0
H1808 H 0.79915 0.99541 0.33479 0.0
H1809 H 0.79392 0.00617 0.27095 0.0
H1810 H 0.68316 0.97846 0.27557 0.0
H1811 H 0.68822 0.96873 0.33898 0.0
C1812 C 0.70033 0.00965 0.17278 0.0
C1813 C 0.72861 -0.00057 0.15064 0.0
C1814 C 0.70346 0.00837 0.21023 0.0
C1815 C 0.73504 0.99694 0.22699 0.0
C1816 C 0.76349 0.98768 0.20459 0.0
C1817 C 0.76033 0.98886 0.16739 0.0
C1818 C 0.7736 0.99191 0.32229 0.0
C1819 C 0.74426 0.98099 0.34266 0.0
C1820 C 0.77055 0.99784 0.28532 0.0
C1821 C 0.73804 0.99308 0.26719 0.0
C1822 C 0.70862 0.98298 0.2879 0.0
C1823 C 0.71166 0.97707 0.32469 0.0
H1824 H 0.57978 0.25021 0.03939 0.0
H1825 H 0.58978 0.23304 0.92648 0.0
H1826 H 0.51601 0.25573 0.03287 0.0
H1827 H 0.52576 0.23774 0.92014 0.0
H1828 H 0.41117 0.28484 0.92333 0.0
H1829 H 0.47532 0.27741 0.92399 0.0
H1830 H 0.46704 0.2166 0.02071 0.0
H1831 H 0.40321 0.2248 0.02057 0.0
C1832 C 0.56844 0.24788 0.01313 0.0
C1833 C 0.58997 0.24102 0.98353 0.0
C1834 C 0.53179 0.25063 0.00942 0.0
C1835 C 0.51566 0.24639 0.97607 0.0
C1836 C 0.53729 0.24112 0.9462 0.0
C1837 C 0.57405 0.23851 0.94987 0.0
C1838 C 0.42297 0.26912 0.94424 0.0
C1839 C 0.40213 0.25572 0.9721 0.0
C1840 C 0.45979 0.26499 0.9447 0.0
C1841 C 0.47641 0.2472 0.9729 0.0
C1842 C 0.45521 0.23144 -0.0008 0.0
C1843 C 0.41854 0.23576 -0.00111 0.0
H1844 H 0.59324 0.76092 0.46847 0.0
H1845 H 0.59057 0.76989 0.58285 0.0
H1846 H 0.53398 0.73562 0.46928 0.0
H1847 H 0.53097 0.74614 0.58347 0.0
H1848 H 0.42862 0.68475 0.57534 0.0
H1849 H 0.49229 0.69687 0.57377 0.0
H1850 H 0.4775 0.76103 0.47984 0.0
H1851 H 0.41485 0.74755 0.48059 0.0
C1852 C 0.58006 0.75738 0.49375 0.0
C1853 C 0.59627 0.76784 0.52552 0.0
C1854 C 0.54612 0.74302 0.49422 0.0
C1855 C 0.52768 0.73939 0.52641 0.0
C1856 C 0.54459 0.74829 0.55829 0.0
C1857 C 0.57866 0.76222 0.55787 0.0
C1858 C 0.43926 0.7014 0.55449 0.0
C1859 C 0.41717 0.71532 0.52814 0.0
C1860 C 0.47553 0.70828 0.55349 0.0
C1861 C 0.4899 0.72964 0.52648 0.0
C1862 C 0.46747 0.74366 0.50039 0.0
C1863 C 0.43154 0.73629 0.50104 0.0
H1864 H 0.99056 0.34586 0.69108 0.0
H1865 H 0.00402 0.3493 0.80462 0.0
H1866 H -0.00218 0.28125 0.6924 0.0
H1867 H 0.01232 0.28558 0.80594 0.0
H1868 H 0.05364 0.17334 0.70131 0.0
H1869 H 0.03984 0.23614 0.6993 0.0
H1870 H 0.98965 0.22827 0.80194 0.0
H1871 H 0.00483 0.16521 0.80445 0.0
C1872 C 0.99496 0.33293 0.71632 0.0
C1873 C 0.99687 0.35319 0.74764 0.0
C1874 C -0.00056 0.29572 0.71715 0.0
C1875 C 0.00602 0.27754 0.74933 0.0
C1876 C 0.00692 0.29794 0.78063 0.0
C1877 C 0.00238 0.33491 0.7798 0.0
C1878 C 0.03956 0.18481 0.72355 0.0
C1879 C 0.03048 0.16376 0.75313 0.0
C1880 C 0.03131 0.22114 0.72222 0.0
C1881 C 0.01338 0.23799 0.75033 0.0
C1882 C 0.00395 0.21682 0.77986 0.0
C1883 C 0.01252 0.18038 0.78132 0.0
H1884 H 0.57946 0.67134 0.18772 0.0
H1885 H 0.50585 0.6625 0.27473 0.0
H1886 H 0.56458 0.7342 0.18153 0.0
H1887 H 0.49142 0.72521 0.26901 0.0
H1888 H 0.44582 0.83011 0.23031 0.0
H1889 H 0.46141 0.76763 0.23435 0.0
H1890 H 0.56916 0.79281 0.20578 0.0
H1891 H 0.55318 0.85567 0.20103 0.0
C1892 C 0.56006 0.68267 0.20558 0.0
C1893 C 0.54375 0.66124 0.23156 0.0
C1894 C 0.55166 0.71906 0.2022 0.0
C1895 C 0.52649 0.73545 0.22457 0.0
C1896 C 0.5104 0.71394 0.25068 0.0
C1897 C 0.51888 0.67767 0.25413 0.0
C1898 C 0.47288 0.8225 0.22466 0.0
C1899 C 0.49811 0.84846 0.21522 0.0
C1900 C 0.48198 0.78635 0.22731 0.0
C1901 C 0.51679 0.77446 0.22072 0.0
C1902 C 0.54199 0.8004 0.21076 0.0
C1903 C 0.53283 0.83671 0.20809 0.0
H1904 H 0.92177 0.73356 0.5176 0.0
H1905 H 0.91014 0.79293 0.42042 0.0
H1906 H 0.98537 0.73053 0.50824 0.0
H1907 H 0.97471 0.78967 0.411 0.0
H1908 H 0.09261 0.77944 0.51367 0.0
H1909 H 0.02896 0.78851 0.50839 0.0
H1910 H 0.02934 0.73563 0.40697 0.0
H1911 H 0.09353 0.72651 0.41208 0.0
C1912 C 0.93276 0.74547 0.49388 0.0
C1913 C 0.91094 0.76376 0.46995 0.0
C1914 C 0.96922 0.74386 0.48863 0.0
C1915 C 0.98498 0.76049 0.45933 0.0
C1916 C 0.96314 0.77676 0.4339 0.0
C1917 C 0.92627 0.77842 0.43919 0.0
C1918 C 0.07943 0.77078 0.48967 0.0
C1919 C 0.09814 0.75209 0.46344 0.0
C1920 C 0.04295 0.77582 0.48673 0.0
C1921 C 0.02422 0.76226 0.45755 0.0
C1922 C 0.04321 0.74642 0.42968 0.0
C1923 C 0.07997 0.7414 0.43257 0.0
H1924 H 0.03503 0.84367 0.69717 0.0
H1925 H -0.00056 0.85146 0.80547 0.0
H1926 H 0.02236 0.78046 0.69719 0.0
H1927 H 0.98925 0.78769 0.8067 0.0
H1928 H 0.94174 0.67807 0.79214 0.0
H1929 H 0.95496 0.74093 0.79167 0.0
H1930 H 0.03538 0.72315 0.71203 0.0
H1931 H 0.02027 0.66002 0.71118 0.0
C1932 C 0.02472 0.83191 0.72125 0.0
C1933 C 0.01852 0.85318 0.75144 0.0
C1934 C 0.01782 0.79513 0.72143 0.0
C1935 C 0.00468 0.77786 0.75195 0.0
C1936 C -0.00131 0.7993 0.78224 0.0
C1937 C 0.00513 0.83621 0.78185 0.0
C1938 C 0.96244 0.6874 0.77458 0.0
C1939 C 0.97996 0.66347 0.75182 0.0
C1940 C 0.97032 0.72389 0.77446 0.0
C1941 C 0.99661 0.73818 0.75201 0.0
C1942 C 0.01451 0.71402 0.72942 0.0
C1943 C 0.00608 0.67742 0.72908 0.0
H1944 H 0.53147 0.11342 0.76979 0.0
H1945 H 0.42053 0.11683 0.74224 0.0
H1946 H 0.52511 0.05193 0.78783 0.0
H1947 H 0.41446 0.0547 0.75898 0.0
H1948 H 0.41099 0.94613 0.81388 0.0
H1949 H 0.41443 0.01029 0.80423 0.0
H1950 H 0.51848 0.99736 0.75819 0.0
H1951 H 0.51562 0.9341 0.76928 0.0
C1952 C 0.50561 0.10117 0.76793 0.0
C1953 C 0.47657 0.12007 0.75441 0.0
C1954 C 0.50202 0.06571 0.77792 0.0
C1955 C 0.46941 0.04804 0.77424 0.0
C1956 C 0.43992 0.06744 0.76237 0.0
C1957 C 0.44344 0.10311 0.75269 0.0
C1958 C 0.43455 0.95717 0.80177 0.0
C1959 C 0.46312 0.93518 0.79259 0.0
C1960 C 0.43652 0.99388 0.79614 0.0
C1961 C 0.46692 0.00916 0.7808 0.0
C1962 C 0.49509 0.98682 0.77103 0.0
C1963 C 0.49334 0.95041 0.77713 0.0
H1964 H 0.15223 0.19502 0.49177 0.0
H1965 H 0.16163 0.30473 0.46058 0.0
H1966 H 0.21493 0.19427 0.50764 0.0
H1967 H 0.22422 0.30379 0.4753 0.0
H1968 H 0.32804 0.30477 0.53584 0.0
H1969 H 0.26561 0.3039 0.52069 0.0
H1970 H 0.27462 0.19406 0.48917 0.0
H1971 H 0.33724 0.19471 0.5057 0.0
C1972 C 0.16758 0.21903 0.48818 0.0
C1973 C 0.15128 0.25002 0.47506 0.0
C1974 C 0.2039 0.21854 0.49706 0.0
C1975 C 0.22537 0.24902 0.49312 0.0
C1976 C 0.20898 0.27985 0.47961 0.0
C1977 C 0.17276 0.28035 0.47084 0.0
C1978 C 0.31691 0.28034 0.52557 0.0
C1979 C 0.33826 0.24987 0.52188 0.0
C1980 C 0.28077 0.27989 0.51658 0.0
C1981 C 0.26434 0.24899 0.50322 0.0
C1982 C 0.2857 0.21839 0.49966 0.0
C1983 C 0.32195 0.21879 0.50892 0.0
H1984 H 0.57376 0.61492 0.76483 0.0
H1985 H 0.46914 0.61815 0.71886 0.0
H1986 H 0.57701 0.55133 0.75257 0.0
H1987 H 0.47172 0.55497 0.70799 0.0
H1988 H 0.4896 0.44405 0.67343 0.0
H1989 H 0.49564 0.50782 0.67654 0.0
H1990 H 0.5515 0.49781 0.77602 0.0
H1991 H 0.547 0.43308 0.7717 0.0
C1992 C 0.55186 0.60233 0.75122 0.0
C1993 C 0.5211 0.62168 0.74292 0.0
C1994 C 0.55346 0.5657 0.7448 0.0
C1995 C 0.52441 0.54773 0.72982 0.0
C1996 C 0.49479 0.56771 0.71929 0.0
C1997 C 0.49325 0.60415 0.72556 0.0
C1998 C 0.50298 0.45532 0.69614 0.0
C1999 C 0.51728 0.43342 0.72262 0.0
C2000 C 0.50649 0.49208 0.69793 0.0
C2001 C 0.52376 0.50824 0.72669 0.0
C2002 C 0.5384 0.48635 0.7532 0.0
C2003 C 0.53544 0.44927 0.75102 0.0
H2004 H 0.65541 0.28839 0.50145 0.0
H2005 H 0.65236 0.17499 0.51592 0.0
H2006 H 0.71929 0.2863 0.49562 0.0
H2007 H 0.717 0.17284 0.51164 0.0
H2008 H 0.83396 0.17557 0.47383 0.0
H2009 H 0.76924 0.17584 0.47798 0.0
H2010 H 0.77306 0.28127 0.52279 0.0
H2011 H 0.83699 0.28129 0.51739 0.0
C2012 C 0.66832 0.26284 0.50373 0.0
C2013 C 0.64804 0.23186 0.50929 0.0
C2014 C 0.7055 0.26164 0.50066 0.0
C2015 C 0.72443 0.22941 0.50336 0.0
C2016 C 0.70408 0.1983 0.50889 0.0
C2017 C 0.66666 0.1995 0.51168 0.0
C2018 C 0.82099 0.19883 0.48451 0.0
C2019 C 0.84134 0.22839 0.49515 0.0
C2020 C 0.78354 0.19897 0.48715 0.0
C2021 C 0.76487 0.22865 0.50067 0.0
C2022 C 0.78551 0.25803 0.51148 0.0
C2023 C 0.82273 0.25794 0.50863 0.0
H2024 H 0.08284 0.29775 0.07066 0.0
H2025 H 0.08449 0.26199 0.96192 0.0
H2026 H 0.01871 0.29581 0.07071 0.0
H2027 H 0.0201 0.25725 0.96252 0.0
H2028 H 0.9042 0.2739 0.96094 0.0
H2029 H 0.96698 0.28861 0.96209 0.0
H2030 H 0.97149 0.25818 0.07261 0.0
H2031 H 0.90896 0.24601 0.07203 0.0
C2032 C 0.06937 0.28838 0.04708 0.0
C2033 C 0.08848 0.27947 0.01645 0.0
C2034 C 0.03253 0.28736 0.04702 0.0
C2035 C 0.01395 0.27642 0.01661 0.0
C2036 C 0.03332 0.26667 0.98617 0.0
C2037 C 0.07022 0.2687 0.98594 0.0
C2038 C 0.91845 0.2715 0.98573 0.0
C2039 C 0.90165 0.25829 0.01624 0.0
C2040 C 0.9546 0.27934 0.98627 0.0
C2041 C 0.9747 0.27366 0.01717 0.0
C2042 C 0.95713 0.26313 0.0483 0.0
C2043 C 0.92101 0.256 0.04795 0.0
H2044 H 0.4405 0.17338 0.29259 0.0
H2045 H 0.50733 0.16633 0.20015 0.0
H2046 H 0.45197 0.23733 0.29619 0.0
H2047 H 0.51893 0.23068 0.20411 0.0
H2048 H 0.53755 0.34397 0.298 0.0
H2049 H 0.53128 0.27881 0.29423 0.0
H2050 H 0.45392 0.29071 0.21148 0.0
H2051 H 0.45967 0.35522 0.21518 0.0
C2052 C 0.45811 0.18523 0.27326 0.0
C2053 C 0.47315 0.16403 0.24621 0.0
C2054 C 0.46467 0.22211 0.27541 0.0
C2055 C 0.48676 0.23937 0.25078 0.0
C2056 C 0.50191 0.21839 0.22368 0.0
C2057 C 0.49515 0.18139 0.22136 0.0
C2058 C 0.51923 0.33282 0.27893 0.0
C2059 C 0.49912 0.35556 0.25702 0.0
C2060 C 0.51567 0.29532 0.27673 0.0
C2061 C 0.49215 0.27927 0.25239 0.0
C2062 C 0.47247 0.3019 0.23031 0.0
C2063 C 0.47582 0.33917 0.2326 0.0
loop_
_geom_bond_atom_site_label_1
_geom_bond_atom_site_label_2
_geom_bond_distance
_geom_bond_site_symmetry_2
_ccdc_geom_bond_type
Zn0 O2 1.924 1_655 S
Zn0 O20 1.985 . S
Zn0 O31 1.955 . S
Zn1 O2 1.919 . S
Zn1 O21 1.970 . S
Zn1 O37 1.945 . S
Zn1 O44 1.981 . S
O2 Zn0 1.924 1_455 S
O2 Zn1 1.919 . S
O2 H3 0.841 . S
H3 O2 0.841 . S
C4 O5 1.246 . S
C4 O33 1.276 . S
O5 C4 1.246 . S
Zn6 O8 1.911 . S
Zn6 O23 1.970 . S
Zn6 O40 1.945 . S
Zn6 O47 1.981 . S
Zn7 O8 1.933 1_655 S
Zn7 O22 1.985 . S
Zn7 O29 1.955 . S
O8 Zn6 1.911 . S
O8 Zn7 1.933 1_455 S
O8 H9 0.841 . S
H9 O8 0.841 . S
Zn10 O11 1.933 . S
Zn10 O24 1.985 . S
Zn10 O33 1.955 . S
O11 Zn10 1.933 . S
O11 Zn12 1.911 1_655 S
O11 H13 0.841 . S
Zn12 O11 1.911 1_455 S
Zn12 O25 1.970 . S
Zn12 O41 1.981 . S
Zn12 O43 1.945 . S
H13 O11 0.841 . S
Zn14 O15 1.933 1_655 S
Zn14 O27 1.985 . S
Zn14 O35 1.955 . S
O15 Zn14 1.933 1_455 S
O15 H16 0.841 . S
O15 Zn17 1.911 . S
H16 O15 0.841 . S
Zn17 O15 1.911 . S
Zn17 O28 1.970 . S
Zn17 O38 1.981 . S
Zn17 O46 1.945 . S
C18 O19 1.246 . S
C18 O35 1.276 . S
O19 C18 1.246 . S
O20 Zn0 1.985 . S
O20 C30 1.245 . S
O21 Zn1 1.970 . S
O21 C30 1.263 1_455 S
O22 Zn7 1.985 . S
O22 C34 1.245 1_655 S
O23 Zn6 1.970 . S
O23 C34 1.263 . S
O24 Zn10 1.985 . S
O24 C39 1.245 . S
O25 Zn12 1.970 . S
O25 C39 1.263 1_455 S
C26 O37 1.262 . S
C26 O38 1.245 . S
O27 Zn14 1.985 . S
O27 C45 1.245 1_655 S
O28 Zn17 1.970 . S
O28 C45 1.263 . S
O29 Zn7 1.955 . S
O29 C48 1.276 . S
C30 O20 1.245 . S
C30 O21 1.263 1_655 S
O31 Zn0 1.955 . S
O31 C50 1.276 . S
C32 O40 1.262 . S
C32 O41 1.245 . S
O33 C4 1.276 . S
O33 Zn10 1.955 . S
C34 O22 1.245 1_455 S
C34 O23 1.263 . S
O35 Zn14 1.955 . S
O35 C18 1.276 . S
C36 O43 1.262 . S
C36 O44 1.245 . S
O37 Zn1 1.945 . S
O37 C26 1.262 . S
O38 Zn17 1.981 . S
O38 C26 1.245 . S
C39 O24 1.245 . S
C39 O25 1.263 1_655 S
O40 Zn6 1.945 . S
O40 C32 1.262 . S
O41 Zn12 1.981 . S
O41 C32 1.245 . S
C42 O46 1.262 . S
C42 O47 1.245 . S
O43 Zn12 1.945 . S
O43 C36 1.262 . S
O44 Zn1 1.981 . S
O44 C36 1.245 . S
C45 O27 1.245 1_455 S
C45 O28 1.263 . S
O46 Zn17 1.945 . S
O46 C42 1.262 . S
O47 Zn6 1.981 . S
O47 C42 1.245 . S
C48 O29 1.276 . S
C48 O49 1.246 . S
O49 C48 1.246 . S
C50 O31 1.276 . S
C50 O51 1.246 . S
O51 C50 1.246 . S
Zn52 O54 1.933 . S
Zn52 O72 1.985 . S
Zn52 O83 1.955 . S
Zn53 O54 1.911 . S
Zn53 O73 1.970 . S
Zn53 O89 1.945 . S
Zn53 O96 1.981 . S
O54 Zn52 1.933 . S
O54 Zn53 1.911 . S
O54 H55 0.841 . S
H55 O54 0.841 . S
C56 O57 1.246 . S
C56 O85 1.276 . S
O57 C56 1.246 . S
Zn58 O60 1.911 . S
Zn58 O75 1.970 . S
Zn58 O92 1.945 . S
Zn58 O99 1.981 . S
Zn59 O60 1.933 . S
Zn59 O74 1.985 . S
Zn59 O81 1.955 . S
O60 Zn58 1.911 . S
O60 Zn59 1.933 . S
O60 H61 0.841 . S
H61 O60 0.841 . S
Zn62 O63 1.933 . S
Zn62 O76 1.985 . S
Zn62 O85 1.955 . S
O63 Zn62 1.933 . S
O63 Zn64 1.911 . S
O63 H65 0.841 . S
Zn64 O63 1.911 . S
Zn64 O77 1.970 . S
Zn64 O93 1.981 . S
Zn64 O95 1.945 . S
H65 O63 0.841 . S
Zn66 O67 1.933 . S
Zn66 O79 1.985 . S
Zn66 O87 1.955 . S
O67 Zn66 1.933 . S
O67 H68 0.841 . S
O67 Zn69 1.911 . S
H68 O67 0.841 . S
Zn69 O67 1.911 . S
Zn69 O80 1.970 . S
Zn69 O90 1.981 . S
Zn69 O98 1.945 . S
C70 O71 1.246 . S
C70 O87 1.276 . S
O71 C70 1.246 . S
O72 Zn52 1.985 . S
O72 C82 1.245 . S
O73 Zn53 1.970 . S
O73 C82 1.263 . S
O74 Zn59 1.985 . S
O74 C86 1.245 . S
O75 Zn58 1.970 . S
O75 C86 1.263 . S
O76 Zn62 1.985 . S
O76 C91 1.245 . S
O77 Zn64 1.970 . S
O77 C91 1.263 . S
C78 O89 1.262 . S
C78 O90 1.245 . S
O79 Zn66 1.985 . S
O79 C97 1.245 . S
O80 Zn69 1.970 . S
O80 C97 1.263 . S
O81 Zn59 1.955 . S
O81 C100 1.276 . S
C82 O72 1.245 . S
C82 O73 1.263 . S
O83 Zn52 1.955 . S
O83 C102 1.276 . S
C84 O92 1.262 . S
C84 O93 1.245 . S
O85 C56 1.276 . S
O85 Zn62 1.955 . S
C86 O74 1.245 . S
C86 O75 1.263 . S
O87 Zn66 1.955 . S
O87 C70 1.276 . S
C88 O95 1.262 . S
C88 O96 1.245 . S
O89 Zn53 1.945 . S
O89 C78 1.262 . S
O90 Zn69 1.981 . S
O90 C78 1.245 . S
C91 O76 1.245 . S
C91 O77 1.263 . S
O92 Zn58 1.945 . S
O92 C84 1.262 . S
O93 Zn64 1.981 . S
O93 C84 1.245 . S
C94 O98 1.262 . S
C94 O99 1.245 . S
O95 Zn64 1.945 . S
O95 C88 1.262 . S
O96 Zn53 1.981 . S
O96 C88 1.245 . S
C97 O79 1.245 . S
C97 O80 1.263 . S
O98 Zn69 1.945 . S
O98 C94 1.262 . S
O99 Zn58 1.981 . S
O99 C94 1.245 . S
C100 O81 1.276 . S
C100 O101 1.246 . S
O101 C100 1.246 . S
C102 O83 1.276 . S
C102 O103 1.246 . S
O103 C102 1.246 . S
Zn104 O106 1.933 . S
Zn104 O124 1.985 . S
Zn104 O135 1.955 . S
Zn105 O106 1.911 1_655 S
Zn105 O125 1.970 . S
Zn105 O141 1.945 . S
Zn105 O148 1.981 . S
O106 Zn104 1.933 . S
O106 Zn105 1.911 1_455 S
O106 H107 0.841 . S
H107 O106 0.841 . S
C108 O109 1.246 . S
C108 O137 1.276 . S
O109 C108 1.246 . S
Zn110 O112 1.911 . S
Zn110 O127 1.970 . S
Zn110 O144 1.945 . S
Zn110 O151 1.981 . S
Zn111 O112 1.933 1_455 S
Zn111 O126 1.985 . S
Zn111 O133 1.955 . S
O112 Zn110 1.911 . S
O112 Zn111 1.933 1_655 S
O112 H113 0.841 . S
H113 O112 0.841 . S
Zn114 O115 1.933 1_455 S
Zn114 O128 1.985 . S
Zn114 O137 1.955 . S
O115 Zn114 1.933 1_655 S
O115 Zn116 1.911 . S
O115 H117 0.841 1_655 S
Zn116 O115 1.911 . S
Zn116 O129 1.970 . S
Zn116 O145 1.981 . S
Zn116 O147 1.945 . S
H117 O115 0.841 1_455 S
Zn118 O119 1.933 . S
Zn118 O131 1.985 . S
Zn118 O139 1.955 . S
O119 Zn118 1.933 . S
O119 H120 0.841 . S
O119 Zn121 1.911 1_455 S
H120 O119 0.841 . S
Zn121 O119 1.911 1_655 S
Zn121 O132 1.970 . S
Zn121 O142 1.981 . S
Zn121 O150 1.945 . S
C122 O123 1.246 . S
C122 O139 1.276 . S
O123 C122 1.246 . S
O124 Zn104 1.985 . S
O124 C134 1.245 . S
O125 Zn105 1.970 . S
O125 C134 1.263 1_655 S
O126 Zn111 1.985 . S
O126 C138 1.245 1_455 S
O127 Zn110 1.970 . S
O127 C138 1.263 . S
O128 Zn114 1.985 . S
O128 C143 1.245 1_455 S
O129 Zn116 1.970 . S
O129 C143 1.263 . S
C130 O141 1.262 . S
C130 O142 1.245 . S
O131 Zn118 1.985 . S
O131 C149 1.245 . S
O132 Zn121 1.970 . S
O132 C149 1.263 1_655 S
O133 Zn111 1.955 . S
O133 C152 1.276 . S
C134 O124 1.245 . S
C134 O125 1.263 1_455 S
O135 Zn104 1.955 . S
O135 C154 1.276 . S
C136 O144 1.262 . S
C136 O145 1.245 . S
O137 C108 1.276 . S
O137 Zn114 1.955 . S
C138 O126 1.245 1_655 S
C138 O127 1.263 . S
O139 Zn118 1.955 . S
O139 C122 1.276 . S
C140 O147 1.262 . S
C140 O148 1.245 . S
O141 Zn105 1.945 . S
O141 C130 1.262 . S
O142 Zn121 1.981 . S
O142 C130 1.245 . S
C143 O128 1.245 1_655 S
C143 O129 1.263 . S
O144 Zn110 1.945 . S
O144 C136 1.262 . S
O145 Zn116 1.981 . S
O145 C136 1.245 . S
C146 O150 1.262 . S
C146 O151 1.245 . S
O147 Zn116 1.945 . S
O147 C140 1.262 . S
O148 Zn105 1.981 . S
O148 C140 1.245 . S
C149 O131 1.245 . S
C149 O132 1.263 1_455 S
O150 Zn121 1.945 . S
O150 C146 1.262 . S
O151 Zn110 1.981 . S
O151 C146 1.245 . S
C152 O133 1.276 . S
C152 O153 1.246 . S
O153 C152 1.246 . S
C154 O135 1.276 . S
C154 O155 1.246 . S
O155 C154 1.246 . S
Zn156 O158 1.933 1_565 S
Zn156 O176 1.985 . S
Zn156 O187 1.955 . S
Zn157 O158 1.911 . S
Zn157 O177 1.970 . S
Zn157 O193 1.945 . S
Zn157 O200 1.981 . S
O158 Zn156 1.933 1_545 S
O158 Zn157 1.911 . S
O158 H159 0.841 . S
H159 O158 0.841 . S
C160 O161 1.246 . S
C160 O189 1.276 . S
O161 C160 1.246 . S
Zn162 O164 1.911 1_545 S
Zn162 O179 1.970 . S
Zn162 O196 1.945 . S
Zn162 O203 1.981 . S
Zn163 O164 1.933 . S
Zn163 O178 1.985 . S
Zn163 O185 1.955 . S
O164 Zn162 1.911 1_565 S
O164 Zn163 1.933 . S
O164 H165 0.841 . S
H165 O164 0.841 . S
Zn166 O167 1.933 . S
Zn166 O180 1.985 . S
Zn166 O189 1.955 . S
O167 Zn166 1.933 . S
O167 Zn168 1.911 1_565 S
O167 H169 0.841 . S
Zn168 O167 1.911 1_545 S
Zn168 O181 1.970 . S
Zn168 O197 1.981 . S
Zn168 O199 1.945 . S
H169 O167 0.841 . S
Zn170 O171 1.933 1_565 S
Zn170 O183 1.985 . S
Zn170 O191 1.955 . S
O171 Zn170 1.933 1_545 S
O171 H172 0.842 . S
O171 Zn173 1.911 . S
H172 O171 0.842 . S
Zn173 O171 1.911 . S
Zn173 O184 1.970 . S
Zn173 O194 1.981 . S
Zn173 O202 1.945 . S
C174 O175 1.246 . S
C174 O191 1.276 . S
O175 C174 1.246 . S
O176 Zn156 1.985 . S
O176 C186 1.245 1_565 S
O177 Zn157 1.970 . S
O177 C186 1.263 . S
O178 Zn163 1.985 . S
O178 C190 1.245 . S
O179 Zn162 1.970 . S
O179 C190 1.263 1_545 S
O180 Zn166 1.985 . S
O180 C195 1.245 . S
O181 Zn168 1.970 . S
O181 C195 1.263 1_545 S
C182 O193 1.262 . S
C182 O194 1.245 . S
O183 Zn170 1.985 . S
O183 C201 1.245 1_565 S
O184 Zn173 1.970 . S
O184 C201 1.263 . S
O185 Zn163 1.955 . S
O185 C204 1.276 . S
C186 O176 1.245 1_545 S
C186 O177 1.263 . S
O187 Zn156 1.955 . S
O187 C206 1.276 . S
C188 O196 1.262 . S
C188 O197 1.245 . S
O189 C160 1.276 . S
O189 Zn166 1.955 . S
C190 O178 1.245 . S
C190 O179 1.263 1_565 S
O191 Zn170 1.955 . S
O191 C174 1.276 . S
C192 O199 1.262 . S
C192 O200 1.245 . S
O193 Zn157 1.945 . S
O193 C182 1.262 . S
O194 Zn173 1.981 . S
O194 C182 1.245 . S
C195 O180 1.245 . S
C195 O181 1.263 1_565 S
O196 Zn162 1.945 . S
O196 C188 1.262 . S
O197 Zn168 1.981 . S
O197 C188 1.245 . S
C198 O202 1.262 . S
C198 O203 1.245 . S
O199 Zn168 1.945 . S
O199 C192 1.262 . S
O200 Zn157 1.981 . S
O200 C192 1.245 . S
C201 O183 1.245 1_545 S
C201 O184 1.263 . S
O202 Zn173 1.945 . S
O202 C198 1.262 . S
O203 Zn162 1.981 . S
O203 C198 1.245 . S
C204 O185 1.276 . S
C204 O205 1.246 . S
O205 C204 1.246 . S
C206 O187 1.276 . S
C206 O207 1.246 . S
O207 C206 1.246 . S
Zn208 O210 1.933 . S
Zn208 O228 1.985 . S
Zn208 O239 1.955 . S
Zn209 O210 1.911 1_556 S
Zn209 O229 1.970 . S
Zn209 O245 1.945 . S
Zn209 O252 1.981 . S
O210 Zn208 1.933 . S
O210 Zn209 1.911 1_554 S
O210 H211 0.841 . S
H211 O210 0.841 . S
C212 O213 1.246 . S
C212 O241 1.276 . S
O213 C212 1.246 . S
Zn214 O216 1.911 . S
Zn214 O231 1.970 . S
Zn214 O248 1.945 . S
Zn214 O255 1.981 . S
Zn215 O216 1.933 1_554 S
Zn215 O230 1.985 . S
Zn215 O237 1.955 . S
O216 Zn214 1.911 . S
O216 Zn215 1.933 1_556 S
O216 H217 0.837 1_556 S
H217 O216 0.837 1_554 S
Zn218 O219 1.933 . S
Zn218 O232 1.985 . S
Zn218 O241 1.955 . S
O219 Zn218 1.933 . S
O219 Zn220 1.911 1_554 S
O219 H221 0.841 . S
Zn220 O219 1.911 1_556 S
Zn220 O233 1.970 . S
Zn220 O249 1.981 . S
Zn220 O251 1.945 . S
H221 O219 0.841 . S
Zn222 O223 1.933 1_554 S
Zn222 O235 1.985 . S
Zn222 O243 1.955 . S
O223 Zn222 1.933 1_556 S
O223 H224 0.841 . S
O223 Zn225 1.911 . S
H224 O223 0.841 . S
Zn225 O223 1.911 . S
Zn225 O236 1.970 . S
Zn225 O246 1.981 . S
Zn225 O254 1.945 . S
C226 O227 1.246 . S
C226 O243 1.276 . S
O227 C226 1.246 . S
O228 Zn208 1.985 . S
O228 C238 1.245 . S
O229 Zn209 1.970 . S
O229 C238 1.263 1_556 S
O230 Zn215 1.985 . S
O230 C242 1.245 1_554 S
O231 Zn214 1.970 . S
O231 C242 1.263 . S
O232 Zn218 1.985 . S
O232 C247 1.245 . S
O233 Zn220 1.970 . S
O233 C247 1.263 1_556 S
C234 O245 1.262 . S
C234 O246 1.245 . S
O235 Zn222 1.985 . S
O235 C253 1.245 1_554 S
O236 Zn225 1.970 . S
O236 C253 1.263 . S
O237 Zn215 1.955 . S
O237 C256 1.276 . S
C238 O228 1.245 . S
C238 O229 1.263 1_554 S
O239 Zn208 1.955 . S
O239 C258 1.276 . S
C240 O248 1.262 . S
C240 O249 1.245 . S
O241 C212 1.276 . S
O241 Zn218 1.955 . S
C242 O230 1.245 1_556 S
C242 O231 1.263 . S
O243 Zn222 1.955 . S
O243 C226 1.276 . S
C244 O251 1.262 . S
C244 O252 1.245 . S
O245 Zn209 1.945 . S
O245 C234 1.262 . S
O246 Zn225 1.981 . S
O246 C234 1.245 . S
C247 O232 1.245 . S
C247 O233 1.263 1_554 S
O248 Zn214 1.945 . S
O248 C240 1.262 . S
O249 Zn220 1.981 . S
O249 C240 1.245 . S
C250 O254 1.262 . S
C250 O255 1.245 . S
O251 Zn220 1.945 . S
O251 C244 1.262 . S
O252 Zn209 1.981 . S
O252 C244 1.245 . S
C253 O235 1.245 1_556 S
C253 O236 1.263 . S
O254 Zn225 1.945 . S
O254 C250 1.262 . S
O255 Zn214 1.981 . S
O255 C250 1.245 . S
C256 O237 1.276 . S
C256 O257 1.246 . S
O257 C256 1.246 . S
C258 O239 1.276 . S
C258 O259 1.246 . S
O259 C258 1.246 . S
Zn260 O262 1.933 . S
Zn260 O280 1.985 . S
Zn260 O291 1.955 . S
Zn261 O262 1.911 . S
Zn261 O281 1.970 . S
Zn261 O297 1.945 . S
Zn261 O304 1.981 . S
O262 Zn260 1.933 . S
O262 Zn261 1.911 . S
O262 H263 0.841 . S
H263 O262 0.841 . S
C264 O265 1.246 . S
C264 O293 1.276 . S
O265 C264 1.246 . S
Zn266 O268 1.911 . S
Zn266 O283 1.970 . S
Zn266 O300 1.945 . S
Zn266 O307 1.981 . S
Zn267 O268 1.933 . S
Zn267 O282 1.985 . S
Zn267 O289 1.955 . S
O268 Zn266 1.911 . S
O268 Zn267 1.933 . S
O268 H269 0.841 . S
H269 O268 0.841 . S
Zn270 O271 1.933 . S
Zn270 O284 1.985 . S
Zn270 O293 1.955 . S
O271 Zn270 1.933 . S
O271 Zn272 1.911 . S
O271 H273 0.841 . S
Zn272 O271 1.911 . S
Zn272 O285 1.970 . S
Zn272 O301 1.981 . S
Zn272 O303 1.945 . S
H273 O271 0.841 . S
Zn274 O275 1.933 . S
Zn274 O287 1.985 . S
Zn274 O295 1.955 . S
O275 Zn274 1.933 . S
O275 H276 0.841 . S
O275 Zn277 1.911 . S
H276 O275 0.841 . S
Zn277 O275 1.911 . S
Zn277 O288 1.970 . S
Zn277 O298 1.981 . S
Zn277 O306 1.945 . S
C278 O279 1.246 . S
C278 O295 1.276 . S
O279 C278 1.246 . S
O280 Zn260 1.985 . S
O280 C290 1.245 . S
O281 Zn261 1.970 . S
O281 C290 1.263 . S
O282 Zn267 1.985 . S
O282 C294 1.245 . S
O283 Zn266 1.970 . S
O283 C294 1.263 . S
O284 Zn270 1.985 . S
O284 C299 1.245 . S
O285 Zn272 1.970 . S
O285 C299 1.263 . S
C286 O297 1.262 . S
C286 O298 1.245 . S
O287 Zn274 1.985 . S
O287 C305 1.245 . S
O288 Zn277 1.970 . S
O288 C305 1.263 . S
O289 Zn267 1.955 . S
O289 C308 1.276 . S
C290 O280 1.245 . S
C290 O281 1.263 . S
O291 Zn260 1.955 . S
O291 C310 1.276 . S
C292 O300 1.262 . S
C292 O301 1.245 . S
O293 C264 1.276 . S
O293 Zn270 1.955 . S
C294 O282 1.245 . S
C294 O283 1.263 . S
O295 Zn274 1.955 . S
O295 C278 1.276 . S
C296 O303 1.262 . S
C296 O304 1.245 . S
O297 Zn261 1.945 . S
O297 C286 1.262 . S
O298 Zn277 1.981 . S
O298 C286 1.245 . S
C299 O284 1.245 . S
C299 O285 1.263 . S
O300 Zn266 1.945 . S
O300 C292 1.262 . S
O301 Zn272 1.981 . S
O301 C292 1.245 . S
C302 O306 1.262 . S
C302 O307 1.245 . S
O303 Zn272 1.945 . S
O303 C296 1.262 . S
O304 Zn261 1.981 . S
O304 C296 1.245 . S
C305 O287 1.245 . S
C305 O288 1.263 . S
O306 Zn277 1.945 . S
O306 C302 1.262 . S
O307 Zn266 1.981 . S
O307 C302 1.245 . S
C308 O289 1.276 . S
C308 O309 1.246 . S
O309 C308 1.246 . S
C310 O291 1.276 . S
C310 O311 1.246 . S
O311 C310 1.246 . S
Zn312 O314 1.933 1_554 S
Zn312 O332 1.985 . S
Zn312 O343 1.955 . S
Zn313 O314 1.911 . S
Zn313 O333 1.970 . S
Zn313 O349 1.945 . S
Zn313 O356 1.981 . S
O314 Zn312 1.933 1_556 S
O314 Zn313 1.911 . S
O314 H315 0.836 1_556 S
H315 O314 0.836 1_554 S
C316 O317 1.246 . S
C316 O345 1.276 . S
O317 C316 1.246 . S
Zn318 O320 1.911 1_556 S
Zn318 O335 1.970 . S
Zn318 O352 1.945 . S
Zn318 O359 1.981 . S
Zn319 O320 1.933 . S
Zn319 O334 1.985 . S
Zn319 O341 1.955 . S
O320 Zn318 1.911 1_554 S
O320 Zn319 1.933 . S
O320 H321 0.841 . S
H321 O320 0.841 . S
Zn322 O323 1.933 1_554 S
Zn322 O336 1.985 . S
Zn322 O345 1.955 . S
O323 Zn322 1.933 1_556 S
O323 Zn324 1.911 . S
O323 H325 0.841 . S
Zn324 O323 1.911 . S
Zn324 O337 1.970 . S
Zn324 O353 1.981 . S
Zn324 O355 1.945 . S
H325 O323 0.841 . S
Zn326 O327 1.933 . S
Zn326 O339 1.985 . S
Zn326 O347 1.955 . S
O327 Zn326 1.933 . S
O327 H328 0.841 . S
O327 Zn329 1.911 1_554 S
H328 O327 0.841 . S
Zn329 O327 1.911 1_556 S
Zn329 O340 1.970 . S
Zn329 O350 1.981 . S
Zn329 O358 1.945 . S
C330 O331 1.246 . S
C330 O347 1.276 . S
O331 C330 1.246 . S
O332 Zn312 1.985 . S
O332 C342 1.245 1_554 S
O333 Zn313 1.970 . S
O333 C342 1.263 . S
O334 Zn319 1.985 . S
O334 C346 1.245 . S
O335 Zn318 1.970 . S
O335 C346 1.263 1_556 S
O336 Zn322 1.985 . S
O336 C351 1.245 1_554 S
O337 Zn324 1.970 . S
O337 C351 1.263 . S
C338 O349 1.262 . S
C338 O350 1.245 . S
O339 Zn326 1.985 . S
O339 C357 1.245 . S
O340 Zn329 1.970 . S
O340 C357 1.263 1_556 S
O341 Zn319 1.955 . S
O341 C360 1.276 . S
C342 O332 1.245 1_556 S
C342 O333 1.263 . S
O343 Zn312 1.955 . S
O343 C362 1.276 . S
C344 O352 1.262 . S
C344 O353 1.245 . S
O345 C316 1.276 . S
O345 Zn322 1.955 . S
C346 O334 1.245 . S
C346 O335 1.263 1_554 S
O347 Zn326 1.955 . S
O347 C330 1.276 . S
C348 O355 1.262 . S
C348 O356 1.245 . S
O349 Zn313 1.945 . S
O349 C338 1.262 . S
O350 Zn329 1.981 . S
O350 C338 1.245 . S
C351 O336 1.245 1_556 S
C351 O337 1.263 . S
O352 Zn318 1.945 . S
O352 C344 1.262 . S
O353 Zn324 1.981 . S
O353 C344 1.245 . S
C354 O358 1.262 . S
C354 O359 1.245 . S
O355 Zn324 1.945 . S
O355 C348 1.262 . S
O356 Zn313 1.981 . S
O356 C348 1.245 . S
C357 O339 1.245 . S
C357 O340 1.263 1_554 S
O358 Zn329 1.945 . S
O358 C354 1.262 . S
O359 Zn318 1.981 . S
O359 C354 1.245 . S
C360 O341 1.276 . S
C360 O361 1.246 . S
O361 C360 1.246 . S
C362 O343 1.276 . S
C362 O363 1.246 . S
O363 C362 1.246 . S
Zn364 O366 1.933 . S
Zn364 O384 1.985 . S
Zn364 O395 1.955 . S
Zn365 O366 1.911 . S
Zn365 O385 1.970 . S
Zn365 O401 1.945 . S
Zn365 O408 1.981 . S
O366 Zn364 1.933 . S
O366 Zn365 1.911 . S
O366 H367 0.841 . S
H367 O366 0.841 . S
C368 O369 1.246 . S
C368 O397 1.276 . S
O369 C368 1.246 . S
Zn370 O372 1.911 . S
Zn370 O387 1.970 . S
Zn370 O404 1.945 . S
Zn370 O411 1.981 . S
Zn371 O372 1.933 . S
Zn371 O386 1.985 . S
Zn371 O393 1.955 . S
O372 Zn370 1.911 . S
O372 Zn371 1.933 . S
O372 H373 0.841 . S
H373 O372 0.841 . S
Zn374 O375 1.933 . S
Zn374 O388 1.985 . S
Zn374 O397 1.955 . S
O375 Zn374 1.933 . S
O375 Zn376 1.911 . S
O375 H377 0.841 . S
Zn376 O375 1.911 . S
Zn376 O389 1.970 . S
Zn376 O405 1.981 . S
Zn376 O407 1.945 . S
H377 O375 0.841 . S
Zn378 O379 1.933 . S
Zn378 O391 1.985 . S
Zn378 O399 1.955 . S
O379 Zn378 1.933 . S
O379 H380 0.841 . S
O379 Zn381 1.911 . S
H380 O379 0.841 . S
Zn381 O379 1.911 . S
Zn381 O392 1.970 . S
Zn381 O402 1.981 . S
Zn381 O410 1.945 . S
C382 O383 1.246 . S
C382 O399 1.276 . S
O383 C382 1.246 . S
O384 Zn364 1.985 . S
O384 C394 1.245 . S
O385 Zn365 1.970 . S
O385 C394 1.263 . S
O386 Zn371 1.985 . S
O386 C398 1.245 . S
O387 Zn370 1.970 . S
O387 C398 1.263 . S
O388 Zn374 1.985 . S
O388 C403 1.245 . S
O389 Zn376 1.970 . S
O389 C403 1.263 . S
C390 O401 1.262 . S
C390 O402 1.245 . S
O391 Zn378 1.985 . S
O391 C409 1.245 . S
O392 Zn381 1.970 . S
O392 C409 1.263 . S
O393 Zn371 1.955 . S
O393 C412 1.276 . S
C394 O384 1.245 . S
C394 O385 1.263 . S
O395 Zn364 1.955 . S
O395 C414 1.276 . S
C396 O404 1.262 . S
C396 O405 1.245 . S
O397 C368 1.276 . S
O397 Zn374 1.955 . S
C398 O386 1.245 . S
C398 O387 1.263 . S
O399 Zn378 1.955 . S
O399 C382 1.276 . S
C400 O407 1.262 . S
C400 O408 1.245 . S
O401 Zn365 1.945 . S
O401 C390 1.262 . S
O402 Zn381 1.981 . S
O402 C390 1.245 . S
C403 O388 1.245 . S
C403 O389 1.263 . S
O404 Zn370 1.945 . S
O404 C396 1.262 . S
O405 Zn376 1.981 . S
O405 C396 1.245 . S
C406 O410 1.262 . S
C406 O411 1.245 . S
O407 Zn376 1.945 . S
O407 C400 1.262 . S
O408 Zn365 1.981 . S
O408 C400 1.245 . S
C409 O391 1.245 . S
C409 O392 1.263 . S
O410 Zn381 1.945 . S
O410 C406 1.262 . S
O411 Zn370 1.981 . S
O411 C406 1.245 . S
C412 O393 1.276 . S
C412 O413 1.246 . S
O413 C412 1.246 . S
C414 O395 1.276 . S
C414 O415 1.246 . S
O415 C414 1.246 . S
Zn416 O418 1.933 . S
Zn416 O436 1.985 . S
Zn416 O447 1.955 . S
Zn417 O418 1.911 . S
Zn417 O437 1.970 . S
Zn417 O453 1.945 . S
Zn417 O460 1.981 . S
O418 Zn416 1.933 . S
O418 Zn417 1.911 . S
O418 H419 0.841 . S
H419 O418 0.841 . S
C420 O421 1.246 . S
C420 O449 1.276 . S
O421 C420 1.246 . S
Zn422 O424 1.911 . S
Zn422 O439 1.970 . S
Zn422 O456 1.945 . S
Zn422 O463 1.981 . S
Zn423 O424 1.933 . S
Zn423 O438 1.985 . S
Zn423 O445 1.955 . S
O424 Zn422 1.911 . S
O424 Zn423 1.933 . S
O424 H425 0.841 . S
H425 O424 0.841 . S
Zn426 O427 1.933 . S
Zn426 O440 1.985 . S
Zn426 O449 1.955 . S
O427 Zn426 1.933 . S
O427 Zn428 1.911 . S
O427 H429 0.841 . S
Zn428 O427 1.911 . S
Zn428 O441 1.970 . S
Zn428 O457 1.981 . S
Zn428 O459 1.945 . S
H429 O427 0.841 . S
Zn430 O431 1.933 . S
Zn430 O443 1.985 . S
Zn430 O451 1.955 . S
O431 Zn430 1.933 . S
O431 H432 0.841 . S
O431 Zn433 1.911 . S
H432 O431 0.841 . S
Zn433 O431 1.911 . S
Zn433 O444 1.970 . S
Zn433 O454 1.981 . S
Zn433 O462 1.945 . S
C434 O435 1.246 . S
C434 O451 1.276 . S
O435 C434 1.246 . S
O436 Zn416 1.985 . S
O436 C446 1.245 . S
O437 Zn417 1.970 . S
O437 C446 1.263 . S
O438 Zn423 1.985 . S
O438 C450 1.245 . S
O439 Zn422 1.970 . S
O439 C450 1.263 . S
O440 Zn426 1.985 . S
O440 C455 1.245 . S
O441 Zn428 1.970 . S
O441 C455 1.263 . S
C442 O453 1.262 . S
C442 O454 1.245 . S
O443 Zn430 1.985 . S
O443 C461 1.245 . S
O444 Zn433 1.970 . S
O444 C461 1.263 . S
O445 Zn423 1.955 . S
O445 C464 1.276 . S
C446 O436 1.245 . S
C446 O437 1.263 . S
O447 Zn416 1.955 . S
O447 C466 1.276 . S
C448 O456 1.262 . S
C448 O457 1.245 . S
O449 C420 1.276 . S
O449 Zn426 1.955 . S
C450 O438 1.245 . S
C450 O439 1.263 . S
O451 Zn430 1.955 . S
O451 C434 1.276 . S
C452 O459 1.262 . S
C452 O460 1.245 . S
O453 Zn417 1.945 . S
O453 C442 1.262 . S
O454 Zn433 1.981 . S
O454 C442 1.245 . S
C455 O440 1.245 . S
C455 O441 1.263 . S
O456 Zn422 1.945 . S
O456 C448 1.262 . S
O457 Zn428 1.981 . S
O457 C448 1.245 . S
C458 O462 1.262 . S
C458 O463 1.245 . S
O459 Zn428 1.945 . S
O459 C452 1.262 . S
O460 Zn417 1.981 . S
O460 C452 1.245 . S
C461 O443 1.245 . S
C461 O444 1.263 . S
O462 Zn433 1.945 . S
O462 C458 1.262 . S
O463 Zn422 1.981 . S
O463 C458 1.245 . S
C464 O445 1.276 . S
C464 O465 1.246 . S
O465 C464 1.246 . S
C466 O447 1.276 . S
C466 O467 1.246 . S
O467 C466 1.246 . S
Zn468 O470 1.933 . S
Zn468 O488 1.985 . S
Zn468 O499 1.955 . S
Zn469 O470 1.911 . S
Zn469 O489 1.970 . S
Zn469 O505 1.945 . S
Zn469 O512 1.981 . S
O470 Zn468 1.933 . S
O470 Zn469 1.911 . S
O470 H471 0.841 . S
H471 O470 0.841 . S
C472 O473 1.246 . S
C472 O501 1.276 . S
O473 C472 1.246 . S
Zn474 O476 1.911 . S
Zn474 O491 1.970 . S
Zn474 O508 1.945 . S
Zn474 O515 1.981 . S
Zn475 O476 1.933 . S
Zn475 O490 1.985 . S
Zn475 O497 1.955 . S
O476 Zn474 1.911 . S
O476 Zn475 1.933 . S
O476 H477 0.841 . S
H477 O476 0.841 . S
Zn478 O479 1.933 . S
Zn478 O492 1.985 . S
Zn478 O501 1.955 . S
O479 Zn478 1.933 . S
O479 Zn480 1.911 . S
O479 H481 0.841 . S
Zn480 O479 1.911 . S
Zn480 O493 1.970 . S
Zn480 O509 1.981 . S
Zn480 O511 1.945 . S
H481 O479 0.841 . S
Zn482 O483 1.933 . S
Zn482 O495 1.985 . S
Zn482 O503 1.955 . S
O483 Zn482 1.933 . S
O483 H484 0.841 . S
O483 Zn485 1.911 . S
H484 O483 0.841 . S
Zn485 O483 1.911 . S
Zn485 O496 1.970 . S
Zn485 O506 1.981 . S
Zn485 O514 1.945 . S
C486 O487 1.246 . S
C486 O503 1.276 . S
O487 C486 1.246 . S
O488 Zn468 1.985 . S
O488 C498 1.245 . S
O489 Zn469 1.970 . S
O489 C498 1.263 . S
O490 Zn475 1.985 . S
O490 C502 1.245 . S
O491 Zn474 1.970 . S
O491 C502 1.263 . S
O492 Zn478 1.985 . S
O492 C507 1.245 . S
O493 Zn480 1.970 . S
O493 C507 1.263 . S
C494 O505 1.262 . S
C494 O506 1.245 . S
O495 Zn482 1.985 . S
O495 C513 1.245 . S
O496 Zn485 1.970 . S
O496 C513 1.263 . S
O497 Zn475 1.955 . S
O497 C516 1.276 . S
C498 O488 1.245 . S
C498 O489 1.263 . S
O499 Zn468 1.955 . S
O499 C518 1.276 . S
C500 O508 1.262 . S
C500 O509 1.245 . S
O501 C472 1.276 . S
O501 Zn478 1.955 . S
C502 O490 1.245 . S
C502 O491 1.263 . S
O503 Zn482 1.955 . S
O503 C486 1.276 . S
C504 O511 1.262 . S
C504 O512 1.245 . S
O505 Zn469 1.945 . S
O505 C494 1.262 . S
O506 Zn485 1.981 . S
O506 C494 1.245 . S
C507 O492 1.245 . S
C507 O493 1.263 . S
O508 Zn474 1.945 . S
O508 C500 1.262 . S
O509 Zn480 1.981 . S
O509 C500 1.245 . S
C510 O514 1.262 . S
C510 O515 1.245 . S
O511 Zn480 1.945 . S
O511 C504 1.262 . S
O512 Zn469 1.981 . S
O512 C504 1.245 . S
C513 O495 1.245 . S
C513 O496 1.263 . S
O514 Zn485 1.945 . S
O514 C510 1.262 . S
O515 Zn474 1.981 . S
O515 C510 1.245 . S
C516 O497 1.276 . S
C516 O517 1.246 . S
O517 C516 1.246 . S
C518 O499 1.276 . S
C518 O519 1.246 . S
O519 C518 1.246 . S
Zn520 O522 1.933 . S
Zn520 O540 1.985 . S
Zn520 O551 1.955 . S
Zn521 O522 1.911 1_545 S
Zn521 O541 1.970 . S
Zn521 O557 1.945 . S
Zn521 O564 1.981 . S
O522 Zn520 1.933 . S
O522 Zn521 1.911 1_565 S
O522 H523 0.841 . S
H523 O522 0.841 . S
C524 O525 1.246 . S
C524 O553 1.276 . S
O525 C524 1.246 . S
Zn526 O528 1.911 . S
Zn526 O543 1.970 . S
Zn526 O560 1.945 . S
Zn526 O567 1.981 . S
Zn527 O528 1.933 1_565 S
Zn527 O542 1.985 . S
Zn527 O549 1.955 . S
O528 Zn526 1.911 . S
O528 Zn527 1.933 1_545 S
O528 H529 0.841 . S
H529 O528 0.841 . S
Zn530 O531 1.933 1_565 S
Zn530 O544 1.985 . S
Zn530 O553 1.955 . S
O531 Zn530 1.933 1_545 S
O531 Zn532 1.911 . S
O531 H533 0.841 . S
Zn532 O531 1.911 . S
Zn532 O545 1.970 . S
Zn532 O561 1.981 . S
Zn532 O563 1.945 . S
H533 O531 0.841 . S
Zn534 O535 1.933 . S
Zn534 O547 1.985 . S
Zn534 O555 1.955 . S
O535 Zn534 1.933 . S
O535 H536 0.841 . S
O535 Zn537 1.911 1_565 S
H536 O535 0.841 . S
Zn537 O535 1.911 1_545 S
Zn537 O548 1.970 . S
Zn537 O558 1.981 . S
Zn537 O566 1.945 . S
C538 O539 1.246 . S
C538 O555 1.276 . S
O539 C538 1.246 . S
O540 Zn520 1.985 . S
O540 C550 1.245 . S
O541 Zn521 1.970 . S
O541 C550 1.263 1_545 S
O542 Zn527 1.985 . S
O542 C554 1.245 1_565 S
O543 Zn526 1.970 . S
O543 C554 1.263 . S
O544 Zn530 1.985 . S
O544 C559 1.245 1_565 S
O545 Zn532 1.970 . S
O545 C559 1.263 . S
C546 O557 1.262 . S
C546 O558 1.245 . S
O547 Zn534 1.985 . S
O547 C565 1.245 . S
O548 Zn537 1.970 . S
O548 C565 1.263 1_545 S
O549 Zn527 1.955 . S
O549 C568 1.276 . S
C550 O540 1.245 . S
C550 O541 1.263 1_565 S
O551 Zn520 1.955 . S
O551 C570 1.276 . S
C552 O560 1.262 . S
C552 O561 1.245 . S
O553 C524 1.276 . S
O553 Zn530 1.955 . S
C554 O542 1.245 1_545 S
C554 O543 1.263 . S
O555 Zn534 1.955 . S
O555 C538 1.276 . S
C556 O563 1.262 . S
C556 O564 1.245 . S
O557 Zn521 1.945 . S
O557 C546 1.262 . S
O558 Zn537 1.981 . S
O558 C546 1.245 . S
C559 O544 1.245 1_545 S
C559 O545 1.263 . S
O560 Zn526 1.945 . S
O560 C552 1.262 . S
O561 Zn532 1.981 . S
O561 C552 1.245 . S
C562 O566 1.262 . S
C562 O567 1.245 . S
O563 Zn532 1.945 . S
O563 C556 1.262 . S
O564 Zn521 1.981 . S
O564 C556 1.245 . S
C565 O547 1.245 . S
C565 O548 1.263 1_565 S
O566 Zn537 1.945 . S
O566 C562 1.262 . S
O567 Zn526 1.981 . S
O567 C562 1.245 . S
C568 O549 1.276 . S
C568 O569 1.246 . S
O569 C568 1.246 . S
C570 O551 1.276 . S
C570 O571 1.246 . S
O571 C570 1.246 . S
Zn572 O574 1.933 . S
Zn572 O592 1.985 . S
Zn572 O603 1.955 . S
Zn573 O574 1.911 . S
Zn573 O593 1.970 . S
Zn573 O609 1.945 . S
Zn573 O616 1.981 . S
O574 Zn572 1.933 . S
O574 Zn573 1.911 . S
O574 H575 0.841 . S
H575 O574 0.841 . S
C576 O577 1.246 . S
C576 O605 1.276 . S
O577 C576 1.246 . S
Zn578 O580 1.911 . S
Zn578 O595 1.970 . S
Zn578 O612 1.945 . S
Zn578 O619 1.981 . S
Zn579 O580 1.933 . S
Zn579 O594 1.985 . S
Zn579 O601 1.955 . S
O580 Zn578 1.911 . S
O580 Zn579 1.933 . S
O580 H581 0.841 . S
H581 O580 0.841 . S
Zn582 O583 1.933 . S
Zn582 O596 1.985 . S
Zn582 O605 1.955 . S
O583 Zn582 1.933 . S
O583 Zn584 1.911 . S
O583 H585 0.841 . S
Zn584 O583 1.911 . S
Zn584 O597 1.970 . S
Zn584 O613 1.981 . S
Zn584 O615 1.945 . S
H585 O583 0.841 . S
Zn586 O587 1.933 . S
Zn586 O599 1.985 . S
Zn586 O607 1.955 . S
O587 Zn586 1.933 . S
O587 H588 0.841 . S
O587 Zn589 1.911 . S
H588 O587 0.841 . S
Zn589 O587 1.911 . S
Zn589 O600 1.970 . S
Zn589 O610 1.981 . S
Zn589 O618 1.945 . S
C590 O591 1.246 . S
C590 O607 1.276 . S
O591 C590 1.246 . S
O592 Zn572 1.985 . S
O592 C602 1.245 . S
O593 Zn573 1.970 . S
O593 C602 1.263 . S
O594 Zn579 1.985 . S
O594 C606 1.245 . S
O595 Zn578 1.970 . S
O595 C606 1.263 . S
O596 Zn582 1.985 . S
O596 C611 1.245 . S
O597 Zn584 1.970 . S
O597 C611 1.263 . S
C598 O609 1.262 . S
C598 O610 1.245 . S
O599 Zn586 1.985 . S
O599 C617 1.245 . S
O600 Zn589 1.970 . S
O600 C617 1.263 . S
O601 Zn579 1.955 . S
O601 C620 1.276 . S
C602 O592 1.245 . S
C602 O593 1.263 . S
O603 Zn572 1.955 . S
O603 C622 1.276 . S
C604 O612 1.262 . S
C604 O613 1.245 . S
O605 C576 1.276 . S
O605 Zn582 1.955 . S
C606 O594 1.245 . S
C606 O595 1.263 . S
O607 Zn586 1.955 . S
O607 C590 1.276 . S
C608 O615 1.262 . S
C608 O616 1.245 . S
O609 Zn573 1.945 . S
O609 C598 1.262 . S
O610 Zn589 1.981 . S
O610 C598 1.245 . S
C611 O596 1.245 . S
C611 O597 1.263 . S
O612 Zn578 1.945 . S
O612 C604 1.262 . S
O613 Zn584 1.981 . S
O613 C604 1.245 . S
C614 O618 1.262 . S
C614 O619 1.245 . S
O615 Zn584 1.945 . S
O615 C608 1.262 . S
O616 Zn573 1.981 . S
O616 C608 1.245 . S
C617 O599 1.245 . S
C617 O600 1.263 . S
O618 Zn589 1.945 . S
O618 C614 1.262 . S
O619 Zn578 1.981 . S
O619 C614 1.245 . S
C620 O601 1.276 . S
C620 O621 1.246 . S
O621 C620 1.246 . S
C622 O603 1.276 . S
C622 O623 1.246 . S
O623 C622 1.246 . S
H624 C632 0.950 . S
H625 C637 0.950 . S
H626 C634 0.950 . S
H627 C636 0.950 . S
H628 C638 0.950 . S
H629 C640 0.950 . S
H630 C642 0.950 . S
H631 C643 0.950 . S
C632 H624 0.950 . S
C632 C633 1.386 . S
C632 C634 1.391 . S
C633 C632 1.386 . S
C633 C637 1.393 . S
C634 H626 0.950 . S
C634 C632 1.391 . S
C634 C635 1.400 . S
C635 C634 1.400 . S
C635 C636 1.398 . S
C635 C641 1.491 . S
C636 H627 0.950 . S
C636 C635 1.398 . S
C636 C637 1.391 . S
C637 H625 0.950 . S
C637 C633 1.393 . S
C637 C636 1.391 . S
C638 H628 0.950 . S
C638 C639 1.386 . S
C638 C640 1.391 . S
C639 C638 1.386 . S
C639 C643 1.393 . S
C640 H629 0.950 . S
C640 C638 1.391 . S
C640 C641 1.400 . S
C641 C635 1.491 . S
C641 C640 1.400 . S
C641 C642 1.398 . S
C642 H630 0.950 . S
C642 C641 1.398 . S
C642 C643 1.391 . S
C643 H631 0.950 . S
C643 C639 1.393 . S
C643 C642 1.391 . S
H644 C652 0.950 . S
H645 C657 0.950 . S
H646 C654 0.950 . S
H647 C656 0.950 . S
H648 C658 0.950 . S
H649 C660 0.950 . S
H650 C662 0.950 . S
H651 C663 0.950 . S
C652 H644 0.950 . S
C652 C653 1.386 . S
C652 C654 1.391 . S
C653 C652 1.386 . S
C653 C657 1.393 . S
C654 H646 0.950 . S
C654 C652 1.391 . S
C654 C655 1.400 . S
C655 C654 1.400 . S
C655 C656 1.398 . S
C655 C661 1.491 . S
C656 H647 0.950 . S
C656 C655 1.398 . S
C656 C657 1.391 . S
C657 H645 0.950 . S
C657 C653 1.393 . S
C657 C656 1.391 . S
C658 H648 0.950 . S
C658 C659 1.386 1_554 S
C658 C660 1.391 . S
C659 C658 1.386 1_556 S
C659 C663 1.393 . S
C660 H649 0.950 . S
C660 C658 1.391 . S
C660 C661 1.400 . S
C661 C655 1.491 . S
C661 C660 1.400 . S
C661 C662 1.398 . S
C662 H650 0.950 . S
C662 C661 1.398 . S
C662 C663 1.391 1_554 S
C663 H651 0.950 . S
C663 C659 1.393 . S
C663 C662 1.391 1_556 S
H664 C672 0.950 . S
H665 C677 0.950 . S
H666 C674 0.950 . S
H667 C676 0.950 . S
H668 C678 0.950 . S
H669 C680 0.950 . S
H670 C682 0.950 . S
H671 C683 0.950 . S
C672 H664 0.950 . S
C672 C673 1.386 . S
C672 C674 1.391 . S
C673 C672 1.386 . S
C673 C677 1.393 . S
C674 H666 0.950 . S
C674 C672 1.391 . S
C674 C675 1.400 . S
C675 C674 1.400 . S
C675 C676 1.398 . S
C675 C681 1.491 . S
C676 H667 0.950 . S
C676 C675 1.398 . S
C676 C677 1.391 . S
C677 H665 0.950 . S
C677 C673 1.393 . S
C677 C676 1.391 . S
C678 H668 0.950 . S
C678 C679 1.386 . S
C678 C680 1.391 . S
C679 C678 1.386 . S
C679 C683 1.393 . S
C680 H669 0.950 . S
C680 C678 1.391 . S
C680 C681 1.400 . S
C681 C675 1.491 . S
C681 C680 1.400 . S
C681 C682 1.398 . S
C682 H670 0.950 . S
C682 C681 1.398 . S
C682 C683 1.391 . S
C683 H671 0.950 . S
C683 C679 1.393 . S
C683 C682 1.391 . S
H684 C692 0.950 . S
H685 C697 0.950 . S
H686 C694 0.950 . S
H687 C696 0.950 . S
H688 C698 0.950 1_556 S
H689 C700 0.950 . S
H690 C702 0.950 . S
H691 C703 0.950 . S
C692 H684 0.950 . S
C692 C693 1.386 . S
C692 C694 1.391 . S
C693 C692 1.386 . S
C693 C697 1.393 . S
C694 H686 0.950 . S
C694 C692 1.391 . S
C694 C695 1.400 . S
C695 C694 1.400 . S
C695 C696 1.398 . S
C695 C701 1.491 . S
C696 H687 0.950 . S
C696 C695 1.398 . S
C696 C697 1.391 . S
C697 H685 0.950 . S
C697 C693 1.393 . S
C697 C696 1.391 . S
C698 H688 0.950 1_554 S
C698 C699 1.386 . S
C698 C700 1.391 . S
C699 C698 1.386 . S
C699 C703 1.393 . S
C700 H689 0.950 . S
C700 C698 1.391 . S
C700 C701 1.400 . S
C701 C695 1.491 . S
C701 C700 1.400 . S
C701 C702 1.398 . S
C702 H690 0.950 . S
C702 C701 1.398 . S
C702 C703 1.391 . S
C703 H691 0.950 . S
C703 C699 1.393 . S
C703 C702 1.391 . S
H704 C712 0.950 . S
H705 C717 0.950 . S
H706 C714 0.950 . S
H707 C716 0.950 . S
H708 C718 0.950 . S
H709 C720 0.950 . S
H710 C722 0.950 . S
H711 C723 0.950 . S
C712 H704 0.950 . S
C712 C713 1.386 . S
C712 C714 1.391 . S
C713 C712 1.386 . S
C713 C717 1.393 . S
C714 H706 0.950 . S
C714 C712 1.391 . S
C714 C715 1.400 . S
C715 C714 1.400 . S
C715 C716 1.398 . S
C715 C721 1.491 . S
C716 H707 0.950 . S
C716 C715 1.398 . S
C716 C717 1.391 . S
C717 H705 0.950 . S
C717 C713 1.393 . S
C717 C716 1.391 . S
C718 H708 0.950 . S
C718 C719 1.386 . S
C718 C720 1.391 . S
C719 C718 1.386 . S
C719 C723 1.393 . S
C720 H709 0.950 . S
C720 C718 1.391 . S
C720 C721 1.400 . S
C721 C715 1.491 . S
C721 C720 1.400 . S
C721 C722 1.398 . S
C722 H710 0.950 . S
C722 C721 1.398 . S
C722 C723 1.391 . S
C723 H711 0.950 . S
C723 C719 1.393 . S
C723 C722 1.391 . S
H724 C732 0.950 . S
H725 C737 0.950 . S
H726 C734 0.950 . S
H727 C736 0.950 . S
H728 C738 0.950 . S
H729 C740 0.950 . S
H730 C742 0.950 . S
H731 C743 0.950 . S
C732 H724 0.950 . S
C732 C733 1.386 . S
C732 C734 1.391 1_554 S
C733 C732 1.386 . S
C733 C737 1.393 1_554 S
C734 H726 0.950 . S
C734 C732 1.391 1_556 S
C734 C735 1.400 . S
C735 C734 1.400 . S
C735 C736 1.398 . S
C735 C741 1.491 . S
C736 H727 0.950 . S
C736 C735 1.398 . S
C736 C737 1.391 . S
C737 H725 0.950 . S
C737 C733 1.393 1_556 S
C737 C736 1.391 . S
C738 H728 0.950 . S
C738 C739 1.386 . S
C738 C740 1.391 . S
C739 C738 1.386 . S
C739 C743 1.393 . S
C740 H729 0.950 . S
C740 C738 1.391 . S
C740 C741 1.400 . S
C741 C735 1.491 . S
C741 C740 1.400 . S
C741 C742 1.398 . S
C742 H730 0.950 . S
C742 C741 1.398 . S
C742 C743 1.391 . S
C743 H731 0.950 . S
C743 C739 1.393 . S
C743 C742 1.391 . S
H744 C752 0.950 . S
H745 C757 0.950 . S
H746 C754 0.950 . S
H747 C756 0.950 . S
H748 C758 0.950 . S
H749 C760 0.950 . S
H750 C762 0.950 . S
H751 C763 0.950 . S
C752 H744 0.950 . S
C752 C753 1.386 . S
C752 C754 1.391 . S
C753 C752 1.386 . S
C753 C757 1.393 . S
C754 H746 0.950 . S
C754 C752 1.391 . S
C754 C755 1.400 . S
C755 C754 1.400 . S
C755 C756 1.398 . S
C755 C761 1.491 . S
C756 H747 0.950 . S
C756 C755 1.398 . S
C756 C757 1.391 . S
C757 H745 0.950 . S
C757 C753 1.393 . S
C757 C756 1.391 . S
C758 H748 0.950 . S
C758 C759 1.386 . S
C758 C760 1.391 . S
C759 C758 1.386 . S
C759 C763 1.393 . S
C760 H749 0.950 . S
C760 C758 1.391 . S
C760 C761 1.400 . S
C761 C755 1.491 . S
C761 C760 1.400 . S
C761 C762 1.398 . S
C762 H750 0.950 . S
C762 C761 1.398 . S
C762 C763 1.391 . S
C763 H751 0.950 . S
C763 C759 1.393 . S
C763 C762 1.391 . S
H764 C772 0.950 . S
H765 C777 0.950 . S
H766 C774 0.950 . S
H767 C776 0.950 . S
H768 C778 0.950 1_655 S
H769 C780 0.950 . S
H770 C782 0.950 . S
H771 C783 0.950 . S
C772 H764 0.950 . S
C772 C773 1.386 . S
C772 C774 1.391 . S
C773 C772 1.386 . S
C773 C777 1.393 . S
C774 H766 0.950 . S
C774 C772 1.391 . S
C774 C775 1.400 . S
C775 C774 1.400 . S
C775 C776 1.398 . S
C775 C781 1.491 . S
C776 H767 0.950 . S
C776 C775 1.398 . S
C776 C777 1.391 . S
C777 H765 0.950 . S
C777 C773 1.393 . S
C777 C776 1.391 . S
C778 H768 0.950 1_455 S
C778 C779 1.386 . S
C778 C780 1.391 . S
C779 C778 1.386 . S
C779 C783 1.393 1_556 S
C780 H769 0.950 . S
C780 C778 1.391 . S
C780 C781 1.400 . S
C781 C775 1.491 . S
C781 C780 1.400 . S
C781 C782 1.398 . S
C782 H770 0.950 . S
C782 C781 1.398 . S
C782 C783 1.391 1_556 S
C783 H771 0.950 . S
C783 C779 1.393 1_554 S
C783 C782 1.391 1_554 S
H784 C792 0.950 . S
H785 C797 0.950 . S
H786 C794 0.950 . S
H787 C796 0.950 . S
H788 C798 0.950 . S
H789 C800 0.950 . S
H790 C802 0.950 . S
H791 C803 0.950 . S
C792 H784 0.950 . S
C792 C793 1.386 . S
C792 C794 1.391 . S
C793 C792 1.386 . S
C793 C797 1.393 . S
C794 H786 0.950 . S
C794 C792 1.391 . S
C794 C795 1.400 . S
C795 C794 1.400 . S
C795 C796 1.398 . S
C795 C801 1.491 . S
C796 H787 0.950 . S
C796 C795 1.398 . S
C796 C797 1.391 . S
C797 H785 0.950 . S
C797 C793 1.393 . S
C797 C796 1.391 . S
C798 H788 0.950 . S
C798 C799 1.386 . S
C798 C800 1.391 . S
C799 C798 1.386 . S
C799 C803 1.393 . S
C800 H789 0.950 . S
C800 C798 1.391 . S
C800 C801 1.400 . S
C801 C795 1.491 . S
C801 C800 1.400 . S
C801 C802 1.398 . S
C802 H790 0.950 . S
C802 C801 1.398 . S
C802 C803 1.391 . S
C803 H791 0.950 . S
C803 C799 1.393 . S
C803 C802 1.391 . S
H804 C812 0.950 . S
H805 C817 0.950 . S
H806 C814 0.950 . S
H807 C816 0.950 . S
H808 C818 0.950 . S
H809 C820 0.950 . S
H810 C822 0.950 . S
H811 C823 0.950 1_554 S
C812 H804 0.950 . S
C812 C813 1.386 . S
C812 C814 1.391 . S
C813 C812 1.386 . S
C813 C817 1.393 . S
C814 H806 0.950 . S
C814 C812 1.391 . S
C814 C815 1.400 . S
C815 C814 1.400 . S
C815 C816 1.398 . S
C815 C821 1.491 . S
C816 H807 0.950 . S
C816 C815 1.398 . S
C816 C817 1.391 . S
C817 H805 0.950 . S
C817 C813 1.393 . S
C817 C816 1.391 . S
C818 H808 0.950 . S
C818 C819 1.386 . S
C818 C820 1.391 . S
C819 C818 1.386 . S
C819 C823 1.393 . S
C820 H809 0.950 . S
C820 C818 1.391 . S
C820 C821 1.400 . S
C821 C815 1.491 . S
C821 C820 1.400 . S
C821 C822 1.398 . S
C822 H810 0.950 . S
C822 C821 1.398 . S
C822 C823 1.391 . S
C823 H811 0.950 1_556 S
C823 C819 1.393 . S
C823 C822 1.391 . S
H824 C832 0.950 . S
H825 C837 0.950 . S
H826 C834 0.950 . S
H827 C836 0.950 . S
H828 C838 0.950 . S
H829 C840 0.950 . S
H830 C842 0.950 . S
H831 C843 0.950 . S
C832 H824 0.950 . S
C832 C833 1.386 . S
C832 C834 1.391 . S
C833 C832 1.386 . S
C833 C837 1.393 . S
C834 H826 0.950 . S
C834 C832 1.391 . S
C834 C835 1.400 . S
C835 C834 1.400 . S
C835 C836 1.398 . S
C835 C841 1.491 . S
C836 H827 0.950 . S
C836 C835 1.398 . S
C836 C837 1.391 . S
C837 H825 0.950 . S
C837 C833 1.393 . S
C837 C836 1.391 . S
C838 H828 0.950 . S
C838 C839 1.386 . S
C838 C840 1.391 . S
C839 C838 1.386 . S
C839 C843 1.393 . S
C840 H829 0.950 . S
C840 C838 1.391 . S
C840 C841 1.400 . S
C841 C835 1.491 . S
C841 C840 1.400 . S
C841 C842 1.398 . S
C842 H830 0.950 . S
C842 C841 1.398 . S
C842 C843 1.391 . S
C843 H831 0.950 . S
C843 C839 1.393 . S
C843 C842 1.391 . S
H844 C852 0.950 . S
H845 C857 0.950 . S
H846 C854 0.950 . S
H847 C856 0.950 . S
H848 C858 0.950 . S
H849 C860 0.950 . S
H850 C862 0.950 . S
H851 C863 0.950 . S
C852 H844 0.950 . S
C852 C853 1.386 . S
C852 C854 1.391 . S
C853 C852 1.386 . S
C853 C857 1.393 . S
C854 H846 0.950 . S
C854 C852 1.391 . S
C854 C855 1.400 . S
C855 C854 1.400 . S
C855 C856 1.398 . S
C855 C861 1.491 . S
C856 H847 0.950 . S
C856 C855 1.398 . S
C856 C857 1.391 . S
C857 H845 0.950 . S
C857 C853 1.393 . S
C857 C856 1.391 . S
C858 H848 0.950 . S
C858 C859 1.386 . S
C858 C860 1.391 1_545 S
C859 C858 1.386 . S
C859 C863 1.393 . S
C860 H849 0.950 . S
C860 C858 1.391 1_565 S
C860 C861 1.400 . S
C861 C855 1.491 . S
C861 C860 1.400 . S
C861 C862 1.398 . S
C862 H850 0.950 . S
C862 C861 1.398 . S
C862 C863 1.391 1_565 S
C863 H851 0.950 . S
C863 C859 1.393 . S
C863 C862 1.391 1_545 S
H864 C872 0.950 . S
H865 C877 0.950 . S
H866 C874 0.950 . S
H867 C876 0.950 . S
H868 C878 0.950 . S
H869 C880 0.950 . S
H870 C882 0.950 . S
H871 C883 0.950 . S
C872 H864 0.950 . S
C872 C873 1.386 . S
C872 C874 1.391 . S
C873 C872 1.386 . S
C873 C877 1.393 . S
C874 H866 0.950 . S
C874 C872 1.391 . S
C874 C875 1.400 . S
C875 C874 1.400 . S
C875 C876 1.398 . S
C875 C881 1.491 . S
C876 H867 0.950 . S
C876 C875 1.398 . S
C876 C877 1.391 . S
C877 H865 0.950 . S
C877 C873 1.393 . S
C877 C876 1.391 . S
C878 H868 0.950 . S
C878 C879 1.386 . S
C878 C880 1.391 . S
C879 C878 1.386 . S
C879 C883 1.393 . S
C880 H869 0.950 . S
C880 C878 1.391 . S
C880 C881 1.400 . S
C881 C875 1.491 . S
C881 C880 1.400 . S
C881 C882 1.398 . S
C882 H870 0.950 . S
C882 C881 1.398 . S
C882 C883 1.391 . S
C883 H871 0.950 . S
C883 C879 1.393 . S
C883 C882 1.391 . S
H884 C892 0.950 1_556 S
H885 C897 0.950 . S
H886 C894 0.950 . S
H887 C896 0.950 . S
H888 C898 0.950 . S
H889 C900 0.950 . S
H890 C902 0.950 . S
H891 C903 0.950 . S
C892 H884 0.950 1_554 S
C892 C893 1.386 . S
C892 C894 1.391 . S
C893 C892 1.386 . S
C893 C897 1.393 . S
C894 H886 0.950 . S
C894 C892 1.391 . S
C894 C895 1.400 . S
C895 C894 1.400 . S
C895 C896 1.398 . S
C895 C901 1.491 . S
C896 H887 0.950 . S
C896 C895 1.398 . S
C896 C897 1.391 . S
C897 H885 0.950 . S
C897 C893 1.393 . S
C897 C896 1.391 . S
C898 H888 0.950 . S
C898 C899 1.386 . S
C898 C900 1.391 . S
C899 C898 1.386 . S
C899 C903 1.393 . S
C900 H889 0.950 . S
C900 C898 1.391 . S
C900 C901 1.400 . S
C901 C895 1.491 . S
C901 C900 1.400 . S
C901 C902 1.398 . S
C902 H890 0.950 . S
C902 C901 1.398 . S
C902 C903 1.391 . S
C903 H891 0.950 . S
C903 C899 1.393 . S
C903 C902 1.391 . S
H904 C912 0.950 . S
H905 C917 0.950 . S
H906 C914 0.950 . S
H907 C916 0.950 . S
H908 C918 0.950 . S
H909 C920 0.950 . S
H910 C922 0.950 . S
H911 C923 0.950 . S
C912 H904 0.950 . S
C912 C913 1.386 . S
C912 C914 1.391 . S
C913 C912 1.386 . S
C913 C917 1.393 . S
C914 H906 0.950 . S
C914 C912 1.391 . S
C914 C915 1.400 . S
C915 C914 1.400 . S
C915 C916 1.398 . S
C915 C921 1.491 . S
C916 H907 0.950 . S
C916 C915 1.398 . S
C916 C917 1.391 . S
C917 H905 0.950 . S
C917 C913 1.393 . S
C917 C916 1.391 . S
C918 H908 0.950 . S
C918 C919 1.386 . S
C918 C920 1.391 . S
C919 C918 1.386 . S
C919 C923 1.393 . S
C920 H909 0.950 . S
C920 C918 1.391 . S
C920 C921 1.400 . S
C921 C915 1.491 . S
C921 C920 1.400 . S
C921 C922 1.398 . S
C922 H910 0.950 . S
C922 C921 1.398 . S
C922 C923 1.391 . S
C923 H911 0.950 . S
C923 C919 1.393 . S
C923 C922 1.391 . S
H924 C932 0.941 1_545 S
H925 C937 0.945 1_556 S
H926 C934 0.950 . S
H927 C936 0.950 . S
H928 C938 0.950 . S
H929 C940 0.950 . S
H930 C942 0.950 . S
H931 C943 0.950 . S
C932 H924 0.941 1_565 S
C932 C933 1.386 . S
C932 C934 1.399 . S
C933 C932 1.386 . S
C933 C937 1.395 . S
C934 H926 0.950 . S
C934 C932 1.399 . S
C934 C935 1.400 . S
C935 C934 1.400 . S
C935 C936 1.398 . S
C935 C941 1.491 . S
C936 H927 0.950 . S
C936 C935 1.398 . S
C936 C937 1.394 . S
C937 H925 0.945 1_554 S
C937 C933 1.395 . S
C937 C936 1.394 . S
C938 H928 0.950 . S
C938 C939 1.386 . S
C938 C940 1.391 . S
C939 C938 1.386 . S
C939 C943 1.393 . S
C940 H929 0.950 . S
C940 C938 1.391 . S
C940 C941 1.400 . S
C941 C935 1.491 . S
C941 C940 1.400 . S
C941 C942 1.398 . S
C942 H930 0.950 . S
C942 C941 1.398 . S
C942 C943 1.391 . S
C943 H931 0.950 . S
C943 C939 1.393 . S
C943 C942 1.391 . S
H944 C952 0.950 . S
H945 C957 0.950 . S
H946 C954 0.950 . S
H947 C956 0.950 . S
H948 C958 0.950 . S
H949 C960 0.950 . S
H950 C962 0.950 . S
H951 C963 0.950 . S
C952 H944 0.950 . S
C952 C953 1.386 . S
C952 C954 1.391 . S
C953 C952 1.386 . S
C953 C957 1.393 . S
C954 H946 0.950 . S
C954 C952 1.391 . S
C954 C955 1.400 . S
C955 C954 1.400 . S
C955 C956 1.398 . S
C955 C961 1.491 . S
C956 H947 0.950 . S
C956 C955 1.398 . S
C956 C957 1.391 . S
C957 H945 0.950 . S
C957 C953 1.393 . S
C957 C956 1.391 . S
C958 H948 0.950 . S
C958 C959 1.386 . S
C958 C960 1.391 . S
C959 C958 1.386 . S
C959 C963 1.393 . S
C960 H949 0.950 . S
C960 C958 1.391 . S
C960 C961 1.400 . S
C961 C955 1.491 . S
C961 C960 1.400 . S
C961 C962 1.398 . S
C962 H950 0.950 . S
C962 C961 1.398 . S
C962 C963 1.391 . S
C963 H951 0.950 . S
C963 C959 1.393 . S
C963 C962 1.391 . S
H964 C972 0.950 . S
H965 C977 0.950 . S
H966 C974 0.950 . S
H967 C976 0.950 . S
H968 C978 0.950 . S
H969 C980 0.950 . S
H970 C982 0.950 . S
H971 C983 0.950 . S
C972 H964 0.950 . S
C972 C973 1.386 . S
C972 C974 1.391 . S
C973 C972 1.386 . S
C973 C977 1.393 . S
C974 H966 0.950 . S
C974 C972 1.391 . S
C974 C975 1.400 . S
C975 C974 1.400 . S
C975 C976 1.398 . S
C975 C981 1.491 . S
C976 H967 0.950 . S
C976 C975 1.398 . S
C976 C977 1.391 . S
C977 H965 0.950 . S
C977 C973 1.393 . S
C977 C976 1.391 . S
C978 H968 0.950 . S
C978 C979 1.386 . S
C978 C980 1.391 . S
C979 C978 1.386 . S
C979 C983 1.393 . S
C980 H969 0.950 . S
C980 C978 1.391 . S
C980 C981 1.400 . S
C981 C975 1.491 . S
C981 C980 1.400 . S
C981 C982 1.398 . S
C982 H970 0.950 . S
C982 C981 1.398 . S
C982 C983 1.391 . S
C983 H971 0.950 . S
C983 C979 1.393 . S
C983 C982 1.391 . S
H984 C992 0.950 . S
H985 C997 0.950 1_655 S
H986 C994 0.950 . S
H987 C996 0.950 . S
H988 C998 0.950 . S
H989 C1000 0.950 . S
H990 C1002 0.950 . S
H991 C1003 0.950 . S
C992 H984 0.950 . S
C992 C993 1.386 . S
C992 C994 1.391 . S
C993 C992 1.386 . S
C993 C997 1.393 . S
C994 H986 0.950 . S
C994 C992 1.391 . S
C994 C995 1.400 . S
C995 C994 1.400 . S
C995 C996 1.398 . S
C995 C1001 1.491 . S
C996 H987 0.950 . S
C996 C995 1.398 . S
C996 C997 1.391 . S
C997 H985 0.950 1_455 S
C997 C993 1.393 . S
C997 C996 1.391 . S
C998 H988 0.950 . S
C998 C999 1.386 . S
C998 C1000 1.391 . S
C999 C998 1.386 . S
C999 C1003 1.393 . S
C1000 H989 0.950 . S
C1000 C998 1.391 . S
C1000 C1001 1.400 . S
C1001 C995 1.491 . S
C1001 C1000 1.400 . S
C1001 C1002 1.398 . S
C1002 H990 0.950 . S
C1002 C1001 1.398 . S
C1002 C1003 1.391 . S
C1003 H991 0.950 . S
C1003 C999 1.393 . S
C1003 C1002 1.391 . S
H1004 C1012 0.950 . S
H1005 C1017 0.950 . S
H1006 C1014 0.950 . S
H1007 C1016 0.950 . S
H1008 C1018 0.950 . S
H1009 C1020 0.950 . S
H1010 C1022 0.950 . S
H1011 C1023 0.950 . S
C1012 H1004 0.950 . S
C1012 C1013 1.386 . S
C1012 C1014 1.391 . S
C1013 C1012 1.386 . S
C1013 C1017 1.393 . S
C1014 H1006 0.950 . S
C1014 C1012 1.391 . S
C1014 C1015 1.400 . S
C1015 C1014 1.400 . S
C1015 C1016 1.398 . S
C1015 C1021 1.491 . S
C1016 H1007 0.950 . S
C1016 C1015 1.398 . S
C1016 C1017 1.391 . S
C1017 H1005 0.950 . S
C1017 C1013 1.393 . S
C1017 C1016 1.391 . S
C1018 H1008 0.950 . S
C1018 C1019 1.386 . S
C1018 C1020 1.391 . S
C1019 C1018 1.386 . S
C1019 C1023 1.393 . S
C1020 H1009 0.950 . S
C1020 C1018 1.391 . S
C1020 C1021 1.400 . S
C1021 C1015 1.491 . S
C1021 C1020 1.400 . S
C1021 C1022 1.398 . S
C1022 H1010 0.950 . S
C1022 C1021 1.398 . S
C1022 C1023 1.391 . S
C1023 H1011 0.950 . S
C1023 C1019 1.393 . S
C1023 C1022 1.391 . S
H1024 C1032 0.950 . S
H1025 C1037 0.950 . S
H1026 C1034 0.950 . S
H1027 C1036 0.950 . S
H1028 C1038 0.950 . S
H1029 C1040 0.950 . S
H1030 C1042 0.950 . S
H1031 C1043 0.950 . S
C1032 H1024 0.950 . S
C1032 C1033 1.386 . S
C1032 C1034 1.391 . S
C1033 C1032 1.386 . S
C1033 C1037 1.393 . S
C1034 H1026 0.950 . S
C1034 C1032 1.391 . S
C1034 C1035 1.400 . S
C1035 C1034 1.400 . S
C1035 C1036 1.398 . S
C1035 C1041 1.491 . S
C1036 H1027 0.950 . S
C1036 C1035 1.398 . S
C1036 C1037 1.391 . S
C1037 H1025 0.950 . S
C1037 C1033 1.393 . S
C1037 C1036 1.391 . S
C1038 H1028 0.950 . S
C1038 C1039 1.386 . S
C1038 C1040 1.391 . S
C1039 C1038 1.386 . S
C1039 C1043 1.393 . S
C1040 H1029 0.950 . S
C1040 C1038 1.391 . S
C1040 C1041 1.400 . S
C1041 C1035 1.491 . S
C1041 C1040 1.400 . S
C1041 C1042 1.398 . S
C1042 H1030 0.950 . S
C1042 C1041 1.398 . S
C1042 C1043 1.391 . S
C1043 H1031 0.950 . S
C1043 C1039 1.393 . S
C1043 C1042 1.391 . S
H1044 C1052 0.950 . S
H1045 C1057 0.950 . S
H1046 C1054 0.950 . S
H1047 C1056 0.950 . S
H1048 C1058 0.950 . S
H1049 C1060 0.950 . S
H1050 C1062 0.950 . S
H1051 C1063 0.950 . S
C1052 H1044 0.950 . S
C1052 C1053 1.386 . S
C1052 C1054 1.391 . S
C1053 C1052 1.386 . S
C1053 C1057 1.393 . S
C1054 H1046 0.950 . S
C1054 C1052 1.391 . S
C1054 C1055 1.400 . S
C1055 C1054 1.400 . S
C1055 C1056 1.398 . S
C1055 C1061 1.491 . S
C1056 H1047 0.950 . S
C1056 C1055 1.398 . S
C1056 C1057 1.391 . S
C1057 H1045 0.950 . S
C1057 C1053 1.393 . S
C1057 C1056 1.391 . S
C1058 H1048 0.950 . S
C1058 C1059 1.386 . S
C1058 C1060 1.391 . S
C1059 C1058 1.386 . S
C1059 C1063 1.393 . S
C1060 H1049 0.950 . S
C1060 C1058 1.391 . S
C1060 C1061 1.400 . S
C1061 C1055 1.491 . S
C1061 C1060 1.400 . S
C1061 C1062 1.398 . S
C1062 H1050 0.950 . S
C1062 C1061 1.398 . S
C1062 C1063 1.391 . S
C1063 H1051 0.950 . S
C1063 C1059 1.393 . S
C1063 C1062 1.391 . S
H1064 C1072 0.950 . S
H1065 C1077 0.953 . S
H1066 C1074 0.950 . S
H1067 C1076 0.950 . S
H1068 C1078 0.950 . S
H1069 C1080 0.950 . S
H1070 C1082 0.950 . S
H1071 C1083 0.950 . S
C1072 H1064 0.950 . S
C1072 C1073 1.386 . S
C1072 C1074 1.391 1_655 S
C1073 C1072 1.386 . S
C1073 C1077 1.393 1_655 S
C1074 H1066 0.950 . S
C1074 C1072 1.391 1_455 S
C1074 C1075 1.400 . S
C1075 C1074 1.400 . S
C1075 C1076 1.398 . S
C1075 C1081 1.491 . S
C1076 H1067 0.950 . S
C1076 C1075 1.398 . S
C1076 C1077 1.391 . S
C1077 H1065 0.953 . S
C1077 C1073 1.393 1_455 S
C1077 C1076 1.391 . S
C1078 H1068 0.950 . S
C1078 C1079 1.386 . S
C1078 C1080 1.391 . S
C1079 C1078 1.386 . S
C1079 C1083 1.393 . S
C1080 H1069 0.950 . S
C1080 C1078 1.391 . S
C1080 C1081 1.400 . S
C1081 C1075 1.491 . S
C1081 C1080 1.400 . S
C1081 C1082 1.398 . S
C1082 H1070 0.950 . S
C1082 C1081 1.398 . S
C1082 C1083 1.391 . S
C1083 H1071 0.950 . S
C1083 C1079 1.393 . S
C1083 C1082 1.391 . S
H1084 C1092 0.950 1_545 S
H1085 C1097 0.950 . S
H1086 C1094 0.950 . S
H1087 C1096 0.950 . S
H1088 C1098 0.950 . S
H1089 C1100 0.950 . S
H1090 C1102 0.950 . S
H1091 C1103 0.950 . S
C1092 H1084 0.950 1_565 S
C1092 C1093 1.386 1_655 S
C1092 C1094 1.391 . S
C1093 C1092 1.386 1_455 S
C1093 C1097 1.393 1_455 S
C1094 H1086 0.950 . S
C1094 C1092 1.391 . S
C1094 C1095 1.400 . S
C1095 C1094 1.400 . S
C1095 C1096 1.398 . S
C1095 C1101 1.491 . S
C1096 H1087 0.950 . S
C1096 C1095 1.398 . S
C1096 C1097 1.391 . S
C1097 H1085 0.950 . S
C1097 C1093 1.393 1_655 S
C1097 C1096 1.391 . S
C1098 H1088 0.950 . S
C1098 C1099 1.386 . S
C1098 C1100 1.391 . S
C1099 C1098 1.386 . S
C1099 C1103 1.393 . S
C1100 H1089 0.950 . S
C1100 C1098 1.391 . S
C1100 C1101 1.400 . S
C1101 C1095 1.491 . S
C1101 C1100 1.400 . S
C1101 C1102 1.398 . S
C1102 H1090 0.950 . S
C1102 C1101 1.398 . S
C1102 C1103 1.391 . S
C1103 H1091 0.950 . S
C1103 C1099 1.393 . S
C1103 C1102 1.391 . S
H1104 C1112 0.950 . S
H1105 C1117 0.950 . S
H1106 C1114 0.950 . S
H1107 C1116 0.950 . S
H1108 C1118 0.950 . S
H1109 C1120 0.950 . S
H1110 C1122 0.950 . S
H1111 C1123 0.950 . S
C1112 H1104 0.950 . S
C1112 C1113 1.386 . S
C1112 C1114 1.391 . S
C1113 C1112 1.386 . S
C1113 C1117 1.393 . S
C1114 H1106 0.950 . S
C1114 C1112 1.391 . S
C1114 C1115 1.400 . S
C1115 C1114 1.400 . S
C1115 C1116 1.398 . S
C1115 C1121 1.491 . S
C1116 H1107 0.950 . S
C1116 C1115 1.398 . S
C1116 C1117 1.391 . S
C1117 H1105 0.950 . S
C1117 C1113 1.393 . S
C1117 C1116 1.391 . S
C1118 H1108 0.950 . S
C1118 C1119 1.386 . S
C1118 C1120 1.391 . S
C1119 C1118 1.386 . S
C1119 C1123 1.393 . S
C1120 H1109 0.950 . S
C1120 C1118 1.391 . S
C1120 C1121 1.400 . S
C1121 C1115 1.491 . S
C1121 C1120 1.400 . S
C1121 C1122 1.398 . S
C1122 H1110 0.950 . S
C1122 C1121 1.398 . S
C1122 C1123 1.391 . S
C1123 H1111 0.950 . S
C1123 C1119 1.393 . S
C1123 C1122 1.391 . S
H1124 C1132 0.950 1_655 S
H1125 C1137 0.950 . S
H1126 C1134 0.950 . S
H1127 C1136 0.950 . S
H1128 C1138 0.950 . S
H1129 C1140 0.950 . S
H1130 C1142 0.950 . S
H1131 C1143 0.950 . S
C1132 H1124 0.950 1_455 S
C1132 C1133 1.386 . S
C1132 C1134 1.391 . S
C1133 C1132 1.386 . S
C1133 C1137 1.393 . S
C1134 H1126 0.950 . S
C1134 C1132 1.391 . S
C1134 C1135 1.400 . S
C1135 C1134 1.400 . S
C1135 C1136 1.398 . S
C1135 C1141 1.491 . S
C1136 H1127 0.950 . S
C1136 C1135 1.398 . S
C1136 C1137 1.391 . S
C1137 H1125 0.950 . S
C1137 C1133 1.393 . S
C1137 C1136 1.391 . S
C1138 H1128 0.950 . S
C1138 C1139 1.386 . S
C1138 C1140 1.391 . S
C1139 C1138 1.386 . S
C1139 C1143 1.393 . S
C1140 H1129 0.950 . S
C1140 C1138 1.391 . S
C1140 C1141 1.400 . S
C1141 C1135 1.491 . S
C1141 C1140 1.400 . S
C1141 C1142 1.398 . S
C1142 H1130 0.950 . S
C1142 C1141 1.398 . S
C1142 C1143 1.391 . S
C1143 H1131 0.950 . S
C1143 C1139 1.393 . S
C1143 C1142 1.391 . S
H1144 C1152 0.950 . S
H1145 C1157 0.950 . S
H1146 C1154 0.950 . S
H1147 C1156 0.950 . S
H1148 C1158 0.950 . S
H1149 C1160 0.950 . S
H1150 C1162 0.950 . S
H1151 C1163 0.950 . S
C1152 H1144 0.950 . S
C1152 C1153 1.386 . S
C1152 C1154 1.391 . S
C1153 C1152 1.386 . S
C1153 C1157 1.393 . S
C1154 H1146 0.950 . S
C1154 C1152 1.391 . S
C1154 C1155 1.400 . S
C1155 C1154 1.400 . S
C1155 C1156 1.398 . S
C1155 C1161 1.491 . S
C1156 H1147 0.950 . S
C1156 C1155 1.398 . S
C1156 C1157 1.391 . S
C1157 H1145 0.950 . S
C1157 C1153 1.393 . S
C1157 C1156 1.391 . S
C1158 H1148 0.950 . S
C1158 C1159 1.386 . S
C1158 C1160 1.391 . S
C1159 C1158 1.386 . S
C1159 C1163 1.393 . S
C1160 H1149 0.950 . S
C1160 C1158 1.391 . S
C1160 C1161 1.400 . S
C1161 C1155 1.491 . S
C1161 C1160 1.400 . S
C1161 C1162 1.398 . S
C1162 H1150 0.950 . S
C1162 C1161 1.398 . S
C1162 C1163 1.391 . S
C1163 H1151 0.950 . S
C1163 C1159 1.393 . S
C1163 C1162 1.391 . S
H1164 C1172 0.950 1_455 S
H1165 C1177 0.950 . S
H1166 C1174 0.950 . S
H1167 C1176 0.950 . S
H1168 C1178 0.950 . S
H1169 C1180 0.950 . S
H1170 C1182 0.950 . S
H1171 C1183 0.950 . S
C1172 H1164 0.950 1_655 S
C1172 C1173 1.386 . S
C1172 C1174 1.391 . S
C1173 C1172 1.386 . S
C1173 C1177 1.393 . S
C1174 H1166 0.950 . S
C1174 C1172 1.391 . S
C1174 C1175 1.400 . S
C1175 C1174 1.400 . S
C1175 C1176 1.398 . S
C1175 C1181 1.491 . S
C1176 H1167 0.950 . S
C1176 C1175 1.398 . S
C1176 C1177 1.391 . S
C1177 H1165 0.950 . S
C1177 C1173 1.393 . S
C1177 C1176 1.391 . S
C1178 H1168 0.950 . S
C1178 C1179 1.386 . S
C1178 C1180 1.391 . S
C1179 C1178 1.386 . S
C1179 C1183 1.393 . S
C1180 H1169 0.950 . S
C1180 C1178 1.391 . S
C1180 C1181 1.400 . S
C1181 C1175 1.491 . S
C1181 C1180 1.400 . S
C1181 C1182 1.398 . S
C1182 H1170 0.950 . S
C1182 C1181 1.398 . S
C1182 C1183 1.391 . S
C1183 H1171 0.950 . S
C1183 C1179 1.393 . S
C1183 C1182 1.391 . S
H1184 C1192 0.950 . S
H1185 C1197 0.950 . S
H1186 C1194 0.950 . S
H1187 C1196 0.950 . S
H1188 C1198 0.950 . S
H1189 C1200 0.950 . S
H1190 C1202 0.950 . S
H1191 C1203 0.950 . S
C1192 H1184 0.950 . S
C1192 C1193 1.386 . S
C1192 C1194 1.391 . S
C1193 C1192 1.386 . S
C1193 C1197 1.393 . S
C1194 H1186 0.950 . S
C1194 C1192 1.391 . S
C1194 C1195 1.400 . S
C1195 C1194 1.400 . S
C1195 C1196 1.398 . S
C1195 C1201 1.491 . S
C1196 H1187 0.950 . S
C1196 C1195 1.398 . S
C1196 C1197 1.391 . S
C1197 H1185 0.950 . S
C1197 C1193 1.393 . S
C1197 C1196 1.391 . S
C1198 H1188 0.950 . S
C1198 C1199 1.386 . S
C1198 C1200 1.391 . S
C1199 C1198 1.386 . S
C1199 C1203 1.393 . S
C1200 H1189 0.950 . S
C1200 C1198 1.391 . S
C1200 C1201 1.400 . S
C1201 C1195 1.491 . S
C1201 C1200 1.400 . S
C1201 C1202 1.398 . S
C1202 H1190 0.950 . S
C1202 C1201 1.398 . S
C1202 C1203 1.391 . S
C1203 H1191 0.950 . S
C1203 C1199 1.393 . S
C1203 C1202 1.391 . S
H1204 C1212 0.950 . S
H1205 C1217 0.950 . S
H1206 C1214 0.950 . S
H1207 C1216 0.950 . S
H1208 C1218 0.950 . S
H1209 C1220 0.950 . S
H1210 C1222 0.950 . S
H1211 C1223 0.950 . S
C1212 H1204 0.950 . S
C1212 C1213 1.386 . S
C1212 C1214 1.391 . S
C1213 C1212 1.386 . S
C1213 C1217 1.393 . S
C1214 H1206 0.950 . S
C1214 C1212 1.391 . S
C1214 C1215 1.400 . S
C1215 C1214 1.400 . S
C1215 C1216 1.398 . S
C1215 C1221 1.491 . S
C1216 H1207 0.950 . S
C1216 C1215 1.398 . S
C1216 C1217 1.391 . S
C1217 H1205 0.950 . S
C1217 C1213 1.393 . S
C1217 C1216 1.391 . S
C1218 H1208 0.950 . S
C1218 C1219 1.386 . S
C1218 C1220 1.391 . S
C1219 C1218 1.386 . S
C1219 C1223 1.393 . S
C1220 H1209 0.950 . S
C1220 C1218 1.391 . S
C1220 C1221 1.400 . S
C1221 C1215 1.491 . S
C1221 C1220 1.400 . S
C1221 C1222 1.398 . S
C1222 H1210 0.950 . S
C1222 C1221 1.398 . S
C1222 C1223 1.391 . S
C1223 H1211 0.950 . S
C1223 C1219 1.393 . S
C1223 C1222 1.391 . S
H1224 C1232 0.950 . S
H1225 C1237 0.950 . S
H1226 C1234 0.950 . S
H1227 C1236 0.950 . S
H1228 C1238 0.950 . S
H1229 C1240 0.950 . S
H1230 C1242 0.950 . S
H1231 C1243 0.950 . S
C1232 H1224 0.950 . S
C1232 C1233 1.386 . S
C1232 C1234 1.391 . S
C1233 C1232 1.386 . S
C1233 C1237 1.393 . S
C1234 H1226 0.950 . S
C1234 C1232 1.391 . S
C1234 C1235 1.400 . S
C1235 C1234 1.400 . S
C1235 C1236 1.398 . S
C1235 C1241 1.491 . S
C1236 H1227 0.950 . S
C1236 C1235 1.398 . S
C1236 C1237 1.391 . S
C1237 H1225 0.950 . S
C1237 C1233 1.393 . S
C1237 C1236 1.391 . S
C1238 H1228 0.950 . S
C1238 C1239 1.386 . S
C1238 C1240 1.391 . S
C1239 C1238 1.386 . S
C1239 C1243 1.393 . S
C1240 H1229 0.950 . S
C1240 C1238 1.391 . S
C1240 C1241 1.400 . S
C1241 C1235 1.491 . S
C1241 C1240 1.400 . S
C1241 C1242 1.398 . S
C1242 H1230 0.950 . S
C1242 C1241 1.398 . S
C1242 C1243 1.391 . S
C1243 H1231 0.950 . S
C1243 C1239 1.393 . S
C1243 C1242 1.391 . S
H1244 C1252 0.950 . S
H1245 C1257 0.950 . S
H1246 C1254 0.950 . S
H1247 C1256 0.950 . S
H1248 C1258 0.950 . S
H1249 C1260 0.950 . S
H1250 C1262 0.950 . S
H1251 C1263 0.950 . S
C1252 H1244 0.950 . S
C1252 C1253 1.386 . S
C1252 C1254 1.391 . S
C1253 C1252 1.386 . S
C1253 C1257 1.393 . S
C1254 H1246 0.950 . S
C1254 C1252 1.391 . S
C1254 C1255 1.400 . S
C1255 C1254 1.400 . S
C1255 C1256 1.398 . S
C1255 C1261 1.491 . S
C1256 H1247 0.950 . S
C1256 C1255 1.398 . S
C1256 C1257 1.391 . S
C1257 H1245 0.950 . S
C1257 C1253 1.393 . S
C1257 C1256 1.391 . S
C1258 H1248 0.950 . S
C1258 C1259 1.386 . S
C1258 C1260 1.391 . S
C1259 C1258 1.386 . S
C1259 C1263 1.393 . S
C1260 H1249 0.950 . S
C1260 C1258 1.391 . S
C1260 C1261 1.400 . S
C1261 C1255 1.491 . S
C1261 C1260 1.400 . S
C1261 C1262 1.398 . S
C1262 H1250 0.950 . S
C1262 C1261 1.398 . S
C1262 C1263 1.391 . S
C1263 H1251 0.950 . S
C1263 C1259 1.393 . S
C1263 C1262 1.391 . S
H1264 C1272 0.950 . S
H1265 C1277 0.950 . S
H1266 C1274 0.950 . S
H1267 C1276 0.950 . S
H1268 C1278 0.950 . S
H1269 C1280 0.950 . S
H1270 C1282 0.950 . S
H1271 C1283 0.950 . S
C1272 H1264 0.950 . S
C1272 C1273 1.386 . S
C1272 C1274 1.391 . S
C1273 C1272 1.386 . S
C1273 C1277 1.393 . S
C1274 H1266 0.950 . S
C1274 C1272 1.391 . S
C1274 C1275 1.400 . S
C1275 C1274 1.400 . S
C1275 C1276 1.398 . S
C1275 C1281 1.491 . S
C1276 H1267 0.950 . S
C1276 C1275 1.398 . S
C1276 C1277 1.391 . S
C1277 H1265 0.950 . S
C1277 C1273 1.393 . S
C1277 C1276 1.391 . S
C1278 H1268 0.950 . S
C1278 C1279 1.386 . S
C1278 C1280 1.391 . S
C1279 C1278 1.386 . S
C1279 C1283 1.393 . S
C1280 H1269 0.950 . S
C1280 C1278 1.391 . S
C1280 C1281 1.400 . S
C1281 C1275 1.491 . S
C1281 C1280 1.400 . S
C1281 C1282 1.398 . S
C1282 H1270 0.950 . S
C1282 C1281 1.398 . S
C1282 C1283 1.391 . S
C1283 H1271 0.950 . S
C1283 C1279 1.393 . S
C1283 C1282 1.391 . S
H1284 C1292 0.950 . S
H1285 C1297 0.950 . S
H1286 C1294 0.950 . S
H1287 C1296 0.950 . S
H1288 C1298 0.952 . S
H1289 C1300 0.950 . S
H1290 C1302 0.950 . S
H1291 C1303 0.950 . S
C1292 H1284 0.950 . S
C1292 C1293 1.386 . S
C1292 C1294 1.391 . S
C1293 C1292 1.386 . S
C1293 C1297 1.393 . S
C1294 H1286 0.950 . S
C1294 C1292 1.391 . S
C1294 C1295 1.400 . S
C1295 C1294 1.400 . S
C1295 C1296 1.398 . S
C1295 C1301 1.491 . S
C1296 H1287 0.950 . S
C1296 C1295 1.398 . S
C1296 C1297 1.391 . S
C1297 H1285 0.950 . S
C1297 C1293 1.393 . S
C1297 C1296 1.391 . S
C1298 H1288 0.952 . S
C1298 C1299 1.387 . S
C1298 C1300 1.388 1_565 S
C1299 C1298 1.387 . S
C1299 C1303 1.393 1_565 S
C1300 H1289 0.950 . S
C1300 C1298 1.388 1_545 S
C1300 C1301 1.400 . S
C1301 C1295 1.491 . S
C1301 C1300 1.400 . S
C1301 C1302 1.398 . S
C1302 H1290 0.950 . S
C1302 C1301 1.398 . S
C1302 C1303 1.391 . S
C1303 H1291 0.950 . S
C1303 C1299 1.393 1_545 S
C1303 C1302 1.391 . S
H1304 C1312 0.950 . S
H1305 C1317 0.950 . S
H1306 C1314 0.950 . S
H1307 C1316 0.950 . S
H1308 C1318 0.950 . S
H1309 C1320 0.950 . S
H1310 C1322 0.950 . S
H1311 C1323 0.950 . S
C1312 H1304 0.950 . S
C1312 C1313 1.386 . S
C1312 C1314 1.391 . S
C1313 C1312 1.386 . S
C1313 C1317 1.393 . S
C1314 H1306 0.950 . S
C1314 C1312 1.391 . S
C1314 C1315 1.400 . S
C1315 C1314 1.400 . S
C1315 C1316 1.398 . S
C1315 C1321 1.491 . S
C1316 H1307 0.950 . S
C1316 C1315 1.398 . S
C1316 C1317 1.391 . S
C1317 H1305 0.950 . S
C1317 C1313 1.393 . S
C1317 C1316 1.391 . S
C1318 H1308 0.950 . S
C1318 C1319 1.386 . S
C1318 C1320 1.391 . S
C1319 C1318 1.386 . S
C1319 C1323 1.393 . S
C1320 H1309 0.950 . S
C1320 C1318 1.391 . S
C1320 C1321 1.400 . S
C1321 C1315 1.491 . S
C1321 C1320 1.400 . S
C1321 C1322 1.398 . S
C1322 H1310 0.950 . S
C1322 C1321 1.398 . S
C1322 C1323 1.391 . S
C1323 H1311 0.950 . S
C1323 C1319 1.393 . S
C1323 C1322 1.391 . S
H1324 C1332 0.950 . S
H1325 C1337 0.950 . S
H1326 C1334 0.950 . S
H1327 C1336 0.950 . S
H1328 C1338 0.950 . S
H1329 C1340 0.950 . S
H1330 C1342 0.950 . S
H1331 C1343 0.950 . S
C1332 H1324 0.950 . S
C1332 C1333 1.386 . S
C1332 C1334 1.391 . S
C1333 C1332 1.386 . S
C1333 C1337 1.393 . S
C1334 H1326 0.950 . S
C1334 C1332 1.391 . S
C1334 C1335 1.400 . S
C1335 C1334 1.400 . S
C1335 C1336 1.398 . S
C1335 C1341 1.491 . S
C1336 H1327 0.950 . S
C1336 C1335 1.398 . S
C1336 C1337 1.391 . S
C1337 H1325 0.950 . S
C1337 C1333 1.393 . S
C1337 C1336 1.391 . S
C1338 H1328 0.950 . S
C1338 C1339 1.386 . S
C1338 C1340 1.391 . S
C1339 C1338 1.386 . S
C1339 C1343 1.393 . S
C1340 H1329 0.950 . S
C1340 C1338 1.391 . S
C1340 C1341 1.400 . S
C1341 C1335 1.491 . S
C1341 C1340 1.400 . S
C1341 C1342 1.398 . S
C1342 H1330 0.950 . S
C1342 C1341 1.398 . S
C1342 C1343 1.391 . S
C1343 H1331 0.950 . S
C1343 C1339 1.393 . S
C1343 C1342 1.391 . S
H1344 C1352 0.950 . S
H1345 C1357 0.950 . S
H1346 C1354 0.950 . S
H1347 C1356 0.950 . S
H1348 C1358 0.950 . S
H1349 C1360 0.950 . S
H1350 C1362 0.950 . S
H1351 C1363 0.950 . S
C1352 H1344 0.950 . S
C1352 C1353 1.386 . S
C1352 C1354 1.391 . S
C1353 C1352 1.386 . S
C1353 C1357 1.393 . S
C1354 H1346 0.950 . S
C1354 C1352 1.391 . S
C1354 C1355 1.400 . S
C1355 C1354 1.400 . S
C1355 C1356 1.398 . S
C1355 C1361 1.491 . S
C1356 H1347 0.950 . S
C1356 C1355 1.398 . S
C1356 C1357 1.391 . S
C1357 H1345 0.950 . S
C1357 C1353 1.393 . S
C1357 C1356 1.391 . S
C1358 H1348 0.950 . S
C1358 C1359 1.386 . S
C1358 C1360 1.391 . S
C1359 C1358 1.386 . S
C1359 C1363 1.393 . S
C1360 H1349 0.950 . S
C1360 C1358 1.391 . S
C1360 C1361 1.400 . S
C1361 C1355 1.491 . S
C1361 C1360 1.400 . S
C1361 C1362 1.398 . S
C1362 H1350 0.950 . S
C1362 C1361 1.398 . S
C1362 C1363 1.391 . S
C1363 H1351 0.950 . S
C1363 C1359 1.393 . S
C1363 C1362 1.391 . S
H1364 C1372 0.950 . S
H1365 C1377 0.950 . S
H1366 C1374 0.950 . S
H1367 C1376 0.950 . S
H1368 C1378 0.950 . S
H1369 C1380 0.950 . S
H1370 C1382 0.950 . S
H1371 C1383 0.950 . S
C1372 H1364 0.950 . S
C1372 C1373 1.386 . S
C1372 C1374 1.391 . S
C1373 C1372 1.386 . S
C1373 C1377 1.393 . S
C1374 H1366 0.950 . S
C1374 C1372 1.391 . S
C1374 C1375 1.400 . S
C1375 C1374 1.400 . S
C1375 C1376 1.398 . S
C1375 C1381 1.491 . S
C1376 H1367 0.950 . S
C1376 C1375 1.398 . S
C1376 C1377 1.391 . S
C1377 H1365 0.950 . S
C1377 C1373 1.393 . S
C1377 C1376 1.391 . S
C1378 H1368 0.950 . S
C1378 C1379 1.386 . S
C1378 C1380 1.391 . S
C1379 C1378 1.386 . S
C1379 C1383 1.393 . S
C1380 H1369 0.950 . S
C1380 C1378 1.391 . S
C1380 C1381 1.400 . S
C1381 C1375 1.491 . S
C1381 C1380 1.400 . S
C1381 C1382 1.398 . S
C1382 H1370 0.950 . S
C1382 C1381 1.398 . S
C1382 C1383 1.391 . S
C1383 H1371 0.950 . S
C1383 C1379 1.393 . S
C1383 C1382 1.391 . S
H1384 C1392 0.950 . S
H1385 C1397 0.950 . S
H1386 C1394 0.950 . S
H1387 C1396 0.950 . S
H1388 C1398 0.950 . S
H1389 C1400 0.950 . S
H1390 C1402 0.950 . S
H1391 C1403 0.950 . S
C1392 H1384 0.950 . S
C1392 C1393 1.386 . S
C1392 C1394 1.391 . S
C1393 C1392 1.386 . S
C1393 C1397 1.393 . S
C1394 H1386 0.950 . S
C1394 C1392 1.391 . S
C1394 C1395 1.400 . S
C1395 C1394 1.400 . S
C1395 C1396 1.398 . S
C1395 C1401 1.491 . S
C1396 H1387 0.950 . S
C1396 C1395 1.398 . S
C1396 C1397 1.391 . S
C1397 H1385 0.950 . S
C1397 C1393 1.393 . S
C1397 C1396 1.391 . S
C1398 H1388 0.950 . S
C1398 C1399 1.386 . S
C1398 C1400 1.391 . S
C1399 C1398 1.386 . S
C1399 C1403 1.393 . S
C1400 H1389 0.950 . S
C1400 C1398 1.391 . S
C1400 C1401 1.400 . S
C1401 C1395 1.491 . S
C1401 C1400 1.400 . S
C1401 C1402 1.398 . S
C1402 H1390 0.950 . S
C1402 C1401 1.398 . S
C1402 C1403 1.391 . S
C1403 H1391 0.950 . S
C1403 C1399 1.393 . S
C1403 C1402 1.391 . S
H1404 C1412 0.950 . S
H1405 C1417 0.950 . S
H1406 C1414 0.950 . S
H1407 C1416 0.950 . S
H1408 C1418 0.950 . S
H1409 C1420 0.950 . S
H1410 C1422 0.950 . S
H1411 C1423 0.950 . S
C1412 H1404 0.950 . S
C1412 C1413 1.386 . S
C1412 C1414 1.391 . S
C1413 C1412 1.386 . S
C1413 C1417 1.393 . S
C1414 H1406 0.950 . S
C1414 C1412 1.391 . S
C1414 C1415 1.400 . S
C1415 C1414 1.400 . S
C1415 C1416 1.398 . S
C1415 C1421 1.491 . S
C1416 H1407 0.950 . S
C1416 C1415 1.398 . S
C1416 C1417 1.391 . S
C1417 H1405 0.950 . S
C1417 C1413 1.393 . S
C1417 C1416 1.391 . S
C1418 H1408 0.950 . S
C1418 C1419 1.386 . S
C1418 C1420 1.391 . S
C1419 C1418 1.386 . S
C1419 C1423 1.393 . S
C1420 H1409 0.950 . S
C1420 C1418 1.391 . S
C1420 C1421 1.400 . S
C1421 C1415 1.491 . S
C1421 C1420 1.400 . S
C1421 C1422 1.398 . S
C1422 H1410 0.950 . S
C1422 C1421 1.398 . S
C1422 C1423 1.391 . S
C1423 H1411 0.950 . S
C1423 C1419 1.393 . S
C1423 C1422 1.391 . S
H1424 C1432 0.950 . S
H1425 C1437 0.950 . S
H1426 C1434 0.950 . S
H1427 C1436 0.950 . S
H1428 C1438 0.950 . S
H1429 C1440 0.950 . S
H1430 C1442 0.950 . S
H1431 C1443 0.950 . S
C1432 H1424 0.950 . S
C1432 C1433 1.386 . S
C1432 C1434 1.391 . S
C1433 C1432 1.386 . S
C1433 C1437 1.393 . S
C1434 H1426 0.950 . S
C1434 C1432 1.391 . S
C1434 C1435 1.400 . S
C1435 C1434 1.400 . S
C1435 C1436 1.398 . S
C1435 C1441 1.491 . S
C1436 H1427 0.950 . S
C1436 C1435 1.398 . S
C1436 C1437 1.391 . S
C1437 H1425 0.950 . S
C1437 C1433 1.393 . S
C1437 C1436 1.391 . S
C1438 H1428 0.950 . S
C1438 C1439 1.386 . S
C1438 C1440 1.391 . S
C1439 C1438 1.386 . S
C1439 C1443 1.393 . S
C1440 H1429 0.950 . S
C1440 C1438 1.391 . S
C1440 C1441 1.400 . S
C1441 C1435 1.491 . S
C1441 C1440 1.400 . S
C1441 C1442 1.398 . S
C1442 H1430 0.950 . S
C1442 C1441 1.398 . S
C1442 C1443 1.391 . S
C1443 H1431 0.950 . S
C1443 C1439 1.393 . S
C1443 C1442 1.391 . S
H1444 C1452 0.950 . S
H1445 C1457 0.950 . S
H1446 C1454 0.950 . S
H1447 C1456 0.950 . S
H1448 C1458 0.950 . S
H1449 C1460 0.950 . S
H1450 C1462 0.950 . S
H1451 C1463 0.950 . S
C1452 H1444 0.950 . S
C1452 C1453 1.386 . S
C1452 C1454 1.391 . S
C1453 C1452 1.386 . S
C1453 C1457 1.393 . S
C1454 H1446 0.950 . S
C1454 C1452 1.391 . S
C1454 C1455 1.400 . S
C1455 C1454 1.400 . S
C1455 C1456 1.398 . S
C1455 C1461 1.491 . S
C1456 H1447 0.950 . S
C1456 C1455 1.398 . S
C1456 C1457 1.391 . S
C1457 H1445 0.950 . S
C1457 C1453 1.393 . S
C1457 C1456 1.391 . S
C1458 H1448 0.950 . S
C1458 C1459 1.386 . S
C1458 C1460 1.391 . S
C1459 C1458 1.386 . S
C1459 C1463 1.393 . S
C1460 H1449 0.950 . S
C1460 C1458 1.391 . S
C1460 C1461 1.400 . S
C1461 C1455 1.491 . S
C1461 C1460 1.400 . S
C1461 C1462 1.398 . S
C1462 H1450 0.950 . S
C1462 C1461 1.398 . S
C1462 C1463 1.391 . S
C1463 H1451 0.950 . S
C1463 C1459 1.393 . S
C1463 C1462 1.391 . S
H1464 C1472 0.950 . S
H1465 C1477 0.950 1_545 S
H1466 C1474 0.950 . S
H1467 C1476 0.950 . S
H1468 C1478 0.950 . S
H1469 C1480 0.950 . S
H1470 C1482 0.950 . S
H1471 C1483 0.950 . S
C1472 H1464 0.950 . S
C1472 C1473 1.386 . S
C1472 C1474 1.391 . S
C1473 C1472 1.386 . S
C1473 C1477 1.393 . S
C1474 H1466 0.950 . S
C1474 C1472 1.391 . S
C1474 C1475 1.400 . S
C1475 C1474 1.400 . S
C1475 C1476 1.398 . S
C1475 C1481 1.491 . S
C1476 H1467 0.950 . S
C1476 C1475 1.398 . S
C1476 C1477 1.391 . S
C1477 H1465 0.950 1_565 S
C1477 C1473 1.393 . S
C1477 C1476 1.391 . S
C1478 H1468 0.950 . S
C1478 C1479 1.386 . S
C1478 C1480 1.391 . S
C1479 C1478 1.386 . S
C1479 C1483 1.393 . S
C1480 H1469 0.950 . S
C1480 C1478 1.391 . S
C1480 C1481 1.400 . S
C1481 C1475 1.491 . S
C1481 C1480 1.400 . S
C1481 C1482 1.398 . S
C1482 H1470 0.950 . S
C1482 C1481 1.398 . S
C1482 C1483 1.391 . S
C1483 H1471 0.950 . S
C1483 C1479 1.393 . S
C1483 C1482 1.391 . S
H1484 C1492 0.950 . S
H1485 C1497 0.950 . S
H1486 C1494 0.950 . S
H1487 C1496 0.950 . S
H1488 C1498 0.950 . S
H1489 C1500 0.950 . S
H1490 C1502 0.950 . S
H1491 C1503 0.950 . S
C1492 H1484 0.950 . S
C1492 C1493 1.386 . S
C1492 C1494 1.391 . S
C1493 C1492 1.386 . S
C1493 C1497 1.393 . S
C1494 H1486 0.950 . S
C1494 C1492 1.391 . S
C1494 C1495 1.400 . S
C1495 C1494 1.400 . S
C1495 C1496 1.398 . S
C1495 C1501 1.491 . S
C1496 H1487 0.950 . S
C1496 C1495 1.398 . S
C1496 C1497 1.391 . S
C1497 H1485 0.950 . S
C1497 C1493 1.393 . S
C1497 C1496 1.391 . S
C1498 H1488 0.950 . S
C1498 C1499 1.386 . S
C1498 C1500 1.391 . S
C1499 C1498 1.386 . S
C1499 C1503 1.393 . S
C1500 H1489 0.950 . S
C1500 C1498 1.391 . S
C1500 C1501 1.400 . S
C1501 C1495 1.491 . S
C1501 C1500 1.400 . S
C1501 C1502 1.398 . S
C1502 H1490 0.950 . S
C1502 C1501 1.398 . S
C1502 C1503 1.391 . S
C1503 H1491 0.950 . S
C1503 C1499 1.393 . S
C1503 C1502 1.391 . S
H1504 C1512 0.950 . S
H1505 C1517 0.950 . S
H1506 C1514 0.950 . S
H1507 C1516 0.950 . S
H1508 C1518 0.950 1_565 S
H1509 C1520 0.950 . S
H1510 C1522 0.950 . S
H1511 C1523 0.950 . S
C1512 H1504 0.950 . S
C1512 C1513 1.386 . S
C1512 C1514 1.391 . S
C1513 C1512 1.386 . S
C1513 C1517 1.393 . S
C1514 H1506 0.950 . S
C1514 C1512 1.391 . S
C1514 C1515 1.400 . S
C1515 C1514 1.400 . S
C1515 C1516 1.398 . S
C1515 C1521 1.491 . S
C1516 H1507 0.950 . S
C1516 C1515 1.398 . S
C1516 C1517 1.391 . S
C1517 H1505 0.950 . S
C1517 C1513 1.393 . S
C1517 C1516 1.391 . S
C1518 H1508 0.950 1_545 S
C1518 C1519 1.386 1_655 S
C1518 C1520 1.391 . S
C1519 C1518 1.386 1_455 S
C1519 C1523 1.393 . S
C1520 H1509 0.950 . S
C1520 C1518 1.391 . S
C1520 C1521 1.400 . S
C1521 C1515 1.491 . S
C1521 C1520 1.400 . S
C1521 C1522 1.398 . S
C1522 H1510 0.950 . S
C1522 C1521 1.398 . S
C1522 C1523 1.391 1_655 S
C1523 H1511 0.950 . S
C1523 C1519 1.393 . S
C1523 C1522 1.391 1_455 S
H1524 C1532 0.950 . S
H1525 C1537 0.950 . S
H1526 C1534 0.950 . S
H1527 C1536 0.950 . S
H1528 C1538 0.950 . S
H1529 C1540 0.950 . S
H1530 C1542 0.950 . S
H1531 C1543 0.950 . S
C1532 H1524 0.950 . S
C1532 C1533 1.386 . S
C1532 C1534 1.391 . S
C1533 C1532 1.386 . S
C1533 C1537 1.393 . S
C1534 H1526 0.950 . S
C1534 C1532 1.391 . S
C1534 C1535 1.400 . S
C1535 C1534 1.400 . S
C1535 C1536 1.398 . S
C1535 C1541 1.491 . S
C1536 H1527 0.950 . S
C1536 C1535 1.398 . S
C1536 C1537 1.391 . S
C1537 H1525 0.950 . S
C1537 C1533 1.393 . S
C1537 C1536 1.391 . S
C1538 H1528 0.950 . S
C1538 C1539 1.386 . S
C1538 C1540 1.391 . S
C1539 C1538 1.386 . S
C1539 C1543 1.393 . S
C1540 H1529 0.950 . S
C1540 C1538 1.391 . S
C1540 C1541 1.400 . S
C1541 C1535 1.491 . S
C1541 C1540 1.400 . S
C1541 C1542 1.398 . S
C1542 H1530 0.950 . S
C1542 C1541 1.398 . S
C1542 C1543 1.391 . S
C1543 H1531 0.950 . S
C1543 C1539 1.393 . S
C1543 C1542 1.391 . S
H1544 C1552 0.950 . S
H1545 C1557 0.950 . S
H1546 C1554 0.950 . S
H1547 C1556 0.950 . S
H1548 C1558 0.950 . S
H1549 C1560 0.950 . S
H1550 C1562 0.950 . S
H1551 C1563 0.950 1_565 S
C1552 H1544 0.950 . S
C1552 C1553 1.386 . S
C1552 C1554 1.391 . S
C1553 C1552 1.386 . S
C1553 C1557 1.393 . S
C1554 H1546 0.950 . S
C1554 C1552 1.391 . S
C1554 C1555 1.400 . S
C1555 C1554 1.400 . S
C1555 C1556 1.398 . S
C1555 C1561 1.491 . S
C1556 H1547 0.950 . S
C1556 C1555 1.398 . S
C1556 C1557 1.391 . S
C1557 H1545 0.950 . S
C1557 C1553 1.393 . S
C1557 C1556 1.391 . S
C1558 H1548 0.950 . S
C1558 C1559 1.386 . S
C1558 C1560 1.391 . S
C1559 C1558 1.386 . S
C1559 C1563 1.393 . S
C1560 H1549 0.950 . S
C1560 C1558 1.391 . S
C1560 C1561 1.400 . S
C1561 C1555 1.491 . S
C1561 C1560 1.400 . S
C1561 C1562 1.398 . S
C1562 H1550 0.950 . S
C1562 C1561 1.398 . S
C1562 C1563 1.391 . S
C1563 H1551 0.950 1_545 S
C1563 C1559 1.393 . S
C1563 C1562 1.391 . S
H1564 C1572 0.950 . S
H1565 C1577 0.950 . S
H1566 C1574 0.950 . S
H1567 C1576 0.950 . S
H1568 C1578 0.950 . S
H1569 C1580 0.950 . S
H1570 C1582 0.950 . S
H1571 C1583 0.950 . S
C1572 H1564 0.950 . S
C1572 C1573 1.386 . S
C1572 C1574 1.391 . S
C1573 C1572 1.386 . S
C1573 C1577 1.393 . S
C1574 H1566 0.950 . S
C1574 C1572 1.391 . S
C1574 C1575 1.400 . S
C1575 C1574 1.400 . S
C1575 C1576 1.398 . S
C1575 C1581 1.491 . S
C1576 H1567 0.950 . S
C1576 C1575 1.398 . S
C1576 C1577 1.391 . S
C1577 H1565 0.950 . S
C1577 C1573 1.393 . S
C1577 C1576 1.391 . S
C1578 H1568 0.950 . S
C1578 C1579 1.386 . S
C1578 C1580 1.391 . S
C1579 C1578 1.386 . S
C1579 C1583 1.393 . S
C1580 H1569 0.950 . S
C1580 C1578 1.391 . S
C1580 C1581 1.400 . S
C1581 C1575 1.491 . S
C1581 C1580 1.400 . S
C1581 C1582 1.398 . S
C1582 H1570 0.950 . S
C1582 C1581 1.398 . S
C1582 C1583 1.391 . S
C1583 H1571 0.950 . S
C1583 C1579 1.393 . S
C1583 C1582 1.391 . S
H1584 C1592 0.950 . S
H1585 C1597 0.950 . S
H1586 C1594 0.950 . S
H1587 C1596 0.950 . S
H1588 C1598 0.950 . S
H1589 C1600 0.950 . S
H1590 C1602 0.950 . S
H1591 C1603 0.950 . S
C1592 H1584 0.950 . S
C1592 C1593 1.386 . S
C1592 C1594 1.391 . S
C1593 C1592 1.386 . S
C1593 C1597 1.393 1_655 S
C1594 H1586 0.950 . S
C1594 C1592 1.391 . S
C1594 C1595 1.400 . S
C1595 C1594 1.400 . S
C1595 C1596 1.398 1_655 S
C1595 C1601 1.491 . S
C1596 H1587 0.950 . S
C1596 C1595 1.398 1_455 S
C1596 C1597 1.391 . S
C1597 H1585 0.950 . S
C1597 C1593 1.393 1_455 S
C1597 C1596 1.391 . S
C1598 H1588 0.950 . S
C1598 C1599 1.386 1_455 S
C1598 C1600 1.391 . S
C1599 C1598 1.386 1_655 S
C1599 C1603 1.393 . S
C1600 H1589 0.950 . S
C1600 C1598 1.391 . S
C1600 C1601 1.400 1_455 S
C1601 C1595 1.491 . S
C1601 C1600 1.400 1_655 S
C1601 C1602 1.398 . S
C1602 H1590 0.950 . S
C1602 C1601 1.398 . S
C1602 C1603 1.391 . S
C1603 H1591 0.950 . S
C1603 C1599 1.393 . S
C1603 C1602 1.391 . S
H1604 C1612 0.950 . S
H1605 C1617 0.950 1_554 S
H1606 C1614 0.950 . S
H1607 C1616 0.950 . S
H1608 C1618 0.950 . S
H1609 C1620 0.950 . S
H1610 C1622 0.950 . S
H1611 C1623 0.950 1_556 S
C1612 H1604 0.950 . S
C1612 C1613 1.386 . S
C1612 C1614 1.391 . S
C1613 C1612 1.386 . S
C1613 C1617 1.393 . S
C1614 H1606 0.950 . S
C1614 C1612 1.391 . S
C1614 C1615 1.400 . S
C1615 C1614 1.400 . S
C1615 C1616 1.398 1_556 S
C1615 C1621 1.491 1_556 S
C1616 H1607 0.950 . S
C1616 C1615 1.398 1_554 S
C1616 C1617 1.391 1_554 S
C1617 H1605 0.950 1_556 S
C1617 C1613 1.393 . S
C1617 C1616 1.391 1_556 S
C1618 H1608 0.950 . S
C1618 C1619 1.386 . S
C1618 C1620 1.391 . S
C1619 C1618 1.386 . S
C1619 C1623 1.393 . S
C1620 H1609 0.950 . S
C1620 C1618 1.391 . S
C1620 C1621 1.400 . S
C1621 C1615 1.491 1_554 S
C1621 C1620 1.400 . S
C1621 C1622 1.398 1_554 S
C1622 H1610 0.950 . S
C1622 C1621 1.398 1_556 S
C1622 C1623 1.391 1_556 S
C1623 H1611 0.950 1_554 S
C1623 C1619 1.393 . S
C1623 C1622 1.391 1_554 S
H1624 C1632 0.950 . S
H1625 C1637 0.950 . S
H1626 C1634 0.950 . S
H1627 C1636 0.950 . S
H1628 C1638 0.950 . S
H1629 C1640 0.950 . S
H1630 C1642 0.950 . S
H1631 C1643 0.950 . S
C1632 H1624 0.950 . S
C1632 C1633 1.386 . S
C1632 C1634 1.391 . S
C1633 C1632 1.386 . S
C1633 C1637 1.393 1_455 S
C1634 H1626 0.950 . S
C1634 C1632 1.391 . S
C1634 C1635 1.400 . S
C1635 C1634 1.400 . S
C1635 C1636 1.398 1_455 S
C1635 C1641 1.491 . S
C1636 H1627 0.950 . S
C1636 C1635 1.398 1_655 S
C1636 C1637 1.391 . S
C1637 H1625 0.950 . S
C1637 C1633 1.393 1_655 S
C1637 C1636 1.391 . S
C1638 H1628 0.950 . S
C1638 C1639 1.386 1_655 S
C1638 C1640 1.391 . S
C1639 C1638 1.386 1_455 S
C1639 C1643 1.393 . S
C1640 H1629 0.950 . S
C1640 C1638 1.391 . S
C1640 C1641 1.400 1_665 S
C1641 C1635 1.491 . S
C1641 C1640 1.400 1_445 S
C1641 C1642 1.398 1_545 S
C1642 H1630 0.950 . S
C1642 C1641 1.398 1_565 S
C1642 C1643 1.391 . S
C1643 H1631 0.950 . S
C1643 C1639 1.393 . S
C1643 C1642 1.391 . S
H1644 C1652 0.950 . S
H1645 C1657 0.950 . S
H1646 C1654 0.950 . S
H1647 C1656 0.950 . S
H1648 C1658 0.950 . S
H1649 C1660 0.950 . S
H1650 C1662 0.950 . S
H1651 C1663 0.950 . S
C1652 H1644 0.950 . S
C1652 C1653 1.386 . S
C1652 C1654 1.391 . S
C1653 C1652 1.386 . S
C1653 C1657 1.393 1_556 S
C1654 H1646 0.950 . S
C1654 C1652 1.391 . S
C1654 C1655 1.400 . S
C1655 C1654 1.400 . S
C1655 C1656 1.398 1_556 S
C1655 C1661 1.491 1_556 S
C1656 H1647 0.950 . S
C1656 C1655 1.398 1_554 S
C1656 C1657 1.391 . S
C1657 H1645 0.950 . S
C1657 C1653 1.393 1_554 S
C1657 C1656 1.391 . S
C1658 H1648 0.950 . S
C1658 C1659 1.386 . S
C1658 C1660 1.391 . S
C1659 C1658 1.386 . S
C1659 C1663 1.393 1_554 S
C1660 H1649 0.950 . S
C1660 C1658 1.391 . S
C1660 C1661 1.400 . S
C1661 C1655 1.491 1_554 S
C1661 C1660 1.400 . S
C1661 C1662 1.398 1_554 S
C1662 H1650 0.950 . S
C1662 C1661 1.398 1_556 S
C1662 C1663 1.391 . S
C1663 H1651 0.950 . S
C1663 C1659 1.393 1_556 S
C1663 C1662 1.391 . S
H1664 C1672 0.950 . S
H1665 C1677 0.950 . S
H1666 C1674 0.950 . S
H1667 C1676 0.950 . S
H1668 C1678 0.950 . S
H1669 C1680 0.950 . S
H1670 C1682 0.950 . S
H1671 C1683 0.950 . S
C1672 H1664 0.950 . S
C1672 C1673 1.386 . S
C1672 C1674 1.391 . S
C1673 C1672 1.386 . S
C1673 C1677 1.393 . S
C1674 H1666 0.950 . S
C1674 C1672 1.391 . S
C1674 C1675 1.400 . S
C1675 C1674 1.400 . S
C1675 C1676 1.398 . S
C1675 C1681 1.491 . S
C1676 H1667 0.950 . S
C1676 C1675 1.398 . S
C1676 C1677 1.391 . S
C1677 H1665 0.950 . S
C1677 C1673 1.393 . S
C1677 C1676 1.391 . S
C1678 H1668 0.950 . S
C1678 C1679 1.386 . S
C1678 C1680 1.391 . S
C1679 C1678 1.386 . S
C1679 C1683 1.393 . S
C1680 H1669 0.950 . S
C1680 C1678 1.391 . S
C1680 C1681 1.400 . S
C1681 C1675 1.491 . S
C1681 C1680 1.400 . S
C1681 C1682 1.398 . S
C1682 H1670 0.950 . S
C1682 C1681 1.398 . S
C1682 C1683 1.391 . S
C1683 H1671 0.950 . S
C1683 C1679 1.393 . S
C1683 C1682 1.391 . S
H1684 C1692 0.950 . S
H1685 C1697 0.950 . S
H1686 C1694 0.950 . S
H1687 C1696 0.950 . S
H1688 C1698 0.950 . S
H1689 C1700 0.950 . S
H1690 C1702 0.950 . S
H1691 C1703 0.950 . S
C1692 H1684 0.950 . S
C1692 C1693 1.386 . S
C1692 C1694 1.391 . S
C1693 C1692 1.386 . S
C1693 C1697 1.393 . S
C1694 H1686 0.950 . S
C1694 C1692 1.391 . S
C1694 C1695 1.400 . S
C1695 C1694 1.400 . S
C1695 C1696 1.398 . S
C1695 C1701 1.491 . S
C1696 H1687 0.950 . S
C1696 C1695 1.398 . S
C1696 C1697 1.391 . S
C1697 H1685 0.950 . S
C1697 C1693 1.393 . S
C1697 C1696 1.391 . S
C1698 H1688 0.950 . S
C1698 C1699 1.386 . S
C1698 C1700 1.391 . S
C1699 C1698 1.386 . S
C1699 C1703 1.393 . S
C1700 H1689 0.950 . S
C1700 C1698 1.391 . S
C1700 C1701 1.400 . S
C1701 C1695 1.491 . S
C1701 C1700 1.400 . S
C1701 C1702 1.398 . S
C1702 H1690 0.950 . S
C1702 C1701 1.398 . S
C1702 C1703 1.391 . S
C1703 H1691 0.950 . S
C1703 C1699 1.393 . S
C1703 C1702 1.391 . S
H1704 C1712 0.950 . S
H1705 C1717 0.950 . S
H1706 C1714 0.950 . S
H1707 C1716 0.950 . S
H1708 C1718 0.950 . S
H1709 C1720 0.950 . S
H1710 C1722 0.950 . S
H1711 C1723 0.950 . S
C1712 H1704 0.950 . S
C1712 C1713 1.386 . S
C1712 C1714 1.391 . S
C1713 C1712 1.386 . S
C1713 C1717 1.393 . S
C1714 H1706 0.950 . S
C1714 C1712 1.391 . S
C1714 C1715 1.400 . S
C1715 C1714 1.400 . S
C1715 C1716 1.398 . S
C1715 C1721 1.491 . S
C1716 H1707 0.950 . S
C1716 C1715 1.398 . S
C1716 C1717 1.391 . S
C1717 H1705 0.950 . S
C1717 C1713 1.393 . S
C1717 C1716 1.391 . S
C1718 H1708 0.950 . S
C1718 C1719 1.386 . S
C1718 C1720 1.391 . S
C1719 C1718 1.386 . S
C1719 C1723 1.393 . S
C1720 H1709 0.950 . S
C1720 C1718 1.391 . S
C1720 C1721 1.400 . S
C1721 C1715 1.491 . S
C1721 C1720 1.400 . S
C1721 C1722 1.398 . S
C1722 H1710 0.950 . S
C1722 C1721 1.398 . S
C1722 C1723 1.391 . S
C1723 H1711 0.950 . S
C1723 C1719 1.393 . S
C1723 C1722 1.391 . S
H1724 C1732 0.950 . S
H1725 C1737 0.950 . S
H1726 C1734 0.950 . S
H1727 C1736 0.950 . S
H1728 C1738 0.950 . S
H1729 C1740 0.950 . S
H1730 C1742 0.950 . S
H1731 C1743 0.950 . S
C1732 H1724 0.950 . S
C1732 C1733 1.386 1_565 S
C1732 C1734 1.391 . S
C1733 C1732 1.386 1_545 S
C1733 C1737 1.393 . S
C1734 H1726 0.950 . S
C1734 C1732 1.391 . S
C1734 C1735 1.400 1_565 S
C1735 C1734 1.400 1_545 S
C1735 C1736 1.398 . S
C1735 C1741 1.491 1_545 S
C1736 H1727 0.950 . S
C1736 C1735 1.398 . S
C1736 C1737 1.391 . S
C1737 H1725 0.950 . S
C1737 C1733 1.393 . S
C1737 C1736 1.391 . S
C1738 H1728 0.950 . S
C1738 C1739 1.386 1_545 S
C1738 C1740 1.391 . S
C1739 C1738 1.386 1_565 S
C1739 C1743 1.393 . S
C1740 H1729 0.950 . S
C1740 C1738 1.391 . S
C1740 C1741 1.400 1_545 S
C1741 C1735 1.491 1_565 S
C1741 C1740 1.400 1_565 S
C1741 C1742 1.398 . S
C1742 H1730 0.950 . S
C1742 C1741 1.398 . S
C1742 C1743 1.391 . S
C1743 H1731 0.950 . S
C1743 C1739 1.393 . S
C1743 C1742 1.391 . S
H1744 C1752 0.950 . S
H1745 C1757 0.950 . S
H1746 C1754 0.950 . S
H1747 C1756 0.950 . S
H1748 C1758 0.950 . S
H1749 C1760 0.950 . S
H1750 C1762 0.950 . S
H1751 C1763 0.950 . S
C1752 H1744 0.950 . S
C1752 C1753 1.386 . S
C1752 C1754 1.391 . S
C1753 C1752 1.386 . S
C1753 C1757 1.393 1_545 S
C1754 H1746 0.950 . S
C1754 C1752 1.391 . S
C1754 C1755 1.400 . S
C1755 C1754 1.400 . S
C1755 C1756 1.398 1_545 S
C1755 C1761 1.491 1_554 S
C1756 H1747 0.950 . S
C1756 C1755 1.398 1_565 S
C1756 C1757 1.391 . S
C1757 H1745 0.950 . S
C1757 C1753 1.393 1_565 S
C1757 C1756 1.391 . S
C1758 H1748 0.950 . S
C1758 C1759 1.386 1_565 S
C1758 C1760 1.391 . S
C1759 C1758 1.386 1_545 S
C1759 C1763 1.393 . S
C1760 H1749 0.950 . S
C1760 C1758 1.391 . S
C1760 C1761 1.400 1_565 S
C1761 C1755 1.491 1_556 S
C1761 C1760 1.400 1_545 S
C1761 C1762 1.398 . S
C1762 H1750 0.950 . S
C1762 C1761 1.398 . S
C1762 C1763 1.391 . S
C1763 H1751 0.950 . S
C1763 C1759 1.393 . S
C1763 C1762 1.391 . S
H1764 C1772 0.950 . S
H1765 C1777 0.950 . S
H1766 C1774 0.950 . S
H1767 C1776 0.950 . S
H1768 C1778 0.950 . S
H1769 C1780 0.950 . S
H1770 C1782 0.950 . S
H1771 C1783 0.950 . S
C1772 H1764 0.950 . S
C1772 C1773 1.386 . S
C1772 C1774 1.391 . S
C1773 C1772 1.386 . S
C1773 C1777 1.393 . S
C1774 H1766 0.950 . S
C1774 C1772 1.391 . S
C1774 C1775 1.400 . S
C1775 C1774 1.400 . S
C1775 C1776 1.398 . S
C1775 C1781 1.491 . S
C1776 H1767 0.950 . S
C1776 C1775 1.398 . S
C1776 C1777 1.391 . S
C1777 H1765 0.950 . S
C1777 C1773 1.393 . S
C1777 C1776 1.391 . S
C1778 H1768 0.950 . S
C1778 C1779 1.386 . S
C1778 C1780 1.391 . S
C1779 C1778 1.386 . S
C1779 C1783 1.393 . S
C1780 H1769 0.950 . S
C1780 C1778 1.391 . S
C1780 C1781 1.400 . S
C1781 C1775 1.491 . S
C1781 C1780 1.400 . S
C1781 C1782 1.398 . S
C1782 H1770 0.950 . S
C1782 C1781 1.398 . S
C1782 C1783 1.391 . S
C1783 H1771 0.950 . S
C1783 C1779 1.393 . S
C1783 C1782 1.391 . S
H1784 C1792 0.950 . S
H1785 C1797 0.950 . S
H1786 C1794 0.950 . S
H1787 C1796 0.950 . S
H1788 C1798 0.950 . S
H1789 C1800 0.950 . S
H1790 C1802 0.950 . S
H1791 C1803 0.950 . S
C1792 H1784 0.950 . S
C1792 C1793 1.386 . S
C1792 C1794 1.391 . S
C1793 C1792 1.386 . S
C1793 C1797 1.393 . S
C1794 H1786 0.950 . S
C1794 C1792 1.391 . S
C1794 C1795 1.400 . S
C1795 C1794 1.400 . S
C1795 C1796 1.398 . S
C1795 C1801 1.491 1_554 S
C1796 H1787 0.950 . S
C1796 C1795 1.398 . S
C1796 C1797 1.391 . S
C1797 H1785 0.950 . S
C1797 C1793 1.393 . S
C1797 C1796 1.391 . S
C1798 H1788 0.950 . S
C1798 C1799 1.386 . S
C1798 C1800 1.391 . S
C1799 C1798 1.386 . S
C1799 C1803 1.393 . S
C1800 H1789 0.950 . S
C1800 C1798 1.391 . S
C1800 C1801 1.400 . S
C1801 C1795 1.491 1_556 S
C1801 C1800 1.400 . S
C1801 C1802 1.398 . S
C1802 H1790 0.950 . S
C1802 C1801 1.398 . S
C1802 C1803 1.391 . S
C1803 H1791 0.950 . S
C1803 C1799 1.393 . S
C1803 C1802 1.391 . S
H1804 C1812 0.950 . S
H1805 C1817 0.950 . S
H1806 C1814 0.950 . S
H1807 C1816 0.950 1_565 S
H1808 C1818 0.950 . S
H1809 C1820 0.950 . S
H1810 C1822 0.950 . S
H1811 C1823 0.950 . S
C1812 H1804 0.950 . S
C1812 C1813 1.386 . S
C1812 C1814 1.391 . S
C1813 C1812 1.386 . S
C1813 C1817 1.393 . S
C1814 H1806 0.950 . S
C1814 C1812 1.391 . S
C1814 C1815 1.400 . S
C1815 C1814 1.400 . S
C1815 C1816 1.398 . S
C1815 C1821 1.491 . S
C1816 H1807 0.950 1_545 S
C1816 C1815 1.398 . S
C1816 C1817 1.391 . S
C1817 H1805 0.950 . S
C1817 C1813 1.393 . S
C1817 C1816 1.391 . S
C1818 H1808 0.950 . S
C1818 C1819 1.386 . S
C1818 C1820 1.391 . S
C1819 C1818 1.386 . S
C1819 C1823 1.393 1_565 S
C1820 H1809 0.950 . S
C1820 C1818 1.391 . S
C1820 C1821 1.400 1_565 S
C1821 C1815 1.491 . S
C1821 C1820 1.400 1_545 S
C1821 C1822 1.398 . S
C1822 H1810 0.950 . S
C1822 C1821 1.398 . S
C1822 C1823 1.391 . S
C1823 H1811 0.950 . S
C1823 C1819 1.393 1_545 S
C1823 C1822 1.391 . S
H1824 C1832 0.950 . S
H1825 C1837 0.950 . S
H1826 C1834 0.950 . S
H1827 C1836 0.950 . S
H1828 C1838 0.950 . S
H1829 C1840 0.950 . S
H1830 C1842 0.950 . S
H1831 C1843 0.950 . S
C1832 H1824 0.950 . S
C1832 C1833 1.386 1_554 S
C1832 C1834 1.391 . S
C1833 C1832 1.386 1_556 S
C1833 C1837 1.393 . S
C1834 H1826 0.950 . S
C1834 C1832 1.391 . S
C1834 C1835 1.400 1_554 S
C1835 C1834 1.400 1_556 S
C1835 C1836 1.398 . S
C1835 C1841 1.491 . S
C1836 H1827 0.950 . S
C1836 C1835 1.398 . S
C1836 C1837 1.391 . S
C1837 H1825 0.950 . S
C1837 C1833 1.393 . S
C1837 C1836 1.391 . S
C1838 H1828 0.950 . S
C1838 C1839 1.386 . S
C1838 C1840 1.391 . S
C1839 C1838 1.386 . S
C1839 C1843 1.393 1_556 S
C1840 H1829 0.950 . S
C1840 C1838 1.391 . S
C1840 C1841 1.400 . S
C1841 C1835 1.491 . S
C1841 C1840 1.400 . S
C1841 C1842 1.398 1_556 S
C1842 H1830 0.950 . S
C1842 C1841 1.398 1_554 S
C1842 C1843 1.391 . S
C1843 H1831 0.950 . S
C1843 C1839 1.393 1_554 S
C1843 C1842 1.391 . S
H1844 C1852 0.950 . S
H1845 C1857 0.950 . S
H1846 C1854 0.950 . S
H1847 C1856 0.950 . S
H1848 C1858 0.950 . S
H1849 C1860 0.950 . S
H1850 C1862 0.950 . S
H1851 C1863 0.950 . S
C1852 H1844 0.950 . S
C1852 C1853 1.386 . S
C1852 C1854 1.391 . S
C1853 C1852 1.386 . S
C1853 C1857 1.393 . S
C1854 H1846 0.950 . S
C1854 C1852 1.391 . S
C1854 C1855 1.400 . S
C1855 C1854 1.400 . S
C1855 C1856 1.398 . S
C1855 C1861 1.491 . S
C1856 H1847 0.950 . S
C1856 C1855 1.398 . S
C1856 C1857 1.391 . S
C1857 H1845 0.950 . S
C1857 C1853 1.393 . S
C1857 C1856 1.391 . S
C1858 H1848 0.950 . S
C1858 C1859 1.386 . S
C1858 C1860 1.391 . S
C1859 C1858 1.386 . S
C1859 C1863 1.393 . S
C1860 H1849 0.950 . S
C1860 C1858 1.391 . S
C1860 C1861 1.400 . S
C1861 C1855 1.491 . S
C1861 C1860 1.400 . S
C1861 C1862 1.398 . S
C1862 H1850 0.950 . S
C1862 C1861 1.398 . S
C1862 C1863 1.391 . S
C1863 H1851 0.950 . S
C1863 C1859 1.393 . S
C1863 C1862 1.391 . S
H1864 C1872 0.950 . S
H1865 C1877 0.950 . S
H1866 C1874 0.950 . S
H1867 C1876 0.950 . S
H1868 C1878 0.950 . S
H1869 C1880 0.950 . S
H1870 C1882 0.950 . S
H1871 C1883 0.950 . S
C1872 H1864 0.950 . S
C1872 C1873 1.386 . S
C1872 C1874 1.391 . S
C1873 C1872 1.386 . S
C1873 C1877 1.393 1_655 S
C1874 H1866 0.950 . S
C1874 C1872 1.391 . S
C1874 C1875 1.400 . S
C1875 C1874 1.400 . S
C1875 C1876 1.398 1_655 S
C1875 C1881 1.491 1_655 S
C1876 H1867 0.950 . S
C1876 C1875 1.398 1_455 S
C1876 C1877 1.391 . S
C1877 H1865 0.950 . S
C1877 C1873 1.393 1_455 S
C1877 C1876 1.391 . S
C1878 H1868 0.950 . S
C1878 C1879 1.386 . S
C1878 C1880 1.391 . S
C1879 C1878 1.386 . S
C1879 C1883 1.393 1_455 S
C1880 H1869 0.950 . S
C1880 C1878 1.391 . S
C1880 C1881 1.400 . S
C1881 C1875 1.491 1_455 S
C1881 C1880 1.400 . S
C1881 C1882 1.398 1_455 S
C1882 H1870 0.950 . S
C1882 C1881 1.398 1_655 S
C1882 C1883 1.391 . S
C1883 H1871 0.950 . S
C1883 C1879 1.393 1_655 S
C1883 C1882 1.391 . S
H1884 C1892 0.950 . S
H1885 C1897 0.950 . S
H1886 C1894 0.950 . S
H1887 C1896 0.950 . S
H1888 C1898 0.950 . S
H1889 C1900 0.950 . S
H1890 C1902 0.950 . S
H1891 C1903 0.950 . S
C1892 H1884 0.950 . S
C1892 C1893 1.386 . S
C1892 C1894 1.391 . S
C1893 C1892 1.386 . S
C1893 C1897 1.393 . S
C1894 H1886 0.950 . S
C1894 C1892 1.391 . S
C1894 C1895 1.400 . S
C1895 C1894 1.400 . S
C1895 C1896 1.398 . S
C1895 C1901 1.491 . S
C1896 H1887 0.950 . S
C1896 C1895 1.398 . S
C1896 C1897 1.391 . S
C1897 H1885 0.950 . S
C1897 C1893 1.393 . S
C1897 C1896 1.391 . S
C1898 H1888 0.950 . S
C1898 C1899 1.386 . S
C1898 C1900 1.391 . S
C1899 C1898 1.386 . S
C1899 C1903 1.393 . S
C1900 H1889 0.950 . S
C1900 C1898 1.391 . S
C1900 C1901 1.400 . S
C1901 C1895 1.491 . S
C1901 C1900 1.400 . S
C1901 C1902 1.398 . S
C1902 H1890 0.950 . S
C1902 C1901 1.398 . S
C1902 C1903 1.391 . S
C1903 H1891 0.950 . S
C1903 C1899 1.393 . S
C1903 C1902 1.391 . S
H1904 C1912 0.950 . S
H1905 C1917 0.950 . S
H1906 C1914 0.950 . S
H1907 C1916 0.950 . S
H1908 C1918 0.950 . S
H1909 C1920 0.950 . S
H1910 C1922 0.950 . S
H1911 C1923 0.950 . S
C1912 H1904 0.950 . S
C1912 C1913 1.386 . S
C1912 C1914 1.391 . S
C1913 C1912 1.386 . S
C1913 C1917 1.393 . S
C1914 H1906 0.950 . S
C1914 C1912 1.391 . S
C1914 C1915 1.400 . S
C1915 C1914 1.400 . S
C1915 C1916 1.398 . S
C1915 C1921 1.491 1_655 S
C1916 H1907 0.950 . S
C1916 C1915 1.398 . S
C1916 C1917 1.391 . S
C1917 H1905 0.950 . S
C1917 C1913 1.393 . S
C1917 C1916 1.391 . S
C1918 H1908 0.950 . S
C1918 C1919 1.386 . S
C1918 C1920 1.391 . S
C1919 C1918 1.386 . S
C1919 C1923 1.393 . S
C1920 H1909 0.950 . S
C1920 C1918 1.391 . S
C1920 C1921 1.400 . S
C1921 C1915 1.491 1_455 S
C1921 C1920 1.400 . S
C1921 C1922 1.398 . S
C1922 H1910 0.950 . S
C1922 C1921 1.398 . S
C1922 C1923 1.391 . S
C1923 H1911 0.950 . S
C1923 C1919 1.393 . S
C1923 C1922 1.391 . S
H1924 C1932 0.950 . S
H1925 C1937 0.950 . S
H1926 C1934 0.950 . S
H1927 C1936 0.950 . S
H1928 C1938 0.950 . S
H1929 C1940 0.950 . S
H1930 C1942 0.950 . S
H1931 C1943 0.950 . S
C1932 H1924 0.950 . S
C1932 C1933 1.386 . S
C1932 C1934 1.391 . S
C1933 C1932 1.386 . S
C1933 C1937 1.393 1_455 S
C1934 H1926 0.950 . S
C1934 C1932 1.391 . S
C1934 C1935 1.400 . S
C1935 C1934 1.400 . S
C1935 C1936 1.398 1_455 S
C1935 C1941 1.491 . S
C1936 H1927 0.950 . S
C1936 C1935 1.398 1_655 S
C1936 C1937 1.391 . S
C1937 H1925 0.950 . S
C1937 C1933 1.393 1_655 S
C1937 C1936 1.391 . S
C1938 H1928 0.950 . S
C1938 C1939 1.386 . S
C1938 C1940 1.391 . S
C1939 C1938 1.386 . S
C1939 C1943 1.393 1_655 S
C1940 H1929 0.950 . S
C1940 C1938 1.391 . S
C1940 C1941 1.400 1_655 S
C1941 C1935 1.491 . S
C1941 C1940 1.400 1_455 S
C1941 C1942 1.398 . S
C1942 H1930 0.950 . S
C1942 C1941 1.398 . S
C1942 C1943 1.391 . S
C1943 H1931 0.950 . S
C1943 C1939 1.393 1_455 S
C1943 C1942 1.391 . S
H1944 C1952 0.950 . S
H1945 C1957 0.950 . S
H1946 C1954 0.950 . S
H1947 C1956 0.950 . S
H1948 C1958 0.950 . S
H1949 C1960 0.950 1_545 S
H1950 C1962 0.950 . S
H1951 C1963 0.950 . S
C1952 H1944 0.950 . S
C1952 C1953 1.386 . S
C1952 C1954 1.391 . S
C1953 C1952 1.386 . S
C1953 C1957 1.393 . S
C1954 H1946 0.950 . S
C1954 C1952 1.391 . S
C1954 C1955 1.400 . S
C1955 C1954 1.400 . S
C1955 C1956 1.398 . S
C1955 C1961 1.491 . S
C1956 H1947 0.950 . S
C1956 C1955 1.398 . S
C1956 C1957 1.391 . S
C1957 H1945 0.950 . S
C1957 C1953 1.393 . S
C1957 C1956 1.391 . S
C1958 H1948 0.950 . S
C1958 C1959 1.386 . S
C1958 C1960 1.391 . S
C1959 C1958 1.386 . S
C1959 C1963 1.393 . S
C1960 H1949 0.950 1_565 S
C1960 C1958 1.391 . S
C1960 C1961 1.400 1_565 S
C1961 C1955 1.491 . S
C1961 C1960 1.400 1_545 S
C1961 C1962 1.398 1_545 S
C1962 H1950 0.950 . S
C1962 C1961 1.398 1_565 S
C1962 C1963 1.391 . S
C1963 H1951 0.950 . S
C1963 C1959 1.393 . S
C1963 C1962 1.391 . S
H1964 C1972 0.950 . S
H1965 C1977 0.950 . S
H1966 C1974 0.950 . S
H1967 C1976 0.950 . S
H1968 C1978 0.950 . S
H1969 C1980 0.950 . S
H1970 C1982 0.950 . S
H1971 C1983 0.950 . S
C1972 H1964 0.950 . S
C1972 C1973 1.386 . S
C1972 C1974 1.391 . S
C1973 C1972 1.386 . S
C1973 C1977 1.393 . S
C1974 H1966 0.950 . S
C1974 C1972 1.391 . S
C1974 C1975 1.400 . S
C1975 C1974 1.400 . S
C1975 C1976 1.398 . S
C1975 C1981 1.491 . S
C1976 H1967 0.950 . S
C1976 C1975 1.398 . S
C1976 C1977 1.391 . S
C1977 H1965 0.950 . S
C1977 C1973 1.393 . S
C1977 C1976 1.391 . S
C1978 H1968 0.950 . S
C1978 C1979 1.386 . S
C1978 C1980 1.391 . S
C1979 C1978 1.386 . S
C1979 C1983 1.393 . S
C1980 H1969 0.950 . S
C1980 C1978 1.391 . S
C1980 C1981 1.400 . S
C1981 C1975 1.491 . S
C1981 C1980 1.400 . S
C1981 C1982 1.398 . S
C1982 H1970 0.950 . S
C1982 C1981 1.398 . S
C1982 C1983 1.391 . S
C1983 H1971 0.950 . S
C1983 C1979 1.393 . S
C1983 C1982 1.391 . S
H1984 C1992 0.950 . S
H1985 C1997 0.950 . S
H1986 C1994 0.950 . S
H1987 C1996 0.950 . S
H1988 C1998 0.950 . S
H1989 C2000 0.950 . S
H1990 C2002 0.950 . S
H1991 C2003 0.950 . S
C1992 H1984 0.950 . S
C1992 C1993 1.386 . S
C1992 C1994 1.391 . S
C1993 C1992 1.386 . S
C1993 C1997 1.393 . S
C1994 H1986 0.950 . S
C1994 C1992 1.391 . S
C1994 C1995 1.400 . S
C1995 C1994 1.400 . S
C1995 C1996 1.398 . S
C1995 C2001 1.491 . S
C1996 H1987 0.950 . S
C1996 C1995 1.398 . S
C1996 C1997 1.391 . S
C1997 H1985 0.950 . S
C1997 C1993 1.393 . S
C1997 C1996 1.391 . S
C1998 H1988 0.950 . S
C1998 C1999 1.386 . S
C1998 C2000 1.391 . S
C1999 C1998 1.386 . S
C1999 C2003 1.393 . S
C2000 H1989 0.950 . S
C2000 C1998 1.391 . S
C2000 C2001 1.400 . S
C2001 C1995 1.491 . S
C2001 C2000 1.400 . S
C2001 C2002 1.398 . S
C2002 H1990 0.950 . S
C2002 C2001 1.398 . S
C2002 C2003 1.391 . S
C2003 H1991 0.950 . S
C2003 C1999 1.393 . S
C2003 C2002 1.391 . S
H2004 C2012 0.950 . S
H2005 C2017 0.950 . S
H2006 C2014 0.950 . S
H2007 C2016 0.950 . S
H2008 C2018 0.950 . S
H2009 C2020 0.950 . S
H2010 C2022 0.950 . S
H2011 C2023 0.950 . S
C2012 H2004 0.950 . S
C2012 C2013 1.386 . S
C2012 C2014 1.391 . S
C2013 C2012 1.386 . S
C2013 C2017 1.393 . S
C2014 H2006 0.950 . S
C2014 C2012 1.391 . S
C2014 C2015 1.400 . S
C2015 C2014 1.400 . S
C2015 C2016 1.398 . S
C2015 C2021 1.491 . S
C2016 H2007 0.950 . S
C2016 C2015 1.398 . S
C2016 C2017 1.391 . S
C2017 H2005 0.950 . S
C2017 C2013 1.393 . S
C2017 C2016 1.391 . S
C2018 H2008 0.950 . S
C2018 C2019 1.386 . S
C2018 C2020 1.391 . S
C2019 C2018 1.386 . S
C2019 C2023 1.393 . S
C2020 H2009 0.950 . S
C2020 C2018 1.391 . S
C2020 C2021 1.400 . S
C2021 C2015 1.491 . S
C2021 C2020 1.400 . S
C2021 C2022 1.398 . S
C2022 H2010 0.950 . S
C2022 C2021 1.398 . S
C2022 C2023 1.391 . S
C2023 H2011 0.950 . S
C2023 C2019 1.393 . S
C2023 C2022 1.391 . S
H2024 C2032 0.950 . S
H2025 C2037 0.950 1_556 S
H2026 C2034 0.950 . S
H2027 C2036 0.950 1_556 S
H2028 C2038 0.950 1_556 S
H2029 C2040 0.950 1_556 S
H2030 C2042 0.950 . S
H2031 C2043 0.950 . S
C2032 H2024 0.950 . S
C2032 C2033 1.386 . S
C2032 C2034 1.391 . S
C2033 C2032 1.386 . S
C2033 C2037 1.393 . S
C2034 H2026 0.950 . S
C2034 C2032 1.391 . S
C2034 C2035 1.400 . S
C2035 C2034 1.400 . S
C2035 C2036 1.398 . S
C2035 C2041 1.491 1_455 S
C2036 H2027 0.950 1_554 S
C2036 C2035 1.398 . S
C2036 C2037 1.391 . S
C2037 H2025 0.950 1_554 S
C2037 C2033 1.393 . S
C2037 C2036 1.391 . S
C2038 H2028 0.950 1_554 S
C2038 C2039 1.386 . S
C2038 C2040 1.391 . S
C2039 C2038 1.386 . S
C2039 C2043 1.393 . S
C2040 H2029 0.950 1_554 S
C2040 C2038 1.391 . S
C2040 C2041 1.400 . S
C2041 C2035 1.491 1_655 S
C2041 C2040 1.400 . S
C2041 C2042 1.398 . S
C2042 H2030 0.950 . S
C2042 C2041 1.398 . S
C2042 C2043 1.391 . S
C2043 H2031 0.950 . S
C2043 C2039 1.393 . S
C2043 C2042 1.391 . S
H2044 C2052 0.950 . S
H2045 C2057 0.950 . S
H2046 C2054 0.950 . S
H2047 C2056 0.950 . S
H2048 C2058 0.950 . S
H2049 C2060 0.950 . S
H2050 C2062 0.950 . S
H2051 C2063 0.950 . S
C2052 H2044 0.950 . S
C2052 C2053 1.386 . S
C2052 C2054 1.391 . S
C2053 C2052 1.386 . S
C2053 C2057 1.393 . S
C2054 H2046 0.950 . S
C2054 C2052 1.391 . S
C2054 C2055 1.400 . S
C2055 C2054 1.400 . S
C2055 C2056 1.398 . S
C2055 C2061 1.491 . S
C2056 H2047 0.950 . S
C2056 C2055 1.398 . S
C2056 C2057 1.391 . S
C2057 H2045 0.950 . S
C2057 C2053 1.393 . S
C2057 C2056 1.391 . S
C2058 H2048 0.950 . S
C2058 C2059 1.386 . S
C2058 C2060 1.391 . S
C2059 C2058 1.386 . S
C2059 C2063 1.393 . S
C2060 H2049 0.950 . S
C2060 C2058 1.391 . S
C2060 C2061 1.400 . S
C2061 C2055 1.491 . S
C2061 C2060 1.400 . S
C2061 C2062 1.398 . S
C2062 H2050 0.950 . S
C2062 C2061 1.398 . S
C2062 C2063 1.391 . S
C2063 H2051 0.950 . S
C2063 C2059 1.393 . S
C2063 C2062 1.391 . S
C633 C212 1.229 . S
C639 C26 1.089 . S
C653 C286 0.738 . S
C659 C86 0.741 . S
C673 C50 1.306 . S
C679 C330 1.375 . S
C693 C206 0.559 . S
C699 C91 0.455 1_554 S
C713 C400 1.308 . S
C719 C122 1.420 . S
C733 C143 0.732 . S
C739 C448 0.708 . S
C753 C146 1.185 . S
C759 C510 1.214 . S
C773 C568 0.475 . S
C779 C134 0.410 1_556 S
C793 C42 1.336 . S
C799 C192 1.303 . S
C813 C70 0.763 . S
C819 C242 0.776 . S
C833 C278 1.213 . S
C839 C4 1.272 . S
C853 C88 0.706 . S
C859 C342 0.685 . S
C873 C154 1.262 . S
C879 C160 1.168 . S
C893 C247 0.610 . S
C899 C152 0.638 . S
C913 C302 1.286 . S
C919 C136 1.320 . S
C933 C357 0.562 1_565 S
C939 C130 0.687 . S
C953 C258 1.362 . S
C959 C182 1.292 . S
C973 C396 1.111 . S
C979 C204 1.299 . S
C993 C450 0.656 1_455 S
C999 C244 0.757 . S
C1013 C292 1.307 . S
C1019 C494 1.287 . S
C1033 C406 0.812 . S
C1039 C299 0.814 . S
C1053 C570 1.247 . S
C1059 C412 1.170 . S
C1073 C461 0.652 . S
C1079 C368 0.645 . S
C1093 C550 0.409 . S
C1099 C486 0.510 . S
C1113 C472 1.238 . S
C1119 C78 1.059 . S
C1133 C34 0.802 . S
C1139 C546 0.776 . S
C1153 C102 1.291 . S
C1159 C382 1.374 . S
C1173 C39 0.497 . S
C1179 C466 0.536 . S
C1193 C348 1.303 . S
C1199 C590 1.430 . S
C1213 C611 0.786 . S
C1219 C188 0.782 . S
C1233 C250 1.238 . S
C1239 C614 1.156 . S
C1253 C308 0.534 . S
C1259 C602 0.460 . S
C1273 C452 1.293 . S
C1279 C94 1.339 . S
C1293 C18 0.735 . S
C1299 C502 0.748 . S
C1313 C538 1.214 . S
C1319 C56 1.272 . S
C1333 C394 0.643 . S
C1339 C36 0.708 . S
C1353 C622 1.246 . S
C1359 C420 1.198 . S
C1373 C620 0.590 . S
C1379 C507 0.618 1_545 S
C1393 C562 1.282 . S
C1399 C604 1.320 . S
C1413 C409 0.525 . S
C1419 C598 0.652 . S
C1433 C518 1.374 . S
C1439 C442 1.276 . S
C1453 C344 1.142 . S
C1459 C464 1.290 . S
C1473 C190 0.657 . S
C1479 C504 0.724 . S
C1493 C552 1.331 . S
C1499 C234 1.311 . S
C1513 C354 0.737 . S
C1519 C559 0.744 . S
C1533 C310 1.234 . S
C1539 C360 1.195 . S
C1553 C316 0.649 . S
C1559 C201 0.685 . S
C1573 C290 0.449 . S
C1579 C226 0.523 . S
C1593 C138 2.135 . S
C1599 C30 2.392 . S
C1613 C84 2.671 . S
C1619 C140 2.673 . S
C1633 C45 2.130 . S
C1639 C149 2.387 . S
C1653 C100 2.771 . S
C1659 C108 2.771 . S
C1673 C195 2.045 . S
C1679 C565 2.040 . S
C1693 C240 2.677 . S
C1699 C414 2.762 . S
C1713 C446 2.478 . S
C1719 C294 2.475 . S
C1733 C338 2.661 . S
C1739 C516 2.756 . S
C1753 C186 2.474 . S
C1759 C554 2.474 . S
C1773 C390 2.677 . S
C1779 C256 2.764 . S
C1793 C305 2.041 . S
C1799 C455 2.040 . S
C1813 C362 2.758 . S
C1819 C500 2.669 . S
C1833 C351 2.365 . S
C1839 C253 2.366 . S
C1853 C498 2.179 . S
C1859 C398 2.184 . S
C1873 C434 2.721 . S
C1879 C556 2.626 . S
C1893 C296 2.639 . S
C1899 C174 2.733 . S
C1913 C513 2.354 . S
C1919 C403 2.352 . S
C1933 C524 2.797 . S
C1939 C458 2.697 . S
C1953 C606 2.155 . S
C1959 C82 2.397 . S
C1973 C32 2.670 . S
C1979 C608 2.665 . S
C1993 C97 2.137 . S
C1999 C617 2.391 . S
C2013 C576 2.769 . S
C2019 C48 2.773 . S
C2033 C238 2.175 . S
C2039 C346 2.181 . S
C2053 C198 2.711 . S
C2059 C264 2.800 . S
