# Generated by pormake.
# Topology umn, (4)-cn, num edge types: 1
# Building blocks:
#     Node 0, Type 0, BuildingBlock: TATPOV_clean_sbu_0, # of connection points: 4
#     Node 1, Type 0, BuildingBlock: TATPOV_clean_sbu_0, # of connection points: 4
#     Node 2, Type 0, BuildingBlock: TATPOV_clean_sbu_0, # of connection points: 4
#     Node 3, Type 0, BuildingBlock: TATPOV_clean_sbu_0, # of connection points: 4
#     Node 4, Type 0, BuildingBlock: TATPOV_clean_sbu_0, # of connection points: 4
#     Node 5, Type 0, BuildingBlock: TATPOV_clean_sbu_0, # of connection points: 4
#     Node 6, Type 0, BuildingBlock: TATPOV_clean_sbu_0, # of connection points: 4
#     Node 7, Type 0, BuildingBlock: TATPOV_clean_sbu_0, # of connection points: 4
#     Node 8, Type 0, BuildingBlock: TATPOV_clean_sbu_0, # of connection points: 4
#     Node 9, Type 0, BuildingBlock: TATPOV_clean_sbu_0, # of connection points: 4
#     Node 10, Type 0, BuildingBlock: TATPOV_clean_sbu_0, # of connection points: 4
#     Node 11, Type 0, BuildingBlock: TATPOV_clean_sbu_0, # of connection points: 4
#     Node 12, Type 0, BuildingBlock: TATPOV_clean_sbu_0, # of connection points: 4
#     Node 13, Type 0, BuildingBlock: TATPOV_clean_sbu_0, # of connection points: 4
#     Node 14, Type 0, BuildingBlock: TATPOV_clean_sbu_0, # of connection points: 4
#     Node 15, Type 0, BuildingBlock: TATPOV_clean_sbu_0, # of connection points: 4
#     Node 16, Type 0, BuildingBlock: TATPOV_clean_sbu_0, # of connection points: 4
#     Node 17, Type 0, BuildingBlock: TATPOV_clean_sbu_0, # of connection points: 4
#     Node 18, Type 0, BuildingBlock: TATPOV_clean_sbu_0, # of connection points: 4
#     Node 19, Type 0, BuildingBlock: TATPOV_clean_sbu_0, # of connection points: 4
#     Node 20, Type 0, BuildingBlock: TATPOV_clean_sbu_0, # of connection points: 4
#     Node 21, Type 0, BuildingBlock: TATPOV_clean_sbu_0, # of connection points: 4
#     Node 22, Type 0, BuildingBlock: TATPOV_clean_sbu_0, # of connection points: 4
#     Node 23, Type 0, BuildingBlock: TATPOV_clean_sbu_0, # of connection points: 4
#     Node 24, Type 0, BuildingBlock: TATPOV_clean_sbu_0, # of connection points: 4
#     Node 25, Type 0, BuildingBlock: TATPOV_clean_sbu_0, # of connection points: 4
#     Node 26, Type 0, BuildingBlock: TATPOV_clean_sbu_0, # of connection points: 4
#     Node 27, Type 0, BuildingBlock: TATPOV_clean_sbu_0, # of connection points: 4
#     Node 28, Type 0, BuildingBlock: TATPOV_clean_sbu_0, # of connection points: 4
#     Node 29, Type 0, BuildingBlock: TATPOV_clean_sbu_0, # of connection points: 4
#     Node 30, Type 0, BuildingBlock: TATPOV_clean_sbu_0, # of connection points: 4
#     Node 31, Type 0, BuildingBlock: TATPOV_clean_sbu_0, # of connection points: 4
#     Node 32, Type 0, BuildingBlock: TATPOV_clean_sbu_0, # of connection points: 4
#     Node 33, Type 0, BuildingBlock: TATPOV_clean_sbu_0, # of connection points: 4
#     Node 34, Type 0, BuildingBlock: TATPOV_clean_sbu_0, # of connection points: 4
#     Node 35, Type 0, BuildingBlock: TATPOV_clean_sbu_0, # of connection points: 4
#     Edge 36, Type (0, 0), BuildingBlock: ZUJKAS_clean_linker_0, # of connection points: 2
#     Edge 37, Type (0, 0), BuildingBlock: ZUJKAS_clean_linker_0, # of connection points: 2
#     Edge 38, Type (0, 0), BuildingBlock: ZUJKAS_clean_linker_0, # of connection points: 2
#     Edge 39, Type (0, 0), BuildingBlock: ZUJKAS_clean_linker_0, # of connection points: 2
#     Edge 40, Type (0, 0), BuildingBlock: ZUJKAS_clean_linker_0, # of connection points: 2
#     Edge 41, Type (0, 0), BuildingBlock: ZUJKAS_clean_linker_0, # of connection points: 2
#     Edge 42, Type (0, 0), BuildingBlock: ZUJKAS_clean_linker_0, # of connection points: 2
#     Edge 43, Type (0, 0), BuildingBlock: ZUJKAS_clean_linker_0, # of connection points: 2
#     Edge 44, Type (0, 0), BuildingBlock: ZUJKAS_clean_linker_0, # of connection points: 2
#     Edge 45, Type (0, 0), BuildingBlock: ZUJKAS_clean_linker_0, # of connection points: 2
#     Edge 46, Type (0, 0), BuildingBlock: ZUJKAS_clean_linker_0, # of connection points: 2
#     Edge 47, Type (0, 0), BuildingBlock: ZUJKAS_clean_linker_0, # of connection points: 2
#     Edge 48, Type (0, 0), BuildingBlock: ZUJKAS_clean_linker_0, # of connection points: 2
#     Edge 49, Type (0, 0), BuildingBlock: ZUJKAS_clean_linker_0, # of connection points: 2
#     Edge 50, Type (0, 0), BuildingBlock: ZUJKAS_clean_linker_0, # of connection points: 2
#     Edge 51, Type (0, 0), BuildingBlock: ZUJKAS_clean_linker_0, # of connection points: 2
#     Edge 52, Type (0, 0), BuildingBlock: ZUJKAS_clean_linker_0, # of connection points: 2
#     Edge 53, Type (0, 0), BuildingBlock: ZUJKAS_clean_linker_0, # of connection points: 2
#     Edge 54, Type (0, 0), BuildingBlock: ZUJKAS_clean_linker_0, # of connection points: 2
#     Edge 55, Type (0, 0), BuildingBlock: ZUJKAS_clean_linker_0, # of connection points: 2
#     Edge 56, Type (0, 0), BuildingBlock: ZUJKAS_clean_linker_0, # of connection points: 2
#     Edge 57, Type (0, 0), BuildingBlock: ZUJKAS_clean_linker_0, # of connection points: 2
#     Edge 58, Type (0, 0), BuildingBlock: ZUJKAS_clean_linker_0, # of connection points: 2
#     Edge 59, Type (0, 0), BuildingBlock: ZUJKAS_clean_linker_0, # of connection points: 2
#     Edge 60, Type (0, 0), BuildingBlock: ZUJKAS_clean_linker_0, # of connection points: 2
#     Edge 61, Type (0, 0), BuildingBlock: ZUJKAS_clean_linker_0, # of connection points: 2
#     Edge 62, Type (0, 0), BuildingBlock: ZUJKAS_clean_linker_0, # of connection points: 2
#     Edge 63, Type (0, 0), BuildingBlock: ZUJKAS_clean_linker_0, # of connection points: 2
#     Edge 64, Type (0, 0), BuildingBlock: ZUJKAS_clean_linker_0, # of connection points: 2
#     Edge 65, Type (0, 0), BuildingBlock: ZUJKAS_clean_linker_0, # of connection points: 2
#     Edge 66, Type (0, 0), BuildingBlock: ZUJKAS_clean_linker_0, # of connection points: 2
#     Edge 67, Type (0, 0), BuildingBlock: ZUJKAS_clean_linker_0, # of connection points: 2
#     Edge 68, Type (0, 0), BuildingBlock: ZUJKAS_clean_linker_0, # of connection points: 2
#     Edge 69, Type (0, 0), BuildingBlock: ZUJKAS_clean_linker_0, # of connection points: 2
#     Edge 70, Type (0, 0), BuildingBlock: ZUJKAS_clean_linker_0, # of connection points: 2
#     Edge 71, Type (0, 0), BuildingBlock: ZUJKAS_clean_linker_0, # of connection points: 2
#     Edge 72, Type (0, 0), BuildingBlock: ZUJKAS_clean_linker_0, # of connection points: 2
#     Edge 73, Type (0, 0), BuildingBlock: ZUJKAS_clean_linker_0, # of connection points: 2
#     Edge 74, Type (0, 0), BuildingBlock: ZUJKAS_clean_linker_0, # of connection points: 2
#     Edge 75, Type (0, 0), BuildingBlock: ZUJKAS_clean_linker_0, # of connection points: 2
#     Edge 76, Type (0, 0), BuildingBlock: ZUJKAS_clean_linker_0, # of connection points: 2
#     Edge 77, Type (0, 0), BuildingBlock: ZUJKAS_clean_linker_0, # of connection points: 2
#     Edge 78, Type (0, 0), BuildingBlock: ZUJKAS_clean_linker_0, # of connection points: 2
#     Edge 79, Type (0, 0), BuildingBlock: ZUJKAS_clean_linker_0, # of connection points: 2
#     Edge 80, Type (0, 0), BuildingBlock: ZUJKAS_clean_linker_0, # of connection points: 2
#     Edge 81, Type (0, 0), BuildingBlock: ZUJKAS_clean_linker_0, # of connection points: 2
#     Edge 82, Type (0, 0), BuildingBlock: ZUJKAS_clean_linker_0, # of connection points: 2
#     Edge 83, Type (0, 0), BuildingBlock: ZUJKAS_clean_linker_0, # of connection points: 2
#     Edge 84, Type (0, 0), BuildingBlock: ZUJKAS_clean_linker_0, # of connection points: 2
#     Edge 85, Type (0, 0), BuildingBlock: ZUJKAS_clean_linker_0, # of connection points: 2
#     Edge 86, Type (0, 0), BuildingBlock: ZUJKAS_clean_linker_0, # of connection points: 2
#     Edge 87, Type (0, 0), BuildingBlock: ZUJKAS_clean_linker_0, # of connection points: 2
#     Edge 88, Type (0, 0), BuildingBlock: ZUJKAS_clean_linker_0, # of connection points: 2
#     Edge 89, Type (0, 0), BuildingBlock: ZUJKAS_clean_linker_0, # of connection points: 2
#     Edge 90, Type (0, 0), BuildingBlock: ZUJKAS_clean_linker_0, # of connection points: 2
#     Edge 91, Type (0, 0), BuildingBlock: ZUJKAS_clean_linker_0, # of connection points: 2
#     Edge 92, Type (0, 0), BuildingBlock: ZUJKAS_clean_linker_0, # of connection points: 2
#     Edge 93, Type (0, 0), BuildingBlock: ZUJKAS_clean_linker_0, # of connection points: 2
#     Edge 94, Type (0, 0), BuildingBlock: ZUJKAS_clean_linker_0, # of connection points: 2
#     Edge 95, Type (0, 0), BuildingBlock: ZUJKAS_clean_linker_0, # of connection points: 2
#     Edge 96, Type (0, 0), BuildingBlock: ZUJKAS_clean_linker_0, # of connection points: 2
#     Edge 97, Type (0, 0), BuildingBlock: ZUJKAS_clean_linker_0, # of connection points: 2
#     Edge 98, Type (0, 0), BuildingBlock: ZUJKAS_clean_linker_0, # of connection points: 2
#     Edge 99, Type (0, 0), BuildingBlock: ZUJKAS_clean_linker_0, # of connection points: 2
#     Edge 100, Type (0, 0), BuildingBlock: ZUJKAS_clean_linker_0, # of connection points: 2
#     Edge 101, Type (0, 0), BuildingBlock: ZUJKAS_clean_linker_0, # of connection points: 2
#     Edge 102, Type (0, 0), BuildingBlock: ZUJKAS_clean_linker_0, # of connection points: 2
#     Edge 103, Type (0, 0), BuildingBlock: ZUJKAS_clean_linker_0, # of connection points: 2
#     Edge 104, Type (0, 0), BuildingBlock: ZUJKAS_clean_linker_0, # of connection points: 2
#     Edge 105, Type (0, 0), BuildingBlock: ZUJKAS_clean_linker_0, # of connection points: 2
#     Edge 106, Type (0, 0), BuildingBlock: ZUJKAS_clean_linker_0, # of connection points: 2
#     Edge 107, Type (0, 0), BuildingBlock: ZUJKAS_clean_linker_0, # of connection points: 2
# Relax obj value: 0.249
# Max RMSD: 0.291
# Mean RMSD: 0.290
data_MOF--net-umn--node1-TATPOV_clean_sbu_0--edge1-ZUJKAS_clean_linker_0
_symmetry_space_group_name_H-M    P1
_symmetry_Int_Tables_number       1
_symmetry_cell_setting            triclinic
loop_
_symmetry_equiv_pos_as_xyz
'x, y, z'
_cell_length_a     107.00525
_cell_length_b     107.03353
_cell_length_c     47.432915
_cell_angle_alpha  89.999258
_cell_angle_beta   90.012187
_cell_angle_gamma 119.96484
loop_
_atom_site_label
_atom_site_type_symbol
_atom_site_fract_x
_atom_site_fract_y
_atom_site_fract_z
_atom_type_partial_charge
Zn0 Zn 0.36941 0.07502 0.24355 0.0
Zn1 Zn 0.3618 0.09304 0.22192 0.0
O2 O 0.37917 0.09564 0.19789 0.0
O3 O 0.38691 0.08235 0.21835 0.0
O4 O 0.35776 0.10818 0.20684 0.0
O5 O 0.36968 0.08234 0.28323 0.0
O6 O 0.36352 0.09724 0.26444 0.0
C7 C 0.38802 0.09094 0.19888 0.0
C8 C 0.34058 0.06126 0.21867 0.0
O9 O 0.34321 0.0741 0.21473 0.0
O10 O 0.35014 0.05892 0.22914 0.0
C11 C 0.34749 0.1093 0.21758 0.0
O12 O 0.33962 0.10027 0.23754 0.0
C13 C 0.3661 0.09191 0.28617 0.0
Zn14 Zn 0.91925 0.29217 0.24244 0.0
Zn15 Zn 0.90178 0.26677 0.21949 0.0
O16 O 0.89995 0.28191 0.19504 0.0
O17 O 0.91247 0.30265 0.21693 0.0
O18 O 0.88639 0.24771 0.20399 0.0
O19 O 0.91134 0.28488 0.28161 0.0
O20 O 0.89692 0.26399 0.26175 0.0
C21 C 0.90453 0.29543 0.19649 0.0
C22 C 0.93364 0.27747 0.2187 0.0
O23 O 0.92092 0.26719 0.214 0.0
O24 O 0.93567 0.28926 0.22913 0.0
C25 C 0.88874 0.2392 0.18917 0.0
O26 O 0.90203 0.24299 0.18207 0.0
C27 C 0.9018 0.2717 0.28386 0.0
Zn28 Zn 0.70736 0.61486 0.27139 0.0
Zn29 Zn 0.73058 0.62557 0.24008 0.0
O30 O 0.7159 0.60732 0.21803 0.0
O31 O 0.69597 0.59907 0.24293 0.0
O32 O 0.74932 0.63214 0.2197 0.0
O33 O 0.71693 0.61299 0.30662 0.0
O34 O 0.73657 0.62521 0.28143 0.0
C35 C 0.70248 0.59838 0.22121 0.0
C36 C 0.71699 0.64375 0.24907 0.0
O37 O 0.72618 0.64196 0.23524 0.0
O38 O 0.70839 0.63412 0.26601 0.0
C39 C 0.76058 0.64318 0.2289 0.0
O40 O 0.75944 0.65025 0.25047 0.0
C41 C 0.73056 0.62016 0.30514 0.0
Zn42 Zn 0.07731 0.36968 0.25705 0.0
Zn43 Zn 0.09446 0.36138 0.27901 0.0
O44 O 0.09675 0.37858 0.3034 0.0
O45 O 0.08464 0.38731 0.28167 0.0
O46 O 0.10949 0.35744 0.29511 0.0
O47 O 0.08453 0.36987 0.21749 0.0
O48 O 0.09888 0.36302 0.23641 0.0
C49 C 0.09256 0.38784 0.30197 0.0
C50 C 0.0627 0.34072 0.28157 0.0
O51 O 0.07538 0.34288 0.28561 0.0
O52 O 0.06081 0.3506 0.2713 0.0
C53 C 0.1115 0.34767 0.28457 0.0
O54 O 0.10337 0.33993 0.26345 0.0
C55 C 0.0938 0.36589 0.21462 0.0
Zn56 Zn 0.61253 0.7103 0.2341 0.0
Zn57 Zn 0.62806 0.73242 0.26765 0.0
O58 O 0.61085 0.71814 0.29222 0.0
O59 O 0.5978 0.69946 0.26499 0.0
O60 O 0.6371 0.75079 0.29011 0.0
O61 O 0.61017 0.72194 0.20296 0.0
O62 O 0.6262 0.7398 0.22861 0.0
C63 C 0.60003 0.70552 0.28887 0.0
C64 C 0.64238 0.71679 0.24682 0.0
O65 O 0.643 0.72613 0.26423 0.0
O66 O 0.63114 0.70937 0.23208 0.0
C67 C 0.64804 0.76189 0.28015 0.0
O68 O 0.65383 0.76071 0.25659 0.0
C69 C 0.61927 0.73523 0.20556 0.0
Zn70 Zn 0.28745 0.91824 0.25105 0.0
Zn71 Zn 0.26225 0.90071 0.274 0.0
O72 O 0.27758 0.89894 0.29811 0.0
O73 O 0.2982 0.91148 0.27585 0.0
O74 O 0.24333 0.88513 0.2894 0.0
O75 O 0.28023 0.91073 0.21163 0.0
O76 O 0.25939 0.8962 0.23154 0.0
C77 C 0.29111 0.90356 0.29639 0.0
C78 C 0.27272 0.93239 0.2761 0.0
O79 O 0.26241 0.91964 0.28049 0.0
O80 O 0.28446 0.93446 0.26534 0.0
C81 C 0.23634 0.88693 0.30912 0.0
O82 O 0.24175 0.89963 0.32124 0.0
C83 C 0.26703 0.90122 0.20939 0.0
Zn84 Zn 0.62529 0.91435 0.72707 0.0
Zn85 Zn 0.63713 0.90232 0.75744 0.0
O86 O 0.62043 0.90062 0.78247 0.0
O87 O 0.6108 0.9111 0.7578 0.0
O88 O 0.64405 0.89065 0.77828 0.0
O89 O 0.62197 0.90143 0.69321 0.0
O90 O 0.63398 0.89352 0.71777 0.0
C91 C 0.61129 0.9049 0.78017 0.0
C92 C 0.65565 0.93348 0.74224 0.0
O93 O 0.6545 0.92273 0.75598 0.0
O94 O 0.6449 0.93243 0.72884 0.0
C95 C 0.63561 0.87709 0.7793 0.0
O96 O 0.62273 0.8716 0.76788 0.0
C97 C 0.62822 0.89404 0.69465 0.0
Zn98 Zn 0.09079 0.711 0.74938 0.0
Zn99 Zn 0.10164 0.73514 0.77822 0.0
O100 O 0.10462 0.72082 0.80307 0.0
O101 O 0.09665 0.70094 0.7783 0.0
O102 O 0.1133 0.75416 0.79798 0.0
O103 O 0.10154 0.72047 0.71334 0.0
O104 O 0.10866 0.74048 0.73712 0.0
C105 C 0.10207 0.70787 0.80089 0.0
C106 C 0.07011 0.72011 0.76754 0.0
O107 O 0.08084 0.73072 0.77937 0.0
O108 O 0.07176 0.71066 0.75454 0.0
C109 C 0.11386 0.76539 0.78764 0.0
O110 O 0.10619 0.76414 0.76509 0.0
C111 C 0.10779 0.73411 0.7139 0.0
Zn112 Zn 0.28429 0.38082 0.74097 0.0
Zn113 Zn 0.26092 0.36569 0.77215 0.0
O114 O 0.27499 0.38285 0.79724 0.0
O115 O 0.29408 0.39614 0.77113 0.0
O116 O 0.2424 0.35652 0.7942 0.0
O117 O 0.27302 0.38199 0.70771 0.0
O118 O 0.25391 0.3681 0.73318 0.0
C119 C 0.28758 0.39381 0.79452 0.0
C120 C 0.27764 0.35134 0.75556 0.0
O121 O 0.26695 0.35047 0.76911 0.0
O122 O 0.28625 0.36289 0.74272 0.0
C123 C 0.23144 0.34542 0.7843 0.0
O124 O 0.23276 0.33973 0.76073 0.0
C125 C 0.25944 0.37432 0.70987 0.0
Zn126 Zn 0.90687 0.6191 0.77157 0.0
Zn127 Zn 0.89618 0.63264 0.74302 0.0
O128 O 0.89346 0.61561 0.71774 0.0
O129 O 0.90122 0.6034 0.74214 0.0
O130 O 0.88478 0.64009 0.72267 0.0
O131 O 0.89581 0.61763 0.80729 0.0
O132 O 0.8886 0.63054 0.78376 0.0
C133 C 0.89597 0.60517 0.71956 0.0
C134 C 0.92764 0.64903 0.75473 0.0
O135 O 0.91697 0.64904 0.74289 0.0
O136 O 0.92594 0.6378 0.76721 0.0
C137 C 0.88343 0.6503 0.73309 0.0
O138 O 0.89019 0.65639 0.75667 0.0
C139 C 0.88939 0.62488 0.80683 0.0
Zn140 Zn 0.38324 0.28928 0.76701 0.0
Zn141 Zn 0.3688 0.26467 0.74012 0.0
O142 O 0.38609 0.27793 0.71423 0.0
O143 O 0.39885 0.29823 0.73735 0.0
O144 O 0.36111 0.24488 0.7234 0.0
O145 O 0.38494 0.28065 0.80388 0.0
O146 O 0.37034 0.26049 0.78202 0.0
C147 C 0.39684 0.29074 0.71538 0.0
C148 C 0.3535 0.28094 0.74849 0.0
O149 O 0.35301 0.26988 0.73739 0.0
O150 O 0.36478 0.29015 0.76139 0.0
C151 C 0.35077 0.23858 0.706 0.0
O152 O 0.34417 0.24533 0.69663 0.0
C153 C 0.3766 0.26713 0.80458 0.0
Zn154 Zn 0.70968 0.08878 0.75489 0.0
Zn155 Zn 0.73405 0.10274 0.72765 0.0
O156 O 0.71912 0.10479 0.70248 0.0
O157 O 0.69857 0.09271 0.72535 0.0
O158 O 0.75331 0.11653 0.71029 0.0
O159 O 0.71722 0.09963 0.79151 0.0
O160 O 0.73799 0.10883 0.76953 0.0
C161 C 0.70554 0.0999 0.70399 0.0
C162 C 0.72218 0.07118 0.73667 0.0
O163 O 0.73187 0.08266 0.72493 0.0
O164 O 0.71199 0.07128 0.75012 0.0
C165 C 0.76069 0.11292 0.69481 0.0
O166 O 0.75546 0.09929 0.68815 0.0
C167 C 0.73086 0.10694 0.7922 0.0
Zn168 Zn 0.0486 0.42866 0.60896 0.0
Zn169 Zn 0.03353 0.43655 0.57582 0.0
O170 O 0.05027 0.43894 0.55081 0.0
O171 O 0.06271 0.43204 0.57692 0.0
O172 O 0.02459 0.44594 0.55332 0.0
O173 O 0.05155 0.44313 0.63956 0.0
O174 O 0.03675 0.44692 0.61376 0.0
C175 C 0.06068 0.43644 0.55349 0.0
C176 C 0.01837 0.40641 0.59732 0.0
O177 O 0.01808 0.41549 0.58039 0.0
O178 O 0.02963 0.40959 0.61152 0.0
C179 C 0.01418 0.44687 0.56391 0.0
O180 O 0.00881 0.44062 0.58825 0.0
C181 C 0.04368 0.44879 0.63663 0.0
Zn182 Zn 0.57364 0.6217 0.59128 0.0
Zn183 Zn 0.56216 0.59708 0.56469 0.0
O184 O 0.55882 0.61106 0.53941 0.0
O185 O 0.56718 0.63137 0.56285 0.0
O186 O 0.54987 0.57777 0.54636 0.0
O187 O 0.56387 0.61325 0.62851 0.0
O188 O 0.55631 0.59265 0.60662 0.0
C189 C 0.56136 0.62403 0.54087 0.0
C190 C 0.59383 0.6121 0.57221 0.0
O191 O 0.58282 0.60122 0.56178 0.0
O192 O 0.59251 0.62187 0.5847 0.0
C193 C 0.54978 0.56663 0.5559 0.0
O194 O 0.55828 0.56802 0.57713 0.0
C195 C 0.55775 0.59962 0.62932 0.0
Zn196 Zn 0.37945 0.95205 0.59722 0.0
Zn197 Zn 0.40172 0.96843 0.56451 0.0
O198 O 0.38745 0.95124 0.53966 0.0
O199 O 0.36946 0.93676 0.56711 0.0
O200 O 0.42007 0.97786 0.54191 0.0
O201 O 0.39154 0.95092 0.62903 0.0
O202 O 0.4095 0.96634 0.60275 0.0
C203 C 0.37534 0.93973 0.54302 0.0
C204 C 0.38458 0.98148 0.5845 0.0
O205 O 0.39512 0.9831 0.56935 0.0
O206 O 0.37677 0.96966 0.59732 0.0
C207 C 0.42459 0.96954 0.53351 0.0
O208 O 0.41665 0.95563 0.53832 0.0
C209 C 0.40491 0.95961 0.62599 0.0
Zn210 Zn 0.75575 0.71271 0.57276 0.0
Zn211 Zn 0.76622 0.69963 0.60316 0.0
O212 O 0.76776 0.71631 0.62808 0.0
O213 O 0.76023 0.72818 0.60197 0.0
O214 O 0.77757 0.69252 0.6248 0.0
O215 O 0.76786 0.71493 0.53839 0.0
O216 O 0.77475 0.70212 0.56316 0.0
C217 C 0.76497 0.72653 0.62531 0.0
C218 C 0.7352 0.68248 0.5883 0.0
O219 O 0.74567 0.68281 0.60165 0.0
O220 O 0.7369 0.69362 0.57542 0.0
C221 C 0.77903 0.6823 0.61488 0.0
O222 O 0.77244 0.67608 0.59125 0.0
C223 C 0.77445 0.70788 0.53984 0.0
Zn224 Zn 0.27921 0.03928 0.57999 0.0
Zn225 Zn 0.29104 0.06492 0.6027 0.0
O226 O 0.27295 0.0515 0.6269 0.0
O227 O 0.26145 0.03088 0.60431 0.0
O228 O 0.29705 0.08483 0.61724 0.0
O229 O 0.2802 0.04646 0.54022 0.0
O230 O 0.29074 0.06792 0.55971 0.0
C231 C 0.26232 0.03864 0.62517 0.0
C232 C 0.30761 0.04949 0.60642 0.0
O233 O 0.30755 0.06117 0.61099 0.0
O234 O 0.29686 0.03888 0.59482 0.0
C235 C 0.3063 0.0914 0.63653 0.0
O236 O 0.31255 0.08496 0.64888 0.0
C237 C 0.28666 0.06004 0.53768 0.0
Zn238 Zn 0.95806 0.24193 0.5666 0.0
Zn239 Zn 0.93405 0.22818 0.59525 0.0
O240 O 0.94847 0.22439 0.61791 0.0
O241 O 0.96899 0.23721 0.59534 0.0
O242 O 0.91471 0.21465 0.61272 0.0
O243 O 0.94992 0.23129 0.5301 0.0
O244 O 0.92951 0.22327 0.55296 0.0
C245 C 0.96202 0.22927 0.61596 0.0
C246 C 0.94713 0.26006 0.58929 0.0
O247 O 0.93784 0.24867 0.60189 0.0
O248 O 0.95628 0.25969 0.57283 0.0
C249 C 0.90711 0.21842 0.62709 0.0
O250 O 0.91213 0.23215 0.63255 0.0
C251 C 0.93627 0.22483 0.52991 0.0
Zn252 Zn 0.29425 0.25173 0.09888 0.0
Zn253 Zn 0.30434 0.23654 0.1243 0.0
O254 O 0.28669 0.23349 0.14795 0.0
O255 O 0.27704 0.24439 0.12489 0.0
O256 O 0.30984 0.22289 0.14171 0.0
O257 O 0.29402 0.24308 0.06051 0.0
O258 O 0.30311 0.23132 0.0823 0.0
C259 C 0.27699 0.23707 0.1459 0.0
C260 C 0.32339 0.26855 0.12289 0.0
O261 O 0.32192 0.25638 0.1296 0.0
O262 O 0.31317 0.26932 0.11099 0.0
C263 C 0.32081 0.22263 0.13218 0.0
O264 O 0.32847 0.23167 0.11206 0.0
C265 C 0.29934 0.23484 0.05954 0.0
Zn266 Zn 0.7553 0.0421 0.07359 0.0
Zn267 Zn 0.76751 0.06698 0.10034 0.0
O268 O 0.77055 0.05287 0.12563 0.0
O269 O 0.76184 0.03251 0.10221 0.0
O270 O 0.78046 0.08633 0.11798 0.0
O271 O 0.76518 0.05072 0.03639 0.0
O272 O 0.77375 0.07134 0.05875 0.0
C273 C 0.76782 0.03984 0.12412 0.0
C274 C 0.73572 0.0524 0.09279 0.0
O275 O 0.74694 0.06325 0.10273 0.0
O276 O 0.73667 0.04234 0.08065 0.0
C277 C 0.77659 0.0948 0.1285 0.0
O278 O 0.76283 0.0908 0.12952 0.0
C279 C 0.77203 0.06438 0.03594 0.0
Zn280 Zn 0.95503 0.7188 0.08121 0.0
Zn281 Zn 0.93124 0.70426 0.11044 0.0
O282 O 0.94513 0.72159 0.13565 0.0
O283 O 0.96446 0.73482 0.11014 0.0
O284 O 0.91227 0.69575 0.13075 0.0
O285 O 0.94493 0.71939 0.04552 0.0
O286 O 0.92526 0.70576 0.06971 0.0
C287 C 0.95772 0.73259 0.13322 0.0
C288 C 0.94789 0.68949 0.09876 0.0
O289 O 0.93689 0.68878 0.11062 0.0
O290 O 0.95688 0.7009 0.08597 0.0
C291 C 0.90142 0.68458 0.12073 0.0
O292 O 0.9031 0.67847 0.09813 0.0
C293 C 0.93134 0.71149 0.04641 0.0
Zn294 Zn 0.57703 0.95376 0.09288 0.0
Zn295 Zn 0.56526 0.96534 0.06191 0.0
O296 O 0.5642 0.94879 0.0372 0.0
O297 O 0.5749 0.93958 0.06241 0.0
O298 O 0.55278 0.97136 0.04112 0.0
O299 O 0.56386 0.94959 0.12662 0.0
O300 O 0.55726 0.96273 0.10229 0.0
C301 C 0.56886 0.93996 0.03973 0.0
C302 C 0.5959 0.98437 0.07758 0.0
O303 O 0.58544 0.98297 0.06245 0.0
O304 O 0.59466 0.9738 0.0919 0.0
C305 C 0.55109 0.98143 0.05111 0.0
O306 O 0.55823 0.9882 0.07394 0.0
C307 C 0.5573 0.95668 0.12539 0.0
Zn308 Zn 0.04962 0.62278 0.10544 0.0
Zn309 Zn 0.03469 0.59937 0.07447 0.0
O310 O 0.05224 0.61335 0.04988 0.0
O311 O 0.06546 0.63239 0.07612 0.0
O312 O 0.02548 0.5802 0.05457 0.0
O313 O 0.05033 0.61206 0.1402 0.0
O314 O 0.03586 0.59311 0.11498 0.0
C315 C 0.06328 0.62587 0.05277 0.0
C316 C 0.02032 0.61616 0.08791 0.0
O317 O 0.0196 0.60547 0.07471 0.0
O318 O 0.03162 0.62466 0.10159 0.0
C319 C 0.03001 0.57726 0.03218 0.0
O320 O 0.04133 0.5875 0.01917 0.0
C321 C 0.04183 0.59858 0.13851 0.0
Zn322 Zn 0.37521 0.41493 0.08693 0.0
Zn323 Zn 0.40038 0.43175 0.06359 0.0
O324 O 0.38539 0.43408 0.03932 0.0
O325 O 0.36496 0.42242 0.06255 0.0
O326 O 0.41966 0.44656 0.04819 0.0
O327 O 0.38268 0.42221 0.12631 0.0
O328 O 0.40352 0.43638 0.10607 0.0
C329 C 0.372 0.43 0.04161 0.0
C330 C 0.38888 0.39987 0.06169 0.0
O331 O 0.39943 0.41247 0.05728 0.0
O332 O 0.37728 0.39816 0.07248 0.0
C333 C 0.42595 0.44442 0.0276 0.0
O334 O 0.4194 0.43203 0.01418 0.0
C335 C 0.39595 0.4315 0.12836 0.0
Zn336 Zn 0.70591 0.7544 0.93039 0.0
Zn337 Zn 0.69087 0.76278 0.89946 0.0
O338 O 0.70773 0.76547 0.87389 0.0
O339 O 0.72069 0.759 0.89939 0.0
O340 O 0.68217 0.77275 0.87818 0.0
O341 O 0.70829 0.76764 0.96323 0.0
O342 O 0.69356 0.77202 0.9386 0.0
C343 C 0.71845 0.76341 0.8762 0.0
C344 C 0.67567 0.73217 0.91755 0.0
O345 O 0.67512 0.74184 0.9029 0.0
O346 O 0.68723 0.73497 0.93027 0.0
C347 C 0.69005 0.78636 0.87603 0.0
O348 O 0.70319 0.79261 0.88641 0.0
C349 C 0.70028 0.7732 0.96149 0.0
Zn350 Zn 0.2365 0.96101 0.92989 0.0
Zn351 Zn 0.22648 0.9367 0.90101 0.0
O352 O 0.22166 0.94998 0.87723 0.0
O353 O 0.22888 0.96983 0.90176 0.0
O354 O 0.21565 0.91758 0.88122 0.0
O355 O 0.22655 0.95091 0.96615 0.0
O356 O 0.22004 0.93105 0.94219 0.0
C357 C 0.22329 0.96258 0.87958 0.0
C358 C 0.25831 0.95402 0.90897 0.0
O359 O 0.24774 0.94283 0.89818 0.0
O360 O 0.25615 0.96297 0.92258 0.0
C361 C 0.21559 0.90654 0.89131 0.0
O362 O 0.22334 0.908 0.91386 0.0
C363 C 0.22082 0.93731 0.96551 0.0
Zn364 Zn 0.03529 0.28388 0.9193 0.0
Zn365 Zn 0.06051 0.29247 0.89588 0.0
O366 O 0.04578 0.27448 0.87273 0.0
O367 O 0.02495 0.26655 0.89427 0.0
O368 O 0.07972 0.29711 0.87966 0.0
O369 O 0.04261 0.28379 0.95858 0.0
O370 O 0.06379 0.29188 0.93868 0.0
C371 C 0.03226 0.26554 0.87433 0.0
C372 C 0.04821 0.31219 0.89253 0.0
O373 O 0.0588 0.31028 0.88728 0.0
O374 O 0.03712 0.30254 0.90509 0.0
C375 C 0.0912 0.30756 0.88975 0.0
O376 O 0.09019 0.3153 0.91021 0.0
C377 C 0.05605 0.28867 0.96084 0.0
Zn378 Zn 0.43081 0.05063 0.89581 0.0
Zn379 Zn 0.43693 0.03408 0.92792 0.0
O380 O 0.44073 0.05147 0.95278 0.0
O381 O 0.43682 0.06597 0.92618 0.0
O382 O 0.44533 0.02424 0.95067 0.0
O383 O 0.44357 0.05124 0.86349 0.0
O384 O 0.44641 0.03586 0.88936 0.0
C385 C 0.44016 0.06301 0.94989 0.0
C386 C 0.40641 0.02162 0.90994 0.0
O387 O 0.41552 0.01994 0.92427 0.0
O388 O 0.41033 0.03335 0.8968 0.0
C389 C 0.44537 0.01322 0.94086 0.0
O390 O 0.43885 0.00773 0.91678 0.0
C391 C 0.44824 0.04252 0.86613 0.0
Zn392 Zn 0.95362 0.38164 0.89432 0.0
Zn393 Zn 0.96881 0.40476 0.92618 0.0
O394 O 0.95186 0.39058 0.95145 0.0
O395 O 0.93842 0.37181 0.92468 0.0
O396 O 0.97794 0.42332 0.94785 0.0
O397 O 0.95209 0.39306 0.86175 0.0
O398 O 0.96595 0.41191 0.88787 0.0
C399 C 0.94081 0.37809 0.94834 0.0
C400 C 0.9834 0.38859 0.9078 0.0
O401 O 0.98425 0.39908 0.92201 0.0
O402 O 0.97176 0.37997 0.89517 0.0
C403 C 0.97001 0.42887 0.95195 0.0
O404 O 0.95646 0.42171 0.9438 0.0
C405 C 0.95959 0.40662 0.86456 0.0
Zn406 Zn 0.62554 0.58083 0.91983 0.0
Zn407 Zn 0.60042 0.56284 0.94201 0.0
O408 O 0.61547 0.56024 0.96562 0.0
O409 O 0.63624 0.57408 0.9446 0.0
O410 O 0.58117 0.54724 0.95603 0.0
O411 O 0.6188 0.57411 0.87986 0.0
O412 O 0.59776 0.55959 0.89902 0.0
C413 C 0.62911 0.56546 0.96428 0.0
C414 C 0.61105 0.59451 0.94723 0.0
O415 O 0.60081 0.58169 0.9513 0.0
O416 O 0.62259 0.59679 0.93525 0.0
C417 C 0.57475 0.5486 0.97734 0.0
O418 O 0.58112 0.56056 0.99216 0.0
C419 C 0.60554 0.56492 0.87711 0.0
Zn420 Zn 0.94925 0.57367 0.41314 0.0
Zn421 Zn 0.96335 0.56436 0.44399 0.0
O422 O 0.94614 0.56169 0.46855 0.0
O423 O 0.93351 0.56831 0.44241 0.0
O424 O 0.97096 0.5533 0.4651 0.0
O425 O 0.94781 0.56184 0.37853 0.0
O426 O 0.96178 0.55659 0.40362 0.0
C427 C 0.93545 0.56376 0.46573 0.0
C428 C 0.97912 0.59539 0.43007 0.0
O429 O 0.97936 0.58522 0.44351 0.0
O430 O 0.96789 0.59304 0.41661 0.0
C431 C 0.98159 0.55252 0.45523 0.0
O432 O 0.98802 0.55982 0.43234 0.0
C433 C 0.95585 0.5563 0.38017 0.0
Zn434 Zn 0.42439 0.37208 0.41 0.0
Zn435 Zn 0.43544 0.39617 0.43889 0.0
O436 O 0.4388 0.38189 0.46302 0.0
O437 O 0.43093 0.36217 0.43777 0.0
O438 O 0.44718 0.41514 0.45878 0.0
O439 O 0.43464 0.38159 0.37369 0.0
O440 O 0.44197 0.40163 0.39753 0.0
C441 C 0.43646 0.36903 0.46037 0.0
C442 C 0.40373 0.38077 0.4303 0.0
O443 O 0.41461 0.39152 0.44143 0.0
O444 O 0.40527 0.37139 0.41681 0.0
C445 C 0.44702 0.42627 0.44996 0.0
O446 O 0.43859 0.425 0.42868 0.0
C447 C 0.44087 0.39523 0.37422 0.0
Zn448 Zn 0.62156 0.04732 0.39861 0.0
Zn449 Zn 0.59917 0.03646 0.43178 0.0
O450 O 0.61408 0.05478 0.45335 0.0
O451 O 0.63358 0.06281 0.42722 0.0
O452 O 0.58049 0.02979 0.45242 0.0
O453 O 0.61159 0.04977 0.36448 0.0
O454 O 0.5927 0.0363 0.39069 0.0
C455 C 0.62748 0.06358 0.4495 0.0
C456 C 0.61237 0.01834 0.42047 0.0
O457 O 0.60385 0.0203 0.43616 0.0
O458 O 0.62025 0.02779 0.40251 0.0
C459 C 0.5699 0.01754 0.44589 0.0
O460 O 0.57188 0.00953 0.42743 0.0
C461 C 0.59807 0.04173 0.36675 0.0
Zn462 Zn 0.23621 0.28368 0.44569 0.0
Zn463 Zn 0.22775 0.29825 0.41367 0.0
O464 O 0.22511 0.28101 0.38946 0.0
O465 O 0.23066 0.26786 0.4166 0.0
O466 O 0.21804 0.30667 0.3906 0.0
O467 O 0.22388 0.2828 0.47885 0.0
O468 O 0.21839 0.29626 0.45259 0.0
C469 C 0.22669 0.27005 0.39284 0.0
C470 C 0.25875 0.31316 0.4299 0.0
O471 O 0.24884 0.31378 0.41626 0.0
O472 O 0.256 0.30175 0.44313 0.0
C473 C 0.21795 0.31788 0.39915 0.0
O474 O 0.225 0.32429 0.42229 0.0
C475 C 0.21786 0.29035 0.47622 0.0
Zn476 Zn 0.71862 0.95431 0.43099 0.0
Zn477 Zn 0.70392 0.93162 0.39829 0.0
O478 O 0.72097 0.94609 0.37361 0.0
O479 O 0.73344 0.96515 0.40028 0.0
O480 O 0.69558 0.91302 0.37661 0.0
O481 O 0.72116 0.94346 0.4633 0.0
O482 O 0.70599 0.92491 0.43792 0.0
C483 C 0.73149 0.9589 0.37668 0.0
C484 C 0.68857 0.94659 0.41704 0.0
O485 O 0.68836 0.93716 0.40042 0.0
O486 O 0.69966 0.95453 0.43177 0.0
C487 C 0.68505 0.90175 0.38709 0.0
O488 O 0.67922 0.90282 0.41068 0.0
C489 C 0.71263 0.93001 0.46109 0.0
Zn490 Zn 0.04058 0.75942 0.43848 0.0
Zn491 Zn 0.065 0.77048 0.41044 0.0
O492 O 0.05096 0.77367 0.38521 0.0
O493 O 0.03094 0.76579 0.40949 0.0
O494 O 0.08438 0.78284 0.39247 0.0
O495 O 0.04969 0.76966 0.47521 0.0
O496 O 0.06986 0.77697 0.45186 0.0
C497 C 0.03804 0.77125 0.38709 0.0
C498 C 0.04978 0.73888 0.41946 0.0
O499 O 0.0606 0.74971 0.40838 0.0
O500 O 0.04025 0.74045 0.4323 0.0
C501 C 0.09124 0.77871 0.37675 0.0
O502 O 0.08535 0.76503 0.36991 0.0
C503 C 0.06334 0.77592 0.47497 0.0
H504 H 0.29252 0.95896 0.29421 0.0
H505 H 0.29181 0.9811 0.28707 0.0
H506 H 0.24804 0.95649 0.2567 0.0
H507 H 0.24867 0.9341 0.26437 0.0
H508 H 0.26706 0.97531 0.21731 0.0
H509 H 0.27462 0.00499 0.31618 0.0
H510 H 0.286 0.99714 0.3164 0.0
H511 H 0.26667 0.98558 0.31525 0.0
C512 C 0.28254 0.95823 0.2872 0.0
C513 C 0.27068 0.94489 0.27974 0.0
C514 C 0.28208 0.97089 0.28331 0.0
C515 C 0.26982 0.97046 0.27158 0.0
C516 C 0.25753 0.95704 0.26612 0.0
H517 H 0.31509 0.06068 0.22747 0.0
H518 H 0.29146 0.03896 0.23428 0.0
C519 C 0.25789 0.94428 0.27055 0.0
C520 C 0.2714 0.98393 0.25957 0.0
H521 H 0.28947 0.0197 0.27552 0.0
C522 C 0.27137 0.985 0.23005 0.0
C523 C 0.27667 0.99657 0.27603 0.0
C524 C 0.27583 0.99597 0.30775 0.0
C525 C 0.27862 0.99848 0.21671 0.0
C526 C 0.28607 0.01103 0.23335 0.0
C527 C 0.28402 0.01004 0.26269 0.0
C528 C 0.29873 0.02416 0.22216 0.0
C529 C 0.27943 -0.00092 0.18498 0.0
C530 C 0.31051 0.02302 0.21236 0.0
C531 C 0.32397 0.0353 0.20894 0.0
C532 C 0.32588 0.04897 0.21499 0.0
C533 C 0.31384 0.05025 0.2224 0.0
C534 C 0.30036 0.03788 0.22634 0.0
H535 H 0.26929 0.99038 0.17558 0.0
H536 H 0.28145 0.00967 0.1769 0.0
H537 H 0.28836 0.99737 0.17795 0.0
H538 H 0.30961 0.01255 0.20962 0.0
H539 H 0.33309 0.03404 0.20328 0.0
H540 H 0.0358 0.33407 0.29753 0.0
H541 H 0.01375 0.31119 0.29003 0.0
H542 H 0.03875 0.29182 0.26322 0.0
H543 H 0.06104 0.31485 0.27119 0.0
H544 H 0.02026 0.29159 0.22229 0.0
H545 H 0.98979 0.27041 0.32076 0.0
H546 H 0.99752 0.28961 0.31987 0.0
H547 H 0.00919 0.28195 0.32029 0.0
C548 C 0.03662 0.32478 0.29118 0.0
C549 C 0.05006 0.32621 0.28482 0.0
C550 C 0.02401 0.31166 0.28709 0.0
C551 C 0.0246 0.29974 0.27629 0.0
C552 C 0.03808 0.30083 0.2719 0.0
H553 H 0.93467 0.25294 0.22926 0.0
H554 H 0.95664 0.25162 0.2377 0.0
C555 C 0.05078 0.31397 0.27651 0.0
C556 C 0.01126 0.28769 0.26423 0.0
H557 H 0.97535 0.2697 0.27898 0.0
C558 C 0.01046 0.28624 0.23475 0.0
C559 C 0.99851 0.28038 0.28036 0.0
C560 C -0.00116 0.28055 0.31212 0.0
C561 C 0.99709 0.27965 0.22093 0.0
C562 C 0.98437 0.27454 0.23705 0.0
C563 C 0.98514 0.27389 0.26653 0.0
C564 C 0.9712 0.27363 0.22491 0.0
C565 C 0.99676 0.27946 0.18916 0.0
C566 C 0.97214 0.28629 0.21417 0.0
C567 C 0.95971 0.28714 0.20984 0.0
C568 C 0.94612 0.27529 0.21588 0.0
C569 C 0.94506 0.26219 0.22418 0.0
C570 C 0.95757 0.26142 0.22906 0.0
H571 H 0.00568 0.27814 0.18054 0.0
H572 H 0.98632 0.27064 0.18103 0.0
H573 H 0.99828 0.28991 0.18136 0.0
H574 H 0.98253 0.29595 0.21141 0.0
H575 H 0.96079 0.29736 0.2035 0.0
H576 H 0.70748 0.65576 0.28744 0.0
H577 H 0.70167 0.67479 0.27952 0.0
H578 H 0.71763 0.68008 0.19437 0.0
H579 H 0.72373 0.66101 0.20229 0.0
H580 H 0.71914 0.7062 0.25217 0.0
H581 H 0.67106 0.66306 0.19591 0.0
H582 H 0.6808 0.65851 0.22109 0.0
H583 H 0.68885 0.66618 0.18774 0.0
C584 C 0.71005 0.66117 0.26719 0.0
C585 C 0.71584 0.65679 0.2453 0.0
C586 C 0.70684 0.67212 0.26281 0.0
C587 C 0.70922 0.67876 0.2364 0.0
C588 C 0.71583 0.67508 0.21495 0.0
H589 H 0.65146 0.71128 0.19765 0.0
H590 H 0.67088 0.70589 0.19059 0.0
C591 C 0.71925 0.6642 0.21946 0.0
C592 C 0.70253 0.68762 0.23057 0.0
H593 H 0.67036 0.68363 0.2094 0.0
C594 C 0.70863 0.70149 0.2422 0.0
C595 C 0.68887 0.68138 0.21752 0.0
C596 C 0.6819 0.66646 0.20482 0.0
C597 C 0.70107 0.70909 0.24209 0.0
C598 C 0.68689 0.70237 0.231 0.0
C599 C 0.68121 0.68881 0.21798 0.0
C600 C 0.67716 0.7084 0.23456 0.0
C601 C 0.70831 0.72413 0.25417 0.0
C602 C 0.67442 0.71198 0.26153 0.0
C603 C 0.66351 0.71539 0.26547 0.0
C604 C 0.65488 0.71478 0.24267 0.0
C605 C 0.65787 0.71162 0.21563 0.0
C606 C 0.669 0.70862 0.21157 0.0
H607 H 0.72019 0.72962 0.25112 0.0
H608 H 0.7042 0.7308 0.24436 0.0
H609 H 0.70627 0.72351 0.2772 0.0
H610 H 0.68021 0.71145 0.27978 0.0
H611 H 0.66134 0.71775 0.28652 0.0
H612 H 0.66097 0.95786 0.7147 0.0
H613 H 0.68343 0.98043 0.71138 0.0
H614 H 0.70472 0.96304 0.76186 0.0
H615 H 0.68185 0.94008 0.76572 0.0
H616 H 0.71048 0.98872 0.78083 0.0
H617 H 0.71988 0.99476 0.66714 0.0
H618 H 0.70119 0.98892 0.67243 0.0
H619 H 0.70819 0.97738 0.68306 0.0
C620 C 0.6704 0.95868 0.72494 0.0
C621 C 0.66958 0.94714 0.74054 0.0
C622 C 0.68336 0.97158 0.7226 0.0
C623 C 0.69592 0.97329 0.73551 0.0
C624 C 0.69522 0.96183 0.75121 0.0
H625 H 0.74247 0.06613 0.71119 0.0
H626 H 0.74336 0.04357 0.71243 0.0
C627 C 0.68214 0.94879 0.75358 0.0
C628 C 0.70892 0.98781 0.73545 0.0
H629 H 0.72324 0.01713 0.69228 0.0
C630 C 0.71384 0.99488 0.7614 0.0
C631 C 0.71395 0.99589 0.71022 0.0
C632 C 0.71063 0.98873 0.68169 0.0
C633 C 0.72136 0.00998 0.76277 0.0
C634 C 0.72357 0.01798 0.73771 0.0
C635 C 0.72108 0.01098 0.71162 0.0
C636 C 0.72431 0.03216 0.73845 0.0
C637 C 0.72551 0.01716 0.79125 0.0
C638 C 0.71311 0.03302 0.75189 0.0
C639 C 0.71246 0.04565 0.75095 0.0
C640 C 0.72297 0.05778 0.73634 0.0
C641 C 0.73421 0.05695 0.72262 0.0
C642 C 0.73481 0.04415 0.72348 0.0
H643 H 0.72912 0.0113 0.80537 0.0
H644 H 0.73424 0.02859 0.78956 0.0
H645 H 0.71594 0.0168 0.80118 0.0
H646 H 0.70456 0.02375 0.76263 0.0
H647 H 0.70362 0.04582 0.76168 0.0
H648 H 0.04574 0.69918 0.74275 0.0
H649 H 0.02235 0.69749 0.73986 0.0
H650 H 0.03824 0.73679 0.78778 0.0
H651 H 0.06206 0.73862 0.79093 0.0
H652 H 0.01217 0.71458 0.80732 0.0
H653 H 0.00824 0.71981 0.69292 0.0
H654 H 0.01485 0.70765 0.69953 0.0
H655 H 0.02536 0.72621 0.71061 0.0
C656 C 0.04439 0.70756 0.75262 0.0
C657 C 0.0558 0.71905 0.76706 0.0
C658 C 0.03102 0.70667 0.7506 0.0
C659 C 0.0287 0.71726 0.7628 0.0
C660 C 0.03994 0.72867 0.77772 0.0
H661 H 0.93579 0.67578 0.73224 0.0
H662 H 0.95958 0.6977 0.73608 0.0
C663 C 0.05347 0.72963 0.77967 0.0
C664 C 0.01398 0.71518 0.76202 0.0
H665 H 0.98557 0.70166 0.71653 0.0
C666 C 0.00639 0.71231 0.78748 0.0
C667 C 0.00646 0.71269 0.73622 0.0
C668 C 0.01423 0.71694 0.70832 0.0
C669 C 0.99128 0.70492 0.78766 0.0
C670 C 0.98376 0.7001 0.76181 0.0
C671 C 0.99135 0.70501 0.73639 0.0
C672 C 0.96901 0.68752 0.76081 0.0
C673 C 0.98351 0.70122 0.81558 0.0
C674 C 0.96663 0.67451 0.77268 0.0
C675 C 0.95327 0.66207 0.77028 0.0
C676 C 0.94193 0.66228 0.75576 0.0
C677 C 0.94432 0.67528 0.74354 0.0
C678 C 0.95784 0.68782 0.74589 0.0
H679 H 0.98949 0.70998 0.83115 0.0
H680 H 0.97238 0.69938 0.81341 0.0
H681 H 0.98292 0.69128 0.82406 0.0
H682 H 0.97525 0.6739 0.7834 0.0
H683 H 0.95187 0.65227 0.77986 0.0
H684 H 0.35149 0.30326 0.77068 0.0
H685 H 0.33063 0.3065 0.77175 0.0
H686 H 0.30563 0.26656 0.72654 0.0
H687 H 0.32674 0.26318 0.72517 0.0
H688 H 0.30308 0.28936 0.70483 0.0
H689 H 0.29418 0.28589 0.81952 0.0
H690 H 0.31293 0.29767 0.81204 0.0
H691 H 0.30453 0.27889 0.80246 0.0
C692 C 0.34159 0.29508 0.76101 0.0
C693 C 0.34079 0.28292 0.74792 0.0
C694 C 0.3296 0.29688 0.76193 0.0
C695 C 0.31648 0.28655 0.74998 0.0
C696 C 0.31562 0.27451 0.73633 0.0
H697 H 0.26129 0.32435 0.77889 0.0
H698 H 0.2656 0.30391 0.77532 0.0
C699 C 0.32769 0.27265 0.73545 0.0
C700 C 0.30425 0.2893 0.75018 0.0
H701 H 0.28876 0.30277 0.79433 0.0
C702 C 0.29952 0.29184 0.72439 0.0
C703 C 0.29922 0.29209 0.77566 0.0
C704 C 0.30287 0.28831 0.80396 0.0
C705 C 0.29142 0.29885 0.72348 0.0
C706 C 0.28834 0.30366 0.74895 0.0
C707 C 0.29142 0.2994 0.77475 0.0
C708 C 0.28463 0.31525 0.74922 0.0
C709 C 0.28704 0.30184 0.69518 0.0
C710 C 0.29405 0.32843 0.73623 0.0
C711 C 0.2917 0.34006 0.73836 0.0
C712 C 0.27994 0.33884 0.75378 0.0
C713 C 0.27047 0.32563 0.76687 0.0
C714 C 0.27285 0.31393 0.76472 0.0
H715 H 0.28471 0.293 0.68009 0.0
H716 H 0.27738 0.30311 0.69688 0.0
H717 H 0.29608 0.31192 0.68636 0.0
H718 H 0.3035 0.32988 0.72502 0.0
H719 H 0.29926 0.35007 0.72809 0.0
H720 H -0.0002 0.38865 0.55702 0.0
H721 H 0.98083 0.36352 0.56324 0.0
H722 H 0.98872 0.36727 0.65299 0.0
H723 H 0.00831 0.39204 0.64644 0.0
H724 H 0.98987 0.34581 0.63542 0.0
H725 H 0.9405 0.34092 0.5889 0.0
H726 H 0.95481 0.34901 0.56367 0.0
H727 H 0.95611 0.35826 0.59632 0.0
C728 C 0.99725 0.38413 0.57808 0.0
C729 C 0.00555 0.39211 0.60121 0.0
C730 C 0.98628 0.36983 0.58172 0.0
C731 C 0.98315 0.36349 0.60868 0.0
C732 C 0.99091 0.37188 0.63199 0.0
H733 H 0.93859 0.26909 0.63588 0.0
H734 H 0.94345 0.29376 0.64521 0.0
C735 C 0.00212 0.38599 0.62824 0.0
C736 C 0.97359 0.34768 0.61196 0.0
H737 H 0.94241 0.31893 0.5877 0.0
C738 C 0.97927 0.33999 0.62579 0.0
C739 C 0.95973 0.34 0.59953 0.0
C740 C 0.9524 0.34754 0.58658 0.0
C741 C 0.97201 0.32491 0.62564 0.0
C742 C 0.95879 0.31731 0.61109 0.0
C743 C 0.9526 0.32486 0.59879 0.0
C744 C 0.95288 0.30195 0.60424 0.0
C745 C 0.97904 0.3172 0.63917 0.0
C746 C 0.95625 0.29846 0.57796 0.0
C747 C 0.95375 0.2846 0.57281 0.0
C748 C 0.94769 0.27394 0.59378 0.0
C749 C 0.94331 0.27715 0.61942 0.0
C750 C 0.94602 0.29116 0.62473 0.0
H751 H 0.98948 0.32476 0.64939 0.0
H752 H 0.97173 0.30955 0.65535 0.0
H753 H 0.98098 0.31083 0.62305 0.0
H754 H 0.96162 0.3067 0.562 0.0
H755 H 0.95705 0.28237 0.55272 0.0
H756 H 0.60105 0.59245 0.55152 0.0
H757 H 0.62472 0.59391 0.55478 0.0
H758 H 0.64214 0.63523 0.59589 0.0
H759 H 0.61893 0.63395 0.59276 0.0
H760 H 0.65161 0.61583 0.53289 0.0
H761 H 0.65465 0.6128 0.64822 0.0
H762 H 0.63769 0.60598 0.62965 0.0
H763 H 0.64811 0.62478 0.63915 0.0
C764 C 0.60997 0.60184 0.56119 0.0
C765 C 0.6081 0.61306 0.57199 0.0
C766 C 0.6234 0.60259 0.56321 0.0
C767 C 0.635 0.61446 0.57639 0.0
C768 C 0.63319 0.62575 0.58649 0.0
H769 H 0.71165 0.67834 0.55894 0.0
H770 H 0.68856 0.65644 0.55455 0.0
C771 C 0.61992 0.62507 0.58438 0.0
C772 C 0.6495 0.61607 0.57804 0.0
H773 H 0.67753 0.62999 0.62438 0.0
C774 C 0.65724 0.61836 0.55292 0.0
C775 C 0.6568 0.61887 0.60415 0.0
C776 C 0.64881 0.6153 0.63181 0.0
C777 C 0.67236 0.62555 0.5532 0.0
C778 C 0.67971 0.63077 0.57912 0.0
C779 C 0.67191 0.62635 0.60441 0.0
C780 C 0.69445 0.64339 0.58007 0.0
C781 C 0.68032 0.62863 0.52557 0.0
C782 C 0.70534 0.64352 0.59679 0.0
C783 C 0.71867 0.65623 0.59967 0.0
C784 C 0.72116 0.66899 0.58618 0.0
C785 C 0.71016 0.66874 0.56961 0.0
C786 C 0.69698 0.65612 0.56669 0.0
H787 H 0.67447 0.61949 0.51071 0.0
H788 H 0.68087 0.63831 0.51574 0.0
H789 H 0.69146 0.63062 0.52851 0.0
H790 H 0.70347 0.63386 0.60777 0.0
H791 H 0.72695 0.65608 0.61255 0.0
H792 H 0.33588 0.07114 0.60713 0.0
H793 H 0.35723 0.06808 0.6081 0.0
H794 H 0.32961 0.02228 0.61955 0.0
H795 H 0.3084 0.02517 0.61821 0.0
H796 H 0.3595 0.0405 0.65448 0.0
H797 H 0.36033 0.04275 0.53699 0.0
H798 H 0.35804 0.05552 0.55807 0.0
H799 H 0.34358 0.03725 0.55524 0.0
C800 C 0.33444 0.06049 0.61057 0.0
C801 C 0.32052 0.04835 0.61236 0.0
C802 C 0.3466 0.05878 0.61103 0.0
C803 C 0.34489 0.04496 0.61378 0.0
C804 C 0.33108 0.03302 0.61745 0.0
H805 H 0.36283 0.98102 0.61492 0.0
H806 H 0.35809 0.00064 0.62313 0.0
C807 C 0.31899 0.03468 0.6166 0.0
C808 C 0.35702 0.0423 0.60989 0.0
H809 H 0.3705 0.03004 0.55864 0.0
C810 C 0.36239 0.03869 0.63356 0.0
C811 C 0.36085 0.04013 0.58258 0.0
C812 C 0.35549 0.04413 0.55662 0.0
C813 C 0.37038 0.03165 0.63054 0.0
C814 C 0.37262 0.0278 0.60324 0.0
C815 C 0.36864 0.03286 0.57956 0.0
C816 C 0.3764 0.01639 0.59904 0.0
C817 C 0.37558 0.02761 0.65669 0.0
C818 C 0.38796 0.01855 0.58177 0.0
C819 C 0.39064 0.0072 0.57668 0.0
C820 C 0.38168 0.99351 0.58859 0.0
C821 C 0.37001 0.99141 0.60552 0.0
C822 C 0.36738 0.00269 0.61056 0.0
H823 H 0.37822 0.03573 0.67361 0.0
H824 H 0.36687 0.0171 0.66472 0.0
H825 H 0.38525 0.02664 0.6523 0.0
H826 H 0.39488 0.02899 0.57226 0.0
H827 H 0.39972 0.00915 0.56355 0.0
H828 H 0.41284 0.39782 0.07211 0.0
H829 H 0.41324 0.37534 0.07995 0.0
H830 H 0.36896 0.3509 0.05244 0.0
H831 H 0.36844 0.37316 0.04522 0.0
H832 H 0.39384 0.35679 0.12081 0.0
H833 H 0.38619 0.32688 0.02185 0.0
H834 H 0.39444 0.34632 0.02291 0.0
H835 H 0.37508 0.33506 0.02217 0.0
C836 C 0.40342 0.38765 0.06662 0.0
C837 C 0.39057 0.38714 0.05823 0.0
C838 C 0.40366 0.37484 0.07114 0.0
C839 C 0.39119 0.36147 0.06653 0.0
C840 C 0.37881 0.36109 0.05558 0.0
H841 H 0.32855 0.29551 0.13411 0.0
H842 H 0.35113 0.31797 0.12655 0.0
C843 C 0.37847 0.37381 0.05164 0.0
C844 C 0.38967 0.34806 0.07864 0.0
H845 H 0.37234 0.31226 0.06298 0.0
C846 C 0.38973 0.34707 0.10816 0.0
C847 C 0.38457 0.33544 0.06223 0.0
C848 C 0.38522 0.33601 0.0305 0.0
C849 C 0.38279 0.33362 0.12161 0.0
C850 C 0.3757 0.32101 0.10506 0.0
C851 C 0.3776 0.32198 0.07569 0.0
C852 C 0.36354 0.30761 0.11652 0.0
C853 C 0.38188 0.33304 0.15333 0.0
C854 C 0.36314 0.29436 0.11413 0.0
C855 C 0.35023 0.28146 0.11892 0.0
C856 C 0.33753 0.28175 0.12529 0.0
C857 C 0.3382 0.29504 0.1293 0.0
C858 C 0.35112 0.30786 0.12514 0.0
H859 H 0.39154 0.34231 0.16288 0.0
H860 H 0.37226 0.33365 0.16008 0.0
H861 H 0.38084 0.32283 0.16151 0.0
H862 H 0.37258 0.29397 0.10711 0.0
H863 H 0.34992 0.27131 0.1154 0.0
H864 H 0.61838 0.99103 0.11263 0.0
H865 H 0.64125 0.01321 0.11515 0.0
H866 H 0.62742 0.03196 0.05037 0.0
H867 H 0.60418 0.00934 0.04735 0.0
H868 H 0.65282 0.03482 0.03803 0.0
H869 H 0.65669 0.05267 0.1473 0.0
H870 H 0.65005 0.03367 0.14831 0.0
H871 H 0.63952 0.04043 0.1312 0.0
C872 C 0.62004 -0.00013 0.09907 0.0
C873 C 0.60948 0.99835 0.07958 0.0
C874 C 0.63309 0.01271 0.10093 0.0
C875 C 0.63593 0.02444 0.08357 0.0
C876 C 0.62534 0.02312 0.06435 0.0
H877 H 0.72971 0.07366 0.10846 0.0
H878 H 0.70644 0.07295 0.1038 0.0
C879 C 0.61213 0.01018 0.06251 0.0
C880 C 0.65083 0.03685 0.08283 0.0
H881 H 0.67917 0.05343 0.12825 0.0
C882 C 0.65855 0.03946 0.05756 0.0
C883 C 0.65839 0.04342 0.10799 0.0
C884 C 0.65063 0.0425 0.13511 0.0
C885 C 0.67364 0.0463 0.05777 0.0
C886 C 0.68099 0.05029 0.08388 0.0
C887 C 0.67347 0.04992 0.10833 0.0
C888 C 0.69518 0.05127 0.08701 0.0
C889 C 0.68147 0.04789 0.03042 0.0
C890 C 0.6963 0.03912 0.08026 0.0
C891 C 0.70936 0.03941 0.08311 0.0
C892 C 0.72164 0.05186 0.09297 0.0
C893 C 0.72042 0.06391 0.10078 0.0
C894 C 0.70721 0.06358 0.09794 0.0
H895 H 0.67587 0.0498 0.01262 0.0
H896 H 0.69279 0.0569 0.03141 0.0
H897 H 0.68155 0.03775 0.02595 0.0
H898 H 0.687 0.02933 0.07269 0.0
H899 H 0.70984 0.02989 0.07717 0.0
H900 H 0.97008 0.68785 0.07482 0.0
H901 H 0.97345 0.6671 0.07216 0.0
H902 H 0.93394 0.64154 0.11833 0.0
H903 H 0.93044 0.66252 0.12132 0.0
H904 H 0.95685 0.63916 0.13879 0.0
H905 H 0.95312 0.63089 0.02397 0.0
H906 H 0.96473 0.64964 0.03157 0.0
H907 H 0.94597 0.64097 0.04157 0.0
C908 C 0.96202 0.67784 0.08435 0.0
C909 C 0.94997 0.67685 0.09826 0.0
C910 C 0.96388 0.66592 0.08248 0.0
C911 C 0.95371 0.65268 0.09428 0.0
C912 C 0.94175 0.65162 0.10864 0.0
H913 H 0.99356 0.59945 0.06399 0.0
H914 H 0.97271 0.60312 0.0673 0.0
C915 C 0.93984 0.66362 0.11047 0.0
C916 C 0.95665 0.6406 0.09348 0.0
H917 H 0.97068 0.62604 0.04839 0.0
C918 C 0.9594 0.63584 0.11903 0.0
C919 C 0.95953 0.63586 0.06774 0.0
C920 C 0.9555 0.6395 0.03969 0.0
C921 C 0.96679 0.62811 0.11944 0.0
C922 C 0.97173 0.62543 0.09373 0.0
C923 C 0.96721 0.62843 0.06815 0.0
C924 C 0.9837 0.6223 0.09307 0.0
C925 C 0.97009 0.62377 0.14747 0.0
C926 C 0.99684 0.63209 0.1058 0.0
C927 C 0.0087 0.63012 0.1038 0.0
C928 C 0.00776 0.61837 0.08879 0.0
C929 C 0.99463 0.60862 0.07571 0.0
C930 C 0.98269 0.61063 0.07772 0.0
H931 H 0.96128 0.62117 0.16282 0.0
H932 H 0.97163 0.61428 0.14538 0.0
H933 H 0.98012 0.63291 0.15622 0.0
H934 H 0.99801 0.64147 0.11689 0.0
H935 H 0.01864 0.63788 0.11402 0.0
H936 H 0.58695 0.59703 0.94162 0.0
H937 H 0.58646 0.6198 0.94168 0.0
H938 H 0.63106 0.64265 0.9676 0.0
H939 H 0.63166 0.62019 0.96714 0.0
H940 H 0.61124 0.65258 0.99212 0.0
H941 H 0.61115 0.64798 0.87491 0.0
H942 H 0.59749 0.63373 0.89615 0.0
H943 H 0.61557 0.63679 0.89631 0.0
C944 C 0.59646 0.60688 0.94825 0.0
C945 C 0.6094 0.60698 0.95412 0.0
C946 C 0.59617 0.61983 0.94817 0.0
C947 C 0.60875 0.63286 0.95444 0.0
C948 C 0.62124 0.63268 0.96278 0.0
H949 H 0.6732 0.71023 0.95032 0.0
H950 H 0.65176 0.68722 0.95963 0.0
C951 C 0.62159 0.61988 0.96242 0.0
C952 C 0.61016 0.647 0.94823 0.0
H953 H 0.62341 0.67127 0.89435 0.0
C954 C 0.6133 0.65664 0.97067 0.0
C955 C 0.61262 0.65224 0.92022 0.0
C956 C 0.60904 0.64221 0.89537 0.0
C957 C 0.62064 0.67156 0.96599 0.0
C958 C 0.62515 0.67682 0.93833 0.0
C959 C 0.62012 0.66718 0.91559 0.0
C960 C 0.63764 0.69136 0.93347 0.0
C961 C 0.62464 0.68157 0.99094 0.0
C962 C 0.63697 0.70114 0.91469 0.0
C963 C 0.64936 0.71441 0.90906 0.0
C964 C 0.66261 0.71793 0.92182 0.0
C965 C 0.6632 0.70794 0.94016 0.0
C966 C 0.65089 0.69482 0.94585 0.0
H967 H 0.61617 0.67686 0.00747 0.0
H968 H 0.63482 0.6831 1.00032 0.0
H969 H 0.62624 0.69227 0.98471 0.0
H970 H 0.62689 0.69851 0.90447 0.0
H971 H 0.64855 0.72189 0.89483 0.0
H972 H 0.39397 0.99447 0.93308 0.0
H973 H 0.36861 0.9754 0.92984 0.0
H974 H 0.35934 0.0034 0.87964 0.0
H975 H 0.38445 0.02226 0.8823 0.0
H976 H 0.34571 0.97641 0.94948 0.0
H977 H 0.33847 0.96655 0.83526 0.0
H978 H 0.35611 0.97584 0.85144 0.0
H979 H 0.347 0.98555 0.8417 0.0
C980 C 0.38654 0.99649 0.92111 0.0
C981 C 0.39123 0.00989 0.90797 0.0
C982 C 0.37209 0.98556 0.91917 0.0
C983 C 0.36218 0.98785 0.90387 0.0
C984 C 0.36688 0.0012 0.89073 0.0
H985 H 0.28281 0.97699 0.92903 0.0
H986 H 0.30715 0.9808 0.92824 0.0
C987 C 0.38125 0.01207 0.8926 0.0
C988 C 0.34658 0.97712 0.90405 0.0
H989 H 0.31712 0.9636 0.86107 0.0
C990 C 0.33947 0.9732 0.93013 0.0
C991 C 0.33841 0.97257 0.87887 0.0
C992 C 0.34545 0.97522 0.85028 0.0
C993 C 0.3244 0.96634 0.93163 0.0
C994 C 0.31636 0.96363 0.90646 0.0
C995 C 0.32334 0.96599 0.88038 0.0
C996 C 0.30135 0.96074 0.90693 0.0
C997 C 0.31727 0.96281 0.96021 0.0
C998 C 0.29008 0.94843 0.89417 0.0
C999 C 0.27602 0.94623 0.89438 0.0
C1000 C 0.27314 0.95642 0.90711 0.0
C1001 C 0.28458 0.96887 0.91922 0.0
C1002 C 0.29851 0.97101 0.91904 0.0
H1003 H 0.32367 0.96051 0.97567 0.0
H1004 H 0.31663 0.97223 0.96811 0.0
H1005 H 0.30618 0.95337 0.95919 0.0
H1006 H 0.29213 0.9405 0.88433 0.0
H1007 H 0.26744 0.93654 0.88484 0.0
H1008 H 0.07167 0.33948 0.89437 0.0
H1009 H 0.07111 0.36222 0.89244 0.0
H1010 H 0.02557 0.33823 0.87397 0.0
H1011 H 0.02601 0.3157 0.87637 0.0
H1012 H 0.04602 0.36775 0.84222 0.0
H1013 H 0.04592 0.36737 0.95976 0.0
H1014 H 0.05874 0.36474 0.93963 0.0
H1015 H 0.04025 0.35066 0.94125 0.0
C1016 C 0.06167 0.33917 0.88913 0.0
C1017 C 0.04884 0.3259 0.88572 0.0
C1018 C 0.06136 0.35211 0.88812 0.0
C1019 C 0.04829 0.35181 0.88316 0.0
C1020 C 0.03576 0.33863 0.87775 0.0
H1021 H 0.98505 0.36805 0.87702 0.0
H1022 H 0.00578 0.36494 0.87015 0.0
C1023 C 0.03601 0.32579 0.87921 0.0
C1024 C 0.04674 0.36463 0.88689 0.0
H1025 H 0.03361 0.37775 0.93715 0.0
C1026 C 0.04388 0.37049 0.863 0.0
C1027 C 0.04417 0.36833 0.91402 0.0
C1028 C 0.04745 0.36253 0.94027 0.0
C1029 C 0.03687 0.37854 0.86549 0.0
C1030 C 0.03232 0.38035 0.89242 0.0
C1031 C 0.03693 0.37617 0.91648 0.0
C1032 C 0.02031 0.38334 0.89554 0.0
C1033 C 0.03338 0.38403 0.83908 0.0
C1034 C 0.02142 0.39442 0.91306 0.0
C1035 C 0.00942 0.39617 0.91733 0.0
C1036 C 0.99612 0.38672 0.90444 0.0
C1037 C 0.9951 0.37557 0.88723 0.0
C1038 C 0.00703 0.37388 0.88293 0.0
H1039 H 0.042 0.38709 0.82304 0.0
H1040 H 0.02319 0.37532 0.82989 0.0
H1041 H 0.03206 0.39349 0.84352 0.0
H1042 H 0.03152 0.40166 0.92343 0.0
H1043 H 0.01055 0.40488 0.93071 0.0
H1044 H 0.02848 0.71432 0.44292 0.0
H1045 H 0.02646 0.69077 0.44467 0.0
H1046 H 0.06604 0.70683 0.39761 0.0
H1047 H 0.06821 0.73082 0.39563 0.0
H1048 H 0.04343 0.68081 0.37711 0.0
H1049 H 0.04878 0.67638 0.49141 0.0
H1050 H 0.03676 0.68317 0.48492 0.0
H1051 H 0.05534 0.69357 0.47395 0.0
C1052 C 0.03684 0.71297 0.43299 0.0
C1053 C 0.04853 0.72449 0.41918 0.0
C1054 C 0.03576 0.6995 0.43433 0.0
C1055 C 0.04634 0.69719 0.42205 0.0
C1056 C 0.05792 0.70852 0.4077 0.0
H1057 H 0.00599 0.60448 0.45284 0.0
H1058 H 0.02748 0.62853 0.44857 0.0
C1059 C 0.05908 0.72215 0.40644 0.0
C1060 C 0.04415 0.68243 0.42244 0.0
H1061 H 0.03085 0.65386 0.46746 0.0
C1062 C 0.04121 0.67495 0.39683 0.0
C1063 C 0.04172 0.67482 0.44809 0.0
C1064 C 0.046 0.68248 0.47611 0.0
C1065 C 0.03388 0.65984 0.3964 0.0
C1066 C 0.02918 0.6522 0.42216 0.0
C1067 C 0.03409 0.65972 0.44767 0.0
C1068 C 0.01688 0.63728 0.4231 0.0
C1069 C 0.03026 0.6522 0.36834 0.0
C1070 C 0.00377 0.6344 0.41088 0.0
C1071 C 0.99157 0.62086 0.41346 0.0
C1072 C 0.99212 0.60986 0.42857 0.0
C1073 C 0.00523 0.61274 0.44109 0.0
C1074 C 0.01752 0.62641 0.4385 0.0
H1075 H 0.03904 0.65829 0.35287 0.0
H1076 H 0.02846 0.64108 0.37026 0.0
H1077 H 0.02031 0.65162 0.35986 0.0
H1078 H 0.00287 0.64278 0.39982 0.0
H1079 H 0.98166 0.61906 0.40365 0.0
H1080 H 0.28191 0.31496 0.45728 0.0
H1081 H 0.30626 0.33529 0.45932 0.0
H1082 H 0.29363 0.3605 0.40826 0.0
H1083 H 0.26896 0.33989 0.4057 0.0
H1084 H 0.31761 0.36161 0.38859 0.0
H1085 H 0.32506 0.37268 0.50217 0.0
H1086 H 0.31739 0.35367 0.49699 0.0
H1087 H 0.30737 0.36236 0.4865 0.0
C1088 C 0.28419 0.32484 0.44665 0.0
C1089 C 0.27348 0.32578 0.43126 0.0
C1090 C 0.29812 0.33656 0.4482 0.0
C1091 C 0.30167 0.34957 0.43467 0.0
C1092 C 0.29103 0.35063 0.41928 0.0
H1093 H 0.39603 0.39944 0.45408 0.0
H1094 H 0.37199 0.39716 0.45373 0.0
C1095 C 0.27699 0.33883 0.4177 0.0
C1096 C 0.31696 0.36115 0.43404 0.0
H1097 H 0.34659 0.37538 0.47653 0.0
C1098 C 0.32393 0.36509 0.40782 0.0
C1099 C 0.32523 0.36615 0.45903 0.0
C1100 C 0.3183 0.36361 0.48771 0.0
C1101 C 0.339 0.37212 0.40609 0.0
C1102 C 0.34715 0.37492 0.43113 0.0
C1103 C 0.3403 0.37286 0.4573 0.0
C1104 C 0.36189 0.37706 0.43058 0.0
C1105 C 0.34599 0.37549 0.37739 0.0
C1106 C 0.36399 0.36631 0.41846 0.0
C1107 C 0.37753 0.36749 0.41881 0.0
C1108 C 0.3893 0.37942 0.43151 0.0
C1109 C 0.38716 0.39012 0.44413 0.0
C1110 C 0.3735 0.38889 0.44381 0.0
H1111 H 0.33973 0.37814 0.36223 0.0
H1112 H 0.35724 0.38466 0.37828 0.0
H1113 H 0.34616 0.36587 0.3692 0.0
H1114 H 0.35507 0.35683 0.409 0.0
H1115 H 0.37873 0.359 0.40904 0.0
H1116 H 0.67163 0.94819 0.3758 0.0
H1117 H 0.65281 0.95471 0.38222 0.0
H1118 H 0.65746 0.95397 0.47251 0.0
H1119 H 0.67684 0.94841 0.46605 0.0
H1120 H 0.62706 0.94437 0.40835 0.0
H1121 H 0.66782 0.99494 0.46076 0.0
H1122 H 0.67258 0.98285 0.44381 0.0
H1123 H 0.6648 0.97891 0.4786 0.0
C1124 C 0.66848 0.94929 0.39694 0.0
C1125 C 0.6758 0.94816 0.42043 0.0
C1126 C 0.65773 0.95295 0.40063 0.0
C1127 C 0.65405 0.95523 0.42785 0.0
C1128 C 0.66048 0.95276 0.45133 0.0
H1129 H 0.60864 0.00222 0.46783 0.0
H1130 H 0.61489 0.98312 0.47313 0.0
C1131 C 0.67149 0.94954 0.44763 0.0
C1132 C 0.64456 0.9615 0.43152 0.0
H1133 H 0.6445 0.9914 0.45634 0.0
C1134 C 0.6308 0.95458 0.4191 0.0
C1135 C 0.6495 0.97487 0.4455 0.0
C1136 C 0.66452 0.98341 0.45769 0.0
C1137 C 0.62204 0.96089 0.41957 0.0
C1138 C 0.62716 0.97436 0.43293 0.0
C1139 C 0.64056 0.98093 0.44651 0.0
C1140 C 0.62016 0.98311 0.42909 0.0
C1141 C 0.60757 0.95339 0.40507 0.0
C1142 C 0.62091 0.9892 0.40257 0.0
C1143 C 0.61769 0.00023 0.39965 0.0
C1144 C 0.61354 0.00527 0.42318 0.0
C1145 C 0.6118 0.99849 0.44939 0.0
C1146 C 0.6153 0.98758 0.45241 0.0
H1147 H 0.60354 0.94167 0.40247 0.0
H1148 H 0.59949 0.95486 0.41709 0.0
H1149 H 0.60863 0.95816 0.38382 0.0
H1150 H 0.6249 0.98608 0.38446 0.0
H1151 H 0.61899 0.00521 0.37916 0.0
H1152 H 0.28312 0.04633 0.48712 0.0
H1153 H 0.2973 0.05658 0.44443 0.0
H1154 H 0.31719 0.099 0.48152 0.0
H1155 H 0.30326 0.08879 0.52471 0.0
H1156 H 0.3017 0.07745 0.40567 0.0
H1157 H 0.35164 0.0934 0.46739 0.0
H1158 H 0.33387 0.08198 0.48172 0.0
H1159 H 0.34102 0.10111 0.47918 0.0
C1160 C 0.29025 0.05789 0.48607 0.0
C1161 C 0.2922 0.06668 0.50961 0.0
C1162 C 0.2984 0.06374 0.46159 0.0
C1163 C 0.30862 0.0785 0.46008 0.0
C1164 C 0.30966 0.08752 0.48252 0.0
H1165 H 0.35589 0.11009 0.29998 0.0
H1166 H 0.34335 0.10966 0.3434 0.0
C1167 C 0.30155 0.08167 0.50711 0.0
C1168 C 0.31884 0.08406 0.43592 0.0
H1169 H 0.35439 0.09798 0.41869 0.0
C1170 C 0.31324 0.0821 0.40849 0.0
C1171 C 0.33389 0.08993 0.43966 0.0
C1172 C 0.34051 0.09164 0.46852 0.0
C1173 C 0.3222 0.08553 0.38471 0.0
C1174 C 0.33725 0.09139 0.38845 0.0
C1175 C 0.34289 0.09366 0.41587 0.0
C1176 C 0.34703 0.0938 0.36422 0.0
C1177 C 0.31535 0.08215 0.35582 0.0
C1178 C 0.35419 0.08585 0.36231 0.0
C1179 C 0.36157 0.08623 0.3377 0.0
C1180 C 0.3619 0.09455 0.31444 0.0
C1181 C 0.35577 0.10347 0.31737 0.0
C1182 C 0.34845 0.10313 0.34208 0.0
H1183 H 0.30348 0.0749 0.35688 0.0
H1184 H 0.31748 0.09232 0.34545 0.0
H1185 H 0.31999 0.07698 0.34239 0.0
H1186 H 0.35337 0.07869 0.37925 0.0
H1187 H 0.36619 0.07927 0.3363 0.0
H1188 H 0.94792 0.23234 0.47705 0.0
H1189 H 0.93629 0.23534 0.43551 0.0
H1190 H 0.89545 0.2152 0.47898 0.0
H1191 H 0.9071 0.21255 0.52114 0.0
H1192 H 0.91427 0.21929 0.39992 0.0
H1193 H 0.90154 0.25507 0.46387 0.0
H1194 H 0.91285 0.2483 0.47688 0.0
H1195 H 0.89357 0.23682 0.47621 0.0
C1196 C 0.93639 0.22819 0.47766 0.0
C1197 C 0.92852 0.22247 0.50271 0.0
C1198 C 0.92974 0.22996 0.45382 0.0
C1199 C 0.91509 0.22595 0.45443 0.0
C1200 C 0.90687 0.21881 0.47833 0.0
H1201 H 0.88272 0.24339 0.29677 0.0
H1202 H 0.88264 0.23062 0.33962 0.0
C1203 C 0.91353 0.21715 0.50233 0.0
C1204 C 0.90897 0.2305 0.43106 0.0
H1205 H 0.89583 0.25303 0.41577 0.0
C1206 C 0.91005 0.22651 0.40338 0.0
C1207 C 0.90365 0.24011 0.4356 0.0
C1208 C 0.90292 0.24545 0.46468 0.0
C1209 C 0.90645 0.23222 0.38009 0.0
C1210 C 0.90123 0.2419 0.38462 0.0
C1211 C 0.89968 0.2455 0.41235 0.0
C1212 C 0.899 0.24969 0.36093 0.0
C1213 C 0.9091 0.22847 0.35083 0.0
C1214 C 0.90734 0.26479 0.35956 0.0
C1215 C 0.90721 0.27217 0.33535 0.0
C1216 C 0.89879 0.26457 0.31188 0.0
C1217 C 0.88946 0.24958 0.31431 0.0
C1218 C 0.88951 0.24222 0.33869 0.0
H1219 H 0.91599 0.22342 0.35115 0.0
H1220 H 0.89863 0.22069 0.34106 0.0
H1221 H 0.91437 0.23822 0.33729 0.0
H1222 H 0.91464 0.27082 0.37658 0.0
H1223 H 0.91449 0.2837 0.33434 0.0
H1224 H 0.76678 0.71015 0.48598 0.0
H1225 H 0.76554 0.6953 0.44613 0.0
H1226 H 0.78925 0.67944 0.49323 0.0
H1227 H 0.78983 0.69374 0.53401 0.0
H1228 H 0.78167 0.69069 0.4117 0.0
H1229 H 0.75288 0.64245 0.48045 0.0
H1230 H 0.75772 0.66027 0.49236 0.0
H1231 H 0.77108 0.65475 0.49099 0.0
C1232 C 0.77208 0.70381 0.48775 0.0
C1233 C 0.77814 0.70293 0.51348 0.0
C1234 C 0.77131 0.69524 0.46485 0.0
C1235 C 0.77679 0.68577 0.46696 0.0
C1236 C 0.78441 0.68619 0.49143 0.0
H1237 H 0.76006 0.63448 0.31095 0.0
H1238 H 0.77388 0.64911 0.35136 0.0
C1239 C 0.78493 0.69456 0.51462 0.0
C1240 C 0.77327 0.67471 0.44454 0.0
H1241 H 0.75483 0.63831 0.43269 0.0
C1242 C 0.77594 0.67923 0.4163 0.0
C1243 C 0.76562 0.65971 0.45049 0.0
C1244 C 0.76152 0.65396 0.48015 0.0
C1245 C 0.77059 0.66929 0.3939 0.0
C1246 C 0.76285 0.6543 0.39985 0.0
C1247 C 0.76084 0.64977 0.42809 0.0
C1248 C 0.75515 0.64328 0.37743 0.0
C1249 C 0.77247 0.67507 0.36421 0.0
C1250 C 0.74016 0.63406 0.37953 0.0
C1251 C 0.73229 0.62532 0.35686 0.0
C1252 C 0.73921 0.62575 0.33136 0.0
C1253 C 0.75437 0.634 0.33017 0.0
C1254 C 0.76227 0.64255 0.35314 0.0
H1255 H 0.77563 0.68666 0.36387 0.0
H1256 H 0.78112 0.674 0.35354 0.0
H1257 H 0.76237 0.66896 0.35188 0.0
H1258 H 0.73437 0.63426 0.39811 0.0
H1259 H 0.72065 0.61911 0.35864 0.0
H1260 H 0.08244 0.36782 0.16421 0.0
H1261 H 0.08108 0.35496 0.12086 0.0
H1262 H 0.10904 0.34101 0.15703 0.0
H1263 H 0.11021 0.35359 0.2009 0.0
H1264 H 0.09972 0.35448 0.08183 0.0
H1265 H 0.07234 0.30293 0.14167 0.0
H1266 H 0.07585 0.31984 0.15677 0.0
H1267 H 0.09016 0.31575 0.15362 0.0
C1268 C 0.08859 0.36231 0.16282 0.0
C1269 C 0.09624 0.36157 0.18629 0.0
C1270 C 0.08777 0.35492 0.13797 0.0
C1271 C 0.09461 0.34667 0.13598 0.0
C1272 C 0.10335 0.34698 0.15837 0.0
H1273 H 0.085 0.30274 0.97328 0.0
H1274 H 0.09637 0.31582 0.01675 0.0
C1275 C 0.10413 0.35433 0.18335 0.0
C1276 C 0.09154 0.33692 0.1114 0.0
H1277 H 0.07458 0.30129 0.09279 0.0
C1278 C 0.0944 0.34285 0.08419 0.0
C1279 C 0.0844 0.32172 0.11455 0.0
C1280 C 0.08037 0.31462 0.14317 0.0
C1281 C 0.08996 0.33405 0.06006 0.0
C1282 C 0.08273 0.31885 0.06321 0.0
C1283 C 0.08025 0.31293 0.09041 0.0
C1284 C 0.07626 0.30898 0.03872 0.0
C1285 C 0.09236 0.3411 0.03148 0.0
C1286 C 0.06124 0.29994 0.03735 0.0
C1287 C 0.0547 0.29226 0.01272 0.0
C1288 C 0.06306 0.2935 0.98887 0.0
C1289 C 0.0782 0.3016 0.99114 0.0
C1290 C 0.08474 0.30923 0.0159 0.0
H1291 H 0.09533 0.35261 0.03309 0.0
H1292 H 0.10128 0.34061 0.02058 0.0
H1293 H 0.08252 0.33538 0.01822 0.0
H1294 H 0.05447 0.29944 0.0548 0.0
H1295 H 0.04303 0.28609 0.01185 0.0
H1296 H 0.6101 0.72812 0.15081 0.0
H1297 H 0.62427 0.74012 0.10881 0.0
H1298 H 0.65558 0.77492 0.16018 0.0
H1299 H 0.64139 0.7632 0.20224 0.0
H1300 H 0.65218 0.78358 0.10411 0.0
H1301 H 0.66128 0.73683 0.1049 0.0
H1302 H 0.64265 0.73207 0.10293 0.0
H1303 H 0.65298 0.74082 0.13397 0.0
C1304 C 0.61971 0.73859 0.15314 0.0
C1305 C 0.62476 0.7445 0.18005 0.0
C1306 C 0.62785 0.74539 0.12908 0.0
C1307 C 0.64119 0.75819 0.13151 0.0
C1308 C 0.6454 0.76497 0.15786 0.0
H1309 H 0.71024 0.77475 0.01546 0.0
H1310 H 0.69776 0.77457 0.05872 0.0
C1311 C 0.63723 0.75822 0.18193 0.0
C1312 C 0.65161 0.76326 0.10773 0.0
H1313 H 0.67119 0.75302 0.06685 0.0
C1314 C 0.65637 0.77694 0.09592 0.0
C1315 C 0.65739 0.75475 0.09762 0.0
C1316 C 0.65345 0.74036 0.11063 0.0
C1317 C 0.66643 0.78213 0.07363 0.0
C1318 C 0.67172 0.77333 0.06276 0.0
C1319 C 0.66718 0.75981 0.07512 0.0
C1320 C 0.68135 0.77734 0.03769 0.0
C1321 C 0.6714 0.79703 0.0622 0.0
C1322 C 0.67678 0.77975 0.01154 0.0
C1323 C 0.68402 0.78005 0.98676 0.0
C1324 C 0.69582 0.77765 0.98756 0.0
C1325 C 0.70117 0.77657 0.01399 0.0
C1326 C 0.69399 0.77639 0.03878 0.0
H1327 H 0.67033 0.804 0.07825 0.0
H1328 H 0.6828 0.80231 0.0551 0.0
H1329 H 0.66457 0.79621 0.04389 0.0
H1330 H 0.66696 0.78028 0.00996 0.0
H1331 H 0.67958 0.78093 0.96683 0.0
H1332 H 0.23851 0.88291 0.19697 0.0
H1333 H 0.22585 0.88282 0.15399 0.0
H1334 H 0.26636 0.91364 0.11623 0.0
H1335 H 0.27909 0.91354 0.15868 0.0
H1336 H 0.22479 0.9057 0.13561 0.0
H1337 H 0.24714 0.88769 0.05032 0.0
H1338 H 0.24956 0.88503 0.08706 0.0
H1339 H 0.26137 0.90199 0.07007 0.0
C1340 C 0.24479 0.88931 0.17918 0.0
C1341 C 0.25985 0.89829 0.1814 0.0
C1342 C 0.2375 0.8893 0.15464 0.0
C1343 C 0.24512 0.89818 0.13176 0.0
C1344 C 0.26023 0.90646 0.13329 0.0
H1345 H 0.22688 0.948 0.01928 0.0
H1346 H 0.22941 0.93596 0.06059 0.0
C1347 C 0.26752 0.90642 0.15773 0.0
C1348 C 0.23729 0.90023 0.10785 0.0
H1349 H 0.23737 0.90287 0.03614 0.0
C1350 C 0.22733 0.9048 0.11383 0.0
C1351 C 0.24036 0.89885 0.07938 0.0
C1352 C 0.25008 0.89297 0.07134 0.0
C1353 C 0.22106 0.90885 0.09226 0.0
C1354 C 0.2251 0.90865 0.06393 0.0
C1355 C 0.23437 0.90323 0.05785 0.0
C1356 C 0.22092 0.9151 0.04052 0.0
C1357 C 0.21032 0.91347 0.10014 0.0
C1358 C 0.21501 0.90737 0.01547 0.0
C1359 C 0.21366 0.9143 0.9916 0.0
C1360 C 0.21827 0.92914 0.99224 0.0
C1361 C 0.22313 0.93656 0.01799 0.0
C1362 C 0.22456 0.92965 0.04177 0.0
H1363 H 0.20448 0.90806 0.11981 0.0
H1364 H 0.21614 0.92527 0.10408 0.0
H1365 H 0.2023 0.91103 0.0831 0.0
H1366 H 0.21211 0.89614 0.01397 0.0
H1367 H 0.20986 0.90822 0.97216 0.0
H1368 H 0.62651 0.90179 0.64057 0.0
H1369 H 0.63979 0.90047 0.60028 0.0
H1370 H 0.65253 0.87444 0.64835 0.0
H1371 H 0.63974 0.8763 0.68941 0.0
H1372 H 0.67517 0.89566 0.62767 0.0
H1373 H 0.63656 0.87378 0.54007 0.0
H1374 H 0.63538 0.88844 0.55535 0.0
H1375 H 0.63064 0.87254 0.57611 0.0
C1376 C 0.63167 0.89532 0.64237 0.0
C1377 C 0.63211 0.88924 0.66837 0.0
C1378 C 0.63927 0.89452 0.61911 0.0
C1379 C 0.64716 0.88728 0.62102 0.0
C1380 C 0.64658 0.88013 0.64627 0.0
H1381 H 0.69557 0.90061 0.46452 0.0
H1382 H 0.68103 0.88703 0.50508 0.0
C1383 C 0.63916 0.88112 0.66972 0.0
C1384 C 0.65756 0.88903 0.59828 0.0
H1385 H 0.66153 0.891 0.52678 0.0
C1386 C 0.67209 0.89429 0.60561 0.0
C1387 C 0.65367 0.88696 0.56942 0.0
C1388 C 0.63817 0.87995 0.55988 0.0
C1389 C 0.68289 0.89853 0.58498 0.0
C1390 C 0.67919 0.89802 0.55618 0.0
C1391 C 0.66453 0.89171 0.54881 0.0
C1392 C 0.69025 0.90525 0.53364 0.0
C1393 C 0.69816 0.9037 0.59445 0.0
C1394 C 0.70083 0.91986 0.53638 0.0
C1395 C 0.7094 0.92757 0.51339 0.0
C1396 C 0.7073 0.92095 0.48685 0.0
C1397 C 0.69747 0.90606 0.48464 0.0
C1398 C 0.68906 0.89829 0.50781 0.0
H1399 H 0.69829 0.8979 0.61378 0.0
H1400 H 0.70458 0.90215 0.57786 0.0
H1401 H 0.70343 0.91534 0.59979 0.0
H1402 H 0.7018 0.92566 0.5557 0.0
H1403 H 0.71674 0.93903 0.51588 0.0
H1404 H 0.05237 0.76698 0.52791 0.0
H1405 H 0.0653 0.76557 0.56885 0.0
H1406 H 0.10564 0.78954 0.52438 0.0
H1407 H 0.09265 0.79051 0.48277 0.0
H1408 H 0.10371 0.76614 0.54434 0.0
H1409 H 0.08932 0.79075 0.63111 0.0
H1410 H 0.07324 0.77724 0.61425 0.0
H1411 H 0.08591 0.79299 0.59472 0.0
C1412 C 0.06403 0.7724 0.52707 0.0
C1413 C 0.07144 0.77882 0.50191 0.0
C1414 C 0.07146 0.77161 0.55067 0.0
C1415 C 0.08651 0.77752 0.54995 0.0
C1416 C 0.09404 0.78487 0.52553 0.0
H1417 H 0.12118 0.76344 0.70676 0.0
H1418 H 0.11969 0.77617 0.66525 0.0
C1419 C 0.08659 0.7855 0.50177 0.0
C1420 C 0.09402 0.77444 0.57315 0.0
H1421 H 0.09574 0.77279 0.64483 0.0
C1422 C 0.1022 0.76788 0.56631 0.0
C1423 C 0.09236 0.7769 0.60188 0.0
C1424 C 0.08486 0.78501 0.61086 0.0
C1425 C 0.108 0.76297 0.5873 0.0
C1426 C 0.10519 0.76424 0.61602 0.0
C1427 C 0.09776 0.77158 0.62287 0.0
C1428 C 0.10877 0.75709 0.63916 0.0
C1429 C 0.11699 0.75641 0.57834 0.0
C1430 C 0.1037 0.74219 0.63811 0.0
C1431 C 0.10479 0.73491 0.66165 0.0
C1432 C 0.11067 0.74231 0.68709 0.0
C1433 C 0.1166 0.75738 0.68755 0.0
C1434 C 0.11566 0.76468 0.66384 0.0
H1435 H 0.12274 0.76124 0.55827 0.0
H1436 H 0.12507 0.75789 0.59464 0.0
H1437 H 0.10982 0.74469 0.57462 0.0
H1438 H 0.09802 0.73595 0.61969 0.0
H1439 H 0.09997 0.7233 0.66052 0.0
H1440 H 0.22344 0.28729 0.53112 0.0
H1441 H 0.22314 0.3014 0.57083 0.0
H1442 H 0.2023 0.319 0.51957 0.0
H1443 H 0.2033 0.30539 0.47903 0.0
H1444 H 0.22401 0.33985 0.54236 0.0
H1445 H 0.19683 0.30135 0.62821 0.0
H1446 H 0.21057 0.29813 0.61464 0.0
H1447 H 0.19575 0.29541 0.59223 0.0
C1448 C 0.21832 0.29375 0.52843 0.0
C1449 C 0.21347 0.29524 0.50175 0.0
C1450 C 0.21808 0.30182 0.55137 0.0
C1451 C 0.21258 0.31125 0.5485 0.0
C1452 C 0.20663 0.31184 0.52243 0.0
H1453 H 0.2299 0.35963 0.70619 0.0
H1454 H 0.21553 0.34624 0.66526 0.0
C1455 C 0.20711 0.30396 0.49927 0.0
C1456 C 0.21505 0.32187 0.57128 0.0
H1457 H 0.21631 0.32531 0.64287 0.0
C1458 C 0.22197 0.33661 0.56431 0.0
C1459 C 0.21209 0.31783 0.59999 0.0
C1460 C 0.20324 0.30229 0.60907 0.0
C1461 C 0.22703 0.34734 0.58522 0.0
C1462 C 0.2257 0.34329 0.61397 0.0
C1463 C 0.2177 0.32856 0.62091 0.0
C1464 C 0.23375 0.35387 0.63688 0.0
C1465 C 0.23394 0.36289 0.5761 0.0
C1466 C 0.24871 0.36319 0.63443 0.0
C1467 C 0.25689 0.37115 0.65759 0.0
C1468 C 0.25037 0.36964 0.68406 0.0
C1469 C 0.23527 0.36106 0.6861 0.0
C1470 C 0.22704 0.3533 0.66273 0.0
H1471 H 0.22866 0.36391 0.55675 0.0
H1472 H 0.2333 0.36982 0.59279 0.0
H1473 H 0.24544 0.36693 0.57087 0.0
H1474 H 0.25431 0.36358 0.61515 0.0
H1475 H 0.26849 0.3775 0.65524 0.0
H1476 H 0.90193 0.69576 0.03943 0.0
H1477 H 0.88906 0.6812 0.99825 0.0
H1478 H 0.92926 0.69882 0.95281 0.0
H1479 H 0.94201 0.7139 0.99312 0.0
H1480 H 0.9087 0.6939 0.91764 0.0
H1481 H 0.89001 0.64506 0.98417 0.0
H1482 H 0.88338 0.6567 0.99519 0.0
H1483 H 0.90239 0.66288 0.99702 0.0
C1484 C 0.90796 0.69686 0.02035 0.0
C1485 C 0.92305 0.70589 0.01977 0.0
C1486 C 0.90061 0.68835 0.99693 0.0
C1487 C 0.90824 0.68842 0.97275 0.0
C1488 C 0.9231 0.69838 0.97128 0.0
H1489 H 0.89839 0.62298 0.85976 0.0
H1490 H 0.90001 0.63761 0.90037 0.0
C1491 C 0.9304 0.70708 0.99442 0.0
C1492 C 0.90121 0.67756 0.94977 0.0
H1493 H 0.88382 0.64131 0.93628 0.0
C1494 C 0.90314 0.68239 0.92173 0.0
C1495 C 0.8941 0.66249 0.95503 0.0
C1496 C 0.89244 0.65644 0.98443 0.0
C1497 C 0.89873 0.67273 0.89889 0.0
C1498 C 0.89159 0.65766 0.90415 0.0
C1499 C 0.88914 0.65281 0.9322 0.0
C1500 C 0.88818 0.64692 0.88109 0.0
C1501 C 0.90263 0.67886 0.86945 0.0
C1502 C 0.88019 0.64649 0.85721 0.0
C1503 C 0.87943 0.63824 0.83362 0.0
C1504 C 0.88634 0.62998 0.83373 0.0
C1505 C 0.89294 0.6292 0.85881 0.0
C1506 C 0.89394 0.63765 0.88213 0.0
H1507 H 0.91109 0.69044 0.86959 0.0
H1508 H 0.90659 0.67288 0.85659 0.0
H1509 H 0.89293 0.67797 0.85905 0.0
H1510 H 0.87515 0.65308 0.85624 0.0
H1511 H 0.87413 0.639 0.81475 0.0
H1512 H 0.31793 0.22467 0.05058 0.0
H1513 H 0.3311 0.22674 0.00724 0.0
H1514 H 0.3052 0.24082 0.96267 0.0
H1515 H 0.29232 0.23933 0.00627 0.0
H1516 H 0.3264 0.21687 0.9538 0.0
H1517 H 0.345 0.27535 0.95414 0.0
H1518 H 0.33507 0.26369 0.98308 0.0
H1519 H 0.32574 0.26442 0.95206 0.0
C1520 C 0.31477 0.22789 0.03145 0.0
C1521 C 0.30422 0.2321 0.03207 0.0
C1522 C 0.32237 0.2291 0.00664 0.0
C1523 C 0.3195 0.23442 0.9819 0.0
C1524 C 0.30795 0.23716 0.98174 0.0
H1525 H 0.3533 0.24048 0.81437 0.0
H1526 H 0.34076 0.23148 0.85893 0.0
C1527 C 0.30047 0.23615 0.00664 0.0
C1528 C 0.32932 0.23823 0.95719 0.0
H1529 H 0.351 0.26631 0.91396 0.0
C1530 C 0.33182 0.22769 0.94511 0.0
C1531 C 0.33679 0.25247 0.94637 0.0
C1532 C 0.33566 0.26467 0.95975 0.0
C1533 C 0.34122 0.23089 0.92203 0.0
C1534 C 0.34804 0.24493 0.91024 0.0
C1535 C 0.34578 0.25552 0.9228 0.0
C1536 C 0.35701 0.24889 0.88415 0.0
C1537 C 0.34391 0.21923 0.91091 0.0
C1538 C 0.37053 0.2616 0.88323 0.0
C1539 C 0.37764 0.26698 0.85751 0.0
C1540 C 0.37142 0.25971 0.83216 0.0
C1541 C 0.35849 0.24636 0.83345 0.0
C1542 C 0.35129 0.24111 0.85908 0.0
H1543 H 0.34245 0.21139 0.92772 0.0
H1544 H 0.336 0.21321 0.89399 0.0
H1545 H 0.35495 0.2238 0.9021 0.0
H1546 H 0.37522 0.2678 0.90226 0.0
H1547 H 0.38757 0.27727 0.85733 0.0
H1548 H 0.76003 0.12223 0.80232 0.0
H1549 H 0.7723 0.12066 0.84459 0.0
H1550 H 0.73121 0.09565 0.88598 0.0
H1551 H 0.71895 0.09762 0.84442 0.0
H1552 H 0.75137 0.1122 0.9231 0.0
H1553 H 0.77196 0.08338 0.85737 0.0
H1554 H 0.77801 0.10159 0.84662 0.0
H1555 H 0.75918 0.08826 0.84419 0.0
C1556 C 0.75363 0.11678 0.82073 0.0
C1557 C 0.73846 0.10984 0.81973 0.0
C1558 C 0.76066 0.11573 0.84478 0.0
C1559 C 0.75265 0.10754 0.86808 0.0
C1560 C 0.73764 0.10185 0.86814 0.0
H1561 H 0.76233 0.05273 0.98367 0.0
H1562 H 0.76048 0.06526 0.94241 0.0
C1563 C 0.73062 0.10305 0.8443 0.0
C1564 C 0.75953 0.10378 0.89139 0.0
H1565 H 0.77736 0.08541 0.90566 0.0
C1566 C 0.7572 0.10649 0.9193 0.0
C1567 C 0.76696 0.09611 0.88643 0.0
C1568 C 0.76909 0.09202 0.85709 0.0
C1569 C 0.76163 0.10137 0.94233 0.0
C1570 C 0.76907 0.09371 0.93737 0.0
C1571 C 0.77182 0.09141 0.90946 0.0
C1572 C 0.77259 0.08661 0.96063 0.0
C1573 C 0.75752 0.10349 0.97165 0.0
C1574 C 0.7808 0.09446 0.98404 0.0
C1575 C 0.78177 0.08728 0.00791 0.0
C1576 C 0.77475 0.07211 0.00861 0.0
C1577 C 0.76785 0.0644 0.98399 0.0
C1578 C 0.76672 0.07158 0.96033 0.0
H1579 H 0.749 0.10654 0.97131 0.0
H1580 H 0.75356 0.09353 0.98442 0.0
H1581 H 0.76713 0.11229 0.98229 0.0
H1582 H 0.78586 0.10611 0.98443 0.0
H1583 H 0.7873 0.09357 0.02638 0.0
H1584 H 0.02968 0.46433 0.63791 0.0
H1585 H 0.0162 0.46613 0.6778 0.0
H1586 H 0.0331 0.44533 0.73106 0.0
H1587 H 0.04711 0.44427 0.69195 0.0
H1588 H 0.99509 0.44459 0.69979 0.0
H1589 H 0.03226 0.47149 0.78757 0.0
H1590 H 0.03877 0.47262 0.75204 0.0
H1591 H 0.03575 0.45781 0.77478 0.0
C1592 C 0.03103 0.46076 0.65847 0.0
C1593 C 0.03944 0.4541 0.66168 0.0
C1594 C 0.02322 0.46169 0.68126 0.0
C1595 C 0.02357 0.45589 0.70765 0.0
C1596 C 0.03286 0.45027 0.71132 0.0
H1597 H 0.95694 0.39843 0.80947 0.0
H1598 H 0.9709 0.41349 0.77029 0.0
C1599 C 0.04088 0.4496 0.68872 0.0
C1600 C 0.01265 0.45344 0.72973 0.0
H1601 H 0.00815 0.45156 0.80106 0.0
C1602 C 0.99801 0.4465 0.7219 0.0
C1603 C 0.01625 0.45623 0.75864 0.0
C1604 C 0.03164 0.46511 0.76861 0.0
C1605 C 0.98697 0.44117 0.74218 0.0
C1606 C 0.99061 0.44224 0.77111 0.0
C1607 C 0.00522 0.45035 0.77893 0.0
C1608 C 0.97979 0.43366 0.79325 0.0
C1609 C 0.97154 0.43418 0.73219 0.0
C1610 C 0.97983 0.43986 0.81941 0.0
C1611 C 0.97205 0.43114 0.84225 0.0
C1612 C 0.96399 0.41604 0.83931 0.0
C1613 C 0.9629 0.41001 0.81248 0.0
C1614 C 0.97088 0.41869 0.78985 0.0
H1615 H 0.97071 0.43969 0.71303 0.0
H1616 H 0.96778 0.42281 0.72633 0.0
H1617 H 0.96428 0.43442 0.74863 0.0
H1618 H 0.98655 0.45137 0.82265 0.0
H1619 H 0.97311 0.43614 0.86264 0.0
H1620 H 0.61793 0.57856 0.8275 0.0
H1621 H 0.60549 0.57969 0.78535 0.0
H1622 H 0.56476 0.54775 0.82057 0.0
H1623 H 0.5771 0.54685 0.86332 0.0
H1624 H 0.58801 0.56144 0.74528 0.0
H1625 H 0.55801 0.58137 0.80915 0.0
H1626 H 0.57257 0.57945 0.82347 0.0
H1627 H 0.55496 0.56388 0.81909 0.0
C1628 C 0.60636 0.57153 0.82614 0.0
C1629 C 0.59852 0.56277 0.84907 0.0
C1630 C 0.59924 0.57223 0.80197 0.0
C1631 C 0.58413 0.56414 0.8001 0.0
C1632 C 0.57638 0.55443 0.82188 0.0
H1633 H 0.54647 0.57068 0.63937 0.0
H1634 H 0.54993 0.55985 0.68193 0.0
C1635 C 0.58348 0.55381 0.8462 0.0
C1636 C 0.57662 0.56665 0.77618 0.0
H1637 H 0.55376 0.57933 0.76028 0.0
C1638 C 0.5804 0.5652 0.74853 0.0
C1639 C 0.56684 0.57178 0.78046 0.0
C1640 C 0.56292 0.57435 0.80961 0.0
C1641 C 0.57499 0.56906 0.72512 0.0
C1642 C 0.56517 0.57414 0.72938 0.0
C1643 C 0.56112 0.57526 0.757 0.0
C1644 C 0.56025 0.57977 0.70569 0.0
C1645 C 0.58047 0.56837 0.69615 0.0
C1646 C 0.56375 0.59429 0.70569 0.0
C1647 C 0.56151 0.60046 0.6816 0.0
C1648 C 0.5558 0.59225 0.65689 0.0
C1649 C 0.55101 0.57737 0.65789 0.0
C1650 C 0.55315 0.57119 0.68212 0.0
H1651 H 0.59032 0.56739 0.69718 0.0
H1652 H 0.57203 0.5588 0.68479 0.0
H1653 H 0.58298 0.57813 0.68366 0.0
H1654 H 0.56908 0.60111 0.72372 0.0
H1655 H 0.56528 0.61192 0.68173 0.0
H1656 H 0.45392 0.02031 0.86253 0.0
H1657 H 0.45251 0.0069 0.82007 0.0
H1658 H 0.45022 0.03911 0.76928 0.0
H1659 H 0.45118 0.05242 0.81181 0.0
H1660 H 0.42708 0.01316 0.76234 0.0
H1661 H 0.47559 0.00761 0.75226 0.0
H1662 H 0.46769 0.00285 0.78674 0.0
H1663 H 0.47515 0.02111 0.77445 0.0
C1664 C 0.45365 0.02486 0.8423 0.0
C1665 C 0.45239 0.03734 0.84068 0.0
C1666 C 0.45292 0.01717 0.81792 0.0
C1667 C 0.4512 0.02194 0.79141 0.0
C1668 C 0.45148 0.03518 0.78953 0.0
H1669 H 0.43339 0.98059 0.62815 0.0
H1670 H 0.44614 0.99459 0.66977 0.0
C1671 C 0.45209 0.04282 0.81391 0.0
C1672 C 0.44652 0.01201 0.76676 0.0
H1673 H 0.45456 0.99043 0.7265 0.0
C1674 C 0.43319 0.00833 0.75437 0.0
C1675 C 0.45444 0.00564 0.75635 0.0
C1676 C 0.46908 0.00961 0.76796 0.0
C1677 C 0.42748 0.99836 0.73225 0.0
C1678 C 0.43511 0.99156 0.72254 0.0
C1679 C 0.4486 0.99543 0.73439 0.0
C1680 C 0.42934 0.98098 0.69908 0.0
C1681 C 0.41334 0.99531 0.71922 0.0
C1682 C 0.41611 0.96812 0.70203 0.0
C1683 C 0.40872 0.96009 0.67824 0.0
C1684 C 0.41448 0.9648 0.65111 0.0
C1685 C 0.42854 0.97671 0.64867 0.0
C1686 C 0.43588 0.98476 0.67247 0.0
H1687 H 0.41053 0.00369 0.72479 0.0
H1688 H 0.41374 0.9947 0.69589 0.0
H1689 H 0.40458 0.98478 0.72703 0.0
H1690 H 0.41099 0.9649 0.72251 0.0
H1691 H 0.398 0.95091 0.68099 0.0
H1692 H 0.54783 0.97605 0.13122 0.0
H1693 H 0.55008 0.98998 0.1735 0.0
H1694 H 0.56053 0.96244 0.22221 0.0
H1695 H 0.55875 0.94866 0.1798 0.0
H1696 H 0.54018 0.98675 0.22892 0.0
H1697 H 0.59777 0.00143 0.22461 0.0
H1698 H 0.58521 0.99157 0.19675 0.0
H1699 H 0.58554 0.98243 0.22834 0.0
C1700 C 0.55018 0.97263 0.15104 0.0
C1701 C 0.55349 0.96143 0.15189 0.0
C1702 C 0.55148 0.98066 0.17526 0.0
C1703 C 0.55596 0.97757 0.2008 0.0
C1704 C 0.55746 0.96527 0.2025 0.0
H1705 H 0.57047 0.01904 0.36324 0.0
H1706 H 0.55889 0.00468 0.32148 0.0
C1707 C 0.5563 0.9573 0.17824 0.0
C1708 C 0.56087 0.98819 0.22431 0.0
H1709 H 0.59071 0.01038 0.26315 0.0
C1710 C 0.55122 0.99194 0.23646 0.0
C1711 C 0.5754 0.99528 0.23355 0.0
C1712 C 0.58663 0.99262 0.21999 0.0
C1713 C 0.55563 0.00231 0.25811 0.0
C1714 C 0.57002 0.00894 0.26815 0.0
C1715 C 0.57968 0.00534 0.25556 0.0
C1716 C 0.57535 0.01918 0.29238 0.0
C1717 C 0.54491 0.00624 0.26961 0.0
C1718 C 0.58833 0.03239 0.29008 0.0
C1719 C 0.59515 0.04057 0.31411 0.0
C1720 C 0.5891 0.03572 0.34099 0.0
C1721 C 0.57545 0.02317 0.34291 0.0
C1722 C 0.56873 0.01491 0.31892 0.0
H1723 H 0.53642 0.00421 0.25383 0.0
H1724 H 0.53951 -0.00054 0.28834 0.0
H1725 H 0.55026 0.01774 0.27606 0.0
H1726 H 0.59364 0.03596 0.26984 0.0
H1727 H 0.60562 0.05017 0.3118 0.0
H1728 H 0.94745 0.5565 0.32552 0.0
H1729 H 0.96126 0.55842 0.28311 0.0
H1730 H 0.9913 0.55205 0.33307 0.0
H1731 H 0.97733 0.54962 0.37526 0.0
H1732 H 0.98763 0.5802 0.27695 0.0
H1733 H 0.98993 0.53008 0.26378 0.0
H1734 H 0.97695 0.5311 0.28654 0.0
H1735 H 0.99508 0.53736 0.29863 0.0
C1736 C 0.95667 0.55493 0.32736 0.0
C1737 C 0.96133 0.55306 0.35395 0.0
C1738 C 0.96462 0.55612 0.30306 0.0
C1739 C 0.97739 0.55544 0.30478 0.0
C1740 C 0.9814 0.55238 0.33095 0.0
H1741 H 0.04954 0.60716 0.19345 0.0
H1742 H 0.03498 0.59545 0.23525 0.0
C1743 C 0.97337 0.55105 0.35521 0.0
C1744 C 0.98755 0.5601 0.28041 0.0
H1745 H 0.00818 0.55104 0.23953 0.0
C1746 C 0.99199 0.57373 0.26866 0.0
C1747 C 0.9933 0.5517 0.26946 0.0
C1748 C 0.98846 0.53669 0.28007 0.0
C1749 C 0.00207 0.57926 0.24662 0.0
C1750 C 0.00828 0.57115 0.23644 0.0
C1751 C 0.00367 0.55739 0.24775 0.0
C1752 C 0.01892 0.57659 0.21293 0.0
C1753 C 0.00572 0.59367 0.23407 0.0
C1754 C 0.01541 0.56934 0.18698 0.0
C1755 C 0.02385 0.57589 0.1631 0.0
C1756 C 0.03593 0.5899 0.16467 0.0
C1757 C 0.04026 0.59645 0.19133 0.0
C1758 C 0.03185 0.58982 0.21525 0.0
H1759 H 0.99745 0.5967 0.23928 0.0
H1760 H 0.0162 0.60214 0.24268 0.0
H1761 H 0.00668 0.59355 0.21077 0.0
H1762 H 0.00558 0.55904 0.18473 0.0
H1763 H 0.02022 0.57044 0.143 0.0
H1764 H 0.38385 0.41957 0.17927 0.0
H1765 H 0.39646 0.41934 0.2218 0.0
H1766 H 0.43721 0.44915 0.18352 0.0
H1767 H 0.42467 0.44916 0.14042 0.0
H1768 H 0.43781 0.42629 0.20303 0.0
H1769 H 0.416 0.44556 0.28703 0.0
H1770 H 0.40161 0.43124 0.26763 0.0
H1771 H 0.41364 0.44798 0.25013 0.0
C1772 C 0.39546 0.42644 0.1801 0.0
C1773 C 0.40322 0.43433 0.15626 0.0
C1774 C 0.40268 0.42633 0.20459 0.0
C1775 C 0.41781 0.4343 0.20606 0.0
C1776 C 0.42554 0.44291 0.18295 0.0
H1777 H 0.45208 0.42435 0.36712 0.0
H1778 H 0.45017 0.43639 0.32491 0.0
C1779 C 0.41832 0.44297 0.15834 0.0
C1780 C 0.42549 0.43224 0.23025 0.0
H1781 H 0.42527 0.43006 0.30205 0.0
C1782 C 0.43528 0.42739 0.2247 0.0
C1783 C 0.42245 0.43389 0.25859 0.0
C1784 C 0.41297 0.44011 0.26618 0.0
C1785 C 0.44139 0.42334 0.2466 0.0
C1786 C 0.43735 0.4238 0.27482 0.0
C1787 C 0.42827 0.4295 0.28044 0.0
C1788 C 0.44131 0.41734 0.29859 0.0
C1789 C 0.45197 0.41845 0.23915 0.0
C1790 C 0.43753 0.40275 0.29765 0.0
C1791 C 0.43879 0.39587 0.32166 0.0
C1792 C 0.4436 0.40336 0.34736 0.0
C1793 C 0.44834 0.41822 0.34774 0.0
C1794 C 0.44716 0.42512 0.32362 0.0
H1795 H 0.45794 0.42374 0.21951 0.0
H1796 H 0.45989 0.42082 0.25635 0.0
H1797 H 0.446 0.40664 0.23533 0.0
H1798 H 0.43271 0.39639 0.27888 0.0
H1799 H 0.43496 0.38441 0.32055 0.0
H1800 H 0.34277 0.21847 0.11454 0.0
H1801 H 0.34781 0.19956 0.12947 0.0
H1802 H 0.31188 0.18303 0.1871 0.0
H1803 H 0.30682 0.20199 0.17255 0.0
H1804 H 0.3375 0.18541 0.21014 0.0
H1805 H 0.32306 0.15674 0.10723 0.0
H1806 H 0.3362 0.17561 0.10533 0.0
H1807 H 0.31811 0.17007 0.11643 0.0
C1808 C 0.33596 0.21085 0.13047 0.0
C1809 C 0.32434 0.21168 0.14224 0.0
C1810 C 0.33882 0.20001 0.13884 0.0
C1811 C 0.33006 0.18978 0.159 0.0
C1812 C 0.3187 0.19079 0.17136 0.0
H1813 H 0.3267 0.11487 0.23692 0.0
H1814 H 0.32265 0.13453 0.22288 0.0
C1815 C 0.31583 0.20162 0.16301 0.0
C1816 C 0.33273 0.17798 0.16721 0.0
H1817 H 0.33312 0.14836 0.14171 0.0
C1818 C 0.33651 0.17728 0.19524 0.0
C1819 C 0.33143 0.16743 0.14765 0.0
C1820 C 0.32686 0.16737 0.11752 0.0
C1821 C 0.33924 0.16637 0.20418 0.0
C1822 C 0.33789 0.15578 0.18465 0.0
C1823 C 0.33415 0.15652 0.1566 0.0
C1824 C 0.34024 0.14379 0.19292 0.0
C1825 C 0.34382 0.16644 0.23431 0.0
C1826 C 0.35121 0.14225 0.18012 0.0
C1827 C 0.3535 0.13097 0.18793 0.0
C1828 C 0.3448 0.12098 0.20861 0.0
C1829 C 0.33365 0.12242 0.22104 0.0
C1830 C 0.33137 0.1337 0.21319 0.0
H1831 H 0.34792 0.17717 0.24436 0.0
H1832 H 0.33439 0.15844 0.24666 0.0
H1833 H 0.35233 0.16342 0.2355 0.0
H1834 H 0.3581 0.14989 0.16428 0.0
H1835 H 0.36216 0.13015 0.1779 0.0
H1836 H 0.80582 0.1071 0.12412 0.0
H1837 H 0.82412 0.13166 0.13626 0.0
H1838 H 0.79104 0.14031 0.16555 0.0
H1839 H 0.77251 0.11572 0.15288 0.0
H1840 H 0.81057 0.16142 0.13026 0.0
H1841 H 0.83938 0.14916 0.21307 0.0
H1842 H 0.83772 0.13981 0.18068 0.0
H1843 H 0.82178 0.13589 0.20031 0.0
C1844 C 0.8024 0.11414 0.13341 0.0
C1845 C 0.78768 0.10942 0.13761 0.0
C1846 C 0.81291 0.12817 0.14049 0.0
C1847 C 0.80896 0.13773 0.15224 0.0
C1848 C 0.7943 0.13305 0.15666 0.0
H1849 H 0.86005 0.22816 0.20033 0.0
H1850 H 0.84032 0.20375 0.19088 0.0
C1851 C 0.78374 0.119 0.14945 0.0
C1852 C 0.82014 0.1528 0.15851 0.0
H1853 H 0.85158 0.17312 0.19452 0.0
C1854 C 0.81946 0.16401 0.14454 0.0
C1855 C 0.83172 0.15612 0.17713 0.0
C1856 C 0.83265 0.14462 0.19387 0.0
C1857 C 0.8303 0.17844 0.14802 0.0
C1858 C 0.84203 0.18171 0.16616 0.0
C1859 C 0.84261 0.17054 0.18045 0.0
C1860 C 0.85384 0.19667 0.17068 0.0
C1861 C 0.82936 0.19005 0.13173 0.0
C1862 C 0.86797 0.20071 0.16262 0.0
C1863 C 0.87929 0.21465 0.16801 0.0
C1864 C 0.87666 0.22474 0.1818 0.0
C1865 C 0.86244 0.22067 0.18959 0.0
C1866 C 0.85114 0.20675 0.18412 0.0
H1867 H 0.82144 0.18551 0.11418 0.0
H1868 H 0.82588 0.1959 0.14613 0.0
H1869 H 0.84005 0.19797 0.12293 0.0
H1870 H 0.87025 0.19304 0.15231 0.0
H1871 H 0.89011 0.21742 0.16179 0.0
H1872 H 0.76686 0.63059 0.18503 0.0
H1873 H 0.79074 0.63695 0.1669 0.0
H1874 H 0.81052 0.67172 0.22703 0.0
H1875 H 0.78676 0.66539 0.24548 0.0
H1876 H 0.8124 0.66345 0.14402 0.0
H1877 H 0.8312 0.64854 0.24072 0.0
H1878 H 0.81245 0.64282 0.23447 0.0
H1879 H 0.82462 0.66083 0.24652 0.0
C1880 C 0.77628 0.6396 0.19438 0.0
C1881 C 0.77491 0.64743 0.21682 0.0
C1882 C 0.78991 0.64321 0.184 0.0
C1883 C 0.80237 0.65464 0.19598 0.0
C1884 C 0.80103 0.66268 0.2179 0.0
H1885 H 0.89403 0.69555 0.16572 0.0
H1886 H 0.86979 0.68776 0.18359 0.0
C1887 C 0.78743 0.65909 0.22829 0.0
C1888 C 0.8168 0.65826 0.18534 0.0
H1889 H 0.84871 0.66089 0.20511 0.0
C1890 C 0.82032 0.66281 0.15728 0.0
C1891 C 0.82708 0.6574 0.20275 0.0
C1892 C 0.82365 0.65201 0.23273 0.0
C1893 C 0.83402 0.66689 0.14633 0.0
C1894 C 0.84433 0.66612 0.1638 0.0
C1895 C 0.84077 0.66147 0.1918 0.0
C1896 C 0.85899 0.67037 0.15355 0.0
C1897 C 0.83746 0.67235 0.1164 0.0
C1898 C 0.86094 0.66295 0.13117 0.0
C1899 C 0.87477 0.66738 0.12087 0.0
C1900 C 0.8869 0.67926 0.13291 0.0
C1901 C 0.88492 0.68639 0.15591 0.0
C1902 C 0.87108 0.68196 0.16616 0.0
H1903 H 0.82973 0.67556 0.10823 0.0
H1904 H 0.84855 0.68176 0.11486 0.0
H1905 H 0.83682 0.66368 0.10261 0.0
H1906 H 0.85176 0.65379 0.12154 0.0
H1907 H 0.87592 0.6616 0.10324 0.0
H1908 H 0.13064 0.36231 0.32692 0.0
H1909 H 0.14999 0.35856 0.34457 0.0
H1910 H 0.13788 0.32388 0.28513 0.0
H1911 H 0.11861 0.32766 0.26705 0.0
H1912 H 0.14746 0.33364 0.36844 0.0
H1913 H 0.18135 0.34917 0.27202 0.0
H1914 H 0.16717 0.35343 0.27701 0.0
H1915 H 0.16286 0.3356 0.2664 0.0
C1916 C 0.13211 0.35391 0.31751 0.0
C1917 C 0.12311 0.34531 0.29551 0.0
C1918 C 0.14318 0.3518 0.32761 0.0
C1919 C 0.1455 0.34111 0.31584 0.0
C1920 C 0.13646 0.33241 0.29408 0.0
H1921 H 0.20056 0.30582 0.35319 0.0
H1922 H 0.1836 0.31231 0.33279 0.0
C1923 C 0.12539 0.33452 0.28392 0.0
C1924 C 0.15703 0.33871 0.3271 0.0
H1925 H 0.18769 0.33828 0.30887 0.0
C1926 C 0.15633 0.33476 0.3555 0.0
C1927 C 0.16854 0.34016 0.3101 0.0
C1928 C 0.17015 0.34495 0.27975 0.0
C1929 C 0.16664 0.33186 0.36724 0.0
C1930 C 0.17812 0.33323 0.35021 0.0
C1931 C 0.17888 0.33727 0.32185 0.0
C1932 C 0.18918 0.3301 0.36134 0.0
C1933 C 0.16495 0.32697 0.39755 0.0
C1934 C 0.19822 0.33822 0.38362 0.0
C1935 C 0.2079 0.33453 0.3954 0.0
C1936 C 0.20877 0.32269 0.38495 0.0
C1937 C 0.20012 0.31496 0.36182 0.0
C1938 C 0.19043 0.31865 0.35011 0.0
H1939 H 0.15387 0.3232 0.40555 0.0
H1940 H 0.1674 0.31809 0.39998 0.0
H1941 H 0.1726 0.33612 0.41091 0.0
H1942 H 0.19761 0.34728 0.3922 0.0
H1943 H 0.21448 0.34076 0.41306 0.0
H1944 H 0.6639 0.87548 0.40596 0.0
H1945 H 0.65779 0.8517 0.38787 0.0
H1946 H 0.68988 0.87168 0.32268 0.0
H1947 H 0.69597 0.89553 0.34038 0.0
H1948 H 0.66343 0.84866 0.30366 0.0
H1949 H 0.68338 0.83347 0.39839 0.0
H1950 H 0.67037 0.839 0.40564 0.0
H1951 H 0.6877 0.85179 0.39142 0.0
C1952 C 0.66961 0.87484 0.38765 0.0
C1953 C 0.6805 0.88741 0.37472 0.0
C1954 C 0.66617 0.86124 0.37748 0.0
C1955 C 0.6736 0.85996 0.35432 0.0
C1956 C 0.68411 0.87246 0.34074 0.0
H1957 H 0.66986 0.78795 0.26193 0.0
H1958 H 0.67653 0.81183 0.2803 0.0
C1959 C 0.68756 0.88607 0.35088 0.0
C1960 C 0.67044 0.84557 0.34428 0.0
H1961 H 0.67098 0.81518 0.36421 0.0
C1962 C 0.66513 0.84135 0.31681 0.0
C1963 C 0.6727 0.8361 0.36154 0.0
C1964 C 0.67897 0.84033 0.39081 0.0
C1965 C 0.66173 0.82775 0.30631 0.0
C1966 C 0.66396 0.81827 0.3236 0.0
C1967 C 0.6693 0.8225 0.35105 0.0
C1968 C 0.66062 0.80381 0.31365 0.0
C1969 C 0.65547 0.82352 0.27704 0.0
C1970 C 0.64986 0.7914 0.32706 0.0
C1971 C 0.64608 0.77773 0.31675 0.0
C1972 C 0.65305 0.77624 0.2929 0.0
C1973 C 0.66422 0.78871 0.28023 0.0
C1974 C 0.66799 0.80237 0.29056 0.0
H1975 H 0.65124 0.8305 0.26927 0.0
H1976 H 0.66402 0.82464 0.2623 0.0
H1977 H 0.64661 0.81212 0.27653 0.0
H1978 H 0.64413 0.7923 0.34506 0.0
H1979 H 0.63746 0.76835 0.32707 0.0
H1980 H 0.10686 0.80722 0.39057 0.0
H1981 H 0.13177 0.82442 0.378 0.0
H1982 H 0.13447 0.79143 0.33081 0.0
H1983 H 0.10942 0.77403 0.34324 0.0
H1984 H 0.15647 0.82111 0.3903 0.0
H1985 H 0.14902 0.82638 0.2756 0.0
H1986 H 0.13419 0.81933 0.3003 0.0
H1987 H 0.14161 0.80836 0.28917 0.0
C1988 C 0.11267 0.8036 0.37734 0.0
C1989 C 0.10613 0.78923 0.36787 0.0
C1990 C 0.12693 0.81345 0.37024 0.0
C1991 C 0.13489 0.8092 0.35336 0.0
C1992 C 0.12841 0.79493 0.3436 0.0
H1993 H 0.22262 0.85925 0.28931 0.0
H1994 H 0.19841 0.83981 0.30112 0.0
C1995 C 0.11412 0.78501 0.35079 0.0
C1996 C 0.15012 0.81969 0.34681 0.0
H1997 H 0.17274 0.83936 0.29332 0.0
C1998 C 0.16007 0.82509 0.3691 0.0
C1999 C 0.15473 0.82477 0.31913 0.0
C2000 C 0.14436 0.81953 0.29461 0.0
C2001 C 0.17455 0.8355 0.36444 0.0
C2002 C 0.1791 0.84085 0.33684 0.0
C2003 C 0.1692 0.83525 0.31447 0.0
C2004 C 0.19401 0.85249 0.33076 0.0
C2005 C 0.18487 0.84053 0.38904 0.0
C2006 C 0.19955 0.86609 0.34347 0.0
C2007 C 0.21342 0.87722 0.33687 0.0
C2008 C 0.22193 0.87499 0.31721 0.0
C2009 C 0.21635 0.86133 0.30458 0.0
C2010 C 0.20251 0.8502 0.31126 0.0
H2011 H 0.18083 0.83255 0.40651 0.0
H2012 H 0.19568 0.8425 0.38258 0.0
H2013 H 0.18608 0.85078 0.39728 0.0
H2014 H 0.19304 0.86818 0.35812 0.0
H2015 H 0.21734 0.88763 0.34682 0.0
H2016 H 0.62037 0.84772 0.78353 0.0
H2017 H 0.62896 0.83183 0.80099 0.0
H2018 H 0.67054 0.86882 0.81891 0.0
H2019 H 0.66203 0.88481 0.80183 0.0
H2020 H 0.65211 0.82961 0.77975 0.0
H2021 H 0.66054 0.84576 0.8924 0.0
H2022 H 0.64997 0.85011 0.86894 0.0
H2023 H 0.66934 0.86059 0.86828 0.0
C2024 C 0.6313 0.85249 0.79146 0.0
C2025 C 0.64051 0.86753 0.79136 0.0
C2026 C 0.63618 0.84339 0.80138 0.0
C2027 C 0.65031 0.84917 0.81152 0.0
C2028 C 0.6595 0.86417 0.81167 0.0
H2029 H 0.70401 0.8156 0.86999 0.0
H2030 H 0.69402 0.83036 0.85308 0.0
C2031 C 0.65464 0.87329 0.80178 0.0
C2032 C 0.65566 0.83947 0.82073 0.0
H2033 H 0.6702 0.8312 0.87674 0.0
C2034 C 0.65597 0.82986 0.801 0.0
C2035 C 0.66069 0.83987 0.84846 0.0
C2036 C 0.66002 0.84954 0.87085 0.0
C2037 C 0.66153 0.82085 0.80809 0.0
C2038 C 0.66671 0.82137 0.83573 0.0
C2039 C 0.66627 0.83089 0.85553 0.0
C2040 C 0.6728 0.81226 0.84455 0.0
C2041 C 0.66218 0.81114 0.78578 0.0
C2042 C 0.66415 0.79719 0.84525 0.0
C2043 C 0.66983 0.7887 0.85487 0.0
C2044 C 0.68423 0.79517 0.86409 0.0
C2045 C 0.69288 0.81027 0.86301 0.0
C2046 C 0.6872 0.81873 0.85342 0.0
H2047 H 0.66092 0.81443 0.76423 0.0
H2048 H 0.67256 0.81116 0.78688 0.0
H2049 H 0.65331 0.79993 0.78936 0.0
H2050 H 0.65294 0.79201 0.83892 0.0
H2051 H 0.66286 0.7771 0.85557 0.0
H2052 H 0.1184 0.79153 0.76923 0.0
H2053 H 0.13599 0.81541 0.78702 0.0
H2054 H 0.14946 0.79582 0.85062 0.0
H2055 H 0.13201 0.77188 0.83283 0.0
H2056 H 0.13882 0.82719 0.84143 0.0
H2057 H 0.18737 0.82419 0.81084 0.0
H2058 H 0.16961 0.81187 0.79728 0.0
H2059 H 0.17459 0.80945 0.83218 0.0
C2060 C 0.12507 0.79228 0.78705 0.0
C2061 C 0.12386 0.7798 0.7995 0.0
C2062 C 0.13511 0.80594 0.79717 0.0
C2063 C 0.14418 0.80737 0.81979 0.0
C2064 C 0.14276 0.79494 0.83275 0.0
H2065 H 0.21164 0.8806 0.90978 0.0
H2066 H 0.19433 0.85658 0.89213 0.0
C2067 C 0.13271 0.78127 0.82266 0.0
C2068 C 0.15506 0.82188 0.82989 0.0
H2069 H 0.19131 0.84444 0.83792 0.0
C2070 C 0.1503 0.831 0.84059 0.0
C2071 C 0.17002 0.82678 0.82875 0.0
C2072 C 0.17576 0.81763 0.81643 0.0
C2073 C 0.1601 0.84484 0.85063 0.0
C2074 C 0.17506 0.84976 0.84943 0.0
C2075 C 0.17983 0.84063 0.83879 0.0
C2076 C 0.18593 0.86434 0.85923 0.0
C2077 C 0.15434 0.85397 0.86298 0.0
C2078 C 0.18717 0.87666 0.84609 0.0
C2079 C 0.19705 0.8904 0.8561 0.0
C2080 C 0.20591 0.89207 0.87935 0.0
C2081 C 0.20495 0.8797 0.89188 0.0
C2082 C 0.19506 0.86597 0.88185 0.0
H2083 H 0.14277 0.84738 0.86881 0.0
H2084 H 0.16057 0.85984 0.88199 0.0
H2085 H 0.15537 0.86206 0.84714 0.0
H2086 H 0.18042 0.87563 0.82821 0.0
H2087 H 0.19757 0.89969 0.84585 0.0
H2088 H 0.11769 0.3287 0.90767 0.0
H2089 H 0.14133 0.33397 0.89015 0.0
H2090 H 0.1208 0.29897 0.83068 0.0
H2091 H 0.0971 0.29369 0.84783 0.0
H2092 H 0.15319 0.31546 0.88855 0.0
H2093 H 0.14822 0.33365 0.78151 0.0
H2094 H 0.13642 0.33204 0.81021 0.0
H2095 H 0.13368 0.31624 0.79162 0.0
C2096 C 0.11819 0.32215 0.89078 0.0
C2097 C 0.1055 0.31082 0.87903 0.0
C2098 C 0.13171 0.32517 0.88085 0.0
C2099 C 0.13279 0.31697 0.85892 0.0
C2100 C 0.12018 0.30558 0.8473 0.0
H2101 H 0.20574 0.32258 0.76728 0.0
H2102 H 0.18179 0.3147 0.78682 0.0
C2103 C 0.10665 0.30255 0.85721 0.0
C2104 C 0.14715 0.32027 0.84843 0.0
H2105 H 0.16878 0.33144 0.79023 0.0
C2106 C 0.15663 0.31897 0.86707 0.0
C2107 C 0.15156 0.32481 0.82039 0.0
C2108 C 0.14201 0.32691 0.79978 0.0
C2109 C 0.17039 0.32196 0.85831 0.0
C2110 C 0.17483 0.32661 0.83032 0.0
C2111 C 0.16531 0.32782 0.81165 0.0
C2112 C 0.18945 0.33067 0.82006 0.0
C2113 C 0.17994 0.3199 0.87895 0.0
C2114 C 0.2017 0.34222 0.83237 0.0
C2115 C 0.21541 0.34673 0.82132 0.0
C2116 C 0.21711 0.33985 0.79757 0.0
C2117 C 0.20483 0.32811 0.7856 0.0
C2118 C 0.19113 0.3236 0.7967 0.0
H2119 H 0.1736 0.31257 0.89645 0.0
H2120 H 0.18613 0.31546 0.86831 0.0
H2121 H 0.18775 0.33049 0.88825 0.0
H2122 H 0.20063 0.34802 0.85005 0.0
H2123 H 0.22463 0.35586 0.83096 0.0
H2124 H 0.86731 0.6393 0.68527 0.0
H2125 H 0.84978 0.64517 0.66536 0.0
H2126 H 0.85917 0.67618 0.73169 0.0
H2127 H 0.87684 0.67052 0.75162 0.0
H2128 H 0.8252 0.64231 0.69281 0.0
H2129 H 0.86213 0.69892 0.65987 0.0
H2130 H 0.86845 0.68654 0.66807 0.0
H2131 H 0.86407 0.69507 0.69595 0.0
C2132 C 0.86577 0.64749 0.69548 0.0
C2133 C 0.8735 0.65447 0.72001 0.0
C2134 C 0.85573 0.6508 0.68409 0.0
C2135 C 0.8533 0.6612 0.6969 0.0
C2136 C 0.86108 0.6683 0.72121 0.0
H2137 H 0.79491 0.69358 0.66291 0.0
H2138 H 0.81235 0.68784 0.68375 0.0
C2139 C 0.87113 0.665 0.73262 0.0
C2140 C 0.84215 0.66415 0.6855 0.0
H2141 H 0.83705 0.6906 0.65733 0.0
C2142 C 0.82778 0.65285 0.68493 0.0
C2143 C 0.84557 0.67792 0.67538 0.0
C2144 C 0.86091 0.6903 0.67457 0.0
C2145 C 0.81668 0.655 0.67482 0.0
C2146 C 0.82011 0.66876 0.66461 0.0
C2147 C 0.83447 0.68007 0.66526 0.0
C2148 C 0.80899 0.67163 0.65275 0.0
C2149 C 0.80135 0.64262 0.67565 0.0
C2150 C 0.80133 0.6644 0.62843 0.0
C2151 C 0.79133 0.66762 0.61649 0.0
C2152 C 0.7889 0.67821 0.62857 0.0
C2153 C 0.7965 0.68534 0.65312 0.0
C2154 C 0.80649 0.68211 0.66503 0.0
H2155 H 0.80009 0.6341 0.69067 0.0
H2156 H 0.79376 0.64639 0.68173 0.0
H2157 H 0.79826 0.63769 0.65438 0.0
H2158 H 0.8033 0.65647 0.61833 0.0
H2159 H 0.78572 0.66199 0.5975 0.0
H2160 H 0.36163 0.22158 0.72331 0.0
H2161 H 0.35335 0.19657 0.71045 0.0
H2162 H 0.32062 0.19629 0.65696 0.0
H2163 H 0.32891 0.22145 0.66956 0.0
H2164 H 0.32525 0.1726 0.71858 0.0
H2165 H 0.34122 0.18094 0.60557 0.0
H2166 H 0.3483 0.19552 0.63079 0.0
H2167 H 0.3304 0.18851 0.61699 0.0
C2168 C 0.35272 0.21627 0.70866 0.0
C2169 C 0.34595 0.22354 0.6974 0.0
C2170 C 0.348 0.20195 0.70138 0.0
C2171 C 0.33648 0.19464 0.68257 0.0
C2172 C 0.32969 0.20183 0.67119 0.0
H2173 H 0.29492 0.1074 0.61571 0.0
H2174 H 0.3017 0.13219 0.62774 0.0
C2175 C 0.3344 0.21618 0.67851 0.0
C2176 C 0.33139 0.17935 0.67561 0.0
H2177 H 0.32834 0.15686 0.62174 0.0
C2178 C 0.32592 0.16914 0.69742 0.0
C2179 C 0.33225 0.1749 0.64797 0.0
C2180 C 0.33846 0.18552 0.62396 0.0
C2181 C 0.32119 0.15453 0.6923 0.0
C2182 C 0.32224 0.1501 0.66473 0.0
C2183 C 0.32757 0.1603 0.64286 0.0
C2184 C 0.31796 0.13494 0.65813 0.0
C2185 C 0.31489 0.14394 0.71635 0.0
C2186 C 0.32492 0.12829 0.67112 0.0
C2187 C 0.32104 0.11408 0.66437 0.0
C2188 C 0.31021 0.10632 0.64431 0.0
C2189 C 0.30329 0.11305 0.63129 0.0
C2190 C 0.30716 0.12723 0.63809 0.0
H2191 H 0.31122 0.14826 0.73381 0.0
H2192 H 0.30563 0.13356 0.70916 0.0
H2193 H 0.32328 0.14176 0.72487 0.0
H2194 H 0.3335 0.13415 0.68622 0.0
H2195 H 0.32665 0.10926 0.67465 0.0
H2196 H 0.88762 0.22267 0.65686 0.0
H2197 H 0.86274 0.20472 0.66875 0.0
H2198 H 0.86825 0.17157 0.62894 0.0
H2199 H 0.89307 0.18942 0.61673 0.0
H2200 H 0.84317 0.172 0.61205 0.0
H2201 H 0.84823 0.17265 0.72868 0.0
H2202 H 0.85476 0.19006 0.71277 0.0
H2203 H 0.86368 0.17996 0.70551 0.0
C2204 C 0.88359 0.21154 0.65085 0.0
C2205 C 0.89235 0.20748 0.63588 0.0
C2206 C 0.86939 0.20129 0.65777 0.0
C2207 C 0.86372 0.1868 0.64997 0.0
C2208 C 0.87245 0.1827 0.63522 0.0
H2209 H 0.78007 0.10885 0.66422 0.0
H2210 H 0.80494 0.12685 0.65238 0.0
C2211 C 0.88664 0.19292 0.62833 0.0
C2212 C 0.8485 0.17602 0.65613 0.0
H2213 H 0.8246 0.15949 0.70985 0.0
C2214 C 0.8391 0.16921 0.63342 0.0
C2215 C 0.84326 0.17245 0.68403 0.0
C2216 C 0.85301 0.17905 0.7092 0.0
C2217 C 0.8245 0.15906 0.63786 0.0
C2218 C 0.81925 0.15547 0.66577 0.0
C2219 C 0.82866 0.16229 0.68848 0.0
C2220 C 0.80404 0.14465 0.67195 0.0
C2221 C 0.81475 0.15251 0.61267 0.0
C2222 C 0.79536 0.14867 0.68716 0.0
C2223 C 0.78119 0.13841 0.69407 0.0
C2224 C 0.77544 0.1239 0.68604 0.0
C2225 C 0.78413 0.11994 0.67059 0.0
C2226 C 0.79833 0.13022 0.66369 0.0
H2227 H 0.81946 0.15904 0.5933 0.0
H2228 H 0.81314 0.14158 0.60878 0.0
H2229 H 0.80402 0.15145 0.61648 0.0
H2230 H 0.7996 0.15975 0.6938 0.0
H2231 H 0.7748 0.14184 0.70604 0.0
H2232 H 0.0246 0.46309 0.51601 0.0
H2233 H 0.01863 0.48082 0.49764 0.0
H2234 H 0.9872 0.46997 0.56375 0.0
H2235 H 0.99322 0.45235 0.58255 0.0
H2236 H 0.99239 0.47805 0.47917 0.0
H2237 H 0.0138 0.51366 0.57303 0.0
H2238 H 0.01752 0.49924 0.56624 0.0
H2239 H 0.00043 0.49533 0.58074 0.0
C2240 C 0.01633 0.46439 0.52654 0.0
C2241 C 0.00948 0.4564 0.55092 0.0
C2242 C 0.01295 0.47453 0.51601 0.0
C2243 C 0.0027 0.4769 0.52969 0.0
C2244 C 0.99539 0.46852 0.55328 0.0
H2245 H 0.97001 0.53535 0.50164 0.0
H2246 H 0.97534 0.51708 0.51953 0.0
C2247 C -0.00123 0.45839 0.56386 0.0
C2248 C -0.00014 0.48832 0.51953 0.0
H2249 H 0.00183 0.51999 0.53876 0.0
C2250 C 0.99448 0.48725 0.49213 0.0
C2251 C 0.00265 0.5003 0.53653 0.0
C2252 C 0.00904 0.50233 0.56568 0.0
C2253 C 0.99157 0.49775 0.4814 0.0
C2254 C 0.99435 0.50973 0.49842 0.0
C2255 C -0.00028 0.51079 0.52582 0.0
C2256 C 0.99165 0.52122 0.4882 0.0
C2257 C 0.98528 0.49581 0.45218 0.0
C2258 C -0.00066 0.52983 0.46513 0.0
C2259 C 0.99635 0.5403 0.45486 0.0
C2260 C 0.98564 0.54235 0.46759 0.0
C2261 C 0.97829 0.53401 0.4913 0.0
C2262 C 0.98131 0.52356 0.50155 0.0
H2263 H 0.98063 0.48453 0.44464 0.0
H2264 H 0.97675 0.49883 0.45163 0.0
H2265 H 0.99393 0.50294 0.43729 0.0
H2266 H 0.00757 0.52837 0.45491 0.0
H2267 H 0.00225 0.54658 0.43666 0.0
H2268 H 0.52952 0.55986 0.51465 0.0
H2269 H 0.5119 0.53587 0.49743 0.0
H2270 H 0.52947 0.51677 0.5534 0.0
H2271 H 0.54699 0.5407 0.5711 0.0
H2272 H 0.51623 0.51495 0.47169 0.0
H2273 H 0.48647 0.4948 0.57258 0.0
H2274 H 0.49907 0.51365 0.56639 0.0
H2275 H 0.50553 0.50152 0.57518 0.0
C2276 C 0.52966 0.55057 0.52331 0.0
C2277 C 0.5396 0.55219 0.5444 0.0
C2278 C 0.51958 0.53687 0.51343 0.0
C2279 C 0.51922 0.52454 0.52451 0.0
C2280 C 0.52935 0.52613 0.54504 0.0
H2281 H 0.46711 0.43289 0.49154 0.0
H2282 H 0.48452 0.45683 0.50939 0.0
C2283 C 0.53942 0.53982 0.55499 0.0
C2284 C 0.50832 0.51004 0.5143 0.0
H2285 H 0.48008 0.47776 0.53559 0.0
C2286 C 0.50828 0.50683 0.48561 0.0
C2287 C 0.49798 0.49948 0.53255 0.0
C2288 C 0.49713 0.50254 0.56334 0.0
C2289 C 0.49833 0.49324 0.47474 0.0
C2290 C 0.48798 0.48268 0.49299 0.0
C2291 C 0.48803 0.48589 0.52168 0.0
C2292 C 0.47709 0.4682 0.48272 0.0
C2293 C 0.49917 0.49019 0.44394 0.0
C2294 C 0.46694 0.46665 0.46226 0.0
C2295 C 0.45699 0.453 0.45196 0.0
C2296 C 0.45695 0.44063 0.46211 0.0
C2297 C 0.46687 0.44219 0.48322 0.0
C2298 C 0.47683 0.45586 0.49345 0.0
H2299 H 0.50981 0.49795 0.43467 0.0
H2300 H 0.49727 0.47908 0.44089 0.0
H2301 H 0.49074 0.49116 0.43214 0.0
H2302 H 0.46676 0.47602 0.45416 0.0
H2303 H 0.44944 0.45217 0.43586 0.0
H2304 H 0.56099 0.03329 0.47679 0.0
H2305 H 0.5364 0.02583 0.49228 0.0
H2306 H 0.52121 0.98389 0.45527 0.0
H2307 H 0.54569 0.99121 0.43962 0.0
H2308 H 0.51094 0.01466 0.45406 0.0
H2309 H 0.50575 0.97642 0.53873 0.0
H2310 H 0.52302 0.99044 0.52592 0.0
H2311 H 0.51264 0.97435 0.50554 0.0
C2312 C 0.55245 0.02243 0.47219 0.0
C2313 C 0.55529 0.01282 0.45701 0.0
C2314 C 0.53842 0.01822 0.48096 0.0
C2315 C 0.52706 0.0043 0.47504 0.0
C2316 C 0.52989 0.99463 0.46027 0.0
H2317 H 0.43594 0.9546 0.50815 0.0
H2318 H 0.46076 0.96384 0.4925 0.0
C2319 C 0.54387 0.99885 0.45131 0.0
C2320 C 0.51214 -3e-05 0.48343 0.0
H2321 H 0.48453 0.97666 0.52573 0.0
C2322 C 0.50515 0.00643 0.46986 0.0
C2323 C 0.50469 0.9892 0.50394 0.0
C2324 C 0.5119 0.98224 0.5196 0.0
C2325 C 0.49067 0.00208 0.47572 0.0
C2326 C 0.48317 0.99122 0.49616 0.0
C2327 C 0.49028 0.98494 0.50999 0.0
C2328 C 0.46787 0.98603 0.50342 0.0
C2329 C 0.48344 0.0088 0.45934 0.0
C2330 C 0.46357 0.99548 0.51444 0.0
C2331 C 0.44932 0.99024 0.52317 0.0
C2332 C 0.4392 0.97543 0.52141 0.0
C2333 C 0.44348 0.96606 0.50984 0.0
C2334 C 0.45767 0.97132 0.50093 0.0
H2335 H 0.4893 0.01386 0.43948 0.0
H2336 H 0.47213 0.00067 0.45407 0.0
H2337 H 0.4833 0.01735 0.47234 0.0
H2338 H 0.47133 0.00682 0.51711 0.0
H2339 H 0.44639 0.99771 0.53222 0.0
H2340 H 0.44997 0.99159 0.92272 0.0
H2341 H 0.46673 0.98462 0.94244 0.0
H2342 H 0.47794 0.01603 0.00873 0.0
H2343 H 0.46111 0.02295 0.98943 0.0
H2344 H 0.49632 0.00326 0.94826 0.0
H2345 H 0.47126 0.9801 0.0517 0.0
H2346 H 0.4615 0.98271 0.02341 0.0
H2347 H 0.4736 0.99766 0.04517 0.0
C2348 C 0.4558 0.99684 0.94178 0.0
C2349 C 0.45421 0.00784 0.95449 0.0
C2350 C 0.4654 0.99286 0.95297 0.0
C2351 C 0.47347 -0.00028 0.97717 0.0
C2352 C 0.47162 0.01042 0.99034 0.0
H2353 H 0.54392 0.00131 0.06899 0.0
H2354 H 0.52522 0.00569 0.0499 0.0
C2355 C 0.46204 0.01441 0.97918 0.0
C2356 C 0.48461 0.99648 0.98741 0.0
H2357 H 0.4955 0.98537 0.04511 0.0
C2358 C 0.49609 -0.00079 0.96934 0.0
C2359 C 0.48429 0.99129 0.01496 0.0
C2360 C 0.47194 0.98763 0.03487 0.0
C2361 C 0.50747 0.99723 0.97832 0.0
C2362 C 0.50721 0.99216 0.00596 0.0
C2363 C 0.49567 0.9893 0.02395 0.0
C2364 C 0.51886 0.98981 0.01669 0.0
C2365 C 0.51985 0.00094 0.95845 0.0
C2366 C 0.52146 0.97942 0.00429 0.0
C2367 C 0.53216 0.97691 0.01507 0.0
C2368 C 0.54039 0.98469 0.03858 0.0
C2369 C 0.53781 0.99516 0.05081 0.0
C2370 C 0.5271 0.99766 0.04001 0.0
H2371 H 0.52014 0.00794 0.94085 0.0
H2372 H 0.53033 0.00651 0.96979 0.0
H2373 H 0.51864 0.99087 0.94923 0.0
H2374 H 0.51504 0.97308 0.98657 0.0
H2375 H 0.53381 0.96872 0.00526 0.0
H2376 H 0.00814 0.55335 0.05729 0.0
H2377 H 0.9983 0.5282 0.04335 0.0
H2378 H 0.02686 0.54157 0.97166 0.0
H2379 H 0.03679 0.56686 0.98534 0.0
H2380 H 0.99764 0.51994 0.96003 0.0
H2381 H 0.02063 0.50596 0.0516 0.0
H2382 H 0.01031 0.51444 0.06066 0.0
H2383 H 0.02679 0.52435 0.04109 0.0
C2384 C 0.0123 0.55099 0.03846 0.0
C2385 C 0.02333 0.56212 0.02252 0.0
C2386 C 0.00672 0.5366 0.03065 0.0
C2387 C 0.01205 0.53306 0.00681 0.0
C2388 C 0.0227 0.54412 0.99028 0.0
H2389 H 0.99834 0.44813 0.96366 0.0
H2390 H 0.00874 0.47351 0.97688 0.0
C2391 C 0.02835 0.55855 0.99813 0.0
C2392 C 0.00651 0.51778 0.99923 0.0
H2393 H 0.00377 0.48646 0.02332 0.0
C2394 C -0.00099 0.51261 0.97377 0.0
C2395 C 0.00852 0.50835 0.01708 0.0
C2396 C 0.01711 0.51354 0.04403 0.0
C2397 C 0.99315 0.49811 0.96594 0.0
C2398 C 0.99467 0.48854 0.98432 0.0
C2399 C 0.00248 0.4938 0.00946 0.0
C2400 C 0.98828 0.47302 0.97772 0.0
C2401 C 0.98552 0.4932 0.93794 0.0
C2402 C 0.97331 0.46427 0.97464 0.0
C2403 C 0.96734 0.4498 0.96707 0.0
C2404 C 0.97623 0.44378 0.96265 0.0
C2405 C 0.99119 0.45244 0.96686 0.0
C2406 C 0.99715 0.46694 0.97436 0.0
H2407 H 0.98857 0.50242 0.92338 0.0
H2408 H 0.98798 0.48537 0.92763 0.0
H2409 H 0.97369 0.48781 0.94141 0.0
H2410 H 0.96624 0.46868 0.97782 0.0
H2411 H 0.95576 0.44339 0.96423 0.0
H2412 H 0.44265 0.47064 0.05254 0.0
H2413 H 0.46792 0.48809 0.04296 0.0
H2414 H 0.46872 0.46045 0.97771 0.0
H2415 H 0.44335 0.44293 0.98694 0.0
H2416 H 0.49118 0.48275 0.04692 0.0
H2417 H 0.48613 0.5002 0.9392 0.0
H2418 H 0.47088 0.49083 0.96255 0.0
H2419 H 0.47791 0.48104 0.94399 0.0
C2420 C 0.44813 0.46831 0.03593 0.0
C2421 C 0.44097 0.45539 0.02046 0.0
C2422 C 0.46258 0.47829 0.03055 0.0
C2423 C 0.47013 0.4756 0.0095 0.0
C2424 C 0.463 0.46282 0.99375 0.0
H2425 H 0.55862 0.52275 0.95061 0.0
H2426 H 0.53347 0.50464 0.95957 0.0
C2427 C 0.44852 0.4528 0.99913 0.0
C2428 C 0.48563 0.48593 0.00494 0.0
H2429 H 0.5098 0.50875 0.95642 0.0
C2430 C 0.49527 0.48847 0.02718 0.0
C2431 C 0.49089 0.49332 0.97912 0.0
C2432 C 0.48093 0.49134 0.95488 0.0
C2433 C 0.51011 0.49812 0.02418 0.0
C2434 C 0.51536 0.50559 0.99843 0.0
C2435 C 0.50573 0.50299 0.97614 0.0
C2436 C 0.53081 0.51626 0.99418 0.0
C2437 C 0.52005 0.50002 0.04842 0.0
C2438 C 0.53764 0.52879 0.01074 0.0
C2439 C 0.55204 0.53916 0.00575 0.0
C2440 C 0.55982 0.53722 0.98395 0.0
C2441 C 0.55296 0.52458 0.9676 0.0
C2442 C 0.53858 0.51422 0.97263 0.0
H2443 H 0.51499 0.49086 0.06346 0.0
H2444 H 0.53032 0.50106 0.04072 0.0
H2445 H 0.52262 0.51001 0.06008 0.0
H2446 H 0.53175 0.5307 0.02713 0.0
H2447 H 0.55697 0.54881 0.01861 0.0
H2448 H 0.43606 0.08631 0.95272 0.0
H2449 H 0.43223 0.09691 0.99517 0.0
H2450 H 0.4415 0.06939 0.04683 0.0
H2451 H 0.44548 0.05882 0.00459 0.0
H2452 H 0.41033 0.08003 0.03208 0.0
H2453 H 0.46232 0.10763 0.08943 0.0
H2454 H 0.4611 0.10309 0.05246 0.0
H2455 H 0.45721 0.08958 0.07891 0.0
C2456 C 0.43771 0.08279 0.97309 0.0
C2457 C 0.44099 0.07162 0.97517 0.0
C2458 C 0.43548 0.08886 0.99737 0.0
C2459 C 0.43664 0.08401 0.02422 0.0
C2460 C 0.4408 0.07351 0.0264 0.0
H2461 H 0.4061 0.08001 0.19157 0.0
H2462 H 0.41928 0.08089 0.14899 0.0
C2463 C 0.443 0.06741 1.00214 0.0
C2464 C 0.43159 0.08839 0.04958 0.0
H2465 H 0.44109 0.10176 0.11642 0.0
C2466 C 0.41712 0.08503 0.05035 0.0
C2467 C 0.44042 0.09478 0.07348 0.0
C2468 C 0.45617 0.09911 0.07352 0.0
C2469 C 0.41106 0.08726 0.07474 0.0
C2470 C 0.41981 0.09338 0.09891 0.0
C2471 C 0.4344 0.09713 0.09789 0.0
C2472 C 0.41363 0.09483 0.12601 0.0
C2473 C 0.39513 0.08229 0.07482 0.0
C2474 C 0.40658 0.1029 0.12779 0.0
C2475 C 0.39889 0.10233 0.15213 0.0
C2476 C 0.39825 0.0938 0.17527 0.0
C2477 C 0.40626 0.08663 0.17414 0.0
C2478 C 0.41384 0.08712 0.14977 0.0
H2479 H 0.38938 0.07486 0.05703 0.0
H2480 H 0.39002 0.0767 0.09485 0.0
H2481 H 0.39365 0.09179 0.07273 0.0
H2482 H 0.40657 0.10922 0.10997 0.0
H2483 H 0.39297 0.1081 0.15233 0.0
H2484 H 0.88927 0.28392 0.14756 0.0
H2485 H 0.88994 0.29704 0.10477 0.0
H2486 H 0.91646 0.33743 0.14747 0.0
H2487 H 0.91551 0.32449 0.19044 0.0
H2488 H 0.89729 0.33902 0.11106 0.0
H2489 H 0.92651 0.31484 0.05793 0.0
H2490 H 0.90891 0.30199 0.07077 0.0
H2491 H 0.92295 0.31306 0.09529 0.0
C2492 C 0.89499 0.29559 0.14805 0.0
C2493 C 0.90251 0.30312 0.17238 0.0
C2494 C 0.89546 0.30309 0.12348 0.0
C2495 C 0.90359 0.31822 0.12267 0.0
C2496 C 0.91021 0.32576 0.14749 0.0
H2497 H 0.94409 0.38725 0.00327 0.0
H2498 H 0.93258 0.37249 0.04493 0.0
C2499 C 0.90966 0.3183 0.17209 0.0
C2500 C 0.90627 0.32624 0.09566 0.0
H2501 H 0.92231 0.33085 0.03128 0.0
C2502 C 0.90266 0.33716 0.09352 0.0
C2503 C 0.91339 0.3239 0.07282 0.0
C2504 C 0.9183 0.31291 0.07428 0.0
C2505 C 0.90605 0.34583 0.06924 0.0
C2506 C 0.91334 0.3436 0.04666 0.0
C2507 C 0.91663 0.33248 0.04854 0.0
C2508 C 0.91849 0.35313 0.02147 0.0
C2509 C 0.90181 0.3573 0.06798 0.0
C2510 C 0.9143 0.34723 0.99437 0.0
C2511 C 0.92089 0.35563 0.97048 0.0
C2512 C 0.93195 0.37009 0.97319 0.0
C2513 C 0.9356 0.37618 1.00035 0.0
C2514 C 0.92896 0.36776 0.02424 0.0
H2515 H 0.89289 0.35499 0.08287 0.0
H2516 H 0.91123 0.36784 0.07391 0.0
H2517 H 0.89842 0.35829 0.04635 0.0
H2518 H 0.90628 0.33596 0.99173 0.0
H2519 H 0.91779 0.35057 0.94994 0.0
H2520 H 0.65531 0.58542 0.98361 0.0
H2521 H 0.66715 0.58498 0.02675 0.0
H2522 H 0.6332 0.54133 0.04271 0.0
H2523 H 0.6205 0.54232 1.00031 0.0
H2524 H 0.63834 0.55327 0.0882 0.0
H2525 H 0.6925 0.57084 0.04838 0.0
H2526 H 0.68843 0.58441 0.03768 0.0
H2527 H 0.67769 0.56617 0.02455 0.0
C2528 C 0.65047 0.57558 0.99594 0.0
C2529 C 0.63704 0.56382 0.98832 0.0
C2530 C 0.65739 0.57528 0.02065 0.0
C2531 C 0.65146 0.56295 0.03788 0.0
C2532 C 0.63816 0.55097 0.02985 0.0
H2533 H 0.70976 0.58354 0.18339 0.0
H2534 H 0.69632 0.57069 0.14096 0.0
C2535 C 0.63092 0.55148 0.00552 0.0
C2536 C 0.6585 0.56333 0.06544 0.0
H2537 H 0.69158 0.57864 0.09696 0.0
C2538 C 0.64998 0.5585 0.08993 0.0
C2539 C 0.67366 0.56953 0.06825 0.0
C2540 C 0.68351 0.57282 0.04318 0.0
C2541 C 0.65621 0.56078 0.11691 0.0
C2542 C 0.67144 0.56904 0.11981 0.0
C2543 C 0.67992 0.57276 0.09525 0.0
C2544 C 0.67871 0.57494 0.1476 0.0
C2545 C 0.64627 0.55418 0.14183 0.0
C2546 C 0.67335 0.58147 0.166 0.0
C2547 C 0.68067 0.58816 0.1908 0.0
C2548 C 0.69395 0.58918 0.19729 0.0
C2549 C 0.69946 0.58278 0.17901 0.0
C2550 C 0.6918 0.57553 0.15466 0.0
H2551 H 0.63692 0.54354 0.13607 0.0
H2552 H 0.65185 0.55264 0.1601 0.0
H2553 H 0.64189 0.56122 0.14815 0.0
H2554 H 0.66378 0.58197 0.16074 0.0
H2555 H 0.67634 0.59334 0.20406 0.0
H2556 H 0.08607 0.40949 0.30464 0.0
H2557 H 0.08541 0.42232 0.34666 0.0
H2558 H 0.10323 0.40111 0.39602 0.0
H2559 H 0.10408 0.38832 0.35398 0.0
H2560 H 0.06846 0.40708 0.39194 0.0
H2561 H 0.12499 0.4424 0.42686 0.0
H2562 H 0.12041 0.43518 0.39154 0.0
H2563 H 0.12026 0.42404 0.42005 0.0
C2564 C 0.09022 0.40781 0.32425 0.0
C2565 C 0.09503 0.39777 0.32592 0.0
C2566 C 0.08982 0.41517 0.34828 0.0
C2567 C 0.09431 0.41273 0.3745 0.0
C2568 C 0.09994 0.40337 0.37596 0.0
H2569 H 0.07909 0.42573 0.54811 0.0
H2570 H 0.08865 0.42173 0.5043 0.0
C2571 C 0.10037 0.39601 0.35187 0.0
C2572 C 0.09124 0.4184 0.40063 0.0
H2573 H 0.10653 0.43867 0.45973 0.0
C2574 C 0.07681 0.41413 0.40659 0.0
C2575 C 0.10213 0.42744 0.41991 0.0
C2576 C 0.11784 0.43266 0.41424 0.0
C2577 C 0.07289 0.41838 0.43149 0.0
C2578 C 0.08376 0.42748 0.45078 0.0
C2579 C 0.09823 0.4318 0.44484 0.0
C2580 C 0.08007 0.43206 0.47762 0.0
C2581 C 0.05707 0.41263 0.43734 0.0
C2582 C 0.07267 0.4398 0.47737 0.0
C2583 C 0.06709 0.44201 0.50234 0.0
C2584 C 0.06896 0.43668 0.52816 0.0
C2585 C 0.0774 0.42995 0.52863 0.0
C2586 C 0.08288 0.42764 0.50357 0.0
H2587 H 0.05009 0.40304 0.42419 0.0
H2588 H 0.05451 0.40961 0.45987 0.0
H2589 H 0.05432 0.4211 0.43241 0.0
H2590 H 0.07067 0.44361 0.45766 0.0
H2591 H 0.06079 0.44738 0.50122 0.0
H2592 H 0.5691 0.65243 0.5347 0.0
H2593 H 0.57086 0.66515 0.49097 0.0
H2594 H 0.55184 0.62493 0.44538 0.0
H2595 H 0.55038 0.61212 0.48907 0.0
H2596 H 0.57656 0.6444 0.42191 0.0
H2597 H 0.54381 0.6704 0.44048 0.0
H2598 H 0.5568 0.67448 0.46795 0.0
H2599 H 0.54256 0.65615 0.46277 0.0
C2600 C 0.56494 0.6462 0.51554 0.0
C2601 C 0.55964 0.63122 0.51549 0.0
C2602 C 0.56589 0.65352 0.49047 0.0
C2603 C 0.56136 0.64603 0.46479 0.0
C2604 C 0.55537 0.63097 0.4649 0.0
H2605 H 0.57788 0.67748 0.29042 0.0
H2606 H 0.56665 0.66269 0.33222 0.0
C2607 C 0.5545 0.62364 0.48996 0.0
C2608 C 0.56447 0.65407 0.43763 0.0
H2609 H 0.5613 0.6804 0.40297 0.0
C2610 C 0.573 0.65208 0.41761 0.0
C2611 C 0.55994 0.6642 0.43199 0.0
C2612 C 0.55015 0.66634 0.45183 0.0
C2613 C 0.57752 0.66025 0.39269 0.0
C2614 C 0.57328 0.67061 0.38738 0.0
C2615 C 0.56455 0.67246 0.40709 0.0
C2616 C 0.5784 0.67999 0.36197 0.0
C2617 C 0.58727 0.65811 0.37271 0.0
C2618 C 0.58824 0.69479 0.36476 0.0
C2619 C 0.59467 0.70332 0.34087 0.0
C2620 C 0.59134 0.69721 0.31369 0.0
C2621 C 0.58077 0.68256 0.31096 0.0
C2622 C 0.57437 0.67405 0.33486 0.0
H2623 H 0.5918 0.65178 0.38245 0.0
H2624 H 0.58102 0.65219 0.35377 0.0
H2625 H 0.59633 0.66866 0.36566 0.0
H2626 H 0.59146 0.69962 0.38549 0.0
H2627 H 0.60272 0.71456 0.34383 0.0
H2628 H 0.34796 0.91642 0.54166 0.0
H2629 H 0.33309 0.90507 0.50005 0.0
H2630 H 0.36905 0.93217 0.4463 0.0
H2631 H 0.38406 0.94356 0.48776 0.0
H2632 H 0.3274 0.92122 0.4613 0.0
H2633 H 0.35183 0.8926 0.40757 0.0
H2634 H 0.35519 0.89786 0.44422 0.0
H2635 H 0.36454 0.91091 0.41694 0.0
C2636 C 0.35285 0.91974 0.52102 0.0
C2637 C 0.36722 0.93099 0.51812 0.0
C2638 C 0.3443 0.91323 0.49723 0.0
C2639 C 0.34996 0.91769 0.47004 0.0
C2640 C 0.36451 0.92837 0.46704 0.0
H2641 H 0.32022 0.91468 0.30188 0.0
H2642 H 0.33343 0.91573 0.34452 0.0
C2643 C 0.37307 0.93493 0.49083 0.0
C2644 C 0.34026 0.91254 0.44508 0.0
H2645 H 0.33545 0.89678 0.38031 0.0
C2646 C 0.329 0.91567 0.44376 0.0
C2647 C 0.34245 0.90541 0.42214 0.0
C2648 C 0.35408 0.90137 0.42279 0.0
C2649 C 0.32027 0.91244 0.41971 0.0
C2650 C 0.32257 0.90548 0.39651 0.0
C2651 C 0.33362 0.90203 0.3981 0.0
C2652 C 0.31437 0.90282 0.3697 0.0
C2653 C 0.30915 0.9172 0.41887 0.0
C2654 C 0.29923 0.89463 0.36917 0.0
C2655 C 0.29158 0.8941 0.34478 0.0
C2656 C 0.29896 0.90161 0.32033 0.0
C2657 C 0.31414 0.90883 0.32032 0.0
C2658 C 0.32175 0.90945 0.34475 0.0
H2659 H 0.31112 0.92535 0.43537 0.0
H2660 H 0.30908 0.92186 0.398 0.0
H2661 H 0.2983 0.90774 0.42259 0.0
H2662 H 0.29329 0.88909 0.38796 0.0
H2663 H 0.2799 0.88833 0.34549 0.0
H2664 H 0.60806 0.927 0.79831 0.0
H2665 H 0.59759 0.92896 0.84246 0.0
H2666 H 0.58449 0.88465 0.86187 0.0
H2667 H 0.59641 0.88324 0.81872 0.0
H2668 H 0.57379 0.91887 0.86418 0.0
H2669 H 0.60319 0.90051 0.93335 0.0
H2670 H 0.60678 0.90329 0.89618 0.0
H2671 H 0.59158 0.88683 0.90901 0.0
C2672 C 0.60291 0.91766 0.812 0.0
C2673 C 0.60309 0.90499 0.8052 0.0
C2674 C 0.59688 0.91876 0.83732 0.0
C2675 C 0.59047 0.90708 0.85622 0.0
C2676 C 0.58987 0.89407 0.84851 0.0
H2677 H 0.54814 0.92519 0.99941 0.0
H2678 H 0.55092 0.91433 0.95597 0.0
C2679 C 0.59648 0.89316 0.82361 0.0
C2680 C 0.58476 0.9089 0.88387 0.0
H2681 H 0.58616 0.90506 0.95517 0.0
C2682 C 0.57661 0.91592 0.88408 0.0
C2683 C 0.58837 0.9051 0.91008 0.0
C2684 C 0.59808 0.89866 0.91222 0.0
C2685 C 0.5727 0.91996 0.90934 0.0
C2686 C 0.57607 0.91593 0.93553 0.0
C2687 C 0.58352 0.90819 0.93529 0.0
C2688 C 0.57338 0.92083 0.96336 0.0
C2689 C 0.56585 0.92932 0.90736 0.0
C2690 C 0.5846 0.92711 0.98329 0.0
C2691 C 0.58271 0.93252 0.00874 0.0
C2692 C 0.5697 0.93219 0.01465 0.0
C2693 C 0.55831 0.92564 0.99523 0.0
C2694 C 0.56 0.91965 0.97017 0.0
H2695 H 0.56803 0.93489 0.88666 0.0
H2696 H 0.55398 0.92247 0.90948 0.0
H2697 H 0.56989 0.93765 0.92415 0.0
H2698 H 0.59505 0.92824 0.97888 0.0
H2699 H 0.59173 0.93764 0.02321 0.0
H2700 H 0.06069 0.61603 0.99838 0.0
H2701 H 0.07183 0.63042 0.95612 0.0
H2702 H 0.09659 0.66807 0.00768 0.0
H2703 H 0.08552 0.65381 0.05006 0.0
H2704 H 0.07936 0.67114 0.96607 0.0
H2705 H 0.11236 0.64957 0.91962 0.0
H2706 H 0.09429 0.63617 0.92918 0.0
H2707 H 0.10687 0.64689 0.95618 0.0
C2708 C 0.06879 0.62727 1.00086 0.0
C2709 C 0.07213 0.63373 0.02773 0.0
C2710 C 0.0752 0.6355 0.9766 0.0
C2711 C 0.0851 0.65033 0.9787 0.0
C2712 C 0.08901 0.65664 0.00554 0.0
H2713 H 0.11407 0.71928 0.85245 0.0
H2714 H 0.11209 0.70603 0.89585 0.0
C2715 C 0.08268 0.64843 0.0298 0.0
C2716 C 0.09 0.65955 0.95301 0.0
H2717 H 0.10783 0.665 0.8904 0.0
C2718 C 0.08575 0.66993 0.94967 0.0
C2719 C 0.09817 0.65784 0.9315 0.0
C2720 C 0.10331 0.6471 0.93428 0.0
C2721 C 0.08905 0.67833 0.92511 0.0
C2722 C 0.09724 0.67666 0.9035 0.0
C2723 C 0.10165 0.66638 0.90699 0.0
C2724 C 0.10057 0.68491 0.87654 0.0
C2725 C 0.08313 0.68846 0.9221 0.0
C2726 C 0.09566 0.67754 0.85083 0.0
C2727 C 0.09702 0.6851 0.82586 0.0
C2728 C 0.10328 0.70022 0.82606 0.0
C2729 C 0.10906 0.70764 0.85152 0.0
C2730 C 0.10782 0.70006 0.87644 0.0
H2731 H 0.07405 0.68568 0.93687 0.0
H2732 H 0.09177 0.69961 0.92695 0.0
H2733 H 0.07928 0.68827 0.90028 0.0
H2734 H 0.09013 0.66587 0.85026 0.0
H2735 H 0.09247 0.679 0.80669 0.0
H2736 H 0.31628 0.41395 0.79887 0.0
H2737 H 0.33012 0.42398 0.84212 0.0
H2738 H 0.29085 0.40328 0.89074 0.0
H2739 H 0.27693 0.39282 0.84763 0.0
H2740 H 0.33095 0.44092 0.88659 0.0
H2741 H 0.31317 0.38519 0.92284 0.0
H2742 H 0.30985 0.3891 0.88757 0.0
H2743 H 0.29857 0.38852 0.91627 0.0
C2744 C 0.31051 0.41172 0.81868 0.0
C2745 C 0.29548 0.40237 0.81977 0.0
C2746 C 0.31848 0.41748 0.84344 0.0
C2747 C 0.31159 0.41407 0.86978 0.0
C2748 C 0.29646 0.40574 0.87073 0.0
H2749 H 0.34381 0.42343 0.04078 0.0
H2750 H 0.32941 0.42184 0.99961 0.0
C2751 C 0.28849 0.39985 0.84601 0.0
C2752 C 0.3203 0.41823 0.89617 0.0
H2753 H 0.32745 0.404 0.95432 0.0
C2754 C 0.33017 0.43286 0.90146 0.0
C2755 C 0.31942 0.4077 0.91543 0.0
C2756 C 0.3098 0.39174 0.91019 0.0
C2757 C 0.33899 0.43722 0.92565 0.0
C2758 C 0.33799 0.42668 0.94491 0.0
C2759 C 0.32811 0.41209 0.93967 0.0
C2760 C 0.34729 0.43029 0.97036 0.0
C2761 C 0.34921 0.45306 0.93059 0.0
C2762 C 0.36225 0.43598 0.96781 0.0
C2763 C 0.37057 0.43691 0.99142 0.0
C2764 C 0.36405 0.43206 0.01798 0.0
C2765 C 0.34922 0.42721 0.02069 0.0
C2766 C 0.34094 0.42628 0.99714 0.0
H2767 H 0.34629 0.45991 0.91774 0.0
H2768 H 0.34935 0.45583 0.95319 0.0
H2769 H 0.36029 0.45568 0.92464 0.0
H2770 H 0.36737 0.43893 0.9473 0.0
H2771 H 0.38194 0.44063 0.9885 0.0
H2772 H 0.90556 0.58591 0.71296 0.0
H2773 H 0.90811 0.57558 0.6689 0.0
H2774 H 0.88651 0.59445 0.62412 0.0
H2775 H 0.88429 0.60521 0.66801 0.0
H2776 H 0.89037 0.5575 0.62775 0.0
H2777 H 0.92495 0.61245 0.58413 0.0
H2778 H 0.91951 0.60937 0.6206 0.0
H2779 H 0.90723 0.60873 0.59396 0.0
C2780 C 0.90113 0.5877 0.69385 0.0
C2781 C 0.89489 0.59659 0.69404 0.0
C2782 C 0.90261 0.58177 0.66861 0.0
C2783 C 0.89786 0.58454 0.64301 0.0
C2784 C 0.89065 0.59249 0.64346 0.0
H2785 H 0.91398 0.57061 0.46871 0.0
H2786 H 0.90289 0.57369 0.51121 0.0
C2787 C 0.88927 0.59855 0.66865 0.0
C2788 C 0.90131 0.57991 0.61584 0.0
H2789 H 0.91968 0.59295 0.55395 0.0
C2790 C 0.89674 0.56524 0.61157 0.0
C2791 C 0.90973 0.59002 0.59476 0.0
C2792 C 0.91577 0.60603 0.59861 0.0
C2793 C 0.90028 0.56043 0.58679 0.0
C2794 C 0.9087 0.57056 0.56582 0.0
C2795 C 0.91311 0.58517 0.56994 0.0
C2796 C 0.91369 0.56648 0.53991 0.0
C2797 C 0.8949 0.54455 0.58314 0.0
C2798 C 0.92324 0.56109 0.5418 0.0
C2799 C 0.92964 0.55933 0.51749 0.0
C2800 C 0.92668 0.56297 0.49076 0.0
C2801 C 0.91653 0.56766 0.48886 0.0
C2802 C 0.91018 0.56947 0.51318 0.0
H2803 H 0.88562 0.53789 0.59724 0.0
H2804 H 0.89161 0.54116 0.56098 0.0
H2805 H 0.90372 0.54235 0.58846 0.0
H2806 H 0.92631 0.55893 0.5622 0.0
H2807 H 0.93744 0.55575 0.51982 0.0
H2808 H 0.41704 0.31917 0.70763 0.0
H2809 H 0.42736 0.33136 0.66306 0.0
H2810 H 0.40683 0.29041 0.61998 0.0
H2811 H 0.39604 0.27813 0.66443 0.0
H2812 H 0.44462 0.33072 0.62156 0.0
H2813 H 0.38942 0.31137 0.58001 0.0
H2814 H 0.39277 0.3092 0.61641 0.0
H2815 H 0.39279 0.29715 0.58997 0.0
C2816 C 0.41489 0.31268 0.6888 0.0
C2817 C 0.4055 0.29766 0.68962 0.0
C2818 C 0.42082 0.3197 0.66326 0.0
C2819 C 0.41756 0.31187 0.63799 0.0
C2820 C 0.40916 0.29675 0.63907 0.0
H2821 H 0.43004 0.34088 0.46328 0.0
H2822 H 0.4276 0.32693 0.50575 0.0
C2823 C 0.40309 0.28972 0.66458 0.0
C2824 C 0.42208 0.31964 0.61052 0.0
H2825 H 0.40872 0.32509 0.54917 0.0
C2826 C 0.43678 0.32944 0.60567 0.0
C2827 C 0.41184 0.3181 0.58984 0.0
C2828 C 0.39582 0.30851 0.59434 0.0
C2829 C 0.44148 0.33766 0.58073 0.0
C2830 C 0.43122 0.3361 0.56018 0.0
C2831 C 0.41658 0.32618 0.56484 0.0
C2832 C 0.43519 0.34507 0.5342 0.0
C2833 C 0.45738 0.3479 0.57648 0.0
C2834 C 0.44063 0.36001 0.53595 0.0
C2835 C 0.44202 0.36806 0.51164 0.0
C2836 C 0.43793 0.3613 0.4851 0.0
C2837 C 0.4333 0.34647 0.4833 0.0
C2838 C 0.43186 0.33845 0.5076 0.0
H2839 H 0.46406 0.34523 0.59045 0.0
H2840 H 0.46052 0.34773 0.55423 0.0
H2841 H 0.45983 0.35902 0.58148 0.0
H2842 H 0.44305 0.36532 0.55628 0.0
H2843 H 0.44557 0.37942 0.51389 0.0
H2844 H 0.62092 0.07829 0.48899 0.0
H2845 H 0.63516 0.09104 0.53076 0.0
H2846 H 0.66735 0.07991 0.50692 0.0
H2847 H 0.65395 0.06862 0.46426 0.0
H2848 H 0.64079 0.08292 0.57373 0.0
H2849 H 0.69458 0.11844 0.53077 0.0
H2850 H 0.67915 0.10925 0.50791 0.0
H2851 H 0.68941 0.10074 0.5184 0.0
C2852 C 0.63129 0.07905 0.49233 0.0
C2853 C 0.63646 0.07272 0.4731 0.0
C2854 C 0.63942 0.08625 0.51631 0.0
C2855 C 0.65265 0.08685 0.52203 0.0
C2856 C 0.65766 0.08039 0.50269 0.0
H2857 H 0.67989 0.07861 0.6853 0.0
H2858 H 0.66731 0.07775 0.64215 0.0
C2859 C 0.64986 0.07374 0.47828 0.0
C2860 C 0.66046 0.09276 0.54936 0.0
H2861 H 0.69419 0.1091 0.57843 0.0
C2862 C 0.65248 0.08896 0.57456 0.0
C2863 C 0.67573 0.10117 0.55112 0.0
C2864 C 0.68513 0.10777 0.5255 0.0
C2865 C 0.65926 0.09237 0.60107 0.0
C2866 C 0.6745 0.09887 0.60269 0.0
C2867 C 0.68251 0.10366 0.57758 0.0
C2868 C 0.68219 0.09982 0.62973 0.0
C2869 C 0.64989 0.089 0.62692 0.0
C2870 C 0.69535 0.11222 0.63684 0.0
C2871 C 0.70301 0.11246 0.66111 0.0
C2872 C 0.69744 0.10045 0.67914 0.0
C2873 C 0.68426 0.08818 0.67223 0.0
C2874 C 0.67693 0.08775 0.64758 0.0
H2875 H 0.64053 0.09051 0.62251 0.0
H2876 H 0.64549 0.07752 0.63278 0.0
H2877 H 0.65594 0.09594 0.64508 0.0
H2878 H 0.6998 0.12168 0.62347 0.0
H2879 H 0.71323 0.122 0.66582 0.0
H2880 H 0.7571 0.74724 0.62784 0.0
H2881 H 0.75294 0.7577 0.67009 0.0
H2882 H 0.76836 0.73515 0.72193 0.0
H2883 H 0.77261 0.72463 0.67976 0.0
H2884 H 0.73339 0.73986 0.71201 0.0
H2885 H 0.78757 0.77586 0.75758 0.0
H2886 H 0.78494 0.77018 0.72114 0.0
H2887 H 0.78404 0.7581 0.74839 0.0
C2888 C 0.75996 0.74476 0.64814 0.0
C2889 C 0.76514 0.73501 0.65032 0.0
C2890 C 0.75754 0.75075 0.67231 0.0
C2891 C 0.76039 0.74728 0.69918 0.0
C2892 C 0.76629 0.73817 0.70141 0.0
H2893 H 0.73838 0.75461 0.87097 0.0
H2894 H 0.74935 0.75227 0.82759 0.0
C2895 C 0.76866 0.73212 0.67723 0.0
C2896 C 0.75564 0.75179 0.72479 0.0
H2897 H 0.76736 0.77034 0.78683 0.0
C2898 C 0.74083 0.74667 0.72823 0.0
C2899 C 0.76534 0.76053 0.74606 0.0
C2900 C 0.78138 0.76661 0.74313 0.0
C2901 C 0.7354 0.74968 0.75266 0.0
C2902 C 0.74509 0.75846 0.774 0.0
C2903 C 0.75994 0.76371 0.77044 0.0
C2904 C 0.73986 0.76164 0.80069 0.0
C2905 C 0.71926 0.74292 0.75581 0.0
C2906 C 0.73134 0.76824 0.80029 0.0
C2907 C 0.72492 0.76948 0.82507 0.0
C2908 C 0.72707 0.76434 0.85088 0.0
C2909 C 0.73643 0.75865 0.8515 0.0
C2910 C 0.74273 0.7573 0.82667 0.0
H2911 H 0.71334 0.73359 0.74137 0.0
H2912 H 0.71581 0.73918 0.77776 0.0
H2913 H 0.71605 0.75103 0.75059 0.0
H2914 H 0.72929 0.77205 0.78064 0.0
H2915 H 0.7179 0.77405 0.82383 0.0
H2916 H 0.23892 0.01145 0.62854 0.0
H2917 H 0.2268 0.99835 0.67134 0.0
H2918 H 0.25178 0.03687 0.72053 0.0
H2919 H 0.26398 0.05013 0.67776 0.0
H2920 H 0.24381 0.99595 0.71391 0.0
H2921 H 0.21118 0.01877 0.75669 0.0
H2922 H 0.21667 0.02071 0.72016 0.0
H2923 H 0.2293 0.03184 0.74674 0.0
C2924 C 0.24156 0.0173 0.6483 0.0
C2925 C 0.25255 0.03185 0.64967 0.0
C2926 C 0.2346 0.00976 0.67279 0.0
C2927 C 0.23835 0.01662 0.69915 0.0
C2928 C 0.24855 0.0314 0.70039 0.0
H2929 H 0.23209 0.99119 0.87255 0.0
H2930 H 0.2335 0.00349 0.82832 0.0
C2931 C 0.25555 0.03897 0.67586 0.0
C2932 C 0.2333 0.00788 0.72537 0.0
H2933 H 0.21547 0.00369 0.78754 0.0
C2934 C 0.23744 0.9975 0.72985 0.0
C2935 C 0.22517 0.01006 0.74627 0.0
C2936 C 0.22019 0.02087 0.74225 0.0
C2937 C 0.23408 0.98953 0.75497 0.0
C2938 C 0.22591 0.99166 0.77598 0.0
C2939 C 0.2216 0.00195 0.77137 0.0
C2940 C 0.22264 0.98396 0.8035 0.0
C2941 C 0.23992 0.97941 0.75921 0.0
C2942 C 0.21538 0.96882 0.80465 0.0
C2943 C 0.2147 0.96173 0.8299 0.0
C2944 C 0.22105 0.96964 0.85463 0.0
C2945 C 0.22713 0.98473 0.85393 0.0
C2946 C 0.22795 0.99181 0.8286 0.0
H2947 H 0.24893 0.98181 0.74451 0.0
H2948 H 0.24385 0.98005 0.78113 0.0
H2949 H 0.23121 0.96818 0.7552 0.0
H2950 H 0.21082 0.9625 0.78571 0.0
H2951 H 0.20979 0.95009 0.82973 0.0
H2952 H 0.9877 0.24995 0.63579 0.0
H2953 H -0.00037 0.24993 0.67918 0.0
H2954 H 0.96698 0.20559 0.69407 0.0
H2955 H 0.95415 0.20617 0.65155 0.0
H2956 H 0.97118 0.21702 0.73953 0.0
H2957 H 0.02623 0.23761 0.70197 0.0
H2958 H 0.02142 0.25062 0.6911 0.0
H2959 H 0.01157 0.23239 0.67749 0.0
C2960 C 0.9832 0.24008 0.64799 0.0
C2961 C 0.97008 0.228 0.6401 0.0
C2962 C 0.99017 0.24001 0.6728 0.0
C2963 C 0.98461 0.22761 0.6898 0.0
C2964 C 0.97165 0.21531 0.68142 0.0
H2965 H 0.04156 0.25163 0.83828 0.0
H2966 H 0.02927 0.23804 0.79556 0.0
C2967 C 0.96433 0.21558 0.65704 0.0
C2968 C 0.99156 0.2282 0.71758 0.0
H2969 H 0.02431 0.24509 0.75047 0.0
C2970 C 0.98282 0.22284 0.74171 0.0
C2971 C 0.00675 0.23516 0.72102 0.0
C2972 C 0.01695 0.23906 0.69637 0.0
C2973 C 0.9888 0.22536 0.76892 0.0
C2974 C 0.00391 0.23441 0.77242 0.0
C2975 C 0.01269 0.23862 0.74827 0.0
C2976 C 0.0106 0.24077 0.80036 0.0
C2977 C 0.97874 0.21824 0.79347 0.0
C2978 C 0.00428 0.24673 0.81774 0.0
C2979 C 0.01097 0.25388 0.84263 0.0
C2980 C 0.02455 0.25592 0.85028 0.0
C2981 C 0.03103 0.25009 0.83302 0.0
C2982 C 0.02402 0.24239 0.80851 0.0
H2983 H 0.96999 0.20728 0.78751 0.0
H2984 H 0.98444 0.21726 0.81214 0.0
H2985 H 0.97349 0.22458 0.79924 0.0
H2986 H 0.9944 0.24644 0.81157 0.0
H2987 H 0.00586 0.25858 0.85504 0.0
H2988 H 0.27498 0.22347 0.1962 0.0
H2989 H 0.26178 0.22341 0.23837 0.0
H2990 H 0.24396 0.24571 0.19261 0.0
H2991 H 0.25678 0.24552 0.15033 0.0
H2992 H 0.26682 0.24755 0.26476 0.0
H2993 H 0.20905 0.21722 0.23616 0.0
H2994 H 0.22274 0.21628 0.21553 0.0
H2995 H 0.21944 0.2311 0.21103 0.0
C2996 C 0.26793 0.228 0.19486 0.0
C2997 C 0.26701 0.23455 0.16982 0.0
C2998 C 0.26041 0.22799 0.21905 0.0
C2999 C 0.25175 0.23445 0.2187 0.0
C3000 C 0.25027 0.24036 0.19335 0.0
H3001 H 0.22154 0.27356 0.33755 0.0
H3002 H 0.22592 0.26266 0.29616 0.0
C3003 C 0.25773 0.24033 0.16915 0.0
C3004 C 0.24581 0.23667 0.24544 0.0
H3005 H 0.2153 0.23333 0.27591 0.0
C3006 C 0.25551 0.24419 0.26737 0.0
C3007 C 0.23106 0.23241 0.24883 0.0
C3008 C 0.21995 0.22368 0.22672 0.0
C3009 C 0.25101 0.24806 0.29203 0.0
C3010 C 0.23634 0.24413 0.29513 0.0
C3011 C 0.22654 0.23633 0.27351 0.0
C3012 C 0.23128 0.24877 0.32008 0.0
C3013 C 0.26214 0.25689 0.31407 0.0
C3014 C 0.23219 0.2441 0.34725 0.0
C3015 C 0.2297 0.25031 0.37101 0.0
C3016 C 0.22622 0.26132 0.36804 0.0
C3017 C 0.22426 0.26517 0.34069 0.0
C3018 C 0.22676 0.25895 0.31696 0.0
H3019 H 0.27333 0.26148 0.30597 0.0
H3020 H 0.26063 0.26587 0.32161 0.0
H3021 H 0.2609 0.24993 0.33241 0.0
H3022 H 0.23543 0.23608 0.35012 0.0
H3023 H 0.23122 0.24699 0.39169 0.0
H3024 H 0.77921 0.0518 0.17566 0.0
H3025 H 0.77812 0.03905 0.21922 0.0
H3026 H 0.75857 0.99874 0.17391 0.0
H3027 H 0.75993 0.01139 0.13027 0.0
H3028 H 0.75348 0.01953 0.24338 0.0
H3029 H 0.78632 0.99375 0.22312 0.0
H3030 H 0.78735 0.00799 0.2011 0.0
H3031 H 0.77309 0.98965 0.19613 0.0
C3032 C 0.77504 0.04027 0.17478 0.0
C3033 C 0.76964 0.03264 0.14938 0.0
C3034 C 0.77438 0.03298 0.19977 0.0
C3035 C 0.76837 0.01792 0.19992 0.0
C3036 C 0.76357 0.01038 0.17435 0.0
H3037 H 0.72886 0.94964 0.32189 0.0
H3038 H 0.73972 0.9645 0.27997 0.0
C3039 C 0.76428 0.01765 0.14935 0.0
C3040 C 0.76555 0.00995 0.2271 0.0
H3041 H 0.76933 0.9839 0.26141 0.0
C3042 C 0.75717 0.01192 0.24748 0.0
C3043 C 0.77024 -8e-05 0.23246 0.0
C3044 C 0.77987 0.9978 0.21215 0.0
C3045 C 0.75294 0.00383 0.27251 0.0
C3046 C 0.75736 0.99359 0.27759 0.0
C3047 C 0.76595 0.99175 0.25749 0.0
C3048 C 0.75256 0.98429 0.30314 0.0
C3049 C 0.74329 0.00592 0.29286 0.0
C3050 C 0.75663 0.99037 0.33015 0.0
C3051 C 0.75045 0.98191 0.3542 0.0
C3052 C 0.74007 0.96717 0.35173 0.0
C3053 C 0.73676 0.96094 0.32465 0.0
C3054 C 0.74296 0.96942 0.30061 0.0
H3055 H 0.73848 0.01202 0.28322 0.0
H3056 H 0.73442 0.99537 0.30038 0.0
H3057 H 0.7497 0.01207 0.31146 0.0
H3058 H 0.76419 0.00178 0.3326 0.0
H3059 H 0.75333 0.98708 0.37466 0.0
H3060 H 0.04961 0.78211 0.33503 0.0
H3061 H 0.03653 0.78033 0.29154 0.0
H3062 H 0.99648 0.76093 0.33773 0.0
H3063 H 0.00947 0.76302 0.3813 0.0
H3064 H 0.01724 0.75558 0.26815 0.0
H3065 H 0.99054 0.78763 0.28754 0.0
H3066 H 0.00494 0.78906 0.30964 0.0
H3067 H 0.98671 0.77461 0.31481 0.0
C3068 C 0.03806 0.77783 0.3361 0.0
C3069 C 0.03062 0.7727 0.36177 0.0
C3070 C 0.03058 0.77677 0.31115 0.0
C3071 C 0.01549 0.7706 0.31125 0.0
C3072 C 0.00812 0.76605 0.33705 0.0
H3073 H 0.94775 0.72919 0.18767 0.0
H3074 H 0.96204 0.74019 0.23022 0.0
C3075 C 0.0156 0.76719 0.36203 0.0
C3076 C 0.00735 0.7674 0.28416 0.0
H3077 H 0.98093 0.77047 0.24951 0.0
C3078 C 0.00948 0.75905 0.26395 0.0
C3079 C 0.99709 0.7718 0.27864 0.0
C3080 C 0.99478 0.78139 0.2987 0.0
C3081 C 0.0014 0.75463 0.2389 0.0
C3082 C 0.99097 0.75879 0.23363 0.0
C3083 C 0.98892 0.76729 0.2536 0.0
C3084 C 0.98185 0.75394 0.20782 0.0
C3085 C 0.00376 0.74513 0.21863 0.0
C3086 C 0.98809 0.75847 0.18106 0.0
C3087 C 0.97996 0.75224 0.15666 0.0
C3088 C 0.96539 0.74132 0.15852 0.0
C3089 C 0.95893 0.73753 0.18537 0.0
C3090 C 0.96709 0.7438 0.20977 0.0
H3091 H 0.0101 0.74059 0.22829 0.0
H3092 H 0.99328 0.73608 0.21122 0.0
H3093 H 0.00976 0.75157 0.19994 0.0
H3094 H -0.00057 0.76643 0.17906 0.0
H3095 H 0.98531 0.7555 0.13641 0.0
loop_
_geom_bond_atom_site_label_1
_geom_bond_atom_site_label_2
_geom_bond_distance
_geom_bond_site_symmetry_2
_ccdc_geom_bond_type
Zn0 O3 2.031 . S
Zn0 O5 2.049 . S
Zn0 O10 2.067 . S
Zn1 O2 1.962 . S
Zn1 O4 1.986 . S
Zn1 O6 1.996 . S
Zn1 O9 1.943 . S
O2 Zn1 1.962 . S
O2 C7 1.254 . S
O3 Zn0 2.031 . S
O3 C7 1.269 . S
O4 Zn1 1.986 . S
O4 C11 1.262 . S
O5 Zn0 2.049 . S
O5 C13 1.260 . S
O6 Zn1 1.996 . S
O6 C13 1.257 . S
C7 O2 1.254 . S
C7 O3 1.269 . S
C8 O9 1.249 . S
C8 O10 1.270 . S
O9 Zn1 1.943 . S
O9 C8 1.249 . S
O10 Zn0 2.067 . S
O10 C8 1.270 . S
C11 O4 1.262 . S
C11 O12 1.232 . S
O12 C11 1.232 . S
C13 O5 1.260 . S
C13 O6 1.257 . S
Zn14 O17 2.031 . S
Zn14 O19 2.049 . S
Zn14 O24 2.067 . S
Zn15 O16 1.962 . S
Zn15 O18 1.986 . S
Zn15 O20 1.996 . S
Zn15 O23 1.943 . S
O16 Zn15 1.962 . S
O16 C21 1.254 . S
O17 Zn14 2.031 . S
O17 C21 1.269 . S
O18 Zn15 1.986 . S
O18 C25 1.262 . S
O19 Zn14 2.049 . S
O19 C27 1.260 . S
O20 Zn15 1.996 . S
O20 C27 1.257 . S
C21 O16 1.254 . S
C21 O17 1.269 . S
C22 O23 1.249 . S
C22 O24 1.270 . S
O23 Zn15 1.943 . S
O23 C22 1.249 . S
O24 Zn14 2.067 . S
O24 C22 1.270 . S
C25 O18 1.262 . S
C25 O26 1.232 . S
O26 C25 1.232 . S
C27 O19 1.260 . S
C27 O20 1.257 . S
Zn28 O31 2.031 . S
Zn28 O33 2.049 . S
Zn28 O38 2.067 . S
Zn29 O30 1.962 . S
Zn29 O32 1.986 . S
Zn29 O34 1.996 . S
Zn29 O37 1.943 . S
O30 Zn29 1.962 . S
O30 C35 1.254 . S
O31 Zn28 2.031 . S
O31 C35 1.269 . S
O32 Zn29 1.986 . S
O32 C39 1.262 . S
O33 Zn28 2.049 . S
O33 C41 1.260 . S
O34 Zn29 1.996 . S
O34 C41 1.257 . S
C35 O30 1.254 . S
C35 O31 1.269 . S
C36 O37 1.249 . S
C36 O38 1.270 . S
O37 Zn29 1.943 . S
O37 C36 1.249 . S
O38 Zn28 2.067 . S
O38 C36 1.270 . S
C39 O32 1.262 . S
C39 O40 1.232 . S
O40 C39 1.232 . S
C41 O33 1.260 . S
C41 O34 1.257 . S
Zn42 O45 2.031 . S
Zn42 O47 2.049 . S
Zn42 O52 2.067 . S
Zn43 O44 1.962 . S
Zn43 O46 1.986 . S
Zn43 O48 1.996 . S
Zn43 O51 1.943 . S
O44 Zn43 1.962 . S
O44 C49 1.254 . S
O45 Zn42 2.031 . S
O45 C49 1.269 . S
O46 Zn43 1.986 . S
O46 C53 1.262 . S
O47 Zn42 2.049 . S
O47 C55 1.260 . S
O48 Zn43 1.996 . S
O48 C55 1.257 . S
C49 O44 1.254 . S
C49 O45 1.269 . S
C50 O51 1.249 . S
C50 O52 1.270 . S
O51 Zn43 1.943 . S
O51 C50 1.249 . S
O52 Zn42 2.067 . S
O52 C50 1.270 . S
C53 O46 1.262 . S
C53 O54 1.232 . S
O54 C53 1.232 . S
C55 O47 1.260 . S
C55 O48 1.257 . S
Zn56 O59 2.031 . S
Zn56 O61 2.049 . S
Zn56 O66 2.067 . S
Zn57 O58 1.962 . S
Zn57 O60 1.986 . S
Zn57 O62 1.996 . S
Zn57 O65 1.943 . S
O58 Zn57 1.962 . S
O58 C63 1.254 . S
O59 Zn56 2.031 . S
O59 C63 1.269 . S
O60 Zn57 1.986 . S
O60 C67 1.262 . S
O61 Zn56 2.049 . S
O61 C69 1.260 . S
O62 Zn57 1.996 . S
O62 C69 1.257 . S
C63 O58 1.254 . S
C63 O59 1.269 . S
C64 O65 1.249 . S
C64 O66 1.270 . S
O65 Zn57 1.943 . S
O65 C64 1.249 . S
O66 Zn56 2.067 . S
O66 C64 1.270 . S
C67 O60 1.262 . S
C67 O68 1.232 . S
O68 C67 1.232 . S
C69 O61 1.260 . S
C69 O62 1.257 . S
Zn70 O73 2.031 . S
Zn70 O75 2.049 . S
Zn70 O80 2.067 . S
Zn71 O72 1.962 . S
Zn71 O74 1.986 . S
Zn71 O76 1.996 . S
Zn71 O79 1.943 . S
O72 Zn71 1.962 . S
O72 C77 1.254 . S
O73 Zn70 2.031 . S
O73 C77 1.269 . S
O74 Zn71 1.986 . S
O74 C81 1.262 . S
O75 Zn70 2.049 . S
O75 C83 1.260 . S
O76 Zn71 1.996 . S
O76 C83 1.257 . S
C77 O72 1.254 . S
C77 O73 1.269 . S
C78 O79 1.249 . S
C78 O80 1.270 . S
O79 Zn71 1.943 . S
O79 C78 1.249 . S
O80 Zn70 2.067 . S
O80 C78 1.270 . S
C81 O74 1.262 . S
C81 O82 1.232 . S
O82 C81 1.232 . S
C83 O75 1.260 . S
C83 O76 1.257 . S
Zn84 O87 2.031 . S
Zn84 O89 2.049 . S
Zn84 O94 2.067 . S
Zn85 O86 1.962 . S
Zn85 O88 1.986 . S
Zn85 O90 1.996 . S
Zn85 O93 1.943 . S
O86 Zn85 1.962 . S
O86 C91 1.254 . S
O87 Zn84 2.031 . S
O87 C91 1.269 . S
O88 Zn85 1.986 . S
O88 C95 1.262 . S
O89 Zn84 2.049 . S
O89 C97 1.260 . S
O90 Zn85 1.996 . S
O90 C97 1.257 . S
C91 O86 1.254 . S
C91 O87 1.269 . S
C92 O93 1.249 . S
C92 O94 1.270 . S
O93 Zn85 1.943 . S
O93 C92 1.249 . S
O94 Zn84 2.067 . S
O94 C92 1.270 . S
C95 O88 1.262 . S
C95 O96 1.232 . S
O96 C95 1.232 . S
C97 O89 1.260 . S
C97 O90 1.257 . S
Zn98 O101 2.031 . S
Zn98 O103 2.049 . S
Zn98 O108 2.067 . S
Zn99 O100 1.962 . S
Zn99 O102 1.986 . S
Zn99 O104 1.996 . S
Zn99 O107 1.943 . S
O100 Zn99 1.962 . S
O100 C105 1.254 . S
O101 Zn98 2.031 . S
O101 C105 1.269 . S
O102 Zn99 1.986 . S
O102 C109 1.262 . S
O103 Zn98 2.049 . S
O103 C111 1.260 . S
O104 Zn99 1.996 . S
O104 C111 1.257 . S
C105 O100 1.254 . S
C105 O101 1.269 . S
C106 O107 1.249 . S
C106 O108 1.270 . S
O107 Zn99 1.943 . S
O107 C106 1.249 . S
O108 Zn98 2.067 . S
O108 C106 1.270 . S
C109 O102 1.262 . S
C109 O110 1.232 . S
O110 C109 1.232 . S
C111 O103 1.260 . S
C111 O104 1.257 . S
Zn112 O115 2.031 . S
Zn112 O117 2.049 . S
Zn112 O122 2.067 . S
Zn113 O114 1.962 . S
Zn113 O116 1.986 . S
Zn113 O118 1.996 . S
Zn113 O121 1.943 . S
O114 Zn113 1.962 . S
O114 C119 1.254 . S
O115 Zn112 2.031 . S
O115 C119 1.269 . S
O116 Zn113 1.986 . S
O116 C123 1.262 . S
O117 Zn112 2.049 . S
O117 C125 1.260 . S
O118 Zn113 1.996 . S
O118 C125 1.257 . S
C119 O114 1.254 . S
C119 O115 1.269 . S
C120 O121 1.249 . S
C120 O122 1.270 . S
O121 Zn113 1.943 . S
O121 C120 1.249 . S
O122 Zn112 2.067 . S
O122 C120 1.270 . S
C123 O116 1.262 . S
C123 O124 1.232 . S
O124 C123 1.232 . S
C125 O117 1.260 . S
C125 O118 1.257 . S
Zn126 O129 2.031 . S
Zn126 O131 2.049 . S
Zn126 O136 2.067 . S
Zn127 O128 1.962 . S
Zn127 O130 1.986 . S
Zn127 O132 1.996 . S
Zn127 O135 1.943 . S
O128 Zn127 1.962 . S
O128 C133 1.254 . S
O129 Zn126 2.031 . S
O129 C133 1.269 . S
O130 Zn127 1.986 . S
O130 C137 1.262 . S
O131 Zn126 2.049 . S
O131 C139 1.260 . S
O132 Zn127 1.996 . S
O132 C139 1.257 . S
C133 O128 1.254 . S
C133 O129 1.269 . S
C134 O135 1.249 . S
C134 O136 1.270 . S
O135 Zn127 1.943 . S
O135 C134 1.249 . S
O136 Zn126 2.067 . S
O136 C134 1.270 . S
C137 O130 1.262 . S
C137 O138 1.232 . S
O138 C137 1.232 . S
C139 O131 1.260 . S
C139 O132 1.257 . S
Zn140 O143 2.031 . S
Zn140 O145 2.049 . S
Zn140 O150 2.067 . S
Zn141 O142 1.962 . S
Zn141 O144 1.986 . S
Zn141 O146 1.996 . S
Zn141 O149 1.943 . S
O142 Zn141 1.962 . S
O142 C147 1.254 . S
O143 Zn140 2.031 . S
O143 C147 1.269 . S
O144 Zn141 1.986 . S
O144 C151 1.262 . S
O145 Zn140 2.049 . S
O145 C153 1.260 . S
O146 Zn141 1.996 . S
O146 C153 1.257 . S
C147 O142 1.254 . S
C147 O143 1.269 . S
C148 O149 1.249 . S
C148 O150 1.270 . S
O149 Zn141 1.943 . S
O149 C148 1.249 . S
O150 Zn140 2.067 . S
O150 C148 1.270 . S
C151 O144 1.262 . S
C151 O152 1.232 . S
O152 C151 1.232 . S
C153 O145 1.260 . S
C153 O146 1.257 . S
Zn154 O157 2.031 . S
Zn154 O159 2.049 . S
Zn154 O164 2.067 . S
Zn155 O156 1.962 . S
Zn155 O158 1.986 . S
Zn155 O160 1.996 . S
Zn155 O163 1.943 . S
O156 Zn155 1.962 . S
O156 C161 1.254 . S
O157 Zn154 2.031 . S
O157 C161 1.269 . S
O158 Zn155 1.986 . S
O158 C165 1.262 . S
O159 Zn154 2.049 . S
O159 C167 1.260 . S
O160 Zn155 1.996 . S
O160 C167 1.257 . S
C161 O156 1.254 . S
C161 O157 1.269 . S
C162 O163 1.249 . S
C162 O164 1.270 . S
O163 Zn155 1.943 . S
O163 C162 1.249 . S
O164 Zn154 2.067 . S
O164 C162 1.270 . S
C165 O158 1.262 . S
C165 O166 1.232 . S
O166 C165 1.232 . S
C167 O159 1.260 . S
C167 O160 1.257 . S
Zn168 O171 2.031 . S
Zn168 O173 2.049 . S
Zn168 O178 2.048 1_455 S
Zn169 O170 1.962 . S
Zn169 O172 1.986 . S
Zn169 O174 1.996 . S
Zn169 O177 1.943 1_455 S
O170 Zn169 1.962 . S
O170 C175 1.254 . S
O171 Zn168 2.031 . S
O171 C175 1.269 . S
O172 Zn169 1.986 . S
O172 C179 1.262 . S
O173 Zn168 2.049 . S
O173 C181 1.260 . S
O174 Zn169 1.996 . S
O174 C181 1.257 . S
C175 O170 1.254 . S
C175 O171 1.269 . S
C176 O177 1.249 . S
C176 O178 1.286 . S
O177 Zn169 1.943 1_655 S
O177 C176 1.249 . S
O178 Zn168 2.048 1_655 S
O178 C176 1.286 . S
C179 O172 1.262 . S
C179 O180 1.232 . S
O180 C179 1.232 . S
C181 O173 1.260 . S
C181 O174 1.257 . S
Zn182 O185 2.031 . S
Zn182 O187 2.049 . S
Zn182 O192 2.067 . S
Zn183 O184 1.962 . S
Zn183 O186 1.986 . S
Zn183 O188 1.996 . S
Zn183 O191 1.943 . S
O184 Zn183 1.962 . S
O184 C189 1.254 . S
O185 Zn182 2.031 . S
O185 C189 1.269 . S
O186 Zn183 1.986 . S
O186 C193 1.262 . S
O187 Zn182 2.049 . S
O187 C195 1.260 . S
O188 Zn183 1.996 . S
O188 C195 1.257 . S
C189 O184 1.254 . S
C189 O185 1.269 . S
C190 O191 1.249 . S
C190 O192 1.270 . S
O191 Zn183 1.943 . S
O191 C190 1.249 . S
O192 Zn182 2.067 . S
O192 C190 1.270 . S
C193 O186 1.262 . S
C193 O194 1.232 . S
O194 C193 1.232 . S
C195 O187 1.260 . S
C195 O188 1.257 . S
Zn196 O199 2.031 . S
Zn196 O201 2.049 . S
Zn196 O206 2.062 . S
Zn197 O198 1.962 . S
Zn197 O200 1.986 . S
Zn197 O202 1.996 . S
Zn197 O205 1.943 1_565 S
O198 Zn197 1.962 . S
O198 C203 1.254 . S
O199 Zn196 2.031 . S
O199 C203 1.269 . S
O200 Zn197 1.986 . S
O200 C207 1.262 . S
O201 Zn196 2.049 . S
O201 C209 1.260 . S
O202 Zn197 1.996 . S
O202 C209 1.257 . S
C203 O198 1.254 . S
C203 O199 1.269 . S
C204 O205 1.249 . S
C204 O206 1.271 1_545 S
O205 Zn197 1.943 1_545 S
O205 C204 1.249 . S
O206 Zn196 2.062 . S
O206 C204 1.271 1_565 S
C207 O200 1.262 . S
C207 O208 1.232 . S
O208 C207 1.232 . S
C209 O201 1.260 . S
C209 O202 1.257 . S
Zn210 O213 2.031 . S
Zn210 O215 2.049 . S
Zn210 O220 2.067 . S
Zn211 O212 1.962 . S
Zn211 O214 1.986 . S
Zn211 O216 1.996 . S
Zn211 O219 1.943 . S
O212 Zn211 1.962 . S
O212 C217 1.254 . S
O213 Zn210 2.031 . S
O213 C217 1.269 . S
O214 Zn211 1.986 . S
O214 C221 1.262 . S
O215 Zn210 2.049 . S
O215 C223 1.260 . S
O216 Zn211 1.996 . S
O216 C223 1.257 . S
C217 O212 1.254 . S
C217 O213 1.269 . S
C218 O219 1.249 . S
C218 O220 1.270 . S
O219 Zn211 1.943 . S
O219 C218 1.249 . S
O220 Zn210 2.067 . S
O220 C218 1.270 . S
C221 O214 1.262 . S
C221 O222 1.232 . S
O222 C221 1.232 . S
C223 O215 1.260 . S
C223 O216 1.257 . S
Zn224 O227 2.031 . S
Zn224 O229 2.049 . S
Zn224 O234 2.067 . S
Zn225 O226 1.962 . S
Zn225 O228 1.986 . S
Zn225 O230 1.996 . S
Zn225 O233 1.943 . S
O226 Zn225 1.962 . S
O226 C231 1.254 . S
O227 Zn224 2.031 . S
O227 C231 1.269 . S
O228 Zn225 1.986 . S
O228 C235 1.262 . S
O229 Zn224 2.049 . S
O229 C237 1.260 . S
O230 Zn225 1.996 . S
O230 C237 1.257 . S
C231 O226 1.254 . S
C231 O227 1.269 . S
C232 O233 1.249 . S
C232 O234 1.270 . S
O233 Zn225 1.943 . S
O233 C232 1.249 . S
O234 Zn224 2.067 . S
O234 C232 1.270 . S
C235 O228 1.262 . S
C235 O236 1.232 . S
O236 C235 1.232 . S
C237 O229 1.260 . S
C237 O230 1.257 . S
Zn238 O241 2.031 . S
Zn238 O243 2.049 . S
Zn238 O248 2.067 . S
Zn239 O240 1.962 . S
Zn239 O242 1.986 . S
Zn239 O244 1.996 . S
Zn239 O247 1.943 . S
O240 Zn239 1.962 . S
O240 C245 1.254 . S
O241 Zn238 2.031 . S
O241 C245 1.269 . S
O242 Zn239 1.986 . S
O242 C249 1.262 . S
O243 Zn238 2.049 . S
O243 C251 1.260 . S
O244 Zn239 1.996 . S
O244 C251 1.257 . S
C245 O240 1.254 . S
C245 O241 1.269 . S
C246 O247 1.249 . S
C246 O248 1.270 . S
O247 Zn239 1.943 . S
O247 C246 1.249 . S
O248 Zn238 2.067 . S
O248 C246 1.270 . S
C249 O242 1.262 . S
C249 O250 1.232 . S
O250 C249 1.232 . S
C251 O243 1.260 . S
C251 O244 1.257 . S
Zn252 O255 2.031 . S
Zn252 O257 2.049 . S
Zn252 O262 2.067 . S
Zn253 O254 1.962 . S
Zn253 O256 1.986 . S
Zn253 O258 1.996 . S
Zn253 O261 1.943 . S
O254 Zn253 1.962 . S
O254 C259 1.254 . S
O255 Zn252 2.031 . S
O255 C259 1.269 . S
O256 Zn253 1.986 . S
O256 C263 1.262 . S
O257 Zn252 2.049 . S
O257 C265 1.260 . S
O258 Zn253 1.996 . S
O258 C265 1.257 . S
C259 O254 1.254 . S
C259 O255 1.269 . S
C260 O261 1.249 . S
C260 O262 1.270 . S
O261 Zn253 1.943 . S
O261 C260 1.249 . S
O262 Zn252 2.067 . S
O262 C260 1.270 . S
C263 O256 1.262 . S
C263 O264 1.232 . S
O264 C263 1.232 . S
C265 O257 1.260 . S
C265 O258 1.257 . S
Zn266 O269 2.031 . S
Zn266 O271 2.049 . S
Zn266 O276 2.067 . S
Zn267 O268 1.962 . S
Zn267 O270 1.986 . S
Zn267 O272 1.996 . S
Zn267 O275 1.943 . S
O268 Zn267 1.962 . S
O268 C273 1.254 . S
O269 Zn266 2.031 . S
O269 C273 1.269 . S
O270 Zn267 1.986 . S
O270 C277 1.262 . S
O271 Zn266 2.049 . S
O271 C279 1.260 . S
O272 Zn267 1.996 . S
O272 C279 1.257 . S
C273 O268 1.254 . S
C273 O269 1.269 . S
C274 O275 1.249 . S
C274 O276 1.270 . S
O275 Zn267 1.943 . S
O275 C274 1.249 . S
O276 Zn266 2.067 . S
O276 C274 1.270 . S
C277 O270 1.262 . S
C277 O278 1.232 . S
O278 C277 1.232 . S
C279 O271 1.260 . S
C279 O272 1.257 . S
Zn280 O283 2.031 . S
Zn280 O285 2.049 . S
Zn280 O290 2.067 . S
Zn281 O282 1.962 . S
Zn281 O284 1.986 . S
Zn281 O286 1.996 . S
Zn281 O289 1.943 . S
O282 Zn281 1.962 . S
O282 C287 1.254 . S
O283 Zn280 2.031 . S
O283 C287 1.269 . S
O284 Zn281 1.986 . S
O284 C291 1.262 . S
O285 Zn280 2.049 . S
O285 C293 1.260 . S
O286 Zn281 1.996 . S
O286 C293 1.257 . S
C287 O282 1.254 . S
C287 O283 1.269 . S
C288 O289 1.249 . S
C288 O290 1.270 . S
O289 Zn281 1.943 . S
O289 C288 1.249 . S
O290 Zn280 2.067 . S
O290 C288 1.270 . S
C291 O284 1.262 . S
C291 O292 1.232 . S
O292 C291 1.232 . S
C293 O285 1.260 . S
C293 O286 1.257 . S
Zn294 O297 2.031 . S
Zn294 O299 2.049 . S
Zn294 O304 2.045 1_565 S
Zn295 O296 1.962 . S
Zn295 O298 1.986 . S
Zn295 O300 1.996 . S
Zn295 O303 1.943 1_565 S
O296 Zn295 1.962 . S
O296 C301 1.254 . S
O297 Zn294 2.031 . S
O297 C301 1.269 . S
O298 Zn295 1.986 . S
O298 C305 1.262 . S
O299 Zn294 2.049 . S
O299 C307 1.260 . S
O300 Zn295 1.996 . S
O300 C307 1.257 . S
C301 O296 1.254 . S
C301 O297 1.269 . S
C302 O303 1.249 . S
C302 O304 1.288 . S
O303 Zn295 1.943 1_545 S
O303 C302 1.249 . S
O304 Zn294 2.045 1_545 S
O304 C302 1.288 . S
C305 O298 1.262 . S
C305 O306 1.232 . S
O306 C305 1.232 . S
C307 O299 1.260 . S
C307 O300 1.257 . S
Zn308 O311 2.031 . S
Zn308 O313 2.049 . S
Zn308 O318 2.065 . S
Zn309 O310 1.962 . S
Zn309 O312 1.986 . S
Zn309 O314 1.996 . S
Zn309 O317 1.943 1_455 S
O310 Zn309 1.962 . S
O310 C315 1.254 . S
O311 Zn308 2.031 . S
O311 C315 1.269 . S
O312 Zn309 1.986 . S
O312 C319 1.262 . S
O313 Zn308 2.049 . S
O313 C321 1.260 . S
O314 Zn309 1.996 . S
O314 C321 1.257 . S
C315 O310 1.254 . S
C315 O311 1.269 . S
C316 O317 1.249 . S
C316 O318 1.271 1_655 S
O317 Zn309 1.943 1_655 S
O317 C316 1.249 . S
O318 Zn308 2.065 . S
O318 C316 1.271 1_455 S
C319 O312 1.262 . S
C319 O320 1.232 . S
O320 C319 1.232 . S
C321 O313 1.260 . S
C321 O314 1.257 . S
Zn322 O325 2.031 . S
Zn322 O327 2.049 . S
Zn322 O332 2.067 . S
Zn323 O324 1.962 . S
Zn323 O326 1.986 . S
Zn323 O328 1.996 . S
Zn323 O331 1.943 . S
O324 Zn323 1.962 . S
O324 C329 1.254 . S
O325 Zn322 2.031 . S
O325 C329 1.269 . S
O326 Zn323 1.986 . S
O326 C333 1.262 . S
O327 Zn322 2.049 . S
O327 C335 1.260 . S
O328 Zn323 1.996 . S
O328 C335 1.257 . S
C329 O324 1.254 . S
C329 O325 1.269 . S
C330 O331 1.249 . S
C330 O332 1.270 . S
O331 Zn323 1.943 . S
O331 C330 1.249 . S
O332 Zn322 2.067 . S
O332 C330 1.270 . S
C333 O326 1.262 . S
C333 O334 1.232 . S
O334 C333 1.232 . S
C335 O327 1.260 . S
C335 O328 1.257 . S
Zn336 O339 2.031 . S
Zn336 O341 2.049 . S
Zn336 O346 2.067 . S
Zn337 O338 1.962 . S
Zn337 O340 1.986 . S
Zn337 O342 1.996 . S
Zn337 O345 1.943 . S
O338 Zn337 1.962 . S
O338 C343 1.254 . S
O339 Zn336 2.031 . S
O339 C343 1.269 . S
O340 Zn337 1.986 . S
O340 C347 1.262 . S
O341 Zn336 2.049 . S
O341 C349 1.260 . S
O342 Zn337 1.996 . S
O342 C349 1.257 . S
C343 O338 1.254 . S
C343 O339 1.269 . S
C344 O345 1.249 . S
C344 O346 1.270 . S
O345 Zn337 1.943 . S
O345 C344 1.249 . S
O346 Zn336 2.067 . S
O346 C344 1.270 . S
C347 O340 1.262 . S
C347 O348 1.232 . S
O348 C347 1.232 . S
C349 O341 1.260 . S
C349 O342 1.257 . S
Zn350 O353 2.031 . S
Zn350 O355 2.049 . S
Zn350 O360 2.067 . S
Zn351 O352 1.962 . S
Zn351 O354 1.986 . S
Zn351 O356 1.996 . S
Zn351 O359 1.943 . S
O352 Zn351 1.962 . S
O352 C357 1.254 . S
O353 Zn350 2.031 . S
O353 C357 1.269 . S
O354 Zn351 1.986 . S
O354 C361 1.262 . S
O355 Zn350 2.049 . S
O355 C363 1.260 . S
O356 Zn351 1.996 . S
O356 C363 1.257 . S
C357 O352 1.254 . S
C357 O353 1.269 . S
C358 O359 1.249 . S
C358 O360 1.270 . S
O359 Zn351 1.943 . S
O359 C358 1.249 . S
O360 Zn350 2.067 . S
O360 C358 1.270 . S
C361 O354 1.262 . S
C361 O362 1.232 . S
O362 C361 1.232 . S
C363 O355 1.260 . S
C363 O356 1.257 . S
Zn364 O367 2.031 . S
Zn364 O369 2.049 . S
Zn364 O374 2.067 . S
Zn365 O366 1.962 . S
Zn365 O368 1.986 . S
Zn365 O370 1.996 . S
Zn365 O373 1.943 . S
O366 Zn365 1.962 . S
O366 C371 1.254 . S
O367 Zn364 2.031 . S
O367 C371 1.269 . S
O368 Zn365 1.986 . S
O368 C375 1.262 . S
O369 Zn364 2.049 . S
O369 C377 1.260 . S
O370 Zn365 1.996 . S
O370 C377 1.257 . S
C371 O366 1.254 . S
C371 O367 1.269 . S
C372 O373 1.249 . S
C372 O374 1.270 . S
O373 Zn365 1.943 . S
O373 C372 1.249 . S
O374 Zn364 2.067 . S
O374 C372 1.270 . S
C375 O368 1.262 . S
C375 O376 1.232 . S
O376 C375 1.232 . S
C377 O369 1.260 . S
C377 O370 1.257 . S
Zn378 O381 2.031 . S
Zn378 O383 2.049 . S
Zn378 O388 2.051 1_545 S
Zn379 O380 1.962 . S
Zn379 O382 1.986 . S
Zn379 O384 1.996 . S
Zn379 O387 1.943 1_545 S
O380 Zn379 1.962 . S
O380 C385 1.254 . S
O381 Zn378 2.031 . S
O381 C385 1.269 . S
O382 Zn379 1.986 . S
O382 C389 1.262 . S
O383 Zn378 2.049 . S
O383 C391 1.260 . S
O384 Zn379 1.996 . S
O384 C391 1.257 . S
C385 O380 1.254 . S
C385 O381 1.269 . S
C386 O387 1.249 . S
C386 O388 1.284 . S
O387 Zn379 1.943 1_565 S
O387 C386 1.249 . S
O388 Zn378 2.051 1_565 S
O388 C386 1.284 . S
C389 O382 1.262 . S
C389 O390 1.232 . S
O390 C389 1.232 . S
C391 O383 1.260 . S
C391 O384 1.257 . S
Zn392 O395 2.031 . S
Zn392 O397 2.049 . S
Zn392 O402 2.065 . S
Zn393 O394 1.962 . S
Zn393 O396 1.986 . S
Zn393 O398 1.996 . S
Zn393 O401 1.943 1_655 S
O394 Zn393 1.962 . S
O394 C399 1.254 . S
O395 Zn392 2.031 . S
O395 C399 1.269 . S
O396 Zn393 1.986 . S
O396 C403 1.262 . S
O397 Zn392 2.049 . S
O397 C405 1.260 . S
O398 Zn393 1.996 . S
O398 C405 1.257 . S
C399 O394 1.254 . S
C399 O395 1.269 . S
C400 O401 1.249 . S
C400 O402 1.271 1_455 S
O401 Zn393 1.943 1_455 S
O401 C400 1.249 . S
O402 Zn392 2.065 . S
O402 C400 1.271 1_655 S
C403 O396 1.262 . S
C403 O404 1.232 . S
O404 C403 1.232 . S
C405 O397 1.260 . S
C405 O398 1.257 . S
Zn406 O409 2.031 . S
Zn406 O411 2.049 . S
Zn406 O416 2.067 . S
Zn407 O408 1.962 . S
Zn407 O410 1.986 . S
Zn407 O412 1.996 . S
Zn407 O415 1.943 . S
O408 Zn407 1.962 . S
O408 C413 1.254 . S
O409 Zn406 2.031 . S
O409 C413 1.269 . S
O410 Zn407 1.986 . S
O410 C417 1.262 . S
O411 Zn406 2.049 . S
O411 C419 1.260 . S
O412 Zn407 1.996 . S
O412 C419 1.257 . S
C413 O408 1.254 . S
C413 O409 1.269 . S
C414 O415 1.249 . S
C414 O416 1.270 . S
O415 Zn407 1.943 . S
O415 C414 1.249 . S
O416 Zn406 2.067 . S
O416 C414 1.270 . S
C417 O410 1.262 . S
C417 O418 1.232 . S
O418 C417 1.232 . S
C419 O411 1.260 . S
C419 O412 1.257 . S
Zn420 O423 2.031 . S
Zn420 O425 2.049 . S
Zn420 O430 2.048 1_655 S
Zn421 O422 1.962 . S
Zn421 O424 1.986 . S
Zn421 O426 1.996 . S
Zn421 O429 1.943 1_655 S
O422 Zn421 1.962 . S
O422 C427 1.254 . S
O423 Zn420 2.031 . S
O423 C427 1.269 . S
O424 Zn421 1.986 . S
O424 C431 1.262 . S
O425 Zn420 2.049 . S
O425 C433 1.260 . S
O426 Zn421 1.996 . S
O426 C433 1.257 . S
C427 O422 1.254 . S
C427 O423 1.269 . S
C428 O429 1.249 . S
C428 O430 1.286 . S
O429 Zn421 1.943 1_455 S
O429 C428 1.249 . S
O430 Zn420 2.048 1_455 S
O430 C428 1.286 . S
C431 O424 1.262 . S
C431 O432 1.232 . S
O432 C431 1.232 . S
C433 O425 1.260 . S
C433 O426 1.257 . S
Zn434 O437 2.031 . S
Zn434 O439 2.049 . S
Zn434 O444 2.067 . S
Zn435 O436 1.962 . S
Zn435 O438 1.986 . S
Zn435 O440 1.996 . S
Zn435 O443 1.943 . S
O436 Zn435 1.962 . S
O436 C441 1.254 . S
O437 Zn434 2.031 . S
O437 C441 1.269 . S
O438 Zn435 1.986 . S
O438 C445 1.262 . S
O439 Zn434 2.049 . S
O439 C447 1.260 . S
O440 Zn435 1.996 . S
O440 C447 1.257 . S
C441 O436 1.254 . S
C441 O437 1.269 . S
C442 O443 1.249 . S
C442 O444 1.270 . S
O443 Zn435 1.943 . S
O443 C442 1.249 . S
O444 Zn434 2.067 . S
O444 C442 1.270 . S
C445 O438 1.262 . S
C445 O446 1.232 . S
O446 C445 1.232 . S
C447 O439 1.260 . S
C447 O440 1.257 . S
Zn448 O451 2.031 . S
Zn448 O453 2.049 . S
Zn448 O458 2.068 . S
Zn449 O450 1.962 . S
Zn449 O452 1.986 . S
Zn449 O454 1.996 . S
Zn449 O457 1.943 1_545 S
O450 Zn449 1.962 . S
O450 C455 1.254 . S
O451 Zn448 2.031 . S
O451 C455 1.269 . S
O452 Zn449 1.986 . S
O452 C459 1.262 . S
O453 Zn448 2.049 . S
O453 C461 1.260 . S
O454 Zn449 1.996 . S
O454 C461 1.257 . S
C455 O450 1.254 . S
C455 O451 1.269 . S
C456 O457 1.249 . S
C456 O458 1.270 1_565 S
O457 Zn449 1.943 1_565 S
O457 C456 1.249 . S
O458 Zn448 2.068 . S
O458 C456 1.270 1_545 S
C459 O452 1.262 . S
C459 O460 1.232 . S
O460 C459 1.232 . S
C461 O453 1.260 . S
C461 O454 1.257 . S
Zn462 O465 2.031 . S
Zn462 O467 2.049 . S
Zn462 O472 2.067 . S
Zn463 O464 1.962 . S
Zn463 O466 1.986 . S
Zn463 O468 1.996 . S
Zn463 O471 1.943 . S
O464 Zn463 1.962 . S
O464 C469 1.254 . S
O465 Zn462 2.031 . S
O465 C469 1.269 . S
O466 Zn463 1.986 . S
O466 C473 1.262 . S
O467 Zn462 2.049 . S
O467 C475 1.260 . S
O468 Zn463 1.996 . S
O468 C475 1.257 . S
C469 O464 1.254 . S
C469 O465 1.269 . S
C470 O471 1.249 . S
C470 O472 1.270 . S
O471 Zn463 1.943 . S
O471 C470 1.249 . S
O472 Zn462 2.067 . S
O472 C470 1.270 . S
C473 O466 1.262 . S
C473 O474 1.232 . S
O474 C473 1.232 . S
C475 O467 1.260 . S
C475 O468 1.257 . S
Zn476 O479 2.031 . S
Zn476 O481 2.049 . S
Zn476 O486 2.067 . S
Zn477 O478 1.962 . S
Zn477 O480 1.986 . S
Zn477 O482 1.996 . S
Zn477 O485 1.943 . S
O478 Zn477 1.962 . S
O478 C483 1.254 . S
O479 Zn476 2.031 . S
O479 C483 1.269 . S
O480 Zn477 1.986 . S
O480 C487 1.262 . S
O481 Zn476 2.049 . S
O481 C489 1.260 . S
O482 Zn477 1.996 . S
O482 C489 1.257 . S
C483 O478 1.254 . S
C483 O479 1.269 . S
C484 O485 1.249 . S
C484 O486 1.270 . S
O485 Zn477 1.943 . S
O485 C484 1.249 . S
O486 Zn476 2.067 . S
O486 C484 1.270 . S
C487 O480 1.262 . S
C487 O488 1.232 . S
O488 C487 1.232 . S
C489 O481 1.260 . S
C489 O482 1.257 . S
Zn490 O493 2.031 . S
Zn490 O495 2.049 . S
Zn490 O500 2.067 . S
Zn491 O492 1.962 . S
Zn491 O494 1.986 . S
Zn491 O496 1.996 . S
Zn491 O499 1.943 . S
O492 Zn491 1.962 . S
O492 C497 1.254 . S
O493 Zn490 2.031 . S
O493 C497 1.269 . S
O494 Zn491 1.986 . S
O494 C501 1.262 . S
O495 Zn490 2.049 . S
O495 C503 1.260 . S
O496 Zn491 1.996 . S
O496 C503 1.257 . S
C497 O492 1.254 . S
C497 O493 1.269 . S
C498 O499 1.249 . S
C498 O500 1.270 . S
O499 Zn491 1.943 . S
O499 C498 1.249 . S
O500 Zn490 2.067 . S
O500 C498 1.270 . S
C501 O494 1.262 . S
C501 O502 1.232 . S
O502 C501 1.232 . S
C503 O495 1.260 . S
C503 O496 1.257 . S
H504 C512 0.929 . S
H505 C514 0.930 . S
H506 C516 0.930 . S
H507 C519 0.929 . S
H508 C522 0.930 . S
H509 C524 0.960 . S
H510 C524 0.960 . S
H511 C524 0.960 . S
C512 H504 0.929 . S
C512 C513 1.377 . S
C512 C514 1.384 . S
C513 C512 1.377 . S
C513 C519 1.390 . S
C514 H505 0.930 . S
C514 C512 1.384 . S
C514 C515 1.372 . S
C515 C514 1.372 . S
C515 C516 1.400 . S
C515 C520 1.490 . S
C516 H506 0.930 . S
C516 C515 1.400 . S
C516 C519 1.386 . S
H517 C533 0.930 . S
H518 C534 0.931 . S
C519 H507 0.929 . S
C519 C513 1.390 . S
C519 C516 1.386 . S
C520 C515 1.490 . S
C520 C522 1.395 . S
C520 C523 1.403 . S
H521 C527 0.930 . S
C522 H508 0.930 . S
C522 C520 1.395 . S
C522 C525 1.403 1_565 S
C523 C520 1.403 . S
C523 C524 1.524 . S
C523 C527 1.400 1_565 S
C524 H509 0.960 . S
C524 H510 0.960 . S
C524 H511 0.960 . S
C524 C523 1.524 . S
C525 C522 1.403 1_545 S
C525 C526 1.392 . S
C525 C529 1.495 . S
C526 C525 1.392 . S
C526 C527 1.385 . S
C526 C528 1.478 . S
C527 H521 0.930 . S
C527 C523 1.400 1_545 S
C527 C526 1.385 . S
C528 C526 1.478 . S
C528 C530 1.381 . S
C528 C534 1.383 . S
C529 C525 1.495 . S
C529 H535 0.959 . S
C529 H536 0.961 . S
C529 H537 0.960 . S
C530 C528 1.381 . S
C530 C531 1.394 . S
C530 H538 0.930 . S
C531 C530 1.394 . S
C531 C532 1.383 . S
C531 H539 0.929 . S
C532 C531 1.383 . S
C532 C533 1.377 . S
C533 H517 0.930 . S
C533 C532 1.377 . S
C533 C534 1.379 . S
C534 H518 0.931 . S
C534 C528 1.383 . S
C534 C533 1.379 . S
H535 C529 0.959 . S
H536 C529 0.961 . S
H537 C529 0.960 . S
H538 C530 0.930 . S
H539 C531 0.929 . S
H540 C548 0.929 . S
H541 C550 0.930 . S
H542 C552 0.930 . S
H543 C555 0.929 . S
H544 C558 0.930 . S
H545 C560 0.960 . S
H546 C560 0.960 . S
H547 C560 0.960 . S
C548 H540 0.929 . S
C548 C549 1.377 . S
C548 C550 1.384 . S
C549 C548 1.377 . S
C549 C555 1.390 . S
C550 H541 0.930 . S
C550 C548 1.384 . S
C550 C551 1.372 . S
C551 C550 1.372 . S
C551 C552 1.400 . S
C551 C556 1.490 . S
C552 H542 0.930 . S
C552 C551 1.400 . S
C552 C555 1.386 . S
H553 C569 0.930 . S
H554 C570 0.931 . S
C555 H543 0.929 . S
C555 C549 1.390 . S
C555 C552 1.386 . S
C556 C551 1.490 . S
C556 C558 1.395 . S
C556 C559 1.403 . S
H557 C563 0.930 . S
C558 H544 0.930 . S
C558 C556 1.395 . S
C558 C561 1.403 1_455 S
C559 C556 1.403 . S
C559 C560 1.524 . S
C559 C563 1.400 1_455 S
C560 H545 0.960 . S
C560 H546 0.960 . S
C560 H547 0.960 . S
C560 C559 1.524 . S
C561 C558 1.403 1_655 S
C561 C562 1.392 . S
C561 C565 1.495 . S
C562 C561 1.392 . S
C562 C563 1.385 . S
C562 C564 1.478 . S
C563 H557 0.930 . S
C563 C559 1.400 1_655 S
C563 C562 1.385 . S
C564 C562 1.478 . S
C564 C566 1.381 . S
C564 C570 1.383 . S
C565 C561 1.495 . S
C565 H571 0.959 . S
C565 H572 0.961 . S
C565 H573 0.960 . S
C566 C564 1.381 . S
C566 C567 1.394 . S
C566 H574 0.930 . S
C567 C566 1.394 . S
C567 C568 1.383 . S
C567 H575 0.929 . S
C568 C567 1.383 . S
C568 C569 1.377 . S
C569 H553 0.930 . S
C569 C568 1.377 . S
C569 C570 1.379 . S
C570 H554 0.931 . S
C570 C564 1.383 . S
C570 C569 1.379 . S
H571 C565 0.959 . S
H572 C565 0.961 . S
H573 C565 0.960 . S
H574 C566 0.930 . S
H575 C567 0.929 . S
H576 C584 0.929 . S
H577 C586 0.930 . S
H578 C588 0.930 . S
H579 C591 0.929 . S
H580 C594 0.930 . S
H581 C596 0.960 . S
H582 C596 0.960 . S
H583 C596 0.960 . S
C584 H576 0.929 . S
C584 C585 1.377 . S
C584 C586 1.384 . S
C585 C584 1.377 . S
C585 C591 1.390 . S
C586 H577 0.930 . S
C586 C584 1.384 . S
C586 C587 1.372 . S
C587 C586 1.372 . S
C587 C588 1.400 . S
C587 C592 1.490 . S
C588 H578 0.930 . S
C588 C587 1.400 . S
C588 C591 1.386 . S
H589 C605 0.930 . S
H590 C606 0.931 . S
C591 H579 0.929 . S
C591 C585 1.390 . S
C591 C588 1.386 . S
C592 C587 1.490 . S
C592 C594 1.395 . S
C592 C595 1.403 . S
H593 C599 0.930 . S
C594 H580 0.930 . S
C594 C592 1.395 . S
C594 C597 1.403 . S
C595 C592 1.403 . S
C595 C596 1.524 . S
C595 C599 1.400 . S
C596 H581 0.960 . S
C596 H582 0.960 . S
C596 H583 0.960 . S
C596 C595 1.524 . S
C597 C594 1.403 . S
C597 C598 1.392 . S
C597 C601 1.495 . S
C598 C597 1.392 . S
C598 C599 1.385 . S
C598 C600 1.478 . S
C599 H593 0.930 . S
C599 C595 1.400 . S
C599 C598 1.385 . S
C600 C598 1.478 . S
C600 C602 1.381 . S
C600 C606 1.383 . S
C601 C597 1.495 . S
C601 H607 0.959 . S
C601 H608 0.961 . S
C601 H609 0.960 . S
C602 C600 1.381 . S
C602 C603 1.394 . S
C602 H610 0.930 . S
C603 C602 1.394 . S
C603 C604 1.383 . S
C603 H611 0.929 . S
C604 C603 1.383 . S
C604 C605 1.377 . S
C605 H589 0.930 . S
C605 C604 1.377 . S
C605 C606 1.379 . S
C606 H590 0.931 . S
C606 C600 1.383 . S
C606 C605 1.379 . S
H607 C601 0.959 . S
H608 C601 0.961 . S
H609 C601 0.960 . S
H610 C602 0.930 . S
H611 C603 0.929 . S
H612 C620 0.929 . S
H613 C622 0.930 . S
H614 C624 0.930 . S
H615 C627 0.929 . S
H616 C630 0.930 . S
H617 C632 0.960 . S
H618 C632 0.960 . S
H619 C632 0.960 . S
C620 H612 0.929 . S
C620 C621 1.377 . S
C620 C622 1.384 . S
C621 C620 1.377 . S
C621 C627 1.390 . S
C622 H613 0.930 . S
C622 C620 1.384 . S
C622 C623 1.372 . S
C623 C622 1.372 . S
C623 C624 1.400 . S
C623 C628 1.490 . S
C624 H614 0.930 . S
C624 C623 1.400 . S
C624 C627 1.386 . S
H625 C641 0.930 . S
H626 C642 0.931 . S
C627 H615 0.929 . S
C627 C621 1.390 . S
C627 C624 1.386 . S
C628 C623 1.490 . S
C628 C630 1.395 . S
C628 C631 1.403 . S
H629 C635 0.930 . S
C630 H616 0.930 . S
C630 C628 1.395 . S
C630 C633 1.403 1_565 S
C631 C628 1.403 . S
C631 C632 1.524 . S
C631 C635 1.400 1_565 S
C632 H617 0.960 . S
C632 H618 0.960 . S
C632 H619 0.960 . S
C632 C631 1.524 . S
C633 C630 1.403 1_545 S
C633 C634 1.392 . S
C633 C637 1.495 . S
C634 C633 1.392 . S
C634 C635 1.385 . S
C634 C636 1.478 . S
C635 H629 0.930 . S
C635 C631 1.400 1_545 S
C635 C634 1.385 . S
C636 C634 1.478 . S
C636 C638 1.381 . S
C636 C642 1.383 . S
C637 C633 1.495 . S
C637 H643 0.959 . S
C637 H644 0.961 . S
C637 H645 0.960 . S
C638 C636 1.381 . S
C638 C639 1.394 . S
C638 H646 0.930 . S
C639 C638 1.394 . S
C639 C640 1.383 . S
C639 H647 0.929 . S
C640 C639 1.383 . S
C640 C641 1.377 . S
C641 H625 0.930 . S
C641 C640 1.377 . S
C641 C642 1.379 . S
C642 H626 0.931 . S
C642 C636 1.383 . S
C642 C641 1.379 . S
H643 C637 0.959 . S
H644 C637 0.961 . S
H645 C637 0.960 . S
H646 C638 0.930 . S
H647 C639 0.929 . S
H648 C656 0.929 . S
H649 C658 0.930 . S
H650 C660 0.930 . S
H651 C663 0.929 . S
H652 C666 0.930 . S
H653 C668 0.960 . S
H654 C668 0.960 . S
H655 C668 0.960 . S
C656 H648 0.929 . S
C656 C657 1.377 . S
C656 C658 1.384 . S
C657 C656 1.377 . S
C657 C663 1.390 . S
C658 H649 0.930 . S
C658 C656 1.384 . S
C658 C659 1.372 . S
C659 C658 1.372 . S
C659 C660 1.400 . S
C659 C664 1.490 . S
C660 H650 0.930 . S
C660 C659 1.400 . S
C660 C663 1.386 . S
H661 C677 0.930 . S
H662 C678 0.931 . S
C663 H651 0.929 . S
C663 C657 1.390 . S
C663 C660 1.386 . S
C664 C659 1.490 . S
C664 C666 1.395 . S
C664 C667 1.403 . S
H665 C671 0.930 . S
C666 H652 0.930 . S
C666 C664 1.395 . S
C666 C669 1.403 1_455 S
C667 C664 1.403 . S
C667 C668 1.524 . S
C667 C671 1.400 1_455 S
C668 H653 0.960 . S
C668 H654 0.960 . S
C668 H655 0.960 . S
C668 C667 1.524 . S
C669 C666 1.403 1_655 S
C669 C670 1.392 . S
C669 C673 1.495 . S
C670 C669 1.392 . S
C670 C671 1.385 . S
C670 C672 1.478 . S
C671 H665 0.930 . S
C671 C667 1.400 1_655 S
C671 C670 1.385 . S
C672 C670 1.478 . S
C672 C674 1.381 . S
C672 C678 1.383 . S
C673 C669 1.495 . S
C673 H679 0.959 . S
C673 H680 0.961 . S
C673 H681 0.960 . S
C674 C672 1.381 . S
C674 C675 1.394 . S
C674 H682 0.930 . S
C675 C674 1.394 . S
C675 C676 1.383 . S
C675 H683 0.929 . S
C676 C675 1.383 . S
C676 C677 1.377 . S
C677 H661 0.930 . S
C677 C676 1.377 . S
C677 C678 1.379 . S
C678 H662 0.931 . S
C678 C672 1.383 . S
C678 C677 1.379 . S
H679 C673 0.959 . S
H680 C673 0.961 . S
H681 C673 0.960 . S
H682 C674 0.930 . S
H683 C675 0.929 . S
H684 C692 0.929 . S
H685 C694 0.930 . S
H686 C696 0.930 . S
H687 C699 0.929 . S
H688 C702 0.930 . S
H689 C704 0.960 . S
H690 C704 0.960 . S
H691 C704 0.960 . S
C692 H684 0.929 . S
C692 C693 1.377 . S
C692 C694 1.384 . S
C693 C692 1.377 . S
C693 C699 1.390 . S
C694 H685 0.930 . S
C694 C692 1.384 . S
C694 C695 1.372 . S
C695 C694 1.372 . S
C695 C696 1.400 . S
C695 C700 1.490 . S
C696 H686 0.930 . S
C696 C695 1.400 . S
C696 C699 1.386 . S
H697 C713 0.930 . S
H698 C714 0.931 . S
C699 H687 0.929 . S
C699 C693 1.390 . S
C699 C696 1.386 . S
C700 C695 1.490 . S
C700 C702 1.395 . S
C700 C703 1.403 . S
H701 C707 0.930 . S
C702 H688 0.930 . S
C702 C700 1.395 . S
C702 C705 1.403 . S
C703 C700 1.403 . S
C703 C704 1.524 . S
C703 C707 1.400 . S
C704 H689 0.960 . S
C704 H690 0.960 . S
C704 H691 0.960 . S
C704 C703 1.524 . S
C705 C702 1.403 . S
C705 C706 1.392 . S
C705 C709 1.495 . S
C706 C705 1.392 . S
C706 C707 1.385 . S
C706 C708 1.478 . S
C707 H701 0.930 . S
C707 C703 1.400 . S
C707 C706 1.385 . S
C708 C706 1.478 . S
C708 C710 1.381 . S
C708 C714 1.383 . S
C709 C705 1.495 . S
C709 H715 0.959 . S
C709 H716 0.961 . S
C709 H717 0.960 . S
C710 C708 1.381 . S
C710 C711 1.394 . S
C710 H718 0.930 . S
C711 C710 1.394 . S
C711 C712 1.383 . S
C711 H719 0.929 . S
C712 C711 1.383 . S
C712 C713 1.377 . S
C713 H697 0.930 . S
C713 C712 1.377 . S
C713 C714 1.379 . S
C714 H698 0.931 . S
C714 C708 1.383 . S
C714 C713 1.379 . S
H715 C709 0.959 . S
H716 C709 0.961 . S
H717 C709 0.960 . S
H718 C710 0.930 . S
H719 C711 0.929 . S
H720 C728 0.929 . S
H721 C730 0.930 . S
H722 C732 0.930 . S
H723 C735 0.929 . S
H724 C738 0.930 . S
H725 C740 0.960 . S
H726 C740 0.960 . S
H727 C740 0.960 . S
C728 H720 0.929 . S
C728 C729 1.377 . S
C728 C730 1.384 . S
C729 C728 1.377 . S
C729 C735 1.390 . S
C730 H721 0.930 . S
C730 C728 1.384 . S
C730 C731 1.372 . S
C731 C730 1.372 . S
C731 C732 1.400 . S
C731 C736 1.490 . S
C732 H722 0.930 . S
C732 C731 1.400 . S
C732 C735 1.386 . S
H733 C749 0.930 . S
H734 C750 0.931 . S
C735 H723 0.929 . S
C735 C729 1.390 . S
C735 C732 1.386 . S
C736 C731 1.490 . S
C736 C738 1.395 . S
C736 C739 1.403 . S
H737 C743 0.930 . S
C738 H724 0.930 . S
C738 C736 1.395 . S
C738 C741 1.403 . S
C739 C736 1.403 . S
C739 C740 1.524 . S
C739 C743 1.400 . S
C740 H725 0.960 . S
C740 H726 0.960 . S
C740 H727 0.960 . S
C740 C739 1.524 . S
C741 C738 1.403 . S
C741 C742 1.392 . S
C741 C745 1.495 . S
C742 C741 1.392 . S
C742 C743 1.385 . S
C742 C744 1.478 . S
C743 H737 0.930 . S
C743 C739 1.400 . S
C743 C742 1.385 . S
C744 C742 1.478 . S
C744 C746 1.381 . S
C744 C750 1.383 . S
C745 C741 1.495 . S
C745 H751 0.959 . S
C745 H752 0.961 . S
C745 H753 0.960 . S
C746 C744 1.381 . S
C746 C747 1.394 . S
C746 H754 0.930 . S
C747 C746 1.394 . S
C747 C748 1.383 . S
C747 H755 0.929 . S
C748 C747 1.383 . S
C748 C749 1.377 . S
C749 H733 0.930 . S
C749 C748 1.377 . S
C749 C750 1.379 . S
C750 H734 0.931 . S
C750 C744 1.383 . S
C750 C749 1.379 . S
H751 C745 0.959 . S
H752 C745 0.961 . S
H753 C745 0.960 . S
H754 C746 0.930 . S
H755 C747 0.929 . S
H756 C764 0.929 . S
H757 C766 0.930 . S
H758 C768 0.930 . S
H759 C771 0.929 . S
H760 C774 0.930 . S
H761 C776 0.960 . S
H762 C776 0.960 . S
H763 C776 0.960 . S
C764 H756 0.929 . S
C764 C765 1.377 . S
C764 C766 1.384 . S
C765 C764 1.377 . S
C765 C771 1.390 . S
C766 H757 0.930 . S
C766 C764 1.384 . S
C766 C767 1.372 . S
C767 C766 1.372 . S
C767 C768 1.400 . S
C767 C772 1.490 . S
C768 H758 0.930 . S
C768 C767 1.400 . S
C768 C771 1.386 . S
H769 C785 0.930 . S
H770 C786 0.931 . S
C771 H759 0.929 . S
C771 C765 1.390 . S
C771 C768 1.386 . S
C772 C767 1.490 . S
C772 C774 1.395 . S
C772 C775 1.403 . S
H773 C779 0.930 . S
C774 H760 0.930 . S
C774 C772 1.395 . S
C774 C777 1.403 . S
C775 C772 1.403 . S
C775 C776 1.524 . S
C775 C779 1.400 . S
C776 H761 0.960 . S
C776 H762 0.960 . S
C776 H763 0.960 . S
C776 C775 1.524 . S
C777 C774 1.403 . S
C777 C778 1.392 . S
C777 C781 1.495 . S
C778 C777 1.392 . S
C778 C779 1.385 . S
C778 C780 1.478 . S
C779 H773 0.930 . S
C779 C775 1.400 . S
C779 C778 1.385 . S
C780 C778 1.478 . S
C780 C782 1.381 . S
C780 C786 1.383 . S
C781 C777 1.495 . S
C781 H787 0.959 . S
C781 H788 0.961 . S
C781 H789 0.960 . S
C782 C780 1.381 . S
C782 C783 1.394 . S
C782 H790 0.930 . S
C783 C782 1.394 . S
C783 C784 1.383 . S
C783 H791 0.929 . S
C784 C783 1.383 . S
C784 C785 1.377 . S
C785 H769 0.930 . S
C785 C784 1.377 . S
C785 C786 1.379 . S
C786 H770 0.931 . S
C786 C780 1.383 . S
C786 C785 1.379 . S
H787 C781 0.959 . S
H788 C781 0.961 . S
H789 C781 0.960 . S
H790 C782 0.930 . S
H791 C783 0.929 . S
H792 C800 0.929 . S
H793 C802 0.930 . S
H794 C804 0.930 . S
H795 C807 0.929 . S
H796 C810 0.930 . S
H797 C812 0.960 . S
H798 C812 0.960 . S
H799 C812 0.960 . S
C800 H792 0.929 . S
C800 C801 1.377 . S
C800 C802 1.384 . S
C801 C800 1.377 . S
C801 C807 1.390 . S
C802 H793 0.930 . S
C802 C800 1.384 . S
C802 C803 1.372 . S
C803 C802 1.372 . S
C803 C804 1.400 . S
C803 C808 1.490 . S
C804 H794 0.930 . S
C804 C803 1.400 . S
C804 C807 1.386 . S
H805 C821 0.930 1_565 S
H806 C822 0.931 . S
C807 H795 0.929 . S
C807 C801 1.390 . S
C807 C804 1.386 . S
C808 C803 1.490 . S
C808 C810 1.395 . S
C808 C811 1.403 . S
H809 C815 0.930 . S
C810 H796 0.930 . S
C810 C808 1.395 . S
C810 C813 1.403 . S
C811 C808 1.403 . S
C811 C812 1.524 . S
C811 C815 1.400 . S
C812 H797 0.960 . S
C812 H798 0.960 . S
C812 H799 0.960 . S
C812 C811 1.524 . S
C813 C810 1.403 . S
C813 C814 1.392 . S
C813 C817 1.495 . S
C814 C813 1.392 . S
C814 C815 1.385 . S
C814 C816 1.478 . S
C815 H809 0.930 . S
C815 C811 1.400 . S
C815 C814 1.385 . S
C816 C814 1.478 . S
C816 C818 1.381 . S
C816 C822 1.383 . S
C817 C813 1.495 . S
C817 H823 0.959 . S
C817 H824 0.961 . S
C817 H825 0.960 . S
C818 C816 1.381 . S
C818 C819 1.394 . S
C818 H826 0.930 . S
C819 C818 1.394 . S
C819 C820 1.383 . S
C819 H827 0.929 . S
C820 C819 1.383 . S
C820 C821 1.377 . S
C821 H805 0.930 1_545 S
C821 C820 1.377 . S
C821 C822 1.379 . S
C822 H806 0.931 . S
C822 C816 1.383 . S
C822 C821 1.379 . S
H823 C817 0.959 . S
H824 C817 0.961 . S
H825 C817 0.960 . S
H826 C818 0.930 . S
H827 C819 0.929 . S
H828 C836 0.929 . S
H829 C838 0.930 . S
H830 C840 0.930 . S
H831 C843 0.929 . S
H832 C846 0.930 . S
H833 C848 0.960 . S
H834 C848 0.960 . S
H835 C848 0.960 . S
C836 H828 0.929 . S
C836 C837 1.377 . S
C836 C838 1.384 . S
C837 C836 1.377 . S
C837 C843 1.390 . S
C838 H829 0.930 . S
C838 C836 1.384 . S
C838 C839 1.372 . S
C839 C838 1.372 . S
C839 C840 1.400 . S
C839 C844 1.490 . S
C840 H830 0.930 . S
C840 C839 1.400 . S
C840 C843 1.386 . S
H841 C857 0.930 . S
H842 C858 0.931 . S
C843 H831 0.929 . S
C843 C837 1.390 . S
C843 C840 1.386 . S
C844 C839 1.490 . S
C844 C846 1.395 . S
C844 C847 1.403 . S
H845 C851 0.930 . S
C846 H832 0.930 . S
C846 C844 1.395 . S
C846 C849 1.403 . S
C847 C844 1.403 . S
C847 C848 1.524 . S
C847 C851 1.400 . S
C848 H833 0.960 . S
C848 H834 0.960 . S
C848 H835 0.960 . S
C848 C847 1.524 . S
C849 C846 1.403 . S
C849 C850 1.392 . S
C849 C853 1.495 . S
C850 C849 1.392 . S
C850 C851 1.385 . S
C850 C852 1.478 . S
C851 H845 0.930 . S
C851 C847 1.400 . S
C851 C850 1.385 . S
C852 C850 1.478 . S
C852 C854 1.381 . S
C852 C858 1.383 . S
C853 C849 1.495 . S
C853 H859 0.959 . S
C853 H860 0.961 . S
C853 H861 0.960 . S
C854 C852 1.381 . S
C854 C855 1.394 . S
C854 H862 0.930 . S
C855 C854 1.394 . S
C855 C856 1.383 . S
C855 H863 0.929 . S
C856 C855 1.383 . S
C856 C857 1.377 . S
C857 H841 0.930 . S
C857 C856 1.377 . S
C857 C858 1.379 . S
C858 H842 0.931 . S
C858 C852 1.383 . S
C858 C857 1.379 . S
H859 C853 0.959 . S
H860 C853 0.961 . S
H861 C853 0.960 . S
H862 C854 0.930 . S
H863 C855 0.929 . S
H864 C872 0.929 1_565 S
H865 C874 0.930 . S
H866 C876 0.930 . S
H867 C879 0.929 . S
H868 C882 0.930 . S
H869 C884 0.960 . S
H870 C884 0.960 . S
H871 C884 0.960 . S
C872 H864 0.929 1_545 S
C872 C873 1.377 . S
C872 C874 1.384 . S
C873 C872 1.377 . S
C873 C879 1.390 . S
C874 H865 0.930 . S
C874 C872 1.384 . S
C874 C875 1.372 . S
C875 C874 1.372 . S
C875 C876 1.400 . S
C875 C880 1.490 . S
C876 H866 0.930 . S
C876 C875 1.400 . S
C876 C879 1.386 . S
H877 C893 0.930 . S
H878 C894 0.931 . S
C879 H867 0.929 . S
C879 C873 1.390 . S
C879 C876 1.386 . S
C880 C875 1.490 . S
C880 C882 1.395 . S
C880 C883 1.403 . S
H881 C887 0.930 . S
C882 H868 0.930 . S
C882 C880 1.395 . S
C882 C885 1.403 . S
C883 C880 1.403 . S
C883 C884 1.524 . S
C883 C887 1.400 . S
C884 H869 0.960 . S
C884 H870 0.960 . S
C884 H871 0.960 . S
C884 C883 1.524 . S
C885 C882 1.403 . S
C885 C886 1.392 . S
C885 C889 1.495 . S
C886 C885 1.392 . S
C886 C887 1.385 . S
C886 C888 1.478 . S
C887 H881 0.930 . S
C887 C883 1.400 . S
C887 C886 1.385 . S
C888 C886 1.478 . S
C888 C890 1.381 . S
C888 C894 1.383 . S
C889 C885 1.495 . S
C889 H895 0.959 . S
C889 H896 0.961 . S
C889 H897 0.960 . S
C890 C888 1.381 . S
C890 C891 1.394 . S
C890 H898 0.930 . S
C891 C890 1.394 . S
C891 C892 1.383 . S
C891 H899 0.929 . S
C892 C891 1.383 . S
C892 C893 1.377 . S
C893 H877 0.930 . S
C893 C892 1.377 . S
C893 C894 1.379 . S
C894 H878 0.931 . S
C894 C888 1.383 . S
C894 C893 1.379 . S
H895 C889 0.959 . S
H896 C889 0.961 . S
H897 C889 0.960 . S
H898 C890 0.930 . S
H899 C891 0.929 . S
H900 C908 0.929 . S
H901 C910 0.930 . S
H902 C912 0.930 . S
H903 C915 0.929 . S
H904 C918 0.930 . S
H905 C920 0.960 . S
H906 C920 0.960 . S
H907 C920 0.960 . S
C908 H900 0.929 . S
C908 C909 1.377 . S
C908 C910 1.384 . S
C909 C908 1.377 . S
C909 C915 1.390 . S
C910 H901 0.930 . S
C910 C908 1.384 . S
C910 C911 1.372 . S
C911 C910 1.372 . S
C911 C912 1.400 . S
C911 C916 1.490 . S
C912 H902 0.930 . S
C912 C911 1.400 . S
C912 C915 1.386 . S
H913 C929 0.930 . S
H914 C930 0.931 . S
C915 H903 0.929 . S
C915 C909 1.390 . S
C915 C912 1.386 . S
C916 C911 1.490 . S
C916 C918 1.395 . S
C916 C919 1.403 . S
H917 C923 0.930 . S
C918 H904 0.930 . S
C918 C916 1.395 . S
C918 C921 1.403 . S
C919 C916 1.403 . S
C919 C920 1.524 . S
C919 C923 1.400 . S
C920 H905 0.960 . S
C920 H906 0.960 . S
C920 H907 0.960 . S
C920 C919 1.524 . S
C921 C918 1.403 . S
C921 C922 1.392 . S
C921 C925 1.495 . S
C922 C921 1.392 . S
C922 C923 1.385 . S
C922 C924 1.478 . S
C923 H917 0.930 . S
C923 C919 1.400 . S
C923 C922 1.385 . S
C924 C922 1.478 . S
C924 C926 1.381 . S
C924 C930 1.383 . S
C925 C921 1.495 . S
C925 H931 0.959 . S
C925 H932 0.961 . S
C925 H933 0.960 . S
C926 C924 1.381 . S
C926 C927 1.394 . S
C926 H934 0.930 . S
C927 C926 1.394 . S
C927 C928 1.383 . S
C927 H935 0.929 . S
C928 C927 1.383 . S
C928 C929 1.377 . S
C929 H913 0.930 . S
C929 C928 1.377 . S
C929 C930 1.379 . S
C930 H914 0.931 . S
C930 C924 1.383 . S
C930 C929 1.379 . S
H931 C925 0.959 . S
H932 C925 0.961 . S
H933 C925 0.960 . S
H934 C926 0.930 . S
H935 C927 0.929 . S
H936 C944 0.929 . S
H937 C946 0.930 . S
H938 C948 0.930 . S
H939 C951 0.929 . S
H940 C954 0.930 . S
H941 C956 0.960 . S
H942 C956 0.960 . S
H943 C956 0.960 . S
C944 H936 0.929 . S
C944 C945 1.377 . S
C944 C946 1.384 . S
C945 C944 1.377 . S
C945 C951 1.390 . S
C946 H937 0.930 . S
C946 C944 1.384 . S
C946 C947 1.372 . S
C947 C946 1.372 . S
C947 C948 1.400 . S
C947 C952 1.490 . S
C948 H938 0.930 . S
C948 C947 1.400 . S
C948 C951 1.386 . S
H949 C965 0.930 . S
H950 C966 0.931 . S
C951 H939 0.929 . S
C951 C945 1.390 . S
C951 C948 1.386 . S
C952 C947 1.490 . S
C952 C954 1.395 . S
C952 C955 1.403 . S
H953 C959 0.930 . S
C954 H940 0.930 . S
C954 C952 1.395 . S
C954 C957 1.403 . S
C955 C952 1.403 . S
C955 C956 1.524 . S
C955 C959 1.400 . S
C956 H941 0.960 . S
C956 H942 0.960 . S
C956 H943 0.960 . S
C956 C955 1.524 . S
C957 C954 1.403 . S
C957 C958 1.392 . S
C957 C961 1.495 . S
C958 C957 1.392 . S
C958 C959 1.385 . S
C958 C960 1.478 . S
C959 H953 0.930 . S
C959 C955 1.400 . S
C959 C958 1.385 . S
C960 C958 1.478 . S
C960 C962 1.381 . S
C960 C966 1.383 . S
C961 C957 1.495 . S
C961 H967 0.959 . S
C961 H968 0.961 . S
C961 H969 0.960 . S
C962 C960 1.381 . S
C962 C963 1.394 . S
C962 H970 0.930 . S
C963 C962 1.394 . S
C963 C964 1.383 . S
C963 H971 0.929 . S
C964 C963 1.383 . S
C964 C965 1.377 . S
C965 H949 0.930 . S
C965 C964 1.377 . S
C965 C966 1.379 . S
C966 H950 0.931 . S
C966 C960 1.383 . S
C966 C965 1.379 . S
H967 C961 0.959 . S
H968 C961 0.961 . S
H969 C961 0.960 . S
H970 C962 0.930 . S
H971 C963 0.929 . S
H972 C980 0.929 . S
H973 C982 0.930 . S
H974 C984 0.930 . S
H975 C987 0.929 . S
H976 C990 0.930 . S
H977 C992 0.960 . S
H978 C992 0.960 . S
H979 C992 0.960 . S
C980 H972 0.929 . S
C980 C981 1.377 . S
C980 C982 1.384 . S
C981 C980 1.377 . S
C981 C987 1.390 . S
C982 H973 0.930 . S
C982 C980 1.384 . S
C982 C983 1.372 . S
C983 C982 1.372 . S
C983 C984 1.400 . S
C983 C988 1.490 . S
C984 H974 0.930 . S
C984 C983 1.400 . S
C984 C987 1.386 . S
H985 C1001 0.930 . S
H986 C1002 0.931 . S
C987 H975 0.929 . S
C987 C981 1.390 . S
C987 C984 1.386 . S
C988 C983 1.490 . S
C988 C990 1.395 . S
C988 C991 1.403 . S
H989 C995 0.930 . S
C990 H976 0.930 . S
C990 C988 1.395 . S
C990 C993 1.403 . S
C991 C988 1.403 . S
C991 C992 1.524 . S
C991 C995 1.400 . S
C992 H977 0.960 . S
C992 H978 0.960 . S
C992 H979 0.960 . S
C992 C991 1.524 . S
C993 C990 1.403 . S
C993 C994 1.392 . S
C993 C997 1.495 . S
C994 C993 1.392 . S
C994 C995 1.385 . S
C994 C996 1.478 . S
C995 H989 0.930 . S
C995 C991 1.400 . S
C995 C994 1.385 . S
C996 C994 1.478 . S
C996 C998 1.381 . S
C996 C1002 1.383 . S
C997 C993 1.495 . S
C997 H1003 0.959 . S
C997 H1004 0.961 . S
C997 H1005 0.960 . S
C998 C996 1.381 . S
C998 C999 1.394 . S
C998 H1006 0.930 . S
C999 C998 1.394 . S
C999 C1000 1.383 . S
C999 H1007 0.929 . S
C1000 C999 1.383 . S
C1000 C1001 1.377 . S
C1001 H985 0.930 . S
C1001 C1000 1.377 . S
C1001 C1002 1.379 . S
C1002 H986 0.931 . S
C1002 C996 1.383 . S
C1002 C1001 1.379 . S
H1003 C997 0.959 . S
H1004 C997 0.961 . S
H1005 C997 0.960 . S
H1006 C998 0.930 . S
H1007 C999 0.929 . S
H1008 C1016 0.929 . S
H1009 C1018 0.930 . S
H1010 C1020 0.930 . S
H1011 C1023 0.929 . S
H1012 C1026 0.930 . S
H1013 C1028 0.960 . S
H1014 C1028 0.960 . S
H1015 C1028 0.960 . S
C1016 H1008 0.929 . S
C1016 C1017 1.377 . S
C1016 C1018 1.384 . S
C1017 C1016 1.377 . S
C1017 C1023 1.390 . S
C1018 H1009 0.930 . S
C1018 C1016 1.384 . S
C1018 C1019 1.372 . S
C1019 C1018 1.372 . S
C1019 C1020 1.400 . S
C1019 C1024 1.490 . S
C1020 H1010 0.930 . S
C1020 C1019 1.400 . S
C1020 C1023 1.386 . S
H1021 C1037 0.930 1_655 S
H1022 C1038 0.931 . S
C1023 H1011 0.929 . S
C1023 C1017 1.390 . S
C1023 C1020 1.386 . S
C1024 C1019 1.490 . S
C1024 C1026 1.395 . S
C1024 C1027 1.403 . S
H1025 C1031 0.930 . S
C1026 H1012 0.930 . S
C1026 C1024 1.395 . S
C1026 C1029 1.403 . S
C1027 C1024 1.403 . S
C1027 C1028 1.524 . S
C1027 C1031 1.400 . S
C1028 H1013 0.960 . S
C1028 H1014 0.960 . S
C1028 H1015 0.960 . S
C1028 C1027 1.524 . S
C1029 C1026 1.403 . S
C1029 C1030 1.392 . S
C1029 C1033 1.495 . S
C1030 C1029 1.392 . S
C1030 C1031 1.385 . S
C1030 C1032 1.478 . S
C1031 H1025 0.930 . S
C1031 C1027 1.400 . S
C1031 C1030 1.385 . S
C1032 C1030 1.478 . S
C1032 C1034 1.381 . S
C1032 C1038 1.383 . S
C1033 C1029 1.495 . S
C1033 H1039 0.959 . S
C1033 H1040 0.961 . S
C1033 H1041 0.960 . S
C1034 C1032 1.381 . S
C1034 C1035 1.394 . S
C1034 H1042 0.930 . S
C1035 C1034 1.394 . S
C1035 C1036 1.383 . S
C1035 H1043 0.929 . S
C1036 C1035 1.383 . S
C1036 C1037 1.377 . S
C1037 H1021 0.930 1_455 S
C1037 C1036 1.377 . S
C1037 C1038 1.379 . S
C1038 H1022 0.931 . S
C1038 C1032 1.383 . S
C1038 C1037 1.379 . S
H1039 C1033 0.959 . S
H1040 C1033 0.961 . S
H1041 C1033 0.960 . S
H1042 C1034 0.930 . S
H1043 C1035 0.929 . S
H1044 C1052 0.929 . S
H1045 C1054 0.930 . S
H1046 C1056 0.930 . S
H1047 C1059 0.929 . S
H1048 C1062 0.930 . S
H1049 C1064 0.960 . S
H1050 C1064 0.960 . S
H1051 C1064 0.960 . S
C1052 H1044 0.929 . S
C1052 C1053 1.377 . S
C1052 C1054 1.384 . S
C1053 C1052 1.377 . S
C1053 C1059 1.390 . S
C1054 H1045 0.930 . S
C1054 C1052 1.384 . S
C1054 C1055 1.372 . S
C1055 C1054 1.372 . S
C1055 C1056 1.400 . S
C1055 C1060 1.490 . S
C1056 H1046 0.930 . S
C1056 C1055 1.400 . S
C1056 C1059 1.386 . S
H1057 C1073 0.930 . S
H1058 C1074 0.931 . S
C1059 H1047 0.929 . S
C1059 C1053 1.390 . S
C1059 C1056 1.386 . S
C1060 C1055 1.490 . S
C1060 C1062 1.395 . S
C1060 C1063 1.403 . S
H1061 C1067 0.930 . S
C1062 H1048 0.930 . S
C1062 C1060 1.395 . S
C1062 C1065 1.403 . S
C1063 C1060 1.403 . S
C1063 C1064 1.524 . S
C1063 C1067 1.400 . S
C1064 H1049 0.960 . S
C1064 H1050 0.960 . S
C1064 H1051 0.960 . S
C1064 C1063 1.524 . S
C1065 C1062 1.403 . S
C1065 C1066 1.392 . S
C1065 C1069 1.495 . S
C1066 C1065 1.392 . S
C1066 C1067 1.385 . S
C1066 C1068 1.478 . S
C1067 H1061 0.930 . S
C1067 C1063 1.400 . S
C1067 C1066 1.385 . S
C1068 C1066 1.478 . S
C1068 C1070 1.381 . S
C1068 C1074 1.383 . S
C1069 C1065 1.495 . S
C1069 H1075 0.959 . S
C1069 H1076 0.961 . S
C1069 H1077 0.960 . S
C1070 C1068 1.381 . S
C1070 C1071 1.394 . S
C1070 H1078 0.930 . S
C1071 C1070 1.394 . S
C1071 C1072 1.383 . S
C1071 H1079 0.926 1_455 S
C1072 C1071 1.383 . S
C1072 C1073 1.377 . S
C1073 H1057 0.930 . S
C1073 C1072 1.377 . S
C1073 C1074 1.379 . S
C1074 H1058 0.931 . S
C1074 C1068 1.383 . S
C1074 C1073 1.379 . S
H1075 C1069 0.959 . S
H1076 C1069 0.961 . S
H1077 C1069 0.960 . S
H1078 C1070 0.930 . S
H1079 C1071 0.926 1_655 S
H1080 C1088 0.929 . S
H1081 C1090 0.930 . S
H1082 C1092 0.930 . S
H1083 C1095 0.929 . S
H1084 C1098 0.930 . S
H1085 C1100 0.960 . S
H1086 C1100 0.960 . S
H1087 C1100 0.960 . S
C1088 H1080 0.929 . S
C1088 C1089 1.377 . S
C1088 C1090 1.384 . S
C1089 C1088 1.377 . S
C1089 C1095 1.390 . S
C1090 H1081 0.930 . S
C1090 C1088 1.384 . S
C1090 C1091 1.372 . S
C1091 C1090 1.372 . S
C1091 C1092 1.400 . S
C1091 C1096 1.490 . S
C1092 H1082 0.930 . S
C1092 C1091 1.400 . S
C1092 C1095 1.386 . S
H1093 C1109 0.930 . S
H1094 C1110 0.931 . S
C1095 H1083 0.929 . S
C1095 C1089 1.390 . S
C1095 C1092 1.386 . S
C1096 C1091 1.490 . S
C1096 C1098 1.395 . S
C1096 C1099 1.403 . S
H1097 C1103 0.930 . S
C1098 H1084 0.930 . S
C1098 C1096 1.395 . S
C1098 C1101 1.403 . S
C1099 C1096 1.403 . S
C1099 C1100 1.524 . S
C1099 C1103 1.400 . S
C1100 H1085 0.960 . S
C1100 H1086 0.960 . S
C1100 H1087 0.960 . S
C1100 C1099 1.524 . S
C1101 C1098 1.403 . S
C1101 C1102 1.392 . S
C1101 C1105 1.495 . S
C1102 C1101 1.392 . S
C1102 C1103 1.385 . S
C1102 C1104 1.478 . S
C1103 H1097 0.930 . S
C1103 C1099 1.400 . S
C1103 C1102 1.385 . S
C1104 C1102 1.478 . S
C1104 C1106 1.381 . S
C1104 C1110 1.383 . S
C1105 C1101 1.495 . S
C1105 H1111 0.959 . S
C1105 H1112 0.961 . S
C1105 H1113 0.960 . S
C1106 C1104 1.381 . S
C1106 C1107 1.394 . S
C1106 H1114 0.930 . S
C1107 C1106 1.394 . S
C1107 C1108 1.383 . S
C1107 H1115 0.929 . S
C1108 C1107 1.383 . S
C1108 C1109 1.377 . S
C1109 H1093 0.930 . S
C1109 C1108 1.377 . S
C1109 C1110 1.379 . S
C1110 H1094 0.931 . S
C1110 C1104 1.383 . S
C1110 C1109 1.379 . S
H1111 C1105 0.959 . S
H1112 C1105 0.961 . S
H1113 C1105 0.960 . S
H1114 C1106 0.930 . S
H1115 C1107 0.929 . S
H1116 C1124 0.929 . S
H1117 C1126 0.930 . S
H1118 C1128 0.930 . S
H1119 C1131 0.929 . S
H1120 C1134 0.930 . S
H1121 C1136 0.960 . S
H1122 C1136 0.960 . S
H1123 C1136 0.960 . S
C1124 H1116 0.929 . S
C1124 C1125 1.377 . S
C1124 C1126 1.384 . S
C1125 C1124 1.377 . S
C1125 C1131 1.390 . S
C1126 H1117 0.930 . S
C1126 C1124 1.384 . S
C1126 C1127 1.372 . S
C1127 C1126 1.372 . S
C1127 C1128 1.400 . S
C1127 C1132 1.490 . S
C1128 H1118 0.930 . S
C1128 C1127 1.400 . S
C1128 C1131 1.386 . S
H1129 C1145 0.930 . S
H1130 C1146 0.931 . S
C1131 H1119 0.929 . S
C1131 C1125 1.390 . S
C1131 C1128 1.386 . S
C1132 C1127 1.490 . S
C1132 C1134 1.395 . S
C1132 C1135 1.403 . S
H1133 C1139 0.930 . S
C1134 H1120 0.930 . S
C1134 C1132 1.395 . S
C1134 C1137 1.403 . S
C1135 C1132 1.403 . S
C1135 C1136 1.524 . S
C1135 C1139 1.400 . S
C1136 H1121 0.960 . S
C1136 H1122 0.960 . S
C1136 H1123 0.960 . S
C1136 C1135 1.524 . S
C1137 C1134 1.403 . S
C1137 C1138 1.392 . S
C1137 C1141 1.495 . S
C1138 C1137 1.392 . S
C1138 C1139 1.385 . S
C1138 C1140 1.478 . S
C1139 H1133 0.930 . S
C1139 C1135 1.400 . S
C1139 C1138 1.385 . S
C1140 C1138 1.478 . S
C1140 C1142 1.381 . S
C1140 C1146 1.383 . S
C1141 C1137 1.495 . S
C1141 H1147 0.959 . S
C1141 H1148 0.961 . S
C1141 H1149 0.960 . S
C1142 C1140 1.381 . S
C1142 C1143 1.394 . S
C1142 H1150 0.930 . S
C1143 C1142 1.394 . S
C1143 C1144 1.383 . S
C1143 H1151 0.929 . S
C1144 C1143 1.383 . S
C1144 C1145 1.377 . S
C1145 H1129 0.930 . S
C1145 C1144 1.377 . S
C1145 C1146 1.379 . S
C1146 H1130 0.931 . S
C1146 C1140 1.383 . S
C1146 C1145 1.379 . S
H1147 C1141 0.959 . S
H1148 C1141 0.961 . S
H1149 C1141 0.960 . S
H1150 C1142 0.930 . S
H1151 C1143 0.929 . S
H1152 C1160 0.929 . S
H1153 C1162 0.930 . S
H1154 C1164 0.930 . S
H1155 C1167 0.929 . S
H1156 C1170 0.930 . S
H1157 C1172 0.960 . S
H1158 C1172 0.960 . S
H1159 C1172 0.960 . S
C1160 H1152 0.929 . S
C1160 C1161 1.377 . S
C1160 C1162 1.384 . S
C1161 C1160 1.377 . S
C1161 C1167 1.390 . S
C1162 H1153 0.930 . S
C1162 C1160 1.384 . S
C1162 C1163 1.372 . S
C1163 C1162 1.372 . S
C1163 C1164 1.400 . S
C1163 C1168 1.490 . S
C1164 H1154 0.930 . S
C1164 C1163 1.400 . S
C1164 C1167 1.386 . S
H1165 C1181 0.930 . S
H1166 C1182 0.931 . S
C1167 H1155 0.929 . S
C1167 C1161 1.390 . S
C1167 C1164 1.386 . S
C1168 C1163 1.490 . S
C1168 C1170 1.395 . S
C1168 C1171 1.403 . S
H1169 C1175 0.930 . S
C1170 H1156 0.930 . S
C1170 C1168 1.395 . S
C1170 C1173 1.403 . S
C1171 C1168 1.403 . S
C1171 C1172 1.524 . S
C1171 C1175 1.400 . S
C1172 H1157 0.960 . S
C1172 H1158 0.960 . S
C1172 H1159 0.960 . S
C1172 C1171 1.524 . S
C1173 C1170 1.403 . S
C1173 C1174 1.392 . S
C1173 C1177 1.495 . S
C1174 C1173 1.392 . S
C1174 C1175 1.385 . S
C1174 C1176 1.478 . S
C1175 H1169 0.930 . S
C1175 C1171 1.400 . S
C1175 C1174 1.385 . S
C1176 C1174 1.478 . S
C1176 C1178 1.381 . S
C1176 C1182 1.383 . S
C1177 C1173 1.495 . S
C1177 H1183 0.959 . S
C1177 H1184 0.961 . S
C1177 H1185 0.960 . S
C1178 C1176 1.381 . S
C1178 C1179 1.394 . S
C1178 H1186 0.930 . S
C1179 C1178 1.394 . S
C1179 C1180 1.383 . S
C1179 H1187 0.929 . S
C1180 C1179 1.383 . S
C1180 C1181 1.377 . S
C1181 H1165 0.930 . S
C1181 C1180 1.377 . S
C1181 C1182 1.379 . S
C1182 H1166 0.931 . S
C1182 C1176 1.383 . S
C1182 C1181 1.379 . S
H1183 C1177 0.959 . S
H1184 C1177 0.961 . S
H1185 C1177 0.960 . S
H1186 C1178 0.930 . S
H1187 C1179 0.929 . S
H1188 C1196 0.929 . S
H1189 C1198 0.930 . S
H1190 C1200 0.930 . S
H1191 C1203 0.929 . S
H1192 C1206 0.930 . S
H1193 C1208 0.960 . S
H1194 C1208 0.960 . S
H1195 C1208 0.960 . S
C1196 H1188 0.929 . S
C1196 C1197 1.377 . S
C1196 C1198 1.384 . S
C1197 C1196 1.377 . S
C1197 C1203 1.390 . S
C1198 H1189 0.930 . S
C1198 C1196 1.384 . S
C1198 C1199 1.372 . S
C1199 C1198 1.372 . S
C1199 C1200 1.400 . S
C1199 C1204 1.490 . S
C1200 H1190 0.930 . S
C1200 C1199 1.400 . S
C1200 C1203 1.386 . S
H1201 C1217 0.930 . S
H1202 C1218 0.931 . S
C1203 H1191 0.929 . S
C1203 C1197 1.390 . S
C1203 C1200 1.386 . S
C1204 C1199 1.490 . S
C1204 C1206 1.395 . S
C1204 C1207 1.403 . S
H1205 C1211 0.930 . S
C1206 H1192 0.930 . S
C1206 C1204 1.395 . S
C1206 C1209 1.403 . S
C1207 C1204 1.403 . S
C1207 C1208 1.524 . S
C1207 C1211 1.400 . S
C1208 H1193 0.960 . S
C1208 H1194 0.960 . S
C1208 H1195 0.960 . S
C1208 C1207 1.524 . S
C1209 C1206 1.403 . S
C1209 C1210 1.392 . S
C1209 C1213 1.495 . S
C1210 C1209 1.392 . S
C1210 C1211 1.385 . S
C1210 C1212 1.478 . S
C1211 H1205 0.930 . S
C1211 C1207 1.400 . S
C1211 C1210 1.385 . S
C1212 C1210 1.478 . S
C1212 C1214 1.381 . S
C1212 C1218 1.383 . S
C1213 C1209 1.495 . S
C1213 H1219 0.959 . S
C1213 H1220 0.961 . S
C1213 H1221 0.960 . S
C1214 C1212 1.381 . S
C1214 C1215 1.394 . S
C1214 H1222 0.930 . S
C1215 C1214 1.394 . S
C1215 C1216 1.383 . S
C1215 H1223 0.929 . S
C1216 C1215 1.383 . S
C1216 C1217 1.377 . S
C1217 H1201 0.930 . S
C1217 C1216 1.377 . S
C1217 C1218 1.379 . S
C1218 H1202 0.931 . S
C1218 C1212 1.383 . S
C1218 C1217 1.379 . S
H1219 C1213 0.959 . S
H1220 C1213 0.961 . S
H1221 C1213 0.960 . S
H1222 C1214 0.930 . S
H1223 C1215 0.929 . S
H1224 C1232 0.929 . S
H1225 C1234 0.930 . S
H1226 C1236 0.930 . S
H1227 C1239 0.929 . S
H1228 C1242 0.930 . S
H1229 C1244 0.960 . S
H1230 C1244 0.960 . S
H1231 C1244 0.960 . S
C1232 H1224 0.929 . S
C1232 C1233 1.377 . S
C1232 C1234 1.384 . S
C1233 C1232 1.377 . S
C1233 C1239 1.390 . S
C1234 H1225 0.930 . S
C1234 C1232 1.384 . S
C1234 C1235 1.372 . S
C1235 C1234 1.372 . S
C1235 C1236 1.400 . S
C1235 C1240 1.490 . S
C1236 H1226 0.930 . S
C1236 C1235 1.400 . S
C1236 C1239 1.386 . S
H1237 C1253 0.930 . S
H1238 C1254 0.931 . S
C1239 H1227 0.929 . S
C1239 C1233 1.390 . S
C1239 C1236 1.386 . S
C1240 C1235 1.490 . S
C1240 C1242 1.395 . S
C1240 C1243 1.403 . S
H1241 C1247 0.930 . S
C1242 H1228 0.930 . S
C1242 C1240 1.395 . S
C1242 C1245 1.403 . S
C1243 C1240 1.403 . S
C1243 C1244 1.524 . S
C1243 C1247 1.400 . S
C1244 H1229 0.960 . S
C1244 H1230 0.960 . S
C1244 H1231 0.960 . S
C1244 C1243 1.524 . S
C1245 C1242 1.403 . S
C1245 C1246 1.392 . S
C1245 C1249 1.495 . S
C1246 C1245 1.392 . S
C1246 C1247 1.385 . S
C1246 C1248 1.478 . S
C1247 H1241 0.930 . S
C1247 C1243 1.400 . S
C1247 C1246 1.385 . S
C1248 C1246 1.478 . S
C1248 C1250 1.381 . S
C1248 C1254 1.383 . S
C1249 C1245 1.495 . S
C1249 H1255 0.959 . S
C1249 H1256 0.961 . S
C1249 H1257 0.960 . S
C1250 C1248 1.381 . S
C1250 C1251 1.394 . S
C1250 H1258 0.930 . S
C1251 C1250 1.394 . S
C1251 C1252 1.383 . S
C1251 H1259 0.929 . S
C1252 C1251 1.383 . S
C1252 C1253 1.377 . S
C1253 H1237 0.930 . S
C1253 C1252 1.377 . S
C1253 C1254 1.379 . S
C1254 H1238 0.931 . S
C1254 C1248 1.383 . S
C1254 C1253 1.379 . S
H1255 C1249 0.959 . S
H1256 C1249 0.961 . S
H1257 C1249 0.960 . S
H1258 C1250 0.930 . S
H1259 C1251 0.929 . S
H1260 C1268 0.929 . S
H1261 C1270 0.930 . S
H1262 C1272 0.930 . S
H1263 C1275 0.929 . S
H1264 C1278 0.930 . S
H1265 C1280 0.960 . S
H1266 C1280 0.960 . S
H1267 C1280 0.960 . S
C1268 H1260 0.929 . S
C1268 C1269 1.377 . S
C1268 C1270 1.384 . S
C1269 C1268 1.377 . S
C1269 C1275 1.390 . S
C1270 H1261 0.930 . S
C1270 C1268 1.384 . S
C1270 C1271 1.372 . S
C1271 C1270 1.372 . S
C1271 C1272 1.400 . S
C1271 C1276 1.490 . S
C1272 H1262 0.930 . S
C1272 C1271 1.400 . S
C1272 C1275 1.386 . S
H1273 C1289 0.930 . S
H1274 C1290 0.931 . S
C1275 H1263 0.929 . S
C1275 C1269 1.390 . S
C1275 C1272 1.386 . S
C1276 C1271 1.490 . S
C1276 C1278 1.395 . S
C1276 C1279 1.403 . S
H1277 C1283 0.930 . S
C1278 H1264 0.930 . S
C1278 C1276 1.395 . S
C1278 C1281 1.403 . S
C1279 C1276 1.403 . S
C1279 C1280 1.524 . S
C1279 C1283 1.400 . S
C1280 H1265 0.960 . S
C1280 H1266 0.960 . S
C1280 H1267 0.960 . S
C1280 C1279 1.524 . S
C1281 C1278 1.403 . S
C1281 C1282 1.392 . S
C1281 C1285 1.495 . S
C1282 C1281 1.392 . S
C1282 C1283 1.385 . S
C1282 C1284 1.478 . S
C1283 H1277 0.930 . S
C1283 C1279 1.400 . S
C1283 C1282 1.385 . S
C1284 C1282 1.478 . S
C1284 C1286 1.381 . S
C1284 C1290 1.383 . S
C1285 C1281 1.495 . S
C1285 H1291 0.959 . S
C1285 H1292 0.961 . S
C1285 H1293 0.960 . S
C1286 C1284 1.381 . S
C1286 C1287 1.394 1_554 S
C1286 H1294 0.930 . S
C1287 C1286 1.394 1_556 S
C1287 C1288 1.383 . S
C1287 H1295 0.929 . S
C1288 C1287 1.383 . S
C1288 C1289 1.377 . S
C1289 H1273 0.930 . S
C1289 C1288 1.377 . S
C1289 C1290 1.379 1_556 S
C1290 H1274 0.931 . S
C1290 C1284 1.383 . S
C1290 C1289 1.379 1_554 S
H1291 C1285 0.959 . S
H1292 C1285 0.961 . S
H1293 C1285 0.960 . S
H1294 C1286 0.930 . S
H1295 C1287 0.929 . S
H1296 C1304 0.929 . S
H1297 C1306 0.930 . S
H1298 C1308 0.930 . S
H1299 C1311 0.929 . S
H1300 C1314 0.930 . S
H1301 C1316 0.960 . S
H1302 C1316 0.960 . S
H1303 C1316 0.960 . S
C1304 H1296 0.929 . S
C1304 C1305 1.377 . S
C1304 C1306 1.384 . S
C1305 C1304 1.377 . S
C1305 C1311 1.390 . S
C1306 H1297 0.930 . S
C1306 C1304 1.384 . S
C1306 C1307 1.372 . S
C1307 C1306 1.372 . S
C1307 C1308 1.400 . S
C1307 C1312 1.490 . S
C1308 H1298 0.930 . S
C1308 C1307 1.400 . S
C1308 C1311 1.386 . S
H1309 C1325 0.930 . S
H1310 C1326 0.931 . S
C1311 H1299 0.929 . S
C1311 C1305 1.390 . S
C1311 C1308 1.386 . S
C1312 C1307 1.490 . S
C1312 C1314 1.395 . S
C1312 C1315 1.403 . S
H1313 C1319 0.930 . S
C1314 H1300 0.930 . S
C1314 C1312 1.395 . S
C1314 C1317 1.403 . S
C1315 C1312 1.403 . S
C1315 C1316 1.524 . S
C1315 C1319 1.400 . S
C1316 H1301 0.960 . S
C1316 H1302 0.960 . S
C1316 H1303 0.960 . S
C1316 C1315 1.524 . S
C1317 C1314 1.403 . S
C1317 C1318 1.392 . S
C1317 C1321 1.495 . S
C1318 C1317 1.392 . S
C1318 C1319 1.385 . S
C1318 C1320 1.478 . S
C1319 H1313 0.930 . S
C1319 C1315 1.400 . S
C1319 C1318 1.385 . S
C1320 C1318 1.478 . S
C1320 C1322 1.381 . S
C1320 C1326 1.383 . S
C1321 C1317 1.495 . S
C1321 H1327 0.959 . S
C1321 H1328 0.961 . S
C1321 H1329 0.960 . S
C1322 C1320 1.381 . S
C1322 C1323 1.394 1_554 S
C1322 H1330 0.930 . S
C1323 C1322 1.394 1_556 S
C1323 C1324 1.383 . S
C1323 H1331 0.929 . S
C1324 C1323 1.383 . S
C1324 C1325 1.377 . S
C1325 H1309 0.930 . S
C1325 C1324 1.377 . S
C1325 C1326 1.379 1_556 S
C1326 H1310 0.931 . S
C1326 C1320 1.383 . S
C1326 C1325 1.379 1_554 S
H1327 C1321 0.959 . S
H1328 C1321 0.961 . S
H1329 C1321 0.960 . S
H1330 C1322 0.930 . S
H1331 C1323 0.929 . S
H1332 C1340 0.929 . S
H1333 C1342 0.930 . S
H1334 C1344 0.930 . S
H1335 C1347 0.929 . S
H1336 C1350 0.930 . S
H1337 C1352 0.960 . S
H1338 C1352 0.960 . S
H1339 C1352 0.960 . S
C1340 H1332 0.929 . S
C1340 C1341 1.377 . S
C1340 C1342 1.384 . S
C1341 C1340 1.377 . S
C1341 C1347 1.390 . S
C1342 H1333 0.930 . S
C1342 C1340 1.384 . S
C1342 C1343 1.372 . S
C1343 C1342 1.372 . S
C1343 C1344 1.400 . S
C1343 C1348 1.490 . S
C1344 H1334 0.930 . S
C1344 C1343 1.400 . S
C1344 C1347 1.386 . S
H1345 C1361 0.930 . S
H1346 C1362 0.931 . S
C1347 H1335 0.929 . S
C1347 C1341 1.390 . S
C1347 C1344 1.386 . S
C1348 C1343 1.490 . S
C1348 C1350 1.395 . S
C1348 C1351 1.403 . S
H1349 C1355 0.930 . S
C1350 H1336 0.930 . S
C1350 C1348 1.395 . S
C1350 C1353 1.403 . S
C1351 C1348 1.403 . S
C1351 C1352 1.524 . S
C1351 C1355 1.400 . S
C1352 H1337 0.960 . S
C1352 H1338 0.960 . S
C1352 H1339 0.960 . S
C1352 C1351 1.524 . S
C1353 C1350 1.403 . S
C1353 C1354 1.392 . S
C1353 C1357 1.495 . S
C1354 C1353 1.392 . S
C1354 C1355 1.385 . S
C1354 C1356 1.478 . S
C1355 H1349 0.930 . S
C1355 C1351 1.400 . S
C1355 C1354 1.385 . S
C1356 C1354 1.478 . S
C1356 C1358 1.381 . S
C1356 C1362 1.383 . S
C1357 C1353 1.495 . S
C1357 H1363 0.959 . S
C1357 H1364 0.961 . S
C1357 H1365 0.960 . S
C1358 C1356 1.381 . S
C1358 C1359 1.394 1_554 S
C1358 H1366 0.930 . S
C1359 C1358 1.394 1_556 S
C1359 C1360 1.383 . S
C1359 H1367 0.929 . S
C1360 C1359 1.383 . S
C1360 C1361 1.377 . S
C1361 H1345 0.930 . S
C1361 C1360 1.377 . S
C1361 C1362 1.379 1_556 S
C1362 H1346 0.931 . S
C1362 C1356 1.383 . S
C1362 C1361 1.379 1_554 S
H1363 C1357 0.959 . S
H1364 C1357 0.961 . S
H1365 C1357 0.960 . S
H1366 C1358 0.930 . S
H1367 C1359 0.929 . S
H1368 C1376 0.929 . S
H1369 C1378 0.930 . S
H1370 C1380 0.930 . S
H1371 C1383 0.929 . S
H1372 C1386 0.930 . S
H1373 C1388 0.960 . S
H1374 C1388 0.960 . S
H1375 C1388 0.960 . S
C1376 H1368 0.929 . S
C1376 C1377 1.377 . S
C1376 C1378 1.384 . S
C1377 C1376 1.377 . S
C1377 C1383 1.390 . S
C1378 H1369 0.930 . S
C1378 C1376 1.384 . S
C1378 C1379 1.372 . S
C1379 C1378 1.372 . S
C1379 C1380 1.400 . S
C1379 C1384 1.490 . S
C1380 H1370 0.930 . S
C1380 C1379 1.400 . S
C1380 C1383 1.386 . S
H1381 C1397 0.930 . S
H1382 C1398 0.931 . S
C1383 H1371 0.929 . S
C1383 C1377 1.390 . S
C1383 C1380 1.386 . S
C1384 C1379 1.490 . S
C1384 C1386 1.395 . S
C1384 C1387 1.403 . S
H1385 C1391 0.930 . S
C1386 H1372 0.930 . S
C1386 C1384 1.395 . S
C1386 C1389 1.403 . S
C1387 C1384 1.403 . S
C1387 C1388 1.524 . S
C1387 C1391 1.400 . S
C1388 H1373 0.960 . S
C1388 H1374 0.960 . S
C1388 H1375 0.960 . S
C1388 C1387 1.524 . S
C1389 C1386 1.403 . S
C1389 C1390 1.392 . S
C1389 C1393 1.495 . S
C1390 C1389 1.392 . S
C1390 C1391 1.385 . S
C1390 C1392 1.478 . S
C1391 H1385 0.930 . S
C1391 C1387 1.400 . S
C1391 C1390 1.385 . S
C1392 C1390 1.478 . S
C1392 C1394 1.381 . S
C1392 C1398 1.383 . S
C1393 C1389 1.495 . S
C1393 H1399 0.959 . S
C1393 H1400 0.961 . S
C1393 H1401 0.960 . S
C1394 C1392 1.381 . S
C1394 C1395 1.394 . S
C1394 H1402 0.930 . S
C1395 C1394 1.394 . S
C1395 C1396 1.383 . S
C1395 H1403 0.929 . S
C1396 C1395 1.383 . S
C1396 C1397 1.377 . S
C1397 H1381 0.930 . S
C1397 C1396 1.377 . S
C1397 C1398 1.379 . S
C1398 H1382 0.931 . S
C1398 C1392 1.383 . S
C1398 C1397 1.379 . S
H1399 C1393 0.959 . S
H1400 C1393 0.961 . S
H1401 C1393 0.960 . S
H1402 C1394 0.930 . S
H1403 C1395 0.929 . S
H1404 C1412 0.929 . S
H1405 C1414 0.930 . S
H1406 C1416 0.930 . S
H1407 C1419 0.929 . S
H1408 C1422 0.930 . S
H1409 C1424 0.960 . S
H1410 C1424 0.960 . S
H1411 C1424 0.960 . S
C1412 H1404 0.929 . S
C1412 C1413 1.377 . S
C1412 C1414 1.384 . S
C1413 C1412 1.377 . S
C1413 C1419 1.390 . S
C1414 H1405 0.930 . S
C1414 C1412 1.384 . S
C1414 C1415 1.372 . S
C1415 C1414 1.372 . S
C1415 C1416 1.400 . S
C1415 C1420 1.490 . S
C1416 H1406 0.930 . S
C1416 C1415 1.400 . S
C1416 C1419 1.386 . S
H1417 C1433 0.930 . S
H1418 C1434 0.931 . S
C1419 H1407 0.929 . S
C1419 C1413 1.390 . S
C1419 C1416 1.386 . S
C1420 C1415 1.490 . S
C1420 C1422 1.395 . S
C1420 C1423 1.403 . S
H1421 C1427 0.930 . S
C1422 H1408 0.930 . S
C1422 C1420 1.395 . S
C1422 C1425 1.403 . S
C1423 C1420 1.403 . S
C1423 C1424 1.524 . S
C1423 C1427 1.400 . S
C1424 H1409 0.960 . S
C1424 H1410 0.960 . S
C1424 H1411 0.960 . S
C1424 C1423 1.524 . S
C1425 C1422 1.403 . S
C1425 C1426 1.392 . S
C1425 C1429 1.495 . S
C1426 C1425 1.392 . S
C1426 C1427 1.385 . S
C1426 C1428 1.478 . S
C1427 H1421 0.930 . S
C1427 C1423 1.400 . S
C1427 C1426 1.385 . S
C1428 C1426 1.478 . S
C1428 C1430 1.381 . S
C1428 C1434 1.383 . S
C1429 C1425 1.495 . S
C1429 H1435 0.959 . S
C1429 H1436 0.961 . S
C1429 H1437 0.960 . S
C1430 C1428 1.381 . S
C1430 C1431 1.394 . S
C1430 H1438 0.930 . S
C1431 C1430 1.394 . S
C1431 C1432 1.383 . S
C1431 H1439 0.929 . S
C1432 C1431 1.383 . S
C1432 C1433 1.377 . S
C1433 H1417 0.930 . S
C1433 C1432 1.377 . S
C1433 C1434 1.379 . S
C1434 H1418 0.931 . S
C1434 C1428 1.383 . S
C1434 C1433 1.379 . S
H1435 C1429 0.959 . S
H1436 C1429 0.961 . S
H1437 C1429 0.960 . S
H1438 C1430 0.930 . S
H1439 C1431 0.929 . S
H1440 C1448 0.929 . S
H1441 C1450 0.930 . S
H1442 C1452 0.930 . S
H1443 C1455 0.929 . S
H1444 C1458 0.930 . S
H1445 C1460 0.960 . S
H1446 C1460 0.960 . S
H1447 C1460 0.960 . S
C1448 H1440 0.929 . S
C1448 C1449 1.377 . S
C1448 C1450 1.384 . S
C1449 C1448 1.377 . S
C1449 C1455 1.390 . S
C1450 H1441 0.930 . S
C1450 C1448 1.384 . S
C1450 C1451 1.372 . S
C1451 C1450 1.372 . S
C1451 C1452 1.400 . S
C1451 C1456 1.490 . S
C1452 H1442 0.930 . S
C1452 C1451 1.400 . S
C1452 C1455 1.386 . S
H1453 C1469 0.930 . S
H1454 C1470 0.931 . S
C1455 H1443 0.929 . S
C1455 C1449 1.390 . S
C1455 C1452 1.386 . S
C1456 C1451 1.490 . S
C1456 C1458 1.395 . S
C1456 C1459 1.403 . S
H1457 C1463 0.930 . S
C1458 H1444 0.930 . S
C1458 C1456 1.395 . S
C1458 C1461 1.403 . S
C1459 C1456 1.403 . S
C1459 C1460 1.524 . S
C1459 C1463 1.400 . S
C1460 H1445 0.960 . S
C1460 H1446 0.960 . S
C1460 H1447 0.960 . S
C1460 C1459 1.524 . S
C1461 C1458 1.403 . S
C1461 C1462 1.392 . S
C1461 C1465 1.495 . S
C1462 C1461 1.392 . S
C1462 C1463 1.385 . S
C1462 C1464 1.478 . S
C1463 H1457 0.930 . S
C1463 C1459 1.400 . S
C1463 C1462 1.385 . S
C1464 C1462 1.478 . S
C1464 C1466 1.381 . S
C1464 C1470 1.383 . S
C1465 C1461 1.495 . S
C1465 H1471 0.959 . S
C1465 H1472 0.961 . S
C1465 H1473 0.960 . S
C1466 C1464 1.381 . S
C1466 C1467 1.394 . S
C1466 H1474 0.930 . S
C1467 C1466 1.394 . S
C1467 C1468 1.383 . S
C1467 H1475 0.929 . S
C1468 C1467 1.383 . S
C1468 C1469 1.377 . S
C1469 H1453 0.930 . S
C1469 C1468 1.377 . S
C1469 C1470 1.379 . S
C1470 H1454 0.931 . S
C1470 C1464 1.383 . S
C1470 C1469 1.379 . S
H1471 C1465 0.959 . S
H1472 C1465 0.961 . S
H1473 C1465 0.960 . S
H1474 C1466 0.930 . S
H1475 C1467 0.929 . S
H1476 C1484 0.929 . S
H1477 C1486 0.930 . S
H1478 C1488 0.930 . S
H1479 C1491 0.929 . S
H1480 C1494 0.930 . S
H1481 C1496 0.960 . S
H1482 C1496 0.960 . S
H1483 C1496 0.960 . S
C1484 H1476 0.929 . S
C1484 C1485 1.377 . S
C1484 C1486 1.384 1_554 S
C1485 C1484 1.377 . S
C1485 C1491 1.390 . S
C1486 H1477 0.930 . S
C1486 C1484 1.384 1_556 S
C1486 C1487 1.372 . S
C1487 C1486 1.372 . S
C1487 C1488 1.400 . S
C1487 C1492 1.490 . S
C1488 H1478 0.930 . S
C1488 C1487 1.400 . S
C1488 C1491 1.386 1_556 S
H1489 C1505 0.930 . S
H1490 C1506 0.931 . S
C1491 H1479 0.929 . S
C1491 C1485 1.390 . S
C1491 C1488 1.386 1_554 S
C1492 C1487 1.490 . S
C1492 C1494 1.395 . S
C1492 C1495 1.403 . S
H1493 C1499 0.930 . S
C1494 H1480 0.930 . S
C1494 C1492 1.395 . S
C1494 C1497 1.403 . S
C1495 C1492 1.403 . S
C1495 C1496 1.524 . S
C1495 C1499 1.400 . S
C1496 H1481 0.960 . S
C1496 H1482 0.960 . S
C1496 H1483 0.960 . S
C1496 C1495 1.524 . S
C1497 C1494 1.403 . S
C1497 C1498 1.392 . S
C1497 C1501 1.495 . S
C1498 C1497 1.392 . S
C1498 C1499 1.385 . S
C1498 C1500 1.478 . S
C1499 H1493 0.930 . S
C1499 C1495 1.400 . S
C1499 C1498 1.385 . S
C1500 C1498 1.478 . S
C1500 C1502 1.381 . S
C1500 C1506 1.383 . S
C1501 C1497 1.495 . S
C1501 H1507 0.959 . S
C1501 H1508 0.961 . S
C1501 H1509 0.960 . S
C1502 C1500 1.381 . S
C1502 C1503 1.394 . S
C1502 H1510 0.930 . S
C1503 C1502 1.394 . S
C1503 C1504 1.383 . S
C1503 H1511 0.929 . S
C1504 C1503 1.383 . S
C1504 C1505 1.377 . S
C1505 H1489 0.930 . S
C1505 C1504 1.377 . S
C1505 C1506 1.379 . S
C1506 H1490 0.931 . S
C1506 C1500 1.383 . S
C1506 C1505 1.379 . S
H1507 C1501 0.959 . S
H1508 C1501 0.961 . S
H1509 C1501 0.960 . S
H1510 C1502 0.930 . S
H1511 C1503 0.929 . S
H1512 C1520 0.929 . S
H1513 C1522 0.930 . S
H1514 C1524 0.930 . S
H1515 C1527 0.929 . S
H1516 C1530 0.930 . S
H1517 C1532 0.960 . S
H1518 C1532 0.960 . S
H1519 C1532 0.960 . S
C1520 H1512 0.929 . S
C1520 C1521 1.377 . S
C1520 C1522 1.384 1_554 S
C1521 C1520 1.377 . S
C1521 C1527 1.390 . S
C1522 H1513 0.930 . S
C1522 C1520 1.384 1_556 S
C1522 C1523 1.372 . S
C1523 C1522 1.372 . S
C1523 C1524 1.400 . S
C1523 C1528 1.490 . S
C1524 H1514 0.930 . S
C1524 C1523 1.400 . S
C1524 C1527 1.386 1_556 S
H1525 C1541 0.930 . S
H1526 C1542 0.931 . S
C1527 H1515 0.929 . S
C1527 C1521 1.390 . S
C1527 C1524 1.386 1_554 S
C1528 C1523 1.490 . S
C1528 C1530 1.395 . S
C1528 C1531 1.403 . S
H1529 C1535 0.930 . S
C1530 H1516 0.930 . S
C1530 C1528 1.395 . S
C1530 C1533 1.403 . S
C1531 C1528 1.403 . S
C1531 C1532 1.524 . S
C1531 C1535 1.400 . S
C1532 H1517 0.960 . S
C1532 H1518 0.960 . S
C1532 H1519 0.960 . S
C1532 C1531 1.524 . S
C1533 C1530 1.403 . S
C1533 C1534 1.392 . S
C1533 C1537 1.495 . S
C1534 C1533 1.392 . S
C1534 C1535 1.385 . S
C1534 C1536 1.478 . S
C1535 H1529 0.930 . S
C1535 C1531 1.400 . S
C1535 C1534 1.385 . S
C1536 C1534 1.478 . S
C1536 C1538 1.381 . S
C1536 C1542 1.383 . S
C1537 C1533 1.495 . S
C1537 H1543 0.959 . S
C1537 H1544 0.961 . S
C1537 H1545 0.960 . S
C1538 C1536 1.381 . S
C1538 C1539 1.394 . S
C1538 H1546 0.930 . S
C1539 C1538 1.394 . S
C1539 C1540 1.383 . S
C1539 H1547 0.929 . S
C1540 C1539 1.383 . S
C1540 C1541 1.377 . S
C1541 H1525 0.930 . S
C1541 C1540 1.377 . S
C1541 C1542 1.379 . S
C1542 H1526 0.931 . S
C1542 C1536 1.383 . S
C1542 C1541 1.379 . S
H1543 C1537 0.959 . S
H1544 C1537 0.961 . S
H1545 C1537 0.960 . S
H1546 C1538 0.930 . S
H1547 C1539 0.929 . S
H1548 C1556 0.929 . S
H1549 C1558 0.930 . S
H1550 C1560 0.930 . S
H1551 C1563 0.929 . S
H1552 C1566 0.930 . S
H1553 C1568 0.960 . S
H1554 C1568 0.960 . S
H1555 C1568 0.960 . S
C1556 H1548 0.929 . S
C1556 C1557 1.377 . S
C1556 C1558 1.384 . S
C1557 C1556 1.377 . S
C1557 C1563 1.390 . S
C1558 H1549 0.930 . S
C1558 C1556 1.384 . S
C1558 C1559 1.372 . S
C1559 C1558 1.372 . S
C1559 C1560 1.400 . S
C1559 C1564 1.490 . S
C1560 H1550 0.930 . S
C1560 C1559 1.400 . S
C1560 C1563 1.386 . S
H1561 C1577 0.930 . S
H1562 C1578 0.931 . S
C1563 H1551 0.929 . S
C1563 C1557 1.390 . S
C1563 C1560 1.386 . S
C1564 C1559 1.490 . S
C1564 C1566 1.395 . S
C1564 C1567 1.403 . S
H1565 C1571 0.930 . S
C1566 H1552 0.930 . S
C1566 C1564 1.395 . S
C1566 C1569 1.403 . S
C1567 C1564 1.403 . S
C1567 C1568 1.524 . S
C1567 C1571 1.400 . S
C1568 H1553 0.960 . S
C1568 H1554 0.960 . S
C1568 H1555 0.960 . S
C1568 C1567 1.524 . S
C1569 C1566 1.403 . S
C1569 C1570 1.392 . S
C1569 C1573 1.495 . S
C1570 C1569 1.392 . S
C1570 C1571 1.385 . S
C1570 C1572 1.478 . S
C1571 H1565 0.930 . S
C1571 C1567 1.400 . S
C1571 C1570 1.385 . S
C1572 C1570 1.478 . S
C1572 C1574 1.381 . S
C1572 C1578 1.383 . S
C1573 C1569 1.495 . S
C1573 H1579 0.959 . S
C1573 H1580 0.961 . S
C1573 H1581 0.960 . S
C1574 C1572 1.381 . S
C1574 C1575 1.394 1_556 S
C1574 H1582 0.930 . S
C1575 C1574 1.394 1_554 S
C1575 C1576 1.383 . S
C1575 H1583 0.929 . S
C1576 C1575 1.383 . S
C1576 C1577 1.377 . S
C1577 H1561 0.930 . S
C1577 C1576 1.377 . S
C1577 C1578 1.379 1_554 S
C1578 H1562 0.931 . S
C1578 C1572 1.383 . S
C1578 C1577 1.379 1_556 S
H1579 C1573 0.959 . S
H1580 C1573 0.961 . S
H1581 C1573 0.960 . S
H1582 C1574 0.930 . S
H1583 C1575 0.929 . S
H1584 C1592 0.929 . S
H1585 C1594 0.922 . S
H1586 C1596 0.930 . S
H1587 C1599 0.929 . S
H1588 C1602 0.930 . S
H1589 C1604 0.960 . S
H1590 C1604 0.960 . S
H1591 C1604 0.960 . S
C1592 H1584 0.929 . S
C1592 C1593 1.377 . S
C1592 C1594 1.384 . S
C1593 C1592 1.377 . S
C1593 C1599 1.390 . S
C1594 H1585 0.922 . S
C1594 C1592 1.384 . S
C1594 C1595 1.372 . S
C1595 C1594 1.372 . S
C1595 C1596 1.400 . S
C1595 C1600 1.490 . S
C1596 H1586 0.930 . S
C1596 C1595 1.400 . S
C1596 C1599 1.386 . S
H1597 C1613 0.930 . S
H1598 C1614 0.931 . S
C1599 H1587 0.929 . S
C1599 C1593 1.390 . S
C1599 C1596 1.386 . S
C1600 C1595 1.490 . S
C1600 C1602 1.395 1_455 S
C1600 C1603 1.403 . S
H1601 C1607 0.930 . S
C1602 H1588 0.930 . S
C1602 C1600 1.395 1_655 S
C1602 C1605 1.403 . S
C1603 C1600 1.403 . S
C1603 C1604 1.524 . S
C1603 C1607 1.400 . S
C1604 H1589 0.960 . S
C1604 H1590 0.960 . S
C1604 H1591 0.960 . S
C1604 C1603 1.524 . S
C1605 C1602 1.403 . S
C1605 C1606 1.392 . S
C1605 C1609 1.495 . S
C1606 C1605 1.392 . S
C1606 C1607 1.385 1_655 S
C1606 C1608 1.478 . S
C1607 H1601 0.930 . S
C1607 C1603 1.400 . S
C1607 C1606 1.385 1_455 S
C1608 C1606 1.478 . S
C1608 C1610 1.381 . S
C1608 C1614 1.383 . S
C1609 C1605 1.495 . S
C1609 H1615 0.959 . S
C1609 H1616 0.961 . S
C1609 H1617 0.960 . S
C1610 C1608 1.381 . S
C1610 C1611 1.394 . S
C1610 H1618 0.930 . S
C1611 C1610 1.394 . S
C1611 C1612 1.383 . S
C1611 H1619 0.929 . S
C1612 C1611 1.383 . S
C1612 C1613 1.377 . S
C1613 H1597 0.930 . S
C1613 C1612 1.377 . S
C1613 C1614 1.379 . S
C1614 H1598 0.931 . S
C1614 C1608 1.383 . S
C1614 C1613 1.379 . S
H1615 C1609 0.959 . S
H1616 C1609 0.961 . S
H1617 C1609 0.960 . S
H1618 C1610 0.930 . S
H1619 C1611 0.929 . S
H1620 C1628 0.929 . S
H1621 C1630 0.930 . S
H1622 C1632 0.930 . S
H1623 C1635 0.929 . S
H1624 C1638 0.930 . S
H1625 C1640 0.960 . S
H1626 C1640 0.960 . S
H1627 C1640 0.960 . S
C1628 H1620 0.929 . S
C1628 C1629 1.377 . S
C1628 C1630 1.384 . S
C1629 C1628 1.377 . S
C1629 C1635 1.390 . S
C1630 H1621 0.930 . S
C1630 C1628 1.384 . S
C1630 C1631 1.372 . S
C1631 C1630 1.372 . S
C1631 C1632 1.400 . S
C1631 C1636 1.490 . S
C1632 H1622 0.930 . S
C1632 C1631 1.400 . S
C1632 C1635 1.386 . S
H1633 C1649 0.930 . S
H1634 C1650 0.931 . S
C1635 H1623 0.929 . S
C1635 C1629 1.390 . S
C1635 C1632 1.386 . S
C1636 C1631 1.490 . S
C1636 C1638 1.395 . S
C1636 C1639 1.403 . S
H1637 C1643 0.930 . S
C1638 H1624 0.930 . S
C1638 C1636 1.395 . S
C1638 C1641 1.403 . S
C1639 C1636 1.403 . S
C1639 C1640 1.524 . S
C1639 C1643 1.400 . S
C1640 H1625 0.960 . S
C1640 H1626 0.960 . S
C1640 H1627 0.960 . S
C1640 C1639 1.524 . S
C1641 C1638 1.403 . S
C1641 C1642 1.392 . S
C1641 C1645 1.495 . S
C1642 C1641 1.392 . S
C1642 C1643 1.385 . S
C1642 C1644 1.478 . S
C1643 H1637 0.930 . S
C1643 C1639 1.400 . S
C1643 C1642 1.385 . S
C1644 C1642 1.478 . S
C1644 C1646 1.381 . S
C1644 C1650 1.383 . S
C1645 C1641 1.495 . S
C1645 H1651 0.959 . S
C1645 H1652 0.961 . S
C1645 H1653 0.960 . S
C1646 C1644 1.381 . S
C1646 C1647 1.394 . S
C1646 H1654 0.930 . S
C1647 C1646 1.394 . S
C1647 C1648 1.383 . S
C1647 H1655 0.929 . S
C1648 C1647 1.383 . S
C1648 C1649 1.377 . S
C1649 H1633 0.930 . S
C1649 C1648 1.377 . S
C1649 C1650 1.379 . S
C1650 H1634 0.931 . S
C1650 C1644 1.383 . S
C1650 C1649 1.379 . S
H1651 C1645 0.959 . S
H1652 C1645 0.961 . S
H1653 C1645 0.960 . S
H1654 C1646 0.930 . S
H1655 C1647 0.929 . S
H1656 C1664 0.940 . S
H1657 C1666 0.930 1_565 S
H1658 C1668 0.930 . S
H1659 C1671 0.929 . S
H1660 C1674 0.930 . S
H1661 C1676 0.915 1_565 S
H1662 C1676 0.960 1_565 S
H1663 C1676 0.960 . S
C1664 H1656 0.940 . S
C1664 C1665 1.377 . S
C1664 C1666 1.384 . S
C1665 C1664 1.377 . S
C1665 C1671 1.390 . S
C1666 H1657 0.930 1_545 S
C1666 C1664 1.384 . S
C1666 C1667 1.372 . S
C1667 C1666 1.372 . S
C1667 C1668 1.400 . S
C1667 C1672 1.490 . S
C1668 H1658 0.930 . S
C1668 C1667 1.400 . S
C1668 C1671 1.386 . S
H1669 C1685 0.923 1_545 S
H1670 C1686 0.931 1_545 S
C1671 H1659 0.929 . S
C1671 C1665 1.390 . S
C1671 C1668 1.386 . S
C1672 C1667 1.490 . S
C1672 C1674 1.395 . S
C1672 C1675 1.442 . S
H1673 C1679 0.930 . S
C1674 H1660 0.930 . S
C1674 C1672 1.395 . S
C1674 C1677 1.403 1_545 S
C1675 C1672 1.442 . S
C1675 C1676 1.498 . S
C1675 C1679 1.388 1_545 S
C1676 H1661 0.915 1_545 S
C1676 H1662 0.960 1_545 S
C1676 H1663 0.960 . S
C1676 C1675 1.498 . S
C1677 C1674 1.403 1_565 S
C1677 C1678 1.392 . S
C1677 C1681 1.495 . S
C1678 C1677 1.392 . S
C1678 C1679 1.385 . S
C1678 C1680 1.478 . S
C1679 H1673 0.930 . S
C1679 C1675 1.388 1_565 S
C1679 C1678 1.385 . S
C1680 C1678 1.478 . S
C1680 C1682 1.381 . S
C1680 C1686 1.383 . S
C1681 C1677 1.495 . S
C1681 H1687 0.959 . S
C1681 H1688 0.961 1_565 S
C1681 H1689 0.960 . S
C1682 C1680 1.381 . S
C1682 C1683 1.394 . S
C1682 H1690 0.930 . S
C1683 C1682 1.394 . S
C1683 C1684 1.383 . S
C1683 H1691 0.929 . S
C1684 C1683 1.383 . S
C1684 C1685 1.377 . S
C1685 H1669 0.923 1_565 S
C1685 C1684 1.377 . S
C1685 C1686 1.379 . S
C1686 H1670 0.931 1_565 S
C1686 C1680 1.383 . S
C1686 C1685 1.379 . S
H1687 C1681 0.959 . S
H1688 C1681 0.961 1_545 S
H1689 C1681 0.960 . S
H1690 C1682 0.930 . S
H1691 C1683 0.929 . S
H1692 C1700 0.929 . S
H1693 C1702 0.930 1_545 S
H1694 C1704 0.930 . S
H1695 C1707 0.929 . S
H1696 C1710 0.930 . S
H1697 C1712 0.960 . S
H1698 C1712 0.960 . S
H1699 C1712 0.960 1_565 S
C1700 H1692 0.929 . S
C1700 C1701 1.377 . S
C1700 C1702 1.384 . S
C1701 C1700 1.377 . S
C1701 C1707 1.390 . S
C1702 H1693 0.930 1_565 S
C1702 C1700 1.384 . S
C1702 C1703 1.372 . S
C1703 C1702 1.372 . S
C1703 C1704 1.400 . S
C1703 C1708 1.490 . S
C1704 H1694 0.930 . S
C1704 C1703 1.400 . S
C1704 C1707 1.386 . S
H1705 C1721 0.930 . S
H1706 C1722 0.931 1_565 S
C1707 H1695 0.929 . S
C1707 C1701 1.390 . S
C1707 C1704 1.386 . S
C1708 C1703 1.490 . S
C1708 C1710 1.395 . S
C1708 C1711 1.403 1_565 S
H1709 C1715 0.930 . S
C1710 H1696 0.930 . S
C1710 C1708 1.395 . S
C1710 C1713 1.412 . S
C1711 C1708 1.403 1_545 S
C1711 C1712 1.524 . S
C1711 C1715 1.400 . S
C1712 H1697 0.960 . S
C1712 H1698 0.960 . S
C1712 H1699 0.960 1_545 S
C1712 C1711 1.524 . S
C1713 C1710 1.412 . S
C1713 C1714 1.396 1_565 S
C1713 C1717 1.485 . S
C1714 C1713 1.396 1_545 S
C1714 C1715 1.385 . S
C1714 C1716 1.478 . S
C1715 H1709 0.930 . S
C1715 C1711 1.400 . S
C1715 C1714 1.385 . S
C1716 C1714 1.478 . S
C1716 C1718 1.381 . S
C1716 C1722 1.383 . S
C1717 C1713 1.485 . S
C1717 H1723 0.959 . S
C1717 H1724 0.961 . S
C1717 H1725 0.960 1_565 S
C1718 C1716 1.381 . S
C1718 C1719 1.394 . S
C1718 H1726 0.930 . S
C1719 C1718 1.394 . S
C1719 C1720 1.383 . S
C1719 H1727 0.929 . S
C1720 C1719 1.383 . S
C1720 C1721 1.377 . S
C1721 H1705 0.930 . S
C1721 C1720 1.377 . S
C1721 C1722 1.379 . S
C1722 H1706 0.931 1_545 S
C1722 C1716 1.383 . S
C1722 C1721 1.379 . S
H1723 C1717 0.959 . S
H1724 C1717 0.961 . S
H1725 C1717 0.960 1_545 S
H1726 C1718 0.930 . S
H1727 C1719 0.929 . S
H1728 C1736 0.929 . S
H1729 C1738 0.930 . S
H1730 C1740 0.930 1_455 S
H1731 C1743 0.929 . S
H1732 C1746 0.930 . S
H1733 C1748 0.960 . S
H1734 C1748 0.960 . S
H1735 C1748 0.919 1_455 S
C1736 H1728 0.929 . S
C1736 C1737 1.377 . S
C1736 C1738 1.384 . S
C1737 C1736 1.377 . S
C1737 C1743 1.390 . S
C1738 H1729 0.930 . S
C1738 C1736 1.384 . S
C1738 C1739 1.372 . S
C1739 C1738 1.372 . S
C1739 C1740 1.400 . S
C1739 C1744 1.490 . S
C1740 H1730 0.930 1_655 S
C1740 C1739 1.400 . S
C1740 C1743 1.386 . S
H1741 C1757 0.930 . S
H1742 C1758 0.931 . S
C1743 H1731 0.929 . S
C1743 C1737 1.390 . S
C1743 C1740 1.386 . S
C1744 C1739 1.490 . S
C1744 C1746 1.395 . S
C1744 C1747 1.403 . S
H1745 C1751 0.930 . S
C1746 H1732 0.930 . S
C1746 C1744 1.395 . S
C1746 C1749 1.403 1_655 S
C1747 C1744 1.403 . S
C1747 C1748 1.524 . S
C1747 C1751 1.400 1_655 S
C1748 H1733 0.960 . S
C1748 H1734 0.960 . S
C1748 H1735 0.919 1_655 S
C1748 C1747 1.524 . S
C1749 C1746 1.403 1_455 S
C1749 C1750 1.392 . S
C1749 C1753 1.495 . S
C1750 C1749 1.392 . S
C1750 C1751 1.385 . S
C1750 C1752 1.478 . S
C1751 H1745 0.930 . S
C1751 C1747 1.400 1_455 S
C1751 C1750 1.385 . S
C1752 C1750 1.478 . S
C1752 C1754 1.381 . S
C1752 C1758 1.383 . S
C1753 C1749 1.495 . S
C1753 H1759 1.008 . S
C1753 H1760 0.961 . S
C1753 H1761 0.960 1_455 S
C1754 C1752 1.381 . S
C1754 C1755 1.394 . S
C1754 H1762 0.930 1_455 S
C1755 C1754 1.394 . S
C1755 C1756 1.383 . S
C1755 H1763 0.914 1_455 S
C1756 C1755 1.383 . S
C1756 C1757 1.377 . S
C1757 H1741 0.930 . S
C1757 C1756 1.377 . S
C1757 C1758 1.379 . S
C1758 H1742 0.931 . S
C1758 C1752 1.383 . S
C1758 C1757 1.379 . S
H1759 C1753 1.008 . S
H1760 C1753 0.961 . S
H1761 C1753 0.960 1_655 S
H1762 C1754 0.930 1_655 S
H1763 C1755 0.914 1_655 S
H1764 C1772 0.929 . S
H1765 C1774 0.930 . S
H1766 C1776 0.930 . S
H1767 C1779 0.929 . S
H1768 C1782 0.930 . S
H1769 C1784 0.960 . S
H1770 C1784 0.960 . S
H1771 C1784 0.960 . S
C1772 H1764 0.929 . S
C1772 C1773 1.377 . S
C1772 C1774 1.384 . S
C1773 C1772 1.377 . S
C1773 C1779 1.390 . S
C1774 H1765 0.930 . S
C1774 C1772 1.384 . S
C1774 C1775 1.372 . S
C1775 C1774 1.372 . S
C1775 C1776 1.400 . S
C1775 C1780 1.490 . S
C1776 H1766 0.930 . S
C1776 C1775 1.400 . S
C1776 C1779 1.386 . S
H1777 C1793 0.930 . S
H1778 C1794 0.931 . S
C1779 H1767 0.929 . S
C1779 C1773 1.390 . S
C1779 C1776 1.386 . S
C1780 C1775 1.490 . S
C1780 C1782 1.395 . S
C1780 C1783 1.403 . S
H1781 C1787 0.930 . S
C1782 H1768 0.930 . S
C1782 C1780 1.395 . S
C1782 C1785 1.403 . S
C1783 C1780 1.403 . S
C1783 C1784 1.524 . S
C1783 C1787 1.400 . S
C1784 H1769 0.960 . S
C1784 H1770 0.960 . S
C1784 H1771 0.960 . S
C1784 C1783 1.524 . S
C1785 C1782 1.403 . S
C1785 C1786 1.392 . S
C1785 C1789 1.495 . S
C1786 C1785 1.392 . S
C1786 C1787 1.385 . S
C1786 C1788 1.478 . S
C1787 H1781 0.930 . S
C1787 C1783 1.400 . S
C1787 C1786 1.385 . S
C1788 C1786 1.478 . S
C1788 C1790 1.381 . S
C1788 C1794 1.383 . S
C1789 C1785 1.495 . S
C1789 H1795 0.959 . S
C1789 H1796 0.961 . S
C1789 H1797 0.960 . S
C1790 C1788 1.381 . S
C1790 C1791 1.394 . S
C1790 H1798 0.930 . S
C1791 C1790 1.394 . S
C1791 C1792 1.383 . S
C1791 H1799 0.929 . S
C1792 C1791 1.383 . S
C1792 C1793 1.377 . S
C1793 H1777 0.930 . S
C1793 C1792 1.377 . S
C1793 C1794 1.379 . S
C1794 H1778 0.931 . S
C1794 C1788 1.383 . S
C1794 C1793 1.379 . S
H1795 C1789 0.959 . S
H1796 C1789 0.961 . S
H1797 C1789 0.960 . S
H1798 C1790 0.930 . S
H1799 C1791 0.929 . S
H1800 C1808 0.929 . S
H1801 C1810 0.930 . S
H1802 C1812 0.930 . S
H1803 C1815 0.929 . S
H1804 C1818 0.930 . S
H1805 C1820 0.960 . S
H1806 C1820 0.960 . S
H1807 C1820 0.960 . S
C1808 H1800 0.929 . S
C1808 C1809 1.377 . S
C1808 C1810 1.384 . S
C1809 C1808 1.377 . S
C1809 C1815 1.390 . S
C1810 H1801 0.930 . S
C1810 C1808 1.384 . S
C1810 C1811 1.372 . S
C1811 C1810 1.372 . S
C1811 C1812 1.400 . S
C1811 C1816 1.490 . S
C1812 H1802 0.930 . S
C1812 C1811 1.400 . S
C1812 C1815 1.386 . S
H1813 C1829 0.930 . S
H1814 C1830 0.931 . S
C1815 H1803 0.929 . S
C1815 C1809 1.390 . S
C1815 C1812 1.386 . S
C1816 C1811 1.490 . S
C1816 C1818 1.395 . S
C1816 C1819 1.403 . S
H1817 C1823 0.930 . S
C1818 H1804 0.930 . S
C1818 C1816 1.395 . S
C1818 C1821 1.403 . S
C1819 C1816 1.403 . S
C1819 C1820 1.524 . S
C1819 C1823 1.400 . S
C1820 H1805 0.960 . S
C1820 H1806 0.960 . S
C1820 H1807 0.960 . S
C1820 C1819 1.524 . S
C1821 C1818 1.403 . S
C1821 C1822 1.392 . S
C1821 C1825 1.495 . S
C1822 C1821 1.392 . S
C1822 C1823 1.385 . S
C1822 C1824 1.478 . S
C1823 H1817 0.930 . S
C1823 C1819 1.400 . S
C1823 C1822 1.385 . S
C1824 C1822 1.478 . S
C1824 C1826 1.381 . S
C1824 C1830 1.383 . S
C1825 C1821 1.495 . S
C1825 H1831 0.959 . S
C1825 H1832 0.961 . S
C1825 H1833 0.960 . S
C1826 C1824 1.381 . S
C1826 C1827 1.394 . S
C1826 H1834 0.930 . S
C1827 C1826 1.394 . S
C1827 C1828 1.383 . S
C1827 H1835 0.929 . S
C1828 C1827 1.383 . S
C1828 C1829 1.377 . S
C1829 H1813 0.930 . S
C1829 C1828 1.377 . S
C1829 C1830 1.379 . S
C1830 H1814 0.931 . S
C1830 C1824 1.383 . S
C1830 C1829 1.379 . S
H1831 C1825 0.959 . S
H1832 C1825 0.961 . S
H1833 C1825 0.960 . S
H1834 C1826 0.930 . S
H1835 C1827 0.929 . S
H1836 C1844 0.929 . S
H1837 C1846 0.930 . S
H1838 C1848 0.930 . S
H1839 C1851 0.929 . S
H1840 C1854 0.930 . S
H1841 C1856 0.960 . S
H1842 C1856 0.960 . S
H1843 C1856 0.960 . S
C1844 H1836 0.929 . S
C1844 C1845 1.377 . S
C1844 C1846 1.384 . S
C1845 C1844 1.377 . S
C1845 C1851 1.390 . S
C1846 H1837 0.930 . S
C1846 C1844 1.384 . S
C1846 C1847 1.372 . S
C1847 C1846 1.372 . S
C1847 C1848 1.400 . S
C1847 C1852 1.490 . S
C1848 H1838 0.930 . S
C1848 C1847 1.400 . S
C1848 C1851 1.386 . S
H1849 C1865 0.930 . S
H1850 C1866 0.931 . S
C1851 H1839 0.929 . S
C1851 C1845 1.390 . S
C1851 C1848 1.386 . S
C1852 C1847 1.490 . S
C1852 C1854 1.395 . S
C1852 C1855 1.403 . S
H1853 C1859 0.930 . S
C1854 H1840 0.930 . S
C1854 C1852 1.395 . S
C1854 C1857 1.403 . S
C1855 C1852 1.403 . S
C1855 C1856 1.524 . S
C1855 C1859 1.400 . S
C1856 H1841 0.960 . S
C1856 H1842 0.960 . S
C1856 H1843 0.960 . S
C1856 C1855 1.524 . S
C1857 C1854 1.403 . S
C1857 C1858 1.392 . S
C1857 C1861 1.495 . S
C1858 C1857 1.392 . S
C1858 C1859 1.385 . S
C1858 C1860 1.478 . S
C1859 H1853 0.930 . S
C1859 C1855 1.400 . S
C1859 C1858 1.385 . S
C1860 C1858 1.478 . S
C1860 C1862 1.381 . S
C1860 C1866 1.383 . S
C1861 C1857 1.495 . S
C1861 H1867 0.959 . S
C1861 H1868 0.961 . S
C1861 H1869 0.960 . S
C1862 C1860 1.381 . S
C1862 C1863 1.394 . S
C1862 H1870 0.930 . S
C1863 C1862 1.394 . S
C1863 C1864 1.383 . S
C1863 H1871 0.929 . S
C1864 C1863 1.383 . S
C1864 C1865 1.377 . S
C1865 H1849 0.930 . S
C1865 C1864 1.377 . S
C1865 C1866 1.379 . S
C1866 H1850 0.931 . S
C1866 C1860 1.383 . S
C1866 C1865 1.379 . S
H1867 C1861 0.959 . S
H1868 C1861 0.961 . S
H1869 C1861 0.960 . S
H1870 C1862 0.930 . S
H1871 C1863 0.929 . S
H1872 C1880 0.929 . S
H1873 C1882 0.930 . S
H1874 C1884 0.930 . S
H1875 C1887 0.929 . S
H1876 C1890 0.930 . S
H1877 C1892 0.960 . S
H1878 C1892 0.960 . S
H1879 C1892 0.960 . S
C1880 H1872 0.929 . S
C1880 C1881 1.377 . S
C1880 C1882 1.384 . S
C1881 C1880 1.377 . S
C1881 C1887 1.390 . S
C1882 H1873 0.930 . S
C1882 C1880 1.384 . S
C1882 C1883 1.372 . S
C1883 C1882 1.372 . S
C1883 C1884 1.400 . S
C1883 C1888 1.490 . S
C1884 H1874 0.930 . S
C1884 C1883 1.400 . S
C1884 C1887 1.386 . S
H1885 C1901 0.930 . S
H1886 C1902 0.931 . S
C1887 H1875 0.929 . S
C1887 C1881 1.390 . S
C1887 C1884 1.386 . S
C1888 C1883 1.490 . S
C1888 C1890 1.395 . S
C1888 C1891 1.403 . S
H1889 C1895 0.930 . S
C1890 H1876 0.930 . S
C1890 C1888 1.395 . S
C1890 C1893 1.403 . S
C1891 C1888 1.403 . S
C1891 C1892 1.524 . S
C1891 C1895 1.400 . S
C1892 H1877 0.960 . S
C1892 H1878 0.960 . S
C1892 H1879 0.960 . S
C1892 C1891 1.524 . S
C1893 C1890 1.403 . S
C1893 C1894 1.392 . S
C1893 C1897 1.495 . S
C1894 C1893 1.392 . S
C1894 C1895 1.385 . S
C1894 C1896 1.478 . S
C1895 H1889 0.930 . S
C1895 C1891 1.400 . S
C1895 C1894 1.385 . S
C1896 C1894 1.478 . S
C1896 C1898 1.381 . S
C1896 C1902 1.383 . S
C1897 C1893 1.495 . S
C1897 H1903 0.959 . S
C1897 H1904 0.961 . S
C1897 H1905 0.960 . S
C1898 C1896 1.381 . S
C1898 C1899 1.394 . S
C1898 H1906 0.930 . S
C1899 C1898 1.394 . S
C1899 C1900 1.383 . S
C1899 H1907 0.929 . S
C1900 C1899 1.383 . S
C1900 C1901 1.377 . S
C1901 H1885 0.930 . S
C1901 C1900 1.377 . S
C1901 C1902 1.379 . S
C1902 H1886 0.931 . S
C1902 C1896 1.383 . S
C1902 C1901 1.379 . S
H1903 C1897 0.959 . S
H1904 C1897 0.961 . S
H1905 C1897 0.960 . S
H1906 C1898 0.930 . S
H1907 C1899 0.929 . S
H1908 C1916 0.929 . S
H1909 C1918 0.930 . S
H1910 C1920 0.930 . S
H1911 C1923 0.929 . S
H1912 C1926 0.930 . S
H1913 C1928 0.960 . S
H1914 C1928 0.960 . S
H1915 C1928 0.960 . S
C1916 H1908 0.929 . S
C1916 C1917 1.377 . S
C1916 C1918 1.384 . S
C1917 C1916 1.377 . S
C1917 C1923 1.390 . S
C1918 H1909 0.930 . S
C1918 C1916 1.384 . S
C1918 C1919 1.372 . S
C1919 C1918 1.372 . S
C1919 C1920 1.400 . S
C1919 C1924 1.490 . S
C1920 H1910 0.930 . S
C1920 C1919 1.400 . S
C1920 C1923 1.386 . S
H1921 C1937 0.930 . S
H1922 C1938 0.931 . S
C1923 H1911 0.929 . S
C1923 C1917 1.390 . S
C1923 C1920 1.386 . S
C1924 C1919 1.490 . S
C1924 C1926 1.395 . S
C1924 C1927 1.403 . S
H1925 C1931 0.930 . S
C1926 H1912 0.930 . S
C1926 C1924 1.395 . S
C1926 C1929 1.403 . S
C1927 C1924 1.403 . S
C1927 C1928 1.524 . S
C1927 C1931 1.400 . S
C1928 H1913 0.960 . S
C1928 H1914 0.960 . S
C1928 H1915 0.960 . S
C1928 C1927 1.524 . S
C1929 C1926 1.403 . S
C1929 C1930 1.392 . S
C1929 C1933 1.495 . S
C1930 C1929 1.392 . S
C1930 C1931 1.385 . S
C1930 C1932 1.478 . S
C1931 H1925 0.930 . S
C1931 C1927 1.400 . S
C1931 C1930 1.385 . S
C1932 C1930 1.478 . S
C1932 C1934 1.381 . S
C1932 C1938 1.383 . S
C1933 C1929 1.495 . S
C1933 H1939 0.959 . S
C1933 H1940 0.961 . S
C1933 H1941 0.960 . S
C1934 C1932 1.381 . S
C1934 C1935 1.394 . S
C1934 H1942 0.930 . S
C1935 C1934 1.394 . S
C1935 C1936 1.383 . S
C1935 H1943 0.929 . S
C1936 C1935 1.383 . S
C1936 C1937 1.377 . S
C1937 H1921 0.930 . S
C1937 C1936 1.377 . S
C1937 C1938 1.379 . S
C1938 H1922 0.931 . S
C1938 C1932 1.383 . S
C1938 C1937 1.379 . S
H1939 C1933 0.959 . S
H1940 C1933 0.961 . S
H1941 C1933 0.960 . S
H1942 C1934 0.930 . S
H1943 C1935 0.929 . S
H1944 C1952 0.929 . S
H1945 C1954 0.930 . S
H1946 C1956 0.930 . S
H1947 C1959 0.929 . S
H1948 C1962 0.930 . S
H1949 C1964 0.960 . S
H1950 C1964 0.960 . S
H1951 C1964 0.960 . S
C1952 H1944 0.929 . S
C1952 C1953 1.377 . S
C1952 C1954 1.384 . S
C1953 C1952 1.377 . S
C1953 C1959 1.390 . S
C1954 H1945 0.930 . S
C1954 C1952 1.384 . S
C1954 C1955 1.372 . S
C1955 C1954 1.372 . S
C1955 C1956 1.400 . S
C1955 C1960 1.490 . S
C1956 H1946 0.930 . S
C1956 C1955 1.400 . S
C1956 C1959 1.386 . S
H1957 C1973 0.930 . S
H1958 C1974 0.931 . S
C1959 H1947 0.929 . S
C1959 C1953 1.390 . S
C1959 C1956 1.386 . S
C1960 C1955 1.490 . S
C1960 C1962 1.395 . S
C1960 C1963 1.403 . S
H1961 C1967 0.930 . S
C1962 H1948 0.930 . S
C1962 C1960 1.395 . S
C1962 C1965 1.403 . S
C1963 C1960 1.403 . S
C1963 C1964 1.524 . S
C1963 C1967 1.400 . S
C1964 H1949 0.960 . S
C1964 H1950 0.960 . S
C1964 H1951 0.960 . S
C1964 C1963 1.524 . S
C1965 C1962 1.403 . S
C1965 C1966 1.392 . S
C1965 C1969 1.495 . S
C1966 C1965 1.392 . S
C1966 C1967 1.385 . S
C1966 C1968 1.478 . S
C1967 H1961 0.930 . S
C1967 C1963 1.400 . S
C1967 C1966 1.385 . S
C1968 C1966 1.478 . S
C1968 C1970 1.381 . S
C1968 C1974 1.383 . S
C1969 C1965 1.495 . S
C1969 H1975 0.959 . S
C1969 H1976 0.961 . S
C1969 H1977 0.960 . S
C1970 C1968 1.381 . S
C1970 C1971 1.394 . S
C1970 H1978 0.930 . S
C1971 C1970 1.394 . S
C1971 C1972 1.383 . S
C1971 H1979 0.929 . S
C1972 C1971 1.383 . S
C1972 C1973 1.377 . S
C1973 H1957 0.930 . S
C1973 C1972 1.377 . S
C1973 C1974 1.379 . S
C1974 H1958 0.931 . S
C1974 C1968 1.383 . S
C1974 C1973 1.379 . S
H1975 C1969 0.959 . S
H1976 C1969 0.961 . S
H1977 C1969 0.960 . S
H1978 C1970 0.930 . S
H1979 C1971 0.929 . S
H1980 C1988 0.929 . S
H1981 C1990 0.930 . S
H1982 C1992 0.930 . S
H1983 C1995 0.929 . S
H1984 C1998 0.930 . S
H1985 C2000 0.960 . S
H1986 C2000 0.960 . S
H1987 C2000 0.960 . S
C1988 H1980 0.929 . S
C1988 C1989 1.377 . S
C1988 C1990 1.384 . S
C1989 C1988 1.377 . S
C1989 C1995 1.390 . S
C1990 H1981 0.930 . S
C1990 C1988 1.384 . S
C1990 C1991 1.372 . S
C1991 C1990 1.372 . S
C1991 C1992 1.400 . S
C1991 C1996 1.490 . S
C1992 H1982 0.930 . S
C1992 C1991 1.400 . S
C1992 C1995 1.386 . S
H1993 C2009 0.930 . S
H1994 C2010 0.931 . S
C1995 H1983 0.929 . S
C1995 C1989 1.390 . S
C1995 C1992 1.386 . S
C1996 C1991 1.490 . S
C1996 C1998 1.395 . S
C1996 C1999 1.403 . S
H1997 C2003 0.930 . S
C1998 H1984 0.930 . S
C1998 C1996 1.395 . S
C1998 C2001 1.403 . S
C1999 C1996 1.403 . S
C1999 C2000 1.524 . S
C1999 C2003 1.400 . S
C2000 H1985 0.960 . S
C2000 H1986 0.960 . S
C2000 H1987 0.960 . S
C2000 C1999 1.524 . S
C2001 C1998 1.403 . S
C2001 C2002 1.392 . S
C2001 C2005 1.495 . S
C2002 C2001 1.392 . S
C2002 C2003 1.385 . S
C2002 C2004 1.478 . S
C2003 H1997 0.930 . S
C2003 C1999 1.400 . S
C2003 C2002 1.385 . S
C2004 C2002 1.478 . S
C2004 C2006 1.381 . S
C2004 C2010 1.383 . S
C2005 C2001 1.495 . S
C2005 H2011 0.959 . S
C2005 H2012 0.961 . S
C2005 H2013 0.960 . S
C2006 C2004 1.381 . S
C2006 C2007 1.394 . S
C2006 H2014 0.930 . S
C2007 C2006 1.394 . S
C2007 C2008 1.383 . S
C2007 H2015 0.929 . S
C2008 C2007 1.383 . S
C2008 C2009 1.377 . S
C2009 H1993 0.930 . S
C2009 C2008 1.377 . S
C2009 C2010 1.379 . S
C2010 H1994 0.931 . S
C2010 C2004 1.383 . S
C2010 C2009 1.379 . S
H2011 C2005 0.959 . S
H2012 C2005 0.961 . S
H2013 C2005 0.960 . S
H2014 C2006 0.930 . S
H2015 C2007 0.929 . S
H2016 C2024 0.929 . S
H2017 C2026 0.930 . S
H2018 C2028 0.930 . S
H2019 C2031 0.929 . S
H2020 C2034 0.930 . S
H2021 C2036 0.960 . S
H2022 C2036 0.960 . S
H2023 C2036 0.960 . S
C2024 H2016 0.929 . S
C2024 C2025 1.377 . S
C2024 C2026 1.384 . S
C2025 C2024 1.377 . S
C2025 C2031 1.390 . S
C2026 H2017 0.930 . S
C2026 C2024 1.384 . S
C2026 C2027 1.372 . S
C2027 C2026 1.372 . S
C2027 C2028 1.400 . S
C2027 C2032 1.490 . S
C2028 H2018 0.930 . S
C2028 C2027 1.400 . S
C2028 C2031 1.386 . S
H2029 C2045 0.930 . S
H2030 C2046 0.931 . S
C2031 H2019 0.929 . S
C2031 C2025 1.390 . S
C2031 C2028 1.386 . S
C2032 C2027 1.490 . S
C2032 C2034 1.395 . S
C2032 C2035 1.403 . S
H2033 C2039 0.930 . S
C2034 H2020 0.930 . S
C2034 C2032 1.395 . S
C2034 C2037 1.403 . S
C2035 C2032 1.403 . S
C2035 C2036 1.524 . S
C2035 C2039 1.400 . S
C2036 H2021 0.960 . S
C2036 H2022 0.960 . S
C2036 H2023 0.960 . S
C2036 C2035 1.524 . S
C2037 C2034 1.403 . S
C2037 C2038 1.392 . S
C2037 C2041 1.495 . S
C2038 C2037 1.392 . S
C2038 C2039 1.385 . S
C2038 C2040 1.478 . S
C2039 H2033 0.930 . S
C2039 C2035 1.400 . S
C2039 C2038 1.385 . S
C2040 C2038 1.478 . S
C2040 C2042 1.381 . S
C2040 C2046 1.383 . S
C2041 C2037 1.495 . S
C2041 H2047 0.959 . S
C2041 H2048 0.961 . S
C2041 H2049 0.960 . S
C2042 C2040 1.381 . S
C2042 C2043 1.394 . S
C2042 H2050 0.930 . S
C2043 C2042 1.394 . S
C2043 C2044 1.383 . S
C2043 H2051 0.929 . S
C2044 C2043 1.383 . S
C2044 C2045 1.377 . S
C2045 H2029 0.930 . S
C2045 C2044 1.377 . S
C2045 C2046 1.379 . S
C2046 H2030 0.931 . S
C2046 C2040 1.383 . S
C2046 C2045 1.379 . S
H2047 C2041 0.959 . S
H2048 C2041 0.961 . S
H2049 C2041 0.960 . S
H2050 C2042 0.930 . S
H2051 C2043 0.929 . S
H2052 C2060 0.929 . S
H2053 C2062 0.930 . S
H2054 C2064 0.930 . S
H2055 C2067 0.929 . S
H2056 C2070 0.930 . S
H2057 C2072 0.960 . S
H2058 C2072 0.960 . S
H2059 C2072 0.960 . S
C2060 H2052 0.929 . S
C2060 C2061 1.377 . S
C2060 C2062 1.384 . S
C2061 C2060 1.377 . S
C2061 C2067 1.390 . S
C2062 H2053 0.930 . S
C2062 C2060 1.384 . S
C2062 C2063 1.372 . S
C2063 C2062 1.372 . S
C2063 C2064 1.400 . S
C2063 C2068 1.490 . S
C2064 H2054 0.930 . S
C2064 C2063 1.400 . S
C2064 C2067 1.386 . S
H2065 C2081 0.930 . S
H2066 C2082 0.931 . S
C2067 H2055 0.929 . S
C2067 C2061 1.390 . S
C2067 C2064 1.386 . S
C2068 C2063 1.490 . S
C2068 C2070 1.395 . S
C2068 C2071 1.403 . S
H2069 C2075 0.930 . S
C2070 H2056 0.930 . S
C2070 C2068 1.395 . S
C2070 C2073 1.403 . S
C2071 C2068 1.403 . S
C2071 C2072 1.524 . S
C2071 C2075 1.400 . S
C2072 H2057 0.960 . S
C2072 H2058 0.960 . S
C2072 H2059 0.960 . S
C2072 C2071 1.524 . S
C2073 C2070 1.403 . S
C2073 C2074 1.392 . S
C2073 C2077 1.495 . S
C2074 C2073 1.392 . S
C2074 C2075 1.385 . S
C2074 C2076 1.478 . S
C2075 H2069 0.930 . S
C2075 C2071 1.400 . S
C2075 C2074 1.385 . S
C2076 C2074 1.478 . S
C2076 C2078 1.381 . S
C2076 C2082 1.383 . S
C2077 C2073 1.495 . S
C2077 H2083 0.959 . S
C2077 H2084 0.961 . S
C2077 H2085 0.960 . S
C2078 C2076 1.381 . S
C2078 C2079 1.394 . S
C2078 H2086 0.930 . S
C2079 C2078 1.394 . S
C2079 C2080 1.383 . S
C2079 H2087 0.929 . S
C2080 C2079 1.383 . S
C2080 C2081 1.377 . S
C2081 H2065 0.930 . S
C2081 C2080 1.377 . S
C2081 C2082 1.379 . S
C2082 H2066 0.931 . S
C2082 C2076 1.383 . S
C2082 C2081 1.379 . S
H2083 C2077 0.959 . S
H2084 C2077 0.961 . S
H2085 C2077 0.960 . S
H2086 C2078 0.930 . S
H2087 C2079 0.929 . S
H2088 C2096 0.929 . S
H2089 C2098 0.930 . S
H2090 C2100 0.930 . S
H2091 C2103 0.929 . S
H2092 C2106 0.930 . S
H2093 C2108 0.960 . S
H2094 C2108 0.960 . S
H2095 C2108 0.960 . S
C2096 H2088 0.929 . S
C2096 C2097 1.377 . S
C2096 C2098 1.384 . S
C2097 C2096 1.377 . S
C2097 C2103 1.390 . S
C2098 H2089 0.930 . S
C2098 C2096 1.384 . S
C2098 C2099 1.372 . S
C2099 C2098 1.372 . S
C2099 C2100 1.400 . S
C2099 C2104 1.490 . S
C2100 H2090 0.930 . S
C2100 C2099 1.400 . S
C2100 C2103 1.386 . S
H2101 C2117 0.930 . S
H2102 C2118 0.931 . S
C2103 H2091 0.929 . S
C2103 C2097 1.390 . S
C2103 C2100 1.386 . S
C2104 C2099 1.490 . S
C2104 C2106 1.395 . S
C2104 C2107 1.403 . S
H2105 C2111 0.930 . S
C2106 H2092 0.930 . S
C2106 C2104 1.395 . S
C2106 C2109 1.403 . S
C2107 C2104 1.403 . S
C2107 C2108 1.524 . S
C2107 C2111 1.400 . S
C2108 H2093 0.960 . S
C2108 H2094 0.960 . S
C2108 H2095 0.960 . S
C2108 C2107 1.524 . S
C2109 C2106 1.403 . S
C2109 C2110 1.392 . S
C2109 C2113 1.495 . S
C2110 C2109 1.392 . S
C2110 C2111 1.385 . S
C2110 C2112 1.478 . S
C2111 H2105 0.930 . S
C2111 C2107 1.400 . S
C2111 C2110 1.385 . S
C2112 C2110 1.478 . S
C2112 C2114 1.381 . S
C2112 C2118 1.383 . S
C2113 C2109 1.495 . S
C2113 H2119 0.959 . S
C2113 H2120 0.961 . S
C2113 H2121 0.960 . S
C2114 C2112 1.381 . S
C2114 C2115 1.394 . S
C2114 H2122 0.930 . S
C2115 C2114 1.394 . S
C2115 C2116 1.383 . S
C2115 H2123 0.929 . S
C2116 C2115 1.383 . S
C2116 C2117 1.377 . S
C2117 H2101 0.930 . S
C2117 C2116 1.377 . S
C2117 C2118 1.379 . S
C2118 H2102 0.931 . S
C2118 C2112 1.383 . S
C2118 C2117 1.379 . S
H2119 C2113 0.959 . S
H2120 C2113 0.961 . S
H2121 C2113 0.960 . S
H2122 C2114 0.930 . S
H2123 C2115 0.929 . S
H2124 C2132 0.929 . S
H2125 C2134 0.930 . S
H2126 C2136 0.930 . S
H2127 C2139 0.929 . S
H2128 C2142 0.930 . S
H2129 C2144 0.960 . S
H2130 C2144 0.960 . S
H2131 C2144 0.960 . S
C2132 H2124 0.929 . S
C2132 C2133 1.377 . S
C2132 C2134 1.384 . S
C2133 C2132 1.377 . S
C2133 C2139 1.390 . S
C2134 H2125 0.930 . S
C2134 C2132 1.384 . S
C2134 C2135 1.372 . S
C2135 C2134 1.372 . S
C2135 C2136 1.400 . S
C2135 C2140 1.490 . S
C2136 H2126 0.930 . S
C2136 C2135 1.400 . S
C2136 C2139 1.386 . S
H2137 C2153 0.930 . S
H2138 C2154 0.931 . S
C2139 H2127 0.929 . S
C2139 C2133 1.390 . S
C2139 C2136 1.386 . S
C2140 C2135 1.490 . S
C2140 C2142 1.395 . S
C2140 C2143 1.403 . S
H2141 C2147 0.930 . S
C2142 H2128 0.930 . S
C2142 C2140 1.395 . S
C2142 C2145 1.403 . S
C2143 C2140 1.403 . S
C2143 C2144 1.524 . S
C2143 C2147 1.400 . S
C2144 H2129 0.960 . S
C2144 H2130 0.960 . S
C2144 H2131 0.960 . S
C2144 C2143 1.524 . S
C2145 C2142 1.403 . S
C2145 C2146 1.392 . S
C2145 C2149 1.495 . S
C2146 C2145 1.392 . S
C2146 C2147 1.385 . S
C2146 C2148 1.478 . S
C2147 H2141 0.930 . S
C2147 C2143 1.400 . S
C2147 C2146 1.385 . S
C2148 C2146 1.478 . S
C2148 C2150 1.381 . S
C2148 C2154 1.383 . S
C2149 C2145 1.495 . S
C2149 H2155 0.959 . S
C2149 H2156 0.961 . S
C2149 H2157 0.960 . S
C2150 C2148 1.381 . S
C2150 C2151 1.394 . S
C2150 H2158 0.930 . S
C2151 C2150 1.394 . S
C2151 C2152 1.383 . S
C2151 H2159 0.929 . S
C2152 C2151 1.383 . S
C2152 C2153 1.377 . S
C2153 H2137 0.930 . S
C2153 C2152 1.377 . S
C2153 C2154 1.379 . S
C2154 H2138 0.931 . S
C2154 C2148 1.383 . S
C2154 C2153 1.379 . S
H2155 C2149 0.959 . S
H2156 C2149 0.961 . S
H2157 C2149 0.960 . S
H2158 C2150 0.930 . S
H2159 C2151 0.929 . S
H2160 C2168 0.929 . S
H2161 C2170 0.930 . S
H2162 C2172 0.930 . S
H2163 C2175 0.929 . S
H2164 C2178 0.930 . S
H2165 C2180 0.960 . S
H2166 C2180 0.960 . S
H2167 C2180 0.960 . S
C2168 H2160 0.929 . S
C2168 C2169 1.377 . S
C2168 C2170 1.384 . S
C2169 C2168 1.377 . S
C2169 C2175 1.390 . S
C2170 H2161 0.930 . S
C2170 C2168 1.384 . S
C2170 C2171 1.372 . S
C2171 C2170 1.372 . S
C2171 C2172 1.400 . S
C2171 C2176 1.490 . S
C2172 H2162 0.930 . S
C2172 C2171 1.400 . S
C2172 C2175 1.386 . S
H2173 C2189 0.930 . S
H2174 C2190 0.931 . S
C2175 H2163 0.929 . S
C2175 C2169 1.390 . S
C2175 C2172 1.386 . S
C2176 C2171 1.490 . S
C2176 C2178 1.395 . S
C2176 C2179 1.403 . S
H2177 C2183 0.930 . S
C2178 H2164 0.930 . S
C2178 C2176 1.395 . S
C2178 C2181 1.403 . S
C2179 C2176 1.403 . S
C2179 C2180 1.524 . S
C2179 C2183 1.400 . S
C2180 H2165 0.960 . S
C2180 H2166 0.960 . S
C2180 H2167 0.960 . S
C2180 C2179 1.524 . S
C2181 C2178 1.403 . S
C2181 C2182 1.392 . S
C2181 C2185 1.495 . S
C2182 C2181 1.392 . S
C2182 C2183 1.385 . S
C2182 C2184 1.478 . S
C2183 H2177 0.930 . S
C2183 C2179 1.400 . S
C2183 C2182 1.385 . S
C2184 C2182 1.478 . S
C2184 C2186 1.381 . S
C2184 C2190 1.383 . S
C2185 C2181 1.495 . S
C2185 H2191 0.959 . S
C2185 H2192 0.961 . S
C2185 H2193 0.960 . S
C2186 C2184 1.381 . S
C2186 C2187 1.394 . S
C2186 H2194 0.930 . S
C2187 C2186 1.394 . S
C2187 C2188 1.383 . S
C2187 H2195 0.929 . S
C2188 C2187 1.383 . S
C2188 C2189 1.377 . S
C2189 H2173 0.930 . S
C2189 C2188 1.377 . S
C2189 C2190 1.379 . S
C2190 H2174 0.931 . S
C2190 C2184 1.383 . S
C2190 C2189 1.379 . S
H2191 C2185 0.959 . S
H2192 C2185 0.961 . S
H2193 C2185 0.960 . S
H2194 C2186 0.930 . S
H2195 C2187 0.929 . S
H2196 C2204 0.929 . S
H2197 C2206 0.930 . S
H2198 C2208 0.930 . S
H2199 C2211 0.929 . S
H2200 C2214 0.930 . S
H2201 C2216 0.960 . S
H2202 C2216 0.960 . S
H2203 C2216 0.960 . S
C2204 H2196 0.929 . S
C2204 C2205 1.377 . S
C2204 C2206 1.384 . S
C2205 C2204 1.377 . S
C2205 C2211 1.390 . S
C2206 H2197 0.930 . S
C2206 C2204 1.384 . S
C2206 C2207 1.372 . S
C2207 C2206 1.372 . S
C2207 C2208 1.400 . S
C2207 C2212 1.490 . S
C2208 H2198 0.930 . S
C2208 C2207 1.400 . S
C2208 C2211 1.386 . S
H2209 C2225 0.930 . S
H2210 C2226 0.931 . S
C2211 H2199 0.929 . S
C2211 C2205 1.390 . S
C2211 C2208 1.386 . S
C2212 C2207 1.490 . S
C2212 C2214 1.395 . S
C2212 C2215 1.403 . S
H2213 C2219 0.930 . S
C2214 H2200 0.930 . S
C2214 C2212 1.395 . S
C2214 C2217 1.403 . S
C2215 C2212 1.403 . S
C2215 C2216 1.524 . S
C2215 C2219 1.400 . S
C2216 H2201 0.960 . S
C2216 H2202 0.960 . S
C2216 H2203 0.960 . S
C2216 C2215 1.524 . S
C2217 C2214 1.403 . S
C2217 C2218 1.392 . S
C2217 C2221 1.495 . S
C2218 C2217 1.392 . S
C2218 C2219 1.385 . S
C2218 C2220 1.478 . S
C2219 H2213 0.930 . S
C2219 C2215 1.400 . S
C2219 C2218 1.385 . S
C2220 C2218 1.478 . S
C2220 C2222 1.381 . S
C2220 C2226 1.383 . S
C2221 C2217 1.495 . S
C2221 H2227 0.959 . S
C2221 H2228 0.961 . S
C2221 H2229 0.960 . S
C2222 C2220 1.381 . S
C2222 C2223 1.394 . S
C2222 H2230 0.930 . S
C2223 C2222 1.394 . S
C2223 C2224 1.383 . S
C2223 H2231 0.929 . S
C2224 C2223 1.383 . S
C2224 C2225 1.377 . S
C2225 H2209 0.930 . S
C2225 C2224 1.377 . S
C2225 C2226 1.379 . S
C2226 H2210 0.931 . S
C2226 C2220 1.383 . S
C2226 C2225 1.379 . S
H2227 C2221 0.959 . S
H2228 C2221 0.961 . S
H2229 C2221 0.960 . S
H2230 C2222 0.930 . S
H2231 C2223 0.929 . S
H2232 C2240 0.929 . S
H2233 C2242 0.930 . S
H2234 C2244 0.930 . S
H2235 C2247 0.929 . S
H2236 C2250 0.930 . S
H2237 C2252 0.960 . S
H2238 C2252 0.882 1_455 S
H2239 C2252 0.960 . S
C2240 H2232 0.929 . S
C2240 C2241 1.377 . S
C2240 C2242 1.384 . S
C2241 C2240 1.377 . S
C2241 C2247 1.390 1_455 S
C2242 H2233 0.930 . S
C2242 C2240 1.384 . S
C2242 C2243 1.372 . S
C2243 C2242 1.372 . S
C2243 C2244 1.400 1_455 S
C2243 C2248 1.490 . S
C2244 H2234 0.930 . S
C2244 C2243 1.400 1_655 S
C2244 C2247 1.386 . S
H2245 C2261 0.930 . S
H2246 C2262 0.931 . S
C2247 H2235 0.929 . S
C2247 C2241 1.390 1_655 S
C2247 C2244 1.386 . S
C2248 C2243 1.490 . S
C2248 C2250 1.395 . S
C2248 C2251 1.403 1_455 S
H2249 C2255 0.930 . S
C2250 H2236 0.930 . S
C2250 C2248 1.395 . S
C2250 C2253 1.403 . S
C2251 C2248 1.403 1_655 S
C2251 C2252 1.524 . S
C2251 C2255 1.400 . S
C2252 H2237 0.960 . S
C2252 H2238 0.882 1_655 S
C2252 H2239 0.960 . S
C2252 C2251 1.524 . S
C2253 C2250 1.403 . S
C2253 C2254 1.392 . S
C2253 C2257 1.495 . S
C2254 C2253 1.392 . S
C2254 C2255 1.385 1_455 S
C2254 C2256 1.498 . S
C2255 H2249 0.930 . S
C2255 C2251 1.400 . S
C2255 C2254 1.385 1_655 S
C2256 C2254 1.498 . S
C2256 C2258 1.400 . S
C2256 C2262 1.343 1_455 S
C2257 C2253 1.495 . S
C2257 H2263 0.959 . S
C2257 H2264 0.961 . S
C2257 H2265 0.960 . S
C2258 C2256 1.400 . S
C2258 C2259 1.394 . S
C2258 H2266 0.930 . S
C2259 C2258 1.394 . S
C2259 C2260 1.307 1_455 S
C2259 H2267 0.929 . S
C2260 C2259 1.307 1_655 S
C2260 C2261 1.414 . S
C2261 H2245 0.930 . S
C2261 C2260 1.414 . S
C2261 C2262 1.379 . S
C2262 H2246 0.931 . S
C2262 C2256 1.343 1_655 S
C2262 C2261 1.379 . S
H2263 C2257 0.959 . S
H2264 C2257 0.961 . S
H2265 C2257 0.960 . S
H2266 C2258 0.930 . S
H2267 C2259 0.929 . S
H2268 C2276 0.929 . S
H2269 C2278 0.930 . S
H2270 C2280 0.930 . S
H2271 C2283 0.929 . S
H2272 C2286 0.930 . S
H2273 C2288 0.960 . S
H2274 C2288 0.960 . S
H2275 C2288 0.960 . S
C2276 H2268 0.929 . S
C2276 C2277 1.377 . S
C2276 C2278 1.384 . S
C2277 C2276 1.377 . S
C2277 C2283 1.390 . S
C2278 H2269 0.930 . S
C2278 C2276 1.384 . S
C2278 C2279 1.372 . S
C2279 C2278 1.372 . S
C2279 C2280 1.400 . S
C2279 C2284 1.490 . S
C2280 H2270 0.930 . S
C2280 C2279 1.400 . S
C2280 C2283 1.386 . S
H2281 C2297 0.930 . S
H2282 C2298 0.931 . S
C2283 H2271 0.929 . S
C2283 C2277 1.390 . S
C2283 C2280 1.386 . S
C2284 C2279 1.490 . S
C2284 C2286 1.395 . S
C2284 C2287 1.403 . S
H2285 C2291 0.930 . S
C2286 H2272 0.930 . S
C2286 C2284 1.395 . S
C2286 C2289 1.403 . S
C2287 C2284 1.403 . S
C2287 C2288 1.524 . S
C2287 C2291 1.400 . S
C2288 H2273 0.960 . S
C2288 H2274 0.960 . S
C2288 H2275 0.960 . S
C2288 C2287 1.524 . S
C2289 C2286 1.403 . S
C2289 C2290 1.392 . S
C2289 C2293 1.495 . S
C2290 C2289 1.392 . S
C2290 C2291 1.385 . S
C2290 C2292 1.478 . S
C2291 H2285 0.930 . S
C2291 C2287 1.400 . S
C2291 C2290 1.385 . S
C2292 C2290 1.478 . S
C2292 C2294 1.381 . S
C2292 C2298 1.383 . S
C2293 C2289 1.495 . S
C2293 H2299 0.959 . S
C2293 H2300 0.961 . S
C2293 H2301 0.960 . S
C2294 C2292 1.381 . S
C2294 C2295 1.394 . S
C2294 H2302 0.930 . S
C2295 C2294 1.394 . S
C2295 C2296 1.383 . S
C2295 H2303 0.929 . S
C2296 C2295 1.383 . S
C2296 C2297 1.377 . S
C2297 H2281 0.930 . S
C2297 C2296 1.377 . S
C2297 C2298 1.379 . S
C2298 H2282 0.931 . S
C2298 C2292 1.383 . S
C2298 C2297 1.379 . S
H2299 C2293 0.959 . S
H2300 C2293 0.961 . S
H2301 C2293 0.960 . S
H2302 C2294 0.930 . S
H2303 C2295 0.929 . S
H2304 C2312 0.929 . S
H2305 C2314 0.930 . S
H2306 C2316 0.930 . S
H2307 C2319 0.929 . S
H2308 C2322 0.930 . S
H2309 C2324 0.960 . S
H2310 C2324 0.960 . S
H2311 C2324 0.960 . S
C2312 H2304 0.929 . S
C2312 C2313 1.377 . S
C2312 C2314 1.384 . S
C2313 C2312 1.377 . S
C2313 C2319 1.390 1_545 S
C2314 H2305 0.930 . S
C2314 C2312 1.384 . S
C2314 C2315 1.372 . S
C2315 C2314 1.372 . S
C2315 C2316 1.400 1_545 S
C2315 C2320 1.490 . S
C2316 H2306 0.930 . S
C2316 C2315 1.400 1_565 S
C2316 C2319 1.386 . S
H2317 C2333 0.930 . S
H2318 C2334 0.931 . S
C2319 H2307 0.929 . S
C2319 C2313 1.390 1_565 S
C2319 C2316 1.386 . S
C2320 C2315 1.490 . S
C2320 C2322 1.395 . S
C2320 C2323 1.403 1_545 S
H2321 C2327 0.930 . S
C2322 H2308 0.930 . S
C2322 C2320 1.395 . S
C2322 C2325 1.403 . S
C2323 C2320 1.403 1_565 S
C2323 C2324 1.524 . S
C2323 C2327 1.400 . S
C2324 H2309 0.960 . S
C2324 H2310 0.960 . S
C2324 H2311 0.960 . S
C2324 C2323 1.524 . S
C2325 C2322 1.403 . S
C2325 C2326 1.392 . S
C2325 C2329 1.495 . S
C2326 C2325 1.392 . S
C2326 C2327 1.385 1_545 S
C2326 C2328 1.478 . S
C2327 H2321 0.930 . S
C2327 C2323 1.400 . S
C2327 C2326 1.385 1_565 S
C2328 C2326 1.478 . S
C2328 C2330 1.381 . S
C2328 C2334 1.383 1_545 S
C2329 C2325 1.495 . S
C2329 H2335 0.959 . S
C2329 H2336 0.961 . S
C2329 H2337 0.960 . S
C2330 C2328 1.381 . S
C2330 C2331 1.394 . S
C2330 H2338 0.930 . S
C2331 C2330 1.394 . S
C2331 C2332 1.373 1_545 S
C2331 H2339 0.929 . S
C2332 C2331 1.373 1_565 S
C2332 C2333 1.402 . S
C2333 H2317 0.930 . S
C2333 C2332 1.402 . S
C2333 C2334 1.379 . S
C2334 H2318 0.931 . S
C2334 C2328 1.383 1_565 S
C2334 C2333 1.379 . S
H2335 C2329 0.959 . S
H2336 C2329 0.961 . S
H2337 C2329 0.960 . S
H2338 C2330 0.930 . S
H2339 C2331 0.929 . S
H2340 C2348 0.929 . S
H2341 C2350 0.930 . S
H2342 C2352 0.930 . S
H2343 C2355 0.929 . S
H2344 C2358 0.930 . S
H2345 C2360 0.960 . S
H2346 C2360 0.960 . S
H2347 C2360 0.960 . S
C2348 H2340 0.929 . S
C2348 C2349 1.287 1_565 S
C2348 C2350 1.384 . S
C2349 C2348 1.287 1_545 S
C2349 C2355 1.436 . S
C2350 H2341 0.930 . S
C2350 C2348 1.384 . S
C2350 C2351 1.379 . S
C2351 C2350 1.379 . S
C2351 C2352 1.386 1_565 S
C2351 C2356 1.463 . S
C2352 H2342 0.930 . S
C2352 C2351 1.386 1_545 S
C2352 C2355 1.386 . S
H2353 C2369 0.930 . S
H2354 C2370 0.931 . S
C2355 H2343 0.929 . S
C2355 C2349 1.436 . S
C2355 C2352 1.386 . S
C2356 C2351 1.463 . S
C2356 C2358 1.440 . S
C2356 C2359 1.396 1_566 S
H2357 C2363 0.930 . S
C2358 H2344 0.930 . S
C2358 C2356 1.440 . S
C2358 C2361 1.403 . S
C2359 C2356 1.396 1_544 S
C2359 C2360 1.524 . S
C2359 C2363 1.400 . S
C2360 H2345 0.960 . S
C2360 H2346 0.960 . S
C2360 H2347 0.960 . S
C2360 C2359 1.524 . S
C2361 C2358 1.403 . S
C2361 C2362 1.392 1_556 S
C2361 C2365 1.495 . S
C2362 C2361 1.392 1_554 S
C2362 C2363 1.385 1_565 S
C2362 C2364 1.478 . S
C2363 H2357 0.930 . S
C2363 C2359 1.400 . S
C2363 C2362 1.385 1_545 S
C2364 C2362 1.478 . S
C2364 C2366 1.381 . S
C2364 C2370 1.383 1_565 S
C2365 C2361 1.495 . S
C2365 H2371 0.959 . S
C2365 H2372 0.961 . S
C2365 H2373 0.960 . S
C2366 C2364 1.381 . S
C2366 C2367 1.394 . S
C2366 H2374 0.930 . S
C2367 C2366 1.394 . S
C2367 C2368 1.383 . S
C2367 H2375 0.929 . S
C2368 C2367 1.383 . S
C2368 C2369 1.377 1_565 S
C2369 H2353 0.930 . S
C2369 C2368 1.377 1_545 S
C2369 C2370 1.379 . S
C2370 H2354 0.931 . S
C2370 C2364 1.383 1_545 S
C2370 C2369 1.379 . S
H2371 C2365 0.959 . S
H2372 C2365 0.961 . S
H2373 C2365 0.960 . S
H2374 C2366 0.930 . S
H2375 C2367 0.929 . S
H2376 C2384 0.929 . S
H2377 C2386 0.930 . S
H2378 C2388 0.928 . S
H2379 C2391 0.929 1_556 S
H2380 C2394 0.930 . S
H2381 C2396 0.960 . S
H2382 C2396 0.960 . S
H2383 C2396 0.960 . S
C2384 H2376 0.929 . S
C2384 C2385 1.377 1_655 S
C2384 C2386 1.384 . S
C2385 C2384 1.377 1_455 S
C2385 C2391 1.390 . S
C2386 H2377 0.930 . S
C2386 C2384 1.384 . S
C2386 C2387 1.355 1_655 S
C2387 C2386 1.355 1_455 S
C2387 C2388 1.405 1_554 S
C2387 C2392 1.523 1_455 S
C2388 H2378 0.928 . S
C2388 C2387 1.405 1_556 S
C2388 C2391 1.386 1_556 S
H2389 C2405 0.930 . S
H2390 C2406 0.931 . S
C2391 H2379 0.929 1_554 S
C2391 C2385 1.390 . S
C2391 C2388 1.386 1_554 S
C2392 C2387 1.523 1_655 S
C2392 C2394 1.420 . S
C2392 C2395 1.359 1_655 S
H2393 C2399 0.930 . S
C2394 H2380 0.930 . S
C2394 C2392 1.420 . S
C2394 C2397 1.403 1_554 S
C2395 C2392 1.359 1_455 S
C2395 C2396 1.524 . S
C2395 C2399 1.400 1_554 S
C2396 H2381 0.960 . S
C2396 H2382 0.960 . S
C2396 H2383 0.960 . S
C2396 C2395 1.524 . S
C2397 C2394 1.403 1_556 S
C2397 C2398 1.392 . S
C2397 C2401 1.495 . S
C2398 C2397 1.392 . S
C2398 C2399 1.385 1_655 S
C2398 C2400 1.478 . S
C2399 H2393 0.930 . S
C2399 C2395 1.400 1_556 S
C2399 C2398 1.385 1_455 S
C2400 C2398 1.478 . S
C2400 C2402 1.381 1_556 S
C2400 C2406 1.383 1_655 S
C2401 C2397 1.495 . S
C2401 H2407 0.959 . S
C2401 H2408 0.961 . S
C2401 H2409 0.960 1_556 S
C2402 C2400 1.381 1_554 S
C2402 C2403 1.394 1_554 S
C2402 H2410 0.930 . S
C2403 C2402 1.394 1_556 S
C2403 C2404 1.383 . S
C2403 H2411 0.929 1_556 S
C2404 C2403 1.383 . S
C2404 C2405 1.377 1_655 S
C2405 H2389 0.930 . S
C2405 C2404 1.377 1_455 S
C2405 C2406 1.379 . S
C2406 H2390 0.931 . S
C2406 C2400 1.383 1_455 S
C2406 C2405 1.379 . S
H2407 C2401 0.959 . S
H2408 C2401 0.961 . S
H2409 C2401 0.960 1_554 S
H2410 C2402 0.930 . S
H2411 C2403 0.929 1_554 S
H2412 C2420 0.929 . S
H2413 C2422 0.930 . S
H2414 C2424 0.944 . S
H2415 C2427 0.929 1_556 S
H2416 C2430 0.930 . S
H2417 C2432 0.960 . S
H2418 C2432 0.960 . S
H2419 C2432 0.960 . S
C2420 H2412 0.929 . S
C2420 C2421 1.377 . S
C2420 C2422 1.384 . S
C2421 C2420 1.377 . S
C2421 C2427 1.390 . S
C2422 H2413 0.930 . S
C2422 C2420 1.384 . S
C2422 C2423 1.372 . S
C2423 C2422 1.372 . S
C2423 C2424 1.390 1_554 S
C2423 C2428 1.490 . S
C2424 H2414 0.944 . S
C2424 C2423 1.390 1_556 S
C2424 C2427 1.382 1_556 S
H2425 C2441 0.930 . S
H2426 C2442 0.931 . S
C2427 H2415 0.929 1_554 S
C2427 C2421 1.390 . S
C2427 C2424 1.382 1_554 S
C2428 C2423 1.490 . S
C2428 C2430 1.395 . S
C2428 C2431 1.403 1_554 S
H2429 C2435 0.930 . S
C2430 H2416 0.930 . S
C2430 C2428 1.395 . S
C2430 C2433 1.403 . S
C2431 C2428 1.403 1_556 S
C2431 C2432 1.524 . S
C2431 C2435 1.400 . S
C2432 H2417 0.960 . S
C2432 H2418 0.960 . S
C2432 H2419 0.960 . S
C2432 C2431 1.524 . S
C2433 C2430 1.403 . S
C2433 C2434 1.392 1_554 S
C2433 C2437 1.495 . S
C2434 C2433 1.392 1_556 S
C2434 C2435 1.385 . S
C2434 C2436 1.478 . S
C2435 H2429 0.930 . S
C2435 C2431 1.400 . S
C2435 C2434 1.385 . S
C2436 C2434 1.478 . S
C2436 C2438 1.381 1_556 S
C2436 C2442 1.383 . S
C2437 C2433 1.495 . S
C2437 H2443 0.959 . S
C2437 H2444 0.961 . S
C2437 H2445 0.960 . S
C2438 C2436 1.381 1_554 S
C2438 C2439 1.394 1_554 S
C2438 H2446 0.930 . S
C2439 C2438 1.394 1_556 S
C2439 C2440 1.383 . S
C2439 H2447 0.929 1_556 S
C2440 C2439 1.383 . S
C2440 C2441 1.377 . S
C2441 H2425 0.930 . S
C2441 C2440 1.377 . S
C2441 C2442 1.379 . S
C2442 H2426 0.931 . S
C2442 C2436 1.383 . S
C2442 C2441 1.379 . S
H2443 C2437 0.959 . S
H2444 C2437 0.961 . S
H2445 C2437 0.960 . S
H2446 C2438 0.930 . S
H2447 C2439 0.929 1_554 S
H2448 C2456 0.929 . S
H2449 C2458 0.930 . S
H2450 C2460 0.930 . S
H2451 C2463 0.929 . S
H2452 C2466 0.930 . S
H2453 C2468 0.960 . S
H2454 C2468 0.960 . S
H2455 C2468 0.960 . S
C2456 H2448 0.929 . S
C2456 C2457 1.377 . S
C2456 C2458 1.384 1_556 S
C2457 C2456 1.377 . S
C2457 C2463 1.390 1_556 S
C2458 H2449 0.930 . S
C2458 C2456 1.384 1_554 S
C2458 C2459 1.372 . S
C2459 C2458 1.372 . S
C2459 C2460 1.400 . S
C2459 C2464 1.490 . S
C2460 H2450 0.930 . S
C2460 C2459 1.400 . S
C2460 C2463 1.386 . S
H2461 C2477 0.930 . S
H2462 C2478 0.931 . S
C2463 H2451 0.929 . S
C2463 C2457 1.390 1_554 S
C2463 C2460 1.386 . S
C2464 C2459 1.490 . S
C2464 C2466 1.395 . S
C2464 C2467 1.403 . S
H2465 C2471 0.930 . S
C2466 H2452 0.930 . S
C2466 C2464 1.395 . S
C2466 C2469 1.403 . S
C2467 C2464 1.403 . S
C2467 C2468 1.524 . S
C2467 C2471 1.400 . S
C2468 H2453 0.960 . S
C2468 H2454 0.960 . S
C2468 H2455 0.960 . S
C2468 C2467 1.524 . S
C2469 C2466 1.403 . S
C2469 C2470 1.392 . S
C2469 C2473 1.495 . S
C2470 C2469 1.392 . S
C2470 C2471 1.385 . S
C2470 C2472 1.478 . S
C2471 H2465 0.930 . S
C2471 C2467 1.400 . S
C2471 C2470 1.385 . S
C2472 C2470 1.478 . S
C2472 C2474 1.381 . S
C2472 C2478 1.383 . S
C2473 C2469 1.495 . S
C2473 H2479 0.959 . S
C2473 H2480 0.961 . S
C2473 H2481 0.960 . S
C2474 C2472 1.381 . S
C2474 C2475 1.394 . S
C2474 H2482 0.930 . S
C2475 C2474 1.394 . S
C2475 C2476 1.383 . S
C2475 H2483 0.929 . S
C2476 C2475 1.383 . S
C2476 C2477 1.377 . S
C2477 H2461 0.930 . S
C2477 C2476 1.377 . S
C2477 C2478 1.379 . S
C2478 H2462 0.931 . S
C2478 C2472 1.383 . S
C2478 C2477 1.379 . S
H2479 C2473 0.959 . S
H2480 C2473 0.961 . S
H2481 C2473 0.960 . S
H2482 C2474 0.930 . S
H2483 C2475 0.929 . S
H2484 C2492 0.929 . S
H2485 C2494 0.930 . S
H2486 C2496 0.930 . S
H2487 C2499 0.929 . S
H2488 C2502 0.930 . S
H2489 C2504 0.960 . S
H2490 C2504 0.960 . S
H2491 C2504 0.960 . S
C2492 H2484 0.929 . S
C2492 C2493 1.377 . S
C2492 C2494 1.384 . S
C2493 C2492 1.377 . S
C2493 C2499 1.390 . S
C2494 H2485 0.930 . S
C2494 C2492 1.384 . S
C2494 C2495 1.372 . S
C2495 C2494 1.372 . S
C2495 C2496 1.400 . S
C2495 C2500 1.490 . S
C2496 H2486 0.930 . S
C2496 C2495 1.400 . S
C2496 C2499 1.386 . S
H2497 C2513 0.930 . S
H2498 C2514 0.931 . S
C2499 H2487 0.929 . S
C2499 C2493 1.390 . S
C2499 C2496 1.386 . S
C2500 C2495 1.490 . S
C2500 C2502 1.395 . S
C2500 C2503 1.403 . S
H2501 C2507 0.930 . S
C2502 H2488 0.930 . S
C2502 C2500 1.395 . S
C2502 C2505 1.403 . S
C2503 C2500 1.403 . S
C2503 C2504 1.524 . S
C2503 C2507 1.400 . S
C2504 H2489 0.960 . S
C2504 H2490 0.960 . S
C2504 H2491 0.960 . S
C2504 C2503 1.524 . S
C2505 C2502 1.403 . S
C2505 C2506 1.392 . S
C2505 C2509 1.495 . S
C2506 C2505 1.392 . S
C2506 C2507 1.385 . S
C2506 C2508 1.478 . S
C2507 H2501 0.930 . S
C2507 C2503 1.400 . S
C2507 C2506 1.385 . S
C2508 C2506 1.478 . S
C2508 C2510 1.381 . S
C2508 C2514 1.383 . S
C2509 C2505 1.495 . S
C2509 H2515 0.959 . S
C2509 H2516 0.961 . S
C2509 H2517 0.960 . S
C2510 C2508 1.381 . S
C2510 C2511 1.394 . S
C2510 H2518 0.930 . S
C2511 C2510 1.394 . S
C2511 C2512 1.383 1_554 S
C2511 H2519 0.929 1_554 S
C2512 C2511 1.383 1_556 S
C2512 C2513 1.377 1_556 S
C2513 H2497 0.930 . S
C2513 C2512 1.377 1_554 S
C2513 C2514 1.379 . S
C2514 H2498 0.931 . S
C2514 C2508 1.383 . S
C2514 C2513 1.379 . S
H2515 C2509 0.959 . S
H2516 C2509 0.961 . S
H2517 C2509 0.960 . S
H2518 C2510 0.930 . S
H2519 C2511 0.929 1_556 S
H2520 C2528 0.929 . S
H2521 C2530 0.930 . S
H2522 C2532 0.930 . S
H2523 C2535 0.931 . S
H2524 C2538 0.930 . S
H2525 C2540 0.960 . S
H2526 C2540 0.960 . S
H2527 C2540 0.960 . S
C2528 H2520 0.929 . S
C2528 C2529 1.377 1_554 S
C2528 C2530 1.384 . S
C2529 C2528 1.377 1_556 S
C2529 C2535 1.390 . S
C2530 H2521 0.930 . S
C2530 C2528 1.384 . S
C2530 C2531 1.372 . S
C2531 C2530 1.372 . S
C2531 C2532 1.400 . S
C2531 C2536 1.490 . S
C2532 H2522 0.930 . S
C2532 C2531 1.400 . S
C2532 C2535 1.384 1_554 S
H2533 C2549 0.930 . S
H2534 C2550 0.931 . S
C2535 H2523 0.931 . S
C2535 C2529 1.390 . S
C2535 C2532 1.384 1_556 S
C2536 C2531 1.490 . S
C2536 C2538 1.395 . S
C2536 C2539 1.403 . S
H2537 C2543 0.930 . S
C2538 H2524 0.930 . S
C2538 C2536 1.395 . S
C2538 C2541 1.403 . S
C2539 C2536 1.403 . S
C2539 C2540 1.524 . S
C2539 C2543 1.400 . S
C2540 H2525 0.960 . S
C2540 H2526 0.960 . S
C2540 H2527 0.960 . S
C2540 C2539 1.524 . S
C2541 C2538 1.403 . S
C2541 C2542 1.392 . S
C2541 C2545 1.495 . S
C2542 C2541 1.392 . S
C2542 C2543 1.385 . S
C2542 C2544 1.478 . S
C2543 H2537 0.930 . S
C2543 C2539 1.400 . S
C2543 C2542 1.385 . S
C2544 C2542 1.478 . S
C2544 C2546 1.381 . S
C2544 C2550 1.383 . S
C2545 C2541 1.495 . S
C2545 H2551 0.959 . S
C2545 H2552 0.961 . S
C2545 H2553 0.960 . S
C2546 C2544 1.381 . S
C2546 C2547 1.394 . S
C2546 H2554 0.930 . S
C2547 C2546 1.394 . S
C2547 C2548 1.383 . S
C2547 H2555 0.929 . S
C2548 C2547 1.383 . S
C2548 C2549 1.377 . S
C2549 H2533 0.930 . S
C2549 C2548 1.377 . S
C2549 C2550 1.379 . S
C2550 H2534 0.931 . S
C2550 C2544 1.383 . S
C2550 C2549 1.379 . S
H2551 C2545 0.959 . S
H2552 C2545 0.961 . S
H2553 C2545 0.960 . S
H2554 C2546 0.930 . S
H2555 C2547 0.929 . S
H2556 C2564 0.929 . S
H2557 C2566 0.930 . S
H2558 C2568 0.930 . S
H2559 C2571 0.929 . S
H2560 C2574 0.930 . S
H2561 C2576 0.960 . S
H2562 C2576 0.960 . S
H2563 C2576 0.960 . S
C2564 H2556 0.929 . S
C2564 C2565 1.377 . S
C2564 C2566 1.384 . S
C2565 C2564 1.377 . S
C2565 C2571 1.390 . S
C2566 H2557 0.930 . S
C2566 C2564 1.384 . S
C2566 C2567 1.372 . S
C2567 C2566 1.372 . S
C2567 C2568 1.400 . S
C2567 C2572 1.490 . S
C2568 H2558 0.930 . S
C2568 C2567 1.400 . S
C2568 C2571 1.386 . S
H2569 C2585 0.930 . S
H2570 C2586 0.931 . S
C2571 H2559 0.929 . S
C2571 C2565 1.390 . S
C2571 C2568 1.386 . S
C2572 C2567 1.490 . S
C2572 C2574 1.395 . S
C2572 C2575 1.403 . S
H2573 C2579 0.930 . S
C2574 H2560 0.930 . S
C2574 C2572 1.395 . S
C2574 C2577 1.403 . S
C2575 C2572 1.403 . S
C2575 C2576 1.524 . S
C2575 C2579 1.400 . S
C2576 H2561 0.960 . S
C2576 H2562 0.960 . S
C2576 H2563 0.960 . S
C2576 C2575 1.524 . S
C2577 C2574 1.403 . S
C2577 C2578 1.392 . S
C2577 C2581 1.495 . S
C2578 C2577 1.392 . S
C2578 C2579 1.385 . S
C2578 C2580 1.478 . S
C2579 H2573 0.930 . S
C2579 C2575 1.400 . S
C2579 C2578 1.385 . S
C2580 C2578 1.478 . S
C2580 C2582 1.381 . S
C2580 C2586 1.383 . S
C2581 C2577 1.495 . S
C2581 H2587 0.959 . S
C2581 H2588 0.961 . S
C2581 H2589 0.960 . S
C2582 C2580 1.381 . S
C2582 C2583 1.394 . S
C2582 H2590 0.930 . S
C2583 C2582 1.394 . S
C2583 C2584 1.383 . S
C2583 H2591 0.929 . S
C2584 C2583 1.383 . S
C2584 C2585 1.377 . S
C2585 H2569 0.930 . S
C2585 C2584 1.377 . S
C2585 C2586 1.379 . S
C2586 H2570 0.931 . S
C2586 C2580 1.383 . S
C2586 C2585 1.379 . S
H2587 C2581 0.959 . S
H2588 C2581 0.961 . S
H2589 C2581 0.960 . S
H2590 C2582 0.930 . S
H2591 C2583 0.929 . S
H2592 C2600 0.929 . S
H2593 C2602 0.930 . S
H2594 C2604 0.930 . S
H2595 C2607 0.929 . S
H2596 C2610 0.930 . S
H2597 C2612 0.960 . S
H2598 C2612 0.960 . S
H2599 C2612 0.960 . S
C2600 H2592 0.929 . S
C2600 C2601 1.377 . S
C2600 C2602 1.384 . S
C2601 C2600 1.377 . S
C2601 C2607 1.390 . S
C2602 H2593 0.930 . S
C2602 C2600 1.384 . S
C2602 C2603 1.372 . S
C2603 C2602 1.372 . S
C2603 C2604 1.400 . S
C2603 C2608 1.490 . S
C2604 H2594 0.930 . S
C2604 C2603 1.400 . S
C2604 C2607 1.386 . S
H2605 C2621 0.930 . S
H2606 C2622 0.931 . S
C2607 H2595 0.929 . S
C2607 C2601 1.390 . S
C2607 C2604 1.386 . S
C2608 C2603 1.490 . S
C2608 C2610 1.395 . S
C2608 C2611 1.403 . S
H2609 C2615 0.930 . S
C2610 H2596 0.930 . S
C2610 C2608 1.395 . S
C2610 C2613 1.403 . S
C2611 C2608 1.403 . S
C2611 C2612 1.524 . S
C2611 C2615 1.400 . S
C2612 H2597 0.960 . S
C2612 H2598 0.960 . S
C2612 H2599 0.960 . S
C2612 C2611 1.524 . S
C2613 C2610 1.403 . S
C2613 C2614 1.392 . S
C2613 C2617 1.495 . S
C2614 C2613 1.392 . S
C2614 C2615 1.385 . S
C2614 C2616 1.478 . S
C2615 H2609 0.930 . S
C2615 C2611 1.400 . S
C2615 C2614 1.385 . S
C2616 C2614 1.478 . S
C2616 C2618 1.381 . S
C2616 C2622 1.383 . S
C2617 C2613 1.495 . S
C2617 H2623 0.959 . S
C2617 H2624 0.961 . S
C2617 H2625 0.960 . S
C2618 C2616 1.381 . S
C2618 C2619 1.394 . S
C2618 H2626 0.930 . S
C2619 C2618 1.394 . S
C2619 C2620 1.383 . S
C2619 H2627 0.929 . S
C2620 C2619 1.383 . S
C2620 C2621 1.377 . S
C2621 H2605 0.930 . S
C2621 C2620 1.377 . S
C2621 C2622 1.379 . S
C2622 H2606 0.931 . S
C2622 C2616 1.383 . S
C2622 C2621 1.379 . S
H2623 C2617 0.959 . S
H2624 C2617 0.961 . S
H2625 C2617 0.960 . S
H2626 C2618 0.930 . S
H2627 C2619 0.929 . S
H2628 C2636 0.929 . S
H2629 C2638 0.930 . S
H2630 C2640 0.930 . S
H2631 C2643 0.929 . S
H2632 C2646 0.930 . S
H2633 C2648 0.960 . S
H2634 C2648 0.960 . S
H2635 C2648 0.960 . S
C2636 H2628 0.929 . S
C2636 C2637 1.377 . S
C2636 C2638 1.384 . S
C2637 C2636 1.377 . S
C2637 C2643 1.390 . S
C2638 H2629 0.930 . S
C2638 C2636 1.384 . S
C2638 C2639 1.372 . S
C2639 C2638 1.372 . S
C2639 C2640 1.400 . S
C2639 C2644 1.490 . S
C2640 H2630 0.930 . S
C2640 C2639 1.400 . S
C2640 C2643 1.386 . S
H2641 C2657 0.930 . S
H2642 C2658 0.931 . S
C2643 H2631 0.929 . S
C2643 C2637 1.390 . S
C2643 C2640 1.386 . S
C2644 C2639 1.490 . S
C2644 C2646 1.395 . S
C2644 C2647 1.403 . S
H2645 C2651 0.930 . S
C2646 H2632 0.930 . S
C2646 C2644 1.395 . S
C2646 C2649 1.403 . S
C2647 C2644 1.403 . S
C2647 C2648 1.524 . S
C2647 C2651 1.400 . S
C2648 H2633 0.960 . S
C2648 H2634 0.960 . S
C2648 H2635 0.960 . S
C2648 C2647 1.524 . S
C2649 C2646 1.403 . S
C2649 C2650 1.392 . S
C2649 C2653 1.495 . S
C2650 C2649 1.392 . S
C2650 C2651 1.385 . S
C2650 C2652 1.478 . S
C2651 H2645 0.930 . S
C2651 C2647 1.400 . S
C2651 C2650 1.385 . S
C2652 C2650 1.478 . S
C2652 C2654 1.381 . S
C2652 C2658 1.383 . S
C2653 C2649 1.495 . S
C2653 H2659 0.959 . S
C2653 H2660 0.961 . S
C2653 H2661 0.960 . S
C2654 C2652 1.381 . S
C2654 C2655 1.394 . S
C2654 H2662 0.930 . S
C2655 C2654 1.394 . S
C2655 C2656 1.383 . S
C2655 H2663 0.929 . S
C2656 C2655 1.383 . S
C2656 C2657 1.377 . S
C2657 H2641 0.930 . S
C2657 C2656 1.377 . S
C2657 C2658 1.379 . S
C2658 H2642 0.931 . S
C2658 C2652 1.383 . S
C2658 C2657 1.379 . S
H2659 C2653 0.959 . S
H2660 C2653 0.961 . S
H2661 C2653 0.960 . S
H2662 C2654 0.930 . S
H2663 C2655 0.929 . S
H2664 C2672 0.929 . S
H2665 C2674 0.930 . S
H2666 C2676 0.930 . S
H2667 C2679 0.929 . S
H2668 C2682 0.930 . S
H2669 C2684 0.960 . S
H2670 C2684 0.960 . S
H2671 C2684 0.960 . S
C2672 H2664 0.929 . S
C2672 C2673 1.377 . S
C2672 C2674 1.384 . S
C2673 C2672 1.377 . S
C2673 C2679 1.390 . S
C2674 H2665 0.930 . S
C2674 C2672 1.384 . S
C2674 C2675 1.372 . S
C2675 C2674 1.372 . S
C2675 C2676 1.400 . S
C2675 C2680 1.490 . S
C2676 H2666 0.930 . S
C2676 C2675 1.400 . S
C2676 C2679 1.386 . S
H2677 C2693 0.930 . S
H2678 C2694 0.931 . S
C2679 H2667 0.929 . S
C2679 C2673 1.390 . S
C2679 C2676 1.386 . S
C2680 C2675 1.490 . S
C2680 C2682 1.395 . S
C2680 C2683 1.403 . S
H2681 C2687 0.930 . S
C2682 H2668 0.930 . S
C2682 C2680 1.395 . S
C2682 C2685 1.403 . S
C2683 C2680 1.403 . S
C2683 C2684 1.524 . S
C2683 C2687 1.400 . S
C2684 H2669 0.960 . S
C2684 H2670 0.960 . S
C2684 H2671 0.960 . S
C2684 C2683 1.524 . S
C2685 C2682 1.403 . S
C2685 C2686 1.392 . S
C2685 C2689 1.495 . S
C2686 C2685 1.392 . S
C2686 C2687 1.385 . S
C2686 C2688 1.478 . S
C2687 H2681 0.930 . S
C2687 C2683 1.400 . S
C2687 C2686 1.385 . S
C2688 C2686 1.478 . S
C2688 C2690 1.381 . S
C2688 C2694 1.383 . S
C2689 C2685 1.495 . S
C2689 H2695 0.959 . S
C2689 H2696 0.961 . S
C2689 H2697 0.960 . S
C2690 C2688 1.381 . S
C2690 C2691 1.394 . S
C2690 H2698 0.930 . S
C2691 C2690 1.394 . S
C2691 C2692 1.383 1_556 S
C2691 H2699 0.929 1_556 S
C2692 C2691 1.383 1_554 S
C2692 C2693 1.377 1_554 S
C2693 H2677 0.930 . S
C2693 C2692 1.377 1_556 S
C2693 C2694 1.379 . S
C2694 H2678 0.931 . S
C2694 C2688 1.383 . S
C2694 C2693 1.379 . S
H2695 C2689 0.959 . S
H2696 C2689 0.961 . S
H2697 C2689 0.960 . S
H2698 C2690 0.930 . S
H2699 C2691 0.929 1_554 S
H2700 C2708 0.929 . S
H2701 C2710 0.930 . S
H2702 C2712 0.930 . S
H2703 C2715 0.929 . S
H2704 C2718 0.930 . S
H2705 C2720 0.960 . S
H2706 C2720 0.960 . S
H2707 C2720 0.960 . S
C2708 H2700 0.929 . S
C2708 C2709 1.377 1_556 S
C2708 C2710 1.384 . S
C2709 C2708 1.377 1_554 S
C2709 C2715 1.390 . S
C2710 H2701 0.930 . S
C2710 C2708 1.384 . S
C2710 C2711 1.372 . S
C2711 C2710 1.372 . S
C2711 C2712 1.400 . S
C2711 C2716 1.490 . S
C2712 H2702 0.930 . S
C2712 C2711 1.400 . S
C2712 C2715 1.386 1_556 S
H2713 C2729 0.930 . S
H2714 C2730 0.931 . S
C2715 H2703 0.929 . S
C2715 C2709 1.390 . S
C2715 C2712 1.386 1_554 S
C2716 C2711 1.490 . S
C2716 C2718 1.395 . S
C2716 C2719 1.403 . S
H2717 C2723 0.930 . S
C2718 H2704 0.930 . S
C2718 C2716 1.395 . S
C2718 C2721 1.403 . S
C2719 C2716 1.403 . S
C2719 C2720 1.524 . S
C2719 C2723 1.400 . S
C2720 H2705 0.960 . S
C2720 H2706 0.960 . S
C2720 H2707 0.960 . S
C2720 C2719 1.524 . S
C2721 C2718 1.403 . S
C2721 C2722 1.392 . S
C2721 C2725 1.495 . S
C2722 C2721 1.392 . S
C2722 C2723 1.385 . S
C2722 C2724 1.478 . S
C2723 H2717 0.930 . S
C2723 C2719 1.400 . S
C2723 C2722 1.385 . S
C2724 C2722 1.478 . S
C2724 C2726 1.381 . S
C2724 C2730 1.383 . S
C2725 C2721 1.495 . S
C2725 H2731 0.959 . S
C2725 H2732 0.961 . S
C2725 H2733 0.960 . S
C2726 C2724 1.381 . S
C2726 C2727 1.394 . S
C2726 H2734 0.930 . S
C2727 C2726 1.394 . S
C2727 C2728 1.383 . S
C2727 H2735 0.929 . S
C2728 C2727 1.383 . S
C2728 C2729 1.377 . S
C2729 H2713 0.930 . S
C2729 C2728 1.377 . S
C2729 C2730 1.379 . S
C2730 H2714 0.931 . S
C2730 C2724 1.383 . S
C2730 C2729 1.379 . S
H2731 C2725 0.959 . S
H2732 C2725 0.961 . S
H2733 C2725 0.960 . S
H2734 C2726 0.930 . S
H2735 C2727 0.929 . S
H2736 C2744 0.929 . S
H2737 C2746 0.930 . S
H2738 C2748 0.930 . S
H2739 C2751 0.929 . S
H2740 C2754 0.930 . S
H2741 C2756 0.960 . S
H2742 C2756 0.960 . S
H2743 C2756 0.960 . S
C2744 H2736 0.929 . S
C2744 C2745 1.377 . S
C2744 C2746 1.384 . S
C2745 C2744 1.377 . S
C2745 C2751 1.390 . S
C2746 H2737 0.930 . S
C2746 C2744 1.384 . S
C2746 C2747 1.372 . S
C2747 C2746 1.372 . S
C2747 C2748 1.400 . S
C2747 C2752 1.490 . S
C2748 H2738 0.930 . S
C2748 C2747 1.400 . S
C2748 C2751 1.386 . S
H2749 C2765 0.930 . S
H2750 C2766 0.931 . S
C2751 H2739 0.929 . S
C2751 C2745 1.390 . S
C2751 C2748 1.386 . S
C2752 C2747 1.490 . S
C2752 C2754 1.395 . S
C2752 C2755 1.403 . S
H2753 C2759 0.930 . S
C2754 H2740 0.930 . S
C2754 C2752 1.395 . S
C2754 C2757 1.403 . S
C2755 C2752 1.403 . S
C2755 C2756 1.524 . S
C2755 C2759 1.400 . S
C2756 H2741 0.960 . S
C2756 H2742 0.960 . S
C2756 H2743 0.960 . S
C2756 C2755 1.524 . S
C2757 C2754 1.403 . S
C2757 C2758 1.392 . S
C2757 C2761 1.495 . S
C2758 C2757 1.392 . S
C2758 C2759 1.385 . S
C2758 C2760 1.478 . S
C2759 H2753 0.930 . S
C2759 C2755 1.400 . S
C2759 C2758 1.385 . S
C2760 C2758 1.478 . S
C2760 C2762 1.381 . S
C2760 C2766 1.383 . S
C2761 C2757 1.495 . S
C2761 H2767 0.959 . S
C2761 H2768 0.961 . S
C2761 H2769 0.960 . S
C2762 C2760 1.381 . S
C2762 C2763 1.394 . S
C2762 H2770 0.930 . S
C2763 C2762 1.394 . S
C2763 C2764 1.383 1_556 S
C2763 H2771 0.929 . S
C2764 C2763 1.383 1_554 S
C2764 C2765 1.377 . S
C2765 H2749 0.930 . S
C2765 C2764 1.377 . S
C2765 C2766 1.379 1_554 S
C2766 H2750 0.931 . S
C2766 C2760 1.383 . S
C2766 C2765 1.379 1_556 S
H2767 C2761 0.959 . S
H2768 C2761 0.961 . S
H2769 C2761 0.960 . S
H2770 C2762 0.930 . S
H2771 C2763 0.929 . S
H2772 C2780 0.929 . S
H2773 C2782 0.930 . S
H2774 C2784 0.930 . S
H2775 C2787 0.929 . S
H2776 C2790 0.930 . S
H2777 C2792 0.960 . S
H2778 C2792 0.960 . S
H2779 C2792 0.960 . S
C2780 H2772 0.929 . S
C2780 C2781 1.377 . S
C2780 C2782 1.384 . S
C2781 C2780 1.377 . S
C2781 C2787 1.390 . S
C2782 H2773 0.930 . S
C2782 C2780 1.384 . S
C2782 C2783 1.372 . S
C2783 C2782 1.372 . S
C2783 C2784 1.400 . S
C2783 C2788 1.490 . S
C2784 H2774 0.930 . S
C2784 C2783 1.400 . S
C2784 C2787 1.386 . S
H2785 C2801 0.930 . S
H2786 C2802 0.931 . S
C2787 H2775 0.929 . S
C2787 C2781 1.390 . S
C2787 C2784 1.386 . S
C2788 C2783 1.490 . S
C2788 C2790 1.395 . S
C2788 C2791 1.403 . S
H2789 C2795 0.930 . S
C2790 H2776 0.930 . S
C2790 C2788 1.395 . S
C2790 C2793 1.403 . S
C2791 C2788 1.403 . S
C2791 C2792 1.524 . S
C2791 C2795 1.400 . S
C2792 H2777 0.960 . S
C2792 H2778 0.960 . S
C2792 H2779 0.960 . S
C2792 C2791 1.524 . S
C2793 C2790 1.403 . S
C2793 C2794 1.392 . S
C2793 C2797 1.495 . S
C2794 C2793 1.392 . S
C2794 C2795 1.385 . S
C2794 C2796 1.478 . S
C2795 H2789 0.930 . S
C2795 C2791 1.400 . S
C2795 C2794 1.385 . S
C2796 C2794 1.478 . S
C2796 C2798 1.381 . S
C2796 C2802 1.383 . S
C2797 C2793 1.495 . S
C2797 H2803 0.959 . S
C2797 H2804 0.961 . S
C2797 H2805 0.960 . S
C2798 C2796 1.381 . S
C2798 C2799 1.394 . S
C2798 H2806 0.930 . S
C2799 C2798 1.394 . S
C2799 C2800 1.383 . S
C2799 H2807 0.929 . S
C2800 C2799 1.383 . S
C2800 C2801 1.377 . S
C2801 H2785 0.930 . S
C2801 C2800 1.377 . S
C2801 C2802 1.379 . S
C2802 H2786 0.931 . S
C2802 C2796 1.383 . S
C2802 C2801 1.379 . S
H2803 C2797 0.959 . S
H2804 C2797 0.961 . S
H2805 C2797 0.960 . S
H2806 C2798 0.930 . S
H2807 C2799 0.929 . S
H2808 C2816 0.929 . S
H2809 C2818 0.930 . S
H2810 C2820 0.930 . S
H2811 C2823 0.929 . S
H2812 C2826 0.930 . S
H2813 C2828 0.960 . S
H2814 C2828 0.960 . S
H2815 C2828 0.960 . S
C2816 H2808 0.929 . S
C2816 C2817 1.377 . S
C2816 C2818 1.384 . S
C2817 C2816 1.377 . S
C2817 C2823 1.390 . S
C2818 H2809 0.930 . S
C2818 C2816 1.384 . S
C2818 C2819 1.372 . S
C2819 C2818 1.372 . S
C2819 C2820 1.400 . S
C2819 C2824 1.490 . S
C2820 H2810 0.930 . S
C2820 C2819 1.400 . S
C2820 C2823 1.386 . S
H2821 C2837 0.930 . S
H2822 C2838 0.931 . S
C2823 H2811 0.929 . S
C2823 C2817 1.390 . S
C2823 C2820 1.386 . S
C2824 C2819 1.490 . S
C2824 C2826 1.395 . S
C2824 C2827 1.403 . S
H2825 C2831 0.930 . S
C2826 H2812 0.930 . S
C2826 C2824 1.395 . S
C2826 C2829 1.403 . S
C2827 C2824 1.403 . S
C2827 C2828 1.524 . S
C2827 C2831 1.400 . S
C2828 H2813 0.960 . S
C2828 H2814 0.960 . S
C2828 H2815 0.960 . S
C2828 C2827 1.524 . S
C2829 C2826 1.403 . S
C2829 C2830 1.392 . S
C2829 C2833 1.495 . S
C2830 C2829 1.392 . S
C2830 C2831 1.385 . S
C2830 C2832 1.478 . S
C2831 H2825 0.930 . S
C2831 C2827 1.400 . S
C2831 C2830 1.385 . S
C2832 C2830 1.478 . S
C2832 C2834 1.381 . S
C2832 C2838 1.383 . S
C2833 C2829 1.495 . S
C2833 H2839 0.959 . S
C2833 H2840 0.961 . S
C2833 H2841 0.960 . S
C2834 C2832 1.381 . S
C2834 C2835 1.394 . S
C2834 H2842 0.930 . S
C2835 C2834 1.394 . S
C2835 C2836 1.383 . S
C2835 H2843 0.929 . S
C2836 C2835 1.383 . S
C2836 C2837 1.377 . S
C2837 H2821 0.930 . S
C2837 C2836 1.377 . S
C2837 C2838 1.379 . S
C2838 H2822 0.931 . S
C2838 C2832 1.383 . S
C2838 C2837 1.379 . S
H2839 C2833 0.959 . S
H2840 C2833 0.961 . S
H2841 C2833 0.960 . S
H2842 C2834 0.930 . S
H2843 C2835 0.929 . S
H2844 C2852 0.929 . S
H2845 C2854 0.930 . S
H2846 C2856 0.930 . S
H2847 C2859 0.929 . S
H2848 C2862 0.930 . S
H2849 C2864 0.960 . S
H2850 C2864 0.960 . S
H2851 C2864 0.960 . S
C2852 H2844 0.929 . S
C2852 C2853 1.377 . S
C2852 C2854 1.384 . S
C2853 C2852 1.377 . S
C2853 C2859 1.390 . S
C2854 H2845 0.930 . S
C2854 C2852 1.384 . S
C2854 C2855 1.372 . S
C2855 C2854 1.372 . S
C2855 C2856 1.400 . S
C2855 C2860 1.490 . S
C2856 H2846 0.930 . S
C2856 C2855 1.400 . S
C2856 C2859 1.386 . S
H2857 C2873 0.930 . S
H2858 C2874 0.931 . S
C2859 H2847 0.929 . S
C2859 C2853 1.390 . S
C2859 C2856 1.386 . S
C2860 C2855 1.490 . S
C2860 C2862 1.395 . S
C2860 C2863 1.403 . S
H2861 C2867 0.930 . S
C2862 H2848 0.930 . S
C2862 C2860 1.395 . S
C2862 C2865 1.403 . S
C2863 C2860 1.403 . S
C2863 C2864 1.524 . S
C2863 C2867 1.400 . S
C2864 H2849 0.960 . S
C2864 H2850 0.960 . S
C2864 H2851 0.960 . S
C2864 C2863 1.524 . S
C2865 C2862 1.403 . S
C2865 C2866 1.392 . S
C2865 C2869 1.495 . S
C2866 C2865 1.392 . S
C2866 C2867 1.385 . S
C2866 C2868 1.478 . S
C2867 H2861 0.930 . S
C2867 C2863 1.400 . S
C2867 C2866 1.385 . S
C2868 C2866 1.478 . S
C2868 C2870 1.381 . S
C2868 C2874 1.383 . S
C2869 C2865 1.495 . S
C2869 H2875 0.959 . S
C2869 H2876 0.961 . S
C2869 H2877 0.960 . S
C2870 C2868 1.381 . S
C2870 C2871 1.394 . S
C2870 H2878 0.930 . S
C2871 C2870 1.394 . S
C2871 C2872 1.383 . S
C2871 H2879 0.929 . S
C2872 C2871 1.383 . S
C2872 C2873 1.377 . S
C2873 H2857 0.930 . S
C2873 C2872 1.377 . S
C2873 C2874 1.379 . S
C2874 H2858 0.931 . S
C2874 C2868 1.383 . S
C2874 C2873 1.379 . S
H2875 C2869 0.959 . S
H2876 C2869 0.961 . S
H2877 C2869 0.960 . S
H2878 C2870 0.930 . S
H2879 C2871 0.929 . S
H2880 C2888 0.929 . S
H2881 C2890 0.930 . S
H2882 C2892 0.930 . S
H2883 C2895 0.929 . S
H2884 C2898 0.930 . S
H2885 C2900 0.960 . S
H2886 C2900 0.960 . S
H2887 C2900 0.960 . S
C2888 H2880 0.929 . S
C2888 C2889 1.377 . S
C2888 C2890 1.384 . S
C2889 C2888 1.377 . S
C2889 C2895 1.390 . S
C2890 H2881 0.930 . S
C2890 C2888 1.384 . S
C2890 C2891 1.372 . S
C2891 C2890 1.372 . S
C2891 C2892 1.400 . S
C2891 C2896 1.490 . S
C2892 H2882 0.930 . S
C2892 C2891 1.400 . S
C2892 C2895 1.386 . S
H2893 C2909 0.930 . S
H2894 C2910 0.931 . S
C2895 H2883 0.929 . S
C2895 C2889 1.390 . S
C2895 C2892 1.386 . S
C2896 C2891 1.490 . S
C2896 C2898 1.395 . S
C2896 C2899 1.403 . S
H2897 C2903 0.930 . S
C2898 H2884 0.930 . S
C2898 C2896 1.395 . S
C2898 C2901 1.403 . S
C2899 C2896 1.403 . S
C2899 C2900 1.524 . S
C2899 C2903 1.400 . S
C2900 H2885 0.960 . S
C2900 H2886 0.960 . S
C2900 H2887 0.960 . S
C2900 C2899 1.524 . S
C2901 C2898 1.403 . S
C2901 C2902 1.392 . S
C2901 C2905 1.495 . S
C2902 C2901 1.392 . S
C2902 C2903 1.385 . S
C2902 C2904 1.478 . S
C2903 H2897 0.930 . S
C2903 C2899 1.400 . S
C2903 C2902 1.385 . S
C2904 C2902 1.478 . S
C2904 C2906 1.381 . S
C2904 C2910 1.383 . S
C2905 C2901 1.495 . S
C2905 H2911 0.959 . S
C2905 H2912 0.961 . S
C2905 H2913 0.960 . S
C2906 C2904 1.381 . S
C2906 C2907 1.394 . S
C2906 H2914 0.930 . S
C2907 C2906 1.394 . S
C2907 C2908 1.383 . S
C2907 H2915 0.929 . S
C2908 C2907 1.383 . S
C2908 C2909 1.377 . S
C2909 H2893 0.930 . S
C2909 C2908 1.377 . S
C2909 C2910 1.379 . S
C2910 H2894 0.931 . S
C2910 C2904 1.383 . S
C2910 C2909 1.379 . S
H2911 C2905 0.959 . S
H2912 C2905 0.961 . S
H2913 C2905 0.960 . S
H2914 C2906 0.930 . S
H2915 C2907 0.929 . S
H2916 C2924 0.929 . S
H2917 C2926 0.930 . S
H2918 C2928 0.930 . S
H2919 C2931 0.929 . S
H2920 C2934 0.930 . S
H2921 C2936 0.960 . S
H2922 C2936 0.960 . S
H2923 C2936 0.960 . S
C2924 H2916 0.929 . S
C2924 C2925 1.377 . S
C2924 C2926 1.384 . S
C2925 C2924 1.377 . S
C2925 C2931 1.390 . S
C2926 H2917 0.930 . S
C2926 C2924 1.384 . S
C2926 C2927 1.372 . S
C2927 C2926 1.372 . S
C2927 C2928 1.400 . S
C2927 C2932 1.490 . S
C2928 H2918 0.930 . S
C2928 C2927 1.400 . S
C2928 C2931 1.386 . S
H2929 C2945 0.930 . S
H2930 C2946 0.931 . S
C2931 H2919 0.929 . S
C2931 C2925 1.390 . S
C2931 C2928 1.386 . S
C2932 C2927 1.490 . S
C2932 C2934 1.395 . S
C2932 C2935 1.403 . S
H2933 C2939 0.930 . S
C2934 H2920 0.930 . S
C2934 C2932 1.395 . S
C2934 C2937 1.403 1_545 S
C2935 C2932 1.403 . S
C2935 C2936 1.524 . S
C2935 C2939 1.400 1_545 S
C2936 H2921 0.960 . S
C2936 H2922 0.960 . S
C2936 H2923 0.960 . S
C2936 C2935 1.524 . S
C2937 C2934 1.403 1_565 S
C2937 C2938 1.392 . S
C2937 C2941 1.495 . S
C2938 C2937 1.392 . S
C2938 C2939 1.385 . S
C2938 C2940 1.478 . S
C2939 H2933 0.930 . S
C2939 C2935 1.400 1_565 S
C2939 C2938 1.385 . S
C2940 C2938 1.478 . S
C2940 C2942 1.381 . S
C2940 C2946 1.383 . S
C2941 C2937 1.495 . S
C2941 H2947 0.959 . S
C2941 H2948 0.961 . S
C2941 H2949 0.960 . S
C2942 C2940 1.381 . S
C2942 C2943 1.394 . S
C2942 H2950 0.930 . S
C2943 C2942 1.394 . S
C2943 C2944 1.383 . S
C2943 H2951 0.929 . S
C2944 C2943 1.383 . S
C2944 C2945 1.377 . S
C2945 H2929 0.930 . S
C2945 C2944 1.377 . S
C2945 C2946 1.379 . S
C2946 H2930 0.931 . S
C2946 C2940 1.383 . S
C2946 C2945 1.379 . S
H2947 C2941 0.959 . S
H2948 C2941 0.961 . S
H2949 C2941 0.960 . S
H2950 C2942 0.930 . S
H2951 C2943 0.929 . S
H2952 C2960 0.929 . S
H2953 C2962 0.930 . S
H2954 C2964 0.930 . S
H2955 C2967 0.929 . S
H2956 C2970 0.930 . S
H2957 C2972 0.960 . S
H2958 C2972 0.960 . S
H2959 C2972 0.960 1_655 S
C2960 H2952 0.929 . S
C2960 C2961 1.377 . S
C2960 C2962 1.384 . S
C2961 C2960 1.377 . S
C2961 C2967 1.390 . S
C2962 H2953 0.930 . S
C2962 C2960 1.384 . S
C2962 C2963 1.372 . S
C2963 C2962 1.372 . S
C2963 C2964 1.400 . S
C2963 C2968 1.490 . S
C2964 H2954 0.930 . S
C2964 C2963 1.400 . S
C2964 C2967 1.386 . S
H2965 C2981 0.930 . S
H2966 C2982 0.931 . S
C2967 H2955 0.929 . S
C2967 C2961 1.390 . S
C2967 C2964 1.386 . S
C2968 C2963 1.490 . S
C2968 C2970 1.395 . S
C2968 C2971 1.403 1_655 S
H2969 C2975 0.930 . S
C2970 H2956 0.930 . S
C2970 C2968 1.395 . S
C2970 C2973 1.403 . S
C2971 C2968 1.403 1_455 S
C2971 C2972 1.524 . S
C2971 C2975 1.400 . S
C2972 H2957 0.960 . S
C2972 H2958 0.960 . S
C2972 H2959 0.960 1_455 S
C2972 C2971 1.524 . S
C2973 C2970 1.403 . S
C2973 C2974 1.392 1_655 S
C2973 C2977 1.495 . S
C2974 C2973 1.392 1_455 S
C2974 C2975 1.385 . S
C2974 C2976 1.478 . S
C2975 H2969 0.930 . S
C2975 C2971 1.400 . S
C2975 C2974 1.385 . S
C2976 C2974 1.478 . S
C2976 C2978 1.381 . S
C2976 C2982 1.383 . S
C2977 C2973 1.495 . S
C2977 H2983 0.959 . S
C2977 H2984 0.961 . S
C2977 H2985 0.960 1_655 S
C2978 C2976 1.381 . S
C2978 C2979 1.394 . S
C2978 H2986 0.930 . S
C2979 C2978 1.394 . S
C2979 C2980 1.383 . S
C2979 H2987 0.929 . S
C2980 C2979 1.383 . S
C2980 C2981 1.377 . S
C2981 H2965 0.930 . S
C2981 C2980 1.377 . S
C2981 C2982 1.379 . S
C2982 H2966 0.931 . S
C2982 C2976 1.383 . S
C2982 C2981 1.379 . S
H2983 C2977 0.959 . S
H2984 C2977 0.961 . S
H2985 C2977 0.960 1_455 S
H2986 C2978 0.930 . S
H2987 C2979 0.929 . S
H2988 C2996 0.929 . S
H2989 C2998 0.930 . S
H2990 C3000 0.930 . S
H2991 C3003 0.929 . S
H2992 C3006 0.930 . S
H2993 C3008 0.960 . S
H2994 C3008 0.960 . S
H2995 C3008 0.960 . S
C2996 H2988 0.929 . S
C2996 C2997 1.377 . S
C2996 C2998 1.384 . S
C2997 C2996 1.377 . S
C2997 C3003 1.390 . S
C2998 H2989 0.930 . S
C2998 C2996 1.384 . S
C2998 C2999 1.372 . S
C2999 C2998 1.372 . S
C2999 C3000 1.400 . S
C2999 C3004 1.490 . S
C3000 H2990 0.930 . S
C3000 C2999 1.400 . S
C3000 C3003 1.386 . S
H3001 C3017 0.930 . S
H3002 C3018 0.931 . S
C3003 H2991 0.929 . S
C3003 C2997 1.390 . S
C3003 C3000 1.386 . S
C3004 C2999 1.490 . S
C3004 C3006 1.395 . S
C3004 C3007 1.403 . S
H3005 C3011 0.930 . S
C3006 H2992 0.930 . S
C3006 C3004 1.395 . S
C3006 C3009 1.403 . S
C3007 C3004 1.403 . S
C3007 C3008 1.524 . S
C3007 C3011 1.400 . S
C3008 H2993 0.960 . S
C3008 H2994 0.960 . S
C3008 H2995 0.960 . S
C3008 C3007 1.524 . S
C3009 C3006 1.403 . S
C3009 C3010 1.392 . S
C3009 C3013 1.495 . S
C3010 C3009 1.392 . S
C3010 C3011 1.385 . S
C3010 C3012 1.478 . S
C3011 H3005 0.930 . S
C3011 C3007 1.400 . S
C3011 C3010 1.385 . S
C3012 C3010 1.478 . S
C3012 C3014 1.381 . S
C3012 C3018 1.383 . S
C3013 C3009 1.495 . S
C3013 H3019 0.959 . S
C3013 H3020 0.961 . S
C3013 H3021 0.960 . S
C3014 C3012 1.381 . S
C3014 C3015 1.394 . S
C3014 H3022 0.930 . S
C3015 C3014 1.394 . S
C3015 C3016 1.383 . S
C3015 H3023 0.929 . S
C3016 C3015 1.383 . S
C3016 C3017 1.377 . S
C3017 H3001 0.930 . S
C3017 C3016 1.377 . S
C3017 C3018 1.379 . S
C3018 H3002 0.931 . S
C3018 C3012 1.383 . S
C3018 C3017 1.379 . S
H3019 C3013 0.959 . S
H3020 C3013 0.961 . S
H3021 C3013 0.960 . S
H3022 C3014 0.930 . S
H3023 C3015 0.929 . S
H3024 C3032 0.929 . S
H3025 C3034 0.930 . S
H3026 C3036 0.930 . S
H3027 C3039 0.929 . S
H3028 C3042 0.930 . S
H3029 C3044 0.960 . S
H3030 C3044 0.960 . S
H3031 C3044 0.960 . S
C3032 H3024 0.929 . S
C3032 C3033 1.377 . S
C3032 C3034 1.384 . S
C3033 C3032 1.377 . S
C3033 C3039 1.390 . S
C3034 H3025 0.930 . S
C3034 C3032 1.384 . S
C3034 C3035 1.372 . S
C3035 C3034 1.372 . S
C3035 C3036 1.400 . S
C3035 C3040 1.490 . S
C3036 H3026 0.930 . S
C3036 C3035 1.400 . S
C3036 C3039 1.386 . S
H3037 C3053 0.930 . S
H3038 C3054 0.931 . S
C3039 H3027 0.929 . S
C3039 C3033 1.390 . S
C3039 C3036 1.386 . S
C3040 C3035 1.490 . S
C3040 C3042 1.395 . S
C3040 C3043 1.403 1_545 S
H3041 C3047 0.930 . S
C3042 H3028 0.930 . S
C3042 C3040 1.395 . S
C3042 C3045 1.403 . S
C3043 C3040 1.403 1_565 S
C3043 C3044 1.524 . S
C3043 C3047 1.400 . S
C3044 H3029 0.960 . S
C3044 H3030 0.960 . S
C3044 H3031 0.960 . S
C3044 C3043 1.524 . S
C3045 C3042 1.403 . S
C3045 C3046 1.392 1_545 S
C3045 C3049 1.495 . S
C3046 C3045 1.392 1_565 S
C3046 C3047 1.385 . S
C3046 C3048 1.478 . S
C3047 H3041 0.930 . S
C3047 C3043 1.400 . S
C3047 C3046 1.385 . S
C3048 C3046 1.478 . S
C3048 C3050 1.381 . S
C3048 C3054 1.383 . S
C3049 C3045 1.495 . S
C3049 H3055 0.959 . S
C3049 H3056 0.961 . S
C3049 H3057 0.960 . S
C3050 C3048 1.381 . S
C3050 C3051 1.394 . S
C3050 H3058 0.930 . S
C3051 C3050 1.394 . S
C3051 C3052 1.383 . S
C3051 H3059 0.929 . S
C3052 C3051 1.383 . S
C3052 C3053 1.377 . S
C3053 H3037 0.930 . S
C3053 C3052 1.377 . S
C3053 C3054 1.379 . S
C3054 H3038 0.931 . S
C3054 C3048 1.383 . S
C3054 C3053 1.379 . S
H3055 C3049 0.959 . S
H3056 C3049 0.961 . S
H3057 C3049 0.960 . S
H3058 C3050 0.930 . S
H3059 C3051 0.929 . S
H3060 C3068 0.929 . S
H3061 C3070 0.930 . S
H3062 C3072 0.930 . S
H3063 C3075 0.929 . S
H3064 C3078 0.930 . S
H3065 C3080 0.960 . S
H3066 C3080 0.960 . S
H3067 C3080 0.960 . S
C3068 H3060 0.929 . S
C3068 C3069 1.377 . S
C3068 C3070 1.384 . S
C3069 C3068 1.377 . S
C3069 C3075 1.390 . S
C3070 H3061 0.930 . S
C3070 C3068 1.384 . S
C3070 C3071 1.372 . S
C3071 C3070 1.372 . S
C3071 C3072 1.400 . S
C3071 C3076 1.490 . S
C3072 H3062 0.930 . S
C3072 C3071 1.400 . S
C3072 C3075 1.386 . S
H3073 C3089 0.930 . S
H3074 C3090 0.931 . S
C3075 H3063 0.929 . S
C3075 C3069 1.390 . S
C3075 C3072 1.386 . S
C3076 C3071 1.490 . S
C3076 C3078 1.395 . S
C3076 C3079 1.403 1_455 S
H3077 C3083 0.930 . S
C3078 H3064 0.930 . S
C3078 C3076 1.395 . S
C3078 C3081 1.403 . S
C3079 C3076 1.403 1_655 S
C3079 C3080 1.524 . S
C3079 C3083 1.400 . S
C3080 H3065 0.960 . S
C3080 H3066 0.960 . S
C3080 H3067 0.960 . S
C3080 C3079 1.524 . S
C3081 C3078 1.403 . S
C3081 C3082 1.392 1_455 S
C3081 C3085 1.495 . S
C3082 C3081 1.392 1_655 S
C3082 C3083 1.385 . S
C3082 C3084 1.478 . S
C3083 H3077 0.930 . S
C3083 C3079 1.400 . S
C3083 C3082 1.385 . S
C3084 C3082 1.478 . S
C3084 C3086 1.381 . S
C3084 C3090 1.383 . S
C3085 C3081 1.495 . S
C3085 H3091 0.959 . S
C3085 H3092 0.961 . S
C3085 H3093 0.960 . S
C3086 C3084 1.381 . S
C3086 C3087 1.394 . S
C3086 H3094 0.930 . S
C3087 C3086 1.394 . S
C3087 C3088 1.383 . S
C3087 H3095 0.929 . S
C3088 C3087 1.383 . S
C3088 C3089 1.377 . S
C3089 H3073 0.930 . S
C3089 C3088 1.377 . S
C3089 C3090 1.379 . S
C3090 H3074 0.931 . S
C3090 C3084 1.383 . S
C3090 C3089 1.379 . S
H3091 C3085 0.959 . S
H3092 C3085 0.961 . S
H3093 C3085 0.960 . S
H3094 C3086 0.930 . S
H3095 C3087 0.929 . S
C513 C78 0.571 . S
C532 C8 0.517 . S
C549 C50 0.532 . S
C568 C22 0.643 . S
C585 C36 0.530 . S
C604 C64 0.625 . S
C621 C92 0.548 . S
C640 C162 0.563 . S
C657 C106 0.531 . S
C676 C134 0.453 . S
C693 C148 0.534 . S
C712 C120 0.460 . S
C729 C176 0.571 . S
C748 C246 0.521 . S
C765 C190 0.539 . S
C784 C218 0.554 . S
C801 C232 0.537 . S
C820 C204 0.560 . S
C837 C330 0.570 . S
C856 C260 0.629 . S
C873 C302 0.531 . S
C892 C274 0.459 . S
C909 C288 0.557 . S
C928 C316 0.610 . S
C945 C414 0.541 . S
C964 C344 0.541 . S
C981 C386 0.573 . S
C1000 C358 0.484 . S
C1017 C372 0.536 . S
C1036 C400 0.565 . S
C1053 C498 0.542 . S
C1072 C428 0.539 . S
C1089 C470 0.558 . S
C1108 C442 0.608 . S
C1125 C484 0.564 . S
C1144 C456 0.633 . S
C1161 C237 1.010 . S
C1180 C13 0.962 . S
C1197 C251 1.004 . S
C1216 C27 1.034 . S
C1233 C223 1.004 . S
C1252 C41 0.986 . S
C1269 C55 1.003 . S
C1288 C377 1.014 . S
C1305 C69 1.009 . S
C1324 C349 1.061 . S
C1341 C83 1.016 . S
C1360 C363 1.065 . S
C1377 C97 1.005 . S
C1396 C489 1.035 . S
C1413 C503 1.015 . S
C1432 C111 0.982 . S
C1449 C475 1.004 . S
C1468 C125 1.043 . S
C1485 C293 1.011 . S
C1504 C139 1.050 . S
C1521 C265 1.003 . S
C1540 C153 1.063 . S
C1557 C167 1.023 . S
C1576 C279 0.994 . S
C1593 C181 1.025 . S
C1612 C405 1.022 . S
C1629 C419 1.012 . S
C1648 C195 0.959 . S
C1665 C391 1.015 . S
C1684 C209 0.958 . S
C1701 C307 1.009 . S
C1720 C461 1.057 . S
C1737 C433 1.021 . S
C1756 C321 0.961 . S
C1773 C335 1.011 . S
C1792 C447 0.999 . S
C1809 C263 1.148 . S
C1828 C11 1.136 . S
C1845 C277 1.145 . S
C1864 C25 1.125 . S
C1881 C39 1.143 . S
C1900 C291 1.141 . S
C1917 C53 1.145 . S
C1936 C473 1.160 . S
C1953 C487 1.149 . S
C1972 C67 1.137 . S
C1989 C501 1.144 . S
C2008 C81 1.126 . S
C2025 C95 1.145 . S
C2044 C347 1.161 . S
C2061 C109 1.151 . S
C2080 C361 1.154 . S
C2097 C375 1.150 . S
C2116 C123 1.145 . S
C2133 C137 1.141 . S
C2152 C221 1.143 . S
C2169 C151 1.143 . S
C2188 C235 1.129 . S
C2205 C249 1.150 . S
C2224 C165 1.142 . S
C2241 C179 1.143 . S
C2260 C431 1.204 . S
C2277 C193 1.148 . S
C2296 C445 1.163 . S
C2313 C459 1.146 . S
C2332 C207 1.153 . S
C2349 C389 1.211 . S
C2368 C305 1.134 . S
C2385 C319 1.146 . S
C2404 C403 1.125 . S
C2421 C333 1.143 . S
C2440 C417 1.133 . S
C2457 C385 1.600 . S
C2476 C7 1.582 . S
C2493 C21 1.601 . S
C2512 C399 1.606 . S
C2529 C413 1.596 . S
C2548 C35 1.592 . S
C2565 C49 1.600 . S
C2584 C175 1.580 . S
C2601 C189 1.598 . S
C2620 C63 1.581 . S
C2637 C203 1.600 . S
C2656 C77 1.580 . S
C2673 C91 1.596 . S
C2692 C301 1.592 . S
C2709 C315 1.599 . S
C2728 C105 1.584 . S
C2745 C119 1.597 . S
C2764 C329 1.611 . S
C2781 C133 1.596 . S
C2800 C427 1.610 . S
C2817 C147 1.596 . S
C2836 C441 1.610 . S
C2853 C455 1.599 . S
C2872 C161 1.604 . S
C2889 C217 1.599 . S
C2908 C343 1.579 . S
C2925 C231 1.600 . S
C2944 C357 1.581 . S
C2961 C245 1.597 . S
C2980 C371 1.583 . S
C2997 C259 1.601 . S
C3016 C469 1.581 . S
C3033 C273 1.601 . S
C3052 C483 1.596 . S
C3069 C497 1.602 . S
C3088 C287 1.588 . S
