# Generated by pormake.
# Topology xfw, (5)-cn, num edge types: 1
# Building blocks:
#     Node 0, Type 0, BuildingBlock: BEQFEK_clean_sbu_0, # of connection points: 5
#     Node 1, Type 0, BuildingBlock: BEQFEK_clean_sbu_0, # of connection points: 5
#     Node 2, Type 0, BuildingBlock: BEQFEK_clean_sbu_0, # of connection points: 5
#     Node 3, Type 0, BuildingBlock: BEQFEK_clean_sbu_0, # of connection points: 5
#     Node 4, Type 0, BuildingBlock: BEQFEK_clean_sbu_0, # of connection points: 5
#     Node 5, Type 0, BuildingBlock: BEQFEK_clean_sbu_0, # of connection points: 5
#     Node 6, Type 0, BuildingBlock: BEQFEK_clean_sbu_0, # of connection points: 5
#     Node 7, Type 0, BuildingBlock: BEQFEK_clean_sbu_0, # of connection points: 5
#     Edge 8, Type (0, 0), BuildingBlock: XUDNAN_clean_linker_2, # of connection points: 2
#     Edge 9, Type (0, 0), BuildingBlock: XUDNAN_clean_linker_2, # of connection points: 2
#     Edge 10, Type (0, 0), BuildingBlock: XUDNAN_clean_linker_2, # of connection points: 2
#     Edge 11, Type (0, 0), BuildingBlock: XUDNAN_clean_linker_2, # of connection points: 2
#     Edge 12, Type (0, 0), BuildingBlock: XUDNAN_clean_linker_2, # of connection points: 2
#     Edge 13, Type (0, 0), BuildingBlock: XUDNAN_clean_linker_2, # of connection points: 2
#     Edge 14, Type (0, 0), BuildingBlock: XUDNAN_clean_linker_2, # of connection points: 2
#     Edge 15, Type (0, 0), BuildingBlock: XUDNAN_clean_linker_2, # of connection points: 2
#     Edge 16, Type (0, 0), BuildingBlock: XUDNAN_clean_linker_2, # of connection points: 2
#     Edge 17, Type (0, 0), BuildingBlock: XUDNAN_clean_linker_2, # of connection points: 2
#     Edge 18, Type (0, 0), BuildingBlock: XUDNAN_clean_linker_2, # of connection points: 2
#     Edge 19, Type (0, 0), BuildingBlock: XUDNAN_clean_linker_2, # of connection points: 2
#     Edge 20, Type (0, 0), BuildingBlock: XUDNAN_clean_linker_2, # of connection points: 2
#     Edge 21, Type (0, 0), BuildingBlock: XUDNAN_clean_linker_2, # of connection points: 2
#     Edge 22, Type (0, 0), BuildingBlock: XUDNAN_clean_linker_2, # of connection points: 2
#     Edge 23, Type (0, 0), BuildingBlock: XUDNAN_clean_linker_2, # of connection points: 2
#     Edge 24, Type (0, 0), BuildingBlock: XUDNAN_clean_linker_2, # of connection points: 2
#     Edge 25, Type (0, 0), BuildingBlock: XUDNAN_clean_linker_2, # of connection points: 2
#     Edge 26, Type (0, 0), BuildingBlock: XUDNAN_clean_linker_2, # of connection points: 2
#     Edge 27, Type (0, 0), BuildingBlock: XUDNAN_clean_linker_2, # of connection points: 2
# Relax obj value: 0.338
# Max RMSD: 0.185
# Mean RMSD: 0.185
data_MOF--net-xfw--node1-BEQFEK_clean_sbu_0--edge1-XUDNAN_clean_linker_2
_symmetry_space_group_name_H-M    P1
_symmetry_Int_Tables_number       1
_symmetry_cell_setting            triclinic
loop_
_symmetry_equiv_pos_as_xyz
'x, y, z'
_cell_length_a     29.313539
_cell_length_b     29.062853
_cell_length_c     62.422237
_cell_angle_alpha  89.942133
_cell_angle_beta   89.973968
_cell_angle_gamma 89.89354
loop_
_atom_site_label
_atom_site_type_symbol
_atom_site_fract_x
_atom_site_fract_y
_atom_site_fract_z
_atom_type_partial_charge
Co0 Co 0.21591 0.06447 0.57987 0.0
Co1 Co 0.21123 0.13788 0.61745 0.0
C2 C 0.14109 0.06306 0.61173 0.0
O3 O 0.16025 0.04733 0.59499 0.0
O4 O 0.1575 0.09691 0.62211 0.0
C5 C 0.21175 0.97929 0.55599 0.0
O6 O 0.18491 0.96623 0.57171 0.0
C7 C 0.21873 0.15995 0.66315 0.0
C8 C 0.21424 0.23577 0.66368 0.0
C9 C 0.21823 0.19756 0.67687 0.0
N10 N 0.21561 0.1752 0.64282 0.0
N11 N 0.21299 0.22061 0.64326 0.0
C12 C 0.21794 0.11013 0.66929 0.0
H13 H 0.21154 0.08811 0.65512 0.0
H14 H 0.25114 0.10006 0.67636 0.0
H15 H 0.19124 0.10421 0.6816 0.0
C16 C 0.30343 0.04457 0.60011 0.0
N17 N 0.26472 0.06913 0.59914 0.0
N18 N 0.26569 0.1021 0.61357 0.0
C19 C 0.30664 0.10082 0.62353 0.0
C20 C 0.33184 0.06414 0.61535 0.0
C21 C 0.31103 0.00107 0.58774 0.0
H22 H 0.27902 0.98089 0.58735 0.0
H23 H 0.33801 0.97935 0.59504 0.0
H24 H 0.3207 0.00972 0.57103 0.0
O25 O 0.2042 0.1238 0.56576 0.0
O26 O 0.19719 0.17662 0.59144 0.0
H27 H 0.30502 0.16939 0.6365 0.0
H28 H 0.36028 0.14157 0.63742 0.0
C29 C 0.32296 0.13625 0.63911 0.0
H30 H 0.31625 0.12421 0.65565 0.0
H31 H 0.20961 0.24122 0.62966 0.0
O32 O 0.22919 0.01932 0.55651 0.0
C33 C 0.19645 0.16491 0.57172 0.0
Co34 Co 0.05746 0.75801 0.42667 0.0
Co35 Co 0.13036 0.76681 0.38927 0.0
C36 C 0.05489 0.83476 0.39443 0.0
O37 O 0.04024 0.81422 0.41108 0.0
O38 O 0.08879 0.8196 0.38377 0.0
C39 C 0.97055 0.76191 0.44828 0.0
O40 O 0.95878 0.7868 0.43158 0.0
C41 C 0.16559 0.77374 0.34499 0.0
C42 C 0.23726 0.75176 0.34898 0.0
C43 C 0.20625 0.76734 0.33385 0.0
N44 N 0.17238 0.76218 0.36566 0.0
N45 N 0.21522 0.74878 0.36787 0.0
C46 C 0.12233 0.79496 0.3369 0.0
H47 H 0.12163 0.83174 0.34164 0.0
H48 H 0.09253 0.77783 0.34442 0.0
H49 H 0.11955 0.7931 0.31924 0.0
C50 C 0.04193 0.66933 0.40592 0.0
N51 N 0.06541 0.70874 0.40769 0.0
N52 N 0.09582 0.71127 0.39219 0.0
C53 C 0.09251 0.67296 0.38004 0.0
C54 C 0.0581 0.64546 0.38834 0.0
C55 C 0.00368 0.65569 0.42047 0.0
H56 H 0.01503 0.65838 0.43737 0.0
H57 H 0.97467 0.67977 0.41817 0.0
H58 H -0.00796 0.62001 0.41733 0.0
O59 O 0.11402 0.77189 0.44171 0.0
O60 O 0.16557 0.7827 0.4161 0.0
H61 H 0.15621 0.6688 0.36342 0.0
H62 H 0.11321 0.62928 0.35371 0.0
C63 C 0.11934 0.6644 0.36005 0.0
H64 H 0.10937 0.68999 0.34772 0.0
H65 H 0.22968 0.73846 0.38238 0.0
O66 O 0.01055 0.74494 0.44909 0.0
C67 C 0.1541 0.78284 0.43586 0.0
Co68 Co 0.75743 0.94293 0.57798 0.0
Co69 Co 0.76295 0.86798 0.61491 0.0
C70 C 0.83066 0.94424 0.61135 0.0
O71 O 0.81147 0.9597 0.59454 0.0
O72 O 0.81511 0.90955 0.62145 0.0
C73 C 0.75661 0.03294 0.55856 0.0
O74 O 0.77122 0.04596 0.57751 0.0
C75 C 0.76635 0.83151 0.6591 0.0
C76 C 0.74966 0.75824 0.65408 0.0
C77 C 0.76184 0.78965 0.66975 0.0
N78 N 0.75715 0.82493 0.63818 0.0
N79 N 0.74676 0.78114 0.63536 0.0
C80 C 0.78415 0.87586 0.6679 0.0
H81 H 0.82152 0.87734 0.66514 0.0
H82 H 0.7682 0.9053 0.65937 0.0
H83 H 0.77791 0.879 0.68533 0.0
C84 C 0.66718 0.95766 0.59723 0.0
N85 N 0.70704 0.93492 0.59628 0.0
N86 N 0.70805 0.90298 0.61126 0.0
C87 C 0.66809 0.90395 0.62204 0.0
C88 C 0.64083 0.93861 0.61345 0.0
C89 C 0.65683 -0.00046 0.58406 0.0
H90 H 0.68474 0.02471 0.58612 0.0
H91 H 0.62468 0.01674 0.58885 0.0
H92 H 0.65522 0.98991 0.56688 0.0
O93 O 0.77206 0.88587 0.56282 0.0
O94 O 0.77983 0.83284 0.58821 0.0
H95 H 0.61888 0.87226 0.6433 0.0
H96 H 0.67529 0.88072 0.65431 0.0
C97 C 0.65592 0.87136 0.63969 0.0
H98 H 0.66571 0.83585 0.63509 0.0
H99 H 0.73898 0.7666 0.62053 0.0
O100 O 0.74724 0.99078 0.55543 0.0
C101 C 0.78163 0.84498 0.56856 0.0
Co102 Co 0.93248 0.22697 0.42745 0.0
Co103 Co 0.8635 0.21761 0.38835 0.0
C104 C 0.93621 0.14866 0.39557 0.0
O105 O 0.94951 0.16916 0.41249 0.0
O106 O 0.90379 0.16418 0.38411 0.0
C107 C 0.02162 0.23859 0.44663 0.0
O108 O 0.03602 0.23383 0.42682 0.0
C109 C 0.823 0.19956 0.34554 0.0
C110 C 0.76935 0.25286 0.3437 0.0
C111 C 0.78959 0.21761 0.33223 0.0
N112 N 0.82289 0.22329 0.36409 0.0
N113 N 0.79034 0.25479 0.3629 0.0
C114 C 0.85617 0.16209 0.34025 0.0
H115 H 0.89144 0.1753 0.34208 0.0
H116 H 0.85147 0.14928 0.32366 0.0
H117 H 0.85165 0.1332 0.35168 0.0
C118 C 0.94769 0.31759 0.40714 0.0
N119 N 0.927 0.27632 0.40789 0.0
N120 N 0.90032 0.27178 0.39104 0.0
C121 C 0.90511 0.3093 0.37848 0.0
C122 C 0.935 0.33975 0.38833 0.0
C123 C 0.97583 0.33688 0.42501 0.0
H124 H 0.96431 0.32271 0.44059 0.0
H125 H 0.01209 0.32733 0.42251 0.0
H126 H 0.97325 0.37496 0.42553 0.0
O127 O 0.87432 0.21676 0.44171 0.0
O128 O 0.82553 0.20515 0.4149 0.0
H129 H 0.8493 0.32747 0.35815 0.0
H130 H 0.90455 0.33866 0.34665 0.0
C131 C 0.88466 0.31424 0.35663 0.0
H132 H 0.88383 0.28042 0.34847 0.0
H133 H 0.78303 0.27826 0.37508 0.0
O134 O 0.97896 0.23797 0.45035 0.0
C135 C 0.83466 0.20714 0.43489 0.0
Co136 Co 0.79216 0.02803 0.08892 0.0
Co137 Co 0.76898 0.11043 0.11998 0.0
C138 C 0.84682 0.04148 0.12669 0.0
O139 O 0.83608 0.0146 0.11146 0.0
O140 O 0.82577 0.07911 0.13008 0.0
C141 C 0.80114 0.93948 0.06548 0.0
O142 O 0.80583 0.91821 0.08393 0.0
C143 C 0.74538 0.13179 0.16409 0.0
C144 C 0.74262 0.20761 0.16475 0.0
C145 C 0.74027 0.1691 0.17793 0.0
N146 N 0.75058 0.14762 0.14396 0.0
N147 N 0.74838 0.193 0.14442 0.0
C148 C 0.7496 0.08192 0.16985 0.0
H149 H 0.77247 0.0775 0.18387 0.0
H150 H 0.76257 0.06153 0.15616 0.0
H151 H 0.71544 0.0682 0.17399 0.0
C152 C 0.69578 0.00694 0.09677 0.0
N153 N 0.73323 0.03213 0.10054 0.0
N154 N 0.72253 0.06718 0.11293 0.0
C155 C 0.67733 0.06591 0.11698 0.0
C156 C 0.65899 0.02772 0.10677 0.0
C157 C 0.6955 0.96346 0.08394 0.0
H158 H 0.72224 0.94012 0.09016 0.0
H159 H 0.66238 0.94525 0.08499 0.0
H160 H 0.70318 0.97146 0.06694 0.0
O161 O 0.80822 0.08686 0.07506 0.0
O162 O 0.78495 0.14744 0.09401 0.0
H163 H 0.66745 0.13694 0.12523 0.0
H164 H 0.61531 0.10362 0.12365 0.0
C165 C 0.65172 0.10296 0.1285 0.0
H166 H 0.65354 0.09637 0.14598 0.0
H167 H 0.7529 0.21406 0.13104 0.0
O168 O 0.79535 0.98281 0.065 0.0
C169 C 0.80339 0.13009 0.07734 0.0
Co170 Co 0.02949 0.19433 0.91729 0.0
Co171 Co 0.11261 0.21645 0.88676 0.0
C172 C 0.04369 0.13934 0.87906 0.0
O173 O 0.01766 0.14983 0.89464 0.0
O174 O 0.0808 0.16082 0.87555 0.0
C175 C 0.93951 0.18634 0.9392 0.0
O176 O 0.92 0.18065 0.92045 0.0
C177 C 0.14793 0.23093 0.84336 0.0
C178 C 0.22045 0.24667 0.84923 0.0
C179 C 0.1893 0.23818 0.83299 0.0
N180 N 0.15451 0.23472 0.86464 0.0
N181 N 0.1978 0.24503 0.86801 0.0
C182 C 0.10438 0.21427 0.83359 0.0
H183 H 0.07525 0.2214 0.84446 0.0
H184 H 0.09801 0.231 0.81793 0.0
H185 H 0.10684 0.17659 0.83092 0.0
C186 C 0.01011 0.29178 0.90885 0.0
N187 N 0.03501 0.2537 0.90548 0.0
N188 N 0.06997 0.26383 0.89309 0.0
C189 C 0.06881 0.30919 0.88854 0.0
C190 C 0.03088 0.32833 0.89851 0.0
C191 C 0.96687 0.29289 0.92161 0.0
H192 H 0.94343 0.26628 0.91539 0.0
H193 H 0.94929 0.32661 0.9205 0.0
H194 H 0.97453 0.28506 0.93863 0.0
O195 O 0.08617 0.17698 0.93232 0.0
O196 O 0.14655 0.19921 0.91339 0.0
H197 H 0.10199 0.37184 0.87802 0.0
H198 H 0.10376 0.32423 0.85939 0.0
C199 C 0.10553 0.33395 0.87656 0.0
H200 H 0.1394 0.32309 0.8827 0.0
H201 H 0.21243 0.24831 0.88316 0.0
O202 O 0.9824 0.19225 0.94033 0.0
C203 C 0.12909 0.18132 0.93015 0.0
Co204 Co 0.20807 0.96776 0.09256 0.0
Co205 Co 0.21474 0.87908 0.12169 0.0
C206 C 0.14939 0.95969 0.12974 0.0
O207 O 0.16407 0.9851 0.11464 0.0
O208 O 0.16543 0.9195 0.13284 0.0
C209 C 0.214 0.0582 0.06921 0.0
O210 O 0.21575 0.08105 0.08733 0.0
C211 C 0.23632 0.84773 0.16477 0.0
C212 C 0.21909 0.77388 0.16414 0.0
C213 C 0.23295 0.80896 0.1777 0.0
N214 N 0.22524 0.83612 0.14457 0.0
N215 N 0.21532 0.79178 0.14425 0.0
C216 C 0.24463 0.8962 0.17187 0.0
H217 H 0.23505 0.92103 0.15915 0.0
H218 H 0.28138 0.90077 0.17545 0.0
H219 H 0.2251 0.90359 0.18672 0.0
C220 C 0.30609 0.97019 0.10126 0.0
N221 N 0.26458 0.95224 0.10459 0.0
N222 N 0.26849 0.91401 0.11581 0.0
C223 C 0.31313 0.90614 0.11966 0.0
C224 C 0.33818 0.94164 0.11061 0.0
C225 C 0.31492 0.01245 0.0882 0.0
H226 H 0.29371 0.04101 0.09442 0.0
H227 H 0.35126 0.02296 0.08883 0.0
H228 H 0.30507 0.00597 0.07131 0.0
O229 O 0.18538 0.91411 0.07697 0.0
O230 O 0.19183 0.84849 0.09485 0.0
H231 H 0.36681 0.85597 0.12382 0.0
H232 H 0.33281 0.86739 0.14719 0.0
C233 C 0.33164 0.8631 0.12956 0.0
H234 H 0.30919 0.8335 0.12581 0.0
H235 H 0.204 0.77421 0.13069 0.0
O236 O 0.21189 0.01453 0.06934 0.0
C237 C 0.18071 0.8707 0.07797 0.0
Co238 Co 0.95422 0.78063 0.91335 0.0
Co239 Co 0.86987 0.77189 0.88228 0.0
C240 C 0.9494 0.83855 0.87577 0.0
O241 O 0.97354 0.82355 0.89118 0.0
O242 O 0.90946 0.82334 0.87207 0.0
C243 C 0.02204 0.8085 0.9436 0.0
O244 O 0.01518 0.8489 0.93468 0.0
C245 C 0.84118 0.75134 0.83869 0.0
C246 C 0.76731 0.76606 0.8391 0.0
C247 C 0.80298 0.75421 0.82557 0.0
N248 N 0.82867 0.76088 0.85894 0.0
N249 N 0.78434 0.76924 0.85913 0.0
C250 C 0.88973 0.74502 0.83181 0.0
H251 H 0.91355 0.7547 0.84483 0.0
H252 H 0.89575 0.70835 0.82781 0.0
H253 H 0.89682 0.76584 0.81727 0.0
C254 C 0.96081 0.6828 0.90443 0.0
N255 N 0.94124 0.72376 0.9009 0.0
N256 N 0.90523 0.71852 0.88856 0.0
C257 C 0.90006 0.67326 0.88436 0.0
C258 C 0.93522 0.64935 0.89433 0.0
C259 C 0.00228 0.67583 0.91806 0.0
H260 H 0.02771 0.70301 0.91452 0.0
H261 H 0.018 0.6416 0.9152 0.0
H262 H -0.00749 0.67856 0.93519 0.0
O263 O 0.89976 0.80479 0.92821 0.0
O264 O 0.83728 0.79229 0.90877 0.0
H265 H 0.82887 0.67417 0.8762 0.0
H266 H 0.85371 0.61706 0.87845 0.0
C267 C 0.85974 0.65302 0.87316 0.0
H268 H 0.86634 0.65275 0.85567 0.0
H269 H 0.7661 0.7792 0.87272 0.0
O270 O 0.00086 0.77379 0.93632 0.0
C271 C 0.85671 0.80662 0.92579 0.0
H272 H 0.17521 0.89411 0.54909 0.0
H273 H 0.26539 0.99535 0.52061 0.0
H274 H 0.27234 0.94691 0.48824 0.0
H275 H 0.22986 0.78985 0.52484 0.0
H276 H 0.17532 0.76246 0.52112 0.0
H277 H 0.18392 0.8011 0.54333 0.0
H278 H 0.11463 0.85006 0.53101 0.0
H279 H 0.10569 0.81146 0.50898 0.0
H280 H 0.11325 0.87207 0.504 0.0
H281 H 0.26038 0.89267 0.45701 0.0
H282 H 0.22694 0.84112 0.42973 0.0
H283 H 0.14614 0.77506 0.47914 0.0
C284 C 0.19737 0.90563 0.53629 0.0
C285 C 0.21985 0.94848 0.53744 0.0
C286 C 0.24792 0.96256 0.52015 0.0
C287 C 0.2523 0.93513 0.50173 0.0
C288 C 0.22884 0.89345 0.50093 0.0
C289 C 0.20209 0.87873 0.51785 0.0
C290 C 0.17637 0.83531 0.51226 0.0
C291 C 0.19234 0.79478 0.52622 0.0
C292 C 0.12444 0.8427 0.51416 0.0
C293 C 0.19103 0.82906 0.4892 0.0
C294 C 0.22207 0.86225 0.48302 0.0
C295 C 0.23683 0.86594 0.4618 0.0
C296 C 0.21785 0.8363 0.44639 0.0
C297 C 0.18404 0.8039 0.45228 0.0
C298 C 0.17227 0.79908 0.47414 0.0
H299 H 0.77813 0.85527 0.52518 0.0
H300 H 0.83291 0.76663 0.5749 0.0
H301 H 0.88077 0.72728 0.54787 0.0
H302 H 0.78256 0.76892 0.48018 0.0
H303 H 0.79879 0.81301 0.46135 0.0
H304 H 0.76235 0.82706 0.48368 0.0
H305 H 0.81896 0.89081 0.49513 0.0
H306 H 0.85586 0.87664 0.47312 0.0
H307 H 0.87777 0.87595 0.5001 0.0
H308 H 0.93279 0.70801 0.5167 0.0
H309 H 0.98059 0.70753 0.48404 0.0
H310 H 0.89097 0.80886 0.455 0.0
C311 C 0.79897 0.82649 0.53032 0.0
C312 C 0.80163 0.81396 0.55218 0.0
C313 C 0.82983 0.77651 0.55823 0.0
C314 C 0.85728 0.75405 0.54297 0.0
C315 C 0.85557 0.76901 0.52171 0.0
C316 C 0.82643 0.80389 0.51536 0.0
C317 C 0.83414 0.81703 0.49216 0.0
C318 C 0.79195 0.80582 0.47854 0.0
C319 C 0.84749 0.86811 0.49003 0.0
C320 C 0.87363 0.78564 0.48667 0.0
C321 C 0.88521 0.75773 0.50379 0.0
C322 C 0.92331 0.72893 0.50305 0.0
C323 C 0.95039 0.72904 0.48446 0.0
C324 C 0.93936 0.75791 0.46688 0.0
C325 C 0.89992 0.78579 0.46797 0.0
H326 H 0.76008 0.01654 0.51533 0.0
H327 H 0.74696 0.12598 0.56211 0.0
H328 H 0.74903 0.18355 0.53305 0.0
H329 H 0.84171 0.0699 0.48507 0.0
H330 H 0.82218 0.04943 0.45942 0.0
H331 H 0.81012 0.01687 0.48322 0.0
H332 H 0.72379 0.0198 0.47438 0.0
H333 H 0.73566 0.05284 0.45056 0.0
H334 H 0.69628 0.07464 0.47029 0.0
H335 H 0.7654 0.22903 0.50039 0.0
H336 H 0.79944 0.25877 0.46693 0.0
H337 H 0.80145 0.12112 0.44065 0.0
C338 C 0.75613 0.05256 0.51935 0.0
C339 C 0.75285 0.06683 0.54094 0.0
C340 C 0.7493 0.11431 0.54567 0.0
C341 C 0.75009 0.14724 0.52924 0.0
C342 C 0.75443 0.1322 0.50814 0.0
C343 C 0.75745 0.08595 0.50313 0.0
C344 C 0.76827 0.07916 0.47957 0.0
C345 C 0.81323 0.05229 0.47666 0.0
C346 C 0.72862 0.05519 0.46802 0.0
C347 C 0.77288 0.12879 0.47233 0.0
C348 C 0.76375 0.15884 0.48898 0.0
C349 C 0.77124 0.20604 0.48704 0.0
C350 C 0.79029 0.22273 0.46796 0.0
C351 C 0.80127 0.19241 0.45105 0.0
C352 C 0.79107 0.14516 0.45299 0.0
H353 H 0.10917 0.1907 0.56479 0.0
H354 H 0.2462 0.20404 0.5399 0.0
H355 H 0.21546 0.23645 0.50618 0.0
H356 H 0.06414 0.14729 0.51969 0.0
H357 H 0.00899 0.17462 0.52122 0.0
H358 H 0.04112 0.16443 0.54526 0.0
H359 H 0.03728 0.251 0.55487 0.0
H360 H 0.00423 0.26148 0.53099 0.0
H361 H 0.05604 0.29325 0.53563 0.0
H362 H 0.1699 0.25291 0.47322 0.0
H363 H 0.11343 0.25459 0.44391 0.0
H364 H 0.00515 0.22854 0.48974 0.0
C365 C 0.13262 0.20312 0.55269 0.0
C366 C 0.18007 0.19687 0.55515 0.0
C367 C 0.20989 0.21035 0.53851 0.0
C368 C 0.19264 0.22849 0.51929 0.0
C369 C 0.14544 0.23245 0.51693 0.0
C370 C 0.11578 0.2206 0.53329 0.0
C371 C 0.06665 0.22169 0.52566 0.0
C372 C 0.04393 0.17419 0.5281 0.0
C373 C 0.03945 0.25909 0.53749 0.0
C374 C 0.07338 0.23415 0.50228 0.0
C375 C 0.119 0.24088 0.49765 0.0
C376 C 0.134 0.24871 0.47676 0.0
C377 C 0.10167 0.24934 0.46018 0.0
C378 C 0.0548 0.24199 0.46451 0.0
C379 C 0.04059 0.23509 0.48594 0.0
H380 H 0.86188 0.89097 0.94371 0.0
H381 H 0.79601 0.75851 0.95002 0.0
H382 H 0.76952 0.77989 0.98643 0.0
H383 H 0.90429 0.89873 0.99398 0.0
H384 H 0.89451 0.9594 0.99791 0.0
H385 H 0.9018 0.93707 0.97128 0.0
H386 H 0.82396 0.97138 0.95974 0.0
H387 H 0.81688 0.99493 0.98624 0.0
H388 H 0.77351 0.9582 0.97508 0.0
H389 H 0.76376 0.81044 0.02443 0.0
H390 H 0.76758 0.85277 0.05886 0.0
H391 H 0.83236 0.96742 0.02653 0.0
C392 C 0.84009 0.86742 0.95244 0.0
C393 C 0.83004 0.82356 0.94408 0.0
C394 C 0.80285 0.79274 0.95605 0.0
C395 C 0.78811 0.80448 0.97678 0.0
C396 C 0.80019 0.84745 0.98497 0.0
C397 C 0.8244 0.87901 0.97289 0.0
C398 C 0.83517 0.92186 0.98568 0.0
C399 C 0.88701 0.92967 0.9873 0.0
C400 C 0.81092 0.96409 0.97612 0.0
C401 C 0.815 0.90878 0.00714 0.0
C402 C 0.79513 0.86569 0.0065 0.0
C403 C 0.77813 0.84469 0.02496 0.0
C404 C 0.78083 0.86872 0.04446 0.0
C405 C 0.79985 0.91339 0.04522 0.0
C406 C 0.8169 0.93359 0.02629 0.0
H407 H 0.88875 0.1364 0.0617 0.0
H408 H 0.75029 0.18299 0.05123 0.0
H409 H 0.7715 0.20913 0.01471 0.0
H410 H 0.94657 0.2298 0.02889 0.0
H411 H 0.98911 0.18959 0.01965 0.0
H412 H 0.96452 0.18306 0.04595 0.0
H413 H 0.9417 0.09953 0.03634 0.0
H414 H 0.96498 0.10609 0.00988 0.0
H415 H 0.90624 0.08929 0.01324 0.0
H416 H 0.8046 0.21491 0.97716 0.0
H417 H 0.84962 0.21133 0.94357 0.0
H418 H 0.96736 0.16455 0.97958 0.0
C419 C 0.86361 0.1543 0.05207 0.0
C420 C 0.81826 0.15886 0.05929 0.0
C421 C 0.78553 0.18063 0.0461 0.0
C422 C 0.79723 0.19509 0.0253 0.0
C423 C 0.84193 0.1881 0.01822 0.0
C424 C 0.87495 0.16943 0.03148 0.0
C425 C 0.91954 0.16231 0.0197 0.0
C426 C 0.95716 0.19304 0.0291 0.0
C427 C 0.93391 0.11129 0.0198 0.0
C428 C 0.90605 0.17801 0.99749 0.0
C429 C 0.86119 0.19273 0.99687 0.0
C430 C 0.84009 0.20464 0.97759 0.0
C431 C 0.86574 0.20209 0.95858 0.0
C432 C 0.91202 0.18812 0.95904 0.0
C433 C 0.93227 0.1762 0.9788 0.0
H434 H 0.12389 0.10021 0.95115 0.0
H435 H 0.1961 0.23004 0.95053 0.0
H436 H 0.23078 0.21087 0.98573 0.0
H437 H 0.09486 0.09858 0.00404 0.0
H438 H 0.10334 0.03784 0.00837 0.0
H439 H 0.08933 0.05873 0.98207 0.0
H440 H 0.16144 0.01999 0.96645 0.0
H441 H 0.17581 -0.00163 0.99265 0.0
H442 H 0.21652 0.03234 0.97793 0.0
H443 H 0.24628 0.18247 0.02381 0.0
H444 H 0.25049 0.14249 0.05892 0.0
H445 H 0.17239 0.02913 0.03278 0.0
C446 C 0.14823 0.12386 0.95814 0.0
C447 C 0.15781 0.16636 0.94821 0.0
C448 C 0.18912 0.19696 0.95782 0.0
C449 C 0.20863 0.18645 0.97784 0.0
C450 C 0.19715 0.1448 0.98764 0.0
C451 C 0.16862 0.11344 0.97777 0.0
C452 C 0.16003 0.07195 0.99185 0.0
C453 C 0.10887 0.06651 0.99688 0.0
C454 C 0.17964 0.02807 0.9816 0.0
C455 C 0.18671 0.08554 0.01156 0.0
C456 C 0.20779 0.1277 0.00895 0.0
C457 C 0.23088 0.14893 0.02582 0.0
C458 C 0.23283 0.12621 0.04572 0.0
C459 C 0.2123 0.08256 0.04843 0.0
C460 C 0.18927 0.06206 0.03104 0.0
H461 H 0.07803 0.87375 0.96082 0.0
H462 H 0.02866 0.73484 0.97115 0.0
H463 H 0.06916 0.7321 0.00592 0.0
H464 H 0.19048 0.85609 0.98569 0.0
H465 H 0.19146 0.91291 0.99716 0.0
H466 H 0.16188 0.90296 0.9723 0.0
H467 H 0.08781 0.93651 0.98822 0.0
H468 H 0.11626 0.94716 0.01321 0.0
H469 H 0.0651 0.91289 0.01272 0.0
H470 H 0.10988 0.7483 0.04165 0.0
H471 H 0.14753 0.78161 0.07377 0.0
H472 H 0.17033 0.90828 0.03846 0.0
C473 C 0.07628 0.84243 0.9702 0.0
C474 C 0.05015 0.80456 0.96326 0.0
C475 C 0.04867 0.76427 0.97609 0.0
C476 C 0.07155 0.76238 0.99588 0.0
C477 C 0.09625 0.80082 1.00247 0.0
C478 C 0.0991 0.83986 0.98982 0.0
C479 C 0.12611 0.87732 1.00072 0.0
C480 C 0.17008 0.88793 0.98822 0.0
C481 C 0.09706 0.92101 0.00391 0.0
C482 C 0.13657 0.854 0.02181 0.0
C483 C 0.11966 0.80974 0.02259 0.0
C484 C 0.12373 0.78276 0.04108 0.0
C485 C 0.14516 0.80187 0.05924 0.0
C486 C 0.1618 0.84756 0.05873 0.0
C487 C 0.15796 0.87326 0.03955 0.0
H488 H 0.56996 0.9524 0.58651 0.0
H489 H 0.6069 0.95721 0.65365 0.0
H490 H 0.53068 0.98981 0.66231 0.0
H491 H 0.51777 0.06181 0.5862 0.0
H492 H 0.47473 0.04628 0.56691 0.0
H493 H 0.52917 0.01754 0.5667 0.0
H494 H 0.489 0.93842 0.57028 0.0
H495 H 0.43437 0.96687 0.57025 0.0
H496 H 0.44951 0.92898 0.592 0.0
H497 H 0.44933 0.02393 0.66278 0.0
H498 H 0.37242 0.05579 0.65502 0.0
H499 H 0.3976 0.03959 0.58702 0.0
C500 C 0.56186 0.95999 0.60308 0.0
C501 C 0.59401 0.95243 0.61944 0.0
C502 C 0.58229 0.96235 0.64094 0.0
C503 C 0.53933 0.98118 0.64594 0.0
C504 C 0.50909 0.99027 0.62918 0.0
C505 C 0.52012 0.98006 0.60817 0.0
C506 C 0.48376 -0.00394 0.59278 0.0
C507 C 0.50248 0.03259 0.57724 0.0
C508 C 0.46293 0.95514 0.58062 0.0
C509 C 0.45016 0.01667 0.60835 0.0
C510 C 0.46476 0.01261 0.62931 0.0
C511 C 0.43781 0.02756 0.6464 0.0
C512 C 0.39443 0.04601 0.64186 0.0
C513 C 0.37905 0.04978 0.62044 0.0
C514 C 0.40807 0.03629 0.60358 0.0
H515 H 0.09386 0.55916 0.38947 0.0
H516 H 0.97599 0.63758 0.36909 0.0
H517 H 0.93454 0.56541 0.36141 0.0
H518 H 0.07756 0.45801 0.35143 0.0
H519 H 0.09581 0.41778 0.37171 0.0
H520 H 0.11936 0.47504 0.37105 0.0
H521 H 0.09473 0.4869 0.41053 0.0
H522 H 0.07048 0.43018 0.41124 0.0
H523 H 0.03566 0.47937 0.41779 0.0
H524 H 0.90152 0.48689 0.36283 0.0
H525 H 0.88024 0.40694 0.37161 0.0
H526 H 0.02023 0.37794 0.3896 0.0
C527 C 0.06011 0.56078 0.38245 0.0
C528 C 0.03814 0.60336 0.37936 0.0
C529 C -0.00665 0.6049 0.37107 0.0
C530 C 0.96967 0.56419 0.3667 0.0
C531 C 0.99151 0.52241 0.37065 0.0
C532 C 0.036 0.52033 0.37806 0.0
C533 C 0.0496 0.47136 0.38343 0.0
C534 C 0.08785 0.45456 0.36851 0.0
C535 C 0.06341 0.46672 0.40715 0.0
C536 C 0.00523 0.44667 0.37889 0.0
C537 C 0.97233 0.47661 0.37128 0.0
C538 C 0.92732 0.46278 0.36814 0.0
C539 C 0.91556 0.41728 0.37311 0.0
C540 C 0.94868 0.38623 0.38109 0.0
C541 C -0.00578 0.40098 0.38352 0.0
H542 H 0.5935 0.01432 0.13763 0.0
H543 H 0.61615 0.01454 0.06896 0.0
H544 H 0.53845 0.98484 0.06315 0.0
H545 H 0.52502 0.91206 0.14041 0.0
H546 H 0.48584 0.93433 0.16012 0.0
H547 H 0.5438 0.95485 0.15933 0.0
H548 H 0.51516 0.03891 0.15553 0.0
H549 H 0.45718 0.01871 0.1568 0.0
H550 H 0.47566 0.0532 0.13441 0.0
H551 H 0.46078 0.95354 0.06449 0.0
H552 H 0.38066 0.93402 0.07255 0.0
H553 H 0.40525 0.95682 0.14016 0.0
C554 C 0.5817 0.00843 0.12142 0.0
C555 C 0.61073 0.01559 0.10372 0.0
C556 C 0.59444 0.00815 0.08269 0.0
C557 C 0.55055 0.99123 0.07925 0.0
C558 C 0.52325 0.9827 0.09702 0.0
C559 C 0.53758 0.99194 0.11766 0.0
C560 C 0.50014 0.98184 0.13374 0.0
C561 C 0.51458 0.94348 0.14932 0.0
C562 C 0.48621 0.02578 0.14583 0.0
C563 C 0.46266 0.96568 0.11883 0.0
C564 C 0.47721 0.96581 0.09776 0.0
C565 C 0.44885 0.95328 0.0809 0.0
C566 C 0.40367 0.94204 0.0856 0.0
C567 C 0.38749 0.94391 0.1069 0.0
C568 C 0.41743 0.95463 0.12381 0.0
H569 H 0.01455 0.39327 0.86737 0.0
H570 H 0.0206 0.37262 0.93613 0.0
H571 H 0.98949 0.45044 0.94194 0.0
H572 H 0.04968 0.51395 0.86924 0.0
H573 H 0.01325 0.53075 0.84732 0.0
H574 H 0.03556 0.47303 0.8486 0.0
H575 H 0.95313 0.44127 0.84632 0.0
H576 H 0.93053 0.49896 0.84556 0.0
H577 H 0.9114 0.45922 0.86583 0.0
H578 H 0.95472 0.52705 0.94063 0.0
H579 H 0.93118 0.60666 0.93253 0.0
H580 H 0.95108 0.5816 0.86471 0.0
C581 C 0.00983 0.40564 0.88358 0.0
C582 C 0.01903 0.37711 0.90135 0.0
C583 C 0.01289 0.39405 0.92238 0.0
C584 C -0.0049 0.43795 0.92583 0.0
C585 C 0.98446 0.46466 0.90803 0.0
C586 C -0.00741 0.44989 0.88733 0.0
C587 C 0.98001 0.48685 0.87121 0.0
C588 C 0.02214 0.50205 0.85834 0.0
C589 C 0.94147 0.47058 0.85635 0.0
C590 C 0.96362 0.52451 0.88616 0.0
C591 C 0.96581 0.51038 0.90729 0.0
C592 C 0.95306 0.53875 0.92419 0.0
C593 C 0.93958 0.58366 0.91945 0.0
C594 C 0.93962 0.59971 0.89808 0.0
C595 C 0.95044 0.56959 0.88114 0.0
H596 H 0.0753 0.03936 0.58401 0.0
H597 H 0.10473 0.04859 0.6519 0.0
H598 H 0.02704 0.01884 0.66011 0.0
H599 H 0.96045 0.07976 0.58805 0.0
H600 H 0.94035 0.0432 0.56676 0.0
H601 H -0.00146 0.06288 0.56677 0.0
H602 H 0.02714 0.97841 0.56481 0.0
H603 H 0.96906 0.95849 0.56468 0.0
H604 H 0.00832 0.93757 0.58467 0.0
H605 H 0.94627 0.98308 0.65993 0.0
H606 H 0.86887 0.95292 0.65157 0.0
H607 H 0.8937 0.97657 0.58398 0.0
C608 C 0.06558 0.03467 0.60063 0.0
C609 C 0.09587 0.04524 0.61736 0.0
C610 C 0.08175 0.04011 0.63891 0.0
C611 C 0.0379 0.02329 0.64366 0.0
C612 C 0.00872 0.01306 0.62664 0.0
C613 C 0.02199 0.01933 0.60558 0.0
C614 C 0.98428 0.00822 0.59007 0.0
C615 C 0.97007 0.05107 0.57716 0.0
C616 C -0.00197 0.9683 0.57519 0.0
C617 C 0.9476 0.99399 0.6056 0.0
C618 C 0.96214 -0.00371 0.62663 0.0
C619 C 0.93434 0.98189 0.64354 0.0
C620 C 0.89063 0.96482 0.63869 0.0
C621 C 0.87528 0.96342 0.61721 0.0
C622 C 0.90415 0.97842 0.60061 0.0
H623 H 0.02145 0.89686 0.42251 0.0
H624 H 0.04693 0.87555 0.3548 0.0
H625 H 0.01816 0.95433 0.34717 0.0
H626 H 0.9197 0.96611 0.41807 0.0
H627 H 0.93566 0.00296 0.44001 0.0
H628 H 0.95471 0.94404 0.43949 0.0
H629 H 0.03854 0.97147 0.44291 0.0
H630 H 0.01981 0.03049 0.44324 0.0
H631 H 0.06101 0.01174 0.42364 0.0
H632 H 0.98422 0.03545 0.34744 0.0
H633 H 0.95437 0.11341 0.35577 0.0
H634 H 0.95994 0.08184 0.4236 0.0
C635 C 0.02025 0.90842 0.40602 0.0
C636 C 0.03556 0.8801 0.38916 0.0
C637 C 0.03489 0.89684 0.36787 0.0
C638 C 0.01862 0.94137 0.36343 0.0
C639 C 0.00416 0.96865 0.38054 0.0
C640 C 0.00536 0.95284 0.40142 0.0
C641 C 0.99086 0.98945 0.41716 0.0
C642 C 0.94767 0.97476 0.42939 0.0
C643 C 0.02989 0.00149 0.43264 0.0
C644 C 0.98109 0.02853 0.40191 0.0
C645 C 0.98819 0.01585 0.38082 0.0
C646 C 0.97911 0.04589 0.3639 0.0
C647 C 0.96226 0.08995 0.36875 0.0
C648 C 0.95585 0.10357 0.3903 0.0
C649 C 0.96567 0.07254 0.40701 0.0
H650 H 0.10702 0.04337 0.12859 0.0
H651 H 0.0986 0.90779 0.15742 0.0
H652 H 0.02011 0.92407 0.16887 0.0
H653 H 0.02183 0.10306 0.16845 0.0
H654 H 3e-05 0.13745 0.14668 0.0
H655 H 0.05963 0.12196 0.14744 0.0
H656 H 0.05247 0.08711 0.10943 0.0
H657 H -0.00684 0.10168 0.10864 0.0
H658 H 0.01068 0.04283 0.10461 0.0
H659 H 0.93913 0.94217 0.16528 0.0
H660 H 0.86392 0.96596 0.15112 0.0
H661 H 0.92276 0.09258 0.12757 0.0
C662 C 0.08936 0.01802 0.13822 0.0
C663 C 0.10863 0.97421 0.14187 0.0
C664 C 0.0845 0.94163 0.15436 0.0
C665 C 0.03984 0.95066 0.16104 0.0
C666 C 0.02032 0.99284 0.15564 0.0
C667 C 0.04481 0.02671 0.1451 0.0
C668 C 0.01414 0.06588 0.1381 0.0
C669 C 0.02452 0.10968 0.15094 0.0
C670 C 0.01783 0.0748 0.11377 0.0
C671 C 0.96812 0.04636 0.14418 0.0
C672 C 0.97243 0.00466 0.15476 0.0
C673 C 0.93506 0.97575 0.15802 0.0
C674 C 0.89262 0.98924 0.14984 0.0
C675 C 0.88804 0.03146 0.13891 0.0
C676 C 0.92563 0.06105 0.13675 0.0
H677 H 0.90329 0.91713 0.86936 0.0
H678 H 0.03329 0.85104 0.85802 0.0
H679 H 0.06582 0.9252 0.84622 0.0
H680 H 0.91556 0.01803 0.82851 0.0
H681 H 0.89 0.05665 0.84766 0.0
H682 H 0.87174 -0.00253 0.84637 0.0
H683 H 0.88914 0.98814 0.88683 0.0
H684 H 0.90765 0.04668 0.88821 0.0
H685 H 0.94556 0.00118 0.89659 0.0
H686 H 0.08901 0.006 0.84452 0.0
H687 H 0.10356 0.08481 0.8572 0.0
H688 H 0.96051 0.09994 0.87337 0.0
C689 C 0.93779 0.91814 0.86316 0.0
C690 C 0.96568 0.87878 0.86397 0.0
C691 C 0.01142 0.88105 0.85702 0.0
C692 C 0.02994 0.92293 0.85017 0.0
C693 C 0.00237 0.96213 0.85074 0.0
C694 C 0.95711 0.96007 0.85712 0.0
C695 C 0.93811 0.00752 0.86167 0.0
C696 C 0.9017 0.02069 0.84505 0.0
C697 C 0.91909 0.01104 0.88468 0.0
C698 C 0.98074 0.03605 0.85878 0.0
C699 C 0.01675 0.00969 0.85133 0.0
C700 C 0.06088 0.02725 0.84986 0.0
C701 C 0.06886 0.07205 0.85716 0.0
C702 C 0.0331 0.09806 0.8664 0.0
C703 C 0.98828 0.08063 0.86627 0.0
H704 H 0.16558 0.24704 0.70494 0.0
H705 H 0.27837 0.15051 0.70223 0.0
H706 H 0.28332 0.15106 0.74171 0.0
H707 H 0.20788 0.3143 0.74932 0.0
H708 H 0.15241 0.32292 0.76114 0.0
H709 H 0.15771 0.31507 0.73262 0.0
H710 H 0.10104 0.24687 0.73434 0.0
H711 H 0.09559 0.25449 0.76286 0.0
H712 H 0.11248 0.19943 0.75219 0.0
H713 H 0.27712 0.1632 0.78141 0.0
H714 H 0.25762 0.18305 0.81881 0.0
H715 H 0.14857 0.27157 0.79617 0.0
C716 C 0.19126 0.22604 0.71272 0.0
C717 C 0.22102 0.19796 0.70058 0.0
C718 C 0.2543 0.17107 0.71124 0.0
C719 C 0.2577 0.17159 0.73366 0.0
C720 C 0.22754 0.1992 0.74521 0.0
C721 C 0.19481 0.22582 0.73515 0.0
C722 C 0.16617 0.25188 0.75139 0.0
C723 C 0.17137 0.30414 0.74844 0.0
C724 C 0.11584 0.23728 0.75011 0.0
C725 C 0.18793 0.23578 0.77214 0.0
C726 C 0.22348 0.20565 0.76816 0.0
C727 C 0.24921 0.18657 0.78471 0.0
C728 C 0.23802 0.19817 0.80588 0.0
C729 C 0.20111 0.22813 0.81038 0.0
C730 C 0.17612 0.24754 0.79323 0.0
H731 H 0.17734 0.76394 0.2061 0.0
H732 H 0.29999 0.84679 0.2026 0.0
H733 H 0.30614 0.8452 0.24205 0.0
H734 H 0.13113 0.81685 0.25318 0.0
H735 H 0.10859 0.76423 0.26419 0.0
H736 H 0.11434 0.77069 0.23561 0.0
H737 H 0.16345 0.69657 0.23397 0.0
H738 H 0.15758 0.6897 0.26252 0.0
H739 H 0.21354 0.69184 0.25058 0.0
H740 H 0.29908 0.83453 0.28188 0.0
H741 H 0.27849 0.81665 0.31941 0.0
H742 H 0.16025 0.74092 0.29734 0.0
C743 C 0.20565 0.78144 0.21367 0.0
C744 C 0.23785 0.80611 0.20132 0.0
C745 C 0.27432 0.82871 0.21176 0.0
C746 C 0.27829 0.82766 0.23416 0.0
C747 C 0.24551 0.8038 0.24592 0.0
C748 C 0.2099 0.78104 0.23606 0.0
C749 C 0.17882 0.75863 0.25248 0.0
C750 C 0.13035 0.77882 0.25129 0.0
C751 C 0.17834 0.70606 0.24972 0.0
C752 C 0.20248 0.77244 0.2731 0.0
C753 C 0.24101 0.79829 0.26892 0.0
C754 C 0.26886 0.81452 0.28534 0.0
C755 C 0.25694 0.80419 0.30658 0.0
C756 C 0.21726 0.7784 0.31126 0.0
C757 C 0.18995 0.762 0.29425 0.0
H758 H 0.75558 0.80978 0.79789 0.0
H759 H 0.84476 0.69062 0.79972 0.0
H760 H 0.84406 0.68729 0.76021 0.0
H761 H 0.68683 0.77239 0.75278 0.0
H762 H 0.68137 0.8294 0.74167 0.0
H763 H 0.68833 0.82191 0.77013 0.0
H764 H 0.75869 0.87569 0.76934 0.0
H765 H 0.75216 0.88309 0.74085 0.0
H766 H 0.80554 0.86267 0.75162 0.0
H767 H 0.83364 0.69675 0.72051 0.0
H768 H 0.81503 0.71899 0.68328 0.0
H769 H 0.73233 0.83192 0.7069 0.0
C770 C 0.77471 0.78284 0.78994 0.0
C771 C 0.80089 0.75089 0.80186 0.0
C772 C 0.82553 0.71619 0.79092 0.0
C773 C 0.825 0.71379 0.76847 0.0
C774 C 0.79958 0.74632 0.75717 0.0
C775 C 0.7748 0.78016 0.7675 0.0
C776 C 0.75083 0.81128 0.75151 0.0
C777 C 0.69875 0.80856 0.75418 0.0
C778 C 0.76783 0.86114 0.75345 0.0
C779 C 0.76609 0.78971 0.73057 0.0
C780 C 0.79403 0.75215 0.73424 0.0
C781 C 0.81197 0.72621 0.71746 0.0
C782 C 0.80119 0.73906 0.69639 0.0
C783 C 0.77317 0.77776 0.69223 0.0
C784 C 0.75511 0.80313 0.70959 0.0
H785 H 0.80164 0.26502 0.29483 0.0
H786 H 0.7503 0.13683 0.32067 0.0
H787 H 0.72806 0.11194 0.28414 0.0
H788 H 0.71768 0.28073 0.25292 0.0
H789 H 0.75821 0.30225 0.23365 0.0
H790 H 0.76785 0.31092 0.26186 0.0
H791 H 0.84696 0.27159 0.25869 0.0
H792 H 0.83766 0.26303 0.23046 0.0
H793 H 0.85091 0.21461 0.24744 0.0
H794 H 0.70925 0.10257 0.24494 0.0
H795 H 0.70304 0.10476 0.20569 0.0
H796 H 0.77352 0.23595 0.20469 0.0
C797 C 0.78548 0.23186 0.29269 0.0
C798 C 0.77718 0.2028 0.31039 0.0
C799 C 0.75667 0.1594 0.30718 0.0
C800 C 0.74385 0.14516 0.28655 0.0
C801 C 0.7524 0.17457 0.26933 0.0
C802 C 0.77332 0.21674 0.27213 0.0
C803 C 0.78096 0.2406 0.2508 0.0
C804 C 0.7546 0.28634 0.24975 0.0
C805 C 0.83216 0.24787 0.24661 0.0
C806 C 0.76096 0.20535 0.23558 0.0
C807 C 0.74417 0.16783 0.24663 0.0
C808 C 0.72322 0.13132 0.23609 0.0
C809 C 0.72045 0.13258 0.21365 0.0
C810 C 0.73953 0.16953 0.20183 0.0
C811 C 0.75906 0.20685 0.21313 0.0
loop_
_geom_bond_atom_site_label_1
_geom_bond_atom_site_label_2
_geom_bond_distance
_geom_bond_site_symmetry_2
_ccdc_geom_bond_type
Co0 O3 1.970 . S
Co0 N17 1.989 . S
Co0 O25 1.967 . S
Co0 O32 1.920 . S
Co1 O4 1.966 . S
Co1 N10 2.022 . S
Co1 N18 1.993 . S
Co1 O26 1.941 . S
C2 O3 1.258 . S
C2 O4 1.263 . S
O3 Co0 1.970 . S
O3 C2 1.258 . S
O4 Co1 1.966 . S
O4 C2 1.263 . S
C5 O6 1.235 . S
C5 O32 1.289 1_565 S
O6 C5 1.235 . S
C7 C9 1.400 . S
C7 N10 1.351 . S
C7 C12 1.501 . S
C8 C9 1.387 . S
C8 N11 1.341 . S
C9 C7 1.400 . S
C9 C8 1.387 . S
N10 Co1 2.022 . S
N10 C7 1.351 . S
N10 N11 1.365 . S
N11 C8 1.341 . S
N11 N10 1.365 . S
N11 H31 0.862 . S
C12 C7 1.501 . S
C12 H13 0.961 . S
C12 H14 0.961 . S
C12 H15 0.960 . S
H13 C12 0.961 . S
H14 C12 0.961 . S
H15 C12 0.960 . S
C16 N17 1.342 . S
C16 C20 1.401 . S
C16 C21 1.499 . S
N17 Co0 1.989 . S
N17 C16 1.342 . S
N17 N18 1.388 . S
N18 Co1 1.993 . S
N18 N17 1.388 . S
N18 C19 1.346 . S
C19 N18 1.346 . S
C19 C20 1.396 . S
C19 C29 1.510 . S
C20 C16 1.401 . S
C20 C19 1.396 . S
C21 C16 1.499 . S
C21 H22 0.959 . S
C21 H23 0.960 . S
C21 H24 0.961 . S
H22 C21 0.959 . S
H23 C21 0.960 . S
H24 C21 0.961 . S
O25 Co0 1.967 . S
O25 C33 1.258 . S
O26 Co1 1.941 . S
O26 C33 1.266 . S
H27 C29 0.959 . S
H28 C29 0.961 . S
C29 C19 1.510 . S
C29 H27 0.959 . S
C29 H28 0.961 . S
C29 H30 0.960 . S
H30 C29 0.960 . S
H31 N11 0.862 . S
O32 Co0 1.920 . S
O32 C5 1.289 1_545 S
C33 O25 1.258 . S
C33 O26 1.266 . S
Co34 O37 1.970 . S
Co34 N51 1.989 . S
Co34 O59 1.967 . S
Co34 O66 1.920 . S
Co35 O38 1.966 . S
Co35 N44 2.022 . S
Co35 N52 1.993 . S
Co35 O60 1.941 . S
C36 O37 1.258 . S
C36 O38 1.263 . S
O37 Co34 1.970 . S
O37 C36 1.258 . S
O38 Co35 1.966 . S
O38 C36 1.263 . S
C39 O40 1.235 . S
C39 O66 1.289 1_655 S
O40 C39 1.235 . S
C41 C43 1.400 . S
C41 N44 1.351 . S
C41 C46 1.501 . S
C42 C43 1.387 . S
C42 N45 1.341 . S
C43 C41 1.400 . S
C43 C42 1.387 . S
N44 Co35 2.022 . S
N44 C41 1.351 . S
N44 N45 1.365 . S
N45 C42 1.341 . S
N45 N44 1.365 . S
N45 H65 0.862 . S
C46 C41 1.501 . S
C46 H47 0.961 . S
C46 H48 0.961 . S
C46 H49 0.960 . S
H47 C46 0.961 . S
H48 C46 0.961 . S
H49 C46 0.960 . S
C50 N51 1.342 . S
C50 C54 1.401 . S
C50 C55 1.499 . S
N51 Co34 1.989 . S
N51 C50 1.342 . S
N51 N52 1.388 . S
N52 Co35 1.993 . S
N52 N51 1.388 . S
N52 C53 1.346 . S
C53 N52 1.346 . S
C53 C54 1.396 . S
C53 C63 1.510 . S
C54 C50 1.401 . S
C54 C53 1.396 . S
C55 C50 1.499 . S
C55 H56 0.959 . S
C55 H57 0.960 . S
C55 H58 0.961 . S
H56 C55 0.959 . S
H57 C55 0.960 . S
H58 C55 0.961 . S
O59 Co34 1.967 . S
O59 C67 1.258 . S
O60 Co35 1.941 . S
O60 C67 1.266 . S
H61 C63 0.959 . S
H62 C63 0.961 . S
C63 C53 1.510 . S
C63 H61 0.959 . S
C63 H62 0.961 . S
C63 H64 0.960 . S
H64 C63 0.960 . S
H65 N45 0.862 . S
O66 Co34 1.920 . S
O66 C39 1.289 1_455 S
C67 O59 1.258 . S
C67 O60 1.266 . S
Co68 O71 1.970 . S
Co68 N85 1.989 . S
Co68 O93 1.967 . S
Co68 O100 1.920 . S
Co69 O72 1.966 . S
Co69 N78 2.022 . S
Co69 N86 1.993 . S
Co69 O94 1.941 . S
C70 O71 1.258 . S
C70 O72 1.263 . S
O71 Co68 1.970 . S
O71 C70 1.258 . S
O72 Co69 1.966 . S
O72 C70 1.263 . S
C73 O74 1.235 . S
C73 O100 1.289 1_545 S
O74 C73 1.235 . S
C75 C77 1.400 . S
C75 N78 1.351 . S
C75 C80 1.501 . S
C76 C77 1.387 . S
C76 N79 1.341 . S
C77 C75 1.400 . S
C77 C76 1.387 . S
N78 Co69 2.022 . S
N78 C75 1.351 . S
N78 N79 1.365 . S
N79 C76 1.341 . S
N79 N78 1.365 . S
N79 H99 0.862 . S
C80 C75 1.501 . S
C80 H81 0.961 . S
C80 H82 0.961 . S
C80 H83 0.960 . S
H81 C80 0.961 . S
H82 C80 0.961 . S
H83 C80 0.960 . S
C84 N85 1.342 . S
C84 C88 1.401 . S
C84 C89 1.499 . S
N85 Co68 1.989 . S
N85 C84 1.342 . S
N85 N86 1.388 . S
N86 Co69 1.993 . S
N86 N85 1.388 . S
N86 C87 1.346 . S
C87 N86 1.346 . S
C87 C88 1.396 . S
C87 C97 1.510 . S
C88 C84 1.401 . S
C88 C87 1.396 . S
C89 C84 1.499 . S
C89 H90 0.959 . S
C89 H91 0.960 . S
C89 H92 0.961 . S
H90 C89 0.959 . S
H91 C89 0.960 . S
H92 C89 0.961 . S
O93 Co68 1.967 . S
O93 C101 1.258 . S
O94 Co69 1.941 . S
O94 C101 1.266 . S
H95 C97 0.959 . S
H96 C97 0.961 . S
C97 C87 1.510 . S
C97 H95 0.959 . S
C97 H96 0.961 . S
C97 H98 0.960 . S
H98 C97 0.960 . S
H99 N79 0.862 . S
O100 Co68 1.920 . S
O100 C73 1.289 1_565 S
C101 O93 1.258 . S
C101 O94 1.266 . S
Co102 O105 1.970 . S
Co102 N119 1.989 . S
Co102 O127 1.967 . S
Co102 O134 1.920 . S
Co103 O106 1.966 . S
Co103 N112 2.022 . S
Co103 N120 1.993 . S
Co103 O128 1.941 . S
C104 O105 1.258 . S
C104 O106 1.263 . S
O105 Co102 1.970 . S
O105 C104 1.258 . S
O106 Co103 1.966 . S
O106 C104 1.263 . S
C107 O108 1.235 . S
C107 O134 1.289 1_455 S
O108 C107 1.235 . S
C109 C111 1.400 . S
C109 N112 1.351 . S
C109 C114 1.501 . S
C110 C111 1.387 . S
C110 N113 1.341 . S
C111 C109 1.400 . S
C111 C110 1.387 . S
N112 Co103 2.022 . S
N112 C109 1.351 . S
N112 N113 1.365 . S
N113 C110 1.341 . S
N113 N112 1.365 . S
N113 H133 0.862 . S
C114 C109 1.501 . S
C114 H115 0.961 . S
C114 H116 0.961 . S
C114 H117 0.960 . S
H115 C114 0.961 . S
H116 C114 0.961 . S
H117 C114 0.960 . S
C118 N119 1.342 . S
C118 C122 1.401 . S
C118 C123 1.499 . S
N119 Co102 1.989 . S
N119 C118 1.342 . S
N119 N120 1.388 . S
N120 Co103 1.993 . S
N120 N119 1.388 . S
N120 C121 1.346 . S
C121 N120 1.346 . S
C121 C122 1.396 . S
C121 C131 1.510 . S
C122 C118 1.401 . S
C122 C121 1.396 . S
C123 C118 1.499 . S
C123 H124 0.959 . S
C123 H125 0.960 . S
C123 H126 0.961 . S
H124 C123 0.959 . S
H125 C123 0.960 . S
H126 C123 0.961 . S
O127 Co102 1.967 . S
O127 C135 1.258 . S
O128 Co103 1.941 . S
O128 C135 1.266 . S
H129 C131 0.959 . S
H130 C131 0.961 . S
C131 C121 1.510 . S
C131 H129 0.959 . S
C131 H130 0.961 . S
C131 H132 0.960 . S
H132 C131 0.960 . S
H133 N113 0.862 . S
O134 Co102 1.920 . S
O134 C107 1.289 1_655 S
C135 O127 1.258 . S
C135 O128 1.266 . S
Co136 O139 1.970 . S
Co136 N153 1.989 . S
Co136 O161 1.967 . S
Co136 O168 1.920 . S
Co137 O140 1.966 . S
Co137 N146 2.022 . S
Co137 N154 1.993 . S
Co137 O162 1.941 . S
C138 O139 1.258 . S
C138 O140 1.263 . S
O139 Co136 1.970 . S
O139 C138 1.258 . S
O140 Co137 1.966 . S
O140 C138 1.263 . S
C141 O142 1.235 . S
C141 O168 1.289 1_565 S
O142 C141 1.235 . S
C143 C145 1.400 . S
C143 N146 1.351 . S
C143 C148 1.501 . S
C144 C145 1.387 . S
C144 N147 1.341 . S
C145 C143 1.400 . S
C145 C144 1.387 . S
N146 Co137 2.022 . S
N146 C143 1.351 . S
N146 N147 1.365 . S
N147 C144 1.341 . S
N147 N146 1.365 . S
N147 H167 0.862 . S
C148 C143 1.501 . S
C148 H149 0.961 . S
C148 H150 0.961 . S
C148 H151 0.960 . S
H149 C148 0.961 . S
H150 C148 0.961 . S
H151 C148 0.960 . S
C152 N153 1.342 . S
C152 C156 1.401 . S
C152 C157 1.499 . S
N153 Co136 1.989 . S
N153 C152 1.342 . S
N153 N154 1.388 . S
N154 Co137 1.993 . S
N154 N153 1.388 . S
N154 C155 1.346 . S
C155 N154 1.346 . S
C155 C156 1.396 . S
C155 C165 1.510 . S
C156 C152 1.401 . S
C156 C155 1.396 . S
C157 C152 1.499 . S
C157 H158 0.959 . S
C157 H159 0.960 . S
C157 H160 0.961 . S
H158 C157 0.959 . S
H159 C157 0.960 . S
H160 C157 0.961 . S
O161 Co136 1.967 . S
O161 C169 1.258 . S
O162 Co137 1.941 . S
O162 C169 1.266 . S
H163 C165 0.959 . S
H164 C165 0.961 . S
C165 C155 1.510 . S
C165 H163 0.959 . S
C165 H164 0.961 . S
C165 H166 0.960 . S
H166 C165 0.960 . S
H167 N147 0.862 . S
O168 Co136 1.920 . S
O168 C141 1.289 1_545 S
C169 O161 1.258 . S
C169 O162 1.266 . S
Co170 O173 1.970 . S
Co170 N187 1.989 . S
Co170 O195 1.967 . S
Co170 O202 1.920 . S
Co171 O174 1.966 . S
Co171 N180 2.022 . S
Co171 N188 1.993 . S
Co171 O196 1.941 . S
C172 O173 1.258 . S
C172 O174 1.263 . S
O173 Co170 1.970 . S
O173 C172 1.258 . S
O174 Co171 1.966 . S
O174 C172 1.263 . S
C175 O176 1.235 . S
C175 O202 1.289 1_655 S
O176 C175 1.235 . S
C177 C179 1.400 . S
C177 N180 1.351 . S
C177 C182 1.501 . S
C178 C179 1.387 . S
C178 N181 1.341 . S
C179 C177 1.400 . S
C179 C178 1.387 . S
N180 Co171 2.022 . S
N180 C177 1.351 . S
N180 N181 1.365 . S
N181 C178 1.341 . S
N181 N180 1.365 . S
N181 H201 0.862 . S
C182 C177 1.501 . S
C182 H183 0.961 . S
C182 H184 0.961 . S
C182 H185 0.960 . S
H183 C182 0.961 . S
H184 C182 0.961 . S
H185 C182 0.960 . S
C186 N187 1.342 . S
C186 C190 1.401 . S
C186 C191 1.499 . S
N187 Co170 1.989 . S
N187 C186 1.342 . S
N187 N188 1.388 . S
N188 Co171 1.993 . S
N188 N187 1.388 . S
N188 C189 1.346 . S
C189 N188 1.346 . S
C189 C190 1.396 . S
C189 C199 1.510 . S
C190 C186 1.401 . S
C190 C189 1.396 . S
C191 C186 1.499 . S
C191 H192 0.959 . S
C191 H193 0.960 . S
C191 H194 0.961 . S
H192 C191 0.959 . S
H193 C191 0.960 . S
H194 C191 0.961 . S
O195 Co170 1.967 . S
O195 C203 1.258 . S
O196 Co171 1.941 . S
O196 C203 1.266 . S
H197 C199 0.959 . S
H198 C199 0.961 . S
C199 C189 1.510 . S
C199 H197 0.959 . S
C199 H198 0.961 . S
C199 H200 0.960 . S
H200 C199 0.960 . S
H201 N181 0.862 . S
O202 Co170 1.920 . S
O202 C175 1.289 1_455 S
C203 O195 1.258 . S
C203 O196 1.266 . S
Co204 O207 1.970 . S
Co204 N221 1.989 . S
Co204 O229 1.967 . S
Co204 O236 1.920 . S
Co205 O208 1.966 . S
Co205 N214 2.022 . S
Co205 N222 1.993 . S
Co205 O230 1.941 . S
C206 O207 1.258 . S
C206 O208 1.263 . S
O207 Co204 1.970 . S
O207 C206 1.258 . S
O208 Co205 1.966 . S
O208 C206 1.263 . S
C209 O210 1.235 . S
C209 O236 1.289 1_545 S
O210 C209 1.235 . S
C211 C213 1.400 . S
C211 N214 1.351 . S
C211 C216 1.501 . S
C212 C213 1.387 . S
C212 N215 1.341 . S
C213 C211 1.400 . S
C213 C212 1.387 . S
N214 Co205 2.022 . S
N214 C211 1.351 . S
N214 N215 1.365 . S
N215 C212 1.341 . S
N215 N214 1.365 . S
N215 H235 0.862 . S
C216 C211 1.501 . S
C216 H217 0.961 . S
C216 H218 0.961 . S
C216 H219 0.960 . S
H217 C216 0.961 . S
H218 C216 0.961 . S
H219 C216 0.960 . S
C220 N221 1.342 . S
C220 C224 1.401 . S
C220 C225 1.499 . S
N221 Co204 1.989 . S
N221 C220 1.342 . S
N221 N222 1.388 . S
N222 Co205 1.993 . S
N222 N221 1.388 . S
N222 C223 1.346 . S
C223 N222 1.346 . S
C223 C224 1.396 . S
C223 C233 1.510 . S
C224 C220 1.401 . S
C224 C223 1.396 . S
C225 C220 1.499 . S
C225 H226 0.959 . S
C225 H227 0.960 . S
C225 H228 0.961 . S
H226 C225 0.959 . S
H227 C225 0.960 . S
H228 C225 0.961 . S
O229 Co204 1.967 . S
O229 C237 1.258 . S
O230 Co205 1.941 . S
O230 C237 1.266 . S
H231 C233 0.959 . S
H232 C233 0.961 . S
C233 C223 1.510 . S
C233 H231 0.959 . S
C233 H232 0.961 . S
C233 H234 0.960 . S
H234 C233 0.960 . S
H235 N215 0.862 . S
O236 Co204 1.920 . S
O236 C209 1.289 1_565 S
C237 O229 1.258 . S
C237 O230 1.266 . S
Co238 O241 1.970 . S
Co238 N255 1.989 . S
Co238 O263 1.967 . S
Co238 O270 1.920 . S
Co239 O242 1.966 . S
Co239 N248 2.022 . S
Co239 N256 1.993 . S
Co239 O264 1.941 . S
C240 O241 1.258 . S
C240 O242 1.263 . S
O241 Co238 1.970 . S
O241 C240 1.258 . S
O242 Co239 1.966 . S
O242 C240 1.263 . S
C243 O244 1.235 . S
C243 O270 1.289 1_455 S
O244 C243 1.235 . S
C245 C247 1.400 . S
C245 N248 1.351 . S
C245 C250 1.501 . S
C246 C247 1.387 . S
C246 N249 1.341 . S
C247 C245 1.400 . S
C247 C246 1.387 . S
N248 Co239 2.022 . S
N248 C245 1.351 . S
N248 N249 1.365 . S
N249 C246 1.341 . S
N249 N248 1.365 . S
N249 H269 0.862 . S
C250 C245 1.501 . S
C250 H251 0.961 . S
C250 H252 0.961 . S
C250 H253 0.960 . S
H251 C250 0.961 . S
H252 C250 0.961 . S
H253 C250 0.960 . S
C254 N255 1.342 . S
C254 C258 1.401 . S
C254 C259 1.499 . S
N255 Co238 1.989 . S
N255 C254 1.342 . S
N255 N256 1.388 . S
N256 Co239 1.993 . S
N256 N255 1.388 . S
N256 C257 1.346 . S
C257 N256 1.346 . S
C257 C258 1.396 . S
C257 C267 1.510 . S
C258 C254 1.401 . S
C258 C257 1.396 . S
C259 C254 1.499 . S
C259 H260 0.959 . S
C259 H261 0.960 . S
C259 H262 0.961 . S
H260 C259 0.959 . S
H261 C259 0.960 . S
H262 C259 0.961 . S
O263 Co238 1.967 . S
O263 C271 1.258 . S
O264 Co239 1.941 . S
O264 C271 1.266 . S
H265 C267 0.959 . S
H266 C267 0.961 . S
C267 C257 1.510 . S
C267 H265 0.959 . S
C267 H266 0.961 . S
C267 H268 0.960 . S
H268 C267 0.960 . S
H269 N249 0.862 . S
O270 Co238 1.920 . S
O270 C243 1.289 1_655 S
C271 O263 1.258 . S
C271 O264 1.266 . S
H272 C284 0.930 . S
H273 C286 0.930 . S
H274 C287 0.930 . S
H275 C291 0.959 . S
H276 C291 0.959 . S
H277 C291 0.961 . S
H278 C292 0.960 . S
H279 C292 0.961 . S
H280 C292 0.959 . S
H281 C295 0.929 . S
H282 C296 0.931 . S
H283 C298 0.930 . S
C284 H272 0.930 . S
C284 C285 1.399 . S
C284 C289 1.399 . S
C285 C284 1.399 . S
C285 C286 1.376 1_565 S
C286 H273 0.930 . S
C286 C285 1.376 1_545 S
C286 C287 1.388 1_545 S
C287 H274 0.930 . S
C287 C286 1.388 1_565 S
C287 C288 1.390 . S
C288 C287 1.390 . S
C288 C289 1.394 . S
C288 C294 1.465 . S
C289 C284 1.399 . S
C289 C288 1.394 . S
C289 C290 1.516 . S
C290 C289 1.516 . S
C290 C291 1.502 . S
C290 C292 1.561 . S
C290 C293 1.526 . S
C291 H275 0.959 . S
C291 H276 0.959 . S
C291 H277 0.961 . S
C291 C290 1.502 . S
C292 H278 0.960 . S
C292 H279 0.961 . S
C292 H280 0.959 . S
C292 C290 1.561 . S
C293 C290 1.526 . S
C293 C294 1.396 . S
C293 C298 1.390 . S
C294 C288 1.465 . S
C294 C293 1.396 . S
C294 C295 1.399 . S
C295 H281 0.929 . S
C295 C294 1.399 . S
C295 C296 1.385 . S
C296 H282 0.931 . S
C296 C295 1.385 . S
C296 C297 1.389 . S
C297 C296 1.389 . S
C297 C298 1.387 . S
C298 H283 0.930 . S
C298 C293 1.390 . S
C298 C297 1.387 . S
H299 C311 0.930 . S
H300 C313 0.930 . S
H301 C314 0.930 . S
H302 C318 0.959 . S
H303 C318 0.959 . S
H304 C318 0.961 . S
H305 C319 0.960 . S
H306 C319 0.961 . S
H307 C319 0.959 . S
H308 C322 0.929 . S
H309 C323 0.931 . S
H310 C325 0.930 . S
C311 H299 0.930 . S
C311 C312 1.399 . S
C311 C316 1.399 . S
C312 C311 1.399 . S
C312 C313 1.376 . S
C313 H300 0.930 . S
C313 C312 1.376 . S
C313 C314 1.388 . S
C314 H301 0.930 . S
C314 C313 1.388 . S
C314 C315 1.390 . S
C315 C314 1.390 . S
C315 C316 1.394 . S
C315 C321 1.465 . S
C316 C311 1.399 . S
C316 C315 1.394 . S
C316 C317 1.516 . S
C317 C316 1.516 . S
C317 C318 1.502 . S
C317 C319 1.561 . S
C317 C320 1.526 . S
C318 H302 0.959 . S
C318 H303 0.959 . S
C318 H304 0.961 . S
C318 C317 1.502 . S
C319 H305 0.960 . S
C319 H306 0.961 . S
C319 H307 0.959 . S
C319 C317 1.561 . S
C320 C317 1.526 . S
C320 C321 1.396 . S
C320 C325 1.390 . S
C321 C315 1.465 . S
C321 C320 1.396 . S
C321 C322 1.399 . S
C322 H308 0.929 . S
C322 C321 1.399 . S
C322 C323 1.385 . S
C323 H309 0.931 . S
C323 C322 1.385 . S
C323 C324 1.389 . S
C324 C323 1.389 . S
C324 C325 1.387 . S
C325 H310 0.930 . S
C325 C320 1.390 . S
C325 C324 1.387 . S
H326 C338 0.930 1_565 S
H327 C340 0.930 . S
H328 C341 0.930 . S
H329 C345 0.959 . S
H330 C345 0.959 . S
H331 C345 0.967 . S
H332 C346 0.960 . S
H333 C346 0.961 . S
H334 C346 0.959 . S
H335 C349 0.929 . S
H336 C350 0.931 . S
H337 C352 0.930 . S
C338 H326 0.930 1_545 S
C338 C339 1.399 . S
C338 C343 1.399 . S
C339 C338 1.399 . S
C339 C340 1.376 . S
C340 H327 0.930 . S
C340 C339 1.376 . S
C340 C341 1.388 . S
C341 H328 0.930 . S
C341 C340 1.388 . S
C341 C342 1.390 . S
C342 C341 1.390 . S
C342 C343 1.394 . S
C342 C348 1.465 . S
C343 C338 1.399 . S
C343 C342 1.394 . S
C343 C344 1.516 . S
C344 C343 1.516 . S
C344 C345 1.502 . S
C344 C346 1.561 . S
C344 C347 1.526 . S
C345 H329 0.959 . S
C345 H330 0.959 . S
C345 H331 0.967 . S
C345 C344 1.502 . S
C346 H332 0.960 . S
C346 H333 0.961 . S
C346 H334 0.959 . S
C346 C344 1.561 . S
C347 C344 1.526 . S
C347 C348 1.396 . S
C347 C352 1.390 . S
C348 C342 1.465 . S
C348 C347 1.396 . S
C348 C349 1.399 . S
C349 H335 0.929 . S
C349 C348 1.399 . S
C349 C350 1.385 . S
C350 H336 0.931 . S
C350 C349 1.385 . S
C350 C351 1.389 . S
C351 C350 1.389 . S
C351 C352 1.387 . S
C352 H337 0.930 . S
C352 C347 1.390 . S
C352 C351 1.387 . S
H353 C365 0.930 . S
H354 C367 0.930 . S
H355 C368 0.930 . S
H356 C372 0.959 . S
H357 C372 0.959 . S
H358 C372 0.961 . S
H359 C373 0.960 . S
H360 C373 0.961 . S
H361 C373 0.959 . S
H362 C376 0.929 . S
H363 C377 0.931 . S
H364 C379 0.930 . S
C365 H353 0.930 . S
C365 C366 1.399 . S
C365 C370 1.399 . S
C366 C365 1.399 . S
C366 C367 1.376 . S
C367 H354 0.930 . S
C367 C366 1.376 . S
C367 C368 1.388 . S
C368 H355 0.930 . S
C368 C367 1.388 . S
C368 C369 1.390 . S
C369 C368 1.390 . S
C369 C370 1.394 . S
C369 C375 1.465 . S
C370 C365 1.399 . S
C370 C369 1.394 . S
C370 C371 1.516 . S
C371 C370 1.516 . S
C371 C372 1.502 . S
C371 C373 1.561 . S
C371 C374 1.526 . S
C372 H356 0.959 . S
C372 H357 0.959 . S
C372 H358 0.961 . S
C372 C371 1.502 . S
C373 H359 0.960 . S
C373 H360 0.961 . S
C373 H361 0.959 . S
C373 C371 1.561 . S
C374 C371 1.526 . S
C374 C375 1.396 . S
C374 C379 1.390 . S
C375 C369 1.465 . S
C375 C374 1.396 . S
C375 C376 1.399 . S
C376 H362 0.929 . S
C376 C375 1.399 . S
C376 C377 1.385 . S
C377 H363 0.931 . S
C377 C376 1.385 . S
C377 C378 1.389 . S
C378 C377 1.389 . S
C378 C379 1.387 . S
C379 H364 0.930 . S
C379 C374 1.390 . S
C379 C378 1.387 . S
H380 C392 0.930 . S
H381 C394 0.930 . S
H382 C395 0.930 . S
H383 C399 0.959 . S
H384 C399 0.959 1_545 S
H385 C399 0.961 . S
H386 C400 0.960 . S
H387 C400 0.961 . S
H388 C400 0.959 . S
H389 C403 0.929 . S
H390 C404 0.931 . S
H391 C406 0.931 1_545 S
C392 H380 0.930 . S
C392 C393 1.399 . S
C392 C397 1.399 . S
C393 C392 1.399 . S
C393 C394 1.376 . S
C394 H381 0.930 . S
C394 C393 1.376 . S
C394 C395 1.388 . S
C395 H382 0.930 . S
C395 C394 1.388 . S
C395 C396 1.390 . S
C396 C395 1.390 . S
C396 C397 1.394 . S
C396 C402 1.455 1_556 S
C397 C392 1.399 . S
C397 C396 1.394 . S
C397 C398 1.516 . S
C398 C397 1.516 . S
C398 C399 1.502 . S
C398 C400 1.561 . S
C398 C401 1.526 . S
C399 H383 0.959 . S
C399 H384 0.959 1_565 S
C399 H385 0.961 . S
C399 C398 1.502 . S
C400 H386 0.960 . S
C400 H387 0.961 . S
C400 H388 0.959 . S
C400 C398 1.561 . S
C401 C398 1.526 . S
C401 C402 1.391 1_556 S
C401 C406 1.390 1_556 S
C402 C396 1.455 1_554 S
C402 C401 1.391 1_554 S
C402 C403 1.412 . S
C403 H389 0.929 . S
C403 C402 1.412 . S
C403 C404 1.385 . S
C404 H390 0.931 . S
C404 C403 1.385 . S
C404 C405 1.389 . S
C405 C404 1.389 . S
C405 C406 1.387 . S
C406 H391 0.931 1_565 S
C406 C401 1.390 1_554 S
C406 C405 1.387 . S
H407 C419 0.930 . S
H408 C421 0.930 . S
H409 C422 0.930 . S
H410 C426 0.959 . S
H411 C426 0.959 . S
H412 C426 0.961 . S
H413 C427 0.960 . S
H414 C427 0.961 1_556 S
H415 C427 0.959 1_556 S
H416 C430 0.929 . S
H417 C431 0.931 . S
H418 C433 0.930 . S
C419 H407 0.930 . S
C419 C420 1.399 . S
C419 C424 1.399 . S
C420 C419 1.399 . S
C420 C421 1.376 . S
C421 H408 0.930 . S
C421 C420 1.376 . S
C421 C422 1.388 . S
C422 H409 0.930 . S
C422 C421 1.388 . S
C422 C423 1.390 . S
C423 C422 1.390 . S
C423 C424 1.394 . S
C423 C429 1.465 . S
C424 C419 1.399 . S
C424 C423 1.394 . S
C424 C425 1.516 . S
C425 C424 1.516 . S
C425 C426 1.502 . S
C425 C427 1.561 . S
C425 C428 1.526 . S
C426 H410 0.959 . S
C426 H411 0.959 . S
C426 H412 0.961 . S
C426 C425 1.502 . S
C427 H413 0.960 . S
C427 H414 0.961 1_554 S
C427 H415 0.959 1_554 S
C427 C425 1.561 . S
C428 C425 1.526 . S
C428 C429 1.396 . S
C428 C433 1.390 1_554 S
C429 C423 1.465 . S
C429 C428 1.396 . S
C429 C430 1.399 1_554 S
C430 H416 0.929 . S
C430 C429 1.399 1_556 S
C430 C431 1.385 . S
C431 H417 0.931 . S
C431 C430 1.385 . S
C431 C432 1.389 . S
C432 C431 1.389 . S
C432 C433 1.387 . S
C433 H418 0.930 . S
C433 C428 1.390 1_556 S
C433 C432 1.387 . S
H434 C446 0.930 . S
H435 C448 0.930 . S
H436 C449 0.930 . S
H437 C453 0.959 . S
H438 C453 0.959 . S
H439 C453 0.961 . S
H440 C454 0.960 . S
H441 C454 0.961 1_565 S
H442 C454 0.959 . S
H443 C457 0.929 . S
H444 C458 0.931 . S
H445 C460 0.930 1_565 S
C446 H434 0.930 . S
C446 C447 1.399 . S
C446 C451 1.399 . S
C447 C446 1.399 . S
C447 C448 1.376 . S
C448 H435 0.930 . S
C448 C447 1.376 . S
C448 C449 1.388 . S
C449 H436 0.930 . S
C449 C448 1.388 . S
C449 C450 1.390 . S
C450 C449 1.390 . S
C450 C451 1.394 . S
C450 C456 1.465 . S
C451 C446 1.399 . S
C451 C450 1.394 . S
C451 C452 1.516 . S
C452 C451 1.516 . S
C452 C453 1.502 . S
C452 C454 1.561 . S
C452 C455 1.526 . S
C453 H437 0.959 . S
C453 H438 0.959 . S
C453 H439 0.961 . S
C453 C452 1.502 . S
C454 H440 0.960 . S
C454 H441 0.961 1_545 S
C454 H442 0.959 . S
C454 C452 1.561 . S
C455 C452 1.526 . S
C455 C456 1.396 . S
C455 C460 1.390 1_556 S
C456 C450 1.465 . S
C456 C455 1.396 . S
C456 C457 1.399 1_556 S
C457 H443 0.929 . S
C457 C456 1.399 1_554 S
C457 C458 1.385 . S
C458 H444 0.931 . S
C458 C457 1.385 . S
C458 C459 1.389 . S
C459 C458 1.389 . S
C459 C460 1.387 . S
C460 H445 0.930 1_545 S
C460 C455 1.390 1_554 S
C460 C459 1.387 . S
H461 C473 0.930 . S
H462 C475 0.930 1_655 S
H463 C476 0.930 . S
H464 C480 0.959 . S
H465 C480 0.959 . S
H466 C480 0.961 . S
H467 C481 0.935 1_556 S
H468 C481 0.961 . S
H469 C481 0.959 . S
H470 C484 0.929 . S
H471 C485 0.931 . S
H472 C487 0.930 . S
C473 H461 0.930 . S
C473 C474 1.399 . S
C473 C478 1.399 . S
C474 C473 1.399 . S
C474 C475 1.376 . S
C475 H462 0.930 1_455 S
C475 C474 1.376 . S
C475 C476 1.388 1_556 S
C476 H463 0.930 . S
C476 C475 1.388 1_554 S
C476 C477 1.390 . S
C477 C476 1.390 . S
C477 C478 1.394 1_554 S
C477 C483 1.465 . S
C478 C473 1.399 . S
C478 C477 1.394 1_556 S
C478 C479 1.516 1_556 S
C479 C478 1.516 1_554 S
C479 C480 1.502 1_554 S
C479 C481 1.561 . S
C479 C482 1.526 . S
C480 H464 0.959 . S
C480 H465 0.959 . S
C480 H466 0.961 . S
C480 C479 1.502 1_556 S
C481 H467 0.935 1_554 S
C481 H468 0.961 . S
C481 H469 0.959 . S
C481 C479 1.561 . S
C482 C479 1.526 . S
C482 C483 1.396 . S
C482 C487 1.390 . S
C483 C477 1.465 . S
C483 C482 1.396 . S
C483 C484 1.399 . S
C484 H470 0.929 . S
C484 C483 1.399 . S
C484 C485 1.385 . S
C485 H471 0.931 . S
C485 C484 1.385 . S
C485 C486 1.389 . S
C486 C485 1.389 . S
C486 C487 1.387 . S
C487 H472 0.930 . S
C487 C482 1.390 . S
C487 C486 1.387 . S
H488 C500 0.930 . S
H489 C502 0.930 . S
H490 C503 0.930 . S
H491 C507 0.959 . S
H492 C507 0.959 . S
H493 C507 0.961 . S
H494 C508 0.960 . S
H495 C508 0.961 . S
H496 C508 0.959 . S
H497 C511 0.929 1_565 S
H498 C512 0.931 . S
H499 C514 0.930 . S
C500 H488 0.930 . S
C500 C501 1.399 . S
C500 C505 1.399 . S
C501 C500 1.399 . S
C501 C502 1.376 . S
C502 H489 0.930 . S
C502 C501 1.376 . S
C502 C503 1.388 . S
C503 H490 0.930 . S
C503 C502 1.388 . S
C503 C504 1.390 . S
C504 C503 1.390 . S
C504 C505 1.394 . S
C504 C510 1.465 1_565 S
C505 C500 1.399 . S
C505 C504 1.394 . S
C505 C506 1.516 1_565 S
C506 C505 1.516 1_545 S
C506 C507 1.502 . S
C506 C508 1.561 1_545 S
C506 C509 1.526 . S
C507 H491 0.959 . S
C507 H492 0.959 . S
C507 H493 0.961 . S
C507 C506 1.502 . S
C508 H494 0.960 . S
C508 H495 0.961 . S
C508 H496 0.959 . S
C508 C506 1.561 1_565 S
C509 C506 1.526 . S
C509 C510 1.396 . S
C509 C514 1.390 . S
C510 C504 1.465 1_545 S
C510 C509 1.396 . S
C510 C511 1.399 . S
C511 H497 0.929 1_545 S
C511 C510 1.399 . S
C511 C512 1.385 . S
C512 H498 0.931 . S
C512 C511 1.385 . S
C512 C513 1.389 . S
C513 C512 1.389 . S
C513 C514 1.387 . S
C514 H499 0.930 . S
C514 C509 1.390 . S
C514 C513 1.387 . S
H515 C527 0.930 . S
H516 C529 0.930 . S
H517 C530 0.930 . S
H518 C534 0.959 . S
H519 C534 0.959 . S
H520 C534 0.961 . S
H521 C535 0.960 . S
H522 C535 0.961 . S
H523 C535 0.959 . S
H524 C538 0.929 . S
H525 C539 0.931 . S
H526 C541 0.930 . S
C527 H515 0.930 . S
C527 C528 1.399 . S
C527 C532 1.399 . S
C528 C527 1.399 . S
C528 C529 1.376 . S
C529 H516 0.930 . S
C529 C528 1.376 . S
C529 C530 1.388 1_455 S
C530 H517 0.930 . S
C530 C529 1.388 1_655 S
C530 C531 1.390 . S
C531 C530 1.390 . S
C531 C532 1.394 1_655 S
C531 C537 1.465 . S
C532 C527 1.399 . S
C532 C531 1.394 1_455 S
C532 C533 1.516 . S
C533 C532 1.516 . S
C533 C534 1.502 . S
C533 C535 1.561 . S
C533 C536 1.526 1_455 S
C534 H518 0.959 . S
C534 H519 0.959 . S
C534 H520 0.961 . S
C534 C533 1.502 . S
C535 H521 0.960 . S
C535 H522 0.961 . S
C535 H523 0.959 . S
C535 C533 1.561 . S
C536 C533 1.526 1_655 S
C536 C537 1.396 . S
C536 C541 1.390 . S
C537 C531 1.465 . S
C537 C536 1.396 . S
C537 C538 1.399 . S
C538 H524 0.929 . S
C538 C537 1.399 . S
C538 C539 1.385 . S
C539 H525 0.931 . S
C539 C538 1.385 . S
C539 C540 1.389 . S
C540 C539 1.389 . S
C540 C541 1.387 . S
C541 H526 0.930 . S
C541 C536 1.390 . S
C541 C540 1.387 . S
H542 C554 0.930 . S
H543 C556 0.930 . S
H544 C557 0.930 . S
H545 C561 0.959 . S
H546 C561 0.959 . S
H547 C561 0.961 . S
H548 C562 0.960 . S
H549 C562 0.972 . S
H550 C562 0.959 . S
H551 C565 0.929 1_545 S
H552 C566 0.931 . S
H553 C568 0.930 . S
C554 H542 0.930 . S
C554 C555 1.399 . S
C554 C559 1.399 . S
C555 C554 1.399 . S
C555 C556 1.376 . S
C556 H543 0.930 . S
C556 C555 1.376 . S
C556 C557 1.388 . S
C557 H544 0.930 . S
C557 C556 1.388 . S
C557 C558 1.390 . S
C558 C557 1.390 . S
C558 C559 1.394 . S
C558 C564 1.465 1_545 S
C559 C554 1.399 . S
C559 C558 1.394 . S
C559 C560 1.516 1_545 S
C560 C559 1.516 1_565 S
C560 C561 1.502 . S
C560 C562 1.561 1_565 S
C560 C563 1.526 . S
C561 H545 0.959 . S
C561 H546 0.959 . S
C561 H547 0.961 . S
C561 C560 1.502 . S
C562 H548 0.960 . S
C562 H549 0.972 . S
C562 H550 0.959 . S
C562 C560 1.561 1_545 S
C563 C560 1.526 . S
C563 C564 1.396 . S
C563 C568 1.390 . S
C564 C558 1.465 1_565 S
C564 C563 1.396 . S
C564 C565 1.399 . S
C565 H551 0.929 1_565 S
C565 C564 1.399 . S
C565 C566 1.385 . S
C566 H552 0.931 . S
C566 C565 1.385 . S
C566 C567 1.389 . S
C567 C566 1.389 . S
C567 C568 1.387 . S
C568 H553 0.930 . S
C568 C563 1.390 . S
C568 C567 1.387 . S
H569 C581 0.930 . S
H570 C583 0.930 . S
H571 C584 0.930 . S
H572 C588 0.959 . S
H573 C588 0.959 . S
H574 C588 0.961 . S
H575 C589 0.960 . S
H576 C589 0.961 . S
H577 C589 0.959 . S
H578 C592 0.929 . S
H579 C593 0.931 . S
H580 C595 0.930 . S
C581 H569 0.930 . S
C581 C582 1.399 . S
C581 C586 1.399 . S
C582 C581 1.399 . S
C582 C583 1.376 . S
C583 H570 0.930 . S
C583 C582 1.376 . S
C583 C584 1.388 . S
C584 H571 0.930 . S
C584 C583 1.388 . S
C584 C585 1.390 . S
C585 C584 1.390 . S
C585 C586 1.394 . S
C585 C591 1.465 1_455 S
C586 C581 1.399 . S
C586 C585 1.394 . S
C586 C587 1.516 . S
C587 C586 1.516 . S
C587 C588 1.502 . S
C587 C589 1.561 1_455 S
C587 C590 1.526 1_455 S
C588 H572 0.959 . S
C588 H573 0.959 . S
C588 H574 0.961 . S
C588 C587 1.502 . S
C589 H575 0.960 . S
C589 H576 0.961 . S
C589 H577 0.959 . S
C589 C587 1.561 1_655 S
C590 C587 1.526 1_655 S
C590 C591 1.396 . S
C590 C595 1.390 . S
C591 C585 1.465 1_655 S
C591 C590 1.396 . S
C591 C592 1.399 . S
C592 H578 0.929 . S
C592 C591 1.399 . S
C592 C593 1.385 . S
C593 H579 0.931 . S
C593 C592 1.385 . S
C593 C594 1.389 . S
C594 C593 1.389 . S
C594 C595 1.387 . S
C595 H580 0.930 . S
C595 C590 1.390 . S
C595 C594 1.387 . S
H596 C608 0.930 . S
H597 C610 0.930 . S
H598 C611 0.930 . S
H599 C615 0.956 1_545 S
H600 C615 0.983 . S
H601 C615 0.939 1_445 S
H602 C616 0.960 . S
H603 C616 0.961 . S
H604 C616 0.959 . S
H605 C619 0.929 1_545 S
H606 C620 0.931 . S
H607 C622 0.930 . S
C608 H596 0.930 . S
C608 C609 1.399 . S
C608 C613 1.399 . S
C609 C608 1.399 . S
C609 C610 1.376 . S
C610 H597 0.930 . S
C610 C609 1.376 . S
C610 C611 1.388 . S
C611 H598 0.930 . S
C611 C610 1.388 . S
C611 C612 1.390 . S
C612 C611 1.390 . S
C612 C613 1.394 . S
C612 C618 1.465 1_445 S
C613 C608 1.399 . S
C613 C612 1.394 . S
C613 C614 1.516 1_545 S
C614 C613 1.516 1_565 S
C614 C615 1.505 1_455 S
C614 C616 1.561 . S
C614 C617 1.526 1_455 S
C615 H599 0.956 1_565 S
C615 H600 0.983 . S
C615 H601 0.939 1_665 S
C615 C614 1.505 1_655 S
C616 H602 0.960 . S
C616 H603 0.961 . S
C616 H604 0.959 . S
C616 C614 1.561 . S
C617 C614 1.526 1_655 S
C617 C618 1.396 . S
C617 C622 1.390 . S
C618 C612 1.465 1_665 S
C618 C617 1.396 . S
C618 C619 1.399 . S
C619 H605 0.929 1_565 S
C619 C618 1.399 . S
C619 C620 1.385 . S
C620 H606 0.931 . S
C620 C619 1.385 . S
C620 C621 1.389 . S
C621 C620 1.389 . S
C621 C622 1.387 . S
C622 H607 0.930 . S
C622 C617 1.390 . S
C622 C621 1.387 . S
H623 C635 0.930 . S
H624 C637 0.930 . S
H625 C638 0.930 1_655 S
H626 C642 0.959 1_665 S
H627 C642 0.959 1_655 S
H628 C642 0.961 1_565 S
H629 C643 0.960 . S
H630 C643 0.961 . S
H631 C643 0.959 . S
H632 C646 0.929 . S
H633 C647 0.931 . S
H634 C649 0.930 . S
C635 H623 0.930 . S
C635 C636 1.399 . S
C635 C640 1.399 . S
C636 C635 1.399 . S
C636 C637 1.376 . S
C637 H624 0.930 . S
C637 C636 1.376 . S
C637 C638 1.388 . S
C638 H625 0.930 1_455 S
C638 C637 1.388 . S
C638 C639 1.390 . S
C639 C638 1.390 . S
C639 C640 1.394 . S
C639 C645 1.465 1_465 S
C640 C635 1.399 . S
C640 C639 1.394 . S
C640 C641 1.516 1_565 S
C641 C640 1.516 1_545 S
C641 C642 1.502 . S
C641 C643 1.561 . S
C641 C644 1.526 1_455 S
C642 H626 0.959 1_445 S
C642 H627 0.959 1_455 S
C642 H628 0.961 1_545 S
C642 C641 1.502 . S
C643 H629 0.960 . S
C643 H630 0.961 . S
C643 H631 0.959 . S
C643 C641 1.561 . S
C644 C641 1.526 1_655 S
C644 C645 1.396 . S
C644 C649 1.390 . S
C645 C639 1.465 1_645 S
C645 C644 1.396 . S
C645 C646 1.399 . S
C646 H632 0.929 . S
C646 C645 1.399 . S
C646 C647 1.385 . S
C647 H633 0.931 . S
C647 C646 1.385 . S
C647 C648 1.389 . S
C648 C647 1.389 . S
C648 C649 1.387 . S
C649 H634 0.930 . S
C649 C644 1.390 . S
C649 C648 1.387 . S
H650 C662 0.930 . S
H651 C664 0.930 . S
H652 C665 0.930 . S
H653 C669 0.959 . S
H654 C669 0.959 . S
H655 C669 0.961 . S
H656 C670 0.960 1_455 S
H657 C670 0.961 . S
H658 C670 0.959 . S
H659 C673 0.929 1_565 S
H660 C674 0.931 . S
H661 C676 0.930 . S
C662 H650 0.930 . S
C662 C663 1.399 . S
C662 C667 1.399 . S
C663 C662 1.399 . S
C663 C664 1.376 . S
C664 H651 0.930 . S
C664 C663 1.376 . S
C664 C665 1.388 . S
C665 H652 0.930 . S
C665 C664 1.388 . S
C665 C666 1.390 . S
C666 C665 1.390 . S
C666 C667 1.394 . S
C666 C672 1.471 1_455 S
C667 C662 1.399 . S
C667 C666 1.394 . S
C667 C668 1.516 1_565 S
C668 C667 1.516 1_545 S
C668 C669 1.502 . S
C668 C670 1.561 1_445 S
C668 C671 1.526 1_455 S
C669 H653 0.959 . S
C669 H654 0.959 . S
C669 H655 0.961 . S
C669 C668 1.502 . S
C670 H656 0.960 1_655 S
C670 H657 0.961 . S
C670 H658 0.959 . S
C670 C668 1.561 1_665 S
C671 C668 1.526 1_655 S
C671 C672 1.391 1_545 S
C671 C676 1.390 . S
C672 C666 1.471 1_655 S
C672 C671 1.391 1_565 S
C672 C673 1.398 1_565 S
C673 H659 0.929 1_545 S
C673 C672 1.398 1_545 S
C673 C674 1.385 . S
C674 H660 0.931 . S
C674 C673 1.385 . S
C674 C675 1.389 . S
C675 C674 1.389 . S
C675 C676 1.387 . S
C676 H661 0.930 . S
C676 C671 1.390 . S
C676 C675 1.387 . S
H677 C689 0.930 . S
H678 C691 0.930 . S
H679 C692 0.930 . S
H680 C696 0.959 . S
H681 C696 0.959 1_545 S
H682 C696 0.961 . S
H683 C697 0.960 1_565 S
H684 C697 0.961 . S
H685 C697 0.959 . S
H686 C700 0.929 . S
H687 C701 0.931 . S
H688 C703 0.930 . S
C689 H677 0.930 . S
C689 C690 1.399 . S
C689 C694 1.399 . S
C690 C689 1.399 . S
C690 C691 1.376 . S
C691 H678 0.930 . S
C691 C690 1.376 . S
C691 C692 1.388 . S
C692 H679 0.930 . S
C692 C691 1.388 . S
C692 C693 1.390 . S
C693 C692 1.390 . S
C693 C694 1.394 . S
C693 C699 1.465 1_665 S
C694 C689 1.399 . S
C694 C693 1.394 . S
C694 C695 1.516 1_565 S
C695 C694 1.516 1_545 S
C695 C696 1.502 1_645 S
C695 C697 1.561 . S
C695 C698 1.526 1_655 S
C696 H680 0.959 . S
C696 H681 0.959 1_565 S
C696 H682 0.961 . S
C696 C695 1.502 1_465 S
C697 H683 0.960 1_545 S
C697 H684 0.961 . S
C697 H685 0.959 . S
C697 C695 1.561 . S
C698 C695 1.526 1_455 S
C698 C699 1.396 . S
C698 C703 1.390 . S
C699 C693 1.465 1_445 S
C699 C698 1.396 . S
C699 C700 1.399 . S
C700 H686 0.929 . S
C700 C699 1.399 . S
C700 C701 1.385 . S
C701 H687 0.931 . S
C701 C700 1.385 . S
C701 C702 1.389 . S
C702 C701 1.389 . S
C702 C703 1.387 . S
C703 H688 0.930 . S
C703 C698 1.390 . S
C703 C702 1.387 . S
H704 C716 0.930 . S
H705 C718 0.930 . S
H706 C719 0.930 . S
H707 C723 0.959 . S
H708 C723 0.959 . S
H709 C723 0.961 . S
H710 C724 0.960 . S
H711 C724 0.961 . S
H712 C724 0.959 . S
H713 C727 0.929 . S
H714 C728 0.931 . S
H715 C730 0.930 . S
C716 H704 0.930 . S
C716 C717 1.399 . S
C716 C721 1.399 . S
C717 C716 1.399 . S
C717 C718 1.376 . S
C718 H705 0.930 . S
C718 C717 1.376 . S
C718 C719 1.388 . S
C719 H706 0.930 . S
C719 C718 1.388 . S
C719 C720 1.390 . S
C720 C719 1.390 . S
C720 C721 1.394 . S
C720 C726 1.465 . S
C721 C716 1.399 . S
C721 C720 1.394 . S
C721 C722 1.516 . S
C722 C721 1.516 . S
C722 C723 1.502 . S
C722 C724 1.561 . S
C722 C725 1.526 . S
C723 H707 0.959 . S
C723 H708 0.959 . S
C723 H709 0.961 . S
C723 C722 1.502 . S
C724 H710 0.960 . S
C724 H711 0.961 . S
C724 H712 0.959 . S
C724 C722 1.561 . S
C725 C722 1.526 . S
C725 C726 1.396 . S
C725 C730 1.390 . S
C726 C720 1.465 . S
C726 C725 1.396 . S
C726 C727 1.399 . S
C727 H713 0.929 . S
C727 C726 1.399 . S
C727 C728 1.385 . S
C728 H714 0.931 . S
C728 C727 1.385 . S
C728 C729 1.389 . S
C729 C728 1.389 . S
C729 C730 1.387 . S
C730 H715 0.930 . S
C730 C725 1.390 . S
C730 C729 1.387 . S
H731 C743 0.930 . S
H732 C745 0.930 . S
H733 C746 0.930 . S
H734 C750 0.959 . S
H735 C750 0.959 . S
H736 C750 0.961 . S
H737 C751 0.960 . S
H738 C751 0.961 . S
H739 C751 0.959 . S
H740 C754 0.929 . S
H741 C755 0.931 . S
H742 C757 0.930 . S
C743 H731 0.930 . S
C743 C744 1.399 . S
C743 C748 1.399 . S
C744 C743 1.399 . S
C744 C745 1.376 . S
C745 H732 0.930 . S
C745 C744 1.376 . S
C745 C746 1.388 . S
C746 H733 0.930 . S
C746 C745 1.388 . S
C746 C747 1.390 . S
C747 C746 1.390 . S
C747 C748 1.394 . S
C747 C753 1.465 . S
C748 C743 1.399 . S
C748 C747 1.394 . S
C748 C749 1.516 . S
C749 C748 1.516 . S
C749 C750 1.502 . S
C749 C751 1.561 . S
C749 C752 1.526 . S
C750 H734 0.959 . S
C750 H735 0.959 . S
C750 H736 0.961 . S
C750 C749 1.502 . S
C751 H737 0.960 . S
C751 H738 0.961 . S
C751 H739 0.959 . S
C751 C749 1.561 . S
C752 C749 1.526 . S
C752 C753 1.396 . S
C752 C757 1.390 . S
C753 C747 1.465 . S
C753 C752 1.396 . S
C753 C754 1.399 . S
C754 H740 0.929 . S
C754 C753 1.399 . S
C754 C755 1.385 . S
C755 H741 0.931 . S
C755 C754 1.385 . S
C755 C756 1.389 . S
C756 C755 1.389 . S
C756 C757 1.387 . S
C757 H742 0.930 . S
C757 C752 1.390 . S
C757 C756 1.387 . S
H758 C770 0.930 . S
H759 C772 0.930 . S
H760 C773 0.930 . S
H761 C777 0.959 . S
H762 C777 0.959 . S
H763 C777 0.961 . S
H764 C778 0.960 . S
H765 C778 0.961 . S
H766 C778 0.959 . S
H767 C781 0.929 . S
H768 C782 0.931 . S
H769 C784 0.930 . S
C770 H758 0.930 . S
C770 C771 1.399 . S
C770 C775 1.399 . S
C771 C770 1.399 . S
C771 C772 1.376 . S
C772 H759 0.930 . S
C772 C771 1.376 . S
C772 C773 1.388 . S
C773 H760 0.930 . S
C773 C772 1.388 . S
C773 C774 1.390 . S
C774 C773 1.390 . S
C774 C775 1.394 . S
C774 C780 1.465 . S
C775 C770 1.399 . S
C775 C774 1.394 . S
C775 C776 1.516 . S
C776 C775 1.516 . S
C776 C777 1.502 . S
C776 C778 1.561 . S
C776 C779 1.526 . S
C777 H761 0.959 . S
C777 H762 0.959 . S
C777 H763 0.961 . S
C777 C776 1.502 . S
C778 H764 0.960 . S
C778 H765 0.961 . S
C778 H766 0.959 . S
C778 C776 1.561 . S
C779 C776 1.526 . S
C779 C780 1.396 . S
C779 C784 1.390 . S
C780 C774 1.465 . S
C780 C779 1.396 . S
C780 C781 1.399 . S
C781 H767 0.929 . S
C781 C780 1.399 . S
C781 C782 1.385 . S
C782 H768 0.931 . S
C782 C781 1.385 . S
C782 C783 1.389 . S
C783 C782 1.389 . S
C783 C784 1.387 . S
C784 H769 0.930 . S
C784 C779 1.390 . S
C784 C783 1.387 . S
H785 C797 0.930 . S
H786 C799 0.930 . S
H787 C800 0.930 . S
H788 C804 0.959 . S
H789 C804 0.959 . S
H790 C804 0.961 . S
H791 C805 0.960 . S
H792 C805 0.961 . S
H793 C805 0.959 . S
H794 C808 0.929 . S
H795 C809 0.931 . S
H796 C811 0.930 . S
C797 H785 0.930 . S
C797 C798 1.399 . S
C797 C802 1.399 . S
C798 C797 1.399 . S
C798 C799 1.376 . S
C799 H786 0.930 . S
C799 C798 1.376 . S
C799 C800 1.388 . S
C800 H787 0.930 . S
C800 C799 1.388 . S
C800 C801 1.390 . S
C801 C800 1.390 . S
C801 C802 1.394 . S
C801 C807 1.465 . S
C802 C797 1.399 . S
C802 C801 1.394 . S
C802 C803 1.516 . S
C803 C802 1.516 . S
C803 C804 1.502 . S
C803 C805 1.561 . S
C803 C806 1.526 . S
C804 H788 0.959 . S
C804 H789 0.959 . S
C804 H790 0.961 . S
C804 C803 1.502 . S
C805 H791 0.960 . S
C805 H792 0.961 . S
C805 H793 0.959 . S
C805 C803 1.561 . S
C806 C803 1.526 . S
C806 C807 1.396 . S
C806 C811 1.390 . S
C807 C801 1.465 . S
C807 C806 1.396 . S
C807 C808 1.399 . S
C808 H794 0.929 . S
C808 C807 1.399 . S
C808 C809 1.385 . S
C809 H795 0.931 . S
C809 C808 1.385 . S
C809 C810 1.389 . S
C810 C809 1.389 . S
C810 C811 1.387 . S
C811 H796 0.930 . S
C811 C806 1.390 . S
C811 C810 1.387 . S
C285 C5 0.952 . S
C297 C67 0.885 . S
C312 C101 0.926 . S
C324 C39 0.955 . S
C339 C73 0.901 . S
C351 C135 0.943 . S
C366 C33 0.862 . S
C378 C107 0.879 . S
C393 C271 0.959 . S
C405 C141 0.888 . S
C420 C169 0.963 . S
C432 C175 0.920 . S
C447 C203 0.971 . S
C459 C209 0.913 . S
C474 C243 0.961 . S
C486 C237 0.936 . S
C501 C88 1.613 . S
C513 C20 1.578 . S
C528 C54 1.549 . S
C540 C122 1.618 . S
C555 C156 1.602 . S
C567 C224 1.562 . S
C582 C190 1.558 . S
C594 C258 1.586 . S
C609 C2 1.155 . S
C621 C70 1.154 . S
C636 C36 1.156 . S
C648 C104 1.155 . S
C663 C206 1.151 . S
C675 C138 1.150 . S
C690 C240 1.107 . S
C702 C172 1.102 . S
C717 C9 1.782 . S
C729 C179 1.763 . S
C744 C213 1.783 . S
C756 C43 1.759 . S
C771 C247 1.782 . S
C783 C77 1.752 . S
C798 C111 1.778 . S
C810 C145 1.779 . S
