# Generated by pormake.
# Topology soo, (7)-cn, num edge types: 1
# Building blocks:
#     Node 0, Type 0, BuildingBlock: HICVOG_clean_sbu_0, # of connection points: 7
#     Node 1, Type 0, BuildingBlock: HICVOG_clean_sbu_0, # of connection points: 7
#     Node 2, Type 0, BuildingBlock: HICVOG_clean_sbu_0, # of connection points: 7
#     Node 3, Type 0, BuildingBlock: HICVOG_clean_sbu_0, # of connection points: 7
#     Node 4, Type 0, BuildingBlock: HICVOG_clean_sbu_0, # of connection points: 7
#     Node 5, Type 0, BuildingBlock: HICVOG_clean_sbu_0, # of connection points: 7
#     Node 6, Type 0, BuildingBlock: HICVOG_clean_sbu_0, # of connection points: 7
#     Node 7, Type 0, BuildingBlock: HICVOG_clean_sbu_0, # of connection points: 7
#     Node 8, Type 0, BuildingBlock: HICVOG_clean_sbu_0, # of connection points: 7
#     Node 9, Type 0, BuildingBlock: HICVOG_clean_sbu_0, # of connection points: 7
#     Node 10, Type 0, BuildingBlock: HICVOG_clean_sbu_0, # of connection points: 7
#     Node 11, Type 0, BuildingBlock: HICVOG_clean_sbu_0, # of connection points: 7
#     Node 12, Type 0, BuildingBlock: HICVOG_clean_sbu_0, # of connection points: 7
#     Node 13, Type 0, BuildingBlock: HICVOG_clean_sbu_0, # of connection points: 7
#     Node 14, Type 0, BuildingBlock: HICVOG_clean_sbu_0, # of connection points: 7
#     Node 15, Type 0, BuildingBlock: HICVOG_clean_sbu_0, # of connection points: 7
#     Node 16, Type 0, BuildingBlock: HICVOG_clean_sbu_0, # of connection points: 7
#     Node 17, Type 0, BuildingBlock: HICVOG_clean_sbu_0, # of connection points: 7
#     Node 18, Type 0, BuildingBlock: HICVOG_clean_sbu_0, # of connection points: 7
#     Node 19, Type 0, BuildingBlock: HICVOG_clean_sbu_0, # of connection points: 7
#     Node 20, Type 0, BuildingBlock: HICVOG_clean_sbu_0, # of connection points: 7
#     Node 21, Type 0, BuildingBlock: HICVOG_clean_sbu_0, # of connection points: 7
#     Node 22, Type 0, BuildingBlock: HICVOG_clean_sbu_0, # of connection points: 7
#     Node 23, Type 0, BuildingBlock: HICVOG_clean_sbu_0, # of connection points: 7
#     Node 24, Type 0, BuildingBlock: HICVOG_clean_sbu_0, # of connection points: 7
#     Node 25, Type 0, BuildingBlock: HICVOG_clean_sbu_0, # of connection points: 7
#     Node 26, Type 0, BuildingBlock: HICVOG_clean_sbu_0, # of connection points: 7
#     Node 27, Type 0, BuildingBlock: HICVOG_clean_sbu_0, # of connection points: 7
#     Node 28, Type 0, BuildingBlock: HICVOG_clean_sbu_0, # of connection points: 7
#     Node 29, Type 0, BuildingBlock: HICVOG_clean_sbu_0, # of connection points: 7
#     Node 30, Type 0, BuildingBlock: HICVOG_clean_sbu_0, # of connection points: 7
#     Node 31, Type 0, BuildingBlock: HICVOG_clean_sbu_0, # of connection points: 7
#     Edge 32, Type (0, 0), BuildingBlock: EZIPEK_clean_linker_0, # of connection points: 2
#     Edge 33, Type (0, 0), BuildingBlock: EZIPEK_clean_linker_0, # of connection points: 2
#     Edge 34, Type (0, 0), BuildingBlock: EZIPEK_clean_linker_0, # of connection points: 2
#     Edge 35, Type (0, 0), BuildingBlock: EZIPEK_clean_linker_0, # of connection points: 2
#     Edge 36, Type (0, 0), BuildingBlock: EZIPEK_clean_linker_0, # of connection points: 2
#     Edge 37, Type (0, 0), BuildingBlock: EZIPEK_clean_linker_0, # of connection points: 2
#     Edge 38, Type (0, 0), BuildingBlock: EZIPEK_clean_linker_0, # of connection points: 2
#     Edge 39, Type (0, 0), BuildingBlock: EZIPEK_clean_linker_0, # of connection points: 2
#     Edge 40, Type (0, 0), BuildingBlock: EZIPEK_clean_linker_0, # of connection points: 2
#     Edge 41, Type (0, 0), BuildingBlock: EZIPEK_clean_linker_0, # of connection points: 2
#     Edge 42, Type (0, 0), BuildingBlock: EZIPEK_clean_linker_0, # of connection points: 2
#     Edge 43, Type (0, 0), BuildingBlock: EZIPEK_clean_linker_0, # of connection points: 2
#     Edge 44, Type (0, 0), BuildingBlock: EZIPEK_clean_linker_0, # of connection points: 2
#     Edge 45, Type (0, 0), BuildingBlock: EZIPEK_clean_linker_0, # of connection points: 2
#     Edge 46, Type (0, 0), BuildingBlock: EZIPEK_clean_linker_0, # of connection points: 2
#     Edge 47, Type (0, 0), BuildingBlock: EZIPEK_clean_linker_0, # of connection points: 2
#     Edge 48, Type (0, 0), BuildingBlock: EZIPEK_clean_linker_0, # of connection points: 2
#     Edge 49, Type (0, 0), BuildingBlock: EZIPEK_clean_linker_0, # of connection points: 2
#     Edge 50, Type (0, 0), BuildingBlock: EZIPEK_clean_linker_0, # of connection points: 2
#     Edge 51, Type (0, 0), BuildingBlock: EZIPEK_clean_linker_0, # of connection points: 2
#     Edge 52, Type (0, 0), BuildingBlock: EZIPEK_clean_linker_0, # of connection points: 2
#     Edge 53, Type (0, 0), BuildingBlock: EZIPEK_clean_linker_0, # of connection points: 2
#     Edge 54, Type (0, 0), BuildingBlock: EZIPEK_clean_linker_0, # of connection points: 2
#     Edge 55, Type (0, 0), BuildingBlock: EZIPEK_clean_linker_0, # of connection points: 2
#     Edge 56, Type (0, 0), BuildingBlock: EZIPEK_clean_linker_0, # of connection points: 2
#     Edge 57, Type (0, 0), BuildingBlock: EZIPEK_clean_linker_0, # of connection points: 2
#     Edge 58, Type (0, 0), BuildingBlock: EZIPEK_clean_linker_0, # of connection points: 2
#     Edge 59, Type (0, 0), BuildingBlock: EZIPEK_clean_linker_0, # of connection points: 2
#     Edge 60, Type (0, 0), BuildingBlock: EZIPEK_clean_linker_0, # of connection points: 2
#     Edge 61, Type (0, 0), BuildingBlock: EZIPEK_clean_linker_0, # of connection points: 2
#     Edge 62, Type (0, 0), BuildingBlock: EZIPEK_clean_linker_0, # of connection points: 2
#     Edge 63, Type (0, 0), BuildingBlock: EZIPEK_clean_linker_0, # of connection points: 2
#     Edge 64, Type (0, 0), BuildingBlock: EZIPEK_clean_linker_0, # of connection points: 2
#     Edge 65, Type (0, 0), BuildingBlock: EZIPEK_clean_linker_0, # of connection points: 2
#     Edge 66, Type (0, 0), BuildingBlock: EZIPEK_clean_linker_0, # of connection points: 2
#     Edge 67, Type (0, 0), BuildingBlock: EZIPEK_clean_linker_0, # of connection points: 2
#     Edge 68, Type (0, 0), BuildingBlock: EZIPEK_clean_linker_0, # of connection points: 2
#     Edge 69, Type (0, 0), BuildingBlock: EZIPEK_clean_linker_0, # of connection points: 2
#     Edge 70, Type (0, 0), BuildingBlock: EZIPEK_clean_linker_0, # of connection points: 2
#     Edge 71, Type (0, 0), BuildingBlock: EZIPEK_clean_linker_0, # of connection points: 2
#     Edge 72, Type (0, 0), BuildingBlock: EZIPEK_clean_linker_0, # of connection points: 2
#     Edge 73, Type (0, 0), BuildingBlock: EZIPEK_clean_linker_0, # of connection points: 2
#     Edge 74, Type (0, 0), BuildingBlock: EZIPEK_clean_linker_0, # of connection points: 2
#     Edge 75, Type (0, 0), BuildingBlock: EZIPEK_clean_linker_0, # of connection points: 2
#     Edge 76, Type (0, 0), BuildingBlock: EZIPEK_clean_linker_0, # of connection points: 2
#     Edge 77, Type (0, 0), BuildingBlock: EZIPEK_clean_linker_0, # of connection points: 2
#     Edge 78, Type (0, 0), BuildingBlock: EZIPEK_clean_linker_0, # of connection points: 2
#     Edge 79, Type (0, 0), BuildingBlock: EZIPEK_clean_linker_0, # of connection points: 2
#     Edge 80, Type (0, 0), BuildingBlock: EZIPEK_clean_linker_0, # of connection points: 2
#     Edge 81, Type (0, 0), BuildingBlock: EZIPEK_clean_linker_0, # of connection points: 2
#     Edge 82, Type (0, 0), BuildingBlock: EZIPEK_clean_linker_0, # of connection points: 2
#     Edge 83, Type (0, 0), BuildingBlock: EZIPEK_clean_linker_0, # of connection points: 2
#     Edge 84, Type (0, 0), BuildingBlock: EZIPEK_clean_linker_0, # of connection points: 2
#     Edge 85, Type (0, 0), BuildingBlock: EZIPEK_clean_linker_0, # of connection points: 2
#     Edge 86, Type (0, 0), BuildingBlock: EZIPEK_clean_linker_0, # of connection points: 2
#     Edge 87, Type (0, 0), BuildingBlock: EZIPEK_clean_linker_0, # of connection points: 2
#     Edge 88, Type (0, 0), BuildingBlock: EZIPEK_clean_linker_0, # of connection points: 2
#     Edge 89, Type (0, 0), BuildingBlock: EZIPEK_clean_linker_0, # of connection points: 2
#     Edge 90, Type (0, 0), BuildingBlock: EZIPEK_clean_linker_0, # of connection points: 2
#     Edge 91, Type (0, 0), BuildingBlock: EZIPEK_clean_linker_0, # of connection points: 2
#     Edge 92, Type (0, 0), BuildingBlock: EZIPEK_clean_linker_0, # of connection points: 2
#     Edge 93, Type (0, 0), BuildingBlock: EZIPEK_clean_linker_0, # of connection points: 2
#     Edge 94, Type (0, 0), BuildingBlock: EZIPEK_clean_linker_0, # of connection points: 2
#     Edge 95, Type (0, 0), BuildingBlock: EZIPEK_clean_linker_0, # of connection points: 2
#     Edge 96, Type (0, 0), BuildingBlock: EZIPEK_clean_linker_0, # of connection points: 2
#     Edge 97, Type (0, 0), BuildingBlock: EZIPEK_clean_linker_0, # of connection points: 2
#     Edge 98, Type (0, 0), BuildingBlock: EZIPEK_clean_linker_0, # of connection points: 2
#     Edge 99, Type (0, 0), BuildingBlock: EZIPEK_clean_linker_0, # of connection points: 2
#     Edge 100, Type (0, 0), BuildingBlock: EZIPEK_clean_linker_0, # of connection points: 2
#     Edge 101, Type (0, 0), BuildingBlock: EZIPEK_clean_linker_0, # of connection points: 2
#     Edge 102, Type (0, 0), BuildingBlock: EZIPEK_clean_linker_0, # of connection points: 2
#     Edge 103, Type (0, 0), BuildingBlock: EZIPEK_clean_linker_0, # of connection points: 2
#     Edge 104, Type (0, 0), BuildingBlock: EZIPEK_clean_linker_0, # of connection points: 2
#     Edge 105, Type (0, 0), BuildingBlock: EZIPEK_clean_linker_0, # of connection points: 2
#     Edge 106, Type (0, 0), BuildingBlock: EZIPEK_clean_linker_0, # of connection points: 2
#     Edge 107, Type (0, 0), BuildingBlock: EZIPEK_clean_linker_0, # of connection points: 2
#     Edge 108, Type (0, 0), BuildingBlock: EZIPEK_clean_linker_0, # of connection points: 2
#     Edge 109, Type (0, 0), BuildingBlock: EZIPEK_clean_linker_0, # of connection points: 2
#     Edge 110, Type (0, 0), BuildingBlock: EZIPEK_clean_linker_0, # of connection points: 2
#     Edge 111, Type (0, 0), BuildingBlock: EZIPEK_clean_linker_0, # of connection points: 2
#     Edge 112, Type (0, 0), BuildingBlock: EZIPEK_clean_linker_0, # of connection points: 2
#     Edge 113, Type (0, 0), BuildingBlock: EZIPEK_clean_linker_0, # of connection points: 2
#     Edge 114, Type (0, 0), BuildingBlock: EZIPEK_clean_linker_0, # of connection points: 2
#     Edge 115, Type (0, 0), BuildingBlock: EZIPEK_clean_linker_0, # of connection points: 2
#     Edge 116, Type (0, 0), BuildingBlock: EZIPEK_clean_linker_0, # of connection points: 2
#     Edge 117, Type (0, 0), BuildingBlock: EZIPEK_clean_linker_0, # of connection points: 2
#     Edge 118, Type (0, 0), BuildingBlock: EZIPEK_clean_linker_0, # of connection points: 2
#     Edge 119, Type (0, 0), BuildingBlock: EZIPEK_clean_linker_0, # of connection points: 2
#     Edge 120, Type (0, 0), BuildingBlock: EZIPEK_clean_linker_0, # of connection points: 2
#     Edge 121, Type (0, 0), BuildingBlock: EZIPEK_clean_linker_0, # of connection points: 2
#     Edge 122, Type (0, 0), BuildingBlock: EZIPEK_clean_linker_0, # of connection points: 2
#     Edge 123, Type (0, 0), BuildingBlock: EZIPEK_clean_linker_0, # of connection points: 2
#     Edge 124, Type (0, 0), BuildingBlock: EZIPEK_clean_linker_0, # of connection points: 2
#     Edge 125, Type (0, 0), BuildingBlock: EZIPEK_clean_linker_0, # of connection points: 2
#     Edge 126, Type (0, 0), BuildingBlock: EZIPEK_clean_linker_0, # of connection points: 2
#     Edge 127, Type (0, 0), BuildingBlock: EZIPEK_clean_linker_0, # of connection points: 2
#     Edge 128, Type (0, 0), BuildingBlock: EZIPEK_clean_linker_0, # of connection points: 2
#     Edge 129, Type (0, 0), BuildingBlock: EZIPEK_clean_linker_0, # of connection points: 2
#     Edge 130, Type (0, 0), BuildingBlock: EZIPEK_clean_linker_0, # of connection points: 2
#     Edge 131, Type (0, 0), BuildingBlock: EZIPEK_clean_linker_0, # of connection points: 2
#     Edge 132, Type (0, 0), BuildingBlock: EZIPEK_clean_linker_0, # of connection points: 2
#     Edge 133, Type (0, 0), BuildingBlock: EZIPEK_clean_linker_0, # of connection points: 2
#     Edge 134, Type (0, 0), BuildingBlock: EZIPEK_clean_linker_0, # of connection points: 2
#     Edge 135, Type (0, 0), BuildingBlock: EZIPEK_clean_linker_0, # of connection points: 2
#     Edge 136, Type (0, 0), BuildingBlock: EZIPEK_clean_linker_0, # of connection points: 2
#     Edge 137, Type (0, 0), BuildingBlock: EZIPEK_clean_linker_0, # of connection points: 2
#     Edge 138, Type (0, 0), BuildingBlock: EZIPEK_clean_linker_0, # of connection points: 2
#     Edge 139, Type (0, 0), BuildingBlock: EZIPEK_clean_linker_0, # of connection points: 2
#     Edge 140, Type (0, 0), BuildingBlock: EZIPEK_clean_linker_0, # of connection points: 2
#     Edge 141, Type (0, 0), BuildingBlock: EZIPEK_clean_linker_0, # of connection points: 2
#     Edge 142, Type (0, 0), BuildingBlock: EZIPEK_clean_linker_0, # of connection points: 2
#     Edge 143, Type (0, 0), BuildingBlock: EZIPEK_clean_linker_0, # of connection points: 2
# Relax obj value: 0.174
# Max RMSD: 0.225
# Mean RMSD: 0.225
data_MOF--net-soo--node1-HICVOG_clean_sbu_0--edge1-EZIPEK_clean_linker_0
_symmetry_space_group_name_H-M    P1
_symmetry_Int_Tables_number       1
_symmetry_cell_setting            triclinic
loop_
_symmetry_equiv_pos_as_xyz
'x, y, z'
_cell_length_a     130.61416
_cell_length_b     38.738955
_cell_length_c     13.955607
_cell_angle_alpha  90.022121
_cell_angle_beta   89.997134
_cell_angle_gamma 89.938061
loop_
_atom_site_label
_atom_site_type_symbol
_atom_site_fract_x
_atom_site_fract_y
_atom_site_fract_z
_atom_type_partial_charge
Zn0 Zn 0.07627 0.49936 0.22368 0.0
C1 C 0.06265 0.42732 0.06239 0.0
N2 N 0.06515 0.4058 0.13364 0.0
C3 C 0.06824 0.42718 0.20331 0.0
N4 N 0.06776 0.46085 0.17566 0.0
N5 N 0.06398 0.46082 0.0873 0.0
C6 C 0.06495 0.50727 0.83013 0.0
O7 O 0.07173 0.52654 0.87421 0.0
O8 O 0.0777 0.49692 0.3702 0.0
Zn9 Zn 0.05723 0.50031 0.02381 0.0
N10 N 0.08919 0.4971 0.14979 0.0
C11 C 0.09454 0.49971 0.98641 0.0
C12 C 0.08684 0.49952 0.05513 0.0
C13 C 0.09921 0.49537 0.17876 0.0
N14 N 0.10444 0.49805 0.01458 0.0
C15 C 0.10708 0.49597 0.10854 0.0
O16 O 0.06246 0.54921 0.05651 0.0
C17 C 0.06678 0.56509 0.12578 0.0
O18 O 0.07109 0.54873 0.19438 0.0
H19 H 0.07896 0.50156 0.03323 0.0
H20 H 0.10104 0.49409 0.25429 0.0
C21 C 0.03412 0.50423 0.02625 0.0
C22 C 0.02489 0.50709 0.07897 0.0
C23 C 0.03431 0.50388 0.22377 0.0
C24 C 0.04338 0.50164 0.17199 0.0
N25 N 0.0432 0.50141 0.07467 0.0
N26 N 0.02531 0.50671 0.17628 0.0
H27 H 0.03408 0.50498 0.94873 0.0
C28 C 0.06934 0.49415 0.417 0.0
O29 O 0.06075 0.49103 0.36911 0.0
O30 O 0.05773 0.49344 0.87816 0.0
H31 H 0.05062 0.50069 0.20911 0.0
H32 H 0.09268 0.50156 0.91109 0.0
H33 H 0.03444 0.50394 0.30128 0.0
Zn34 Zn 0.18246 0.78258 0.22352 0.0
C35 C 0.19628 0.85376 0.06015 0.0
N36 N 0.19416 0.87508 0.13301 0.0
C37 C 0.19095 0.85369 0.20194 0.0
N38 N 0.19096 0.82022 0.17233 0.0
N39 N 0.19459 0.8202 0.08338 0.0
C40 C 0.19297 0.79118 0.83086 0.0
O41 O 0.18493 0.80134 0.87952 0.0
O42 O 0.18135 0.78958 0.36833 0.0
Zn43 Zn 0.20158 0.77994 0.02338 0.0
N44 N 0.16946 0.78401 0.1505 0.0
C45 C 0.16416 0.7766 0.98818 0.0
C46 C 0.17182 0.77795 0.05718 0.0
C47 C 0.15945 0.78803 0.17823 0.0
N48 N 0.15428 0.78051 0.01506 0.0
C49 C 0.15161 0.78606 0.10785 0.0
O50 O 0.19662 0.73124 0.06407 0.0
C51 C 0.1921 0.71577 0.13306 0.0
O52 O 0.18754 0.73263 0.19933 0.0
H53 H 0.17968 0.77365 0.03696 0.0
H54 H 0.1576 0.79189 0.25304 0.0
C55 C 0.22461 0.77491 0.02138 0.0
C56 C 0.2341 0.77515 0.07053 0.0
C57 C 0.2254 0.7875 0.21558 0.0
C58 C 0.21606 0.78656 0.16763 0.0
N59 N 0.21577 0.78101 0.07148 0.0
N60 N 0.23416 0.78165 0.16626 0.0
H61 H 0.22427 0.76939 0.94544 0.0
C62 C 0.18877 0.77735 0.41739 0.0
O63 O 0.19605 0.76021 0.37321 0.0
O64 O 0.20104 0.78205 0.87583 0.0
H65 H 0.20903 0.78978 0.20729 0.0
H66 H 0.16601 0.77186 0.91385 0.0
H67 H 0.22566 0.79223 0.29195 0.0
Zn68 Zn 0.05748 0.78152 0.2351 0.0
C69 C 0.06838 0.85467 0.05689 0.0
N70 N 0.06523 0.87627 0.12564 0.0
C71 C 0.06296 0.85507 0.19827 0.0
N72 N 0.06451 0.82145 0.17511 0.0
N73 N 0.06817 0.82122 0.08633 0.0
C74 C 0.07021 0.77778 0.84115 0.0
O75 O 0.06301 0.76032 0.88534 0.0
O76 O 0.05777 0.78396 0.38274 0.0
Zn77 Zn 0.0766 0.78337 0.03522 0.0
N78 N 0.04348 0.78196 0.1829 0.0
C79 C 0.03449 0.78443 0.03426 0.0
C80 C 0.04361 0.78465 0.08577 0.0
C81 C 0.03442 0.77786 0.2309 0.0
N82 N 0.0255 0.78058 0.08147 0.0
C83 C 0.02514 0.77709 0.17832 0.0
O84 O 0.07148 0.73363 0.06064 0.0
C85 C 0.067 0.71713 0.12792 0.0
O86 O 0.06255 0.73287 0.19684 0.0
H87 H 0.05081 0.78654 0.04822 0.0
H88 H 0.03441 0.77481 0.30797 0.0
C89 C 0.09965 0.78832 0.07997 0.0
C90 C 0.10748 0.78662 0.15052 0.0
C91 C 0.0949 0.7784 0.27056 0.0
C92 C 0.08725 0.7795 0.20143 0.0
N93 N 0.08963 0.78484 0.10783 0.0
N94 N 0.10479 0.78179 0.24356 0.0
H95 H 0.10152 0.79157 0.00498 0.0
C96 C 0.06586 0.79272 0.42793 0.0
O97 O 0.07393 0.80256 0.37938 0.0
O98 O 0.0776 0.79017 0.89011 0.0
H99 H 0.07938 0.77557 0.22181 0.0
H100 H 0.03457 0.78684 0.95703 0.0
H101 H 0.09303 0.77422 0.34511 0.0
Zn102 Zn 0.18219 0.49744 0.04552 0.0
C103 C 0.19963 0.4245 0.18942 0.0
N104 N 0.19712 0.40476 0.11551 0.0
C105 C 0.19113 0.42313 0.05774 0.0
N106 N 0.1905 0.45653 0.09153 0.0
N107 N 0.19587 0.45713 0.1743 0.0
C108 C 0.19404 0.50825 0.43264 0.0
O109 O 0.18682 0.52533 0.38746 0.0
O110 O 0.18178 0.50165 0.89743 0.0
Zn111 Zn 0.20207 0.49909 0.23745 0.0
N112 N 0.16907 0.49575 0.11741 0.0
C113 C 0.16369 0.49566 0.28083 0.0
C114 C 0.17141 0.4957 0.21229 0.0
C115 C 0.15904 0.49568 0.0881 0.0
N116 N 0.15379 0.49547 0.25235 0.0
C117 C 0.15116 0.49541 0.1582 0.0
O118 O 0.19684 0.5478 0.20751 0.0
C119 C 0.19196 0.56346 0.14173 0.0
O120 O 0.18715 0.54664 0.07756 0.0
H121 H 0.17933 0.49598 0.2344 0.0
H122 H 0.15722 0.49595 0.01247 0.0
C123 C 0.22495 0.50925 0.23276 0.0
C124 C 0.23423 0.5111 0.18084 0.0
C125 C 0.22518 0.49984 0.03704 0.0
C126 C 0.21606 0.49775 0.08819 0.0
N127 N 0.21605 0.50215 0.18488 0.0
N128 N 0.23403 0.50638 0.08434 0.0
H129 H 0.22483 0.5132 0.30952 0.0
C130 C 0.18922 0.49133 0.84543 0.0
O131 O 0.19672 0.47426 0.8867 0.0
O132 O 0.2014 0.49521 0.38472 0.0
H133 H 0.20896 0.49296 0.05081 0.0
H134 H 0.16553 0.49594 0.35631 0.0
H135 H 0.22523 0.49638 0.96011 0.0
Zn136 Zn 0.93219 0.53295 0.79275 0.0
C137 C 0.94637 0.60412 0.95567 0.0
N138 N 0.94425 0.62546 0.88308 0.0
C139 C 0.9408 0.60425 0.81462 0.0
N140 N 0.94062 0.57083 0.84464 0.0
N141 N 0.94435 0.57075 0.93326 0.0
C142 C 0.94314 0.54179 0.18561 0.0
O143 O 0.93503 0.55153 0.13746 0.0
O144 O 0.93122 0.53961 0.64756 0.0
Zn145 Zn 0.9514 0.53065 0.99216 0.0
N146 N 0.9191 0.53457 0.86453 0.0
C147 C 0.91376 0.53124 0.02776 0.0
C148 C 0.92144 0.53121 0.95888 0.0
C149 C 0.90908 0.53665 0.83564 0.0
N150 N 0.90387 0.53356 0.99982 0.0
C151 C 0.90121 0.53608 0.90597 0.0
O152 O 0.94635 0.48201 0.95348 0.0
C153 C 0.94185 0.46645 0.88459 0.0
O154 O 0.93729 0.48315 0.81807 0.0
H155 H 0.92931 0.52785 0.97998 0.0
H156 H 0.90724 0.53816 0.76015 0.0
C157 C 0.97444 0.52708 0.98648 0.0
C158 C 0.98369 0.52684 0.93352 0.0
C159 C 0.97427 0.53522 0.7903 0.0
C160 C 0.96518 0.53496 0.84216 0.0
N161 N 0.96535 0.53145 0.93909 0.0
N162 N 0.98328 0.53109 0.83692 0.0
H163 H 0.97448 0.52347 0.06337 0.0
C164 C 0.93879 0.52822 0.59906 0.0
O165 O 0.94623 0.51206 0.64386 0.0
O166 O 0.95121 0.53299 0.14004 0.0
H167 H 0.95796 0.5372 0.805 0.0
H168 H 0.91561 0.52871 0.10296 0.0
H169 H 0.97416 0.53828 0.71325 0.0
Zn170 Zn 0.82595 0.24659 0.79198 0.0
C171 C 0.81329 0.17425 0.95844 0.0
N172 N 0.81593 0.15287 0.88737 0.0
C173 C 0.81869 0.17435 0.8169 0.0
N174 N 0.81794 0.20796 0.84442 0.0
N175 N 0.81429 0.20793 0.93329 0.0
C176 C 0.81502 0.23912 0.18518 0.0
O177 O 0.82341 0.23253 0.13719 0.0
O178 O 0.82697 0.24011 0.64691 0.0
Zn179 Zn 0.80681 0.24754 0.99132 0.0
N180 N 0.839 0.24657 0.86374 0.0
C181 C 0.84433 0.25483 0.02565 0.0
C182 C 0.83665 0.25263 0.95706 0.0
C183 C 0.84901 0.24331 0.83554 0.0
N184 N 0.85422 0.25159 0.99834 0.0
C185 C 0.85687 0.24595 0.9055 0.0
O186 O 0.81167 0.29657 0.95399 0.0
C187 C 0.81602 0.3124 0.8847 0.0
O188 O 0.82051 0.29598 0.81722 0.0
H189 H 0.82877 0.25629 0.9775 0.0
H190 H 0.85085 0.23943 0.7607 0.0
C191 C 0.78382 0.25129 0.98401 0.0
C192 C 0.77455 0.25068 0.93127 0.0
C193 C 0.78393 0.23927 0.7894 0.0
C194 C 0.79304 0.24042 0.84097 0.0
N195 N 0.79289 0.24577 0.93727 0.0
N196 N 0.77494 0.24449 0.83546 0.0
H197 H 0.7838 0.25648 0.06021 0.0
C198 C 0.81919 0.25026 0.59934 0.0
O199 O 0.81152 0.2647 0.64525 0.0
O200 O 0.80677 0.24524 0.13918 0.0
H201 H 0.80024 0.23747 0.80398 0.0
H202 H 0.84248 0.25968 0.09997 0.0
H203 H 0.78403 0.23472 0.7129 0.0
Zn204 Zn 0.93185 0.24851 0.97035 0.0
C205 C 0.94404 0.17597 0.80242 0.0
N206 N 0.9413 0.15465 0.87326 0.0
C207 C 0.93881 0.17623 0.94446 0.0
N208 N 0.93977 0.20979 0.91744 0.0
N209 N 0.94332 0.20968 0.82824 0.0
C210 C 0.94277 0.24127 0.57704 0.0
O211 O 0.93432 0.23547 0.62493 0.0
O212 O 0.93088 0.24196 0.11541 0.0
Zn213 Zn 0.95085 0.24918 0.77095 0.0
N214 N 0.91877 0.24861 0.89903 0.0
C215 C 0.91332 0.25757 0.73776 0.0
C216 C 0.92104 0.2553 0.80591 0.0
C217 C 0.90879 0.24461 0.92741 0.0
N218 N 0.90346 0.25366 0.76527 0.0
C219 C 0.90089 0.2473 0.8579 0.0
O220 O 0.94601 0.29841 0.80785 0.0
C221 C 0.94176 0.31427 0.87772 0.0
O222 O 0.93732 0.29785 0.94544 0.0
H223 H 0.9289 0.25932 0.78523 0.0
H224 H 0.90701 0.24006 1.00207 0.0
C225 C 0.97382 0.25206 0.78076 0.0
C226 C 0.98298 0.25241 0.83498 0.0
C227 C 0.97338 0.24305 0.97659 0.0
C228 C 0.96436 0.2433 0.92353 0.0
N229 N 0.96467 0.24736 0.82678 0.0
N230 N 0.98244 0.24776 0.93137 0.0
H231 H 0.97397 0.25615 0.70408 0.0
C232 C 0.93869 0.252 0.16276 0.0
O233 O 0.94635 0.26639 0.11672 0.0
O234 O 0.95104 0.24676 0.62321 0.0
H235 H 0.9571 0.24077 0.95969 0.0
H236 H 0.91512 0.26293 0.66359 0.0
H237 H 0.97316 0.23966 0.05351 0.0
Zn238 Zn 0.82616 0.53057 0.9735 0.0
C239 C 0.81302 0.6025 0.80818 0.0
N240 N 0.81554 0.62395 0.87952 0.0
C241 C 0.81848 0.60254 0.94945 0.0
N242 N 0.81795 0.56891 0.92163 0.0
N243 N 0.81425 0.56887 0.83293 0.0
C244 C 0.81526 0.5385 0.5805 0.0
O245 O 0.82351 0.54663 0.62873 0.0
O246 O 0.82715 0.53721 0.11857 0.0
Zn247 Zn 0.80696 0.52911 0.77405 0.0
N248 N 0.83923 0.53124 0.9016 0.0
C249 C 0.84458 0.5242 0.73928 0.0
C250 C 0.83691 0.52543 0.80811 0.0
C251 C 0.84923 0.53491 0.92978 0.0
N252 N 0.85446 0.52801 0.7665 0.0
C253 C 0.85709 0.5332 0.85954 0.0
O254 O 0.81186 0.48028 0.81219 0.0
C255 C 0.81627 0.46452 0.88123 0.0
O256 O 0.82084 0.481 0.9481 0.0
H257 H 0.82904 0.52139 0.78757 0.0
H258 H 0.85106 0.53858 0.00471 0.0
C259 C 0.78393 0.52589 0.77958 0.0
C260 C 0.77466 0.52586 0.83228 0.0
C261 C 0.78405 0.53448 0.97561 0.0
C262 C 0.79315 0.53398 0.92399 0.0
N263 N 0.793 0.53034 0.8271 0.0
N264 N 0.77504 0.53033 0.92883 0.0
H265 H 0.78391 0.52204 0.70278 0.0
C266 C 0.8196 0.5256 0.16676 0.0
O267 O 0.8122 0.5094 0.1216 0.0
O268 O 0.80708 0.53123 0.62621 0.0
H269 H 0.80037 0.53615 0.96127 0.0
H270 H 0.84274 0.5197 0.66477 0.0
H271 H 0.78414 0.53768 0.05262 0.0
Zn272 Zn 0.07636 0.9987 0.72423 0.0
C273 C 0.06346 0.92752 0.55521 0.0
N274 N 0.06603 0.9057 0.62544 0.0
C275 C 0.06877 0.92672 0.69699 0.0
N276 N 0.0681 0.96053 0.67108 0.0
N277 N 0.0645 0.96101 0.582 0.0
C278 C 0.06542 0.99084 0.33078 0.0
O279 O 0.07347 0.97982 0.37777 0.0
O280 O 0.07725 0.9925 0.86979 0.0
Zn281 Zn 0.05712 1.001 0.52508 0.0
N282 N 0.08945 0.99793 0.65193 0.0
C283 C 0.09469 1.00302 0.48871 0.0
C284 C 0.08705 1.00252 0.55803 0.0
C285 C 0.09948 0.99504 0.67987 0.0
N286 N 0.10458 0.99997 0.51571 0.0
C287 C 0.10731 0.99617 0.60904 0.0
O288 O 0.06181 0.04966 0.56637 0.0
C289 C 0.06634 0.06514 0.63515 0.0
O290 O 0.07107 0.04836 0.70036 0.0
H291 H 0.07917 1.00614 0.5374 0.0
H292 H 0.10137 0.99239 0.75499 0.0
C293 C 0.03406 1.00412 0.52783 0.0
C294 C 0.02469 1.0028 0.57877 0.0
C295 C 0.03379 0.99065 0.72168 0.0
C296 C 0.043 0.99243 0.67192 0.0
N297 N 0.04305 0.9986 0.576 0.0
N298 N 0.02488 0.99593 0.67424 0.0
H299 H 0.03419 1.00977 0.45191 0.0
C300 C 0.06918 1.00119 0.91563 0.0
O301 O 0.06136 1.0138 0.86783 0.0
O302 O 0.05749 1.00019 0.3775 0.0
H303 H 0.05013 0.98924 0.70999 0.0
H304 H 0.09279 1.00638 0.4139 0.0
H305 H 0.03373 0.98549 0.79786 0.0
Zn306 Zn 0.18135 0.28093 0.71783 0.0
C307 C 0.19418 0.35712 0.55577 0.0
N308 N 0.19094 0.37745 0.6277 0.0
C309 C 0.18789 0.35487 0.6948 0.0
N310 N 0.18888 0.32157 0.6641 0.0
N311 N 0.19322 0.32284 0.57762 0.0
C312 C 0.1949 0.25541 0.32348 0.0
O313 O 0.19237 0.22781 0.37254 0.0
O314 O 0.18146 0.28104 0.8678 0.0
Zn315 Zn 0.20122 0.28363 0.5154 0.0
N316 N 0.1679 0.28293 0.65339 0.0
C317 C 0.16171 0.28442 0.49257 0.0
C318 C 0.16975 0.28212 0.55749 0.0
C319 C 0.15806 0.28488 0.68721 0.0
N320 N 0.152 0.28617 0.52542 0.0
C321 C 0.14984 0.28614 0.62054 0.0
O322 O 0.1981 0.2339 0.56174 0.0
C323 C 0.19269 0.21721 0.62205 0.0
O324 O 0.18672 0.23296 0.67957 0.0
H325 H 0.17751 0.27968 0.53157 0.0
H326 H 0.15662 0.28514 0.76357 0.0
C327 C 0.22426 0.27893 0.50641 0.0
C328 C 0.23409 0.28686 0.54354 0.0
C329 C 0.22639 0.32099 0.66444 0.0
C330 C 0.21676 0.3131 0.62842 0.0
N331 N 0.21575 0.29245 0.54997 0.0
N332 N 0.2348 0.30781 0.62128 0.0
H333 H 0.22343 0.26234 0.44449 0.0
C334 C 0.18413 0.25437 0.91614 0.0
O335 O 0.18568 0.22503 0.87136 0.0
O336 O 0.19897 0.28111 0.36711 0.0
H337 H 0.21013 0.32336 0.66409 0.0
H338 H 0.16314 0.28478 0.41644 0.0
H339 H 0.22719 0.33746 0.72662 0.0
Zn340 Zn 0.05644 0.28254 0.74373 0.0
C341 C 0.06737 0.355 0.5615 0.0
N342 N 0.06434 0.37675 0.63045 0.0
C343 C 0.06194 0.35568 0.70299 0.0
N344 N 0.06323 0.32202 0.67922 0.0
N345 N 0.06692 0.32148 0.59051 0.0
C346 C 0.06882 0.28943 0.3501 0.0
O347 O 0.06031 0.29624 0.39648 0.0
O348 O 0.05717 0.28911 0.88982 0.0
Zn349 Zn 0.07543 0.28264 0.54478 0.0
N350 N 0.04234 0.28235 0.69403 0.0
C351 C 0.03313 0.28552 0.54675 0.0
C352 C 0.04231 0.28574 0.59709 0.0
C353 C 0.03338 0.27734 0.74293 0.0
N354 N 0.02423 0.28085 0.59485 0.0
C355 C 0.02403 0.27655 0.69149 0.0
O356 O 0.07022 0.23349 0.57396 0.0
C357 C 0.0658 0.21723 0.64194 0.0
O358 O 0.06144 0.23325 0.71078 0.0
H359 H 0.04944 0.28812 0.55881 0.0
H360 H 0.03351 0.27359 0.81976 0.0
C361 C 0.09824 0.28675 0.59531 0.0
C362 C 0.10587 0.28699 0.66778 0.0
C363 C 0.09296 0.2844 0.78657 0.0
C364 C 0.0855 0.2836 0.71569 0.0
N365 N 0.08814 0.28513 0.62155 0.0
N366 N 0.10294 0.28593 0.7611 0.0
H367 H 0.10032 0.28735 0.52027 0.0
C368 C 0.06433 0.27464 0.93734 0.0
O369 O 0.07092 0.2547 0.8929 0.0
O370 O 0.07698 0.28398 0.3983 0.0
H371 H 0.07756 0.28152 0.73557 0.0
H372 H 0.03308 0.2885 0.46967 0.0
H373 H 0.09085 0.28342 0.86147 0.0
Zn374 Zn 0.20144 1.00021 0.7351 0.0
C375 C 0.18982 0.92618 0.56176 0.0
N376 N 0.19243 0.90499 0.63337 0.0
C377 C 0.19506 0.92664 0.70384 0.0
N378 N 0.19418 0.9602 0.67715 0.0
N379 N 0.19063 0.95995 0.58789 0.0
C380 C 0.18953 1.00121 0.34397 0.0
O381 O 0.19731 1.01427 0.39137 0.0
O382 O 0.20115 0.99901 0.88246 0.0
Zn383 Zn 0.18245 0.99848 0.53548 0.0
N384 N 0.21545 0.9984 0.68348 0.0
C385 C 0.22463 0.99312 0.53646 0.0
C386 C 0.21545 0.99367 0.58692 0.0
C387 C 0.22444 1.0034 0.73186 0.0
N388 N 0.23355 0.99811 0.58402 0.0
C389 C 0.23377 1.00338 0.68028 0.0
O390 O 0.18783 0.04811 0.55951 0.0
C391 C 0.19238 0.06479 0.62612 0.0
O392 O 0.19669 0.0491 0.69581 0.0
H393 H 0.20831 0.99079 0.54892 0.0
H394 H 0.22434 1.0079 0.80839 0.0
C395 C 0.15933 0.99508 0.57949 0.0
C396 C 0.15149 0.99602 0.6502 0.0
C397 C 0.16409 1.00232 0.77097 0.0
C398 C 0.17174 1.00201 0.70179 0.0
N399 N 0.16936 0.99778 0.60772 0.0
N400 N 0.15419 0.99945 0.74368 0.0
H401 H 0.15746 0.9927 0.50426 0.0
C402 C 0.19323 0.98963 0.92921 0.0
O403 O 0.18519 0.97859 0.88229 0.0
O404 O 0.18152 0.99226 0.3901 0.0
H405 H 0.17961 1.00546 0.72272 0.0
H406 H 0.22466 0.9892 0.4597 0.0
H407 H 0.16596 1.00537 0.84592 0.0
Zn408 Zn 0.93209 0.03172 0.28316 0.0
C409 C 0.94544 0.10402 0.44489 0.0
N410 N 0.94288 0.12539 0.37345 0.0
C411 C 0.93996 0.10388 0.30363 0.0
N412 N 0.94057 0.07024 0.33116 0.0
N413 N 0.9443 0.07043 0.41972 0.0
C414 C 0.94339 0.02373 0.67672 0.0
O415 O 0.93665 1.00436 0.63254 0.0
O416 O 0.93069 0.03432 0.13662 0.0
Zn417 Zn 0.95123 0.03108 0.48301 0.0
N418 N 0.91917 0.03406 0.35708 0.0
C419 C 0.91388 0.03166 0.52067 0.0
C420 C 0.92155 0.03142 0.45161 0.0
C421 C 0.90914 0.03624 0.32851 0.0
N422 N 0.90398 0.03375 0.49292 0.0
C423 C 0.9013 0.03593 0.39906 0.0
O424 O 0.94617 0.98196 0.44903 0.0
C425 C 0.94174 0.96601 0.38041 0.0
O426 O 0.93728 0.98234 0.31261 0.0
H427 H 0.92944 0.02904 0.47317 0.0
H428 H 0.90728 0.03758 0.25306 0.0
C429 C 0.97435 0.02715 0.48259 0.0
C430 C 0.98368 0.02538 0.43088 0.0
C431 C 0.97449 0.0314 0.28545 0.0
C432 C 0.96533 0.03257 0.33614 0.0
N433 N 0.96535 0.03089 0.43338 0.0
N434 N 0.98342 0.02768 0.33373 0.0
H435 H 0.97427 0.0249 0.55987 0.0
C436 C 0.93905 0.03692 0.08986 0.0
O437 O 0.94767 0.03974 0.13771 0.0
O438 O 0.95061 0.03767 0.62885 0.0
H439 H 0.95816 0.03424 0.29808 0.0
H440 H 0.91578 0.0298 0.59593 0.0
H441 H 0.97449 0.03289 0.20805 0.0
Zn442 Zn 0.82674 0.74612 0.28571 0.0
C443 C 0.81353 0.67468 0.45172 0.0
N444 N 0.81608 0.65308 0.38077 0.0
C445 C 0.81905 0.67435 0.31062 0.0
N446 N 0.8185 0.70802 0.33802 0.0
N447 N 0.81479 0.70824 0.42665 0.0
C448 C 0.81583 0.73896 0.67863 0.0
O449 O 0.82411 0.73104 0.63032 0.0
O450 O 0.8277 0.73942 0.1406 0.0
Zn451 Zn 0.80757 0.74822 0.48515 0.0
N452 N 0.83982 0.7453 0.3574 0.0
C453 C 0.8452 0.75378 0.51909 0.0
C454 C 0.83751 0.75176 0.4506 0.0
C455 C 0.84981 0.74137 0.32929 0.0
N456 N 0.85507 0.74995 0.49185 0.0
C457 C 0.85769 0.74388 0.39917 0.0
O458 O 0.81262 0.79685 0.44724 0.0
C459 C 0.81707 0.8125 0.37829 0.0
O460 O 0.82155 0.79589 0.31106 0.0
H461 H 0.82964 0.75587 0.47108 0.0
H462 H 0.85163 0.73709 0.25457 0.0
C463 C 0.78454 0.7518 0.47915 0.0
C464 C 0.77528 0.75187 0.42637 0.0
C465 C 0.78468 0.74318 0.28313 0.0
C466 C 0.79379 0.74362 0.33482 0.0
N467 N 0.79362 0.74732 0.4317 0.0
N468 N 0.77567 0.74738 0.32983 0.0
H469 H 0.78451 0.75561 0.55597 0.0
C470 C 0.82016 0.75127 0.09253 0.0
O471 O 0.8128 0.76768 0.13782 0.0
O472 O 0.80764 0.74609 0.63294 0.0
H473 H 0.801 0.74137 0.29762 0.0
H474 H 0.84337 0.75892 0.59332 0.0
H475 H 0.78478 0.73995 0.20612 0.0
Zn476 Zn 0.93246 0.74747 0.47386 0.0
C477 C 0.94663 0.67612 0.31428 0.0
N478 N 0.94431 0.65462 0.38611 0.0
C479 C 0.94107 0.67593 0.45525 0.0
N480 N 0.9413 0.70957 0.42708 0.0
N481 N 0.94509 0.70958 0.33875 0.0
C482 C 0.94362 0.75636 0.08102 0.0
O483 O 0.9368 0.77537 0.12563 0.0
O484 O 0.9309 0.7448 0.62045 0.0
Zn485 Zn 0.95161 0.74943 0.27437 0.0
N486 N 0.91963 0.74384 0.3985 0.0
C487 C 0.9145 0.74374 0.23431 0.0
C488 C 0.9221 0.74517 0.30392 0.0
C489 C 0.90958 0.7419 0.42641 0.0
N490 N 0.90458 0.74192 0.26143 0.0
C491 C 0.90181 0.74111 0.35522 0.0
O492 O 0.94627 0.79815 0.3086 0.0
C493 C 0.94178 0.81383 0.37738 0.0
O494 O 0.93738 0.79723 0.445 0.0
H495 H 0.92999 0.74756 0.28266 0.0
H496 H 0.90765 0.74166 0.50179 0.0
C497 C 0.97475 0.75411 0.27429 0.0
C498 C 0.98403 0.75724 0.32622 0.0
C499 C 0.97475 0.75391 0.47182 0.0
C500 C 0.96563 0.75135 0.42084 0.0
N501 N 0.96573 0.75107 0.32351 0.0
N502 N 0.9837 0.75694 0.42356 0.0
H503 H 0.97472 0.75475 0.19677 0.0
C504 C 0.93929 0.74464 0.66742 0.0
O505 O 0.94794 0.74454 0.61955 0.0
O506 O 0.95094 0.74279 0.12846 0.0
H507 H 0.95843 0.75024 0.45858 0.0
H508 H 0.91647 0.7446 0.15907 0.0
H509 H 0.9747 0.75403 0.54934 0.0
Zn510 Zn 0.80759 0.02937 0.27477 0.0
C511 C 0.81816 0.10227 0.45748 0.0
N512 N 0.81496 0.12379 0.38871 0.0
C513 C 0.81258 0.10248 0.3166 0.0
N514 N 0.81409 0.06895 0.34037 0.0
N515 N 0.81788 0.06869 0.42867 0.0
C516 C 0.81987 0.03217 0.66793 0.0
O517 O 0.81123 0.03128 0.61998 0.0
O518 O 0.80843 0.03607 0.12891 0.0
Zn519 Zn 0.8266 0.03038 0.4747 0.0
N520 N 0.79347 0.02801 0.32329 0.0
C521 C 0.78446 0.02484 0.47157 0.0
C522 C 0.79357 0.02729 0.42061 0.0
C523 C 0.78445 0.02545 0.27402 0.0
N524 N 0.7755 0.02229 0.42326 0.0
C525 C 0.77517 0.02239 0.32592 0.0
O526 O 0.82147 0.98087 0.44618 0.0
C527 C 0.81711 0.96457 0.37776 0.0
O528 O 0.81277 0.98051 0.30871 0.0
H529 H 0.80078 0.02793 0.4583 0.0
H530 H 0.78448 0.02508 0.19649 0.0
C531 C 0.84942 0.0356 0.42577 0.0
C532 C 0.85717 0.03545 0.35425 0.0
C533 C 0.84442 0.03085 0.23423 0.0
C534 C 0.83686 0.03042 0.30426 0.0
N535 N 0.83937 0.03311 0.39851 0.0
N536 N 0.85436 0.03321 0.26073 0.0
H537 H 0.85139 0.03704 0.50097 0.0
C538 C 0.81542 0.02072 0.08131 0.0
O539 O 0.82178 0.99994 0.12562 0.0
O540 O 0.82826 0.03296 0.62102 0.0
H541 H 0.82894 0.02786 0.28362 0.0
H542 H 0.78451 0.02439 0.54908 0.0
H543 H 0.84242 0.02895 0.15921 0.0
Zn544 Zn 0.57605 0.49829 0.71546 0.0
C545 C 0.5636 0.42586 0.54774 0.0
N546 N 0.56624 0.40444 0.61868 0.0
C547 C 0.56894 0.42587 0.68953 0.0
N548 N 0.56815 0.45951 0.66232 0.0
N549 N 0.56453 0.45954 0.57333 0.0
C550 C 0.56537 0.49133 0.32256 0.0
O551 O 0.57376 0.48517 0.3709 0.0
O552 O 0.57712 0.49161 0.86031 0.0
Zn553 Zn 0.557 0.49916 0.51584 0.0
N554 N 0.58916 0.49886 0.64425 0.0
C555 C 0.59469 0.50884 0.4837 0.0
C556 C 0.58692 0.50611 0.55136 0.0
C557 C 0.59912 0.49465 0.67284 0.0
N558 N 0.60454 0.50473 0.51143 0.0
C559 C 0.60707 0.49778 0.60385 0.0
O560 O 0.56156 0.54842 0.55491 0.0
C561 C 0.56579 0.56415 0.62506 0.0
O562 O 0.57038 0.54758 0.69166 0.0
H563 H 0.57907 0.51022 0.53051 0.0
H564 H 0.60087 0.48953 0.74729 0.0
C565 C 0.53403 0.50188 0.52052 0.0
C566 C 0.52469 0.50089 0.57204 0.0
C567 C 0.5339 0.48972 0.71504 0.0
C568 C 0.54308 0.49128 0.66465 0.0
N569 N 0.54304 0.49667 0.56838 0.0
N570 N 0.52495 0.49465 0.66785 0.0
H571 H 0.53411 0.50718 0.44439 0.0
C572 C 0.56934 0.50167 0.90819 0.0
O573 O 0.56163 0.51596 0.86263 0.0
O574 O 0.55707 0.49711 0.36819 0.0
H575 H 0.55024 0.48862 0.70249 0.0
H576 H 0.59292 0.51464 0.40972 0.0
H577 H 0.53389 0.48513 0.7915 0.0
Zn578 Zn 0.68273 0.78227 0.72343 0.0
C579 C 0.69701 0.85361 0.56397 0.0
N580 N 0.69483 0.87509 0.63632 0.0
C581 C 0.6915 0.85386 0.7052 0.0
N582 N 0.69154 0.82027 0.6764 0.0
N583 N 0.69532 0.82021 0.58804 0.0
C584 C 0.69375 0.77301 0.33036 0.0
O585 O 0.687 0.75381 0.37491 0.0
O586 O 0.68109 0.78519 0.86979 0.0
Zn587 Zn 0.70174 0.78013 0.52365 0.0
N588 N 0.66993 0.78487 0.64734 0.0
C589 C 0.6648 0.78473 0.48311 0.0
C590 C 0.67241 0.78436 0.5527 0.0
C591 C 0.65986 0.78482 0.67523 0.0
N592 N 0.65486 0.78467 0.51025 0.0
C593 C 0.65209 0.78455 0.60404 0.0
O594 O 0.69637 0.73146 0.55818 0.0
C595 C 0.69202 0.71594 0.628 0.0
O596 O 0.68777 0.73266 0.69624 0.0
H597 H 0.68032 0.78326 0.53127 0.0
H598 H 0.65792 0.7843 0.75059 0.0
C599 C 0.72488 0.77516 0.52306 0.0
C600 C 0.73417 0.7721 0.57483 0.0
C601 C 0.72492 0.77574 0.72059 0.0
C602 C 0.7158 0.77825 0.66977 0.0
N603 N 0.71587 0.77836 0.57243 0.0
N604 N 0.73386 0.77258 0.67218 0.0
H605 H 0.72482 0.77436 0.44555 0.0
C606 C 0.68947 0.7849 0.91685 0.0
O607 O 0.69813 0.7845 0.86907 0.0
O608 O 0.70104 0.78674 0.3778 0.0
H609 H 0.70861 0.77947 0.70764 0.0
H610 H 0.66678 0.78452 0.40785 0.0
H611 H 0.72489 0.77575 0.79811 0.0
Zn612 Zn 0.55723 0.7842 0.72535 0.0
C613 C 0.57169 0.85716 0.55722 0.0
N614 N 0.56782 0.8777 0.62582 0.0
C615 C 0.56425 0.85622 0.693 0.0
N616 N 0.56545 0.82276 0.666 0.0
N617 N 0.57025 0.82288 0.58108 0.0
C618 C 0.56739 0.77579 0.34116 0.0
O619 O 0.55907 0.77406 0.39376 0.0
O620 O 0.55705 0.78581 0.87371 0.0
Zn621 Zn 0.57685 0.7794 0.53082 0.0
N622 N 0.54325 0.78941 0.67404 0.0
C623 C 0.53355 0.80682 0.53753 0.0
C624 C 0.54291 0.80256 0.58369 0.0
C625 C 0.53444 0.77972 0.71976 0.0
N626 N 0.52481 0.7974 0.58282 0.0
C627 C 0.52493 0.78382 0.67257 0.0
O628 O 0.57091 0.73199 0.56634 0.0
C629 C 0.56563 0.71652 0.62978 0.0
O630 O 0.56092 0.73353 0.69434 0.0
H631 H 0.54989 0.80961 0.54724 0.0
H632 H 0.53481 0.7689 0.79114 0.0
C633 C 0.60027 0.77829 0.57351 0.0
C634 C 0.60799 0.7769 0.64512 0.0
C635 C 0.5952 0.7718 0.7645 0.0
C636 C 0.58764 0.77365 0.69464 0.0
N637 N 0.59017 0.77691 0.60053 0.0
N638 N 0.60515 0.7736 0.7383 0.0
H639 H 0.6023 0.78077 0.49865 0.0
C640 C 0.56496 0.7911 0.92538 0.0
O641 O 0.57366 0.79864 0.88338 0.0
O642 O 0.5761 0.77672 0.3827 0.0
H643 H 0.57968 0.7723 0.71527 0.0
H644 H 0.53323 0.8174 0.46586 0.0
H645 H 0.59317 0.76909 0.83927 0.0
Zn646 Zn 0.70111 0.49909 0.7387 0.0
C647 C 0.68997 0.42598 0.55974 0.0
N648 N 0.69305 0.40457 0.62933 0.0
C649 C 0.69558 0.42605 0.70058 0.0
N650 N 0.6943 0.45958 0.67547 0.0
N651 N 0.69051 0.45965 0.58716 0.0
C652 C 0.6889 0.49309 0.34551 0.0
O653 O 0.69751 0.49023 0.39336 0.0
O654 O 0.70053 0.49254 0.88449 0.0
Zn655 Zn 0.68195 0.49806 0.539 0.0
N656 N 0.7152 0.49963 0.68869 0.0
C657 C 0.7242 0.50082 0.54008 0.0
C658 C 0.71509 0.49901 0.59137 0.0
C659 C 0.72424 0.50293 0.73752 0.0
N660 N 0.73317 0.50409 0.58797 0.0
C661 C 0.73352 0.50533 0.68525 0.0
O662 O 0.68712 0.5474 0.56802 0.0
C663 C 0.69159 0.56388 0.63545 0.0
O664 O 0.69601 0.54811 0.70447 0.0
H665 H 0.70789 0.49778 0.5538 0.0
H666 H 0.72422 0.5044 0.81495 0.0
C667 C 0.659 0.4939 0.58351 0.0
C668 C 0.65112 0.49401 0.65367 0.0
C669 C 0.66364 0.49724 0.77607 0.0
C670 C 0.67134 0.49764 0.70741 0.0
N671 N 0.66901 0.49561 0.61266 0.0
N672 N 0.65375 0.49562 0.74774 0.0
H673 H 0.65718 0.49313 0.50791 0.0
C674 C 0.69327 0.50627 0.93226 0.0
O675 O 0.68645 0.52536 0.88789 0.0
O676 O 0.68054 0.49558 0.39239 0.0
H677 H 0.67923 0.49973 0.72948 0.0
H678 H 0.72414 0.50021 0.46258 0.0
H679 H 0.66549 0.49873 0.85148 0.0
Zn680 Zn 0.43257 0.53076 0.28457 0.0
C681 C 0.4455 0.6032 0.44895 0.0
N682 N 0.44293 0.62447 0.37734 0.0
C683 C 0.44007 0.60286 0.30757 0.0
N684 N 0.4407 0.56931 0.33582 0.0
N685 N 0.44436 0.56952 0.42461 0.0
C686 C 0.44344 0.54027 0.67835 0.0
O687 O 0.43523 0.54935 0.6308 0.0
O688 O 0.43151 0.53745 0.13969 0.0
Zn689 Zn 0.45151 0.52971 0.4843 0.0
N690 N 0.4196 0.53103 0.35748 0.0
C691 C 0.41443 0.52524 0.52071 0.0
C692 C 0.42205 0.52688 0.45138 0.0
C693 C 0.40955 0.53241 0.32944 0.0
N694 N 0.40451 0.52684 0.49361 0.0
C695 C 0.40176 0.5302 0.40022 0.0
O696 O 0.44638 0.48094 0.44835 0.0
C697 C 0.44213 0.46502 0.37874 0.0
O698 O 0.43788 0.48132 0.30976 0.0
H699 H 0.42996 0.52425 0.47186 0.0
H700 H 0.40763 0.53455 0.25425 0.0
C701 C 0.47449 0.52573 0.47778 0.0
C702 C 0.48372 0.5245 0.42474 0.0
C703 C 0.47432 0.53232 0.28116 0.0
C704 C 0.46523 0.53298 0.33315 0.0
N705 N 0.46541 0.5301 0.43024 0.0
N706 N 0.48331 0.52794 0.32789 0.0
H707 H 0.47452 0.52261 0.55483 0.0
C708 C 0.43904 0.52565 0.09139 0.0
O709 O 0.44637 0.50901 0.13632 0.0
O710 O 0.45152 0.5322 0.63204 0.0
H711 H 0.45801 0.53531 0.29599 0.0
H712 H 0.41636 0.52206 0.59551 0.0
H713 H 0.4742 0.53477 0.20394 0.0
Zn714 Zn 0.32616 0.24759 0.2804 0.0
C715 C 0.31404 0.17516 0.44908 0.0
N716 N 0.31687 0.15361 0.37893 0.0
C717 C 0.31937 0.17493 0.30734 0.0
N718 N 0.31834 0.20863 0.33345 0.0
N719 N 0.31472 0.20877 0.42244 0.0
C720 C 0.31509 0.24018 0.67295 0.0
O721 O 0.32348 0.2336 0.62483 0.0
O722 O 0.32715 0.24086 0.13513 0.0
Zn723 Zn 0.30688 0.24797 0.4787 0.0
N724 N 0.33926 0.24823 0.35235 0.0
C725 C 0.34451 0.25822 0.51378 0.0
C726 C 0.33687 0.25545 0.44498 0.0
C727 C 0.34928 0.24408 0.32524 0.0
N728 N 0.35441 0.25418 0.48752 0.0
C729 C 0.35711 0.24722 0.39552 0.0
O730 O 0.31133 0.2974 0.44022 0.0
C731 C 0.31567 0.31332 0.37101 0.0
O732 O 0.32042 0.2969 0.30499 0.0
H733 H 0.32898 0.25947 0.46485 0.0
H734 H 0.35116 0.23897 0.25106 0.0
C735 C 0.28383 0.25041 0.46772 0.0
C736 C 0.27469 0.24909 0.41316 0.0
C737 C 0.28439 0.23591 0.27444 0.0
C738 C 0.29338 0.23814 0.32746 0.0
N739 N 0.29302 0.24461 0.4232 0.0
N740 N 0.2753 0.24169 0.31813 0.0
H741 H 0.28364 0.25692 0.54311 0.0
C742 C 0.31941 0.25132 0.08743 0.0
O743 O 0.3118 0.26618 0.13326 0.0
O744 O 0.30683 0.24613 0.62688 0.0
H745 H 0.30066 0.23526 0.29182 0.0
H746 H 0.34261 0.264 0.5875 0.0
H747 H 0.28466 0.23044 0.19844 0.0
Zn748 Zn 0.43194 0.24748 0.47654 0.0
C749 C 0.44611 0.17537 0.31883 0.0
N750 N 0.44369 0.15406 0.39078 0.0
C751 C 0.44039 0.17555 0.45926 0.0
N752 N 0.44066 0.20912 0.4304 0.0
N753 N 0.44455 0.20888 0.34245 0.0
C754 C 0.44324 0.256 0.08346 0.0
O755 O 0.43663 0.27589 0.12786 0.0
O756 O 0.43036 0.24502 0.6231 0.0
Zn757 Zn 0.45117 0.24833 0.27708 0.0
N758 N 0.41911 0.24473 0.40068 0.0
C759 C 0.41412 0.24606 0.23615 0.0
C760 C 0.42165 0.2467 0.3064 0.0
C761 C 0.40902 0.24296 0.42772 0.0
N762 N 0.40416 0.24437 0.26239 0.0
C763 C 0.4013 0.24296 0.35589 0.0
O764 O 0.44604 0.29713 0.31107 0.0
C765 C 0.44162 0.31308 0.37967 0.0
O766 O 0.43713 0.29685 0.44745 0.0
H767 H 0.42958 0.24886 0.2859 0.0
H768 H 0.40702 0.24225 0.50291 0.0
C769 C 0.47431 0.253 0.27656 0.0
C770 C 0.48362 0.25505 0.32843 0.0
C771 C 0.47438 0.25021 0.47393 0.0
C772 C 0.46524 0.24878 0.42303 0.0
N773 N 0.4653 0.24948 0.32573 0.0
N774 N 0.48333 0.25339 0.42569 0.0
H775 H 0.47425 0.25465 0.19915 0.0
C776 C 0.43878 0.24528 0.66969 0.0
O777 O 0.4474 0.24566 0.62135 0.0
O778 O 0.4504 0.24158 0.13109 0.0
H779 H 0.45805 0.24772 0.46083 0.0
H780 H 0.41615 0.24736 0.16112 0.0
H781 H 0.47436 0.24939 0.55141 0.0
Zn782 Zn 0.30703 0.53435 0.27859 0.0
C783 C 0.32189 0.60615 0.44756 0.0
N784 N 0.31818 0.62703 0.37897 0.0
C785 C 0.31442 0.60582 0.31206 0.0
N786 N 0.31541 0.57228 0.33879 0.0
N787 N 0.3202 0.57199 0.42371 0.0
C788 C 0.31703 0.52258 0.66325 0.0
O789 O 0.30873 0.51922 0.61094 0.0
O790 O 0.30669 0.53672 0.13018 0.0
Zn791 Zn 0.32655 0.52809 0.47344 0.0
N792 N 0.29318 0.5404 0.3312 0.0
C793 C 0.28375 0.55718 0.47005 0.0
C794 C 0.29304 0.55207 0.42317 0.0
C795 C 0.28424 0.53304 0.28444 0.0
N796 N 0.27488 0.55002 0.42379 0.0
C797 C 0.27481 0.53795 0.33234 0.0
O798 O 0.32057 0.48093 0.43566 0.0
C799 C 0.31529 0.46585 0.37142 0.0
O800 O 0.31061 0.48328 0.30752 0.0
H801 H 0.30011 0.55733 0.46027 0.0
H802 H 0.28445 0.5234 0.21167 0.0
C803 C 0.34997 0.5261 0.43156 0.0
C804 C 0.35768 0.52558 0.35976 0.0
C805 C 0.34488 0.52249 0.23999 0.0
C806 C 0.33734 0.52352 0.31007 0.0
N807 N 0.33988 0.52558 0.4044 0.0
N808 N 0.35483 0.5237 0.2663 0.0
H809 H 0.352 0.52739 0.50664 0.0
C810 C 0.31468 0.54002 0.07832 0.0
O811 O 0.32356 0.54465 0.12028 0.0
O812 O 0.3257 0.52524 0.62148 0.0
H813 H 0.32938 0.52255 0.28947 0.0
H814 H 0.28359 0.5666 0.54302 0.0
H815 H 0.34286 0.5208 0.165 0.0
Zn816 Zn 0.57677 1.00079 0.22608 0.0
C817 C 0.56451 0.9234 0.06412 0.0
N818 N 0.56826 0.90212 0.13096 0.0
C819 C 0.57197 0.92294 0.19966 0.0
N820 N 0.57031 0.95712 0.17581 0.0
N821 N 0.5655 0.95694 0.09098 0.0
C822 C 0.56471 0.99198 0.83057 0.0
O823 O 0.57366 0.98993 0.87269 0.0
O824 O 0.57582 1.00379 0.3739 0.0
Zn825 Zn 0.55714 0.99516 0.031 0.0
N826 N 0.59019 1.0029 0.15852 0.0
C827 C 0.59535 1.00561 0.99455 0.0
C828 C 0.58774 1.0048 0.06399 0.0
C829 C 0.60025 1.00244 0.18661 0.0
N830 N 0.60528 1.00447 0.02176 0.0
C831 C 0.60803 1.00282 0.11549 0.0
O832 O 0.56096 0.04599 0.05937 0.0
C833 C 0.56572 0.06322 0.1232 0.0
O834 O 0.57094 0.04799 0.18757 0.0
H835 H 0.5798 1.00579 0.04282 0.0
H836 H 0.6022 1.00136 0.2619 0.0
C837 C 0.53435 0.99956 0.04004 0.0
C838 C 0.52493 0.99587 0.08913 0.0
C839 C 0.53383 0.97397 0.22406 0.0
C840 C 0.5431 0.97788 0.17606 0.0
N841 N 0.54325 0.99026 0.08484 0.0
N842 N 0.52499 0.983 0.17971 0.0
H843 H 0.53457 1.00982 0.96796 0.0
C844 C 0.56726 1.0091 0.41562 0.0
O845 O 0.55911 0.0155 0.36344 0.0
O846 O 0.55665 0.99265 0.88236 0.0
H847 H 0.55015 0.97126 0.21192 0.0
H848 H 0.5934 1.00711 0.91936 0.0
H849 H 0.53366 0.96401 0.29646 0.0
Zn850 Zn 0.68184 0.28166 0.21954 0.0
C851 C 0.69546 0.3544 0.06013 0.0
N852 N 0.69301 0.37556 0.13236 0.0
C853 C 0.68991 0.35393 0.20126 0.0
N854 N 0.69035 0.32038 0.17235 0.0
N855 N 0.69412 0.32076 0.08389 0.0
C856 C 0.69301 0.27477 0.82754 0.0
O857 O 0.686 0.25694 0.87308 0.0
O858 O 0.68059 0.28284 0.36626 0.0
Zn859 Zn 0.7011 0.28141 0.02041 0.0
N860 N 0.66881 0.28459 0.1467 0.0
C861 C 0.66345 0.28509 0.98316 0.0
C862 C 0.67115 0.28383 0.05182 0.0
C863 C 0.65879 0.28592 0.17588 0.0
N864 N 0.65356 0.28633 0.01151 0.0
C865 C 0.65091 0.28662 0.10563 0.0
O866 O 0.69622 0.23218 0.05397 0.0
C867 C 0.69173 0.21623 0.12213 0.0
O868 O 0.68706 0.23254 0.18871 0.0
H869 H 0.67903 0.28208 0.02969 0.0
H870 H 0.65695 0.28597 0.25149 0.0
C871 C 0.7242 0.27698 0.02273 0.0
C872 C 0.73347 0.27505 0.07524 0.0
C873 C 0.72417 0.28197 0.21976 0.0
C874 C 0.71506 0.2833 0.16832 0.0
N875 N 0.71517 0.28128 0.0711 0.0
N876 N 0.73313 0.27772 0.17229 0.0
H877 H 0.72418 0.27436 0.94553 0.0
C878 C 0.68874 0.28864 0.41413 0.0
O879 O 0.6972 0.29585 0.36748 0.0
O880 O 0.7005 0.28759 0.87427 0.0
H881 H 0.70787 0.28527 0.20589 0.0
H882 H 0.66533 0.28474 0.90766 0.0
H883 H 0.72411 0.28371 0.29713 0.0
Zn884 Zn 0.55711 0.28057 0.22991 0.0
C885 C 0.56802 0.35349 0.04871 0.0
N886 N 0.56495 0.37502 0.11801 0.0
C887 C 0.56249 0.35371 0.18985 0.0
N888 N 0.5638 0.32012 0.16533 0.0
N889 N 0.56758 0.31986 0.07692 0.0
C890 C 0.56935 0.28346 0.83681 0.0
O891 O 0.56071 0.28286 0.88483 0.0
O892 O 0.55795 0.287 0.37587 0.0
Zn893 Zn 0.57609 0.28117 0.02987 0.0
N894 N 0.54298 0.27991 0.1814 0.0
C895 C 0.53394 0.27757 0.03311 0.0
C896 C 0.54306 0.27972 0.08407 0.0
C897 C 0.53396 0.27701 0.23065 0.0
N898 N 0.52499 0.27472 0.0814 0.0
C899 C 0.52467 0.27423 0.17873 0.0
O900 O 0.57063 0.23192 0.0569 0.0
C901 C 0.56619 0.21551 0.12464 0.0
O902 O 0.56201 0.23137 0.19482 0.0
H903 H 0.55027 0.2805 0.04634 0.0
H904 H 0.534 0.27614 0.30815 0.0
C905 C 0.59899 0.28541 0.07866 0.0
C906 C 0.60673 0.28486 0.15018 0.0
C907 C 0.59397 0.27994 0.27001 0.0
C908 C 0.58641 0.27998 0.19999 0.0
N909 N 0.58892 0.28299 0.10584 0.0
N910 N 0.60391 0.28223 0.2436 0.0
H911 H 0.60096 0.28721 1.00353 0.0
C912 C 0.56492 0.27158 0.42346 0.0
O913 O 0.57126 0.25071 0.37913 0.0
O914 O 0.57775 0.28397 0.88362 0.0
H915 H 0.57848 0.27758 0.22054 0.0
H916 H 0.53399 0.27754 0.9556 0.0
H917 H 0.59197 0.27777 0.34496 0.0
Zn918 Zn 0.68288 0.99793 0.04036 0.0
C919 C 0.69613 0.92605 0.20586 0.0
N920 N 0.69385 0.90466 0.13376 0.0
C921 C 0.69081 0.92604 0.06398 0.0
N922 N 0.69106 0.95959 0.09271 0.0
N923 N 0.69466 0.95964 0.18175 0.0
C924 C 0.69363 0.98876 0.43348 0.0
O925 O 0.68548 0.97934 0.38549 0.0
O926 O 0.68171 0.99091 0.89557 0.0
Zn927 Zn 0.70175 0.99981 0.23999 0.0
N928 N 0.66993 0.99809 0.11388 0.0
C929 C 0.66481 1.00448 0.27708 0.0
C930 C 0.67241 1.00259 0.20759 0.0
C931 C 0.65988 0.99654 0.08618 0.0
N932 N 0.65488 1.00271 0.25032 0.0
C933 C 0.65211 0.99896 0.15711 0.0
O934 O 0.69666 0.04868 0.20207 0.0
C935 C 0.69245 0.06417 0.13137 0.0
O936 O 0.68821 0.0474 0.06325 0.0
H937 H 0.68033 1.00537 0.22774 0.0
H938 H 0.65794 0.99406 0.01111 0.0
C939 C 0.72477 1.00322 0.23298 0.0
C940 C 0.734 1.00335 0.17966 0.0
C941 C 0.72451 0.99498 0.03682 0.0
C942 C 0.71545 0.99534 0.08904 0.0
N943 N 0.71567 0.99892 0.18596 0.0
N944 N 0.73355 0.99905 0.08309 0.0
H945 H 0.72485 1.00684 0.30986 0.0
C946 C 0.68933 1.00177 0.84688 0.0
O947 O 0.69687 0.0174 0.8915 0.0
O948 O 0.70169 0.99741 0.38772 0.0
H949 H 0.70821 0.99311 0.05217 0.0
H950 H 0.66676 1.00798 0.35173 0.0
H951 H 0.72437 0.99187 0.95979 0.0
Zn952 Zn 0.43225 0.03158 0.7947 0.0
C953 C 0.44511 0.104 0.96008 0.0
N954 N 0.44224 0.12529 0.88969 0.0
C955 C 0.43951 0.10376 0.81923 0.0
N956 N 0.44046 0.07014 0.84631 0.0
N957 N 0.44427 0.07031 0.93468 0.0
C958 C 0.44338 0.03829 0.18743 0.0
O959 O 0.43497 0.04476 0.13967 0.0
O960 O 0.43136 0.03744 0.64907 0.0
Zn961 Zn 0.452 0.03125 0.99306 0.0
N962 N 0.4191 0.03227 0.86536 0.0
C963 C 0.41369 0.02563 0.0276 0.0
C964 C 0.4214 0.02681 0.95901 0.0
C965 C 0.40909 0.03528 0.83659 0.0
N966 N 0.40382 0.02888 0.99986 0.0
C967 C 0.4012 0.0335 0.90652 0.0
O968 O 0.44767 0.9823 0.95067 0.0
C969 C 0.44276 0.96598 0.88567 0.0
O970 O 0.43752 0.98221 0.82266 0.0
H971 H 0.42927 0.02305 0.97974 0.0
H972 H 0.40728 0.0384 0.76142 0.0
C973 C 0.47499 0.02858 0.9932 0.0
C974 C 0.48445 0.02929 0.94349 0.0
C975 C 0.47562 0.04255 0.79973 0.0
C976 C 0.46632 0.04093 0.8481 0.0
N977 N 0.46611 0.0346 0.94388 0.0
N978 N 0.48443 0.0365 0.84818 0.0
H979 H 0.47471 0.0224 0.06876 0.0
C980 C 0.43936 0.02861 0.60252 0.0
O981 O 0.44721 0.016 0.64981 0.0
O982 O 0.45165 0.03262 0.14127 0.0
H983 H 0.45925 0.0441 0.80899 0.0
H984 H 0.41552 0.0215 0.10231 0.0
H985 H 0.47583 0.04785 0.72365 0.0
Zn986 Zn 0.32664 0.74934 0.77925 0.0
C987 C 0.31411 0.67217 0.93988 0.0
N988 N 0.3178 0.65086 0.87276 0.0
C989 C 0.32164 0.6716 0.80458 0.0
N990 N 0.32007 0.7058 0.82872 0.0
N991 N 0.31521 0.7057 0.91334 0.0
C992 C 0.31467 0.73733 0.17387 0.0
O993 O 0.32341 0.73033 0.13181 0.0
O994 O 0.32583 0.75225 0.63106 0.0
Zn995 Zn 0.30693 0.74407 0.97379 0.0
N996 N 0.33997 0.75143 0.84901 0.0
C997 C 0.34493 0.75511 0.01344 0.0
C998 C 0.3374 0.75386 0.94323 0.0
C999 C 0.35008 0.75051 0.82218 0.0
N1000 N 0.35489 0.75374 0.98742 0.0
C1001 C 0.35777 0.75137 0.89412 0.0
O1002 O 0.31069 0.79482 0.94399 0.0
C1003 C 0.31546 0.81201 0.88022 0.0
O1004 O 0.32074 0.79669 0.81639 0.0
H1005 H 0.32944 0.75502 0.96366 0.0
H1006 H 0.35213 0.74889 0.74721 0.0
C1007 C 0.28404 0.74746 0.96875 0.0
C1008 C 0.27458 0.74417 0.91999 0.0
C1009 C 0.28341 0.72415 0.78237 0.0
C1010 C 0.29271 0.72764 0.83009 0.0
N1011 N 0.29293 0.73908 0.92223 0.0
N1012 N 0.2746 0.7325 0.82814 0.0
H1013 H 0.2843 0.75685 0.04175 0.0
C1014 C 0.31712 0.75312 0.58958 0.0
O1015 O 0.3088 0.75484 0.64223 0.0
O1016 O 0.30674 0.74217 0.12222 0.0
H1017 H 0.29975 0.72147 0.79337 0.0
H1018 H 0.34288 0.75713 0.08833 0.0
H1019 H 0.2832 0.71504 0.70911 0.0
Zn1020 Zn 0.43275 0.74739 0.9721 0.0
C1021 C 0.44541 0.67518 0.80553 0.0
N1022 N 0.4426 0.65368 0.87571 0.0
C1023 C 0.43998 0.67505 0.94691 0.0
N1024 N 0.44092 0.70875 0.9205 0.0
N1025 N 0.44462 0.70879 0.83178 0.0
C1026 C 0.44369 0.74052 0.57921 0.0
O1027 O 0.43531 0.73352 0.62692 0.0
O1028 O 0.43168 0.74111 0.11737 0.0
Zn1029 Zn 0.45228 0.74794 0.77364 0.0
N1030 N 0.41975 0.74786 0.89921 0.0
C1031 C 0.41467 0.75832 0.73755 0.0
C1032 C 0.42225 0.75489 0.80676 0.0
C1033 C 0.40969 0.74492 0.926 0.0
N1034 N 0.40473 0.75541 0.76345 0.0
C1035 C 0.40193 0.74891 0.85542 0.0
O1036 O 0.44793 0.79694 0.81607 0.0
C1037 C 0.44315 0.81313 0.8823 0.0
O1038 O 0.4381 0.79676 0.94626 0.0
H1039 H 0.43018 0.75834 0.78746 0.0
H1040 H 0.40773 0.74041 1.00028 0.0
C1041 C 0.47523 0.75077 0.77303 0.0
C1042 C 0.48472 0.74966 0.82202 0.0
C1043 C 0.47601 0.73543 0.96564 0.0
C1044 C 0.46667 0.73738 0.91798 0.0
N1045 N 0.46639 0.74443 0.82259 0.0
N1046 N 0.48478 0.74182 0.91694 0.0
H1047 H 0.47489 0.75746 0.69781 0.0
C1048 C 0.43959 0.75051 0.16429 0.0
O1049 O 0.44736 0.76381 0.11738 0.0
O1050 O 0.45192 0.74664 0.62543 0.0
H1051 H 0.45964 0.73386 0.95739 0.0
H1052 H 0.41665 0.7639 0.66392 0.0
H1053 H 0.47628 0.72959 0.0414 0.0
Zn1054 Zn 0.30698 0.02957 0.77174 0.0
C1055 C 0.31893 0.10251 0.94655 0.0
N1056 N 0.31626 0.12408 0.87608 0.0
C1057 C 0.31356 0.10277 0.80493 0.0
N1058 N 0.31445 0.06907 0.83028 0.0
N1059 N 0.31808 0.0689 0.91923 0.0
C1060 C 0.31955 0.02564 0.16431 0.0
O1061 O 0.3121 1.00971 0.11923 0.0
O1062 O 0.30713 0.03153 0.62392 0.0
Zn1063 Zn 0.32611 0.03017 0.97112 0.0
N1064 N 0.29301 0.03188 0.8242 0.0
C1065 C 0.28388 0.0384 0.97112 0.0
C1066 C 0.29305 0.037 0.92061 0.0
C1067 C 0.284 0.0268 0.7763 0.0
N1068 N 0.27493 0.03357 0.92392 0.0
C1069 C 0.27467 0.0276 0.82797 0.0
O1070 O 0.32058 0.98079 0.9461 0.0
C1071 C 0.3159 0.96441 0.87967 0.0
O1072 O 0.31157 0.98035 0.81044 0.0
H1073 H 0.30022 0.03955 0.95849 0.0
H1074 H 0.28407 0.02173 0.70004 0.0
C1075 C 0.34919 0.03384 0.92796 0.0
C1076 C 0.35708 0.0323 0.8579 0.0
C1077 C 0.34459 0.024 0.73702 0.0
C1078 C 0.33689 0.02503 0.80568 0.0
N1079 N 0.3392 0.03046 0.89939 0.0
N1080 N 0.35446 0.02754 0.76462 0.0
H1081 H 0.351 0.03719 1.00305 0.0
C1082 C 0.31529 0.03895 0.57801 0.0
O1083 O 0.32354 0.04731 0.62602 0.0
O1084 O 0.32714 0.03693 0.11605 0.0
H1085 H 0.32902 0.02121 0.78479 0.0
H1086 H 0.28388 0.04277 0.0477 0.0
H1087 H 0.34276 0.01986 0.66231 0.0
C1088 C 0.07631 0.65934 0.13111 0.0
C1089 C 0.06695 0.67814 0.12634 0.0
C1090 C 0.05747 0.62286 0.12964 0.0
C1091 C 0.06684 0.60408 0.1262 0.0
N1092 N 0.08518 0.60482 0.10695 0.0
N1093 N 0.04864 0.67744 0.10493 0.0
C1094 C 0.07626 0.62247 0.12251 0.0
C1095 C 0.05753 0.65975 0.12133 0.0
N1096 N 0.08526 0.67659 0.14781 0.0
N1097 N 0.04849 0.60556 0.14462 0.0
H1098 H 0.04836 0.70422 0.09755 0.0
H1099 H 0.04168 0.66548 0.09009 0.0
H1100 H 0.04812 0.5788 0.15183 0.0
H1101 H 0.04155 0.61782 0.15839 0.0
H1102 H 0.09217 0.66426 0.16285 0.0
H1103 H 0.08565 0.70334 0.15517 0.0
H1104 H 0.09215 0.61684 0.0928 0.0
H1105 H 0.08548 0.57805 0.09956 0.0
C1106 C 0.20138 0.62101 0.13209 0.0
C1107 C 0.19198 0.60252 0.13942 0.0
C1108 C 0.18265 0.65816 0.13416 0.0
C1109 C 0.19206 0.67671 0.13575 0.0
N1110 N 0.21042 0.67533 0.15295 0.0
N1111 N 0.17373 0.6042 0.16444 0.0
C1112 C 0.20144 0.65795 0.13917 0.0
C1113 C 0.18263 0.62134 0.14496 0.0
N1114 N 0.21026 0.60337 0.11438 0.0
N1115 N 0.17369 0.67555 0.11829 0.0
H1116 H 0.17338 0.57753 0.17396 0.0
H1117 H 0.16685 0.61665 0.17994 0.0
H1118 H 0.17335 0.70222 0.10881 0.0
H1119 H 0.16673 0.6633 0.10567 0.0
H1120 H 0.21716 0.6154 0.09791 0.0
H1121 H 0.21055 0.5766 0.10722 0.0
H1122 H 0.21738 0.6631 0.16661 0.0
H1123 H 0.21081 0.70211 0.15961 0.0
C1124 C 0.93242 0.37208 0.87776 0.0
C1125 C 0.94181 0.35332 0.87941 0.0
C1126 C 0.95122 0.40877 0.87555 0.0
C1127 C 0.94185 0.42744 0.88239 0.0
N1128 N 0.92358 0.42632 0.90676 0.0
N1129 N 0.96018 0.35415 0.89539 0.0
C1130 C 0.93246 0.40889 0.88791 0.0
C1131 C 0.95122 0.37181 0.88233 0.0
N1132 N 0.92344 0.35486 0.8625 0.0
N1133 N 0.96013 0.42629 0.85894 0.0
H1134 H 0.96051 0.32733 0.90147 0.0
H1135 H 0.96717 0.36611 0.90867 0.0
H1136 H 0.96045 0.4531 0.85288 0.0
H1137 H 0.96704 0.41421 0.84278 0.0
H1138 H 0.91649 0.36723 0.84967 0.0
H1139 H 0.92305 0.32817 0.85387 0.0
H1140 H 0.91668 0.41412 0.92247 0.0
H1141 H 0.92326 0.45305 0.91537 0.0
C1142 C 0.80676 0.40715 0.88803 0.0
C1143 C 0.81619 0.42552 0.88288 0.0
C1144 C 0.82548 0.36985 0.88726 0.0
C1145 C 0.81606 0.35142 0.88378 0.0
N1146 N 0.79771 0.35288 0.86553 0.0
N1147 N 0.83449 0.42384 0.8607 0.0
C1148 C 0.80669 0.37022 0.88018 0.0
C1149 C 0.82554 0.40668 0.87806 0.0
N1150 N 0.79787 0.4249 0.90407 0.0
N1151 N 0.8344 0.35229 0.90333 0.0
H1152 H 0.83488 0.45057 0.85281 0.0
H1153 H 0.84138 0.41143 0.84547 0.0
H1154 H 0.83472 0.32557 0.91129 0.0
H1155 H 0.84136 0.36439 0.91752 0.0
H1156 H 0.79091 0.413 0.91895 0.0
H1157 H 0.7976 0.4517 0.91099 0.0
H1158 H 0.79077 0.36512 0.85171 0.0
H1159 H 0.79733 0.3261 0.85871 0.0
C1160 C 0.05658 0.15929 0.63767 0.0
C1161 C 0.06591 0.17823 0.64163 0.0
C1162 C 0.07551 0.12316 0.63438 0.0
C1163 C 0.06619 0.10414 0.63853 0.0
N1164 N 0.04788 0.10441 0.66054 0.0
N1165 N 0.08424 0.17765 0.66151 0.0
C1166 C 0.05673 0.12234 0.64456 0.0
C1167 C 0.07537 0.15996 0.64479 0.0
N1168 N 0.04756 0.1765 0.62349 0.0
N1169 N 0.08449 0.10624 0.61634 0.0
H1170 H 0.08448 0.20436 0.6706 0.0
H1171 H 0.09123 0.16564 0.67523 0.0
H1172 H 0.08494 0.07956 0.60719 0.0
H1173 H 0.09135 0.11884 0.60173 0.0
H1174 H 0.04065 0.16417 0.60932 0.0
H1175 H 0.04712 0.20329 0.61745 0.0
H1176 H 0.04091 0.11618 0.67598 0.0
H1177 H 0.04767 0.07759 0.66701 0.0
C1178 C 0.20198 0.12225 0.62597 0.0
C1179 C 0.19253 0.10387 0.62347 0.0
C1180 C 0.18342 0.15961 0.60788 0.0
C1181 C 0.19274 0.1781 0.62112 0.0
N1182 N 0.21077 0.17639 0.65776 0.0
N1183 N 0.17409 0.1061 0.63074 0.0
C1184 C 0.202 0.1592 0.63402 0.0
C1185 C 0.18321 0.12288 0.61939 0.0
N1186 N 0.21099 0.10453 0.61686 0.0
N1187 N 0.17479 0.17691 0.58 0.0
H1188 H 0.17355 0.07953 0.64145 0.0
H1189 H 0.16713 0.11891 0.63908 0.0
H1190 H 0.17464 0.20345 0.56768 0.0
H1191 H 0.16807 0.16451 0.55936 0.0
H1192 H 0.21805 0.11653 0.60795 0.0
H1193 H 0.21132 0.07778 0.60899 0.0
H1194 H 0.21749 0.16397 0.67835 0.0
H1195 H 0.21109 0.20315 0.66536 0.0
C1196 C 0.95114 0.90837 0.37522 0.0
C1197 C 0.94174 0.92698 0.37972 0.0
C1198 C 0.93236 0.87149 0.37507 0.0
C1199 C 0.94176 0.85286 0.3789 0.0
N1200 N 0.96008 0.85398 0.39911 0.0
N1201 N 0.92342 0.92582 0.40055 0.0
C1202 C 0.95115 0.87147 0.38333 0.0
C1203 C 0.93236 0.90837 0.38403 0.0
N1204 N 0.96007 0.92585 0.35943 0.0
N1205 N 0.92343 0.85407 0.35898 0.0
H1206 H 0.92309 0.95257 0.40835 0.0
H1207 H 0.91649 0.91364 0.41511 0.0
H1208 H 0.92309 0.82731 0.35128 0.0
H1209 H 0.91648 0.86627 0.34475 0.0
H1210 H 0.96701 0.91371 0.34484 0.0
H1211 H 0.9604 0.95262 0.35231 0.0
H1212 H 0.96703 0.8661 0.41356 0.0
H1213 H 0.96042 0.82722 0.40648 0.0
C1214 C 0.80771 0.87015 0.37253 0.0
C1215 C 0.8171 0.8515 0.37695 0.0
C1216 C 0.8265 0.90694 0.37372 0.0
C1217 C 0.81711 0.92558 0.37806 0.0
N1218 N 0.79877 0.92453 0.39707 0.0
N1219 N 0.83542 0.85256 0.39788 0.0
C1220 C 0.80771 0.90702 0.38149 0.0
C1221 C 0.82649 0.87006 0.38172 0.0
N1222 N 0.79878 0.85272 0.35608 0.0
N1223 N 0.83544 0.92439 0.3581 0.0
H1224 H 0.83577 0.8258 0.40472 0.0
H1225 H 0.84235 0.86469 0.41297 0.0
H1226 H 0.83579 0.95117 0.35119 0.0
H1227 H 0.84238 0.91221 0.34343 0.0
H1228 H 0.79184 0.8649 0.34162 0.0
H1229 H 0.79846 0.82597 0.34822 0.0
H1230 H 0.79181 0.91242 0.41081 0.0
H1231 H 0.79844 0.95127 0.40485 0.0
C1232 C 0.5749 0.65876 0.63931 0.0
C1233 C 0.56553 0.67742 0.6313 0.0
C1234 C 0.55622 0.62171 0.62958 0.0
C1235 C 0.56565 0.60322 0.62766 0.0
N1236 N 0.58405 0.60503 0.61293 0.0
N1237 N 0.5473 0.67621 0.605 0.0
C1238 C 0.57501 0.62204 0.62786 0.0
C1239 C 0.55619 0.65872 0.62298 0.0
N1240 N 0.5837 0.67595 0.66205 0.0
N1241 N 0.54726 0.604 0.64128 0.0
H1242 H 0.54695 0.70303 0.59929 0.0
H1243 H 0.54043 0.66409 0.58771 0.0
H1244 H 0.54695 0.57718 0.64726 0.0
H1245 H 0.54023 0.61594 0.65359 0.0
H1246 H 0.59053 0.66354 0.67931 0.0
H1247 H 0.58395 0.70251 0.67335 0.0
H1248 H 0.59098 0.61762 0.60129 0.0
H1249 H 0.5845 0.57842 0.60288 0.0
C1250 C 0.68236 0.62184 0.63748 0.0
C1251 C 0.6917 0.60287 0.6334 0.0
C1252 C 0.70126 0.65803 0.63417 0.0
C1253 C 0.69191 0.67694 0.62987 0.0
N1254 N 0.67357 0.67638 0.61126 0.0
N1255 N 0.71001 0.6032 0.61177 0.0
C1256 C 0.68246 0.65867 0.62728 0.0
C1257 C 0.70114 0.6211 0.62751 0.0
N1258 N 0.6734 0.60479 0.65492 0.0
N1259 N 0.71026 0.67528 0.64838 0.0
H1260 H 0.71026 0.57638 0.60567 0.0
H1261 H 0.71698 0.61498 0.59623 0.0
H1262 H 0.71067 0.70207 0.65435 0.0
H1263 H 0.71718 0.66299 0.66279 0.0
H1264 H 0.6665 0.61728 0.66934 0.0
H1265 H 0.67299 0.57808 0.66353 0.0
H1266 H 0.66657 0.6644 0.59796 0.0
H1267 H 0.6733 0.70311 0.60268 0.0
C1268 C 0.43242 0.37099 0.37424 0.0
C1269 C 0.44173 0.35204 0.38037 0.0
C1270 C 0.45133 0.40708 0.37662 0.0
C1271 C 0.442 0.42605 0.37878 0.0
N1272 N 0.42363 0.42573 0.39624 0.0
N1273 N 0.46003 0.35239 0.40323 0.0
C1274 C 0.43253 0.40787 0.38195 0.0
C1275 C 0.45119 0.37023 0.38574 0.0
N1276 N 0.42345 0.35385 0.35718 0.0
N1277 N 0.46036 0.42417 0.36216 0.0
H1278 H 0.46024 0.32563 0.41121 0.0
H1279 H 0.467 0.36422 0.41833 0.0
H1280 H 0.46079 0.45091 0.35445 0.0
H1281 H 0.46729 0.41173 0.34932 0.0
H1282 H 0.41659 0.36625 0.34118 0.0
H1283 H 0.42303 0.32707 0.35054 0.0
H1284 H 0.41663 0.4139 0.41004 0.0
H1285 H 0.42336 0.45252 0.40289 0.0
C1286 C 0.3248 0.37146 0.37 0.0
C1287 C 0.31548 0.35244 0.36906 0.0
C1288 C 0.30592 0.4078 0.37498 0.0
C1289 C 0.31524 0.42672 0.36789 0.0
N1290 N 0.33342 0.42565 0.33772 0.0
N1291 N 0.29709 0.35298 0.35414 0.0
C1292 C 0.32463 0.40823 0.35963 0.0
C1293 C 0.30601 0.3708 0.3671 0.0
N1294 N 0.33386 0.3546 0.38512 0.0
N1295 N 0.29699 0.42504 0.39305 0.0
H1296 H 0.29684 0.32619 0.34706 0.0
H1297 H 0.29006 0.36486 0.3418 0.0
H1298 H 0.2966 0.45183 0.3996 0.0
H1299 H 0.29013 0.41271 0.40957 0.0
H1300 H 0.34075 0.36731 0.39757 0.0
H1301 H 0.33435 0.32798 0.39458 0.0
H1302 H 0.34028 0.41342 0.3204 0.0
H1303 H 0.33362 0.45225 0.32704 0.0
C1304 C 0.57512 0.12063 0.11163 0.0
C1305 C 0.56571 0.1023 0.12019 0.0
C1306 C 0.55652 0.15827 0.12114 0.0
C1307 C 0.566 0.17647 0.12252 0.0
N1308 N 0.58438 0.17423 0.13629 0.0
N1309 N 0.54749 0.10416 0.14716 0.0
C1310 C 0.57531 0.1574 0.12226 0.0
C1311 C 0.55641 0.1213 0.12846 0.0
N1312 N 0.58388 0.10306 0.08927 0.0
N1313 N 0.54759 0.17622 0.10926 0.0
H1314 H 0.54708 0.07736 0.15336 0.0
H1315 H 0.54066 0.11655 0.16459 0.0
H1316 H 0.54734 0.20301 0.10269 0.0
H1317 H 0.54054 0.16446 0.09732 0.0
H1318 H 0.59075 0.11517 0.07184 0.0
H1319 H 0.58405 0.07646 0.07853 0.0
H1320 H 0.59131 0.16151 0.14772 0.0
H1321 H 0.58489 0.20088 0.14565 0.0
C1322 C 0.68281 0.12134 0.1301 0.0
C1323 C 0.69229 0.10317 0.12904 0.0
C1324 C 0.70141 0.15917 0.13143 0.0
C1325 C 0.69194 0.17723 0.12408 0.0
N1326 N 0.67368 0.17496 0.0998 0.0
N1327 N 0.71066 0.10502 0.11311 0.0
C1328 C 0.68265 0.15812 0.11903 0.0
C1329 C 0.70161 0.1222 0.12561 0.0
N1330 N 0.67392 0.1036 0.14562 0.0
N1331 N 0.71022 0.17726 0.14778 0.0
H1332 H 0.71113 0.0782 0.10802 0.0
H1333 H 0.71759 0.11735 0.09941 0.0
H1334 H 0.71041 0.2041 0.15327 0.0
H1335 H 0.71719 0.16564 0.16429 0.0
H1336 H 0.66689 0.11556 0.15796 0.0
H1337 H 0.67368 0.07692 0.15492 0.0
H1338 H 0.66684 0.1623 0.08458 0.0
H1339 H 0.67323 0.20163 0.09036 0.0
C1340 C 0.44216 0.8715 0.7964 0.0
C1341 C 0.44319 0.85234 0.88311 0.0
C1342 C 0.44233 0.90754 0.97164 0.0
C1343 C 0.44296 0.92676 0.8847 0.0
N1344 N 0.44623 0.92469 0.71416 0.0
N1345 N 0.44697 0.85459 0.05265 0.0
C1346 C 0.44367 0.90806 0.79696 0.0
C1347 C 0.44406 0.87108 0.97062 0.0
N1348 N 0.43923 0.85537 0.7138 0.0
N1349 N 0.43957 0.9235 0.05505 0.0
H1350 H 0.44905 0.82864 0.05415 0.0
H1351 H 0.44854 0.86771 0.1162 0.0
H1352 H 0.43743 0.94939 0.05849 0.0
H1353 H 0.43816 0.90996 0.11824 0.0
H1354 H 0.43753 0.86882 0.65109 0.0
H1355 H 0.43724 0.82935 0.71087 0.0
H1356 H 0.44768 0.91163 0.65024 0.0
H1357 H 0.44816 0.95075 0.71198 0.0
C1358 C 0.32485 0.8695 0.89076 0.0
C1359 C 0.31544 0.85112 0.88313 0.0
C1360 C 0.30623 0.90711 0.88408 0.0
C1361 C 0.3157 0.92534 0.8816 0.0
N1362 N 0.33407 0.92307 0.86478 0.0
N1363 N 0.29718 0.853 0.85851 0.0
C1364 C 0.32502 0.90626 0.88026 0.0
C1365 C 0.30612 0.87013 0.8763 0.0
N1366 N 0.33364 0.85199 0.91226 0.0
N1367 N 0.29732 0.92503 0.89741 0.0
H1368 H 0.29677 0.82622 0.85178 0.0
H1369 H 0.29032 0.86541 0.84226 0.0
H1370 H 0.29708 0.95183 0.90438 0.0
H1371 H 0.29029 0.91323 0.91017 0.0
H1372 H 0.34052 0.86416 0.92906 0.0
H1373 H 0.33385 0.8254 0.92309 0.0
H1374 H 0.34096 0.91031 0.85211 0.0
H1375 H 0.33456 0.9497 0.85532 0.0
C1376 C 0.9985 0.48779 0.97315 0.0
C1377 C 0.99393 0.52109 0.97789 0.0
C1378 C 0.0103 0.54568 0.03219 0.0
C1379 C 0.01467 0.51209 0.03344 0.0
N1380 N 0.01279 0.45058 0.01613 0.0
N1381 N 0.99495 0.58112 0.02135 0.0
C1382 C 0.00873 0.48296 0.00663 0.0
C1383 C 0.99969 0.54987 0.01032 0.0
N1384 N 0.9931 0.4609 0.93478 0.0
N1385 N 0.01639 0.57367 0.04976 0.0
H1386 H 0.98726 0.58514 0.00448 0.0
H1387 H 0.99834 0.60242 0.05373 0.0
H1388 H 0.02417 0.57147 0.06582 0.0
H1389 H 0.01403 0.59913 0.04112 0.0
H1390 H 0.99632 0.43704 0.91822 0.0
H1391 H 0.98543 0.46297 0.91458 0.0
H1392 H 0.00854 0.428 0.00896 0.0
H1393 H 0.02036 0.44618 0.0367 0.0
C1394 C 0.25839 0.72561 1.00289 0.0
C1395 C 0.2645 0.75264 0.96469 0.0
C1396 C 0.24998 0.793 0.98065 0.0
C1397 C 0.24408 0.76647 0.02397 0.0
N1398 N 0.24278 0.70843 0.08481 0.0
N1399 N 0.26666 0.81263 0.92481 0.0
C1400 C 0.24833 0.73299 0.03724 0.0
C1401 C 0.26043 0.78653 0.95572 0.0
N1402 N 0.26216 0.69264 1.00422 0.0
N1403 N 0.2455 0.82425 0.96234 0.0
H1404 H 0.27426 0.80865 0.90485 0.0
H1405 H 0.2646 0.83857 0.92489 0.0
H1406 H 0.23795 0.82988 0.98103 0.0
H1407 H 0.24895 0.84385 0.92295 0.0
H1408 H 0.25777 0.67098 0.01995 0.0
H1409 H 0.26966 0.68657 0.98468 0.0
H1410 H 0.24579 0.68498 0.10787 0.0
H1411 H 0.23518 0.71212 0.10567 0.0
C1412 C 0.00911 0.80019 0.2551 0.0
C1413 C 0.01492 0.77138 0.22331 0.0
C1414 C 1.00019 0.73314 0.25365 0.0
C1415 C 0.99421 0.76227 0.27987 0.0
N1416 N 0.99238 0.82387 0.29469 0.0
N1417 N 0.01585 0.71103 0.18206 0.0
C1418 C 0.99852 0.79592 0.27754 0.0
C1419 C 0.01041 0.738 0.21973 0.0
N1420 N 0.0138 0.83155 0.26497 0.0
N1421 N 0.99621 0.70073 0.26418 0.0
H1422 H 0.02351 0.71312 0.16169 0.0
H1423 H 0.01267 0.68707 0.16625 0.0
H1424 H 0.98865 0.69629 0.28503 0.0
H1425 H 1.00049 0.6782 0.25757 0.0
H1426 H 0.01037 0.85293 0.2968 0.0
H1427 H 0.02147 0.83563 0.24766 0.0
H1428 H 0.99468 0.84934 0.28536 0.0
H1429 H 0.98461 0.8216 0.31116 0.0
C1430 C 0.26036 0.49682 0.29796 0.0
C1431 C 0.26472 0.53019 0.28749 0.0
C1432 C 0.24845 0.55198 0.22231 0.0
C1433 C 0.24431 0.51815 0.22687 0.0
N1434 N 0.24653 0.45742 0.25781 0.0
N1435 N 0.26355 0.58858 0.22959 0.0
C1436 C 0.25032 0.49029 0.26182 0.0
C1437 C 0.25893 0.55752 0.24673 0.0
N1438 N 0.26572 0.47161 0.34479 0.0
N1439 N 0.24226 0.57893 0.19652 0.0
H1440 H 0.27118 0.59349 0.24716 0.0
H1441 H 0.26015 0.60861 0.19142 0.0
H1442 H 0.23458 0.57569 0.17801 0.0
H1443 H 0.24443 0.60472 0.20056 0.0
H1444 H 0.26258 0.44804 0.36509 0.0
H1445 H 0.27323 0.47499 0.36858 0.0
H1446 H 0.25091 0.43547 0.27114 0.0
H1447 H 0.2391 0.45183 0.23548 0.0
C1448 C 0.74948 0.29657 0.99406 0.0
C1449 C 0.74364 0.26854 0.03009 0.0
C1450 C 0.75867 0.23034 0.01621 0.0
C1451 C 0.76433 0.25781 0.97476 0.0
N1452 N 0.76498 0.31607 0.91449 0.0
N1453 N 0.74206 0.20789 0.06438 0.0
C1454 C 0.75968 0.29066 0.9609 0.0
C1455 C 0.74809 0.23517 0.03812 0.0
N1456 N 0.74539 0.32908 0.99472 0.0
N1457 N 0.76348 0.19973 0.03555 0.0
H1458 H 0.7343 0.21054 0.08038 0.0
H1459 H 0.74447 0.18228 0.063 0.0
H1460 H 0.77114 0.19511 0.01851 0.0
H1461 H 0.76017 0.17978 0.07462 0.0
H1462 H 0.74958 0.35132 0.98034 0.0
H1463 H 0.73785 0.33415 0.01518 0.0
H1464 H 0.7617 0.33908 0.89128 0.0
H1465 H 0.77265 0.31347 0.89455 0.0
C1466 C 0.99919 0.23055 0.75855 0.0
C1467 C 0.99325 0.25878 0.79205 0.0
C1468 C 0.00818 0.29721 0.77645 0.0
C1469 C 0.01392 0.2695 0.73701 0.0
N1470 N 0.01483 0.21056 0.6822 0.0
N1471 N 0.99152 0.31958 0.82397 0.0
C1472 C 0.0094 0.23635 0.72586 0.0
C1473 C 0.99761 0.2923 0.79867 0.0
N1474 N 0.99516 0.19799 0.76075 0.0
N1475 N 0.0129 0.32813 0.79336 0.0
H1476 H 0.98378 0.31684 0.84079 0.0
H1477 H 0.99384 0.34524 0.82156 0.0
H1478 H 0.02054 0.33275 0.77603 0.0
H1479 H 0.00953 0.34845 0.83065 0.0
H1480 H 0.9994 0.17568 0.74831 0.0
H1481 H 0.98759 0.19298 0.78045 0.0
H1482 H 0.01165 0.1872 0.66063 0.0
H1483 H 0.02252 0.2131 0.6631 0.0
C1484 C 0.74944 0.48201 0.76445 0.0
C1485 C 0.74371 0.51075 0.73108 0.0
C1486 C 0.75888 0.54803 0.74895 0.0
C1487 C 0.76442 0.51979 0.78784 0.0
N1488 N 0.76485 0.46075 0.84226 0.0
N1489 N 0.74236 0.57187 0.70264 0.0
C1490 C 0.75965 0.48701 0.79835 0.0
C1491 C 0.74828 0.54399 0.72635 0.0
N1492 N 0.74523 0.44973 0.76049 0.0
N1493 N 0.76379 0.57864 0.73277 0.0
H1494 H 0.73459 0.5698 0.68626 0.0
H1495 H 0.74486 0.59733 0.70651 0.0
H1496 H 0.77145 0.5827 0.75057 0.0
H1497 H 0.76058 0.59922 0.69552 0.0
H1498 H 0.74934 0.42712 0.77274 0.0
H1499 H 0.73769 0.44527 0.73936 0.0
H1500 H 0.76147 0.43763 0.86318 0.0
H1501 H 0.77252 0.4627 0.86245 0.0
C1502 C 0.99978 0.04815 0.50786 0.0
C1503 C 0.99384 0.01954 0.477 0.0
C1504 C 0.00877 0.98129 0.49706 0.0
C1505 C 0.01452 1.00945 0.53361 0.0
N1506 N 0.01534 0.06887 0.58414 0.0
N1507 N 0.9921 0.95829 0.45301 0.0
C1508 C 0.00997 0.04268 0.54184 0.0
C1509 C 0.99819 0.98592 0.47465 0.0
N1510 N 0.99577 0.0807 0.50184 0.0
N1511 N 0.01351 0.95022 0.48249 0.0
H1512 H 0.98434 0.96082 0.43637 0.0
H1513 H 0.99443 0.9327 0.45881 0.0
H1514 H 0.02119 0.94591 0.49929 0.0
H1515 H 0.01014 0.92949 0.44722 0.0
H1516 H 1.00003 0.10309 0.51208 0.0
H1517 H 0.98822 0.0855 0.48113 0.0
H1518 H 0.01212 0.09249 0.60314 0.0
H1519 H 0.02297 0.06636 0.60514 0.0
C1520 C 0.25834 0.2337 0.5 0.0
C1521 C 0.26446 0.25866 0.45236 0.0
C1522 C 0.24972 0.29817 0.44543 0.0
C1523 C 0.24386 0.27453 0.50026 0.0
N1524 N 0.24275 0.22133 0.58889 0.0
N1525 N 0.26653 0.31636 0.391 0.0
C1526 C 0.24821 0.24261 0.52981 0.0
C1527 C 0.26028 0.29138 0.42814 0.0
N1528 N 0.26214 0.20122 0.51452 0.0
N1529 N 0.24509 0.32692 0.40852 0.0
H1530 H 0.2743 0.31236 0.37785 0.0
H1531 H 0.26427 0.34187 0.38092 0.0
H1532 H 0.23737 0.33252 0.41968 0.0
H1533 H 0.2486 0.34357 0.36008 0.0
H1534 H 0.25773 0.18064 0.53891 0.0
H1535 H 0.26962 0.19425 0.49664 0.0
H1536 H 0.24586 0.19971 0.62238 0.0
H1537 H 0.23519 0.22637 0.60869 0.0
C1538 C 0.25875 0.04847 0.74461 0.0
C1539 C 0.26451 0.02066 0.78321 0.0
C1540 C 0.24986 0.98158 0.759 0.0
C1541 C 0.24392 1.00984 0.72579 0.0
N1542 N 0.2421 0.07078 0.69673 0.0
N1543 N 0.26543 0.9616 0.83682 0.0
C1544 C 0.24821 0.04349 0.72134 0.0
C1545 C 0.26002 0.98742 0.79304 0.0
N1546 N 0.26344 0.07952 0.72904 0.0
N1547 N 0.24588 0.94896 0.7553 0.0
H1548 H 0.27306 0.96429 0.85762 0.0
H1549 H 0.26225 0.93808 0.8571 0.0
H1550 H 0.23834 0.94392 0.73488 0.0
H1551 H 0.25015 0.92668 0.76732 0.0
H1552 H 0.26007 0.09998 0.69246 0.0
H1553 H 0.27108 0.08413 0.74673 0.0
H1554 H 0.24437 0.09647 0.70073 0.0
H1555 H 0.23438 0.06796 0.67898 0.0
C1556 C 0.76022 0.79061 0.46057 0.0
C1557 C 0.76503 0.75785 0.47083 0.0
C1558 C 0.74894 0.73353 0.53255 0.0
C1559 C 0.74434 0.76677 0.52836 0.0
N1560 N 0.74581 0.82784 0.49948 0.0
N1561 N 0.76447 0.69894 0.52552 0.0
C1562 C 0.75003 0.79556 0.49496 0.0
C1563 C 0.75953 0.72955 0.50967 0.0
N1564 N 0.76538 0.81691 0.41649 0.0
N1565 N 0.74304 0.7056 0.55595 0.0
H1566 H 0.77213 0.6949 0.50743 0.0
H1567 H 0.76128 0.67834 0.5628 0.0
H1568 H 0.73527 0.70762 0.57237 0.0
H1569 H 0.74556 0.68016 0.55166 0.0
H1570 H 0.76196 0.84001 0.39577 0.0
H1571 H 0.77304 0.81499 0.39591 0.0
H1572 H 0.74989 0.85046 0.4872 0.0
H1573 H 0.73828 0.83228 0.52119 0.0
C1574 C 0.75001 0.98 0.25565 0.0
C1575 C 0.74426 1.0089 0.22372 0.0
C1576 C 0.75907 0.04681 0.25302 0.0
C1577 C 0.76499 0.01758 0.27952 0.0
N1578 N 0.76671 0.95595 0.29457 0.0
N1579 N 0.74346 0.06915 0.18131 0.0
C1580 C 0.76061 0.98403 0.27757 0.0
C1581 C 0.74884 0.04215 0.21939 0.0
N1582 N 0.74526 0.94878 0.26622 0.0
N1583 N 0.76313 0.07914 0.26304 0.0
H1584 H 0.73579 0.06719 0.16095 0.0
H1585 H 0.74668 0.093 0.1651 0.0
H1586 H 0.7707 0.08342 0.28374 0.0
H1587 H 0.7589 0.10177 0.25613 0.0
H1588 H 0.74865 0.9274 0.29829 0.0
H1589 H 0.73757 0.94485 0.24931 0.0
H1590 H 0.76434 0.93053 0.28542 0.0
H1591 H 0.77449 0.95804 0.31058 0.0
C1592 C 0.50901 0.48037 0.4843 0.0
C1593 C 0.51453 0.50786 0.52728 0.0
C1594 C 0.49964 0.5463 0.50676 0.0
C1595 C 0.49392 0.51821 0.46941 0.0
N1596 N 0.49254 0.45764 0.43304 0.0
N1597 N 0.51498 0.56602 0.58866 0.0
C1598 C 0.49846 0.48499 0.46096 0.0
C1599 C 0.5098 0.54057 0.5411 0.0
N1600 N 0.51392 0.44994 0.46497 0.0
N1601 N 0.49547 0.57871 0.50636 0.0
H1602 H 0.52262 0.56357 0.6095 0.0
H1603 H 0.51161 0.5889 0.61188 0.0
H1604 H 0.48796 0.58365 0.48496 0.0
H1605 H 0.49958 0.60102 0.5218 0.0
H1606 H 0.51073 0.43001 0.42494 0.0
H1607 H 0.52156 0.44546 0.48307 0.0
H1608 H 0.495 0.43209 0.43406 0.0
H1609 H 0.4848 0.46014 0.41578 0.0
C1610 C 0.49849 0.79278 0.78506 0.0
C1611 C 0.49467 0.75861 0.77598 0.0
C1612 C 0.51092 0.74038 0.70186 0.0
C1613 C 0.51496 0.77401 0.71675 0.0
N1614 N 0.51323 0.83113 0.78274 0.0
N1615 N 0.49744 0.69886 0.73602 0.0
C1616 C 0.50891 0.79991 0.76129 0.0
C1617 C 0.50094 0.73211 0.73706 0.0
N1618 N 0.49207 0.81854 0.81487 0.0
N1619 N 0.51653 0.71662 0.65181 0.0
H1620 H 0.49004 0.69218 0.75708 0.0
H1621 H 0.502 0.67762 0.71938 0.0
H1622 H 0.52399 0.72128 0.62861 0.0
H1623 H 0.51364 0.69304 0.62853 0.0
H1624 H 0.49398 0.84461 0.81399 0.0
H1625 H 0.48445 0.81417 0.83368 0.0
H1626 H 0.50965 0.85004 0.82382 0.0
H1627 H 0.52079 0.83721 0.76579 0.0
C1628 C 0.49945 0.23182 0.24814 0.0
C1629 C 0.4938 0.26061 0.28237 0.0
C1630 C 0.50866 0.29842 0.25383 0.0
C1631 C 0.51449 0.26927 0.22507 0.0
N1632 N 0.51605 0.20777 0.20529 0.0
N1633 N 0.49311 0.3207 0.32698 0.0
C1634 C 0.51004 0.23582 0.22505 0.0
C1635 C 0.49845 0.29375 0.28778 0.0
N1636 N 0.49465 0.20072 0.23697 0.0
N1637 N 0.51279 0.33072 0.24555 0.0
H1638 H 0.48542 0.31891 0.34661 0.0
H1639 H 0.49639 0.34435 0.34445 0.0
H1640 H 0.52035 0.33498 0.2246 0.0
H1641 H 0.50862 0.35342 0.25419 0.0
H1642 H 0.49795 0.17948 0.20327 0.0
H1643 H 0.487 0.19673 0.2554 0.0
H1644 H 0.51365 0.18231 0.21265 0.0
H1645 H 0.52381 0.20983 0.1885 0.0
C1646 C 0.49811 0.98613 0.98506 0.0
C1647 C 0.49446 0.02066 0.98922 0.0
C1648 C 0.51099 0.03945 0.05636 0.0
C1649 C 0.51485 1.00533 0.0461 0.0
N1650 N 0.51268 0.94702 0.99017 0.0
N1651 N 0.4976 0.08098 0.01862 0.0
C1652 C 0.50855 0.97889 0.00753 0.0
C1653 C 0.50096 0.04755 0.02217 0.0
N1654 N 0.4915 0.96017 0.96091 0.0
N1655 N 0.51682 0.06388 0.10128 0.0
H1656 H 0.49016 0.08764 0.99857 0.0
H1657 H 0.5023 0.10224 0.0305 0.0
H1658 H 0.52432 0.05925 0.12382 0.0
H1659 H 0.51409 0.08808 0.12126 0.0
H1660 H 0.4933 0.93406 0.9658 0.0
H1661 H 0.48387 0.96459 0.94281 0.0
H1662 H 0.50891 0.92747 0.95327 0.0
H1663 H 0.52028 0.94088 0.00604 0.0
C1664 C 0.07771 0.37848 0.42334 0.0
C1665 C 0.06814 0.36824 0.46199 0.0
C1666 C 0.05923 0.40521 0.34606 0.0
C1667 C 0.06871 0.41365 0.3026 0.0
N1668 N 0.08692 0.40563 0.29152 0.0
N1669 N 0.04975 0.36687 0.4503 0.0
C1670 C 0.07796 0.39944 0.33884 0.0
C1671 C 0.0589 0.38012 0.41996 0.0
N1672 N 0.08651 0.36894 0.469 0.0
N1673 N 0.05048 0.42146 0.31657 0.0
H1674 H 0.04923 0.3485 0.5046 0.0
H1675 H 0.0428 0.37143 0.41612 0.0
H1676 H 0.05039 0.43955 0.2614 0.0
H1677 H 0.04349 0.4195 0.35202 0.0
H1678 H 0.09371 0.3784 0.45105 0.0
H1679 H 0.08649 0.35256 0.52836 0.0
H1680 H 0.09379 0.39326 0.30763 0.0
H1681 H 0.08734 0.42227 0.23281 0.0
C1682 C 0.19931 0.8989 0.42801 0.0
C1683 C 0.18982 0.912 0.46269 0.0
C1684 C 0.18069 0.87961 0.33662 0.0
C1685 C 0.1902 0.86694 0.30172 0.0
N1686 N 0.20865 0.86742 0.30632 0.0
N1687 N 0.17145 0.91244 0.45852 0.0
C1688 C 0.19951 0.87712 0.34617 0.0
C1689 C 0.18049 0.90181 0.41888 0.0
N1690 N 0.20818 0.90663 0.47563 0.0
N1691 N 0.17192 0.87138 0.28836 0.0
H1692 H 0.17117 0.92969 0.51592 0.0
H1693 H 0.16429 0.90363 0.4373 0.0
H1694 H 0.17188 0.85413 0.23089 0.0
H1695 H 0.16479 0.88211 0.30268 0.0
H1696 H 0.21509 0.89377 0.46505 0.0
H1697 H 0.2086 0.9252 0.52952 0.0
H1698 H 0.2157 0.87796 0.32495 0.0
H1699 H 0.20921 0.8497 0.25045 0.0
C1700 C 0.07838 0.90288 0.83891 0.0
C1701 C 0.06894 0.91245 0.79582 0.0
C1702 C 0.05957 0.87699 0.91295 0.0
C1703 C 0.06898 0.8676 0.95693 0.0
N1704 N 0.08723 0.87323 0.96915 0.0
N1705 N 0.0506 0.90601 0.78437 0.0
C1706 C 0.07838 0.88083 0.92137 0.0
C1707 C 0.05957 0.89877 0.83117 0.0
N1708 N 0.08732 0.91388 0.79833 0.0
N1709 N 0.05053 0.8666 0.95335 0.0
H1710 H 0.05003 0.92458 0.73065 0.0
H1711 H 0.04378 0.89278 0.79549 0.0
H1712 H 0.05014 0.84878 0.00909 0.0
H1713 H 0.04339 0.87656 0.93515 0.0
H1714 H 0.09455 0.9055 0.81912 0.0
H1715 H 0.08746 0.93092 0.74046 0.0
H1716 H 0.09428 0.88447 0.95442 0.0
H1717 H 0.08743 0.85599 0.02659 0.0
C1718 C 0.17906 0.39621 0.81126 0.0
C1719 C 0.18567 0.36714 0.79476 0.0
C1720 C 0.18946 0.36826 0.964 0.0
C1721 C 0.18659 0.4034 0.97203 0.0
N1722 N 0.17261 0.43905 0.92646 0.0
N1723 N 0.1982 0.32786 0.86437 0.0
C1724 C 0.17959 0.41471 0.90157 0.0
C1725 C 0.19116 0.35366 0.87352 0.0
N1726 N 0.17225 0.40535 0.74161 0.0
N1727 N 0.18907 0.3474 0.04205 0.0
H1728 H 0.19996 0.31574 0.80007 0.0
H1729 H 0.20273 0.32009 0.92214 0.0
H1730 H 0.18534 0.35526 0.1046 0.0
H1731 H 0.19121 0.32163 0.03936 0.0
H1732 H 0.1671 0.42564 0.7477 0.0
H1733 H 0.17148 0.39123 0.67829 0.0
H1734 H 0.16653 0.44682 0.88357 0.0
H1735 H 0.17247 0.44872 0.99592 0.0
C1736 C 0.93101 0.62485 0.6687 0.0
C1737 C 0.94044 0.61725 0.7145 0.0
C1738 C 0.9494 0.65622 0.60406 0.0
C1739 C 0.94013 0.66229 0.55409 0.0
N1740 N 0.92235 0.64881 0.52922 0.0
N1741 N 0.95886 0.61981 0.7137 0.0
C1742 C 0.93099 0.6454 0.58346 0.0
C1743 C 0.9497 0.63126 0.67826 0.0
N1744 N 0.92209 0.61374 0.70902 0.0
N1745 N 0.95801 0.67432 0.57993 0.0
H1746 H 0.95936 0.60097 0.7668 0.0
H1747 H 0.96593 0.62605 0.68399 0.0
H1748 H 0.95818 0.69206 0.52395 0.0
H1749 H 0.96471 0.67413 0.62033 0.0
H1750 H 0.91487 0.62143 0.68548 0.0
H1751 H 0.92197 0.59811 0.76986 0.0
H1752 H 0.91575 0.63433 0.54035 0.0
H1753 H 0.92199 0.66524 0.47002 0.0
C1754 C 0.82825 0.1334 0.5843 0.0
C1755 C 0.81919 0.11575 0.55652 0.0
C1756 C 0.80967 0.14566 0.68335 0.0
C1757 C 0.81889 0.16075 0.71726 0.0
N1758 N 0.83718 0.16605 0.70785 0.0
N1759 N 0.80147 0.10213 0.58559 0.0
C1760 C 0.82826 0.154 0.6695 0.0
C1761 C 0.80999 0.12089 0.6085 0.0
N1762 N 0.83681 0.1307 0.52848 0.0
N1763 N 0.80051 0.15594 0.72148 0.0
H1764 H 0.8013 0.08467 0.52893 0.0
H1765 H 0.79487 0.10153 0.62735 0.0
H1766 H 0.79996 0.17437 0.77563 0.0
H1767 H 0.79342 0.14902 0.69344 0.0
H1768 H 0.84332 0.14576 0.53828 0.0
H1769 H 0.83717 0.11423 0.46933 0.0
H1770 H 0.8444 0.15905 0.68288 0.0
H1771 H 0.83731 0.18177 0.76854 0.0
C1772 C 0.94833 0.14848 0.07717 0.0
C1773 C 0.93892 0.16266 0.04415 0.0
C1774 C 0.92975 0.13267 0.17403 0.0
C1775 C 0.93911 0.11757 0.20464 0.0
N1776 N 0.95748 0.11351 0.19322 0.0
N1777 N 0.92059 0.16604 0.05325 0.0
C1778 C 0.94843 0.12585 0.15735 0.0
C1779 C 0.9296 0.15442 0.09112 0.0
N1780 N 0.9572 0.1561 0.02929 0.0
N1781 N 0.92106 0.12673 0.22599 0.0
H1782 H 0.92035 0.18277 0.99472 0.0
H1783 H 0.9134 0.15817 0.07656 0.0
H1784 H 0.92087 0.10939 0.28324 0.0
H1785 H 0.91417 0.13964 0.21504 0.0
H1786 H 0.96412 0.14331 0.03904 0.0
H1787 H 0.95763 0.1751 0.97662 0.0
H1788 H 0.96469 0.12185 0.17198 0.0
H1789 H 0.95785 0.09537 0.24819 0.0
C1790 C 0.80995 0.65017 0.17066 0.0
C1791 C 0.81941 0.66069 0.21117 0.0
C1792 C 0.8286 0.6272 0.08737 0.0
C1793 C 0.81908 0.61615 0.04885 0.0
N1794 N 0.80048 0.61838 0.05555 0.0
N1795 N 0.83775 0.6567 0.21614 0.0
C1796 C 0.80979 0.62781 0.091 0.0
C1797 C 0.82876 0.64859 0.17141 0.0
N1798 N 0.80089 0.66104 0.20964 0.0
N1799 N 0.83744 0.61818 0.04138 0.0
H1800 H 0.83804 0.67341 0.27478 0.0
H1801 H 0.84481 0.6461 0.19798 0.0
H1802 H 0.83751 0.60155 0.98251 0.0
H1803 H 0.84462 0.62798 0.0587 0.0
H1804 H 0.79377 0.65344 0.18308 0.0
H1805 H 0.80047 0.67817 0.26705 0.0
H1806 H 0.79941 0.60148 0.99822 0.0
H1807 H 0.79941 0.60148 0.99822 0.0
C1808 C 0.55975 0.39731 0.82245 0.0
C1809 C 0.56902 0.41216 0.78912 0.0
C1810 C 0.57824 0.38447 0.92245 0.0
C1811 C 0.56911 0.36713 0.94985 0.0
N1812 N 0.55136 0.35422 0.92027 0.0
N1813 N 0.58732 0.41704 0.7997 0.0
C1814 C 0.55995 0.37261 0.89752 0.0
C1815 C 0.57835 0.40514 0.8374 0.0
N1816 N 0.55064 0.40773 0.78355 0.0
N1817 N 0.58676 0.38142 0.97855 0.0
H1818 H 0.58752 0.43287 0.73927 0.0
H1819 H 0.59451 0.40985 0.82497 0.0
H1820 H 0.58706 0.36489 0.03758 0.0
H1821 H 0.59333 0.39624 0.96912 0.0
H1822 H 0.54351 0.40108 0.81119 0.0
H1823 H 0.55017 0.42598 0.72893 0.0
H1824 H 0.54478 0.35378 0.87824 0.0
H1825 H 0.55108 0.33691 0.9772 0.0
C1826 C 0.68124 0.90543 0.91705 0.0
C1827 C 0.69061 0.91275 0.9641 0.0
C1828 C 0.69964 0.87328 0.85525 0.0
C1829 C 0.69044 0.8675 0.80401 0.0
N1830 N 0.67272 0.88142 0.77686 0.0
N1831 N 0.70901 0.90936 0.96639 0.0
C1832 C 0.68129 0.88469 0.83211 0.0
C1833 C 0.69988 0.89828 0.92947 0.0
N1834 N 0.67228 0.91709 0.95581 0.0
N1835 N 0.70824 0.85486 0.83232 0.0
H1836 H 0.70948 0.92819 0.0196 0.0
H1837 H 0.71612 0.90278 0.93791 0.0
H1838 H 0.70844 0.83705 0.77645 0.0
H1839 H 0.71488 0.85485 0.87353 0.0
H1840 H 0.66508 0.90965 0.93143 0.0
H1841 H 0.67211 0.93301 0.01612 0.0
H1842 H 0.66613 0.89611 0.78693 0.0
H1843 H 0.67241 0.86483 0.71794 0.0
C1844 C 0.57974 0.92547 0.37036 0.0
C1845 C 0.57671 0.90671 0.28918 0.0
C1846 C 0.57995 0.85527 0.38824 0.0
C1847 C 0.5765 0.8738 0.46852 0.0
N1848 N 0.58035 0.92895 0.54314 0.0
N1849 N 0.58124 0.85203 0.21549 0.0
C1850 C 0.5784 0.91013 0.46273 0.0
C1851 C 0.57889 0.87059 0.29546 0.0
N1852 N 0.58682 0.95055 0.35761 0.0
N1853 N 0.58699 0.83018 0.40322 0.0
H1854 H 0.58254 0.86356 0.1491 0.0
H1855 H 0.58249 0.82546 0.21766 0.0
H1856 H 0.58906 0.82357 0.47275 0.0
H1857 H 0.59136 0.8193 0.34839 0.0
H1858 H 0.59096 0.96148 0.41387 0.0
H1859 H 0.58916 0.95715 0.28882 0.0
H1860 H 0.5814 0.95561 0.54091 0.0
H1861 H 0.58162 0.91764 0.60987 0.0
C1862 C 0.69874 0.3787 0.34124 0.0
C1863 C 0.68939 0.36712 0.30094 0.0
C1864 C 0.6799 0.39843 0.42629 0.0
C1865 C 0.68925 0.41239 0.4607 0.0
N1866 N 0.70747 0.41971 0.44324 0.0
N1867 N 0.671 0.3683 0.29757 0.0
C1868 C 0.69862 0.40373 0.41535 0.0
C1869 C 0.67992 0.37754 0.3416 0.0
N1870 N 0.70779 0.36519 0.30909 0.0
N1871 N 0.67106 0.40479 0.47549 0.0
H1872 H 0.67086 0.352 0.23802 0.0
H1873 H 0.66386 0.37792 0.31706 0.0
H1874 H 0.67081 0.42134 0.5345 0.0
H1875 H 0.66414 0.39262 0.46064 0.0
H1876 H 0.71483 0.36954 0.34198 0.0
H1877 H 0.70817 0.34683 0.25462 0.0
H1878 H 0.71437 0.41762 0.40633 0.0
H1879 H 0.70772 0.43771 0.49863 0.0
C1880 C 0.44911 0.64799 0.08357 0.0
C1881 C 0.43973 0.661 0.0462 0.0
C1882 C 0.43024 0.62851 0.16979 0.0
C1883 C 0.43965 0.61619 0.20774 0.0
N1884 N 0.45811 0.61753 0.20927 0.0
N1885 N 0.42136 0.66187 0.04652 0.0
C1886 C 0.44908 0.62668 0.16627 0.0
C1887 C 0.43027 0.6509 0.08786 0.0
N1888 N 0.45811 0.6549 0.03712 0.0
N1889 N 0.42132 0.61957 0.21463 0.0
H1890 H 0.42126 0.67917 0.98923 0.0
H1891 H 0.41411 0.65358 0.06666 0.0
H1892 H 0.42114 0.60213 0.27162 0.0
H1893 H 0.41417 0.62958 0.19751 0.0
H1894 H 0.46495 0.64197 0.05043 0.0
H1895 H 0.45869 0.67248 0.98099 0.0
H1896 H 0.46515 0.62871 0.1932 0.0
H1897 H 0.45856 0.59973 0.26506 0.0
C1898 C 0.32887 0.12777 0.08432 0.0
C1899 C 0.31939 0.11619 0.04606 0.0
C1900 C 0.3101 0.14845 0.17062 0.0
C1901 C 0.31953 0.16082 0.20811 0.0
N1902 N 0.33791 0.16077 0.20734 0.0
N1903 N 0.30094 0.11953 0.04339 0.0
C1904 C 0.32894 0.15019 0.16626 0.0
C1905 C 0.31002 0.12751 0.08721 0.0
N1906 N 0.33774 0.11809 0.03979 0.0
N1907 N 0.30114 0.15548 0.21773 0.0
H1908 H 0.30037 0.10229 0.98639 0.0
H1909 H 0.294 0.13139 0.05968 0.0
H1910 H 0.30064 0.17255 0.27515 0.0
H1911 H 0.29425 0.14292 0.20391 0.0
H1912 H 0.34497 0.12729 0.05757 0.0
H1913 H 0.33783 0.10079 0.98245 0.0
H1914 H 0.34513 0.15231 0.18675 0.0
H1915 H 0.33808 0.17807 0.26467 0.0
C1916 C 0.43018 0.14462 0.58566 0.0
C1917 C 0.43929 0.16209 0.55823 0.0
C1918 C 0.44867 0.1325 0.68648 0.0
C1919 C 0.43942 0.11742 0.71964 0.0
N1920 N 0.42114 0.11211 0.70868 0.0
N1921 N 0.45703 0.17533 0.58765 0.0
C1922 C 0.43009 0.12412 0.671 0.0
C1923 C 0.44845 0.15692 0.6108 0.0
N1924 N 0.42167 0.14737 0.52929 0.0
N1925 N 0.45779 0.12252 0.72605 0.0
H1926 H 0.45731 0.19227 0.52992 0.0
H1927 H 0.46359 0.17614 0.62988 0.0
H1928 H 0.45829 0.10461 0.78144 0.0
H1929 H 0.46492 0.12921 0.69842 0.0
H1930 H 0.41513 0.13244 0.53879 0.0
H1931 H 0.42137 0.16378 0.47001 0.0
H1932 H 0.41394 0.11907 0.68309 0.0
H1933 H 0.42095 0.09646 0.76946 0.0
C1934 C 0.32984 0.6036 0.61765 0.0
C1935 C 0.3267 0.62234 0.53677 0.0
C1936 C 0.32989 0.67386 0.63563 0.0
C1937 C 0.32655 0.65522 0.71599 0.0
N1938 N 0.33074 0.60039 0.79056 0.0
N1939 N 0.33113 0.67703 0.46287 0.0
C1940 C 0.32862 0.619 0.71017 0.0
C1941 C 0.32882 0.65849 0.54293 0.0
N1942 N 0.33682 0.5782 0.60411 0.0
N1943 N 0.33689 0.69906 0.65029 0.0
H1944 H 0.33245 0.66547 0.39653 0.0
H1945 H 0.33232 0.70362 0.46491 0.0
H1946 H 0.339 0.70565 0.71972 0.0
H1947 H 0.3412 0.71005 0.59529 0.0
H1948 H 0.34101 0.56712 0.65982 0.0
H1949 H 0.33903 0.57143 0.53504 0.0
H1950 H 0.33189 0.57377 0.78867 0.0
H1951 H 0.33198 0.61191 0.85709 0.0
C1952 C 0.1236 0.46358 0.13246 0.0
C1953 C 0.11824 0.49548 0.13139 0.0
C1954 C 0.13464 0.52687 0.1282 0.0
C1955 C 0.14 0.49506 0.13522 0.0
N1956 N 0.13974 0.43328 0.15447 0.0
N1957 N 0.1184 0.55752 0.13902 0.0
C1958 C 0.13451 0.46344 0.14013 0.0
C1959 C 0.12371 0.52716 0.13233 0.0
N1960 N 0.11827 0.43341 0.12328 0.0
N1961 N 0.14005 0.55679 0.11634 0.0
H1962 H 0.11042 0.55853 0.14201 0.0
H1963 H 0.12181 0.58149 0.14908 0.0
H1964 H 0.14803 0.55744 0.11408 0.0
H1965 H 0.13671 0.58059 0.10152 0.0
H1966 H 0.1217 0.40951 0.11168 0.0
H1967 H 0.11028 0.43245 0.12227 0.0
H1968 H 0.13623 0.4099 0.1707 0.0
H1969 H 0.14772 0.43193 0.15487 0.0
C1970 C 0.12414 0.75549 0.13117 0.0
C1971 C 0.11866 0.78717 0.12865 0.0
C1972 C 0.13498 0.81893 0.12032 0.0
C1973 C 0.14043 0.78735 0.12974 0.0
N1974 N 0.14035 0.72599 0.1565 0.0
N1975 N 0.11871 0.84929 0.13209 0.0
C1976 C 0.13503 0.75575 0.13891 0.0
C1977 C 0.12405 0.819 0.1261 0.0
N1978 N 0.11888 0.72508 0.12402 0.0
N1979 N 0.14026 0.84875 0.10342 0.0
H1980 H 0.11072 0.85027 0.13222 0.0
H1981 H 0.12214 0.87326 0.14201 0.0
H1982 H 0.14825 0.84986 0.10358 0.0
H1983 H 0.13679 0.87196 0.08446 0.0
H1984 H 0.12236 0.7011 0.1159 0.0
H1985 H 0.11092 0.72404 0.1178 0.0
H1986 H 0.13691 0.70257 0.1735 0.0
H1987 H 0.14831 0.72527 0.16211 0.0
C1988 C 0.87354 0.56629 0.87973 0.0
C1989 C 0.86827 0.53424 0.88192 0.0
C1990 C 0.88474 0.50332 0.89038 0.0
C1991 C 0.89004 0.53526 0.88339 0.0
N1992 N 0.88975 0.59684 0.86247 0.0
N1993 N 0.86866 0.47207 0.87964 0.0
C1994 C 0.88449 0.56669 0.87537 0.0
C1995 C 0.87383 0.50271 0.88483 0.0
N1996 N 0.86802 0.59629 0.88312 0.0
N1997 N 0.89017 0.47354 0.90476 0.0
H1998 H 0.86069 0.47048 0.88168 0.0
H1999 H 0.87218 0.44829 0.86878 0.0
H2000 H 0.89815 0.47255 0.90265 0.0
H2001 H 0.88685 0.45005 0.92316 0.0
H2002 H 0.87125 0.62069 0.88983 0.0
H2003 H 0.86004 0.59667 0.88594 0.0
H2004 H 0.88631 0.62049 0.84791 0.0
H2005 H 0.89773 0.59785 0.85971 0.0
C2006 C 0.8843 0.27732 0.89026 0.0
C2007 C 0.88976 0.24581 0.88087 0.0
C2008 C 0.87347 0.2138 0.88029 0.0
C2009 C 0.86802 0.24553 0.88284 0.0
N2010 N 0.86807 0.30762 0.87657 0.0
N2011 N 0.88971 0.18432 0.85573 0.0
C2012 C 0.87341 0.27734 0.88388 0.0
C2013 C 0.88438 0.21407 0.87289 0.0
N2014 N 0.88957 0.30722 0.9069 0.0
N2015 N 0.86822 0.18342 0.88785 0.0
H2016 H 0.8977 0.18339 0.85451 0.0
H2017 H 0.88626 0.16099 0.83782 0.0
H2018 H 0.86024 0.18227 0.88937 0.0
H2019 H 0.87173 0.15956 0.8978 0.0
H2020 H 0.88609 0.3306 0.92402 0.0
H2021 H 0.89754 0.30809 0.91172 0.0
H2022 H 0.87149 0.33163 0.86737 0.0
H2023 H 0.8601 0.3085 0.87127 0.0
C2024 C 0.13484 0.02778 0.63312 0.0
C2025 C 0.14029 0.99604 0.62848 0.0
C2026 C 0.12394 0.96419 0.6308 0.0
C2027 C 0.11851 0.99598 0.63057 0.0
N2028 N 0.11859 0.05808 0.6219 0.0
N2029 N 0.14028 0.93421 0.61397 0.0
C2030 C 0.12392 0.02779 0.62934 0.0
C2031 C 0.13489 0.96425 0.62464 0.0
N2032 N 0.14015 0.05799 0.64365 0.0
N2033 N 0.11859 0.934 0.63818 0.0
H2034 H 0.14825 0.93357 0.60978 0.0
H2035 H 0.13693 0.91021 0.60257 0.0
H2036 H 0.11061 0.93328 0.6425 0.0
H2037 H 0.12195 0.90986 0.64679 0.0
H2038 H 0.13674 0.08154 0.6602 0.0
H2039 H 0.14812 0.05932 0.64016 0.0
H2040 H 0.12197 0.08186 0.60798 0.0
H2041 H 0.11061 0.05932 0.6252 0.0
C2042 C 0.12248 0.31895 0.64773 0.0
C2043 C 0.11708 0.28717 0.64804 0.0
C2044 C 0.1334 0.25542 0.65506 0.0
C2045 C 0.13881 0.28706 0.64745 0.0
N2046 N 0.13871 0.34881 0.62817 0.0
N2047 N 0.11716 0.22508 0.64257 0.0
C2048 C 0.13339 0.31882 0.64182 0.0
C2049 C 0.12249 0.25536 0.64917 0.0
N2050 N 0.11717 0.34927 0.65548 0.0
N2051 N 0.13875 0.22545 0.66875 0.0
H2052 H 0.10918 0.22418 0.63848 0.0
H2053 H 0.12056 0.201 0.63373 0.0
H2054 H 0.14672 0.22468 0.6726 0.0
H2055 H 0.13536 0.20178 0.68386 0.0
H2056 H 0.12061 0.37311 0.66724 0.0
H2057 H 0.10918 0.3504 0.65507 0.0
H2058 H 0.13528 0.3723 0.61135 0.0
H2059 H 0.14669 0.34989 0.62943 0.0
C2060 C 0.87378 1.00467 0.38391 0.0
C2061 C 0.86837 0.03633 0.3753 0.0
C2062 C 0.88472 0.06803 0.37381 0.0
C2063 C 0.89013 0.03622 0.37668 0.0
N2064 N 0.89003 0.97414 0.37228 0.0
N2065 N 0.86851 0.09786 0.3509 0.0
C2066 C 0.8847 1.00449 0.37821 0.0
C2067 C 0.87381 0.06796 0.36719 0.0
N2068 N 0.86844 0.97479 0.39886 0.0
N2069 N 0.89004 0.09834 0.38025 0.0
H2070 H 0.86053 0.09903 0.35084 0.0
H2071 H 0.87198 0.12113 0.33267 0.0
H2072 H 0.89802 0.09937 0.38058 0.0
H2073 H 0.88658 0.1223 0.39022 0.0
H2074 H 0.87185 0.95124 0.41527 0.0
H2075 H 0.86047 0.97398 0.40225 0.0
H2076 H 0.88661 0.95009 0.36373 0.0
H2077 H 0.898 0.97318 0.36807 0.0
C2078 C 0.88533 0.77322 0.3788 0.0
C2079 C 0.89062 0.74118 0.37663 0.0
C2080 C 0.87413 0.71029 0.38071 0.0
C2081 C 0.86885 0.74234 0.3768 0.0
N2082 N 0.86924 0.80411 0.35937 0.0
N2083 N 0.89022 0.67919 0.36429 0.0
C2084 C 0.87443 0.77376 0.37215 0.0
C2085 C 0.88505 0.70968 0.37451 0.0
N2086 N 0.89078 0.80315 0.38864 0.0
N2087 N 0.86869 0.6805 0.39327 0.0
H2088 H 0.8982 0.67768 0.36464 0.0
H2089 H 0.88666 0.65568 0.35063 0.0
H2090 H 0.8607 0.67988 0.39366 0.0
H2091 H 0.87204 0.65672 0.40823 0.0
H2092 H 0.88745 0.82719 0.40034 0.0
H2093 H 0.89875 0.80367 0.39283 0.0
H2094 H 0.87278 0.82768 0.34605 0.0
H2095 H 0.86128 0.80533 0.35405 0.0
C2096 C 0.63447 0.46326 0.62041 0.0
C2097 C 0.63996 0.49466 0.6307 0.0
C2098 C 0.6237 0.52657 0.64371 0.0
C2099 C 0.6182 0.49556 0.62699 0.0
N2100 N 0.6182 0.43497 0.58848 0.0
N2101 N 0.64002 0.5567 0.63935 0.0
C2102 C 0.62356 0.46402 0.61239 0.0
C2103 C 0.63461 0.52647 0.63871 0.0
N2104 N 0.63967 0.43262 0.62117 0.0
N2105 N 0.61844 0.55608 0.66577 0.0
H2106 H 0.64799 0.55749 0.63545 0.0
H2107 H 0.63665 0.58103 0.63558 0.0
H2108 H 0.61047 0.55706 0.66934 0.0
H2109 H 0.62192 0.57885 0.68819 0.0
H2110 H 0.63612 0.40863 0.62539 0.0
H2111 H 0.64765 0.43123 0.62277 0.0
H2112 H 0.62163 0.41215 0.56554 0.0
H2113 H 0.61022 0.43421 0.58684 0.0
C2114 C 0.63507 0.81373 0.62921 0.0
C2115 C 0.64091 0.78282 0.62542 0.0
C2116 C 0.62502 0.74879 0.61522 0.0
C2117 C 0.61918 0.77952 0.62484 0.0
N2118 N 0.61846 0.84088 0.65215 0.0
N2119 N 0.64167 0.72076 0.62597 0.0
C2120 C 0.62417 0.81192 0.63481 0.0
C2121 C 0.63593 0.75028 0.62169 0.0
N2122 N 0.63996 0.84488 0.62469 0.0
N2123 N 0.62009 0.71825 0.59837 0.0
H2124 H 0.64964 0.72104 0.6305 0.0
H2125 H 0.63859 0.69612 0.63262 0.0
H2126 H 0.61214 0.71636 0.59384 0.0
H2127 H 0.62381 0.69528 0.58153 0.0
H2128 H 0.63619 0.86832 0.61523 0.0
H2129 H 0.64792 0.84719 0.62544 0.0
H2130 H 0.62159 0.86453 0.67192 0.0
H2131 H 0.61047 0.84087 0.65165 0.0
C2132 C 0.37396 0.55893 0.38397 0.0
C2133 C 0.36887 0.52655 0.38017 0.0
C2134 C 0.38551 0.49661 0.37961 0.0
C2135 C 0.3906 0.52902 0.37842 0.0
N2136 N 0.38993 0.59095 0.36925 0.0
N2137 N 0.36959 0.46469 0.36411 0.0
C2138 C 0.38488 0.56019 0.37754 0.0
C2139 C 0.3746 0.49542 0.3753 0.0
N2140 N 0.3683 0.5884 0.39498 0.0
N2141 N 0.39114 0.46694 0.38744 0.0
H2142 H 0.36163 0.46257 0.36656 0.0
H2143 H 0.37323 0.44151 0.34785 0.0
H2144 H 0.39912 0.46661 0.3847 0.0
H2145 H 0.38797 0.4428 0.40115 0.0
H2146 H 0.37144 0.61269 0.40694 0.0
H2147 H 0.36033 0.58829 0.39907 0.0
H2148 H 0.38632 0.61463 0.35957 0.0
H2149 H 0.39789 0.59258 0.36492 0.0
C2150 C 0.38441 0.21205 0.37243 0.0
C2151 C 0.39008 0.24331 0.37634 0.0
C2152 C 0.37399 0.2765 0.37126 0.0
C2153 C 0.3683 0.24529 0.37428 0.0
N2154 N 0.36793 0.1834 0.38891 0.0
N2155 N 0.39041 0.30521 0.39085 0.0
C2156 C 0.37347 0.21303 0.37766 0.0
C2157 C 0.38489 0.27552 0.37919 0.0
N2158 N 0.38949 0.18143 0.36144 0.0
N2159 N 0.36893 0.3071 0.35864 0.0
H2160 H 0.39838 0.30541 0.39605 0.0
H2161 H 0.38714 0.3293 0.40317 0.0
H2162 H 0.36099 0.30862 0.35212 0.0
H2163 H 0.37257 0.33057 0.34646 0.0
H2164 H 0.38586 0.15813 0.34649 0.0
H2165 H 0.39746 0.17961 0.36241 0.0
H2166 H 0.3712 0.15945 0.4034 0.0
H2167 H 0.35994 0.18307 0.38884 0.0
C2168 C 0.63527 0.96865 0.13559 0.0
C2169 C 0.64094 0.9999 0.13557 0.0
C2170 C 0.62488 0.03327 0.13135 0.0
C2171 C 0.61921 1.00208 0.13683 0.0
N2172 N 0.61874 0.94029 0.15351 0.0
N2173 N 0.64136 0.06202 0.143 0.0
C2174 C 0.62435 0.96979 0.14175 0.0
C2175 C 0.63579 0.03224 0.13587 0.0
N2176 N 0.64038 0.93792 0.1284 0.0
N2177 N 0.61981 0.06389 0.11933 0.0
H2178 H 0.64934 0.06245 0.14039 0.0
H2179 H 0.63815 0.08617 0.15603 0.0
H2180 H 0.61185 0.06591 0.12167 0.0
H2181 H 0.62342 0.08706 0.10255 0.0
H2182 H 0.63681 0.91415 0.11943 0.0
H2183 H 0.64834 0.93637 0.12433 0.0
H2184 H 0.62192 0.91609 0.16624 0.0
H2185 H 0.61077 0.94033 0.15747 0.0
C2186 C 0.62351 0.25427 0.12779 0.0
C2187 C 0.61794 0.2858 0.12925 0.0
C2188 C 0.63416 0.31826 0.12403 0.0
C2189 C 0.63973 0.28675 0.12827 0.0
N2190 N 0.6399 0.22495 0.1452 0.0
N2191 N 0.61781 0.34781 0.1402 0.0
C2192 C 0.63443 0.25479 0.13352 0.0
C2193 C 0.62324 0.31782 0.13037 0.0
N2194 N 0.6183 0.22381 0.11898 0.0
N2195 N 0.63933 0.34859 0.11157 0.0
H2196 H 0.60982 0.34856 0.14038 0.0
H2197 H 0.62116 0.37172 0.15318 0.0
H2198 H 0.64731 0.35008 0.1121 0.0
H2199 H 0.63578 0.37199 0.09603 0.0
H2200 H 0.62181 0.2 0.10818 0.0
H2201 H 0.61034 0.22259 0.11485 0.0
H2202 H 0.6366 0.20103 0.15891 0.0
H2203 H 0.64787 0.22444 0.14865 0.0
C2204 C 0.38468 1.00146 0.88444 0.0
C2205 C 0.39003 0.03341 0.8835 0.0
C2206 C 0.37357 0.06473 0.88448 0.0
C2207 C 0.36825 0.03278 0.88071 0.0
N2208 N 0.36857 0.97075 0.86822 0.0
N2209 N 0.38984 0.09536 0.87412 0.0
C2210 C 0.37378 1.00115 0.87848 0.0
C2211 C 0.38453 0.06506 0.881 0.0
N2212 N 0.39007 0.97133 0.89359 0.0
N2213 N 0.36808 0.09469 0.89248 0.0
H2214 H 0.39782 0.09628 0.87199 0.0
H2215 H 0.38645 0.11939 0.86401 0.0
H2216 H 0.3601 0.09516 0.89445 0.0
H2217 H 0.37133 0.11885 0.90362 0.0
H2218 H 0.38672 0.9475 0.90755 0.0
H2219 H 0.39805 0.97027 0.89156 0.0
H2220 H 0.37205 0.9472 0.85326 0.0
H2221 H 0.36059 0.9692 0.87035 0.0
C2222 C 0.37456 0.78147 0.8717 0.0
C2223 C 0.36898 0.75009 0.87399 0.0
C2224 C 0.38516 0.71728 0.87247 0.0
C2225 C 0.39073 0.7487 0.87649 0.0
N2226 N 0.3909 0.81053 0.89305 0.0
N2227 N 0.36877 0.68813 0.88825 0.0
C2228 C 0.38545 0.78076 0.87991 0.0
C2229 C 0.37424 0.71796 0.87753 0.0
N2230 N 0.36942 0.81195 0.86006 0.0
N2231 N 0.39032 0.68684 0.86084 0.0
H2232 H 0.36078 0.6875 0.88744 0.0
H2233 H 0.3721 0.66429 0.903 0.0
H2234 H 0.3983 0.68528 0.86114 0.0
H2235 H 0.38675 0.66344 0.84581 0.0
H2236 H 0.373 0.83555 0.84828 0.0
H2237 H 0.36147 0.81329 0.85421 0.0
H2238 H 0.38756 0.83451 0.90546 0.0
H2239 H 0.39885 0.81082 0.89975 0.0
C2240 C 0.07134 0.38205 0.83806 0.0
C2241 C 0.06185 0.3699 0.80138 0.0
C2242 C 0.05259 0.40182 0.92695 0.0
C2243 C 0.06209 0.41372 0.96354 0.0
N2244 N 0.08056 0.41314 0.96142 0.0
N2245 N 0.04346 0.37017 0.80242 0.0
C2246 C 0.07147 0.40358 0.92028 0.0
C2247 C 0.05246 0.3802 0.84389 0.0
N2248 N 0.08027 0.37382 0.7917 0.0
N2249 N 0.04377 0.41043 0.97394 0.0
H2250 H 0.04322 0.35341 0.7439 0.0
H2251 H 0.03628 0.379 0.82323 0.0
H2252 H 0.04368 0.42738 0.0321 0.0
H2253 H 0.0366 0.40034 0.95783 0.0
H2254 H 0.08727 0.38567 0.80466 0.0
H2255 H 0.08067 0.35577 0.73647 0.0
H2256 H 0.08766 0.40291 0.94293 0.0
H2257 H 0.08105 0.43056 0.0181 0.0
C2258 C 0.18641 0.90119 0.84383 0.0
C2259 C 0.1957 0.9131 0.80255 0.0
C2260 C 0.20559 0.88055 0.92228 0.0
C2261 C 0.1963 0.86825 0.96229 0.0
N2262 N 0.17783 0.86964 0.97004 0.0
N2263 N 0.21406 0.91197 0.79359 0.0
C2264 C 0.1867 0.87915 0.92481 0.0
C2265 C 0.20529 0.9024 0.83986 0.0
N2266 N 0.17726 0.90993 0.80235 0.0
N2267 N 0.21466 0.87206 0.96524 0.0
H2268 H 0.21402 0.9288 0.73526 0.0
H2269 H 0.2213 0.90239 0.80987 0.0
H2270 H 0.21508 0.85482 0.02256 0.0
H2271 H 0.22168 0.88285 0.94705 0.0
H2272 H 0.1703 0.89819 0.81832 0.0
H2273 H 0.17661 0.92838 0.74826 0.0
H2274 H 0.17071 0.88063 0.95653 0.0
H2275 H 0.17757 0.85141 0.02487 0.0
C2276 C 0.05349 0.9032 0.41783 0.0
C2277 C 0.063 0.91414 0.45629 0.0
C2278 C 0.07226 0.88056 0.33482 0.0
C2279 C 0.06275 0.86951 0.2961 0.0
N2280 N 0.04438 0.87283 0.29095 0.0
N2281 N 0.08146 0.91145 0.45863 0.0
C2282 C 0.05336 0.88147 0.33513 0.0
C2283 C 0.07238 0.90254 0.41596 0.0
N2284 N 0.04463 0.91243 0.46327 0.0
N2285 N 0.08122 0.87118 0.29074 0.0
H2286 H 0.08198 0.92979 0.51311 0.0
H2287 H 0.08847 0.89995 0.44325 0.0
H2288 H 0.08159 0.85292 0.23596 0.0
H2289 H 0.0883 0.88227 0.30516 0.0
H2290 H 0.03745 0.90261 0.44613 0.0
H2291 H 0.04454 0.92921 0.52174 0.0
H2292 H 0.0373 0.88341 0.30845 0.0
H2293 H 0.04409 0.85569 0.23327 0.0
C2294 C 0.20615 0.41866 0.36727 0.0
C2295 C 0.20139 0.40557 0.28408 0.0
C2296 C 0.19391 0.35879 0.37583 0.0
C2297 C 0.1977 0.37224 0.46253 0.0
N2298 N 0.20866 0.4143 0.54021 0.0
N2299 N 0.20048 0.34779 0.22035 0.0
C2300 C 0.20426 0.40204 0.45834 0.0
C2301 C 0.19808 0.37089 0.29008 0.0
N2302 N 0.21379 0.44203 0.35592 0.0
N2303 N 0.18596 0.33611 0.37279 0.0
H2304 H 0.20575 0.35341 0.16627 0.0
H2305 H 0.19825 0.32215 0.22461 0.0
H2306 H 0.18192 0.32847 0.43347 0.0
H2307 H 0.18292 0.32772 0.30755 0.0
H2308 H 0.21843 0.45101 0.41116 0.0
H2309 H 0.21605 0.44932 0.28742 0.0
H2310 H 0.21238 0.43802 0.54433 0.0
H2311 H 0.2085 0.40068 0.6046 0.0
C2312 C 0.95631 0.65326 0.17244 0.0
C2313 C 0.94683 0.66239 0.21542 0.0
C2314 C 0.93755 0.6287 0.09461 0.0
C2315 C 0.94697 0.61875 0.05329 0.0
N2316 N 0.96524 0.62383 0.04218 0.0
N2317 N 0.92842 0.65733 0.22351 0.0
C2318 C 0.95636 0.63169 0.08926 0.0
C2319 C 0.93742 0.64986 0.17762 0.0
N2320 N 0.96522 0.66402 0.21412 0.0
N2321 N 0.92883 0.61893 0.04806 0.0
H2322 H 0.9279 0.67502 0.27955 0.0
H2323 H 0.92149 0.64514 0.20976 0.0
H2324 H 0.92143 0.62669 0.06594 0.0
H2325 H 0.92143 0.62669 0.06594 0.0
H2326 H 0.97248 0.65606 0.19279 0.0
H2327 H 0.96533 0.68049 0.27328 0.0
H2328 H 0.97233 0.63455 0.05824 0.0
H2329 H 0.96543 0.60689 0.984 0.0
C2330 C 0.80314 0.14678 0.09017 0.0
C2331 C 0.81257 0.16029 0.05653 0.0
C2332 C 0.82187 0.12791 0.17988 0.0
C2333 C 0.8124 0.11641 0.21811 0.0
N2334 N 0.794 0.11658 0.21704 0.0
N2335 N 0.8309 0.16588 0.07088 0.0
C2336 C 0.80301 0.12611 0.17488 0.0
C2337 C 0.82193 0.15148 0.10219 0.0
N2338 N 0.79437 0.15331 0.03995 0.0
N2339 N 0.83086 0.11569 0.21747 0.0
H2340 H 0.8313 0.18261 0.01256 0.0
H2341 H 0.83785 0.16377 0.10663 0.0
H2342 H 0.83115 0.09884 0.27549 0.0
H2343 H 0.83803 0.11969 0.18707 0.0
H2344 H 0.78738 0.14147 0.05407 0.0
H2345 H 0.7942 0.16984 0.98088 0.0
H2346 H 0.78686 0.1257 0.19578 0.0
H2347 H 0.79375 0.10052 0.277 0.0
C2348 C 0.95476 0.12736 0.58845 0.0
C2349 C 0.94545 0.11766 0.54377 0.0
C2350 C 0.93573 0.15328 0.65719 0.0
C2351 C 0.94498 0.162 0.70449 0.0
N2352 N 0.96313 0.15452 0.72484 0.0
N2353 N 0.927 0.11691 0.54207 0.0
C2354 C 0.95447 0.14816 0.67292 0.0
C2355 C 0.93592 0.12933 0.58039 0.0
N2356 N 0.96384 0.11774 0.54782 0.0
N2357 N 0.92672 0.16813 0.68606 0.0
H2358 H 0.92683 0.09966 0.48487 0.0
H2359 H 0.91979 0.12112 0.57139 0.0
H2360 H 0.92623 0.18521 0.7436 0.0
H2361 H 0.91985 0.16606 0.6488 0.0
H2362 H 0.97094 0.12687 0.57022 0.0
H2363 H 0.96421 0.10162 0.48799 0.0
H2364 H 0.97012 0.14239 0.71229 0.0
H2365 H 0.9632 0.17116 0.78371 0.0
C2366 C 0.8223 0.65055 0.59271 0.0
C2367 C 0.81293 0.66094 0.55001 0.0
C2368 C 0.8033 0.62829 0.67096 0.0
C2369 C 0.81269 0.61637 0.70989 0.0
N2370 N 0.83111 0.61278 0.70377 0.0
N2371 N 0.79459 0.65759 0.53994 0.0
C2372 C 0.82218 0.62652 0.66922 0.0
C2373 C 0.80343 0.64929 0.58692 0.0
N2374 N 0.83133 0.66405 0.56002 0.0
N2375 N 0.79433 0.62022 0.716 0.0
H2376 H 0.79447 0.67415 0.48096 0.0
H2377 H 0.78748 0.64703 0.55637 0.0
H2378 H 0.79404 0.60364 0.77489 0.0
H2379 H 0.78728 0.63096 0.69803 0.0
H2380 H 0.83836 0.6607 0.5938 0.0
H2381 H 0.83175 0.68136 0.50302 0.0
H2382 H 0.83822 0.61592 0.67146 0.0
H2383 H 0.83136 0.59549 0.7609 0.0
C2384 C 0.57204 0.403 0.40301 0.0
C2385 C 0.56275 0.41188 0.44962 0.0
C2386 C 0.55305 0.3774 0.33262 0.0
C2387 C 0.56239 0.36755 0.28864 0.0
N2388 N 0.58085 0.36646 0.28854 0.0
N2389 N 0.54457 0.40464 0.46842 0.0
C2390 C 0.5719 0.37906 0.32608 0.0
C2391 C 0.55328 0.39817 0.41721 0.0
N2392 N 0.58104 0.41764 0.43274 0.0
N2393 N 0.544 0.36792 0.2913 0.0
H2394 H 0.54447 0.42121 0.52742 0.0
H2395 H 0.53759 0.39264 0.45522 0.0
H2396 H 0.54368 0.35178 0.23148 0.0
H2397 H 0.53689 0.37718 0.31309 0.0
H2398 H 0.58794 0.41541 0.39612 0.0
H2399 H 0.5815 0.43471 0.49034 0.0
H2400 H 0.58804 0.37056 0.31843 0.0
H2401 H 0.58106 0.34913 0.23152 0.0
C2402 C 0.68736 0.90124 0.3466 0.0
C2403 C 0.69673 0.91178 0.3039 0.0
C2404 C 0.70638 0.87724 0.42139 0.0
C2405 C 0.69702 0.86752 0.46519 0.0
N2406 N 0.67862 0.87218 0.47621 0.0
N2407 N 0.71503 0.9077 0.29163 0.0
C2408 C 0.68752 0.87982 0.42892 0.0
C2409 C 0.70623 0.89919 0.33899 0.0
N2410 N 0.67825 0.91041 0.30513 0.0
N2411 N 0.71539 0.86658 0.46155 0.0
H2412 H 0.71512 0.92498 0.23425 0.0
H2413 H 0.72219 0.89727 0.30673 0.0
H2414 H 0.71564 0.84968 0.51973 0.0
H2415 H 0.72259 0.87495 0.43992 0.0
H2416 H 0.67123 0.89936 0.32253 0.0
H2417 H 0.67767 0.92814 0.2492 0.0
H2418 H 0.67166 0.88446 0.46355 0.0
H2419 H 0.67821 0.85443 0.5321 0.0
C2420 C 0.55433 0.87884 0.83732 0.0
C2421 C 0.56375 0.86912 0.7941 0.0
C2422 C 0.57307 0.90285 0.91546 0.0
C2423 C 0.56375 0.91045 0.96339 0.0
N2424 N 0.54554 0.90317 0.97621 0.0
N2425 N 0.58217 0.86633 0.80317 0.0
C2426 C 0.55437 0.89768 0.92605 0.0
C2427 C 0.57313 0.87953 0.83678 0.0
N2428 N 0.54537 0.87112 0.7918 0.0
N2429 N 0.58194 0.91839 0.94467 0.0
H2430 H 0.58256 0.84878 0.74664 0.0
H2431 H 0.58918 0.86979 0.83735 0.0
H2432 H 0.58227 0.9354 1.0024 0.0
H2433 H 0.58877 0.91718 0.90628 0.0
H2434 H 0.53825 0.88025 0.81362 0.0
H2435 H 0.54518 0.85704 0.72816 0.0
H2436 H 0.53857 0.89179 0.95891 0.0
H2437 H 0.54536 0.91788 0.03881 0.0
C2438 C 0.68638 0.38086 0.92326 0.0
C2439 C 0.69578 0.36861 0.96176 0.0
C2440 C 0.70532 0.40053 0.8382 0.0
C2441 C 0.69591 0.41246 0.79961 0.0
N2442 N 0.67744 0.41188 0.79799 0.0
N2443 N 0.71417 0.36886 0.9646 0.0
C2444 C 0.68644 0.40234 0.84096 0.0
C2445 C 0.70526 0.37889 0.92123 0.0
N2446 N 0.67735 0.37286 0.96808 0.0
N2447 N 0.71426 0.40912 0.79312 0.0
H2448 H 0.71428 0.35215 0.02323 0.0
H2449 H 0.7214 0.37764 0.94527 0.0
H2450 H 0.71448 0.42609 0.73505 0.0
H2451 H 0.72139 0.39903 0.81073 0.0
H2452 H 0.67039 0.38487 0.95385 0.0
H2453 H 0.67682 0.35488 0.02336 0.0
H2454 H 0.67031 0.40169 0.81515 0.0
H2455 H 0.67707 0.42919 0.74103 0.0
C2456 C 0.43656 0.65252 0.66347 0.0
C2457 C 0.44598 0.66172 0.70698 0.0
C2458 C 0.45538 0.62796 0.58665 0.0
C2459 C 0.44592 0.61722 0.54701 0.0
N2460 N 0.42747 0.61543 0.55267 0.0
N2461 N 0.46427 0.656 0.71871 0.0
C2462 C 0.4365 0.62841 0.58716 0.0
C2463 C 0.45539 0.64889 0.67085 0.0
N2464 N 0.42763 0.66712 0.69541 0.0
N2465 N 0.46431 0.61889 0.54212 0.0
H2466 H 0.46449 0.6724 0.77802 0.0
H2467 H 0.47128 0.64458 0.70275 0.0
H2468 H 0.46448 0.60245 0.48286 0.0
H2469 H 0.47144 0.62875 0.56077 0.0
H2470 H 0.42062 0.66464 0.66087 0.0
H2471 H 0.42734 0.68447 0.75243 0.0
H2472 H 0.42038 0.6194 0.58474 0.0
H2473 H 0.42711 0.59789 0.49614 0.0
C2474 C 0.30389 0.14923 0.58327 0.0
C2475 C 0.31336 0.16168 0.54761 0.0
C2476 C 0.32267 0.1274 0.66665 0.0
C2477 C 0.3132 0.11664 0.70659 0.0
N2478 N 0.29483 0.11966 0.71163 0.0
N2479 N 0.3317 0.16643 0.56077 0.0
C2480 C 0.3038 0.12815 0.66719 0.0
C2481 C 0.32272 0.15192 0.59137 0.0
N2482 N 0.29506 0.15688 0.53531 0.0
N2483 N 0.33163 0.1137 0.70055 0.0
H2484 H 0.33205 0.18422 0.50482 0.0
H2485 H 0.33869 0.16347 0.59566 0.0
H2486 H 0.3319 0.09584 0.75633 0.0
H2487 H 0.33873 0.1174 0.66846 0.0
H2488 H 0.28801 0.14574 0.5509 0.0
H2489 H 0.29492 0.17342 0.47631 0.0
H2490 H 0.28775 0.1301 0.69317 0.0
H2491 H 0.29457 0.10315 0.77067 0.0
C2492 C 0.43673 0.14988 0.18276 0.0
C2493 C 0.44622 0.16146 0.22031 0.0
C2494 C 0.45539 0.13159 0.09087 0.0
C2495 C 0.44594 0.11787 0.05815 0.0
N2496 N 0.42765 0.11178 0.07458 0.0
N2497 N 0.46462 0.16155 0.21757 0.0
C2498 C 0.43663 0.12637 0.10495 0.0
C2499 C 0.45558 0.15202 0.17603 0.0
N2500 N 0.42776 0.16197 0.22102 0.0
N2501 N 0.4641 0.12556 0.0393 0.0
H2502 H 0.46492 0.17743 0.27792 0.0
H2503 H 0.47174 0.15253 0.19545 0.0
H2504 H 0.46422 0.10933 0.97959 0.0
H2505 H 0.47106 0.13763 0.05287 0.0
H2506 H 0.42058 0.15799 0.1908 0.0
H2507 H 0.42748 0.17869 0.27936 0.0
H2508 H 0.42075 0.11357 0.11143 0.0
H2509 H 0.4272 0.09518 0.01597 0.0
C2510 C 0.30428 0.63032 0.1721 0.0
C2511 C 0.31371 0.61873 0.21131 0.0
C2512 C 0.32302 0.64991 0.08488 0.0
C2513 C 0.31361 0.65926 0.04078 0.0
N2514 N 0.29526 0.6555 0.03586 0.0
N2515 N 0.33201 0.61258 0.19571 0.0
C2516 C 0.30421 0.64872 0.08275 0.0
C2517 C 0.32305 0.62707 0.16458 0.0
N2518 N 0.29543 0.62444 0.22147 0.0
N2519 N 0.33199 0.66359 0.05152 0.0
H2520 H 0.3324 0.59575 0.25385 0.0
H2521 H 0.33889 0.61431 0.15846 0.0
H2522 H 0.33233 0.68061 0.9938 0.0
H2523 H 0.33898 0.66106 0.08674 0.0
H2524 H 0.28838 0.63501 0.20259 0.0
H2525 H 0.29528 0.61041 0.28521 0.0
H2526 H 0.28819 0.64567 0.05675 0.0
H2527 H 0.29503 0.66954 0.97215 0.0
C2528 C 0.0596 0.52206 0.66245 0.0
C2529 C 0.06583 0.50228 0.72477 0.0
C2530 C 0.07465 0.47677 0.58566 0.0
C2531 C 0.06888 0.49839 0.52347 0.0
N2532 N 0.05777 0.5478 0.50531 0.0
N2533 N 0.0802 0.46414 0.74804 0.0
C2534 C 0.06184 0.52267 0.56265 0.0
C2535 C 0.07364 0.48063 0.68696 0.0
N2536 N 0.05152 0.5404 0.69855 0.0
N2537 N 0.08084 0.45173 0.54829 0.0
H2538 H 0.07941 0.46513 0.82231 0.0
H2539 H 0.08678 0.45127 0.72572 0.0
H2540 H 0.08219 0.44915 0.47521 0.0
H2541 H 0.08415 0.43219 0.5891 0.0
H2542 H 0.046 0.55213 0.65559 0.0
H2543 H 0.04984 0.54157 0.77154 0.0
H2544 H 0.0534 0.56828 0.53126 0.0
H2545 H 0.05969 0.55056 0.43317 0.0
C2546 C 0.18236 0.76665 0.58519 0.0
C2547 C 0.18951 0.7827 0.52301 0.0
C2548 C 0.19879 0.8058 0.66286 0.0
C2549 C 0.19214 0.78736 0.72476 0.0
N2550 N 0.17891 0.74454 0.74449 0.0
N2551 N 0.20534 0.81407 0.50211 0.0
C2552 C 0.18423 0.76642 0.68583 0.0
C2553 C 0.19797 0.80124 0.56178 0.0
N2554 N 0.17382 0.75116 0.54828 0.0
N2555 N 0.20567 0.82868 0.70037 0.0
H2556 H 0.20484 0.81284 0.42773 0.0
H2557 H 0.21228 0.82408 0.52611 0.0
H2558 H 0.20677 0.83176 0.77374 0.0
H2559 H 0.20974 0.84639 0.65925 0.0
H2560 H 0.16772 0.74283 0.59032 0.0
H2561 H 0.17246 0.74873 0.47502 0.0
H2562 H 0.1738 0.72602 0.71956 0.0
H2563 H 0.18038 0.74229 0.81768 0.0
C2564 C 0.06087 0.80174 0.69745 0.0
C2565 C 0.06939 0.78331 0.73561 0.0
C2566 C 0.07465 0.76756 0.57225 0.0
C2567 C 0.0667 0.78855 0.53397 0.0
N2568 N 0.05313 0.82968 0.55985 0.0
N2569 N 0.08515 0.75219 0.70908 0.0
C2570 C 0.06003 0.80669 0.59652 0.0
C2571 C 0.07656 0.76759 0.67282 0.0
N2572 N 0.05346 0.81409 0.75752 0.0
N2573 N 0.07997 0.74582 0.51304 0.0
H2574 H 0.08655 0.74961 0.78224 0.0
H2575 H 0.09126 0.7441 0.66661 0.0
H2576 H 0.07846 0.74365 0.4399 0.0
H2577 H 0.08512 0.72729 0.53752 0.0
H2578 H 0.04649 0.82398 0.73376 0.0
H2579 H 0.05395 0.81251 0.83184 0.0
H2580 H 0.04902 0.84715 0.60168 0.0
H2581 H 0.05203 0.83315 0.4866 0.0
C2582 C 0.1841 0.48882 0.57633 0.0
C2583 C 0.1932 0.50324 0.53843 0.0
C2584 C 0.19951 0.51231 0.70279 0.0
C2585 C 0.19004 0.49978 0.74038 0.0
N2586 N 0.17213 0.48844 0.70747 0.0
N2587 N 0.20898 0.53385 0.56509 0.0
C2588 C 0.18196 0.49183 0.6758 0.0
C2589 C 0.2008 0.51619 0.60153 0.0
N2590 N 0.17765 0.47074 0.51786 0.0
N2591 N 0.2072 0.52158 0.76407 0.0
H2592 H 0.21018 0.53728 0.49185 0.0
H2593 H 0.21422 0.54733 0.607 0.0
H2594 H 0.20609 0.52472 0.83757 0.0
H2595 H 0.21472 0.52567 0.74236 0.0
H2596 H 0.17142 0.45671 0.54366 0.0
H2597 H 0.17923 0.46641 0.44554 0.0
H2598 H 0.16593 0.48602 0.66101 0.0
H2599 H 0.16995 0.492 0.77828 0.0
C2600 C 0.93456 0.51633 0.3304 0.0
C2601 C 0.94235 0.53787 0.29173 0.0
C2602 C 0.94785 0.553 0.45498 0.0
C2603 C 0.93956 0.53351 0.49337 0.0
N2604 N 0.92423 0.5001 0.46761 0.0
N2605 N 0.9556 0.58014 0.31595 0.0
C2606 C 0.93263 0.51649 0.43095 0.0
C2607 C 0.9488 0.55706 0.35374 0.0
N2608 N 0.92941 0.49407 0.27148 0.0
N2609 N 0.9549 0.56736 0.5154 0.0
H2610 H 0.95675 0.58297 0.24255 0.0
H2611 H 0.95962 0.59814 0.35655 0.0
H2612 H 0.95421 0.56665 0.5897 0.0
H2613 H 0.96175 0.57832 0.49251 0.0
H2614 H 0.92443 0.4751 0.29612 0.0
H2615 H 0.93087 0.49206 0.19821 0.0
H2616 H 0.91823 0.491 0.42546 0.0
H2617 H 0.92285 0.49761 0.54082 0.0
C2618 C 0.80955 0.22168 0.35253 0.0
C2619 C 0.81563 0.24266 0.29161 0.0
C2620 C 0.825 0.26485 0.43201 0.0
C2621 C 0.81846 0.2457 0.49341 0.0
N2622 N 0.80385 0.20834 0.51386 0.0
N2623 N 0.8276 0.28963 0.27436 0.0
C2624 C 0.81053 0.22488 0.45404 0.0
C2625 C 0.82299 0.26557 0.33165 0.0
N2626 N 0.80308 0.19781 0.31343 0.0
N2627 N 0.83309 0.2827 0.46948 0.0
H2628 H 0.82599 0.29218 0.2015 0.0
H2629 H 0.83221 0.30943 0.30031 0.0
H2630 H 0.83449 0.28473 0.54277 0.0
H2631 H 0.83886 0.29352 0.4277 0.0
H2632 H 0.7994 0.17869 0.35276 0.0
H2633 H 0.80185 0.19568 0.24002 0.0
H2634 H 0.79719 0.19617 0.49081 0.0
H2635 H 0.80464 0.20832 0.58812 0.0
C2636 C 0.93497 0.268 0.4302 0.0
C2637 C 0.94221 0.24474 0.47056 0.0
C2638 C 0.9473 0.22659 0.30833 0.0
C2639 C 0.93942 0.24764 0.26871 0.0
N2640 N 0.92493 0.28537 0.29219 0.0
N2641 N 0.95458 0.19919 0.44918 0.0
C2642 C 0.93295 0.2672 0.32987 0.0
C2643 C 0.94823 0.2234 0.40987 0.0
N2644 N 0.93046 0.29246 0.48713 0.0
N2645 N 0.95398 0.20987 0.24875 0.0
H2646 H 0.95575 0.19695 0.52265 0.0
H2647 H 0.95821 0.1799 0.4099 0.0
H2648 H 0.95325 0.20993 0.17443 0.0
H2649 H 0.9606 0.19749 0.27215 0.0
H2650 H 0.92595 0.31249 0.46084 0.0
H2651 H 0.93209 0.2951 0.55993 0.0
H2652 H 0.9192 0.29655 0.33387 0.0
H2653 H 0.92354 0.28734 0.21887 0.0
C2654 C 0.82371 0.51283 0.43513 0.0
C2655 C 0.81598 0.53455 0.47422 0.0
C2656 C 0.81049 0.55 0.31108 0.0
C2657 C 0.8188 0.53062 0.27249 0.0
N2658 N 0.83411 0.49697 0.29799 0.0
N2659 N 0.80275 0.57709 0.4501 0.0
C2660 C 0.8257 0.51333 0.33471 0.0
C2661 C 0.80954 0.55394 0.41233 0.0
N2662 N 0.82874 0.49001 0.49339 0.0
N2663 N 0.80341 0.56434 0.25089 0.0
H2664 H 0.80149 0.5796 0.52338 0.0
H2665 H 0.79885 0.59543 0.40951 0.0
H2666 H 0.80408 0.5637 0.17656 0.0
H2667 H 0.79654 0.57513 0.27407 0.0
H2668 H 0.83369 0.47099 0.46818 0.0
H2669 H 0.82716 0.48752 0.56633 0.0
H2670 H 0.84007 0.48765 0.34025 0.0
H2671 H 0.83554 0.49479 0.22477 0.0
C2672 C 0.06064 0.97668 0.06269 0.0
C2673 C 0.06842 0.99786 0.02202 0.0
C2674 C 0.0739 0.01538 0.18362 0.0
C2675 C 0.06603 0.99458 0.22435 0.0
N2676 N 0.05128 0.95793 0.20403 0.0
N2677 N 0.08136 0.04153 0.04155 0.0
C2678 C 0.0592 0.97603 0.16415 0.0
C2679 C 0.07483 0.01805 0.08197 0.0
N2680 N 0.05482 0.95639 1.00396 0.0
N2681 N 0.08041 0.03312 0.24251 0.0
H2682 H 0.08222 0.04451 0.96775 0.0
H2683 H 0.08544 0.05992 0.08012 0.0
H2684 H 0.07917 0.03598 0.31588 0.0
H2685 H 0.08722 0.04434 0.21963 0.0
H2686 H 0.04981 0.93741 0.02778 0.0
H2687 H 0.05535 0.95715 0.92961 0.0
H2688 H 0.04535 0.94673 0.16526 0.0
H2689 H 0.05023 0.95543 0.2776 0.0
C2690 C 0.19734 0.25327 0.04889 0.0
C2691 C 0.1869 0.25673 0.02028 0.0
C2692 C 0.18176 0.25888 0.19011 0.0
C2693 C 0.19221 0.25702 0.21879 0.0
N2694 N 0.21006 0.2569 0.17601 0.0
N2695 N 0.16935 0.268 0.06249 0.0
C2696 C 0.20003 0.25552 0.14814 0.0
C2697 C 0.17917 0.26117 0.09069 0.0
N2698 N 0.2047 0.24778 0.98085 0.0
N2699 N 0.17425 0.25765 0.25819 0.0
H2700 H 0.16711 0.26849 0.99079 0.0
H2701 H 0.16357 0.27556 0.10931 0.0
H2702 H 0.17582 0.25737 0.33134 0.0
H2703 H 0.16651 0.25468 0.24268 0.0
H2704 H 0.2122 0.24065 0.99656 0.0
H2705 H 0.20324 0.24886 0.90745 0.0
H2706 H 0.21615 0.26008 0.12881 0.0
H2707 H 0.21232 0.25719 0.24769 0.0
C2708 C 0.07262 0.30273 0.07997 0.0
C2709 C 0.06528 0.27924 0.04288 0.0
C2710 C 0.06103 0.26029 0.20628 0.0
C2711 C 0.06835 0.284 0.24395 0.0
N2712 N 0.08208 0.32448 0.21745 0.0
N2713 N 0.05319 0.23328 0.06672 0.0
C2714 C 0.07446 0.30421 0.1809 0.0
C2715 C 0.05962 0.25752 0.10511 0.0
N2716 N 0.0777 0.3241 0.01815 0.0
N2717 N 0.05553 0.23997 0.2678 0.0
H2718 H 0.05177 0.23124 0.99338 0.0
H2719 H 0.04953 0.21408 0.10585 0.0
H2720 H 0.0573 0.23747 0.34032 0.0
H2721 H 0.04914 0.22565 0.24825 0.0
H2722 H 0.08243 0.34427 0.03921 0.0
H2723 H 0.07677 0.32283 0.94406 0.0
H2724 H 0.08744 0.33758 0.17624 0.0
H2725 H 0.08353 0.32676 0.29043 0.0
C2726 C 0.19811 0.9764 0.19746 0.0
C2727 C 0.19029 0.99755 0.23771 0.0
C2728 C 0.18474 1.0145 0.0759 0.0
C2729 C 0.19262 0.9936 0.03553 0.0
N2730 N 0.20737 0.95688 0.05611 0.0
N2731 N 0.17721 0.0408 0.21757 0.0
C2732 C 0.1995 0.97528 0.09595 0.0
C2733 C 0.1838 0.01741 0.17748 0.0
N2734 N 0.20406 0.95669 0.25673 0.0
N2735 N 0.17823 0.03213 0.01669 0.0
H2736 H 0.17635 0.04394 0.29133 0.0
H2737 H 0.17305 0.05895 0.17879 0.0
H2738 H 0.17949 0.03488 0.94333 0.0
H2739 H 0.17141 0.04342 0.03925 0.0
H2740 H 0.2092 0.93798 0.23358 0.0
H2741 H 0.20354 0.95774 0.33106 0.0
H2742 H 0.2133 0.94559 0.09469 0.0
H2743 H 0.20836 0.95407 0.98255 0.0
C2744 C 0.9462 1.00743 0.94418 0.0
C2745 C 0.9395 0.03272 0.9834 0.0
C2746 C 0.93503 0.05148 0.82002 0.0
C2747 C 0.94251 0.02859 0.78215 0.0
N2748 N 0.95622 0.98803 0.808 0.0
N2749 N 0.92813 0.08105 0.95917 0.0
C2750 C 0.94843 1.00768 0.84433 0.0
C2751 C 0.93403 0.05529 0.92139 0.0
N2752 N 0.94998 0.98181 1.00165 0.0
N2753 N 0.92874 0.06914 0.75887 0.0
H2754 H 0.92683 0.08363 0.03234 0.0
H2755 H 0.92501 0.10105 0.91883 0.0
H2756 H 0.92948 0.06775 0.6846 0.0
H2757 H 0.92242 0.08342 0.78098 0.0
H2758 H 0.95406 0.96065 0.97579 0.0
H2759 H 0.9481 0.97953 0.07401 0.0
H2760 H 0.96155 0.97526 0.85073 0.0
H2761 H 0.95789 0.98673 0.73498 0.0
C2762 C 0.82428 0.76434 0.82433 0.0
C2763 C 0.81654 0.74277 0.78496 0.0
C2764 C 0.81102 0.72729 0.94793 0.0
C2765 C 0.81935 0.74641 0.98676 0.0
N2766 N 0.83471 0.77976 0.9616 0.0
N2767 N 0.80329 0.70038 0.80868 0.0
C2768 C 0.82627 0.76364 0.92473 0.0
C2769 C 0.81008 0.72343 0.84664 0.0
N2770 N 0.82931 0.78723 0.76639 0.0
N2771 N 0.80389 0.71312 0.0079 0.0
H2772 H 0.80206 0.69786 0.73536 0.0
H2773 H 0.79936 0.68211 0.84916 0.0
H2774 H 0.80454 0.71375 0.08224 0.0
H2775 H 0.79701 0.70252 0.9845 0.0
H2776 H 0.83427 0.80613 0.79189 0.0
H2777 H 0.82772 0.78991 0.69354 0.0
H2778 H 0.84068 0.78901 0.91941 0.0
H2779 H 0.83614 0.7818 0.03484 0.0
C2780 C 0.94592 0.77471 0.8143 0.0
C2781 C 0.93964 0.74843 0.77415 0.0
C2782 C 0.93562 0.72793 0.937 0.0
C2783 C 0.94276 0.75184 0.97547 0.0
N2784 N 0.95579 0.79482 0.95052 0.0
N2785 N 0.92917 0.69783 0.79705 0.0
C2786 C 0.94827 0.77416 0.91389 0.0
C2787 C 0.93461 0.72451 0.8355 0.0
N2788 N 0.94916 0.80149 0.7581 0.0
N2789 N 0.92965 0.7089 0.99768 0.0
H2790 H 0.92788 0.6953 0.72387 0.0
H2791 H 0.92644 0.67707 0.83692 0.0
H2792 H 0.93046 0.7098 0.07197 0.0
H2793 H 0.92349 0.69392 0.97516 0.0
H2794 H 0.9529 0.82316 0.78492 0.0
H2795 H 0.94712 0.80402 0.68619 0.0
H2796 H 0.96086 0.80879 0.90793 0.0
H2797 H 0.95755 0.79579 0.0234 0.0
C2798 C 0.81352 1.00152 0.81481 0.0
C2799 C 0.81954 0.02845 0.77463 0.0
C2800 C 0.82332 0.04957 0.9374 0.0
C2801 C 0.81636 0.02505 0.97579 0.0
N2802 N 0.80375 0.98067 0.95078 0.0
N2803 N 0.82954 0.08016 0.7974 0.0
C2804 C 0.81111 1.002 0.91427 0.0
C2805 C 0.82432 0.05299 0.83592 0.0
N2806 N 0.81057 0.97431 0.75878 0.0
N2807 N 0.82914 0.06906 0.99817 0.0
H2808 H 0.83079 0.0828 0.72419 0.0
H2809 H 0.83212 0.10114 0.83721 0.0
H2810 H 0.82844 0.0676 0.07246 0.0
H2811 H 0.83512 0.08484 0.97576 0.0
H2812 H 0.80704 0.95226 0.78573 0.0
H2813 H 0.81267 0.9719 0.68697 0.0
H2814 H 0.79886 0.96602 0.90813 0.0
H2815 H 0.80192 0.97983 0.02354 0.0
C2816 C 0.57524 0.5166 0.07501 0.0
C2817 C 0.5687 0.49724 0.01416 0.0
C2818 C 0.5599 0.47331 0.15568 0.0
C2819 C 0.56597 0.49454 0.21607 0.0
N2820 N 0.57787 0.54177 0.23217 0.0
N2821 N 0.55414 0.45956 0.99478 0.0
C2822 C 0.57327 0.51749 0.17543 0.0
C2823 C 0.56082 0.47633 0.05411 0.0
N2824 N 0.58328 0.53451 0.03696 0.0
N2825 N 0.5535 0.44937 0.19533 0.0
H2826 H 0.55489 0.4594 0.92049 0.0
H2827 H 0.54751 0.44731 0.01825 0.0
H2828 H 0.55233 0.44725 0.26882 0.0
H2829 H 0.54981 0.43015 0.15636 0.0
H2830 H 0.58906 0.5455 0.07835 0.0
H2831 H 0.58464 0.53643 0.96358 0.0
H2832 H 0.58244 0.5616 0.20572 0.0
H2833 H 0.57629 0.54447 0.30505 0.0
C2834 C 0.6983 0.75488 0.16325 0.0
C2835 C 0.69289 0.77752 0.22484 0.0
C2836 C 0.68486 0.80528 0.08492 0.0
C2837 C 0.68979 0.78109 0.02355 0.0
N2838 N 0.69907 0.72748 0.00744 0.0
N2839 N 0.67994 0.8211 0.24712 0.0
C2840 C 0.69595 0.75444 0.06367 0.0
C2841 C 0.68584 0.80179 0.18641 0.0
N2842 N 0.70574 0.73382 0.19985 0.0
N2843 N 0.67953 0.83227 0.04649 0.0
H2844 H 0.68072 0.82008 0.32143 0.0
H2845 H 0.67384 0.8364 0.22459 0.0
H2846 H 0.67828 0.83491 0.97328 0.0
H2847 H 0.67687 0.85313 0.08641 0.0
H2848 H 0.71074 0.71955 0.15723 0.0
H2849 H 0.7075 0.73281 0.27271 0.0
H2850 H 0.70271 0.70559 0.03425 0.0
H2851 H 0.69701 0.72506 0.93553 0.0
C2852 C 0.57164 0.75485 0.17389 0.0
C2853 C 0.5665 0.77869 0.23448 0.0
C2854 C 0.55868 0.80592 0.09246 0.0
C2855 C 0.56481 0.78502 0.03153 0.0
N2856 N 0.57736 0.73962 0.01393 0.0
N2857 N 0.55652 0.83094 0.25029 0.0
C2858 C 0.5714 0.75962 0.07235 0.0
C2859 C 0.56032 0.80514 0.19349 0.0
N2860 N 0.5763 0.72655 0.21308 0.0
N2861 N 0.55122 0.82643 0.05432 0.0
H2862 H 0.55784 0.83229 0.32388 0.0
H2863 H 0.55302 0.85304 0.22324 0.0
H2864 H 0.5498 0.82807 0.98111 0.0
H2865 H 0.54579 0.83931 0.09572 0.0
H2866 H 0.57923 0.70619 0.17285 0.0
H2867 H 0.57644 0.72174 0.28658 0.0
H2868 H 0.58336 0.72435 0.03882 0.0
H2869 H 0.57659 0.73916 0.93958 0.0
C2870 C 0.68464 0.47947 0.07544 0.0
C2871 C 0.69238 0.50137 0.03767 0.0
C2872 C 0.69629 0.52189 0.19987 0.0
C2873 C 0.68934 0.49738 0.23901 0.0
N2874 N 0.67754 0.45037 0.21407 0.0
N2875 N 0.70654 0.54 0.06398 0.0
C2876 C 0.68364 0.47559 0.17675 0.0
C2877 C 0.69853 0.52138 0.10005 0.0
N2878 N 0.67815 0.46275 0.01432 0.0
N2879 N 0.70028 0.54715 0.25728 0.0
H2880 H 0.70822 0.54122 0.99099 0.0
H2881 H 0.71201 0.55192 0.10695 0.0
H2882 H 0.69835 0.54982 0.32944 0.0
H2883 H 0.70457 0.56778 0.2314 0.0
H2884 H 0.67161 0.44967 0.0366 0.0
H2885 H 0.67894 0.46374 0.94006 0.0
H2886 H 0.67429 0.43073 0.17324 0.0
H2887 H 0.6762 0.44776 0.28714 0.0
C2888 C 0.43489 0.51436 0.82258 0.0
C2889 C 0.44273 0.53577 0.78438 0.0
C2890 C 0.44832 0.54994 0.94804 0.0
C2891 C 0.43989 0.53101 0.98588 0.0
N2892 N 0.42441 0.49851 0.95904 0.0
N2893 N 0.45621 0.57715 0.8101 0.0
C2894 C 0.4329 0.51449 0.923 0.0
C2895 C 0.44929 0.55433 0.84698 0.0
N2896 N 0.42976 0.49214 0.76341 0.0
N2897 N 0.4555 0.56339 0.0087 0.0
H2898 H 0.4575 0.57985 0.73691 0.0
H2899 H 0.46021 0.595 0.85143 0.0
H2900 H 0.45483 0.56257 0.08302 0.0
H2901 H 0.46245 0.57363 0.98579 0.0
H2902 H 0.42471 0.47333 0.78783 0.0
H2903 H 0.43134 0.48988 0.69041 0.0
H2904 H 0.4184 0.48982 0.9164 0.0
H2905 H 0.42297 0.496 0.03216 0.0
C2906 C 0.3232 0.26627 0.81942 0.0
C2907 C 0.31571 0.24382 0.77953 0.0
C2908 C 0.31056 0.2265 0.94232 0.0
C2909 C 0.31865 0.2467 0.98146 0.0
N2910 N 0.33349 0.28262 0.95681 0.0
N2911 N 0.30294 0.19973 0.80227 0.0
C2912 C 0.32527 0.26536 0.91973 0.0
C2913 C 0.30953 0.22328 0.84085 0.0
N2914 N 0.3279 0.29013 0.7621 0.0
N2915 N 0.30375 0.21062 1.00228 0.0
H2916 H 0.30159 0.1978 0.72903 0.0
H2917 H 0.29927 0.18067 0.84198 0.0
H2918 H 0.30456 0.21041 0.07654 0.0
H2919 H 0.29697 0.19919 0.9792 0.0
H2920 H 0.33264 0.30961 0.78799 0.0
H2921 H 0.32624 0.29292 0.68942 0.0
H2922 H 0.3393 0.29303 0.91472 0.0
H2923 H 0.33494 0.28453 0.03003 0.0
C2924 C 0.43418 0.22463 0.83754 0.0
C2925 C 0.43918 0.24872 0.77651 0.0
C2926 C 0.44788 0.274 0.91652 0.0
C2927 C 0.44236 0.25161 0.97784 0.0
N2928 N 0.42921 0.20882 0.99958 0.0
N2929 N 0.4487 0.30184 0.76145 0.0
C2930 C 0.43519 0.22786 0.93909 0.0
C2931 C 0.44548 0.27488 0.81706 0.0
N2932 N 0.42874 0.19798 0.79874 0.0
N2933 N 0.45546 0.2944 0.95326 0.0
H2934 H 0.4466 0.30466 0.68976 0.0
H2935 H 0.45246 0.3234 0.78871 0.0
H2936 H 0.45727 0.29504 0.02605 0.0
H2937 H 0.46052 0.30841 0.91073 0.0
H2938 H 0.42597 0.17724 0.83839 0.0
H2939 H 0.42751 0.19542 0.72549 0.0
H2940 H 0.42307 0.19376 0.97695 0.0
H2941 H 0.42997 0.20987 0.07387 0.0
C2942 C 0.30869 0.55547 0.91061 0.0
C2943 C 0.31442 0.53362 0.97231 0.0
C2944 C 0.32131 0.50255 0.83139 0.0
C2945 C 0.3161 0.52595 0.76985 0.0
N2946 N 0.30627 0.57831 0.7504 0.0
N2947 N 0.3245 0.48209 0.9938 0.0
C2948 C 0.31006 0.55311 0.80933 0.0
C2949 C 0.32035 0.50612 0.93315 0.0
N2950 N 0.30177 0.57811 0.9486 0.0
N2951 N 0.32721 0.47697 0.79217 0.0
H2952 H 0.32346 0.48272 0.06787 0.0
H2953 H 0.32834 0.45995 0.9719 0.0
H2954 H 0.3274 0.47177 0.7189 0.0
H2955 H 0.33219 0.46133 0.83077 0.0
H2956 H 0.29652 0.59199 0.90783 0.0
H2957 H 0.3006 0.58083 0.02192 0.0
H2958 H 0.30294 0.60105 0.77513 0.0
H2959 H 0.30736 0.57844 0.6764 0.0
C2960 C 0.55985 0.97906 0.5607 0.0
C2961 C 0.56624 1.0054 0.52198 0.0
C2962 C 0.56996 0.02612 0.68516 0.0
C2963 C 0.56431 0.9981 0.72437 0.0
N2964 N 0.5537 0.94811 0.70106 0.0
N2965 N 0.57802 0.05244 0.54651 0.0
C2966 C 0.55908 0.9749 0.66242 0.0
C2967 C 0.5715 0.02839 0.58409 0.0
N2968 N 0.55469 0.95748 0.49982 0.0
N2969 N 0.57334 0.0518 0.74458 0.0
H2970 H 0.5788 0.05676 0.47315 0.0
H2971 H 0.58312 0.06682 0.58758 0.0
H2972 H 0.57196 0.05192 0.81821 0.0
H2973 H 0.57659 0.07474 0.72051 0.0
H2974 H 0.54903 0.94028 0.52106 0.0
H2975 H 0.55589 0.95709 0.42599 0.0
H2976 H 0.5506 0.92783 0.66196 0.0
H2977 H 0.5525 0.94555 0.77434 0.0
C2978 C 0.69803 0.25789 0.66015 0.0
C2979 C 0.69211 0.27908 0.72184 0.0
C2980 C 0.68289 0.30323 0.58289 0.0
C2981 C 0.68924 0.28356 0.52041 0.0
N2982 N 0.70251 0.24086 0.49795 0.0
N2983 N 0.67932 0.32295 0.74519 0.0
C2984 C 0.69674 0.2606 0.55883 0.0
C2985 C 0.68462 0.3019 0.68398 0.0
N2986 N 0.70455 0.234 0.69909 0.0
N2987 N 0.67516 0.32289 0.54569 0.0
H2988 H 0.68017 0.32184 0.81938 0.0
H2989 H 0.67448 0.34279 0.72354 0.0
H2990 H 0.67383 0.32545 0.47258 0.0
H2991 H 0.66959 0.33526 0.58644 0.0
H2992 H 0.70838 0.21509 0.66015 0.0
H2993 H 0.70584 0.2318 0.77261 0.0
H2994 H 0.70905 0.2274 0.51822 0.0
H2995 H 0.70084 0.23804 0.42531 0.0
C2996 C 0.56055 0.2532 0.59063 0.0
C2997 C 0.56587 0.27598 0.52896 0.0
C2998 C 0.57386 0.30395 0.66871 0.0
C2999 C 0.56901 0.27965 0.73014 0.0
N3000 N 0.5599 0.22577 0.74636 0.0
N3001 N 0.57877 0.31957 0.50638 0.0
C3002 C 0.56293 0.25281 0.69013 0.0
C3003 C 0.57288 0.30036 0.56724 0.0
N3004 N 0.55313 0.23204 0.55421 0.0
N3005 N 0.57912 0.33107 0.70709 0.0
H3006 H 0.57811 0.31795 0.43209 0.0
H3007 H 0.58479 0.33523 0.52878 0.0
H3008 H 0.58031 0.3339 0.78034 0.0
H3009 H 0.58179 0.35186 0.66708 0.0
H3010 H 0.54819 0.21762 0.59694 0.0
H3011 H 0.55132 0.23112 0.48142 0.0
H3012 H 0.55633 0.20378 0.71954 0.0
H3013 H 0.56198 0.22341 0.81823 0.0
C3014 C 0.68321 1.01409 0.67905 0.0
C3015 C 0.69005 0.99648 0.74121 0.0
C3016 C 0.69926 0.97294 0.6013 0.0
C3017 C 0.69288 0.99259 0.53962 0.0
N3018 N 0.68015 0.03716 0.52005 0.0
N3019 N 0.70519 0.96153 0.763 0.0
C3020 C 0.68517 1.01443 0.57859 0.0
C3021 C 0.69826 0.97662 0.70262 0.0
N3022 N 0.67487 0.03085 0.71589 0.0
N3023 N 0.70605 0.94988 0.56305 0.0
H3024 H 0.70442 0.96187 0.83727 0.0
H3025 H 0.712 0.95023 0.74028 0.0
H3026 H 0.7073 0.94756 0.48967 0.0
H3027 H 0.71001 0.93155 0.6031 0.0
H3028 H 0.66893 0.04043 0.6738 0.0
H3029 H 0.67347 0.03317 0.78911 0.0
H3030 H 0.67522 0.05631 0.54496 0.0
H3031 H 0.68167 0.03935 0.44694 0.0
C3032 C 0.4356 1.01181 0.3349 0.0
C3033 C 0.44282 0.03498 0.29402 0.0
C3034 C 0.44791 0.0536 0.45589 0.0
C3035 C 0.44009 0.03247 0.4962 0.0
N3036 N 0.42576 0.99405 0.47377 0.0
N3037 N 0.4552 0.08045 0.31429 0.0
C3038 C 0.43366 1.01259 0.43547 0.0
C3039 C 0.44885 0.05643 0.35425 0.0
N3040 N 0.43103 0.98748 0.27812 0.0
N3041 N 0.45451 0.07085 0.51494 0.0
H3042 H 0.45638 0.08244 0.24078 0.0
H3043 H 0.45885 0.09983 0.35293 0.0
H3044 H 0.45372 0.07135 0.58914 0.0
H3045 H 0.46111 0.08323 0.4914 0.0
H3046 H 0.42655 0.96742 0.30446 0.0
H3047 H 0.43254 0.98507 0.20505 0.0
H3048 H 0.42001 0.98276 0.43265 0.0
H3049 H 0.42449 0.99169 0.54718 0.0
C3050 C 0.32097 0.76926 0.32061 0.0
C3051 C 0.31451 0.74348 0.28002 0.0
C3052 C 0.31013 0.72334 0.4422 0.0
C3053 C 0.31621 0.75008 0.48292 0.0
N3054 N 0.32579 0.80256 0.46118 0.0
N3055 N 0.30118 0.70123 0.30306 0.0
C3056 C 0.32123 0.77408 0.42214 0.0
C3057 C 0.3085 0.72229 0.34113 0.0
N3058 N 0.32681 0.78955 0.26196 0.0
N3059 N 0.30642 0.69753 0.49936 0.0
H3060 H 0.29981 0.69935 0.22982 0.0
H3061 H 0.29582 0.68805 0.34441 0.0
H3062 H 0.30772 0.69641 0.573 0.0
H3063 H 0.303 0.67525 0.4727 0.0
H3064 H 0.33274 0.80513 0.28658 0.0
H3065 H 0.32599 0.78996 0.18764 0.0
H3066 H 0.32863 0.82304 0.42089 0.0
H3067 H 0.32596 0.80737 0.53469 0.0
C3068 C 0.43572 0.76665 0.43205 0.0
C3069 C 0.44312 0.74397 0.47264 0.0
C3070 C 0.44833 0.72602 0.31054 0.0
C3071 C 0.44034 0.7465 0.27051 0.0
N3072 N 0.4257 0.78366 0.29355 0.0
N3073 N 0.4558 0.69941 0.45154 0.0
C3074 C 0.43377 0.76577 0.33152 0.0
C3075 C 0.44928 0.72307 0.41209 0.0
N3076 N 0.43102 0.79065 0.48902 0.0
N3077 N 0.45512 0.70961 0.25139 0.0
H3078 H 0.4571 0.69764 0.5249 0.0
H3079 H 0.45946 0.6801 0.41251 0.0
H3080 H 0.45436 0.70913 0.17714 0.0
H3081 H 0.46185 0.69798 0.27507 0.0
H3082 H 0.42638 0.81037 0.46284 0.0
H3083 H 0.43256 0.79322 0.56197 0.0
H3084 H 0.41989 0.79446 0.33493 0.0
H3085 H 0.42439 0.78591 0.22018 0.0
C3086 C 0.30951 0.05411 0.40981 0.0
C3087 C 0.31598 0.03488 0.47175 0.0
C3088 C 0.32569 1.01354 0.33226 0.0
C3089 C 0.31877 0.03077 0.27001 0.0
N3090 N 0.30339 0.06452 0.24833 0.0
N3091 N 0.32878 0.99048 0.49115 0.0
C3092 C 0.31047 0.05016 0.30856 0.0
C3093 C 0.32373 1.01317 0.43273 0.0
N3094 N 0.30269 0.07716 0.44751 0.0
N3095 N 0.33409 0.99713 0.29553 0.0
H3096 H 0.32722 0.98809 0.56415 0.0
H3097 H 0.33374 0.97146 0.46609 0.0
H3098 H 0.33549 0.99477 0.22231 0.0
H3099 H 0.34007 0.98789 0.33773 0.0
H3100 H 0.29878 0.09545 0.40689 0.0
H3101 H 0.30139 0.07957 0.52076 0.0
H3102 H 0.29649 0.07513 0.27148 0.0
H3103 H 0.3041 0.06419 0.174 0.0
loop_
_geom_bond_atom_site_label_1
_geom_bond_atom_site_label_2
_geom_bond_distance
_geom_bond_site_symmetry_2
_ccdc_geom_bond_type
Zn0 N4 2.020 . S
Zn0 O8 2.019 . S
Zn0 N10 2.119 . S
Zn0 O18 1.975 . S
C1 N2 1.334 . S
C1 N5 1.336 . S
N2 C1 1.334 . S
N2 C3 1.334 . S
C3 N2 1.334 . S
C3 N4 1.336 . S
N4 Zn0 2.020 . S
N4 C3 1.336 . S
N4 N5 1.354 . S
N5 C1 1.336 . S
N5 N4 1.354 . S
N5 Zn9 2.020 1_554 S
C6 O7 1.244 . S
C6 O30 1.257 . S
O7 C6 1.244 . S
O8 Zn0 2.019 . S
O8 C28 1.257 . S
Zn9 N5 2.020 1_556 S
Zn9 O16 1.975 1_556 S
Zn9 N25 2.119 1_556 S
Zn9 O30 2.019 . S
N10 Zn0 2.119 . S
N10 C12 1.334 . S
N10 C13 1.328 . S
C11 C12 1.391 . S
C11 N14 1.329 . S
C11 H32 0.930 1_554 S
C12 N10 1.334 . S
C12 C11 1.391 . S
C12 H19 0.930 . S
C13 N10 1.328 . S
C13 C15 1.392 . S
C13 H20 0.930 . S
N14 C11 1.329 . S
N14 C15 1.331 . S
C15 C13 1.392 . S
C15 N14 1.331 . S
O16 Zn9 1.975 1_554 S
O16 C17 1.252 . S
C17 O16 1.252 . S
C17 O18 1.252 . S
O18 Zn0 1.975 . S
O18 C17 1.252 . S
H19 C12 0.930 . S
H20 C13 0.930 . S
C21 C22 1.392 . S
C21 N25 1.328 1_556 S
C21 H27 0.930 . S
C22 C21 1.392 . S
C22 N26 1.331 1_556 S
C23 C24 1.391 . S
C23 N26 1.329 . S
C23 H33 0.930 . S
C24 C23 1.391 . S
C24 N25 1.334 . S
C24 H31 0.930 . S
N25 Zn9 2.119 1_554 S
N25 C21 1.328 1_554 S
N25 C24 1.334 . S
N26 C22 1.331 1_554 S
N26 C23 1.329 . S
H27 C21 0.930 . S
C28 O8 1.257 . S
C28 O29 1.244 . S
O29 C28 1.244 . S
O30 C6 1.257 . S
O30 Zn9 2.019 . S
H31 C24 0.930 . S
H32 C11 0.930 1_556 S
H33 C23 0.930 . S
Zn34 N38 2.020 . S
Zn34 O42 2.019 . S
Zn34 N44 2.119 . S
Zn34 O52 1.975 . S
C35 N36 1.334 . S
C35 N39 1.336 . S
N36 C35 1.334 . S
N36 C37 1.334 . S
C37 N36 1.334 . S
C37 N38 1.336 . S
N38 Zn34 2.020 . S
N38 C37 1.336 . S
N38 N39 1.354 . S
N39 C35 1.336 . S
N39 N38 1.354 . S
N39 Zn43 2.020 1_554 S
C40 O41 1.244 . S
C40 O64 1.257 . S
O41 C40 1.244 . S
O42 Zn34 2.019 . S
O42 C62 1.257 . S
Zn43 N39 2.020 1_556 S
Zn43 O50 1.975 1_556 S
Zn43 N59 2.119 1_556 S
Zn43 O64 2.019 . S
N44 Zn34 2.119 . S
N44 C46 1.334 . S
N44 C47 1.328 . S
C45 C46 1.391 . S
C45 N48 1.329 . S
C45 H66 0.930 1_554 S
C46 N44 1.334 . S
C46 C45 1.391 . S
C46 H53 0.930 . S
C47 N44 1.328 . S
C47 C49 1.392 . S
C47 H54 0.930 . S
N48 C45 1.329 . S
N48 C49 1.331 . S
C49 C47 1.392 . S
C49 N48 1.331 . S
O50 Zn43 1.975 1_554 S
O50 C51 1.252 . S
C51 O50 1.252 . S
C51 O52 1.252 . S
O52 Zn34 1.975 . S
O52 C51 1.252 . S
H53 C46 0.930 . S
H54 C47 0.930 . S
C55 C56 1.392 . S
C55 N59 1.328 1_556 S
C55 H61 0.930 . S
C56 C55 1.392 . S
C56 N60 1.331 1_556 S
C57 C58 1.391 . S
C57 N60 1.329 . S
C57 H67 0.930 . S
C58 C57 1.391 . S
C58 N59 1.334 . S
C58 H65 0.930 . S
N59 Zn43 2.119 1_554 S
N59 C55 1.328 1_554 S
N59 C58 1.334 . S
N60 C56 1.331 1_554 S
N60 C57 1.329 . S
H61 C55 0.930 . S
C62 O42 1.257 . S
C62 O63 1.244 . S
O63 C62 1.244 . S
O64 C40 1.257 . S
O64 Zn43 2.019 . S
H65 C58 0.930 . S
H66 C45 0.930 1_556 S
H67 C57 0.930 . S
Zn68 N72 2.020 . S
Zn68 O76 2.019 . S
Zn68 N78 2.119 . S
Zn68 O86 1.975 . S
C69 N70 1.334 . S
C69 N73 1.336 . S
N70 C69 1.334 . S
N70 C71 1.334 . S
C71 N70 1.334 . S
C71 N72 1.336 . S
N72 Zn68 2.020 . S
N72 C71 1.336 . S
N72 N73 1.354 . S
N73 C69 1.336 . S
N73 N72 1.354 . S
N73 Zn77 2.020 . S
C74 O75 1.244 . S
C74 O98 1.257 . S
O75 C74 1.244 . S
O76 Zn68 2.019 . S
O76 C96 1.257 . S
Zn77 N73 2.020 . S
Zn77 O84 1.975 . S
Zn77 N93 2.119 . S
Zn77 O98 2.019 1_554 S
N78 Zn68 2.119 . S
N78 C80 1.334 . S
N78 C81 1.328 . S
C79 C80 1.391 . S
C79 N82 1.329 . S
C79 H100 0.930 . S
C80 N78 1.334 . S
C80 C79 1.391 . S
C80 H87 0.930 . S
C81 N78 1.328 . S
C81 C83 1.392 . S
C81 H88 0.930 . S
N82 C79 1.329 . S
N82 C83 1.331 . S
C83 C81 1.392 . S
C83 N82 1.331 . S
O84 Zn77 1.975 . S
O84 C85 1.252 . S
C85 O84 1.252 . S
C85 O86 1.252 . S
O86 Zn68 1.975 . S
O86 C85 1.252 . S
H87 C80 0.930 . S
H88 C81 0.930 . S
C89 C90 1.392 . S
C89 N93 1.328 . S
C89 H95 0.930 1_554 S
C90 C89 1.392 . S
C90 N94 1.331 . S
C91 C92 1.391 . S
C91 N94 1.329 . S
C91 H101 0.930 . S
C92 C91 1.391 . S
C92 N93 1.334 . S
C92 H99 0.930 . S
N93 Zn77 2.119 . S
N93 C89 1.328 . S
N93 C92 1.334 . S
N94 C90 1.331 . S
N94 C91 1.329 . S
H95 C89 0.930 1_556 S
C96 O76 1.257 . S
C96 O97 1.244 . S
O97 C96 1.244 . S
O98 C74 1.257 . S
O98 Zn77 2.019 1_556 S
H99 C92 0.930 . S
H100 C79 0.930 . S
H101 C91 0.930 . S
Zn102 N106 2.020 . S
Zn102 O110 2.019 1_554 S
Zn102 N112 2.119 . S
Zn102 O120 1.975 . S
C103 N104 1.334 . S
C103 N107 1.336 . S
N104 C103 1.334 . S
N104 C105 1.334 . S
C105 N104 1.334 . S
C105 N106 1.336 . S
N106 Zn102 2.020 . S
N106 C105 1.336 . S
N106 N107 1.354 . S
N107 C103 1.336 . S
N107 N106 1.354 . S
N107 Zn111 2.020 . S
C108 O109 1.244 . S
C108 O132 1.257 . S
O109 C108 1.244 . S
O110 Zn102 2.019 1_556 S
O110 C130 1.257 . S
Zn111 N107 2.020 . S
Zn111 O118 1.975 . S
Zn111 N127 2.119 . S
Zn111 O132 2.019 . S
N112 Zn102 2.119 . S
N112 C114 1.334 . S
N112 C115 1.328 . S
C113 C114 1.391 . S
C113 N116 1.329 . S
C113 H134 0.930 . S
C114 N112 1.334 . S
C114 C113 1.391 . S
C114 H121 0.930 . S
C115 N112 1.328 . S
C115 C117 1.392 . S
C115 H122 0.930 1_554 S
N116 C113 1.329 . S
N116 C117 1.331 . S
C117 C115 1.392 . S
C117 N116 1.331 . S
O118 Zn111 1.975 . S
O118 C119 1.252 . S
C119 O118 1.252 . S
C119 O120 1.252 . S
O120 Zn102 1.975 . S
O120 C119 1.252 . S
H121 C114 0.930 . S
H122 C115 0.930 1_556 S
C123 C124 1.392 . S
C123 N127 1.328 . S
C123 H129 0.930 . S
C124 C123 1.392 . S
C124 N128 1.331 . S
C125 C126 1.391 . S
C125 N128 1.329 . S
C125 H135 0.930 . S
C126 C125 1.391 . S
C126 N127 1.334 . S
C126 H133 0.930 . S
N127 Zn111 2.119 . S
N127 C123 1.328 . S
N127 C126 1.334 . S
N128 C124 1.331 . S
N128 C125 1.329 . S
H129 C123 0.930 . S
C130 O110 1.257 . S
C130 O131 1.244 . S
O131 C130 1.244 . S
O132 C108 1.257 . S
O132 Zn111 2.019 . S
H133 C126 0.930 . S
H134 C113 0.930 . S
H135 C125 0.930 . S
Zn136 N140 2.020 . S
Zn136 O144 2.019 . S
Zn136 N146 2.119 . S
Zn136 O154 1.975 . S
C137 N138 1.334 . S
C137 N141 1.336 . S
N138 C137 1.334 . S
N138 C139 1.334 . S
C139 N138 1.334 . S
C139 N140 1.336 . S
N140 Zn136 2.020 . S
N140 C139 1.336 . S
N140 N141 1.354 . S
N141 C137 1.336 . S
N141 N140 1.354 . S
N141 Zn145 2.020 1_556 S
C142 O143 1.244 . S
C142 O166 1.257 . S
O143 C142 1.244 . S
O144 Zn136 2.019 . S
O144 C164 1.257 . S
Zn145 N141 2.020 1_554 S
Zn145 O152 1.975 1_554 S
Zn145 N161 2.119 1_554 S
Zn145 O166 2.019 . S
N146 Zn136 2.119 . S
N146 C148 1.334 . S
N146 C149 1.328 . S
C147 C148 1.391 . S
C147 N150 1.329 . S
C147 H168 0.930 1_556 S
C148 N146 1.334 . S
C148 C147 1.391 . S
C148 H155 0.930 . S
C149 N146 1.328 . S
C149 C151 1.392 . S
C149 H156 0.930 . S
N150 C147 1.329 . S
N150 C151 1.331 . S
C151 C149 1.392 . S
C151 N150 1.331 . S
O152 Zn145 1.975 1_556 S
O152 C153 1.252 . S
C153 O152 1.252 . S
C153 O154 1.252 . S
O154 Zn136 1.975 . S
O154 C153 1.252 . S
H155 C148 0.930 . S
H156 C149 0.930 . S
C157 C158 1.392 . S
C157 N161 1.328 1_554 S
C157 H163 0.930 . S
C158 C157 1.392 . S
C158 N162 1.331 1_554 S
C159 C160 1.391 . S
C159 N162 1.329 . S
C159 H169 0.930 . S
C160 C159 1.391 . S
C160 N161 1.334 . S
C160 H167 0.930 . S
N161 Zn145 2.119 1_556 S
N161 C157 1.328 1_556 S
N161 C160 1.334 . S
N162 C158 1.331 1_556 S
N162 C159 1.329 . S
H163 C157 0.930 . S
C164 O144 1.257 . S
C164 O165 1.244 . S
O165 C164 1.244 . S
O166 C142 1.257 . S
O166 Zn145 2.019 . S
H167 C160 0.930 . S
H168 C147 0.930 1_554 S
H169 C159 0.930 . S
Zn170 N174 2.020 . S
Zn170 O178 2.019 . S
Zn170 N180 2.119 . S
Zn170 O188 1.975 . S
C171 N172 1.334 . S
C171 N175 1.336 . S
N172 C171 1.334 . S
N172 C173 1.334 . S
C173 N172 1.334 . S
C173 N174 1.336 . S
N174 Zn170 2.020 . S
N174 C173 1.336 . S
N174 N175 1.354 . S
N175 C171 1.336 . S
N175 N174 1.354 . S
N175 Zn179 2.020 1_556 S
C176 O177 1.244 . S
C176 O200 1.257 . S
O177 C176 1.244 . S
O178 Zn170 2.019 . S
O178 C198 1.257 . S
Zn179 N175 2.020 1_554 S
Zn179 O186 1.975 1_554 S
Zn179 N195 2.119 1_554 S
Zn179 O200 2.019 . S
N180 Zn170 2.119 . S
N180 C182 1.334 . S
N180 C183 1.328 . S
C181 C182 1.391 . S
C181 N184 1.329 . S
C181 H202 0.930 1_556 S
C182 N180 1.334 . S
C182 C181 1.391 . S
C182 H189 0.930 . S
C183 N180 1.328 . S
C183 C185 1.392 . S
C183 H190 0.930 . S
N184 C181 1.329 . S
N184 C185 1.331 . S
C185 C183 1.392 . S
C185 N184 1.331 . S
O186 Zn179 1.975 1_556 S
O186 C187 1.252 . S
C187 O186 1.252 . S
C187 O188 1.252 . S
O188 Zn170 1.975 . S
O188 C187 1.252 . S
H189 C182 0.930 . S
H190 C183 0.930 . S
C191 C192 1.392 . S
C191 N195 1.328 1_554 S
C191 H197 0.930 . S
C192 C191 1.392 . S
C192 N196 1.331 1_554 S
C193 C194 1.391 . S
C193 N196 1.329 . S
C193 H203 0.930 . S
C194 C193 1.391 . S
C194 N195 1.334 . S
C194 H201 0.930 . S
N195 Zn179 2.119 1_556 S
N195 C191 1.328 1_556 S
N195 C194 1.334 . S
N196 C192 1.331 1_556 S
N196 C193 1.329 . S
H197 C191 0.930 . S
C198 O178 1.257 . S
C198 O199 1.244 . S
O199 C198 1.244 . S
O200 C176 1.257 . S
O200 Zn179 2.019 . S
H201 C194 0.930 . S
H202 C181 0.930 1_554 S
H203 C193 0.930 . S
Zn204 N208 2.020 . S
Zn204 O212 2.019 1_556 S
Zn204 N214 2.119 . S
Zn204 O222 1.975 . S
C205 N206 1.334 . S
C205 N209 1.336 . S
N206 C205 1.334 . S
N206 C207 1.334 . S
C207 N206 1.334 . S
C207 N208 1.336 . S
N208 Zn204 2.020 . S
N208 C207 1.336 . S
N208 N209 1.354 . S
N209 C205 1.336 . S
N209 N208 1.354 . S
N209 Zn213 2.020 . S
C210 O211 1.244 . S
C210 O234 1.257 . S
O211 C210 1.244 . S
O212 Zn204 2.019 1_554 S
O212 C232 1.257 . S
Zn213 N209 2.020 . S
Zn213 O220 1.975 . S
Zn213 N229 2.119 . S
Zn213 O234 2.019 . S
N214 Zn204 2.119 . S
N214 C216 1.334 . S
N214 C217 1.328 . S
C215 C216 1.391 . S
C215 N218 1.329 . S
C215 H236 0.930 . S
C216 N214 1.334 . S
C216 C215 1.391 . S
C216 H223 0.930 . S
C217 N214 1.328 . S
C217 C219 1.392 . S
C217 H224 0.930 1_556 S
N218 C215 1.329 . S
N218 C219 1.331 . S
C219 C217 1.392 . S
C219 N218 1.331 . S
O220 Zn213 1.975 . S
O220 C221 1.252 . S
C221 O220 1.252 . S
C221 O222 1.252 . S
O222 Zn204 1.975 . S
O222 C221 1.252 . S
H223 C216 0.930 . S
H224 C217 0.930 1_554 S
C225 C226 1.392 . S
C225 N229 1.328 . S
C225 H231 0.930 . S
C226 C225 1.392 . S
C226 N230 1.331 . S
C227 C228 1.391 . S
C227 N230 1.329 . S
C227 H237 0.930 . S
C228 C227 1.391 . S
C228 N229 1.334 . S
C228 H235 0.930 . S
N229 Zn213 2.119 . S
N229 C225 1.328 . S
N229 C228 1.334 . S
N230 C226 1.331 . S
N230 C227 1.329 . S
H231 C225 0.930 . S
C232 O212 1.257 . S
C232 O233 1.244 . S
O233 C232 1.244 . S
O234 C210 1.257 . S
O234 Zn213 2.019 . S
H235 C228 0.930 . S
H236 C215 0.930 . S
H237 C227 0.930 . S
Zn238 N242 2.020 . S
Zn238 O246 2.019 1_556 S
Zn238 N248 2.119 . S
Zn238 O256 1.975 . S
C239 N240 1.334 . S
C239 N243 1.336 . S
N240 C239 1.334 . S
N240 C241 1.334 . S
C241 N240 1.334 . S
C241 N242 1.336 . S
N242 Zn238 2.020 . S
N242 C241 1.336 . S
N242 N243 1.354 . S
N243 C239 1.336 . S
N243 N242 1.354 . S
N243 Zn247 2.020 . S
C244 O245 1.244 . S
C244 O268 1.257 . S
O245 C244 1.244 . S
O246 Zn238 2.019 1_554 S
O246 C266 1.257 . S
Zn247 N243 2.020 . S
Zn247 O254 1.975 . S
Zn247 N263 2.119 . S
Zn247 O268 2.019 . S
N248 Zn238 2.119 . S
N248 C250 1.334 . S
N248 C251 1.328 . S
C249 C250 1.391 . S
C249 N252 1.329 . S
C249 H270 0.930 . S
C250 N248 1.334 . S
C250 C249 1.391 . S
C250 H257 0.930 . S
C251 N248 1.328 . S
C251 C253 1.392 . S
C251 H258 0.930 1_556 S
N252 C249 1.329 . S
N252 C253 1.331 . S
C253 C251 1.392 . S
C253 N252 1.331 . S
O254 Zn247 1.975 . S
O254 C255 1.252 . S
C255 O254 1.252 . S
C255 O256 1.252 . S
O256 Zn238 1.975 . S
O256 C255 1.252 . S
H257 C250 0.930 . S
H258 C251 0.930 1_554 S
C259 C260 1.392 . S
C259 N263 1.328 . S
C259 H265 0.930 . S
C260 C259 1.392 . S
C260 N264 1.331 . S
C261 C262 1.391 . S
C261 N264 1.329 . S
C261 H271 0.930 . S
C262 C261 1.391 . S
C262 N263 1.334 . S
C262 H269 0.930 . S
N263 Zn247 2.119 . S
N263 C259 1.328 . S
N263 C262 1.334 . S
N264 C260 1.331 . S
N264 C261 1.329 . S
H265 C259 0.930 . S
C266 O246 1.257 . S
C266 O267 1.244 . S
O267 C266 1.244 . S
O268 C244 1.257 . S
O268 Zn247 2.019 . S
H269 C262 0.930 . S
H270 C249 0.930 . S
H271 C261 0.930 . S
Zn272 N276 2.020 . S
Zn272 O280 2.019 1_565 S
Zn272 N282 2.119 . S
Zn272 O290 1.975 1_565 S
C273 N274 1.334 . S
C273 N277 1.336 . S
N274 C273 1.334 . S
N274 C275 1.334 . S
C275 N274 1.334 . S
C275 N276 1.336 . S
N276 Zn272 2.020 . S
N276 C275 1.336 . S
N276 N277 1.354 . S
N277 C273 1.336 . S
N277 N276 1.354 . S
N277 Zn281 2.020 . S
C278 O279 1.255 . S
C278 O302 1.250 1_565 S
O279 C278 1.255 . S
O280 Zn272 2.019 1_545 S
O280 C300 1.261 . S
Zn281 N277 2.020 . S
Zn281 O288 1.975 1_565 S
Zn281 N297 2.120 . S
Zn281 O302 2.019 1_565 S
N282 Zn272 2.119 . S
N282 C284 1.334 1_565 S
N282 C285 1.329 . S
C283 C284 1.391 . S
C283 N286 1.329 . S
C283 H304 0.930 . S
C284 N282 1.334 1_545 S
C284 C283 1.391 . S
C284 H291 0.929 1_545 S
C285 N282 1.329 . S
C285 C287 1.390 1_565 S
C285 H292 0.931 . S
N286 C283 1.329 . S
N286 C287 1.331 . S
C287 C285 1.390 1_545 S
C287 N286 1.331 . S
O288 Zn281 1.975 1_545 S
O288 C289 1.252 . S
C289 O288 1.252 . S
C289 O290 1.252 . S
O290 Zn272 1.975 1_545 S
O290 C289 1.252 . S
H291 C284 0.929 1_565 S
H292 C285 0.931 . S
C293 C294 1.392 . S
C293 N297 1.328 1_545 S
C293 H299 0.930 1_545 S
C294 C293 1.392 . S
C294 N298 1.331 . S
C295 C296 1.391 . S
C295 N298 1.329 . S
C295 H305 0.930 . S
C296 C295 1.391 . S
C296 N297 1.332 1_545 S
C296 H303 0.930 . S
N297 Zn281 2.120 . S
N297 C293 1.328 1_565 S
N297 C296 1.332 1_565 S
N298 C294 1.331 . S
N298 C295 1.329 . S
H299 C293 0.930 1_565 S
C300 O280 1.261 . S
C300 O301 1.238 1_545 S
O301 C300 1.238 1_565 S
O302 C278 1.250 1_545 S
O302 Zn281 2.019 1_545 S
H303 C296 0.930 . S
H304 C283 0.930 . S
H305 C295 0.930 . S
Zn306 N310 2.020 . S
Zn306 O314 2.019 . S
Zn306 N316 2.119 . S
Zn306 O324 1.975 . S
C307 N308 1.334 . S
C307 N311 1.336 . S
N308 C307 1.334 . S
N308 C309 1.334 . S
C309 N308 1.334 . S
C309 N310 1.336 . S
N310 Zn306 2.020 . S
N310 C309 1.336 . S
N310 N311 1.354 . S
N311 C307 1.336 . S
N311 N310 1.354 . S
N311 Zn315 2.020 . S
C312 O313 1.244 . S
C312 O336 1.257 . S
O313 C312 1.244 . S
O314 Zn306 2.019 . S
O314 C334 1.257 . S
Zn315 N311 2.020 . S
Zn315 O322 1.975 . S
Zn315 N331 2.119 . S
Zn315 O336 2.019 . S
N316 Zn306 2.119 . S
N316 C318 1.334 . S
N316 C319 1.328 . S
C317 C318 1.391 . S
C317 N320 1.329 . S
C317 H338 0.930 . S
C318 N316 1.334 . S
C318 C317 1.391 . S
C318 H325 0.930 . S
C319 N316 1.328 . S
C319 C321 1.392 . S
C319 H326 0.930 . S
N320 C317 1.329 . S
N320 C321 1.331 . S
C321 C319 1.392 . S
C321 N320 1.331 . S
O322 Zn315 1.975 . S
O322 C323 1.252 . S
C323 O322 1.252 . S
C323 O324 1.252 . S
O324 Zn306 1.975 . S
O324 C323 1.252 . S
H325 C318 0.930 . S
H326 C319 0.930 . S
C327 C328 1.392 . S
C327 N331 1.328 . S
C327 H333 0.930 . S
C328 C327 1.392 . S
C328 N332 1.331 . S
C329 C330 1.391 . S
C329 N332 1.329 . S
C329 H339 0.930 . S
C330 C329 1.391 . S
C330 N331 1.334 . S
C330 H337 0.930 . S
N331 Zn315 2.119 . S
N331 C327 1.328 . S
N331 C330 1.334 . S
N332 C328 1.331 . S
N332 C329 1.329 . S
H333 C327 0.930 . S
C334 O314 1.257 . S
C334 O335 1.244 . S
O335 C334 1.244 . S
O336 C312 1.257 . S
O336 Zn315 2.019 . S
H337 C330 0.930 . S
H338 C317 0.930 . S
H339 C329 0.930 . S
Zn340 N344 2.020 . S
Zn340 O348 2.019 . S
Zn340 N350 2.119 . S
Zn340 O358 1.975 . S
C341 N342 1.334 . S
C341 N345 1.336 . S
N342 C341 1.334 . S
N342 C343 1.334 . S
C343 N342 1.334 . S
C343 N344 1.336 . S
N344 Zn340 2.020 . S
N344 C343 1.336 . S
N344 N345 1.354 . S
N345 C341 1.336 . S
N345 N344 1.354 . S
N345 Zn349 2.020 . S
C346 O347 1.244 . S
C346 O370 1.257 . S
O347 C346 1.244 . S
O348 Zn340 2.019 . S
O348 C368 1.257 . S
Zn349 N345 2.020 . S
Zn349 O356 1.975 . S
Zn349 N365 2.119 . S
Zn349 O370 2.019 . S
N350 Zn340 2.119 . S
N350 C352 1.334 . S
N350 C353 1.328 . S
C351 C352 1.391 . S
C351 N354 1.329 . S
C351 H372 0.930 . S
C352 N350 1.334 . S
C352 C351 1.391 . S
C352 H359 0.930 . S
C353 N350 1.328 . S
C353 C355 1.392 . S
C353 H360 0.930 . S
N354 C351 1.329 . S
N354 C355 1.331 . S
C355 C353 1.392 . S
C355 N354 1.331 . S
O356 Zn349 1.975 . S
O356 C357 1.252 . S
C357 O356 1.252 . S
C357 O358 1.252 . S
O358 Zn340 1.975 . S
O358 C357 1.252 . S
H359 C352 0.930 . S
H360 C353 0.930 . S
C361 C362 1.392 . S
C361 N365 1.328 . S
C361 H367 0.930 . S
C362 C361 1.392 . S
C362 N366 1.331 . S
C363 C364 1.391 . S
C363 N366 1.329 . S
C363 H373 0.930 . S
C364 C363 1.391 . S
C364 N365 1.334 . S
C364 H371 0.930 . S
N365 Zn349 2.119 . S
N365 C361 1.328 . S
N365 C364 1.334 . S
N366 C362 1.331 . S
N366 C363 1.329 . S
H367 C361 0.930 . S
C368 O348 1.257 . S
C368 O369 1.244 . S
O369 C368 1.244 . S
O370 C346 1.257 . S
O370 Zn349 2.019 . S
H371 C364 0.930 . S
H372 C351 0.930 . S
H373 C363 0.930 . S
Zn374 N378 2.020 . S
Zn374 O382 2.019 1_565 S
Zn374 N384 2.120 . S
Zn374 O392 1.975 1_565 S
C375 N376 1.334 . S
C375 N379 1.336 . S
N376 C375 1.334 . S
N376 C377 1.334 . S
C377 N376 1.334 . S
C377 N378 1.336 . S
N378 Zn374 2.020 . S
N378 C377 1.336 . S
N378 N379 1.354 . S
N379 C375 1.336 . S
N379 N378 1.354 . S
N379 Zn383 2.020 . S
C380 O381 1.238 1_545 S
C380 O404 1.261 . S
O381 C380 1.238 1_565 S
O382 Zn374 2.019 1_545 S
O382 C402 1.250 1_545 S
Zn383 N379 2.020 . S
Zn383 O390 1.975 1_565 S
Zn383 N399 2.119 . S
Zn383 O404 2.019 1_565 S
N384 Zn374 2.120 . S
N384 C386 1.332 1_565 S
N384 C387 1.328 1_565 S
C385 C386 1.391 . S
C385 N388 1.329 . S
C385 H406 0.930 . S
C386 N384 1.332 1_545 S
C386 C385 1.391 . S
C386 H393 0.930 . S
C387 N384 1.328 1_545 S
C387 C389 1.392 . S
C387 H394 0.930 1_545 S
N388 C385 1.329 . S
N388 C389 1.331 . S
C389 C387 1.392 . S
C389 N388 1.331 . S
O390 Zn383 1.975 1_545 S
O390 C391 1.252 . S
C391 O390 1.252 . S
C391 O392 1.252 . S
O392 Zn374 1.975 1_545 S
O392 C391 1.252 . S
H393 C386 0.930 . S
H394 C387 0.930 1_565 S
C395 C396 1.390 1_565 S
C395 N399 1.329 . S
C395 H401 0.931 . S
C396 C395 1.390 1_545 S
C396 N400 1.331 . S
C397 C398 1.391 . S
C397 N400 1.329 . S
C397 H407 0.930 . S
C398 C397 1.391 . S
C398 N399 1.334 1_545 S
C398 H405 0.929 1_545 S
N399 Zn383 2.119 . S
N399 C395 1.329 . S
N399 C398 1.334 1_565 S
N400 C396 1.331 . S
N400 C397 1.329 . S
H401 C395 0.931 . S
C402 O382 1.250 1_565 S
C402 O403 1.255 . S
O403 C402 1.255 . S
O404 C380 1.261 . S
O404 Zn383 2.019 1_545 S
H405 C398 0.929 1_565 S
H406 C385 0.930 . S
H407 C397 0.930 . S
Zn408 N412 2.020 . S
Zn408 O416 2.019 1_545 S
Zn408 N418 2.119 . S
Zn408 O426 1.975 1_545 S
C409 N410 1.334 . S
C409 N413 1.336 . S
N410 C409 1.334 . S
N410 C411 1.334 . S
C411 N410 1.334 . S
C411 N412 1.336 . S
N412 Zn408 2.020 . S
N412 C411 1.336 . S
N412 N413 1.354 . S
N413 C409 1.336 . S
N413 N412 1.354 . S
N413 Zn417 2.020 . S
C414 O415 1.255 . S
C414 O438 1.250 1_545 S
O415 C414 1.255 . S
O416 Zn408 2.019 1_565 S
O416 C436 1.261 . S
Zn417 N413 2.020 . S
Zn417 O424 1.975 1_545 S
Zn417 N433 2.120 . S
Zn417 O438 2.019 1_545 S
N418 Zn408 2.119 . S
N418 C420 1.334 1_545 S
N418 C421 1.329 . S
C419 C420 1.391 . S
C419 N422 1.329 . S
C419 H440 0.930 . S
C420 N418 1.334 1_565 S
C420 C419 1.391 . S
C420 H427 0.929 1_565 S
C421 N418 1.329 . S
C421 C423 1.390 1_545 S
C421 H428 0.931 . S
N422 C419 1.329 . S
N422 C423 1.331 . S
C423 C421 1.390 1_565 S
C423 N422 1.331 . S
O424 Zn417 1.975 1_565 S
O424 C425 1.252 . S
C425 O424 1.252 . S
C425 O426 1.252 . S
O426 Zn408 1.975 1_565 S
O426 C425 1.252 . S
H427 C420 0.929 1_545 S
H428 C421 0.931 . S
C429 C430 1.392 . S
C429 N433 1.328 1_565 S
C429 H435 0.930 1_565 S
C430 C429 1.392 . S
C430 N434 1.331 . S
C431 C432 1.391 . S
C431 N434 1.329 . S
C431 H441 0.930 . S
C432 C431 1.391 . S
C432 N433 1.332 1_565 S
C432 H439 0.930 . S
N433 Zn417 2.120 . S
N433 C429 1.328 1_545 S
N433 C432 1.332 1_545 S
N434 C430 1.331 . S
N434 C431 1.329 . S
H435 C429 0.930 1_545 S
C436 O416 1.261 . S
C436 O437 1.238 1_565 S
O437 C436 1.238 1_545 S
O438 C414 1.250 1_565 S
O438 Zn417 2.019 1_565 S
H439 C432 0.930 . S
H440 C419 0.930 . S
H441 C431 0.930 . S
Zn442 N446 2.020 . S
Zn442 O450 2.019 . S
Zn442 N452 2.119 . S
Zn442 O460 1.975 . S
C443 N444 1.334 . S
C443 N447 1.336 . S
N444 C443 1.334 . S
N444 C445 1.334 . S
C445 N444 1.334 . S
C445 N446 1.336 . S
N446 Zn442 2.020 . S
N446 C445 1.336 . S
N446 N447 1.354 . S
N447 C443 1.336 . S
N447 N446 1.354 . S
N447 Zn451 2.020 . S
C448 O449 1.244 . S
C448 O472 1.257 . S
O449 C448 1.244 . S
O450 Zn442 2.019 . S
O450 C470 1.257 . S
Zn451 N447 2.020 . S
Zn451 O458 1.975 . S
Zn451 N467 2.119 . S
Zn451 O472 2.019 . S
N452 Zn442 2.119 . S
N452 C454 1.334 . S
N452 C455 1.328 . S
C453 C454 1.391 . S
C453 N456 1.329 . S
C453 H474 0.930 . S
C454 N452 1.334 . S
C454 C453 1.391 . S
C454 H461 0.930 . S
C455 N452 1.328 . S
C455 C457 1.392 . S
C455 H462 0.930 . S
N456 C453 1.329 . S
N456 C457 1.331 . S
C457 C455 1.392 . S
C457 N456 1.331 . S
O458 Zn451 1.975 . S
O458 C459 1.252 . S
C459 O458 1.252 . S
C459 O460 1.252 . S
O460 Zn442 1.975 . S
O460 C459 1.252 . S
H461 C454 0.930 . S
H462 C455 0.930 . S
C463 C464 1.392 . S
C463 N467 1.328 . S
C463 H469 0.930 . S
C464 C463 1.392 . S
C464 N468 1.331 . S
C465 C466 1.391 . S
C465 N468 1.329 . S
C465 H475 0.930 . S
C466 C465 1.391 . S
C466 N467 1.334 . S
C466 H473 0.930 . S
N467 Zn451 2.119 . S
N467 C463 1.328 . S
N467 C466 1.334 . S
N468 C464 1.331 . S
N468 C465 1.329 . S
H469 C463 0.930 . S
C470 O450 1.257 . S
C470 O471 1.244 . S
O471 C470 1.244 . S
O472 C448 1.257 . S
O472 Zn451 2.019 . S
H473 C466 0.930 . S
H474 C453 0.930 . S
H475 C465 0.930 . S
Zn476 N480 2.020 . S
Zn476 O484 2.019 . S
Zn476 N486 2.119 . S
Zn476 O494 1.975 . S
C477 N478 1.334 . S
C477 N481 1.336 . S
N478 C477 1.334 . S
N478 C479 1.334 . S
C479 N478 1.334 . S
C479 N480 1.336 . S
N480 Zn476 2.020 . S
N480 C479 1.336 . S
N480 N481 1.354 . S
N481 C477 1.336 . S
N481 N480 1.354 . S
N481 Zn485 2.020 . S
C482 O483 1.244 . S
C482 O506 1.257 . S
O483 C482 1.244 . S
O484 Zn476 2.019 . S
O484 C504 1.257 . S
Zn485 N481 2.020 . S
Zn485 O492 1.975 . S
Zn485 N501 2.119 . S
Zn485 O506 2.019 . S
N486 Zn476 2.119 . S
N486 C488 1.334 . S
N486 C489 1.328 . S
C487 C488 1.391 . S
C487 N490 1.329 . S
C487 H508 0.930 . S
C488 N486 1.334 . S
C488 C487 1.391 . S
C488 H495 0.930 . S
C489 N486 1.328 . S
C489 C491 1.392 . S
C489 H496 0.930 . S
N490 C487 1.329 . S
N490 C491 1.331 . S
C491 C489 1.392 . S
C491 N490 1.331 . S
O492 Zn485 1.975 . S
O492 C493 1.252 . S
C493 O492 1.252 . S
C493 O494 1.252 . S
O494 Zn476 1.975 . S
O494 C493 1.252 . S
H495 C488 0.930 . S
H496 C489 0.930 . S
C497 C498 1.392 . S
C497 N501 1.328 . S
C497 H503 0.930 . S
C498 C497 1.392 . S
C498 N502 1.331 . S
C499 C500 1.391 . S
C499 N502 1.329 . S
C499 H509 0.930 . S
C500 C499 1.391 . S
C500 N501 1.334 . S
C500 H507 0.930 . S
N501 Zn485 2.119 . S
N501 C497 1.328 . S
N501 C500 1.334 . S
N502 C498 1.331 . S
N502 C499 1.329 . S
H503 C497 0.930 . S
C504 O484 1.257 . S
C504 O505 1.244 . S
O505 C504 1.244 . S
O506 C482 1.257 . S
O506 Zn485 2.019 . S
H507 C500 0.930 . S
H508 C487 0.930 . S
H509 C499 0.930 . S
Zn510 N514 2.020 . S
Zn510 O518 2.019 1_545 S
Zn510 N520 2.120 . S
Zn510 O528 1.975 1_545 S
C511 N512 1.334 . S
C511 N515 1.336 . S
N512 C511 1.334 . S
N512 C513 1.334 . S
C513 N512 1.334 . S
C513 N514 1.336 . S
N514 Zn510 2.020 . S
N514 C513 1.336 . S
N514 N515 1.354 . S
N515 C511 1.336 . S
N515 N514 1.354 . S
N515 Zn519 2.020 . S
C516 O517 1.238 1_565 S
C516 O540 1.261 . S
O517 C516 1.238 1_545 S
O518 Zn510 2.019 1_565 S
O518 C538 1.250 1_565 S
Zn519 N515 2.020 . S
Zn519 O526 1.975 1_545 S
Zn519 N535 2.119 . S
Zn519 O540 2.019 1_545 S
N520 Zn510 2.120 . S
N520 C522 1.332 1_545 S
N520 C523 1.328 1_545 S
C521 C522 1.391 . S
C521 N524 1.329 . S
C521 H542 0.930 . S
C522 N520 1.332 1_565 S
C522 C521 1.391 . S
C522 H529 0.930 . S
C523 N520 1.328 1_565 S
C523 C525 1.392 . S
C523 H530 0.930 1_565 S
N524 C521 1.329 . S
N524 C525 1.331 . S
C525 C523 1.392 . S
C525 N524 1.331 . S
O526 Zn519 1.975 1_565 S
O526 C527 1.252 . S
C527 O526 1.252 . S
C527 O528 1.252 . S
O528 Zn510 1.975 1_565 S
O528 C527 1.252 . S
H529 C522 0.930 . S
H530 C523 0.930 1_545 S
C531 C532 1.390 1_545 S
C531 N535 1.329 . S
C531 H537 0.931 . S
C532 C531 1.390 1_565 S
C532 N536 1.331 . S
C533 C534 1.391 . S
C533 N536 1.329 . S
C533 H543 0.930 . S
C534 C533 1.391 . S
C534 N535 1.334 1_565 S
C534 H541 0.929 1_565 S
N535 Zn519 2.119 . S
N535 C531 1.329 . S
N535 C534 1.334 1_545 S
N536 C532 1.331 . S
N536 C533 1.329 . S
H537 C531 0.931 . S
C538 O518 1.250 1_545 S
C538 O539 1.255 . S
O539 C538 1.255 . S
O540 C516 1.261 . S
O540 Zn519 2.019 1_565 S
H541 C534 0.929 1_545 S
H542 C521 0.930 . S
H543 C533 0.930 . S
Zn544 N548 2.020 . S
Zn544 O552 2.019 . S
Zn544 N554 2.119 . S
Zn544 O562 1.975 . S
C545 N546 1.334 . S
C545 N549 1.336 . S
N546 C545 1.334 . S
N546 C547 1.334 . S
C547 N546 1.334 . S
C547 N548 1.336 . S
N548 Zn544 2.020 . S
N548 C547 1.336 . S
N548 N549 1.354 . S
N549 C545 1.336 . S
N549 N548 1.354 . S
N549 Zn553 2.020 . S
C550 O551 1.244 . S
C550 O574 1.257 . S
O551 C550 1.244 . S
O552 Zn544 2.019 . S
O552 C572 1.257 . S
Zn553 N549 2.020 . S
Zn553 O560 1.975 . S
Zn553 N569 2.119 . S
Zn553 O574 2.019 . S
N554 Zn544 2.119 . S
N554 C556 1.334 . S
N554 C557 1.328 . S
C555 C556 1.391 . S
C555 N558 1.329 . S
C555 H576 0.930 . S
C556 N554 1.334 . S
C556 C555 1.391 . S
C556 H563 0.930 . S
C557 N554 1.328 . S
C557 C559 1.392 . S
C557 H564 0.930 . S
N558 C555 1.329 . S
N558 C559 1.331 . S
C559 C557 1.392 . S
C559 N558 1.331 . S
O560 Zn553 1.975 . S
O560 C561 1.252 . S
C561 O560 1.252 . S
C561 O562 1.252 . S
O562 Zn544 1.975 . S
O562 C561 1.252 . S
H563 C556 0.930 . S
H564 C557 0.930 . S
C565 C566 1.392 . S
C565 N569 1.328 . S
C565 H571 0.930 . S
C566 C565 1.392 . S
C566 N570 1.331 . S
C567 C568 1.391 . S
C567 N570 1.329 . S
C567 H577 0.930 . S
C568 C567 1.391 . S
C568 N569 1.334 . S
C568 H575 0.930 . S
N569 Zn553 2.119 . S
N569 C565 1.328 . S
N569 C568 1.334 . S
N570 C566 1.331 . S
N570 C567 1.329 . S
H571 C565 0.930 . S
C572 O552 1.257 . S
C572 O573 1.244 . S
O573 C572 1.244 . S
O574 C550 1.257 . S
O574 Zn553 2.019 . S
H575 C568 0.930 . S
H576 C555 0.930 . S
H577 C567 0.930 . S
Zn578 N582 2.020 . S
Zn578 O586 2.019 . S
Zn578 N588 2.119 . S
Zn578 O596 1.975 . S
C579 N580 1.334 . S
C579 N583 1.336 . S
N580 C579 1.334 . S
N580 C581 1.334 . S
C581 N580 1.334 . S
C581 N582 1.336 . S
N582 Zn578 2.020 . S
N582 C581 1.336 . S
N582 N583 1.354 . S
N583 C579 1.336 . S
N583 N582 1.354 . S
N583 Zn587 2.020 . S
C584 O585 1.244 . S
C584 O608 1.257 . S
O585 C584 1.244 . S
O586 Zn578 2.019 . S
O586 C606 1.257 . S
Zn587 N583 2.020 . S
Zn587 O594 1.975 . S
Zn587 N603 2.119 . S
Zn587 O608 2.019 . S
N588 Zn578 2.119 . S
N588 C590 1.334 . S
N588 C591 1.328 . S
C589 C590 1.391 . S
C589 N592 1.329 . S
C589 H610 0.930 . S
C590 N588 1.334 . S
C590 C589 1.391 . S
C590 H597 0.930 . S
C591 N588 1.328 . S
C591 C593 1.392 . S
C591 H598 0.930 . S
N592 C589 1.329 . S
N592 C593 1.331 . S
C593 C591 1.392 . S
C593 N592 1.331 . S
O594 Zn587 1.975 . S
O594 C595 1.252 . S
C595 O594 1.252 . S
C595 O596 1.252 . S
O596 Zn578 1.975 . S
O596 C595 1.252 . S
H597 C590 0.930 . S
H598 C591 0.930 . S
C599 C600 1.392 . S
C599 N603 1.328 . S
C599 H605 0.930 . S
C600 C599 1.392 . S
C600 N604 1.331 . S
C601 C602 1.391 . S
C601 N604 1.329 . S
C601 H611 0.930 . S
C602 C601 1.391 . S
C602 N603 1.334 . S
C602 H609 0.930 . S
N603 Zn587 2.119 . S
N603 C599 1.328 . S
N603 C602 1.334 . S
N604 C600 1.331 . S
N604 C601 1.329 . S
H605 C599 0.930 . S
C606 O586 1.257 . S
C606 O607 1.244 . S
O607 C606 1.244 . S
O608 C584 1.257 . S
O608 Zn587 2.019 . S
H609 C602 0.930 . S
H610 C589 0.930 . S
H611 C601 0.930 . S
Zn612 N616 2.020 . S
Zn612 O620 2.019 . S
Zn612 N622 2.119 . S
Zn612 O630 1.975 . S
C613 N614 1.334 . S
C613 N617 1.336 . S
N614 C613 1.334 . S
N614 C615 1.334 . S
C615 N614 1.334 . S
C615 N616 1.336 . S
N616 Zn612 2.020 . S
N616 C615 1.336 . S
N616 N617 1.354 . S
N617 C613 1.336 . S
N617 N616 1.354 . S
N617 Zn621 2.020 . S
C618 O619 1.244 . S
C618 O642 1.257 . S
O619 C618 1.244 . S
O620 Zn612 2.019 . S
O620 C640 1.257 . S
Zn621 N617 2.020 . S
Zn621 O628 1.975 . S
Zn621 N637 2.119 . S
Zn621 O642 2.019 . S
N622 Zn612 2.119 . S
N622 C624 1.334 . S
N622 C625 1.328 . S
C623 C624 1.391 . S
C623 N626 1.329 . S
C623 H644 0.930 . S
C624 N622 1.334 . S
C624 C623 1.391 . S
C624 H631 0.930 . S
C625 N622 1.328 . S
C625 C627 1.392 . S
C625 H632 0.930 . S
N626 C623 1.329 . S
N626 C627 1.331 . S
C627 C625 1.392 . S
C627 N626 1.331 . S
O628 Zn621 1.975 . S
O628 C629 1.252 . S
C629 O628 1.252 . S
C629 O630 1.252 . S
O630 Zn612 1.975 . S
O630 C629 1.252 . S
H631 C624 0.930 . S
H632 C625 0.930 . S
C633 C634 1.392 . S
C633 N637 1.328 . S
C633 H639 0.930 . S
C634 C633 1.392 . S
C634 N638 1.331 . S
C635 C636 1.391 . S
C635 N638 1.329 . S
C635 H645 0.930 . S
C636 C635 1.391 . S
C636 N637 1.334 . S
C636 H643 0.930 . S
N637 Zn621 2.119 . S
N637 C633 1.328 . S
N637 C636 1.334 . S
N638 C634 1.331 . S
N638 C635 1.329 . S
H639 C633 0.930 . S
C640 O620 1.257 . S
C640 O641 1.244 . S
O641 C640 1.244 . S
O642 C618 1.257 . S
O642 Zn621 2.019 . S
H643 C636 0.930 . S
H644 C623 0.930 . S
H645 C635 0.930 . S
Zn646 N650 2.020 . S
Zn646 O654 2.019 . S
Zn646 N656 2.119 . S
Zn646 O664 1.975 . S
C647 N648 1.334 . S
C647 N651 1.336 . S
N648 C647 1.334 . S
N648 C649 1.334 . S
C649 N648 1.334 . S
C649 N650 1.336 . S
N650 Zn646 2.020 . S
N650 C649 1.336 . S
N650 N651 1.354 . S
N651 C647 1.336 . S
N651 N650 1.354 . S
N651 Zn655 2.020 . S
C652 O653 1.244 . S
C652 O676 1.257 . S
O653 C652 1.244 . S
O654 Zn646 2.019 . S
O654 C674 1.257 . S
Zn655 N651 2.020 . S
Zn655 O662 1.975 . S
Zn655 N671 2.119 . S
Zn655 O676 2.019 . S
N656 Zn646 2.119 . S
N656 C658 1.334 . S
N656 C659 1.328 . S
C657 C658 1.391 . S
C657 N660 1.329 . S
C657 H678 0.930 . S
C658 N656 1.334 . S
C658 C657 1.391 . S
C658 H665 0.930 . S
C659 N656 1.328 . S
C659 C661 1.392 . S
C659 H666 0.930 . S
N660 C657 1.329 . S
N660 C661 1.331 . S
C661 C659 1.392 . S
C661 N660 1.331 . S
O662 Zn655 1.975 . S
O662 C663 1.252 . S
C663 O662 1.252 . S
C663 O664 1.252 . S
O664 Zn646 1.975 . S
O664 C663 1.252 . S
H665 C658 0.930 . S
H666 C659 0.930 . S
C667 C668 1.392 . S
C667 N671 1.328 . S
C667 H673 0.930 . S
C668 C667 1.392 . S
C668 N672 1.331 . S
C669 C670 1.391 . S
C669 N672 1.329 . S
C669 H679 0.930 . S
C670 C669 1.391 . S
C670 N671 1.334 . S
C670 H677 0.930 . S
N671 Zn655 2.119 . S
N671 C667 1.328 . S
N671 C670 1.334 . S
N672 C668 1.331 . S
N672 C669 1.329 . S
H673 C667 0.930 . S
C674 O654 1.257 . S
C674 O675 1.244 . S
O675 C674 1.244 . S
O676 C652 1.257 . S
O676 Zn655 2.019 . S
H677 C670 0.930 . S
H678 C657 0.930 . S
H679 C669 0.930 . S
Zn680 N684 2.020 . S
Zn680 O688 2.019 . S
Zn680 N690 2.119 . S
Zn680 O698 1.975 . S
C681 N682 1.334 . S
C681 N685 1.336 . S
N682 C681 1.334 . S
N682 C683 1.334 . S
C683 N682 1.334 . S
C683 N684 1.336 . S
N684 Zn680 2.020 . S
N684 C683 1.336 . S
N684 N685 1.354 . S
N685 C681 1.336 . S
N685 N684 1.354 . S
N685 Zn689 2.020 . S
C686 O687 1.244 . S
C686 O710 1.257 . S
O687 C686 1.244 . S
O688 Zn680 2.019 . S
O688 C708 1.257 . S
Zn689 N685 2.020 . S
Zn689 O696 1.975 . S
Zn689 N705 2.119 . S
Zn689 O710 2.019 . S
N690 Zn680 2.119 . S
N690 C692 1.334 . S
N690 C693 1.328 . S
C691 C692 1.391 . S
C691 N694 1.329 . S
C691 H712 0.930 . S
C692 N690 1.334 . S
C692 C691 1.391 . S
C692 H699 0.930 . S
C693 N690 1.328 . S
C693 C695 1.392 . S
C693 H700 0.930 . S
N694 C691 1.329 . S
N694 C695 1.331 . S
C695 C693 1.392 . S
C695 N694 1.331 . S
O696 Zn689 1.975 . S
O696 C697 1.252 . S
C697 O696 1.252 . S
C697 O698 1.252 . S
O698 Zn680 1.975 . S
O698 C697 1.252 . S
H699 C692 0.930 . S
H700 C693 0.930 . S
C701 C702 1.392 . S
C701 N705 1.328 . S
C701 H707 0.930 . S
C702 C701 1.392 . S
C702 N706 1.331 . S
C703 C704 1.391 . S
C703 N706 1.329 . S
C703 H713 0.930 . S
C704 C703 1.391 . S
C704 N705 1.334 . S
C704 H711 0.930 . S
N705 Zn689 2.119 . S
N705 C701 1.328 . S
N705 C704 1.334 . S
N706 C702 1.331 . S
N706 C703 1.329 . S
H707 C701 0.930 . S
C708 O688 1.257 . S
C708 O709 1.244 . S
O709 C708 1.244 . S
O710 C686 1.257 . S
O710 Zn689 2.019 . S
H711 C704 0.930 . S
H712 C691 0.930 . S
H713 C703 0.930 . S
Zn714 N718 2.020 . S
Zn714 O722 2.019 . S
Zn714 N724 2.119 . S
Zn714 O732 1.975 . S
C715 N716 1.334 . S
C715 N719 1.336 . S
N716 C715 1.334 . S
N716 C717 1.334 . S
C717 N716 1.334 . S
C717 N718 1.336 . S
N718 Zn714 2.020 . S
N718 C717 1.336 . S
N718 N719 1.354 . S
N719 C715 1.336 . S
N719 N718 1.354 . S
N719 Zn723 2.020 . S
C720 O721 1.244 . S
C720 O744 1.257 . S
O721 C720 1.244 . S
O722 Zn714 2.019 . S
O722 C742 1.257 . S
Zn723 N719 2.020 . S
Zn723 O730 1.975 . S
Zn723 N739 2.119 . S
Zn723 O744 2.019 . S
N724 Zn714 2.119 . S
N724 C726 1.334 . S
N724 C727 1.328 . S
C725 C726 1.391 . S
C725 N728 1.329 . S
C725 H746 0.930 . S
C726 N724 1.334 . S
C726 C725 1.391 . S
C726 H733 0.930 . S
C727 N724 1.328 . S
C727 C729 1.392 . S
C727 H734 0.930 . S
N728 C725 1.329 . S
N728 C729 1.331 . S
C729 C727 1.392 . S
C729 N728 1.331 . S
O730 Zn723 1.975 . S
O730 C731 1.252 . S
C731 O730 1.252 . S
C731 O732 1.252 . S
O732 Zn714 1.975 . S
O732 C731 1.252 . S
H733 C726 0.930 . S
H734 C727 0.930 . S
C735 C736 1.392 . S
C735 N739 1.328 . S
C735 H741 0.930 . S
C736 C735 1.392 . S
C736 N740 1.331 . S
C737 C738 1.391 . S
C737 N740 1.329 . S
C737 H747 0.930 . S
C738 C737 1.391 . S
C738 N739 1.334 . S
C738 H745 0.930 . S
N739 Zn723 2.119 . S
N739 C735 1.328 . S
N739 C738 1.334 . S
N740 C736 1.331 . S
N740 C737 1.329 . S
H741 C735 0.930 . S
C742 O722 1.257 . S
C742 O743 1.244 . S
O743 C742 1.244 . S
O744 C720 1.257 . S
O744 Zn723 2.019 . S
H745 C738 0.930 . S
H746 C725 0.930 . S
H747 C737 0.930 . S
Zn748 N752 2.020 . S
Zn748 O756 2.019 . S
Zn748 N758 2.119 . S
Zn748 O766 1.975 . S
C749 N750 1.334 . S
C749 N753 1.336 . S
N750 C749 1.334 . S
N750 C751 1.334 . S
C751 N750 1.334 . S
C751 N752 1.336 . S
N752 Zn748 2.020 . S
N752 C751 1.336 . S
N752 N753 1.354 . S
N753 C749 1.336 . S
N753 N752 1.354 . S
N753 Zn757 2.020 . S
C754 O755 1.244 . S
C754 O778 1.257 . S
O755 C754 1.244 . S
O756 Zn748 2.019 . S
O756 C776 1.257 . S
Zn757 N753 2.020 . S
Zn757 O764 1.975 . S
Zn757 N773 2.119 . S
Zn757 O778 2.019 . S
N758 Zn748 2.119 . S
N758 C760 1.334 . S
N758 C761 1.328 . S
C759 C760 1.391 . S
C759 N762 1.329 . S
C759 H780 0.930 . S
C760 N758 1.334 . S
C760 C759 1.391 . S
C760 H767 0.930 . S
C761 N758 1.328 . S
C761 C763 1.392 . S
C761 H768 0.930 . S
N762 C759 1.329 . S
N762 C763 1.331 . S
C763 C761 1.392 . S
C763 N762 1.331 . S
O764 Zn757 1.975 . S
O764 C765 1.252 . S
C765 O764 1.252 . S
C765 O766 1.252 . S
O766 Zn748 1.975 . S
O766 C765 1.252 . S
H767 C760 0.930 . S
H768 C761 0.930 . S
C769 C770 1.392 . S
C769 N773 1.328 . S
C769 H775 0.930 . S
C770 C769 1.392 . S
C770 N774 1.331 . S
C771 C772 1.391 . S
C771 N774 1.329 . S
C771 H781 0.930 . S
C772 C771 1.391 . S
C772 N773 1.334 . S
C772 H779 0.930 . S
N773 Zn757 2.119 . S
N773 C769 1.328 . S
N773 C772 1.334 . S
N774 C770 1.331 . S
N774 C771 1.329 . S
H775 C769 0.930 . S
C776 O756 1.257 . S
C776 O777 1.244 . S
O777 C776 1.244 . S
O778 C754 1.257 . S
O778 Zn757 2.019 . S
H779 C772 0.930 . S
H780 C759 0.930 . S
H781 C771 0.930 . S
Zn782 N786 2.020 . S
Zn782 O790 2.019 . S
Zn782 N792 2.119 . S
Zn782 O800 1.975 . S
C783 N784 1.334 . S
C783 N787 1.336 . S
N784 C783 1.334 . S
N784 C785 1.334 . S
C785 N784 1.334 . S
C785 N786 1.336 . S
N786 Zn782 2.020 . S
N786 C785 1.336 . S
N786 N787 1.354 . S
N787 C783 1.336 . S
N787 N786 1.354 . S
N787 Zn791 2.020 . S
C788 O789 1.244 . S
C788 O812 1.257 . S
O789 C788 1.244 . S
O790 Zn782 2.019 . S
O790 C810 1.257 . S
Zn791 N787 2.020 . S
Zn791 O798 1.975 . S
Zn791 N807 2.119 . S
Zn791 O812 2.019 . S
N792 Zn782 2.119 . S
N792 C794 1.334 . S
N792 C795 1.328 . S
C793 C794 1.391 . S
C793 N796 1.329 . S
C793 H814 0.930 . S
C794 N792 1.334 . S
C794 C793 1.391 . S
C794 H801 0.930 . S
C795 N792 1.328 . S
C795 C797 1.392 . S
C795 H802 0.930 . S
N796 C793 1.329 . S
N796 C797 1.331 . S
C797 C795 1.392 . S
C797 N796 1.331 . S
O798 Zn791 1.975 . S
O798 C799 1.252 . S
C799 O798 1.252 . S
C799 O800 1.252 . S
O800 Zn782 1.975 . S
O800 C799 1.252 . S
H801 C794 0.930 . S
H802 C795 0.930 . S
C803 C804 1.392 . S
C803 N807 1.328 . S
C803 H809 0.930 . S
C804 C803 1.392 . S
C804 N808 1.331 . S
C805 C806 1.391 . S
C805 N808 1.329 . S
C805 H815 0.930 . S
C806 C805 1.391 . S
C806 N807 1.334 . S
C806 H813 0.930 . S
N807 Zn791 2.119 . S
N807 C803 1.328 . S
N807 C806 1.334 . S
N808 C804 1.331 . S
N808 C805 1.329 . S
H809 C803 0.930 . S
C810 O790 1.257 . S
C810 O811 1.244 . S
O811 C810 1.244 . S
O812 C788 1.257 . S
O812 Zn791 2.019 . S
H813 C806 0.930 . S
H814 C793 0.930 . S
H815 C805 0.930 . S
Zn816 N820 2.020 . S
Zn816 O824 2.019 1_565 S
Zn816 N826 2.119 . S
Zn816 O834 1.975 1_565 S
C817 N818 1.334 . S
C817 N821 1.336 . S
N818 C817 1.334 . S
N818 C819 1.334 . S
C819 N818 1.334 . S
C819 N820 1.336 . S
N820 Zn816 2.020 . S
N820 C819 1.336 . S
N820 N821 1.354 . S
N821 C817 1.336 . S
N821 N820 1.354 . S
N821 Zn825 2.020 1_554 S
C822 O823 1.255 . S
C822 O846 1.250 1_565 S
O823 C822 1.255 . S
O824 Zn816 2.019 1_545 S
O824 C844 1.261 . S
Zn825 N821 2.020 1_556 S
Zn825 O832 1.975 1_566 S
Zn825 N841 2.120 1_556 S
Zn825 O846 2.019 1_565 S
N826 Zn816 2.119 . S
N826 C828 1.334 1_565 S
N826 C829 1.329 . S
C827 C828 1.391 . S
C827 N830 1.329 . S
C827 H848 0.930 1_554 S
C828 N826 1.334 1_545 S
C828 C827 1.391 . S
C828 H835 0.929 1_545 S
C829 N826 1.329 . S
C829 C831 1.390 1_565 S
C829 H836 0.931 . S
N830 C827 1.329 . S
N830 C831 1.331 . S
C831 C829 1.390 1_545 S
C831 N830 1.331 . S
O832 Zn825 1.975 1_544 S
O832 C833 1.252 . S
C833 O832 1.252 . S
C833 O834 1.252 . S
O834 Zn816 1.975 1_545 S
O834 C833 1.252 . S
H835 C828 0.929 1_565 S
H836 C829 0.931 . S
C837 C838 1.392 . S
C837 N841 1.328 1_546 S
C837 H843 0.930 1_545 S
C838 C837 1.392 . S
C838 N842 1.331 1_556 S
C839 C840 1.391 . S
C839 N842 1.329 . S
C839 H849 0.930 . S
C840 C839 1.391 . S
C840 N841 1.332 1_545 S
C840 H847 0.930 . S
N841 Zn825 2.120 1_554 S
N841 C837 1.328 1_564 S
N841 C840 1.332 1_565 S
N842 C838 1.331 1_554 S
N842 C839 1.329 . S
H843 C837 0.930 1_565 S
C844 O824 1.261 . S
C844 O845 1.238 1_545 S
O845 C844 1.238 1_565 S
O846 C822 1.250 1_545 S
O846 Zn825 2.019 1_545 S
H847 C840 0.930 . S
H848 C827 0.930 1_556 S
H849 C839 0.930 . S
Zn850 N854 2.020 . S
Zn850 O858 2.019 . S
Zn850 N860 2.119 . S
Zn850 O868 1.975 . S
C851 N852 1.334 . S
C851 N855 1.336 . S
N852 C851 1.334 . S
N852 C853 1.334 . S
C853 N852 1.334 . S
C853 N854 1.336 . S
N854 Zn850 2.020 . S
N854 C853 1.336 . S
N854 N855 1.354 . S
N855 C851 1.336 . S
N855 N854 1.354 . S
N855 Zn859 2.020 1_554 S
C856 O857 1.244 . S
C856 O880 1.257 . S
O857 C856 1.244 . S
O858 Zn850 2.019 . S
O858 C878 1.257 . S
Zn859 N855 2.020 1_556 S
Zn859 O866 1.975 1_556 S
Zn859 N875 2.119 1_556 S
Zn859 O880 2.019 . S
N860 Zn850 2.119 . S
N860 C862 1.334 . S
N860 C863 1.328 . S
C861 C862 1.391 . S
C861 N864 1.329 . S
C861 H882 0.930 1_554 S
C862 N860 1.334 . S
C862 C861 1.391 . S
C862 H869 0.930 . S
C863 N860 1.328 . S
C863 C865 1.392 . S
C863 H870 0.930 . S
N864 C861 1.329 . S
N864 C865 1.331 . S
C865 C863 1.392 . S
C865 N864 1.331 . S
O866 Zn859 1.975 1_554 S
O866 C867 1.252 . S
C867 O866 1.252 . S
C867 O868 1.252 . S
O868 Zn850 1.975 . S
O868 C867 1.252 . S
H869 C862 0.930 . S
H870 C863 0.930 . S
C871 C872 1.392 . S
C871 N875 1.328 1_556 S
C871 H877 0.930 . S
C872 C871 1.392 . S
C872 N876 1.331 1_556 S
C873 C874 1.391 . S
C873 N876 1.329 . S
C873 H883 0.930 . S
C874 C873 1.391 . S
C874 N875 1.334 . S
C874 H881 0.930 . S
N875 Zn859 2.119 1_554 S
N875 C871 1.328 1_554 S
N875 C874 1.334 . S
N876 C872 1.331 1_554 S
N876 C873 1.329 . S
H877 C871 0.930 . S
C878 O858 1.257 . S
C878 O879 1.244 . S
O879 C878 1.244 . S
O880 C856 1.257 . S
O880 Zn859 2.019 . S
H881 C874 0.930 . S
H882 C861 0.930 1_556 S
H883 C873 0.930 . S
Zn884 N888 2.020 . S
Zn884 O892 2.019 . S
Zn884 N894 2.119 . S
Zn884 O902 1.975 . S
C885 N886 1.334 . S
C885 N889 1.336 . S
N886 C885 1.334 . S
N886 C887 1.334 . S
C887 N886 1.334 . S
C887 N888 1.336 . S
N888 Zn884 2.020 . S
N888 C887 1.336 . S
N888 N889 1.354 . S
N889 C885 1.336 . S
N889 N888 1.354 . S
N889 Zn893 2.020 . S
C890 O891 1.244 . S
C890 O914 1.257 . S
O891 C890 1.244 . S
O892 Zn884 2.019 . S
O892 C912 1.257 . S
Zn893 N889 2.020 . S
Zn893 O900 1.975 . S
Zn893 N909 2.119 . S
Zn893 O914 2.019 1_554 S
N894 Zn884 2.119 . S
N894 C896 1.334 . S
N894 C897 1.328 . S
C895 C896 1.391 . S
C895 N898 1.329 . S
C895 H916 0.930 . S
C896 N894 1.334 . S
C896 C895 1.391 . S
C896 H903 0.930 . S
C897 N894 1.328 . S
C897 C899 1.392 . S
C897 H904 0.930 . S
N898 C895 1.329 . S
N898 C899 1.331 . S
C899 C897 1.392 . S
C899 N898 1.331 . S
O900 Zn893 1.975 . S
O900 C901 1.252 . S
C901 O900 1.252 . S
C901 O902 1.252 . S
O902 Zn884 1.975 . S
O902 C901 1.252 . S
H903 C896 0.930 . S
H904 C897 0.930 . S
C905 C906 1.392 . S
C905 N909 1.328 . S
C905 H911 0.930 1_554 S
C906 C905 1.392 . S
C906 N910 1.331 . S
C907 C908 1.391 . S
C907 N910 1.329 . S
C907 H917 0.930 . S
C908 C907 1.391 . S
C908 N909 1.334 . S
C908 H915 0.930 . S
N909 Zn893 2.119 . S
N909 C905 1.328 . S
N909 C908 1.334 . S
N910 C906 1.331 . S
N910 C907 1.329 . S
H911 C905 0.930 1_556 S
C912 O892 1.257 . S
C912 O913 1.244 . S
O913 C912 1.244 . S
O914 C890 1.257 . S
O914 Zn893 2.019 1_556 S
H915 C908 0.930 . S
H916 C895 0.930 . S
H917 C907 0.930 . S
Zn918 N922 2.020 . S
Zn918 O926 2.019 1_564 S
Zn918 N928 2.119 . S
Zn918 O936 1.975 1_565 S
C919 N920 1.334 . S
C919 N923 1.336 . S
N920 C919 1.334 . S
N920 C921 1.334 . S
C921 N920 1.334 . S
C921 N922 1.336 . S
N922 Zn918 2.020 . S
N922 C921 1.336 . S
N922 N923 1.354 . S
N923 C919 1.336 . S
N923 N922 1.354 . S
N923 Zn927 2.020 . S
C924 O925 1.255 . S
C924 O948 1.250 1_565 S
O925 C924 1.255 . S
O926 Zn918 2.019 1_546 S
O926 C946 1.261 . S
Zn927 N923 2.020 . S
Zn927 O934 1.975 1_565 S
Zn927 N943 2.120 . S
Zn927 O948 2.019 1_565 S
N928 Zn918 2.119 . S
N928 C930 1.334 1_565 S
N928 C931 1.329 . S
C929 C930 1.391 . S
C929 N932 1.329 . S
C929 H950 0.930 . S
C930 N928 1.334 1_545 S
C930 C929 1.391 . S
C930 H937 0.929 1_545 S
C931 N928 1.329 . S
C931 C933 1.390 1_565 S
C931 H938 0.931 1_554 S
N932 C929 1.329 . S
N932 C933 1.331 . S
C933 C931 1.390 1_545 S
C933 N932 1.331 . S
O934 Zn927 1.975 1_545 S
O934 C935 1.252 . S
C935 O934 1.252 . S
C935 O936 1.252 . S
O936 Zn918 1.975 1_545 S
O936 C935 1.252 . S
H937 C930 0.929 1_565 S
H938 C931 0.931 1_556 S
C939 C940 1.392 . S
C939 N943 1.328 1_545 S
C939 H945 0.930 1_545 S
C940 C939 1.392 . S
C940 N944 1.331 . S
C941 C942 1.391 . S
C941 N944 1.329 . S
C941 H951 0.930 . S
C942 C941 1.391 . S
C942 N943 1.332 1_545 S
C942 H949 0.930 . S
N943 Zn927 2.120 . S
N943 C939 1.328 1_565 S
N943 C942 1.332 1_565 S
N944 C940 1.331 . S
N944 C941 1.329 . S
H945 C939 0.930 1_565 S
C946 O926 1.261 . S
C946 O947 1.238 1_545 S
O947 C946 1.238 1_565 S
O948 C924 1.250 1_545 S
O948 Zn927 2.019 1_545 S
H949 C942 0.930 . S
H950 C929 0.930 . S
H951 C941 0.930 . S
Zn952 N956 2.020 . S
Zn952 O960 2.019 1_545 S
Zn952 N962 2.119 . S
Zn952 O970 1.975 1_545 S
C953 N954 1.334 . S
C953 N957 1.336 . S
N954 C953 1.334 . S
N954 C955 1.334 . S
C955 N954 1.334 . S
C955 N956 1.336 . S
N956 Zn952 2.020 . S
N956 C955 1.336 . S
N956 N957 1.354 . S
N957 C953 1.336 . S
N957 N956 1.354 . S
N957 Zn961 2.020 1_556 S
C958 O959 1.255 . S
C958 O982 1.250 1_545 S
O959 C958 1.255 . S
O960 Zn952 2.019 1_565 S
O960 C980 1.261 . S
Zn961 N957 2.020 1_554 S
Zn961 O968 1.975 1_544 S
Zn961 N977 2.120 1_554 S
Zn961 O982 2.019 1_545 S
N962 Zn952 2.119 . S
N962 C964 1.334 1_545 S
N962 C965 1.329 . S
C963 C964 1.391 . S
C963 N966 1.329 . S
C963 H984 0.930 1_556 S
C964 N962 1.334 1_565 S
C964 C963 1.391 . S
C964 H971 0.929 1_565 S
C965 N962 1.329 . S
C965 C967 1.390 1_545 S
C965 H972 0.931 . S
N966 C963 1.329 . S
N966 C967 1.331 . S
C967 C965 1.390 1_565 S
C967 N966 1.331 . S
O968 Zn961 1.975 1_566 S
O968 C969 1.252 . S
C969 O968 1.252 . S
C969 O970 1.252 . S
O970 Zn952 1.975 1_565 S
O970 C969 1.252 . S
H971 C964 0.929 1_545 S
H972 C965 0.931 . S
C973 C974 1.392 . S
C973 N977 1.328 1_564 S
C973 H979 0.930 1_565 S
C974 C973 1.392 . S
C974 N978 1.331 1_554 S
C975 C976 1.391 . S
C975 N978 1.329 . S
C975 H985 0.930 . S
C976 C975 1.391 . S
C976 N977 1.332 1_565 S
C976 H983 0.930 . S
N977 Zn961 2.120 1_556 S
N977 C973 1.328 1_546 S
N977 C976 1.332 1_545 S
N978 C974 1.331 1_556 S
N978 C975 1.329 . S
H979 C973 0.930 1_545 S
C980 O960 1.261 . S
C980 O981 1.238 1_565 S
O981 C980 1.238 1_545 S
O982 C958 1.250 1_565 S
O982 Zn961 2.019 1_565 S
H983 C976 0.930 . S
H984 C963 0.930 1_554 S
H985 C975 0.930 . S
Zn986 N990 2.020 . S
Zn986 O994 2.019 . S
Zn986 N996 2.119 . S
Zn986 O1004 1.975 . S
C987 N988 1.334 . S
C987 N991 1.336 . S
N988 C987 1.334 . S
N988 C989 1.334 . S
C989 N988 1.334 . S
C989 N990 1.336 . S
N990 Zn986 2.020 . S
N990 C989 1.336 . S
N990 N991 1.354 . S
N991 C987 1.336 . S
N991 N990 1.354 . S
N991 Zn995 2.020 1_556 S
C992 O993 1.244 . S
C992 O1016 1.257 . S
O993 C992 1.244 . S
O994 Zn986 2.019 . S
O994 C1014 1.257 . S
Zn995 N991 2.020 1_554 S
Zn995 O1002 1.975 1_554 S
Zn995 N1011 2.119 1_554 S
Zn995 O1016 2.019 . S
N996 Zn986 2.119 . S
N996 C998 1.334 . S
N996 C999 1.328 . S
C997 C998 1.391 . S
C997 N1000 1.329 . S
C997 H1018 0.930 1_556 S
C998 N996 1.334 . S
C998 C997 1.391 . S
C998 H1005 0.930 . S
C999 N996 1.328 . S
C999 C1001 1.392 . S
C999 H1006 0.930 . S
N1000 C997 1.329 . S
N1000 C1001 1.331 . S
C1001 C999 1.392 . S
C1001 N1000 1.331 . S
O1002 Zn995 1.975 1_556 S
O1002 C1003 1.252 . S
C1003 O1002 1.252 . S
C1003 O1004 1.252 . S
O1004 Zn986 1.975 . S
O1004 C1003 1.252 . S
H1005 C998 0.930 . S
H1006 C999 0.930 . S
C1007 C1008 1.392 . S
C1007 N1011 1.328 1_554 S
C1007 H1013 0.930 . S
C1008 C1007 1.392 . S
C1008 N1012 1.331 1_554 S
C1009 C1010 1.391 . S
C1009 N1012 1.329 . S
C1009 H1019 0.930 . S
C1010 C1009 1.391 . S
C1010 N1011 1.334 . S
C1010 H1017 0.930 . S
N1011 Zn995 2.119 1_556 S
N1011 C1007 1.328 1_556 S
N1011 C1010 1.334 . S
N1012 C1008 1.331 1_556 S
N1012 C1009 1.329 . S
H1013 C1007 0.930 . S
C1014 O994 1.257 . S
C1014 O1015 1.244 . S
O1015 C1014 1.244 . S
O1016 C992 1.257 . S
O1016 Zn995 2.019 . S
H1017 C1010 0.930 . S
H1018 C997 0.930 1_554 S
H1019 C1009 0.930 . S
Zn1020 N1024 2.020 . S
Zn1020 O1028 2.019 1_556 S
Zn1020 N1030 2.119 . S
Zn1020 O1038 1.975 . S
C1021 N1022 1.334 . S
C1021 N1025 1.336 . S
N1022 C1021 1.334 . S
N1022 C1023 1.334 . S
C1023 N1022 1.334 . S
C1023 N1024 1.336 . S
N1024 Zn1020 2.020 . S
N1024 C1023 1.336 . S
N1024 N1025 1.354 . S
N1025 C1021 1.336 . S
N1025 N1024 1.354 . S
N1025 Zn1029 2.020 . S
C1026 O1027 1.244 . S
C1026 O1050 1.257 . S
O1027 C1026 1.244 . S
O1028 Zn1020 2.019 1_554 S
O1028 C1048 1.257 . S
Zn1029 N1025 2.020 . S
Zn1029 O1036 1.975 . S
Zn1029 N1045 2.119 . S
Zn1029 O1050 2.019 . S
N1030 Zn1020 2.119 . S
N1030 C1032 1.334 . S
N1030 C1033 1.328 . S
C1031 C1032 1.391 . S
C1031 N1034 1.329 . S
C1031 H1052 0.930 . S
C1032 N1030 1.334 . S
C1032 C1031 1.391 . S
C1032 H1039 0.930 . S
C1033 N1030 1.328 . S
C1033 C1035 1.392 . S
C1033 H1040 0.930 1_556 S
N1034 C1031 1.329 . S
N1034 C1035 1.331 . S
C1035 C1033 1.392 . S
C1035 N1034 1.331 . S
O1036 Zn1029 1.975 . S
O1036 C1037 1.252 . S
C1037 O1036 1.252 . S
C1037 O1038 1.252 . S
O1038 Zn1020 1.975 . S
O1038 C1037 1.252 . S
H1039 C1032 0.930 . S
H1040 C1033 0.930 1_554 S
C1041 C1042 1.392 . S
C1041 N1045 1.328 . S
C1041 H1047 0.930 . S
C1042 C1041 1.392 . S
C1042 N1046 1.331 . S
C1043 C1044 1.391 . S
C1043 N1046 1.329 . S
C1043 H1053 0.930 . S
C1044 C1043 1.391 . S
C1044 N1045 1.334 . S
C1044 H1051 0.930 . S
N1045 Zn1029 2.119 . S
N1045 C1041 1.328 . S
N1045 C1044 1.334 . S
N1046 C1042 1.331 . S
N1046 C1043 1.329 . S
H1047 C1041 0.930 . S
C1048 O1028 1.257 . S
C1048 O1049 1.244 . S
O1049 C1048 1.244 . S
O1050 C1026 1.257 . S
O1050 Zn1029 2.019 . S
H1051 C1044 0.930 . S
H1052 C1031 0.930 . S
H1053 C1043 0.930 . S
Zn1054 N1058 2.020 . S
Zn1054 O1062 2.019 1_545 S
Zn1054 N1064 2.120 . S
Zn1054 O1072 1.975 1_545 S
C1055 N1056 1.334 . S
C1055 N1059 1.336 . S
N1056 C1055 1.334 . S
N1056 C1057 1.334 . S
C1057 N1056 1.334 . S
C1057 N1058 1.336 . S
N1058 Zn1054 2.020 . S
N1058 C1057 1.336 . S
N1058 N1059 1.354 . S
N1059 C1055 1.336 . S
N1059 N1058 1.354 . S
N1059 Zn1063 2.020 . S
C1060 O1061 1.238 1_565 S
C1060 O1084 1.261 . S
O1061 C1060 1.238 1_545 S
O1062 Zn1054 2.019 1_565 S
O1062 C1082 1.250 1_565 S
Zn1063 N1059 2.020 . S
Zn1063 O1070 1.975 1_545 S
Zn1063 N1079 2.119 . S
Zn1063 O1084 2.019 1_546 S
N1064 Zn1054 2.120 . S
N1064 C1066 1.332 1_545 S
N1064 C1067 1.328 1_545 S
C1065 C1066 1.391 . S
C1065 N1068 1.329 . S
C1065 H1086 0.930 . S
C1066 N1064 1.332 1_565 S
C1066 C1065 1.391 . S
C1066 H1073 0.930 . S
C1067 N1064 1.328 1_565 S
C1067 C1069 1.392 . S
C1067 H1074 0.930 1_565 S
N1068 C1065 1.329 . S
N1068 C1069 1.331 . S
C1069 C1067 1.392 . S
C1069 N1068 1.331 . S
O1070 Zn1063 1.975 1_565 S
O1070 C1071 1.252 . S
C1071 O1070 1.252 . S
C1071 O1072 1.252 . S
O1072 Zn1054 1.975 1_565 S
O1072 C1071 1.252 . S
H1073 C1066 0.930 . S
H1074 C1067 0.930 1_545 S
C1075 C1076 1.390 1_545 S
C1075 N1079 1.329 . S
C1075 H1081 0.931 1_556 S
C1076 C1075 1.390 1_565 S
C1076 N1080 1.331 . S
C1077 C1078 1.391 . S
C1077 N1080 1.329 . S
C1077 H1087 0.930 . S
C1078 C1077 1.391 . S
C1078 N1079 1.334 1_565 S
C1078 H1085 0.929 1_565 S
N1079 Zn1063 2.119 . S
N1079 C1075 1.329 . S
N1079 C1078 1.334 1_545 S
N1080 C1076 1.331 . S
N1080 C1077 1.329 . S
H1081 C1075 0.931 1_554 S
C1082 O1062 1.250 1_545 S
C1082 O1083 1.255 . S
O1083 C1082 1.255 . S
O1084 C1060 1.261 . S
O1084 Zn1063 2.019 1_564 S
H1085 C1078 0.929 1_545 S
H1086 C1065 0.930 . S
H1087 C1077 0.930 . S
C1088 C1089 1.363 . S
C1088 C1094 1.379 . S
C1088 N1096 1.356 . S
C1089 C1088 1.363 . S
C1089 C1095 1.363 . S
C1090 C1091 1.363 . S
C1090 C1095 1.379 . S
C1090 N1097 1.356 1_554 S
C1091 C1090 1.363 . S
C1091 C1094 1.363 . S
N1092 C1094 1.356 . S
N1092 H1104 0.984 . S
N1092 H1105 0.985 . S
N1093 C1095 1.356 . S
N1093 H1098 0.984 . S
N1093 H1099 0.985 1_554 S
C1094 C1088 1.379 . S
C1094 C1091 1.363 . S
C1094 N1092 1.356 . S
C1095 C1089 1.363 . S
C1095 C1090 1.379 . S
C1095 N1093 1.356 . S
N1096 C1088 1.356 . S
N1096 H1102 0.984 . S
N1096 H1103 0.984 . S
N1097 C1090 1.356 1_556 S
N1097 H1100 0.984 . S
N1097 H1101 0.985 . S
H1098 N1093 0.984 . S
H1099 N1093 0.985 1_556 S
H1100 N1097 0.984 . S
H1101 N1097 0.985 . S
H1102 N1096 0.984 . S
H1103 N1096 0.984 . S
H1104 N1092 0.984 . S
H1105 N1092 0.985 . S
C1106 C1107 1.363 . S
C1106 C1112 1.379 . S
C1106 N1114 1.356 . S
C1107 C1106 1.363 . S
C1107 C1113 1.363 . S
C1108 C1109 1.363 . S
C1108 C1113 1.379 . S
C1108 N1115 1.356 . S
C1109 C1108 1.363 . S
C1109 C1112 1.363 . S
N1110 C1112 1.356 1_556 S
N1110 H1122 0.984 . S
N1110 H1123 0.985 . S
N1111 C1113 1.356 . S
N1111 H1116 0.984 . S
N1111 H1117 0.985 . S
C1112 C1106 1.379 . S
C1112 C1109 1.363 . S
C1112 N1110 1.356 1_554 S
C1113 C1107 1.363 . S
C1113 C1108 1.379 . S
C1113 N1111 1.356 . S
N1114 C1106 1.356 . S
N1114 H1120 0.984 1_554 S
N1114 H1121 0.984 . S
N1115 C1108 1.356 . S
N1115 H1118 0.984 . S
N1115 H1119 0.985 . S
H1116 N1111 0.984 . S
H1117 N1111 0.985 . S
H1118 N1115 0.984 . S
H1119 N1115 0.985 . S
H1120 N1114 0.984 1_556 S
H1121 N1114 0.984 . S
H1122 N1110 0.984 . S
H1123 N1110 0.985 . S
C1124 C1125 1.363 . S
C1124 C1130 1.379 . S
C1124 N1132 1.356 . S
C1125 C1124 1.363 . S
C1125 C1131 1.363 . S
C1126 C1127 1.363 . S
C1126 C1131 1.379 . S
C1126 N1133 1.356 . S
C1127 C1126 1.363 . S
C1127 C1130 1.363 . S
N1128 C1130 1.356 1_554 S
N1128 H1140 0.984 . S
N1128 H1141 0.985 . S
N1129 C1131 1.356 . S
N1129 H1134 0.984 . S
N1129 H1135 0.985 . S
C1130 C1124 1.379 . S
C1130 C1127 1.363 . S
C1130 N1128 1.356 1_556 S
C1131 C1125 1.363 . S
C1131 C1126 1.379 . S
C1131 N1129 1.356 . S
N1132 C1124 1.356 . S
N1132 H1138 0.984 1_556 S
N1132 H1139 0.984 . S
N1133 C1126 1.356 . S
N1133 H1136 0.984 . S
N1133 H1137 0.985 . S
H1134 N1129 0.984 . S
H1135 N1129 0.985 . S
H1136 N1133 0.984 . S
H1137 N1133 0.985 . S
H1138 N1132 0.984 1_554 S
H1139 N1132 0.984 . S
H1140 N1128 0.984 . S
H1141 N1128 0.985 . S
C1142 C1143 1.363 . S
C1142 C1148 1.379 . S
C1142 N1150 1.356 . S
C1143 C1142 1.363 . S
C1143 C1149 1.363 . S
C1144 C1145 1.363 . S
C1144 C1149 1.379 . S
C1144 N1151 1.356 1_556 S
C1145 C1144 1.363 . S
C1145 C1148 1.363 . S
N1146 C1148 1.356 . S
N1146 H1158 0.984 . S
N1146 H1159 0.985 . S
N1147 C1149 1.356 . S
N1147 H1152 0.984 . S
N1147 H1153 0.985 1_556 S
C1148 C1142 1.379 . S
C1148 C1145 1.363 . S
C1148 N1146 1.356 . S
C1149 C1143 1.363 . S
C1149 C1144 1.379 . S
C1149 N1147 1.356 . S
N1150 C1142 1.356 . S
N1150 H1156 0.984 . S
N1150 H1157 0.984 . S
N1151 C1144 1.356 1_554 S
N1151 H1154 0.984 . S
N1151 H1155 0.985 . S
H1152 N1147 0.984 . S
H1153 N1147 0.985 1_554 S
H1154 N1151 0.984 . S
H1155 N1151 0.985 . S
H1156 N1150 0.984 . S
H1157 N1150 0.984 . S
H1158 N1146 0.984 . S
H1159 N1146 0.985 . S
C1160 C1161 1.363 . S
C1160 C1166 1.379 . S
C1160 N1168 1.356 . S
C1161 C1160 1.363 . S
C1161 C1167 1.363 . S
C1162 C1163 1.363 . S
C1162 C1167 1.379 . S
C1162 N1169 1.356 . S
C1163 C1162 1.363 . S
C1163 C1166 1.363 . S
N1164 C1166 1.356 . S
N1164 H1176 0.984 . S
N1164 H1177 0.985 . S
N1165 C1167 1.356 . S
N1165 H1170 0.984 . S
N1165 H1171 0.985 . S
C1166 C1160 1.379 . S
C1166 C1163 1.363 . S
C1166 N1164 1.356 . S
C1167 C1161 1.363 . S
C1167 C1162 1.379 . S
C1167 N1165 1.356 . S
N1168 C1160 1.356 . S
N1168 H1174 0.984 . S
N1168 H1175 0.984 . S
N1169 C1162 1.356 . S
N1169 H1172 0.984 . S
N1169 H1173 0.985 . S
H1170 N1165 0.984 . S
H1171 N1165 0.985 . S
H1172 N1169 0.984 . S
H1173 N1169 0.985 . S
H1174 N1168 0.984 . S
H1175 N1168 0.984 . S
H1176 N1164 0.984 . S
H1177 N1164 0.985 . S
C1178 C1179 1.363 . S
C1178 C1184 1.379 . S
C1178 N1186 1.356 . S
C1179 C1178 1.363 . S
C1179 C1185 1.363 . S
C1180 C1181 1.363 . S
C1180 C1185 1.379 . S
C1180 N1187 1.356 . S
C1181 C1180 1.363 . S
C1181 C1184 1.363 . S
N1182 C1184 1.356 . S
N1182 H1194 0.984 . S
N1182 H1195 0.985 . S
N1183 C1185 1.356 . S
N1183 H1188 0.984 . S
N1183 H1189 0.985 . S
C1184 C1178 1.379 . S
C1184 C1181 1.363 . S
C1184 N1182 1.356 . S
C1185 C1179 1.363 . S
C1185 C1180 1.379 . S
C1185 N1183 1.356 . S
N1186 C1178 1.356 . S
N1186 H1192 0.984 . S
N1186 H1193 0.984 . S
N1187 C1180 1.356 . S
N1187 H1190 0.984 . S
N1187 H1191 0.985 . S
H1188 N1183 0.984 . S
H1189 N1183 0.985 . S
H1190 N1187 0.984 . S
H1191 N1187 0.985 . S
H1192 N1186 0.984 . S
H1193 N1186 0.984 . S
H1194 N1182 0.984 . S
H1195 N1182 0.985 . S
C1196 C1197 1.363 . S
C1196 C1202 1.379 . S
C1196 N1204 1.356 . S
C1197 C1196 1.363 . S
C1197 C1203 1.363 . S
C1198 C1199 1.363 . S
C1198 C1203 1.379 . S
C1198 N1205 1.356 . S
C1199 C1198 1.363 . S
C1199 C1202 1.363 . S
N1200 C1202 1.356 . S
N1200 H1212 0.984 . S
N1200 H1213 0.985 . S
N1201 C1203 1.356 . S
N1201 H1206 0.984 . S
N1201 H1207 0.985 . S
C1202 C1196 1.379 . S
C1202 C1199 1.363 . S
C1202 N1200 1.356 . S
C1203 C1197 1.363 . S
C1203 C1198 1.379 . S
C1203 N1201 1.356 . S
N1204 C1196 1.356 . S
N1204 H1210 0.984 . S
N1204 H1211 0.984 . S
N1205 C1198 1.356 . S
N1205 H1208 0.984 . S
N1205 H1209 0.985 . S
H1206 N1201 0.984 . S
H1207 N1201 0.985 . S
H1208 N1205 0.984 . S
H1209 N1205 0.985 . S
H1210 N1204 0.984 . S
H1211 N1204 0.984 . S
H1212 N1200 0.984 . S
H1213 N1200 0.985 . S
C1214 C1215 1.363 . S
C1214 C1220 1.379 . S
C1214 N1222 1.356 . S
C1215 C1214 1.363 . S
C1215 C1221 1.363 . S
C1216 C1217 1.363 . S
C1216 C1221 1.379 . S
C1216 N1223 1.356 . S
C1217 C1216 1.363 . S
C1217 C1220 1.363 . S
N1218 C1220 1.356 . S
N1218 H1230 0.984 . S
N1218 H1231 0.985 . S
N1219 C1221 1.356 . S
N1219 H1224 0.984 . S
N1219 H1225 0.985 . S
C1220 C1214 1.379 . S
C1220 C1217 1.363 . S
C1220 N1218 1.356 . S
C1221 C1215 1.363 . S
C1221 C1216 1.379 . S
C1221 N1219 1.356 . S
N1222 C1214 1.356 . S
N1222 H1228 0.984 . S
N1222 H1229 0.984 . S
N1223 C1216 1.356 . S
N1223 H1226 0.984 . S
N1223 H1227 0.985 . S
H1224 N1219 0.984 . S
H1225 N1219 0.985 . S
H1226 N1223 0.984 . S
H1227 N1223 0.985 . S
H1228 N1222 0.984 . S
H1229 N1222 0.984 . S
H1230 N1218 0.984 . S
H1231 N1218 0.985 . S
C1232 C1233 1.363 . S
C1232 C1238 1.379 . S
C1232 N1240 1.356 . S
C1233 C1232 1.363 . S
C1233 C1239 1.363 . S
C1234 C1235 1.363 . S
C1234 C1239 1.379 . S
C1234 N1241 1.356 . S
C1235 C1234 1.363 . S
C1235 C1238 1.363 . S
N1236 C1238 1.356 . S
N1236 H1248 0.984 . S
N1236 H1249 0.985 . S
N1237 C1239 1.356 . S
N1237 H1242 0.984 . S
N1237 H1243 0.985 . S
C1238 C1232 1.379 . S
C1238 C1235 1.363 . S
C1238 N1236 1.356 . S
C1239 C1233 1.363 . S
C1239 C1234 1.379 . S
C1239 N1237 1.356 . S
N1240 C1232 1.356 . S
N1240 H1246 0.984 . S
N1240 H1247 0.984 . S
N1241 C1234 1.356 . S
N1241 H1244 0.984 . S
N1241 H1245 0.985 . S
H1242 N1237 0.984 . S
H1243 N1237 0.985 . S
H1244 N1241 0.984 . S
H1245 N1241 0.985 . S
H1246 N1240 0.984 . S
H1247 N1240 0.984 . S
H1248 N1236 0.984 . S
H1249 N1236 0.985 . S
C1250 C1251 1.363 . S
C1250 C1256 1.379 . S
C1250 N1258 1.356 . S
C1251 C1250 1.363 . S
C1251 C1257 1.363 . S
C1252 C1253 1.363 . S
C1252 C1257 1.379 . S
C1252 N1259 1.356 . S
C1253 C1252 1.363 . S
C1253 C1256 1.363 . S
N1254 C1256 1.356 . S
N1254 H1266 0.984 . S
N1254 H1267 0.985 . S
N1255 C1257 1.356 . S
N1255 H1260 0.984 . S
N1255 H1261 0.985 . S
C1256 C1250 1.379 . S
C1256 C1253 1.363 . S
C1256 N1254 1.356 . S
C1257 C1251 1.363 . S
C1257 C1252 1.379 . S
C1257 N1255 1.356 . S
N1258 C1250 1.356 . S
N1258 H1264 0.984 . S
N1258 H1265 0.984 . S
N1259 C1252 1.356 . S
N1259 H1262 0.984 . S
N1259 H1263 0.985 . S
H1260 N1255 0.984 . S
H1261 N1255 0.985 . S
H1262 N1259 0.984 . S
H1263 N1259 0.985 . S
H1264 N1258 0.984 . S
H1265 N1258 0.984 . S
H1266 N1254 0.984 . S
H1267 N1254 0.985 . S
C1268 C1269 1.363 . S
C1268 C1274 1.379 . S
C1268 N1276 1.356 . S
C1269 C1268 1.363 . S
C1269 C1275 1.363 . S
C1270 C1271 1.363 . S
C1270 C1275 1.379 . S
C1270 N1277 1.356 . S
C1271 C1270 1.363 . S
C1271 C1274 1.363 . S
N1272 C1274 1.356 . S
N1272 H1284 0.984 . S
N1272 H1285 0.985 . S
N1273 C1275 1.356 . S
N1273 H1278 0.984 . S
N1273 H1279 0.985 . S
C1274 C1268 1.379 . S
C1274 C1271 1.363 . S
C1274 N1272 1.356 . S
C1275 C1269 1.363 . S
C1275 C1270 1.379 . S
C1275 N1273 1.356 . S
N1276 C1268 1.356 . S
N1276 H1282 0.984 . S
N1276 H1283 0.984 . S
N1277 C1270 1.356 . S
N1277 H1280 0.984 . S
N1277 H1281 0.985 . S
H1278 N1273 0.984 . S
H1279 N1273 0.985 . S
H1280 N1277 0.984 . S
H1281 N1277 0.985 . S
H1282 N1276 0.984 . S
H1283 N1276 0.984 . S
H1284 N1272 0.984 . S
H1285 N1272 0.985 . S
C1286 C1287 1.363 . S
C1286 C1292 1.379 . S
C1286 N1294 1.356 . S
C1287 C1286 1.363 . S
C1287 C1293 1.363 . S
C1288 C1289 1.363 . S
C1288 C1293 1.379 . S
C1288 N1295 1.356 . S
C1289 C1288 1.363 . S
C1289 C1292 1.363 . S
N1290 C1292 1.356 . S
N1290 H1302 0.984 . S
N1290 H1303 0.985 . S
N1291 C1293 1.356 . S
N1291 H1296 0.984 . S
N1291 H1297 0.985 . S
C1292 C1286 1.379 . S
C1292 C1289 1.363 . S
C1292 N1290 1.356 . S
C1293 C1287 1.363 . S
C1293 C1288 1.379 . S
C1293 N1291 1.356 . S
N1294 C1286 1.356 . S
N1294 H1300 0.984 . S
N1294 H1301 0.984 . S
N1295 C1288 1.356 . S
N1295 H1298 0.984 . S
N1295 H1299 0.985 . S
H1296 N1291 0.984 . S
H1297 N1291 0.985 . S
H1298 N1295 0.984 . S
H1299 N1295 0.985 . S
H1300 N1294 0.984 . S
H1301 N1294 0.984 . S
H1302 N1290 0.984 . S
H1303 N1290 0.985 . S
C1304 C1305 1.363 . S
C1304 C1310 1.379 . S
C1304 N1312 1.356 1_554 S
C1305 C1304 1.363 . S
C1305 C1311 1.363 . S
C1306 C1307 1.363 . S
C1306 C1311 1.379 . S
C1306 N1313 1.356 . S
C1307 C1306 1.363 . S
C1307 C1310 1.363 . S
N1308 C1310 1.356 . S
N1308 H1320 0.984 1_554 S
N1308 H1321 0.985 . S
N1309 C1311 1.356 . S
N1309 H1314 0.984 . S
N1309 H1315 0.985 . S
C1310 C1304 1.379 . S
C1310 C1307 1.363 . S
C1310 N1308 1.356 . S
C1311 C1305 1.363 . S
C1311 C1306 1.379 . S
C1311 N1309 1.356 . S
N1312 C1304 1.356 1_556 S
N1312 H1318 0.984 . S
N1312 H1319 0.984 . S
N1313 C1306 1.356 . S
N1313 H1316 0.984 . S
N1313 H1317 0.985 . S
H1314 N1309 0.984 . S
H1315 N1309 0.985 . S
H1316 N1313 0.984 . S
H1317 N1313 0.985 . S
H1318 N1312 0.984 . S
H1319 N1312 0.984 . S
H1320 N1308 0.984 1_556 S
H1321 N1308 0.985 . S
C1322 C1323 1.363 . S
C1322 C1328 1.379 . S
C1322 N1330 1.356 . S
C1323 C1322 1.363 . S
C1323 C1329 1.363 . S
C1324 C1325 1.363 . S
C1324 C1329 1.379 . S
C1324 N1331 1.356 1_554 S
C1325 C1324 1.363 . S
C1325 C1328 1.363 . S
N1326 C1328 1.356 . S
N1326 H1338 0.984 . S
N1326 H1339 0.985 . S
N1327 C1329 1.356 . S
N1327 H1332 0.984 . S
N1327 H1333 0.985 1_554 S
C1328 C1322 1.379 . S
C1328 C1325 1.363 . S
C1328 N1326 1.356 . S
C1329 C1323 1.363 . S
C1329 C1324 1.379 . S
C1329 N1327 1.356 . S
N1330 C1322 1.356 . S
N1330 H1336 0.984 . S
N1330 H1337 0.984 . S
N1331 C1324 1.356 1_556 S
N1331 H1334 0.984 . S
N1331 H1335 0.985 . S
H1332 N1327 0.984 . S
H1333 N1327 0.985 1_556 S
H1334 N1331 0.984 . S
H1335 N1331 0.985 . S
H1336 N1330 0.984 . S
H1337 N1330 0.984 . S
H1338 N1326 0.984 . S
H1339 N1326 0.985 . S
C1340 C1341 1.363 . S
C1340 C1346 1.379 . S
C1340 N1348 1.356 . S
C1341 C1340 1.363 . S
C1341 C1347 1.363 . S
C1342 C1343 1.363 . S
C1342 C1347 1.379 . S
C1342 N1349 1.356 1_556 S
C1343 C1342 1.363 . S
C1343 C1346 1.363 . S
N1344 C1346 1.356 . S
N1344 H1356 0.984 . S
N1344 H1357 0.985 . S
N1345 C1347 1.357 . S
N1345 H1350 0.985 . S
N1345 H1351 0.983 1_556 S
C1346 C1340 1.379 . S
C1346 C1343 1.363 . S
C1346 N1344 1.356 . S
C1347 C1341 1.363 . S
C1347 C1342 1.379 . S
C1347 N1345 1.357 . S
N1348 C1340 1.356 . S
N1348 H1354 0.984 . S
N1348 H1355 0.984 . S
N1349 C1342 1.356 1_554 S
N1349 H1352 0.984 . S
N1349 H1353 0.985 . S
H1350 N1345 0.985 . S
H1351 N1345 0.983 1_554 S
H1352 N1349 0.984 . S
H1353 N1349 0.985 . S
H1354 N1348 0.984 . S
H1355 N1348 0.984 . S
H1356 N1344 0.984 . S
H1357 N1344 0.985 . S
C1358 C1359 1.363 . S
C1358 C1364 1.379 . S
C1358 N1366 1.356 . S
C1359 C1358 1.363 . S
C1359 C1365 1.363 . S
C1360 C1361 1.363 . S
C1360 C1365 1.379 . S
C1360 N1367 1.356 . S
C1361 C1360 1.363 . S
C1361 C1364 1.363 . S
N1362 C1364 1.356 . S
N1362 H1374 0.984 . S
N1362 H1375 0.985 . S
N1363 C1365 1.356 1_554 S
N1363 H1368 0.984 . S
N1363 H1369 0.985 . S
C1364 C1358 1.379 . S
C1364 C1361 1.363 . S
C1364 N1362 1.356 . S
C1365 C1359 1.363 . S
C1365 C1360 1.379 . S
C1365 N1363 1.356 1_556 S
N1366 C1358 1.356 . S
N1366 H1372 0.984 . S
N1366 H1373 0.984 . S
N1367 C1360 1.356 . S
N1367 H1370 0.984 . S
N1367 H1371 0.985 1_556 S
H1368 N1363 0.984 . S
H1369 N1363 0.985 . S
H1370 N1367 0.984 . S
H1371 N1367 0.985 1_554 S
H1372 N1366 0.984 . S
H1373 N1366 0.984 . S
H1374 N1362 0.984 . S
H1375 N1362 0.985 . S
C1376 C1377 1.363 . S
C1376 C1382 1.379 1_655 S
C1376 N1384 1.356 . S
C1377 C1376 1.363 . S
C1377 C1383 1.363 1_554 S
C1378 C1379 1.363 . S
C1378 C1383 1.379 1_455 S
C1378 N1385 1.356 . S
C1379 C1378 1.363 . S
C1379 C1382 1.363 1_556 S
N1380 C1382 1.356 . S
N1380 H1392 0.984 . S
N1380 H1393 0.985 . S
N1381 C1383 1.356 . S
N1381 H1386 0.984 . S
N1381 H1387 0.985 . S
C1382 C1376 1.379 1_455 S
C1382 C1379 1.363 1_554 S
C1382 N1380 1.356 . S
C1383 C1377 1.363 1_556 S
C1383 C1378 1.379 1_655 S
C1383 N1381 1.356 . S
N1384 C1376 1.356 . S
N1384 H1390 0.984 . S
N1384 H1391 0.984 . S
N1385 C1378 1.356 . S
N1385 H1388 0.984 . S
N1385 H1389 0.985 . S
H1386 N1381 0.984 . S
H1387 N1381 0.985 . S
H1388 N1385 0.984 . S
H1389 N1385 0.985 . S
H1390 N1384 0.984 . S
H1391 N1384 0.984 . S
H1392 N1380 0.984 . S
H1393 N1380 0.985 . S
C1394 C1395 1.363 . S
C1394 C1400 1.379 1_554 S
C1394 N1402 1.356 . S
C1395 C1394 1.363 . S
C1395 C1401 1.363 . S
C1396 C1397 1.363 . S
C1396 C1401 1.379 1_556 S
C1396 N1403 1.356 . S
C1397 C1396 1.363 . S
C1397 C1400 1.363 . S
N1398 C1400 1.356 . S
N1398 H1410 0.984 . S
N1398 H1411 0.985 . S
N1399 C1401 1.356 . S
N1399 H1404 0.984 . S
N1399 H1405 0.985 . S
C1400 C1394 1.379 1_556 S
C1400 C1397 1.363 . S
C1400 N1398 1.356 . S
C1401 C1395 1.363 . S
C1401 C1396 1.379 1_554 S
C1401 N1399 1.356 . S
N1402 C1394 1.356 . S
N1402 H1408 0.984 . S
N1402 H1409 0.984 . S
N1403 C1396 1.356 . S
N1403 H1406 0.984 . S
N1403 H1407 0.985 . S
H1404 N1399 0.984 . S
H1405 N1399 0.985 . S
H1406 N1403 0.984 . S
H1407 N1403 0.985 . S
H1408 N1402 0.984 . S
H1409 N1402 0.984 . S
H1410 N1398 0.984 . S
H1411 N1398 0.985 . S
C1412 C1413 1.363 . S
C1412 C1418 1.379 1_455 S
C1412 N1420 1.356 . S
C1413 C1412 1.363 . S
C1413 C1419 1.363 . S
C1414 C1415 1.363 . S
C1414 C1419 1.379 1_655 S
C1414 N1421 1.356 . S
C1415 C1414 1.363 . S
C1415 C1418 1.363 . S
N1416 C1418 1.356 . S
N1416 H1428 0.984 . S
N1416 H1429 0.985 . S
N1417 C1419 1.356 . S
N1417 H1422 0.984 . S
N1417 H1423 0.985 . S
C1418 C1412 1.379 1_655 S
C1418 C1415 1.363 . S
C1418 N1416 1.356 . S
C1419 C1413 1.363 . S
C1419 C1414 1.379 1_455 S
C1419 N1417 1.356 . S
N1420 C1412 1.356 . S
N1420 H1426 0.984 . S
N1420 H1427 0.984 . S
N1421 C1414 1.356 . S
N1421 H1424 0.984 . S
N1421 H1425 0.985 . S
H1422 N1417 0.984 . S
H1423 N1417 0.985 . S
H1424 N1421 0.984 . S
H1425 N1421 0.985 . S
H1426 N1420 0.984 . S
H1427 N1420 0.984 . S
H1428 N1416 0.984 . S
H1429 N1416 0.985 . S
C1430 C1431 1.363 . S
C1430 C1436 1.379 . S
C1430 N1438 1.356 . S
C1431 C1430 1.363 . S
C1431 C1437 1.363 . S
C1432 C1433 1.363 . S
C1432 C1437 1.379 . S
C1432 N1439 1.356 . S
C1433 C1432 1.363 . S
C1433 C1436 1.363 . S
N1434 C1436 1.356 . S
N1434 H1446 0.984 . S
N1434 H1447 0.985 . S
N1435 C1437 1.356 . S
N1435 H1440 0.984 . S
N1435 H1441 0.985 . S
C1436 C1430 1.379 . S
C1436 C1433 1.363 . S
C1436 N1434 1.356 . S
C1437 C1431 1.363 . S
C1437 C1432 1.379 . S
C1437 N1435 1.356 . S
N1438 C1430 1.356 . S
N1438 H1444 0.984 . S
N1438 H1445 0.984 . S
N1439 C1432 1.356 . S
N1439 H1442 0.984 . S
N1439 H1443 0.985 . S
H1440 N1435 0.984 . S
H1441 N1435 0.985 . S
H1442 N1439 0.984 . S
H1443 N1439 0.985 . S
H1444 N1438 0.984 . S
H1445 N1438 0.984 . S
H1446 N1434 0.984 . S
H1447 N1434 0.985 . S
C1448 C1449 1.363 . S
C1448 C1454 1.379 . S
C1448 N1456 1.356 . S
C1449 C1448 1.363 . S
C1449 C1455 1.363 1_556 S
C1450 C1451 1.363 . S
C1450 C1455 1.379 . S
C1450 N1457 1.356 . S
C1451 C1450 1.363 . S
C1451 C1454 1.363 1_554 S
N1452 C1454 1.356 . S
N1452 H1464 0.984 . S
N1452 H1465 0.985 . S
N1453 C1455 1.356 . S
N1453 H1458 0.984 . S
N1453 H1459 0.985 . S
C1454 C1448 1.379 . S
C1454 C1451 1.363 1_556 S
C1454 N1452 1.356 . S
C1455 C1449 1.363 1_554 S
C1455 C1450 1.379 . S
C1455 N1453 1.356 . S
N1456 C1448 1.356 . S
N1456 H1462 0.984 . S
N1456 H1463 0.984 . S
N1457 C1450 1.356 . S
N1457 H1460 0.984 . S
N1457 H1461 0.985 . S
H1458 N1453 0.984 . S
H1459 N1453 0.985 . S
H1460 N1457 0.984 . S
H1461 N1457 0.985 . S
H1462 N1456 0.984 . S
H1463 N1456 0.984 . S
H1464 N1452 0.984 . S
H1465 N1452 0.985 . S
C1466 C1467 1.363 . S
C1466 C1472 1.379 1_655 S
C1466 N1474 1.356 . S
C1467 C1466 1.363 . S
C1467 C1473 1.363 . S
C1468 C1469 1.363 . S
C1468 C1473 1.379 1_455 S
C1468 N1475 1.356 . S
C1469 C1468 1.363 . S
C1469 C1472 1.363 . S
N1470 C1472 1.356 . S
N1470 H1482 0.984 . S
N1470 H1483 0.985 . S
N1471 C1473 1.356 . S
N1471 H1476 0.984 . S
N1471 H1477 0.985 . S
C1472 C1466 1.379 1_455 S
C1472 C1469 1.363 . S
C1472 N1470 1.356 . S
C1473 C1467 1.363 . S
C1473 C1468 1.379 1_655 S
C1473 N1471 1.356 . S
N1474 C1466 1.356 . S
N1474 H1480 0.984 . S
N1474 H1481 0.984 . S
N1475 C1468 1.356 . S
N1475 H1478 0.984 . S
N1475 H1479 0.985 . S
H1476 N1471 0.984 . S
H1477 N1471 0.985 . S
H1478 N1475 0.984 . S
H1479 N1475 0.985 . S
H1480 N1474 0.984 . S
H1481 N1474 0.984 . S
H1482 N1470 0.984 . S
H1483 N1470 0.985 . S
C1484 C1485 1.363 . S
C1484 C1490 1.379 . S
C1484 N1492 1.356 . S
C1485 C1484 1.363 . S
C1485 C1491 1.363 . S
C1486 C1487 1.363 . S
C1486 C1491 1.379 . S
C1486 N1493 1.356 . S
C1487 C1486 1.363 . S
C1487 C1490 1.363 . S
N1488 C1490 1.356 . S
N1488 H1500 0.984 . S
N1488 H1501 0.985 . S
N1489 C1491 1.356 . S
N1489 H1494 0.984 . S
N1489 H1495 0.985 . S
C1490 C1484 1.379 . S
C1490 C1487 1.363 . S
C1490 N1488 1.356 . S
C1491 C1485 1.363 . S
C1491 C1486 1.379 . S
C1491 N1489 1.356 . S
N1492 C1484 1.356 . S
N1492 H1498 0.984 . S
N1492 H1499 0.984 . S
N1493 C1486 1.356 . S
N1493 H1496 0.984 . S
N1493 H1497 0.985 . S
H1494 N1489 0.984 . S
H1495 N1489 0.985 . S
H1496 N1493 0.984 . S
H1497 N1493 0.985 . S
H1498 N1492 0.984 . S
H1499 N1492 0.984 . S
H1500 N1488 0.984 . S
H1501 N1488 0.985 . S
C1502 C1503 1.363 1_545 S
C1502 C1508 1.379 1_655 S
C1502 N1510 1.356 . S
C1503 C1502 1.363 1_565 S
C1503 C1509 1.363 . S
C1504 C1505 1.363 1_565 S
C1504 C1509 1.379 1_455 S
C1504 N1511 1.356 . S
C1505 C1504 1.363 1_545 S
C1505 C1508 1.363 . S
N1506 C1508 1.356 . S
N1506 H1518 0.984 . S
N1506 H1519 0.985 . S
N1507 C1509 1.356 . S
N1507 H1512 0.984 . S
N1507 H1513 0.985 . S
C1508 C1502 1.379 1_455 S
C1508 C1505 1.363 . S
C1508 N1506 1.356 . S
C1509 C1503 1.363 . S
C1509 C1504 1.379 1_655 S
C1509 N1507 1.356 . S
N1510 C1502 1.356 . S
N1510 H1516 0.984 . S
N1510 H1517 0.984 . S
N1511 C1504 1.356 . S
N1511 H1514 0.984 . S
N1511 H1515 0.985 . S
H1512 N1507 0.984 . S
H1513 N1507 0.985 . S
H1514 N1511 0.984 . S
H1515 N1511 0.985 . S
H1516 N1510 0.984 . S
H1517 N1510 0.984 . S
H1518 N1506 0.984 . S
H1519 N1506 0.985 . S
C1520 C1521 1.363 . S
C1520 C1526 1.379 . S
C1520 N1528 1.356 . S
C1521 C1520 1.363 . S
C1521 C1527 1.363 . S
C1522 C1523 1.363 . S
C1522 C1527 1.379 . S
C1522 N1529 1.356 . S
C1523 C1522 1.363 . S
C1523 C1526 1.363 . S
N1524 C1526 1.356 . S
N1524 H1536 0.984 . S
N1524 H1537 0.985 . S
N1525 C1527 1.356 . S
N1525 H1530 0.984 . S
N1525 H1531 0.985 . S
C1526 C1520 1.379 . S
C1526 C1523 1.363 . S
C1526 N1524 1.356 . S
C1527 C1521 1.363 . S
C1527 C1522 1.379 . S
C1527 N1525 1.356 . S
N1528 C1520 1.356 . S
N1528 H1534 0.984 . S
N1528 H1535 0.984 . S
N1529 C1522 1.356 . S
N1529 H1532 0.984 . S
N1529 H1533 0.985 . S
H1530 N1525 0.984 . S
H1531 N1525 0.985 . S
H1532 N1529 0.984 . S
H1533 N1529 0.985 . S
H1534 N1528 0.984 . S
H1535 N1528 0.984 . S
H1536 N1524 0.984 . S
H1537 N1524 0.985 . S
C1538 C1539 1.363 1_545 S
C1538 C1544 1.379 . S
C1538 N1546 1.356 . S
C1539 C1538 1.363 1_565 S
C1539 C1545 1.363 . S
C1540 C1541 1.363 1_565 S
C1540 C1545 1.379 . S
C1540 N1547 1.356 . S
C1541 C1540 1.363 1_545 S
C1541 C1544 1.363 . S
N1542 C1544 1.356 . S
N1542 H1554 0.984 . S
N1542 H1555 0.985 . S
N1543 C1545 1.356 . S
N1543 H1548 0.984 . S
N1543 H1549 0.985 . S
C1544 C1538 1.379 . S
C1544 C1541 1.363 . S
C1544 N1542 1.356 . S
C1545 C1539 1.363 . S
C1545 C1540 1.379 . S
C1545 N1543 1.356 . S
N1546 C1538 1.356 . S
N1546 H1552 0.984 . S
N1546 H1553 0.984 . S
N1547 C1540 1.356 . S
N1547 H1550 0.984 . S
N1547 H1551 0.985 . S
H1548 N1543 0.984 . S
H1549 N1543 0.985 . S
H1550 N1547 0.984 . S
H1551 N1547 0.985 . S
H1552 N1546 0.984 . S
H1553 N1546 0.984 . S
H1554 N1542 0.984 . S
H1555 N1542 0.985 . S
C1556 C1557 1.363 . S
C1556 C1562 1.379 . S
C1556 N1564 1.356 . S
C1557 C1556 1.363 . S
C1557 C1563 1.363 . S
C1558 C1559 1.363 . S
C1558 C1563 1.379 . S
C1558 N1565 1.356 . S
C1559 C1558 1.363 . S
C1559 C1562 1.363 . S
N1560 C1562 1.356 . S
N1560 H1572 0.984 . S
N1560 H1573 0.985 . S
N1561 C1563 1.356 . S
N1561 H1566 0.984 . S
N1561 H1567 0.985 . S
C1562 C1556 1.379 . S
C1562 C1559 1.363 . S
C1562 N1560 1.356 . S
C1563 C1557 1.363 . S
C1563 C1558 1.379 . S
C1563 N1561 1.356 . S
N1564 C1556 1.356 . S
N1564 H1570 0.984 . S
N1564 H1571 0.984 . S
N1565 C1558 1.356 . S
N1565 H1568 0.984 . S
N1565 H1569 0.985 . S
H1566 N1561 0.984 . S
H1567 N1561 0.985 . S
H1568 N1565 0.984 . S
H1569 N1565 0.985 . S
H1570 N1564 0.984 . S
H1571 N1564 0.984 . S
H1572 N1560 0.984 . S
H1573 N1560 0.985 . S
C1574 C1575 1.363 1_565 S
C1574 C1580 1.379 . S
C1574 N1582 1.356 . S
C1575 C1574 1.363 1_545 S
C1575 C1581 1.363 . S
C1576 C1577 1.363 1_545 S
C1576 C1581 1.379 . S
C1576 N1583 1.356 . S
C1577 C1576 1.363 1_565 S
C1577 C1580 1.363 . S
N1578 C1580 1.356 . S
N1578 H1590 0.984 . S
N1578 H1591 0.985 . S
N1579 C1581 1.356 . S
N1579 H1584 0.984 . S
N1579 H1585 0.985 . S
C1580 C1574 1.379 . S
C1580 C1577 1.363 . S
C1580 N1578 1.356 . S
C1581 C1575 1.363 . S
C1581 C1576 1.379 . S
C1581 N1579 1.356 . S
N1582 C1574 1.356 . S
N1582 H1588 0.984 . S
N1582 H1589 0.984 . S
N1583 C1576 1.356 . S
N1583 H1586 0.984 . S
N1583 H1587 0.985 . S
H1584 N1579 0.984 . S
H1585 N1579 0.985 . S
H1586 N1583 0.984 . S
H1587 N1583 0.985 . S
H1588 N1582 0.984 . S
H1589 N1582 0.984 . S
H1590 N1578 0.984 . S
H1591 N1578 0.985 . S
C1592 C1593 1.363 . S
C1592 C1598 1.379 . S
C1592 N1600 1.356 . S
C1593 C1592 1.363 . S
C1593 C1599 1.363 . S
C1594 C1595 1.363 . S
C1594 C1599 1.379 . S
C1594 N1601 1.356 . S
C1595 C1594 1.363 . S
C1595 C1598 1.363 . S
N1596 C1598 1.356 . S
N1596 H1608 0.984 . S
N1596 H1609 0.985 . S
N1597 C1599 1.356 . S
N1597 H1602 0.984 . S
N1597 H1603 0.985 . S
C1598 C1592 1.379 . S
C1598 C1595 1.363 . S
C1598 N1596 1.356 . S
C1599 C1593 1.363 . S
C1599 C1594 1.379 . S
C1599 N1597 1.356 . S
N1600 C1592 1.356 . S
N1600 H1606 0.984 . S
N1600 H1607 0.984 . S
N1601 C1594 1.356 . S
N1601 H1604 0.984 . S
N1601 H1605 0.985 . S
H1602 N1597 0.984 . S
H1603 N1597 0.985 . S
H1604 N1601 0.984 . S
H1605 N1601 0.985 . S
H1606 N1600 0.984 . S
H1607 N1600 0.984 . S
H1608 N1596 0.984 . S
H1609 N1596 0.985 . S
C1610 C1611 1.363 . S
C1610 C1616 1.379 . S
C1610 N1618 1.356 . S
C1611 C1610 1.363 . S
C1611 C1617 1.363 . S
C1612 C1613 1.363 . S
C1612 C1617 1.379 . S
C1612 N1619 1.356 . S
C1613 C1612 1.363 . S
C1613 C1616 1.363 . S
N1614 C1616 1.356 . S
N1614 H1626 0.984 . S
N1614 H1627 0.985 . S
N1615 C1617 1.356 . S
N1615 H1620 0.984 . S
N1615 H1621 0.985 . S
C1616 C1610 1.379 . S
C1616 C1613 1.363 . S
C1616 N1614 1.356 . S
C1617 C1611 1.363 . S
C1617 C1612 1.379 . S
C1617 N1615 1.356 . S
N1618 C1610 1.356 . S
N1618 H1624 0.984 . S
N1618 H1625 0.984 . S
N1619 C1612 1.356 . S
N1619 H1622 0.984 . S
N1619 H1623 0.985 . S
H1620 N1615 0.984 . S
H1621 N1615 0.985 . S
H1622 N1619 0.984 . S
H1623 N1619 0.985 . S
H1624 N1618 0.984 . S
H1625 N1618 0.984 . S
H1626 N1614 0.984 . S
H1627 N1614 0.985 . S
C1628 C1629 1.363 . S
C1628 C1634 1.379 . S
C1628 N1636 1.356 . S
C1629 C1628 1.363 . S
C1629 C1635 1.363 . S
C1630 C1631 1.363 . S
C1630 C1635 1.379 . S
C1630 N1637 1.356 . S
C1631 C1630 1.363 . S
C1631 C1634 1.363 . S
N1632 C1634 1.356 . S
N1632 H1644 0.984 . S
N1632 H1645 0.985 . S
N1633 C1635 1.356 . S
N1633 H1638 0.984 . S
N1633 H1639 0.985 . S
C1634 C1628 1.379 . S
C1634 C1631 1.363 . S
C1634 N1632 1.356 . S
C1635 C1629 1.363 . S
C1635 C1630 1.379 . S
C1635 N1633 1.356 . S
N1636 C1628 1.356 . S
N1636 H1642 0.984 . S
N1636 H1643 0.984 . S
N1637 C1630 1.356 . S
N1637 H1640 0.984 . S
N1637 H1641 0.985 . S
H1638 N1633 0.984 . S
H1639 N1633 0.985 . S
H1640 N1637 0.984 . S
H1641 N1637 0.985 . S
H1642 N1636 0.984 . S
H1643 N1636 0.984 . S
H1644 N1632 0.984 . S
H1645 N1632 0.985 . S
C1646 C1647 1.363 . S
C1646 C1652 1.379 . S
C1646 N1654 1.356 . S
C1647 C1646 1.363 . S
C1647 C1653 1.363 1_564 S
C1648 C1649 1.363 . S
C1648 C1653 1.379 . S
C1648 N1655 1.356 . S
C1649 C1648 1.363 . S
C1649 C1652 1.363 1_546 S
N1650 C1652 1.356 . S
N1650 H1662 0.984 . S
N1650 H1663 0.985 . S
N1651 C1653 1.356 . S
N1651 H1656 0.984 . S
N1651 H1657 0.985 . S
C1652 C1646 1.379 . S
C1652 C1649 1.363 1_564 S
C1652 N1650 1.356 . S
C1653 C1647 1.363 1_546 S
C1653 C1648 1.379 . S
C1653 N1651 1.356 . S
N1654 C1646 1.356 . S
N1654 H1660 0.984 . S
N1654 H1661 0.984 . S
N1655 C1648 1.356 . S
N1655 H1658 0.984 . S
N1655 H1659 0.985 . S
H1656 N1651 0.984 . S
H1657 N1651 0.985 . S
H1658 N1655 0.984 . S
H1659 N1655 0.985 . S
H1660 N1654 0.984 . S
H1661 N1654 0.984 . S
H1662 N1650 0.984 . S
H1663 N1650 0.985 . S
C1664 C1665 1.363 . S
C1664 C1670 1.379 . S
C1664 N1672 1.356 . S
C1665 C1664 1.363 . S
C1665 C1671 1.363 . S
C1666 C1667 1.363 . S
C1666 C1671 1.379 . S
C1666 N1673 1.356 . S
C1667 C1666 1.363 . S
C1667 C1670 1.363 . S
N1668 C1670 1.356 . S
N1668 H1680 0.984 . S
N1668 H1681 0.985 . S
N1669 C1671 1.356 . S
N1669 H1674 0.984 . S
N1669 H1675 0.985 . S
C1670 C1664 1.379 . S
C1670 C1667 1.363 . S
C1670 N1668 1.356 . S
C1671 C1665 1.363 . S
C1671 C1666 1.379 . S
C1671 N1669 1.356 . S
N1672 C1664 1.356 . S
N1672 H1678 0.984 . S
N1672 H1679 0.984 . S
N1673 C1666 1.356 . S
N1673 H1676 0.984 . S
N1673 H1677 0.985 . S
H1674 N1669 0.984 . S
H1675 N1669 0.985 . S
H1676 N1673 0.984 . S
H1677 N1673 0.985 . S
H1678 N1672 0.984 . S
H1679 N1672 0.984 . S
H1680 N1668 0.984 . S
H1681 N1668 0.985 . S
C1682 C1683 1.363 . S
C1682 C1688 1.379 . S
C1682 N1690 1.356 . S
C1683 C1682 1.363 . S
C1683 C1689 1.363 . S
C1684 C1685 1.363 . S
C1684 C1689 1.379 . S
C1684 N1691 1.356 . S
C1685 C1684 1.363 . S
C1685 C1688 1.363 . S
N1686 C1688 1.356 . S
N1686 H1698 0.984 . S
N1686 H1699 0.985 . S
N1687 C1689 1.356 . S
N1687 H1692 0.984 . S
N1687 H1693 0.985 . S
C1688 C1682 1.379 . S
C1688 C1685 1.363 . S
C1688 N1686 1.356 . S
C1689 C1683 1.363 . S
C1689 C1684 1.379 . S
C1689 N1687 1.356 . S
N1690 C1682 1.356 . S
N1690 H1696 0.984 . S
N1690 H1697 0.984 . S
N1691 C1684 1.356 . S
N1691 H1694 0.984 . S
N1691 H1695 0.985 . S
H1692 N1687 0.984 . S
H1693 N1687 0.985 . S
H1694 N1691 0.984 . S
H1695 N1691 0.985 . S
H1696 N1690 0.984 . S
H1697 N1690 0.984 . S
H1698 N1686 0.984 . S
H1699 N1686 0.985 . S
C1700 C1701 1.363 . S
C1700 C1706 1.379 . S
C1700 N1708 1.356 . S
C1701 C1700 1.363 . S
C1701 C1707 1.363 . S
C1702 C1703 1.363 . S
C1702 C1707 1.379 . S
C1702 N1709 1.356 . S
C1703 C1702 1.363 . S
C1703 C1706 1.363 . S
N1704 C1706 1.356 1_554 S
N1704 H1716 0.984 . S
N1704 H1717 0.985 . S
N1705 C1707 1.356 . S
N1705 H1710 0.984 . S
N1705 H1711 0.985 . S
C1706 C1700 1.379 . S
C1706 C1703 1.363 . S
C1706 N1704 1.356 1_556 S
C1707 C1701 1.363 . S
C1707 C1702 1.379 . S
C1707 N1705 1.356 . S
N1708 C1700 1.356 . S
N1708 H1714 0.984 . S
N1708 H1715 0.984 . S
N1709 C1702 1.356 . S
N1709 H1712 0.980 1_556 S
N1709 H1713 0.985 . S
H1710 N1705 0.984 . S
H1711 N1705 0.985 . S
H1712 N1709 0.980 1_554 S
H1713 N1709 0.985 . S
H1714 N1708 0.984 . S
H1715 N1708 0.984 . S
H1716 N1704 0.984 . S
H1717 N1704 0.985 . S
C1718 C1719 1.363 . S
C1718 C1724 1.379 . S
C1718 N1726 1.356 . S
C1719 C1718 1.363 . S
C1719 C1725 1.363 . S
C1720 C1721 1.363 . S
C1720 C1725 1.379 . S
C1720 N1727 1.356 1_556 S
C1721 C1720 1.363 . S
C1721 C1724 1.363 . S
N1722 C1724 1.356 . S
N1722 H1734 0.984 . S
N1722 H1735 0.985 . S
N1723 C1725 1.356 . S
N1723 H1728 0.984 . S
N1723 H1729 0.985 . S
C1724 C1718 1.379 . S
C1724 C1721 1.363 . S
C1724 N1722 1.356 . S
C1725 C1719 1.363 . S
C1725 C1720 1.379 . S
C1725 N1723 1.356 . S
N1726 C1718 1.356 . S
N1726 H1732 0.984 . S
N1726 H1733 0.984 . S
N1727 C1720 1.356 1_554 S
N1727 H1730 0.984 . S
N1727 H1731 0.985 . S
H1728 N1723 0.984 . S
H1729 N1723 0.985 . S
H1730 N1727 0.984 . S
H1731 N1727 0.985 . S
H1732 N1726 0.984 . S
H1733 N1726 0.984 . S
H1734 N1722 0.984 . S
H1735 N1722 0.985 . S
C1736 C1737 1.363 . S
C1736 C1742 1.379 . S
C1736 N1744 1.356 . S
C1737 C1736 1.363 . S
C1737 C1743 1.363 . S
C1738 C1739 1.363 . S
C1738 C1743 1.379 . S
C1738 N1745 1.356 . S
C1739 C1738 1.363 . S
C1739 C1742 1.363 . S
N1740 C1742 1.356 . S
N1740 H1752 0.984 . S
N1740 H1753 0.985 . S
N1741 C1743 1.356 . S
N1741 H1746 0.984 . S
N1741 H1747 0.985 . S
C1742 C1736 1.379 . S
C1742 C1739 1.363 . S
C1742 N1740 1.356 . S
C1743 C1737 1.363 . S
C1743 C1738 1.379 . S
C1743 N1741 1.356 . S
N1744 C1736 1.356 . S
N1744 H1750 0.984 . S
N1744 H1751 0.984 . S
N1745 C1738 1.356 . S
N1745 H1748 0.984 . S
N1745 H1749 0.985 . S
H1746 N1741 0.984 . S
H1747 N1741 0.985 . S
H1748 N1745 0.984 . S
H1749 N1745 0.985 . S
H1750 N1744 0.984 . S
H1751 N1744 0.984 . S
H1752 N1740 0.984 . S
H1753 N1740 0.985 . S
C1754 C1755 1.363 . S
C1754 C1760 1.379 . S
C1754 N1762 1.356 . S
C1755 C1754 1.363 . S
C1755 C1761 1.363 . S
C1756 C1757 1.363 . S
C1756 C1761 1.379 . S
C1756 N1763 1.356 . S
C1757 C1756 1.363 . S
C1757 C1760 1.363 . S
N1758 C1760 1.356 . S
N1758 H1770 0.984 . S
N1758 H1771 0.985 . S
N1759 C1761 1.356 . S
N1759 H1764 0.984 . S
N1759 H1765 0.985 . S
C1760 C1754 1.379 . S
C1760 C1757 1.363 . S
C1760 N1758 1.356 . S
C1761 C1755 1.363 . S
C1761 C1756 1.379 . S
C1761 N1759 1.356 . S
N1762 C1754 1.356 . S
N1762 H1768 0.984 . S
N1762 H1769 0.984 . S
N1763 C1756 1.356 . S
N1763 H1766 0.984 . S
N1763 H1767 0.985 . S
H1764 N1759 0.984 . S
H1765 N1759 0.985 . S
H1766 N1763 0.984 . S
H1767 N1763 0.985 . S
H1768 N1762 0.984 . S
H1769 N1762 0.984 . S
H1770 N1758 0.984 . S
H1771 N1758 0.985 . S
C1772 C1773 1.363 . S
C1772 C1778 1.379 . S
C1772 N1780 1.356 . S
C1773 C1772 1.363 . S
C1773 C1779 1.363 . S
C1774 C1775 1.363 . S
C1774 C1779 1.379 . S
C1774 N1781 1.356 . S
C1775 C1774 1.363 . S
C1775 C1778 1.363 . S
N1776 C1778 1.356 . S
N1776 H1788 0.984 . S
N1776 H1789 0.985 . S
N1777 C1779 1.356 1_556 S
N1777 H1782 0.984 . S
N1777 H1783 0.985 . S
C1778 C1772 1.379 . S
C1778 C1775 1.363 . S
C1778 N1776 1.356 . S
C1779 C1773 1.363 . S
C1779 C1774 1.379 . S
C1779 N1777 1.356 1_554 S
N1780 C1772 1.356 . S
N1780 H1786 0.984 . S
N1780 H1787 0.984 . S
N1781 C1774 1.356 . S
N1781 H1784 0.984 . S
N1781 H1785 0.985 . S
H1782 N1777 0.984 . S
H1783 N1777 0.985 . S
H1784 N1781 0.984 . S
H1785 N1781 0.985 . S
H1786 N1780 0.984 . S
H1787 N1780 0.984 . S
H1788 N1776 0.984 . S
H1789 N1776 0.985 . S
C1790 C1791 1.363 . S
C1790 C1796 1.379 . S
C1790 N1798 1.356 . S
C1791 C1790 1.363 . S
C1791 C1797 1.363 . S
C1792 C1793 1.363 . S
C1792 C1797 1.379 . S
C1792 N1799 1.356 . S
C1793 C1792 1.363 . S
C1793 C1796 1.363 . S
N1794 C1796 1.356 1_556 S
N1794 H1806 0.984 . S
N1794 H1807 0.985 . S
N1795 C1797 1.356 . S
N1795 H1800 0.984 . S
N1795 H1801 0.985 . S
C1796 C1790 1.379 . S
C1796 C1793 1.363 . S
C1796 N1794 1.356 1_554 S
C1797 C1791 1.363 . S
C1797 C1792 1.379 . S
C1797 N1795 1.356 . S
N1798 C1790 1.356 . S
N1798 H1804 0.984 . S
N1798 H1805 0.984 . S
N1799 C1792 1.356 . S
N1799 H1802 0.984 . S
N1799 H1803 0.985 . S
H1800 N1795 0.984 . S
H1801 N1795 0.985 . S
H1802 N1799 0.984 . S
H1803 N1799 0.985 . S
H1804 N1798 0.984 . S
H1805 N1798 0.984 . S
H1806 N1794 0.984 . S
H1807 N1794 0.985 . S
C1808 C1809 1.363 . S
C1808 C1814 1.379 . S
C1808 N1816 1.356 . S
C1809 C1808 1.363 . S
C1809 C1815 1.363 . S
C1810 C1811 1.363 . S
C1810 C1815 1.379 . S
C1810 N1817 1.356 1_556 S
C1811 C1810 1.363 . S
C1811 C1814 1.363 . S
N1812 C1814 1.356 . S
N1812 H1824 0.984 . S
N1812 H1825 0.985 . S
N1813 C1815 1.356 . S
N1813 H1818 0.984 . S
N1813 H1819 0.985 . S
C1814 C1808 1.379 . S
C1814 C1811 1.363 . S
C1814 N1812 1.356 . S
C1815 C1809 1.363 . S
C1815 C1810 1.379 . S
C1815 N1813 1.356 . S
N1816 C1808 1.356 . S
N1816 H1822 0.984 . S
N1816 H1823 0.984 . S
N1817 C1810 1.356 1_554 S
N1817 H1820 0.984 . S
N1817 H1821 0.985 . S
H1818 N1813 0.984 . S
H1819 N1813 0.985 . S
H1820 N1817 0.984 . S
H1821 N1817 0.985 . S
H1822 N1816 0.984 . S
H1823 N1816 0.984 . S
H1824 N1812 0.984 . S
H1825 N1812 0.985 . S
C1826 C1827 1.363 . S
C1826 C1832 1.379 . S
C1826 N1834 1.356 . S
C1827 C1826 1.363 . S
C1827 C1833 1.363 . S
C1828 C1829 1.363 . S
C1828 C1833 1.379 . S
C1828 N1835 1.356 . S
C1829 C1828 1.363 . S
C1829 C1832 1.363 . S
N1830 C1832 1.356 . S
N1830 H1842 0.984 . S
N1830 H1843 0.985 . S
N1831 C1833 1.356 1_554 S
N1831 H1836 0.984 . S
N1831 H1837 0.985 . S
C1832 C1826 1.379 . S
C1832 C1829 1.363 . S
C1832 N1830 1.356 . S
C1833 C1827 1.363 . S
C1833 C1828 1.379 . S
C1833 N1831 1.356 1_556 S
N1834 C1826 1.356 . S
N1834 H1840 0.984 . S
N1834 H1841 0.984 . S
N1835 C1828 1.356 . S
N1835 H1838 0.984 . S
N1835 H1839 0.985 . S
H1836 N1831 0.984 . S
H1837 N1831 0.985 . S
H1838 N1835 0.984 . S
H1839 N1835 0.985 . S
H1840 N1834 0.984 . S
H1841 N1834 0.984 . S
H1842 N1830 0.984 . S
H1843 N1830 0.985 . S
C1844 C1845 1.363 . S
C1844 C1850 1.379 . S
C1844 N1852 1.356 . S
C1845 C1844 1.363 . S
C1845 C1851 1.363 . S
C1846 C1847 1.363 . S
C1846 C1851 1.379 . S
C1846 N1853 1.356 . S
C1847 C1846 1.363 . S
C1847 C1850 1.363 . S
N1848 C1850 1.356 . S
N1848 H1860 0.984 . S
N1848 H1861 0.985 . S
N1849 C1851 1.356 . S
N1849 H1854 0.984 . S
N1849 H1855 0.985 . S
C1850 C1844 1.379 . S
C1850 C1847 1.363 . S
C1850 N1848 1.356 . S
C1851 C1845 1.363 . S
C1851 C1846 1.379 . S
C1851 N1849 1.356 . S
N1852 C1844 1.356 . S
N1852 H1858 0.984 . S
N1852 H1859 0.984 . S
N1853 C1846 1.356 . S
N1853 H1856 0.984 . S
N1853 H1857 0.985 . S
H1854 N1849 0.984 . S
H1855 N1849 0.985 . S
H1856 N1853 0.984 . S
H1857 N1853 0.985 . S
H1858 N1852 0.984 . S
H1859 N1852 0.984 . S
H1860 N1848 0.984 . S
H1861 N1848 0.985 . S
C1862 C1863 1.363 . S
C1862 C1868 1.379 . S
C1862 N1870 1.356 . S
C1863 C1862 1.363 . S
C1863 C1869 1.363 . S
C1864 C1865 1.363 . S
C1864 C1869 1.379 . S
C1864 N1871 1.356 . S
C1865 C1864 1.363 . S
C1865 C1868 1.363 . S
N1866 C1868 1.356 . S
N1866 H1878 0.984 . S
N1866 H1879 0.985 . S
N1867 C1869 1.356 . S
N1867 H1872 0.984 . S
N1867 H1873 0.985 . S
C1868 C1862 1.379 . S
C1868 C1865 1.363 . S
C1868 N1866 1.356 . S
C1869 C1863 1.363 . S
C1869 C1864 1.379 . S
C1869 N1867 1.356 . S
N1870 C1862 1.356 . S
N1870 H1876 0.984 . S
N1870 H1877 0.984 . S
N1871 C1864 1.356 . S
N1871 H1874 0.984 . S
N1871 H1875 0.985 . S
H1872 N1867 0.984 . S
H1873 N1867 0.985 . S
H1874 N1871 0.984 . S
H1875 N1871 0.985 . S
H1876 N1870 0.984 . S
H1877 N1870 0.984 . S
H1878 N1866 0.984 . S
H1879 N1866 0.985 . S
C1880 C1881 1.363 . S
C1880 C1886 1.379 . S
C1880 N1888 1.356 1_554 S
C1881 C1880 1.363 . S
C1881 C1887 1.363 . S
C1882 C1883 1.363 . S
C1882 C1887 1.379 . S
C1882 N1889 1.356 . S
C1883 C1882 1.363 . S
C1883 C1886 1.363 . S
N1884 C1886 1.356 . S
N1884 H1896 0.984 . S
N1884 H1897 0.985 . S
N1885 C1887 1.356 . S
N1885 H1890 0.984 . S
N1885 H1891 0.985 . S
C1886 C1880 1.379 . S
C1886 C1883 1.363 . S
C1886 N1884 1.356 . S
C1887 C1881 1.363 . S
C1887 C1882 1.379 . S
C1887 N1885 1.356 . S
N1888 C1880 1.356 1_556 S
N1888 H1894 0.984 . S
N1888 H1895 0.984 . S
N1889 C1882 1.356 . S
N1889 H1892 0.984 . S
N1889 H1893 0.985 . S
H1890 N1885 0.984 . S
H1891 N1885 0.985 . S
H1892 N1889 0.984 . S
H1893 N1889 0.985 . S
H1894 N1888 0.984 . S
H1895 N1888 0.984 . S
H1896 N1884 0.984 . S
H1897 N1884 0.985 . S
C1898 C1899 1.363 . S
C1898 C1904 1.379 . S
C1898 N1906 1.356 . S
C1899 C1898 1.363 . S
C1899 C1905 1.363 . S
C1900 C1901 1.363 . S
C1900 C1905 1.379 . S
C1900 N1907 1.356 . S
C1901 C1900 1.363 . S
C1901 C1904 1.363 . S
N1902 C1904 1.356 . S
N1902 H1914 0.984 . S
N1902 H1915 0.985 . S
N1903 C1905 1.356 . S
N1903 H1908 0.984 1_554 S
N1903 H1909 0.985 . S
C1904 C1898 1.379 . S
C1904 C1901 1.363 . S
C1904 N1902 1.356 . S
C1905 C1899 1.363 . S
C1905 C1900 1.379 . S
C1905 N1903 1.356 . S
N1906 C1898 1.356 . S
N1906 H1912 0.984 . S
N1906 H1913 0.984 1_554 S
N1907 C1900 1.356 . S
N1907 H1910 0.984 . S
N1907 H1911 0.985 . S
H1908 N1903 0.984 1_556 S
H1909 N1903 0.985 . S
H1910 N1907 0.984 . S
H1911 N1907 0.985 . S
H1912 N1906 0.984 . S
H1913 N1906 0.984 1_556 S
H1914 N1902 0.984 . S
H1915 N1902 0.985 . S
C1916 C1917 1.363 . S
C1916 C1922 1.379 . S
C1916 N1924 1.356 . S
C1917 C1916 1.363 . S
C1917 C1923 1.363 . S
C1918 C1919 1.363 . S
C1918 C1923 1.379 . S
C1918 N1925 1.356 . S
C1919 C1918 1.363 . S
C1919 C1922 1.363 . S
N1920 C1922 1.356 . S
N1920 H1932 0.984 . S
N1920 H1933 0.985 . S
N1921 C1923 1.356 . S
N1921 H1926 0.984 . S
N1921 H1927 0.985 . S
C1922 C1916 1.379 . S
C1922 C1919 1.363 . S
C1922 N1920 1.356 . S
C1923 C1917 1.363 . S
C1923 C1918 1.379 . S
C1923 N1921 1.356 . S
N1924 C1916 1.356 . S
N1924 H1930 0.984 . S
N1924 H1931 0.984 . S
N1925 C1918 1.356 . S
N1925 H1928 0.984 . S
N1925 H1929 0.985 . S
H1926 N1921 0.984 . S
H1927 N1921 0.985 . S
H1928 N1925 0.984 . S
H1929 N1925 0.985 . S
H1930 N1924 0.984 . S
H1931 N1924 0.984 . S
H1932 N1920 0.984 . S
H1933 N1920 0.985 . S
C1934 C1935 1.363 . S
C1934 C1940 1.379 . S
C1934 N1942 1.356 . S
C1935 C1934 1.363 . S
C1935 C1941 1.363 . S
C1936 C1937 1.363 . S
C1936 C1941 1.379 . S
C1936 N1943 1.356 . S
C1937 C1936 1.363 . S
C1937 C1940 1.363 . S
N1938 C1940 1.356 . S
N1938 H1950 0.984 . S
N1938 H1951 0.985 . S
N1939 C1941 1.356 . S
N1939 H1944 0.984 . S
N1939 H1945 0.985 . S
C1940 C1934 1.379 . S
C1940 C1937 1.363 . S
C1940 N1938 1.356 . S
C1941 C1935 1.363 . S
C1941 C1936 1.379 . S
C1941 N1939 1.356 . S
N1942 C1934 1.356 . S
N1942 H1948 0.984 . S
N1942 H1949 0.984 . S
N1943 C1936 1.356 . S
N1943 H1946 0.984 . S
N1943 H1947 0.985 . S
H1944 N1939 0.984 . S
H1945 N1939 0.985 . S
H1946 N1943 0.984 . S
H1947 N1943 0.985 . S
H1948 N1942 0.984 . S
H1949 N1942 0.984 . S
H1950 N1938 0.984 . S
H1951 N1938 0.985 . S
C1952 C1953 1.363 . S
C1952 C1958 1.379 . S
C1952 N1960 1.356 . S
C1953 C1952 1.363 . S
C1953 C1959 1.363 . S
C1954 C1955 1.363 . S
C1954 C1959 1.379 . S
C1954 N1961 1.356 1_554 S
C1955 C1954 1.363 . S
C1955 C1958 1.363 . S
N1956 C1958 1.356 . S
N1956 H1968 0.984 . S
N1956 H1969 0.985 . S
N1957 C1959 1.356 . S
N1957 H1962 0.984 . S
N1957 H1963 0.985 . S
C1958 C1952 1.379 . S
C1958 C1955 1.363 . S
C1958 N1956 1.356 . S
C1959 C1953 1.363 . S
C1959 C1954 1.379 . S
C1959 N1957 1.356 . S
N1960 C1952 1.356 . S
N1960 H1966 0.984 . S
N1960 H1967 0.984 . S
N1961 C1954 1.356 1_556 S
N1961 H1964 0.984 . S
N1961 H1965 0.985 . S
H1962 N1957 0.984 . S
H1963 N1957 0.985 . S
H1964 N1961 0.984 . S
H1965 N1961 0.985 . S
H1966 N1960 0.984 . S
H1967 N1960 0.984 . S
H1968 N1956 0.984 . S
H1969 N1956 0.985 . S
C1970 C1971 1.363 . S
C1970 C1976 1.379 . S
C1970 N1978 1.356 . S
C1971 C1970 1.363 . S
C1971 C1977 1.363 . S
C1972 C1973 1.363 . S
C1972 C1977 1.379 . S
C1972 N1979 1.356 . S
C1973 C1972 1.363 . S
C1973 C1976 1.363 . S
N1974 C1976 1.356 . S
N1974 H1986 0.984 . S
N1974 H1987 0.985 . S
N1975 C1977 1.356 1_556 S
N1975 H1980 0.984 . S
N1975 H1981 0.985 . S
C1976 C1970 1.379 . S
C1976 C1973 1.363 . S
C1976 N1974 1.356 . S
C1977 C1971 1.363 . S
C1977 C1972 1.379 . S
C1977 N1975 1.356 1_554 S
N1978 C1970 1.356 . S
N1978 H1984 0.984 . S
N1978 H1985 0.984 . S
N1979 C1972 1.356 . S
N1979 H1982 0.984 . S
N1979 H1983 0.985 . S
H1980 N1975 0.984 . S
H1981 N1975 0.985 . S
H1982 N1979 0.984 . S
H1983 N1979 0.985 . S
H1984 N1978 0.984 . S
H1985 N1978 0.984 . S
H1986 N1974 0.984 . S
H1987 N1974 0.985 . S
C1988 C1989 1.363 . S
C1988 C1994 1.379 . S
C1988 N1996 1.356 . S
C1989 C1988 1.363 . S
C1989 C1995 1.363 . S
C1990 C1991 1.363 . S
C1990 C1995 1.379 . S
C1990 N1997 1.356 . S
C1991 C1990 1.363 . S
C1991 C1994 1.363 . S
N1992 C1994 1.356 . S
N1992 H2004 0.984 . S
N1992 H2005 0.985 . S
N1993 C1995 1.356 1_554 S
N1993 H1998 0.984 . S
N1993 H1999 0.985 . S
C1994 C1988 1.379 . S
C1994 C1991 1.363 . S
C1994 N1992 1.356 . S
C1995 C1989 1.363 . S
C1995 C1990 1.379 . S
C1995 N1993 1.356 1_556 S
N1996 C1988 1.356 . S
N1996 H2002 0.984 . S
N1996 H2003 0.984 . S
N1997 C1990 1.356 . S
N1997 H2000 0.984 . S
N1997 H2001 0.985 . S
H1998 N1993 0.984 . S
H1999 N1993 0.985 . S
H2000 N1997 0.984 . S
H2001 N1997 0.985 . S
H2002 N1996 0.984 . S
H2003 N1996 0.984 . S
H2004 N1992 0.984 . S
H2005 N1992 0.985 . S
C2006 C2007 1.363 . S
C2006 C2012 1.379 . S
C2006 N2014 1.356 1_556 S
C2007 C2006 1.363 . S
C2007 C2013 1.363 . S
C2008 C2009 1.363 . S
C2008 C2013 1.379 . S
C2008 N2015 1.356 . S
C2009 C2008 1.363 . S
C2009 C2012 1.363 . S
N2010 C2012 1.356 . S
N2010 H2022 0.984 . S
N2010 H2023 0.985 . S
N2011 C2013 1.356 . S
N2011 H2016 0.984 . S
N2011 H2017 0.985 . S
C2012 C2006 1.379 . S
C2012 C2009 1.363 . S
C2012 N2010 1.356 . S
C2013 C2007 1.363 . S
C2013 C2008 1.379 . S
C2013 N2011 1.356 . S
N2014 C2006 1.356 1_554 S
N2014 H2020 0.984 . S
N2014 H2021 0.984 . S
N2015 C2008 1.356 . S
N2015 H2018 0.984 . S
N2015 H2019 0.985 . S
H2016 N2011 0.984 . S
H2017 N2011 0.985 . S
H2018 N2015 0.984 . S
H2019 N2015 0.985 . S
H2020 N2014 0.984 . S
H2021 N2014 0.984 . S
H2022 N2010 0.984 . S
H2023 N2010 0.985 . S
C2024 C2025 1.363 . S
C2024 C2030 1.379 . S
C2024 N2032 1.356 . S
C2025 C2024 1.363 . S
C2025 C2031 1.363 1_545 S
C2026 C2027 1.363 1_565 S
C2026 C2031 1.379 . S
C2026 N2033 1.356 . S
C2027 C2026 1.363 1_545 S
C2027 C2030 1.363 . S
N2028 C2030 1.356 . S
N2028 H2040 0.984 . S
N2028 H2041 0.985 . S
N2029 C2031 1.356 . S
N2029 H2034 0.984 . S
N2029 H2035 0.985 . S
C2030 C2024 1.379 . S
C2030 C2027 1.363 . S
C2030 N2028 1.356 . S
C2031 C2025 1.363 1_565 S
C2031 C2026 1.379 . S
C2031 N2029 1.356 . S
N2032 C2024 1.356 . S
N2032 H2038 0.984 . S
N2032 H2039 0.984 . S
N2033 C2026 1.356 . S
N2033 H2036 0.984 . S
N2033 H2037 0.985 . S
H2034 N2029 0.984 . S
H2035 N2029 0.985 . S
H2036 N2033 0.984 . S
H2037 N2033 0.985 . S
H2038 N2032 0.984 . S
H2039 N2032 0.984 . S
H2040 N2028 0.984 . S
H2041 N2028 0.985 . S
C2042 C2043 1.363 . S
C2042 C2048 1.379 . S
C2042 N2050 1.356 . S
C2043 C2042 1.363 . S
C2043 C2049 1.363 . S
C2044 C2045 1.363 . S
C2044 C2049 1.379 . S
C2044 N2051 1.356 . S
C2045 C2044 1.363 . S
C2045 C2048 1.363 . S
N2046 C2048 1.356 . S
N2046 H2058 0.984 . S
N2046 H2059 0.985 . S
N2047 C2049 1.356 . S
N2047 H2052 0.984 . S
N2047 H2053 0.985 . S
C2048 C2042 1.379 . S
C2048 C2045 1.363 . S
C2048 N2046 1.356 . S
C2049 C2043 1.363 . S
C2049 C2044 1.379 . S
C2049 N2047 1.356 . S
N2050 C2042 1.356 . S
N2050 H2056 0.984 . S
N2050 H2057 0.984 . S
N2051 C2044 1.356 . S
N2051 H2054 0.984 . S
N2051 H2055 0.985 . S
H2052 N2047 0.984 . S
H2053 N2047 0.985 . S
H2054 N2051 0.984 . S
H2055 N2051 0.985 . S
H2056 N2050 0.984 . S
H2057 N2050 0.984 . S
H2058 N2046 0.984 . S
H2059 N2046 0.985 . S
C2060 C2061 1.363 . S
C2060 C2066 1.379 . S
C2060 N2068 1.356 . S
C2061 C2060 1.363 . S
C2061 C2067 1.363 1_565 S
C2062 C2063 1.363 1_545 S
C2062 C2067 1.379 . S
C2062 N2069 1.356 . S
C2063 C2062 1.363 1_565 S
C2063 C2066 1.363 . S
N2064 C2066 1.356 . S
N2064 H2076 0.984 . S
N2064 H2077 0.985 . S
N2065 C2067 1.356 . S
N2065 H2070 0.984 . S
N2065 H2071 0.985 . S
C2066 C2060 1.379 . S
C2066 C2063 1.363 . S
C2066 N2064 1.356 . S
C2067 C2061 1.363 1_545 S
C2067 C2062 1.379 . S
C2067 N2065 1.356 . S
N2068 C2060 1.356 . S
N2068 H2074 0.984 . S
N2068 H2075 0.984 . S
N2069 C2062 1.356 . S
N2069 H2072 0.984 . S
N2069 H2073 0.985 . S
H2070 N2065 0.984 . S
H2071 N2065 0.985 . S
H2072 N2069 0.984 . S
H2073 N2069 0.985 . S
H2074 N2068 0.984 . S
H2075 N2068 0.984 . S
H2076 N2064 0.984 . S
H2077 N2064 0.985 . S
C2078 C2079 1.363 . S
C2078 C2084 1.379 . S
C2078 N2086 1.356 . S
C2079 C2078 1.363 . S
C2079 C2085 1.363 . S
C2080 C2081 1.363 . S
C2080 C2085 1.379 . S
C2080 N2087 1.356 . S
C2081 C2080 1.363 . S
C2081 C2084 1.363 . S
N2082 C2084 1.356 . S
N2082 H2094 0.984 . S
N2082 H2095 0.985 . S
N2083 C2085 1.356 . S
N2083 H2088 0.984 . S
N2083 H2089 0.985 . S
C2084 C2078 1.379 . S
C2084 C2081 1.363 . S
C2084 N2082 1.356 . S
C2085 C2079 1.363 . S
C2085 C2080 1.379 . S
C2085 N2083 1.356 . S
N2086 C2078 1.356 . S
N2086 H2092 0.984 . S
N2086 H2093 0.984 . S
N2087 C2080 1.356 . S
N2087 H2090 0.984 . S
N2087 H2091 0.985 . S
H2088 N2083 0.984 . S
H2089 N2083 0.985 . S
H2090 N2087 0.984 . S
H2091 N2087 0.985 . S
H2092 N2086 0.984 . S
H2093 N2086 0.984 . S
H2094 N2082 0.984 . S
H2095 N2082 0.985 . S
C2096 C2097 1.363 . S
C2096 C2102 1.379 . S
C2096 N2104 1.356 . S
C2097 C2096 1.363 . S
C2097 C2103 1.363 . S
C2098 C2099 1.363 . S
C2098 C2103 1.379 . S
C2098 N2105 1.356 . S
C2099 C2098 1.363 . S
C2099 C2102 1.363 . S
N2100 C2102 1.356 . S
N2100 H2112 0.984 . S
N2100 H2113 0.985 . S
N2101 C2103 1.356 . S
N2101 H2106 0.984 . S
N2101 H2107 0.985 . S
C2102 C2096 1.379 . S
C2102 C2099 1.363 . S
C2102 N2100 1.356 . S
C2103 C2097 1.363 . S
C2103 C2098 1.379 . S
C2103 N2101 1.356 . S
N2104 C2096 1.356 . S
N2104 H2110 0.984 . S
N2104 H2111 0.984 . S
N2105 C2098 1.356 . S
N2105 H2108 0.984 . S
N2105 H2109 0.985 . S
H2106 N2101 0.984 . S
H2107 N2101 0.985 . S
H2108 N2105 0.984 . S
H2109 N2105 0.985 . S
H2110 N2104 0.984 . S
H2111 N2104 0.984 . S
H2112 N2100 0.984 . S
H2113 N2100 0.985 . S
C2114 C2115 1.363 . S
C2114 C2120 1.379 . S
C2114 N2122 1.356 . S
C2115 C2114 1.363 . S
C2115 C2121 1.363 . S
C2116 C2117 1.363 . S
C2116 C2121 1.379 . S
C2116 N2123 1.356 . S
C2117 C2116 1.363 . S
C2117 C2120 1.363 . S
N2118 C2120 1.356 . S
N2118 H2130 0.984 . S
N2118 H2131 0.985 . S
N2119 C2121 1.356 . S
N2119 H2124 0.984 . S
N2119 H2125 0.985 . S
C2120 C2114 1.379 . S
C2120 C2117 1.363 . S
C2120 N2118 1.356 . S
C2121 C2115 1.363 . S
C2121 C2116 1.379 . S
C2121 N2119 1.356 . S
N2122 C2114 1.356 . S
N2122 H2128 0.984 . S
N2122 H2129 0.984 . S
N2123 C2116 1.356 . S
N2123 H2126 0.984 . S
N2123 H2127 0.985 . S
H2124 N2119 0.984 . S
H2125 N2119 0.985 . S
H2126 N2123 0.984 . S
H2127 N2123 0.985 . S
H2128 N2122 0.984 . S
H2129 N2122 0.984 . S
H2130 N2118 0.984 . S
H2131 N2118 0.985 . S
C2132 C2133 1.363 . S
C2132 C2138 1.379 . S
C2132 N2140 1.356 . S
C2133 C2132 1.363 . S
C2133 C2139 1.363 . S
C2134 C2135 1.363 . S
C2134 C2139 1.379 . S
C2134 N2141 1.356 . S
C2135 C2134 1.363 . S
C2135 C2138 1.363 . S
N2136 C2138 1.356 . S
N2136 H2148 0.984 . S
N2136 H2149 0.985 . S
N2137 C2139 1.356 . S
N2137 H2142 0.984 . S
N2137 H2143 0.985 . S
C2138 C2132 1.379 . S
C2138 C2135 1.363 . S
C2138 N2136 1.356 . S
C2139 C2133 1.363 . S
C2139 C2134 1.379 . S
C2139 N2137 1.356 . S
N2140 C2132 1.356 . S
N2140 H2146 0.984 . S
N2140 H2147 0.984 . S
N2141 C2134 1.356 . S
N2141 H2144 0.984 . S
N2141 H2145 0.985 . S
H2142 N2137 0.984 . S
H2143 N2137 0.985 . S
H2144 N2141 0.984 . S
H2145 N2141 0.985 . S
H2146 N2140 0.984 . S
H2147 N2140 0.984 . S
H2148 N2136 0.984 . S
H2149 N2136 0.985 . S
C2150 C2151 1.363 . S
C2150 C2156 1.379 . S
C2150 N2158 1.356 . S
C2151 C2150 1.363 . S
C2151 C2157 1.363 . S
C2152 C2153 1.363 . S
C2152 C2157 1.379 . S
C2152 N2159 1.356 . S
C2153 C2152 1.363 . S
C2153 C2156 1.363 . S
N2154 C2156 1.356 . S
N2154 H2166 0.984 . S
N2154 H2167 0.985 . S
N2155 C2157 1.356 . S
N2155 H2160 0.984 . S
N2155 H2161 0.985 . S
C2156 C2150 1.379 . S
C2156 C2153 1.363 . S
C2156 N2154 1.356 . S
C2157 C2151 1.363 . S
C2157 C2152 1.379 . S
C2157 N2155 1.356 . S
N2158 C2150 1.356 . S
N2158 H2164 0.984 . S
N2158 H2165 0.984 . S
N2159 C2152 1.356 . S
N2159 H2162 0.984 . S
N2159 H2163 0.985 . S
H2160 N2155 0.984 . S
H2161 N2155 0.985 . S
H2162 N2159 0.984 . S
H2163 N2159 0.985 . S
H2164 N2158 0.984 . S
H2165 N2158 0.984 . S
H2166 N2154 0.984 . S
H2167 N2154 0.985 . S
C2168 C2169 1.363 1_565 S
C2168 C2174 1.379 . S
C2168 N2176 1.356 1_554 S
C2169 C2168 1.363 1_545 S
C2169 C2175 1.363 . S
C2170 C2171 1.363 . S
C2170 C2175 1.379 . S
C2170 N2177 1.356 . S
C2171 C2170 1.363 . S
C2171 C2174 1.363 1_545 S
N2172 C2174 1.356 . S
N2172 H2184 0.984 . S
N2172 H2185 0.985 . S
N2173 C2175 1.356 . S
N2173 H2178 0.984 . S
N2173 H2179 0.985 . S
C2174 C2168 1.379 . S
C2174 C2171 1.363 1_565 S
C2174 N2172 1.356 . S
C2175 C2169 1.363 . S
C2175 C2170 1.379 . S
C2175 N2173 1.356 . S
N2176 C2168 1.356 1_556 S
N2176 H2182 0.984 . S
N2176 H2183 0.984 . S
N2177 C2170 1.356 . S
N2177 H2180 0.984 . S
N2177 H2181 0.985 . S
H2178 N2173 0.984 . S
H2179 N2173 0.985 . S
H2180 N2177 0.984 . S
H2181 N2177 0.985 . S
H2182 N2176 0.984 . S
H2183 N2176 0.984 . S
H2184 N2172 0.984 . S
H2185 N2172 0.985 . S
C2186 C2187 1.363 . S
C2186 C2192 1.379 . S
C2186 N2194 1.356 . S
C2187 C2186 1.363 . S
C2187 C2193 1.363 . S
C2188 C2189 1.363 . S
C2188 C2193 1.379 . S
C2188 N2195 1.356 . S
C2189 C2188 1.363 . S
C2189 C2192 1.363 . S
N2190 C2192 1.356 . S
N2190 H2202 0.984 . S
N2190 H2203 0.985 . S
N2191 C2193 1.356 1_556 S
N2191 H2196 0.984 . S
N2191 H2197 0.985 . S
C2192 C2186 1.379 . S
C2192 C2189 1.363 . S
C2192 N2190 1.356 . S
C2193 C2187 1.363 . S
C2193 C2188 1.379 . S
C2193 N2191 1.356 1_554 S
N2194 C2186 1.356 . S
N2194 H2200 0.984 . S
N2194 H2201 0.984 . S
N2195 C2188 1.356 . S
N2195 H2198 0.984 . S
N2195 H2199 0.985 . S
H2196 N2191 0.984 . S
H2197 N2191 0.985 . S
H2198 N2195 0.984 . S
H2199 N2195 0.985 . S
H2200 N2194 0.984 . S
H2201 N2194 0.984 . S
H2202 N2190 0.984 . S
H2203 N2190 0.985 . S
C2204 C2205 1.363 . S
C2204 C2210 1.379 . S
C2204 N2212 1.356 . S
C2205 C2204 1.363 . S
C2205 C2211 1.363 1_565 S
C2206 C2207 1.363 1_545 S
C2206 C2211 1.379 . S
C2206 N2213 1.356 1_556 S
C2207 C2206 1.363 1_565 S
C2207 C2210 1.363 . S
N2208 C2210 1.356 . S
N2208 H2220 0.984 . S
N2208 H2221 0.985 . S
N2209 C2211 1.356 . S
N2209 H2214 0.984 . S
N2209 H2215 0.985 . S
C2210 C2204 1.379 . S
C2210 C2207 1.363 . S
C2210 N2208 1.356 . S
C2211 C2205 1.363 1_545 S
C2211 C2206 1.379 . S
C2211 N2209 1.356 . S
N2212 C2204 1.356 . S
N2212 H2218 0.984 . S
N2212 H2219 0.984 . S
N2213 C2206 1.356 1_554 S
N2213 H2216 0.984 . S
N2213 H2217 0.985 . S
H2214 N2209 0.984 . S
H2215 N2209 0.985 . S
H2216 N2213 0.984 . S
H2217 N2213 0.985 . S
H2218 N2212 0.984 . S
H2219 N2212 0.984 . S
H2220 N2208 0.984 . S
H2221 N2208 0.985 . S
C2222 C2223 1.363 . S
C2222 C2228 1.379 . S
C2222 N2230 1.356 . S
C2223 C2222 1.363 . S
C2223 C2229 1.363 . S
C2224 C2225 1.363 . S
C2224 C2229 1.379 . S
C2224 N2231 1.356 1_556 S
C2225 C2224 1.363 . S
C2225 C2228 1.363 . S
N2226 C2228 1.356 . S
N2226 H2238 0.984 . S
N2226 H2239 0.985 . S
N2227 C2229 1.356 . S
N2227 H2232 0.984 . S
N2227 H2233 0.985 . S
C2228 C2222 1.379 . S
C2228 C2225 1.363 . S
C2228 N2226 1.356 . S
C2229 C2223 1.363 . S
C2229 C2224 1.379 . S
C2229 N2227 1.356 . S
N2230 C2222 1.356 . S
N2230 H2236 0.984 . S
N2230 H2237 0.984 . S
N2231 C2224 1.356 1_554 S
N2231 H2234 0.984 . S
N2231 H2235 0.985 . S
H2232 N2227 0.984 . S
H2233 N2227 0.985 . S
H2234 N2231 0.984 . S
H2235 N2231 0.985 . S
H2236 N2230 0.984 . S
H2237 N2230 0.984 . S
H2238 N2226 0.984 . S
H2239 N2226 0.985 . S
C2240 C2241 1.363 . S
C2240 C2246 1.379 . S
C2240 N2248 1.356 . S
C2241 C2240 1.363 . S
C2241 C2247 1.363 . S
C2242 C2243 1.363 . S
C2242 C2247 1.379 . S
C2242 N2249 1.356 1_556 S
C2243 C2242 1.363 . S
C2243 C2246 1.363 . S
N2244 C2246 1.356 . S
N2244 H2256 0.984 . S
N2244 H2257 0.985 . S
N2245 C2247 1.356 . S
N2245 H2250 0.984 . S
N2245 H2251 0.985 . S
C2246 C2240 1.379 . S
C2246 C2243 1.363 . S
C2246 N2244 1.356 . S
C2247 C2241 1.363 . S
C2247 C2242 1.379 . S
C2247 N2245 1.356 . S
N2248 C2240 1.356 . S
N2248 H2254 0.984 . S
N2248 H2255 0.984 . S
N2249 C2242 1.356 1_554 S
N2249 H2252 0.984 . S
N2249 H2253 0.985 . S
H2250 N2245 0.984 . S
H2251 N2245 0.985 . S
H2252 N2249 0.984 . S
H2253 N2249 0.985 . S
H2254 N2248 0.984 . S
H2255 N2248 0.984 . S
H2256 N2244 0.984 . S
H2257 N2244 0.985 . S
C2258 C2259 1.363 . S
C2258 C2264 1.379 . S
C2258 N2266 1.356 . S
C2259 C2258 1.363 . S
C2259 C2265 1.363 . S
C2260 C2261 1.363 . S
C2260 C2265 1.379 . S
C2260 N2267 1.356 1_556 S
C2261 C2260 1.363 . S
C2261 C2264 1.363 . S
N2262 C2264 1.356 . S
N2262 H2274 0.984 . S
N2262 H2275 0.985 . S
N2263 C2265 1.356 . S
N2263 H2268 0.984 . S
N2263 H2269 0.985 . S
C2264 C2258 1.379 . S
C2264 C2261 1.363 . S
C2264 N2262 1.356 . S
C2265 C2259 1.363 . S
C2265 C2260 1.379 . S
C2265 N2263 1.356 . S
N2266 C2258 1.356 . S
N2266 H2272 0.984 . S
N2266 H2273 0.984 . S
N2267 C2260 1.356 1_554 S
N2267 H2270 0.984 . S
N2267 H2271 0.985 . S
H2268 N2263 0.984 . S
H2269 N2263 0.985 . S
H2270 N2267 0.984 . S
H2271 N2267 0.985 . S
H2272 N2266 0.984 . S
H2273 N2266 0.984 . S
H2274 N2262 0.984 . S
H2275 N2262 0.985 . S
C2276 C2277 1.363 . S
C2276 C2282 1.379 . S
C2276 N2284 1.356 . S
C2277 C2276 1.363 . S
C2277 C2283 1.363 . S
C2278 C2279 1.363 . S
C2278 C2283 1.379 . S
C2278 N2285 1.356 . S
C2279 C2278 1.363 . S
C2279 C2282 1.363 . S
N2280 C2282 1.356 . S
N2280 H2292 0.984 . S
N2280 H2293 0.985 . S
N2281 C2283 1.356 . S
N2281 H2286 0.984 . S
N2281 H2287 0.985 . S
C2282 C2276 1.379 . S
C2282 C2279 1.363 . S
C2282 N2280 1.356 . S
C2283 C2277 1.363 . S
C2283 C2278 1.379 . S
C2283 N2281 1.356 . S
N2284 C2276 1.356 . S
N2284 H2290 0.984 . S
N2284 H2291 0.984 . S
N2285 C2278 1.356 . S
N2285 H2288 0.984 . S
N2285 H2289 0.985 . S
H2286 N2281 0.984 . S
H2287 N2281 0.985 . S
H2288 N2285 0.984 . S
H2289 N2285 0.985 . S
H2290 N2284 0.984 . S
H2291 N2284 0.984 . S
H2292 N2280 0.984 . S
H2293 N2280 0.985 . S
C2294 C2295 1.363 . S
C2294 C2300 1.379 . S
C2294 N2302 1.356 . S
C2295 C2294 1.363 . S
C2295 C2301 1.363 . S
C2296 C2297 1.363 . S
C2296 C2301 1.379 . S
C2296 N2303 1.356 . S
C2297 C2296 1.363 . S
C2297 C2300 1.363 . S
N2298 C2300 1.356 . S
N2298 H2310 0.984 . S
N2298 H2311 0.985 . S
N2299 C2301 1.356 . S
N2299 H2304 0.984 . S
N2299 H2305 0.985 . S
C2300 C2294 1.379 . S
C2300 C2297 1.363 . S
C2300 N2298 1.356 . S
C2301 C2295 1.363 . S
C2301 C2296 1.379 . S
C2301 N2299 1.356 . S
N2302 C2294 1.356 . S
N2302 H2308 0.984 . S
N2302 H2309 0.984 . S
N2303 C2296 1.356 . S
N2303 H2306 0.984 . S
N2303 H2307 0.985 . S
H2304 N2299 0.984 . S
H2305 N2299 0.985 . S
H2306 N2303 0.984 . S
H2307 N2303 0.985 . S
H2308 N2302 0.984 . S
H2309 N2302 0.984 . S
H2310 N2298 0.984 . S
H2311 N2298 0.985 . S
C2312 C2313 1.363 . S
C2312 C2318 1.379 . S
C2312 N2320 1.356 . S
C2313 C2312 1.363 . S
C2313 C2319 1.363 . S
C2314 C2315 1.363 . S
C2314 C2319 1.379 . S
C2314 N2321 1.356 1_554 S
C2315 C2314 1.363 . S
C2315 C2318 1.363 . S
N2316 C2318 1.356 . S
N2316 H2328 0.984 . S
N2316 H2329 0.985 . S
N2317 C2319 1.356 . S
N2317 H2322 0.984 . S
N2317 H2323 0.985 . S
C2318 C2312 1.379 . S
C2318 C2315 1.363 . S
C2318 N2316 1.356 . S
C2319 C2313 1.363 . S
C2319 C2314 1.379 . S
C2319 N2317 1.356 . S
N2320 C2312 1.356 . S
N2320 H2326 0.984 . S
N2320 H2327 0.984 . S
N2321 C2314 1.356 1_556 S
N2321 H2324 0.984 . S
N2321 H2325 0.985 . S
H2322 N2317 0.984 . S
H2323 N2317 0.985 . S
H2324 N2321 0.984 . S
H2325 N2321 0.985 . S
H2326 N2320 0.984 . S
H2327 N2320 0.984 . S
H2328 N2316 0.984 . S
H2329 N2316 0.985 . S
C2330 C2331 1.363 . S
C2330 C2336 1.379 . S
C2330 N2338 1.356 1_554 S
C2331 C2330 1.363 . S
C2331 C2337 1.363 . S
C2332 C2333 1.363 . S
C2332 C2337 1.379 . S
C2332 N2339 1.356 . S
C2333 C2332 1.363 . S
C2333 C2336 1.363 . S
N2334 C2336 1.356 . S
N2334 H2346 0.984 . S
N2334 H2347 0.985 . S
N2335 C2337 1.356 . S
N2335 H2340 0.984 . S
N2335 H2341 0.985 . S
C2336 C2330 1.379 . S
C2336 C2333 1.363 . S
C2336 N2334 1.356 . S
C2337 C2331 1.363 . S
C2337 C2332 1.379 . S
C2337 N2335 1.356 . S
N2338 C2330 1.356 1_556 S
N2338 H2344 0.984 . S
N2338 H2345 0.984 . S
N2339 C2332 1.356 . S
N2339 H2342 0.984 . S
N2339 H2343 0.985 . S
H2340 N2335 0.984 . S
H2341 N2335 0.985 . S
H2342 N2339 0.984 . S
H2343 N2339 0.985 . S
H2344 N2338 0.984 . S
H2345 N2338 0.984 . S
H2346 N2334 0.984 . S
H2347 N2334 0.985 . S
C2348 C2349 1.363 . S
C2348 C2354 1.379 . S
C2348 N2356 1.356 . S
C2349 C2348 1.363 . S
C2349 C2355 1.363 . S
C2350 C2351 1.363 . S
C2350 C2355 1.379 . S
C2350 N2357 1.356 . S
C2351 C2350 1.363 . S
C2351 C2354 1.363 . S
N2352 C2354 1.356 . S
N2352 H2364 0.984 . S
N2352 H2365 0.985 . S
N2353 C2355 1.356 . S
N2353 H2358 0.984 . S
N2353 H2359 0.985 . S
C2354 C2348 1.379 . S
C2354 C2351 1.363 . S
C2354 N2352 1.356 . S
C2355 C2349 1.363 . S
C2355 C2350 1.379 . S
C2355 N2353 1.356 . S
N2356 C2348 1.356 . S
N2356 H2362 0.984 . S
N2356 H2363 0.984 . S
N2357 C2350 1.356 . S
N2357 H2360 0.984 . S
N2357 H2361 0.985 . S
H2358 N2353 0.984 . S
H2359 N2353 0.985 . S
H2360 N2357 0.984 . S
H2361 N2357 0.985 . S
H2362 N2356 0.984 . S
H2363 N2356 0.984 . S
H2364 N2352 0.984 . S
H2365 N2352 0.985 . S
C2366 C2367 1.363 . S
C2366 C2372 1.379 . S
C2366 N2374 1.356 . S
C2367 C2366 1.363 . S
C2367 C2373 1.363 . S
C2368 C2369 1.363 . S
C2368 C2373 1.379 . S
C2368 N2375 1.356 . S
C2369 C2368 1.363 . S
C2369 C2372 1.363 . S
N2370 C2372 1.356 . S
N2370 H2382 0.984 . S
N2370 H2383 0.985 . S
N2371 C2373 1.356 . S
N2371 H2376 0.984 . S
N2371 H2377 0.985 . S
C2372 C2366 1.379 . S
C2372 C2369 1.363 . S
C2372 N2370 1.356 . S
C2373 C2367 1.363 . S
C2373 C2368 1.379 . S
C2373 N2371 1.356 . S
N2374 C2366 1.356 . S
N2374 H2380 0.984 . S
N2374 H2381 0.984 . S
N2375 C2368 1.356 . S
N2375 H2378 0.984 . S
N2375 H2379 0.985 . S
H2376 N2371 0.984 . S
H2377 N2371 0.985 . S
H2378 N2375 0.984 . S
H2379 N2375 0.985 . S
H2380 N2374 0.984 . S
H2381 N2374 0.984 . S
H2382 N2370 0.984 . S
H2383 N2370 0.985 . S
C2384 C2385 1.363 . S
C2384 C2390 1.379 . S
C2384 N2392 1.356 . S
C2385 C2384 1.363 . S
C2385 C2391 1.363 . S
C2386 C2387 1.363 . S
C2386 C2391 1.379 . S
C2386 N2393 1.356 . S
C2387 C2386 1.363 . S
C2387 C2390 1.363 . S
N2388 C2390 1.356 . S
N2388 H2400 0.984 . S
N2388 H2401 0.985 . S
N2389 C2391 1.356 . S
N2389 H2394 0.984 . S
N2389 H2395 0.985 . S
C2390 C2384 1.379 . S
C2390 C2387 1.363 . S
C2390 N2388 1.356 . S
C2391 C2385 1.363 . S
C2391 C2386 1.379 . S
C2391 N2389 1.356 . S
N2392 C2384 1.356 . S
N2392 H2398 0.984 . S
N2392 H2399 0.984 . S
N2393 C2386 1.356 . S
N2393 H2396 0.984 . S
N2393 H2397 0.985 . S
H2394 N2389 0.984 . S
H2395 N2389 0.985 . S
H2396 N2393 0.984 . S
H2397 N2393 0.985 . S
H2398 N2392 0.984 . S
H2399 N2392 0.984 . S
H2400 N2388 0.984 . S
H2401 N2388 0.985 . S
C2402 C2403 1.363 . S
C2402 C2408 1.379 . S
C2402 N2410 1.356 . S
C2403 C2402 1.363 . S
C2403 C2409 1.363 . S
C2404 C2405 1.363 . S
C2404 C2409 1.379 . S
C2404 N2411 1.356 . S
C2405 C2404 1.363 . S
C2405 C2408 1.363 . S
N2406 C2408 1.356 . S
N2406 H2418 0.984 . S
N2406 H2419 0.985 . S
N2407 C2409 1.356 . S
N2407 H2412 0.984 . S
N2407 H2413 0.985 . S
C2408 C2402 1.379 . S
C2408 C2405 1.363 . S
C2408 N2406 1.356 . S
C2409 C2403 1.363 . S
C2409 C2404 1.379 . S
C2409 N2407 1.356 . S
N2410 C2402 1.356 . S
N2410 H2416 0.984 . S
N2410 H2417 0.984 . S
N2411 C2404 1.356 . S
N2411 H2414 0.984 . S
N2411 H2415 0.985 . S
H2412 N2407 0.984 . S
H2413 N2407 0.985 . S
H2414 N2411 0.984 . S
H2415 N2411 0.985 . S
H2416 N2410 0.984 . S
H2417 N2410 0.984 . S
H2418 N2406 0.984 . S
H2419 N2406 0.985 . S
C2420 C2421 1.363 . S
C2420 C2426 1.379 . S
C2420 N2428 1.356 . S
C2421 C2420 1.363 . S
C2421 C2427 1.363 . S
C2422 C2423 1.363 . S
C2422 C2427 1.379 . S
C2422 N2429 1.356 . S
C2423 C2422 1.363 . S
C2423 C2426 1.363 . S
N2424 C2426 1.356 1_554 S
N2424 H2436 0.984 . S
N2424 H2437 0.985 . S
N2425 C2427 1.356 . S
N2425 H2430 0.984 . S
N2425 H2431 0.985 . S
C2426 C2420 1.379 . S
C2426 C2423 1.363 . S
C2426 N2424 1.356 1_556 S
C2427 C2421 1.363 . S
C2427 C2422 1.379 . S
C2427 N2425 1.356 . S
N2428 C2420 1.356 . S
N2428 H2434 0.984 . S
N2428 H2435 0.984 . S
N2429 C2422 1.356 . S
N2429 H2432 0.984 . S
N2429 H2433 0.985 . S
H2430 N2425 0.984 . S
H2431 N2425 0.985 . S
H2432 N2429 0.984 . S
H2433 N2429 0.985 . S
H2434 N2428 0.984 . S
H2435 N2428 0.984 . S
H2436 N2424 0.984 . S
H2437 N2424 0.985 . S
C2438 C2439 1.363 . S
C2438 C2444 1.379 . S
C2438 N2446 1.356 1_556 S
C2439 C2438 1.363 . S
C2439 C2445 1.363 . S
C2440 C2441 1.363 . S
C2440 C2445 1.379 . S
C2440 N2447 1.356 . S
C2441 C2440 1.363 . S
C2441 C2444 1.363 . S
N2442 C2444 1.356 . S
N2442 H2454 0.984 . S
N2442 H2455 0.985 . S
N2443 C2445 1.356 . S
N2443 H2448 0.984 . S
N2443 H2449 0.985 . S
C2444 C2438 1.379 . S
C2444 C2441 1.363 . S
C2444 N2442 1.356 . S
C2445 C2439 1.363 . S
C2445 C2440 1.379 . S
C2445 N2443 1.356 . S
N2446 C2438 1.356 1_554 S
N2446 H2452 0.984 . S
N2446 H2453 0.984 . S
N2447 C2440 1.356 . S
N2447 H2450 0.984 . S
N2447 H2451 0.985 . S
H2448 N2443 0.984 . S
H2449 N2443 0.985 . S
H2450 N2447 0.984 . S
H2451 N2447 0.985 . S
H2452 N2446 0.984 . S
H2453 N2446 0.984 . S
H2454 N2442 0.984 . S
H2455 N2442 0.985 . S
C2456 C2457 1.363 . S
C2456 C2462 1.379 . S
C2456 N2464 1.356 . S
C2457 C2456 1.363 . S
C2457 C2463 1.363 . S
C2458 C2459 1.363 . S
C2458 C2463 1.379 . S
C2458 N2465 1.356 . S
C2459 C2458 1.363 . S
C2459 C2462 1.363 . S
N2460 C2462 1.356 . S
N2460 H2472 0.984 . S
N2460 H2473 0.985 . S
N2461 C2463 1.356 . S
N2461 H2466 0.984 . S
N2461 H2467 0.985 . S
C2462 C2456 1.379 . S
C2462 C2459 1.363 . S
C2462 N2460 1.356 . S
C2463 C2457 1.363 . S
C2463 C2458 1.379 . S
C2463 N2461 1.356 . S
N2464 C2456 1.356 . S
N2464 H2470 0.984 . S
N2464 H2471 0.984 . S
N2465 C2458 1.356 . S
N2465 H2468 0.984 . S
N2465 H2469 0.985 . S
H2466 N2461 0.984 . S
H2467 N2461 0.985 . S
H2468 N2465 0.984 . S
H2469 N2465 0.985 . S
H2470 N2464 0.984 . S
H2471 N2464 0.984 . S
H2472 N2460 0.984 . S
H2473 N2460 0.985 . S
C2474 C2475 1.363 . S
C2474 C2480 1.379 . S
C2474 N2482 1.356 . S
C2475 C2474 1.363 . S
C2475 C2481 1.363 . S
C2476 C2477 1.363 . S
C2476 C2481 1.379 . S
C2476 N2483 1.356 . S
C2477 C2476 1.363 . S
C2477 C2480 1.363 . S
N2478 C2480 1.356 . S
N2478 H2490 0.984 . S
N2478 H2491 0.985 . S
N2479 C2481 1.356 . S
N2479 H2484 0.984 . S
N2479 H2485 0.985 . S
C2480 C2474 1.379 . S
C2480 C2477 1.363 . S
C2480 N2478 1.356 . S
C2481 C2475 1.363 . S
C2481 C2476 1.379 . S
C2481 N2479 1.356 . S
N2482 C2474 1.356 . S
N2482 H2488 0.984 . S
N2482 H2489 0.984 . S
N2483 C2476 1.356 . S
N2483 H2486 0.984 . S
N2483 H2487 0.985 . S
H2484 N2479 0.984 . S
H2485 N2479 0.985 . S
H2486 N2483 0.984 . S
H2487 N2483 0.985 . S
H2488 N2482 0.984 . S
H2489 N2482 0.984 . S
H2490 N2478 0.984 . S
H2491 N2478 0.985 . S
C2492 C2493 1.363 . S
C2492 C2498 1.379 . S
C2492 N2500 1.356 . S
C2493 C2492 1.363 . S
C2493 C2499 1.363 . S
C2494 C2495 1.363 . S
C2494 C2499 1.379 . S
C2494 N2501 1.356 . S
C2495 C2494 1.363 . S
C2495 C2498 1.363 . S
N2496 C2498 1.356 . S
N2496 H2508 0.984 . S
N2496 H2509 0.985 1_554 S
N2497 C2499 1.356 . S
N2497 H2502 0.984 . S
N2497 H2503 0.985 . S
C2498 C2492 1.379 . S
C2498 C2495 1.363 . S
C2498 N2496 1.356 . S
C2499 C2493 1.363 . S
C2499 C2494 1.379 . S
C2499 N2497 1.356 . S
N2500 C2492 1.356 . S
N2500 H2506 0.984 . S
N2500 H2507 0.984 . S
N2501 C2494 1.356 . S
N2501 H2504 0.984 1_554 S
N2501 H2505 0.985 . S
H2502 N2497 0.984 . S
H2503 N2497 0.985 . S
H2504 N2501 0.984 1_556 S
H2505 N2501 0.985 . S
H2506 N2500 0.984 . S
H2507 N2500 0.984 . S
H2508 N2496 0.984 . S
H2509 N2496 0.985 1_556 S
C2510 C2511 1.363 . S
C2510 C2516 1.379 . S
C2510 N2518 1.356 . S
C2511 C2510 1.363 . S
C2511 C2517 1.363 . S
C2512 C2513 1.363 . S
C2512 C2517 1.379 . S
C2512 N2519 1.356 1_554 S
C2513 C2512 1.363 . S
C2513 C2516 1.363 . S
N2514 C2516 1.356 . S
N2514 H2526 0.984 . S
N2514 H2527 0.985 . S
N2515 C2517 1.356 . S
N2515 H2520 0.984 . S
N2515 H2521 0.985 . S
C2516 C2510 1.379 . S
C2516 C2513 1.363 . S
C2516 N2514 1.356 . S
C2517 C2511 1.363 . S
C2517 C2512 1.379 . S
C2517 N2515 1.356 . S
N2518 C2510 1.356 . S
N2518 H2524 0.984 . S
N2518 H2525 0.984 . S
N2519 C2512 1.356 1_556 S
N2519 H2522 0.984 . S
N2519 H2523 0.985 . S
H2520 N2515 0.984 . S
H2521 N2515 0.985 . S
H2522 N2519 0.984 . S
H2523 N2519 0.985 . S
H2524 N2518 0.984 . S
H2525 N2518 0.984 . S
H2526 N2514 0.984 . S
H2527 N2514 0.985 . S
C2528 C2529 1.363 . S
C2528 C2534 1.379 . S
C2528 N2536 1.356 . S
C2529 C2528 1.363 . S
C2529 C2535 1.363 . S
C2530 C2531 1.363 . S
C2530 C2535 1.379 . S
C2530 N2537 1.356 . S
C2531 C2530 1.363 . S
C2531 C2534 1.363 . S
N2532 C2534 1.356 . S
N2532 H2544 0.984 . S
N2532 H2545 0.985 . S
N2533 C2535 1.356 . S
N2533 H2538 0.984 . S
N2533 H2539 0.985 . S
C2534 C2528 1.379 . S
C2534 C2531 1.363 . S
C2534 N2532 1.356 . S
C2535 C2529 1.363 . S
C2535 C2530 1.379 . S
C2535 N2533 1.356 . S
N2536 C2528 1.356 . S
N2536 H2542 0.984 . S
N2536 H2543 0.984 . S
N2537 C2530 1.356 . S
N2537 H2540 0.984 . S
N2537 H2541 0.985 . S
H2538 N2533 0.984 . S
H2539 N2533 0.985 . S
H2540 N2537 0.984 . S
H2541 N2537 0.985 . S
H2542 N2536 0.984 . S
H2543 N2536 0.984 . S
H2544 N2532 0.984 . S
H2545 N2532 0.985 . S
C2546 C2547 1.363 . S
C2546 C2552 1.379 . S
C2546 N2554 1.356 . S
C2547 C2546 1.363 . S
C2547 C2553 1.363 . S
C2548 C2549 1.363 . S
C2548 C2553 1.379 . S
C2548 N2555 1.356 . S
C2549 C2548 1.363 . S
C2549 C2552 1.363 . S
N2550 C2552 1.356 . S
N2550 H2562 0.984 . S
N2550 H2563 0.985 . S
N2551 C2553 1.356 . S
N2551 H2556 0.984 . S
N2551 H2557 0.985 . S
C2552 C2546 1.379 . S
C2552 C2549 1.363 . S
C2552 N2550 1.356 . S
C2553 C2547 1.363 . S
C2553 C2548 1.379 . S
C2553 N2551 1.356 . S
N2554 C2546 1.356 . S
N2554 H2560 0.984 . S
N2554 H2561 0.984 . S
N2555 C2548 1.356 . S
N2555 H2558 0.984 . S
N2555 H2559 0.985 . S
H2556 N2551 0.984 . S
H2557 N2551 0.985 . S
H2558 N2555 0.984 . S
H2559 N2555 0.985 . S
H2560 N2554 0.984 . S
H2561 N2554 0.984 . S
H2562 N2550 0.984 . S
H2563 N2550 0.985 . S
C2564 C2565 1.363 . S
C2564 C2570 1.379 . S
C2564 N2572 1.356 . S
C2565 C2564 1.363 . S
C2565 C2571 1.363 . S
C2566 C2567 1.363 . S
C2566 C2571 1.379 . S
C2566 N2573 1.356 . S
C2567 C2566 1.363 . S
C2567 C2570 1.363 . S
N2568 C2570 1.356 . S
N2568 H2580 0.984 . S
N2568 H2581 0.985 . S
N2569 C2571 1.356 . S
N2569 H2574 0.984 . S
N2569 H2575 0.985 . S
C2570 C2564 1.379 . S
C2570 C2567 1.363 . S
C2570 N2568 1.356 . S
C2571 C2565 1.363 . S
C2571 C2566 1.379 . S
C2571 N2569 1.356 . S
N2572 C2564 1.356 . S
N2572 H2578 0.984 . S
N2572 H2579 0.984 . S
N2573 C2566 1.356 . S
N2573 H2576 0.984 . S
N2573 H2577 0.985 . S
H2574 N2569 0.984 . S
H2575 N2569 0.985 . S
H2576 N2573 0.984 . S
H2577 N2573 0.985 . S
H2578 N2572 0.984 . S
H2579 N2572 0.984 . S
H2580 N2568 0.984 . S
H2581 N2568 0.985 . S
C2582 C2583 1.363 . S
C2582 C2588 1.379 . S
C2582 N2590 1.356 . S
C2583 C2582 1.363 . S
C2583 C2589 1.363 . S
C2584 C2585 1.363 . S
C2584 C2589 1.379 . S
C2584 N2591 1.356 . S
C2585 C2584 1.363 . S
C2585 C2588 1.363 . S
N2586 C2588 1.356 . S
N2586 H2598 0.984 . S
N2586 H2599 0.985 . S
N2587 C2589 1.356 . S
N2587 H2592 0.984 . S
N2587 H2593 0.985 . S
C2588 C2582 1.379 . S
C2588 C2585 1.363 . S
C2588 N2586 1.356 . S
C2589 C2583 1.363 . S
C2589 C2584 1.379 . S
C2589 N2587 1.356 . S
N2590 C2582 1.356 . S
N2590 H2596 0.984 . S
N2590 H2597 0.984 . S
N2591 C2584 1.356 . S
N2591 H2594 0.984 . S
N2591 H2595 0.985 . S
H2592 N2587 0.984 . S
H2593 N2587 0.985 . S
H2594 N2591 0.984 . S
H2595 N2591 0.985 . S
H2596 N2590 0.984 . S
H2597 N2590 0.984 . S
H2598 N2586 0.984 . S
H2599 N2586 0.985 . S
C2600 C2601 1.363 . S
C2600 C2606 1.379 . S
C2600 N2608 1.356 . S
C2601 C2600 1.363 . S
C2601 C2607 1.363 . S
C2602 C2603 1.363 . S
C2602 C2607 1.379 . S
C2602 N2609 1.356 . S
C2603 C2602 1.363 . S
C2603 C2606 1.363 . S
N2604 C2606 1.356 . S
N2604 H2616 0.984 . S
N2604 H2617 0.985 . S
N2605 C2607 1.356 . S
N2605 H2610 0.984 . S
N2605 H2611 0.985 . S
C2606 C2600 1.379 . S
C2606 C2603 1.363 . S
C2606 N2604 1.356 . S
C2607 C2601 1.363 . S
C2607 C2602 1.379 . S
C2607 N2605 1.356 . S
N2608 C2600 1.356 . S
N2608 H2614 0.984 . S
N2608 H2615 0.984 . S
N2609 C2602 1.356 . S
N2609 H2612 0.984 . S
N2609 H2613 0.985 . S
H2610 N2605 0.984 . S
H2611 N2605 0.985 . S
H2612 N2609 0.984 . S
H2613 N2609 0.985 . S
H2614 N2608 0.984 . S
H2615 N2608 0.984 . S
H2616 N2604 0.984 . S
H2617 N2604 0.985 . S
C2618 C2619 1.363 . S
C2618 C2624 1.379 . S
C2618 N2626 1.356 . S
C2619 C2618 1.363 . S
C2619 C2625 1.363 . S
C2620 C2621 1.363 . S
C2620 C2625 1.379 . S
C2620 N2627 1.356 . S
C2621 C2620 1.363 . S
C2621 C2624 1.363 . S
N2622 C2624 1.356 . S
N2622 H2634 0.984 . S
N2622 H2635 0.985 . S
N2623 C2625 1.356 . S
N2623 H2628 0.984 . S
N2623 H2629 0.985 . S
C2624 C2618 1.379 . S
C2624 C2621 1.363 . S
C2624 N2622 1.356 . S
C2625 C2619 1.363 . S
C2625 C2620 1.379 . S
C2625 N2623 1.356 . S
N2626 C2618 1.356 . S
N2626 H2632 0.984 . S
N2626 H2633 0.984 . S
N2627 C2620 1.356 . S
N2627 H2630 0.984 . S
N2627 H2631 0.985 . S
H2628 N2623 0.984 . S
H2629 N2623 0.985 . S
H2630 N2627 0.984 . S
H2631 N2627 0.985 . S
H2632 N2626 0.984 . S
H2633 N2626 0.984 . S
H2634 N2622 0.984 . S
H2635 N2622 0.985 . S
C2636 C2637 1.363 . S
C2636 C2642 1.379 . S
C2636 N2644 1.356 . S
C2637 C2636 1.363 . S
C2637 C2643 1.363 . S
C2638 C2639 1.363 . S
C2638 C2643 1.379 . S
C2638 N2645 1.356 . S
C2639 C2638 1.363 . S
C2639 C2642 1.363 . S
N2640 C2642 1.356 . S
N2640 H2652 0.984 . S
N2640 H2653 0.985 . S
N2641 C2643 1.356 . S
N2641 H2646 0.984 . S
N2641 H2647 0.985 . S
C2642 C2636 1.379 . S
C2642 C2639 1.363 . S
C2642 N2640 1.356 . S
C2643 C2637 1.363 . S
C2643 C2638 1.379 . S
C2643 N2641 1.356 . S
N2644 C2636 1.356 . S
N2644 H2650 0.984 . S
N2644 H2651 0.984 . S
N2645 C2638 1.356 . S
N2645 H2648 0.984 . S
N2645 H2649 0.985 . S
H2646 N2641 0.984 . S
H2647 N2641 0.985 . S
H2648 N2645 0.984 . S
H2649 N2645 0.985 . S
H2650 N2644 0.984 . S
H2651 N2644 0.984 . S
H2652 N2640 0.984 . S
H2653 N2640 0.985 . S
C2654 C2655 1.363 . S
C2654 C2660 1.379 . S
C2654 N2662 1.356 . S
C2655 C2654 1.363 . S
C2655 C2661 1.363 . S
C2656 C2657 1.363 . S
C2656 C2661 1.379 . S
C2656 N2663 1.356 . S
C2657 C2656 1.363 . S
C2657 C2660 1.363 . S
N2658 C2660 1.356 . S
N2658 H2670 0.984 . S
N2658 H2671 0.985 . S
N2659 C2661 1.356 . S
N2659 H2664 0.984 . S
N2659 H2665 0.985 . S
C2660 C2654 1.379 . S
C2660 C2657 1.363 . S
C2660 N2658 1.356 . S
C2661 C2655 1.363 . S
C2661 C2656 1.379 . S
C2661 N2659 1.356 . S
N2662 C2654 1.356 . S
N2662 H2668 0.984 . S
N2662 H2669 0.984 . S
N2663 C2656 1.356 . S
N2663 H2666 0.984 . S
N2663 H2667 0.985 . S
H2664 N2659 0.984 . S
H2665 N2659 0.985 . S
H2666 N2663 0.984 . S
H2667 N2663 0.985 . S
H2668 N2662 0.984 . S
H2669 N2662 0.984 . S
H2670 N2658 0.984 . S
H2671 N2658 0.985 . S
C2672 C2673 1.363 1_565 S
C2672 C2678 1.379 . S
C2672 N2680 1.356 1_554 S
C2673 C2672 1.363 1_545 S
C2673 C2679 1.363 . S
C2674 C2675 1.363 . S
C2674 C2679 1.379 . S
C2674 N2681 1.356 . S
C2675 C2674 1.363 . S
C2675 C2678 1.363 1_545 S
N2676 C2678 1.356 . S
N2676 H2688 0.984 . S
N2676 H2689 0.985 . S
N2677 C2679 1.356 . S
N2677 H2682 0.984 1_554 S
N2677 H2683 0.985 . S
C2678 C2672 1.379 . S
C2678 C2675 1.363 1_565 S
C2678 N2676 1.356 . S
C2679 C2673 1.363 . S
C2679 C2674 1.379 . S
C2679 N2677 1.356 . S
N2680 C2672 1.356 1_556 S
N2680 H2686 0.984 . S
N2680 H2687 0.984 . S
N2681 C2674 1.356 . S
N2681 H2684 0.984 . S
N2681 H2685 0.985 . S
H2682 N2677 0.984 1_556 S
H2683 N2677 0.985 . S
H2684 N2681 0.984 . S
H2685 N2681 0.985 . S
H2686 N2680 0.984 . S
H2687 N2680 0.984 . S
H2688 N2676 0.984 . S
H2689 N2676 0.985 . S
C2690 C2691 1.363 . S
C2690 C2696 1.379 . S
C2690 N2698 1.356 1_554 S
C2691 C2690 1.363 . S
C2691 C2697 1.363 . S
C2692 C2693 1.363 . S
C2692 C2697 1.379 . S
C2692 N2699 1.356 . S
C2693 C2692 1.363 . S
C2693 C2696 1.363 . S
N2694 C2696 1.356 . S
N2694 H2706 0.984 . S
N2694 H2707 0.985 . S
N2695 C2697 1.356 . S
N2695 H2700 0.984 1_554 S
N2695 H2701 0.985 . S
C2696 C2690 1.379 . S
C2696 C2693 1.363 . S
C2696 N2694 1.356 . S
C2697 C2691 1.363 . S
C2697 C2692 1.379 . S
C2697 N2695 1.356 . S
N2698 C2690 1.356 1_556 S
N2698 H2704 0.984 . S
N2698 H2705 0.984 . S
N2699 C2692 1.356 . S
N2699 H2702 0.984 . S
N2699 H2703 0.985 . S
H2700 N2695 0.984 1_556 S
H2701 N2695 0.985 . S
H2702 N2699 0.984 . S
H2703 N2699 0.985 . S
H2704 N2698 0.984 . S
H2705 N2698 0.984 . S
H2706 N2694 0.984 . S
H2707 N2694 0.985 . S
C2708 C2709 1.363 . S
C2708 C2714 1.379 . S
C2708 N2716 1.356 . S
C2709 C2708 1.363 . S
C2709 C2715 1.363 . S
C2710 C2711 1.363 . S
C2710 C2715 1.379 . S
C2710 N2717 1.356 . S
C2711 C2710 1.363 . S
C2711 C2714 1.363 . S
N2712 C2714 1.356 . S
N2712 H2724 0.984 . S
N2712 H2725 0.985 . S
N2713 C2715 1.356 . S
N2713 H2718 0.984 1_554 S
N2713 H2719 0.985 . S
C2714 C2708 1.379 . S
C2714 C2711 1.363 . S
C2714 N2712 1.356 . S
C2715 C2709 1.363 . S
C2715 C2710 1.379 . S
C2715 N2713 1.356 . S
N2716 C2708 1.356 . S
N2716 H2722 0.984 . S
N2716 H2723 0.984 1_554 S
N2717 C2710 1.356 . S
N2717 H2720 0.984 . S
N2717 H2721 0.985 . S
H2718 N2713 0.984 1_556 S
H2719 N2713 0.985 . S
H2720 N2717 0.984 . S
H2721 N2717 0.985 . S
H2722 N2716 0.984 . S
H2723 N2716 0.984 1_556 S
H2724 N2712 0.984 . S
H2725 N2712 0.985 . S
C2726 C2727 1.363 1_565 S
C2726 C2732 1.379 . S
C2726 N2734 1.356 . S
C2727 C2726 1.363 1_545 S
C2727 C2733 1.363 . S
C2728 C2729 1.363 . S
C2728 C2733 1.379 . S
C2728 N2735 1.356 . S
C2729 C2728 1.363 . S
C2729 C2732 1.363 1_545 S
N2730 C2732 1.356 . S
N2730 H2742 0.984 . S
N2730 H2743 0.985 1_554 S
N2731 C2733 1.356 . S
N2731 H2736 0.984 . S
N2731 H2737 0.985 . S
C2732 C2726 1.379 . S
C2732 C2729 1.363 1_565 S
C2732 N2730 1.356 . S
C2733 C2727 1.363 . S
C2733 C2728 1.379 . S
C2733 N2731 1.356 . S
N2734 C2726 1.356 . S
N2734 H2740 0.984 . S
N2734 H2741 0.984 . S
N2735 C2728 1.356 . S
N2735 H2738 0.984 1_554 S
N2735 H2739 0.985 . S
H2736 N2731 0.984 . S
H2737 N2731 0.985 . S
H2738 N2735 0.984 1_556 S
H2739 N2735 0.985 . S
H2740 N2734 0.984 . S
H2741 N2734 0.984 . S
H2742 N2730 0.984 . S
H2743 N2730 0.985 1_556 S
C2744 C2745 1.363 . S
C2744 C2750 1.379 . S
C2744 N2752 1.356 1_556 S
C2745 C2744 1.363 . S
C2745 C2751 1.363 1_565 S
C2746 C2747 1.363 1_545 S
C2746 C2751 1.379 . S
C2746 N2753 1.356 . S
C2747 C2746 1.363 1_565 S
C2747 C2750 1.363 . S
N2748 C2750 1.356 . S
N2748 H2760 0.984 . S
N2748 H2761 0.985 . S
N2749 C2751 1.356 1_554 S
N2749 H2754 0.984 . S
N2749 H2755 0.985 1_554 S
C2750 C2744 1.379 . S
C2750 C2747 1.363 . S
C2750 N2748 1.356 . S
C2751 C2745 1.363 1_545 S
C2751 C2746 1.379 . S
C2751 N2749 1.356 1_556 S
N2752 C2744 1.356 1_554 S
N2752 H2758 0.984 . S
N2752 H2759 0.984 . S
N2753 C2746 1.356 . S
N2753 H2756 0.984 . S
N2753 H2757 0.985 . S
H2754 N2749 0.984 . S
H2755 N2749 0.985 1_556 S
H2756 N2753 0.984 . S
H2757 N2753 0.985 . S
H2758 N2752 0.984 . S
H2759 N2752 0.984 . S
H2760 N2748 0.984 . S
H2761 N2748 0.985 . S
C2762 C2763 1.363 . S
C2762 C2768 1.379 . S
C2762 N2770 1.356 . S
C2763 C2762 1.363 . S
C2763 C2769 1.363 . S
C2764 C2765 1.363 . S
C2764 C2769 1.379 . S
C2764 N2771 1.356 1_556 S
C2765 C2764 1.363 . S
C2765 C2768 1.363 . S
N2766 C2768 1.356 . S
N2766 H2778 0.984 . S
N2766 H2779 0.985 1_556 S
N2767 C2769 1.356 . S
N2767 H2772 0.984 . S
N2767 H2773 0.985 . S
C2768 C2762 1.379 . S
C2768 C2765 1.363 . S
C2768 N2766 1.356 . S
C2769 C2763 1.363 . S
C2769 C2764 1.379 . S
C2769 N2767 1.356 . S
N2770 C2762 1.356 . S
N2770 H2776 0.984 . S
N2770 H2777 0.984 . S
N2771 C2764 1.356 1_554 S
N2771 H2774 0.984 . S
N2771 H2775 0.985 . S
H2772 N2767 0.984 . S
H2773 N2767 0.985 . S
H2774 N2771 0.984 . S
H2775 N2771 0.985 . S
H2776 N2770 0.984 . S
H2777 N2770 0.984 . S
H2778 N2766 0.984 . S
H2779 N2766 0.985 1_554 S
C2780 C2781 1.363 . S
C2780 C2786 1.379 . S
C2780 N2788 1.356 . S
C2781 C2780 1.363 . S
C2781 C2787 1.363 . S
C2782 C2783 1.363 . S
C2782 C2787 1.379 . S
C2782 N2789 1.356 . S
C2783 C2782 1.363 . S
C2783 C2786 1.363 . S
N2784 C2786 1.356 . S
N2784 H2796 0.984 . S
N2784 H2797 0.985 1_556 S
N2785 C2787 1.356 . S
N2785 H2790 0.984 . S
N2785 H2791 0.985 . S
C2786 C2780 1.379 . S
C2786 C2783 1.363 . S
C2786 N2784 1.356 . S
C2787 C2781 1.363 . S
C2787 C2782 1.379 . S
C2787 N2785 1.356 . S
N2788 C2780 1.356 . S
N2788 H2794 0.984 . S
N2788 H2795 0.984 . S
N2789 C2782 1.356 . S
N2789 H2792 0.984 1_556 S
N2789 H2793 0.985 . S
H2790 N2785 0.984 . S
H2791 N2785 0.985 . S
H2792 N2789 0.984 1_554 S
H2793 N2789 0.985 . S
H2794 N2788 0.984 . S
H2795 N2788 0.984 . S
H2796 N2784 0.984 . S
H2797 N2784 0.985 1_554 S
C2798 C2799 1.363 . S
C2798 C2804 1.379 . S
C2798 N2806 1.356 . S
C2799 C2798 1.363 . S
C2799 C2805 1.363 1_565 S
C2800 C2801 1.363 1_545 S
C2800 C2805 1.379 . S
C2800 N2807 1.356 . S
C2801 C2800 1.363 1_565 S
C2801 C2804 1.363 . S
N2802 C2804 1.356 . S
N2802 H2814 0.984 . S
N2802 H2815 0.985 1_556 S
N2803 C2805 1.356 . S
N2803 H2808 0.984 . S
N2803 H2809 0.985 . S
C2804 C2798 1.379 . S
C2804 C2801 1.363 . S
C2804 N2802 1.356 . S
C2805 C2799 1.363 1_545 S
C2805 C2800 1.379 . S
C2805 N2803 1.356 . S
N2806 C2798 1.356 . S
N2806 H2812 0.984 . S
N2806 H2813 0.984 . S
N2807 C2800 1.356 . S
N2807 H2810 0.984 1_556 S
N2807 H2811 0.985 . S
H2808 N2803 0.984 . S
H2809 N2803 0.985 . S
H2810 N2807 0.984 1_554 S
H2811 N2807 0.985 . S
H2812 N2806 0.984 . S
H2813 N2806 0.984 . S
H2814 N2802 0.984 . S
H2815 N2802 0.985 1_554 S
C2816 C2817 1.363 . S
C2816 C2822 1.379 . S
C2816 N2824 1.356 . S
C2817 C2816 1.363 . S
C2817 C2823 1.363 . S
C2818 C2819 1.363 . S
C2818 C2823 1.379 . S
C2818 N2825 1.356 . S
C2819 C2818 1.363 . S
C2819 C2822 1.363 . S
N2820 C2822 1.356 . S
N2820 H2832 0.984 . S
N2820 H2833 0.985 . S
N2821 C2823 1.356 1_556 S
N2821 H2826 0.984 . S
N2821 H2827 0.985 . S
C2822 C2816 1.379 . S
C2822 C2819 1.363 . S
C2822 N2820 1.356 . S
C2823 C2817 1.363 . S
C2823 C2818 1.379 . S
C2823 N2821 1.356 1_554 S
N2824 C2816 1.356 . S
N2824 H2830 0.984 . S
N2824 H2831 0.984 1_554 S
N2825 C2818 1.356 . S
N2825 H2828 0.984 . S
N2825 H2829 0.985 . S
H2826 N2821 0.984 . S
H2827 N2821 0.985 . S
H2828 N2825 0.984 . S
H2829 N2825 0.985 . S
H2830 N2824 0.984 . S
H2831 N2824 0.984 1_556 S
H2832 N2820 0.984 . S
H2833 N2820 0.985 . S
C2834 C2835 1.363 . S
C2834 C2840 1.379 . S
C2834 N2842 1.356 . S
C2835 C2834 1.363 . S
C2835 C2841 1.363 . S
C2836 C2837 1.363 . S
C2836 C2841 1.379 . S
C2836 N2843 1.356 1_554 S
C2837 C2836 1.363 . S
C2837 C2840 1.363 . S
N2838 C2840 1.356 1_556 S
N2838 H2850 0.984 . S
N2838 H2851 0.985 . S
N2839 C2841 1.356 . S
N2839 H2844 0.984 . S
N2839 H2845 0.985 . S
C2840 C2834 1.379 . S
C2840 C2837 1.363 . S
C2840 N2838 1.356 1_554 S
C2841 C2835 1.363 . S
C2841 C2836 1.379 . S
C2841 N2839 1.356 . S
N2842 C2834 1.356 . S
N2842 H2848 0.984 . S
N2842 H2849 0.984 . S
N2843 C2836 1.356 1_556 S
N2843 H2846 0.984 . S
N2843 H2847 0.985 1_556 S
H2844 N2839 0.984 . S
H2845 N2839 0.985 . S
H2846 N2843 0.984 . S
H2847 N2843 0.985 1_554 S
H2848 N2842 0.984 . S
H2849 N2842 0.984 . S
H2850 N2838 0.984 . S
H2851 N2838 0.985 . S
C2852 C2853 1.363 . S
C2852 C2858 1.379 . S
C2852 N2860 1.356 . S
C2853 C2852 1.363 . S
C2853 C2859 1.363 . S
C2854 C2855 1.363 . S
C2854 C2859 1.379 . S
C2854 N2861 1.356 . S
C2855 C2854 1.363 . S
C2855 C2858 1.363 . S
N2856 C2858 1.356 . S
N2856 H2868 0.984 . S
N2856 H2869 0.985 1_554 S
N2857 C2859 1.356 . S
N2857 H2862 0.984 . S
N2857 H2863 0.985 . S
C2858 C2852 1.379 . S
C2858 C2855 1.363 . S
C2858 N2856 1.356 . S
C2859 C2853 1.363 . S
C2859 C2854 1.379 . S
C2859 N2857 1.356 . S
N2860 C2852 1.356 . S
N2860 H2866 0.984 . S
N2860 H2867 0.984 . S
N2861 C2854 1.356 . S
N2861 H2864 0.984 1_554 S
N2861 H2865 0.985 . S
H2862 N2857 0.984 . S
H2863 N2857 0.985 . S
H2864 N2861 0.984 1_556 S
H2865 N2861 0.985 . S
H2866 N2860 0.984 . S
H2867 N2860 0.984 . S
H2868 N2856 0.984 . S
H2869 N2856 0.985 1_556 S
C2870 C2871 1.363 . S
C2870 C2876 1.379 . S
C2870 N2878 1.356 . S
C2871 C2870 1.363 . S
C2871 C2877 1.363 . S
C2872 C2873 1.363 . S
C2872 C2877 1.379 . S
C2872 N2879 1.356 . S
C2873 C2872 1.363 . S
C2873 C2876 1.363 . S
N2874 C2876 1.356 . S
N2874 H2886 0.984 . S
N2874 H2887 0.985 . S
N2875 C2877 1.356 . S
N2875 H2880 0.984 1_554 S
N2875 H2881 0.985 . S
C2876 C2870 1.379 . S
C2876 C2873 1.363 . S
C2876 N2874 1.356 . S
C2877 C2871 1.363 . S
C2877 C2872 1.379 . S
C2877 N2875 1.356 . S
N2878 C2870 1.356 . S
N2878 H2884 0.984 . S
N2878 H2885 0.984 1_554 S
N2879 C2872 1.356 . S
N2879 H2882 0.984 . S
N2879 H2883 0.985 . S
H2880 N2875 0.984 1_556 S
H2881 N2875 0.985 . S
H2882 N2879 0.984 . S
H2883 N2879 0.985 . S
H2884 N2878 0.984 . S
H2885 N2878 0.984 1_556 S
H2886 N2874 0.984 . S
H2887 N2874 0.985 . S
C2888 C2889 1.363 . S
C2888 C2894 1.379 . S
C2888 N2896 1.356 . S
C2889 C2888 1.363 . S
C2889 C2895 1.363 . S
C2890 C2891 1.363 . S
C2890 C2895 1.379 . S
C2890 N2897 1.356 1_556 S
C2891 C2890 1.363 . S
C2891 C2894 1.363 . S
N2892 C2894 1.356 . S
N2892 H2904 0.984 . S
N2892 H2905 0.985 1_556 S
N2893 C2895 1.356 . S
N2893 H2898 0.984 . S
N2893 H2899 0.985 . S
C2894 C2888 1.379 . S
C2894 C2891 1.363 . S
C2894 N2892 1.356 . S
C2895 C2889 1.363 . S
C2895 C2890 1.379 . S
C2895 N2893 1.356 . S
N2896 C2888 1.356 . S
N2896 H2902 0.984 . S
N2896 H2903 0.984 . S
N2897 C2890 1.356 1_554 S
N2897 H2900 0.984 . S
N2897 H2901 0.985 . S
H2898 N2893 0.984 . S
H2899 N2893 0.985 . S
H2900 N2897 0.984 . S
H2901 N2897 0.985 . S
H2902 N2896 0.984 . S
H2903 N2896 0.984 . S
H2904 N2892 0.984 . S
H2905 N2892 0.985 1_554 S
C2906 C2907 1.363 . S
C2906 C2912 1.379 . S
C2906 N2914 1.356 . S
C2907 C2906 1.363 . S
C2907 C2913 1.363 . S
C2908 C2909 1.363 . S
C2908 C2913 1.379 . S
C2908 N2915 1.356 1_556 S
C2909 C2908 1.363 . S
C2909 C2912 1.363 . S
N2910 C2912 1.356 . S
N2910 H2922 0.984 . S
N2910 H2923 0.985 1_556 S
N2911 C2913 1.356 . S
N2911 H2916 0.984 . S
N2911 H2917 0.985 . S
C2912 C2906 1.379 . S
C2912 C2909 1.363 . S
C2912 N2910 1.356 . S
C2913 C2907 1.363 . S
C2913 C2908 1.379 . S
C2913 N2911 1.356 . S
N2914 C2906 1.356 . S
N2914 H2920 0.984 . S
N2914 H2921 0.984 . S
N2915 C2908 1.356 1_554 S
N2915 H2918 0.984 . S
N2915 H2919 0.985 . S
H2916 N2911 0.984 . S
H2917 N2911 0.985 . S
H2918 N2915 0.984 . S
H2919 N2915 0.985 . S
H2920 N2914 0.984 . S
H2921 N2914 0.984 . S
H2922 N2910 0.984 . S
H2923 N2910 0.985 1_554 S
C2924 C2925 1.363 . S
C2924 C2930 1.379 . S
C2924 N2932 1.356 . S
C2925 C2924 1.363 . S
C2925 C2931 1.363 . S
C2926 C2927 1.363 . S
C2926 C2931 1.379 . S
C2926 N2933 1.356 . S
C2927 C2926 1.363 . S
C2927 C2930 1.363 . S
N2928 C2930 1.356 . S
N2928 H2940 0.984 . S
N2928 H2941 0.985 1_556 S
N2929 C2931 1.356 . S
N2929 H2934 0.984 . S
N2929 H2935 0.985 . S
C2930 C2924 1.379 . S
C2930 C2927 1.363 . S
C2930 N2928 1.356 . S
C2931 C2925 1.363 . S
C2931 C2926 1.379 . S
C2931 N2929 1.356 . S
N2932 C2924 1.356 . S
N2932 H2938 0.984 . S
N2932 H2939 0.984 . S
N2933 C2926 1.356 . S
N2933 H2936 0.984 1_556 S
N2933 H2937 0.985 . S
H2934 N2929 0.984 . S
H2935 N2929 0.985 . S
H2936 N2933 0.984 1_554 S
H2937 N2933 0.985 . S
H2938 N2932 0.984 . S
H2939 N2932 0.984 . S
H2940 N2928 0.984 . S
H2941 N2928 0.985 1_554 S
C2942 C2943 1.363 . S
C2942 C2948 1.379 . S
C2942 N2950 1.356 . S
C2943 C2942 1.363 . S
C2943 C2949 1.363 . S
C2944 C2945 1.363 . S
C2944 C2949 1.379 . S
C2944 N2951 1.356 . S
C2945 C2944 1.363 . S
C2945 C2948 1.363 . S
N2946 C2948 1.356 . S
N2946 H2958 0.984 . S
N2946 H2959 0.985 . S
N2947 C2949 1.356 . S
N2947 H2952 0.984 1_556 S
N2947 H2953 0.985 . S
C2948 C2942 1.379 . S
C2948 C2945 1.363 . S
C2948 N2946 1.356 . S
C2949 C2943 1.363 . S
C2949 C2944 1.379 . S
C2949 N2947 1.356 . S
N2950 C2942 1.356 . S
N2950 H2956 0.984 . S
N2950 H2957 0.984 1_556 S
N2951 C2944 1.356 . S
N2951 H2954 0.984 . S
N2951 H2955 0.985 . S
H2952 N2947 0.984 1_554 S
H2953 N2947 0.985 . S
H2954 N2951 0.984 . S
H2955 N2951 0.985 . S
H2956 N2950 0.984 . S
H2957 N2950 0.984 1_554 S
H2958 N2946 0.984 . S
H2959 N2946 0.985 . S
C2960 C2961 1.363 1_565 S
C2960 C2966 1.379 . S
C2960 N2968 1.356 . S
C2961 C2960 1.363 1_545 S
C2961 C2967 1.363 . S
C2962 C2963 1.363 . S
C2962 C2967 1.379 . S
C2962 N2969 1.356 . S
C2963 C2962 1.363 . S
C2963 C2966 1.363 1_545 S
N2964 C2966 1.356 . S
N2964 H2976 0.984 . S
N2964 H2977 0.985 . S
N2965 C2967 1.356 . S
N2965 H2970 0.984 . S
N2965 H2971 0.985 . S
C2966 C2960 1.379 . S
C2966 C2963 1.363 1_565 S
C2966 N2964 1.356 . S
C2967 C2961 1.363 . S
C2967 C2962 1.379 . S
C2967 N2965 1.356 . S
N2968 C2960 1.356 . S
N2968 H2974 0.984 . S
N2968 H2975 0.984 . S
N2969 C2962 1.356 . S
N2969 H2972 0.984 . S
N2969 H2973 0.985 . S
H2970 N2965 0.984 . S
H2971 N2965 0.985 . S
H2972 N2969 0.984 . S
H2973 N2969 0.985 . S
H2974 N2968 0.984 . S
H2975 N2968 0.984 . S
H2976 N2964 0.984 . S
H2977 N2964 0.985 . S
C2978 C2979 1.363 . S
C2978 C2984 1.379 . S
C2978 N2986 1.356 . S
C2979 C2978 1.363 . S
C2979 C2985 1.363 . S
C2980 C2981 1.363 . S
C2980 C2985 1.379 . S
C2980 N2987 1.356 . S
C2981 C2980 1.363 . S
C2981 C2984 1.363 . S
N2982 C2984 1.356 . S
N2982 H2994 0.984 . S
N2982 H2995 0.985 . S
N2983 C2985 1.356 . S
N2983 H2988 0.984 . S
N2983 H2989 0.985 . S
C2984 C2978 1.379 . S
C2984 C2981 1.363 . S
C2984 N2982 1.356 . S
C2985 C2979 1.363 . S
C2985 C2980 1.379 . S
C2985 N2983 1.356 . S
N2986 C2978 1.356 . S
N2986 H2992 0.984 . S
N2986 H2993 0.984 . S
N2987 C2980 1.356 . S
N2987 H2990 0.984 . S
N2987 H2991 0.985 . S
H2988 N2983 0.984 . S
H2989 N2983 0.985 . S
H2990 N2987 0.984 . S
H2991 N2987 0.985 . S
H2992 N2986 0.984 . S
H2993 N2986 0.984 . S
H2994 N2982 0.984 . S
H2995 N2982 0.985 . S
C2996 C2997 1.363 . S
C2996 C3002 1.379 . S
C2996 N3004 1.356 . S
C2997 C2996 1.363 . S
C2997 C3003 1.363 . S
C2998 C2999 1.363 . S
C2998 C3003 1.379 . S
C2998 N3005 1.356 . S
C2999 C2998 1.363 . S
C2999 C3002 1.363 . S
N3000 C3002 1.356 . S
N3000 H3012 0.984 . S
N3000 H3013 0.985 . S
N3001 C3003 1.356 . S
N3001 H3006 0.984 . S
N3001 H3007 0.985 . S
C3002 C2996 1.379 . S
C3002 C2999 1.363 . S
C3002 N3000 1.356 . S
C3003 C2997 1.363 . S
C3003 C2998 1.379 . S
C3003 N3001 1.356 . S
N3004 C2996 1.356 . S
N3004 H3010 0.984 . S
N3004 H3011 0.984 . S
N3005 C2998 1.356 . S
N3005 H3008 0.984 . S
N3005 H3009 0.985 . S
H3006 N3001 0.984 . S
H3007 N3001 0.985 . S
H3008 N3005 0.984 . S
H3009 N3005 0.985 . S
H3010 N3004 0.984 . S
H3011 N3004 0.984 . S
H3012 N3000 0.984 . S
H3013 N3000 0.985 . S
C3014 C3015 1.363 . S
C3014 C3020 1.379 . S
C3014 N3022 1.356 . S
C3015 C3014 1.363 . S
C3015 C3021 1.363 1_545 S
C3016 C3017 1.363 1_565 S
C3016 C3021 1.379 . S
C3016 N3023 1.356 . S
C3017 C3016 1.363 1_545 S
C3017 C3020 1.363 . S
N3018 C3020 1.356 . S
N3018 H3030 0.984 . S
N3018 H3031 0.985 . S
N3019 C3021 1.356 . S
N3019 H3024 0.984 . S
N3019 H3025 0.985 . S
C3020 C3014 1.379 . S
C3020 C3017 1.363 . S
C3020 N3018 1.356 . S
C3021 C3015 1.363 1_565 S
C3021 C3016 1.379 . S
C3021 N3019 1.356 . S
N3022 C3014 1.356 . S
N3022 H3028 0.984 . S
N3022 H3029 0.984 . S
N3023 C3016 1.356 . S
N3023 H3026 0.984 . S
N3023 H3027 0.985 . S
H3024 N3019 0.984 . S
H3025 N3019 0.985 . S
H3026 N3023 0.984 . S
H3027 N3023 0.985 . S
H3028 N3022 0.984 . S
H3029 N3022 0.984 . S
H3030 N3018 0.984 . S
H3031 N3018 0.985 . S
C3032 C3033 1.363 . S
C3032 C3038 1.379 . S
C3032 N3040 1.356 . S
C3033 C3032 1.363 . S
C3033 C3039 1.363 1_565 S
C3034 C3035 1.363 1_545 S
C3034 C3039 1.379 . S
C3034 N3041 1.356 . S
C3035 C3034 1.363 1_565 S
C3035 C3038 1.363 . S
N3036 C3038 1.356 . S
N3036 H3048 0.984 . S
N3036 H3049 0.985 . S
N3037 C3039 1.356 . S
N3037 H3042 0.984 . S
N3037 H3043 0.985 . S
C3038 C3032 1.379 . S
C3038 C3035 1.363 . S
C3038 N3036 1.356 . S
C3039 C3033 1.363 1_545 S
C3039 C3034 1.379 . S
C3039 N3037 1.356 . S
N3040 C3032 1.356 . S
N3040 H3046 0.984 . S
N3040 H3047 0.984 . S
N3041 C3034 1.356 . S
N3041 H3044 0.984 . S
N3041 H3045 0.985 . S
H3042 N3037 0.984 . S
H3043 N3037 0.985 . S
H3044 N3041 0.984 . S
H3045 N3041 0.985 . S
H3046 N3040 0.984 . S
H3047 N3040 0.984 . S
H3048 N3036 0.984 . S
H3049 N3036 0.985 . S
C3050 C3051 1.363 . S
C3050 C3056 1.379 . S
C3050 N3058 1.356 . S
C3051 C3050 1.363 . S
C3051 C3057 1.363 . S
C3052 C3053 1.363 . S
C3052 C3057 1.379 . S
C3052 N3059 1.356 . S
C3053 C3052 1.363 . S
C3053 C3056 1.363 . S
N3054 C3056 1.356 . S
N3054 H3066 0.984 . S
N3054 H3067 0.985 . S
N3055 C3057 1.356 . S
N3055 H3060 0.984 . S
N3055 H3061 0.985 . S
C3056 C3050 1.379 . S
C3056 C3053 1.363 . S
C3056 N3054 1.356 . S
C3057 C3051 1.363 . S
C3057 C3052 1.379 . S
C3057 N3055 1.356 . S
N3058 C3050 1.356 . S
N3058 H3064 0.984 . S
N3058 H3065 0.984 . S
N3059 C3052 1.356 . S
N3059 H3062 0.984 . S
N3059 H3063 0.985 . S
H3060 N3055 0.984 . S
H3061 N3055 0.985 . S
H3062 N3059 0.984 . S
H3063 N3059 0.985 . S
H3064 N3058 0.984 . S
H3065 N3058 0.984 . S
H3066 N3054 0.984 . S
H3067 N3054 0.985 . S
C3068 C3069 1.363 . S
C3068 C3074 1.379 . S
C3068 N3076 1.356 . S
C3069 C3068 1.363 . S
C3069 C3075 1.363 . S
C3070 C3071 1.363 . S
C3070 C3075 1.379 . S
C3070 N3077 1.356 . S
C3071 C3070 1.363 . S
C3071 C3074 1.363 . S
N3072 C3074 1.356 . S
N3072 H3084 0.984 . S
N3072 H3085 0.985 . S
N3073 C3075 1.356 . S
N3073 H3078 0.984 . S
N3073 H3079 0.985 . S
C3074 C3068 1.379 . S
C3074 C3071 1.363 . S
C3074 N3072 1.356 . S
C3075 C3069 1.363 . S
C3075 C3070 1.379 . S
C3075 N3073 1.356 . S
N3076 C3068 1.356 . S
N3076 H3082 0.984 . S
N3076 H3083 0.984 . S
N3077 C3070 1.356 . S
N3077 H3080 0.984 . S
N3077 H3081 0.985 . S
H3078 N3073 0.984 . S
H3079 N3073 0.985 . S
H3080 N3077 0.984 . S
H3081 N3077 0.985 . S
H3082 N3076 0.984 . S
H3083 N3076 0.984 . S
H3084 N3072 0.984 . S
H3085 N3072 0.985 . S
C3086 C3087 1.363 1_545 S
C3086 C3092 1.379 . S
C3086 N3094 1.356 . S
C3087 C3086 1.363 1_565 S
C3087 C3093 1.363 . S
C3088 C3089 1.363 . S
C3088 C3093 1.379 . S
C3088 N3095 1.356 . S
C3089 C3088 1.363 . S
C3089 C3092 1.363 1_565 S
N3090 C3092 1.356 . S
N3090 H3102 0.984 . S
N3090 H3103 0.985 . S
N3091 C3093 1.356 . S
N3091 H3096 0.984 . S
N3091 H3097 0.985 . S
C3092 C3086 1.379 . S
C3092 C3089 1.363 1_545 S
C3092 N3090 1.356 . S
C3093 C3087 1.363 . S
C3093 C3088 1.379 . S
C3093 N3091 1.356 . S
N3094 C3086 1.356 . S
N3094 H3100 0.984 . S
N3094 H3101 0.984 . S
N3095 C3088 1.356 . S
N3095 H3098 0.984 . S
N3095 H3099 0.985 . S
H3096 N3091 0.984 . S
H3097 N3091 0.985 . S
H3098 N3095 0.984 . S
H3099 N3095 0.985 . S
H3100 N3094 0.984 . S
H3101 N3094 0.984 . S
H3102 N3090 0.984 . S
H3103 N3090 0.985 . S
C1089 C85 1.700 . S
C1091 C17 1.700 . S
C1107 C119 1.700 . S
C1109 C51 1.700 . S
C1125 C221 1.700 . S
C1127 C153 1.700 . S
C1143 C255 1.700 . S
C1145 C187 1.700 . S
C1161 C357 1.700 . S
C1163 C289 1.700 . S
C1179 C391 1.700 . S
C1181 C323 1.700 . S
C1197 C425 1.700 . S
C1199 C493 1.700 . S
C1215 C459 1.700 . S
C1217 C527 1.700 . S
C1233 C629 1.700 . S
C1235 C561 1.700 . S
C1251 C663 1.700 . S
C1253 C595 1.700 . S
C1269 C765 1.700 . S
C1271 C697 1.700 . S
C1287 C731 1.700 . S
C1289 C799 1.700 . S
C1305 C833 1.700 . S
C1307 C901 1.700 . S
C1323 C935 1.700 . S
C1325 C867 1.700 . S
C1341 C1037 1.700 . S
C1343 C969 1.700 . S
C1359 C1003 1.700 . S
C1361 C1071 1.700 . S
C1377 C158 1.618 . S
C1379 C22 1.618 . S
C1395 C1008 1.618 . S
C1397 C56 1.618 . S
C1413 C83 1.618 . S
C1415 C498 1.618 . S
C1431 C797 1.618 . S
C1433 C124 1.618 . S
C1449 C872 1.618 . S
C1451 C192 1.618 . S
C1467 C226 1.618 . S
C1469 C355 1.618 . S
C1485 C661 1.618 . S
C1487 C260 1.618 . S
C1503 C430 1.618 . S
C1505 C294 1.618 . S
C1521 C736 1.618 . S
C1523 C328 1.618 . S
C1539 C1069 1.618 . S
C1541 C389 1.618 . S
C1557 C464 1.618 . S
C1559 C600 1.618 . S
C1575 C940 1.618 . S
C1577 C525 1.618 . S
C1593 C566 1.618 . S
C1595 C702 1.618 . S
C1611 C1042 1.618 . S
C1613 C627 1.618 . S
C1629 C770 1.618 . S
C1631 C899 1.618 . S
C1647 C974 1.618 . S
C1649 C838 1.618 . S
C1665 C341 2.063 . S
C1667 C3 2.063 . S
C1683 C375 2.063 . S
C1685 C37 2.063 . S
C1701 C275 2.063 . S
C1703 C69 2.063 1_556 S
C1719 C309 2.063 . S
C1721 C105 2.063 1_556 S
C1737 C139 2.063 . S
C1739 C479 2.063 . S
C1755 C511 2.063 . S
C1757 C173 2.063 . S
C1773 C207 2.063 1_554 S
C1775 C411 2.063 . S
C1791 C445 2.063 . S
C1793 C241 2.063 1_554 S
C1809 C547 2.063 . S
C1811 C885 2.063 1_556 S
C1827 C921 2.063 1_556 S
C1829 C581 2.063 . S
C1845 C819 2.063 . S
C1847 C613 2.063 . S
C1863 C853 2.063 . S
C1865 C647 2.063 . S
C1881 C1023 2.063 1_554 S
C1883 C683 2.063 . S
C1899 C1055 2.063 1_554 S
C1901 C717 2.063 . S
C1917 C751 2.063 . S
C1919 C955 2.063 . S
C1935 C783 2.063 . S
C1937 C989 2.063 . S
C1953 C15 1.958 . S
C1955 C117 1.958 . S
C1971 C90 1.958 . S
C1973 C49 1.958 . S
C1989 C253 1.958 . S
C1991 C151 1.958 . S
C2007 C219 1.958 . S
C2009 C185 1.958 . S
C2025 C396 1.958 . S
C2027 C287 1.958 . S
C2043 C362 1.958 . S
C2045 C321 1.958 . S
C2061 C532 1.958 . S
C2063 C423 1.958 . S
C2079 C491 1.958 . S
C2081 C457 1.958 . S
C2097 C668 1.958 . S
C2099 C559 1.958 . S
C2115 C593 1.958 . S
C2117 C634 1.958 . S
C2133 C804 1.958 . S
C2135 C695 1.958 . S
C2151 C763 1.958 . S
C2153 C729 1.958 . S
C2169 C933 1.958 . S
C2171 C831 1.958 . S
C2187 C906 1.958 . S
C2189 C865 1.958 . S
C2205 C967 1.958 . S
C2207 C1076 1.958 . S
C2223 C1001 1.958 . S
C2225 C1035 1.958 . S
C2241 C343 1.592 . S
C2243 C1 1.592 1_556 S
C2259 C377 1.592 . S
C2261 C35 1.592 1_556 S
C2277 C273 1.592 . S
C2279 C71 1.592 . S
C2295 C103 1.592 . S
C2297 C307 1.592 . S
C2313 C477 1.592 . S
C2315 C137 1.592 1_554 S
C2331 C171 1.592 1_554 S
C2333 C513 1.592 . S
C2349 C409 1.592 . S
C2351 C205 1.592 . S
C2367 C443 1.592 . S
C2369 C239 1.592 . S
C2385 C545 1.592 . S
C2387 C887 1.592 . S
C2403 C919 1.592 . S
C2405 C579 1.592 . S
C2421 C615 1.592 . S
C2423 C817 1.592 1_556 S
C2439 C851 1.592 1_556 S
C2441 C649 1.592 . S
C2457 C1021 1.592 . S
C2459 C681 1.592 . S
C2475 C715 1.592 . S
C2477 C1057 1.592 . S
C2493 C749 1.592 . S
C2495 C953 1.592 1_554 S
C2511 C785 1.592 . S
C2513 C987 1.592 1_554 S
C2529 C6 1.449 . S
C2531 C28 1.447 . S
C2547 C62 1.447 . S
C2549 C40 1.449 . S
C2565 C74 1.447 . S
C2567 C96 1.449 . S
C2583 C108 1.449 . S
C2585 C130 1.447 . S
C2601 C142 1.449 . S
C2603 C164 1.447 . S
C2619 C176 1.449 . S
C2621 C198 1.447 . S
C2637 C210 1.449 . S
C2639 C232 1.447 . S
C2655 C244 1.449 . S
C2657 C266 1.447 . S
C2673 C300 1.448 1_554 S
C2675 C278 1.447 1_545 S
C2691 C334 1.447 1_554 S
C2693 C312 1.449 . S
C2709 C368 1.449 1_554 S
C2711 C346 1.447 . S
C2727 C380 1.448 . S
C2729 C402 1.447 1_544 S
C2745 C436 1.448 1_556 S
C2747 C414 1.447 1_565 S
C2763 C448 1.449 . S
C2765 C470 1.447 1_556 S
C2781 C504 1.447 . S
C2783 C482 1.449 1_556 S
C2799 C516 1.448 . S
C2801 C538 1.447 1_566 S
C2817 C572 1.447 1_554 S
C2819 C550 1.449 . S
C2835 C584 1.449 . S
C2837 C606 1.447 1_554 S
C2853 C618 1.447 . S
C2855 C640 1.449 1_554 S
C2871 C674 1.449 1_554 S
C2873 C652 1.447 . S
C2889 C686 1.449 . S
C2891 C708 1.447 1_556 S
C2907 C720 1.449 . S
C2909 C742 1.447 1_556 S
C2925 C776 1.447 . S
C2927 C754 1.449 1_556 S
C2943 C810 1.449 1_556 S
C2945 C788 1.447 . S
C2961 C844 1.448 . S
C2963 C822 1.447 1_545 S
C2979 C856 1.449 . S
C2981 C878 1.447 . S
C2997 C912 1.449 . S
C2999 C890 1.447 . S
C3015 C946 1.448 . S
C3017 C924 1.447 1_545 S
C3033 C958 1.447 1_565 S
C3035 C980 1.448 . S
C3051 C992 1.449 . S
C3053 C1014 1.447 . S
C3069 C1026 1.449 . S
C3071 C1048 1.447 . S
C3087 C1082 1.447 1_565 S
C3089 C1060 1.448 . S
