# Generated by pormake.
# Topology soe, (5)-cn, num edge types: 1
# Building blocks:
#     Node 0, Type 0, BuildingBlock: XOMCOT_clean_sbu_0, # of connection points: 5
#     Node 1, Type 0, BuildingBlock: XOMCOT_clean_sbu_0, # of connection points: 5
#     Node 2, Type 0, BuildingBlock: XOMCOT_clean_sbu_0, # of connection points: 5
#     Node 3, Type 0, BuildingBlock: XOMCOT_clean_sbu_0, # of connection points: 5
#     Node 4, Type 0, BuildingBlock: XOMCOT_clean_sbu_0, # of connection points: 5
#     Node 5, Type 0, BuildingBlock: XOMCOT_clean_sbu_0, # of connection points: 5
#     Node 6, Type 0, BuildingBlock: XOMCOT_clean_sbu_0, # of connection points: 5
#     Node 7, Type 0, BuildingBlock: XOMCOT_clean_sbu_0, # of connection points: 5
#     Edge 8, Type (0, 0), BuildingBlock: EZIPEK_clean_linker_0, # of connection points: 2
#     Edge 9, Type (0, 0), BuildingBlock: EZIPEK_clean_linker_0, # of connection points: 2
#     Edge 10, Type (0, 0), BuildingBlock: EZIPEK_clean_linker_0, # of connection points: 2
#     Edge 11, Type (0, 0), BuildingBlock: EZIPEK_clean_linker_0, # of connection points: 2
#     Edge 12, Type (0, 0), BuildingBlock: EZIPEK_clean_linker_0, # of connection points: 2
#     Edge 13, Type (0, 0), BuildingBlock: EZIPEK_clean_linker_0, # of connection points: 2
#     Edge 14, Type (0, 0), BuildingBlock: EZIPEK_clean_linker_0, # of connection points: 2
#     Edge 15, Type (0, 0), BuildingBlock: EZIPEK_clean_linker_0, # of connection points: 2
#     Edge 16, Type (0, 0), BuildingBlock: EZIPEK_clean_linker_0, # of connection points: 2
#     Edge 17, Type (0, 0), BuildingBlock: EZIPEK_clean_linker_0, # of connection points: 2
#     Edge 18, Type (0, 0), BuildingBlock: EZIPEK_clean_linker_0, # of connection points: 2
#     Edge 19, Type (0, 0), BuildingBlock: EZIPEK_clean_linker_0, # of connection points: 2
#     Edge 20, Type (0, 0), BuildingBlock: EZIPEK_clean_linker_0, # of connection points: 2
#     Edge 21, Type (0, 0), BuildingBlock: EZIPEK_clean_linker_0, # of connection points: 2
#     Edge 22, Type (0, 0), BuildingBlock: EZIPEK_clean_linker_0, # of connection points: 2
#     Edge 23, Type (0, 0), BuildingBlock: EZIPEK_clean_linker_0, # of connection points: 2
#     Edge 24, Type (0, 0), BuildingBlock: EZIPEK_clean_linker_0, # of connection points: 2
#     Edge 25, Type (0, 0), BuildingBlock: EZIPEK_clean_linker_0, # of connection points: 2
#     Edge 26, Type (0, 0), BuildingBlock: EZIPEK_clean_linker_0, # of connection points: 2
#     Edge 27, Type (0, 0), BuildingBlock: EZIPEK_clean_linker_0, # of connection points: 2
# Relax obj value: 0.039
# Max RMSD: 0.066
# Mean RMSD: 0.066
data_MOF--net-soe--node1-XOMCOT_clean_sbu_0--edge1-EZIPEK_clean_linker_0
_symmetry_space_group_name_H-M    P1
_symmetry_Int_Tables_number       1
_symmetry_cell_setting            triclinic
loop_
_symmetry_equiv_pos_as_xyz
'x, y, z'
_cell_length_a     44.865509
_cell_length_b     32.21348
_cell_length_c     13.575124
_cell_angle_alpha  90.075577
_cell_angle_beta   89.727197
_cell_angle_gamma 89.970063
loop_
_atom_site_label
_atom_site_type_symbol
_atom_site_fract_x
_atom_site_fract_y
_atom_site_fract_z
_atom_type_partial_charge
Co0 Co 0.10151 0.11572 0.11717 0.0
C1 C 0.10199 0.1152 0.8987 0.0
C2 C 0.10033 0.17738 0.95566 0.0
C3 C 0.10008 0.17927 0.85422 0.0
N4 N 0.10168 0.1372 0.9836 0.0
N5 N 0.10085 0.14021 0.81909 0.0
H6 H 0.10284 0.08167 0.89487 0.0
H7 H 0.09915 0.2037 1.00495 0.0
C8 C 0.12713 0.1874 0.23905 0.0
O9 O 0.14365 0.16156 0.29004 0.0
N10 N 0.10095 0.0937 0.25144 0.0
C11 C 0.10899 0.05518 0.28064 0.0
C12 C 0.10756 0.05288 0.38173 0.0
C13 C 0.09331 0.11353 0.33587 0.0
N14 N 0.09821 0.08981 0.41608 0.0
C15 C 0.14872 0.05821 0.08374 0.0
C16 C 0.19586 0.11303 0.08883 0.0
C17 C 0.20147 0.07034 0.08086 0.0
C18 C 0.17756 0.04302 0.07553 0.0
C19 C 0.16629 0.12708 0.0959 0.0
N20 N 0.14319 0.09942 0.10007 0.0
H21 H 0.13091 0.03606 0.07773 0.0
H22 H 0.16218 0.16002 0.09697 0.0
H23 H 0.11557 1.03005 0.23292 0.0
H24 H 0.08553 0.1452 0.33968 0.0
O25 O 0.08358 0.065 0.0709 0.0
O26 O 0.05808 0.11999 0.12033 0.0
O27 O 0.11133 0.17392 0.16743 0.0
C28 C 0.05794 0.08244 0.08431 0.0
H29 H 0.09885 0.20703 0.80956 0.0
H30 H 0.11404 1.02675 0.42692 0.0
H31 H 0.21407 0.13509 0.08953 0.0
H32 H 0.1812 1.00997 0.06644 0.0
Co33 Co 0.41847 0.95299 0.11685 0.0
C34 C 0.41483 0.95304 0.89981 0.0
C35 C 0.43227 0.89544 0.95479 0.0
C36 C 0.43343 0.89452 0.85326 0.0
N37 N 0.42061 0.9321 0.98364 0.0
N38 N 0.4225 0.93071 0.81948 0.0
H39 H 0.40636 0.9845 0.89754 0.0
H40 H 0.44055 0.87179 1.00408 0.0
C41 C 0.39259 0.87974 0.23217 0.0
O42 O 0.37445 0.90483 0.27969 0.0
N43 N 0.41681 0.97456 0.25157 0.0
C44 C 0.40819 1.01293 0.28083 0.0
C45 C 0.40921 1.01537 0.38194 0.0
C46 C 0.42418 0.9549 0.33611 0.0
N47 N 0.41899 0.97876 0.41608 0.0
C48 C 0.37026 1.00856 0.0826 0.0
C49 C 0.32449 0.9515 0.07978 0.0
C50 C 0.31788 0.99403 0.07627 0.0
C51 C 0.34113 1.0225 0.07433 0.0
C52 C 0.35437 0.93878 0.08684 0.0
N53 N 0.37665 0.96744 0.09593 0.0
H54 H 0.38758 1.03154 0.07915 0.0
H55 H 0.35942 0.90612 0.08443 0.0
H56 H 0.40192 0.03809 0.23316 0.0
H57 H 0.4325 0.92357 0.34012 0.0
O58 O 0.43572 1.00451 0.07239 0.0
O59 O 0.46187 0.95075 0.1244 0.0
O60 O 0.4096 0.89397 0.16403 0.0
C61 C 0.4616 0.98808 0.08739 0.0
H62 H 0.44236 0.86982 0.80771 0.0
H63 H 0.40279 0.04163 0.42714 0.0
H64 H 0.30685 0.9286 0.07741 0.0
H65 H 0.33676 0.0555 0.06827 0.0
Co66 Co 0.09976 0.44282 0.4315 0.0
C67 C 0.10166 0.44266 0.65171 0.0
C68 C 0.09292 0.38189 0.59545 0.0
C69 C 0.09288 0.37989 0.6967 0.0
N70 N 0.09945 0.421 0.56631 0.0
N71 N 0.09818 0.41819 0.73153 0.0
H72 H 0.10439 0.47586 0.65664 0.0
H73 H 0.08745 0.35643 0.54763 0.0
C74 C 0.1257 0.35613 0.39837 0.0
O75 O 0.14449 0.36187 0.4711 0.0
N76 N 0.09978 0.46472 0.29897 0.0
C77 C 0.10941 0.50265 0.27131 0.0
C78 C 0.10969 0.50465 0.16991 0.0
C79 C 0.09445 0.44405 0.21434 0.0
N80 N 0.10043 0.46776 0.13485 0.0
C81 C 0.14924 0.48984 0.49918 0.0
C82 C 0.19134 0.45886 0.36957 0.0
C83 C 0.19877 0.49285 0.42944 0.0
C84 C 0.17722 0.50827 0.49444 0.0
C85 C 0.16239 0.44247 0.37341 0.0
N86 N 0.1419 0.4572 0.43974 0.0
H87 H 0.1329 0.50417 0.54615 0.0
H88 H 0.15606 0.41975 0.31907 0.0
H89 H 0.11671 0.52667 0.3214 0.0
H90 H 0.0874 0.41197 0.21045 0.0
O91 O 0.08352 0.49472 0.47946 0.0
O92 O 0.05632 0.44114 0.4317 0.0
O93 O 0.10774 0.38523 0.37395 0.0
C94 C 0.0573 0.47873 0.46737 0.0
H95 H 0.08814 0.35288 0.74146 0.0
H96 H 0.11712 0.5305 0.12524 0.0
H97 H 0.20725 0.44656 0.31686 0.0
H98 H 0.18181 0.53508 0.54023 0.0
Co99 Co 0.41411 0.62141 0.40422 0.0
C100 C 0.40821 0.62438 0.62359 0.0
C101 C 0.43355 0.67537 0.56632 0.0
C102 C 0.43478 0.67676 0.66763 0.0
N103 N 0.41659 0.64283 0.53826 0.0
N104 N 0.41885 0.6447 0.70296 0.0
H105 H 0.39631 0.59541 0.62872 0.0
H106 H 0.44562 0.69542 0.51645 0.0
C107 C 0.39345 0.71094 0.38909 0.0
O108 O 0.37998 0.70742 0.4748 0.0
N109 N 0.41233 0.60005 0.27121 0.0
C110 C 0.40202 0.56257 0.243 0.0
C111 C 0.40209 0.5607 0.1415 0.0
C112 C 0.41859 0.6205 0.18683 0.0
N113 N 0.41244 0.59712 0.10691 0.0
C114 C 0.365 0.57245 0.46813 0.0
C115 C 0.3204 0.61392 0.36942 0.0
C116 C 0.31358 0.57673 0.41845 0.0
C117 C 0.3364 0.55603 0.46767 0.0
C118 C 0.34993 0.62842 0.36786 0.0
N119 N 0.37179 0.60831 0.41916 0.0
H120 H 0.38193 0.5546 0.50454 0.0
H121 H 0.35518 0.65449 0.32139 0.0
H122 H 0.39435 0.53859 0.29269 0.0
H123 H 0.42673 0.65208 0.18353 0.0
O124 O 0.43008 0.56931 0.45024 0.0
O125 O 0.45763 0.62151 0.39742 0.0
O126 O 0.40637 0.67942 0.35018 0.0
C127 C 0.45644 0.58435 0.43523 0.0
H128 H 0.44749 0.69833 0.71188 0.0
H129 H 0.39449 0.5351 0.09642 0.0
H130 H 0.30337 0.63051 0.32914 0.0
H131 H 0.33221 0.52688 0.50499 0.0
Co132 Co 0.9187 0.94478 0.9081 0.0
C133 C 0.91327 0.94171 0.12832 0.0
C134 C 0.93615 0.88885 0.0694 0.0
C135 C 0.93749 0.88701 0.17067 0.0
N136 N 0.92062 0.92287 0.04218 0.0
N137 N 0.92307 0.92026 0.20705 0.0
H138 H 0.90293 0.97171 0.13497 0.0
H139 H 0.94738 0.86804 0.01925 0.0
C140 C 0.89629 0.85649 0.88724 0.0
O141 O 0.8809 0.86119 0.96909 0.0
N142 N 0.91746 0.96636 0.77532 0.0
C143 C 0.90646 1.0034 0.74682 0.0
C144 C 0.90648 1.00498 0.64529 0.0
C145 C 0.9241 0.94592 0.69112 0.0
N146 N 0.9175 0.96882 0.61099 0.0
C147 C 0.86893 0.99139 0.97725 0.0
C148 C 0.82579 0.95439 0.86263 0.0
C149 C 0.81813 0.98849 0.92197 0.0
C150 C 0.84009 1.00693 0.97947 0.0
C151 C 0.85535 0.9401 0.86142 0.0
N152 N 0.87637 0.95766 0.92108 0.0
H153 H 0.88554 1.00857 0.01681 0.0
H154 H 0.86157 0.91665 0.80848 0.0
H155 H 0.89811 1.02707 0.79635 0.0
H156 H 0.93263 0.91451 0.68808 0.0
O157 O 0.9341 0.99691 0.95557 0.0
O158 O 0.96213 0.94482 0.90336 0.0
O159 O 0.91132 0.88692 0.85243 0.0
C160 C 0.96056 0.98201 0.9412 0.0
H161 H 0.94928 0.86421 0.21418 0.0
H162 H 0.89825 1.03009 0.6 0.0
H163 H 0.80941 0.94016 0.81496 0.0
H164 H 0.83513 0.03407 0.02392 0.0
Co165 Co 0.60435 0.12135 0.9237 0.0
C166 C 0.59008 0.12415 0.1384 0.0
C167 C 0.62312 0.16889 0.09627 0.0
C168 C 0.62035 0.16943 0.19706 0.0
N169 N 0.60439 0.14016 0.05927 0.0
N170 N 0.59965 0.14122 0.22324 0.0
H171 H 0.57419 0.09903 0.13576 0.0
H172 H 0.63874 0.18705 0.05356 0.0
C173 C 0.62675 0.19552 0.80449 0.0
O174 O 0.64031 0.17085 0.7416 0.0
N175 N 0.60483 0.10255 0.78758 0.0
C176 C 0.62576 0.07861 0.7438 0.0
C177 C 0.62134 0.07897 0.64422 0.0
C178 C 0.58709 0.11561 0.71339 0.0
N179 N 0.59732 0.10259 0.62463 0.0
C180 C 0.65061 0.06384 0.96925 0.0
C181 C 0.69907 0.11304 0.92429 0.0
C182 C 0.70345 0.07072 0.94338 0.0
C183 C 0.67894 0.04642 0.96884 0.0
C184 C 0.67004 0.12925 0.92428 0.0
N185 N 0.64598 0.1041 0.94067 0.0
H186 H 0.63242 0.0436 0.98778 0.0
H187 H 0.66727 0.16182 0.91165 0.0
H188 H 0.64417 0.06347 0.7794 0.0
H189 H 0.56813 0.13594 0.72362 0.0
O190 O 0.58585 0.06976 0.96159 0.0
O191 O 0.56092 0.12594 0.91936 0.0
O192 O 0.61387 0.18067 0.88124 0.0
C193 C 0.56031 0.08755 0.94939 0.0
H194 H 0.63315 0.18824 0.24773 0.0
H195 H 0.63548 0.06429 0.58945 0.0
H196 H 0.71782 0.13309 0.90801 0.0
H197 H 0.68163 1.01383 0.98651 0.0
Co198 Co 0.91211 0.61314 0.61096 0.0
C199 C 0.9272 0.61626 0.3967 0.0
C200 C 0.8936 0.66039 0.43862 0.0
C201 C 0.89615 0.66047 0.33769 0.0
N202 N 0.91291 0.6325 0.47587 0.0
N203 N 0.91712 0.63255 0.31163 0.0
H204 H 0.9432 0.59124 0.3996 0.0
H205 H 0.87738 0.67761 0.48138 0.0
C206 C 0.89203 0.68756 0.73608 0.0
O207 O 0.88122 0.66301 0.80447 0.0
N208 N 0.91104 0.59348 0.74609 0.0
C209 C 0.88984 0.56966 0.78815 0.0
C210 C 0.89404 0.56964 0.88817 0.0
C211 C 0.92904 0.60527 0.82085 0.0
N212 N 0.91838 0.59257 0.90924 0.0
C213 C 0.86669 0.56199 0.53155 0.0
C214 C 0.81793 0.59777 0.62253 0.0
C215 C 0.81426 0.56081 0.56964 0.0
C216 C 0.8388 0.54352 0.52152 0.0
C217 C 0.84636 0.6154 0.63044 0.0
N218 N 0.87066 0.59634 0.58946 0.0
H219 H 0.88523 0.54785 0.49358 0.0
H220 H 0.84849 0.64352 0.67113 0.0
H221 H 0.8717 0.55466 0.75015 0.0
H222 H 0.94857 0.62453 0.81104 0.0
O223 O 0.93055 0.56138 0.57306 0.0
O224 O 0.95545 0.61727 0.61851 0.0
O225 O 0.90204 0.6726 0.65452 0.0
C226 C 0.95611 0.57886 0.5882 0.0
H227 H 0.88279 0.67836 0.28685 0.0
H228 H 0.87963 0.55504 0.94211 0.0
H229 H 0.7991 0.61238 0.65889 0.0
H230 H 0.83654 0.51542 0.47824 0.0
Co231 Co 0.59646 0.44779 0.61027 0.0
C232 C 0.6009 0.44807 0.39376 0.0
C233 C 0.5826 0.39074 0.44781 0.0
C234 C 0.58177 0.39012 0.3463 0.0
N235 N 0.59449 0.42711 0.47715 0.0
N236 N 0.59322 0.42614 0.31315 0.0
H237 H 0.60973 0.47933 0.39206 0.0
H238 H 0.57389 0.36717 0.49674 0.0
C239 C 0.62333 0.37351 0.71866 0.0
O240 O 0.64199 0.3981 0.76484 0.0
N241 N 0.59799 0.46923 0.74507 0.0
C242 C 0.60377 0.50871 0.7735 0.0
C243 C 0.60322 0.51116 0.87458 0.0
C244 C 0.59266 0.44878 0.83034 0.0
N245 N 0.59647 0.4734 0.90963 0.0
C246 C 0.6461 0.50207 0.58485 0.0
C247 C 0.68974 0.44254 0.56036 0.0
C248 C 0.69789 0.48447 0.56663 0.0
C249 C 0.67565 0.51439 0.57589 0.0
C250 C 0.65957 0.43157 0.5695 0.0
N251 N 0.63846 0.46108 0.58927 0.0
H252 H 0.6294 0.52595 0.58676 0.0
H253 H 0.65323 0.39955 0.55982 0.0
H254 H 0.60721 0.53478 0.72531 0.0
H255 H 0.58633 0.41663 0.8355 0.0
O256 O 0.57964 0.49972 0.56604 0.0
O257 O 0.55307 0.4462 0.61815 0.0
O258 O 0.60495 0.38858 0.65621 0.0
C259 C 0.55358 0.48351 0.5811 0.0
H260 H 0.57268 0.36578 0.30033 0.0
H261 H 0.6074 0.53844 0.91908 0.0
H262 H 0.70645 0.41874 0.54865 0.0
H263 H 0.68111 0.54716 0.57639 0.0
C264 C 0.27364 1.02109 0.16907 0.0
C265 C 0.2869 1.01009 0.07753 0.0
C266 C 0.24614 0.04401 0.98856 0.0
C267 C 0.23208 0.05298 0.07998 0.0
N268 N 0.22992 0.04608 0.25676 0.0
N269 N 0.28483 1.00597 0.90067 0.0
C270 C 0.24516 0.04044 0.1702 0.0
C271 C 0.27282 1.02006 0.98728 0.0
N272 N 0.28874 1.01409 0.25481 0.0
N273 N 0.23418 0.05915 0.90335 0.0
H274 H 0.30447 0.98866 0.89754 0.0
H275 H 0.27438 1.00858 0.83272 0.0
H276 H 0.21451 0.07645 0.90193 0.0
H277 H 0.24465 0.05734 0.83495 0.0
H278 H 0.28218 1.02601 0.32284 0.0
H279 H 0.30897 0.99815 0.25749 0.0
H280 H 0.23639 0.03313 0.32352 0.0
H281 H 0.20964 0.06184 0.26121 0.0
C282 C 0.24514 0.51974 0.51115 0.0
C283 C 0.22849 0.51366 0.42365 0.0
C284 C 0.26862 0.54709 0.32941 0.0
C285 C 0.28306 0.55816 0.41868 0.0
N286 N 0.2798 0.5644 0.59582 0.0
N287 N 0.22139 0.53194 0.25239 0.0
C288 C 0.26964 0.54742 0.51005 0.0
C289 C 0.23931 0.53034 0.33335 0.0
N290 N 0.23831 0.49799 0.5946 0.0
N291 N 0.28316 0.55058 0.24118 0.0
H292 H 0.19926 0.5221 0.25308 0.0
H293 H 0.22756 0.54726 0.18784 0.0
H294 H 0.30513 0.56074 0.23482 0.0
H295 H 0.27439 0.53916 0.17554 0.0
H296 H 0.2515 0.49889 0.6576 0.0
H297 H 0.22156 0.47556 0.59707 0.0
H298 H 0.26907 0.56008 0.66332 0.0
H299 H 0.29682 0.58646 0.59763 0.0
C300 C 0.74608 0.03325 0.02246 0.0
C301 C 0.73336 0.05098 0.9368 0.0
C302 C 0.77663 1.02822 0.83966 0.0
C303 C 0.78769 1.00677 0.92322 0.0
N304 N 0.77964 0.98154 0.08842 0.0
N305 N 0.73345 0.05773 0.75952 0.0
C306 C 0.77136 1.00706 1.01296 0.0
C307 C 0.74774 0.04633 0.84398 0.0
N308 N 0.73458 0.04252 0.1133 0.0
N309 N 0.7941 0.03295 0.75769 0.0
H310 H 0.71214 0.07064 0.75908 0.0
H311 H 0.74163 0.05086 0.68941 0.0
H312 H 0.81554 1.0207 0.75163 0.0
H313 H 0.78832 0.05216 0.69911 0.0
H314 H 0.74475 0.03373 0.17888 0.0
H315 H 0.71653 0.06254 0.12337 0.0
H316 H 0.7669 0.97752 0.15205 0.0
H317 H 0.79769 0.96119 0.08316 0.0
C318 C 0.77571 0.51542 0.6497 0.0
C319 C 0.78506 0.53914 0.56706 0.0
C320 C 0.74046 0.5176 0.47666 0.0
C321 C 0.72944 0.49828 0.56328 0.0
N322 N 0.73484 0.48182 0.73556 0.0
N323 N 0.77553 0.56641 0.40496 0.0
C324 C 0.74669 0.49771 0.65061 0.0
C325 C 0.76729 0.54102 0.48099 0.0
N326 N 0.79486 0.50903 0.7263 0.0
N327 N 0.72534 0.51302 0.39012 0.0
H328 H 0.79508 0.58392 0.40551 0.0
H329 H 0.762 0.57267 0.3447 0.0
H330 H 0.70565 0.49594 0.38487 0.0
H331 H 0.73354 0.52289 0.32222 0.0
H332 H 0.79062 0.48833 0.7835 0.0
H333 H 0.81618 0.52185 0.72887 0.0
H334 H 0.74475 0.48517 0.80431 0.0
H335 H 0.714 0.46751 0.73869 0.0
C336 C 0.98979 0.04845 0.93772 0.0
C337 C 0.98702 1.00676 0.97138 0.0
C338 C 0.02593 1.01951 0.09402 0.0
C339 C 0.03054 0.05978 0.05508 0.0
N340 N 0.01833 0.11254 0.93623 0.0
N341 N 1.00606 0.9505 0.07096 0.0
C342 C 0.01263 0.07449 0.97661 0.0
C343 C 1.00629 0.99157 0.04587 0.0
N344 N 0.97085 0.06283 0.86687 0.0
N345 N 0.0393 1.00875 0.1806 0.0
H346 H 0.99152 0.92891 0.04085 0.0
H347 H 0.02199 0.937 0.11637 0.0
H348 H 0.05256 1.0294 0.22015 0.0
H349 H 0.03456 0.98155 0.21893 0.0
H350 H 0.96841 0.09399 0.84859 0.0
H351 H 0.95675 0.04339 0.82719 0.0
H352 H 1.00785 0.1239 0.87374 0.0
H353 H 0.03461 0.13262 0.96275 0.0
C354 C 0.50788 0.99654 0.98316 0.0
C355 C 0.48882 1.01158 0.05895 0.0
C356 C 0.51372 0.07965 0.05321 0.0
C357 C 0.53273 0.06464 0.97698 0.0
N358 N 0.5438 1.01278 0.85449 0.0
N359 N 0.47774 0.06324 0.18162 0.0
C360 C 0.52878 1.02402 0.93838 0.0
C361 C 0.49273 0.05217 0.09759 0.0
N362 N 0.50654 0.95579 0.95529 0.0
N363 N 0.51533 0.12021 0.08254 0.0
H364 H 0.46361 0.04288 0.21888 0.0
H365 H 0.48149 0.09053 0.22063 0.0
H366 H 0.53082 0.14124 0.05506 0.0
H367 H 0.49984 0.13431 0.12903 0.0
H368 H 0.52215 0.94163 0.90934 0.0
H369 H 0.49093 0.93495 0.98299 0.0
H370 H 0.53987 0.98546 0.81572 0.0
H371 H 0.55823 0.03285 0.81738 0.0
C372 C 0.01123 0.48886 0.57262 0.0
C373 C 0.03024 0.5029 0.49557 0.0
C374 C 1.00418 0.5701 0.49295 0.0
C375 C 0.98402 0.55544 0.56607 0.0
N376 N 0.96838 0.50205 0.67914 0.0
N377 N 0.0406 0.5524 0.36744 0.0
C378 C 0.98752 0.51496 0.6065 0.0
C379 C 0.02569 0.54243 0.45223 0.0
N380 N 0.01642 0.45108 0.61506 0.0
N381 N 1.00291 0.6104 0.46174 0.0
H382 H 0.05524 0.53195 0.33263 0.0
H383 H 0.03609 0.57864 0.32542 0.0
H384 H 0.98686 0.63155 0.48514 0.0
H385 H 0.01932 0.62409 0.41811 0.0
H386 H 1.00433 0.43904 0.67379 0.0
H387 H 0.03361 0.43138 0.59303 0.0
H388 H 0.967 0.47189 0.70571 0.0
H389 H 0.95326 0.52196 0.71378 0.0
C390 C 0.48524 0.51748 0.43449 0.0
C391 C 0.48311 0.55972 0.46503 0.0
C392 C 0.52257 0.54781 0.58651 0.0
C393 C 0.52633 0.50672 0.55126 0.0
N394 N 0.51131 0.45138 0.44233 0.0
N395 N 0.50326 0.61687 0.5595 0.0
C396 C 0.5074 0.49103 0.47623 0.0
C397 C 0.50293 0.57548 0.53739 0.0
N398 N 0.46623 0.50297 0.36388 0.0
N399 N 0.53655 0.55955 0.67134 0.0
H400 H 0.48898 0.63842 0.52805 0.0
H401 H 0.51953 0.63068 0.60308 0.0
H402 H 0.54956 0.53909 0.71211 0.0
H403 H 0.53245 0.58749 0.70763 0.0
H404 H 0.4633 0.47179 0.34667 0.0
H405 H 0.4528 0.52254 0.32212 0.0
H406 H 0.50066 0.43902 0.38113 0.0
H407 H 0.52645 0.43064 0.4726 0.0
C408 C 0.07269 0.12726 0.66579 0.0
C409 C 0.10015 0.12788 0.71703 0.0
C410 C 0.12656 0.10801 0.56582 0.0
C411 C 0.09881 0.10342 0.51726 0.0
N412 N 0.04536 0.10378 0.52191 0.0
N413 N 0.15294 0.11584 0.72064 0.0
C414 C 0.0718 0.11186 0.56751 0.0
C415 C 0.12703 0.11719 0.66834 0.0
N416 N 0.04763 0.14215 0.71091 0.0
N417 N 0.15241 0.10544 0.51253 0.0
H418 H 0.15408 0.12437 0.79469 0.0
H419 H 0.17284 0.10393 0.69271 0.0
H420 H 0.15273 0.09998 0.43682 0.0
H421 H 0.17332 0.11227 0.54111 0.0
H422 H 0.02737 0.14625 0.67521 0.0
H423 H 0.0478 0.15347 0.7828 0.0
H424 H 0.02474 0.10531 0.55724 0.0
H425 H 0.04426 0.09244 0.44999 0.0
C426 C 0.4459 0.97431 0.57359 0.0
C427 C 0.42001 0.96629 0.51773 0.0
C428 C 0.39601 0.93398 0.66109 0.0
C429 C 0.42135 0.94372 0.71818 0.0
N430 N 0.4689 0.97696 0.73525 0.0
N431 N 0.36901 0.94406 0.50824 0.0
C432 C 0.44593 0.96503 0.67609 0.0
C433 C 0.39464 0.94755 0.56153 0.0
N434 N 0.47048 0.99022 0.52749 0.0
N435 N 0.37354 0.91122 0.70246 0.0
H436 H 0.36749 0.95395 0.43535 0.0
H437 H 0.34877 0.93414 0.53753 0.0
H438 H 0.37373 0.90222 0.77628 0.0
H439 H 0.35564 0.89928 0.66308 0.0
H440 H 0.49114 0.99369 0.561 0.0
H441 H 0.47059 0.99782 0.45276 0.0
H442 H 0.4865 0.99566 0.71232 0.0
H443 H 0.46923 0.97018 0.8102 0.0
C444 C 0.0716 0.43567 0.88634 0.0
C445 C 0.09872 0.43068 0.83353 0.0
C446 C 0.12699 0.44685 0.9829 0.0
C447 C 0.09987 0.45498 0.03325 0.0
N448 N 0.04669 0.46258 0.03244 0.0
N449 N 0.15215 0.4343 0.82667 0.0
C450 C 0.07222 0.45078 0.98478 0.0
C451 C 0.12644 0.43728 0.8805 0.0
N452 N 0.04535 0.42519 0.84252 0.0
N453 N 0.15307 0.44669 0.03448 0.0
H454 H 0.15238 0.42526 0.75285 0.0
H455 H 0.17299 0.4429 0.85309 0.0
H456 H 0.15393 0.45292 0.10985 0.0
H457 H 0.17345 0.43739 1.00497 0.0
H458 H 0.02496 0.42423 0.87928 0.0
H459 H 0.04436 0.4144 0.77034 0.0
H460 H 0.02595 0.46431 0.9987 0.0
H461 H 0.04669 0.47371 0.10467 0.0
C462 C 0.39101 0.63369 0.96396 0.0
C463 C 0.41418 0.60947 1.0051 0.0
C464 C 0.43917 0.60572 0.84419 0.0
C465 C 0.4169 0.63195 0.80446 0.0
N466 N 0.37325 0.67413 0.82471 0.0
N467 N 0.46154 0.5754 0.99045 0.0
C468 C 0.39322 0.64684 0.86404 0.0
C469 C 0.43862 0.59621 0.94665 0.0
N470 N 0.36656 0.64293 0.02022 0.0
N471 N 0.46045 0.58953 0.78295 0.0
H472 H 0.46139 0.56803 0.06529 0.0
H473 H 0.48138 0.56766 0.95497 0.0
H474 H 0.46138 0.59659 0.70807 0.0
H475 H 0.476 0.56736 0.80417 0.0
H476 H 0.34749 0.65726 0.99321 0.0
H477 H 0.36459 0.63383 0.0937 0.0
H478 H 0.35696 0.68952 0.86554 0.0
H479 H 0.3741 0.68318 0.75095 0.0
C480 C 0.9431 0.96064 0.34698 0.0
C481 C 0.92156 0.93278 0.30894 0.0
C482 C 0.89665 0.93003 0.4701 0.0
C483 C 0.91913 0.95604 0.50937 0.0
N484 N 0.96523 0.99293 0.49138 0.0
N485 N 0.87948 0.88797 0.33255 0.0
C486 C 0.94277 0.97056 0.44926 0.0
C487 C 0.89879 0.91656 0.3703 0.0
N488 N 0.96354 0.97787 0.28441 0.0
N489 N 0.87281 0.91952 0.52789 0.0
H490 H 0.88004 0.87892 0.25873 0.0
H491 H 0.86402 0.87162 0.37465 0.0
H492 H 0.87082 0.92903 0.60112 0.0
H493 H 0.85416 0.90372 0.50235 0.0
H494 H 0.9783 1.00129 0.30428 0.0
H495 H 0.96453 0.97025 0.20988 0.0
H496 H 0.98463 1.00169 0.45463 0.0
H497 H 0.96526 1.00057 0.56611 0.0
C498 C 0.58624 0.08043 0.45655 0.0
C499 C 0.58783 0.11305 0.52615 0.0
C500 C 0.5844 0.16254 0.3901 0.0
C501 C 0.59139 0.13042 0.32274 0.0
N502 N 0.60325 0.0578 0.2968 0.0
N503 N 0.59061 0.18732 0.55586 0.0
C504 C 0.59285 0.08878 0.35644 0.0
C505 C 0.58686 0.15488 0.49258 0.0
N506 N 0.57976 0.04122 0.48765 0.0
N507 N 0.57567 0.2004 0.35576 0.0
H508 H 0.59319 0.18379 0.63105 0.0
H509 H 0.59352 0.21782 0.53214 0.0
H510 H 0.57284 0.20615 0.28072 0.0
H511 H 0.56809 0.22412 0.40183 0.0
H512 H 0.57636 1.01656 0.43915 0.0
H513 H 0.57465 0.03488 0.56128 0.0
H514 H 0.60696 1.02769 0.32195 0.0
H515 H 0.61153 0.06293 0.22615 0.0
C516 C 0.92206 0.57943 0.1788 0.0
C517 C 0.92485 0.621 0.21199 0.0
C518 C 0.93063 0.64461 0.04164 0.0
C519 C 0.92788 0.60274 1.00833 0.0
N520 N 0.93325 0.53055 0.04805 0.0
N521 N 0.94245 0.68992 0.17887 0.0
C522 C 0.92811 0.57028 0.07853 0.0
C523 C 0.93279 0.65247 0.14437 0.0
N524 N 0.91115 0.54931 0.23971 0.0
N525 N 0.92925 0.67719 0.9778 0.0
H526 H 0.94489 0.69583 0.25403 0.0
H527 H 0.95106 0.71304 0.13328 0.0
H528 H 0.92878 0.6741 0.90205 0.0
H529 H 0.92693 0.70789 1.001 0.0
H530 H 0.90627 0.51939 0.21536 0.0
H531 H 0.90385 0.55516 0.31124 0.0
H532 H 0.93575 0.50584 0.09684 0.0
H533 H 0.93824 0.52359 0.97462 0.0
C534 C 0.61892 0.42697 0.15243 0.0
C535 C 0.59462 0.43949 0.21219 0.0
C536 C 0.57067 0.47216 0.07008 0.0
C537 C 0.59564 0.46141 1.01151 0.0
N538 N 0.6456 0.43515 0.99759 0.0
N539 N 0.54969 0.47904 0.23439 0.0
C540 C 0.62037 0.44048 0.05286 0.0
C541 C 0.57113 0.46366 0.17277 0.0
N542 N 0.64041 0.40193 0.19139 0.0
N543 N 0.54633 0.48957 0.02638 0.0
H544 H 0.54992 0.4734 0.30982 0.0
H545 H 0.53321 0.49981 0.21277 0.0
H546 H 0.54566 0.4961 0.95113 0.0
H547 H 0.52617 0.49488 0.06255 0.0
H548 H 0.65722 0.38802 0.14981 0.0
H549 H 0.6404 0.3932 0.26539 0.0
H550 H 0.66547 0.42339 0.02521 0.0
H551 H 0.64734 0.44569 0.9252 0.0
C552 C 0.15316 0.25519 0.27849 0.0
C553 C 0.12615 0.23247 0.2678 0.0
C554 C 0.09812 0.29233 0.33483 0.0
C555 C 0.12518 0.31505 0.34549 0.0
N556 N 0.17719 0.32183 0.30334 0.0
N557 N 0.07209 0.23297 0.268 0.0
C558 C 0.15235 0.29742 0.31071 0.0
C559 C 0.09843 0.25225 0.28966 0.0
N560 N 0.17981 0.23651 0.25727 0.0
N561 N 0.07209 0.30762 0.37329 0.0
H562 H 0.07029 0.20239 0.24451 0.0
H563 H 0.05168 0.24836 0.26707 0.0
H564 H 0.06961 0.33743 0.40123 0.0
H565 H 0.05299 0.28975 0.38338 0.0
H566 H 0.20035 0.24874 0.27771 0.0
H567 H 0.18153 0.20779 0.22236 0.0
H568 H 0.19682 0.31258 0.26854 0.0
H569 H 0.17741 0.35306 0.32323 0.0
C570 C 0.42087 0.81448 0.28261 0.0
C571 C 0.39342 0.83454 0.25973 0.0
C572 C 0.36608 0.77244 0.31639 0.0
C573 C 0.39349 0.75211 0.33739 0.0
N574 N 0.44723 0.751 0.32146 0.0
N575 N 0.34063 0.82811 0.2309 0.0
C576 C 0.4209 0.77212 0.31367 0.0
C577 C 0.36624 0.81221 0.27005 0.0
N578 N 0.44696 0.83642 0.28131 0.0
N579 N 0.33967 0.75378 0.34056 0.0
H580 H 0.3399 0.85632 0.19362 0.0
H581 H 0.32075 0.81161 0.22606 0.0
H582 H 0.33813 0.72327 0.3653 0.0
H583 H 0.31929 0.76925 0.34072 0.0
H584 H 0.46673 0.8255 0.31175 0.0
H585 H 0.44885 0.8668 0.25664 0.0
H586 H 0.46722 0.76173 0.29164 0.0
H587 H 0.44913 0.7214 0.35118 0.0
C588 C 0.8675 0.79696 0.81265 0.0
C589 C 0.89546 0.81558 0.83404 0.0
C590 C 0.92091 0.75382 0.76544 0.0
C591 C 0.893 0.73321 0.75701 0.0
N592 N 0.83951 0.73468 0.77514 0.0
N593 N 0.94923 0.81043 0.83614 0.0
C594 C 0.86627 0.75476 0.78109 0.0
C595 C 0.92229 0.79398 0.81015 0.0
N596 N 0.84203 0.82021 0.81849 0.0
N597 N 0.94634 0.73479 0.73251 0.0
H598 H 0.9518 0.83994 0.86583 0.0
H599 H 0.96914 0.79385 0.83457 0.0
H600 H 0.94705 0.70429 0.70719 0.0
H601 H 0.96661 0.75011 0.72384 0.0
H602 H 0.8214 0.81017 0.7931 0.0
H603 H 0.84186 0.85121 0.84011 0.0
H604 H 0.8198 0.74618 0.80547 0.0
H605 H 0.83714 0.7054 0.74363 0.0
C606 C 0.65266 0.26363 0.76821 0.0
C607 C 0.62582 0.24122 0.78461 0.0
C608 C 0.59721 0.30592 0.76326 0.0
C609 C 0.62389 0.32766 0.73872 0.0
N610 N 0.67633 0.32422 0.69767 0.0
N611 N 0.57203 0.23975 0.77903 0.0
C612 C 0.65143 0.30569 0.73589 0.0
C613 C 0.59797 0.26204 0.77726 0.0
N614 N 0.67952 0.24529 0.78683 0.0
N615 N 0.57113 0.32713 0.77718 0.0
H616 H 0.57125 0.20775 0.78943 0.0
H617 H 0.55138 0.25235 0.76099 0.0
H618 H 0.56881 0.35881 0.76518 0.0
H619 H 0.55216 0.31383 0.80837 0.0
H620 H 0.69958 0.26154 0.78815 0.0
H621 H 0.68163 0.21465 0.80995 0.0
H622 H 0.69603 0.30823 0.68277 0.0
H623 H 0.6766 0.35452 0.67129 0.0
loop_
_geom_bond_atom_site_label_1
_geom_bond_atom_site_label_2
_geom_bond_distance
_geom_bond_site_symmetry_2
_ccdc_geom_bond_type
Co0 N4 2.148 1_554 S
Co0 N10 2.128 . S
Co0 N20 2.194 . S
Co0 O25 2.351 . S
Co0 O26 2.155 . S
Co0 O27 2.096 . S
C1 N4 1.301 . S
C1 N5 1.328 . S
C1 H6 0.930 . S
C2 C3 1.333 . S
C2 N4 1.317 . S
C2 H7 0.930 . S
C3 C2 1.333 . S
C3 N5 1.350 . S
C3 H29 0.931 . S
N4 Co0 2.148 1_556 S
N4 C1 1.301 . S
N4 C2 1.317 . S
N5 C1 1.328 . S
N5 C3 1.350 . S
H6 C1 0.930 . S
H7 C2 0.930 . S
C8 O9 1.224 . S
C8 O27 1.247 . S
O9 C8 1.224 . S
N10 Co0 2.128 . S
N10 C11 1.355 . S
N10 C13 1.311 . S
C11 N10 1.355 . S
C11 C12 1.363 . S
C11 H23 0.929 . S
C12 C11 1.363 . S
C12 N14 1.375 . S
C12 H30 0.931 . S
C13 N10 1.311 . S
C13 N14 1.347 . S
C13 H24 0.929 . S
N14 C12 1.375 . S
N14 C13 1.347 . S
C15 C18 1.365 . S
C15 N20 1.328 . S
C15 H21 0.929 . S
C16 C17 1.362 . S
C16 C19 1.378 . S
C16 H31 0.929 . S
C17 C16 1.362 . S
C17 C18 1.366 . S
C18 C15 1.365 . S
C18 C17 1.366 . S
C18 H32 0.930 1_545 S
C19 C16 1.378 . S
C19 N20 1.315 . S
C19 H22 0.930 . S
N20 Co0 2.194 . S
N20 C15 1.328 . S
N20 C19 1.315 . S
H21 C15 0.929 . S
H22 C19 0.930 . S
H23 C11 0.929 . S
H24 C13 0.929 . S
O25 Co0 2.351 . S
O25 C28 1.244 . S
O26 Co0 2.155 . S
O26 C28 1.240 . S
O27 Co0 2.096 . S
O27 C8 1.247 . S
C28 O25 1.244 . S
C28 O26 1.240 . S
H29 C3 0.931 . S
H30 C12 0.931 . S
H31 C16 0.929 . S
H32 C18 0.930 1_565 S
Co33 N37 2.148 1_554 S
Co33 N43 2.128 . S
Co33 N53 2.194 . S
Co33 O58 2.351 . S
Co33 O59 2.155 . S
Co33 O60 2.096 . S
C34 N37 1.301 . S
C34 N38 1.328 . S
C34 H39 0.930 . S
C35 C36 1.333 . S
C35 N37 1.317 . S
C35 H40 0.930 . S
C36 C35 1.333 . S
C36 N38 1.350 . S
C36 H62 0.931 . S
N37 Co33 2.148 1_556 S
N37 C34 1.301 . S
N37 C35 1.317 . S
N38 C34 1.328 . S
N38 C36 1.350 . S
H39 C34 0.930 . S
H40 C35 0.930 . S
C41 O42 1.224 . S
C41 O60 1.247 . S
O42 C41 1.224 . S
N43 Co33 2.128 . S
N43 C44 1.355 . S
N43 C46 1.311 . S
C44 N43 1.355 . S
C44 C45 1.363 . S
C44 H56 0.929 . S
C45 C44 1.363 . S
C45 N47 1.375 . S
C45 H63 0.931 . S
C46 N43 1.311 . S
C46 N47 1.347 . S
C46 H57 0.929 . S
N47 C45 1.375 . S
N47 C46 1.347 . S
C48 C51 1.365 . S
C48 N53 1.328 . S
C48 H54 0.929 . S
C49 C50 1.362 . S
C49 C52 1.378 . S
C49 H64 0.929 . S
C50 C49 1.362 . S
C50 C51 1.366 . S
C51 C48 1.365 . S
C51 C50 1.366 . S
C51 H65 0.930 1_565 S
C52 C49 1.378 . S
C52 N53 1.315 . S
C52 H55 0.930 . S
N53 Co33 2.194 . S
N53 C48 1.328 . S
N53 C52 1.315 . S
H54 C48 0.929 . S
H55 C52 0.930 . S
H56 C44 0.929 . S
H57 C46 0.929 . S
O58 Co33 2.351 . S
O58 C61 1.244 . S
O59 Co33 2.155 . S
O59 C61 1.240 . S
O60 Co33 2.096 . S
O60 C41 1.247 . S
C61 O58 1.244 . S
C61 O59 1.240 . S
H62 C36 0.931 . S
H63 C45 0.931 . S
H64 C49 0.929 . S
H65 C51 0.930 1_545 S
Co66 N70 2.148 . S
Co66 N76 2.128 . S
Co66 N86 2.194 . S
Co66 O91 2.351 . S
Co66 O92 2.155 . S
Co66 O93 2.096 . S
C67 N70 1.301 . S
C67 N71 1.328 . S
C67 H72 0.930 . S
C68 C69 1.333 . S
C68 N70 1.317 . S
C68 H73 0.930 . S
C69 C68 1.333 . S
C69 N71 1.350 . S
C69 H95 0.931 . S
N70 Co66 2.148 . S
N70 C67 1.301 . S
N70 C68 1.317 . S
N71 C67 1.328 . S
N71 C69 1.350 . S
H72 C67 0.930 . S
H73 C68 0.930 . S
C74 O75 1.224 . S
C74 O93 1.247 . S
O75 C74 1.224 . S
N76 Co66 2.128 . S
N76 C77 1.355 . S
N76 C79 1.311 . S
C77 N76 1.355 . S
C77 C78 1.363 . S
C77 H89 0.929 . S
C78 C77 1.363 . S
C78 N80 1.375 . S
C78 H96 0.931 . S
C79 N76 1.311 . S
C79 N80 1.347 . S
C79 H90 0.929 . S
N80 C78 1.375 . S
N80 C79 1.347 . S
C81 C84 1.365 . S
C81 N86 1.328 . S
C81 H87 0.929 . S
C82 C83 1.362 . S
C82 C85 1.378 . S
C82 H97 0.929 . S
C83 C82 1.362 . S
C83 C84 1.366 . S
C84 C81 1.365 . S
C84 C83 1.366 . S
C84 H98 0.930 . S
C85 C82 1.378 . S
C85 N86 1.315 . S
C85 H88 0.930 . S
N86 Co66 2.194 . S
N86 C81 1.328 . S
N86 C85 1.315 . S
H87 C81 0.929 . S
H88 C85 0.930 . S
H89 C77 0.929 . S
H90 C79 0.929 . S
O91 Co66 2.351 . S
O91 C94 1.244 . S
O92 Co66 2.155 . S
O92 C94 1.240 . S
O93 Co66 2.096 . S
O93 C74 1.247 . S
C94 O91 1.244 . S
C94 O92 1.240 . S
H95 C69 0.931 . S
H96 C78 0.931 . S
H97 C82 0.929 . S
H98 C84 0.930 . S
Co99 N103 2.148 . S
Co99 N109 2.128 . S
Co99 N119 2.194 . S
Co99 O124 2.351 . S
Co99 O125 2.155 . S
Co99 O126 2.096 . S
C100 N103 1.301 . S
C100 N104 1.328 . S
C100 H105 0.930 . S
C101 C102 1.333 . S
C101 N103 1.317 . S
C101 H106 0.930 . S
C102 C101 1.333 . S
C102 N104 1.350 . S
C102 H128 0.931 . S
N103 Co99 2.148 . S
N103 C100 1.301 . S
N103 C101 1.317 . S
N104 C100 1.328 . S
N104 C102 1.350 . S
H105 C100 0.930 . S
H106 C101 0.930 . S
C107 O108 1.224 . S
C107 O126 1.247 . S
O108 C107 1.224 . S
N109 Co99 2.128 . S
N109 C110 1.355 . S
N109 C112 1.311 . S
C110 N109 1.355 . S
C110 C111 1.363 . S
C110 H122 0.929 . S
C111 C110 1.363 . S
C111 N113 1.375 . S
C111 H129 0.931 . S
C112 N109 1.311 . S
C112 N113 1.347 . S
C112 H123 0.929 . S
N113 C111 1.375 . S
N113 C112 1.347 . S
C114 C117 1.365 . S
C114 N119 1.328 . S
C114 H120 0.929 . S
C115 C116 1.362 . S
C115 C118 1.378 . S
C115 H130 0.929 . S
C116 C115 1.362 . S
C116 C117 1.366 . S
C117 C114 1.365 . S
C117 C116 1.366 . S
C117 H131 0.930 . S
C118 C115 1.378 . S
C118 N119 1.315 . S
C118 H121 0.930 . S
N119 Co99 2.194 . S
N119 C114 1.328 . S
N119 C118 1.315 . S
H120 C114 0.929 . S
H121 C118 0.930 . S
H122 C110 0.929 . S
H123 C112 0.929 . S
O124 Co99 2.351 . S
O124 C127 1.244 . S
O125 Co99 2.155 . S
O125 C127 1.240 . S
O126 Co99 2.096 . S
O126 C107 1.247 . S
C127 O124 1.244 . S
C127 O125 1.240 . S
H128 C102 0.931 . S
H129 C111 0.931 . S
H130 C115 0.929 . S
H131 C117 0.930 . S
Co132 N136 2.148 1_556 S
Co132 N142 2.128 . S
Co132 N152 2.194 . S
Co132 O157 2.351 . S
Co132 O158 2.155 . S
Co132 O159 2.096 . S
C133 N136 1.301 . S
C133 N137 1.328 . S
C133 H138 0.930 . S
C134 C135 1.333 . S
C134 N136 1.317 . S
C134 H139 0.930 . S
C135 C134 1.333 . S
C135 N137 1.350 . S
C135 H161 0.931 . S
N136 Co132 2.148 1_554 S
N136 C133 1.301 . S
N136 C134 1.317 . S
N137 C133 1.328 . S
N137 C135 1.350 . S
H138 C133 0.930 . S
H139 C134 0.930 . S
C140 O141 1.224 . S
C140 O159 1.247 . S
O141 C140 1.224 . S
N142 Co132 2.128 . S
N142 C143 1.355 . S
N142 C145 1.311 . S
C143 N142 1.355 . S
C143 C144 1.363 . S
C143 H155 0.929 . S
C144 C143 1.363 . S
C144 N146 1.375 . S
C144 H162 0.931 . S
C145 N142 1.311 . S
C145 N146 1.347 . S
C145 H156 0.929 . S
N146 C144 1.375 . S
N146 C145 1.347 . S
C147 C150 1.365 . S
C147 N152 1.328 . S
C147 H153 0.929 . S
C148 C149 1.362 . S
C148 C151 1.378 . S
C148 H163 0.929 . S
C149 C148 1.362 . S
C149 C150 1.366 . S
C150 C147 1.365 . S
C150 C149 1.366 . S
C150 H164 0.930 1_565 S
C151 C148 1.378 . S
C151 N152 1.315 . S
C151 H154 0.930 . S
N152 Co132 2.194 . S
N152 C147 1.328 . S
N152 C151 1.315 . S
H153 C147 0.929 . S
H154 C151 0.930 . S
H155 C143 0.929 . S
H156 C145 0.929 . S
O157 Co132 2.351 . S
O157 C160 1.244 . S
O158 Co132 2.155 . S
O158 C160 1.240 . S
O159 Co132 2.096 . S
O159 C140 1.247 . S
C160 O157 1.244 . S
C160 O158 1.240 . S
H161 C135 0.931 . S
H162 C144 0.931 . S
H163 C148 0.929 . S
H164 C150 0.930 1_545 S
Co165 N169 2.148 1_556 S
Co165 N175 2.128 . S
Co165 N185 2.194 . S
Co165 O190 2.351 . S
Co165 O191 2.155 . S
Co165 O192 2.096 . S
C166 N169 1.301 . S
C166 N170 1.328 . S
C166 H171 0.930 . S
C167 C168 1.333 . S
C167 N169 1.317 . S
C167 H172 0.930 . S
C168 C167 1.333 . S
C168 N170 1.350 . S
C168 H194 0.931 . S
N169 Co165 2.148 1_554 S
N169 C166 1.301 . S
N169 C167 1.317 . S
N170 C166 1.328 . S
N170 C168 1.350 . S
H171 C166 0.930 . S
H172 C167 0.930 . S
C173 O174 1.224 . S
C173 O192 1.247 . S
O174 C173 1.224 . S
N175 Co165 2.128 . S
N175 C176 1.355 . S
N175 C178 1.311 . S
C176 N175 1.355 . S
C176 C177 1.363 . S
C176 H188 0.929 . S
C177 C176 1.363 . S
C177 N179 1.375 . S
C177 H195 0.931 . S
C178 N175 1.311 . S
C178 N179 1.347 . S
C178 H189 0.929 . S
N179 C177 1.375 . S
N179 C178 1.347 . S
C180 C183 1.365 . S
C180 N185 1.328 . S
C180 H186 0.929 . S
C181 C182 1.362 . S
C181 C184 1.378 . S
C181 H196 0.929 . S
C182 C181 1.362 . S
C182 C183 1.366 . S
C183 C180 1.365 . S
C183 C182 1.366 . S
C183 H197 0.930 1_545 S
C184 C181 1.378 . S
C184 N185 1.315 . S
C184 H187 0.930 . S
N185 Co165 2.194 . S
N185 C180 1.328 . S
N185 C184 1.315 . S
H186 C180 0.929 . S
H187 C184 0.930 . S
H188 C176 0.929 . S
H189 C178 0.929 . S
O190 Co165 2.351 . S
O190 C193 1.244 . S
O191 Co165 2.155 . S
O191 C193 1.240 . S
O192 Co165 2.096 . S
O192 C173 1.247 . S
C193 O190 1.244 . S
C193 O191 1.240 . S
H194 C168 0.931 . S
H195 C177 0.931 . S
H196 C181 0.929 . S
H197 C183 0.930 1_565 S
Co198 N202 2.148 . S
Co198 N208 2.128 . S
Co198 N218 2.194 . S
Co198 O223 2.351 . S
Co198 O224 2.155 . S
Co198 O225 2.096 . S
C199 N202 1.301 . S
C199 N203 1.328 . S
C199 H204 0.930 . S
C200 C201 1.333 . S
C200 N202 1.317 . S
C200 H205 0.930 . S
C201 C200 1.333 . S
C201 N203 1.350 . S
C201 H227 0.931 . S
N202 Co198 2.148 . S
N202 C199 1.301 . S
N202 C200 1.317 . S
N203 C199 1.328 . S
N203 C201 1.350 . S
H204 C199 0.930 . S
H205 C200 0.930 . S
C206 O207 1.224 . S
C206 O225 1.247 . S
O207 C206 1.224 . S
N208 Co198 2.128 . S
N208 C209 1.355 . S
N208 C211 1.311 . S
C209 N208 1.355 . S
C209 C210 1.363 . S
C209 H221 0.929 . S
C210 C209 1.363 . S
C210 N212 1.375 . S
C210 H228 0.931 . S
C211 N208 1.311 . S
C211 N212 1.347 . S
C211 H222 0.929 . S
N212 C210 1.375 . S
N212 C211 1.347 . S
C213 C216 1.365 . S
C213 N218 1.328 . S
C213 H219 0.929 . S
C214 C215 1.362 . S
C214 C217 1.378 . S
C214 H229 0.929 . S
C215 C214 1.362 . S
C215 C216 1.366 . S
C216 C213 1.365 . S
C216 C215 1.366 . S
C216 H230 0.930 . S
C217 C214 1.378 . S
C217 N218 1.315 . S
C217 H220 0.930 . S
N218 Co198 2.194 . S
N218 C213 1.328 . S
N218 C217 1.315 . S
H219 C213 0.929 . S
H220 C217 0.930 . S
H221 C209 0.929 . S
H222 C211 0.929 . S
O223 Co198 2.351 . S
O223 C226 1.244 . S
O224 Co198 2.155 . S
O224 C226 1.240 . S
O225 Co198 2.096 . S
O225 C206 1.247 . S
C226 O223 1.244 . S
C226 O224 1.240 . S
H227 C201 0.931 . S
H228 C210 0.931 . S
H229 C214 0.929 . S
H230 C216 0.930 . S
Co231 N235 2.148 . S
Co231 N241 2.128 . S
Co231 N251 2.194 . S
Co231 O256 2.351 . S
Co231 O257 2.155 . S
Co231 O258 2.096 . S
C232 N235 1.301 . S
C232 N236 1.328 . S
C232 H237 0.930 . S
C233 C234 1.333 . S
C233 N235 1.317 . S
C233 H238 0.930 . S
C234 C233 1.333 . S
C234 N236 1.350 . S
C234 H260 0.931 . S
N235 Co231 2.148 . S
N235 C232 1.301 . S
N235 C233 1.317 . S
N236 C232 1.328 . S
N236 C234 1.350 . S
H237 C232 0.930 . S
H238 C233 0.930 . S
C239 O240 1.224 . S
C239 O258 1.247 . S
O240 C239 1.224 . S
N241 Co231 2.128 . S
N241 C242 1.355 . S
N241 C244 1.311 . S
C242 N241 1.355 . S
C242 C243 1.363 . S
C242 H254 0.929 . S
C243 C242 1.363 . S
C243 N245 1.375 . S
C243 H261 0.931 . S
C244 N241 1.311 . S
C244 N245 1.347 . S
C244 H255 0.929 . S
N245 C243 1.375 . S
N245 C244 1.347 . S
C246 C249 1.365 . S
C246 N251 1.328 . S
C246 H252 0.929 . S
C247 C248 1.362 . S
C247 C250 1.378 . S
C247 H262 0.929 . S
C248 C247 1.362 . S
C248 C249 1.366 . S
C249 C246 1.365 . S
C249 C248 1.366 . S
C249 H263 0.930 . S
C250 C247 1.378 . S
C250 N251 1.315 . S
C250 H253 0.930 . S
N251 Co231 2.194 . S
N251 C246 1.328 . S
N251 C250 1.315 . S
H252 C246 0.929 . S
H253 C250 0.930 . S
H254 C242 0.929 . S
H255 C244 0.929 . S
O256 Co231 2.351 . S
O256 C259 1.244 . S
O257 Co231 2.155 . S
O257 C259 1.240 . S
O258 Co231 2.096 . S
O258 C239 1.247 . S
C259 O256 1.244 . S
C259 O257 1.240 . S
H260 C234 0.931 . S
H261 C243 0.931 . S
H262 C247 0.929 . S
H263 C249 0.930 . S
C264 C265 1.363 . S
C264 C270 1.379 . S
C264 N272 1.356 . S
C265 C264 1.363 . S
C265 C271 1.363 1_565 S
C266 C267 1.363 . S
C266 C271 1.379 . S
C266 N273 1.356 1_554 S
C267 C266 1.363 . S
C267 C270 1.363 1_545 S
N268 C270 1.356 . S
N268 H280 0.984 . S
N268 H281 0.985 . S
N269 C271 1.356 1_556 S
N269 H274 0.984 1_556 S
N269 H275 0.985 . S
C270 C264 1.379 . S
C270 C267 1.363 1_565 S
C270 N268 1.356 . S
C271 C265 1.363 1_545 S
C271 C266 1.379 . S
C271 N269 1.356 1_554 S
N272 C264 1.356 . S
N272 H278 0.984 . S
N272 H279 0.984 . S
N273 C266 1.356 1_556 S
N273 H276 0.984 1_556 S
N273 H277 0.985 . S
H274 N269 0.984 1_554 S
H275 N269 0.985 . S
H276 N273 0.984 1_554 S
H277 N273 0.985 . S
H278 N272 0.984 . S
H279 N272 0.984 . S
H280 N268 0.984 . S
H281 N268 0.985 . S
C282 C283 1.363 . S
C282 C288 1.379 . S
C282 N290 1.356 . S
C283 C282 1.363 . S
C283 C289 1.363 . S
C284 C285 1.363 . S
C284 C289 1.379 . S
C284 N291 1.356 . S
C285 C284 1.363 . S
C285 C288 1.363 . S
N286 C288 1.356 . S
N286 H298 0.984 . S
N286 H299 0.985 . S
N287 C289 1.356 . S
N287 H292 0.984 . S
N287 H293 0.985 . S
C288 C282 1.379 . S
C288 C285 1.363 . S
C288 N286 1.356 . S
C289 C283 1.363 . S
C289 C284 1.379 . S
C289 N287 1.356 . S
N290 C282 1.356 . S
N290 H296 0.984 . S
N290 H297 0.984 . S
N291 C284 1.356 . S
N291 H294 0.984 . S
N291 H295 0.985 . S
H292 N287 0.984 . S
H293 N287 0.985 . S
H294 N291 0.984 . S
H295 N291 0.985 . S
H296 N290 0.984 . S
H297 N290 0.984 . S
H298 N286 0.984 . S
H299 N286 0.985 . S
C300 C301 1.363 . S
C300 C306 1.379 . S
C300 N308 1.356 1_556 S
C301 C300 1.363 . S
C301 C307 1.363 1_545 S
C302 C303 1.363 . S
C302 C307 1.379 . S
C302 N309 1.356 . S
C303 C302 1.363 . S
C303 C306 1.363 1_565 S
N304 C306 1.356 1_554 S
N304 H316 0.984 . S
N304 H317 0.985 1_554 S
N305 C307 1.356 . S
N305 H310 0.984 . S
N305 H311 0.985 . S
C306 C300 1.379 . S
C306 C303 1.363 1_545 S
C306 N304 1.356 1_556 S
C307 C301 1.363 1_565 S
C307 C302 1.379 . S
C307 N305 1.356 . S
N308 C300 1.356 1_554 S
N308 H314 0.984 . S
N308 H315 0.984 1_554 S
N309 C302 1.356 . S
N309 H312 0.984 . S
N309 H313 0.985 . S
H310 N305 0.984 . S
H311 N305 0.985 . S
H312 N309 0.984 . S
H313 N309 0.985 . S
H314 N308 0.984 . S
H315 N308 0.984 1_556 S
H316 N304 0.984 . S
H317 N304 0.985 1_556 S
C318 C319 1.363 . S
C318 C324 1.379 . S
C318 N326 1.356 . S
C319 C318 1.363 . S
C319 C325 1.363 . S
C320 C321 1.363 . S
C320 C325 1.379 . S
C320 N327 1.356 . S
C321 C320 1.363 . S
C321 C324 1.363 . S
N322 C324 1.356 . S
N322 H334 0.984 . S
N322 H335 0.985 . S
N323 C325 1.356 . S
N323 H328 0.984 . S
N323 H329 0.985 . S
C324 C318 1.379 . S
C324 C321 1.363 . S
C324 N322 1.356 . S
C325 C319 1.363 . S
C325 C320 1.379 . S
C325 N323 1.356 . S
N326 C318 1.356 . S
N326 H332 0.984 . S
N326 H333 0.984 . S
N327 C320 1.356 . S
N327 H330 0.984 . S
N327 H331 0.985 . S
H328 N323 0.984 . S
H329 N323 0.985 . S
H330 N327 0.984 . S
H331 N327 0.985 . S
H332 N326 0.984 . S
H333 N326 0.984 . S
H334 N322 0.984 . S
H335 N322 0.985 . S
C336 C337 1.363 1_545 S
C336 C342 1.379 1_655 S
C336 N344 1.355 1_545 S
C337 C336 1.363 1_565 S
C337 C343 1.363 1_556 S
C338 C339 1.363 1_565 S
C338 C343 1.379 1_455 S
C338 N345 1.355 1_565 S
C339 C338 1.363 1_545 S
C339 C342 1.363 1_554 S
N340 C342 1.356 . S
N340 H352 0.984 . S
N340 H353 0.985 . S
N341 C343 1.356 . S
N341 H346 0.984 . S
N341 H347 0.985 . S
C342 C336 1.379 1_455 S
C342 C339 1.363 1_556 S
C342 N340 1.356 . S
C343 C337 1.363 1_554 S
C343 C338 1.379 1_655 S
C343 N341 1.356 . S
N344 C336 1.355 1_565 S
N344 H350 0.978 1_565 S
N344 H351 0.992 . S
N345 C338 1.355 1_545 S
N345 H348 0.992 . S
N345 H349 0.978 1_545 S
H346 N341 0.984 . S
H347 N341 0.985 . S
H348 N345 0.992 . S
H349 N345 0.978 1_565 S
H350 N344 0.978 1_545 S
H351 N344 0.992 . S
H352 N340 0.984 . S
H353 N340 0.985 . S
C354 C355 1.363 1_556 S
C354 C360 1.379 . S
C354 N362 1.356 . S
C355 C354 1.363 1_554 S
C355 C361 1.363 1_565 S
C356 C357 1.363 1_554 S
C356 C361 1.379 . S
C356 N363 1.356 . S
C357 C356 1.363 1_556 S
C357 C360 1.363 1_545 S
N358 C360 1.356 . S
N358 H370 0.984 . S
N358 H371 0.985 1_565 S
N359 C361 1.356 . S
N359 H364 0.984 1_545 S
N359 H365 0.985 . S
C360 C354 1.379 . S
C360 C357 1.363 1_565 S
C360 N358 1.356 . S
C361 C355 1.363 1_545 S
C361 C356 1.379 . S
C361 N359 1.356 . S
N362 C354 1.356 . S
N362 H368 0.984 . S
N362 H369 0.984 . S
N363 C356 1.356 . S
N363 H366 0.984 . S
N363 H367 0.985 . S
H364 N359 0.984 1_565 S
H365 N359 0.985 . S
H366 N363 0.984 . S
H367 N363 0.985 . S
H368 N362 0.984 . S
H369 N362 0.984 . S
H370 N358 0.984 . S
H371 N358 0.985 1_545 S
C372 C373 1.363 . S
C372 C378 1.379 1_455 S
C372 N380 1.356 . S
C373 C372 1.363 . S
C373 C379 1.363 . S
C374 C375 1.363 . S
C374 C379 1.379 1_655 S
C374 N381 1.356 . S
C375 C374 1.363 . S
C375 C378 1.363 . S
N376 C378 1.356 . S
N376 H388 0.984 . S
N376 H389 0.985 . S
N377 C379 1.356 . S
N377 H382 0.984 . S
N377 H383 0.985 . S
C378 C372 1.379 1_655 S
C378 C375 1.363 . S
C378 N376 1.356 . S
C379 C373 1.363 . S
C379 C374 1.379 1_455 S
C379 N377 1.356 . S
N380 C372 1.356 . S
N380 H386 0.984 . S
N380 H387 0.984 . S
N381 C374 1.356 . S
N381 H384 0.984 . S
N381 H385 0.985 . S
H382 N377 0.984 . S
H383 N377 0.985 . S
H384 N381 0.984 . S
H385 N381 0.985 . S
H386 N380 0.984 . S
H387 N380 0.984 . S
H388 N376 0.984 . S
H389 N376 0.985 . S
C390 C391 1.363 . S
C390 C396 1.379 . S
C390 N398 1.356 . S
C391 C390 1.363 . S
C391 C397 1.363 . S
C392 C393 1.363 . S
C392 C397 1.379 . S
C392 N399 1.356 . S
C393 C392 1.363 . S
C393 C396 1.363 . S
N394 C396 1.356 . S
N394 H406 0.984 . S
N394 H407 0.985 . S
N395 C397 1.356 . S
N395 H400 0.984 . S
N395 H401 0.985 . S
C396 C390 1.379 . S
C396 C393 1.363 . S
C396 N394 1.356 . S
C397 C391 1.363 . S
C397 C392 1.379 . S
C397 N395 1.356 . S
N398 C390 1.356 . S
N398 H404 0.984 . S
N398 H405 0.984 . S
N399 C392 1.356 . S
N399 H402 0.984 . S
N399 H403 0.985 . S
H400 N395 0.984 . S
H401 N395 0.985 . S
H402 N399 0.984 . S
H403 N399 0.985 . S
H404 N398 0.984 . S
H405 N398 0.984 . S
H406 N394 0.984 . S
H407 N394 0.985 . S
C408 C409 1.363 . S
C408 C414 1.379 . S
C408 N416 1.356 . S
C409 C408 1.363 . S
C409 C415 1.363 . S
C410 C411 1.363 . S
C410 C415 1.379 . S
C410 N417 1.356 . S
C411 C410 1.363 . S
C411 C414 1.363 . S
N412 C414 1.356 . S
N412 H424 0.984 . S
N412 H425 0.985 . S
N413 C415 1.356 . S
N413 H418 0.984 . S
N413 H419 0.985 . S
C414 C408 1.379 . S
C414 C411 1.363 . S
C414 N412 1.356 . S
C415 C409 1.363 . S
C415 C410 1.379 . S
C415 N413 1.356 . S
N416 C408 1.356 . S
N416 H422 0.984 . S
N416 H423 0.984 . S
N417 C410 1.356 . S
N417 H420 0.984 . S
N417 H421 0.985 . S
H418 N413 0.984 . S
H419 N413 0.985 . S
H420 N417 0.984 . S
H421 N417 0.985 . S
H422 N416 0.984 . S
H423 N416 0.984 . S
H424 N412 0.984 . S
H425 N412 0.985 . S
C426 C427 1.363 . S
C426 C432 1.379 . S
C426 N434 1.356 . S
C427 C426 1.363 . S
C427 C433 1.363 . S
C428 C429 1.363 . S
C428 C433 1.379 . S
C428 N435 1.356 . S
C429 C428 1.363 . S
C429 C432 1.363 . S
N430 C432 1.356 . S
N430 H442 0.984 . S
N430 H443 0.985 . S
N431 C433 1.356 . S
N431 H436 0.984 . S
N431 H437 0.985 . S
C432 C426 1.379 . S
C432 C429 1.363 . S
C432 N430 1.356 . S
C433 C427 1.363 . S
C433 C428 1.379 . S
C433 N431 1.356 . S
N434 C426 1.356 . S
N434 H440 0.984 . S
N434 H441 0.984 . S
N435 C428 1.356 . S
N435 H438 0.984 . S
N435 H439 0.985 . S
H436 N431 0.984 . S
H437 N431 0.985 . S
H438 N435 0.984 . S
H439 N435 0.985 . S
H440 N434 0.984 . S
H441 N434 0.984 . S
H442 N430 0.984 . S
H443 N430 0.985 . S
C444 C445 1.363 . S
C444 C450 1.379 . S
C444 N452 1.356 . S
C445 C444 1.363 . S
C445 C451 1.363 . S
C446 C447 1.363 . S
C446 C451 1.379 . S
C446 N453 1.348 1_556 S
C447 C446 1.363 . S
C447 C450 1.363 . S
N448 C450 1.356 1_554 S
N448 H460 0.984 . S
N448 H461 0.985 . S
N449 C451 1.356 . S
N449 H454 0.984 . S
N449 H455 0.985 . S
C450 C444 1.379 . S
C450 C447 1.363 . S
C450 N448 1.356 1_556 S
C451 C445 1.363 . S
C451 C446 1.379 . S
C451 N449 1.356 . S
N452 C444 1.356 . S
N452 H458 0.984 . S
N452 H459 0.984 . S
N453 C446 1.348 1_554 S
N453 H456 0.996 . S
N453 H457 0.981 1_554 S
H454 N449 0.984 . S
H455 N449 0.985 . S
H456 N453 0.996 . S
H457 N453 0.981 1_556 S
H458 N452 0.984 . S
H459 N452 0.984 . S
H460 N448 0.984 . S
H461 N448 0.985 . S
C462 C463 1.363 . S
C462 C468 1.379 . S
C462 N470 1.356 1_556 S
C463 C462 1.363 . S
C463 C469 1.363 . S
C464 C465 1.363 . S
C464 C469 1.379 . S
C464 N471 1.356 . S
C465 C464 1.363 . S
C465 C468 1.363 . S
N466 C468 1.356 . S
N466 H478 0.984 . S
N466 H479 0.985 . S
N467 C469 1.356 . S
N467 H472 0.984 1_556 S
N467 H473 0.985 . S
C468 C462 1.379 . S
C468 C465 1.363 . S
C468 N466 1.356 . S
C469 C463 1.363 . S
C469 C464 1.379 . S
C469 N467 1.356 . S
N470 C462 1.356 1_554 S
N470 H476 0.984 . S
N470 H477 0.984 . S
N471 C464 1.356 . S
N471 H474 0.984 . S
N471 H475 0.985 . S
H472 N467 0.984 1_554 S
H473 N467 0.985 . S
H474 N471 0.984 . S
H475 N471 0.985 . S
H476 N470 0.984 . S
H477 N470 0.984 . S
H478 N466 0.984 . S
H479 N466 0.985 . S
C480 C481 1.363 . S
C480 C486 1.379 . S
C480 N488 1.356 . S
C481 C480 1.363 . S
C481 C487 1.363 . S
C482 C483 1.363 . S
C482 C487 1.379 . S
C482 N489 1.356 . S
C483 C482 1.363 . S
C483 C486 1.363 . S
N484 C486 1.356 . S
N484 H496 0.984 . S
N484 H497 0.985 . S
N485 C487 1.356 . S
N485 H490 0.984 . S
N485 H491 0.985 . S
C486 C480 1.379 . S
C486 C483 1.363 . S
C486 N484 1.356 . S
C487 C481 1.363 . S
C487 C482 1.379 . S
C487 N485 1.356 . S
N488 C480 1.356 . S
N488 H494 0.984 . S
N488 H495 0.984 . S
N489 C482 1.356 . S
N489 H492 0.984 . S
N489 H493 0.985 . S
H490 N485 0.984 . S
H491 N485 0.985 . S
H492 N489 0.984 . S
H493 N489 0.985 . S
H494 N488 0.984 . S
H495 N488 0.984 . S
H496 N484 0.984 . S
H497 N484 0.985 . S
C498 C499 1.363 . S
C498 C504 1.379 . S
C498 N506 1.356 . S
C499 C498 1.363 . S
C499 C505 1.363 . S
C500 C501 1.363 . S
C500 C505 1.379 . S
C500 N507 1.356 . S
C501 C500 1.363 . S
C501 C504 1.363 . S
N502 C504 1.356 . S
N502 H514 0.984 . S
N502 H515 0.985 . S
N503 C505 1.356 . S
N503 H508 0.984 . S
N503 H509 0.985 . S
C504 C498 1.379 . S
C504 C501 1.363 . S
C504 N502 1.356 . S
C505 C499 1.363 . S
C505 C500 1.379 . S
C505 N503 1.356 . S
N506 C498 1.356 . S
N506 H512 0.984 . S
N506 H513 0.984 . S
N507 C500 1.356 . S
N507 H510 0.984 . S
N507 H511 0.985 . S
H508 N503 0.984 . S
H509 N503 0.985 . S
H510 N507 0.984 . S
H511 N507 0.985 . S
H512 N506 0.984 . S
H513 N506 0.984 . S
H514 N502 0.984 . S
H515 N502 0.985 . S
C516 C517 1.363 . S
C516 C522 1.379 . S
C516 N524 1.356 . S
C517 C516 1.363 . S
C517 C523 1.363 . S
C518 C519 1.363 . S
C518 C523 1.379 . S
C518 N525 1.356 1_554 S
C519 C518 1.363 . S
C519 C522 1.363 . S
N520 C522 1.356 . S
N520 H532 0.984 . S
N520 H533 0.985 1_554 S
N521 C523 1.356 . S
N521 H526 0.984 . S
N521 H527 0.985 . S
C522 C516 1.379 . S
C522 C519 1.363 . S
C522 N520 1.356 . S
C523 C517 1.363 . S
C523 C518 1.379 . S
C523 N521 1.356 . S
N524 C516 1.356 . S
N524 H530 0.984 . S
N524 H531 0.984 . S
N525 C518 1.356 1_556 S
N525 H528 0.984 . S
N525 H529 0.985 . S
H526 N521 0.984 . S
H527 N521 0.985 . S
H528 N525 0.984 . S
H529 N525 0.985 . S
H530 N524 0.984 . S
H531 N524 0.984 . S
H532 N520 0.984 . S
H533 N520 0.985 1_556 S
C534 C535 1.363 . S
C534 C540 1.379 . S
C534 N542 1.356 . S
C535 C534 1.363 . S
C535 C541 1.363 . S
C536 C537 1.363 . S
C536 C541 1.379 . S
C536 N543 1.356 . S
C537 C536 1.363 . S
C537 C540 1.363 . S
N538 C540 1.356 1_556 S
N538 H550 0.984 . S
N538 H551 0.985 . S
N539 C541 1.356 . S
N539 H544 0.984 . S
N539 H545 0.985 . S
C540 C534 1.379 . S
C540 C537 1.363 . S
C540 N538 1.356 1_554 S
C541 C535 1.363 . S
C541 C536 1.379 . S
C541 N539 1.356 . S
N542 C534 1.356 . S
N542 H548 0.984 . S
N542 H549 0.984 . S
N543 C536 1.356 . S
N543 H546 0.984 1_554 S
N543 H547 0.985 . S
H544 N539 0.984 . S
H545 N539 0.985 . S
H546 N543 0.984 1_556 S
H547 N543 0.985 . S
H548 N542 0.984 . S
H549 N542 0.984 . S
H550 N538 0.984 . S
H551 N538 0.985 . S
C552 C553 1.363 . S
C552 C558 1.379 . S
C552 N560 1.356 . S
C553 C552 1.363 . S
C553 C559 1.363 . S
C554 C555 1.363 . S
C554 C559 1.379 . S
C554 N561 1.356 . S
C555 C554 1.363 . S
C555 C558 1.363 . S
N556 C558 1.356 . S
N556 H568 0.984 . S
N556 H569 0.985 . S
N557 C559 1.356 . S
N557 H562 0.984 . S
N557 H563 0.985 . S
C558 C552 1.379 . S
C558 C555 1.363 . S
C558 N556 1.356 . S
C559 C553 1.363 . S
C559 C554 1.379 . S
C559 N557 1.356 . S
N560 C552 1.356 . S
N560 H566 0.984 . S
N560 H567 0.984 . S
N561 C554 1.356 . S
N561 H564 0.984 . S
N561 H565 0.985 . S
H562 N557 0.984 . S
H563 N557 0.985 . S
H564 N561 0.984 . S
H565 N561 0.985 . S
H566 N560 0.984 . S
H567 N560 0.984 . S
H568 N556 0.984 . S
H569 N556 0.985 . S
C570 C571 1.363 . S
C570 C576 1.379 . S
C570 N578 1.356 . S
C571 C570 1.363 . S
C571 C577 1.363 . S
C572 C573 1.363 . S
C572 C577 1.379 . S
C572 N579 1.356 . S
C573 C572 1.363 . S
C573 C576 1.363 . S
N574 C576 1.356 . S
N574 H586 0.984 . S
N574 H587 0.985 . S
N575 C577 1.356 . S
N575 H580 0.984 . S
N575 H581 0.985 . S
C576 C570 1.379 . S
C576 C573 1.363 . S
C576 N574 1.356 . S
C577 C571 1.363 . S
C577 C572 1.379 . S
C577 N575 1.356 . S
N578 C570 1.356 . S
N578 H584 0.984 . S
N578 H585 0.984 . S
N579 C572 1.356 . S
N579 H582 0.984 . S
N579 H583 0.985 . S
H580 N575 0.984 . S
H581 N575 0.985 . S
H582 N579 0.984 . S
H583 N579 0.985 . S
H584 N578 0.984 . S
H585 N578 0.984 . S
H586 N574 0.984 . S
H587 N574 0.985 . S
C588 C589 1.363 . S
C588 C594 1.379 . S
C588 N596 1.356 . S
C589 C588 1.363 . S
C589 C595 1.363 . S
C590 C591 1.363 . S
C590 C595 1.379 . S
C590 N597 1.356 . S
C591 C590 1.363 . S
C591 C594 1.363 . S
N592 C594 1.356 . S
N592 H604 0.984 . S
N592 H605 0.985 . S
N593 C595 1.356 . S
N593 H598 0.984 . S
N593 H599 0.985 . S
C594 C588 1.379 . S
C594 C591 1.363 . S
C594 N592 1.356 . S
C595 C589 1.363 . S
C595 C590 1.379 . S
C595 N593 1.356 . S
N596 C588 1.356 . S
N596 H602 0.984 . S
N596 H603 0.984 . S
N597 C590 1.356 . S
N597 H600 0.984 . S
N597 H601 0.985 . S
H598 N593 0.984 . S
H599 N593 0.985 . S
H600 N597 0.984 . S
H601 N597 0.985 . S
H602 N596 0.984 . S
H603 N596 0.984 . S
H604 N592 0.984 . S
H605 N592 0.985 . S
C606 C607 1.363 . S
C606 C612 1.379 . S
C606 N614 1.356 . S
C607 C606 1.363 . S
C607 C613 1.363 . S
C608 C609 1.363 . S
C608 C613 1.379 . S
C608 N615 1.356 . S
C609 C608 1.363 . S
C609 C612 1.363 . S
N610 C612 1.356 . S
N610 H622 0.984 . S
N610 H623 0.985 . S
N611 C613 1.356 . S
N611 H616 0.984 . S
N611 H617 0.985 . S
C612 C606 1.379 . S
C612 C609 1.363 . S
C612 N610 1.356 . S
C613 C607 1.363 . S
C613 C608 1.379 . S
C613 N611 1.356 . S
N614 C606 1.356 . S
N614 H620 0.984 . S
N614 H621 0.984 . S
N615 C608 1.356 . S
N615 H618 0.984 . S
N615 H619 0.985 . S
H616 N611 0.984 . S
H617 N611 0.985 . S
H618 N615 0.984 . S
H619 N615 0.985 . S
H620 N614 0.984 . S
H621 N614 0.984 . S
H622 N610 0.984 . S
H623 N610 0.985 . S
C265 C50 1.514 . S
C267 C17 1.514 . S
C283 C83 1.515 . S
C285 C116 1.515 . S
C301 C182 1.514 . S
C303 C149 1.514 . S
C319 C215 1.515 . S
C321 C248 1.515 . S
C337 C160 1.541 . S
C339 C28 1.541 . S
C355 C61 1.541 . S
C357 C193 1.541 . S
C373 C94 1.541 . S
C375 C226 1.541 . S
C391 C127 1.541 . S
C393 C259 1.541 . S
C409 N5 1.403 . S
C411 N14 1.398 . S
C427 N47 1.398 . S
C429 N38 1.403 . S
C445 N71 1.403 . S
C447 N80 1.398 1_556 S
C463 N113 1.398 1_556 S
C465 N104 1.403 . S
C481 N137 1.403 . S
C483 N146 1.398 . S
C499 N179 1.398 . S
C501 N170 1.403 . S
C517 N203 1.403 . S
C519 N212 1.398 1_554 S
C535 N236 1.403 . S
C537 N245 1.398 1_554 S
C553 C8 1.541 . S
C555 C74 1.541 . S
C571 C41 1.541 . S
C573 C107 1.541 . S
C589 C140 1.541 . S
C591 C206 1.541 . S
C607 C173 1.541 . S
C609 C239 1.541 . S
