# Generated by pormake.
# Topology wiv, (6)-cn, num edge types: 1
# Building blocks:
#     Node 0, Type 0, BuildingBlock: BETGAK_clean_sbu_0, # of connection points: 6
#     Node 1, Type 0, BuildingBlock: BETGAK_clean_sbu_0, # of connection points: 6
#     Node 2, Type 0, BuildingBlock: BETGAK_clean_sbu_0, # of connection points: 6
#     Node 3, Type 0, BuildingBlock: BETGAK_clean_sbu_0, # of connection points: 6
#     Node 4, Type 0, BuildingBlock: BETGAK_clean_sbu_0, # of connection points: 6
#     Node 5, Type 0, BuildingBlock: BETGAK_clean_sbu_0, # of connection points: 6
#     Node 6, Type 0, BuildingBlock: BETGAK_clean_sbu_0, # of connection points: 6
#     Node 7, Type 0, BuildingBlock: BETGAK_clean_sbu_0, # of connection points: 6
#     Node 8, Type 0, BuildingBlock: BETGAK_clean_sbu_0, # of connection points: 6
#     Node 9, Type 0, BuildingBlock: BETGAK_clean_sbu_0, # of connection points: 6
#     Node 10, Type 0, BuildingBlock: BETGAK_clean_sbu_0, # of connection points: 6
#     Node 11, Type 0, BuildingBlock: BETGAK_clean_sbu_0, # of connection points: 6
#     Node 12, Type 0, BuildingBlock: BETGAK_clean_sbu_0, # of connection points: 6
#     Node 13, Type 0, BuildingBlock: BETGAK_clean_sbu_0, # of connection points: 6
#     Node 14, Type 0, BuildingBlock: BETGAK_clean_sbu_0, # of connection points: 6
#     Node 15, Type 0, BuildingBlock: BETGAK_clean_sbu_0, # of connection points: 6
#     Edge 16, Type (0, 0), BuildingBlock: AJUNOK_clean_linker_0, # of connection points: 2
#     Edge 17, Type (0, 0), BuildingBlock: AJUNOK_clean_linker_0, # of connection points: 2
#     Edge 18, Type (0, 0), BuildingBlock: AJUNOK_clean_linker_0, # of connection points: 2
#     Edge 19, Type (0, 0), BuildingBlock: AJUNOK_clean_linker_0, # of connection points: 2
#     Edge 20, Type (0, 0), BuildingBlock: AJUNOK_clean_linker_0, # of connection points: 2
#     Edge 21, Type (0, 0), BuildingBlock: AJUNOK_clean_linker_0, # of connection points: 2
#     Edge 22, Type (0, 0), BuildingBlock: AJUNOK_clean_linker_0, # of connection points: 2
#     Edge 23, Type (0, 0), BuildingBlock: AJUNOK_clean_linker_0, # of connection points: 2
#     Edge 24, Type (0, 0), BuildingBlock: AJUNOK_clean_linker_0, # of connection points: 2
#     Edge 25, Type (0, 0), BuildingBlock: AJUNOK_clean_linker_0, # of connection points: 2
#     Edge 26, Type (0, 0), BuildingBlock: AJUNOK_clean_linker_0, # of connection points: 2
#     Edge 27, Type (0, 0), BuildingBlock: AJUNOK_clean_linker_0, # of connection points: 2
#     Edge 28, Type (0, 0), BuildingBlock: AJUNOK_clean_linker_0, # of connection points: 2
#     Edge 29, Type (0, 0), BuildingBlock: AJUNOK_clean_linker_0, # of connection points: 2
#     Edge 30, Type (0, 0), BuildingBlock: AJUNOK_clean_linker_0, # of connection points: 2
#     Edge 31, Type (0, 0), BuildingBlock: AJUNOK_clean_linker_0, # of connection points: 2
#     Edge 32, Type (0, 0), BuildingBlock: AJUNOK_clean_linker_0, # of connection points: 2
#     Edge 33, Type (0, 0), BuildingBlock: AJUNOK_clean_linker_0, # of connection points: 2
#     Edge 34, Type (0, 0), BuildingBlock: AJUNOK_clean_linker_0, # of connection points: 2
#     Edge 35, Type (0, 0), BuildingBlock: AJUNOK_clean_linker_0, # of connection points: 2
#     Edge 36, Type (0, 0), BuildingBlock: AJUNOK_clean_linker_0, # of connection points: 2
#     Edge 37, Type (0, 0), BuildingBlock: AJUNOK_clean_linker_0, # of connection points: 2
#     Edge 38, Type (0, 0), BuildingBlock: AJUNOK_clean_linker_0, # of connection points: 2
#     Edge 39, Type (0, 0), BuildingBlock: AJUNOK_clean_linker_0, # of connection points: 2
#     Edge 40, Type (0, 0), BuildingBlock: AJUNOK_clean_linker_0, # of connection points: 2
#     Edge 41, Type (0, 0), BuildingBlock: AJUNOK_clean_linker_0, # of connection points: 2
#     Edge 42, Type (0, 0), BuildingBlock: AJUNOK_clean_linker_0, # of connection points: 2
#     Edge 43, Type (0, 0), BuildingBlock: AJUNOK_clean_linker_0, # of connection points: 2
#     Edge 44, Type (0, 0), BuildingBlock: AJUNOK_clean_linker_0, # of connection points: 2
#     Edge 45, Type (0, 0), BuildingBlock: AJUNOK_clean_linker_0, # of connection points: 2
#     Edge 46, Type (0, 0), BuildingBlock: AJUNOK_clean_linker_0, # of connection points: 2
#     Edge 47, Type (0, 0), BuildingBlock: AJUNOK_clean_linker_0, # of connection points: 2
#     Edge 48, Type (0, 0), BuildingBlock: AJUNOK_clean_linker_0, # of connection points: 2
#     Edge 49, Type (0, 0), BuildingBlock: AJUNOK_clean_linker_0, # of connection points: 2
#     Edge 50, Type (0, 0), BuildingBlock: AJUNOK_clean_linker_0, # of connection points: 2
#     Edge 51, Type (0, 0), BuildingBlock: AJUNOK_clean_linker_0, # of connection points: 2
#     Edge 52, Type (0, 0), BuildingBlock: AJUNOK_clean_linker_0, # of connection points: 2
#     Edge 53, Type (0, 0), BuildingBlock: AJUNOK_clean_linker_0, # of connection points: 2
#     Edge 54, Type (0, 0), BuildingBlock: AJUNOK_clean_linker_0, # of connection points: 2
#     Edge 55, Type (0, 0), BuildingBlock: AJUNOK_clean_linker_0, # of connection points: 2
#     Edge 56, Type (0, 0), BuildingBlock: AJUNOK_clean_linker_0, # of connection points: 2
#     Edge 57, Type (0, 0), BuildingBlock: AJUNOK_clean_linker_0, # of connection points: 2
#     Edge 58, Type (0, 0), BuildingBlock: AJUNOK_clean_linker_0, # of connection points: 2
#     Edge 59, Type (0, 0), BuildingBlock: AJUNOK_clean_linker_0, # of connection points: 2
#     Edge 60, Type (0, 0), BuildingBlock: AJUNOK_clean_linker_0, # of connection points: 2
#     Edge 61, Type (0, 0), BuildingBlock: AJUNOK_clean_linker_0, # of connection points: 2
#     Edge 62, Type (0, 0), BuildingBlock: AJUNOK_clean_linker_0, # of connection points: 2
#     Edge 63, Type (0, 0), BuildingBlock: AJUNOK_clean_linker_0, # of connection points: 2
# Relax obj value: 0.183
# Max RMSD: 0.221
# Mean RMSD: 0.221
data_MOF--net-wiv--node1-BETGAK_clean_sbu_0--edge1-AJUNOK_clean_linker_0
_symmetry_space_group_name_H-M    P1
_symmetry_Int_Tables_number       1
_symmetry_cell_setting            triclinic
loop_
_symmetry_equiv_pos_as_xyz
'x, y, z'
_cell_length_a     35.700238
_cell_length_b     35.706069
_cell_length_c     20.012687
_cell_angle_alpha  89.806803
_cell_angle_beta   90.428402
_cell_angle_gamma 89.919234
loop_
_atom_site_label
_atom_site_type_symbol
_atom_site_fract_x
_atom_site_fract_y
_atom_site_fract_z
_atom_type_partial_charge
La0 La 0.33337 0.10473 0.20048 0.0
La1 La 0.39309 0.10143 0.10212 0.0
C2 C 0.29831 0.09443 0.30819 0.0
C3 C 0.31072 0.09524 0.37923 0.0
C4 C 0.29209 0.11832 0.4249 0.0
C5 C 0.30462 0.12111 0.49128 0.0
C6 C 0.33653 0.10126 0.51337 0.0
C7 C 0.35498 0.07787 0.46763 0.0
C8 C 0.34229 0.07493 0.4014 0.0
C9 C 0.34671 0.17098 0.14514 0.0
C10 C 0.42106 0.11597 0.24618 0.0
C11 C 0.42948 0.1103 0.99558 0.0
C12 C 0.4178 0.11247 0.9242 0.0
C13 C 0.43695 0.09148 0.87602 0.0
C14 C 0.42472 0.09122 0.80921 0.0
C15 C 0.39312 0.11211 0.7889 0.0
C16 C 0.37421 0.13344 0.83716 0.0
C17 C 0.38638 0.13362 0.90394 0.0
C18 C 0.38482 0.03871 0.17222 0.0
C19 C 0.30716 0.09398 1.05018 0.0
O20 O 0.2993 0.12646 0.27667 0.0
O21 O 0.31107 0.0672 0.27109 0.0
O22 O 0.31388 0.15783 0.15953 0.0
O23 O 0.37083 0.1465 0.16173 0.0
O24 O 0.38557 0.10942 0.26285 0.0
O25 O 0.43094 0.1177 0.18264 0.0
O26 O 0.42488 0.07777 1.02466 0.0
O27 O 0.41915 0.13797 1.03427 0.0
O28 O 0.41659 0.052 0.15208 0.0
O29 O 0.3587 0.05942 0.14909 0.0
O30 O 0.34291 0.09964 1.03708 0.0
O31 O 0.29586 0.09222 0.11355 0.0
H32 H 0.268 0.13459 0.40894 0.0
H33 H 0.28923 0.1388 0.52531 0.0
H34 H 0.3798 0.06243 0.48266 0.0
H35 H 0.35765 0.05724 0.36735 0.0
H36 H 0.46112 0.07481 0.89028 0.0
H37 H 0.43997 0.07454 0.77337 0.0
H38 H 0.3492 0.14903 0.82381 0.0
H39 H 0.37063 0.14972 0.93993 0.0
La40 La 0.10116 0.61395 1.0204 0.0
La41 La 0.09901 0.67602 0.91359 0.0
C42 C 0.11056 0.57881 0.12869 0.0
C43 C 0.11125 0.59028 0.20019 0.0
C44 C 0.083 0.57761 0.24316 0.0
C45 C 0.08151 0.58974 0.30957 0.0
C46 C 0.10869 0.61443 0.33545 0.0
C47 C 0.13723 0.62686 0.29251 0.0
C48 C 0.13848 0.61501 0.22572 0.0
C49 C 0.0384 0.61939 0.94845 0.0
C50 C 0.09264 0.70097 0.06746 0.0
C51 C 0.07376 0.70845 0.81057 0.0
C52 C 0.07816 0.69962 0.7383 0.0
C53 C 0.11081 0.70923 0.70309 0.0
C54 C 0.11614 0.69671 0.63737 0.0
C55 C 0.08914 0.67407 0.60572 0.0
C56 C 0.05582 0.66602 0.6398 0.0
C57 C 0.05033 0.67875 0.70502 0.0
C58 C 0.16988 0.66251 0.94406 0.0
C59 C 0.12065 0.58895 0.87569 0.0
O60 O 0.07811 0.58207 0.09824 0.0
O61 O 0.13829 0.58981 0.0906 0.0
O62 O 0.05307 0.5882 0.96945 0.0
O63 O 0.0584 0.64624 0.97042 0.0
O64 O 0.0961 0.66488 0.0821 0.0
O65 O 0.09186 0.71267 1.00361 0.0
O66 O 0.10324 0.72033 0.84374 0.0
O67 O 0.05505 0.68365 0.84497 0.0
O68 O 0.1586 0.68818 0.90278 0.0
O69 O 0.14123 0.64674 0.96855 0.0
O70 O 0.10925 0.62307 0.85609 0.0
O71 O 0.12366 0.5799 0.93992 0.0
H72 H 0.06142 0.55886 0.22489 0.0
H73 H 0.05831 0.58057 0.34001 0.0
H74 H 0.1586 0.64591 0.31049 0.0
H75 H 0.16052 0.62562 0.19399 0.0
H76 H 0.13265 0.72563 0.72678 0.0
H77 H 0.14195 0.7037 0.61209 0.0
H78 H 0.03405 0.64948 0.6162 0.0
H79 H 0.0246 0.67129 0.73013 0.0
La80 La 0.67517 0.89906 0.20474 0.0
La81 La 0.61604 0.90189 0.10589 0.0
C82 C 0.71123 0.90838 0.31286 0.0
C83 C 0.69997 0.90836 0.38445 0.0
C84 C 0.70788 0.87721 0.42533 0.0
C85 C 0.69503 0.8756 0.49129 0.0
C86 C 0.673 0.9047 0.51774 0.0
C87 C 0.66633 0.9365 0.47749 0.0
C88 C 0.68006 0.93849 0.41215 0.0
C89 C 0.66555 0.83329 0.14655 0.0
C90 C 0.58764 0.88466 0.24733 0.0
C91 C 0.57963 0.89591 0.99772 0.0
C92 C 0.59095 0.89531 0.92622 0.0
C93 C 0.57691 0.92253 0.88165 0.0
C94 C 0.5886 0.92351 0.81486 0.0
C95 C 0.61433 0.89699 0.79083 0.0
C96 C 0.62827 0.86965 0.83533 0.0
C97 C 0.61681 0.86885 0.9022 0.0
C98 C 0.6231 0.9645 0.17718 0.0
C99 C 0.70156 0.91051 1.05529 0.0
O100 O 0.70858 0.87635 0.28196 0.0
O101 O 0.69911 0.93592 0.27512 0.0
O102 O 0.69752 0.84882 0.15993 0.0
O103 O 0.63968 0.85579 0.1636 0.0
O104 O 0.62264 0.89328 0.26531 0.0
O105 O 0.57829 0.88238 0.18351 0.0
O106 O 0.58459 0.92763 1.02897 0.0
O107 O 0.58954 0.86727 1.03505 0.0
O108 O 0.59156 0.95025 0.15763 0.0
O109 O 0.64948 0.9446 0.15399 0.0
O110 O 0.66602 0.90362 1.04143 0.0
O111 O 0.71255 0.91307 0.11901 0.0
H112 H 0.72383 0.85383 0.40608 0.0
H113 H 0.70238 0.85143 0.52144 0.0
H114 H 0.64981 0.95968 0.49592 0.0
H115 H 0.67453 0.96344 0.38304 0.0
H116 H 0.55713 0.94338 0.89875 0.0
H117 H 0.57746 0.94498 0.78189 0.0
H118 H 0.64874 0.84935 0.81877 0.0
H119 H 0.62867 0.84779 0.9352 0.0
La120 La 0.90145 0.39067 1.01252 0.0
La121 La 0.89704 0.33068 0.91508 0.0
C122 C 0.89419 0.42602 0.12062 0.0
C123 C 0.8953 0.41332 0.19181 0.0
C124 C 0.92823 0.39844 0.22078 0.0
C125 C 0.92855 0.38527 0.28691 0.0
C126 C 0.89602 0.38662 0.32612 0.0
C127 C 0.86305 0.40131 0.297 0.0
C128 C 0.86277 0.41464 0.2309 0.0
C129 C 0.96438 0.38136 0.94419 0.0
C130 C 0.90718 0.30526 0.06618 0.0
C131 C 0.90319 0.29306 0.80852 0.0
C132 C 0.90181 0.30394 0.73643 0.0
C133 C 0.8677 0.3141 0.70548 0.0
C134 C 0.86667 0.32652 0.63905 0.0
C135 C 0.89966 0.32892 0.60139 0.0
C136 C 0.93359 0.31731 0.63124 0.0
C137 C 0.93466 0.30507 0.69805 0.0
C138 C 0.83082 0.34643 0.96916 0.0
C139 C 0.88734 0.41859 0.8689 0.0
O140 O 0.92557 0.42427 0.08735 0.0
O141 O 0.86576 0.41441 0.0845 0.0
O142 O 0.95233 0.41311 0.96665 0.0
O143 O 0.94316 0.35537 0.9658 0.0
O144 O 0.90018 0.34087 0.07814 0.0
O145 O 0.91123 0.29409 1.00299 0.0
O146 O 0.87215 0.29648 0.84194 0.0
O147 O 0.93182 0.30477 0.84368 0.0
O148 O 0.84407 0.31318 0.95865 0.0
O149 O 0.85595 0.36943 0.95168 0.0
O150 O 0.89555 0.38328 0.85252 0.0
O151 O 0.88353 0.4282 0.93228 0.0
H152 H 0.95384 0.39667 0.19231 0.0
H153 H 0.95446 0.37428 0.30759 0.0
H154 H 0.83722 0.40199 0.32497 0.0
H155 H 0.83688 0.4256 0.21001 0.0
H156 H 0.84167 0.31281 0.7327 0.0
H157 H 0.83995 0.33434 0.61708 0.0
H158 H 0.95946 0.31864 0.60342 0.0
H159 H 0.96132 0.29705 0.72004 0.0
La160 La 0.32497 0.40519 0.15615 0.0
La161 La 0.38563 0.39595 0.265 0.0
C162 C 0.29247 0.43258 1.05452 0.0
C163 C 0.29672 0.42608 0.98157 0.0
C164 C 0.29595 0.38993 0.95368 0.0
C165 C 0.30644 0.38424 0.88684 0.0
C166 C 0.31852 0.41443 0.8471 0.0
C167 C 0.31747 0.45069 0.87415 0.0
C168 C 0.30656 0.45643 0.94041 0.0
C169 C 0.338 0.33225 0.17318 0.0
C170 C 0.41165 0.38434 0.1191 0.0
C171 C 0.41716 0.37811 0.37373 0.0
C172 C 0.40551 0.38202 0.44502 0.0
C173 C 0.41312 0.41505 0.4808 0.0
C174 C 0.40051 0.41957 0.54649 0.0
C175 C 0.38011 0.3911 0.5788 0.0
C176 C 0.37304 0.3578 0.54334 0.0
C177 C 0.38564 0.35328 0.47753 0.0
C178 C 0.383 0.46253 0.20413 0.0
C179 C 0.30027 0.4118 0.31137 0.0
O180 O 0.27768 0.40612 0.09159 0.0
O181 O 0.32208 0.44694 0.08302 0.0
O182 O 0.31382 0.34652 0.1321 0.0
O183 O 0.35276 0.35939 0.20448 0.0
O184 O 0.37927 0.40054 0.10143 0.0
O185 O 0.41881 0.3746 0.18198 0.0
O186 O 0.42435 0.40912 0.34106 0.0
O187 O 0.39811 0.35445 0.3368 0.0
O188 O 0.41314 0.44641 0.22715 0.0
O189 O 0.35518 0.44213 0.2203 0.0
O190 O 0.33603 0.40664 0.32646 0.0
O191 O 0.28868 0.41271 0.24722 0.0
H192 H 0.28867 0.36591 0.98408 0.0
H193 H 0.30686 0.35601 0.8672 0.0
H194 H 0.32614 0.47454 0.84447 0.0
H195 H 0.30746 0.48457 0.96052 0.0
H196 H 0.42825 0.43787 0.45764 0.0
H197 H 0.40565 0.44607 0.57097 0.0
H198 H 0.35778 0.33509 0.56653 0.0
H199 H 0.37945 0.32732 0.45189 0.0
La200 La 0.39612 0.61486 0.86167 0.0
La201 La 0.4009 0.67286 0.95984 0.0
C202 C 0.38291 0.57957 0.75464 0.0
C203 C 0.38822 0.58967 0.68323 0.0
C204 C 0.41853 0.61207 0.66309 0.0
C205 C 0.42238 0.62296 0.59609 0.0
C206 C 0.39598 0.61185 0.54745 0.0
C207 C 0.36568 0.58937 0.56784 0.0
C208 C 0.36193 0.57835 0.63489 0.0
C209 C 0.46432 0.62189 0.91609 0.0
C210 C 0.40502 0.70017 0.8095 0.0
C211 C 0.41492 0.70706 0.06808 0.0
C212 C 0.4102 0.69564 0.13882 0.0
C213 C 0.3804 0.67239 0.15807 0.0
C214 C 0.37792 0.65905 0.22384 0.0
C215 C 0.40542 0.66827 0.27183 0.0
C216 C 0.43479 0.69226 0.25269 0.0
C217 C 0.43722 0.70563 0.18683 0.0
C218 C 0.33076 0.66225 0.91882 0.0
C219 C 0.38764 0.58597 1.0057 0.0
O220 O 0.41329 0.57518 0.7907 0.0
O221 O 0.35758 0.59885 0.78663 0.0
O222 O 0.44864 0.59069 0.89886 0.0
O223 O 0.44254 0.6485 0.89881 0.0
O224 O 0.39448 0.66537 0.79796 0.0
O225 O 0.41403 0.70988 0.87204 0.0
O226 O 0.38449 0.71212 1.03265 0.0
O227 O 0.43951 0.6878 1.03501 0.0
O228 O 0.3469 0.69432 0.92732 0.0
O229 O 0.35495 0.63691 0.93011 0.0
O230 O 0.4005 0.61991 1.02073 0.0
O231 O 0.37833 0.57806 0.94323 0.0
H232 H 0.43904 0.62163 0.69934 0.0
H233 H 0.446 0.64029 0.58239 0.0
H234 H 0.34426 0.58106 0.53231 0.0
H235 H 0.33809 0.56146 0.6492 0.0
H236 H 0.35925 0.66403 0.12201 0.0
H237 H 0.35441 0.64147 0.23707 0.0
H238 H 0.45643 0.69997 0.28825 0.0
H239 H 0.46059 0.72332 0.17309 0.0
La240 La 0.67509 0.60037 0.15818 0.0
La241 La 0.61688 0.60845 0.25508 0.0
C242 C 0.70916 0.58351 1.05177 0.0
C243 C 0.6988 0.58707 0.97987 0.0
C244 C 0.68826 0.62174 0.95182 0.0
C245 C 0.67732 0.62438 0.88455 0.0
C246 C 0.67609 0.59239 0.84358 0.0
C247 C 0.6864 0.55767 0.872 0.0
C248 C 0.69787 0.55512 0.9391 0.0
C249 C 0.6681 0.67111 0.19752 0.0
C250 C 0.58917 0.61834 0.11065 0.0
C251 C 0.58313 0.62281 0.36228 0.0
C252 C 0.59474 0.61706 0.43335 0.0
C253 C 0.60337 0.58113 0.45853 0.0
C254 C 0.61644 0.57638 0.5243 0.0
C255 C 0.62162 0.60739 0.56658 0.0
C256 C 0.6125 0.64323 0.54161 0.0
C257 C 0.59924 0.64798 0.47592 0.0
C258 C 0.62033 0.54048 0.19999 0.0
C259 C 0.70115 0.59454 0.30924 0.0
O260 O 0.71481 0.61442 0.08496 0.0
O261 O 0.6895 0.55979 0.08652 0.0
O262 O 0.69929 0.65312 0.19004 0.0
O263 O 0.64154 0.64833 0.18658 0.0
O264 O 0.62241 0.60349 0.09648 0.0
O265 O 0.58156 0.62843 0.17264 0.0
O266 O 0.57693 0.59278 0.32663 0.0
O267 O 0.60213 0.64782 0.32869 0.0
O268 O 0.58989 0.55784 0.21635 0.0
O269 O 0.64787 0.56043 0.21892 0.0
O270 O 0.66699 0.60705 0.32005 0.0
O271 O 0.71082 0.58553 0.24698 0.0
H272 H 0.6884 0.64695 0.98179 0.0
H273 H 0.66983 0.65162 0.86456 0.0
H274 H 0.68478 0.5322 0.84295 0.0
H275 H 0.70537 0.52797 0.95957 0.0
H276 H 0.60036 0.55659 0.42732 0.0
H277 H 0.62223 0.54828 0.54214 0.0
H278 H 0.61622 0.66777 0.5726 0.0
H279 H 0.59301 0.67598 0.458 0.0
La280 La 0.60079 0.38911 0.85966 0.0
La281 La 0.60467 0.33063 0.95888 0.0
C282 C 0.60606 0.42675 0.75276 0.0
C283 C 0.60602 0.41722 0.68022 0.0
C284 C 0.57298 0.42096 0.64186 0.0
C285 C 0.57204 0.41037 0.57446 0.0
C286 C 0.6042 0.39603 0.54353 0.0
C287 C 0.63753 0.39339 0.58113 0.0
C288 C 0.63849 0.40386 0.64861 0.0
C289 C 0.53727 0.38092 0.92762 0.0
C290 C 0.59776 0.303 0.80978 0.0
C291 C 0.59774 0.29556 0.06811 0.0
C292 C 0.59728 0.30891 0.13854 0.0
C293 C 0.62994 0.30692 0.17814 0.0
C294 C 0.63044 0.32107 0.24331 0.0
C295 C 0.59842 0.33806 0.27032 0.0
C296 C 0.56557 0.33967 0.23118 0.0
C297 C 0.56495 0.32518 0.16615 0.0
C298 C 0.67133 0.34533 0.90559 0.0
C299 C 0.61446 0.41805 1.00256 0.0
O300 O 0.57465 0.4212 0.78439 0.0
O301 O 0.63496 0.4161 0.78884 0.0
O302 O 0.55089 0.4123 0.90641 0.0
O303 O 0.55814 0.35448 0.90663 0.0
O304 O 0.60497 0.33855 0.79657 0.0
O305 O 0.59184 0.29265 0.87295 0.0
O306 O 0.62939 0.29893 1.03656 0.0
O307 O 0.56961 0.30534 1.02991 0.0
O308 O 0.65802 0.3123 0.91801 0.0
O309 O 0.64626 0.36875 0.92144 0.0
O310 O 0.60518 0.38325 1.01977 0.0
O311 O 0.6191 0.42693 0.93897 0.0
H312 H 0.54755 0.4315 0.66429 0.0
H313 H 0.54587 0.41254 0.54696 0.0
H314 H 0.66288 0.38294 0.55829 0.0
H315 H 0.66457 0.40098 0.67615 0.0
H316 H 0.65531 0.29456 0.15856 0.0
H317 H 0.65615 0.31934 0.27225 0.0
H318 H 0.54024 0.35194 0.25104 0.0
H319 H 0.5392 0.32712 0.13734 0.0
La320 La 0.8304 0.60523 0.70011 0.0
La321 La 0.88845 0.60537 0.60162 0.0
C322 C 0.79492 0.59466 0.80757 0.0
C323 C 0.80665 0.59527 0.87887 0.0
C324 C 0.78744 0.61819 0.92404 0.0
C325 C 0.79952 0.62123 0.99058 0.0
C326 C 0.8315 0.60178 1.01337 0.0
C327 C 0.85038 0.57833 0.96827 0.0
C328 C 0.83817 0.57514 0.90179 0.0
C329 C 0.83946 0.67288 0.64816 0.0
C330 C 0.91788 0.61847 0.7444 0.0
C331 C 0.92406 0.61647 0.49487 0.0
C332 C 0.91219 0.61768 0.42358 0.0
C333 C 0.93194 0.59692 0.37586 0.0
C334 C 0.91961 0.59569 0.30918 0.0
C335 C 0.88734 0.61542 0.2886 0.0
C336 C 0.86779 0.63649 0.33636 0.0
C337 C 0.88003 0.6376 0.40301 0.0
C338 C 0.88361 0.5411 0.66921 0.0
C339 C 0.80337 0.59437 0.55 0.0
O340 O 0.79624 0.62674 0.77642 0.0
O341 O 0.80806 0.56767 0.77057 0.0
O342 O 0.80768 0.65629 0.65759 0.0
O343 O 0.86545 0.64982 0.66306 0.0
O344 O 0.88296 0.61001 0.76199 0.0
O345 O 0.92663 0.62225 0.68076 0.0
O346 O 0.92167 0.58379 0.52417 0.0
O347 O 0.91196 0.64344 0.53342 0.0
O348 O 0.91441 0.55609 0.6482 0.0
O349 O 0.85635 0.56083 0.64758 0.0
O350 O 0.8386 0.60199 0.53643 0.0
O351 O 0.79279 0.59147 0.61362 0.0
H352 H 0.76337 0.63428 0.90744 0.0
H353 H 0.78381 0.63893 1.02414 0.0
H354 H 0.8752 0.56309 0.98397 0.0
H355 H 0.85389 0.55749 0.86812 0.0
H356 H 0.95666 0.58116 0.3904 0.0
H357 H 0.93531 0.57924 0.27364 0.0
H358 H 0.84232 0.65123 0.32265 0.0
H359 H 0.86382 0.65347 0.43866 0.0
La360 La 0.6029 0.11419 0.52128 0.0
La361 La 0.60313 0.17263 0.42237 0.0
C362 C 0.61174 0.07895 0.62961 0.0
C363 C 0.61194 0.09217 0.70004 0.0
C364 C 0.58698 0.07657 0.7464 0.0
C365 C 0.58489 0.09062 0.81167 0.0
C366 C 0.60798 0.12039 0.83224 0.0
C367 C 0.63301 0.13594 0.78591 0.0
C368 C 0.63496 0.12205 0.72062 0.0
C369 C 0.53848 0.12109 0.45457 0.0
C370 C 0.59542 0.19968 0.57237 0.0
C371 C 0.59072 0.20843 0.315 0.0
C372 C 0.59161 0.19824 0.24289 0.0
C373 C 0.6199 0.21265 0.20177 0.0
C374 C 0.62217 0.20236 0.1344 0.0
C375 C 0.59666 0.1766 0.10659 0.0
C376 C 0.56782 0.16279 0.14748 0.0
C377 C 0.56523 0.17358 0.2146 0.0
C378 C 0.67079 0.16239 0.47416 0.0
C379 C 0.61715 0.08505 0.37883 0.0
O380 O 0.57959 0.08151 0.5982 0.0
O381 O 0.63957 0.08973 0.59174 0.0
O382 O 0.55353 0.08962 0.47275 0.0
O383 O 0.55895 0.14755 0.47623 0.0
O384 O 0.60168 0.16411 0.58632 0.0
O385 O 0.5918 0.21045 0.50873 0.0
O386 O 0.62291 0.20819 0.34634 0.0
O387 O 0.56435 0.19366 0.35168 0.0
O388 O 0.65474 0.19449 0.46355 0.0
O389 O 0.64742 0.13681 0.45952 0.0
O390 O 0.6091 0.12027 0.36119 0.0
O391 O 0.62014 0.07595 0.44278 0.0
H392 H 0.56869 0.05377 0.73182 0.0
H393 H 0.56534 0.07805 0.84626 0.0
H394 H 0.65066 0.15934 0.79983 0.0
H395 H 0.65411 0.1352 0.68603 0.0
H396 H 0.64063 0.23166 0.22206 0.0
H397 H 0.64402 0.21462 0.10419 0.0
H398 H 0.54771 0.14283 0.1281 0.0
H399 H 0.54288 0.1621 0.24449 0.0
La400 La 0.17582 0.40411 0.70519 0.0
La401 La 0.11703 0.40347 0.60821 0.0
C402 C 0.21177 0.41728 0.81242 0.0
C403 C 0.2025 0.41446 0.88475 0.0
C404 C 0.19065 0.38048 0.91345 0.0
C405 C 0.1809 0.37854 0.98111 0.0
C406 C 0.18272 0.41048 1.02208 0.0
C407 C 0.1948 0.44441 0.99338 0.0
C408 C 0.20466 0.44633 0.92565 0.0
C409 C 0.16731 0.33617 0.65436 0.0
C410 C 0.08841 0.38791 0.74932 0.0
C411 C 0.08233 0.3976 0.4984 0.0
C412 C 0.0961 0.40004 0.42818 0.0
C413 C 0.11218 0.43323 0.40307 0.0
C414 C 0.12677 0.43468 0.33821 0.0
C415 C 0.12602 0.40296 0.29674 0.0
C416 C 0.10963 0.3699 0.32152 0.0
C417 C 0.09484 0.36849 0.38634 0.0
C418 C 0.12483 0.46871 0.67304 0.0
C419 C 0.20107 0.4115 0.55427 0.0
O420 O 0.2141 0.38604 0.77902 0.0
O421 O 0.19395 0.44292 0.77801 0.0
O422 O 0.19896 0.35274 0.66608 0.0
O423 O 0.14092 0.35865 0.66924 0.0
O424 O 0.12328 0.39793 0.7663 0.0
O425 O 0.07968 0.38336 0.68557 0.0
O426 O 0.0834 0.42836 0.53361 0.0
O427 O 0.09373 0.36872 0.53358 0.0
O428 O 0.09325 0.45289 0.65825 0.0
O429 O 0.15074 0.44813 0.65016 0.0
O430 O 0.16639 0.40064 0.54335 0.0
O431 O 0.2116 0.41916 0.617 0.0
H432 H 0.18826 0.35541 0.88344 0.0
H433 H 0.17076 0.35219 1.0008 0.0
H434 H 0.19667 0.46952 1.02339 0.0
H435 H 0.21376 0.47286 0.90505 0.0
H436 H 0.11397 0.4581 0.43374 0.0
H437 H 0.13927 0.46053 0.32085 0.0
H438 H 0.10793 0.34516 0.29051 0.0
H439 H 0.08264 0.34256 0.40402 0.0
La440 La 0.404 0.88939 0.51861 0.0
La441 La 0.39915 0.83134 0.41998 0.0
C442 C 0.3972 0.92575 0.62584 0.0
C443 C 0.3967 0.91411 0.69713 0.0
C444 C 0.41766 0.93417 0.7446 0.0
C445 C 0.41944 0.92217 0.81137 0.0
C446 C 0.40011 0.88988 0.8323 0.0
C447 C 0.37906 0.86989 0.78461 0.0
C448 C 0.37731 0.88187 0.71791 0.0
C449 C 0.46611 0.88217 0.44688 0.0
C450 C 0.40922 0.80354 0.57005 0.0
C451 C 0.40707 0.79528 0.31237 0.0
C452 C 0.40972 0.80754 0.24171 0.0
C453 C 0.3886 0.78915 0.19235 0.0
C454 C 0.38816 0.80233 0.12629 0.0
C455 C 0.40859 0.83445 0.10825 0.0
C456 C 0.4304 0.85236 0.15753 0.0
C457 C 0.43087 0.83915 0.22356 0.0
C458 C 0.33353 0.84356 0.47653 0.0
C459 C 0.38848 0.91932 0.37656 0.0
O460 O 0.4291 0.92113 0.59524 0.0
O461 O 0.36879 0.91531 0.58848 0.0
O462 O 0.45286 0.91344 0.46936 0.0
O463 O 0.44603 0.85554 0.46933 0.0
O464 O 0.4062 0.83946 0.58402 0.0
O465 O 0.40978 0.79267 0.5063 0.0
O466 O 0.37479 0.80122 0.34052 0.0
O467 O 0.43482 0.80414 0.35224 0.0
O468 O 0.34807 0.81096 0.46492 0.0
O469 O 0.35718 0.86837 0.45963 0.0
O470 O 0.39487 0.88398 0.35855 0.0
O471 O 0.38715 0.92847 0.44038 0.0
H472 H 0.43321 0.95884 0.72976 0.0
H473 H 0.43663 0.93777 0.84629 0.0
H474 H 0.36379 0.84496 0.79894 0.0
H475 H 0.36104 0.86562 0.68253 0.0
H476 H 0.37181 0.76496 0.20522 0.0
H477 H 0.371 0.78796 0.08964 0.0
H478 H 0.44706 0.87669 0.14509 0.0
H479 H 0.4473 0.85409 0.26055 0.0
La480 La 0.83032 0.90385 0.66591 0.0
La481 La 0.88816 0.89945 0.76541 0.0
C482 C 0.79585 0.91958 0.55836 0.0
C483 C 0.80615 0.91608 0.48656 0.0
C484 C 0.80165 0.88192 0.45253 0.0
C485 C 0.81313 0.87813 0.3861 0.0
C486 C 0.82969 0.90829 0.35198 0.0
C487 C 0.8332 0.94277 0.38527 0.0
C488 C 0.82154 0.94664 0.45168 0.0
C489 C 0.83826 0.83422 0.71108 0.0
C490 C 0.91716 0.88627 0.62305 0.0
C491 C 0.92365 0.88903 0.87348 0.0
C492 C 0.91172 0.89007 0.94479 0.0
C493 C 0.9158 0.92309 0.98239 0.0
C494 C 0.90261 0.92515 1.04805 0.0
C495 C 0.88538 0.8941 0.07829 0.0
C496 C 0.88178 0.86086 1.04123 0.0
C497 C 0.89486 0.85883 0.97538 0.0
C498 C 0.88471 0.96517 0.70119 0.0
C499 C 0.80375 0.90997 0.8165 0.0
O500 O 0.79111 0.88852 0.5918 0.0
O501 O 0.81459 0.94405 0.5936 0.0
O502 O 0.80672 0.8514 0.70058 0.0
O503 O 0.86452 0.85728 0.69971 0.0
O504 O 0.88282 0.8974 0.60482 0.0
O505 O 0.92485 0.88001 0.68684 0.0
O506 O 0.92286 0.92096 0.84134 0.0
O507 O 0.91063 0.86173 0.8364 0.0
O508 O 0.91511 0.94834 0.72023 0.0
O509 O 0.85718 0.94605 0.7224 0.0
O510 O 0.83805 0.89813 0.82868 0.0
O511 O 0.79415 0.91853 0.75357 0.0
H512 H 0.78947 0.85789 0.47734 0.0
H513 H 0.80902 0.8515 0.36139 0.0
H514 H 0.84576 0.96659 0.36042 0.0
H515 H 0.82519 0.97344 0.47607 0.0
H516 H 0.92886 0.94763 0.96078 0.0
H517 H 0.90608 0.95105 0.07542 0.0
H518 H 0.86816 0.83661 0.06271 0.0
H519 H 0.89116 0.83292 0.94815 0.0
La520 La 0.89881 0.1174 0.35751 0.0
La521 La 0.89855 0.17585 0.45702 0.0
C522 C 0.88675 0.08246 0.24999 0.0
C523 C 0.88568 0.09443 0.17862 0.0
C524 C 0.91051 0.07829 0.1327 0.0
C525 C 0.91148 0.09074 0.06616 0.0
C526 C 0.88732 0.11937 1.04372 0.0
C527 C 0.86217 0.13524 0.08943 0.0
C528 C 0.86141 0.12302 0.15608 0.0
C529 C 0.96391 0.12409 0.42142 0.0
C530 C 0.90794 0.20302 0.3068 0.0
C531 C 0.9078 0.21337 0.56343 0.0
C532 C 0.90645 0.20383 0.636 0.0
C533 C 0.87541 0.21435 0.67453 0.0
C534 C 0.87225 0.20268 0.74128 0.0
C535 C 0.89958 0.17923 0.77084 0.0
C536 C 0.93146 0.17028 0.73295 0.0
C537 C 0.93515 0.18307 0.66714 0.0
C538 C 0.83083 0.16457 0.40601 0.0
C539 C 0.8875 0.08779 0.50093 0.0
O540 O 0.91951 0.08392 0.27954 0.0
O541 O 0.8601 0.09491 0.28882 0.0
O542 O 0.95017 0.09283 0.39969 0.0
O543 O 0.94266 0.15082 0.40257 0.0
O544 O 0.90077 0.16762 0.29306 0.0
O545 O 0.91135 0.21357 0.37047 0.0
O546 O 0.8761 0.21099 0.53094 0.0
O547 O 0.9353 0.19959 0.5283 0.0
O548 O 0.84691 0.19678 0.41377 0.0
O549 O 0.85474 0.13943 0.42087 0.0
O550 O 0.89505 0.12304 0.51862 0.0
O551 O 0.88395 0.07872 0.43724 0.0
H552 H 0.92961 0.05634 0.14859 0.0
H553 H 0.93121 0.07802 1.03218 0.0
H554 H 0.84376 0.15787 0.07406 0.0
H555 H 0.84222 0.13647 0.19014 0.0
H556 H 0.85331 0.23142 0.65282 0.0
H557 H 0.8483 0.21211 0.76948 0.0
H558 H 0.95344 0.15269 0.75351 0.0
H559 H 0.96037 0.17618 0.64056 0.0
La560 La 0.17755 0.10232 0.6593 0.0
La561 La 0.12047 0.10756 0.75683 0.0
C562 C 0.2125 0.08618 0.5534 0.0
C563 C 0.20405 0.09086 0.48105 0.0
C564 C 0.19112 0.12518 0.45483 0.0
C565 C 0.1822 0.12873 0.38675 0.0
C566 C 0.18552 0.09796 0.34343 0.0
C567 C 0.1986 0.06372 0.36972 0.0
C568 C 0.20794 0.06028 0.43767 0.0
C569 C 0.1701 0.1726 0.70098 0.0
C570 C 0.09018 0.11825 0.61445 0.0
C571 C 0.08696 0.11903 0.86541 0.0
C572 C 0.10045 0.11545 0.93581 0.0
C573 C 0.11612 0.0817 0.95987 0.0
C574 C 0.13063 0.07919 1.025 0.0
C575 C 0.13026 0.1104 0.06765 0.0
C576 C 0.11442 0.14406 1.04381 0.0
C577 C 0.09966 0.14653 0.97869 0.0
C578 C 0.1257 0.04024 0.69885 0.0
C579 C 0.20481 0.09616 0.80965 0.0
O580 O 0.21821 0.11658 0.58803 0.0
O581 O 0.19146 0.06252 0.58576 0.0
O582 O 0.20133 0.1548 0.69273 0.0
O583 O 0.14349 0.1497 0.68989 0.0
O584 O 0.12452 0.10683 0.59788 0.0
O585 O 0.08271 0.12572 0.67759 0.0
O586 O 0.08396 0.08804 0.83113 0.0
O587 O 0.10214 0.14577 0.82991 0.0
O588 O 0.09478 0.05713 0.71378 0.0
O589 O 0.15251 0.06068 0.7191 0.0
O590 O 0.17076 0.1086 0.82092 0.0
O591 O 0.21396 0.08711 0.74721 0.0
H592 H 0.18742 0.14921 0.48701 0.0
H593 H 0.17147 0.15526 0.36844 0.0
H594 H 0.20152 0.03953 0.33765 0.0
H595 H 0.21781 0.03354 0.45657 0.0
H596 H 0.11769 0.05726 0.92813 0.0
H597 H 0.14277 0.05293 1.04169 0.0
H598 H 0.11312 0.16844 0.07577 0.0
H599 H 0.08789 0.17288 0.9616 0.0
La600 La 0.10431 0.88887 0.35869 0.0
La601 La 0.10546 0.83071 0.45629 0.0
C602 C 0.1109 0.92321 0.24915 0.0
C603 C 0.10891 0.90945 0.17893 0.0
C604 C 0.07598 0.893 0.15318 0.0
C605 C 0.07488 0.87856 0.08817 0.0
C606 C 0.10669 0.87984 1.04728 0.0
C607 C 0.13953 0.89647 0.07275 0.0
C608 C 0.1406 0.91114 0.13774 0.0
C609 C 0.0399 0.88188 0.42533 0.0
C610 C 0.09629 0.80404 0.30624 0.0
C611 C 0.09208 0.79523 0.56337 0.0
C612 C 0.09564 0.80444 0.63541 0.0
C613 C 0.12853 0.82046 0.66186 0.0
C614 C 0.13069 0.83047 0.72945 0.0
C615 C 0.09996 0.82499 0.77195 0.0
C616 C 0.06712 0.80896 0.74545 0.0
C617 C 0.06507 0.79862 0.67799 0.0
C618 C 0.1734 0.84082 0.40818 0.0
C619 C 0.12201 0.91867 0.49886 0.0
O620 O 0.07985 0.92212 0.28336 0.0
O621 O 0.1396 0.91181 0.28501 0.0
O622 O 0.05499 0.91328 0.40772 0.0
O623 O 0.06034 0.85554 0.40317 0.0
O624 O 0.10542 0.83906 0.2938 0.0
O625 O 0.09067 0.79377 0.36955 0.0
O626 O 0.12298 0.79177 0.52941 0.0
O627 O 0.06688 0.8142 0.52993 0.0
O628 O 0.15692 0.80873 0.41596 0.0
O629 O 0.14969 0.8665 0.42069 0.0
O630 O 0.11652 0.88296 0.51688 0.0
O631 O 0.12188 0.92814 0.43508 0.0
H632 H 0.05105 0.89084 0.18341 0.0
H633 H 0.04921 0.86583 0.07017 0.0
H634 H 0.16433 0.8985 1.04211 0.0
H635 H 0.16634 0.92361 0.15603 0.0
H636 H 0.15242 0.82578 0.63018 0.0
H637 H 0.15611 0.84338 0.74814 0.0
H638 H 0.04301 0.80441 0.77699 0.0
H639 H 0.03938 0.78647 0.65882 0.0
C640 C 0.40782 0.98201 0.33006 0.0
C641 C 0.38531 0.94977 0.32466 0.0
C642 C 0.40684 0.01059 0.28114 0.0
C643 C 0.3821 0.00926 0.22588 0.0
H644 H 0.42728 0.98469 0.37158 0.0
H645 H 0.42578 0.03406 0.28674 0.0
S646 S 0.31605 0.93174 0.18936 0.0
N647 N 0.33742 0.91828 0.25901 0.0
N648 N 0.33382 0.97306 0.16976 0.0
C649 C 0.35856 0.97774 0.22086 0.0
C650 C 0.36063 0.9478 0.26942 0.0
C651 C 0.94552 0.64093 0.85555 0.0
C652 C 0.94873 0.62012 0.79591 0.0
C653 C 0.97509 0.64209 0.90351 0.0
C654 C 0.00838 0.62124 0.89506 0.0
H655 H 0.92018 0.65671 0.86488 0.0
H656 H 0.97139 0.65848 0.94841 0.0
S657 S 0.02996 0.56121 0.74893 0.0
N658 N 0.98829 0.57883 0.73129 0.0
N659 N 0.04156 0.57829 0.82276 0.0
C660 C 0.01128 0.59986 0.83624 0.0
C661 C 0.98215 0.60003 0.78644 0.0
C662 C 0.61819 0.98788 0.29591 0.0
C663 C 0.62605 0.99521 0.22825 0.0
C664 C 0.61649 0.01679 0.34392 0.0
C665 C 0.62139 0.05483 0.32648 0.0
H666 H 0.61289 0.95951 0.31218 0.0
H667 H 0.61023 0.00917 0.39506 0.0
S668 S 0.64116 0.0894 0.155 0.0
N669 N 0.63827 0.04352 0.14603 0.0
N670 N 0.63411 0.09789 0.23503 0.0
C671 C 0.62894 0.06259 0.2586 0.0
C672 C 0.63141 0.03291 0.20998 0.0
C673 C 0.99209 0.36922 0.82957 0.0
C674 C 0.99725 0.37812 0.89758 0.0
C675 C 0.02176 0.3713 0.78312 0.0
C676 C 0.05818 0.38317 0.80175 0.0
H677 H 0.96448 0.36252 0.81092 0.0
H678 H 0.01561 0.36454 0.73148 0.0
S679 S 0.08583 0.41259 0.97326 0.0
N680 N 0.04128 0.40102 0.98051 0.0
N681 N 0.09678 0.40507 0.89439 0.0
C682 C 0.06359 0.39243 0.8698 0.0
C683 C 0.03327 0.39018 0.91701 0.0
C684 C 0.35074 0.51431 0.13449 0.0
C685 C 0.38364 0.49602 0.1572 0.0
C686 C 0.35183 0.54304 0.08514 0.0
C687 C 0.38604 0.5561 1.05889 0.0
H688 H 0.32381 0.50587 0.15393 0.0
H689 H 0.32573 0.55527 0.06775 0.0
S690 S 0.48043 0.52266 0.10874 0.0
N691 N 0.45175 0.49643 0.15301 0.0
N692 N 0.45349 0.55106 0.06433 0.0
C693 C 0.41903 0.53999 0.08453 0.0
C694 C 0.41796 0.51014 0.13291 0.0
C695 C 0.54577 0.58835 1.02705 0.0
C696 C 0.55953 0.62109 1.05724 0.0
C697 C 0.51611 0.58947 0.98012 0.0
C698 C 0.49897 0.62344 0.95996 0.0
H699 H 0.55728 0.5614 1.04129 0.0
H700 H 0.50596 0.56309 0.96052 0.0
S701 S 0.53131 0.71793 1.01159 0.0
N702 N 0.55733 0.68901 1.057 0.0
N703 N 0.50394 0.6913 0.96469 0.0
C704 C 0.51493 0.6567 0.98521 0.0
C705 C 0.54442 0.65547 1.03498 0.0
C706 C 0.58676 0.49733 0.12032 0.0
C707 C 0.62056 0.50771 0.15241 0.0
C708 C 0.58511 0.46835 0.07261 0.0
C709 C 0.61719 0.44793 1.05487 0.0
H710 H 0.56119 0.51219 0.13147 0.0
H711 H 0.55845 0.46207 1.04902 0.0
S712 S 0.7122 0.46064 0.12767 0.0
N713 N 0.68661 0.49262 0.1658 0.0
N714 N 0.68362 0.43865 0.07562 0.0
C715 C 0.65106 0.45703 0.08764 0.0
C716 C 0.65272 0.48664 0.13654 0.0
C717 C 0.45748 0.41437 1.04048 0.0
C718 C 0.44243 0.38155 0.06836 0.0
C719 C 0.48762 0.41328 0.9953 0.0
C720 C 0.50385 0.37922 0.97386 0.0
H721 H 0.44631 0.44136 1.05475 0.0
H722 H 0.49843 0.43975 0.97727 0.0
S723 S 0.47059 0.28474 1.02413 0.0
N724 N 0.44423 0.31363 0.06793 0.0
N725 N 0.49859 0.31139 0.97888 0.0
C726 C 0.48759 0.34597 0.99864 0.0
C727 C 0.45758 0.34718 1.04678 0.0
C728 C 0.91767 0.46787 0.79713 0.0
C729 C 0.88512 0.44846 0.81587 0.0
C730 C 0.91653 0.49722 0.74961 0.0
C731 C 0.88278 0.50877 0.71822 0.0
H732 H 0.94432 0.46055 0.81995 0.0
H733 H 0.94253 0.51128 0.73794 0.0
S734 S 0.7897 0.46567 0.74745 0.0
N735 N 0.81808 0.44243 0.79847 0.0
N736 N 0.81607 0.49645 0.70777 0.0
C737 C 0.85006 0.48901 0.73564 0.0
C738 C 0.85121 0.45925 0.7847 0.0
C739 C 0.51521 0.10702 0.33821 0.0
C740 C 0.50895 0.12365 0.40093 0.0
C741 C 0.48711 0.10583 0.2883 0.0
C742 C 0.45073 0.11974 0.29958 0.0
H743 H 0.54207 0.0945 0.32741 0.0
H744 H 0.4937 0.09276 0.24104 0.0
S745 S 0.41876 0.16417 0.4568 0.0
N746 N 0.46322 0.15392 0.47183 0.0
N747 N 0.40988 0.15 0.37976 0.0
C748 C 0.4438 0.13587 0.36262 0.0
C749 C 0.47293 0.1382 0.41274 0.0
C750 C 0.11429 0.52139 0.83897 0.0
C751 C 0.1259 0.55832 0.82439 0.0
C752 C 0.11479 0.49276 0.79032 0.0
C753 C 0.12859 0.49888 0.72536 0.0
H754 H 0.10293 0.51486 0.88767 0.0
H755 H 0.10362 0.46566 0.80364 0.0
S756 S 0.1644 0.58968 0.66165 0.0
N757 N 0.15208 0.59905 0.73928 0.0
N758 N 0.15529 0.54478 0.64983 0.0
C759 C 0.14158 0.53525 0.71063 0.0
C760 C 0.13974 0.56492 0.75949 0.0
C761 C 0.5373 0.91478 0.3162 0.0
C762 C 0.5574 0.88234 0.29912 0.0
C763 C 0.50825 0.91395 0.36367 0.0
C764 C 0.49741 0.88054 0.39639 0.0
H765 H 0.54398 0.9412 0.29238 0.0
H766 H 0.4939 0.93997 0.3744 0.0
S767 S 0.54133 0.78749 0.36964 0.0
N768 N 0.56441 0.81557 0.31863 0.0
N769 N 0.51014 0.81395 0.40797 0.0
C770 C 0.51729 0.84774 0.37962 0.0
C771 C 0.5471 0.84866 0.3311 0.0
C772 C 0.8554 0.02322 0.6453 0.0
C773 C 0.88426 0.99614 0.64928 0.0
C774 C 0.85668 0.05332 0.59849 0.0
C775 C 0.88639 0.05705 0.55262 0.0
H776 H 0.83203 0.02157 0.67935 0.0
H777 H 0.83404 0.07354 0.59767 0.0
S778 S 0.96808 0.99326 0.53984 0.0
N779 N 0.94332 0.97559 0.60172 0.0
N780 N 0.94465 0.03045 0.51351 0.0
C781 C 0.91483 0.02983 0.55534 0.0
C782 C 0.91406 0.99993 0.6036 0.0
C783 C 0.02203 0.12936 0.58292 0.0
C784 C 0.0591 0.12159 0.56267 0.0
C785 C 0.99186 0.13102 0.53685 0.0
C786 C 0.99707 0.12614 0.46796 0.0
H787 H 0.01589 0.13312 0.63536 0.0
H788 H 0.96387 0.13457 0.55569 0.0
S789 S 0.08708 0.10176 0.38766 0.0
N790 N 0.09829 0.10639 0.46747 0.0
N791 N 0.0417 0.11036 0.38189 0.0
C792 C 0.03361 0.11761 0.44676 0.0
C793 C 0.06449 0.11542 0.49363 0.0
C794 C 0.10213 0.9813 0.54424 0.0
C795 C 0.12504 0.94924 0.55041 0.0
C796 C 0.10285 0.01024 0.59215 0.0
C797 C 0.12756 0.00945 0.64752 0.0
H798 H 0.08262 0.98362 0.5027 0.0
H799 H 0.08382 0.03364 0.58547 0.0
S800 S 0.19421 0.93243 0.68658 0.0
N801 N 0.17308 0.91843 0.61724 0.0
N802 N 0.17601 0.97372 0.70494 0.0
C803 C 0.15128 0.97798 0.65363 0.0
C804 C 0.14958 0.94772 0.6059 0.0
C805 C 0.97139 0.87263 0.45761 0.0
C806 C 0.00905 0.87908 0.47659 0.0
C807 C 0.94164 0.8748 0.50445 0.0
C808 C 0.94834 0.88278 0.5727 0.0
H809 H 0.96469 0.8669 0.40577 0.0
H810 H 0.91322 0.87025 0.48699 0.0
S811 S 0.04138 0.90406 0.64784 0.0
N812 N 0.05018 0.89613 0.56842 0.0
N813 N 0.99584 0.89812 0.65565 0.0
C814 C 0.98585 0.88901 0.59201 0.0
C815 C 0.01567 0.88783 0.54429 0.0
C816 C 0.35009 0.23579 0.09762 0.0
C817 C 0.35324 0.21196 0.15319 0.0
C818 C 0.34834 0.27492 0.10528 0.0
C819 C 0.34951 0.29207 0.16882 0.0
H820 H 0.34715 0.22404 1.048 0.0
H821 H 0.34422 0.2919 0.06083 0.0
S822 S 0.35871 0.24199 0.33051 0.0
N823 N 0.35874 0.20821 0.27418 0.0
N824 N 0.3553 0.28177 0.28831 0.0
C825 C 0.35446 0.26866 0.22473 0.0
C826 C 0.35622 0.22863 0.21694 0.0
C827 C 0.26819 0.62895 0.90737 0.0
C828 C 0.29004 0.65794 0.93507 0.0
C829 C 0.2289 0.62771 0.91666 0.0
C830 C 0.21028 0.65481 0.95547 0.0
H831 H 0.28117 0.6084 0.87524 0.0
H832 H 0.21273 0.60696 0.88965 0.0
S833 S 0.25487 0.73345 1.04606 0.0
N834 N 0.29001 0.7122 1.00865 0.0
N835 N 0.21699 0.70952 1.02549 0.0
C836 C 0.23215 0.68227 0.98681 0.0
C837 C 0.27178 0.68388 0.97696 0.0
C838 C 0.63294 0.77301 0.18257 0.0
C839 C 0.66293 0.79141 0.15058 0.0
C840 C 0.63427 0.73407 0.1968 0.0
C841 C 0.66585 0.71214 0.18051 0.0
H842 H 0.60891 0.789 0.19894 0.0
H843 H 0.61091 0.72127 0.22243 0.0
S844 S 0.74957 0.74609 0.08855 0.0
N845 N 0.72327 0.78376 0.09735 0.0
N846 N 0.72624 0.71176 0.12456 0.0
C847 C 0.69516 0.73012 0.14588 0.0
C848 C 0.69354 0.76933 0.1308 0.0
C849 C 0.7632 0.35075 1.00358 0.0
C850 C 0.7904 0.35287 0.95325 0.0
C851 C 0.72458 0.35057 0.98773 0.0
C852 C 0.71169 0.35202 0.9209 0.0
H853 H 0.77183 0.34792 1.05537 0.0
H854 H 0.70463 0.34769 1.02797 0.0
S855 S 0.77133 0.35785 0.77075 0.0
N856 N 0.80153 0.35702 0.83377 0.0
N857 N 0.72924 0.35615 0.80445 0.0
C858 C 0.73852 0.35501 0.87036 0.0
C859 C 0.77777 0.35555 0.88642 0.0
C860 C 0.80808 0.73499 0.66498 0.0
C861 C 0.84173 0.71442 0.66033 0.0
C862 C 0.80764 0.7729 0.68342 0.0
C863 C 0.84081 0.79289 0.69711 0.0
H864 H 0.78144 0.72156 0.65537 0.0
H865 H 0.78064 0.78674 0.6862 0.0
S866 S 0.93692 0.75297 0.69086 0.0
N867 N 0.90957 0.71732 0.67098 0.0
N868 N 0.90877 0.78903 0.70358 0.0
C869 C 0.87493 0.773 0.69184 0.0
C870 C 0.87532 0.73386 0.67383 0.0
C871 C 0.77101 0.1938 0.44511 0.0
C872 C 0.78998 0.16153 0.42287 0.0
C873 C 0.73346 0.19278 0.46498 0.0
C874 C 0.71221 0.15963 0.46248 0.0
H875 H 0.78529 0.2205 0.4479 0.0
H876 H 0.72071 0.21877 0.48103 0.0
S877 S 0.7481 0.06672 0.40925 0.0
N878 N 0.78467 0.09476 0.4017 0.0
N879 N 0.71336 0.09308 0.43663 0.0
C880 C 0.7307 0.12681 0.44115 0.0
C881 C 0.76957 0.12773 0.42183 0.0
C882 C 0.13433 0.2748 0.68565 0.0
C883 C 0.16549 0.29406 0.65914 0.0
C884 C 0.13551 0.23559 0.69847 0.0
C885 C 0.16804 0.21413 0.68628 0.0
H886 H 0.10926 0.29024 0.69836 0.0
H887 H 0.11107 0.22217 0.7195 0.0
S888 S 0.25593 0.25063 0.6108 0.0
N889 N 0.22859 0.28774 0.61628 0.0
N890 N 0.23131 0.21557 0.64137 0.0
C891 C 0.19884 0.23313 0.65784 0.0
C892 C 0.1974 0.27255 0.64403 0.0
C893 C 0.27571 0.87455 0.42491 0.0
C894 C 0.29198 0.84756 0.46814 0.0
C895 C 0.23724 0.87295 0.40653 0.0
C896 C 0.21377 0.84402 0.42984 0.0
H897 H 0.2931 0.89604 0.40278 0.0
H898 H 0.22615 0.89373 0.37211 0.0
S899 S 0.24184 0.76964 0.55137 0.0
N900 N 0.28069 0.79349 0.53851 0.0
N901 N 0.20947 0.79019 0.50471 0.0
C902 C 0.22956 0.81814 0.47579 0.0
C903 C 0.26828 0.82 0.49464 0.0
C904 C 0.22008 0.10697 0.93391 0.0
C905 C 0.23158 0.09353 0.87027 0.0
C906 C 0.24348 0.10567 0.99189 0.0
C907 C 0.28024 0.09117 0.99016 0.0
H908 H 0.19255 0.11928 0.93929 0.0
H909 H 0.23296 0.11723 1.03805 0.0
S910 S 0.32353 0.04817 0.83974 0.0
N911 N 0.28214 0.06238 0.81222 0.0
N912 N 0.32581 0.06019 0.91931 0.0
C913 C 0.29185 0.0767 0.92748 0.0
C914 C 0.26786 0.0778 0.86848 0.0
C915 C 0.10499 0.76493 0.1244 0.0
C916 C 0.0906 0.72813 0.12713 0.0
C917 C 0.10657 0.78855 0.18182 0.0
C918 C 0.09367 0.77717 0.24604 0.0
H919 H 0.11614 0.77541 0.07775 0.0
H920 H 0.11861 0.81612 0.17562 0.0
S921 S 0.04849 0.68544 0.27944 0.0
N922 N 0.0602 0.68285 0.19991 0.0
N923 N 0.0628 0.72688 0.30558 0.0
C924 C 0.07807 0.74091 0.24884 0.0
C925 C 0.07664 0.71672 0.1905 0.0
C926 C 0.7653 0.89905 0.99816 0.0
C927 C 0.72857 0.91368 0.996 0.0
C928 C 0.78862 0.89821 0.94056 0.0
C929 C 0.77704 0.91218 0.87679 0.0
H930 H 0.7759 0.88704 1.04438 0.0
H931 H 0.81617 0.88592 0.94632 0.0
S932 S 0.68542 0.95864 0.84598 0.0
N933 N 0.68311 0.94558 0.92503 0.0
N934 N 0.72658 0.9444 0.81869 0.0
C935 C 0.74085 0.92812 0.87476 0.0
C936 C 0.71694 0.92874 0.93334 0.0
C937 C 0.89628 0.29065 0.19092 0.0
C938 C 0.90914 0.27868 0.12714 0.0
C939 C 0.89718 0.26724 0.24895 0.0
C940 C 0.91099 0.23016 0.24719 0.0
H941 H 0.88472 0.31852 0.19626 0.0
H942 H 0.88589 0.27802 0.29512 0.0
S943 S 0.95361 0.18626 0.09743 0.0
N944 N 0.93971 0.22762 0.06953 0.0
N945 N 0.94134 0.18418 0.17667 0.0
C946 C 0.9251 0.21828 0.18455 0.0
C947 C 0.92423 0.24214 0.12551 0.0
C948 C 0.2373 0.40015 0.37129 0.0
C949 C 0.27366 0.41561 0.37131 0.0
C950 C 0.21481 0.3991 0.42996 0.0
C951 C 0.22692 0.41362 0.49284 0.0
H952 H 0.22648 0.38757 0.32602 0.0
H953 H 0.18752 0.38611 0.42579 0.0
S954 S 0.31757 0.4624 0.51873 0.0
N955 N 0.31916 0.44905 0.43982 0.0
N956 N 0.27717 0.44727 0.54793 0.0
C957 C 0.26266 0.4304 0.49286 0.0
C958 C 0.2857 0.43134 0.43318 0.0
C959 C 0.42606 0.76128 0.74865 0.0
C960 C 0.40595 0.72713 0.74886 0.0
C961 C 0.4276 0.78503 0.69092 0.0
C962 C 0.40976 0.77593 0.62924 0.0
H963 H 0.44096 0.76978 0.79339 0.0
H964 H 0.44311 0.81099 0.69476 0.0
S965 S 0.34819 0.69343 0.60472 0.0
N966 N 0.36408 0.68826 0.68188 0.0
N967 N 0.36788 0.73193 0.57573 0.0
C968 C 0.38889 0.74249 0.62928 0.0
C969 C 0.38681 0.71857 0.688 0.0
C970 C 0.71591 0.60536 0.43383 0.0
C971 C 0.72768 0.59201 0.37027 0.0
C972 C 0.73938 0.60473 0.49179 0.0
C973 C 0.77632 0.59068 0.49031 0.0
H974 H 0.68814 0.61717 0.4391 0.0
H975 H 0.7288 0.61657 0.53768 0.0
S976 S 0.82047 0.54823 0.34025 0.0
N977 N 0.77885 0.56164 0.31255 0.0
N978 N 0.82244 0.56037 0.41977 0.0
C979 C 0.78817 0.57624 0.42779 0.0
C980 C 0.76421 0.57684 0.36871 0.0
C981 C 0.5737 0.2196 0.68978 0.0
C982 C 0.59465 0.22719 0.63113 0.0
C983 C 0.57497 0.24319 0.74749 0.0
C984 C 0.59781 0.27554 0.7505 0.0
H985 H 0.55592 0.19506 0.69111 0.0
H986 H 0.55756 0.23615 0.78977 0.0
S987 S 0.66532 0.30281 0.61794 0.0
N988 N 0.64319 0.26658 0.58525 0.0
N989 N 0.64619 0.30999 0.69165 0.0
C990 C 0.62029 0.28218 0.69337 0.0
C991 C 0.61864 0.25842 0.63469 0.0
C992 C 0.36149 0.07279 0.62028 0.0
C993 C 0.35077 0.10488 0.58366 0.0
C994 C 0.37532 0.07542 0.68608 0.0
C995 C 0.37899 0.11026 0.71833 0.0
H996 H 0.35878 0.04526 0.5982 0.0
H997 H 0.38267 0.04981 0.71228 0.0
S998 S 0.35773 0.20311 0.64291 0.0
N999 N 0.34676 0.17288 0.58368 0.0
N1000 N 0.37252 0.17777 0.70708 0.0
C1001 C 0.36878 0.14262 0.68207 0.0
C1002 C 0.35475 0.13996 0.61498 0.0
C1003 C 0.10704 0.68128 0.48469 0.0
C1004 C 0.09583 0.65812 0.53793 0.0
C1005 C 0.11197 0.66684 0.41998 0.0
C1006 C 0.10604 0.62859 0.40579 0.0
H1007 H 0.11113 0.71099 0.49271 0.0
H1008 H 0.11957 0.68609 0.38044 0.0
S1009 S 0.08163 0.55524 0.53024 0.0
N1010 N 0.08205 0.59452 0.57353 0.0
N1011 N 0.09221 0.56726 0.45291 0.0
C1012 C 0.0964 0.6049 0.45948 0.0
C1013 C 0.09106 0.61967 0.52512 0.0
C1014 C 0.65631 0.93392 0.62847 0.0
C1015 C 0.65709 0.90212 0.58686 0.0
C1016 C 0.64147 0.9323 0.69328 0.0
C1017 C 0.62772 0.89859 0.72026 0.0
H1018 H 0.66765 0.96032 0.61124 0.0
H1019 H 0.6414 0.95761 0.72285 0.0
S1020 S 0.61858 0.80848 0.63004 0.0
N1021 N 0.63864 0.83678 0.57563 0.0
N1022 N 0.61275 0.83348 0.69844 0.0
C1023 C 0.62746 0.86682 0.67895 0.0
C1024 C 0.64174 0.86861 0.61229 0.0
C1025 C 0.91425 0.33814 0.41288 0.0
C1026 C 0.89659 0.37244 0.39681 0.0
C1027 C 0.9153 0.32432 0.47887 0.0
C1028 C 0.89862 0.34412 0.53164 0.0
H1029 H 0.92705 0.32157 0.37397 0.0
H1030 H 0.92884 0.29765 0.48852 0.0
S1031 S 0.85179 0.43678 0.51806 0.0
N1032 N 0.8641 0.42691 0.4407 0.0
N1033 N 0.86577 0.40081 0.56399 0.0
C1034 C 0.88132 0.37864 0.51655 0.0
C1035 C 0.88037 0.39278 0.44948 0.0
C1036 C 0.32865 0.38469 0.66458 0.0
C1037 C 0.36521 0.39654 0.64822 0.0
C1038 C 0.31381 0.39008 0.72891 0.0
C1039 C 0.33463 0.40811 0.77933 0.0
H1040 H 0.31102 0.37163 0.62707 0.0
H1041 H 0.28562 0.3806 0.7389 0.0
S1042 S 0.4326 0.44156 0.76542 0.0
N1043 N 0.42271 0.42466 0.69065 0.0
N1044 N 0.39428 0.43592 0.81 0.0
C1045 C 0.37125 0.41967 0.76416 0.0
C1046 C 0.38662 0.41368 0.69914 0.0
C1047 C 0.40974 0.67655 0.39679 0.0
C1048 C 0.40354 0.65295 0.34155 0.0
C1049 C 0.4078 0.66293 0.46268 0.0
C1050 C 0.3992 0.62516 0.47653 0.0
H1051 H 0.41565 0.706 0.38913 0.0
H1052 H 0.41257 0.6824 0.50316 0.0
S1053 S 0.38496 0.55066 0.34976 0.0
N1054 N 0.39164 0.58907 0.30526 0.0
N1055 N 0.38744 0.56372 0.42877 0.0
C1056 C 0.39382 0.60104 0.42171 0.0
C1057 C 0.39607 0.61485 0.35452 0.0
C1058 C 0.63172 0.61804 0.75592 0.0
C1059 C 0.66286 0.59537 0.77234 0.0
C1060 C 0.61871 0.62166 0.68973 0.0
C1061 C 0.636 0.60258 0.63672 0.0
H1062 H 0.61687 0.63288 0.79472 0.0
H1063 H 0.59449 0.63924 0.68017 0.0
S1064 S 0.71944 0.54072 0.65171 0.0
N1065 N 0.71152 0.55455 0.72897 0.0
N1066 N 0.68657 0.56065 0.6052 0.0
C1067 C 0.66713 0.57972 0.65228 0.0
C1068 C 0.68063 0.57629 0.71972 0.0
C1069 C 0.61524 0.34592 0.45805 0.0
C1070 C 0.60266 0.38228 0.47317 0.0
C1071 C 0.61369 0.33188 0.39262 0.0
C1072 C 0.59943 0.35364 0.33943 0.0
H1073 H 0.62586 0.3279 0.4973 0.0
H1074 H 0.62334 0.30356 0.38376 0.0
S1075 S 0.56548 0.4517 0.35118 0.0
N1076 N 0.57701 0.4404 0.4288 0.0
N1077 N 0.57421 0.41418 0.30577 0.0
C1078 C 0.58709 0.39023 0.35362 0.0
C1079 C 0.58866 0.40449 0.42039 0.0
C1080 C 0.85633 0.57434 0.12117 0.0
C1081 C 0.84546 0.60606 0.08364 0.0
C1082 C 0.87003 0.57765 0.18692 0.0
C1083 C 0.87331 0.6128 0.21819 0.0
H1084 H 0.85388 0.54661 0.09979 0.0
H1085 H 0.87762 0.55235 0.21385 0.0
S1086 S 0.85154 0.70485 0.1403 0.0
N1087 N 0.84099 0.67405 0.08176 0.0
N1088 N 0.8663 0.68014 0.20526 0.0
C1089 C 0.86291 0.64477 0.18109 0.0
C1090 C 0.8491 0.64144 0.11401 0.0
C1091 C 0.57106 0.14527 0.92931 0.0
C1092 C 0.60583 0.13528 0.90177 0.0
C1093 C 0.56843 0.1591 0.99486 0.0
C1094 C 0.60045 0.16337 1.03588 0.0
H1095 H 0.54566 0.14265 0.89973 0.0
H1096 H 0.54104 0.16668 1.01341 0.0
S1097 S 0.69794 0.13882 0.98853 0.0
N1098 N 0.67278 0.1293 0.92119 0.0
N1099 N 0.66803 0.15491 1.04406 0.0
C1100 C 0.63541 0.15332 1.00875 0.0
C1101 C 0.63804 0.13935 0.94196 0.0
C1102 C 0.13215 0.43452 0.18437 0.0
C1103 C 0.14176 0.40471 0.22756 0.0
C1104 C 0.14598 0.43649 0.11877 0.0
C1105 C 0.17016 0.40879 0.0934 0.0
H1106 H 0.11314 0.4562 0.20095 0.0
H1107 H 0.13691 0.45951 0.08715 0.0
S1108 S 0.20759 0.32733 0.18867 0.0
N1109 N 0.1792 0.34829 0.24159 0.0
N1110 N 0.20561 0.3523 0.11912 0.0
C1111 C 0.18091 0.37945 0.13678 0.0
C1112 C 0.16663 0.37732 0.20346 0.0
C1113 C 0.4108 0.82506 0.98363 0.0
C1114 C 0.40671 0.84936 1.0384 0.0
C1115 C 0.40871 0.83837 0.9175 0.0
C1116 C 0.40235 0.87655 0.90321 0.0
H1117 H 0.41605 0.7955 0.99192 0.0
H1118 H 0.4125 0.81859 0.87719 0.0
S1119 S 0.38668 0.95134 1.02851 0.0
N1120 N 0.39408 0.91322 0.0737 0.0
N1121 N 0.38999 0.93812 0.94978 0.0
C1122 C 0.39775 0.90108 0.95754 0.0
C1123 C 0.39996 0.88754 1.02489 0.0
C1124 C 0.83505 0.93066 0.23279 0.0
C1125 C 0.8437 0.90375 0.2822 0.0
C1126 C 0.84842 0.92723 0.16714 0.0
C1127 C 0.87098 0.89672 0.14808 0.0
H1128 H 0.81754 0.95447 0.2448 0.0
H1129 H 0.84077 0.94852 0.13082 0.0
S1130 S 0.90404 0.82002 0.25947 0.0
N1131 N 0.87789 0.84649 0.30803 0.0
N1132 N 0.9027 0.83996 0.18491 0.0
C1133 C 0.88002 0.86973 0.19705 0.0
C1134 C 0.8665 0.87327 0.26391 0.0
C1135 C 0.92429 0.1447 0.94707 0.0
C1136 C 0.88959 0.13386 0.97371 0.0
C1137 C 0.92701 0.16008 0.88263 0.0
C1138 C 0.89533 0.16409 0.8406 0.0
H1139 H 0.94965 0.14178 0.97657 0.0
H1140 H 0.95435 0.16907 0.86594 0.0
S1141 S 0.79842 0.13489 0.88371 0.0
N1142 N 0.82311 0.12596 0.95202 0.0
N1143 N 0.82831 0.15238 0.82938 0.0
C1144 C 0.86053 0.15199 0.86598 0.0
C1145 C 0.85767 0.13737 0.93257 0.0
C1146 C 0.13498 0.07747 0.17884 0.0
C1147 C 0.1457 0.10741 0.13716 0.0
C1148 C 0.14846 0.07432 0.24482 0.0
C1149 C 0.17327 0.10098 0.27201 0.0
H1150 H 0.1154 0.05662 0.16072 0.0
H1151 H 0.13869 0.05124 0.2753 0.0
S1152 S 0.21349 0.18222 0.1815 0.0
N1153 N 0.18497 0.16264 0.12645 0.0
N1154 N 0.21028 0.15669 0.25021 0.0
C1155 C 0.18503 0.13048 0.23034 0.0
C1156 C 0.17127 0.13371 0.16312 0.0
C1157 C 0.07383 0.86136 0.86838 0.0
C1158 C 0.10164 0.8374 0.84306 0.0
C1159 C 0.07557 0.87468 0.93438 0.0
C1160 C 0.10518 0.86458 0.97783 0.0
H1161 H 0.05091 0.8705 0.83647 0.0
H1162 H 0.05386 0.8936 0.95115 0.0
S1163 S 0.18256 0.79893 0.93838 0.0
N1164 N 0.15807 0.80181 0.86819 0.0
N1165 N 0.16132 0.82669 0.99207 0.0
C1166 C 0.13261 0.83981 0.95363 0.0
C1167 C 0.13084 0.82628 0.8864 0.0
loop_
_geom_bond_atom_site_label_1
_geom_bond_atom_site_label_2
_geom_bond_distance
_geom_bond_site_symmetry_2
_ccdc_geom_bond_type
La0 C2 2.928 . S
La0 O20 2.521 . S
La0 O21 2.628 . S
La0 O22 2.554 . S
La0 O23 2.757 . S
La0 O24 2.470 . S
La0 O29 2.482 . S
La0 O31 2.503 . S
La1 C11 2.928 1_554 S
La1 O23 2.482 . S
La1 O25 2.503 . S
La1 O26 2.521 1_554 S
La1 O27 2.628 1_554 S
La1 O28 2.554 . S
La1 O29 2.757 . S
La1 O30 2.470 . S
C2 La0 2.928 . S
C2 C3 1.503 . S
C2 O20 1.261 . S
C2 O21 1.243 . S
C3 C2 1.503 . S
C3 C4 1.394 . S
C3 C8 1.373 . S
C4 C3 1.394 . S
C4 C5 1.380 . S
C4 H32 0.930 . S
C5 C4 1.380 . S
C5 C6 1.376 . S
C5 H33 0.930 . S
C6 C5 1.376 . S
C6 C7 1.370 . S
C7 C6 1.370 . S
C7 C8 1.396 . S
C7 H34 0.929 . S
C8 C3 1.373 . S
C8 C7 1.396 . S
C8 H35 0.929 . S
C9 O22 1.240 . S
C9 O23 1.289 . S
C10 O24 1.258 . S
C10 O25 1.256 . S
C11 La1 2.928 1_556 S
C11 C12 1.503 . S
C11 O26 1.261 . S
C11 O27 1.243 . S
C12 C11 1.503 . S
C12 C13 1.394 . S
C12 C17 1.373 . S
C13 C12 1.394 . S
C13 C14 1.380 . S
C13 H36 0.930 . S
C14 C13 1.380 . S
C14 C15 1.376 . S
C14 H37 0.930 . S
C15 C14 1.376 . S
C15 C16 1.370 . S
C16 C15 1.370 . S
C16 C17 1.396 . S
C16 H38 0.929 . S
C17 C12 1.373 . S
C17 C16 1.396 . S
C17 H39 0.929 . S
C18 O28 1.240 . S
C18 O29 1.289 . S
C19 O30 1.258 . S
C19 O31 1.256 . S
O20 La0 2.521 . S
O20 C2 1.261 . S
O21 La0 2.628 . S
O21 C2 1.243 . S
O22 La0 2.554 . S
O22 C9 1.240 . S
O23 La0 2.757 . S
O23 La1 2.482 . S
O23 C9 1.289 . S
O24 La0 2.470 . S
O24 C10 1.258 . S
O25 La1 2.503 . S
O25 C10 1.256 . S
O26 La1 2.521 1_556 S
O26 C11 1.261 . S
O27 La1 2.628 1_556 S
O27 C11 1.243 . S
O28 La1 2.554 . S
O28 C18 1.240 . S
O29 La0 2.482 . S
O29 La1 2.757 . S
O29 C18 1.289 . S
O30 La1 2.470 . S
O30 C19 1.258 . S
O31 La0 2.503 . S
O31 C19 1.256 . S
H32 C4 0.930 . S
H33 C5 0.930 . S
H34 C7 0.929 . S
H35 C8 0.929 . S
H36 C13 0.930 . S
H37 C14 0.930 . S
H38 C16 0.929 . S
H39 C17 0.929 . S
La40 C42 2.928 1_556 S
La40 O60 2.521 1_556 S
La40 O61 2.628 1_556 S
La40 O62 2.554 . S
La40 O63 2.757 . S
La40 O64 2.470 . S
La40 O69 2.482 . S
La40 O71 2.503 . S
La41 C51 2.928 . S
La41 O63 2.482 . S
La41 O65 2.503 . S
La41 O66 2.521 . S
La41 O67 2.628 . S
La41 O68 2.554 . S
La41 O69 2.757 . S
La41 O70 2.470 . S
C42 La40 2.928 1_554 S
C42 C43 1.503 . S
C42 O60 1.261 . S
C42 O61 1.243 . S
C43 C42 1.503 . S
C43 C44 1.394 . S
C43 C48 1.373 . S
C44 C43 1.394 . S
C44 C45 1.380 . S
C44 H72 0.930 . S
C45 C44 1.380 . S
C45 C46 1.376 . S
C45 H73 0.930 . S
C46 C45 1.376 . S
C46 C47 1.370 . S
C47 C46 1.370 . S
C47 C48 1.396 . S
C47 H74 0.929 . S
C48 C43 1.373 . S
C48 C47 1.396 . S
C48 H75 0.929 . S
C49 O62 1.240 . S
C49 O63 1.289 . S
C50 O64 1.258 . S
C50 O65 1.256 . S
C51 La41 2.928 . S
C51 C52 1.503 . S
C51 O66 1.261 . S
C51 O67 1.243 . S
C52 C51 1.503 . S
C52 C53 1.394 . S
C52 C57 1.373 . S
C53 C52 1.394 . S
C53 C54 1.380 . S
C53 H76 0.930 . S
C54 C53 1.380 . S
C54 C55 1.376 . S
C54 H77 0.930 . S
C55 C54 1.376 . S
C55 C56 1.370 . S
C56 C55 1.370 . S
C56 C57 1.396 . S
C56 H78 0.929 . S
C57 C52 1.373 . S
C57 C56 1.396 . S
C57 H79 0.929 . S
C58 O68 1.240 . S
C58 O69 1.289 . S
C59 O70 1.258 . S
C59 O71 1.256 . S
O60 La40 2.521 1_554 S
O60 C42 1.261 . S
O61 La40 2.628 1_554 S
O61 C42 1.243 . S
O62 La40 2.554 . S
O62 C49 1.240 . S
O63 La40 2.757 . S
O63 La41 2.482 . S
O63 C49 1.289 . S
O64 La40 2.470 . S
O64 C50 1.258 . S
O65 La41 2.503 . S
O65 C50 1.256 . S
O66 La41 2.521 . S
O66 C51 1.261 . S
O67 La41 2.628 . S
O67 C51 1.243 . S
O68 La41 2.554 . S
O68 C58 1.240 . S
O69 La40 2.482 . S
O69 La41 2.757 . S
O69 C58 1.289 . S
O70 La41 2.470 . S
O70 C59 1.258 . S
O71 La40 2.503 . S
O71 C59 1.256 . S
H72 C44 0.930 . S
H73 C45 0.930 . S
H74 C47 0.929 . S
H75 C48 0.929 . S
H76 C53 0.930 . S
H77 C54 0.930 . S
H78 C56 0.929 . S
H79 C57 0.929 . S
La80 C82 2.928 . S
La80 O100 2.521 . S
La80 O101 2.628 . S
La80 O102 2.554 . S
La80 O103 2.757 . S
La80 O104 2.470 . S
La80 O109 2.482 . S
La80 O111 2.503 . S
La81 C91 2.928 1_554 S
La81 O103 2.482 . S
La81 O105 2.503 . S
La81 O106 2.521 1_554 S
La81 O107 2.628 1_554 S
La81 O108 2.554 . S
La81 O109 2.757 . S
La81 O110 2.470 . S
C82 La80 2.928 . S
C82 C83 1.503 . S
C82 O100 1.261 . S
C82 O101 1.243 . S
C83 C82 1.503 . S
C83 C84 1.394 . S
C83 C88 1.373 . S
C84 C83 1.394 . S
C84 C85 1.380 . S
C84 H112 0.930 . S
C85 C84 1.380 . S
C85 C86 1.376 . S
C85 H113 0.930 . S
C86 C85 1.376 . S
C86 C87 1.370 . S
C87 C86 1.370 . S
C87 C88 1.396 . S
C87 H114 0.929 . S
C88 C83 1.373 . S
C88 C87 1.396 . S
C88 H115 0.929 . S
C89 O102 1.240 . S
C89 O103 1.289 . S
C90 O104 1.258 . S
C90 O105 1.256 . S
C91 La81 2.928 1_556 S
C91 C92 1.503 . S
C91 O106 1.261 . S
C91 O107 1.243 . S
C92 C91 1.503 . S
C92 C93 1.394 . S
C92 C97 1.373 . S
C93 C92 1.394 . S
C93 C94 1.380 . S
C93 H116 0.930 . S
C94 C93 1.380 . S
C94 C95 1.376 . S
C94 H117 0.930 . S
C95 C94 1.376 . S
C95 C96 1.370 . S
C96 C95 1.370 . S
C96 C97 1.396 . S
C96 H118 0.929 . S
C97 C92 1.373 . S
C97 C96 1.396 . S
C97 H119 0.929 . S
C98 O108 1.240 . S
C98 O109 1.289 . S
C99 O110 1.258 . S
C99 O111 1.256 . S
O100 La80 2.521 . S
O100 C82 1.261 . S
O101 La80 2.628 . S
O101 C82 1.243 . S
O102 La80 2.554 . S
O102 C89 1.240 . S
O103 La80 2.757 . S
O103 La81 2.482 . S
O103 C89 1.289 . S
O104 La80 2.470 . S
O104 C90 1.258 . S
O105 La81 2.503 . S
O105 C90 1.256 . S
O106 La81 2.521 1_556 S
O106 C91 1.261 . S
O107 La81 2.628 1_556 S
O107 C91 1.243 . S
O108 La81 2.554 . S
O108 C98 1.240 . S
O109 La80 2.482 . S
O109 La81 2.757 . S
O109 C98 1.289 . S
O110 La81 2.470 . S
O110 C99 1.258 . S
O111 La80 2.503 . S
O111 C99 1.256 . S
H112 C84 0.930 . S
H113 C85 0.930 . S
H114 C87 0.929 . S
H115 C88 0.929 . S
H116 C93 0.930 . S
H117 C94 0.930 . S
H118 C96 0.929 . S
H119 C97 0.929 . S
La120 C122 2.928 1_556 S
La120 O140 2.521 1_556 S
La120 O141 2.628 1_556 S
La120 O142 2.554 . S
La120 O143 2.757 . S
La120 O144 2.470 . S
La120 O149 2.482 . S
La120 O151 2.503 . S
La121 C131 2.928 . S
La121 O143 2.482 . S
La121 O145 2.503 . S
La121 O146 2.521 . S
La121 O147 2.628 . S
La121 O148 2.554 . S
La121 O149 2.757 . S
La121 O150 2.470 . S
C122 La120 2.928 1_554 S
C122 C123 1.503 . S
C122 O140 1.261 . S
C122 O141 1.243 . S
C123 C122 1.503 . S
C123 C124 1.394 . S
C123 C128 1.373 . S
C124 C123 1.394 . S
C124 C125 1.380 . S
C124 H152 0.930 . S
C125 C124 1.380 . S
C125 C126 1.376 . S
C125 H153 0.930 . S
C126 C125 1.376 . S
C126 C127 1.370 . S
C127 C126 1.370 . S
C127 C128 1.396 . S
C127 H154 0.929 . S
C128 C123 1.373 . S
C128 C127 1.396 . S
C128 H155 0.929 . S
C129 O142 1.240 . S
C129 O143 1.289 . S
C130 O144 1.258 . S
C130 O145 1.256 . S
C131 La121 2.928 . S
C131 C132 1.503 . S
C131 O146 1.261 . S
C131 O147 1.243 . S
C132 C131 1.503 . S
C132 C133 1.394 . S
C132 C137 1.373 . S
C133 C132 1.394 . S
C133 C134 1.380 . S
C133 H156 0.930 . S
C134 C133 1.380 . S
C134 C135 1.376 . S
C134 H157 0.930 . S
C135 C134 1.376 . S
C135 C136 1.370 . S
C136 C135 1.370 . S
C136 C137 1.396 . S
C136 H158 0.929 . S
C137 C132 1.373 . S
C137 C136 1.396 . S
C137 H159 0.929 . S
C138 O148 1.240 . S
C138 O149 1.289 . S
C139 O150 1.258 . S
C139 O151 1.256 . S
O140 La120 2.521 1_554 S
O140 C122 1.261 . S
O141 La120 2.628 1_554 S
O141 C122 1.243 . S
O142 La120 2.554 . S
O142 C129 1.240 . S
O143 La120 2.757 . S
O143 La121 2.482 . S
O143 C129 1.289 . S
O144 La120 2.470 . S
O144 C130 1.258 . S
O145 La121 2.503 . S
O145 C130 1.256 . S
O146 La121 2.521 . S
O146 C131 1.261 . S
O147 La121 2.628 . S
O147 C131 1.243 . S
O148 La121 2.554 . S
O148 C138 1.240 . S
O149 La120 2.482 . S
O149 La121 2.757 . S
O149 C138 1.289 . S
O150 La121 2.470 . S
O150 C139 1.258 . S
O151 La120 2.503 . S
O151 C139 1.256 . S
H152 C124 0.930 . S
H153 C125 0.930 . S
H154 C127 0.929 . S
H155 C128 0.929 . S
H156 C133 0.930 . S
H157 C134 0.930 . S
H158 C136 0.929 . S
H159 C137 0.929 . S
La160 C162 2.928 1_554 S
La160 O180 2.521 1_554 S
La160 O181 2.628 1_554 S
La160 O182 2.554 . S
La160 O183 2.757 . S
La160 O184 2.470 . S
La160 O189 2.482 . S
La160 O191 2.503 . S
La161 C171 2.928 . S
La161 O183 2.482 . S
La161 O185 2.503 . S
La161 O186 2.521 . S
La161 O187 2.628 . S
La161 O188 2.554 . S
La161 O189 2.757 . S
La161 O190 2.470 . S
C162 La160 2.928 1_556 S
C162 C163 1.503 . S
C162 O180 1.261 . S
C162 O181 1.243 . S
C163 C162 1.503 . S
C163 C164 1.394 . S
C163 C168 1.373 . S
C164 C163 1.394 . S
C164 C165 1.380 . S
C164 H192 0.930 . S
C165 C164 1.380 . S
C165 C166 1.376 . S
C165 H193 0.930 . S
C166 C165 1.376 . S
C166 C167 1.370 . S
C167 C166 1.370 . S
C167 C168 1.396 . S
C167 H194 0.929 . S
C168 C163 1.373 . S
C168 C167 1.396 . S
C168 H195 0.929 . S
C169 O182 1.240 . S
C169 O183 1.289 . S
C170 O184 1.258 . S
C170 O185 1.256 . S
C171 La161 2.928 . S
C171 C172 1.503 . S
C171 O186 1.261 . S
C171 O187 1.243 . S
C172 C171 1.503 . S
C172 C173 1.394 . S
C172 C177 1.373 . S
C173 C172 1.394 . S
C173 C174 1.380 . S
C173 H196 0.930 . S
C174 C173 1.380 . S
C174 C175 1.376 . S
C174 H197 0.930 . S
C175 C174 1.376 . S
C175 C176 1.370 . S
C176 C175 1.370 . S
C176 C177 1.396 . S
C176 H198 0.929 . S
C177 C172 1.373 . S
C177 C176 1.396 . S
C177 H199 0.929 . S
C178 O188 1.240 . S
C178 O189 1.289 . S
C179 O190 1.258 . S
C179 O191 1.256 . S
O180 La160 2.521 1_556 S
O180 C162 1.261 . S
O181 La160 2.628 1_556 S
O181 C162 1.243 . S
O182 La160 2.554 . S
O182 C169 1.240 . S
O183 La160 2.757 . S
O183 La161 2.482 . S
O183 C169 1.289 . S
O184 La160 2.470 . S
O184 C170 1.258 . S
O185 La161 2.503 . S
O185 C170 1.256 . S
O186 La161 2.521 . S
O186 C171 1.261 . S
O187 La161 2.628 . S
O187 C171 1.243 . S
O188 La161 2.554 . S
O188 C178 1.240 . S
O189 La160 2.482 . S
O189 La161 2.757 . S
O189 C178 1.289 . S
O190 La161 2.470 . S
O190 C179 1.258 . S
O191 La160 2.503 . S
O191 C179 1.256 . S
H192 C164 0.930 . S
H193 C165 0.930 . S
H194 C167 0.929 . S
H195 C168 0.929 . S
H196 C173 0.930 . S
H197 C174 0.930 . S
H198 C176 0.929 . S
H199 C177 0.929 . S
La200 C202 2.928 . S
La200 O220 2.521 . S
La200 O221 2.628 . S
La200 O222 2.554 . S
La200 O223 2.757 . S
La200 O224 2.470 . S
La200 O229 2.482 . S
La200 O231 2.503 . S
La201 C211 2.928 1_556 S
La201 O223 2.482 . S
La201 O225 2.503 . S
La201 O226 2.521 1_556 S
La201 O227 2.628 1_556 S
La201 O228 2.554 . S
La201 O229 2.757 . S
La201 O230 2.470 . S
C202 La200 2.928 . S
C202 C203 1.503 . S
C202 O220 1.261 . S
C202 O221 1.243 . S
C203 C202 1.503 . S
C203 C204 1.394 . S
C203 C208 1.373 . S
C204 C203 1.394 . S
C204 C205 1.380 . S
C204 H232 0.930 . S
C205 C204 1.380 . S
C205 C206 1.376 . S
C205 H233 0.930 . S
C206 C205 1.376 . S
C206 C207 1.370 . S
C207 C206 1.370 . S
C207 C208 1.396 . S
C207 H234 0.929 . S
C208 C203 1.373 . S
C208 C207 1.396 . S
C208 H235 0.929 . S
C209 O222 1.240 . S
C209 O223 1.289 . S
C210 O224 1.258 . S
C210 O225 1.256 . S
C211 La201 2.928 1_554 S
C211 C212 1.503 . S
C211 O226 1.261 . S
C211 O227 1.243 . S
C212 C211 1.503 . S
C212 C213 1.394 . S
C212 C217 1.373 . S
C213 C212 1.394 . S
C213 C214 1.380 . S
C213 H236 0.930 . S
C214 C213 1.380 . S
C214 C215 1.376 . S
C214 H237 0.930 . S
C215 C214 1.376 . S
C215 C216 1.370 . S
C216 C215 1.370 . S
C216 C217 1.396 . S
C216 H238 0.929 . S
C217 C212 1.373 . S
C217 C216 1.396 . S
C217 H239 0.929 . S
C218 O228 1.240 . S
C218 O229 1.289 . S
C219 O230 1.258 . S
C219 O231 1.256 . S
O220 La200 2.521 . S
O220 C202 1.261 . S
O221 La200 2.628 . S
O221 C202 1.243 . S
O222 La200 2.554 . S
O222 C209 1.240 . S
O223 La200 2.757 . S
O223 La201 2.482 . S
O223 C209 1.289 . S
O224 La200 2.470 . S
O224 C210 1.258 . S
O225 La201 2.503 . S
O225 C210 1.256 . S
O226 La201 2.521 1_554 S
O226 C211 1.261 . S
O227 La201 2.628 1_554 S
O227 C211 1.243 . S
O228 La201 2.554 . S
O228 C218 1.240 . S
O229 La200 2.482 . S
O229 La201 2.757 . S
O229 C218 1.289 . S
O230 La201 2.470 . S
O230 C219 1.258 . S
O231 La200 2.503 . S
O231 C219 1.256 . S
H232 C204 0.930 . S
H233 C205 0.930 . S
H234 C207 0.929 . S
H235 C208 0.929 . S
H236 C213 0.930 . S
H237 C214 0.930 . S
H238 C216 0.929 . S
H239 C217 0.929 . S
La240 C242 2.928 1_554 S
La240 O260 2.521 1_554 S
La240 O261 2.628 1_554 S
La240 O262 2.554 . S
La240 O263 2.757 . S
La240 O264 2.470 . S
La240 O269 2.482 . S
La240 O271 2.503 . S
La241 C251 2.928 . S
La241 O263 2.482 . S
La241 O265 2.503 . S
La241 O266 2.521 . S
La241 O267 2.628 . S
La241 O268 2.554 . S
La241 O269 2.757 . S
La241 O270 2.470 . S
C242 La240 2.928 1_556 S
C242 C243 1.503 . S
C242 O260 1.261 . S
C242 O261 1.243 . S
C243 C242 1.503 . S
C243 C244 1.394 . S
C243 C248 1.373 . S
C244 C243 1.394 . S
C244 C245 1.380 . S
C244 H272 0.930 . S
C245 C244 1.380 . S
C245 C246 1.376 . S
C245 H273 0.930 . S
C246 C245 1.376 . S
C246 C247 1.370 . S
C247 C246 1.370 . S
C247 C248 1.396 . S
C247 H274 0.929 . S
C248 C243 1.373 . S
C248 C247 1.396 . S
C248 H275 0.929 . S
C249 O262 1.240 . S
C249 O263 1.289 . S
C250 O264 1.258 . S
C250 O265 1.256 . S
C251 La241 2.928 . S
C251 C252 1.503 . S
C251 O266 1.261 . S
C251 O267 1.243 . S
C252 C251 1.503 . S
C252 C253 1.394 . S
C252 C257 1.373 . S
C253 C252 1.394 . S
C253 C254 1.380 . S
C253 H276 0.930 . S
C254 C253 1.380 . S
C254 C255 1.376 . S
C254 H277 0.930 . S
C255 C254 1.376 . S
C255 C256 1.370 . S
C256 C255 1.370 . S
C256 C257 1.396 . S
C256 H278 0.929 . S
C257 C252 1.373 . S
C257 C256 1.396 . S
C257 H279 0.929 . S
C258 O268 1.240 . S
C258 O269 1.289 . S
C259 O270 1.258 . S
C259 O271 1.256 . S
O260 La240 2.521 1_556 S
O260 C242 1.261 . S
O261 La240 2.628 1_556 S
O261 C242 1.243 . S
O262 La240 2.554 . S
O262 C249 1.240 . S
O263 La240 2.757 . S
O263 La241 2.482 . S
O263 C249 1.289 . S
O264 La240 2.470 . S
O264 C250 1.258 . S
O265 La241 2.503 . S
O265 C250 1.256 . S
O266 La241 2.521 . S
O266 C251 1.261 . S
O267 La241 2.628 . S
O267 C251 1.243 . S
O268 La241 2.554 . S
O268 C258 1.240 . S
O269 La240 2.482 . S
O269 La241 2.757 . S
O269 C258 1.289 . S
O270 La241 2.470 . S
O270 C259 1.258 . S
O271 La240 2.503 . S
O271 C259 1.256 . S
H272 C244 0.930 . S
H273 C245 0.930 . S
H274 C247 0.929 . S
H275 C248 0.929 . S
H276 C253 0.930 . S
H277 C254 0.930 . S
H278 C256 0.929 . S
H279 C257 0.929 . S
La280 C282 2.928 . S
La280 O300 2.521 . S
La280 O301 2.628 . S
La280 O302 2.554 . S
La280 O303 2.757 . S
La280 O304 2.470 . S
La280 O309 2.482 . S
La280 O311 2.503 . S
La281 C291 2.928 1_556 S
La281 O303 2.482 . S
La281 O305 2.503 . S
La281 O306 2.521 1_556 S
La281 O307 2.628 1_556 S
La281 O308 2.554 . S
La281 O309 2.757 . S
La281 O310 2.470 . S
C282 La280 2.928 . S
C282 C283 1.503 . S
C282 O300 1.261 . S
C282 O301 1.243 . S
C283 C282 1.503 . S
C283 C284 1.394 . S
C283 C288 1.373 . S
C284 C283 1.394 . S
C284 C285 1.380 . S
C284 H312 0.930 . S
C285 C284 1.380 . S
C285 C286 1.376 . S
C285 H313 0.930 . S
C286 C285 1.376 . S
C286 C287 1.370 . S
C287 C286 1.370 . S
C287 C288 1.396 . S
C287 H314 0.929 . S
C288 C283 1.373 . S
C288 C287 1.396 . S
C288 H315 0.929 . S
C289 O302 1.240 . S
C289 O303 1.289 . S
C290 O304 1.258 . S
C290 O305 1.256 . S
C291 La281 2.928 1_554 S
C291 C292 1.503 . S
C291 O306 1.261 . S
C291 O307 1.243 . S
C292 C291 1.503 . S
C292 C293 1.394 . S
C292 C297 1.373 . S
C293 C292 1.394 . S
C293 C294 1.380 . S
C293 H316 0.930 . S
C294 C293 1.380 . S
C294 C295 1.376 . S
C294 H317 0.930 . S
C295 C294 1.376 . S
C295 C296 1.370 . S
C296 C295 1.370 . S
C296 C297 1.396 . S
C296 H318 0.929 . S
C297 C292 1.373 . S
C297 C296 1.396 . S
C297 H319 0.929 . S
C298 O308 1.240 . S
C298 O309 1.289 . S
C299 O310 1.258 . S
C299 O311 1.256 . S
O300 La280 2.521 . S
O300 C282 1.261 . S
O301 La280 2.628 . S
O301 C282 1.243 . S
O302 La280 2.554 . S
O302 C289 1.240 . S
O303 La280 2.757 . S
O303 La281 2.482 . S
O303 C289 1.289 . S
O304 La280 2.470 . S
O304 C290 1.258 . S
O305 La281 2.503 . S
O305 C290 1.256 . S
O306 La281 2.521 1_554 S
O306 C291 1.261 . S
O307 La281 2.628 1_554 S
O307 C291 1.243 . S
O308 La281 2.554 . S
O308 C298 1.240 . S
O309 La280 2.482 . S
O309 La281 2.757 . S
O309 C298 1.289 . S
O310 La281 2.470 . S
O310 C299 1.258 . S
O311 La280 2.503 . S
O311 C299 1.256 . S
H312 C284 0.930 . S
H313 C285 0.930 . S
H314 C287 0.929 . S
H315 C288 0.929 . S
H316 C293 0.930 . S
H317 C294 0.930 . S
H318 C296 0.929 . S
H319 C297 0.929 . S
La320 C322 2.928 . S
La320 O340 2.521 . S
La320 O341 2.628 . S
La320 O342 2.554 . S
La320 O343 2.757 . S
La320 O344 2.470 . S
La320 O349 2.482 . S
La320 O351 2.503 . S
La321 C331 2.928 . S
La321 O343 2.482 . S
La321 O345 2.503 . S
La321 O346 2.521 . S
La321 O347 2.628 . S
La321 O348 2.554 . S
La321 O349 2.757 . S
La321 O350 2.470 . S
C322 La320 2.928 . S
C322 C323 1.503 . S
C322 O340 1.261 . S
C322 O341 1.243 . S
C323 C322 1.503 . S
C323 C324 1.394 . S
C323 C328 1.373 . S
C324 C323 1.394 . S
C324 C325 1.380 . S
C324 H352 0.930 . S
C325 C324 1.380 . S
C325 C326 1.376 1_556 S
C325 H353 0.930 1_556 S
C326 C325 1.376 1_554 S
C326 C327 1.370 1_554 S
C327 C326 1.370 1_556 S
C327 C328 1.396 . S
C327 H354 0.929 1_556 S
C328 C323 1.373 . S
C328 C327 1.396 . S
C328 H355 0.929 . S
C329 O342 1.240 . S
C329 O343 1.289 . S
C330 O344 1.258 . S
C330 O345 1.256 . S
C331 La321 2.928 . S
C331 C332 1.503 . S
C331 O346 1.261 . S
C331 O347 1.243 . S
C332 C331 1.503 . S
C332 C333 1.394 . S
C332 C337 1.373 . S
C333 C332 1.394 . S
C333 C334 1.380 . S
C333 H356 0.930 . S
C334 C333 1.380 . S
C334 C335 1.376 . S
C334 H357 0.930 . S
C335 C334 1.376 . S
C335 C336 1.370 . S
C336 C335 1.370 . S
C336 C337 1.396 . S
C336 H358 0.929 . S
C337 C332 1.373 . S
C337 C336 1.396 . S
C337 H359 0.929 . S
C338 O348 1.240 . S
C338 O349 1.289 . S
C339 O350 1.258 . S
C339 O351 1.256 . S
O340 La320 2.521 . S
O340 C322 1.261 . S
O341 La320 2.628 . S
O341 C322 1.243 . S
O342 La320 2.554 . S
O342 C329 1.240 . S
O343 La320 2.757 . S
O343 La321 2.482 . S
O343 C329 1.289 . S
O344 La320 2.470 . S
O344 C330 1.258 . S
O345 La321 2.503 . S
O345 C330 1.256 . S
O346 La321 2.521 . S
O346 C331 1.261 . S
O347 La321 2.628 . S
O347 C331 1.243 . S
O348 La321 2.554 . S
O348 C338 1.240 . S
O349 La320 2.482 . S
O349 La321 2.757 . S
O349 C338 1.289 . S
O350 La321 2.470 . S
O350 C339 1.258 . S
O351 La320 2.503 . S
O351 C339 1.256 . S
H352 C324 0.930 . S
H353 C325 0.930 1_554 S
H354 C327 0.929 1_554 S
H355 C328 0.929 . S
H356 C333 0.930 . S
H357 C334 0.930 . S
H358 C336 0.929 . S
H359 C337 0.929 . S
La360 C362 2.928 . S
La360 O380 2.521 . S
La360 O381 2.628 . S
La360 O382 2.554 . S
La360 O383 2.757 . S
La360 O384 2.470 . S
La360 O389 2.482 . S
La360 O391 2.503 . S
La361 C371 2.928 . S
La361 O383 2.482 . S
La361 O385 2.503 . S
La361 O386 2.521 . S
La361 O387 2.628 . S
La361 O388 2.554 . S
La361 O389 2.757 . S
La361 O390 2.470 . S
C362 La360 2.928 . S
C362 C363 1.503 . S
C362 O380 1.261 . S
C362 O381 1.243 . S
C363 C362 1.503 . S
C363 C364 1.394 . S
C363 C368 1.373 . S
C364 C363 1.394 . S
C364 C365 1.380 . S
C364 H392 0.930 . S
C365 C364 1.380 . S
C365 C366 1.376 . S
C365 H393 0.930 . S
C366 C365 1.376 . S
C366 C367 1.370 . S
C367 C366 1.370 . S
C367 C368 1.396 . S
C367 H394 0.929 . S
C368 C363 1.373 . S
C368 C367 1.396 . S
C368 H395 0.929 . S
C369 O382 1.240 . S
C369 O383 1.289 . S
C370 O384 1.258 . S
C370 O385 1.256 . S
C371 La361 2.928 . S
C371 C372 1.503 . S
C371 O386 1.261 . S
C371 O387 1.243 . S
C372 C371 1.503 . S
C372 C373 1.394 . S
C372 C377 1.373 . S
C373 C372 1.394 . S
C373 C374 1.380 . S
C373 H396 0.930 . S
C374 C373 1.380 . S
C374 C375 1.376 1_554 S
C374 H397 0.930 1_554 S
C375 C374 1.376 1_556 S
C375 C376 1.370 1_556 S
C376 C375 1.370 1_554 S
C376 C377 1.396 . S
C376 H398 0.929 1_554 S
C377 C372 1.373 . S
C377 C376 1.396 . S
C377 H399 0.929 . S
C378 O388 1.240 . S
C378 O389 1.289 . S
C379 O390 1.258 . S
C379 O391 1.256 . S
O380 La360 2.521 . S
O380 C362 1.261 . S
O381 La360 2.628 . S
O381 C362 1.243 . S
O382 La360 2.554 . S
O382 C369 1.240 . S
O383 La360 2.757 . S
O383 La361 2.482 . S
O383 C369 1.289 . S
O384 La360 2.470 . S
O384 C370 1.258 . S
O385 La361 2.503 . S
O385 C370 1.256 . S
O386 La361 2.521 . S
O386 C371 1.261 . S
O387 La361 2.628 . S
O387 C371 1.243 . S
O388 La361 2.554 . S
O388 C378 1.240 . S
O389 La360 2.482 . S
O389 La361 2.757 . S
O389 C378 1.289 . S
O390 La361 2.470 . S
O390 C379 1.258 . S
O391 La360 2.503 . S
O391 C379 1.256 . S
H392 C364 0.930 . S
H393 C365 0.930 . S
H394 C367 0.929 . S
H395 C368 0.929 . S
H396 C373 0.930 . S
H397 C374 0.930 1_556 S
H398 C376 0.929 1_556 S
H399 C377 0.929 . S
La400 C402 2.928 . S
La400 O420 2.521 . S
La400 O421 2.628 . S
La400 O422 2.554 . S
La400 O423 2.757 . S
La400 O424 2.470 . S
La400 O429 2.482 . S
La400 O431 2.503 . S
La401 C411 2.928 . S
La401 O423 2.482 . S
La401 O425 2.503 . S
La401 O426 2.521 . S
La401 O427 2.628 . S
La401 O428 2.554 . S
La401 O429 2.757 . S
La401 O430 2.470 . S
C402 La400 2.928 . S
C402 C403 1.503 . S
C402 O420 1.261 . S
C402 O421 1.243 . S
C403 C402 1.503 . S
C403 C404 1.394 . S
C403 C408 1.373 . S
C404 C403 1.394 . S
C404 C405 1.380 . S
C404 H432 0.930 . S
C405 C404 1.380 . S
C405 C406 1.376 1_556 S
C405 H433 0.930 1_556 S
C406 C405 1.376 1_554 S
C406 C407 1.370 1_554 S
C407 C406 1.370 1_556 S
C407 C408 1.396 . S
C407 H434 0.929 1_556 S
C408 C403 1.373 . S
C408 C407 1.396 . S
C408 H435 0.929 . S
C409 O422 1.240 . S
C409 O423 1.289 . S
C410 O424 1.258 . S
C410 O425 1.256 . S
C411 La401 2.928 . S
C411 C412 1.503 . S
C411 O426 1.261 . S
C411 O427 1.243 . S
C412 C411 1.503 . S
C412 C413 1.394 . S
C412 C417 1.373 . S
C413 C412 1.394 . S
C413 C414 1.380 . S
C413 H436 0.930 . S
C414 C413 1.380 . S
C414 C415 1.376 . S
C414 H437 0.930 . S
C415 C414 1.376 . S
C415 C416 1.370 . S
C416 C415 1.370 . S
C416 C417 1.396 . S
C416 H438 0.929 . S
C417 C412 1.373 . S
C417 C416 1.396 . S
C417 H439 0.929 . S
C418 O428 1.240 . S
C418 O429 1.289 . S
C419 O430 1.258 . S
C419 O431 1.256 . S
O420 La400 2.521 . S
O420 C402 1.261 . S
O421 La400 2.628 . S
O421 C402 1.243 . S
O422 La400 2.554 . S
O422 C409 1.240 . S
O423 La400 2.757 . S
O423 La401 2.482 . S
O423 C409 1.289 . S
O424 La400 2.470 . S
O424 C410 1.258 . S
O425 La401 2.503 . S
O425 C410 1.256 . S
O426 La401 2.521 . S
O426 C411 1.261 . S
O427 La401 2.628 . S
O427 C411 1.243 . S
O428 La401 2.554 . S
O428 C418 1.240 . S
O429 La400 2.482 . S
O429 La401 2.757 . S
O429 C418 1.289 . S
O430 La401 2.470 . S
O430 C419 1.258 . S
O431 La400 2.503 . S
O431 C419 1.256 . S
H432 C404 0.930 . S
H433 C405 0.930 1_554 S
H434 C407 0.929 1_554 S
H435 C408 0.929 . S
H436 C413 0.930 . S
H437 C414 0.930 . S
H438 C416 0.929 . S
H439 C417 0.929 . S
La440 C442 2.928 . S
La440 O460 2.521 . S
La440 O461 2.628 . S
La440 O462 2.554 . S
La440 O463 2.757 . S
La440 O464 2.470 . S
La440 O469 2.482 . S
La440 O471 2.503 . S
La441 C451 2.928 . S
La441 O463 2.482 . S
La441 O465 2.503 . S
La441 O466 2.521 . S
La441 O467 2.628 . S
La441 O468 2.554 . S
La441 O469 2.757 . S
La441 O470 2.470 . S
C442 La440 2.928 . S
C442 C443 1.503 . S
C442 O460 1.261 . S
C442 O461 1.243 . S
C443 C442 1.503 . S
C443 C444 1.394 . S
C443 C448 1.373 . S
C444 C443 1.394 . S
C444 C445 1.380 . S
C444 H472 0.930 . S
C445 C444 1.380 . S
C445 C446 1.376 . S
C445 H473 0.930 . S
C446 C445 1.376 . S
C446 C447 1.370 . S
C447 C446 1.370 . S
C447 C448 1.396 . S
C447 H474 0.929 . S
C448 C443 1.373 . S
C448 C447 1.396 . S
C448 H475 0.929 . S
C449 O462 1.240 . S
C449 O463 1.289 . S
C450 O464 1.258 . S
C450 O465 1.256 . S
C451 La441 2.928 . S
C451 C452 1.503 . S
C451 O466 1.261 . S
C451 O467 1.243 . S
C452 C451 1.503 . S
C452 C453 1.394 . S
C452 C457 1.373 . S
C453 C452 1.394 . S
C453 C454 1.380 . S
C453 H476 0.930 . S
C454 C453 1.380 . S
C454 C455 1.376 1_554 S
C454 H477 0.930 1_554 S
C455 C454 1.376 1_556 S
C455 C456 1.370 1_556 S
C456 C455 1.370 1_554 S
C456 C457 1.396 . S
C456 H478 0.929 1_554 S
C457 C452 1.373 . S
C457 C456 1.396 . S
C457 H479 0.929 . S
C458 O468 1.240 . S
C458 O469 1.289 . S
C459 O470 1.258 . S
C459 O471 1.256 . S
O460 La440 2.521 . S
O460 C442 1.261 . S
O461 La440 2.628 . S
O461 C442 1.243 . S
O462 La440 2.554 . S
O462 C449 1.240 . S
O463 La440 2.757 . S
O463 La441 2.482 . S
O463 C449 1.289 . S
O464 La440 2.470 . S
O464 C450 1.258 . S
O465 La441 2.503 . S
O465 C450 1.256 . S
O466 La441 2.521 . S
O466 C451 1.261 . S
O467 La441 2.628 . S
O467 C451 1.243 . S
O468 La441 2.554 . S
O468 C458 1.240 . S
O469 La440 2.482 . S
O469 La441 2.757 . S
O469 C458 1.289 . S
O470 La441 2.470 . S
O470 C459 1.258 . S
O471 La440 2.503 . S
O471 C459 1.256 . S
H472 C444 0.930 . S
H473 C445 0.930 . S
H474 C447 0.929 . S
H475 C448 0.929 . S
H476 C453 0.930 . S
H477 C454 0.930 1_556 S
H478 C456 0.929 1_556 S
H479 C457 0.929 . S
La480 C482 2.928 . S
La480 O500 2.521 . S
La480 O501 2.628 . S
La480 O502 2.554 . S
La480 O503 2.757 . S
La480 O504 2.470 . S
La480 O509 2.482 . S
La480 O511 2.503 . S
La481 C491 2.928 . S
La481 O503 2.482 . S
La481 O505 2.503 . S
La481 O506 2.521 . S
La481 O507 2.628 . S
La481 O508 2.554 . S
La481 O509 2.757 . S
La481 O510 2.470 . S
C482 La480 2.928 . S
C482 C483 1.503 . S
C482 O500 1.261 . S
C482 O501 1.243 . S
C483 C482 1.503 . S
C483 C484 1.394 . S
C483 C488 1.373 . S
C484 C483 1.394 . S
C484 C485 1.380 . S
C484 H512 0.930 . S
C485 C484 1.380 . S
C485 C486 1.376 . S
C485 H513 0.930 . S
C486 C485 1.376 . S
C486 C487 1.370 . S
C487 C486 1.370 . S
C487 C488 1.396 . S
C487 H514 0.929 . S
C488 C483 1.373 . S
C488 C487 1.396 . S
C488 H515 0.929 . S
C489 O502 1.240 . S
C489 O503 1.289 . S
C490 O504 1.258 . S
C490 O505 1.256 . S
C491 La481 2.928 . S
C491 C492 1.503 . S
C491 O506 1.261 . S
C491 O507 1.243 . S
C492 C491 1.503 . S
C492 C493 1.394 . S
C492 C497 1.373 . S
C493 C492 1.394 . S
C493 C494 1.380 . S
C493 H516 0.930 . S
C494 C493 1.380 . S
C494 C495 1.376 1_556 S
C494 H517 0.936 . S
C495 C494 1.376 1_554 S
C495 C496 1.370 1_554 S
C496 C495 1.370 1_556 S
C496 C497 1.396 . S
C496 H518 0.929 1_556 S
C497 C492 1.373 . S
C497 C496 1.396 . S
C497 H519 0.929 . S
C498 O508 1.240 . S
C498 O509 1.289 . S
C499 O510 1.258 . S
C499 O511 1.256 . S
O500 La480 2.521 . S
O500 C482 1.261 . S
O501 La480 2.628 . S
O501 C482 1.243 . S
O502 La480 2.554 . S
O502 C489 1.240 . S
O503 La480 2.757 . S
O503 La481 2.482 . S
O503 C489 1.289 . S
O504 La480 2.470 . S
O504 C490 1.258 . S
O505 La481 2.503 . S
O505 C490 1.256 . S
O506 La481 2.521 . S
O506 C491 1.261 . S
O507 La481 2.628 . S
O507 C491 1.243 . S
O508 La481 2.554 . S
O508 C498 1.240 . S
O509 La480 2.482 . S
O509 La481 2.757 . S
O509 C498 1.289 . S
O510 La481 2.470 . S
O510 C499 1.258 . S
O511 La480 2.503 . S
O511 C499 1.256 . S
H512 C484 0.930 . S
H513 C485 0.930 . S
H514 C487 0.929 . S
H515 C488 0.929 . S
H516 C493 0.930 . S
H517 C494 0.936 . S
H518 C496 0.929 1_554 S
H519 C497 0.929 . S
La520 C522 2.928 . S
La520 O540 2.521 . S
La520 O541 2.628 . S
La520 O542 2.554 . S
La520 O543 2.757 . S
La520 O544 2.470 . S
La520 O549 2.482 . S
La520 O551 2.503 . S
La521 C531 2.928 . S
La521 O543 2.482 . S
La521 O545 2.503 . S
La521 O546 2.521 . S
La521 O547 2.628 . S
La521 O548 2.554 . S
La521 O549 2.757 . S
La521 O550 2.470 . S
C522 La520 2.928 . S
C522 C523 1.503 . S
C522 O540 1.261 . S
C522 O541 1.243 . S
C523 C522 1.503 . S
C523 C524 1.394 . S
C523 C528 1.373 . S
C524 C523 1.394 . S
C524 C525 1.380 . S
C524 H552 0.930 . S
C525 C524 1.380 . S
C525 C526 1.376 1_554 S
C525 H553 0.936 . S
C526 C525 1.376 1_556 S
C526 C527 1.370 1_556 S
C527 C526 1.370 1_554 S
C527 C528 1.396 . S
C527 H554 0.929 1_554 S
C528 C523 1.373 . S
C528 C527 1.396 . S
C528 H555 0.929 . S
C529 O542 1.240 . S
C529 O543 1.289 . S
C530 O544 1.258 . S
C530 O545 1.256 . S
C531 La521 2.928 . S
C531 C532 1.503 . S
C531 O546 1.261 . S
C531 O547 1.243 . S
C532 C531 1.503 . S
C532 C533 1.394 . S
C532 C537 1.373 . S
C533 C532 1.394 . S
C533 C534 1.380 . S
C533 H556 0.930 . S
C534 C533 1.380 . S
C534 C535 1.376 . S
C534 H557 0.930 . S
C535 C534 1.376 . S
C535 C536 1.370 . S
C536 C535 1.370 . S
C536 C537 1.396 . S
C536 H558 0.929 . S
C537 C532 1.373 . S
C537 C536 1.396 . S
C537 H559 0.929 . S
C538 O548 1.240 . S
C538 O549 1.289 . S
C539 O550 1.258 . S
C539 O551 1.256 . S
O540 La520 2.521 . S
O540 C522 1.261 . S
O541 La520 2.628 . S
O541 C522 1.243 . S
O542 La520 2.554 . S
O542 C529 1.240 . S
O543 La520 2.757 . S
O543 La521 2.482 . S
O543 C529 1.289 . S
O544 La520 2.470 . S
O544 C530 1.258 . S
O545 La521 2.503 . S
O545 C530 1.256 . S
O546 La521 2.521 . S
O546 C531 1.261 . S
O547 La521 2.628 . S
O547 C531 1.243 . S
O548 La521 2.554 . S
O548 C538 1.240 . S
O549 La520 2.482 . S
O549 La521 2.757 . S
O549 C538 1.289 . S
O550 La521 2.470 . S
O550 C539 1.258 . S
O551 La520 2.503 . S
O551 C539 1.256 . S
H552 C524 0.930 . S
H553 C525 0.936 . S
H554 C527 0.929 1_556 S
H555 C528 0.929 . S
H556 C533 0.930 . S
H557 C534 0.930 . S
H558 C536 0.929 . S
H559 C537 0.929 . S
La560 C562 2.928 . S
La560 O580 2.521 . S
La560 O581 2.628 . S
La560 O582 2.554 . S
La560 O583 2.757 . S
La560 O584 2.470 . S
La560 O589 2.482 . S
La560 O591 2.503 . S
La561 C571 2.928 . S
La561 O583 2.482 . S
La561 O585 2.503 . S
La561 O586 2.521 . S
La561 O587 2.628 . S
La561 O588 2.554 . S
La561 O589 2.757 . S
La561 O590 2.470 . S
C562 La560 2.928 . S
C562 C563 1.503 . S
C562 O580 1.261 . S
C562 O581 1.243 . S
C563 C562 1.503 . S
C563 C564 1.394 . S
C563 C568 1.373 . S
C564 C563 1.394 . S
C564 C565 1.380 . S
C564 H592 0.930 . S
C565 C564 1.380 . S
C565 C566 1.376 . S
C565 H593 0.930 . S
C566 C565 1.376 . S
C566 C567 1.370 . S
C567 C566 1.370 . S
C567 C568 1.396 . S
C567 H594 0.929 . S
C568 C563 1.373 . S
C568 C567 1.396 . S
C568 H595 0.929 . S
C569 O582 1.240 . S
C569 O583 1.289 . S
C570 O584 1.258 . S
C570 O585 1.256 . S
C571 La561 2.928 . S
C571 C572 1.503 . S
C571 O586 1.261 . S
C571 O587 1.243 . S
C572 C571 1.503 . S
C572 C573 1.394 . S
C572 C577 1.373 . S
C573 C572 1.394 . S
C573 C574 1.380 . S
C573 H596 0.930 . S
C574 C573 1.380 . S
C574 C575 1.376 1_556 S
C574 H597 0.936 . S
C575 C574 1.376 1_554 S
C575 C576 1.370 1_554 S
C576 C575 1.370 1_556 S
C576 C577 1.396 . S
C576 H598 0.929 1_556 S
C577 C572 1.373 . S
C577 C576 1.396 . S
C577 H599 0.929 . S
C578 O588 1.240 . S
C578 O589 1.289 . S
C579 O590 1.258 . S
C579 O591 1.256 . S
O580 La560 2.521 . S
O580 C562 1.261 . S
O581 La560 2.628 . S
O581 C562 1.243 . S
O582 La560 2.554 . S
O582 C569 1.240 . S
O583 La560 2.757 . S
O583 La561 2.482 . S
O583 C569 1.289 . S
O584 La560 2.470 . S
O584 C570 1.258 . S
O585 La561 2.503 . S
O585 C570 1.256 . S
O586 La561 2.521 . S
O586 C571 1.261 . S
O587 La561 2.628 . S
O587 C571 1.243 . S
O588 La561 2.554 . S
O588 C578 1.240 . S
O589 La560 2.482 . S
O589 La561 2.757 . S
O589 C578 1.289 . S
O590 La561 2.470 . S
O590 C579 1.258 . S
O591 La560 2.503 . S
O591 C579 1.256 . S
H592 C564 0.930 . S
H593 C565 0.930 . S
H594 C567 0.929 . S
H595 C568 0.929 . S
H596 C573 0.930 . S
H597 C574 0.936 . S
H598 C576 0.929 1_554 S
H599 C577 0.929 . S
La600 C602 2.928 . S
La600 O620 2.521 . S
La600 O621 2.628 . S
La600 O622 2.554 . S
La600 O623 2.757 . S
La600 O624 2.470 . S
La600 O629 2.482 . S
La600 O631 2.503 . S
La601 C611 2.928 . S
La601 O623 2.482 . S
La601 O625 2.503 . S
La601 O626 2.521 . S
La601 O627 2.628 . S
La601 O628 2.554 . S
La601 O629 2.757 . S
La601 O630 2.470 . S
C602 La600 2.928 . S
C602 C603 1.503 . S
C602 O620 1.261 . S
C602 O621 1.243 . S
C603 C602 1.503 . S
C603 C604 1.394 . S
C603 C608 1.373 . S
C604 C603 1.394 . S
C604 C605 1.380 . S
C604 H632 0.930 . S
C605 C604 1.380 . S
C605 C606 1.376 1_554 S
C605 H633 0.936 . S
C606 C605 1.376 1_556 S
C606 C607 1.370 1_556 S
C607 C606 1.370 1_554 S
C607 C608 1.396 . S
C607 H634 0.929 1_554 S
C608 C603 1.373 . S
C608 C607 1.396 . S
C608 H635 0.929 . S
C609 O622 1.240 . S
C609 O623 1.289 . S
C610 O624 1.258 . S
C610 O625 1.256 . S
C611 La601 2.928 . S
C611 C612 1.503 . S
C611 O626 1.261 . S
C611 O627 1.243 . S
C612 C611 1.503 . S
C612 C613 1.394 . S
C612 C617 1.373 . S
C613 C612 1.394 . S
C613 C614 1.380 . S
C613 H636 0.930 . S
C614 C613 1.380 . S
C614 C615 1.376 . S
C614 H637 0.930 . S
C615 C614 1.376 . S
C615 C616 1.370 . S
C616 C615 1.370 . S
C616 C617 1.396 . S
C616 H638 0.929 . S
C617 C612 1.373 . S
C617 C616 1.396 . S
C617 H639 0.929 . S
C618 O628 1.240 . S
C618 O629 1.289 . S
C619 O630 1.258 . S
C619 O631 1.256 . S
O620 La600 2.521 . S
O620 C602 1.261 . S
O621 La600 2.628 . S
O621 C602 1.243 . S
O622 La600 2.554 . S
O622 C609 1.240 . S
O623 La600 2.757 . S
O623 La601 2.482 . S
O623 C609 1.289 . S
O624 La600 2.470 . S
O624 C610 1.258 . S
O625 La601 2.503 . S
O625 C610 1.256 . S
O626 La601 2.521 . S
O626 C611 1.261 . S
O627 La601 2.628 . S
O627 C611 1.243 . S
O628 La601 2.554 . S
O628 C618 1.240 . S
O629 La600 2.482 . S
O629 La601 2.757 . S
O629 C618 1.289 . S
O630 La601 2.470 . S
O630 C619 1.258 . S
O631 La600 2.503 . S
O631 C619 1.256 . S
H632 C604 0.930 . S
H633 C605 0.936 . S
H634 C607 0.929 1_556 S
H635 C608 0.929 . S
H636 C613 0.930 . S
H637 C614 0.930 . S
H638 C616 0.929 . S
H639 C617 0.929 . S
C640 C641 1.369 . S
C640 C642 1.419 . S
C640 H644 0.930 . S
C641 C640 1.369 . S
C641 C650 1.429 . S
C642 C640 1.419 . S
C642 C643 1.363 . S
C642 H645 0.929 1_565 S
C643 C642 1.363 . S
C643 C649 1.428 . S
H644 C640 0.930 . S
H645 C642 0.929 1_545 S
S646 N647 1.613 . S
S646 N648 1.610 . S
N647 S646 1.613 . S
N647 C650 1.350 . S
N648 S646 1.610 . S
N648 C649 1.351 . S
C649 C643 1.428 . S
C649 N648 1.351 . S
C649 C650 1.434 . S
C650 C641 1.429 . S
C650 N647 1.350 . S
C650 C649 1.434 . S
C651 C652 1.369 . S
C651 C653 1.419 . S
C651 H655 0.930 . S
C652 C651 1.369 . S
C652 C661 1.429 . S
C653 C651 1.419 . S
C653 C654 1.363 . S
C653 H656 0.929 . S
C654 C653 1.363 . S
C654 C660 1.428 . S
H655 C651 0.930 . S
H656 C653 0.929 . S
S657 N658 1.613 1_455 S
S657 N659 1.610 . S
N658 S657 1.613 1_655 S
N658 C661 1.350 . S
N659 S657 1.610 . S
N659 C660 1.351 1_455 S
C660 C654 1.428 . S
C660 N659 1.351 1_655 S
C660 C661 1.434 . S
C661 C652 1.429 . S
C661 N658 1.350 . S
C661 C660 1.434 . S
C662 C663 1.369 . S
C662 C664 1.419 . S
C662 H666 0.930 1_545 S
C663 C662 1.369 . S
C663 C672 1.429 . S
C664 C662 1.419 . S
C664 C665 1.363 . S
C664 H667 0.929 . S
C665 C664 1.363 . S
C665 C671 1.428 . S
H666 C662 0.930 1_565 S
H667 C664 0.929 . S
S668 N669 1.613 . S
S668 N670 1.610 . S
N669 S668 1.613 . S
N669 C672 1.350 . S
N670 S668 1.610 . S
N670 C671 1.351 . S
C671 C665 1.428 . S
C671 N670 1.351 . S
C671 C672 1.434 . S
C672 C663 1.429 . S
C672 N669 1.350 . S
C672 C671 1.434 . S
C673 C674 1.369 . S
C673 C675 1.419 . S
C673 H677 0.930 . S
C674 C673 1.369 . S
C674 C683 1.429 . S
C675 C673 1.419 . S
C675 C676 1.363 . S
C675 H678 0.929 . S
C676 C675 1.363 . S
C676 C682 1.428 . S
H677 C673 0.930 . S
H678 C675 0.929 . S
S679 N680 1.610 1_455 S
S679 N681 1.610 . S
N680 S679 1.610 1_655 S
N680 C683 1.346 1_655 S
N681 S679 1.610 . S
N681 C682 1.351 . S
C682 C676 1.428 . S
C682 N681 1.351 . S
C682 C683 1.434 . S
C683 C674 1.429 . S
C683 N680 1.346 1_455 S
C683 C682 1.434 . S
C684 C685 1.369 . S
C684 C686 1.419 . S
C684 H688 0.930 . S
C685 C684 1.369 . S
C685 C694 1.429 . S
C686 C684 1.419 . S
C686 C687 1.363 . S
C686 H689 0.929 . S
C687 C686 1.363 . S
C687 C693 1.428 . S
H688 C684 0.930 . S
H689 C686 0.929 . S
S690 N691 1.613 . S
S690 N692 1.610 1_554 S
N691 S690 1.613 . S
N691 C694 1.350 . S
N692 S690 1.610 1_556 S
N692 C693 1.351 1_556 S
C693 C687 1.428 . S
C693 N692 1.351 1_554 S
C693 C694 1.434 . S
C694 C685 1.429 . S
C694 N691 1.350 . S
C694 C693 1.434 . S
C695 C696 1.369 . S
C695 C697 1.419 . S
C695 H699 0.930 . S
C696 C695 1.369 . S
C696 C705 1.429 1_556 S
C697 C695 1.419 . S
C697 C698 1.363 . S
C697 H700 0.929 . S
C698 C697 1.363 . S
C698 C704 1.428 . S
H699 C695 0.930 . S
H700 C697 0.929 . S
S701 N702 1.613 . S
S701 N703 1.610 1_554 S
N702 S701 1.613 . S
N702 C705 1.350 . S
N703 S701 1.610 1_556 S
N703 C704 1.351 . S
C704 C698 1.428 . S
C704 N703 1.351 . S
C704 C705 1.434 1_556 S
C705 C696 1.429 1_554 S
C705 N702 1.350 . S
C705 C704 1.434 1_554 S
C706 C707 1.369 . S
C706 C708 1.419 . S
C706 H710 0.930 . S
C707 C706 1.369 . S
C707 C716 1.429 . S
C708 C706 1.419 . S
C708 C709 1.363 . S
C708 H711 0.929 . S
C709 C708 1.363 . S
C709 C715 1.428 . S
H710 C706 0.930 . S
H711 C708 0.929 . S
S712 N713 1.613 1_556 S
S712 N714 1.610 . S
N713 S712 1.613 1_554 S
N713 C716 1.350 . S
N714 S712 1.610 . S
N714 C715 1.351 1_556 S
C715 C709 1.428 . S
C715 N714 1.351 1_554 S
C715 C716 1.434 . S
C716 C707 1.429 . S
C716 N713 1.350 . S
C716 C715 1.434 . S
C717 C718 1.369 . S
C717 C719 1.419 . S
C717 H721 0.930 . S
C718 C717 1.369 . S
C718 C727 1.429 1_556 S
C719 C717 1.419 . S
C719 C720 1.363 . S
C719 H722 0.929 . S
C720 C719 1.363 . S
C720 C726 1.428 . S
H721 C717 0.930 . S
H722 C719 0.929 . S
S723 N724 1.613 . S
S723 N725 1.610 . S
N724 S723 1.613 . S
N724 C727 1.350 . S
N725 S723 1.610 . S
N725 C726 1.351 1_554 S
C726 C720 1.428 . S
C726 N725 1.351 1_556 S
C726 C727 1.434 1_556 S
C727 C718 1.429 1_554 S
C727 N724 1.350 . S
C727 C726 1.434 1_554 S
C728 C729 1.369 . S
C728 C730 1.419 . S
C728 H732 0.930 . S
C729 C728 1.369 . S
C729 C738 1.429 . S
C730 C728 1.419 . S
C730 C731 1.363 . S
C730 H733 0.929 . S
C731 C730 1.363 . S
C731 C737 1.428 . S
H732 C728 0.930 . S
H733 C730 0.929 . S
S734 N735 1.613 . S
S734 N736 1.610 . S
N735 S734 1.613 . S
N735 C738 1.350 . S
N736 S734 1.610 . S
N736 C737 1.351 . S
C737 C731 1.428 . S
C737 N736 1.351 . S
C737 C738 1.434 . S
C738 C729 1.429 . S
C738 N735 1.350 . S
C738 C737 1.434 . S
C739 C740 1.369 . S
C739 C741 1.419 . S
C739 H743 0.930 . S
C740 C739 1.369 . S
C740 C749 1.429 . S
C741 C739 1.419 . S
C741 C742 1.363 . S
C741 H744 0.929 . S
C742 C741 1.363 . S
C742 C748 1.428 . S
H743 C739 0.930 . S
H744 C741 0.929 . S
S745 N746 1.613 . S
S745 N747 1.610 . S
N746 S745 1.613 . S
N746 C749 1.350 . S
N747 S745 1.610 . S
N747 C748 1.351 . S
C748 C742 1.428 . S
C748 N747 1.351 . S
C748 C749 1.434 . S
C749 C740 1.429 . S
C749 N746 1.350 . S
C749 C748 1.434 . S
C750 C751 1.369 . S
C750 C752 1.419 . S
C750 H754 0.930 . S
C751 C750 1.369 . S
C751 C760 1.429 . S
C752 C750 1.419 . S
C752 C753 1.363 . S
C752 H755 0.929 . S
C753 C752 1.363 . S
C753 C759 1.428 . S
H754 C750 0.930 . S
H755 C752 0.929 . S
S756 N757 1.613 . S
S756 N758 1.610 . S
N757 S756 1.613 . S
N757 C760 1.350 . S
N758 S756 1.610 . S
N758 C759 1.351 . S
C759 C753 1.428 . S
C759 N758 1.351 . S
C759 C760 1.434 . S
C760 C751 1.429 . S
C760 N757 1.350 . S
C760 C759 1.434 . S
C761 C762 1.369 . S
C761 C763 1.419 . S
C761 H765 0.930 . S
C762 C761 1.369 . S
C762 C771 1.429 . S
C763 C761 1.419 . S
C763 C764 1.363 . S
C763 H766 0.929 . S
C764 C763 1.363 . S
C764 C770 1.428 . S
H765 C761 0.930 . S
H766 C763 0.929 . S
S767 N768 1.613 . S
S767 N769 1.610 . S
N768 S767 1.613 . S
N768 C771 1.350 . S
N769 S767 1.610 . S
N769 C770 1.351 . S
C770 C764 1.428 . S
C770 N769 1.351 . S
C770 C771 1.434 . S
C771 C762 1.429 . S
C771 N768 1.350 . S
C771 C770 1.434 . S
C772 C773 1.369 . S
C772 C774 1.419 . S
C772 H776 0.930 . S
C773 C772 1.369 . S
C773 C782 1.429 . S
C774 C772 1.419 . S
C774 C775 1.363 . S
C774 H777 0.929 . S
C775 C774 1.363 . S
C775 C781 1.428 . S
H776 C772 0.930 . S
H777 C774 0.929 . S
S778 N779 1.613 . S
S778 N780 1.610 1_565 S
N779 S778 1.613 . S
N779 C782 1.350 1_565 S
N780 S778 1.610 1_545 S
N780 C781 1.351 . S
C781 C775 1.428 . S
C781 N780 1.351 . S
C781 C782 1.434 . S
C782 C773 1.429 . S
C782 N779 1.350 1_545 S
C782 C781 1.434 . S
C783 C784 1.369 . S
C783 C785 1.419 . S
C783 H787 0.930 . S
C784 C783 1.369 . S
C784 C793 1.429 . S
C785 C783 1.419 . S
C785 C786 1.363 . S
C785 H788 0.929 1_455 S
C786 C785 1.363 . S
C786 C792 1.428 . S
H787 C783 0.930 . S
H788 C785 0.929 1_655 S
S789 N790 1.613 . S
S789 N791 1.610 . S
N790 S789 1.613 . S
N790 C793 1.350 . S
N791 S789 1.610 . S
N791 C792 1.351 . S
C792 C786 1.428 . S
C792 N791 1.351 . S
C792 C793 1.434 . S
C793 C784 1.429 . S
C793 N790 1.350 . S
C793 C792 1.434 . S
C794 C795 1.369 . S
C794 C796 1.419 . S
C794 H798 0.930 . S
C795 C794 1.369 . S
C795 C804 1.429 . S
C796 C794 1.419 . S
C796 C797 1.363 . S
C796 H799 0.929 . S
C797 C796 1.363 . S
C797 C803 1.428 . S
H798 C794 0.930 . S
H799 C796 0.929 . S
S800 N801 1.613 . S
S800 N802 1.610 . S
N801 S800 1.613 . S
N801 C804 1.350 . S
N802 S800 1.610 . S
N802 C803 1.351 . S
C803 C797 1.428 . S
C803 N802 1.351 . S
C803 C804 1.434 . S
C804 C795 1.429 . S
C804 N801 1.350 . S
C804 C803 1.434 . S
C805 C806 1.369 . S
C805 C807 1.419 . S
C805 H809 0.930 . S
C806 C805 1.369 . S
C806 C815 1.429 . S
C807 C805 1.419 . S
C807 C808 1.363 . S
C807 H810 0.929 . S
C808 C807 1.363 . S
C808 C814 1.428 . S
H809 C805 0.930 . S
H810 C807 0.929 . S
S811 N812 1.613 . S
S811 N813 1.610 1_455 S
N812 S811 1.613 . S
N812 C815 1.350 1_455 S
N813 S811 1.610 1_655 S
N813 C814 1.351 . S
C814 C808 1.428 . S
C814 N813 1.351 . S
C814 C815 1.434 . S
C815 C806 1.429 . S
C815 N812 1.350 1_655 S
C815 C814 1.434 . S
C816 C817 1.369 . S
C816 C818 1.419 . S
C816 H820 0.930 . S
C817 C816 1.369 . S
C817 C826 1.429 . S
C818 C816 1.419 . S
C818 C819 1.363 . S
C818 H821 0.929 . S
C819 C818 1.363 . S
C819 C825 1.428 . S
H820 C816 0.930 . S
H821 C818 0.929 . S
S822 N823 1.613 . S
S822 N824 1.610 . S
N823 S822 1.613 . S
N823 C826 1.350 . S
N824 S822 1.610 . S
N824 C825 1.351 . S
C825 C819 1.428 . S
C825 N824 1.351 . S
C825 C826 1.434 . S
C826 C817 1.429 . S
C826 N823 1.350 . S
C826 C825 1.434 . S
C827 C828 1.369 . S
C827 C829 1.419 . S
C827 H831 0.930 . S
C828 C827 1.369 . S
C828 C837 1.429 . S
C829 C827 1.419 . S
C829 C830 1.363 . S
C829 H832 0.929 . S
C830 C829 1.363 . S
C830 C836 1.428 . S
H831 C827 0.930 . S
H832 C829 0.929 . S
S833 N834 1.613 . S
S833 N835 1.610 . S
N834 S833 1.613 . S
N834 C837 1.350 . S
N835 S833 1.610 . S
N835 C836 1.351 . S
C836 C830 1.428 . S
C836 N835 1.351 . S
C836 C837 1.434 . S
C837 C828 1.429 . S
C837 N834 1.350 . S
C837 C836 1.434 . S
C838 C839 1.369 . S
C838 C840 1.419 . S
C838 H842 0.930 . S
C839 C838 1.369 . S
C839 C848 1.429 . S
C840 C838 1.419 . S
C840 C841 1.363 . S
C840 H843 0.929 . S
C841 C840 1.363 . S
C841 C847 1.428 . S
H842 C838 0.930 . S
H843 C840 0.929 . S
S844 N845 1.613 1_556 S
S844 N846 1.610 1_556 S
N845 S844 1.613 1_554 S
N845 C848 1.350 . S
N846 S844 1.610 1_554 S
N846 C847 1.351 . S
C847 C841 1.428 . S
C847 N846 1.351 . S
C847 C848 1.434 . S
C848 C839 1.429 . S
C848 N845 1.350 . S
C848 C847 1.434 . S
C849 C850 1.369 . S
C849 C851 1.419 . S
C849 H853 0.930 . S
C850 C849 1.369 . S
C850 C859 1.429 . S
C851 C849 1.419 . S
C851 C852 1.363 . S
C851 H854 0.929 . S
C852 C851 1.363 . S
C852 C858 1.428 . S
H853 C849 0.930 . S
H854 C851 0.929 . S
S855 N856 1.613 . S
S855 N857 1.610 . S
N856 S855 1.613 . S
N856 C859 1.350 . S
N857 S855 1.610 . S
N857 C858 1.351 . S
C858 C852 1.428 . S
C858 N857 1.351 . S
C858 C859 1.434 . S
C859 C850 1.429 . S
C859 N856 1.350 . S
C859 C858 1.434 . S
C860 C861 1.369 . S
C860 C862 1.419 . S
C860 H864 0.930 . S
C861 C860 1.369 . S
C861 C870 1.429 . S
C862 C860 1.419 . S
C862 C863 1.363 . S
C862 H865 0.929 . S
C863 C862 1.363 . S
C863 C869 1.428 . S
H864 C860 0.930 . S
H865 C862 0.929 . S
S866 N867 1.613 . S
S866 N868 1.610 . S
N867 S866 1.613 . S
N867 C870 1.350 . S
N868 S866 1.610 . S
N868 C869 1.351 . S
C869 C863 1.428 . S
C869 N868 1.351 . S
C869 C870 1.434 . S
C870 C861 1.429 . S
C870 N867 1.350 . S
C870 C869 1.434 . S
C871 C872 1.369 . S
C871 C873 1.419 . S
C871 H875 0.930 . S
C872 C871 1.369 . S
C872 C881 1.429 . S
C873 C871 1.419 . S
C873 C874 1.363 . S
C873 H876 0.929 . S
C874 C873 1.363 . S
C874 C880 1.428 . S
H875 C871 0.930 . S
H876 C873 0.929 . S
S877 N878 1.613 . S
S877 N879 1.610 . S
N878 S877 1.613 . S
N878 C881 1.350 . S
N879 S877 1.610 . S
N879 C880 1.351 . S
C880 C874 1.428 . S
C880 N879 1.351 . S
C880 C881 1.434 . S
C881 C872 1.429 . S
C881 N878 1.350 . S
C881 C880 1.434 . S
C882 C883 1.369 . S
C882 C884 1.419 . S
C882 H886 0.930 . S
C883 C882 1.369 . S
C883 C892 1.429 . S
C884 C882 1.419 . S
C884 C885 1.363 . S
C884 H887 0.929 . S
C885 C884 1.363 . S
C885 C891 1.428 . S
H886 C882 0.930 . S
H887 C884 0.929 . S
S888 N889 1.613 . S
S888 N890 1.610 . S
N889 S888 1.613 . S
N889 C892 1.350 . S
N890 S888 1.610 . S
N890 C891 1.351 . S
C891 C885 1.428 . S
C891 N890 1.351 . S
C891 C892 1.434 . S
C892 C883 1.429 . S
C892 N889 1.350 . S
C892 C891 1.434 . S
C893 C894 1.369 . S
C893 C895 1.419 . S
C893 H897 0.930 . S
C894 C893 1.369 . S
C894 C903 1.429 . S
C895 C893 1.419 . S
C895 C896 1.363 . S
C895 H898 0.929 . S
C896 C895 1.363 . S
C896 C902 1.428 . S
H897 C893 0.930 . S
H898 C895 0.929 . S
S899 N900 1.613 . S
S899 N901 1.610 . S
N900 S899 1.613 . S
N900 C903 1.350 . S
N901 S899 1.610 . S
N901 C902 1.351 . S
C902 C896 1.428 . S
C902 N901 1.351 . S
C902 C903 1.434 . S
C903 C894 1.429 . S
C903 N900 1.350 . S
C903 C902 1.434 . S
C904 C905 1.369 . S
C904 C906 1.419 . S
C904 H908 0.930 . S
C905 C904 1.369 . S
C905 C914 1.429 . S
C906 C904 1.419 . S
C906 C907 1.363 . S
C906 H909 0.929 . S
C907 C906 1.363 . S
C907 C913 1.428 . S
H908 C904 0.930 . S
H909 C906 0.929 . S
S910 N911 1.613 . S
S910 N912 1.610 . S
N911 S910 1.613 . S
N911 C914 1.350 . S
N912 S910 1.610 . S
N912 C913 1.351 . S
C913 C907 1.428 . S
C913 N912 1.351 . S
C913 C914 1.434 . S
C914 C905 1.429 . S
C914 N911 1.350 . S
C914 C913 1.434 . S
C915 C916 1.369 . S
C915 C917 1.419 . S
C915 H919 0.930 . S
C916 C915 1.369 . S
C916 C925 1.429 . S
C917 C915 1.419 . S
C917 C918 1.363 . S
C917 H920 0.929 . S
C918 C917 1.363 . S
C918 C924 1.428 . S
H919 C915 0.930 . S
H920 C917 0.929 . S
S921 N922 1.613 . S
S921 N923 1.610 . S
N922 S921 1.613 . S
N922 C925 1.350 . S
N923 S921 1.610 . S
N923 C924 1.351 . S
C924 C918 1.428 . S
C924 N923 1.351 . S
C924 C925 1.434 . S
C925 C916 1.429 . S
C925 N922 1.350 . S
C925 C924 1.434 . S
C926 C927 1.369 . S
C926 C928 1.419 . S
C926 H930 0.930 . S
C927 C926 1.369 . S
C927 C936 1.429 . S
C928 C926 1.419 . S
C928 C929 1.363 . S
C928 H931 0.929 . S
C929 C928 1.363 . S
C929 C935 1.428 . S
H930 C926 0.930 . S
H931 C928 0.929 . S
S932 N933 1.613 . S
S932 N934 1.610 . S
N933 S932 1.613 . S
N933 C936 1.350 . S
N934 S932 1.610 . S
N934 C935 1.351 . S
C935 C929 1.428 . S
C935 N934 1.351 . S
C935 C936 1.434 . S
C936 C927 1.429 . S
C936 N933 1.350 . S
C936 C935 1.434 . S
C937 C938 1.369 . S
C937 C939 1.419 . S
C937 H941 0.930 . S
C938 C937 1.369 . S
C938 C947 1.429 . S
C939 C937 1.419 . S
C939 C940 1.363 . S
C939 H942 0.929 . S
C940 C939 1.363 . S
C940 C946 1.428 . S
H941 C937 0.930 . S
H942 C939 0.929 . S
S943 N944 1.613 . S
S943 N945 1.610 . S
N944 S943 1.613 . S
N944 C947 1.350 . S
N945 S943 1.610 . S
N945 C946 1.351 . S
C946 C940 1.428 . S
C946 N945 1.351 . S
C946 C947 1.434 . S
C947 C938 1.429 . S
C947 N944 1.350 . S
C947 C946 1.434 . S
C948 C949 1.369 . S
C948 C950 1.419 . S
C948 H952 0.930 . S
C949 C948 1.369 . S
C949 C958 1.429 . S
C950 C948 1.419 . S
C950 C951 1.363 . S
C950 H953 0.929 . S
C951 C950 1.363 . S
C951 C957 1.428 . S
H952 C948 0.930 . S
H953 C950 0.929 . S
S954 N955 1.613 . S
S954 N956 1.610 . S
N955 S954 1.613 . S
N955 C958 1.350 . S
N956 S954 1.610 . S
N956 C957 1.351 . S
C957 C951 1.428 . S
C957 N956 1.351 . S
C957 C958 1.434 . S
C958 C949 1.429 . S
C958 N955 1.350 . S
C958 C957 1.434 . S
C959 C960 1.369 . S
C959 C961 1.419 . S
C959 H963 0.930 . S
C960 C959 1.369 . S
C960 C969 1.429 . S
C961 C959 1.419 . S
C961 C962 1.363 . S
C961 H964 0.929 . S
C962 C961 1.363 . S
C962 C968 1.428 . S
H963 C959 0.930 . S
H964 C961 0.929 . S
S965 N966 1.613 . S
S965 N967 1.610 . S
N966 S965 1.613 . S
N966 C969 1.350 . S
N967 S965 1.610 . S
N967 C968 1.351 . S
C968 C962 1.428 . S
C968 N967 1.351 . S
C968 C969 1.434 . S
C969 C960 1.429 . S
C969 N966 1.350 . S
C969 C968 1.434 . S
C970 C971 1.369 . S
C970 C972 1.419 . S
C970 H974 0.930 . S
C971 C970 1.369 . S
C971 C980 1.429 . S
C972 C970 1.419 . S
C972 C973 1.363 . S
C972 H975 0.929 . S
C973 C972 1.363 . S
C973 C979 1.428 . S
H974 C970 0.930 . S
H975 C972 0.929 . S
S976 N977 1.613 . S
S976 N978 1.610 . S
N977 S976 1.613 . S
N977 C980 1.350 . S
N978 S976 1.610 . S
N978 C979 1.351 . S
C979 C973 1.428 . S
C979 N978 1.351 . S
C979 C980 1.434 . S
C980 C971 1.429 . S
C980 N977 1.350 . S
C980 C979 1.434 . S
C981 C982 1.369 . S
C981 C983 1.419 . S
C981 H985 0.930 . S
C982 C981 1.369 . S
C982 C991 1.429 . S
C983 C981 1.419 . S
C983 C984 1.363 . S
C983 H986 0.929 . S
C984 C983 1.363 . S
C984 C990 1.428 . S
H985 C981 0.930 . S
H986 C983 0.929 . S
S987 N988 1.613 . S
S987 N989 1.610 . S
N988 S987 1.613 . S
N988 C991 1.350 . S
N989 S987 1.610 . S
N989 C990 1.351 . S
C990 C984 1.428 . S
C990 N989 1.351 . S
C990 C991 1.434 . S
C991 C982 1.429 . S
C991 N988 1.350 . S
C991 C990 1.434 . S
C992 C993 1.369 . S
C992 C994 1.419 . S
C992 H996 0.930 . S
C993 C992 1.369 . S
C993 C1002 1.429 . S
C994 C992 1.419 . S
C994 C995 1.363 . S
C994 H997 0.929 . S
C995 C994 1.363 . S
C995 C1001 1.428 . S
H996 C992 0.930 . S
H997 C994 0.929 . S
S998 N999 1.613 . S
S998 N1000 1.610 . S
N999 S998 1.613 . S
N999 C1002 1.350 . S
N1000 S998 1.610 . S
N1000 C1001 1.351 . S
C1001 C995 1.428 . S
C1001 N1000 1.351 . S
C1001 C1002 1.434 . S
C1002 C993 1.429 . S
C1002 N999 1.350 . S
C1002 C1001 1.434 . S
C1003 C1004 1.369 . S
C1003 C1005 1.419 . S
C1003 H1007 0.930 . S
C1004 C1003 1.369 . S
C1004 C1013 1.429 . S
C1005 C1003 1.419 . S
C1005 C1006 1.363 . S
C1005 H1008 0.929 . S
C1006 C1005 1.363 . S
C1006 C1012 1.428 . S
H1007 C1003 0.930 . S
H1008 C1005 0.929 . S
S1009 N1010 1.613 . S
S1009 N1011 1.610 . S
N1010 S1009 1.613 . S
N1010 C1013 1.350 . S
N1011 S1009 1.610 . S
N1011 C1012 1.351 . S
C1012 C1006 1.428 . S
C1012 N1011 1.351 . S
C1012 C1013 1.434 . S
C1013 C1004 1.429 . S
C1013 N1010 1.350 . S
C1013 C1012 1.434 . S
C1014 C1015 1.369 . S
C1014 C1016 1.419 . S
C1014 H1018 0.930 . S
C1015 C1014 1.369 . S
C1015 C1024 1.429 . S
C1016 C1014 1.419 . S
C1016 C1017 1.363 . S
C1016 H1019 0.929 . S
C1017 C1016 1.363 . S
C1017 C1023 1.428 . S
H1018 C1014 0.930 . S
H1019 C1016 0.929 . S
S1020 N1021 1.613 . S
S1020 N1022 1.610 . S
N1021 S1020 1.613 . S
N1021 C1024 1.350 . S
N1022 S1020 1.610 . S
N1022 C1023 1.351 . S
C1023 C1017 1.428 . S
C1023 N1022 1.351 . S
C1023 C1024 1.434 . S
C1024 C1015 1.429 . S
C1024 N1021 1.350 . S
C1024 C1023 1.434 . S
C1025 C1026 1.369 . S
C1025 C1027 1.419 . S
C1025 H1029 0.930 . S
C1026 C1025 1.369 . S
C1026 C1035 1.429 . S
C1027 C1025 1.419 . S
C1027 C1028 1.363 . S
C1027 H1030 0.929 . S
C1028 C1027 1.363 . S
C1028 C1034 1.428 . S
H1029 C1025 0.930 . S
H1030 C1027 0.929 . S
S1031 N1032 1.613 . S
S1031 N1033 1.610 . S
N1032 S1031 1.613 . S
N1032 C1035 1.350 . S
N1033 S1031 1.610 . S
N1033 C1034 1.351 . S
C1034 C1028 1.428 . S
C1034 N1033 1.351 . S
C1034 C1035 1.434 . S
C1035 C1026 1.429 . S
C1035 N1032 1.350 . S
C1035 C1034 1.434 . S
C1036 C1037 1.369 . S
C1036 C1038 1.419 . S
C1036 H1040 0.930 . S
C1037 C1036 1.369 . S
C1037 C1046 1.429 . S
C1038 C1036 1.419 . S
C1038 C1039 1.363 . S
C1038 H1041 0.929 . S
C1039 C1038 1.363 . S
C1039 C1045 1.428 . S
H1040 C1036 0.930 . S
H1041 C1038 0.929 . S
S1042 N1043 1.613 . S
S1042 N1044 1.610 . S
N1043 S1042 1.613 . S
N1043 C1046 1.350 . S
N1044 S1042 1.610 . S
N1044 C1045 1.351 . S
C1045 C1039 1.428 . S
C1045 N1044 1.351 . S
C1045 C1046 1.434 . S
C1046 C1037 1.429 . S
C1046 N1043 1.350 . S
C1046 C1045 1.434 . S
C1047 C1048 1.369 . S
C1047 C1049 1.419 . S
C1047 H1051 0.930 . S
C1048 C1047 1.369 . S
C1048 C1057 1.429 . S
C1049 C1047 1.419 . S
C1049 C1050 1.363 . S
C1049 H1052 0.929 . S
C1050 C1049 1.363 . S
C1050 C1056 1.428 . S
H1051 C1047 0.930 . S
H1052 C1049 0.929 . S
S1053 N1054 1.613 . S
S1053 N1055 1.610 . S
N1054 S1053 1.613 . S
N1054 C1057 1.350 . S
N1055 S1053 1.610 . S
N1055 C1056 1.351 . S
C1056 C1050 1.428 . S
C1056 N1055 1.351 . S
C1056 C1057 1.434 . S
C1057 C1048 1.429 . S
C1057 N1054 1.350 . S
C1057 C1056 1.434 . S
C1058 C1059 1.369 . S
C1058 C1060 1.419 . S
C1058 H1062 0.930 . S
C1059 C1058 1.369 . S
C1059 C1068 1.429 . S
C1060 C1058 1.419 . S
C1060 C1061 1.363 . S
C1060 H1063 0.929 . S
C1061 C1060 1.363 . S
C1061 C1067 1.428 . S
H1062 C1058 0.930 . S
H1063 C1060 0.929 . S
S1064 N1065 1.613 . S
S1064 N1066 1.610 . S
N1065 S1064 1.613 . S
N1065 C1068 1.350 . S
N1066 S1064 1.610 . S
N1066 C1067 1.351 . S
C1067 C1061 1.428 . S
C1067 N1066 1.351 . S
C1067 C1068 1.434 . S
C1068 C1059 1.429 . S
C1068 N1065 1.350 . S
C1068 C1067 1.434 . S
C1069 C1070 1.369 . S
C1069 C1071 1.419 . S
C1069 H1073 0.930 . S
C1070 C1069 1.369 . S
C1070 C1079 1.429 . S
C1071 C1069 1.419 . S
C1071 C1072 1.363 . S
C1071 H1074 0.929 . S
C1072 C1071 1.363 . S
C1072 C1078 1.428 . S
H1073 C1069 0.930 . S
H1074 C1071 0.929 . S
S1075 N1076 1.613 . S
S1075 N1077 1.610 . S
N1076 S1075 1.613 . S
N1076 C1079 1.350 . S
N1077 S1075 1.610 . S
N1077 C1078 1.351 . S
C1078 C1072 1.428 . S
C1078 N1077 1.351 . S
C1078 C1079 1.434 . S
C1079 C1070 1.429 . S
C1079 N1076 1.350 . S
C1079 C1078 1.434 . S
C1080 C1081 1.369 . S
C1080 C1082 1.419 . S
C1080 H1084 0.930 . S
C1081 C1080 1.369 . S
C1081 C1090 1.429 . S
C1082 C1080 1.419 . S
C1082 C1083 1.363 . S
C1082 H1085 0.929 . S
C1083 C1082 1.363 . S
C1083 C1089 1.428 . S
H1084 C1080 0.930 . S
H1085 C1082 0.929 . S
S1086 N1087 1.613 . S
S1086 N1088 1.610 . S
N1087 S1086 1.613 . S
N1087 C1090 1.350 . S
N1088 S1086 1.610 . S
N1088 C1089 1.351 . S
C1089 C1083 1.428 . S
C1089 N1088 1.351 . S
C1089 C1090 1.434 . S
C1090 C1081 1.429 . S
C1090 N1087 1.350 . S
C1090 C1089 1.434 . S
C1091 C1092 1.369 . S
C1091 C1093 1.419 . S
C1091 H1095 0.930 . S
C1092 C1091 1.369 . S
C1092 C1101 1.429 . S
C1093 C1091 1.419 . S
C1093 C1094 1.363 . S
C1093 H1096 0.929 . S
C1094 C1093 1.363 . S
C1094 C1100 1.428 . S
H1095 C1091 0.930 . S
H1096 C1093 0.929 . S
S1097 N1098 1.613 . S
S1097 N1099 1.610 . S
N1098 S1097 1.613 . S
N1098 C1101 1.350 . S
N1099 S1097 1.610 . S
N1099 C1100 1.351 . S
C1100 C1094 1.428 . S
C1100 N1099 1.351 . S
C1100 C1101 1.434 . S
C1101 C1092 1.429 . S
C1101 N1098 1.350 . S
C1101 C1100 1.434 . S
C1102 C1103 1.369 . S
C1102 C1104 1.419 . S
C1102 H1106 0.930 . S
C1103 C1102 1.369 . S
C1103 C1112 1.429 . S
C1104 C1102 1.419 . S
C1104 C1105 1.363 . S
C1104 H1107 0.929 . S
C1105 C1104 1.363 . S
C1105 C1111 1.428 . S
H1106 C1102 0.930 . S
H1107 C1104 0.929 . S
S1108 N1109 1.613 . S
S1108 N1110 1.610 . S
N1109 S1108 1.613 . S
N1109 C1112 1.350 . S
N1110 S1108 1.610 . S
N1110 C1111 1.351 . S
C1111 C1105 1.428 . S
C1111 N1110 1.351 . S
C1111 C1112 1.434 . S
C1112 C1103 1.429 . S
C1112 N1109 1.350 . S
C1112 C1111 1.434 . S
C1113 C1114 1.369 . S
C1113 C1115 1.419 . S
C1113 H1117 0.930 . S
C1114 C1113 1.369 . S
C1114 C1123 1.429 . S
C1115 C1113 1.419 . S
C1115 C1116 1.363 . S
C1115 H1118 0.929 . S
C1116 C1115 1.363 . S
C1116 C1122 1.428 . S
H1117 C1113 0.930 . S
H1118 C1115 0.929 . S
S1119 N1120 1.613 . S
S1119 N1121 1.610 . S
N1120 S1119 1.613 . S
N1120 C1123 1.350 . S
N1121 S1119 1.610 . S
N1121 C1122 1.351 . S
C1122 C1116 1.428 . S
C1122 N1121 1.351 . S
C1122 C1123 1.434 . S
C1123 C1114 1.429 . S
C1123 N1120 1.350 . S
C1123 C1122 1.434 . S
C1124 C1125 1.369 . S
C1124 C1126 1.419 . S
C1124 H1128 0.930 . S
C1125 C1124 1.369 . S
C1125 C1134 1.429 . S
C1126 C1124 1.419 . S
C1126 C1127 1.363 . S
C1126 H1129 0.929 . S
C1127 C1126 1.363 . S
C1127 C1133 1.428 . S
H1128 C1124 0.930 . S
H1129 C1126 0.929 . S
S1130 N1131 1.613 . S
S1130 N1132 1.610 . S
N1131 S1130 1.613 . S
N1131 C1134 1.350 . S
N1132 S1130 1.610 . S
N1132 C1133 1.351 . S
C1133 C1127 1.428 . S
C1133 N1132 1.351 . S
C1133 C1134 1.434 . S
C1134 C1125 1.429 . S
C1134 N1131 1.350 . S
C1134 C1133 1.434 . S
C1135 C1136 1.369 . S
C1135 C1137 1.419 . S
C1135 H1139 0.930 . S
C1136 C1135 1.369 . S
C1136 C1145 1.429 . S
C1137 C1135 1.419 . S
C1137 C1138 1.363 . S
C1137 H1140 0.929 . S
C1138 C1137 1.363 . S
C1138 C1144 1.428 . S
H1139 C1135 0.930 . S
H1140 C1137 0.929 . S
S1141 N1142 1.613 . S
S1141 N1143 1.610 . S
N1142 S1141 1.613 . S
N1142 C1145 1.350 . S
N1143 S1141 1.610 . S
N1143 C1144 1.351 . S
C1144 C1138 1.428 . S
C1144 N1143 1.351 . S
C1144 C1145 1.434 . S
C1145 C1136 1.429 . S
C1145 N1142 1.350 . S
C1145 C1144 1.434 . S
C1146 C1147 1.369 . S
C1146 C1148 1.419 . S
C1146 H1150 0.930 . S
C1147 C1146 1.369 . S
C1147 C1156 1.429 . S
C1148 C1146 1.419 . S
C1148 C1149 1.363 . S
C1148 H1151 0.929 . S
C1149 C1148 1.363 . S
C1149 C1155 1.428 . S
H1150 C1146 0.930 . S
H1151 C1148 0.929 . S
S1152 N1153 1.613 . S
S1152 N1154 1.610 . S
N1153 S1152 1.613 . S
N1153 C1156 1.350 . S
N1154 S1152 1.610 . S
N1154 C1155 1.351 . S
C1155 C1149 1.428 . S
C1155 N1154 1.351 . S
C1155 C1156 1.434 . S
C1156 C1147 1.429 . S
C1156 N1153 1.350 . S
C1156 C1155 1.434 . S
C1157 C1158 1.369 . S
C1157 C1159 1.419 . S
C1157 H1161 0.930 . S
C1158 C1157 1.369 . S
C1158 C1167 1.429 . S
C1159 C1157 1.419 . S
C1159 C1160 1.363 . S
C1159 H1162 0.929 . S
C1160 C1159 1.363 . S
C1160 C1166 1.428 . S
H1161 C1157 0.930 . S
H1162 C1159 0.929 . S
S1163 N1164 1.613 . S
S1163 N1165 1.610 . S
N1164 S1163 1.613 . S
N1164 C1167 1.350 . S
N1165 S1163 1.610 . S
N1165 C1166 1.351 . S
C1166 C1160 1.428 . S
C1166 N1165 1.351 . S
C1166 C1167 1.434 . S
C1167 C1158 1.429 . S
C1167 N1164 1.350 . S
C1167 C1166 1.434 . S
C641 C459 1.755 . S
C643 C18 1.751 1_565 S
C652 C330 1.757 . S
C654 C49 1.747 1_655 S
C663 C98 1.751 1_545 S
C665 C379 1.756 . S
C674 C129 1.744 1_455 S
C676 C410 1.759 . S
C685 C178 1.744 . S
C687 C219 1.759 1_554 S
C696 C250 1.753 1_556 S
C698 C209 1.751 . S
C707 C258 1.751 . S
C709 C299 1.754 1_554 S
C718 C170 1.753 1_556 S
C720 C289 1.750 . S
C729 C139 1.753 . S
C731 C338 1.751 . S
C740 C369 1.750 . S
C742 C10 1.756 . S
C751 C59 1.756 . S
C753 C418 1.750 . S
C762 C90 1.755 . S
C764 C449 1.748 . S
C773 C498 1.746 1_545 S
C775 C539 1.756 . S
C784 C570 1.758 . S
C786 C529 1.749 1_455 S
C795 C619 1.754 . S
C797 C578 1.751 1_565 S
C806 C609 1.748 1_655 S
C808 C490 1.755 . S
C817 C9 1.214 . S
C819 C169 1.213 . S
C828 C218 1.208 . S
C830 C58 1.218 . S
C839 C89 1.223 . S
C841 C249 1.210 . S
C850 C138 1.215 . S
C852 C298 1.220 . S
C861 C329 1.221 . S
C863 C489 1.214 . S
C872 C538 1.223 . S
C874 C378 1.209 . S
C883 C409 1.222 . S
C885 C569 1.209 . S
C894 C458 1.218 . S
C896 C618 1.210 . S
C905 C579 2.570 . S
C907 C19 2.569 1_556 S
C916 C50 2.567 1_554 S
C918 C610 2.572 . S
C927 C99 2.567 1_556 S
C929 C499 2.573 . S
C938 C130 2.573 1_554 S
C940 C530 2.568 . S
C949 C179 2.567 . S
C951 C419 2.572 . S
C960 C210 2.567 . S
C962 C450 2.573 . S
C971 C259 2.570 . S
C973 C339 2.569 . S
C982 C370 2.570 . S
C984 C290 2.571 . S
C993 C6 1.264 . S
C995 C15 1.257 . S
C1004 C55 1.255 . S
C1006 C46 1.265 . S
C1015 C86 1.256 . S
C1017 C95 1.264 . S
C1026 C126 1.262 . S
C1028 C135 1.260 . S
C1037 C175 1.266 . S
C1039 C166 1.256 . S
C1048 C215 1.258 . S
C1050 C206 1.263 . S
C1059 C246 1.265 . S
C1061 C255 1.257 . S
C1070 C286 1.266 . S
C1072 C295 1.256 . S
C1081 C326 1.256 . S
C1083 C335 1.264 . S
C1092 C366 1.261 . S
C1094 C375 1.261 . S
C1103 C415 1.257 . S
C1105 C406 1.264 . S
C1114 C455 1.256 . S
C1116 C446 1.264 . S
C1125 C486 1.261 . S
C1127 C495 1.260 . S
C1136 C526 1.259 . S
C1138 C535 1.262 . S
C1147 C575 1.257 . S
C1149 C566 1.263 . S
C1158 C615 1.266 . S
C1160 C606 1.256 . S
