# Generated by pormake.
# Topology rac, (4)-cn, num edge types: 1
# Building blocks:
#     Node 0, Type 0, BuildingBlock: QUQFOY_clean_sbu_3, # of connection points: 4
#     Node 1, Type 0, BuildingBlock: QUQFOY_clean_sbu_3, # of connection points: 4
#     Node 2, Type 0, BuildingBlock: QUQFOY_clean_sbu_3, # of connection points: 4
#     Node 3, Type 0, BuildingBlock: QUQFOY_clean_sbu_3, # of connection points: 4
#     Node 4, Type 0, BuildingBlock: QUQFOY_clean_sbu_3, # of connection points: 4
#     Node 5, Type 0, BuildingBlock: QUQFOY_clean_sbu_3, # of connection points: 4
#     Node 6, Type 0, BuildingBlock: QUQFOY_clean_sbu_3, # of connection points: 4
#     Node 7, Type 0, BuildingBlock: QUQFOY_clean_sbu_3, # of connection points: 4
#     Edge 8, Type (0, 0), BuildingBlock: EZIPEK_clean_linker_0, # of connection points: 2
#     Edge 9, Type (0, 0), BuildingBlock: EZIPEK_clean_linker_0, # of connection points: 2
#     Edge 10, Type (0, 0), BuildingBlock: EZIPEK_clean_linker_0, # of connection points: 2
#     Edge 11, Type (0, 0), BuildingBlock: EZIPEK_clean_linker_0, # of connection points: 2
#     Edge 12, Type (0, 0), BuildingBlock: EZIPEK_clean_linker_0, # of connection points: 2
#     Edge 13, Type (0, 0), BuildingBlock: EZIPEK_clean_linker_0, # of connection points: 2
#     Edge 14, Type (0, 0), BuildingBlock: EZIPEK_clean_linker_0, # of connection points: 2
#     Edge 15, Type (0, 0), BuildingBlock: EZIPEK_clean_linker_0, # of connection points: 2
#     Edge 16, Type (0, 0), BuildingBlock: EZIPEK_clean_linker_0, # of connection points: 2
#     Edge 17, Type (0, 0), BuildingBlock: EZIPEK_clean_linker_0, # of connection points: 2
#     Edge 18, Type (0, 0), BuildingBlock: EZIPEK_clean_linker_0, # of connection points: 2
#     Edge 19, Type (0, 0), BuildingBlock: EZIPEK_clean_linker_0, # of connection points: 2
#     Edge 20, Type (0, 0), BuildingBlock: EZIPEK_clean_linker_0, # of connection points: 2
#     Edge 21, Type (0, 0), BuildingBlock: EZIPEK_clean_linker_0, # of connection points: 2
#     Edge 22, Type (0, 0), BuildingBlock: EZIPEK_clean_linker_0, # of connection points: 2
#     Edge 23, Type (0, 0), BuildingBlock: EZIPEK_clean_linker_0, # of connection points: 2
# Relax obj value: 0.225
# Max RMSD: 0.074
# Mean RMSD: 0.074
data_MOF--net-rac--node1-QUQFOY_clean_sbu_3--edge1-EZIPEK_clean_linker_0
_symmetry_space_group_name_H-M    P1
_symmetry_Int_Tables_number       1
_symmetry_cell_setting            triclinic
loop_
_symmetry_equiv_pos_as_xyz
'x, y, z'
_cell_length_a     32.049638
_cell_length_b     15.863623
_cell_length_c     27.5758
_cell_angle_alpha  90.11692
_cell_angle_beta   90.005453
_cell_angle_gamma 90.308614
loop_
_atom_site_label
_atom_site_type_symbol
_atom_site_fract_x
_atom_site_fract_y
_atom_site_fract_z
_atom_type_partial_charge
C0 C 0.31645 0.26087 0.15459 0.0
O1 O 0.28174 0.29693 0.14752 0.0
Cd2 Cd 0.25411 0.3399 0.07121 0.0
O3 O 0.34296 0.25171 0.1205 0.0
Cd4 Cd 0.34919 0.29625 0.03375 0.0
C5 C 0.27602 0.15361 0.00923 0.0
O6 O 0.30543 0.41593 0.02957 0.0
O7 O 0.31764 0.3546 0.96082 0.0
O8 O 0.41621 0.30622 0.99224 0.0
C9 C 0.30097 0.41469 0.9839 0.0
O10 O 0.25168 0.20748 0.02827 0.0
C11 C 0.4291 0.36484 0.02024 0.0
O12 O 0.31555 0.1645 0.00793 0.0
O13 O 0.4075 0.38147 0.05755 0.0
C14 C 0.13619 0.78777 0.14405 0.0
O15 O 0.1494 0.83972 0.11312 0.0
Cd16 Cd 0.12519 0.75952 0.04042 0.0
O17 O 0.11612 0.7248 0.12805 0.0
Cd18 Cd 0.11274 0.7448 0.0369 0.0
C19 C 0.15357 0.90307 0.99195 0.0
O20 O 0.17214 0.64702 0.0351 0.0
O21 O 0.14516 0.67189 0.96511 0.0
O22 O 0.05144 0.71593 0.98671 0.0
C23 C 0.17173 0.63242 0.99004 0.0
O24 O 0.15477 0.83434 0.96938 0.0
C25 C 0.03559 0.66552 0.01746 0.0
O26 O 0.13069 0.90473 0.02931 0.0
O27 O 0.05239 0.66204 0.059 0.0
C28 C 0.31305 0.16885 0.35458 0.0
O29 O 0.27571 0.15261 0.36697 0.0
Cd30 Cd 0.25201 0.15618 0.44949 0.0
O31 O 0.34176 0.17696 0.38625 0.0
Cd32 Cd 0.35087 0.16398 0.47546 0.0
C33 C 0.29884 0.34738 0.47953 0.0
O34 O 0.29561 0.0745 0.49948 0.0
O35 O 0.32144 0.15222 0.55722 0.0
O36 O 0.3913 0.04065 0.45978 0.0
C37 C 0.29653 0.09417 0.54409 0.0
O38 O 0.26703 0.30138 0.47074 0.0
C39 C 0.42281 0.06347 0.48436 0.0
O40 O 0.33558 0.31642 0.48184 0.0
O41 O 0.42266 0.1374 0.50275 0.0
C42 C 0.17226 0.83486 0.34784 0.0
O43 O 0.20441 0.87622 0.36078 0.0
Cd44 Cd 0.22806 0.88397 0.44391 0.0
O45 O 0.14806 0.80145 0.379 0.0
Cd46 Cd 0.13978 0.79752 0.46812 0.0
C47 C 0.22451 0.67158 0.46967 0.0
O48 O 0.17276 0.92289 0.49672 0.0
O49 O 0.16343 0.82432 0.55015 0.0
O50 O 0.07986 0.87964 0.45277 0.0
C51 C 0.17466 0.89923 0.54075 0.0
O52 O 0.24537 0.73925 0.46339 0.0
C53 C 0.05539 0.83802 0.47983 0.0
O54 O 0.18456 0.6713 0.47037 0.0
O55 O 0.06872 0.76922 0.49802 0.0
C56 C 0.68268 0.66107 0.8461 0.0
O57 O 0.71329 0.61412 0.85705 0.0
Cd58 Cd 0.73531 0.58067 0.93918 0.0
O59 O 0.65663 0.68424 0.8782 0.0
Cd60 Cd 0.64439 0.65861 0.96508 0.0
C61 C 0.72859 0.78743 0.97285 0.0
O62 O 0.68167 0.54149 0.99349 0.0
O63 O 0.66668 0.63673 0.04778 0.0
O64 O 0.57188 0.65796 0.99132 0.0
C65 C 0.68312 0.56634 0.03749 0.0
O66 O 0.75031 0.72152 0.96591 0.0
C67 C 0.56486 0.58848 0.96895 0.0
O68 O 0.68861 0.78605 0.97171 0.0
O69 O 0.5926 0.56148 0.93999 0.0
C70 C 0.80453 0.2715 0.8462 0.0
O71 O 0.76864 0.29206 0.86144 0.0
Cd72 Cd 0.75177 0.29785 0.94594 0.0
O73 O 0.83541 0.2654 0.87506 0.0
Cd74 Cd 0.85046 0.29371 0.96214 0.0
C75 C 0.80206 0.11215 0.97763 0.0
O76 O 0.79761 0.38697 0.98904 0.0
O77 O 0.82588 0.30919 0.04499 0.0
O78 O 0.92055 0.33034 0.98932 0.0
C79 C 0.80201 0.3694 0.03369 0.0
O80 O 0.76966 0.15634 0.97009 0.0
C81 C 0.92084 0.39899 0.96531 0.0
O82 O 0.8387 0.14392 0.97572 0.0
O83 O 0.89151 0.41082 0.93525 0.0
C84 C 0.67919 0.78962 0.64952 0.0
O85 O 0.70869 0.83943 0.63785 0.0
Cd86 Cd 0.72725 0.87436 0.55509 0.0
O87 O 0.65311 0.76366 0.61799 0.0
Cd88 Cd 0.63926 0.7863 0.53099 0.0
C89 C 0.72617 0.66783 0.51923 0.0
O90 O 0.67044 0.91464 0.50517 0.0
O91 O 0.66072 0.8197 0.44936 0.0
O92 O 0.58105 0.86882 0.55323 0.0
C93 C 0.67191 0.89405 0.46048 0.0
O94 O 0.74632 0.7361 0.52649 0.0
C95 C 0.55539 0.83215 0.52511 0.0
O96 O 0.68625 0.66468 0.52095 0.0
O97 O 0.56712 0.76452 0.50389 0.0
C98 C 0.80305 0.18254 0.6438 0.0
O99 O 0.76631 0.16684 0.629 0.0
Cd100 Cd 0.74685 0.161 0.54531 0.0
O101 O 0.83383 0.18555 0.61453 0.0
Cd102 Cd 0.84797 0.16096 0.52667 0.0
C103 C 0.79932 0.34511 0.5125 0.0
O104 O 0.79252 0.07243 0.50257 0.0
O105 O 0.82125 0.14266 0.44385 0.0
O106 O 0.88824 0.03871 0.54674 0.0
C107 C 0.7951 0.08742 0.45752 0.0
O108 O 0.76641 0.30213 0.52078 0.0
C109 C 0.92018 0.06015 0.52256 0.0
O110 O 0.83557 0.31194 0.51362 0.0
O111 O 0.92025 0.13278 0.50277 0.0
C112 C 0.22676 0.08058 0.95465 0.0
C113 C 0.25637 0.07483 0.99257 0.0
C114 C 0.22476 0.94303 0.01948 0.0
C115 C 0.19006 0.95942 0.98872 0.0
N116 N 0.15853 0.03866 0.92424 0.0
N117 N 0.28589 -0.0004 0.05992 0.0
C118 C 0.19142 0.02609 0.95483 0.0
C119 C 0.2567 0.00453 0.0239 0.0
N120 N 0.23288 0.13864 0.91887 0.0
N121 N 0.22731 0.86847 0.04414 0.0
H122 H 0.31109 0.0412 0.06244 0.0
H123 H 0.28421 0.95674 0.08842 0.0
H124 H 0.20443 0.82164 0.04235 0.0
H125 H 0.25381 0.84948 0.06293 0.0
H126 H 0.21399 0.1439 0.88835 0.0
H127 H 0.25975 0.1762 0.91785 0.0
H128 H 0.15575 0.09099 0.9018 0.0
H129 H 0.13276 -0.0018 0.92313 0.0
C130 C 0.27558 0.56535 0.43836 0.0
C131 C 0.24793 0.59209 0.4756 0.0
C132 C 0.2644 0.46605 0.52291 0.0
C133 C 0.29119 0.43879 0.48513 0.0
N134 N 0.33274 0.47402 0.41545 0.0
N135 N 0.22422 0.57992 0.55833 0.0
C136 C 0.30038 0.49261 0.44575 0.0
C137 C 0.24477 0.54602 0.51952 0.0
N138 N 0.27642 0.60647 0.39482 0.0
N139 N 0.2573 0.41422 0.56156 0.0
H140 H 0.20994 0.63883 0.55725 0.0
H141 H 0.22415 0.55317 0.59275 0.0
H142 H 0.27441 0.35926 0.56696 0.0
H143 H 0.23405 0.4243 0.58725 0.0
H144 H 0.29234 0.58411 0.36454 0.0
H145 H 0.25822 0.65913 0.38737 0.0
H146 H 0.34329 0.5145 0.38834 0.0
H147 H 0.35209 0.42242 0.42106 0.0
C148 C 0.74808 0.91601 0.02098 0.0
C149 C 0.75139 0.86787 0.9778 0.0
C150 C 0.80418 0.96581 0.94656 0.0
C151 C 0.79513 0.02129 0.98522 0.0
N152 N 0.76131 0.04979 0.06124 0.0
N153 N 0.77927 0.8508 0.89677 0.0
C154 C 0.76824 -0.00409 0.02341 0.0
C155 C 0.779 0.89309 0.94008 0.0
N156 N 0.72655 0.88455 0.05979 0.0
N157 N 0.83645 0.98302 0.91571 0.0
H158 H 0.76077 0.79799 0.88967 0.0
H159 H 0.79492 0.87261 0.86613 0.0
H160 H 0.85569 0.03572 0.91954 0.0
H161 H 0.84693 0.94072 0.88954 0.0
H162 H 0.72635 0.91281 0.09389 0.0
H163 H 0.71111 0.82654 0.05896 0.0
H164 H 0.73813 0.04085 0.08721 0.0
H165 H 0.77847 0.10539 0.06566 0.0
C166 C 0.74742 0.54275 0.46941 0.0
C167 C 0.75054 0.58984 0.51301 0.0
C168 C 0.80301 0.49157 0.54365 0.0
C169 C 0.79351 0.43638 0.5049 0.0
N170 N 0.7601 0.40967 0.42839 0.0
N171 N 0.77899 0.60635 0.59388 0.0
C172 C 0.76708 0.46273 0.46664 0.0
C173 C 0.77826 0.5644 0.55047 0.0
N174 N 0.72652 0.57537 0.43058 0.0
N175 N 0.83531 0.47385 0.57421 0.0
H176 H 0.76091 0.65925 0.60121 0.0
H177 H 0.79473 0.58433 0.62433 0.0
H178 H 0.85427 0.42129 0.56975 0.0
H179 H 0.84612 0.51567 0.6006 0.0
H180 H 0.7262 0.54763 0.39635 0.0
H181 H 0.71206 0.63413 0.43153 0.0
H182 H 0.73724 0.41932 0.4022 0.0
H183 H 0.777 0.35414 0.42381 0.0
C184 C 0.31091 0.14795 0.21758 0.0
C185 C 0.32538 0.22903 0.20374 0.0
C186 C 0.33657 0.26749 0.28858 0.0
C187 C 0.32211 0.18624 0.30281 0.0
N188 N 0.3053 0.04282 0.28119 0.0
N189 N 0.36239 0.35663 0.22366 0.0
C190 C 0.31242 0.1243 0.2673 0.0
C191 C 0.34195 0.28542 0.23856 0.0
N192 N 0.29434 0.095 0.18339 0.0
N193 N 0.34198 0.32975 0.32239 0.0
H194 H 0.36637 0.37152 0.18709 0.0
H195 H 0.37877 0.39626 0.24713 0.0
H196 H 0.33703 0.32073 0.35931 0.0
H197 H 0.34773 0.3925 0.31353 0.0
H198 H 0.2787 0.03913 0.1917 0.0
H199 H 0.29441 0.10928 0.14649 0.0
H200 H 0.30165 -0.00695 0.25687 0.0
H201 H 0.30682 0.02361 0.31734 0.0
C202 C 0.14228 0.88738 0.26964 0.0
C203 C 0.16317 0.82318 0.29567 0.0
C204 C 0.16888 0.73842 0.22154 0.0
C205 C 0.14487 0.79929 0.19642 0.0
N206 N 0.10295 0.9251 0.1978 0.0
N207 N 0.19132 0.68262 0.29899 0.0
C208 C 0.13011 0.87227 0.22075 0.0
C209 C 0.17488 0.74707 0.27238 0.0
N210 N 0.13438 0.96301 0.29159 0.0
N211 N 0.18772 0.67464 0.19643 0.0
H212 H 0.19733 0.68749 0.33606 0.0
H213 H 0.19606 0.62227 0.28523 0.0
H214 H 0.18468 0.66672 0.15904 0.0
H215 H 0.20937 0.63392 0.21178 0.0
H216 H 0.12356 0.0157 0.27308 0.0
H217 H 0.14146 0.97515 0.32787 0.0
H218 H 0.08758 0.97435 0.21512 0.0
H219 H 0.09281 0.91543 0.16227 0.0
C220 C 0.67672 0.63686 0.75629 0.0
C221 C 0.67884 0.6939 0.79587 0.0
C222 C 0.6739 0.81309 0.73938 0.0
C223 C 0.67703 0.75641 0.69977 0.0
N224 N 0.68828 0.61438 0.67058 0.0
N225 N 0.68616 0.83739 0.82482 0.0
C226 C 0.68009 0.66818 0.70817 0.0
C227 C 0.67903 0.78241 0.78742 0.0
N228 N 0.67012 0.5529 0.76458 0.0
N229 N 0.66476 0.89594 0.73122 0.0
H230 H 0.69032 0.8184 0.86061 0.0
H231 H 0.69169 0.90154 0.81975 0.0
H232 H 0.66021 0.92046 0.69655 0.0
H233 H 0.65769 0.93841 0.75885 0.0
H234 H 0.66388 0.50957 0.73706 0.0
H235 H 0.66676 0.52777 0.79931 0.0
H236 H 0.69585 0.5512 0.67549 0.0
H237 H 0.69126 0.63398 0.63472 0.0
C238 C 0.81336 0.29037 0.70908 0.0
C239 C 0.80919 0.20426 0.6955 0.0
C240 C 0.80933 0.16212 0.78103 0.0
C241 C 0.80954 0.2486 0.79454 0.0
N242 N 0.81018 0.39565 0.77316 0.0
N243 N 0.80171 0.05786 0.71685 0.0
C244 C 0.81146 0.31296 0.75901 0.0
C245 C 0.80707 0.13992 0.73106 0.0
N246 N 0.81895 0.35041 0.67409 0.0
N247 N 0.81122 0.10141 0.81614 0.0
H248 H 0.80217 0.03907 0.68058 0.0
H249 H 0.79491 0.00863 0.74048 0.0
H250 H 0.81097 0.11525 0.85312 0.0
H251 H 0.81549 0.03761 0.80908 0.0
H252 H 0.82652 0.41305 0.68132 0.0
H253 H 0.81845 0.33678 0.63713 0.0
H254 H 0.80647 0.44593 0.74944 0.0
H255 H 0.81083 0.41431 0.80947 0.0
C256 C 0.50512 0.39105 0.00549 0.0
C257 C 0.46379 0.42138 0.0062 0.0
C258 C 0.48802 0.56069 0.9786 0.0
C259 C 0.52964 0.53241 0.98222 0.0
N260 N 0.57836 0.42648 0.00966 0.0
N261 N 0.41543 0.53746 0.99864 0.0
C262 C 0.5384 0.44897 0.99828 0.0
C263 C 0.45512 0.50707 0.99453 0.0
N264 N 0.5127 0.30713 0.01216 0.0
N265 N 0.47979 0.63699 0.95779 0.0
H266 H 0.38964 0.49961 0.00642 0.0
H267 H 0.40827 0.60133 0.99701 0.0
H268 H 0.50316 0.67748 0.94534 0.0
H269 H 0.44986 0.65718 0.949 0.0
H270 H 0.54171 0.27974 0.0061 0.0
H271 H 0.4893 0.26346 0.02028 0.0
H272 H 0.586 0.3696 0.0261 0.0
H273 H 0.60362 0.46789 0.00767 0.0
C274 C 0.96339 0.61706 0.9963 0.0
C275 C 0.00614 0.59893 0.00223 0.0
C276 C -0.0061 0.45227 0.9773 0.0
C277 C 0.95051 0.46798 0.97667 0.0
N278 N 0.89316 0.56128 0.99629 0.0
N279 N 0.06208 0.49707 0.00483 0.0
C280 C 0.93492 0.54947 0.98872 0.0
C281 C 0.02139 0.5158 0.99476 0.0
N282 N 0.94993 0.69859 0.9983 0.0
N283 N 0.00903 0.37816 0.95919 0.0
H284 H 0.08419 0.54218 0.01502 0.0
H285 H 0.07338 0.43568 0.00609 0.0
H286 H 0.98984 0.33092 0.945 0.0
H287 H 0.04069 0.36682 0.95386 0.0
H288 H 0.91977 0.7165 0.98891 0.0
H289 H 0.96987 0.74926 0.00561 0.0
H290 H 0.88077 0.61712 0.00987 0.0
H291 H 0.8711 0.51298 0.99422 0.0
C292 C 0.48708 0.89534 0.54734 0.0
C293 C 0.51717 0.87781 0.51119 0.0
C294 C 0.48334 0.97759 0.45594 0.0
C295 C 0.45637 0.00229 0.49407 0.0
N296 N 0.43249 0.9879 0.57669 0.0
N297 N 0.54749 0.90864 0.43284 0.0
C298 C 0.45819 0.96198 0.54002 0.0
C299 C 0.51595 0.91971 0.46565 0.0
N300 N 0.48585 0.84673 0.58821 0.0
N301 N 0.47783 0.00958 0.41037 0.0
H302 H 0.5717 0.86592 0.43766 0.0
H303 H 0.55138 0.9459 0.40212 0.0
H304 H 0.45609 0.05628 0.40243 0.0
H305 H 0.49291 0.98611 0.37979 0.0
H306 H 0.46259 0.8505 0.61443 0.0
H307 H 0.50643 0.79688 0.59383 0.0
H308 H 0.43511 0.96756 0.6124 0.0
H309 H 0.40978 0.03402 0.57222 0.0
C310 C 0.98089 0.97472 0.55113 0.0
C311 C 0.95341 -0.00198 0.51324 0.0
C312 C 0.98516 0.89284 0.45945 0.0
C313 C 0.01601 0.87794 0.49504 0.0
N314 N 0.04595 0.90835 0.57359 0.0
N315 N 0.9284 0.98065 0.43118 0.0
C316 C 0.01425 0.91872 0.54094 0.0
C317 C 0.95516 0.95719 0.46733 0.0
N318 N 0.97518 0.00636 0.59681 0.0
N319 N 0.9845 0.84416 0.41848 0.0
H320 H 0.90464 0.02447 0.43617 0.0
H321 H 0.93085 0.96024 0.39542 0.0
H322 H 0.00598 0.79596 0.41255 0.0
H323 H 0.96097 0.84605 0.39252 0.0
H324 H 0.99095 0.9842 0.62718 0.0
H325 H 0.95258 0.05125 0.60507 0.0
H326 H 0.04949 0.94502 0.60469 0.0
H327 H 0.07039 0.86626 0.56837 0.0
C328 C 0.19479 0.49554 0.95682 0.0
C329 C 0.20384 0.58068 0.96742 0.0
C330 C 0.27814 0.55501 0.95848 0.0
C331 C 0.26933 0.46814 0.96162 0.0
N332 N 0.22062 0.35242 0.95589 0.0
N333 N 0.25224 0.69715 0.96929 0.0
C334 C 0.22799 0.43718 0.95698 0.0
C335 C 0.24505 0.61261 0.96449 0.0
N336 N 0.15467 0.47129 0.94743 0.0
N337 N 0.31815 0.58104 0.95026 0.0
H338 H 0.22797 0.74064 0.97032 0.0
H339 H 0.28179 0.72393 0.9729 0.0
H340 H 0.3419 0.53772 0.94358 0.0
H341 H 0.32695 0.64365 0.94538 0.0
H342 H 0.14609 0.41064 0.93676 0.0
H343 H 0.13046 0.5148 0.94563 0.0
H344 H 0.19109 0.3252 0.95867 0.0
H345 H 0.24472 0.30901 0.95312 0.0
C346 C 0.27037 0.9759 0.59276 0.0
C347 C 0.26479 0.05939 0.57656 0.0
C348 C 0.18972 0.03971 0.57356 0.0
C349 C 0.19698 0.95223 0.5762 0.0
N350 N 0.23723 0.84209 0.61285 0.0
N351 N 0.2207 0.17991 0.56825 0.0
C352 C 0.23501 0.92208 0.59508 0.0
C353 C 0.22458 0.09497 0.57414 0.0
N354 N 0.30974 0.9475 0.60163 0.0
N355 N 0.14995 0.06736 0.56651 0.0
H356 H 0.24679 0.21952 0.56873 0.0
H357 H 0.19241 0.21114 0.56487 0.0
H358 H 0.12476 0.02522 0.56631 0.0
H359 H 0.14175 0.13026 0.56227 0.0
H360 H 0.31693 0.88493 0.60891 0.0
H361 H 0.33544 0.98829 0.60092 0.0
H362 H 0.26398 0.81668 0.62829 0.0
H363 H 0.21073 0.80422 0.61641 0.0
C364 C 0.70133 0.43616 0.07904 0.0
C365 C 0.71007 0.52228 0.07193 0.0
C366 C 0.78429 0.49596 0.07921 0.0
C367 C 0.77531 0.41066 0.06931 0.0
N368 N 0.7279 0.29341 0.07268 0.0
N369 N 0.75755 0.63902 0.0808 0.0
C370 C 0.73457 0.37828 0.07533 0.0
C371 C 0.75091 0.55407 0.07896 0.0
N372 N 0.66105 0.41122 0.08616 0.0
N373 N 0.8248 0.52035 0.08546 0.0
H374 H 0.73289 0.68146 0.08272 0.0
H375 H 0.78692 0.66726 0.08098 0.0
H376 H 0.84892 0.47624 0.08502 0.0
H377 H 0.83415 0.5815 0.09395 0.0
H378 H 0.65201 0.34923 0.09289 0.0
H379 H 0.63716 0.45555 0.08897 0.0
H380 H 0.69848 0.26535 0.07209 0.0
H381 H 0.75272 0.25121 0.07072 0.0
C382 C 0.68778 0.03632 0.43065 0.0
C383 C 0.69433 0.9488 0.42612 0.0
C384 C 0.76757 0.97098 0.40808 0.0
C385 C 0.76282 0.05419 0.4252 0.0
N386 N 0.71967 0.17588 0.43436 0.0
N387 N 0.73302 0.83972 0.38577 0.0
C388 C 0.72291 0.09072 0.42886 0.0
C389 C 0.73175 0.91851 0.40555 0.0
N390 N 0.6486 0.06482 0.44058 0.0
N391 N 0.80659 0.94132 0.39851 0.0
H392 H 0.70618 0.80298 0.38176 0.0
H393 H 0.75926 0.81488 0.36884 0.0
H394 H 0.83267 0.98112 0.39927 0.0
H395 H 0.8131 0.8785 0.39088 0.0
H396 H 0.64132 0.12753 0.44753 0.0
H397 H 0.62305 0.02365 0.44119 0.0
H398 H 0.69157 0.20796 0.43736 0.0
H399 H 0.74604 0.21472 0.43315 0.0
loop_
_geom_bond_atom_site_label_1
_geom_bond_atom_site_label_2
_geom_bond_distance
_geom_bond_site_symmetry_2
_ccdc_geom_bond_type
C0 O1 1.306 . S
C0 O3 1.160 . S
O1 C0 1.306 . S
O1 Cd2 2.228 . S
Cd2 O1 2.228 . S
Cd2 O6 2.273 . S
Cd2 O10 2.277 . S
O3 C0 1.160 . S
O3 Cd4 2.203 . S
Cd4 O3 2.203 . S
Cd4 O6 2.411 . S
Cd4 O7 2.333 1_554 S
Cd4 O8 2.352 . S
Cd4 O12 2.277 . S
Cd4 O13 2.356 1_554 S
C5 O10 1.209 . S
C5 O12 1.226 . S
O6 Cd2 2.273 . S
O6 Cd4 2.411 . S
O6 C9 1.320 . S
O7 Cd4 2.333 1_556 S
O7 C9 1.214 1_556 S
O8 Cd4 2.352 . S
O8 C11 1.258 . S
C9 O6 1.320 . S
C9 O7 1.214 1_554 S
O10 Cd2 2.277 . S
O10 C5 1.209 . S
C11 O8 1.258 . S
C11 O13 1.282 1_554 S
O12 Cd4 2.277 . S
O12 C5 1.226 . S
O13 Cd4 2.356 1_556 S
O13 C11 1.282 1_556 S
C14 O15 1.306 . S
C14 O17 1.160 . S
O15 C14 1.306 . S
O15 Cd16 2.228 . S
Cd16 O15 2.228 . S
Cd16 O20 2.273 . S
Cd16 O24 2.277 . S
O17 C14 1.160 . S
O17 Cd18 2.203 . S
Cd18 O17 2.203 . S
Cd18 O20 2.411 . S
Cd18 O21 2.333 1_554 S
Cd18 O22 2.352 . S
Cd18 O26 2.277 . S
Cd18 O27 2.356 1_554 S
C19 O24 1.209 . S
C19 O26 1.226 . S
O20 Cd16 2.273 . S
O20 Cd18 2.411 . S
O20 C23 1.320 . S
O21 Cd18 2.333 1_556 S
O21 C23 1.214 1_556 S
O22 Cd18 2.352 . S
O22 C25 1.258 . S
C23 O20 1.320 . S
C23 O21 1.214 1_554 S
O24 Cd16 2.277 . S
O24 C19 1.209 . S
C25 O22 1.258 . S
C25 O27 1.282 1_554 S
O26 Cd18 2.277 . S
O26 C19 1.226 . S
O27 Cd18 2.356 1_556 S
O27 C25 1.282 1_556 S
C28 O29 1.306 . S
C28 O31 1.160 . S
O29 C28 1.306 . S
O29 Cd30 2.228 . S
Cd30 O29 2.228 . S
Cd30 O34 2.273 . S
Cd30 O38 2.277 . S
O31 C28 1.160 . S
O31 Cd32 2.203 . S
Cd32 O31 2.203 . S
Cd32 O34 2.411 . S
Cd32 O35 2.333 . S
Cd32 O36 2.352 . S
Cd32 O40 2.277 . S
Cd32 O41 2.356 . S
C33 O38 1.209 . S
C33 O40 1.226 . S
O34 Cd30 2.273 . S
O34 Cd32 2.411 . S
O34 C37 1.320 . S
O35 Cd32 2.333 . S
O35 C37 1.214 . S
O36 Cd32 2.352 . S
O36 C39 1.258 . S
C37 O34 1.320 . S
C37 O35 1.214 . S
O38 Cd30 2.277 . S
O38 C33 1.209 . S
C39 O36 1.258 . S
C39 O41 1.282 . S
O40 Cd32 2.277 . S
O40 C33 1.226 . S
O41 Cd32 2.356 . S
O41 C39 1.282 . S
C42 O43 1.306 . S
C42 O45 1.160 . S
O43 C42 1.306 . S
O43 Cd44 2.228 . S
Cd44 O43 2.228 . S
Cd44 O48 2.273 . S
Cd44 O52 2.277 . S
O45 C42 1.160 . S
O45 Cd46 2.203 . S
Cd46 O45 2.203 . S
Cd46 O48 2.411 . S
Cd46 O49 2.333 . S
Cd46 O50 2.352 . S
Cd46 O54 2.277 . S
Cd46 O55 2.356 . S
C47 O52 1.209 . S
C47 O54 1.226 . S
O48 Cd44 2.273 . S
O48 Cd46 2.411 . S
O48 C51 1.320 . S
O49 Cd46 2.333 . S
O49 C51 1.214 . S
O50 Cd46 2.352 . S
O50 C53 1.258 . S
C51 O48 1.320 . S
C51 O49 1.214 . S
O52 Cd44 2.277 . S
O52 C47 1.209 . S
C53 O50 1.258 . S
C53 O55 1.282 . S
O54 Cd46 2.277 . S
O54 C47 1.226 . S
O55 Cd46 2.356 . S
O55 C53 1.282 . S
C56 O57 1.306 . S
C56 O59 1.160 . S
O57 C56 1.306 . S
O57 Cd58 2.228 . S
Cd58 O57 2.228 . S
Cd58 O62 2.273 . S
Cd58 O66 2.277 . S
O59 C56 1.160 . S
O59 Cd60 2.203 . S
Cd60 O59 2.203 . S
Cd60 O62 2.411 . S
Cd60 O63 2.333 1_556 S
Cd60 O64 2.352 . S
Cd60 O68 2.277 . S
Cd60 O69 2.356 1_556 S
C61 O66 1.209 . S
C61 O68 1.226 . S
O62 Cd58 2.273 . S
O62 Cd60 2.411 . S
O62 C65 1.320 . S
O63 Cd60 2.333 1_554 S
O63 C65 1.214 1_554 S
O64 Cd60 2.352 . S
O64 C67 1.258 . S
C65 O62 1.320 . S
C65 O63 1.214 1_556 S
O66 Cd58 2.277 . S
O66 C61 1.209 . S
C67 O64 1.258 . S
C67 O69 1.282 1_556 S
O68 Cd60 2.277 . S
O68 C61 1.226 . S
O69 Cd60 2.356 1_554 S
O69 C67 1.282 1_554 S
C70 O71 1.306 . S
C70 O73 1.160 . S
O71 C70 1.306 . S
O71 Cd72 2.228 . S
Cd72 O71 2.228 . S
Cd72 O76 2.273 . S
Cd72 O80 2.277 . S
O73 C70 1.160 . S
O73 Cd74 2.203 . S
Cd74 O73 2.203 . S
Cd74 O76 2.411 . S
Cd74 O77 2.333 1_556 S
Cd74 O78 2.352 . S
Cd74 O82 2.277 . S
Cd74 O83 2.356 1_556 S
C75 O80 1.209 . S
C75 O82 1.226 . S
O76 Cd72 2.273 . S
O76 Cd74 2.411 . S
O76 C79 1.320 . S
O77 Cd74 2.333 1_554 S
O77 C79 1.214 1_554 S
O78 Cd74 2.352 . S
O78 C81 1.258 . S
C79 O76 1.320 . S
C79 O77 1.214 1_556 S
O80 Cd72 2.277 . S
O80 C75 1.209 . S
C81 O78 1.258 . S
C81 O83 1.282 1_556 S
O82 Cd74 2.277 . S
O82 C75 1.226 . S
O83 Cd74 2.356 1_554 S
O83 C81 1.282 1_554 S
C84 O85 1.306 . S
C84 O87 1.160 . S
O85 C84 1.306 . S
O85 Cd86 2.228 . S
Cd86 O85 2.228 . S
Cd86 O90 2.273 . S
Cd86 O94 2.277 . S
O87 C84 1.160 . S
O87 Cd88 2.203 . S
Cd88 O87 2.203 . S
Cd88 O90 2.411 . S
Cd88 O91 2.333 . S
Cd88 O92 2.352 . S
Cd88 O96 2.277 . S
Cd88 O97 2.356 . S
C89 O94 1.209 . S
C89 O96 1.226 . S
O90 Cd86 2.273 . S
O90 Cd88 2.411 . S
O90 C93 1.320 . S
O91 Cd88 2.333 . S
O91 C93 1.214 . S
O92 Cd88 2.352 . S
O92 C95 1.258 . S
C93 O90 1.320 . S
C93 O91 1.214 . S
O94 Cd86 2.277 . S
O94 C89 1.209 . S
C95 O92 1.258 . S
C95 O97 1.282 . S
O96 Cd88 2.277 . S
O96 C89 1.226 . S
O97 Cd88 2.356 . S
O97 C95 1.282 . S
C98 O99 1.306 . S
C98 O101 1.160 . S
O99 C98 1.306 . S
O99 Cd100 2.228 . S
Cd100 O99 2.228 . S
Cd100 O104 2.273 . S
Cd100 O108 2.277 . S
O101 C98 1.160 . S
O101 Cd102 2.203 . S
Cd102 O101 2.203 . S
Cd102 O104 2.411 . S
Cd102 O105 2.333 . S
Cd102 O106 2.352 . S
Cd102 O110 2.277 . S
Cd102 O111 2.356 . S
C103 O108 1.209 . S
C103 O110 1.226 . S
O104 Cd100 2.273 . S
O104 Cd102 2.411 . S
O104 C107 1.320 . S
O105 Cd102 2.333 . S
O105 C107 1.214 . S
O106 Cd102 2.352 . S
O106 C109 1.258 . S
C107 O104 1.320 . S
C107 O105 1.214 . S
O108 Cd100 2.277 . S
O108 C103 1.209 . S
C109 O106 1.258 . S
C109 O111 1.282 . S
O110 Cd102 2.277 . S
O110 C103 1.226 . S
O111 Cd102 2.356 . S
O111 C109 1.282 . S
C112 C113 1.363 1_556 S
C112 C118 1.379 . S
C112 N120 1.356 . S
C113 C112 1.363 1_554 S
C113 C119 1.363 1_545 S
C114 C115 1.363 . S
C114 C119 1.379 . S
C114 N121 1.356 . S
C115 C114 1.363 . S
C115 C118 1.363 1_564 S
N116 C118 1.357 . S
N116 H128 0.987 . S
N116 H129 0.982 1_545 S
N117 C119 1.357 . S
N117 H122 0.982 1_565 S
N117 H123 0.987 . S
C118 C112 1.379 . S
C118 C115 1.363 1_546 S
C118 N116 1.357 . S
C119 C113 1.363 1_565 S
C119 C114 1.379 . S
C119 N117 1.357 . S
N120 C112 1.356 . S
N120 H126 0.984 . S
N120 H127 0.984 . S
N121 C114 1.356 . S
N121 H124 0.984 . S
N121 H125 0.985 . S
H122 N117 0.982 1_545 S
H123 N117 0.987 . S
H124 N121 0.984 . S
H125 N121 0.985 . S
H126 N120 0.984 . S
H127 N120 0.984 . S
H128 N116 0.987 . S
H129 N116 0.982 1_565 S
C130 C131 1.363 . S
C130 C136 1.379 . S
C130 N138 1.356 . S
C131 C130 1.363 . S
C131 C137 1.363 . S
C132 C133 1.363 . S
C132 C137 1.379 . S
C132 N139 1.356 . S
C133 C132 1.363 . S
C133 C136 1.363 . S
N134 C136 1.356 . S
N134 H146 0.984 . S
N134 H147 0.985 . S
N135 C137 1.356 . S
N135 H140 0.984 . S
N135 H141 0.985 . S
C136 C130 1.379 . S
C136 C133 1.363 . S
C136 N134 1.356 . S
C137 C131 1.363 . S
C137 C132 1.379 . S
C137 N135 1.356 . S
N138 C130 1.356 . S
N138 H144 0.984 . S
N138 H145 0.984 . S
N139 C132 1.356 . S
N139 H142 0.984 . S
N139 H143 0.985 . S
H140 N135 0.984 . S
H141 N135 0.985 . S
H142 N139 0.984 . S
H143 N139 0.985 . S
H144 N138 0.984 . S
H145 N138 0.984 . S
H146 N134 0.984 . S
H147 N134 0.985 . S
C148 C149 1.363 1_544 S
C148 C154 1.379 . S
C148 N156 1.357 . S
C149 C148 1.363 1_566 S
C149 C155 1.363 . S
C150 C151 1.363 1_565 S
C150 C155 1.379 . S
C150 N157 1.357 . S
C151 C150 1.363 1_545 S
C151 C154 1.363 1_556 S
N152 C154 1.356 . S
N152 H164 0.984 . S
N152 H165 0.985 . S
N153 C155 1.356 . S
N153 H158 0.984 . S
N153 H159 0.985 . S
C154 C148 1.379 . S
C154 C151 1.363 1_554 S
C154 N152 1.356 . S
C155 C149 1.363 . S
C155 C150 1.379 . S
C155 N153 1.356 . S
N156 C148 1.357 . S
N156 H162 0.986 . S
N156 H163 0.982 1_545 S
N157 C150 1.357 . S
N157 H160 0.983 1_565 S
N157 H161 0.986 . S
H158 N153 0.984 . S
H159 N153 0.985 . S
H160 N157 0.983 1_545 S
H161 N157 0.986 . S
H162 N156 0.986 . S
H163 N156 0.982 1_565 S
H164 N152 0.984 . S
H165 N152 0.985 . S
C166 C167 1.363 . S
C166 C172 1.379 . S
C166 N174 1.356 . S
C167 C166 1.363 . S
C167 C173 1.363 . S
C168 C169 1.363 . S
C168 C173 1.379 . S
C168 N175 1.356 . S
C169 C168 1.363 . S
C169 C172 1.363 . S
N170 C172 1.356 . S
N170 H182 0.984 . S
N170 H183 0.985 . S
N171 C173 1.356 . S
N171 H176 0.984 . S
N171 H177 0.985 . S
C172 C166 1.379 . S
C172 C169 1.363 . S
C172 N170 1.356 . S
C173 C167 1.363 . S
C173 C168 1.379 . S
C173 N171 1.356 . S
N174 C166 1.356 . S
N174 H180 0.984 . S
N174 H181 0.984 . S
N175 C168 1.356 . S
N175 H178 0.984 . S
N175 H179 0.985 . S
H176 N171 0.984 . S
H177 N171 0.985 . S
H178 N175 0.984 . S
H179 N175 0.985 . S
H180 N174 0.984 . S
H181 N174 0.984 . S
H182 N170 0.984 . S
H183 N170 0.985 . S
C184 C185 1.363 . S
C184 C190 1.379 . S
C184 N192 1.356 . S
C185 C184 1.363 . S
C185 C191 1.363 . S
C186 C187 1.363 . S
C186 C191 1.379 . S
C186 N193 1.356 . S
C187 C186 1.363 . S
C187 C190 1.363 . S
N188 C190 1.356 . S
N188 H200 0.984 . S
N188 H201 0.985 . S
N189 C191 1.356 . S
N189 H194 0.984 . S
N189 H195 0.985 . S
C190 C184 1.379 . S
C190 C187 1.363 . S
C190 N188 1.356 . S
C191 C185 1.363 . S
C191 C186 1.379 . S
C191 N189 1.356 . S
N192 C184 1.356 . S
N192 H198 0.984 . S
N192 H199 0.984 . S
N193 C186 1.356 . S
N193 H196 0.984 . S
N193 H197 0.985 . S
H194 N189 0.984 . S
H195 N189 0.985 . S
H196 N193 0.984 . S
H197 N193 0.985 . S
H198 N192 0.984 . S
H199 N192 0.984 . S
H200 N188 0.984 . S
H201 N188 0.985 . S
C202 C203 1.363 . S
C202 C208 1.379 . S
C202 N210 1.356 . S
C203 C202 1.363 . S
C203 C209 1.363 . S
C204 C205 1.363 . S
C204 C209 1.379 . S
C204 N211 1.356 . S
C205 C204 1.363 . S
C205 C208 1.363 . S
N206 C208 1.356 . S
N206 H218 0.984 . S
N206 H219 0.985 . S
N207 C209 1.356 . S
N207 H212 0.984 . S
N207 H213 0.985 . S
C208 C202 1.379 . S
C208 C205 1.363 . S
C208 N206 1.356 . S
C209 C203 1.363 . S
C209 C204 1.379 . S
C209 N207 1.356 . S
N210 C202 1.356 . S
N210 H216 0.984 . S
N210 H217 0.984 . S
N211 C204 1.356 . S
N211 H214 0.984 . S
N211 H215 0.985 . S
H212 N207 0.984 . S
H213 N207 0.985 . S
H214 N211 0.984 . S
H215 N211 0.985 . S
H216 N210 0.984 . S
H217 N210 0.984 . S
H218 N206 0.984 . S
H219 N206 0.985 . S
C220 C221 1.363 . S
C220 C226 1.379 . S
C220 N228 1.356 . S
C221 C220 1.363 . S
C221 C227 1.363 . S
C222 C223 1.363 . S
C222 C227 1.379 . S
C222 N229 1.356 . S
C223 C222 1.363 . S
C223 C226 1.363 . S
N224 C226 1.356 . S
N224 H236 0.984 . S
N224 H237 0.985 . S
N225 C227 1.356 . S
N225 H230 0.984 . S
N225 H231 0.985 . S
C226 C220 1.379 . S
C226 C223 1.363 . S
C226 N224 1.356 . S
C227 C221 1.363 . S
C227 C222 1.379 . S
C227 N225 1.356 . S
N228 C220 1.356 . S
N228 H234 0.984 . S
N228 H235 0.984 . S
N229 C222 1.356 . S
N229 H232 0.984 . S
N229 H233 0.985 . S
H230 N225 0.984 . S
H231 N225 0.985 . S
H232 N229 0.984 . S
H233 N229 0.985 . S
H234 N228 0.984 . S
H235 N228 0.984 . S
H236 N224 0.984 . S
H237 N224 0.985 . S
C238 C239 1.363 . S
C238 C244 1.379 . S
C238 N246 1.356 . S
C239 C238 1.363 . S
C239 C245 1.363 . S
C240 C241 1.363 . S
C240 C245 1.379 . S
C240 N247 1.356 . S
C241 C240 1.363 . S
C241 C244 1.363 . S
N242 C244 1.356 . S
N242 H254 0.984 . S
N242 H255 0.985 . S
N243 C245 1.356 . S
N243 H248 0.984 . S
N243 H249 0.985 . S
C244 C238 1.379 . S
C244 C241 1.363 . S
C244 N242 1.356 . S
C245 C239 1.363 . S
C245 C240 1.379 . S
C245 N243 1.356 . S
N246 C238 1.356 . S
N246 H252 0.984 . S
N246 H253 0.984 . S
N247 C240 1.356 . S
N247 H250 0.984 . S
N247 H251 0.985 . S
H248 N243 0.984 . S
H249 N243 0.985 . S
H250 N247 0.984 . S
H251 N247 0.985 . S
H252 N246 0.984 . S
H253 N246 0.984 . S
H254 N242 0.984 . S
H255 N242 0.985 . S
C256 C257 1.377 . S
C256 C262 1.379 . S
C256 N264 1.356 . S
C257 C256 1.377 . S
C257 C263 1.349 1_556 S
C258 C259 1.377 . S
C258 C263 1.379 . S
C258 N265 1.356 . S
C259 C258 1.377 . S
C259 C262 1.349 1_554 S
N260 C262 1.356 . S
N260 H272 0.984 . S
N260 H273 0.985 . S
N261 C263 1.356 . S
N261 H266 0.984 . S
N261 H267 0.985 . S
C262 C256 1.379 . S
C262 C259 1.349 1_556 S
C262 N260 1.356 . S
C263 C257 1.349 1_554 S
C263 C258 1.379 . S
C263 N261 1.356 . S
N264 C256 1.356 . S
N264 H270 0.984 . S
N264 H271 0.984 . S
N265 C258 1.356 . S
N265 H268 0.984 . S
N265 H269 0.985 . S
H266 N261 0.984 . S
H267 N261 0.985 . S
H268 N265 0.984 . S
H269 N265 0.985 . S
H270 N264 0.984 . S
H271 N264 0.984 . S
H272 N260 0.984 . S
H273 N260 0.985 . S
C274 C275 1.378 1_655 S
C274 C280 1.379 . S
C274 N282 1.356 . S
C275 C274 1.378 1_455 S
C275 C281 1.348 1_556 S
C276 C277 1.378 1_455 S
C276 C281 1.379 . S
C276 N283 1.356 . S
C277 C276 1.378 1_655 S
C277 C280 1.348 1_554 S
N278 C280 1.356 . S
N278 H290 0.984 . S
N278 H291 0.985 . S
N279 C281 1.356 . S
N279 H284 0.984 . S
N279 H285 0.985 . S
C280 C274 1.379 . S
C280 C277 1.348 1_556 S
C280 N278 1.356 . S
C281 C275 1.348 1_554 S
C281 C276 1.379 . S
C281 N279 1.356 . S
N282 C274 1.356 . S
N282 H288 0.984 . S
N282 H289 0.984 1_655 S
N283 C276 1.356 . S
N283 H286 0.984 1_455 S
N283 H287 0.985 . S
H284 N279 0.984 . S
H285 N279 0.985 . S
H286 N283 0.984 1_655 S
H287 N283 0.985 . S
H288 N282 0.984 . S
H289 N282 0.984 1_455 S
H290 N278 0.984 . S
H291 N278 0.985 . S
C292 C293 1.363 . S
C292 C298 1.379 1_565 S
C292 N300 1.356 . S
C293 C292 1.363 . S
C293 C299 1.363 . S
C294 C295 1.363 . S
C294 C299 1.379 1_545 S
C294 N301 1.356 . S
C295 C294 1.363 . S
C295 C298 1.363 . S
N296 C298 1.356 . S
N296 H308 0.984 . S
N296 H309 0.985 . S
N297 C299 1.356 . S
N297 H302 0.984 . S
N297 H303 0.985 . S
C298 C292 1.379 1_545 S
C298 C295 1.363 . S
C298 N296 1.356 . S
C299 C293 1.363 . S
C299 C294 1.379 1_565 S
C299 N297 1.356 . S
N300 C292 1.356 . S
N300 H306 0.984 . S
N300 H307 0.984 . S
N301 C294 1.356 . S
N301 H304 0.984 . S
N301 H305 0.985 . S
H302 N297 0.984 . S
H303 N297 0.985 . S
H304 N301 0.984 . S
H305 N301 0.985 . S
H306 N300 0.984 . S
H307 N300 0.984 . S
H308 N296 0.984 . S
H309 N296 0.985 . S
C310 C311 1.363 1_455 S
C310 C316 1.379 1_545 S
C310 N318 1.356 . S
C311 C310 1.363 1_655 S
C311 C317 1.363 . S
C312 C313 1.363 1_655 S
C312 C317 1.379 1_565 S
C312 N319 1.356 . S
C313 C312 1.363 1_455 S
C313 C316 1.363 . S
N314 C316 1.356 . S
N314 H326 0.984 . S
N314 H327 0.985 . S
N315 C317 1.356 . S
N315 H320 0.984 . S
N315 H321 0.985 . S
C316 C310 1.379 1_565 S
C316 C313 1.363 . S
C316 N314 1.356 . S
C317 C311 1.363 . S
C317 C312 1.379 1_545 S
C317 N315 1.356 . S
N318 C310 1.356 . S
N318 H324 0.984 . S
N318 H325 0.984 1_455 S
N319 C312 1.356 . S
N319 H322 0.984 1_655 S
N319 H323 0.985 . S
H320 N315 0.984 . S
H321 N315 0.985 . S
H322 N319 0.984 1_455 S
H323 N319 0.985 . S
H324 N318 0.984 . S
H325 N318 0.984 1_655 S
H326 N314 0.984 . S
H327 N314 0.985 . S
C328 C329 1.363 1_556 S
C328 C334 1.379 . S
C328 N336 1.356 . S
C329 C328 1.363 1_554 S
C329 C335 1.363 . S
C330 C331 1.363 . S
C330 C335 1.379 . S
C330 N337 1.356 . S
C331 C330 1.363 . S
C331 C334 1.363 1_554 S
N332 C334 1.356 . S
N332 H344 0.984 . S
N332 H345 0.985 . S
N333 C335 1.356 . S
N333 H338 0.984 . S
N333 H339 0.985 . S
C334 C328 1.379 . S
C334 C331 1.363 1_556 S
C334 N332 1.356 . S
C335 C329 1.363 . S
C335 C330 1.379 . S
C335 N333 1.356 . S
N336 C328 1.356 . S
N336 H342 0.984 . S
N336 H343 0.984 . S
N337 C330 1.356 . S
N337 H340 0.984 . S
N337 H341 0.985 . S
H338 N333 0.984 . S
H339 N333 0.985 . S
H340 N337 0.984 . S
H341 N337 0.985 . S
H342 N336 0.984 . S
H343 N336 0.984 . S
H344 N332 0.984 . S
H345 N332 0.985 . S
C346 C347 1.373 . S
C346 C352 1.369 1_545 S
C346 N354 1.360 . S
C347 C346 1.373 . S
C347 C353 1.363 . S
C348 C349 1.363 . S
C348 C353 1.379 1_565 S
C348 N355 1.356 . S
C349 C348 1.363 . S
C349 C352 1.363 . S
N350 C352 1.356 . S
N350 H362 0.984 . S
N350 H363 0.985 . S
N351 C353 1.356 . S
N351 H356 0.984 . S
N351 H357 0.985 . S
C352 C346 1.369 1_565 S
C352 C349 1.363 . S
C352 N350 1.356 . S
C353 C347 1.363 . S
C353 C348 1.379 1_545 S
C353 N351 1.356 . S
N354 C346 1.360 . S
N354 H360 0.984 1_545 S
N354 H361 0.984 . S
N355 C348 1.356 . S
N355 H358 0.984 . S
N355 H359 0.985 1_565 S
H356 N351 0.984 . S
H357 N351 0.985 . S
H358 N355 0.984 . S
H359 N355 0.985 1_545 S
H360 N354 0.984 1_565 S
H361 N354 0.984 . S
H362 N350 0.984 . S
H363 N350 0.985 . S
C364 C365 1.363 . S
C364 C370 1.379 . S
C364 N372 1.356 . S
C365 C364 1.363 . S
C365 C371 1.363 1_556 S
C366 C367 1.363 1_554 S
C366 C371 1.379 . S
C366 N373 1.356 . S
C367 C366 1.363 1_556 S
C367 C370 1.363 . S
N368 C370 1.356 . S
N368 H380 0.984 . S
N368 H381 0.985 . S
N369 C371 1.356 . S
N369 H374 0.984 . S
N369 H375 0.985 . S
C370 C364 1.379 . S
C370 C367 1.363 . S
C370 N368 1.356 . S
C371 C365 1.363 1_554 S
C371 C366 1.379 . S
C371 N369 1.356 . S
N372 C364 1.356 . S
N372 H378 0.984 . S
N372 H379 0.984 . S
N373 C366 1.356 . S
N373 H376 0.984 . S
N373 H377 0.985 . S
H374 N369 0.984 . S
H375 N369 0.985 . S
H376 N373 0.984 . S
H377 N373 0.985 . S
H378 N372 0.984 . S
H379 N372 0.984 . S
H380 N368 0.984 . S
H381 N368 0.985 . S
C382 C383 1.373 . S
C382 C388 1.369 1_565 S
C382 N390 1.360 . S
C383 C382 1.373 . S
C383 C389 1.363 . S
C384 C385 1.363 . S
C384 C389 1.379 1_545 S
C384 N391 1.356 . S
C385 C384 1.363 . S
C385 C388 1.363 . S
N386 C388 1.356 . S
N386 H398 0.984 . S
N386 H399 0.985 . S
N387 C389 1.356 . S
N387 H392 0.984 . S
N387 H393 0.985 . S
C388 C382 1.369 1_545 S
C388 C385 1.363 . S
C388 N386 1.356 . S
C389 C383 1.363 . S
C389 C384 1.379 1_565 S
C389 N387 1.356 . S
N390 C382 1.360 . S
N390 H396 0.984 1_565 S
N390 H397 0.984 . S
N391 C384 1.356 . S
N391 H394 0.984 . S
N391 H395 0.985 1_545 S
H392 N387 0.984 . S
H393 N387 0.985 . S
H394 N391 0.984 . S
H395 N391 0.985 1_565 S
H396 N390 0.984 1_545 S
H397 N390 0.984 . S
H398 N386 0.984 . S
H399 N386 0.985 . S
C113 C5 1.607 . S
C115 C19 1.607 . S
C131 C47 1.607 . S
C133 C33 1.607 . S
C149 C61 1.607 . S
C151 C75 1.607 . S
C167 C89 1.607 . S
C169 C103 1.607 . S
C185 C0 1.645 . S
C187 C28 1.645 . S
C203 C42 1.646 . S
C205 C14 1.646 . S
C221 C56 1.645 . S
C223 C84 1.645 . S
C239 C98 1.646 . S
C241 C70 1.646 . S
C257 C11 1.548 1_556 S
C259 C67 1.548 1_554 S
C275 C25 1.548 1_556 S
C277 C81 1.548 1_554 S
C293 C95 1.550 . S
C295 C39 1.550 . S
C311 C109 1.550 . S
C313 C53 1.550 . S
C329 C23 1.171 . S
C331 C9 1.171 . S
C347 C37 1.171 . S
C349 C51 1.171 . S
C365 C65 1.171 . S
C367 C79 1.171 . S
C383 C93 1.171 . S
C385 C107 1.171 . S
