# Generated by pormake.
# Topology rhr-a, (3)-cn, num edge types: 1
# Building blocks:
#     Node 0, Type 0, BuildingBlock: WUSLED_clean_sbu_0, # of connection points: 3
#     Node 1, Type 0, BuildingBlock: WUSLED_clean_sbu_0, # of connection points: 3
#     Node 2, Type 0, BuildingBlock: WUSLED_clean_sbu_0, # of connection points: 3
#     Node 3, Type 0, BuildingBlock: WUSLED_clean_sbu_0, # of connection points: 3
#     Node 4, Type 0, BuildingBlock: WUSLED_clean_sbu_0, # of connection points: 3
#     Node 5, Type 0, BuildingBlock: WUSLED_clean_sbu_0, # of connection points: 3
#     Node 6, Type 0, BuildingBlock: WUSLED_clean_sbu_0, # of connection points: 3
#     Node 7, Type 0, BuildingBlock: WUSLED_clean_sbu_0, # of connection points: 3
#     Node 8, Type 0, BuildingBlock: WUSLED_clean_sbu_0, # of connection points: 3
#     Node 9, Type 0, BuildingBlock: WUSLED_clean_sbu_0, # of connection points: 3
#     Node 10, Type 0, BuildingBlock: WUSLED_clean_sbu_0, # of connection points: 3
#     Node 11, Type 0, BuildingBlock: WUSLED_clean_sbu_0, # of connection points: 3
#     Node 12, Type 0, BuildingBlock: WUSLED_clean_sbu_0, # of connection points: 3
#     Node 13, Type 0, BuildingBlock: WUSLED_clean_sbu_0, # of connection points: 3
#     Node 14, Type 0, BuildingBlock: WUSLED_clean_sbu_0, # of connection points: 3
#     Node 15, Type 0, BuildingBlock: WUSLED_clean_sbu_0, # of connection points: 3
#     Node 16, Type 0, BuildingBlock: WUSLED_clean_sbu_0, # of connection points: 3
#     Node 17, Type 0, BuildingBlock: WUSLED_clean_sbu_0, # of connection points: 3
#     Node 18, Type 0, BuildingBlock: WUSLED_clean_sbu_0, # of connection points: 3
#     Node 19, Type 0, BuildingBlock: WUSLED_clean_sbu_0, # of connection points: 3
#     Node 20, Type 0, BuildingBlock: WUSLED_clean_sbu_0, # of connection points: 3
#     Node 21, Type 0, BuildingBlock: WUSLED_clean_sbu_0, # of connection points: 3
#     Node 22, Type 0, BuildingBlock: WUSLED_clean_sbu_0, # of connection points: 3
#     Node 23, Type 0, BuildingBlock: WUSLED_clean_sbu_0, # of connection points: 3
#     Node 24, Type 0, BuildingBlock: WUSLED_clean_sbu_0, # of connection points: 3
#     Node 25, Type 0, BuildingBlock: WUSLED_clean_sbu_0, # of connection points: 3
#     Node 26, Type 0, BuildingBlock: WUSLED_clean_sbu_0, # of connection points: 3
#     Node 27, Type 0, BuildingBlock: WUSLED_clean_sbu_0, # of connection points: 3
#     Node 28, Type 0, BuildingBlock: WUSLED_clean_sbu_0, # of connection points: 3
#     Node 29, Type 0, BuildingBlock: WUSLED_clean_sbu_0, # of connection points: 3
#     Node 30, Type 0, BuildingBlock: WUSLED_clean_sbu_0, # of connection points: 3
#     Node 31, Type 0, BuildingBlock: WUSLED_clean_sbu_0, # of connection points: 3
#     Node 32, Type 0, BuildingBlock: WUSLED_clean_sbu_0, # of connection points: 3
#     Node 33, Type 0, BuildingBlock: WUSLED_clean_sbu_0, # of connection points: 3
#     Node 34, Type 0, BuildingBlock: WUSLED_clean_sbu_0, # of connection points: 3
#     Node 35, Type 0, BuildingBlock: WUSLED_clean_sbu_0, # of connection points: 3
#     Node 36, Type 0, BuildingBlock: WUSLED_clean_sbu_0, # of connection points: 3
#     Node 37, Type 0, BuildingBlock: WUSLED_clean_sbu_0, # of connection points: 3
#     Node 38, Type 0, BuildingBlock: WUSLED_clean_sbu_0, # of connection points: 3
#     Node 39, Type 0, BuildingBlock: WUSLED_clean_sbu_0, # of connection points: 3
#     Node 40, Type 0, BuildingBlock: WUSLED_clean_sbu_0, # of connection points: 3
#     Node 41, Type 0, BuildingBlock: WUSLED_clean_sbu_0, # of connection points: 3
#     Node 42, Type 0, BuildingBlock: WUSLED_clean_sbu_0, # of connection points: 3
#     Node 43, Type 0, BuildingBlock: WUSLED_clean_sbu_0, # of connection points: 3
#     Node 44, Type 0, BuildingBlock: WUSLED_clean_sbu_0, # of connection points: 3
#     Node 45, Type 0, BuildingBlock: WUSLED_clean_sbu_0, # of connection points: 3
#     Node 46, Type 0, BuildingBlock: WUSLED_clean_sbu_0, # of connection points: 3
#     Node 47, Type 0, BuildingBlock: WUSLED_clean_sbu_0, # of connection points: 3
#     Node 48, Type 0, BuildingBlock: WUSLED_clean_sbu_0, # of connection points: 3
#     Node 49, Type 0, BuildingBlock: WUSLED_clean_sbu_0, # of connection points: 3
#     Node 50, Type 0, BuildingBlock: WUSLED_clean_sbu_0, # of connection points: 3
#     Node 51, Type 0, BuildingBlock: WUSLED_clean_sbu_0, # of connection points: 3
#     Node 52, Type 0, BuildingBlock: WUSLED_clean_sbu_0, # of connection points: 3
#     Node 53, Type 0, BuildingBlock: WUSLED_clean_sbu_0, # of connection points: 3
#     Node 54, Type 0, BuildingBlock: WUSLED_clean_sbu_0, # of connection points: 3
#     Node 55, Type 0, BuildingBlock: WUSLED_clean_sbu_0, # of connection points: 3
#     Node 56, Type 0, BuildingBlock: WUSLED_clean_sbu_0, # of connection points: 3
#     Node 57, Type 0, BuildingBlock: WUSLED_clean_sbu_0, # of connection points: 3
#     Node 58, Type 0, BuildingBlock: WUSLED_clean_sbu_0, # of connection points: 3
#     Node 59, Type 0, BuildingBlock: WUSLED_clean_sbu_0, # of connection points: 3
#     Node 60, Type 0, BuildingBlock: WUSLED_clean_sbu_0, # of connection points: 3
#     Node 61, Type 0, BuildingBlock: WUSLED_clean_sbu_0, # of connection points: 3
#     Node 62, Type 0, BuildingBlock: WUSLED_clean_sbu_0, # of connection points: 3
#     Node 63, Type 0, BuildingBlock: WUSLED_clean_sbu_0, # of connection points: 3
#     Node 64, Type 0, BuildingBlock: WUSLED_clean_sbu_0, # of connection points: 3
#     Node 65, Type 0, BuildingBlock: WUSLED_clean_sbu_0, # of connection points: 3
#     Node 66, Type 0, BuildingBlock: WUSLED_clean_sbu_0, # of connection points: 3
#     Node 67, Type 0, BuildingBlock: WUSLED_clean_sbu_0, # of connection points: 3
#     Node 68, Type 0, BuildingBlock: WUSLED_clean_sbu_0, # of connection points: 3
#     Node 69, Type 0, BuildingBlock: WUSLED_clean_sbu_0, # of connection points: 3
#     Node 70, Type 0, BuildingBlock: WUSLED_clean_sbu_0, # of connection points: 3
#     Node 71, Type 0, BuildingBlock: WUSLED_clean_sbu_0, # of connection points: 3
#     Node 72, Type 0, BuildingBlock: WUSLED_clean_sbu_0, # of connection points: 3
#     Node 73, Type 0, BuildingBlock: WUSLED_clean_sbu_0, # of connection points: 3
#     Node 74, Type 0, BuildingBlock: WUSLED_clean_sbu_0, # of connection points: 3
#     Node 75, Type 0, BuildingBlock: WUSLED_clean_sbu_0, # of connection points: 3
#     Node 76, Type 0, BuildingBlock: WUSLED_clean_sbu_0, # of connection points: 3
#     Node 77, Type 0, BuildingBlock: WUSLED_clean_sbu_0, # of connection points: 3
#     Node 78, Type 0, BuildingBlock: WUSLED_clean_sbu_0, # of connection points: 3
#     Node 79, Type 0, BuildingBlock: WUSLED_clean_sbu_0, # of connection points: 3
#     Node 80, Type 0, BuildingBlock: WUSLED_clean_sbu_0, # of connection points: 3
#     Node 81, Type 0, BuildingBlock: WUSLED_clean_sbu_0, # of connection points: 3
#     Node 82, Type 0, BuildingBlock: WUSLED_clean_sbu_0, # of connection points: 3
#     Node 83, Type 0, BuildingBlock: WUSLED_clean_sbu_0, # of connection points: 3
#     Node 84, Type 0, BuildingBlock: WUSLED_clean_sbu_0, # of connection points: 3
#     Node 85, Type 0, BuildingBlock: WUSLED_clean_sbu_0, # of connection points: 3
#     Node 86, Type 0, BuildingBlock: WUSLED_clean_sbu_0, # of connection points: 3
#     Node 87, Type 0, BuildingBlock: WUSLED_clean_sbu_0, # of connection points: 3
#     Node 88, Type 0, BuildingBlock: WUSLED_clean_sbu_0, # of connection points: 3
#     Node 89, Type 0, BuildingBlock: WUSLED_clean_sbu_0, # of connection points: 3
#     Node 90, Type 0, BuildingBlock: WUSLED_clean_sbu_0, # of connection points: 3
#     Node 91, Type 0, BuildingBlock: WUSLED_clean_sbu_0, # of connection points: 3
#     Node 92, Type 0, BuildingBlock: WUSLED_clean_sbu_0, # of connection points: 3
#     Node 93, Type 0, BuildingBlock: WUSLED_clean_sbu_0, # of connection points: 3
#     Node 94, Type 0, BuildingBlock: WUSLED_clean_sbu_0, # of connection points: 3
#     Node 95, Type 0, BuildingBlock: WUSLED_clean_sbu_0, # of connection points: 3
#     Edge 96, Type (0, 0), BuildingBlock: EZIPEK_clean_linker_0, # of connection points: 2
#     Edge 97, Type (0, 0), BuildingBlock: EZIPEK_clean_linker_0, # of connection points: 2
#     Edge 98, Type (0, 0), BuildingBlock: EZIPEK_clean_linker_0, # of connection points: 2
#     Edge 99, Type (0, 0), BuildingBlock: EZIPEK_clean_linker_0, # of connection points: 2
#     Edge 100, Type (0, 0), BuildingBlock: EZIPEK_clean_linker_0, # of connection points: 2
#     Edge 101, Type (0, 0), BuildingBlock: EZIPEK_clean_linker_0, # of connection points: 2
#     Edge 102, Type (0, 0), BuildingBlock: EZIPEK_clean_linker_0, # of connection points: 2
#     Edge 103, Type (0, 0), BuildingBlock: EZIPEK_clean_linker_0, # of connection points: 2
#     Edge 104, Type (0, 0), BuildingBlock: EZIPEK_clean_linker_0, # of connection points: 2
#     Edge 105, Type (0, 0), BuildingBlock: EZIPEK_clean_linker_0, # of connection points: 2
#     Edge 106, Type (0, 0), BuildingBlock: EZIPEK_clean_linker_0, # of connection points: 2
#     Edge 107, Type (0, 0), BuildingBlock: EZIPEK_clean_linker_0, # of connection points: 2
#     Edge 108, Type (0, 0), BuildingBlock: EZIPEK_clean_linker_0, # of connection points: 2
#     Edge 109, Type (0, 0), BuildingBlock: EZIPEK_clean_linker_0, # of connection points: 2
#     Edge 110, Type (0, 0), BuildingBlock: EZIPEK_clean_linker_0, # of connection points: 2
#     Edge 111, Type (0, 0), BuildingBlock: EZIPEK_clean_linker_0, # of connection points: 2
#     Edge 112, Type (0, 0), BuildingBlock: EZIPEK_clean_linker_0, # of connection points: 2
#     Edge 113, Type (0, 0), BuildingBlock: EZIPEK_clean_linker_0, # of connection points: 2
#     Edge 114, Type (0, 0), BuildingBlock: EZIPEK_clean_linker_0, # of connection points: 2
#     Edge 115, Type (0, 0), BuildingBlock: EZIPEK_clean_linker_0, # of connection points: 2
#     Edge 116, Type (0, 0), BuildingBlock: EZIPEK_clean_linker_0, # of connection points: 2
#     Edge 117, Type (0, 0), BuildingBlock: EZIPEK_clean_linker_0, # of connection points: 2
#     Edge 118, Type (0, 0), BuildingBlock: EZIPEK_clean_linker_0, # of connection points: 2
#     Edge 119, Type (0, 0), BuildingBlock: EZIPEK_clean_linker_0, # of connection points: 2
#     Edge 120, Type (0, 0), BuildingBlock: EZIPEK_clean_linker_0, # of connection points: 2
#     Edge 121, Type (0, 0), BuildingBlock: EZIPEK_clean_linker_0, # of connection points: 2
#     Edge 122, Type (0, 0), BuildingBlock: EZIPEK_clean_linker_0, # of connection points: 2
#     Edge 123, Type (0, 0), BuildingBlock: EZIPEK_clean_linker_0, # of connection points: 2
#     Edge 124, Type (0, 0), BuildingBlock: EZIPEK_clean_linker_0, # of connection points: 2
#     Edge 125, Type (0, 0), BuildingBlock: EZIPEK_clean_linker_0, # of connection points: 2
#     Edge 126, Type (0, 0), BuildingBlock: EZIPEK_clean_linker_0, # of connection points: 2
#     Edge 127, Type (0, 0), BuildingBlock: EZIPEK_clean_linker_0, # of connection points: 2
#     Edge 128, Type (0, 0), BuildingBlock: EZIPEK_clean_linker_0, # of connection points: 2
#     Edge 129, Type (0, 0), BuildingBlock: EZIPEK_clean_linker_0, # of connection points: 2
#     Edge 130, Type (0, 0), BuildingBlock: EZIPEK_clean_linker_0, # of connection points: 2
#     Edge 131, Type (0, 0), BuildingBlock: EZIPEK_clean_linker_0, # of connection points: 2
#     Edge 132, Type (0, 0), BuildingBlock: EZIPEK_clean_linker_0, # of connection points: 2
#     Edge 133, Type (0, 0), BuildingBlock: EZIPEK_clean_linker_0, # of connection points: 2
#     Edge 134, Type (0, 0), BuildingBlock: EZIPEK_clean_linker_0, # of connection points: 2
#     Edge 135, Type (0, 0), BuildingBlock: EZIPEK_clean_linker_0, # of connection points: 2
#     Edge 136, Type (0, 0), BuildingBlock: EZIPEK_clean_linker_0, # of connection points: 2
#     Edge 137, Type (0, 0), BuildingBlock: EZIPEK_clean_linker_0, # of connection points: 2
#     Edge 138, Type (0, 0), BuildingBlock: EZIPEK_clean_linker_0, # of connection points: 2
#     Edge 139, Type (0, 0), BuildingBlock: EZIPEK_clean_linker_0, # of connection points: 2
#     Edge 140, Type (0, 0), BuildingBlock: EZIPEK_clean_linker_0, # of connection points: 2
#     Edge 141, Type (0, 0), BuildingBlock: EZIPEK_clean_linker_0, # of connection points: 2
#     Edge 142, Type (0, 0), BuildingBlock: EZIPEK_clean_linker_0, # of connection points: 2
#     Edge 143, Type (0, 0), BuildingBlock: EZIPEK_clean_linker_0, # of connection points: 2
#     Edge 144, Type (0, 0), BuildingBlock: EZIPEK_clean_linker_0, # of connection points: 2
#     Edge 145, Type (0, 0), BuildingBlock: EZIPEK_clean_linker_0, # of connection points: 2
#     Edge 146, Type (0, 0), BuildingBlock: EZIPEK_clean_linker_0, # of connection points: 2
#     Edge 147, Type (0, 0), BuildingBlock: EZIPEK_clean_linker_0, # of connection points: 2
#     Edge 148, Type (0, 0), BuildingBlock: EZIPEK_clean_linker_0, # of connection points: 2
#     Edge 149, Type (0, 0), BuildingBlock: EZIPEK_clean_linker_0, # of connection points: 2
#     Edge 150, Type (0, 0), BuildingBlock: EZIPEK_clean_linker_0, # of connection points: 2
#     Edge 151, Type (0, 0), BuildingBlock: EZIPEK_clean_linker_0, # of connection points: 2
#     Edge 152, Type (0, 0), BuildingBlock: EZIPEK_clean_linker_0, # of connection points: 2
#     Edge 153, Type (0, 0), BuildingBlock: EZIPEK_clean_linker_0, # of connection points: 2
#     Edge 154, Type (0, 0), BuildingBlock: EZIPEK_clean_linker_0, # of connection points: 2
#     Edge 155, Type (0, 0), BuildingBlock: EZIPEK_clean_linker_0, # of connection points: 2
#     Edge 156, Type (0, 0), BuildingBlock: EZIPEK_clean_linker_0, # of connection points: 2
#     Edge 157, Type (0, 0), BuildingBlock: EZIPEK_clean_linker_0, # of connection points: 2
#     Edge 158, Type (0, 0), BuildingBlock: EZIPEK_clean_linker_0, # of connection points: 2
#     Edge 159, Type (0, 0), BuildingBlock: EZIPEK_clean_linker_0, # of connection points: 2
#     Edge 160, Type (0, 0), BuildingBlock: EZIPEK_clean_linker_0, # of connection points: 2
#     Edge 161, Type (0, 0), BuildingBlock: EZIPEK_clean_linker_0, # of connection points: 2
#     Edge 162, Type (0, 0), BuildingBlock: EZIPEK_clean_linker_0, # of connection points: 2
#     Edge 163, Type (0, 0), BuildingBlock: EZIPEK_clean_linker_0, # of connection points: 2
#     Edge 164, Type (0, 0), BuildingBlock: EZIPEK_clean_linker_0, # of connection points: 2
#     Edge 165, Type (0, 0), BuildingBlock: EZIPEK_clean_linker_0, # of connection points: 2
#     Edge 166, Type (0, 0), BuildingBlock: EZIPEK_clean_linker_0, # of connection points: 2
#     Edge 167, Type (0, 0), BuildingBlock: EZIPEK_clean_linker_0, # of connection points: 2
#     Edge 168, Type (0, 0), BuildingBlock: EZIPEK_clean_linker_0, # of connection points: 2
#     Edge 169, Type (0, 0), BuildingBlock: EZIPEK_clean_linker_0, # of connection points: 2
#     Edge 170, Type (0, 0), BuildingBlock: EZIPEK_clean_linker_0, # of connection points: 2
#     Edge 171, Type (0, 0), BuildingBlock: EZIPEK_clean_linker_0, # of connection points: 2
#     Edge 172, Type (0, 0), BuildingBlock: EZIPEK_clean_linker_0, # of connection points: 2
#     Edge 173, Type (0, 0), BuildingBlock: EZIPEK_clean_linker_0, # of connection points: 2
#     Edge 174, Type (0, 0), BuildingBlock: EZIPEK_clean_linker_0, # of connection points: 2
#     Edge 175, Type (0, 0), BuildingBlock: EZIPEK_clean_linker_0, # of connection points: 2
#     Edge 176, Type (0, 0), BuildingBlock: EZIPEK_clean_linker_0, # of connection points: 2
#     Edge 177, Type (0, 0), BuildingBlock: EZIPEK_clean_linker_0, # of connection points: 2
#     Edge 178, Type (0, 0), BuildingBlock: EZIPEK_clean_linker_0, # of connection points: 2
#     Edge 179, Type (0, 0), BuildingBlock: EZIPEK_clean_linker_0, # of connection points: 2
#     Edge 180, Type (0, 0), BuildingBlock: EZIPEK_clean_linker_0, # of connection points: 2
#     Edge 181, Type (0, 0), BuildingBlock: EZIPEK_clean_linker_0, # of connection points: 2
#     Edge 182, Type (0, 0), BuildingBlock: EZIPEK_clean_linker_0, # of connection points: 2
#     Edge 183, Type (0, 0), BuildingBlock: EZIPEK_clean_linker_0, # of connection points: 2
#     Edge 184, Type (0, 0), BuildingBlock: EZIPEK_clean_linker_0, # of connection points: 2
#     Edge 185, Type (0, 0), BuildingBlock: EZIPEK_clean_linker_0, # of connection points: 2
#     Edge 186, Type (0, 0), BuildingBlock: EZIPEK_clean_linker_0, # of connection points: 2
#     Edge 187, Type (0, 0), BuildingBlock: EZIPEK_clean_linker_0, # of connection points: 2
#     Edge 188, Type (0, 0), BuildingBlock: EZIPEK_clean_linker_0, # of connection points: 2
#     Edge 189, Type (0, 0), BuildingBlock: EZIPEK_clean_linker_0, # of connection points: 2
#     Edge 190, Type (0, 0), BuildingBlock: EZIPEK_clean_linker_0, # of connection points: 2
#     Edge 191, Type (0, 0), BuildingBlock: EZIPEK_clean_linker_0, # of connection points: 2
#     Edge 192, Type (0, 0), BuildingBlock: EZIPEK_clean_linker_0, # of connection points: 2
#     Edge 193, Type (0, 0), BuildingBlock: EZIPEK_clean_linker_0, # of connection points: 2
#     Edge 194, Type (0, 0), BuildingBlock: EZIPEK_clean_linker_0, # of connection points: 2
#     Edge 195, Type (0, 0), BuildingBlock: EZIPEK_clean_linker_0, # of connection points: 2
#     Edge 196, Type (0, 0), BuildingBlock: EZIPEK_clean_linker_0, # of connection points: 2
#     Edge 197, Type (0, 0), BuildingBlock: EZIPEK_clean_linker_0, # of connection points: 2
#     Edge 198, Type (0, 0), BuildingBlock: EZIPEK_clean_linker_0, # of connection points: 2
#     Edge 199, Type (0, 0), BuildingBlock: EZIPEK_clean_linker_0, # of connection points: 2
#     Edge 200, Type (0, 0), BuildingBlock: EZIPEK_clean_linker_0, # of connection points: 2
#     Edge 201, Type (0, 0), BuildingBlock: EZIPEK_clean_linker_0, # of connection points: 2
#     Edge 202, Type (0, 0), BuildingBlock: EZIPEK_clean_linker_0, # of connection points: 2
#     Edge 203, Type (0, 0), BuildingBlock: EZIPEK_clean_linker_0, # of connection points: 2
#     Edge 204, Type (0, 0), BuildingBlock: EZIPEK_clean_linker_0, # of connection points: 2
#     Edge 205, Type (0, 0), BuildingBlock: EZIPEK_clean_linker_0, # of connection points: 2
#     Edge 206, Type (0, 0), BuildingBlock: EZIPEK_clean_linker_0, # of connection points: 2
#     Edge 207, Type (0, 0), BuildingBlock: EZIPEK_clean_linker_0, # of connection points: 2
#     Edge 208, Type (0, 0), BuildingBlock: EZIPEK_clean_linker_0, # of connection points: 2
#     Edge 209, Type (0, 0), BuildingBlock: EZIPEK_clean_linker_0, # of connection points: 2
#     Edge 210, Type (0, 0), BuildingBlock: EZIPEK_clean_linker_0, # of connection points: 2
#     Edge 211, Type (0, 0), BuildingBlock: EZIPEK_clean_linker_0, # of connection points: 2
#     Edge 212, Type (0, 0), BuildingBlock: EZIPEK_clean_linker_0, # of connection points: 2
#     Edge 213, Type (0, 0), BuildingBlock: EZIPEK_clean_linker_0, # of connection points: 2
#     Edge 214, Type (0, 0), BuildingBlock: EZIPEK_clean_linker_0, # of connection points: 2
#     Edge 215, Type (0, 0), BuildingBlock: EZIPEK_clean_linker_0, # of connection points: 2
#     Edge 216, Type (0, 0), BuildingBlock: EZIPEK_clean_linker_0, # of connection points: 2
#     Edge 217, Type (0, 0), BuildingBlock: EZIPEK_clean_linker_0, # of connection points: 2
#     Edge 218, Type (0, 0), BuildingBlock: EZIPEK_clean_linker_0, # of connection points: 2
#     Edge 219, Type (0, 0), BuildingBlock: EZIPEK_clean_linker_0, # of connection points: 2
#     Edge 220, Type (0, 0), BuildingBlock: EZIPEK_clean_linker_0, # of connection points: 2
#     Edge 221, Type (0, 0), BuildingBlock: EZIPEK_clean_linker_0, # of connection points: 2
#     Edge 222, Type (0, 0), BuildingBlock: EZIPEK_clean_linker_0, # of connection points: 2
#     Edge 223, Type (0, 0), BuildingBlock: EZIPEK_clean_linker_0, # of connection points: 2
#     Edge 224, Type (0, 0), BuildingBlock: EZIPEK_clean_linker_0, # of connection points: 2
#     Edge 225, Type (0, 0), BuildingBlock: EZIPEK_clean_linker_0, # of connection points: 2
#     Edge 226, Type (0, 0), BuildingBlock: EZIPEK_clean_linker_0, # of connection points: 2
#     Edge 227, Type (0, 0), BuildingBlock: EZIPEK_clean_linker_0, # of connection points: 2
#     Edge 228, Type (0, 0), BuildingBlock: EZIPEK_clean_linker_0, # of connection points: 2
#     Edge 229, Type (0, 0), BuildingBlock: EZIPEK_clean_linker_0, # of connection points: 2
#     Edge 230, Type (0, 0), BuildingBlock: EZIPEK_clean_linker_0, # of connection points: 2
#     Edge 231, Type (0, 0), BuildingBlock: EZIPEK_clean_linker_0, # of connection points: 2
#     Edge 232, Type (0, 0), BuildingBlock: EZIPEK_clean_linker_0, # of connection points: 2
#     Edge 233, Type (0, 0), BuildingBlock: EZIPEK_clean_linker_0, # of connection points: 2
#     Edge 234, Type (0, 0), BuildingBlock: EZIPEK_clean_linker_0, # of connection points: 2
#     Edge 235, Type (0, 0), BuildingBlock: EZIPEK_clean_linker_0, # of connection points: 2
#     Edge 236, Type (0, 0), BuildingBlock: EZIPEK_clean_linker_0, # of connection points: 2
#     Edge 237, Type (0, 0), BuildingBlock: EZIPEK_clean_linker_0, # of connection points: 2
#     Edge 238, Type (0, 0), BuildingBlock: EZIPEK_clean_linker_0, # of connection points: 2
#     Edge 239, Type (0, 0), BuildingBlock: EZIPEK_clean_linker_0, # of connection points: 2
# Relax obj value: 0.125
# Max RMSD: 0.105
# Mean RMSD: 0.105
data_MOF--net-rhr-a--node1-WUSLED_clean_sbu_0--edge1-EZIPEK_clean_linker_0
_symmetry_space_group_name_H-M    P1
_symmetry_Int_Tables_number       1
_symmetry_cell_setting            triclinic
loop_
_symmetry_equiv_pos_as_xyz
'x, y, z'
_cell_length_a     147.88369
_cell_length_b     148.02828
_cell_length_c     148.09875
_cell_angle_alpha  90.058589
_cell_angle_beta   90.0886
_cell_angle_gamma 89.937382
loop_
_atom_site_label
_atom_site_type_symbol
_atom_site_fract_x
_atom_site_fract_y
_atom_site_fract_z
_atom_type_partial_charge
C0 C 0.0885 0.28941 0.34335 0.0
C1 C 0.08156 0.28775 0.33705 0.0
C2 C 0.08628 0.30082 0.32822 0.0
C3 C 0.0805 0.29339 0.32949 0.0
C4 C 0.09328 0.30235 0.33444 0.0
C5 C 0.09439 0.29669 0.34192 0.0
U6 U 0.07891 0.27419 0.36201 0.0
O7 O 0.08505 0.26287 0.36948 0.0
O8 O 0.08092 0.27512 0.37674 0.0
C9 C 0.08494 0.26721 0.37723 0.0
C10 C 0.0895 0.28399 0.35167 0.0
C11 C 0.0933 0.26681 0.38274 0.0
C12 C 0.10961 0.26827 0.38464 0.0
C13 C 0.10179 0.26917 0.37929 0.0
C14 C 0.10047 0.26326 0.39708 0.0
C15 C 0.10926 0.26447 0.39345 0.0
C16 C 0.0927 0.26416 0.39176 0.0
C17 C 0.05305 0.26856 0.3595 0.0
C18 C 0.04286 0.26083 0.36985 0.0
C19 C 0.0369 0.26814 0.35647 0.0
C20 C 0.04563 0.27071 0.35401 0.0
C21 C 0.0354 0.26334 0.36448 0.0
C22 C 0.05166 0.26347 0.36739 0.0
C23 C 0.06194 0.27226 0.35694 0.0
O24 O 0.08527 0.28722 0.35877 0.0
O25 O 0.08873 0.27518 0.35086 0.0
O26 O 0.06836 0.26651 0.35475 0.0
O27 O 0.06488 0.27913 0.36174 0.0
H28 H 0.0769 0.2822 0.33805 0.0
H29 H 0.07506 0.29209 0.32476 0.0
H30 H 0.09782 0.30802 0.33356 0.0
H31 H 0.09976 0.29811 0.34669 0.0
H32 H 0.11575 0.27085 0.38175 0.0
H33 H 0.10237 0.27177 0.37248 0.0
H34 H 0.09944 0.26165 0.40411 0.0
H35 H 0.08616 0.26277 0.39475 0.0
H36 H 0.04183 0.2571 0.37605 0.0
H37 H 0.03126 0.27012 0.35223 0.0
H38 H 0.04656 0.27463 0.3479 0.0
H39 H 0.05731 0.26174 0.37172 0.0
C40 C 0.7419 0.08812 0.34307 0.0
C41 C 0.74344 0.08117 0.33677 0.0
C42 C 0.73014 0.08582 0.32819 0.0
C43 C 0.73763 0.08006 0.32934 0.0
C44 C 0.72868 0.09279 0.33444 0.0
C45 C 0.73451 0.09394 0.3418 0.0
U46 U 0.75771 0.07902 0.36162 0.0
O47 O 0.76937 0.08551 0.3684 0.0
O48 O 0.75744 0.08155 0.37624 0.0
C49 C 0.76525 0.08578 0.37627 0.0
C50 C 0.74763 0.0893 0.35118 0.0
C51 C 0.7656 0.09444 0.38133 0.0
C52 C 0.75814 0.10752 0.38809 0.0
C53 C 0.75793 0.1 0.3823 0.0
C54 C 0.77379 0.10432 0.39168 0.0
C55 C 0.76601 0.10963 0.39298 0.0
C56 C 0.77357 0.0968 0.38593 0.0
C57 C 0.76267 0.05286 0.35979 0.0
C58 C 0.77131 0.04264 0.36941 0.0
C59 C 0.76209 0.03665 0.35726 0.0
C60 C 0.75951 0.0454 0.35489 0.0
C61 C 0.7679 0.03516 0.36459 0.0
C62 C 0.76866 0.05147 0.36703 0.0
C63 C 0.75917 0.06184 0.35722 0.0
O64 O 0.74462 0.08541 0.35854 0.0
O65 O 0.75641 0.08835 0.3501 0.0
O66 O 0.76499 0.06802 0.35462 0.0
O67 O 0.75255 0.0651 0.36214 0.0
H68 H 0.74907 0.07656 0.33764 0.0
H69 H 0.73886 0.07464 0.32458 0.0
H70 H 0.72297 0.09731 0.33366 0.0
H71 H 0.73319 0.09933 0.34657 0.0
H72 H 0.75206 0.11151 0.38899 0.0
H73 H 0.7517 0.09837 0.37881 0.0
H74 H 0.77993 0.10582 0.39538 0.0
H75 H 0.77956 0.09262 0.38531 0.0
H76 H 0.77583 0.04161 0.37508 0.0
H77 H 0.75942 0.031 0.35345 0.0
H78 H 0.75488 0.04633 0.34928 0.0
H79 H 0.77117 0.05715 0.3709 0.0
C80 C 0.94294 0.74181 0.34364 0.0
C81 C 0.94894 0.74411 0.33664 0.0
C82 C 0.94522 0.73018 0.32866 0.0
C83 C 0.95004 0.73835 0.32917 0.0
C84 C 0.93922 0.72793 0.33563 0.0
C85 C 0.93808 0.73369 0.34303 0.0
U86 U 0.95207 0.75781 0.36196 0.0
O87 O 0.94561 0.76942 0.36877 0.0
O88 O 0.94979 0.75759 0.37664 0.0
C89 C 0.94562 0.76543 0.37671 0.0
C90 C 0.94175 0.74756 0.35174 0.0
C91 C 0.93711 0.7658 0.38195 0.0
C92 C 0.92159 0.76102 0.3848 0.0
C93 C 0.92933 0.76102 0.3793 0.0
C94 C 0.92927 0.77067 0.39557 0.0
C95 C 0.92155 0.76574 0.39307 0.0
C96 C 0.93696 0.7707 0.39006 0.0
C97 C 0.97812 0.76304 0.35974 0.0
C98 C 0.98869 0.76998 0.37031 0.0
C99 C 0.99418 0.7635 0.35632 0.0
C100 C 0.98535 0.76119 0.35392 0.0
C101 C 0.99597 0.76773 0.36461 0.0
C102 C 0.97979 0.76759 0.36791 0.0
C103 C 0.96916 0.7594 0.35727 0.0
O104 O 0.94579 0.74464 0.35908 0.0
O105 O 0.94251 0.75634 0.35062 0.0
O106 O 0.96286 0.76513 0.3547 0.0
O107 O 0.96606 0.7528 0.3623 0.0
H108 H 0.95282 0.7503 0.33697 0.0
H109 H 0.95469 0.7402 0.32385 0.0
H110 H 0.93543 0.72167 0.33535 0.0
H111 H 0.93344 0.73177 0.34835 0.0
H112 H 0.91571 0.75719 0.38273 0.0
H113 H 0.92931 0.75718 0.37307 0.0
H114 H 0.92939 0.77437 0.40188 0.0
H115 H 0.94288 0.77442 0.39224 0.0
H116 H 0.98994 0.77328 0.37672 0.0
H117 H 0.99968 0.76172 0.35182 0.0
H118 H 0.98421 0.75767 0.3476 0.0
H119 H 0.97429 0.76906 0.3725 0.0
C120 C 0.28909 0.94234 0.34345 0.0
C121 C 0.28751 0.94929 0.33716 0.0
C122 C 0.30085 0.94475 0.32863 0.0
C123 C 0.29332 0.95045 0.32976 0.0
C124 C 0.30235 0.93777 0.33486 0.0
C125 C 0.29651 0.93657 0.34218 0.0
U126 U 0.27341 0.95161 0.36192 0.0
O127 O 0.26173 0.94532 0.36875 0.0
O128 O 0.27372 0.94919 0.37657 0.0
C129 C 0.26582 0.94515 0.37665 0.0
C130 C 0.28339 0.94117 0.35155 0.0
C131 C 0.26539 0.93659 0.38179 0.0
C132 C 0.27091 0.92142 0.38516 0.0
C133 C 0.27091 0.92915 0.37965 0.0
C134 C 0.25971 0.92839 0.39485 0.0
C135 C 0.26542 0.92105 0.39291 0.0
C136 C 0.2597 0.93607 0.38935 0.0
C137 C 0.26866 0.97778 0.35986 0.0
C138 C 0.26012 0.98816 0.3694 0.0
C139 C 0.26925 0.99395 0.35714 0.0
C140 C 0.2718 0.98517 0.35486 0.0
C141 C 0.26349 0.99556 0.36448 0.0
C142 C 0.26273 0.97929 0.36712 0.0
C143 C 0.2721 0.96875 0.35737 0.0
O144 O 0.28645 0.94508 0.35891 0.0
O145 O 0.27461 0.94215 0.35048 0.0
O146 O 0.26622 0.96259 0.35481 0.0
O147 O 0.2787 0.96549 0.36234 0.0
H148 H 0.28185 0.95387 0.33803 0.0
H149 H 0.29206 0.95587 0.32502 0.0
H150 H 0.3081 0.93329 0.33409 0.0
H151 H 0.29787 0.93118 0.34695 0.0
H152 H 0.27534 0.91583 0.38352 0.0
H153 H 0.27536 0.92941 0.37385 0.0
H154 H 0.25542 0.92825 0.40077 0.0
H155 H 0.2554 0.94173 0.39113 0.0
H156 H 0.25564 0.98927 0.37508 0.0
H157 H 0.27191 0.99955 0.35325 0.0
H158 H 0.27638 0.98415 0.34924 0.0
H159 H 0.26023 0.97366 0.37106 0.0
C160 C 0.08814 0.74278 0.68738 0.0
C161 C 0.07956 0.73962 0.68998 0.0
C162 C 0.08639 0.73071 0.70202 0.0
C163 C 0.0787 0.7336 0.69725 0.0
C164 C 0.09489 0.73421 0.69968 0.0
C165 C 0.09575 0.7402 0.69242 0.0
U166 U 0.07908 0.75795 0.66838 0.0
O167 O 0.08563 0.769 0.66086 0.0
O168 O 0.08117 0.75681 0.65369 0.0
C169 C 0.0856 0.76449 0.6532 0.0
C170 C 0.08936 0.74811 0.67904 0.0
C171 C 0.09407 0.76433 0.64782 0.0
C172 C 0.11022 0.76726 0.6459 0.0
C173 C 0.10248 0.76702 0.65141 0.0
C174 C 0.10131 0.76201 0.63322 0.0
C175 C 0.10967 0.7648 0.63675 0.0
C176 C 0.09361 0.76179 0.63869 0.0
C177 C 0.05318 0.76381 0.6704 0.0
C178 C 0.04242 0.76908 0.65909 0.0
C179 C 0.03724 0.76521 0.6741 0.0
C180 C 0.04611 0.76322 0.67666 0.0
C181 C 0.03526 0.7679 0.66524 0.0
C182 C 0.05134 0.76696 0.66163 0.0
C183 C 0.06207 0.76015 0.67309 0.0
O184 O 0.08524 0.74491 0.67186 0.0
O185 O 0.08867 0.75693 0.6798 0.0
O186 O 0.06848 0.7659 0.67529 0.0
O187 O 0.06503 0.75318 0.66846 0.0
H188 H 0.07359 0.74153 0.68619 0.0
H189 H 0.07209 0.73094 0.69893 0.0
H190 H 0.1009 0.73203 0.70326 0.0
H191 H 0.10242 0.74255 0.69052 0.0
H192 H 0.11659 0.76947 0.64874 0.0
H193 H 0.10307 0.76903 0.65842 0.0
H194 H 0.10073 0.76013 0.62617 0.0
H195 H 0.08722 0.75976 0.63573 0.0
H196 H 0.04102 0.77119 0.65222 0.0
H197 H 0.03184 0.76432 0.67896 0.0
H198 H 0.04738 0.76081 0.68345 0.0
H199 H 0.05672 0.76745 0.6567 0.0
C200 C 0.289 0.08729 0.68748 0.0
C201 C 0.29363 0.07915 0.68917 0.0
C202 C 0.30081 0.08577 0.70242 0.0
C203 C 0.29952 0.07841 0.69657 0.0
C204 C 0.29582 0.09372 0.70102 0.0
C205 C 0.28997 0.09447 0.6936 0.0
U206 U 0.27401 0.07878 0.66801 0.0
O207 O 0.26307 0.08542 0.66039 0.0
O208 O 0.27541 0.08114 0.65338 0.0
C209 C 0.26758 0.08529 0.65275 0.0
C210 C 0.28382 0.0887 0.67902 0.0
C211 C 0.26738 0.09364 0.64729 0.0
C212 C 0.26899 0.10991 0.64551 0.0
C213 C 0.26984 0.10207 0.6508 0.0
C214 C 0.26382 0.10088 0.63302 0.0
C215 C 0.26511 0.10963 0.63672 0.0
C216 C 0.26469 0.09309 0.63827 0.0
C217 C 0.26706 0.05324 0.66884 0.0
C218 C 0.2686 0.03941 0.66003 0.0
C219 C 0.25791 0.04002 0.67237 0.0
C220 C 0.26026 0.04905 0.67397 0.0
C221 C 0.26243 0.03501 0.6657 0.0
C222 C 0.27089 0.04845 0.66157 0.0
C223 C 0.27117 0.06176 0.6722 0.0
O224 O 0.28708 0.08467 0.67181 0.0
O225 O 0.27496 0.0882 0.67958 0.0
O226 O 0.2657 0.06832 0.67466 0.0
O227 O 0.27848 0.06465 0.66806 0.0
H228 H 0.29297 0.07349 0.68458 0.0
H229 H 0.30332 0.07223 0.69752 0.0
H230 H 0.29674 0.09947 0.70545 0.0
H231 H 0.28647 0.1008 0.69245 0.0
H232 H 0.27162 0.11601 0.64845 0.0
H233 H 0.27246 0.1026 0.65762 0.0
H234 H 0.26212 0.09991 0.62599 0.0
H235 H 0.26321 0.08658 0.63525 0.0
H236 H 0.27214 0.03566 0.65483 0.0
H237 H 0.25313 0.03674 0.67682 0.0
H238 H 0.25722 0.05254 0.67964 0.0
H239 H 0.27612 0.05147 0.65744 0.0
C240 C 0.94297 0.28741 0.68745 0.0
C241 C 0.95152 0.29086 0.68979 0.0
C242 C 0.94483 0.29957 0.70204 0.0
C243 C 0.95244 0.29692 0.69703 0.0
C244 C 0.93636 0.2958 0.69995 0.0
C245 C 0.93545 0.28977 0.69272 0.0
U246 U 0.95222 0.27283 0.66819 0.0
O247 O 0.94621 0.26132 0.66084 0.0
O248 O 0.94966 0.27375 0.65359 0.0
C249 C 0.9459 0.26572 0.65314 0.0
C250 C 0.94167 0.28199 0.67916 0.0
C251 C 0.93738 0.26522 0.64793 0.0
C252 C 0.92143 0.26883 0.64573 0.0
C253 C 0.92925 0.26893 0.65115 0.0
C254 C 0.92979 0.26123 0.63388 0.0
C255 C 0.92169 0.26509 0.63698 0.0
C256 C 0.93754 0.26129 0.6393 0.0
C257 C 0.97852 0.26875 0.6694 0.0
C258 C 0.98889 0.2577 0.66288 0.0
C259 C 0.99472 0.27149 0.66952 0.0
C260 C 0.98594 0.27423 0.67158 0.0
C261 C 0.9963 0.2632 0.66523 0.0
C262 C 0.98003 0.26046 0.66498 0.0
C263 C 0.96949 0.27182 0.67238 0.0
O264 O 0.94526 0.28542 0.67182 0.0
O265 O 0.94296 0.27323 0.67988 0.0
O266 O 0.96354 0.26569 0.67478 0.0
O267 O 0.96593 0.27862 0.66792 0.0
H268 H 0.95742 0.28912 0.68582 0.0
H269 H 0.95901 0.29979 0.6985 0.0
H270 H 0.93041 0.2978 0.70372 0.0
H271 H 0.9288 0.28719 0.69103 0.0
H272 H 0.91525 0.27182 0.64826 0.0
H273 H 0.92899 0.27202 0.65778 0.0
H274 H 0.93013 0.25829 0.62719 0.0
H275 H 0.94374 0.2584 0.63668 0.0
H276 H 0.98999 0.25127 0.65956 0.0
H277 H 1.00034 0.2758 0.67139 0.0
H278 H 0.98495 0.28061 0.67503 0.0
H279 H 0.9744 0.25611 0.66325 0.0
C280 C 0.74314 0.94314 0.68764 0.0
C281 C 0.73847 0.95128 0.68921 0.0
C282 C 0.73102 0.94469 0.70229 0.0
C283 C 0.73244 0.95203 0.69647 0.0
C284 C 0.73601 0.93672 0.70098 0.0
C285 C 0.74201 0.93595 0.69371 0.0
U286 U 0.75823 0.95212 0.66862 0.0
O287 O 0.76983 0.94583 0.66161 0.0
O288 O 0.75762 0.94951 0.65402 0.0
C289 C 0.76556 0.94551 0.65382 0.0
C290 C 0.74865 0.9418 0.67942 0.0
C291 C 0.76593 0.93686 0.64881 0.0
C292 C 0.75972 0.92207 0.64503 0.0
C293 C 0.75979 0.92982 0.65052 0.0
C294 C 0.77212 0.92817 0.63629 0.0
C295 C 0.7658 0.92126 0.63778 0.0
C296 C 0.77217 0.9359 0.64175 0.0
C297 C 0.76288 0.9783 0.67023 0.0
C298 C 0.77148 0.98846 0.66056 0.0
C299 C 0.76229 0.99452 0.67267 0.0
C300 C 0.75971 0.98579 0.67508 0.0
C301 C 0.7681 0.99596 0.66535 0.0
C302 C 0.76885 0.97964 0.66298 0.0
C303 C 0.75952 0.96932 0.67294 0.0
O304 O 0.74542 0.94548 0.67201 0.0
O305 O 0.75744 0.94286 0.6803 0.0
O306 O 0.76549 0.96323 0.67544 0.0
O307 O 0.75283 0.96597 0.66817 0.0
H308 H 0.73927 0.95694 0.68466 0.0
H309 H 0.72864 0.95823 0.69735 0.0
H310 H 0.735 0.93097 0.70539 0.0
H311 H 0.74555 0.92962 0.69264 0.0
H312 H 0.75479 0.91682 0.64628 0.0
H313 H 0.7549 0.93043 0.65593 0.0
H314 H 0.77684 0.92769 0.63072 0.0
H315 H 0.77695 0.94125 0.64029 0.0
H316 H 0.776 0.98944 0.6549 0.0
H317 H 0.75963 1.0002 0.67646 0.0
H318 H 0.75511 0.9849 0.6807 0.0
H319 H 0.77138 0.97393 0.65916 0.0
C320 C 0.34418 0.08809 0.28848 0.0
C321 C 0.33787 0.08116 0.28685 0.0
C322 C 0.32928 0.08571 0.30015 0.0
C323 C 0.33043 0.08002 0.29262 0.0
C324 C 0.33554 0.09266 0.30169 0.0
C325 C 0.34291 0.09384 0.2959 0.0
U326 U 0.36254 0.07917 0.27234 0.0
O327 O 0.36968 0.08597 0.26119 0.0
O328 O 0.37729 0.08116 0.27298 0.0
C329 C 0.37754 0.08568 0.26536 0.0
C330 C 0.35234 0.08925 0.28285 0.0
C331 C 0.38306 0.09403 0.26541 0.0
C332 C 0.38472 0.11043 0.26539 0.0
C333 C 0.37918 0.10272 0.26554 0.0
C334 C 0.39802 0.10088 0.26509 0.0
C335 C 0.3942 0.10956 0.26518 0.0
C336 C 0.39251 0.0932 0.2652 0.0
C337 C 0.36083 0.05358 0.26565 0.0
C338 C 0.37201 0.04154 0.26428 0.0
C339 C 0.3563 0.03856 0.26076 0.0
C340 C 0.35416 0.04759 0.26256 0.0
C341 C 0.36516 0.03539 0.26197 0.0
C342 C 0.36986 0.0506 0.26614 0.0
C343 C 0.35788 0.06222 0.26974 0.0
O344 O 0.35957 0.08495 0.2857 0.0
O345 O 0.35125 0.08878 0.27404 0.0
O346 O 0.35534 0.06877 0.26432 0.0
O347 O 0.36253 0.06505 0.27676 0.0
H348 H 0.33876 0.0766 0.28119 0.0
H349 H 0.32566 0.07462 0.29133 0.0
H350 H 0.33476 0.09712 0.30744 0.0
H351 H 0.3477 0.0992 0.29729 0.0
H352 H 0.38164 0.11707 0.26543 0.0
H353 H 0.37191 0.10354 0.26571 0.0
H354 H 0.4053 0.10004 0.2649 0.0
H355 H 0.39565 0.08659 0.26508 0.0
H356 H 0.37888 0.0392 0.2653 0.0
H357 H 0.35092 0.03391 0.25901 0.0
H358 H 0.34716 0.04972 0.26216 0.0
H359 H 0.37513 0.05509 0.26851 0.0
C360 C 0.94337 0.34292 0.28714 0.0
C361 C 0.95152 0.34136 0.29181 0.0
C362 C 0.94498 0.32816 0.29913 0.0
C363 C 0.9523 0.33405 0.29778 0.0
C364 C 0.93703 0.32944 0.29409 0.0
C365 C 0.93623 0.33677 0.28815 0.0
U366 U 0.95225 0.36249 0.27272 0.0
O367 O 0.94596 0.37003 0.26149 0.0
O368 O 0.94968 0.37709 0.27399 0.0
C369 C 0.94575 0.37767 0.26605 0.0
C370 C 0.94195 0.35128 0.28184 0.0
C371 C 0.9373 0.38303 0.26573 0.0
C372 C 0.92086 0.38449 0.26596 0.0
C373 C 0.92867 0.37906 0.26624 0.0
C374 C 0.9302 0.39785 0.26471 0.0
C375 C 0.92157 0.39394 0.26524 0.0
C376 C 0.93796 0.39245 0.26495 0.0
C377 C 0.9785 0.36175 0.26826 0.0
C378 C 0.98926 0.36575 0.25642 0.0
C379 C 0.99449 0.3635 0.27176 0.0
C380 C 0.98565 0.3617 0.2745 0.0
C381 C 0.9964 0.36537 0.26269 0.0
C382 C 0.98034 0.36392 0.25918 0.0
C383 C 0.96955 0.35854 0.27138 0.0
O384 O 0.9455 0.35863 0.28532 0.0
O385 O 0.94309 0.35068 0.27305 0.0
O386 O 0.96351 0.35613 0.2653 0.0
O387 O 0.96602 0.36275 0.27834 0.0
H388 H 0.95715 0.34598 0.29111 0.0
H389 H 0.95848 0.33319 0.30162 0.0
H390 H 0.9313 0.32499 0.29504 0.0
H391 H 0.9299 0.33783 0.28461 0.0
H392 H 0.91426 0.38133 0.26635 0.0
H393 H 0.92798 0.3718 0.26687 0.0
H394 H 0.93092 0.40511 0.26412 0.0
H395 H 0.94453 0.39566 0.26453 0.0
H396 H 0.99062 0.36716 0.24938 0.0
H397 H 0.99991 0.36314 0.27668 0.0
H398 H 0.98444 0.35995 0.2815 0.0
H399 H 0.97498 0.36396 0.2542 0.0
C400 C 0.68794 0.94307 0.28728 0.0
C401 C 0.68961 0.95124 0.29186 0.0
C402 C 0.70274 0.9446 0.29927 0.0
C403 C 0.69694 0.95198 0.29783 0.0
C404 C 0.70135 0.93661 0.29434 0.0
C405 C 0.69399 0.93585 0.28841 0.0
U406 U 0.66889 0.95209 0.27218 0.0
O407 O 0.66152 0.94572 0.2609 0.0
O408 O 0.65419 0.9499 0.27307 0.0
C409 C 0.65376 0.94575 0.26524 0.0
C410 C 0.67961 0.94175 0.28189 0.0
C411 C 0.6484 0.93731 0.26507 0.0
C412 C 0.64683 0.92099 0.26679 0.0
C413 C 0.65224 0.92881 0.26689 0.0
C414 C 0.63373 0.9301 0.26308 0.0
C415 C 0.63751 0.9216 0.26494 0.0
C416 C 0.63912 0.93787 0.26314 0.0
C417 C 0.67099 0.97809 0.26691 0.0
C418 C 0.66015 0.98866 0.26041 0.0
C419 C 0.67448 0.99411 0.26618 0.0
C420 C 0.67695 0.98529 0.26844 0.0
C421 C 0.66601 0.99591 0.26233 0.0
C422 C 0.66261 0.97978 0.26273 0.0
C423 C 0.6736 0.96914 0.27043 0.0
O424 O 0.6723 0.94566 0.2851 0.0
O425 O 0.68038 0.94256 0.27309 0.0
O426 O 0.67587 0.96285 0.26458 0.0
O427 O 0.66886 0.96605 0.27725 0.0
H428 H 0.68508 0.95693 0.29106 0.0
H429 H 0.69789 0.95819 0.30159 0.0
H430 H 0.70574 0.93084 0.29537 0.0
H431 H 0.69286 0.92951 0.28493 0.0
H432 H 0.64989 0.9145 0.26821 0.0
H433 H 0.65938 0.92822 0.26842 0.0
H434 H 0.62658 0.93073 0.26162 0.0
H435 H 0.63602 0.94434 0.26172 0.0
H436 H 0.65358 0.98993 0.25741 0.0
H437 H 0.6791 0.99958 0.26771 0.0
H438 H 0.68343 0.98413 0.27166 0.0
H439 H 0.65792 0.97429 0.26151 0.0
C440 C 0.08856 0.6869 0.28852 0.0
C441 C 0.08046 0.69189 0.2884 0.0
C442 C 0.08631 0.70188 0.30013 0.0
C443 C 0.07936 0.69937 0.29414 0.0
C444 C 0.09447 0.69704 0.30004 0.0
C445 C 0.09559 0.68963 0.29427 0.0
U446 U 0.07916 0.66798 0.2734 0.0
O447 O 0.08547 0.66041 0.26224 0.0
O448 O 0.08128 0.65327 0.2745 0.0
C449 C 0.08538 0.65271 0.26666 0.0
C450 C 0.08962 0.6785 0.28322 0.0
C451 C 0.0938 0.64729 0.26641 0.0
C452 C 0.11003 0.64545 0.26871 0.0
C453 C 0.10211 0.65068 0.26943 0.0
C454 C 0.10132 0.63323 0.26247 0.0
C455 C 0.10999 0.63684 0.26444 0.0
C456 C 0.09345 0.63842 0.26321 0.0
C457 C 0.05336 0.67034 0.26729 0.0
C458 C 0.04248 0.65907 0.26219 0.0
C459 C 0.03753 0.67436 0.26531 0.0
C460 C 0.04641 0.67679 0.26744 0.0
C461 C 0.03543 0.66543 0.26295 0.0
C462 C 0.0514 0.66149 0.26444 0.0
C463 C 0.0622 0.67294 0.27112 0.0
O464 O 0.08534 0.67145 0.28646 0.0
O465 O 0.08891 0.67921 0.2744 0.0
O466 O 0.06869 0.67513 0.26547 0.0
O467 O 0.06506 0.66823 0.27807 0.0
H468 H 0.07493 0.68987 0.28403 0.0
H469 H 0.07301 0.70302 0.29413 0.0
H470 H 0.09991 0.69887 0.30459 0.0
H471 H 0.10188 0.68586 0.29448 0.0
H472 H 0.11597 0.64829 0.27177 0.0
H473 H 0.10247 0.65736 0.27242 0.0
H474 H 0.10049 0.6263 0.26033 0.0
H475 H 0.08703 0.63547 0.26127 0.0
H476 H 0.04099 0.65214 0.26034 0.0
H477 H 0.03222 0.67937 0.26589 0.0
H478 H 0.04777 0.68365 0.26961 0.0
H479 H 0.05668 0.65641 0.26428 0.0
C480 C 0.34415 0.94256 0.74191 0.0
C481 C 0.33779 0.94948 0.7434 0.0
C482 C 0.32938 0.94484 0.73 0.0
C483 C 0.33042 0.95058 0.73751 0.0
C484 C 0.3357 0.93791 0.72858 0.0
C485 C 0.343 0.93677 0.73449 0.0
U486 U 0.36232 0.95169 0.75811 0.0
O487 O 0.36887 0.94516 0.76986 0.0
O488 O 0.37699 0.94933 0.75822 0.0
C489 C 0.37687 0.94503 0.76598 0.0
C490 C 0.35217 0.94137 0.74777 0.0
C491 C 0.38191 0.93638 0.7662 0.0
C492 C 0.38685 0.92248 0.75888 0.0
C493 C 0.38114 0.93005 0.75917 0.0
C494 C 0.39391 0.92722 0.77287 0.0
C495 C 0.39341 0.92111 0.76563 0.0
C496 C 0.3882 0.93479 0.77315 0.0
C497 C 0.36036 0.97776 0.76309 0.0
C498 C 0.37122 0.98827 0.76967 0.0
C499 C 0.357 0.99382 0.7637 0.0
C500 C 0.35449 0.98502 0.76146 0.0
C501 C 0.36544 0.99557 0.76764 0.0
C502 C 0.36871 0.9794 0.76735 0.0
C503 C 0.35779 0.96884 0.75948 0.0
O504 O 0.35959 0.94533 0.74494 0.0
O505 O 0.3509 0.94226 0.75651 0.0
O506 O 0.35505 0.96264 0.76521 0.0
O507 O 0.36288 0.96559 0.75298 0.0
H508 H 0.33857 0.95406 0.74905 0.0
H509 H 0.32561 0.95596 0.73872 0.0
H510 H 0.335 0.93341 0.72285 0.0
H511 H 0.34782 0.93141 0.7332 0.0
H512 H 0.38639 0.91788 0.75321 0.0
H513 H 0.37634 0.93112 0.75374 0.0
H514 H 0.39894 0.92631 0.77811 0.0
H515 H 0.38892 0.93959 0.77863 0.0
H516 H 0.37776 0.98949 0.77274 0.0
H517 H 0.35245 0.99934 0.7621 0.0
H518 H 0.34804 0.9839 0.75815 0.0
H519 H 0.37335 0.97388 0.76864 0.0
C520 C 0.08844 0.34297 0.74204 0.0
C521 C 0.07989 0.34051 0.73866 0.0
C522 C 0.08662 0.32803 0.7303 0.0
C523 C 0.07899 0.3331 0.73282 0.0
C524 C 0.09508 0.33022 0.73404 0.0
C525 C 0.09597 0.33763 0.73986 0.0
U526 U 0.0793 0.36279 0.75599 0.0
O527 O 0.08534 0.3706 0.76715 0.0
O528 O 0.08188 0.37736 0.75442 0.0
C529 C 0.08558 0.37814 0.76246 0.0
C530 C 0.08975 0.35148 0.74711 0.0
C531 C 0.09399 0.38353 0.763 0.0
C532 C 0.11029 0.38537 0.76145 0.0
C533 C 0.10244 0.38008 0.76051 0.0
C534 C 0.10124 0.39775 0.76684 0.0
C535 C 0.11001 0.39411 0.76545 0.0
C536 C 0.09344 0.3925 0.76589 0.0
C537 C 0.05315 0.36187 0.76085 0.0
C538 C 0.04249 0.36548 0.77292 0.0
C539 C 0.03714 0.36381 0.75755 0.0
C540 C 0.04595 0.36208 0.75467 0.0
C541 C 0.0353 0.36536 0.7667 0.0
C542 C 0.05138 0.36372 0.77002 0.0
C543 C 0.06207 0.35866 0.75758 0.0
O544 O 0.08603 0.35866 0.74345 0.0
O545 O 0.08863 0.3511 0.75591 0.0
O546 O 0.06822 0.35636 0.76358 0.0
O547 O 0.06545 0.36282 0.75052 0.0
H548 H 0.07398 0.34453 0.74026 0.0
H549 H 0.07243 0.33155 0.72997 0.0
H550 H 0.10104 0.32641 0.73215 0.0
H551 H 0.10262 0.3394 0.74239 0.0
H552 H 0.11639 0.38248 0.75877 0.0
H553 H 0.10297 0.37332 0.75774 0.0
H554 H 0.10025 0.40475 0.76865 0.0
H555 H 0.08693 0.3955 0.76739 0.0
H556 H 0.04119 0.36664 0.78002 0.0
H557 H 0.03168 0.36365 0.75266 0.0
H558 H 0.04709 0.36056 0.7476 0.0
H559 H 0.05677 0.36354 0.77497 0.0
C560 C 0.6884 0.08745 0.74228 0.0
C561 C 0.68995 0.07932 0.7376 0.0
C562 C 0.70313 0.08586 0.73026 0.0
C563 C 0.69724 0.07854 0.73161 0.0
C564 C 0.70184 0.09381 0.73527 0.0
C565 C 0.69453 0.0946 0.74122 0.0
U566 U 0.66934 0.07869 0.7575 0.0
O567 O 0.66235 0.08521 0.76899 0.0
O568 O 0.65472 0.0813 0.75688 0.0
C569 C 0.65455 0.0855 0.76471 0.0
C570 C 0.68014 0.08883 0.74774 0.0
C571 C 0.64949 0.09415 0.76501 0.0
C572 C 0.64334 0.10755 0.75761 0.0
C573 C 0.64911 0.10001 0.75753 0.0
C574 C 0.63857 0.10374 0.77277 0.0
C575 C 0.63789 0.10938 0.76517 0.0
C576 C 0.64431 0.0962 0.77268 0.0
C577 C 0.67101 0.0526 0.76267 0.0
C578 C 0.66016 0.04219 0.76936 0.0
C579 C 0.67434 0.03654 0.7634 0.0
C580 C 0.67685 0.04532 0.76108 0.0
C581 C 0.66591 0.03486 0.76739 0.0
C582 C 0.66268 0.05104 0.76696 0.0
C583 C 0.67368 0.06151 0.75913 0.0
O584 O 0.67274 0.08507 0.74457 0.0
O585 O 0.68101 0.08795 0.75653 0.0
O586 O 0.67621 0.06773 0.76496 0.0
O587 O 0.66885 0.06474 0.75241 0.0
H588 H 0.68535 0.07368 0.73834 0.0
H589 H 0.69811 0.07236 0.72779 0.0
H590 H 0.70629 0.09954 0.7343 0.0
H591 H 0.69348 0.10092 0.74478 0.0
H592 H 0.6429 0.1118 0.75167 0.0
H593 H 0.65305 0.09859 0.75154 0.0
H594 H 0.63441 0.10501 0.77865 0.0
H595 H 0.64446 0.09179 0.7785 0.0
H596 H 0.65364 0.04102 0.77246 0.0
H597 H 0.67887 0.031 0.76184 0.0
H598 H 0.68329 0.04638 0.75777 0.0
H599 H 0.65807 0.05658 0.76824 0.0
C600 C 0.94296 0.68681 0.74113 0.0
C601 C 0.95029 0.69273 0.74243 0.0
C602 C 0.94532 0.70185 0.72964 0.0
C603 C 0.95143 0.70024 0.73675 0.0
C604 C 0.93793 0.69602 0.72848 0.0
C605 C 0.93676 0.68859 0.73418 0.0
U606 U 0.95209 0.66811 0.75674 0.0
O607 O 0.94554 0.6607 0.76784 0.0
O608 O 0.95003 0.65339 0.75577 0.0
C609 C 0.94578 0.65293 0.76354 0.0
C610 C 0.94187 0.6785 0.74654 0.0
C611 C 0.93742 0.64745 0.76372 0.0
C612 C 0.92121 0.6455 0.76148 0.0
C613 C 0.92908 0.65079 0.76075 0.0
C614 C 0.93006 0.63331 0.7676 0.0
C615 C 0.92135 0.63688 0.76571 0.0
C616 C 0.93788 0.63856 0.76685 0.0
C617 C 0.97765 0.67009 0.7636 0.0
C618 C 0.98941 0.65875 0.76584 0.0
C619 C 0.99283 0.6746 0.76803 0.0
C620 C 0.98384 0.67682 0.7661 0.0
C621 C 0.99577 0.66561 0.76755 0.0
C622 C 0.9804 0.66098 0.76383 0.0
C623 C 0.969 0.67293 0.75947 0.0
O624 O 0.94623 0.6714 0.74349 0.0
O625 O 0.94237 0.67934 0.75537 0.0
O626 O 0.96238 0.67531 0.76489 0.0
O627 O 0.96627 0.6683 0.7524 0.0
H628 H 0.95519 0.69145 0.74773 0.0
H629 H 0.95717 0.70467 0.73775 0.0
H630 H 0.93314 0.69716 0.72306 0.0
H631 H 0.93108 0.6841 0.73305 0.0
H632 H 0.91523 0.64831 0.75846 0.0
H633 H 0.92864 0.65748 0.75781 0.0
H634 H 0.93097 0.62637 0.76968 0.0
H635 H 0.94434 0.63565 0.76875 0.0
H636 H 0.99157 0.65177 0.7654 0.0
H637 H 0.99763 0.67998 0.76933 0.0
H638 H 0.98188 0.68387 0.76596 0.0
H639 H 0.97573 0.65567 0.76193 0.0
C640 C 0.28936 0.34372 0.08799 0.0
C641 C 0.28777 0.33742 0.08105 0.0
C642 C 0.30106 0.3288 0.08566 0.0
C643 C 0.29356 0.32997 0.07993 0.0
C644 C 0.30256 0.33505 0.09263 0.0
C645 C 0.29675 0.34242 0.0938 0.0
U646 U 0.27369 0.36223 0.07866 0.0
O647 O 0.26218 0.36932 0.08497 0.0
O648 O 0.27419 0.37694 0.08084 0.0
C649 C 0.26633 0.37718 0.08495 0.0
C650 C 0.28371 0.3519 0.08911 0.0
C651 C 0.26598 0.38257 0.09338 0.0
C652 C 0.26824 0.38441 0.10961 0.0
C653 C 0.2684 0.37895 0.10183 0.0
C654 C 0.26324 0.39711 0.10059 0.0
C655 C 0.26574 0.39358 0.10903 0.0
C656 C 0.26336 0.39166 0.09286 0.0
C657 C 0.26864 0.35999 0.0526 0.0
C658 C 0.26015 0.36968 0.04232 0.0
C659 C 0.26909 0.3573 0.03642 0.0
C660 C 0.27167 0.35496 0.04517 0.0
C661 C 0.26343 0.36474 0.03488 0.0
C662 C 0.26278 0.36734 0.05116 0.0
C663 C 0.27215 0.35747 0.06159 0.0
O664 O 0.28677 0.35918 0.08508 0.0
O665 O 0.27492 0.35089 0.08823 0.0
O666 O 0.26631 0.35508 0.06782 0.0
O667 O 0.27885 0.36236 0.06474 0.0
H668 H 0.28215 0.33832 0.07644 0.0
H669 H 0.2923 0.32522 0.07451 0.0
H670 H 0.30828 0.33425 0.09714 0.0
H671 H 0.29811 0.34721 0.09917 0.0
H672 H 0.27016 0.38153 0.11605 0.0
H673 H 0.27046 0.37195 0.10239 0.0
H674 H 0.26127 0.40414 0.09997 0.0
H675 H 0.26147 0.3946 0.08642 0.0
H676 H 0.25573 0.37543 0.04126 0.0
H677 H 0.27168 0.35339 0.03079 0.0
H678 H 0.27619 0.34927 0.04614 0.0
H679 H 0.26037 0.37131 0.05682 0.0
C680 C 0.28887 0.68711 0.94259 0.0
C681 C 0.28729 0.6934 0.94954 0.0
C682 C 0.30057 0.702 0.94496 0.0
C683 C 0.29308 0.70084 0.95068 0.0
C684 C 0.30206 0.69575 0.93799 0.0
C685 C 0.29626 0.68839 0.93681 0.0
U686 U 0.27323 0.66851 0.95175 0.0
O687 O 0.26175 0.66149 0.94531 0.0
O688 O 0.27377 0.65383 0.94941 0.0
C689 C 0.26591 0.65363 0.94527 0.0
C690 C 0.2832 0.67896 0.94142 0.0
C691 C 0.26557 0.64827 0.93682 0.0
C692 C 0.26721 0.64663 0.9205 0.0
C693 C 0.26736 0.65207 0.9283 0.0
C694 C 0.26343 0.63362 0.92963 0.0
C695 C 0.26531 0.63733 0.92113 0.0
C696 C 0.26357 0.63903 0.93738 0.0
C697 C 0.26839 0.67048 0.97791 0.0
C698 C 0.25977 0.66097 0.98823 0.0
C699 C 0.26923 0.67297 0.99411 0.0
C700 C 0.27172 0.67531 0.98534 0.0
C701 C 0.26333 0.66574 0.99567 0.0
C702 C 0.26232 0.66331 0.97937 0.0
C703 C 0.27177 0.67303 0.96889 0.0
O704 O 0.28628 0.67163 0.94535 0.0
O705 O 0.27441 0.67999 0.94234 0.0
O706 O 0.26586 0.67548 0.96271 0.0
O707 O 0.27847 0.6682 0.96565 0.0
H708 H 0.28167 0.69251 0.95413 0.0
H709 H 0.29182 0.7056 0.9561 0.0
H710 H 0.30778 0.69654 0.93349 0.0
H711 H 0.29761 0.68361 0.93143 0.0
H712 H 0.26866 0.64963 0.91399 0.0
H713 H 0.26894 0.65918 0.92769 0.0
H714 H 0.26194 0.62648 0.93028 0.0
H715 H 0.26217 0.63596 0.94387 0.0
H716 H 0.25518 0.65538 0.9893 0.0
H717 H 0.27203 0.67674 0.99973 0.0
H718 H 0.27641 0.68085 0.98436 0.0
H719 H 0.25967 0.6595 0.97372 0.0
C720 C 0.34283 0.28768 0.94362 0.0
C721 C 0.34154 0.29265 0.95163 0.0
C722 C 0.32803 0.29968 0.94532 0.0
C723 C 0.33421 0.29862 0.95246 0.0
C724 C 0.32904 0.29436 0.93753 0.0
C725 C 0.33638 0.28842 0.93669 0.0
U726 U 0.36223 0.27218 0.95153 0.0
O727 O 0.36956 0.26136 0.94435 0.0
O728 O 0.37687 0.27336 0.94909 0.0
C729 C 0.37728 0.26578 0.94449 0.0
C730 C 0.35119 0.28238 0.94203 0.0
C731 C 0.38272 0.266 0.93607 0.0
C732 C 0.3846 0.26386 0.91983 0.0
C733 C 0.37902 0.26411 0.92751 0.0
C734 C 0.39758 0.26749 0.92913 0.0
C735 C 0.39394 0.26551 0.92061 0.0
C736 C 0.39203 0.26772 0.93677 0.0
C737 C 0.36132 0.26523 0.97715 0.0
C738 C 0.37241 0.26446 0.98933 0.0
C739 C 0.35692 0.25994 0.99206 0.0
C740 C 0.35479 0.26167 0.98302 0.0
C741 C 0.36562 0.26171 0.99537 0.0
C742 C 0.37026 0.26625 0.98027 0.0
C743 C 0.35818 0.26927 0.96857 0.0
O744 O 0.35854 0.28543 0.94599 0.0
O745 O 0.35048 0.27353 0.94236 0.0
O746 O 0.35566 0.26381 0.96202 0.0
O747 O 0.36254 0.27644 0.96571 0.0
H748 H 0.34638 0.29218 0.95711 0.0
H749 H 0.33356 0.30268 0.95851 0.0
H750 H 0.32437 0.2951 0.93194 0.0
H751 H 0.33721 0.28466 0.93047 0.0
H752 H 0.38167 0.2623 0.9133 0.0
H753 H 0.37187 0.26272 0.92675 0.0
H754 H 0.40475 0.26875 0.92988 0.0
H755 H 0.39506 0.26913 0.94329 0.0
H756 H 0.37916 0.26589 0.99178 0.0
H757 H 0.35159 0.25784 0.99662 0.0
H758 H 0.34786 0.26084 0.98079 0.0
H759 H 0.37542 0.26899 0.97588 0.0
C760 C 0.74334 0.34301 0.94246 0.0
C761 C 0.73877 0.34146 0.95064 0.0
C762 C 0.73132 0.32829 0.94418 0.0
C763 C 0.73278 0.33418 0.95148 0.0
C764 C 0.73623 0.32957 0.93616 0.0
C765 C 0.74218 0.33688 0.93531 0.0
U766 U 0.75835 0.36212 0.95137 0.0
O767 O 0.76984 0.36928 0.94512 0.0
O768 O 0.7576 0.37675 0.94886 0.0
C769 C 0.76555 0.37706 0.94492 0.0
C770 C 0.74879 0.35127 0.94105 0.0
C771 C 0.76596 0.38226 0.9364 0.0
C772 C 0.76128 0.38505 0.92084 0.0
C773 C 0.76125 0.37956 0.9286 0.0
C774 C 0.77082 0.39587 0.92857 0.0
C775 C 0.76595 0.39333 0.92082 0.0
C776 C 0.77082 0.3904 0.93627 0.0
C777 C 0.76303 0.36033 0.97755 0.0
C778 C 0.77156 0.36995 0.98787 0.0
C779 C 0.76238 0.35775 0.99374 0.0
C780 C 0.75984 0.35541 0.98497 0.0
C781 C 0.76816 0.36508 0.99529 0.0
C782 C 0.76898 0.3676 0.97902 0.0
C783 C 0.7597 0.35771 0.96853 0.0
O784 O 0.74553 0.35867 0.94472 0.0
O785 O 0.75759 0.35046 0.94206 0.0
O786 O 0.76569 0.35531 0.96243 0.0
O787 O 0.75297 0.36246 0.96522 0.0
H788 H 0.7396 0.34606 0.95627 0.0
H789 H 0.72904 0.33332 0.9577 0.0
H790 H 0.73518 0.32511 0.93045 0.0
H791 H 0.74565 0.33792 0.92896 0.0
H792 H 0.7575 0.38294 0.91494 0.0
H793 H 0.75744 0.37332 0.92856 0.0
H794 H 0.77448 0.40221 0.92871 0.0
H795 H 0.77448 0.39261 0.94221 0.0
H796 H 0.77606 0.37562 0.98895 0.0
H797 H 0.7597 0.35391 0.99935 0.0
H798 H 0.75526 0.34978 0.98398 0.0
H799 H 0.77152 0.37148 0.97337 0.0
C800 C 0.68757 0.74225 0.94256 0.0
C801 C 0.69399 0.74368 0.94944 0.0
C802 C 0.7023 0.73027 0.94467 0.0
C803 C 0.70134 0.73776 0.95045 0.0
C804 C 0.69593 0.72891 0.93778 0.0
C805 C 0.68864 0.73485 0.93672 0.0
U806 U 0.66953 0.75839 0.952 0.0
O807 O 0.66296 0.77023 0.94567 0.0
O808 O 0.65484 0.75854 0.94975 0.0
C809 C 0.65495 0.76636 0.94554 0.0
C810 C 0.67955 0.74814 0.94149 0.0
C811 C 0.64994 0.76663 0.9369 0.0
C812 C 0.64597 0.75987 0.92243 0.0
C813 C 0.65151 0.76017 0.93012 0.0
C814 C 0.63746 0.7727 0.928 0.0
C815 C 0.6388 0.76602 0.9214 0.0
C816 C 0.643 0.773 0.93569 0.0
C817 C 0.67155 0.76323 0.97802 0.0
C818 C 0.66065 0.76987 0.98844 0.0
C819 C 0.67478 0.7638 0.9941 0.0
C820 C 0.67735 0.76155 0.98532 0.0
C821 C 0.66635 0.76779 0.99577 0.0
C822 C 0.66322 0.76755 0.97958 0.0
C823 C 0.67417 0.75963 0.96911 0.0
O824 O 0.67217 0.74527 0.94548 0.0
O825 O 0.68085 0.75687 0.94245 0.0
O826 O 0.6769 0.76539 0.96294 0.0
O827 O 0.66907 0.75314 0.96585 0.0
H828 H 0.69326 0.74931 0.95406 0.0
H829 H 0.7062 0.73891 0.95581 0.0
H830 H 0.69657 0.7232 0.93325 0.0
H831 H 0.68377 0.73362 0.93139 0.0
H832 H 0.64708 0.75464 0.91743 0.0
H833 H 0.65683 0.75519 0.93091 0.0
H834 H 0.63194 0.77747 0.92735 0.0
H835 H 0.64166 0.77802 0.94085 0.0
H836 H 0.65412 0.77298 0.9896 0.0
H837 H 0.67927 0.76215 0.99965 0.0
H838 H 0.68378 0.7582 0.98426 0.0
H839 H 0.65864 0.76888 0.97403 0.0
C840 C 0.74245 0.68699 0.08757 0.0
C841 C 0.74399 0.69332 0.08066 0.0
C842 C 0.73074 0.70191 0.08539 0.0
C843 C 0.73819 0.70077 0.07961 0.0
C844 C 0.72932 0.69565 0.09235 0.0
C845 C 0.73513 0.68827 0.09344 0.0
U846 U 0.75794 0.66847 0.07797 0.0
O847 O 0.76933 0.66115 0.08423 0.0
O848 O 0.75721 0.65374 0.07996 0.0
C849 C 0.765 0.65338 0.08422 0.0
C850 C 0.74805 0.67877 0.08855 0.0
C851 C 0.7651 0.64802 0.09268 0.0
C852 C 0.7666 0.64659 0.10905 0.0
C853 C 0.76631 0.65199 0.10125 0.0
C854 C 0.76435 0.63323 0.09986 0.0
C855 C 0.76561 0.63716 0.1084 0.0
C856 C 0.76411 0.6386 0.0921 0.0
C857 C 0.76305 0.67079 0.05198 0.0
C858 C 0.77147 0.66103 0.0417 0.0
C859 C 0.76257 0.67345 0.0358 0.0
C860 C 0.76003 0.67582 0.04455 0.0
C861 C 0.76819 0.66598 0.03426 0.0
C862 C 0.76887 0.66341 0.05054 0.0
C863 C 0.75956 0.67334 0.06096 0.0
O864 O 0.74491 0.67158 0.0844 0.0
O865 O 0.75685 0.67973 0.08768 0.0
O866 O 0.76544 0.6756 0.06724 0.0
O867 O 0.75277 0.66854 0.06404 0.0
H868 H 0.74956 0.69242 0.07601 0.0
H869 H 0.7394 0.70554 0.0742 0.0
H870 H 0.72362 0.69643 0.09688 0.0
H871 H 0.73381 0.68347 0.09879 0.0
H872 H 0.76761 0.64974 0.11557 0.0
H873 H 0.76709 0.65923 0.10191 0.0
H874 H 0.76361 0.62598 0.09921 0.0
H875 H 0.76319 0.63538 0.08559 0.0
H876 H 0.77585 0.65526 0.04065 0.0
H877 H 0.75999 0.67736 0.03017 0.0
H878 H 0.75554 0.68153 0.04551 0.0
H879 H 0.77127 0.65944 0.0562 0.0
C880 C 0.34411 0.74208 0.08812 0.0
C881 C 0.33779 0.74364 0.08118 0.0
C882 C 0.32939 0.73018 0.08557 0.0
C883 C 0.33044 0.73775 0.07995 0.0
C884 C 0.33569 0.72867 0.09251 0.0
C885 C 0.34296 0.73457 0.09377 0.0
U886 U 0.36214 0.75868 0.07951 0.0
O887 O 0.36866 0.77026 0.08634 0.0
O888 O 0.37682 0.75876 0.08179 0.0
C889 C 0.3767 0.76645 0.08622 0.0
C890 C 0.35209 0.74795 0.08947 0.0
C891 C 0.38191 0.7666 0.09475 0.0
C892 C 0.38664 0.75947 0.10879 0.0
C893 C 0.38086 0.75981 0.10128 0.0
C894 C 0.39436 0.77289 0.10353 0.0
C895 C 0.39354 0.76591 0.10988 0.0
C896 C 0.38858 0.77323 0.09602 0.0
C897 C 0.36076 0.76493 0.05387 0.0
C898 C 0.37208 0.76643 0.04202 0.0
C899 C 0.35636 0.7698 0.03883 0.0
C900 C 0.35413 0.76795 0.0478 0.0
C901 C 0.36526 0.76868 0.03579 0.0
C902 C 0.36984 0.76454 0.05102 0.0
C903 C 0.35776 0.76081 0.06244 0.0
O904 O 0.35951 0.74528 0.0854 0.0
O905 O 0.35075 0.75672 0.08889 0.0
O906 O 0.35483 0.76621 0.06885 0.0
O907 O 0.36261 0.75401 0.06547 0.0
H908 H 0.33857 0.74936 0.07669 0.0
H909 H 0.32565 0.73903 0.07456 0.0
H910 H 0.33498 0.72289 0.09693 0.0
H911 H 0.34776 0.73323 0.09915 0.0
H912 H 0.38594 0.75401 0.11359 0.0
H913 H 0.37577 0.75462 0.10043 0.0
H914 H 0.39966 0.77789 0.10423 0.0
H915 H 0.38952 0.77851 0.09105 0.0
H916 H 0.37898 0.76548 0.03977 0.0
H917 H 0.35102 0.7715 0.0341 0.0
H918 H 0.3471 0.76828 0.04984 0.0
H919 H 0.37508 0.76222 0.05558 0.0
C920 C 0.68873 0.2876 0.08656 0.0
C921 C 0.68982 0.29266 0.07858 0.0
C922 C 0.70353 0.29953 0.08459 0.0
C923 C 0.69715 0.29859 0.07761 0.0
C924 C 0.70273 0.29412 0.09232 0.0
C925 C 0.6954 0.28821 0.09329 0.0
U926 U 0.66913 0.27209 0.07916 0.0
O927 O 0.66188 0.26138 0.08657 0.0
O928 O 0.65451 0.27333 0.08177 0.0
C929 C 0.65414 0.26577 0.08639 0.0
C930 C 0.68037 0.28236 0.08835 0.0
C931 C 0.64856 0.26593 0.09473 0.0
C932 C 0.64646 0.26414 0.111 0.0
C933 C 0.65217 0.26443 0.10341 0.0
C934 C 0.6335 0.26685 0.10138 0.0
C935 C 0.63706 0.26532 0.11002 0.0
C936 C 0.63918 0.26716 0.09383 0.0
C937 C 0.6698 0.26497 0.05349 0.0
C938 C 0.6588 0.26438 0.04122 0.0
C939 C 0.67425 0.2596 0.03861 0.0
C940 C 0.67632 0.2613 0.04767 0.0
C941 C 0.6656 0.26152 0.03522 0.0
C942 C 0.6609 0.26615 0.0503 0.0
C943 C 0.67295 0.26902 0.06208 0.0
O944 O 0.67295 0.28539 0.0845 0.0
O945 O 0.68104 0.2735 0.08811 0.0
O946 O 0.67553 0.26359 0.06862 0.0
O947 O 0.6686 0.27622 0.06495 0.0
H948 H 0.68482 0.29229 0.07324 0.0
H949 H 0.69763 0.30273 0.07161 0.0
H950 H 0.70757 0.29476 0.09778 0.0
H951 H 0.69473 0.28438 0.09949 0.0
H952 H 0.64934 0.26292 0.11762 0.0
H953 H 0.65937 0.2634 0.10431 0.0
H954 H 0.62629 0.26777 0.10046 0.0
H955 H 0.6362 0.26825 0.08723 0.0
H956 H 0.65209 0.26592 0.03871 0.0
H957 H 0.67957 0.25741 0.03409 0.0
H958 H 0.68322 0.26036 0.04995 0.0
H959 H 0.65574 0.26898 0.05465 0.0
C960 C 0.94391 0.73943 0.68556 0.0
C961 C 0.95196 0.73967 0.69061 0.0
C962 C 0.94584 0.72861 0.70115 0.0
C963 C 0.95292 0.73431 0.69838 0.0
C964 C 0.93775 0.72852 0.69618 0.0
C965 C 0.9368 0.73388 0.68846 0.0
U966 U 0.95332 0.75443 0.6666 0.0
O967 O 0.95108 0.75354 0.6519 0.0
O968 O 0.94708 0.76577 0.65925 0.0
C969 C 0.94711 0.76148 0.65147 0.0
C970 C 0.94288 0.7446 0.67708 0.0
C971 C 0.93874 0.76206 0.646 0.0
C972 C 0.9225 0.76012 0.64388 0.0
C973 C 0.93037 0.75896 0.64912 0.0
C974 C 0.93138 0.76694 0.63214 0.0
C975 C 0.92266 0.76493 0.63557 0.0
C976 C 0.9392 0.76577 0.63734 0.0
C977 C 0.97901 0.76084 0.66911 0.0
C978 C 0.98992 0.76613 0.65798 0.0
C979 C 0.99451 0.76405 0.67355 0.0
C980 C 0.98573 0.7614 0.67577 0.0
C981 C 0.99675 0.76621 0.66461 0.0
C982 C 0.98109 0.76341 0.66021 0.0
C983 C 0.97025 0.75677 0.67162 0.0
O984 O 0.94349 0.75343 0.67774 0.0
O985 O 0.94724 0.74133 0.67008 0.0
O986 O 0.96749 0.74989 0.66673 0.0
O987 O 0.96368 0.76227 0.67398 0.0
H988 H 0.95754 0.7439 0.68847 0.0
H989 H 0.95921 0.73447 0.70212 0.0
H990 H 0.93223 0.72418 0.6982 0.0
H991 H 0.93054 0.73359 0.68465 0.0
H992 H 0.91649 0.75698 0.64646 0.0
H993 H 0.92992 0.75559 0.6556 0.0
H994 H 0.93231 0.76945 0.62536 0.0
H995 H 0.94567 0.76779 0.63456 0.0
H996 H 0.99153 0.76777 0.65104 0.0
H997 H 0.99967 0.76406 0.67875 0.0
H998 H 0.98428 0.75944 0.68266 0.0
H999 H 0.97599 0.76303 0.65496 0.0
C1000 C 0.29147 0.94308 0.6861 0.0
C1001 C 0.29076 0.95088 0.69149 0.0
C1002 C 0.30258 0.94521 0.70149 0.0
C1003 C 0.29626 0.95192 0.69916 0.0
C1004 C 0.30321 0.93741 0.69613 0.0
C1005 C 0.29771 0.93636 0.68851 0.0
U1006 U 0.27635 0.952 0.66686 0.0
O1007 O 0.27675 0.94888 0.65237 0.0
O1008 O 0.26459 0.94561 0.66018 0.0
C1009 C 0.26878 0.94495 0.65238 0.0
C1010 C 0.28598 0.94185 0.67785 0.0
C1011 C 0.26804 0.93622 0.64751 0.0
C1012 C 0.27497 0.92325 0.64004 0.0
C1013 C 0.27566 0.93077 0.64577 0.0
C1014 C 0.25899 0.92621 0.63806 0.0
C1015 C 0.26667 0.92103 0.63598 0.0
C1016 C 0.25968 0.93374 0.64375 0.0
C1017 C 0.27126 0.97809 0.66694 0.0
C1018 C 0.25917 0.98936 0.66655 0.0
C1019 C 0.27449 0.99367 0.66275 0.0
C1020 C 0.27736 0.98478 0.66408 0.0
C1021 C 0.26545 0.99609 0.66427 0.0
C1022 C 0.26206 0.98041 0.66789 0.0
C1023 C 0.27493 0.96938 0.67033 0.0
O1024 O 0.2772 0.94302 0.67869 0.0
O1025 O 0.28926 0.94552 0.67048 0.0
O1026 O 0.2817 0.96582 0.66582 0.0
O1027 O 0.26922 0.96332 0.67343 0.0
H1028 H 0.286 0.95617 0.68973 0.0
H1029 H 0.29568 0.95799 0.70321 0.0
H1030 H 0.30803 0.93215 0.69781 0.0
H1031 H 0.29837 0.93031 0.68444 0.0
H1032 H 0.28098 0.91935 0.6385 0.0
H1033 H 0.2822 0.93251 0.64857 0.0
H1034 H 0.25253 0.92463 0.63498 0.0
H1035 H 0.25372 0.93784 0.64496 0.0
H1036 H 0.25219 0.99113 0.66784 0.0
H1037 H 0.27944 0.99879 0.66109 0.0
H1038 H 0.2845 0.98326 0.66341 0.0
H1039 H 0.25718 0.97546 0.67015 0.0
C1040 C 0.0874 0.28955 0.68655 0.0
C1041 C 0.07944 0.29453 0.6881 0.0
C1042 C 0.08599 0.30102 0.70174 0.0
C1043 C 0.07876 0.30026 0.69562 0.0
C1044 C 0.09378 0.29576 0.7004 0.0
C1045 C 0.09448 0.29009 0.69285 0.0
U1046 U 0.07819 0.27509 0.66708 0.0
O1047 O 0.08107 0.27578 0.65253 0.0
O1048 O 0.08417 0.26337 0.66001 0.0
C1049 C 0.08469 0.26767 0.65226 0.0
C1050 C 0.08865 0.28421 0.67819 0.0
C1051 C 0.09328 0.26686 0.64723 0.0
C1052 C 0.10869 0.2717 0.64395 0.0
C1053 C 0.1009 0.27213 0.64936 0.0
C1054 C 0.10139 0.26062 0.63435 0.0
C1055 C 0.10893 0.26605 0.6363 0.0
C1056 C 0.09365 0.26103 0.63977 0.0
C1057 C 0.05198 0.27072 0.66788 0.0
C1058 C 0.0419 0.25884 0.66247 0.0
C1059 C 0.03572 0.27315 0.66748 0.0
C1060 C 0.04443 0.27628 0.66931 0.0
C1061 C 0.03435 0.26438 0.66418 0.0
C1062 C 0.05068 0.26199 0.66432 0.0
C1063 C 0.06088 0.27406 0.67099 0.0
O1064 O 0.08739 0.27545 0.67885 0.0
O1065 O 0.0851 0.28768 0.67082 0.0
O1066 O 0.06443 0.2808 0.66644 0.0
O1067 O 0.06687 0.26808 0.6737 0.0
H1068 H 0.07386 0.29419 0.68337 0.0
H1069 H 0.07271 0.30429 0.69653 0.0
H1070 H 0.09943 0.2963 0.70502 0.0
H1071 H 0.10067 0.2863 0.6918 0.0
H1072 H 0.11444 0.27592 0.64559 0.0
H1073 H 0.10074 0.27669 0.65509 0.0
H1074 H 0.10143 0.25621 0.62852 0.0
H1075 H 0.08786 0.25691 0.638 0.0
H1076 H 0.04096 0.25204 0.65993 0.0
H1077 H 0.02999 0.2775 0.66887 0.0
H1078 H 0.04525 0.28299 0.67212 0.0
H1079 H 0.0564 0.25756 0.66317 0.0
C1080 C 0.74113 0.08662 0.68611 0.0
C1081 C 0.73501 0.0794 0.68706 0.0
C1082 C 0.72992 0.08536 0.70151 0.0
C1083 C 0.72942 0.07881 0.69467 0.0
C1084 C 0.73631 0.09233 0.70079 0.0
C1085 C 0.74184 0.09297 0.69314 0.0
U1086 U 0.75574 0.07776 0.6666 0.0
O1087 O 0.7546 0.08025 0.65196 0.0
O1088 O 0.76699 0.08408 0.65917 0.0
C1089 C 0.76248 0.0843 0.6515 0.0
C1090 C 0.74633 0.08798 0.67766 0.0
C1091 C 0.76278 0.09279 0.64618 0.0
C1092 C 0.76475 0.10912 0.64478 0.0
C1093 C 0.76407 0.10133 0.65018 0.0
C1094 C 0.7627 0.09998 0.63137 0.0
C1095 C 0.76409 0.10849 0.63532 0.0
C1096 C 0.76206 0.09223 0.63674 0.0
C1097 C 0.76084 0.05161 0.66836 0.0
C1098 C 0.77093 0.04151 0.66011 0.0
C1099 C 0.75984 0.03536 0.67043 0.0
C1100 C 0.75687 0.04407 0.67247 0.0
C1101 C 0.76687 0.03398 0.66425 0.0
C1102 C 0.76791 0.05031 0.66214 0.0
C1103 C 0.75743 0.06061 0.671 0.0
O1104 O 0.75516 0.08712 0.67823 0.0
O1105 O 0.74293 0.08426 0.67035 0.0
O1106 O 0.75054 0.06382 0.6664 0.0
O1107 O 0.76337 0.06682 0.67327 0.0
H1108 H 0.73435 0.07435 0.6818 0.0
H1109 H 0.72452 0.07339 0.6951 0.0
H1110 H 0.73676 0.09746 0.70598 0.0
H1111 H 0.7465 0.09858 0.69258 0.0
H1112 H 0.76586 0.11561 0.64796 0.0
H1113 H 0.76465 0.10197 0.65744 0.0
H1114 H 0.76222 0.09932 0.6241 0.0
H1115 H 0.76111 0.08573 0.63349 0.0
H1116 H 0.77638 0.04057 0.65532 0.0
H1117 H 0.75666 0.02966 0.67372 0.0
H1118 H 0.75145 0.04493 0.67731 0.0
H1119 H 0.77107 0.05605 0.65891 0.0
C1120 C 0.9446 0.29076 0.34382 0.0
C1121 C 0.95169 0.29702 0.34281 0.0
C1122 C 0.94571 0.30172 0.32822 0.0
C1123 C 0.9522 0.30248 0.3351 0.0
C1124 C 0.93888 0.29518 0.32901 0.0
C1125 C 0.93831 0.28977 0.33676 0.0
U1126 U 0.95371 0.27633 0.36337 0.0
O1127 O 0.9512 0.27742 0.378 0.0
O1128 O 0.94769 0.26494 0.37082 0.0
C1129 C 0.94753 0.26936 0.37852 0.0
C1130 C 0.94332 0.28564 0.35235 0.0
C1131 C 0.93919 0.26856 0.38399 0.0
C1132 C 0.923 0.27054 0.38636 0.0
C1133 C 0.93079 0.2718 0.38105 0.0
C1134 C 0.93202 0.26336 0.3978 0.0
C1135 C 0.92326 0.2655 0.39453 0.0
C1136 C 0.93977 0.26461 0.39253 0.0
C1137 C 0.97975 0.27101 0.36131 0.0
C1138 C 0.98981 0.2618 0.37058 0.0
C1139 C 0.99593 0.27093 0.35848 0.0
C1140 C 0.98725 0.27394 0.35634 0.0
C1141 C 0.99732 0.26491 0.36564 0.0
C1142 C 0.98105 0.26487 0.36845 0.0
C1143 C 0.9708 0.2746 0.35873 0.0
O1144 O 0.94417 0.27681 0.35185 0.0
O1145 O 0.94712 0.28909 0.3596 0.0
O1146 O 0.96769 0.28145 0.36345 0.0
O1147 O 0.96452 0.26875 0.35645 0.0
H1148 H 0.95669 0.29789 0.34809 0.0
H1149 H 0.95751 0.3075 0.33462 0.0
H1150 H 0.93379 0.29452 0.32378 0.0
H1151 H 0.9328 0.285 0.33735 0.0
H1152 H 0.91694 0.2738 0.38399 0.0
H1153 H 0.93026 0.27539 0.3747 0.0
H1154 H 0.9331 0.26078 0.40453 0.0
H1155 H 0.94627 0.26251 0.39519 0.0
H1156 H 0.99076 0.25713 0.37612 0.0
H1157 H 1.00161 0.27337 0.35456 0.0
H1158 H 0.98638 0.27863 0.35078 0.0
H1159 H 0.97534 0.26252 0.37235 0.0
C1160 C 0.74042 0.9444 0.34382 0.0
C1161 C 0.73425 0.95156 0.3427 0.0
C1162 C 0.72939 0.9454 0.32824 0.0
C1163 C 0.72875 0.95202 0.335 0.0
C1164 C 0.73585 0.93849 0.32913 0.0
C1165 C 0.74129 0.93798 0.33688 0.0
U1166 U 0.75468 0.95359 0.36349 0.0
O1167 O 0.75351 0.95096 0.3781 0.0
O1168 O 0.76608 0.94761 0.37101 0.0
C1169 C 0.76158 0.94729 0.37865 0.0
C1170 C 0.74553 0.94318 0.35237 0.0
C1171 C 0.76231 0.9388 0.38389 0.0
C1172 C 0.76044 0.92253 0.3856 0.0
C1173 C 0.75921 0.9305 0.38057 0.0
C1174 C 0.76734 0.93117 0.39752 0.0
C1175 C 0.76531 0.92253 0.3939 0.0
C1176 C 0.76609 0.93909 0.39253 0.0
C1177 C 0.75982 0.97966 0.36167 0.0
C1178 C 0.77015 0.98956 0.36987 0.0
C1179 C 0.75908 0.99592 0.3596 0.0
C1180 C 0.75594 0.98727 0.35758 0.0
C1181 C 0.76618 0.99717 0.36574 0.0
C1182 C 0.76697 0.98083 0.36785 0.0
C1183 C 0.75631 0.97071 0.35899 0.0
O1184 O 0.75436 0.94412 0.35193 0.0
O1185 O 0.742 0.94693 0.3596 0.0
O1186 O 0.74943 0.96753 0.3636 0.0
O1187 O 0.76222 0.96447 0.35672 0.0
H1188 H 0.73347 0.95666 0.34789 0.0
H1189 H 0.7238 0.95739 0.33443 0.0
H1190 H 0.73641 0.9333 0.324 0.0
H1191 H 0.746 0.93241 0.33757 0.0
H1192 H 0.7573 0.91658 0.38288 0.0
H1193 H 0.75578 0.93018 0.3741 0.0
H1194 H 0.76993 0.93195 0.4043 0.0
H1195 H 0.76812 0.94549 0.39545 0.0
H1196 H 0.77566 0.9904 0.37462 0.0
H1197 H 0.75597 1.00169 0.35632 0.0
H1198 H 0.75048 0.98652 0.35276 0.0
H1199 H 0.77008 0.97503 0.37105 0.0
C1200 C 0.08743 0.73983 0.34411 0.0
C1201 C 0.07892 0.73857 0.34006 0.0
C1202 C 0.08566 0.72879 0.32863 0.0
C1203 C 0.07805 0.7331 0.33235 0.0
C1204 C 0.09418 0.73028 0.33255 0.0
C1205 C 0.09506 0.73575 0.34022 0.0
U1206 U 0.07774 0.75426 0.36337 0.0
O1207 O 0.08012 0.75321 0.37804 0.0
O1208 O 0.08364 0.76568 0.37089 0.0
C1209 C 0.08383 0.76126 0.37859 0.0
C1210 C 0.08844 0.74493 0.35264 0.0
C1211 C 0.09224 0.76198 0.38397 0.0
C1212 C 0.10851 0.76015 0.38596 0.0
C1213 C 0.10061 0.7589 0.38079 0.0
C1214 C 0.09967 0.76702 0.39773 0.0
C1215 C 0.10838 0.76503 0.39424 0.0
C1216 C 0.09182 0.76576 0.3926 0.0
C1217 C 0.05177 0.75969 0.36102 0.0
C1218 C 0.04166 0.76843 0.37067 0.0
C1219 C 0.03563 0.76015 0.35789 0.0
C1220 C 0.04432 0.75719 0.35571 0.0
C1221 C 0.03419 0.7657 0.36542 0.0
C1222 C 0.05042 0.76539 0.3685 0.0
C1223 C 0.0607 0.75604 0.35849 0.0
O1224 O 0.08749 0.75375 0.35211 0.0
O1225 O 0.0843 0.74144 0.35966 0.0
O1226 O 0.06374 0.74919 0.36325 0.0
O1227 O 0.06704 0.76184 0.35626 0.0
H1228 H 0.07295 0.74166 0.34296 0.0
H1229 H 0.07141 0.73203 0.32944 0.0
H1230 H 0.10013 0.72702 0.32979 0.0
H1231 H 0.10167 0.73663 0.34325 0.0
H1232 H 0.11452 0.75701 0.38336 0.0
H1233 H 0.10103 0.75547 0.37434 0.0
H1234 H 0.09877 0.76957 0.40451 0.0
H1235 H 0.08536 0.76777 0.39542 0.0
H1236 H 0.04067 0.77274 0.3765 0.0
H1237 H 0.02999 0.75801 0.35374 0.0
H1238 H 0.04522 0.75284 0.34989 0.0
H1239 H 0.05609 0.76742 0.37267 0.0
C1240 C 0.29128 0.0868 0.3439 0.0
C1241 C 0.29069 0.07906 0.33842 0.0
C1242 C 0.30239 0.08503 0.32849 0.0
C1243 C 0.29619 0.07819 0.33074 0.0
C1244 C 0.30287 0.09279 0.33392 0.0
C1245 C 0.29737 0.09366 0.34155 0.0
U1246 U 0.27627 0.07715 0.36275 0.0
O1247 O 0.27703 0.07949 0.37744 0.0
O1248 O 0.26478 0.08329 0.36997 0.0
C1249 C 0.2691 0.08349 0.37775 0.0
C1250 C 0.2859 0.08775 0.35224 0.0
C1251 C 0.26862 0.09196 0.38307 0.0
C1252 C 0.26695 0.10833 0.38438 0.0
C1253 C 0.26782 0.10053 0.37902 0.0
C1254 C 0.26784 0.09914 0.39786 0.0
C1255 C 0.26686 0.10768 0.39386 0.0
C1256 C 0.2687 0.09138 0.39253 0.0
C1257 C 0.27115 0.05112 0.36076 0.0
C1258 C 0.26108 0.04123 0.36925 0.0
C1259 C 0.27191 0.03484 0.35877 0.0
C1260 C 0.27495 0.04349 0.35662 0.0
C1261 C 0.26499 0.03361 0.3651 0.0
C1262 C 0.26418 0.04997 0.3671 0.0
C1263 C 0.2747 0.06005 0.3581 0.0
O1264 O 0.2771 0.08677 0.35143 0.0
O1265 O 0.28921 0.08364 0.35937 0.0
O1266 O 0.2815 0.06321 0.36287 0.0
O1267 O 0.26886 0.06631 0.35571 0.0
H1268 H 0.28605 0.07366 0.34013 0.0
H1269 H 0.29571 0.07215 0.32663 0.0
H1270 H 0.3076 0.09813 0.33231 0.0
H1271 H 0.29795 0.09967 0.3457 0.0
H1272 H 0.26621 0.11485 0.38114 0.0
H1273 H 0.26777 0.10118 0.37174 0.0
H1274 H 0.26784 0.09847 0.40515 0.0
H1275 H 0.26931 0.08487 0.39581 0.0
H1276 H 0.25571 0.04041 0.37414 0.0
H1277 H 0.27497 0.02906 0.35547 0.0
H1278 H 0.2803 0.04422 0.35169 0.0
H1279 H 0.26115 0.05578 0.37037 0.0
C1280 C 0.6871 0.94388 0.74064 0.0
C1281 C 0.68782 0.95102 0.7344 0.0
C1282 C 0.70227 0.94517 0.72911 0.0
C1283 C 0.69532 0.95162 0.72866 0.0
C1284 C 0.70174 0.93826 0.73558 0.0
C1285 C 0.69421 0.93761 0.74127 0.0
U1286 U 0.66805 0.95276 0.75595 0.0
O1287 O 0.65345 0.95006 0.7557 0.0
O1288 O 0.66136 0.94641 0.76768 0.0
C1289 C 0.65346 0.94605 0.76362 0.0
C1290 C 0.67883 0.94256 0.74616 0.0
C1291 C 0.64844 0.93739 0.76414 0.0
C1292 C 0.64328 0.92332 0.75732 0.0
C1293 C 0.64894 0.93092 0.7572 0.0
C1294 C 0.63682 0.92831 0.77148 0.0
C1295 C 0.63705 0.92203 0.76437 0.0
C1296 C 0.64247 0.93591 0.77136 0.0
C1297 C 0.66976 0.97894 0.76075 0.0
C1298 C 0.65965 0.98929 0.76864 0.0
C1299 C 0.673 0.99503 0.76112 0.0
C1300 C 0.67529 0.98627 0.75848 0.0
C1301 C 0.66513 0.99665 0.76612 0.0
C1302 C 0.66193 0.98046 0.76591 0.0
C1303 C 0.67233 0.96997 0.75724 0.0
O1304 O 0.67975 0.9435 0.75494 0.0
O1305 O 0.67135 0.94622 0.74304 0.0
O1306 O 0.66734 0.96665 0.75069 0.0
O1307 O 0.67504 0.96385 0.76308 0.0
H1308 H 0.68248 0.956 0.7338 0.0
H1309 H 0.6956 0.95699 0.7237 0.0
H1310 H 0.70702 0.93319 0.736 0.0
H1311 H 0.69382 0.93206 0.74602 0.0
H1312 H 0.64354 0.91858 0.75174 0.0
H1313 H 0.65348 0.9319 0.75156 0.0
H1314 H 0.63204 0.92747 0.77696 0.0
H1315 H 0.64196 0.94082 0.77678 0.0
H1316 H 0.65356 0.99042 0.77253 0.0
H1317 H 0.67733 1.00059 0.75915 0.0
H1318 H 0.68136 0.98524 0.75451 0.0
H1319 H 0.65757 0.97488 0.76772 0.0
C1320 C 0.08721 0.68632 0.73968 0.0
C1321 C 0.07914 0.68815 0.73496 0.0
C1322 C 0.08577 0.70177 0.72857 0.0
C1323 C 0.07845 0.6958 0.72942 0.0
C1324 C 0.09367 0.70017 0.73358 0.0
C1325 C 0.09439 0.69249 0.73907 0.0
U1326 U 0.0784 0.66694 0.75452 0.0
O1327 O 0.08076 0.65226 0.75335 0.0
O1328 O 0.08488 0.65946 0.76564 0.0
C1329 C 0.08477 0.65173 0.76126 0.0
C1330 C 0.0885 0.67778 0.74474 0.0
C1331 C 0.09308 0.64618 0.76176 0.0
C1332 C 0.10931 0.64394 0.75995 0.0
C1333 C 0.1015 0.64927 0.75878 0.0
C1334 C 0.10025 0.63218 0.76649 0.0
C1335 C 0.10902 0.63557 0.76466 0.0
C1336 C 0.09249 0.63746 0.76531 0.0
C1337 C 0.05286 0.66862 0.76146 0.0
C1338 C 0.04043 0.65788 0.76266 0.0
C1339 C 0.03847 0.67323 0.76799 0.0
C1340 C 0.04742 0.67518 0.76564 0.0
C1341 C 0.03481 0.66468 0.76619 0.0
C1342 C 0.04941 0.65984 0.7603 0.0
C1343 C 0.06144 0.67155 0.75725 0.0
O1344 O 0.08804 0.67831 0.75359 0.0
O1345 O 0.08434 0.67065 0.74145 0.0
O1346 O 0.06421 0.66702 0.75013 0.0
O1347 O 0.06806 0.674 0.76266 0.0
H1348 H 0.07348 0.68354 0.73535 0.0
H1349 H 0.07231 0.69692 0.72558 0.0
H1350 H 0.09941 0.70467 0.73297 0.0
H1351 H 0.10067 0.69123 0.74264 0.0
H1352 H 0.11538 0.64648 0.75689 0.0
H1353 H 0.10205 0.65579 0.75551 0.0
H1354 H 0.09922 0.62535 0.76885 0.0
H1355 H 0.08598 0.63471 0.76723 0.0
H1356 H 0.0377 0.65125 0.76119 0.0
H1357 H 0.03423 0.67858 0.77065 0.0
H1358 H 0.04991 0.682 0.76657 0.0
H1359 H 0.05346 0.65464 0.75711 0.0
C1360 C 0.34475 0.08669 0.7409 0.0
C1361 C 0.34396 0.07953 0.73468 0.0
C1362 C 0.3295 0.08543 0.72941 0.0
C1363 C 0.33642 0.07894 0.72895 0.0
C1364 C 0.33009 0.09235 0.73587 0.0
C1365 C 0.33767 0.093 0.74154 0.0
U1366 U 0.36387 0.07773 0.75608 0.0
O1367 O 0.37849 0.08039 0.75576 0.0
O1368 O 0.37068 0.08401 0.76781 0.0
C1369 C 0.37856 0.08435 0.76372 0.0
C1370 C 0.35306 0.088 0.74638 0.0
C1371 C 0.38359 0.09299 0.76426 0.0
C1372 C 0.38777 0.10763 0.75802 0.0
C1373 C 0.38224 0.09992 0.75792 0.0
C1374 C 0.39584 0.10175 0.77098 0.0
C1375 C 0.39471 0.10854 0.76447 0.0
C1376 C 0.39032 0.09405 0.77088 0.0
C1377 C 0.362 0.05155 0.76081 0.0
C1378 C 0.37202 0.04111 0.76871 0.0
C1379 C 0.35861 0.0355 0.76116 0.0
C1380 C 0.3564 0.04427 0.75852 0.0
C1381 C 0.36647 0.03381 0.76617 0.0
C1382 C 0.36982 0.04996 0.76599 0.0
C1383 C 0.35949 0.06055 0.75734 0.0
O1384 O 0.35221 0.08705 0.75516 0.0
O1385 O 0.36051 0.08432 0.74321 0.0
O1386 O 0.36447 0.06385 0.75079 0.0
O1387 O 0.35687 0.06668 0.7632 0.0
H1388 H 0.34927 0.07453 0.73407 0.0
H1389 H 0.3361 0.07356 0.724 0.0
H1390 H 0.32484 0.09744 0.73629 0.0
H1391 H 0.3381 0.09856 0.74627 0.0
H1392 H 0.38681 0.11277 0.75291 0.0
H1393 H 0.3771 0.09925 0.75274 0.0
H1394 H 0.40117 0.1023 0.77598 0.0
H1395 H 0.39149 0.08878 0.77582 0.0
H1396 H 0.37811 0.03993 0.77261 0.0
H1397 H 0.35422 0.02998 0.75917 0.0
H1398 H 0.35033 0.04536 0.75454 0.0
H1399 H 0.37424 0.0555 0.76782 0.0
C1400 C 0.94437 0.34417 0.73956 0.0
C1401 C 0.95227 0.34247 0.73455 0.0
C1402 C 0.94572 0.32862 0.72854 0.0
C1403 C 0.95292 0.33478 0.72905 0.0
C1404 C 0.938 0.33009 0.73386 0.0
C1405 C 0.93733 0.33781 0.73931 0.0
U1406 U 0.95342 0.36409 0.75354 0.0
O1407 O 0.95057 0.37866 0.75225 0.0
O1408 O 0.94742 0.37163 0.76489 0.0
C1409 C 0.94702 0.37926 0.76035 0.0
C1410 C 0.94308 0.35275 0.74456 0.0
C1411 C 0.93858 0.38457 0.7612 0.0
C1412 C 0.92231 0.38656 0.75942 0.0
C1413 C 0.93021 0.38141 0.7581 0.0
C1414 C 0.93115 0.39826 0.76643 0.0
C1415 C 0.92245 0.3948 0.76439 0.0
C1416 C 0.939 0.39316 0.76509 0.0
C1417 C 0.97949 0.36311 0.75886 0.0
C1418 C 0.98966 0.36672 0.77136 0.0
C1419 C 0.99569 0.36442 0.75634 0.0
C1420 C 0.98698 0.36292 0.75304 0.0
C1421 C 0.99714 0.36612 0.76554 0.0
C1422 C 0.98088 0.36518 0.76805 0.0
C1423 C 0.97066 0.36 0.75526 0.0
O1424 O 0.94411 0.35241 0.75337 0.0
O1425 O 0.94679 0.35995 0.74092 0.0
O1426 O 0.96736 0.36438 0.74827 0.0
O1427 O 0.96444 0.35748 0.76107 0.0
H1428 H 0.95783 0.34723 0.73467 0.0
H1429 H 0.95891 0.33377 0.72497 0.0
H1430 H 0.93236 0.32544 0.73352 0.0
H1431 H 0.93118 0.33896 0.74311 0.0
H1432 H 0.9163 0.38398 0.75627 0.0
H1433 H 0.92979 0.375 0.75459 0.0
H1434 H 0.93205 0.405 0.76907 0.0
H1435 H 0.94546 0.39596 0.76712 0.0
H1436 H 0.99065 0.36802 0.77849 0.0
H1437 H 1.00138 0.36392 0.75176 0.0
H1438 H 0.98612 0.36126 0.74597 0.0
H1439 H 0.97524 0.36533 0.7727 0.0
C1440 C 0.68636 0.08726 0.29002 0.0
C1441 C 0.69183 0.07951 0.28941 0.0
C1442 C 0.70169 0.08533 0.30128 0.0
C1443 C 0.69947 0.07856 0.29498 0.0
C1444 C 0.69624 0.09308 0.30182 0.0
C1445 C 0.68865 0.09404 0.29625 0.0
U1446 U 0.66778 0.07789 0.27444 0.0
O1447 O 0.65312 0.08041 0.27449 0.0
O1448 O 0.66111 0.08411 0.26261 0.0
C1449 C 0.65315 0.08437 0.26655 0.0
C1450 C 0.67814 0.08837 0.28443 0.0
C1451 C 0.64806 0.09297 0.26593 0.0
C1452 C 0.64418 0.10789 0.27173 0.0
C1453 C 0.64968 0.10015 0.27193 0.0
C1454 C 0.63556 0.10152 0.25937 0.0
C1455 C 0.63699 0.10858 0.26554 0.0
C1456 C 0.64105 0.09379 0.25956 0.0
C1457 C 0.66989 0.05182 0.26947 0.0
C1458 C 0.65982 0.04152 0.26146 0.0
C1459 C 0.67321 0.03575 0.26894 0.0
C1460 C 0.67547 0.04448 0.27167 0.0
C1461 C 0.66532 0.03415 0.26393 0.0
C1462 C 0.66206 0.05033 0.26427 0.0
C1463 C 0.67238 0.06076 0.27311 0.0
O1464 O 0.67917 0.08741 0.27566 0.0
O1465 O 0.67084 0.08437 0.28749 0.0
O1466 O 0.66727 0.06398 0.27961 0.0
O1467 O 0.67508 0.06696 0.26738 0.0
H1468 H 0.69016 0.07419 0.28467 0.0
H1469 H 0.70359 0.07253 0.29446 0.0
H1470 H 0.69784 0.09837 0.30663 0.0
H1471 H 0.68452 0.10005 0.29685 0.0
H1472 H 0.64538 0.11325 0.27658 0.0
H1473 H 0.65504 0.09967 0.27691 0.0
H1474 H 0.63004 0.10189 0.25457 0.0
H1475 H 0.63967 0.08833 0.25488 0.0
H1476 H 0.65372 0.04041 0.25756 0.0
H1477 H 0.67756 0.03018 0.27087 0.0
H1478 H 0.68153 0.04549 0.27566 0.0
H1479 H 0.65767 0.05591 0.26252 0.0
C1480 C 0.9443 0.68607 0.29106 0.0
C1481 C 0.95023 0.69307 0.28858 0.0
C1482 C 0.94611 0.70157 0.30207 0.0
C1483 C 0.95109 0.70079 0.29403 0.0
C1484 C 0.94025 0.69455 0.30455 0.0
C1485 C 0.93935 0.68688 0.29909 0.0
U1486 U 0.95307 0.66758 0.27494 0.0
O1487 O 0.95044 0.65296 0.27496 0.0
O1488 O 0.94633 0.66109 0.26328 0.0
C1489 C 0.94611 0.65313 0.2672 0.0
C1490 C 0.94308 0.67789 0.28543 0.0
C1491 C 0.93746 0.64806 0.2667 0.0
C1492 C 0.92475 0.64041 0.2739 0.0
C1493 C 0.93226 0.6462 0.27444 0.0
C1494 C 0.92727 0.63858 0.25786 0.0
C1495 C 0.92231 0.63641 0.26564 0.0
C1496 C 0.93477 0.64433 0.2584 0.0
C1497 C 0.97888 0.66941 0.26867 0.0
C1498 C 0.99013 0.65813 0.26444 0.0
C1499 C 0.99426 0.67394 0.26506 0.0
C1500 C 0.9854 0.67617 0.26747 0.0
C1501 C 0.99678 0.6649 0.26379 0.0
C1502 C 0.98123 0.66037 0.26692 0.0
C1503 C 0.97017 0.67202 0.27281 0.0
O1504 O 0.94362 0.67896 0.27663 0.0
O1505 O 0.94722 0.67057 0.28829 0.0
O1506 O 0.96722 0.66692 0.27944 0.0
O1507 O 0.9637 0.67491 0.26745 0.0
H1508 H 0.95416 0.69258 0.28243 0.0
H1509 H 0.95563 0.70615 0.29199 0.0
H1510 H 0.93632 0.69504 0.3107 0.0
H1511 H 0.93474 0.68158 0.30113 0.0
H1512 H 0.92103 0.63881 0.27999 0.0
H1513 H 0.93415 0.64898 0.28094 0.0
H1514 H 0.92552 0.63555 0.25143 0.0
H1515 H 0.93867 0.64563 0.25235 0.0
H1516 H 0.99195 0.6511 0.26349 0.0
H1517 H 0.99927 0.67926 0.2646 0.0
H1518 H 0.98376 0.68318 0.26882 0.0
H1519 H 0.97631 0.65503 0.26783 0.0
C1520 C 0.34467 0.94368 0.29071 0.0
C1521 C 0.33917 0.95141 0.29006 0.0
C1522 C 0.32934 0.94558 0.3019 0.0
C1523 C 0.33153 0.95234 0.29561 0.0
C1524 C 0.33482 0.93785 0.30248 0.0
C1525 C 0.34242 0.93692 0.29694 0.0
U1526 U 0.36326 0.95259 0.27481 0.0
O1527 O 0.37787 0.94989 0.27499 0.0
O1528 O 0.36981 0.94587 0.2632 0.0
C1529 C 0.37775 0.9456 0.26721 0.0
C1530 C 0.35286 0.94254 0.28513 0.0
C1531 C 0.38279 0.93695 0.26674 0.0
C1532 C 0.39061 0.92435 0.27397 0.0
C1533 C 0.38484 0.93186 0.27451 0.0
C1534 C 0.39205 0.92661 0.25784 0.0
C1535 C 0.3944 0.92178 0.26566 0.0
C1536 C 0.38631 0.93413 0.25839 0.0
C1537 C 0.36222 0.97826 0.26831 0.0
C1538 C 0.37269 0.99097 0.26783 0.0
C1539 C 0.35781 0.99239 0.26113 0.0
C1540 C 0.3559 0.98344 0.26347 0.0
C1541 C 0.36607 0.99633 0.26361 0.0
C1542 C 0.37078 0.98199 0.27016 0.0
C1543 C 0.35914 0.96973 0.27256 0.0
O1544 O 0.35177 0.94324 0.27635 0.0
O1545 O 0.36015 0.94667 0.28809 0.0
O1546 O 0.3639 0.96667 0.27941 0.0
O1547 O 0.35611 0.9633 0.26723 0.0
H1548 H 0.34082 0.95672 0.28531 0.0
H1549 H 0.32738 0.95834 0.29506 0.0
H1550 H 0.33324 0.93257 0.30728 0.0
H1551 H 0.34657 0.93092 0.29755 0.0
H1552 H 0.39236 0.92072 0.28007 0.0
H1553 H 0.38221 0.93386 0.28104 0.0
H1554 H 0.39492 0.92476 0.25138 0.0
H1555 H 0.38486 0.93794 0.25231 0.0
H1556 H 0.37908 0.99391 0.26985 0.0
H1557 H 0.3526 0.99644 0.25794 0.0
H1558 H 0.34924 0.98076 0.262 0.0
H1559 H 0.3758 0.97817 0.27389 0.0
C1560 C 0.08778 0.34455 0.29031 0.0
C1561 C 0.08002 0.33911 0.28954 0.0
C1562 C 0.08579 0.32908 0.30127 0.0
C1563 C 0.07905 0.33139 0.29497 0.0
C1564 C 0.09356 0.33447 0.30193 0.0
C1565 C 0.09454 0.34213 0.2965 0.0
U1566 U 0.07844 0.36383 0.27555 0.0
O1567 O 0.08103 0.37846 0.27653 0.0
O1568 O 0.08472 0.37111 0.26419 0.0
C1569 C 0.08505 0.37881 0.26863 0.0
C1570 C 0.08885 0.35294 0.28502 0.0
C1571 C 0.09358 0.38408 0.26824 0.0
C1572 C 0.10971 0.38557 0.26499 0.0
C1573 C 0.10193 0.38018 0.26582 0.0
C1574 C 0.10096 0.39878 0.26911 0.0
C1575 C 0.10926 0.39494 0.26659 0.0
C1576 C 0.09322 0.39341 0.26991 0.0
C1577 C 0.05233 0.36278 0.27035 0.0
C1578 C 0.04209 0.3667 0.25801 0.0
C1579 C 0.03613 0.36402 0.27299 0.0
C1580 C 0.04487 0.36244 0.2762 0.0
C1581 C 0.03463 0.36597 0.26386 0.0
C1582 C 0.05089 0.36507 0.26123 0.0
C1583 C 0.0612 0.35972 0.27389 0.0
O1584 O 0.08782 0.35226 0.27622 0.0
O1585 O 0.0849 0.36012 0.28842 0.0
O1586 O 0.06452 0.3642 0.2808 0.0
O1587 O 0.06741 0.35713 0.26808 0.0
H1588 H 0.0747 0.34088 0.28483 0.0
H1589 H 0.07301 0.32731 0.29436 0.0
H1590 H 0.09883 0.3328 0.30675 0.0
H1591 H 0.10055 0.34625 0.29722 0.0
H1592 H 0.11604 0.38248 0.263 0.0
H1593 H 0.10243 0.373 0.26447 0.0
H1594 H 0.10045 0.40598 0.27033 0.0
H1595 H 0.08687 0.3966 0.27173 0.0
H1596 H 0.04105 0.3682 0.25093 0.0
H1597 H 0.03048 0.36342 0.2776 0.0
H1598 H 0.04578 0.36062 0.28323 0.0
H1599 H 0.05651 0.36535 0.25656 0.0
C1600 C 0.74033 0.68639 0.94316 0.0
C1601 C 0.74096 0.69184 0.95092 0.0
C1602 C 0.72912 0.70174 0.94507 0.0
C1603 C 0.7354 0.6995 0.95185 0.0
C1604 C 0.72858 0.69631 0.93731 0.0
C1605 C 0.73413 0.68871 0.93637 0.0
U1606 U 0.75558 0.66749 0.9525 0.0
O1607 O 0.75526 0.65291 0.94972 0.0
O1608 O 0.76737 0.66073 0.94628 0.0
C1609 C 0.76323 0.65288 0.94579 0.0
C1610 C 0.74585 0.67814 0.94207 0.0
C1611 C 0.76392 0.64788 0.93712 0.0
C1612 C 0.75711 0.64161 0.92346 0.0
C1613 C 0.75661 0.64731 0.93104 0.0
C1614 C 0.77233 0.6373 0.92771 0.0
C1615 C 0.76492 0.63642 0.92183 0.0
C1616 C 0.77183 0.64297 0.93527 0.0
C1617 C 0.76035 0.6691 0.97868 0.0
C1618 C 0.77052 0.66077 0.98866 0.0
C1619 C 0.75948 0.67109 0.99495 0.0
C1620 C 0.75644 0.67317 0.98628 0.0
C1621 C 0.76652 0.66489 0.99624 0.0
C1622 C 0.76743 0.66285 0.9799 0.0
C1623 C 0.75685 0.67175 0.96972 0.0
O1624 O 0.75463 0.67905 0.94318 0.0
O1625 O 0.74263 0.67084 0.94594 0.0
O1626 O 0.75025 0.66685 0.96637 0.0
O1627 O 0.7627 0.67443 0.96361 0.0
H1628 H 0.74567 0.69015 0.95626 0.0
H1629 H 0.73592 0.7036 0.95788 0.0
H1630 H 0.72379 0.69793 0.93201 0.0
H1631 H 0.73353 0.68458 0.93035 0.0
H1632 H 0.75131 0.64101 0.91903 0.0
H1633 H 0.75043 0.65103 0.9323 0.0
H1634 H 0.77839 0.63334 0.9266 0.0
H1635 H 0.77753 0.64328 0.93986 0.0
H1636 H 0.77598 0.65596 0.98953 0.0
H1637 H 0.75633 0.67436 1.0007 0.0
H1638 H 0.751 0.67803 0.98549 0.0
H1639 H 0.77055 0.65963 0.97411 0.0
C1640 C 0.74144 0.34387 0.086 0.0
C1641 C 0.73537 0.343 0.07872 0.0
C1642 C 0.73009 0.32857 0.08456 0.0
C1643 C 0.72971 0.33544 0.07804 0.0
C1644 C 0.73641 0.32925 0.09162 0.0
C1645 C 0.742 0.33685 0.09235 0.0
U1646 U 0.75624 0.3632 0.07708 0.0
O1647 O 0.75568 0.37777 0.07994 0.0
O1648 O 0.76796 0.37012 0.08323 0.0
C1649 C 0.76372 0.37792 0.08374 0.0
C1650 C 0.74684 0.35221 0.08736 0.0
C1651 C 0.76438 0.38286 0.09241 0.0
C1652 C 0.75867 0.38661 0.1074 0.0
C1653 C 0.75837 0.38123 0.09958 0.0
C1654 C 0.77113 0.39512 0.10108 0.0
C1655 C 0.76496 0.3937 0.10813 0.0
C1656 C 0.77083 0.38975 0.0933 0.0
C1657 C 0.76073 0.36183 0.05087 0.0
C1658 C 0.77084 0.37012 0.04088 0.0
C1659 C 0.75965 0.35994 0.03461 0.0
C1660 C 0.75669 0.35784 0.04329 0.0
C1661 C 0.76674 0.36608 0.03331 0.0
C1662 C 0.76783 0.36801 0.04965 0.0
C1663 C 0.75737 0.35908 0.05983 0.0
O1664 O 0.75563 0.35145 0.08627 0.0
O1665 O 0.7435 0.35964 0.08382 0.0
O1666 O 0.75071 0.36385 0.06327 0.0
O1667 O 0.76334 0.35646 0.06587 0.0
H1668 H 0.73482 0.34827 0.07367 0.0
H1669 H 0.72488 0.33504 0.07255 0.0
H1670 H 0.73677 0.32404 0.09674 0.0
H1671 H 0.74663 0.33736 0.09801 0.0
H1672 H 0.75386 0.38541 0.11277 0.0
H1673 H 0.75334 0.37595 0.09904 0.0
H1674 H 0.77602 0.40054 0.10151 0.0
H1675 H 0.77552 0.39113 0.08785 0.0
H1676 H 0.77634 0.37487 0.04 0.0
H1677 H 0.75643 0.35673 0.02887 0.0
H1678 H 0.75124 0.35302 0.04408 0.0
H1679 H 0.77105 0.37115 0.05543 0.0
C1680 C 0.68672 0.73969 0.08683 0.0
C1681 C 0.69215 0.74036 0.07907 0.0
C1682 C 0.70214 0.7286 0.08488 0.0
C1683 C 0.69984 0.73486 0.07812 0.0
C1684 C 0.69673 0.72802 0.09264 0.0
C1685 C 0.68909 0.73351 0.0936 0.0
U1686 U 0.66795 0.75515 0.07759 0.0
O1687 O 0.65333 0.75493 0.08021 0.0
O1688 O 0.66125 0.7669 0.08395 0.0
C1689 C 0.65337 0.7628 0.08434 0.0
C1690 C 0.67846 0.7452 0.08794 0.0
C1691 C 0.64837 0.76339 0.09302 0.0
C1692 C 0.64072 0.75629 0.10578 0.0
C1693 C 0.64643 0.75568 0.09823 0.0
C1694 C 0.63913 0.77238 0.1033 0.0
C1695 C 0.63687 0.76462 0.10827 0.0
C1696 C 0.6448 0.77176 0.09575 0.0
C1697 C 0.66991 0.76038 0.05155 0.0
C1698 C 0.6598 0.76841 0.04129 0.0
C1699 C 0.67326 0.76107 0.0355 0.0
C1700 C 0.67551 0.75828 0.04422 0.0
C1701 C 0.66534 0.76605 0.03392 0.0
C1702 C 0.66205 0.76553 0.05007 0.0
C1703 C 0.67242 0.75668 0.06045 0.0
O1704 O 0.67941 0.75398 0.08704 0.0
O1705 O 0.67118 0.74207 0.08391 0.0
O1706 O 0.66737 0.75011 0.06361 0.0
O1707 O 0.67511 0.76238 0.06671 0.0
H1708 H 0.69041 0.74507 0.07375 0.0
H1709 H 0.70393 0.73541 0.07209 0.0
H1710 H 0.69839 0.72323 0.09792 0.0
H1711 H 0.68498 0.73288 0.09962 0.0
H1712 H 0.63905 0.75022 0.1095 0.0
H1713 H 0.64909 0.74913 0.09632 0.0
H1714 H 0.63622 0.77886 0.10509 0.0
H1715 H 0.64617 0.7778 0.09186 0.0
H1716 H 0.65368 0.77228 0.0402 0.0
H1717 H 0.67764 0.75922 0.02994 0.0
H1718 H 0.6816 0.75432 0.04521 0.0
H1719 H 0.65763 0.76721 0.05566 0.0
C1720 C 0.29134 0.6864 0.08679 0.0
C1721 C 0.29071 0.69185 0.07903 0.0
C1722 C 0.30252 0.70175 0.08489 0.0
C1723 C 0.29625 0.6995 0.07811 0.0
C1724 C 0.30306 0.69634 0.09265 0.0
C1725 C 0.29753 0.68874 0.09358 0.0
U1726 U 0.27608 0.66743 0.07755 0.0
O1727 O 0.27645 0.65286 0.08042 0.0
O1728 O 0.26433 0.66069 0.08386 0.0
C1729 C 0.26849 0.65285 0.08437 0.0
C1730 C 0.28582 0.67815 0.08788 0.0
C1731 C 0.26781 0.64787 0.09305 0.0
C1732 C 0.27464 0.64138 0.1066 0.0
C1733 C 0.27517 0.64708 0.09903 0.0
C1734 C 0.25928 0.63746 0.10254 0.0
C1735 C 0.26675 0.63638 0.10831 0.0
C1736 C 0.25981 0.64315 0.09499 0.0
C1737 C 0.27123 0.66894 0.05133 0.0
C1738 C 0.26109 0.66064 0.0413 0.0
C1739 C 0.2721 0.67099 0.03507 0.0
C1740 C 0.27513 0.67305 0.04376 0.0
C1741 C 0.26508 0.66478 0.03373 0.0
C1742 C 0.26416 0.6627 0.05008 0.0
C1743 C 0.27473 0.67157 0.06031 0.0
O1744 O 0.27704 0.67907 0.0868 0.0
O1745 O 0.28905 0.67084 0.08403 0.0
O1746 O 0.28134 0.66668 0.06366 0.0
O1747 O 0.26888 0.67428 0.06643 0.0
H1748 H 0.286 0.69014 0.07369 0.0
H1749 H 0.29573 0.70359 0.07207 0.0
H1750 H 0.30785 0.69797 0.09796 0.0
H1751 H 0.29813 0.68463 0.0996 0.0
H1752 H 0.28049 0.64062 0.11094 0.0
H1753 H 0.28142 0.65065 0.09771 0.0
H1754 H 0.25314 0.63366 0.10371 0.0
H1755 H 0.25405 0.64361 0.09049 0.0
H1756 H 0.25564 0.65584 0.0404 0.0
H1757 H 0.27524 0.67429 0.02934 0.0
H1758 H 0.28055 0.6779 0.04457 0.0
H1759 H 0.26105 0.65946 0.05584 0.0
C1760 C 0.3449 0.29077 0.08709 0.0
C1761 C 0.33943 0.29007 0.07935 0.0
C1762 C 0.3295 0.30191 0.0851 0.0
C1763 C 0.33176 0.29559 0.07837 0.0
C1764 C 0.33493 0.30251 0.09286 0.0
C1765 C 0.34256 0.297 0.09384 0.0
U1766 U 0.36357 0.27501 0.07807 0.0
O1767 O 0.3783 0.27562 0.0803 0.0
O1768 O 0.37066 0.26373 0.08474 0.0
C1769 C 0.37854 0.26786 0.08459 0.0
C1770 C 0.35321 0.28532 0.0882 0.0
C1771 C 0.38405 0.26758 0.09295 0.0
C1772 C 0.38573 0.26779 0.10934 0.0
C1773 C 0.38023 0.26835 0.10161 0.0
C1774 C 0.3989 0.26578 0.09985 0.0
C1775 C 0.39513 0.26651 0.10851 0.0
C1776 C 0.39342 0.2663 0.09216 0.0
C1777 C 0.36207 0.26819 0.05252 0.0
C1778 C 0.37259 0.26756 0.03986 0.0
C1779 C 0.35761 0.26114 0.03832 0.0
C1780 C 0.35569 0.26349 0.04727 0.0
C1781 C 0.36594 0.26348 0.03444 0.0
C1782 C 0.37068 0.2699 0.04884 0.0
C1783 C 0.35905 0.27243 0.06107 0.0
O1784 O 0.35228 0.2765 0.08766 0.0
O1785 O 0.36035 0.28831 0.08389 0.0
O1786 O 0.36367 0.27945 0.06394 0.0
O1787 O 0.35637 0.26708 0.06762 0.0
H1788 H 0.34114 0.28532 0.07404 0.0
H1789 H 0.32764 0.29501 0.07234 0.0
H1790 H 0.33331 0.30734 0.09812 0.0
H1791 H 0.3467 0.29766 0.09985 0.0
H1792 H 0.38268 0.26833 0.11597 0.0
H1793 H 0.37301 0.26933 0.10239 0.0
H1794 H 0.40611 0.26476 0.09904 0.0
H1795 H 0.39651 0.26566 0.08556 0.0
H1796 H 0.37903 0.26947 0.03696 0.0
H1797 H 0.35237 0.25806 0.03423 0.0
H1798 H 0.349 0.26214 0.04992 0.0
H1799 H 0.37574 0.27351 0.05271 0.0
C1800 C 0.29001 0.34397 0.94398 0.0
C1801 C 0.29608 0.34307 0.95127 0.0
C1802 C 0.30137 0.32865 0.94537 0.0
C1803 C 0.30174 0.3355 0.95192 0.0
C1804 C 0.29505 0.32934 0.93831 0.0
C1805 C 0.28944 0.33696 0.93761 0.0
U1806 U 0.27525 0.36333 0.95298 0.0
O1807 O 0.27589 0.37792 0.95024 0.0
O1808 O 0.26359 0.37037 0.94687 0.0
C1809 C 0.26784 0.37816 0.94648 0.0
C1810 C 0.28463 0.35233 0.94265 0.0
C1811 C 0.26716 0.38325 0.93792 0.0
C1812 C 0.27125 0.38578 0.92217 0.0
C1813 C 0.27163 0.38045 0.93002 0.0
C1814 C 0.26185 0.39666 0.93 0.0
C1815 C 0.26645 0.394 0.92214 0.0
C1816 C 0.2622 0.39133 0.93779 0.0
C1817 C 0.27076 0.36179 0.9792 0.0
C1818 C 0.26066 0.37003 0.9893 0.0
C1819 C 0.27188 0.35978 0.99545 0.0
C1820 C 0.27482 0.35774 0.98674 0.0
C1821 C 0.2648 0.36592 0.99683 0.0
C1822 C 0.26365 0.36798 0.98051 0.0
C1823 C 0.27409 0.3591 0.9702 0.0
O1824 O 0.27583 0.35162 0.94372 0.0
O1825 O 0.28797 0.35974 0.94623 0.0
O1826 O 0.28077 0.36384 0.9668 0.0
O1827 O 0.2681 0.35657 0.96414 0.0
H1828 H 0.29663 0.34833 0.95633 0.0
H1829 H 0.30658 0.33509 0.9574 0.0
H1830 H 0.29469 0.32414 0.93317 0.0
H1831 H 0.28482 0.33748 0.93195 0.0
H1832 H 0.27482 0.38359 0.91617 0.0
H1833 H 0.27551 0.37424 0.92998 0.0
H1834 H 0.25809 0.40294 0.93013 0.0
H1835 H 0.2587 0.39362 0.9438 0.0
H1836 H 0.25517 0.37478 0.99025 0.0
H1837 H 0.27512 0.35653 1.00115 0.0
H1838 H 0.28027 0.35292 0.98588 0.0
H1839 H 0.26041 0.37116 0.97477 0.0
C1840 C 0.6873 0.29006 0.94385 0.0
C1841 C 0.68819 0.29628 0.951 0.0
C1842 C 0.70257 0.30148 0.94496 0.0
C1843 C 0.69575 0.30197 0.95151 0.0
C1844 C 0.7019 0.29501 0.93805 0.0
C1845 C 0.69431 0.28937 0.93748 0.0
U1846 U 0.66827 0.27465 0.95256 0.0
O1847 O 0.65356 0.27547 0.95026 0.0
O1848 O 0.66107 0.26343 0.94593 0.0
C1849 C 0.65325 0.26768 0.94601 0.0
C1850 C 0.67892 0.2847 0.94256 0.0
C1851 C 0.64783 0.26747 0.93761 0.0
C1852 C 0.64633 0.26761 0.92121 0.0
C1853 C 0.65176 0.26812 0.92899 0.0
C1854 C 0.63303 0.26593 0.93057 0.0
C1855 C 0.63691 0.26651 0.92195 0.0
C1856 C 0.63843 0.2664 0.93831 0.0
C1857 C 0.66956 0.26797 0.97813 0.0
C1858 C 0.65897 0.26749 0.99072 0.0
C1859 C 0.67386 0.26087 0.99233 0.0
C1860 C 0.67585 0.26319 0.98339 0.0
C1861 C 0.66555 0.26331 0.99616 0.0
C1862 C 0.66096 0.2698 0.98176 0.0
C1863 C 0.67267 0.27213 0.96959 0.0
O1864 O 0.67972 0.27587 0.94306 0.0
O1865 O 0.67162 0.28779 0.94658 0.0
O1866 O 0.66815 0.2792 0.96666 0.0
O1867 O 0.67531 0.2667 0.96308 0.0
H1868 H 0.68294 0.29693 0.95604 0.0
H1869 H 0.69615 0.30693 0.95688 0.0
H1870 H 0.70708 0.29457 0.93291 0.0
H1871 H 0.69378 0.28465 0.93191 0.0
H1872 H 0.64946 0.26805 0.91462 0.0
H1873 H 0.659 0.26896 0.92829 0.0
H1874 H 0.62579 0.26505 0.9313 0.0
H1875 H 0.63526 0.26586 0.94488 0.0
H1876 H 0.65254 0.26949 0.99359 0.0
H1877 H 0.67904 0.25771 0.99643 0.0
H1878 H 0.68254 0.26174 0.98077 0.0
H1879 H 0.65596 0.27348 0.97786 0.0
C1880 C 0.34405 0.74036 0.94393 0.0
C1881 C 0.33849 0.74094 0.9516 0.0
C1882 C 0.32882 0.72903 0.94562 0.0
C1883 C 0.33089 0.73532 0.95242 0.0
C1884 C 0.33434 0.72853 0.93793 0.0
C1885 C 0.3419 0.73415 0.93711 0.0
U1886 U 0.36229 0.75602 0.9537 0.0
O1887 O 0.37706 0.75558 0.95181 0.0
O1888 O 0.36938 0.76756 0.94761 0.0
C1889 C 0.37727 0.76344 0.94771 0.0
C1890 C 0.3523 0.74588 0.94305 0.0
C1891 C 0.38254 0.76376 0.93927 0.0
C1892 C 0.38379 0.76227 0.92295 0.0
C1893 C 0.37859 0.76184 0.93085 0.0
C1894 C 0.39692 0.76643 0.93182 0.0
C1895 C 0.393 0.76454 0.92339 0.0
C1896 C 0.39173 0.76605 0.93969 0.0
C1897 C 0.36077 0.7625 0.97907 0.0
C1898 C 0.37192 0.7635 0.99116 0.0
C1899 C 0.35681 0.76941 0.99343 0.0
C1900 C 0.35451 0.767 0.98459 0.0
C1901 C 0.3654 0.76733 0.99689 0.0
C1902 C 0.36963 0.76111 0.98229 0.0
C1903 C 0.35751 0.75824 0.97063 0.0
O1904 O 0.35126 0.75468 0.94378 0.0
O1905 O 0.3594 0.74285 0.94745 0.0
O1906 O 0.36211 0.75123 0.9677 0.0
O1907 O 0.35481 0.76366 0.96413 0.0
H1908 H 0.34007 0.74566 0.95697 0.0
H1909 H 0.3267 0.7358 0.9584 0.0
H1910 H 0.33286 0.72372 0.93262 0.0
H1911 H 0.34613 0.73358 0.93117 0.0
H1912 H 0.38065 0.7608 0.9165 0.0
H1913 H 0.3715 0.76003 0.93039 0.0
H1914 H 0.40402 0.7682 0.9323 0.0
H1915 H 0.39489 0.76755 0.94612 0.0
H1916 H 0.37856 0.76179 0.99374 0.0
H1917 H 0.35168 0.77231 0.99778 0.0
H1918 H 0.34766 0.76814 0.98226 0.0
H1919 H 0.37461 0.75769 0.97815 0.0
C1920 C 0.58903 0.7886 0.84298 0.0
C1921 C 0.5806 0.7926 0.84108 0.0
C1922 C 0.58695 0.80012 0.82793 0.0
C1923 C 0.57958 0.79834 0.83362 0.0
C1924 C 0.59522 0.79573 0.82954 0.0
C1925 C 0.59625 0.79002 0.83701 0.0
U1926 U 0.5806 0.77355 0.86216 0.0
O1927 O 0.58714 0.76262 0.86985 0.0
O1928 O 0.58255 0.77486 0.87687 0.0
C1929 C 0.58678 0.76707 0.87753 0.0
C1930 C 0.59059 0.78354 0.85146 0.0
C1931 C 0.59504 0.76693 0.88315 0.0
C1932 C 0.61124 0.76892 0.88528 0.0
C1933 C 0.60345 0.76972 0.87988 0.0
C1934 C 0.60217 0.76314 0.89743 0.0
C1935 C 0.61094 0.76478 0.89393 0.0
C1936 C 0.59442 0.76396 0.89207 0.0
C1937 C 0.55522 0.76626 0.86005 0.0
C1938 C 0.54183 0.76641 0.86959 0.0
C1939 C 0.54138 0.75892 0.85505 0.0
C1940 C 0.55048 0.76106 0.85368 0.0
C1941 C 0.53689 0.76197 0.86281 0.0
C1942 C 0.55094 0.76856 0.86822 0.0
C1943 C 0.5638 0.77052 0.85725 0.0
O1944 O 0.58639 0.78672 0.85861 0.0
O1945 O 0.59034 0.77468 0.85091 0.0
O1946 O 0.57053 0.76517 0.85499 0.0
O1947 O 0.56638 0.77776 0.86171 0.0
H1948 H 0.5749 0.79155 0.84554 0.0
H1949 H 0.57316 0.8017 0.83252 0.0
H1950 H 0.60099 0.79704 0.82524 0.0
H1951 H 0.60279 0.78698 0.83832 0.0
H1952 H 0.61731 0.77179 0.88253 0.0
H1953 H 0.60401 0.77256 0.87316 0.0
H1954 H 0.60115 0.76119 0.90438 0.0
H1955 H 0.58791 0.76221 0.89492 0.0
H1956 H 0.53844 0.76885 0.8756 0.0
H1957 H 0.53765 0.75553 0.84973 0.0
H1958 H 0.55361 0.75923 0.84733 0.0
H1959 H 0.55444 0.77254 0.87327 0.0
C1960 C 0.24225 0.58805 0.84327 0.0
C1961 C 0.24383 0.58115 0.83692 0.0
C1962 C 0.23046 0.58574 0.8284 0.0
C1963 C 0.23799 0.58004 0.8295 0.0
C1964 C 0.22896 0.59267 0.8347 0.0
C1965 C 0.23481 0.59382 0.84205 0.0
U1966 U 0.2584 0.57922 0.86175 0.0
O1967 O 0.26965 0.58602 0.86881 0.0
O1968 O 0.2578 0.58148 0.87644 0.0
C1969 C 0.26554 0.58581 0.87668 0.0
C1970 C 0.24797 0.58923 0.85139 0.0
C1971 C 0.26569 0.59418 0.88213 0.0
C1972 C 0.26259 0.61023 0.8843 0.0
C1973 C 0.26259 0.60251 0.87875 0.0
C1974 C 0.2688 0.60139 0.89659 0.0
C1975 C 0.26563 0.6097 0.8933 0.0
C1976 C 0.26883 0.59372 0.89106 0.0
C1977 C 0.26495 0.55354 0.8608 0.0
C1978 C 0.26341 0.53974 0.86966 0.0
C1979 C 0.27382 0.54015 0.85708 0.0
C1980 C 0.27156 0.54921 0.85551 0.0
C1981 C 0.26939 0.53522 0.86386 0.0
C1982 C 0.26122 0.54882 0.86816 0.0
C1983 C 0.26086 0.56212 0.85754 0.0
O1984 O 0.24508 0.5851 0.85867 0.0
O1985 O 0.25678 0.5886 0.8503 0.0
O1986 O 0.26631 0.56858 0.8548 0.0
O1987 O 0.25378 0.56516 0.86196 0.0
H1988 H 0.2495 0.57659 0.83775 0.0
H1989 H 0.23926 0.57466 0.8247 0.0
H1990 H 0.22321 0.59714 0.83397 0.0
H1991 H 0.23345 0.59917 0.84686 0.0
H1992 H 0.26014 0.61658 0.88162 0.0
H1993 H 0.26012 0.60301 0.87188 0.0
H1994 H 0.27119 0.60083 0.90349 0.0
H1995 H 0.27125 0.58737 0.8938 0.0
H1996 H 0.25995 0.53607 0.87495 0.0
H1997 H 0.27846 0.53677 0.85252 0.0
H1998 H 0.27451 0.55263 0.84977 0.0
H1999 H 0.25613 0.55193 0.87241 0.0
C2000 C 0.44292 0.24305 0.84213 0.0
C2001 C 0.4516 0.24049 0.8392 0.0
C2002 C 0.44497 0.23073 0.82771 0.0
C2003 C 0.45261 0.23436 0.83203 0.0
C2004 C 0.43633 0.23357 0.83042 0.0
C2005 C 0.43532 0.23968 0.83757 0.0
U2006 U 0.45179 0.25841 0.86113 0.0
O2007 O 0.44522 0.2697 0.86833 0.0
O2008 O 0.44935 0.25755 0.87574 0.0
C2009 C 0.44522 0.26541 0.8761 0.0
C2010 C 0.44163 0.24855 0.85036 0.0
C2011 C 0.43675 0.26563 0.88137 0.0
C2012 C 0.42171 0.25991 0.88484 0.0
C2013 C 0.42937 0.26004 0.87924 0.0
C2014 C 0.42867 0.27106 0.89461 0.0
C2015 C 0.42137 0.26533 0.89264 0.0
C2016 C 0.43629 0.2712 0.88902 0.0
C2017 C 0.47757 0.26435 0.86076 0.0
C2018 C 0.49142 0.26211 0.86943 0.0
C2019 C 0.49084 0.27368 0.85791 0.0
C2020 C 0.4818 0.27147 0.85612 0.0
C2021 C 0.49585 0.26865 0.86422 0.0
C2022 C 0.48236 0.25998 0.86774 0.0
C2023 C 0.46899 0.26051 0.85721 0.0
O2024 O 0.44555 0.2454 0.85767 0.0
O2025 O 0.44249 0.25735 0.84948 0.0
O2026 O 0.46269 0.26616 0.85448 0.0
O2027 O 0.46574 0.2534 0.86139 0.0
H2028 H 0.45756 0.243 0.84265 0.0
H2029 H 0.45933 0.23221 0.83007 0.0
H2030 H 0.43036 0.23081 0.8272 0.0
H2031 H 0.42857 0.24155 0.83974 0.0
H2032 H 0.41614 0.25545 0.88321 0.0
H2033 H 0.42961 0.25568 0.87337 0.0
H2034 H 0.42855 0.27529 0.90058 0.0
H2035 H 0.44193 0.27553 0.89079 0.0
H2036 H 0.49515 0.2582 0.87437 0.0
H2037 H 0.49415 0.27876 0.85382 0.0
H2038 H 0.47833 0.27491 0.85067 0.0
H2039 H 0.47933 0.2545 0.8715 0.0
C2040 C 0.78843 0.44296 0.84272 0.0
C2041 C 0.793 0.45113 0.8411 0.0
C2042 C 0.80042 0.44456 0.82796 0.0
C2043 C 0.79897 0.45191 0.83379 0.0
C2044 C 0.7955 0.43656 0.82932 0.0
C2045 C 0.78957 0.43576 0.83664 0.0
U2046 U 0.77345 0.45187 0.86189 0.0
O2047 O 0.7622 0.44549 0.86928 0.0
O2048 O 0.77447 0.44957 0.87656 0.0
C2049 C 0.76661 0.44547 0.87701 0.0
C2050 C 0.78306 0.44159 0.85104 0.0
C2051 C 0.76639 0.43705 0.88243 0.0
C2052 C 0.76715 0.42065 0.884 0.0
C2053 C 0.76739 0.42843 0.87855 0.0
C2054 C 0.76497 0.43003 0.89723 0.0
C2055 C 0.76598 0.4214 0.89341 0.0
C2056 C 0.76516 0.43776 0.8918 0.0
C2057 C 0.76842 0.478 0.85996 0.0
C2058 C 0.75997 0.48834 0.86963 0.0
C2059 C 0.76903 0.49419 0.85733 0.0
C2060 C 0.77153 0.48541 0.85498 0.0
C2061 C 0.76333 0.49576 0.86473 0.0
C2062 C 0.76254 0.47947 0.86727 0.0
C2063 C 0.77178 0.46898 0.85735 0.0
O2064 O 0.78633 0.44539 0.85837 0.0
O2065 O 0.77424 0.44246 0.85031 0.0
O2066 O 0.76583 0.46277 0.85512 0.0
O2067 O 0.77864 0.46579 0.862 0.0
H2068 H 0.7922 0.4568 0.84566 0.0
H2069 H 0.80271 0.45812 0.83287 0.0
H2070 H 0.79653 0.43081 0.8249 0.0
H2071 H 0.7861 0.42941 0.83774 0.0
H2072 H 0.76792 0.41406 0.88091 0.0
H2073 H 0.76836 0.42771 0.87133 0.0
H2074 H 0.76403 0.43078 0.90444 0.0
H2075 H 0.76437 0.44432 0.89494 0.0
H2076 H 0.75554 0.48942 0.87534 0.0
H2077 H 0.77167 0.4998 0.85346 0.0
H2078 H 0.77606 0.48442 0.84931 0.0
H2079 H 0.76005 0.47383 0.87119 0.0
C2080 C 0.58795 0.24276 0.18769 0.0
C2081 C 0.57948 0.23916 0.19004 0.0
C2082 C 0.58639 0.23062 0.2023 0.0
C2083 C 0.57871 0.23311 0.19728 0.0
C2084 C 0.59477 0.23454 0.20019 0.0
C2085 C 0.59554 0.24056 0.19295 0.0
U2086 U 0.5786 0.25782 0.16878 0.0
O2087 O 0.5848 0.26927 0.16153 0.0
O2088 O 0.58088 0.25706 0.15412 0.0
C2089 C 0.58489 0.26497 0.15376 0.0
C2090 C 0.58913 0.24822 0.17941 0.0
C2091 C 0.59341 0.26527 0.14853 0.0
C2092 C 0.60878 0.26009 0.1455 0.0
C2093 C 0.60103 0.26015 0.151 0.0
C2094 C 0.60143 0.27039 0.13512 0.0
C2095 C 0.60898 0.26513 0.13745 0.0
C2096 C 0.59372 0.27046 0.14061 0.0
C2097 C 0.55252 0.26279 0.17073 0.0
C2098 C 0.54221 0.27028 0.16027 0.0
C2099 C 0.53636 0.26295 0.17367 0.0
C2100 C 0.54512 0.26053 0.17618 0.0
C2101 C 0.53479 0.26771 0.16563 0.0
C2102 C 0.55105 0.26779 0.16279 0.0
C2103 C 0.56148 0.25933 0.17341 0.0
O2104 O 0.58521 0.24497 0.17213 0.0
O2105 O 0.58813 0.257 0.18026 0.0
O2106 O 0.56769 0.26523 0.17576 0.0
O2107 O 0.5647 0.25256 0.16865 0.0
H2108 H 0.57352 0.24079 0.18609 0.0
H2109 H 0.57219 0.23013 0.19878 0.0
H2110 H 0.60077 0.23267 0.20396 0.0
H2111 H 0.60213 0.24326 0.19126 0.0
H2112 H 0.61454 0.256 0.14743 0.0
H2113 H 0.60092 0.25608 0.15707 0.0
H2114 H 0.60144 0.27433 0.12896 0.0
H2115 H 0.58792 0.27444 0.13856 0.0
H2116 H 0.54112 0.27398 0.15406 0.0
H2117 H 0.53074 0.26092 0.1779 0.0
H2118 H 0.54611 0.25667 0.18232 0.0
H2119 H 0.55668 0.2696 0.15849 0.0
C2120 C 0.78808 0.58778 0.18733 0.0
C2121 C 0.79275 0.57961 0.18876 0.0
C2122 C 0.80019 0.58597 0.202 0.0
C2123 C 0.79878 0.57873 0.19603 0.0
C2124 C 0.7952 0.59396 0.20082 0.0
C2125 C 0.78921 0.59486 0.19354 0.0
U2126 U 0.77258 0.5795 0.16817 0.0
O2127 O 0.76127 0.58631 0.16118 0.0
O2128 O 0.77332 0.58218 0.1536 0.0
C2129 C 0.7655 0.5864 0.15337 0.0
C2130 C 0.78261 0.58931 0.17909 0.0
C2131 C 0.76528 0.59493 0.14821 0.0
C2132 C 0.77131 0.6098 0.14455 0.0
C2133 C 0.77116 0.60213 0.15014 0.0
C2134 C 0.75958 0.60322 0.1352 0.0
C2135 C 0.76563 0.61032 0.13694 0.0
C2136 C 0.75942 0.5956 0.14078 0.0
C2137 C 0.76632 0.55371 0.16867 0.0
C2138 C 0.76814 0.53984 0.15994 0.0
C2139 C 0.75743 0.54033 0.17227 0.0
C2140 C 0.75961 0.54941 0.17382 0.0
C2141 C 0.76204 0.53536 0.16563 0.0
C2142 C 0.77026 0.54894 0.16143 0.0
C2143 C 0.7703 0.5623 0.17199 0.0
O2144 O 0.78568 0.58552 0.17167 0.0
O2145 O 0.77379 0.58862 0.17995 0.0
O2146 O 0.76475 0.56866 0.17481 0.0
O2147 O 0.77735 0.56548 0.16764 0.0
H2148 H 0.79197 0.57403 0.18409 0.0
H2149 H 0.80258 0.57252 0.1968 0.0
H2150 H 0.79621 0.59963 0.20535 0.0
H2151 H 0.78568 0.6012 0.19259 0.0
H2152 H 0.77602 0.61521 0.14601 0.0
H2153 H 0.77575 0.60173 0.15584 0.0
H2154 H 0.75514 0.60349 0.12938 0.0
H2155 H 0.75485 0.59012 0.13916 0.0
H2156 H 0.77176 0.53613 0.15477 0.0
H2157 H 0.75271 0.53698 0.17674 0.0
H2158 H 0.7565 0.55287 0.17947 0.0
H2159 H 0.77545 0.55202 0.15731 0.0
C2160 C 0.44345 0.78817 0.1871 0.0
C2161 C 0.45197 0.79154 0.18965 0.0
C2162 C 0.44511 0.79991 0.20204 0.0
C2163 C 0.45279 0.79739 0.19706 0.0
C2164 C 0.43668 0.79618 0.19975 0.0
C2165 C 0.43586 0.79036 0.19234 0.0
U2166 U 0.45284 0.7737 0.16783 0.0
O2167 O 0.44681 0.76252 0.16007 0.0
O2168 O 0.45068 0.77503 0.15316 0.0
C2169 C 0.44677 0.7671 0.15245 0.0
C2170 C 0.44225 0.78303 0.17862 0.0
C2171 C 0.43835 0.76677 0.14706 0.0
C2172 C 0.42205 0.7685 0.14536 0.0
C2173 C 0.42995 0.76932 0.1506 0.0
C2174 C 0.43094 0.76317 0.13286 0.0
C2175 C 0.42222 0.76458 0.13658 0.0
C2176 C 0.4388 0.764 0.13806 0.0
C2177 C 0.47878 0.76825 0.17014 0.0
C2178 C 0.48909 0.76082 0.15966 0.0
C2179 C 0.49489 0.76773 0.17333 0.0
C2180 C 0.48614 0.77024 0.17577 0.0
C2181 C 0.49649 0.76316 0.16519 0.0
C2182 C 0.48026 0.76339 0.16211 0.0
C2183 C 0.46985 0.7718 0.17276 0.0
O2184 O 0.44628 0.78648 0.17152 0.0
O2185 O 0.44313 0.7742 0.17915 0.0
O2186 O 0.46351 0.76593 0.1748 0.0
O2187 O 0.46682 0.77876 0.16816 0.0
H2188 H 0.45793 0.78991 0.18571 0.0
H2189 H 0.45934 0.80023 0.19869 0.0
H2190 H 0.43068 0.79807 0.2035 0.0
H2191 H 0.42924 0.78783 0.1905 0.0
H2192 H 0.41599 0.7712 0.14831 0.0
H2193 H 0.4295 0.772 0.15739 0.0
H2194 H 0.43184 0.76142 0.12583 0.0
H2195 H 0.44528 0.76246 0.135 0.0
H2196 H 0.4902 0.75726 0.15336 0.0
H2197 H 0.50049 0.76958 0.17769 0.0
H2198 H 0.48513 0.77397 0.182 0.0
H2199 H 0.47466 0.76178 0.15768 0.0
C2200 C 0.24232 0.44244 0.18656 0.0
C2201 C 0.24389 0.44936 0.1929 0.0
C2202 C 0.2306 0.44471 0.20144 0.0
C2203 C 0.23809 0.45045 0.20033 0.0
C2204 C 0.22913 0.43776 0.19516 0.0
C2205 C 0.23494 0.43663 0.18781 0.0
U2206 U 0.25796 0.45177 0.16807 0.0
O2207 O 0.26955 0.44545 0.1611 0.0
O2208 O 0.25753 0.44944 0.15339 0.0
C2209 C 0.26543 0.44538 0.15322 0.0
C2210 C 0.248 0.44133 0.17842 0.0
C2211 C 0.26585 0.4369 0.14793 0.0
C2212 C 0.26227 0.42096 0.14567 0.0
C2213 C 0.26217 0.42875 0.15113 0.0
C2214 C 0.26978 0.42936 0.13384 0.0
C2215 C 0.26597 0.42125 0.13691 0.0
C2216 C 0.26972 0.43709 0.13929 0.0
C2217 C 0.2628 0.47792 0.17022 0.0
C2218 C 0.27122 0.4883 0.16061 0.0
C2219 C 0.26222 0.4941 0.17298 0.0
C2220 C 0.25971 0.48532 0.17527 0.0
C2221 C 0.26788 0.49571 0.16558 0.0
C2222 C 0.26866 0.47943 0.1629 0.0
C2223 C 0.25937 0.4689 0.1727 0.0
O2224 O 0.24492 0.4453 0.17111 0.0
O2225 O 0.25679 0.44227 0.17947 0.0
O2226 O 0.26525 0.4627 0.17518 0.0
O2227 O 0.25272 0.46568 0.16778 0.0
H2228 H 0.24951 0.45396 0.19204 0.0
H2229 H 0.23933 0.45585 0.20511 0.0
H2230 H 0.22341 0.43326 0.19592 0.0
H2231 H 0.2336 0.43127 0.183 0.0
H2232 H 0.25932 0.41476 0.14819 0.0
H2233 H 0.25913 0.42844 0.15777 0.0
H2234 H 0.27269 0.42975 0.12714 0.0
H2235 H 0.27258 0.4433 0.13669 0.0
H2236 H 0.27563 0.48941 0.15489 0.0
H2237 H 0.25959 0.4997 0.17691 0.0
H2238 H 0.2552 0.4843 0.18094 0.0
H2239 H 0.27111 0.47381 0.15892 0.0
C2240 C 0.84361 0.5876 0.78724 0.0
C2241 C 0.84212 0.57944 0.79188 0.0
C2242 C 0.82898 0.58594 0.79937 0.0
C2243 C 0.83488 0.57863 0.79793 0.0
C2244 C 0.83022 0.59393 0.79442 0.0
C2245 C 0.83748 0.59475 0.78841 0.0
U2246 U 0.86243 0.57872 0.77178 0.0
O2247 O 0.86929 0.58513 0.76018 0.0
O2248 O 0.87708 0.58119 0.77214 0.0
C2249 C 0.87718 0.58532 0.76429 0.0
C2250 C 0.8518 0.58897 0.78166 0.0
C2251 C 0.88224 0.59394 0.76402 0.0
C2252 C 0.88615 0.60853 0.77057 0.0
C2253 C 0.88057 0.60086 0.7703 0.0
C2254 C 0.8949 0.60263 0.75808 0.0
C2255 C 0.89345 0.60939 0.76457 0.0
C2256 C 0.88934 0.59497 0.75781 0.0
C2257 C 0.86063 0.5526 0.76687 0.0
C2258 C 0.87146 0.54204 0.76033 0.0
C2259 C 0.85723 0.53656 0.76628 0.0
C2260 C 0.85475 0.54537 0.76851 0.0
C2261 C 0.86567 0.53478 0.76235 0.0
C2262 C 0.86897 0.55093 0.76263 0.0
C2263 C 0.85801 0.56156 0.77036 0.0
O2264 O 0.85925 0.58522 0.78472 0.0
O2265 O 0.8508 0.58805 0.77288 0.0
O2266 O 0.85542 0.56772 0.76451 0.0
O2267 O 0.86293 0.56483 0.77699 0.0
H2268 H 0.84672 0.5738 0.79105 0.0
H2269 H 0.83405 0.57242 0.8017 0.0
H2270 H 0.82575 0.59964 0.79546 0.0
H2271 H 0.83848 0.60108 0.78489 0.0
H2272 H 0.88495 0.61365 0.77566 0.0
H2273 H 0.87515 0.6002 0.77517 0.0
H2274 H 0.90052 0.60315 0.75343 0.0
H2275 H 0.89076 0.5897 0.75293 0.0
H2276 H 0.87799 0.54079 0.75728 0.0
H2277 H 0.85267 0.53106 0.76788 0.0
H2278 H 0.8483 0.54652 0.77179 0.0
H2279 H 0.87361 0.55643 0.76133 0.0
C2280 C 0.44286 0.84351 0.78806 0.0
C2281 C 0.45104 0.83866 0.78782 0.0
C2282 C 0.44556 0.82852 0.79957 0.0
C2283 C 0.45236 0.83118 0.7935 0.0
C2284 C 0.4373 0.83321 0.79959 0.0
C2285 C 0.43596 0.84063 0.79388 0.0
U2286 U 0.45239 0.86271 0.77366 0.0
O2287 O 0.44648 0.8705 0.76242 0.0
O2288 O 0.45027 0.8774 0.77498 0.0
C2289 C 0.44645 0.87813 0.76699 0.0
C2290 C 0.44168 0.85196 0.78289 0.0
C2291 C 0.4381 0.88362 0.76654 0.0
C2292 C 0.42179 0.88554 0.76802 0.0
C2293 C 0.42961 0.88018 0.7689 0.0
C2294 C 0.43093 0.89798 0.763 0.0
C2295 C 0.42214 0.89436 0.76423 0.0
C2296 C 0.43871 0.89265 0.76388 0.0
C2297 C 0.47846 0.86044 0.76873 0.0
C2298 C 0.48865 0.86897 0.75901 0.0
C2299 C 0.49473 0.85853 0.77005 0.0
C2300 C 0.48598 0.85633 0.77278 0.0
C2301 C 0.49617 0.86489 0.76321 0.0
C2302 C 0.47982 0.86676 0.76177 0.0
C2303 C 0.46943 0.85782 0.77205 0.0
O2304 O 0.4457 0.85905 0.78638 0.0
O2305 O 0.44267 0.85141 0.77408 0.0
O2306 O 0.46319 0.85579 0.76605 0.0
O2307 O 0.46629 0.86236 0.77899 0.0
H2308 H 0.45647 0.8408 0.78342 0.0
H2309 H 0.45879 0.82766 0.7934 0.0
H2310 H 0.43198 0.83127 0.80421 0.0
H2311 H 0.42962 0.84429 0.79419 0.0
H2312 H 0.41566 0.88266 0.77061 0.0
H2313 H 0.42903 0.87337 0.77151 0.0
H2314 H 0.43198 0.90501 0.7614 0.0
H2315 H 0.44525 0.89563 0.76249 0.0
H2316 H 0.48964 0.87389 0.7537 0.0
H2317 H 0.50042 0.8553 0.77336 0.0
H2318 H 0.48509 0.85141 0.77812 0.0
H2319 H 0.47409 0.86999 0.75854 0.0
C2320 C 0.1875 0.44267 0.78843 0.0
C2321 C 0.19388 0.44955 0.78695 0.0
C2322 C 0.20231 0.44485 0.80032 0.0
C2323 C 0.20128 0.4506 0.79283 0.0
C2324 C 0.19597 0.43795 0.80173 0.0
C2325 C 0.18865 0.43687 0.79583 0.0
U2326 U 0.1693 0.45182 0.77222 0.0
O2327 O 0.16277 0.44529 0.76046 0.0
O2328 O 0.15464 0.44944 0.77212 0.0
C2329 C 0.15476 0.44517 0.76433 0.0
C2330 C 0.17948 0.44151 0.78256 0.0
C2331 C 0.14972 0.43654 0.76404 0.0
C2332 C 0.14519 0.42234 0.771 0.0
C2333 C 0.15084 0.42995 0.77077 0.0
C2334 C 0.13748 0.42757 0.75755 0.0
C2335 C 0.13836 0.42118 0.76449 0.0
C2336 C 0.14312 0.43519 0.75733 0.0
C2337 C 0.17128 0.47788 0.76719 0.0
C2338 C 0.16047 0.48844 0.76058 0.0
C2339 C 0.17471 0.49392 0.76653 0.0
C2340 C 0.17718 0.48511 0.7688 0.0
C2341 C 0.16628 0.4957 0.76259 0.0
C2342 C 0.16294 0.47955 0.76292 0.0
C2343 C 0.17382 0.46896 0.77082 0.0
O2344 O 0.17206 0.44549 0.7854 0.0
O2345 O 0.18074 0.44238 0.77382 0.0
O2346 O 0.17658 0.46273 0.7651 0.0
O2347 O 0.16872 0.46575 0.77731 0.0
H2348 H 0.19311 0.45414 0.78131 0.0
H2349 H 0.20611 0.45596 0.79163 0.0
H2350 H 0.19666 0.43344 0.80744 0.0
H2351 H 0.18381 0.43153 0.7971 0.0
H2352 H 0.14595 0.41751 0.77644 0.0
H2353 H 0.15587 0.43085 0.77602 0.0
H2354 H 0.13223 0.42683 0.7525 0.0
H2355 H 0.14212 0.44019 0.75208 0.0
H2356 H 0.15393 0.48968 0.75751 0.0
H2357 H 0.17929 0.49941 0.76812 0.0
H2358 H 0.18362 0.48397 0.77211 0.0
H2359 H 0.15827 0.47406 0.76165 0.0
C2360 C 0.58829 0.18778 0.78773 0.0
C2361 C 0.57978 0.19 0.79136 0.0
C2362 C 0.58649 0.20244 0.7998 0.0
C2363 C 0.5789 0.19727 0.79738 0.0
C2364 C 0.5949 0.20045 0.79586 0.0
C2365 C 0.59578 0.19318 0.78988 0.0
U2366 U 0.57939 0.16885 0.77236 0.0
O2367 O 0.58594 0.16184 0.7609 0.0
O2368 O 0.58191 0.15423 0.77294 0.0
C2369 C 0.58617 0.15405 0.76516 0.0
C2370 C 0.58961 0.17953 0.78225 0.0
C2371 C 0.59481 0.14896 0.76492 0.0
C2372 C 0.60793 0.14236 0.77248 0.0
C2373 C 0.6004 0.14816 0.77258 0.0
C2374 C 0.60465 0.13842 0.75695 0.0
C2375 C 0.61001 0.1373 0.76472 0.0
C2376 C 0.59712 0.14417 0.75706 0.0
C2377 C 0.55335 0.17058 0.76696 0.0
C2378 C 0.54272 0.15935 0.76128 0.0
C2379 C 0.53735 0.17415 0.76577 0.0
C2380 C 0.54619 0.17673 0.76785 0.0
C2381 C 0.53549 0.16538 0.76271 0.0
C2382 C 0.55162 0.16191 0.76348 0.0
C2383 C 0.56224 0.17329 0.77058 0.0
O2384 O 0.58571 0.1722 0.78537 0.0
O2385 O 0.58875 0.18043 0.77346 0.0
O2386 O 0.56851 0.1758 0.76482 0.0
O2387 O 0.56541 0.16847 0.77733 0.0
H2388 H 0.5739 0.18594 0.78977 0.0
H2389 H 0.57238 0.19868 0.80038 0.0
H2390 H 0.60083 0.20433 0.79768 0.0
H2391 H 0.60239 0.19159 0.78715 0.0
H2392 H 0.61195 0.1416 0.77855 0.0
H2393 H 0.59879 0.15179 0.77873 0.0
H2394 H 0.60612 0.13457 0.7509 0.0
H2395 H 0.59292 0.14465 0.75108 0.0
H2396 H 0.54142 0.15256 0.75888 0.0
H2397 H 0.53189 0.17891 0.76686 0.0
H2398 H 0.54738 0.18344 0.77052 0.0
H2399 H 0.55707 0.15707 0.76276 0.0
C2400 C 0.84402 0.44248 0.24154 0.0
C2401 C 0.83768 0.4494 0.24309 0.0
C2402 C 0.82915 0.44475 0.22977 0.0
C2403 C 0.83025 0.45049 0.23726 0.0
C2404 C 0.83545 0.43781 0.22831 0.0
C2405 C 0.8428 0.43667 0.23415 0.0
U2406 U 0.86231 0.45179 0.25746 0.0
O2407 O 0.86915 0.44544 0.26911 0.0
O2408 O 0.87701 0.44953 0.25727 0.0
C2409 C 0.87709 0.4454 0.26512 0.0
C2410 C 0.85213 0.44136 0.24728 0.0
C2411 C 0.8823 0.43688 0.26548 0.0
C2412 C 0.88524 0.42146 0.26046 0.0
C2413 C 0.87975 0.42921 0.26048 0.0
C2414 C 0.89579 0.42889 0.27054 0.0
C2415 C 0.8934 0.4213 0.26538 0.0
C2416 C 0.8903 0.4366 0.27059 0.0
C2417 C 0.86018 0.47778 0.26267 0.0
C2418 C 0.87103 0.4882 0.26941 0.0
C2419 C 0.85686 0.49384 0.2634 0.0
C2420 C 0.85434 0.48506 0.26107 0.0
C2421 C 0.86529 0.49553 0.2674 0.0
C2422 C 0.8685 0.47935 0.267 0.0
C2423 C 0.85759 0.46888 0.259 0.0
O2424 O 0.85945 0.44541 0.24434 0.0
O2425 O 0.85099 0.44221 0.25605 0.0
O2426 O 0.855 0.46261 0.26472 0.0
O2427 O 0.8626 0.46573 0.25239 0.0
H2428 H 0.83852 0.454 0.24872 0.0
H2429 H 0.82546 0.45589 0.2385 0.0
H2430 H 0.8347 0.4333 0.22259 0.0
H2431 H 0.84762 0.43131 0.23283 0.0
H2432 H 0.88326 0.41566 0.25645 0.0
H2433 H 0.87361 0.42929 0.25649 0.0
H2434 H 0.90202 0.42891 0.27439 0.0
H2435 H 0.8924 0.44243 0.27448 0.0
H2436 H 0.87756 0.48937 0.27251 0.0
H2437 H 0.85234 0.49938 0.26181 0.0
H2438 H 0.8479 0.48399 0.25772 0.0
H2439 H 0.87312 0.4738 0.26828 0.0
C2440 C 0.58862 0.84283 0.24283 0.0
C2441 C 0.5801 0.84071 0.23916 0.0
C2442 C 0.5867 0.82822 0.23072 0.0
C2443 C 0.57916 0.83346 0.23312 0.0
C2444 C 0.59511 0.83008 0.23473 0.0
C2445 C 0.59606 0.83734 0.24073 0.0
U2446 U 0.57959 0.86226 0.25737 0.0
O2447 O 0.58571 0.86953 0.26889 0.0
O2448 O 0.58231 0.87683 0.25645 0.0
C2449 C 0.58605 0.87725 0.26449 0.0
C2450 C 0.59 0.85112 0.24824 0.0
C2451 C 0.59458 0.88242 0.26505 0.0
C2452 C 0.61036 0.88491 0.26102 0.0
C2453 C 0.60259 0.87944 0.26092 0.0
C2454 C 0.60221 0.8963 0.2695 0.0
C2455 C 0.61018 0.89346 0.26519 0.0
C2456 C 0.5945 0.89083 0.26943 0.0
C2457 C 0.55333 0.86171 0.26159 0.0
C2458 C 0.54255 0.86542 0.27351 0.0
C2459 C 0.5374 0.86383 0.25806 0.0
C2460 C 0.54623 0.86202 0.2553 0.0
C2461 C 0.53545 0.86536 0.26719 0.0
C2462 C 0.55146 0.86357 0.27073 0.0
C2463 C 0.56226 0.85842 0.25843 0.0
O2464 O 0.58647 0.85851 0.24479 0.0
O2465 O 0.58872 0.85043 0.25699 0.0
O2466 O 0.56822 0.8558 0.2645 0.0
O2467 O 0.56588 0.86275 0.2516 0.0
H2468 H 0.57426 0.84486 0.2407 0.0
H2469 H 0.57263 0.83215 0.23007 0.0
H2470 H 0.60101 0.82613 0.23293 0.0
H2471 H 0.60267 0.83885 0.24349 0.0
H2472 H 0.61645 0.88257 0.25769 0.0
H2473 H 0.60278 0.87298 0.25748 0.0
H2474 H 0.60192 0.90284 0.27277 0.0
H2475 H 0.58839 0.89327 0.27265 0.0
H2476 H 0.54116 0.86656 0.28059 0.0
H2477 H 0.532 0.86373 0.2531 0.0
H2478 H 0.54746 0.86051 0.24824 0.0
H2479 H 0.55678 0.86333 0.27575 0.0
C2480 C 0.18722 0.58789 0.24181 0.0
C2481 C 0.1936 0.58099 0.24332 0.0
C2482 C 0.20202 0.58565 0.22995 0.0
C2483 C 0.20099 0.57992 0.23745 0.0
C2484 C 0.19568 0.59256 0.22853 0.0
C2485 C 0.18836 0.59368 0.2344 0.0
U2486 U 0.16898 0.57872 0.25789 0.0
O2487 O 0.16237 0.5852 0.26961 0.0
O2488 O 0.15431 0.58111 0.25788 0.0
C2489 C 0.15437 0.58531 0.2657 0.0
C2490 C 0.17917 0.58904 0.24763 0.0
C2491 C 0.14928 0.59393 0.26602 0.0
C2492 C 0.14541 0.6086 0.25964 0.0
C2493 C 0.151 0.60093 0.25987 0.0
C2494 C 0.1365 0.60254 0.27192 0.0
C2495 C 0.13802 0.60939 0.26555 0.0
C2496 C 0.14209 0.59488 0.27215 0.0
C2497 C 0.17106 0.55264 0.26289 0.0
C2498 C 0.16033 0.54203 0.26947 0.0
C2499 C 0.17458 0.53661 0.26349 0.0
C2500 C 0.177 0.54543 0.26125 0.0
C2501 C 0.16617 0.53478 0.26743 0.0
C2502 C 0.16275 0.55093 0.26715 0.0
C2503 C 0.17356 0.56159 0.2593 0.0
O2504 O 0.17177 0.58507 0.24474 0.0
O2505 O 0.1804 0.58817 0.25638 0.0
O2506 O 0.17626 0.56781 0.26504 0.0
O2507 O 0.16846 0.56479 0.25278 0.0
H2508 H 0.19283 0.57641 0.24896 0.0
H2509 H 0.20581 0.57454 0.23867 0.0
H2510 H 0.19637 0.59706 0.2228 0.0
H2511 H 0.18353 0.59903 0.23311 0.0
H2512 H 0.14667 0.61379 0.25464 0.0
H2513 H 0.15649 0.60034 0.25507 0.0
H2514 H 0.13082 0.60299 0.2765 0.0
H2515 H 0.14062 0.58955 0.27693 0.0
H2516 H 0.15382 0.54075 0.27254 0.0
H2517 H 0.17918 0.53113 0.26188 0.0
H2518 H 0.18342 0.5466 0.25794 0.0
H2519 H 0.15806 0.5564 0.26845 0.0
C2520 C 0.44266 0.18721 0.24167 0.0
C2521 C 0.45003 0.19311 0.24277 0.0
C2522 C 0.44501 0.20197 0.22983 0.0
C2523 C 0.45117 0.20048 0.23692 0.0
C2524 C 0.43761 0.19613 0.22882 0.0
C2525 C 0.43644 0.18883 0.23469 0.0
U2526 U 0.45209 0.16865 0.25715 0.0
O2527 O 0.44593 0.16176 0.26885 0.0
O2528 O 0.44965 0.154 0.25679 0.0
C2529 C 0.44572 0.15388 0.26474 0.0
C2530 C 0.44153 0.17909 0.24736 0.0
C2531 C 0.43715 0.14874 0.26523 0.0
C2532 C 0.42181 0.14561 0.26007 0.0
C2533 C 0.42956 0.1511 0.26003 0.0
C2534 C 0.4291 0.13548 0.27066 0.0
C2535 C 0.42159 0.13766 0.26527 0.0
C2536 C 0.4368 0.14097 0.27064 0.0
C2537 C 0.47832 0.17041 0.26159 0.0
C2538 C 0.48852 0.16204 0.27149 0.0
C2539 C 0.49459 0.17195 0.25998 0.0
C2540 C 0.48584 0.1742 0.25729 0.0
C2541 C 0.49603 0.16583 0.26705 0.0
C2542 C 0.47968 0.16431 0.26875 0.0
C2543 C 0.46928 0.17308 0.25828 0.0
O2544 O 0.44538 0.17173 0.24424 0.0
O2545 O 0.44265 0.18015 0.25611 0.0
O2546 O 0.46321 0.17564 0.26424 0.0
O2547 O 0.4659 0.16824 0.25166 0.0
H2548 H 0.45496 0.19195 0.24807 0.0
H2549 H 0.45692 0.20492 0.2378 0.0
H2550 H 0.43278 0.19717 0.22341 0.0
H2551 H 0.43073 0.18435 0.23371 0.0
H2552 H 0.41608 0.14742 0.25587 0.0
H2553 H 0.4297 0.15706 0.25579 0.0
H2554 H 0.42907 0.1294 0.27473 0.0
H2555 H 0.44258 0.13903 0.2747 0.0
H2556 H 0.48952 0.15731 0.27698 0.0
H2557 H 0.50028 0.17495 0.2565 0.0
H2558 H 0.48494 0.17893 0.25177 0.0
H2559 H 0.47395 0.16131 0.27217 0.0
C2560 C 0.78954 0.84341 0.58774 0.0
C2561 C 0.78793 0.8371 0.58081 0.0
C2562 C 0.80127 0.82851 0.58538 0.0
C2563 C 0.79374 0.82966 0.57967 0.0
C2564 C 0.80278 0.83477 0.59233 0.0
C2565 C 0.79697 0.84213 0.59351 0.0
U2566 U 0.77342 0.86204 0.57908 0.0
O2567 O 0.7624 0.86925 0.58608 0.0
O2568 O 0.77429 0.87672 0.58135 0.0
C2569 C 0.76671 0.87702 0.58597 0.0
C2570 C 0.78389 0.85156 0.58894 0.0
C2571 C 0.76692 0.88244 0.59442 0.0
C2572 C 0.76351 0.88466 0.61041 0.0
C2573 C 0.76382 0.87905 0.60275 0.0
C2574 C 0.76949 0.89705 0.6016 0.0
C2575 C 0.76629 0.89372 0.60987 0.0
C2576 C 0.76978 0.89148 0.59397 0.0
C2577 C 0.76656 0.86124 0.55348 0.0
C2578 C 0.76809 0.87016 0.53973 0.0
C2579 C 0.75768 0.85756 0.54007 0.0
C2580 C 0.75995 0.85597 0.54913 0.0
C2581 C 0.76212 0.86437 0.53518 0.0
C2582 C 0.77028 0.86864 0.5488 0.0
C2583 C 0.77068 0.85792 0.56201 0.0
O2584 O 0.78679 0.85882 0.58476 0.0
O2585 O 0.77507 0.85053 0.5884 0.0
O2586 O 0.76526 0.85526 0.56852 0.0
O2587 O 0.77786 0.86223 0.56498 0.0
H2588 H 0.78228 0.83798 0.57624 0.0
H2589 H 0.79246 0.82489 0.57427 0.0
H2590 H 0.80853 0.83399 0.59681 0.0
H2591 H 0.79834 0.84692 0.59887 0.0
H2592 H 0.76096 0.88198 0.61672 0.0
H2593 H 0.76151 0.87214 0.60332 0.0
H2594 H 0.77162 0.90402 0.60102 0.0
H2595 H 0.77211 0.8943 0.58764 0.0
H2596 H 0.77156 0.87547 0.53608 0.0
H2597 H 0.75305 0.85302 0.53668 0.0
H2598 H 0.757 0.85021 0.55253 0.0
H2599 H 0.77537 0.87287 0.55193 0.0
C2600 C 0.7895 0.18718 0.4425 0.0
C2601 C 0.78799 0.19353 0.44942 0.0
C2602 C 0.8013 0.20203 0.44473 0.0
C2603 C 0.79382 0.20094 0.45049 0.0
C2604 C 0.80272 0.19573 0.43778 0.0
C2605 C 0.79687 0.18839 0.43667 0.0
U2606 U 0.77373 0.16864 0.45166 0.0
O2607 O 0.76206 0.16189 0.44518 0.0
O2608 O 0.77402 0.15403 0.44909 0.0
C2609 C 0.76617 0.15401 0.44489 0.0
C2610 C 0.78375 0.17909 0.44137 0.0
C2611 C 0.76581 0.14898 0.43623 0.0
C2612 C 0.77308 0.1431 0.42265 0.0
C2613 C 0.77317 0.14883 0.43021 0.0
C2614 C 0.75813 0.13791 0.42675 0.0
C2615 C 0.76563 0.13745 0.42096 0.0
C2616 C 0.75823 0.14361 0.43431 0.0
C2617 C 0.76892 0.17049 0.47785 0.0
C2618 C 0.76039 0.16092 0.48817 0.0
C2619 C 0.76952 0.17317 0.49404 0.0
C2620 C 0.77207 0.17547 0.48527 0.0
C2621 C 0.76376 0.16583 0.4956 0.0
C2622 C 0.76299 0.16322 0.47932 0.0
C2623 C 0.77236 0.17302 0.46885 0.0
O2624 O 0.78679 0.17171 0.44525 0.0
O2625 O 0.77498 0.18019 0.44235 0.0
O2626 O 0.7665 0.17564 0.46269 0.0
O2627 O 0.77896 0.16807 0.46556 0.0
H2628 H 0.78237 0.1927 0.45403 0.0
H2629 H 0.79261 0.20573 0.45589 0.0
H2630 H 0.80842 0.19647 0.43326 0.0
H2631 H 0.79816 0.18359 0.43131 0.0
H2632 H 0.77895 0.14284 0.41828 0.0
H2633 H 0.7791 0.15293 0.43152 0.0
H2634 H 0.75232 0.1336 0.42559 0.0
H2635 H 0.75249 0.14359 0.43885 0.0
H2636 H 0.75591 0.15524 0.48925 0.0
H2637 H 0.77218 0.17705 0.49965 0.0
H2638 H 0.77664 0.1811 0.48429 0.0
H2639 H 0.76049 0.15929 0.47367 0.0
C2640 C 0.84355 0.78801 0.44288 0.0
C2641 C 0.8419 0.79263 0.45103 0.0
C2642 C 0.82874 0.8 0.44441 0.0
C2643 C 0.83457 0.7986 0.45178 0.0
C2644 C 0.83012 0.79504 0.43644 0.0
C2645 C 0.83747 0.78911 0.43568 0.0
U2646 U 0.86265 0.77281 0.45173 0.0
O2647 O 0.87002 0.7616 0.4452 0.0
O2648 O 0.87735 0.77374 0.44951 0.0
C2649 C 0.87778 0.76595 0.44527 0.0
C2650 C 0.85189 0.78263 0.44154 0.0
C2651 C 0.88321 0.76583 0.43686 0.0
C2652 C 0.88476 0.76659 0.42047 0.0
C2653 C 0.8793 0.76675 0.42824 0.0
C2654 C 0.89804 0.76462 0.42983 0.0
C2655 C 0.8942 0.76556 0.42121 0.0
C2656 C 0.89261 0.76475 0.43756 0.0
C2657 C 0.86057 0.7673 0.47772 0.0
C2658 C 0.8714 0.76082 0.48833 0.0
C2659 C 0.857 0.7665 0.49371 0.0
C2660 C 0.85458 0.76877 0.48489 0.0
C2661 C 0.86549 0.7627 0.49555 0.0
C2662 C 0.86896 0.76317 0.47944 0.0
C2663 C 0.858 0.77087 0.46877 0.0
O2664 O 0.8592 0.7858 0.44548 0.0
O2665 O 0.85112 0.77381 0.44225 0.0
O2666 O 0.85573 0.76507 0.46244 0.0
O2667 O 0.86273 0.77772 0.46574 0.0
H2668 H 0.84646 0.79186 0.45671 0.0
H2669 H 0.83364 0.80237 0.45798 0.0
H2670 H 0.82571 0.79604 0.43068 0.0
H2671 H 0.83859 0.78561 0.42935 0.0
H2672 H 0.88164 0.76729 0.41388 0.0
H2673 H 0.87205 0.76761 0.42753 0.0
H2674 H 0.90529 0.7638 0.43057 0.0
H2675 H 0.89578 0.76402 0.44412 0.0
H2676 H 0.87797 0.75786 0.48963 0.0
H2677 H 0.85235 0.76799 0.49916 0.0
H2678 H 0.84808 0.77196 0.4837 0.0
H2679 H 0.87369 0.76199 0.47398 0.0
C2680 C 0.24298 0.84296 0.44284 0.0
C2681 C 0.23841 0.84134 0.45101 0.0
C2682 C 0.231 0.82819 0.44444 0.0
C2683 C 0.23245 0.83402 0.45179 0.0
C2684 C 0.23593 0.82954 0.43645 0.0
C2685 C 0.24186 0.83687 0.43566 0.0
U2686 U 0.25795 0.86221 0.45168 0.0
O2687 O 0.26911 0.86968 0.44523 0.0
O2688 O 0.25682 0.87688 0.4494 0.0
C2689 C 0.26463 0.87737 0.44521 0.0
C2690 C 0.24832 0.85131 0.44146 0.0
C2691 C 0.26473 0.88279 0.43678 0.0
C2692 C 0.26554 0.88433 0.42038 0.0
C2693 C 0.26526 0.87885 0.42814 0.0
C2694 C 0.26467 0.89769 0.42978 0.0
C2695 C 0.26524 0.8938 0.42115 0.0
C2696 C 0.26443 0.89225 0.43749 0.0
C2697 C 0.26311 0.86024 0.4778 0.0
C2698 C 0.27157 0.86986 0.48817 0.0
C2699 C 0.26253 0.85753 0.49396 0.0
C2700 C 0.26001 0.85522 0.48518 0.0
C2701 C 0.26823 0.86492 0.49557 0.0
C2702 C 0.26899 0.86755 0.4793 0.0
C2703 C 0.25974 0.85766 0.46877 0.0
O2704 O 0.24505 0.85862 0.44528 0.0
O2705 O 0.25715 0.85061 0.44229 0.0
O2706 O 0.26568 0.85548 0.46254 0.0
O2707 O 0.25284 0.86228 0.46563 0.0
H2708 H 0.23921 0.84591 0.45667 0.0
H2709 H 0.2287 0.83311 0.458 0.0
H2710 H 0.2349 0.82512 0.43071 0.0
H2711 H 0.24532 0.83797 0.42931 0.0
H2712 H 0.26601 0.88119 0.41379 0.0
H2713 H 0.26549 0.87158 0.42739 0.0
H2714 H 0.26447 0.90497 0.43054 0.0
H2715 H 0.26404 0.89545 0.44407 0.0
H2716 H 0.27601 0.87558 0.48928 0.0
H2717 H 0.2599 0.85362 0.49956 0.0
H2718 H 0.25548 0.84956 0.48417 0.0
H2719 H 0.27147 0.8715 0.47367 0.0
C2720 C 0.18813 0.24301 0.44265 0.0
C2721 C 0.18951 0.23828 0.45078 0.0
C2722 C 0.20271 0.23076 0.4444 0.0
C2723 C 0.19674 0.23218 0.45163 0.0
C2724 C 0.20157 0.23579 0.43644 0.0
C2725 C 0.19433 0.24185 0.43557 0.0
U2726 U 0.16931 0.25892 0.45099 0.0
O2727 O 0.16256 0.27035 0.44411 0.0
O2728 O 0.15468 0.25858 0.4484 0.0
C2729 C 0.15464 0.26631 0.44403 0.0
C2730 C 0.17996 0.24863 0.44116 0.0
C2731 C 0.14953 0.2664 0.43543 0.0
C2732 C 0.14454 0.25898 0.42161 0.0
C2733 C 0.1503 0.25933 0.42913 0.0
C2734 C 0.13743 0.27295 0.42632 0.0
C2735 C 0.13794 0.26569 0.42024 0.0
C2736 C 0.14318 0.2733 0.43385 0.0
C2737 C 0.17037 0.26498 0.47681 0.0
C2738 C 0.1592 0.26606 0.48885 0.0
C2739 C 0.17484 0.26986 0.49186 0.0
C2740 C 0.17699 0.26814 0.48283 0.0
C2741 C 0.16602 0.26848 0.49502 0.0
C2742 C 0.16137 0.26429 0.4798 0.0
C2743 C 0.1734 0.26105 0.46814 0.0
O2744 O 0.1725 0.24573 0.44499 0.0
O2745 O 0.18101 0.25742 0.44182 0.0
O2746 O 0.17622 0.2666 0.46181 0.0
O2747 O 0.16872 0.25419 0.465 0.0
H2748 H 0.18485 0.23908 0.45636 0.0
H2749 H 0.19749 0.22835 0.45781 0.0
H2750 H 0.20608 0.23477 0.43078 0.0
H2751 H 0.19341 0.24543 0.42926 0.0
H2752 H 0.14501 0.2533 0.41701 0.0
H2753 H 0.15513 0.25394 0.4302 0.0
H2754 H 0.13236 0.27816 0.42542 0.0
H2755 H 0.14246 0.2788 0.43863 0.0
H2756 H 0.15236 0.26492 0.49118 0.0
H2757 H 0.18019 0.27169 0.49652 0.0
H2758 H 0.18398 0.26869 0.4807 0.0
H2759 H 0.15613 0.26185 0.47529 0.0
C2760 C 0.2435 0.1878 0.58731 0.0
C2761 C 0.23873 0.18916 0.57919 0.0
C2762 C 0.2312 0.20232 0.5856 0.0
C2763 C 0.23261 0.19636 0.57836 0.0
C2764 C 0.23626 0.2012 0.59356 0.0
C2765 C 0.24235 0.19399 0.5944 0.0
U2766 U 0.25933 0.16893 0.57892 0.0
O2767 O 0.27082 0.16221 0.58573 0.0
O2768 O 0.25896 0.15434 0.58159 0.0
C2769 C 0.26675 0.15431 0.58588 0.0
C2770 C 0.24916 0.17967 0.58877 0.0
C2771 C 0.26691 0.1493 0.5945 0.0
C2772 C 0.25974 0.14477 0.60857 0.0
C2773 C 0.26008 0.15043 0.60098 0.0
C2774 C 0.27327 0.13706 0.6035 0.0
C2775 C 0.26623 0.13794 0.60979 0.0
C2776 C 0.2736 0.1427 0.59592 0.0
C2777 C 0.26528 0.16927 0.5531 0.0
C2778 C 0.26343 0.16038 0.53936 0.0
C2779 C 0.27411 0.17275 0.53966 0.0
C2780 C 0.27196 0.1744 0.54872 0.0
C2781 C 0.2695 0.16603 0.53479 0.0
C2782 C 0.26134 0.16197 0.54844 0.0
C2783 C 0.26135 0.17266 0.56168 0.0
O2784 O 0.2462 0.17218 0.58502 0.0
O2785 O 0.25795 0.18071 0.588 0.0
O2786 O 0.26692 0.17563 0.56795 0.0
O2787 O 0.2544 0.16823 0.56497 0.0
H2788 H 0.23953 0.18451 0.5736 0.0
H2789 H 0.22875 0.1971 0.57218 0.0
H2790 H 0.23524 0.20571 0.59923 0.0
H2791 H 0.24595 0.19309 0.60071 0.0
H2792 H 0.25423 0.14552 0.61333 0.0
H2793 H 0.25484 0.15546 0.60002 0.0
H2794 H 0.2783 0.13179 0.6043 0.0
H2795 H 0.27891 0.1417 0.59098 0.0
H2796 H 0.25981 0.15515 0.53572 0.0
H2797 H 0.27881 0.17719 0.53624 0.0
H2798 H 0.27507 0.18011 0.5521 0.0
H2799 H 0.25618 0.15786 0.55158 0.0
C2800 C 0.84413 0.24184 0.58775 0.0
C2801 C 0.83776 0.24341 0.58085 0.0
C2802 C 0.82926 0.23008 0.58544 0.0
C2803 C 0.83034 0.23759 0.57974 0.0
C2804 C 0.83558 0.22859 0.59236 0.0
C2805 C 0.84293 0.23442 0.59351 0.0
U2806 U 0.8624 0.25805 0.57881 0.0
O2807 O 0.86939 0.26935 0.58557 0.0
O2808 O 0.87714 0.2576 0.58092 0.0
C2809 C 0.87731 0.26531 0.58531 0.0
C2810 C 0.85225 0.24755 0.58891 0.0
C2811 C 0.88279 0.26543 0.59368 0.0
C2812 C 0.88471 0.26317 0.60988 0.0
C2813 C 0.87918 0.26311 0.60214 0.0
C2814 C 0.89745 0.26786 0.60077 0.0
C2815 C 0.89392 0.26548 0.60923 0.0
C2816 C 0.89194 0.26784 0.59308 0.0
C2817 C 0.86076 0.26451 0.55318 0.0
C2818 C 0.87194 0.2659 0.54118 0.0
C2819 C 0.85624 0.26944 0.53817 0.0
C2820 C 0.85409 0.26761 0.54718 0.0
C2821 C 0.86509 0.26823 0.53502 0.0
C2822 C 0.86979 0.26402 0.55022 0.0
C2823 C 0.85781 0.26044 0.56181 0.0
O2824 O 0.85951 0.24471 0.58468 0.0
O2825 O 0.8511 0.25635 0.58835 0.0
O2826 O 0.85516 0.26589 0.56831 0.0
O2827 O 0.86251 0.2535 0.56473 0.0
H2828 H 0.83859 0.24906 0.57629 0.0
H2829 H 0.82553 0.23885 0.57437 0.0
H2830 H 0.83485 0.22285 0.59684 0.0
H2831 H 0.84776 0.23307 0.59885 0.0
H2832 H 0.88184 0.26134 0.61635 0.0
H2833 H 0.87214 0.26122 0.60275 0.0
H2834 H 0.90451 0.26968 0.60011 0.0
H2835 H 0.89486 0.26966 0.58663 0.0
H2836 H 0.87881 0.26488 0.53886 0.0
H2837 H 0.85086 0.2712 0.53352 0.0
H2838 H 0.84709 0.26802 0.5493 0.0
H2839 H 0.87506 0.26165 0.55472 0.0
C2840 C 0.18734 0.78851 0.58788 0.0
C2841 C 0.19364 0.7869 0.58095 0.0
C2842 C 0.20216 0.80027 0.58545 0.0
C2843 C 0.20105 0.79272 0.57978 0.0
C2844 C 0.19589 0.8018 0.59239 0.0
C2845 C 0.18857 0.79597 0.5936 0.0
U2846 U 0.16906 0.77226 0.57904 0.0
O2847 O 0.16234 0.76077 0.58575 0.0
O2848 O 0.15439 0.77249 0.58138 0.0
C2849 C 0.15439 0.76474 0.58571 0.0
C2850 C 0.17927 0.78276 0.58912 0.0
C2851 C 0.14921 0.76456 0.59424 0.0
C2852 C 0.14537 0.77087 0.60895 0.0
C2853 C 0.15096 0.77068 0.60129 0.0
C2854 C 0.13643 0.75865 0.60272 0.0
C2855 C 0.13798 0.76493 0.60965 0.0
C2856 C 0.142 0.75847 0.59508 0.0
C2857 C 0.17049 0.76604 0.55332 0.0
C2858 C 0.15933 0.76471 0.54125 0.0
C2859 C 0.17503 0.7611 0.53832 0.0
C2860 C 0.17715 0.76291 0.54734 0.0
C2861 C 0.16618 0.76235 0.53512 0.0
C2862 C 0.16147 0.76658 0.5503 0.0
C2863 C 0.17344 0.77008 0.56197 0.0
O2864 O 0.17192 0.78558 0.58502 0.0
O2865 O 0.18047 0.77398 0.58848 0.0
O2866 O 0.17627 0.76463 0.56839 0.0
O2867 O 0.16865 0.77692 0.565 0.0
H2868 H 0.1928 0.78122 0.57642 0.0
H2869 H 0.20582 0.79143 0.57439 0.0
H2870 H 0.19665 0.80757 0.59684 0.0
H2871 H 0.18378 0.79734 0.59896 0.0
H2872 H 0.14666 0.77577 0.61423 0.0
H2873 H 0.15649 0.77544 0.60077 0.0
H2874 H 0.13076 0.75404 0.60311 0.0
H2875 H 0.14052 0.75372 0.58971 0.0
H2876 H 0.15247 0.76576 0.53889 0.0
H2877 H 0.1804 0.75931 0.53369 0.0
H2878 H 0.18415 0.76247 0.5495 0.0
H2879 H 0.1562 0.76898 0.55478 0.0
C2880 C 0.44363 0.24004 0.1861 0.0
C2881 C 0.45172 0.24008 0.19111 0.0
C2882 C 0.44558 0.22879 0.20139 0.0
C2883 C 0.45268 0.23451 0.19872 0.0
C2884 C 0.43747 0.22886 0.19644 0.0
C2885 C 0.43651 0.23443 0.18887 0.0
U2886 U 0.45313 0.25527 0.16743 0.0
O2887 O 0.45064 0.25497 0.15277 0.0
O2888 O 0.44704 0.26704 0.16057 0.0
C2889 C 0.44681 0.26298 0.15267 0.0
C2890 C 0.44255 0.24552 0.17784 0.0
C2891 C 0.4383 0.26371 0.14746 0.0
C2892 C 0.42267 0.25939 0.14444 0.0
C2893 C 0.43045 0.25894 0.14989 0.0
C2894 C 0.43046 0.26944 0.13417 0.0
C2895 C 0.42267 0.26453 0.13644 0.0
C2896 C 0.43819 0.26903 0.13963 0.0
C2897 C 0.47919 0.26022 0.16939 0.0
C2898 C 0.48914 0.26924 0.15988 0.0
C2899 C 0.49541 0.26025 0.17204 0.0
C2900 C 0.48675 0.25732 0.17432 0.0
C2901 C 0.49671 0.26616 0.16477 0.0
C2902 C 0.4804 0.26624 0.16216 0.0
C2903 C 0.47028 0.2566 0.17202 0.0
O2904 O 0.44357 0.2543 0.17879 0.0
O2905 O 0.44656 0.24233 0.17061 0.0
O2906 O 0.46705 0.25 0.16705 0.0
O2907 O 0.46408 0.2624 0.17463 0.0
H2908 H 0.45731 0.24434 0.18907 0.0
H2909 H 0.45898 0.23456 0.20246 0.0
H2910 H 0.43192 0.22451 0.19839 0.0
H2911 H 0.43023 0.23428 0.18509 0.0
H2912 H 0.41672 0.25557 0.14633 0.0
H2913 H 0.4304 0.25479 0.15591 0.0
H2914 H 0.43061 0.27346 0.12807 0.0
H2915 H 0.44416 0.27276 0.13763 0.0
H2916 H 0.49002 0.27383 0.15426 0.0
H2917 H 0.50114 0.25783 0.17592 0.0
H2918 H 0.48596 0.25269 0.17994 0.0
H2919 H 0.47464 0.26856 0.15827 0.0
C2920 C 0.79122 0.44315 0.18591 0.0
C2921 C 0.79052 0.45094 0.19131 0.0
C2922 C 0.80227 0.44518 0.20135 0.0
C2923 C 0.79599 0.45194 0.19901 0.0
C2924 C 0.80286 0.43738 0.196 0.0
C2925 C 0.79739 0.43638 0.18835 0.0
U2926 U 0.77636 0.45239 0.16664 0.0
O2927 O 0.7773 0.44976 0.15203 0.0
O2928 O 0.76497 0.44608 0.15939 0.0
C2929 C 0.76938 0.44576 0.15168 0.0
C2930 C 0.78589 0.44205 0.17754 0.0
C2931 C 0.76897 0.43725 0.1464 0.0
C2932 C 0.76596 0.42109 0.14492 0.0
C2933 C 0.76679 0.42887 0.15032 0.0
C2934 C 0.76963 0.42993 0.13167 0.0
C2935 C 0.76735 0.42159 0.13553 0.0
C2936 C 0.77042 0.43767 0.13704 0.0
C2937 C 0.77103 0.4784 0.16719 0.0
C2938 C 0.75898 0.48971 0.16682 0.0
C2939 C 0.77429 0.49396 0.16294 0.0
C2940 C 0.77714 0.48506 0.1643 0.0
C2941 C 0.76527 0.49642 0.16448 0.0
C2942 C 0.76184 0.48077 0.16819 0.0
C2943 C 0.77466 0.46965 0.17054 0.0
O2944 O 0.77708 0.44309 0.17824 0.0
O2945 O 0.78927 0.44596 0.17035 0.0
O2946 O 0.78163 0.46626 0.1662 0.0
O2947 O 0.7689 0.46347 0.17328 0.0
H2948 H 0.78583 0.45627 0.18952 0.0
H2949 H 0.79543 0.458 0.20306 0.0
H2950 H 0.80765 0.4321 0.19769 0.0
H2951 H 0.79806 0.43034 0.18426 0.0
H2952 H 0.76416 0.41473 0.14802 0.0
H2953 H 0.76561 0.42834 0.15752 0.0
H2954 H 0.77068 0.43048 0.12446 0.0
H2955 H 0.77206 0.44404 0.13385 0.0
H2956 H 0.75201 0.49151 0.16813 0.0
H2957 H 0.77926 0.49905 0.16124 0.0
H2958 H 0.78427 0.48352 0.1636 0.0
H2959 H 0.75696 0.47584 0.17049 0.0
C2960 C 0.58734 0.79006 0.18667 0.0
C2961 C 0.57954 0.79536 0.18802 0.0
C2962 C 0.58592 0.80149 0.2019 0.0
C2963 C 0.57887 0.80106 0.19556 0.0
C2964 C 0.59353 0.79593 0.20076 0.0
C2965 C 0.59424 0.79028 0.19319 0.0
U2966 U 0.5784 0.77516 0.16737 0.0
O2967 O 0.58118 0.77574 0.1528 0.0
O2968 O 0.58472 0.76352 0.16042 0.0
C2969 C 0.58516 0.76779 0.15265 0.0
C2970 C 0.58865 0.78471 0.17831 0.0
C2971 C 0.59381 0.76719 0.14762 0.0
C2972 C 0.60738 0.7741 0.14129 0.0
C2973 C 0.59981 0.77453 0.14701 0.0
C2974 C 0.60325 0.75887 0.13699 0.0
C2975 C 0.60905 0.76632 0.1361 0.0
C2976 C 0.59571 0.7593 0.14269 0.0
C2977 C 0.55224 0.77017 0.16899 0.0
C2978 C 0.54211 0.76147 0.15932 0.0
C2979 C 0.53607 0.7701 0.17186 0.0
C2980 C 0.54477 0.77292 0.17412 0.0
C2981 C 0.53463 0.76443 0.16441 0.0
C2982 C 0.5509 0.76438 0.16158 0.0
C2983 C 0.56119 0.7737 0.17163 0.0
O2984 O 0.5877 0.77592 0.17905 0.0
O2985 O 0.58492 0.788 0.17095 0.0
O2986 O 0.56446 0.78037 0.16679 0.0
O2987 O 0.56737 0.76785 0.1742 0.0
H2988 H 0.57409 0.79527 0.18313 0.0
H2989 H 0.57295 0.80532 0.19631 0.0
H2990 H 0.59906 0.79621 0.20556 0.0
H2991 H 0.6003 0.78626 0.19231 0.0
H2992 H 0.61174 0.77993 0.14068 0.0
H2993 H 0.59851 0.7807 0.15074 0.0
H2994 H 0.6044 0.75282 0.13303 0.0
H2995 H 0.59118 0.75357 0.14302 0.0
H2996 H 0.54113 0.75707 0.15356 0.0
H2997 H 0.53041 0.77241 0.17589 0.0
H2998 H 0.54567 0.77737 0.17988 0.0
H2999 H 0.55659 0.76218 0.15754 0.0
C3000 C 0.24006 0.58693 0.18616 0.0
C3001 C 0.24067 0.57918 0.1916 0.0
C3002 C 0.22888 0.58507 0.20151 0.0
C3003 C 0.23513 0.57827 0.19925 0.0
C3004 C 0.22836 0.59284 0.1961 0.0
C3005 C 0.23389 0.59375 0.1885 0.0
U3006 U 0.25531 0.5777 0.16717 0.0
O3007 O 0.25492 0.58059 0.15261 0.0
O3008 O 0.26704 0.58405 0.16044 0.0
C3009 C 0.26286 0.58459 0.15261 0.0
C3010 C 0.24557 0.58802 0.17791 0.0
C3011 C 0.26353 0.5933 0.14765 0.0
C3012 C 0.25655 0.60627 0.14018 0.0
C3013 C 0.25589 0.59872 0.14589 0.0
C3014 C 0.27253 0.60336 0.13822 0.0
C3015 C 0.26484 0.60854 0.13615 0.0
C3016 C 0.27187 0.59582 0.1439 0.0
C3017 C 0.26016 0.55145 0.16868 0.0
C3018 C 0.2703 0.54138 0.16044 0.0
C3019 C 0.25921 0.53519 0.17074 0.0
C3020 C 0.25621 0.54389 0.17277 0.0
C3021 C 0.26626 0.53383 0.16457 0.0
C3022 C 0.26724 0.55017 0.16247 0.0
C3023 C 0.25668 0.56045 0.17129 0.0
O3024 O 0.25435 0.58693 0.17882 0.0
O3025 O 0.24234 0.58416 0.1706 0.0
O3026 O 0.25005 0.56379 0.16641 0.0
O3027 O 0.26253 0.56657 0.17399 0.0
H3028 H 0.24536 0.57382 0.1899 0.0
H3029 H 0.23564 0.57223 0.20335 0.0
H3030 H 0.22359 0.59816 0.19772 0.0
H3031 H 0.2333 0.59977 0.18438 0.0
H3032 H 0.25052 0.61015 0.13866 0.0
H3033 H 0.24936 0.59697 0.14869 0.0
H3034 H 0.27898 0.60497 0.13517 0.0
H3035 H 0.27785 0.59176 0.14512 0.0
H3036 H 0.27576 0.54046 0.15567 0.0
H3037 H 0.25604 0.52947 0.17402 0.0
H3038 H 0.25077 0.54472 0.17759 0.0
H3039 H 0.2704 0.55593 0.15925 0.0
C3040 C 0.44666 0.78951 0.84266 0.0
C3041 C 0.45525 0.79139 0.83902 0.0
C3042 C 0.44831 0.80113 0.82756 0.0
C3043 C 0.45606 0.79715 0.83147 0.0
C3044 C 0.4398 0.79903 0.83113 0.0
C3045 C 0.439 0.79329 0.83856 0.0
U3046 U 0.45216 0.77393 0.86379 0.0
O3047 O 0.44644 0.77553 0.8774 0.0
O3048 O 0.44312 0.76343 0.86942 0.0
C3049 C 0.44222 0.76774 0.87714 0.0
C3050 C 0.4452 0.78412 0.85096 0.0
C3051 C 0.43373 0.7669 0.88229 0.0
C3052 C 0.41792 0.77039 0.88537 0.0
C3053 C 0.4255 0.77087 0.87964 0.0
C3054 C 0.42674 0.76192 0.89627 0.0
C3055 C 0.41856 0.76604 0.89382 0.0
C3056 C 0.43421 0.76233 0.89056 0.0
C3057 C 0.47908 0.76766 0.86404 0.0
C3058 C 0.49401 0.76885 0.87086 0.0
C3059 C 0.49215 0.76095 0.85663 0.0
C3060 C 0.48285 0.76268 0.85689 0.0
C3061 C 0.4978 0.76414 0.86356 0.0
C3062 C 0.48472 0.7706 0.8711 0.0
C3063 C 0.46936 0.76994 0.86397 0.0
O3064 O 0.44571 0.77527 0.85039 0.0
O3065 O 0.44842 0.78736 0.85858 0.0
O3066 O 0.46336 0.76494 0.85972 0.0
O3067 O 0.46614 0.77719 0.86798 0.0
H3068 H 0.46128 0.78856 0.84207 0.0
H3069 H 0.4627 0.79868 0.82881 0.0
H3070 H 0.43375 0.802 0.82825 0.0
H3071 H 0.43232 0.79194 0.84125 0.0
H3072 H 0.41164 0.77359 0.88335 0.0
H3073 H 0.42499 0.77445 0.87329 0.0
H3074 H 0.42739 0.75853 0.90272 0.0
H3075 H 0.44049 0.75924 0.89273 0.0
H3076 H 0.4983 0.77133 0.87626 0.0
H3077 H 0.49498 0.75737 0.85092 0.0
H3078 H 0.47865 0.76035 0.85137 0.0
H3079 H 0.48196 0.77434 0.87676 0.0
C3080 C 0.24037 0.44298 0.84415 0.0
C3081 C 0.24107 0.45076 0.83875 0.0
C3082 C 0.22925 0.44505 0.82875 0.0
C3083 C 0.23556 0.45178 0.83108 0.0
C3084 C 0.22866 0.43726 0.8341 0.0
C3085 C 0.23417 0.43624 0.84173 0.0
U3086 U 0.25535 0.4522 0.86334 0.0
O3087 O 0.25464 0.44954 0.87795 0.0
O3088 O 0.26689 0.44594 0.87043 0.0
C3089 C 0.26265 0.44572 0.87823 0.0
C3090 C 0.24578 0.44185 0.85248 0.0
C3091 C 0.26333 0.4373 0.88357 0.0
C3092 C 0.26279 0.42091 0.88515 0.0
C3093 C 0.2621 0.42869 0.87974 0.0
C3094 C 0.26588 0.43027 0.89821 0.0
C3095 C 0.26463 0.42165 0.89445 0.0
C3096 C 0.26524 0.438 0.89282 0.0
C3097 C 0.26051 0.47825 0.86278 0.0
C3098 C 0.27255 0.48954 0.86313 0.0
C3099 C 0.25722 0.49384 0.8669 0.0
C3100 C 0.25438 0.48494 0.86559 0.0
C3101 C 0.26625 0.49628 0.86538 0.0
C3102 C 0.2697 0.48058 0.86182 0.0
C3103 C 0.25689 0.46948 0.85947 0.0
O3104 O 0.25458 0.44291 0.85171 0.0
O3105 O 0.24245 0.44571 0.85973 0.0
O3106 O 0.25 0.46605 0.86389 0.0
O3107 O 0.26265 0.46331 0.85663 0.0
H3108 H 0.24579 0.45607 0.84052 0.0
H3109 H 0.23612 0.45784 0.82703 0.0
H3110 H 0.22385 0.432 0.83243 0.0
H3111 H 0.23351 0.4302 0.84581 0.0
H3112 H 0.26183 0.41432 0.88211 0.0
H3113 H 0.26061 0.42799 0.87261 0.0
H3114 H 0.26734 0.43101 0.90534 0.0
H3115 H 0.26623 0.44457 0.89591 0.0
H3116 H 0.27953 0.49131 0.86184 0.0
H3117 H 0.25224 0.49896 0.86853 0.0
H3118 H 0.24725 0.48342 0.86626 0.0
H3119 H 0.2746 0.47562 0.85958 0.0
C3120 C 0.58779 0.24102 0.84342 0.0
C3121 C 0.57987 0.23593 0.84208 0.0
C3122 C 0.58612 0.22949 0.8283 0.0
C3123 C 0.57907 0.23017 0.8346 0.0
C3124 C 0.59386 0.23487 0.82942 0.0
C3125 C 0.59469 0.24057 0.83693 0.0
U3126 U 0.57896 0.2556 0.86295 0.0
O3127 O 0.58196 0.25493 0.87747 0.0
O3128 O 0.58506 0.26729 0.86993 0.0
C3129 C 0.58556 0.26303 0.87771 0.0
C3130 C 0.5892 0.24638 0.85175 0.0
C3131 C 0.59411 0.26385 0.8828 0.0
C3132 C 0.60969 0.25942 0.88585 0.0
C3133 C 0.60192 0.259 0.88039 0.0
C3134 C 0.60195 0.26964 0.89604 0.0
C3135 C 0.6097 0.26463 0.8938 0.0
C3136 C 0.59424 0.26926 0.89058 0.0
C3137 C 0.55288 0.26042 0.86295 0.0
C3138 C 0.54142 0.2723 0.86327 0.0
C3139 C 0.53747 0.25706 0.86767 0.0
C3140 C 0.54638 0.2543 0.86619 0.0
C3141 C 0.53485 0.26599 0.8659 0.0
C3142 C 0.55038 0.26954 0.8618 0.0
C3143 C 0.56157 0.25684 0.85942 0.0
O3144 O 0.58798 0.25515 0.85107 0.0
O3145 O 0.58576 0.24296 0.85917 0.0
O3146 O 0.56521 0.25001 0.86377 0.0
O3147 O 0.56757 0.26266 0.85642 0.0
H3148 H 0.57441 0.2362 0.84695 0.0
H3149 H 0.57306 0.22605 0.83386 0.0
H3150 H 0.59939 0.2344 0.82465 0.0
H3151 H 0.60084 0.24445 0.83782 0.0
H3152 H 0.61561 0.25552 0.884 0.0
H3153 H 0.60193 0.25477 0.87442 0.0
H3154 H 0.60182 0.27371 0.90212 0.0
H3155 H 0.58828 0.27304 0.89256 0.0
H3156 H 0.53949 0.2792 0.86179 0.0
H3157 H 0.53247 0.25208 0.86959 0.0
H3158 H 0.54804 0.24722 0.86703 0.0
H3159 H 0.55518 0.27442 0.85926 0.0
C3160 C 0.79076 0.58635 0.84338 0.0
C3161 C 0.79703 0.57923 0.84256 0.0
C3162 C 0.80215 0.58516 0.82811 0.0
C3163 C 0.80271 0.57868 0.83501 0.0
C3164 C 0.79562 0.59202 0.82873 0.0
C3165 C 0.79 0.59263 0.83631 0.0
U3166 U 0.77598 0.57759 0.86289 0.0
O3167 O 0.77665 0.5806 0.87741 0.0
O3168 O 0.76435 0.58396 0.86981 0.0
C3169 C 0.7687 0.58458 0.87754 0.0
C3170 C 0.7854 0.58769 0.85175 0.0
C3171 C 0.76807 0.59332 0.88247 0.0
C3172 C 0.77512 0.6061 0.8902 0.0
C3173 C 0.77577 0.59854 0.88449 0.0
C3174 C 0.75902 0.6036 0.89166 0.0
C3175 C 0.76676 0.60858 0.89398 0.0
C3176 C 0.75967 0.59605 0.88598 0.0
C3177 C 0.77122 0.55135 0.86166 0.0
C3178 C 0.76099 0.54139 0.86988 0.0
C3179 C 0.7722 0.53507 0.85976 0.0
C3180 C 0.77523 0.54374 0.85769 0.0
C3181 C 0.76507 0.5338 0.86585 0.0
C3182 C 0.76407 0.55015 0.86781 0.0
C3183 C 0.77462 0.56031 0.85891 0.0
O3184 O 0.7766 0.58666 0.85105 0.0
O3185 O 0.78876 0.58415 0.85917 0.0
O3186 O 0.78133 0.56371 0.86363 0.0
O3187 O 0.76869 0.56639 0.8563 0.0
H3188 H 0.79774 0.57425 0.84786 0.0
H3189 H 0.80772 0.57334 0.83466 0.0
H3190 H 0.79512 0.59711 0.82349 0.0
H3191 H 0.78522 0.59816 0.83678 0.0
H3192 H 0.78118 0.60982 0.89193 0.0
H3193 H 0.78234 0.59663 0.8819 0.0
H3194 H 0.75251 0.60538 0.89452 0.0
H3195 H 0.75364 0.59214 0.88457 0.0
H3196 H 0.75547 0.54053 0.87459 0.0
H3197 H 0.7754 0.52931 0.85655 0.0
H3198 H 0.78071 0.54452 0.8529 0.0
H3199 H 0.76087 0.55595 0.87093 0.0
C3200 C 0.18684 0.44345 0.2395 0.0
C3201 C 0.19232 0.45119 0.24013 0.0
C3202 C 0.20218 0.44531 0.2283 0.0
C3203 C 0.19996 0.4521 0.23458 0.0
C3204 C 0.19673 0.43757 0.22776 0.0
C3205 C 0.18914 0.43665 0.23331 0.0
U3206 U 0.16819 0.45281 0.255 0.0
O3207 O 0.15356 0.4502 0.25481 0.0
O3208 O 0.16152 0.44655 0.26677 0.0
C3209 C 0.15359 0.44625 0.26276 0.0
C3210 C 0.17862 0.44238 0.24505 0.0
C3211 C 0.14852 0.43764 0.2634 0.0
C3212 C 0.14441 0.42278 0.25758 0.0
C3213 C 0.14989 0.43052 0.25726 0.0
C3214 C 0.13632 0.42907 0.27033 0.0
C3215 C 0.13746 0.42207 0.26403 0.0
C3216 C 0.14179 0.43678 0.27001 0.0
C3217 C 0.17017 0.47888 0.26016 0.0
C3218 C 0.16003 0.48915 0.26814 0.0
C3219 C 0.17347 0.49495 0.26083 0.0
C3220 C 0.17575 0.48623 0.25807 0.0
C3221 C 0.16555 0.49653 0.26577 0.0
C3222 C 0.1623 0.48035 0.26529 0.0
C3223 C 0.17269 0.46996 0.25646 0.0
O3224 O 0.17963 0.44333 0.25382 0.0
O3225 O 0.17133 0.4464 0.24195 0.0
O3226 O 0.16761 0.46677 0.24992 0.0
O3227 O 0.17541 0.46373 0.26217 0.0
H3228 H 0.19065 0.45653 0.24484 0.0
H3229 H 0.20408 0.45812 0.2351 0.0
H3230 H 0.19833 0.43227 0.22297 0.0
H3231 H 0.185 0.43064 0.23271 0.0
H3232 H 0.14541 0.41744 0.25267 0.0
H3233 H 0.15506 0.43104 0.2521 0.0
H3234 H 0.13102 0.42867 0.27536 0.0
H3235 H 0.14061 0.44219 0.2748 0.0
H3236 H 0.15391 0.49024 0.27199 0.0
H3237 H 0.17783 0.50052 0.25898 0.0
H3238 H 0.18185 0.48524 0.25413 0.0
H3239 H 0.1579 0.47476 0.26697 0.0
C3240 C 0.58693 0.18617 0.23993 0.0
C3241 C 0.5791 0.18783 0.23479 0.0
C3242 C 0.5857 0.20167 0.22886 0.0
C3243 C 0.57851 0.19549 0.22926 0.0
C3244 C 0.59335 0.20024 0.23432 0.0
C3245 C 0.59396 0.19254 0.23979 0.0
U3246 U 0.57777 0.16635 0.25393 0.0
O3247 O 0.58055 0.15177 0.2526 0.0
O3248 O 0.58379 0.15877 0.26525 0.0
C3249 C 0.58423 0.15117 0.26066 0.0
C3250 C 0.58816 0.1776 0.24496 0.0
C3251 C 0.59281 0.14604 0.26131 0.0
C3252 C 0.60918 0.14477 0.25976 0.0
C3253 C 0.60111 0.14968 0.25859 0.0
C3254 C 0.60067 0.13236 0.26588 0.0
C3255 C 0.60927 0.13622 0.26413 0.0
C3256 C 0.59265 0.13724 0.26469 0.0
C3257 C 0.55161 0.16792 0.25898 0.0
C3258 C 0.54165 0.16131 0.27032 0.0
C3259 C 0.53529 0.16901 0.25736 0.0
C3260 C 0.54397 0.17079 0.25416 0.0
C3261 C 0.53403 0.16433 0.26547 0.0
C3262 C 0.55042 0.1631 0.26709 0.0
C3263 C 0.56058 0.17069 0.25556 0.0
O3264 O 0.58715 0.17798 0.25377 0.0
O3265 O 0.58442 0.17041 0.24133 0.0
O3266 O 0.56383 0.1662 0.24862 0.0
O3267 O 0.56679 0.17298 0.26149 0.0
H3268 H 0.57355 0.18306 0.23482 0.0
H3269 H 0.57257 0.19647 0.22508 0.0
H3270 H 0.59898 0.20491 0.23407 0.0
H3271 H 0.60006 0.19142 0.2437 0.0
H3272 H 0.61511 0.14787 0.25703 0.0
H3273 H 0.60135 0.15632 0.25554 0.0
H3274 H 0.60005 0.12548 0.26827 0.0
H3275 H 0.58628 0.13411 0.26648 0.0
H3276 H 0.5408 0.15769 0.27661 0.0
H3277 H 0.52951 0.17142 0.25355 0.0
H3278 H 0.54473 0.17458 0.24795 0.0
H3279 H 0.55622 0.16085 0.27095 0.0
C3280 C 0.84425 0.5864 0.24027 0.0
C3281 C 0.84342 0.57926 0.23404 0.0
C3282 C 0.82896 0.58519 0.22885 0.0
C3283 C 0.83586 0.57869 0.22835 0.0
C3284 C 0.82958 0.59209 0.23533 0.0
C3285 C 0.83717 0.5927 0.24097 0.0
U3286 U 0.86354 0.57756 0.25531 0.0
O3287 O 0.87813 0.58036 0.25481 0.0
O3288 O 0.87043 0.58393 0.26695 0.0
C3289 C 0.87824 0.58438 0.26273 0.0
C3290 C 0.85261 0.58772 0.24566 0.0
C3291 C 0.88323 0.59305 0.26329 0.0
C3292 C 0.88952 0.6066 0.25632 0.0
C3293 C 0.88384 0.599 0.25591 0.0
C3294 C 0.89377 0.60262 0.2716 0.0
C3295 C 0.89466 0.60837 0.26411 0.0
C3296 C 0.88812 0.59504 0.27118 0.0
C3297 C 0.86183 0.55141 0.26035 0.0
C3298 C 0.87189 0.54108 0.26833 0.0
C3299 C 0.85847 0.53535 0.26087 0.0
C3300 C 0.85623 0.54409 0.25815 0.0
C3301 C 0.86635 0.53373 0.26588 0.0
C3302 C 0.86966 0.54989 0.26553 0.0
C3303 C 0.85927 0.56037 0.2568 0.0
O3304 O 0.85184 0.58682 0.25446 0.0
O3305 O 0.86002 0.58403 0.24244 0.0
O3306 O 0.86418 0.56361 0.25017 0.0
O3307 O 0.85666 0.56655 0.26262 0.0
H3308 H 0.84873 0.57425 0.23338 0.0
H3309 H 0.83551 0.57333 0.22338 0.0
H3310 H 0.82434 0.59719 0.23579 0.0
H3311 H 0.83764 0.59826 0.24572 0.0
H3312 H 0.89014 0.61092 0.25046 0.0
H3313 H 0.88014 0.59763 0.24974 0.0
H3314 H 0.8977 0.60384 0.27766 0.0
H3315 H 0.88778 0.59056 0.27695 0.0
H3316 H 0.87799 0.53995 0.27223 0.0
H3317 H 0.8541 0.52981 0.25896 0.0
H3318 H 0.85016 0.54512 0.25418 0.0
H3319 H 0.87406 0.55547 0.26729 0.0
C3320 C 0.44433 0.84364 0.2405 0.0
C3321 C 0.45224 0.84214 0.23543 0.0
C3322 C 0.44574 0.82843 0.22906 0.0
C3323 C 0.45291 0.83461 0.22972 0.0
C3324 C 0.43802 0.82972 0.23441 0.0
C3325 C 0.43731 0.83727 0.24006 0.0
U3326 U 0.45333 0.86323 0.25497 0.0
O3327 O 0.45028 0.87774 0.25429 0.0
O3328 O 0.44718 0.8702 0.26666 0.0
C3329 C 0.4465 0.87792 0.26232 0.0
C3330 C 0.44304 0.85201 0.2458 0.0
C3331 C 0.43778 0.8828 0.26303 0.0
C3332 C 0.42404 0.88894 0.25625 0.0
C3333 C 0.43166 0.88329 0.25575 0.0
C3334 C 0.42832 0.89335 0.27141 0.0
C3335 C 0.42241 0.89414 0.26402 0.0
C3336 C 0.43592 0.88773 0.27091 0.0
C3337 C 0.47952 0.86284 0.25963 0.0
C3338 C 0.48981 0.86656 0.27199 0.0
C3339 C 0.49564 0.86447 0.25685 0.0
C3340 C 0.4869 0.86285 0.25369 0.0
C3341 C 0.49721 0.86611 0.26604 0.0
C3342 C 0.48101 0.8649 0.26881 0.0
C3343 C 0.4707 0.85957 0.25617 0.0
O3344 O 0.44429 0.85137 0.25457 0.0
O3345 O 0.44654 0.85939 0.24234 0.0
O3346 O 0.46712 0.86405 0.24939 0.0
O3347 O 0.4647 0.85671 0.26205 0.0
H3348 H 0.45777 0.84692 0.23569 0.0
H3349 H 0.45891 0.83374 0.22563 0.0
H3350 H 0.4324 0.82504 0.23394 0.0
H3351 H 0.43117 0.83829 0.24391 0.0
H3352 H 0.41958 0.88949 0.25046 0.0
H3353 H 0.43292 0.87956 0.24959 0.0
H3354 H 0.4272 0.89734 0.27745 0.0
H3355 H 0.44055 0.88749 0.27659 0.0
H3356 H 0.49091 0.86781 0.27911 0.0
H3357 H 0.50126 0.86409 0.25217 0.0
H3358 H 0.48595 0.86122 0.24661 0.0
H3359 H 0.47545 0.86491 0.27356 0.0
C3360 C 0.1867 0.58708 0.79015 0.0
C3361 C 0.1922 0.57934 0.78958 0.0
C3362 C 0.20198 0.58521 0.80149 0.0
C3363 C 0.1998 0.57842 0.7952 0.0
C3364 C 0.19651 0.59295 0.80198 0.0
C3365 C 0.18894 0.59387 0.79637 0.0
U3366 U 0.16822 0.57774 0.7744 0.0
O3367 O 0.15357 0.5803 0.7743 0.0
O3368 O 0.16169 0.58404 0.76252 0.0
C3369 C 0.1537 0.58433 0.7664 0.0
C3370 C 0.17853 0.58817 0.78447 0.0
C3371 C 0.14867 0.59298 0.76582 0.0
C3372 C 0.14375 0.60723 0.77247 0.0
C3373 C 0.14936 0.59958 0.77262 0.0
C3374 C 0.13693 0.60201 0.75854 0.0
C3375 C 0.13737 0.60842 0.76552 0.0
C3376 C 0.14254 0.59436 0.75869 0.0
C3377 C 0.17019 0.55163 0.7695 0.0
C3378 C 0.16003 0.54131 0.76162 0.0
C3379 C 0.17349 0.53555 0.76898 0.0
C3380 C 0.17578 0.54429 0.77166 0.0
C3381 C 0.16556 0.53395 0.76405 0.0
C3382 C 0.16231 0.55013 0.76439 0.0
C3383 C 0.1727 0.56057 0.77314 0.0
O3384 O 0.17965 0.58719 0.77572 0.0
O3385 O 0.17119 0.5842 0.78748 0.0
O3386 O 0.16757 0.56384 0.77959 0.0
O3387 O 0.17549 0.56674 0.7674 0.0
H3388 H 0.19057 0.574 0.78484 0.0
H3389 H 0.20394 0.5724 0.79471 0.0
H3390 H 0.19807 0.59826 0.80678 0.0
H3391 H 0.18479 0.59988 0.79692 0.0
H3392 H 0.14416 0.61207 0.77794 0.0
H3393 H 0.15404 0.59867 0.77819 0.0
H3394 H 0.13204 0.60277 0.75314 0.0
H3395 H 0.14189 0.58936 0.75339 0.0
H3396 H 0.15389 0.5402 0.75778 0.0
H3397 H 0.17786 0.52999 0.77088 0.0
H3398 H 0.18189 0.54531 0.77559 0.0
H3399 H 0.15789 0.55571 0.76267 0.0
C3400 C 0.4443 0.18614 0.79025 0.0
C3401 C 0.45263 0.18845 0.79424 0.0
C3402 C 0.44577 0.20163 0.80132 0.0
C3403 C 0.45334 0.19612 0.79976 0.0
C3404 C 0.43756 0.19954 0.79704 0.0
C3405 C 0.43683 0.19185 0.79156 0.0
U3406 U 0.45351 0.16681 0.77559 0.0
O3407 O 0.45119 0.15213 0.77668 0.0
O3408 O 0.4473 0.15931 0.76432 0.0
C3409 C 0.44726 0.1516 0.76873 0.0
C3410 C 0.44313 0.17759 0.78519 0.0
C3411 C 0.43884 0.14622 0.7682 0.0
C3412 C 0.4226 0.14433 0.77022 0.0
C3413 C 0.43052 0.14947 0.77133 0.0
C3414 C 0.43132 0.13244 0.76337 0.0
C3415 C 0.42265 0.13598 0.76544 0.0
C3416 C 0.4392 0.13754 0.76451 0.0
C3417 C 0.47926 0.16918 0.76934 0.0
C3418 C 0.49017 0.15807 0.76396 0.0
C3419 C 0.4948 0.17358 0.76635 0.0
C3420 C 0.48601 0.17581 0.76897 0.0
C3421 C 0.49702 0.16467 0.76405 0.0
C3422 C 0.48132 0.16031 0.76663 0.0
C3423 C 0.47046 0.17172 0.7733 0.0
O3424 O 0.44375 0.1781 0.77635 0.0
O3425 O 0.44731 0.17051 0.78855 0.0
O3426 O 0.46765 0.16692 0.78021 0.0
O3427 O 0.46393 0.174 0.76772 0.0
H3428 H 0.45851 0.18418 0.79329 0.0
H3429 H 0.45973 0.19761 0.80303 0.0
H3430 H 0.43163 0.20369 0.7982 0.0
H3431 H 0.43035 0.19022 0.78855 0.0
H3432 H 0.41664 0.14702 0.77336 0.0
H3433 H 0.43015 0.15597 0.77467 0.0
H3434 H 0.43215 0.12565 0.76082 0.0
H3435 H 0.44563 0.13468 0.76245 0.0
H3436 H 0.49176 0.15115 0.76219 0.0
H3437 H 0.49997 0.17876 0.76647 0.0
H3438 H 0.48456 0.18269 0.77103 0.0
H3439 H 0.4762 0.15509 0.76687 0.0
C3440 C 0.84433 0.44391 0.78956 0.0
C3441 C 0.84358 0.45103 0.79583 0.0
C3442 C 0.82914 0.44514 0.80109 0.0
C3443 C 0.83607 0.45161 0.80157 0.0
C3444 C 0.8297 0.43825 0.7946 0.0
C3445 C 0.83724 0.43762 0.78891 0.0
U3446 U 0.86336 0.45283 0.7743 0.0
O3447 O 0.87798 0.45012 0.77455 0.0
O3448 O 0.87008 0.44651 0.76254 0.0
C3449 C 0.87799 0.44616 0.7666 0.0
C3450 C 0.85261 0.44261 0.78405 0.0
C3451 C 0.88304 0.43753 0.76601 0.0
C3452 C 0.88758 0.42303 0.77237 0.0
C3453 C 0.882 0.43071 0.77253 0.0
C3454 C 0.89509 0.4287 0.75901 0.0
C3455 C 0.89427 0.42204 0.7657 0.0
C3456 C 0.88951 0.43638 0.75917 0.0
C3457 C 0.86164 0.47896 0.76945 0.0
C3458 C 0.87179 0.48918 0.76148 0.0
C3459 C 0.85846 0.49505 0.76897 0.0
C3460 C 0.85614 0.48634 0.77168 0.0
C3461 C 0.86634 0.49658 0.76395 0.0
C3462 C 0.86947 0.48038 0.76427 0.0
C3463 C 0.85904 0.47003 0.773 0.0
O3464 O 0.8517 0.44354 0.77527 0.0
O3465 O 0.86008 0.44628 0.78719 0.0
O3466 O 0.86402 0.46672 0.77956 0.0
O3467 O 0.85634 0.46389 0.76718 0.0
H3468 H 0.84889 0.45603 0.79646 0.0
H3469 H 0.83576 0.45697 0.80655 0.0
H3470 H 0.82445 0.43317 0.79416 0.0
H3471 H 0.83765 0.43208 0.78414 0.0
H3472 H 0.88687 0.41798 0.77761 0.0
H3473 H 0.87706 0.43145 0.77787 0.0
H3474 H 0.90023 0.4281 0.75384 0.0
H3475 H 0.89045 0.44156 0.7541 0.0
H3476 H 0.87788 0.49023 0.75758 0.0
H3477 H 0.85415 0.50066 0.7709 0.0
H3478 H 0.85007 0.48538 0.77566 0.0
H3479 H 0.87381 0.47476 0.76249 0.0
C3480 C 0.58708 0.84427 0.78999 0.0
C3481 C 0.57959 0.843 0.79571 0.0
C3482 C 0.58586 0.82875 0.80103 0.0
C3483 C 0.57902 0.83532 0.80122 0.0
C3484 C 0.59311 0.82978 0.795 0.0
C3485 C 0.59372 0.83749 0.78955 0.0
U3486 U 0.57792 0.86405 0.77598 0.0
O3487 O 0.58058 0.87865 0.77725 0.0
O3488 O 0.58381 0.87163 0.76461 0.0
C3489 C 0.58412 0.87927 0.76914 0.0
C3490 C 0.58838 0.85282 0.78495 0.0
C3491 C 0.59249 0.88467 0.7683 0.0
C3492 C 0.60872 0.88691 0.77017 0.0
C3493 C 0.6009 0.88165 0.77145 0.0
C3494 C 0.59972 0.89847 0.76314 0.0
C3495 C 0.60848 0.89513 0.7652 0.0
C3496 C 0.59195 0.89325 0.76441 0.0
C3497 C 0.55176 0.86242 0.77107 0.0
C3498 C 0.54177 0.86942 0.75996 0.0
C3499 C 0.53545 0.86116 0.77258 0.0
C3500 C 0.54414 0.8593 0.77574 0.0
C3501 C 0.53417 0.86618 0.76466 0.0
C3502 C 0.55054 0.86755 0.76316 0.0
C3503 C 0.56074 0.85964 0.77447 0.0
O3504 O 0.58734 0.85243 0.77614 0.0
O3505 O 0.58471 0.86007 0.78856 0.0
O3506 O 0.56403 0.86417 0.78137 0.0
O3507 O 0.56691 0.85735 0.76851 0.0
H3508 H 0.57432 0.84807 0.79614 0.0
H3509 H 0.57339 0.83466 0.80585 0.0
H3510 H 0.59847 0.82479 0.7948 0.0
H3511 H 0.59954 0.8383 0.78519 0.0
H3512 H 0.61478 0.88446 0.77337 0.0
H3513 H 0.60141 0.87526 0.77498 0.0
H3514 H 0.5987 0.90522 0.76058 0.0
H3515 H 0.58546 0.89597 0.76237 0.0
H3516 H 0.5409 0.8733 0.75383 0.0
H3517 H 0.52968 0.85858 0.77627 0.0
H3518 H 0.54492 0.85527 0.7818 0.0
H3519 H 0.55633 0.86999 0.75942 0.0
C3520 C 0.24102 0.18673 0.44327 0.0
C3521 C 0.23483 0.18744 0.45046 0.0
C3522 C 0.22959 0.20198 0.44482 0.0
C3523 C 0.22914 0.19498 0.45119 0.0
C3524 C 0.23604 0.20149 0.43789 0.0
C3525 C 0.24168 0.19391 0.43711 0.0
U3526 U 0.25572 0.167 0.45168 0.0
O3527 O 0.25508 0.15253 0.44841 0.0
O3528 O 0.26741 0.16017 0.44537 0.0
C3529 C 0.26316 0.1524 0.44472 0.0
C3530 C 0.24638 0.17839 0.44174 0.0
C3531 C 0.26396 0.14745 0.43608 0.0
C3532 C 0.25831 0.14337 0.42115 0.0
C3533 C 0.25794 0.1489 0.42886 0.0
C3534 C 0.27085 0.1351 0.42766 0.0
C3535 C 0.26466 0.1363 0.42058 0.0
C3536 C 0.2705 0.14062 0.43534 0.0
C3537 C 0.26057 0.16691 0.47784 0.0
C3538 C 0.27256 0.16644 0.4892 0.0
C3539 C 0.25716 0.16291 0.49341 0.0
C3540 C 0.25437 0.1642 0.48449 0.0
C3541 C 0.2662 0.16432 0.4959 0.0
C3542 C 0.26977 0.16774 0.48022 0.0
C3543 C 0.25703 0.17033 0.46909 0.0
O3544 O 0.25518 0.17905 0.44288 0.0
O3545 O 0.243 0.17089 0.44506 0.0
O3546 O 0.25023 0.16591 0.46545 0.0
O3547 O 0.26284 0.17337 0.46311 0.0
H3548 H 0.23421 0.18205 0.45536 0.0
H3549 H 0.22419 0.19523 0.45658 0.0
H3550 H 0.23646 0.2068 0.43289 0.0
H3551 H 0.24639 0.19354 0.43152 0.0
H3552 H 0.25347 0.14441 0.41575 0.0
H3553 H 0.25283 0.15413 0.4293 0.0
H3554 H 0.27579 0.1297 0.42737 0.0
H3555 H 0.27519 0.13937 0.44083 0.0
H3556 H 0.27955 0.16765 0.49101 0.0
H3557 H 0.25214 0.16137 0.4985 0.0
H3558 H 0.24724 0.16363 0.48292 0.0
H3559 H 0.27472 0.16989 0.4753 0.0
C3560 C 0.24031 0.84391 0.58659 0.0
C3561 C 0.24089 0.83842 0.57885 0.0
C3562 C 0.22908 0.8286 0.58476 0.0
C3563 C 0.23533 0.83079 0.57796 0.0
C3564 C 0.22858 0.83405 0.5925 0.0
C3565 C 0.23415 0.84164 0.5934 0.0
U3566 U 0.25555 0.86268 0.57713 0.0
O3567 O 0.2553 0.87728 0.57984 0.0
O3568 O 0.26739 0.8694 0.58332 0.0
C3569 C 0.26326 0.87726 0.5838 0.0
C3570 C 0.24585 0.85214 0.58763 0.0
C3571 C 0.26393 0.8822 0.59249 0.0
C3572 C 0.25708 0.88841 0.60614 0.0
C3573 C 0.25659 0.88279 0.59851 0.0
C3574 C 0.27236 0.89262 0.60207 0.0
C3575 C 0.26491 0.8935 0.60787 0.0
C3576 C 0.27187 0.88702 0.59445 0.0
C3577 C 0.2603 0.86113 0.55102 0.0
C3578 C 0.27046 0.86961 0.54122 0.0
C3579 C 0.2595 0.85931 0.53473 0.0
C3580 C 0.25644 0.85712 0.54335 0.0
C3581 C 0.26651 0.86556 0.53356 0.0
C3582 C 0.26734 0.86742 0.54993 0.0
C3583 C 0.25676 0.85839 0.55992 0.0
O3584 O 0.25462 0.85117 0.58651 0.0
O3585 O 0.24263 0.85942 0.58373 0.0
O3586 O 0.25017 0.8633 0.56327 0.0
O3587 O 0.26261 0.85567 0.56604 0.0
H3588 H 0.24558 0.84008 0.5735 0.0
H3589 H 0.23581 0.82666 0.57194 0.0
H3590 H 0.22381 0.83247 0.59782 0.0
H3591 H 0.23358 0.84579 0.59941 0.0
H3592 H 0.25125 0.88903 0.61051 0.0
H3593 H 0.2504 0.87912 0.59716 0.0
H3594 H 0.27844 0.89651 0.60327 0.0
H3595 H 0.2776 0.88669 0.58991 0.0
H3596 H 0.27589 0.87445 0.54044 0.0
H3597 H 0.2564 0.85609 0.52892 0.0
H3598 H 0.25103 0.85223 0.54404 0.0
H3599 H 0.27041 0.87059 0.55577 0.0
C3600 C 0.18702 0.24048 0.58623 0.0
C3601 C 0.18788 0.23429 0.57906 0.0
C3602 C 0.20235 0.22912 0.58498 0.0
C3603 C 0.19546 0.22863 0.57847 0.0
C3604 C 0.20171 0.23557 0.59191 0.0
C3605 C 0.19409 0.24118 0.59254 0.0
U3606 U 0.1678 0.25586 0.57774 0.0
O3607 O 0.1531 0.25493 0.58006 0.0
O3608 O 0.16054 0.26698 0.58449 0.0
C3609 C 0.15275 0.26268 0.58438 0.0
C3610 C 0.1786 0.24578 0.58761 0.0
C3611 C 0.14731 0.26284 0.59277 0.0
C3612 C 0.14577 0.26346 0.60916 0.0
C3613 C 0.15125 0.2629 0.60142 0.0
C3614 C 0.13241 0.26375 0.59969 0.0
C3615 C 0.1363 0.26391 0.60834 0.0
C3616 C 0.13785 0.26322 0.592 0.0
C3617 C 0.16904 0.26266 0.55216 0.0
C3618 C 0.15856 0.26304 0.53945 0.0
C3619 C 0.17345 0.26965 0.53796 0.0
C3620 C 0.17537 0.26741 0.54694 0.0
C3621 C 0.16518 0.26716 0.53405 0.0
C3622 C 0.16047 0.2608 0.54845 0.0
C3623 C 0.17213 0.25851 0.56073 0.0
O3624 O 0.17933 0.25462 0.58719 0.0
O3625 O 0.17129 0.24269 0.5836 0.0
O3626 O 0.16764 0.25141 0.5636 0.0
O3627 O 0.17473 0.26393 0.56727 0.0
H3628 H 0.18258 0.23363 0.57404 0.0
H3629 H 0.19583 0.22368 0.57309 0.0
H3630 H 0.20694 0.23602 0.59702 0.0
H3631 H 0.1936 0.24588 0.59813 0.0
H3632 H 0.14891 0.2636 0.61577 0.0
H3633 H 0.15852 0.2626 0.6022 0.0
H3634 H 0.12513 0.26412 0.5989 0.0
H3635 H 0.13467 0.26322 0.5854 0.0
H3636 H 0.15215 0.26102 0.53652 0.0
H3637 H 0.17866 0.27277 0.53388 0.0
H3638 H 0.18203 0.26888 0.54962 0.0
H3639 H 0.15545 0.25715 0.55232 0.0
C3640 C 0.79114 0.18635 0.5869 0.0
C3641 C 0.79052 0.19179 0.57914 0.0
C3642 C 0.80236 0.20167 0.58498 0.0
C3643 C 0.79608 0.19942 0.5782 0.0
C3644 C 0.80289 0.19627 0.59274 0.0
C3645 C 0.79734 0.18868 0.59369 0.0
U3646 U 0.77591 0.16749 0.57749 0.0
O3647 O 0.77624 0.15288 0.58021 0.0
O3648 O 0.76412 0.16071 0.58362 0.0
C3649 C 0.7682 0.15282 0.58399 0.0
C3650 C 0.78561 0.1781 0.58798 0.0
C3651 C 0.76742 0.14771 0.59255 0.0
C3652 C 0.77227 0.14429 0.60793 0.0
C3653 C 0.77272 0.14975 0.60017 0.0
C3654 C 0.76111 0.13483 0.60059 0.0
C3655 C 0.76656 0.13668 0.60814 0.0
C3656 C 0.76154 0.14029 0.59288 0.0
C3657 C 0.77122 0.16918 0.5513 0.0
C3658 C 0.76116 0.16084 0.54123 0.0
C3659 C 0.77218 0.17122 0.53504 0.0
C3660 C 0.77515 0.17329 0.54374 0.0
C3661 C 0.76518 0.16498 0.53368 0.0
C3662 C 0.76418 0.16292 0.55002 0.0
C3663 C 0.77469 0.1718 0.56029 0.0
O3664 O 0.77684 0.17903 0.58687 0.0
O3665 O 0.78884 0.1708 0.58411 0.0
O3666 O 0.78129 0.16689 0.56364 0.0
O3667 O 0.76882 0.17448 0.56639 0.0
H3668 H 0.7858 0.19009 0.5738 0.0
H3669 H 0.79556 0.20351 0.57216 0.0
H3670 H 0.80769 0.19789 0.59804 0.0
H3671 H 0.79794 0.18457 0.59971 0.0
H3672 H 0.77652 0.14585 0.61368 0.0
H3673 H 0.77732 0.15544 0.60006 0.0
H3674 H 0.75666 0.12902 0.60059 0.0
H3675 H 0.75739 0.13859 0.58709 0.0
H3676 H 0.75573 0.15602 0.54031 0.0
H3677 H 0.77534 0.17451 0.52932 0.0
H3678 H 0.78056 0.17816 0.54457 0.0
H3679 H 0.76105 0.15968 0.55577 0.0
C3680 C 0.84503 0.79032 0.58688 0.0
C3681 C 0.83956 0.78972 0.57912 0.0
C3682 C 0.82972 0.80161 0.58493 0.0
C3683 C 0.83194 0.79531 0.57817 0.0
C3684 C 0.83516 0.80214 0.59269 0.0
C3685 C 0.84274 0.79655 0.59365 0.0
U3686 U 0.86357 0.77464 0.57759 0.0
O3687 O 0.87822 0.77462 0.58017 0.0
O3688 O 0.87016 0.76279 0.58389 0.0
C3689 C 0.87813 0.76671 0.58418 0.0
C3690 C 0.85321 0.78468 0.58801 0.0
C3691 C 0.88318 0.76613 0.59282 0.0
C3692 C 0.88775 0.77254 0.60729 0.0
C3693 C 0.88216 0.77268 0.59961 0.0
C3694 C 0.89521 0.7591 0.60167 0.0
C3695 C 0.89442 0.76584 0.6083 0.0
C3696 C 0.88963 0.75925 0.594 0.0
C3697 C 0.86155 0.76971 0.55149 0.0
C3698 C 0.87163 0.76176 0.54117 0.0
C3699 C 0.85823 0.76923 0.53542 0.0
C3700 C 0.85597 0.77193 0.54416 0.0
C3701 C 0.86612 0.76424 0.53381 0.0
C3702 C 0.86938 0.76454 0.54998 0.0
C3703 C 0.85906 0.77334 0.56044 0.0
O3704 O 0.85214 0.77592 0.58704 0.0
O3705 O 0.86054 0.78772 0.58404 0.0
O3706 O 0.86419 0.77982 0.56369 0.0
O3707 O 0.85631 0.7676 0.56662 0.0
H3708 H 0.84122 0.78497 0.5738 0.0
H3709 H 0.82782 0.7948 0.57213 0.0
H3710 H 0.83357 0.80694 0.59798 0.0
H3711 H 0.84687 0.79713 0.59967 0.0
H3712 H 0.88706 0.77782 0.6123 0.0
H3713 H 0.87724 0.77806 0.59885 0.0
H3714 H 0.90033 0.7539 0.60229 0.0
H3715 H 0.89054 0.75413 0.58884 0.0
H3716 H 0.87774 0.75788 0.54005 0.0
H3717 H 0.85387 0.77117 0.52986 0.0
H3718 H 0.8499 0.77591 0.54518 0.0
H3719 H 0.87379 0.76278 0.55556 0.0
C3720 C 0.79024 0.84391 0.44341 0.0
C3721 C 0.79651 0.84323 0.45055 0.0
C3722 C 0.80176 0.82871 0.44483 0.0
C3723 C 0.80225 0.83571 0.45121 0.0
C3724 C 0.79524 0.82919 0.43794 0.0
C3725 C 0.78955 0.83674 0.43723 0.0
U3726 U 0.77537 0.86352 0.45194 0.0
O3727 O 0.77583 0.878 0.44873 0.0
O3728 O 0.76361 0.87024 0.44558 0.0
C3729 C 0.76778 0.87806 0.44497 0.0
C3730 C 0.78479 0.85222 0.44196 0.0
C3731 C 0.76703 0.88295 0.43628 0.0
C3732 C 0.77327 0.88747 0.42175 0.0
C3733 C 0.7735 0.8819 0.42942 0.0
C3734 C 0.7599 0.89496 0.42752 0.0
C3735 C 0.76657 0.89416 0.42083 0.0
C3736 C 0.76014 0.8894 0.43517 0.0
C3737 C 0.7707 0.86355 0.47814 0.0
C3738 C 0.7588 0.86394 0.48956 0.0
C3739 C 0.77423 0.86749 0.49373 0.0
C3740 C 0.77695 0.86624 0.48478 0.0
C3741 C 0.76521 0.86606 0.49625 0.0
C3742 C 0.76153 0.86269 0.48057 0.0
C3743 C 0.77419 0.8602 0.46935 0.0
O3744 O 0.776 0.85148 0.44312 0.0
O3745 O 0.78811 0.85974 0.44532 0.0
O3746 O 0.78092 0.86467 0.46569 0.0
O3747 O 0.76836 0.85711 0.46338 0.0
H3748 H 0.79715 0.84861 0.45546 0.0
H3749 H 0.80725 0.83546 0.45657 0.0
H3750 H 0.79479 0.82388 0.43292 0.0
H3751 H 0.78478 0.8371 0.43168 0.0
H3752 H 0.7785 0.88677 0.41668 0.0
H3753 H 0.7789 0.87699 0.43013 0.0
H3754 H 0.75471 0.9001 0.42696 0.0
H3755 H 0.7551 0.89034 0.4404 0.0
H3756 H 0.75182 0.86272 0.4914 0.0
H3757 H 0.77928 0.86903 0.49881 0.0
H3758 H 0.78407 0.86683 0.48318 0.0
H3759 H 0.75655 0.86055 0.47565 0.0
C3760 C 0.18711 0.78973 0.44368 0.0
C3761 C 0.18778 0.79605 0.45077 0.0
C3762 C 0.20227 0.80131 0.445 0.0
C3763 C 0.19527 0.80181 0.45139 0.0
C3764 C 0.20179 0.79476 0.43815 0.0
C3765 C 0.19426 0.78905 0.43748 0.0
U3766 U 0.16803 0.77409 0.45208 0.0
O3767 O 0.15343 0.77442 0.44928 0.0
O3768 O 0.16137 0.76254 0.44533 0.0
C3769 C 0.15344 0.76657 0.44512 0.0
C3770 C 0.17882 0.78422 0.44227 0.0
C3771 C 0.14832 0.76613 0.43653 0.0
C3772 C 0.14341 0.77283 0.42232 0.0
C3773 C 0.1491 0.77289 0.42992 0.0
C3774 C 0.13633 0.7591 0.42765 0.0
C3775 C 0.13688 0.76602 0.42121 0.0
C3776 C 0.14201 0.75916 0.43524 0.0
C3777 C 0.16895 0.76793 0.47789 0.0
C3778 C 0.15858 0.76779 0.49068 0.0
C3779 C 0.17341 0.76099 0.49213 0.0
C3780 C 0.17527 0.76314 0.48312 0.0
C3781 C 0.1652 0.76361 0.49607 0.0
C3782 C 0.16044 0.76994 0.48165 0.0
C3783 C 0.172 0.77199 0.46927 0.0
O3784 O 0.17975 0.77541 0.44292 0.0
O3785 O 0.17136 0.78723 0.44604 0.0
O3786 O 0.16731 0.77884 0.46611 0.0
O3787 O 0.17497 0.76652 0.46293 0.0
H3788 H 0.1824 0.79671 0.45568 0.0
H3789 H 0.19551 0.80683 0.45671 0.0
H3790 H 0.20709 0.7943 0.43313 0.0
H3791 H 0.19391 0.78425 0.43196 0.0
H3792 H 0.14391 0.77825 0.41744 0.0
H3793 H 0.1539 0.77835 0.43077 0.0
H3794 H 0.13131 0.75381 0.42695 0.0
H3795 H 0.14128 0.7539 0.44027 0.0
H3796 H 0.15222 0.76991 0.49363 0.0
H3797 H 0.17862 0.75783 0.49619 0.0
H3798 H 0.18189 0.76158 0.48042 0.0
H3799 H 0.15542 0.77364 0.4778 0.0
C3800 C 0.84498 0.24022 0.44315 0.0
C3801 C 0.83952 0.24088 0.45089 0.0
C3802 C 0.82976 0.22888 0.44518 0.0
C3803 C 0.83193 0.23526 0.45188 0.0
C3804 C 0.83521 0.22828 0.43745 0.0
C3805 C 0.84275 0.2339 0.43645 0.0
U3806 U 0.86346 0.25636 0.45196 0.0
O3807 O 0.87808 0.25639 0.4493 0.0
O3808 O 0.86988 0.26805 0.44523 0.0
C3809 C 0.87789 0.2642 0.44508 0.0
C3810 C 0.8531 0.24592 0.44193 0.0
C3811 C 0.88299 0.26464 0.43648 0.0
C3812 C 0.88841 0.25767 0.42259 0.0
C3813 C 0.88268 0.25758 0.43014 0.0
C3814 C 0.89457 0.27204 0.4274 0.0
C3815 C 0.89452 0.26481 0.42125 0.0
C3816 C 0.88884 0.27195 0.43494 0.0
C3817 C 0.86238 0.26253 0.47776 0.0
C3818 C 0.87276 0.26284 0.49058 0.0
C3819 C 0.85783 0.26941 0.492 0.0
C3820 C 0.85599 0.26722 0.48299 0.0
C3821 C 0.86609 0.26692 0.49596 0.0
C3822 C 0.87093 0.26066 0.48154 0.0
C3823 C 0.85939 0.2584 0.46913 0.0
O3824 O 0.85193 0.2547 0.44267 0.0
O3825 O 0.86048 0.24306 0.44597 0.0
O3826 O 0.86422 0.25164 0.46598 0.0
O3827 O 0.85631 0.26379 0.46278 0.0
H3828 H 0.84114 0.24571 0.45615 0.0
H3829 H 0.82781 0.23583 0.45789 0.0
H3830 H 0.83365 0.22341 0.43221 0.0
H3831 H 0.84688 0.23327 0.43045 0.0
H3832 H 0.8883 0.25201 0.41795 0.0
H3833 H 0.87823 0.25187 0.43118 0.0
H3834 H 0.89925 0.27759 0.42651 0.0
H3835 H 0.88921 0.27746 0.43975 0.0
H3836 H 0.87915 0.26082 0.49354 0.0
H3837 H 0.85258 0.27249 0.49606 0.0
H3838 H 0.84934 0.26868 0.48028 0.0
H3839 H 0.876 0.25704 0.47769 0.0
C3840 C 0.11689 0.25778 0.40759 0.0
C3841 C 0.11766 0.26256 0.3993 0.0
C3842 C 0.1328 0.26757 0.40404 0.0
C3843 C 0.13103 0.26458 0.41296 0.0
N3844 N 0.12118 0.25674 0.42331 0.0
N3845 N 0.12953 0.26465 0.38838 0.0
C3846 C 0.12303 0.25961 0.41475 0.0
C3847 C 0.12651 0.26556 0.39702 0.0
N3848 N 0.1112 0.25055 0.40813 0.0
N3849 N 0.1405 0.27232 0.40221 0.0
H3850 H 0.12594 0.26084 0.38365 0.0
H3851 H 0.13614 0.26609 0.38644 0.0
H3852 H 0.14537 0.27373 0.40712 0.0
H3853 H 0.14165 0.27537 0.39598 0.0
H3854 H 0.11096 0.24626 0.4137 0.0
H3855 H 0.10768 0.24818 0.40249 0.0
H3856 H 0.11496 0.25397 0.42511 0.0
H3857 H 0.12558 0.25773 0.42874 0.0
C3858 C 0.765 0.13292 0.40443 0.0
C3859 C 0.76596 0.13045 0.41365 0.0
C3860 C 0.76609 0.11441 0.40931 0.0
C3861 C 0.76593 0.11688 0.40005 0.0
N3862 N 0.76657 0.1285 0.38869 0.0
N3863 N 0.76927 0.11896 0.42471 0.0
C3864 C 0.76575 0.12616 0.39757 0.0
C3865 C 0.76704 0.12122 0.41604 0.0
N3866 N 0.76309 0.14168 0.40224 0.0
N3867 N 0.765 0.10557 0.41173 0.0
H3868 H 0.77011 0.12373 0.42984 0.0
H3869 H 0.77114 0.11245 0.42664 0.0
H3870 H 0.76418 0.10037 0.40704 0.0
H3871 H 0.76405 0.10349 0.41838 0.0
H3872 H 0.76134 0.14376 0.39575 0.0
H3873 H 0.76257 0.1468 0.40706 0.0
H3874 H 0.76746 0.13513 0.38651 0.0
H3875 H 0.7671 0.12374 0.38352 0.0
C3876 C 0.91187 0.75733 0.40436 0.0
C3877 C 0.91363 0.76533 0.39936 0.0
C3878 C 0.90217 0.77344 0.40828 0.0
C3879 C 0.90019 0.76536 0.41306 0.0
N3880 N 0.90156 0.74919 0.41414 0.0
N3881 N 0.90906 0.78035 0.39511 0.0
C3882 C 0.90454 0.75717 0.4106 0.0
C3883 C 0.90832 0.77318 0.40087 0.0
N3884 N 0.91747 0.75003 0.40351 0.0
N3885 N 0.89851 0.78145 0.41108 0.0
H3886 H 0.91345 0.78035 0.38961 0.0
H3887 H 0.90474 0.78592 0.39527 0.0
H3888 H 0.89396 0.78193 0.41643 0.0
H3889 H 0.90049 0.7877 0.40856 0.0
H3890 H 0.91717 0.74442 0.40773 0.0
H3891 H 0.92293 0.74985 0.39907 0.0
H3892 H 0.90381 0.74289 0.41193 0.0
H3893 H 0.89617 0.74882 0.41867 0.0
C3894 C 0.25805 0.90096 0.40733 0.0
C3895 C 0.26571 0.89981 0.41303 0.0
C3896 C 0.27342 0.91227 0.4052 0.0
C3897 C 0.26588 0.91323 0.39931 0.0
N3898 N 0.25191 0.90725 0.39346 0.0
N3899 N 0.28144 0.90284 0.41596 0.0
C3900 C 0.25847 0.90717 0.39997 0.0
C3901 C 0.27364 0.90499 0.41149 0.0
N3902 N 0.25022 0.89643 0.4092 0.0
N3903 N 0.28017 0.91856 0.40511 0.0
H3904 H 0.28184 0.89752 0.42057 0.0
H3905 H 0.28768 0.90572 0.41448 0.0
H3906 H 0.2803 0.92399 0.40064 0.0
H3907 H 0.28529 0.91883 0.40994 0.0
H3908 H 0.2441 0.89774 0.40597 0.0
H3909 H 0.24966 0.89178 0.41446 0.0
H3910 H 0.24682 0.90242 0.39302 0.0
H3911 H 0.25205 0.91169 0.38799 0.0
C3912 C 0.12454 0.75875 0.63077 0.0
C3913 C 0.11768 0.76548 0.63062 0.0
C3914 C 0.12446 0.77219 0.61706 0.0
C3915 C 0.13144 0.7656 0.61731 0.0
N3916 N 0.13922 0.75377 0.62531 0.0
N3917 N 0.11226 0.77976 0.62499 0.0
C3918 C 0.13182 0.75925 0.62447 0.0
C3919 C 0.11802 0.77257 0.62418 0.0
N3920 N 0.12388 0.75168 0.63666 0.0
N3921 N 0.12377 0.77787 0.6098 0.0
H3922 H 0.10748 0.78027 0.63014 0.0
H3923 H 0.11276 0.78559 0.6211 0.0
H3924 H 0.12843 0.77794 0.60453 0.0
H3925 H 0.11822 0.78206 0.60867 0.0
H3926 H 0.12806 0.74603 0.63644 0.0
H3927 H 0.11873 0.75117 0.64143 0.0
H3928 H 0.14039 0.74962 0.63086 0.0
H3929 H 0.14461 0.75393 0.62077 0.0
C3930 C 0.26845 0.13294 0.62596 0.0
C3931 C 0.26509 0.13117 0.61716 0.0
C3932 C 0.25807 0.1173 0.62282 0.0
C3933 C 0.26316 0.11803 0.63094 0.0
N3934 N 0.26589 0.12992 0.64171 0.0
N3935 N 0.25655 0.12153 0.60713 0.0
C3936 C 0.26647 0.12679 0.63308 0.0
C3937 C 0.2598 0.12334 0.61557 0.0
N3938 N 0.27349 0.14048 0.62758 0.0
N3939 N 0.25075 0.1117 0.62252 0.0
H3940 H 0.25745 0.12587 0.60166 0.0
H3941 H 0.25353 0.11539 0.60544 0.0
H3942 H 0.24855 0.10821 0.62823 0.0
H3943 H 0.24626 0.11149 0.6171 0.0
H3944 H 0.27679 0.14159 0.63371 0.0
H3945 H 0.2749 0.14526 0.6226 0.0
H3946 H 0.2676 0.1365 0.64355 0.0
H3947 H 0.26206 0.12653 0.64655 0.0
C3948 C 0.90345 0.27371 0.62069 0.0
C3949 C 0.90001 0.26542 0.61731 0.0
C3950 C 0.90919 0.2572 0.62848 0.0
C3951 C 0.91363 0.26537 0.63086 0.0
N3952 N 0.91566 0.28137 0.62848 0.0
N3953 N 0.90025 0.24912 0.61736 0.0
C3954 C 0.91088 0.27364 0.62683 0.0
C3955 C 0.90299 0.25711 0.6211 0.0
N3956 N 0.89952 0.28166 0.61811 0.0
N3957 N 0.91081 0.24955 0.63338 0.0
H3958 H 0.89572 0.24874 0.61197 0.0
H3959 H 0.903 0.24289 0.61914 0.0
H3960 H 0.91526 0.24942 0.63886 0.0
H3961 H 0.90713 0.24361 0.63259 0.0
H3962 H 0.9011 0.28787 0.62102 0.0
H3963 H 0.89403 0.28194 0.61368 0.0
H3964 H 0.91465 0.28736 0.62494 0.0
H3965 H 0.92116 0.28164 0.63288 0.0
C3966 C 0.77202 0.89981 0.6248 0.0
C3967 C 0.76549 0.89998 0.61776 0.0
C3968 C 0.75882 0.91379 0.62416 0.0
C3969 C 0.76523 0.91353 0.63131 0.0
N3970 N 0.77673 0.90544 0.63951 0.0
N3971 N 0.75147 0.90582 0.61184 0.0
C3972 C 0.77145 0.90625 0.63196 0.0
C3973 C 0.75851 0.90657 0.6178 0.0
N3974 N 0.77899 0.89375 0.62443 0.0
N3975 N 0.75328 0.92113 0.62321 0.0
H3976 H 0.75102 0.90061 0.60711 0.0
H3977 H 0.7457 0.90984 0.61211 0.0
H3978 H 0.75315 0.92647 0.62782 0.0
H3979 H 0.74926 0.92227 0.61755 0.0
H3980 H 0.78454 0.8939 0.62876 0.0
H3981 H 0.77953 0.88885 0.61938 0.0
H3982 H 0.78075 0.89982 0.64087 0.0
H3983 H 0.77651 0.91008 0.64481 0.0
C3984 C 0.40511 0.11954 0.25683 0.0
C3985 C 0.40026 0.11764 0.26487 0.0
C3986 C 0.40797 0.13029 0.27242 0.0
C3987 C 0.41373 0.1313 0.26482 0.0
N3988 N 0.41849 0.12614 0.2501 0.0
N3989 N 0.39758 0.12066 0.28065 0.0
C3990 C 0.41244 0.12578 0.25707 0.0
C3991 C 0.40176 0.12293 0.27274 0.0
N3992 N 0.40261 0.11548 0.24892 0.0
N3993 N 0.40834 0.13649 0.27926 0.0
H3994 H 0.39296 0.11538 0.28115 0.0
H3995 H 0.39918 0.12358 0.28684 0.0
H3996 H 0.41278 0.14196 0.2792 0.0
H3997 H 0.40372 0.13669 0.28455 0.0
H3998 H 0.40525 0.11726 0.24266 0.0
H3999 H 0.39724 0.11092 0.24851 0.0
H4000 H 0.41851 0.12155 0.24477 0.0
H4001 H 0.42396 0.13057 0.24998 0.0
C4002 C 0.91118 0.40449 0.25684 0.0
C4003 C 0.91339 0.39991 0.26497 0.0
C4004 C 0.90097 0.40785 0.27266 0.0
C4005 C 0.8997 0.41338 0.26493 0.0
N4006 N 0.9043 0.41762 0.24989 0.0
N4007 N 0.91094 0.39778 0.28092 0.0
C4008 C 0.90493 0.41182 0.25704 0.0
C4009 C 0.90837 0.40167 0.27295 0.0
N4010 N 0.91496 0.40171 0.24889 0.0
N4011 N 0.895 0.40843 0.27967 0.0
H4012 H 0.91627 0.3932 0.28143 0.0
H4013 H 0.90823 0.3996 0.28715 0.0
H4014 H 0.8895 0.41285 0.27964 0.0
H4015 H 0.89499 0.40397 0.28511 0.0
H4016 H 0.91295 0.40415 0.24261 0.0
H4017 H 0.91951 0.39633 0.24851 0.0
H4018 H 0.90869 0.41746 0.2444 0.0
H4019 H 0.89985 0.42309 0.24974 0.0
C4020 C 0.62901 0.90921 0.27312 0.0
C4021 C 0.63155 0.91342 0.26489 0.0
C4022 C 0.62047 0.90413 0.25669 0.0
C4023 C 0.61815 0.89969 0.26487 0.0
N4024 N 0.62168 0.89649 0.28042 0.0
N4025 N 0.63135 0.91334 0.24863 0.0
C4026 C 0.62291 0.90176 0.27295 0.0
C4027 C 0.6278 0.91036 0.2566 0.0
N4028 N 0.63206 0.9126 0.28115 0.0
N4029 N 0.61537 0.90277 0.2491 0.0
H4030 H 0.63676 0.91785 0.24833 0.0
H4031 H 0.62954 0.91068 0.24237 0.0
H4032 H 0.60992 0.89831 0.24886 0.0
H4033 H 0.61607 0.9066 0.24325 0.0
H4034 H 0.62963 0.91051 0.2874 0.0
H4035 H 0.63654 0.91802 0.28159 0.0
H4036 H 0.6256 0.89707 0.28624 0.0
H4037 H 0.61731 0.89096 0.28049 0.0
C4038 C 0.12702 0.63281 0.26684 0.0
C4039 C 0.1185 0.6311 0.26269 0.0
C4040 C 0.12398 0.61596 0.25848 0.0
C4041 C 0.13142 0.61697 0.26447 0.0
N4042 N 0.14009 0.62652 0.27444 0.0
N4043 N 0.11293 0.62375 0.2493 0.0
C4044 C 0.13295 0.62544 0.26869 0.0
C4045 C 0.11809 0.62341 0.25694 0.0
N4046 N 0.13028 0.6414 0.26719 0.0
N4047 N 0.1224 0.60785 0.25438 0.0
H4048 H 0.10956 0.62964 0.24737 0.0
H4049 H 0.11298 0.61872 0.24437 0.0
H4050 H 0.12667 0.60228 0.2551 0.0
H4051 H 0.11649 0.60648 0.25078 0.0
H4052 H 0.13672 0.64298 0.26959 0.0
H4053 H 0.12732 0.64655 0.26339 0.0
H4054 H 0.14096 0.63234 0.27833 0.0
H4055 H 0.14472 0.62137 0.27579 0.0
C4056 C 0.41449 0.90856 0.75768 0.0
C4057 C 0.41374 0.90022 0.76238 0.0
C4058 C 0.39857 0.90489 0.7674 0.0
C4059 C 0.40035 0.91385 0.76451 0.0
N4060 N 0.41021 0.9243 0.7568 0.0
N4061 N 0.40189 0.88925 0.76434 0.0
C4062 C 0.40835 0.9157 0.75959 0.0
C4063 C 0.40489 0.8979 0.76533 0.0
N4064 N 0.42016 0.90918 0.75044 0.0
N4065 N 0.39087 0.903 0.77208 0.0
H4066 H 0.40551 0.88456 0.76053 0.0
H4067 H 0.39528 0.88728 0.76575 0.0
H4068 H 0.38599 0.90789 0.77353 0.0
H4069 H 0.38971 0.89673 0.77506 0.0
H4070 H 0.42039 0.91479 0.74621 0.0
H4071 H 0.42367 0.90356 0.748 0.0
H4072 H 0.41643 0.92612 0.75406 0.0
H4073 H 0.40581 0.92971 0.75784 0.0
C4074 C 0.1177 0.40802 0.77251 0.0
C4075 C 0.11842 0.39992 0.76738 0.0
C4076 C 0.13335 0.40498 0.76215 0.0
C4077 C 0.13158 0.41378 0.76554 0.0
N4078 N 0.12188 0.42373 0.77411 0.0
N4079 N 0.13033 0.38919 0.76455 0.0
C4080 C 0.12372 0.4153 0.77082 0.0
C4081 C 0.12719 0.39783 0.76405 0.0
N4082 N 0.11214 0.40825 0.77986 0.0
N4083 N 0.14092 0.40341 0.75712 0.0
H4084 H 0.12693 0.38432 0.76832 0.0
H4085 H 0.13692 0.38737 0.76282 0.0
H4086 H 0.1457 0.40841 0.75577 0.0
H4087 H 0.14205 0.3973 0.75379 0.0
H4088 H 0.11194 0.41365 0.78438 0.0
H4089 H 0.10868 0.40251 0.78205 0.0
H4090 H 0.11572 0.42537 0.77712 0.0
H4091 H 0.1262 0.42922 0.77324 0.0
C4092 C 0.61481 0.12098 0.76503 0.0
C4093 C 0.61727 0.13025 0.76491 0.0
C4094 C 0.63335 0.12591 0.76558 0.0
C4095 C 0.63086 0.11666 0.76488 0.0
N4096 N 0.61929 0.10551 0.76212 0.0
N4097 N 0.62887 0.14161 0.76379 0.0
C4098 C 0.6216 0.11424 0.76409 0.0
C4099 C 0.62655 0.13274 0.76484 0.0
N4100 N 0.60598 0.11859 0.76638 0.0
N4101 N 0.64216 0.12814 0.76724 0.0
H4102 H 0.62408 0.14677 0.76329 0.0
H4103 H 0.63547 0.14379 0.76272 0.0
H4104 H 0.64729 0.12333 0.76774 0.0
H4105 H 0.64428 0.13467 0.76879 0.0
H4106 H 0.60392 0.11197 0.76754 0.0
H4107 H 0.6008 0.1233 0.7672 0.0
H4108 H 0.61274 0.10353 0.76047 0.0
H4109 H 0.62405 0.10037 0.7613 0.0
C4110 C 0.90433 0.63284 0.76347 0.0
C4111 C 0.9129 0.6311 0.76749 0.0
C4112 C 0.90755 0.61591 0.77156 0.0
C4113 C 0.90004 0.61697 0.76567 0.0
N4114 N 0.8912 0.62661 0.75594 0.0
N4115 N 0.91864 0.62363 0.78074 0.0
C4116 C 0.89841 0.62548 0.76159 0.0
C4117 C 0.91341 0.62335 0.77314 0.0
N4118 N 0.90102 0.64143 0.76328 0.0
N4119 N 0.90922 0.60774 0.77553 0.0
H4120 H 0.92198 0.62952 0.78272 0.0
H4121 H 0.91866 0.61854 0.7856 0.0
H4122 H 0.90498 0.60217 0.77476 0.0
H4123 H 0.91518 0.60636 0.77903 0.0
H4124 H 0.89455 0.64302 0.76098 0.0
H4125 H 0.90404 0.64655 0.76708 0.0
H4126 H 0.89025 0.63247 0.75215 0.0
H4127 H 0.88658 0.62146 0.75457 0.0
C4128 C 0.27407 0.40266 0.12094 0.0
C4129 C 0.26577 0.39964 0.11715 0.0
C4130 C 0.25747 0.41039 0.12674 0.0
C4131 C 0.26574 0.41319 0.13076 0.0
N4132 N 0.2816 0.41047 0.13326 0.0
N4133 N 0.24952 0.39901 0.11799 0.0
C4134 C 0.27394 0.40882 0.12836 0.0
C4135 C 0.25745 0.403 0.12056 0.0
N4136 N 0.28208 0.40002 0.11719 0.0
N4137 N 0.24969 0.41509 0.12844 0.0
H4138 H 0.24928 0.39355 0.11354 0.0
H4139 H 0.2433 0.40052 0.12092 0.0
H4140 H 0.24938 0.42055 0.13287 0.0
H4141 H 0.24368 0.41404 0.12491 0.0
H4142 H 0.2883 0.4028 0.11897 0.0
H4143 H 0.28249 0.39553 0.11177 0.0
H4144 H 0.28758 0.40683 0.13245 0.0
H4145 H 0.28172 0.41488 0.13876 0.0
C4146 C 0.25709 0.62813 0.90938 0.0
C4147 C 0.26539 0.63131 0.913 0.0
C4148 C 0.27368 0.62185 0.90213 0.0
C4149 C 0.26543 0.61774 0.89944 0.0
N4150 N 0.24926 0.61634 0.90109 0.0
N4151 N 0.28168 0.63072 0.91337 0.0
C4152 C 0.25711 0.62078 0.90315 0.0
C4153 C 0.27372 0.6281 0.90946 0.0
N4154 N 0.24918 0.63224 0.91183 0.0
N4155 N 0.28146 0.61986 0.89756 0.0
H4156 H 0.28201 0.6354 0.91864 0.0
H4157 H 0.28791 0.62781 0.91184 0.0
H4158 H 0.28164 0.61534 0.89216 0.0
H4159 H 0.28753 0.62327 0.89857 0.0
H4160 H 0.24299 0.63089 0.90876 0.0
H4161 H 0.24895 0.63763 0.91638 0.0
H4162 H 0.24316 0.61754 0.90437 0.0
H4163 H 0.24897 0.61096 0.89656 0.0
C4164 C 0.40084 0.27238 0.90659 0.0
C4165 C 0.40008 0.26496 0.91262 0.0
C4166 C 0.41298 0.25753 0.90523 0.0
C4167 C 0.41358 0.26483 0.89904 0.0
N4168 N 0.40708 0.27828 0.89262 0.0
N4169 N 0.40404 0.24966 0.91648 0.0
C4170 C 0.40718 0.27197 0.89935 0.0
C4171 C 0.40572 0.25727 0.91154 0.0
N4172 N 0.39576 0.27997 0.90801 0.0
N4173 N 0.41958 0.25105 0.90537 0.0
H4174 H 0.3988 0.24926 0.92118 0.0
H4175 H 0.40728 0.24351 0.91537 0.0
H4176 H 0.42495 0.25093 0.90082 0.0
H4177 H 0.42013 0.24617 0.9104 0.0
H4178 H 0.39672 0.286 0.90455 0.0
H4179 H 0.39092 0.28044 0.91311 0.0
H4180 H 0.40205 0.28315 0.89191 0.0
H4181 H 0.41165 0.27818 0.88725 0.0
C4182 C 0.7576 0.40457 0.91098 0.0
C4183 C 0.7656 0.39959 0.91288 0.0
C4184 C 0.77382 0.40849 0.90152 0.0
C4185 C 0.76574 0.41326 0.89941 0.0
N4186 N 0.74953 0.41431 0.90053 0.0
N4187 N 0.78071 0.39534 0.90853 0.0
C4188 C 0.7575 0.41079 0.90364 0.0
C4189 C 0.77352 0.40109 0.90768 0.0
N4190 N 0.75023 0.40372 0.91647 0.0
N4191 N 0.78187 0.41131 0.89798 0.0
H4192 H 0.78067 0.38985 0.91294 0.0
H4193 H 0.78633 0.3955 0.90431 0.0
H4194 H 0.78239 0.41665 0.89343 0.0
H4195 H 0.78812 0.4088 0.90006 0.0
H4196 H 0.74459 0.40793 0.91607 0.0
H4197 H 0.75 0.39928 0.92193 0.0
H4198 H 0.74321 0.4121 0.90269 0.0
H4199 H 0.74922 0.41883 0.89514 0.0
C4200 C 0.62801 0.76652 0.89791 0.0
C4201 C 0.61931 0.7629 0.89978 0.0
C4202 C 0.62452 0.75926 0.91513 0.0
C4203 C 0.63219 0.76485 0.91386 0.0
N4204 N 0.6414 0.77381 0.90385 0.0
N4205 N 0.61324 0.75008 0.9077 0.0
C4206 C 0.63399 0.76849 0.90519 0.0
C4207 C 0.61863 0.75756 0.90773 0.0
N4208 N 0.63129 0.76625 0.88932 0.0
N4209 N 0.62272 0.75566 0.92343 0.0
H4210 H 0.60989 0.74796 0.90186 0.0
H4211 H 0.61308 0.74542 0.91297 0.0
H4212 H 0.62698 0.7565 0.92899 0.0
H4213 H 0.61666 0.7524 0.92492 0.0
H4214 H 0.63785 0.7682 0.88765 0.0
H4215 H 0.62807 0.76247 0.88431 0.0
H4216 H 0.64249 0.7773 0.89783 0.0
H4217 H 0.64605 0.77524 0.90896 0.0
C4218 C 0.75916 0.62451 0.13005 0.0
C4219 C 0.76623 0.61802 0.13044 0.0
C4220 C 0.77381 0.62559 0.11778 0.0
C4221 C 0.76613 0.63122 0.11656 0.0
N4222 N 0.75111 0.63564 0.12108 0.0
N4223 N 0.77989 0.61175 0.1241 0.0
C4224 C 0.75873 0.63064 0.12263 0.0
C4225 C 0.7735 0.61844 0.1242 0.0
N4226 N 0.75293 0.62487 0.13685 0.0
N4227 N 0.78148 0.62719 0.11289 0.0
H4228 H 0.77995 0.60642 0.12869 0.0
H4229 H 0.78472 0.61109 0.11903 0.0
H4230 H 0.78195 0.63239 0.10817 0.0
H4231 H 0.78761 0.62394 0.11411 0.0
H4232 H 0.74814 0.62999 0.13746 0.0
H4233 H 0.75307 0.62048 0.14235 0.0
H4234 H 0.7451 0.63477 0.12462 0.0
H4235 H 0.75056 0.64026 0.11579 0.0
C4236 C 0.41434 0.75766 0.12272 0.0
C4237 C 0.41374 0.76273 0.13085 0.0
C4238 C 0.39877 0.76812 0.126 0.0
C4239 C 0.40042 0.76477 0.11718 0.0
N4240 N 0.40993 0.7562 0.10705 0.0
N4241 N 0.40196 0.76554 0.14172 0.0
C4242 C 0.40823 0.75945 0.11552 0.0
C4243 C 0.405 0.7661 0.13306 0.0
N4244 N 0.41988 0.75029 0.12236 0.0
N4245 N 0.39125 0.7732 0.12769 0.0
H4246 H 0.40541 0.76169 0.14653 0.0
H4247 H 0.3954 0.76728 0.14362 0.0
H4248 H 0.38642 0.77464 0.12275 0.0
H4249 H 0.39022 0.77649 0.13383 0.0
H4250 H 0.42 0.74581 0.11693 0.0
H4251 H 0.42341 0.74803 0.12804 0.0
H4252 H 0.41605 0.75316 0.10532 0.0
H4253 H 0.40553 0.75714 0.10162 0.0
C4254 C 0.62929 0.27264 0.12336 0.0
C4255 C 0.63079 0.26487 0.11793 0.0
C4256 C 0.61829 0.25706 0.12561 0.0
C4257 C 0.61695 0.26474 0.13121 0.0
N4258 N 0.62226 0.2791 0.13672 0.0
N4259 N 0.6281 0.24907 0.11514 0.0
C4260 C 0.6228 0.27231 0.13048 0.0
C4261 C 0.62572 0.25688 0.11948 0.0
N4262 N 0.63382 0.28046 0.12148 0.0
N4263 N 0.61221 0.25011 0.12581 0.0
H4264 H 0.63345 0.24873 0.11057 0.0
H4265 H 0.62532 0.24279 0.11665 0.0
H4266 H 0.60671 0.24995 0.13021 0.0
H4267 H 0.61219 0.24482 0.12117 0.0
H4268 H 0.63228 0.28665 0.12443 0.0
H4269 H 0.63878 0.28089 0.1165 0.0
H4270 H 0.62689 0.28437 0.13714 0.0
H4271 H 0.61759 0.27905 0.142 0.0
C4272 C 0.89943 0.76203 0.62422 0.0
C4273 C 0.90111 0.76641 0.61587 0.0
C4274 C 0.91475 0.77317 0.62245 0.0
C4275 C 0.91419 0.76718 0.62994 0.0
N4276 N 0.90235 0.76283 0.6402 0.0
N4277 N 0.91056 0.77626 0.60697 0.0
C4278 C 0.90552 0.76336 0.63158 0.0
C4279 C 0.90879 0.77207 0.61499 0.0
N4280 N 0.89202 0.75664 0.6252 0.0
N4281 N 0.92008 0.78067 0.62304 0.0
H4282 H 0.90631 0.77577 0.60136 0.0
H4283 H 0.91661 0.77964 0.60572 0.0
H4284 H 0.92348 0.78234 0.629 0.0
H4285 H 0.92014 0.78575 0.61818 0.0
H4286 H 0.891 0.75262 0.63089 0.0
H4287 H 0.88726 0.75573 0.62007 0.0
H4288 H 0.89583 0.76069 0.64177 0.0
H4289 H 0.9056 0.76621 0.64547 0.0
C4290 C 0.26552 0.91642 0.61966 0.0
C4291 C 0.26616 0.91386 0.62888 0.0
C4292 C 0.2664 0.89784 0.62437 0.0
C4293 C 0.26506 0.90043 0.61523 0.0
N4294 N 0.26161 0.91207 0.60438 0.0
N4295 N 0.26594 0.90219 0.64021 0.0
C4296 C 0.26412 0.90969 0.61294 0.0
C4297 C 0.26625 0.90457 0.6313 0.0
N4298 N 0.26659 0.92528 0.61728 0.0
N4299 N 0.26807 0.88899 0.62639 0.0
H4300 H 0.26592 0.90694 0.64542 0.0
H4301 H 0.26503 0.89559 0.64243 0.0
H4302 H 0.26809 0.8839 0.62152 0.0
H4303 H 0.27007 0.88677 0.63276 0.0
H4304 H 0.26723 0.92743 0.61062 0.0
H4305 H 0.26766 0.93043 0.62197 0.0
H4306 H 0.25981 0.91862 0.60255 0.0
H4307 H 0.26051 0.90736 0.59924 0.0
C4308 C 0.1184 0.27343 0.62417 0.0
C4309 C 0.11686 0.26599 0.63003 0.0
C4310 C 0.12858 0.25728 0.62208 0.0
C4311 C 0.13032 0.26482 0.61643 0.0
N4312 N 0.12851 0.28074 0.61357 0.0
N4313 N 0.12185 0.25168 0.63594 0.0
C4314 C 0.12574 0.27312 0.61797 0.0
C4315 C 0.1224 0.25817 0.62941 0.0
N4316 N 0.11256 0.2806 0.62418 0.0
N4317 N 0.13252 0.24913 0.6202 0.0
H4318 H 0.11744 0.25217 0.64141 0.0
H4319 H 0.12632 0.24625 0.63639 0.0
H4320 H 0.13712 0.24821 0.61495 0.0
H4321 H 0.13073 0.24314 0.62341 0.0
H4322 H 0.11272 0.28571 0.61935 0.0
H4323 H 0.10707 0.28111 0.62855 0.0
H4324 H 0.12607 0.28717 0.61507 0.0
H4325 H 0.1339 0.28075 0.60903 0.0
C4326 C 0.75797 0.12279 0.62808 0.0
C4327 C 0.7652 0.11658 0.62936 0.0
C4328 C 0.77377 0.12415 0.61729 0.0
C4329 C 0.7665 0.13033 0.61602 0.0
N4330 N 0.75204 0.13612 0.62088 0.0
N4331 N 0.78079 0.11272 0.62676 0.0
C4332 C 0.75878 0.12986 0.62168 0.0
C4333 C 0.77336 0.1177 0.62445 0.0
N4334 N 0.7501 0.12209 0.63279 0.0
N4335 N 0.78083 0.12408 0.61134 0.0
H4336 H 0.78073 0.10796 0.63196 0.0
H4337 H 0.78722 0.11385 0.62414 0.0
H4338 H 0.78142 0.12866 0.60604 0.0
H4339 H 0.78577 0.11906 0.61122 0.0
H4340 H 0.7488 0.11709 0.63758 0.0
H4341 H 0.7488 0.11709 0.63758 0.0
H4342 H 0.74622 0.13597 0.62487 0.0
H4343 H 0.7524 0.14159 0.61645 0.0
C4344 C 0.91544 0.2577 0.40799 0.0
C4345 C 0.91482 0.26326 0.40019 0.0
C4346 C 0.89969 0.26803 0.40527 0.0
C4347 C 0.90142 0.26425 0.41391 0.0
N4348 N 0.91125 0.25551 0.42359 0.0
N4349 N 0.90309 0.26668 0.38941 0.0
C4350 C 0.90936 0.25906 0.41528 0.0
C4351 C 0.90603 0.26662 0.39814 0.0
N4352 N 0.92084 0.25022 0.40785 0.0
N4353 N 0.89201 0.27295 0.40382 0.0
H4354 H 0.90675 0.26345 0.38432 0.0
H4355 H 0.89651 0.26839 0.38755 0.0
H4356 H 0.88709 0.27388 0.40878 0.0
H4357 H 0.8909 0.27658 0.3979 0.0
H4358 H 0.92093 0.24545 0.41302 0.0
H4359 H 0.9242 0.2482 0.40198 0.0
H4360 H 0.91743 0.25248 0.4251 0.0
H4361 H 0.90695 0.25624 0.42912 0.0
C4362 C 0.77385 0.91441 0.40667 0.0
C4363 C 0.76764 0.91398 0.39933 0.0
C4364 C 0.76241 0.8993 0.40505 0.0
C4365 C 0.76707 0.90084 0.41329 0.0
N4366 N 0.77731 0.91007 0.42203 0.0
N4367 N 0.76282 0.90229 0.38909 0.0
C4368 C 0.77288 0.90842 0.4141 0.0
C4369 C 0.76363 0.9054 0.39771 0.0
N4370 N 0.78135 0.91972 0.40597 0.0
N4371 N 0.75686 0.89198 0.40416 0.0
H4372 H 0.76617 0.90546 0.38378 0.0
H4373 H 0.7605 0.89583 0.38752 0.0
H4374 H 0.75603 0.8872 0.40927 0.0
H4375 H 0.75266 0.89107 0.39858 0.0
H4376 H 0.78657 0.9197 0.4107 0.0
H4377 H 0.78286 0.9232 0.40003 0.0
H4378 H 0.78081 0.91606 0.42325 0.0
H4379 H 0.77691 0.90581 0.42761 0.0
C4380 C 0.12239 0.77219 0.41472 0.0
C4381 C 0.13012 0.7666 0.41371 0.0
C4382 C 0.12557 0.76359 0.39803 0.0
C4383 C 0.11688 0.76734 0.3998 0.0
N4384 N 0.11096 0.78076 0.40684 0.0
N4385 N 0.13922 0.75696 0.40421 0.0
C4386 C 0.11635 0.77329 0.40732 0.0
C4387 C 0.13175 0.76228 0.40531 0.0
N4388 N 0.12065 0.7763 0.42279 0.0
N4389 N 0.12864 0.76312 0.38937 0.0
H4390 H 0.14405 0.75607 0.40927 0.0
H4391 H 0.14021 0.75298 0.39849 0.0
H4392 H 0.12528 0.76646 0.38415 0.0
H4393 H 0.13517 0.76105 0.3877 0.0
H4394 H 0.11458 0.77962 0.42413 0.0
H4395 H 0.12495 0.77579 0.42836 0.0
H4396 H 0.11091 0.78581 0.41174 0.0
H4397 H 0.10749 0.78244 0.40092 0.0
C4398 C 0.25788 0.11646 0.40542 0.0
C4399 C 0.26557 0.11583 0.39975 0.0
C4400 C 0.27153 0.12988 0.40634 0.0
C4401 C 0.26453 0.12973 0.4129 0.0
N4402 N 0.25148 0.12233 0.41929 0.0
N4403 N 0.27981 0.12126 0.39488 0.0
C4404 C 0.25776 0.12292 0.41256 0.0
C4405 C 0.27239 0.12248 0.40017 0.0
N4406 N 0.25059 0.11102 0.40383 0.0
N4407 N 0.27721 0.13714 0.40594 0.0
H4408 H 0.28557 0.12531 0.39505 0.0
H4409 H 0.28557 0.12531 0.39505 0.0
H4410 H 0.27672 0.14259 0.41039 0.0
H4411 H 0.28187 0.13818 0.40079 0.0
H4412 H 0.24442 0.11175 0.40714 0.0
H4413 H 0.25041 0.10636 0.39854 0.0
H4414 H 0.24706 0.1169 0.41997 0.0
H4415 H 0.25111 0.1269 0.42463 0.0
C4416 C 0.63196 0.90604 0.76776 0.0
C4417 C 0.63023 0.9146 0.76381 0.0
C4418 C 0.6163 0.90848 0.75723 0.0
C4419 C 0.61693 0.90077 0.76293 0.0
N4420 N 0.6287 0.89014 0.76659 0.0
N4421 N 0.62046 0.92405 0.75476 0.0
C4422 C 0.6257 0.89884 0.7664 0.0
C4423 C 0.62234 0.91583 0.75849 0.0
N4424 N 0.6396 0.90473 0.77279 0.0
N4425 N 0.61089 0.90819 0.74976 0.0
H4426 H 0.62473 0.92962 0.75541 0.0
H4427 H 0.6143 0.92549 0.75164 0.0
H4428 H 0.60751 0.9023 0.74787 0.0
H4429 H 0.61079 0.91327 0.74489 0.0
H4430 H 0.64071 0.89887 0.77653 0.0
H4431 H 0.64447 0.90974 0.77369 0.0
H4432 H 0.63528 0.88835 0.76841 0.0
H4433 H 0.62515 0.88499 0.76334 0.0
C4434 C 0.13239 0.62444 0.7621 0.0
C4435 C 0.1306 0.6159 0.76607 0.0
C4436 C 0.11673 0.62216 0.77263 0.0
C4437 C 0.11742 0.62987 0.76695 0.0
N4438 N 0.12931 0.64037 0.76335 0.0
N4439 N 0.12083 0.60656 0.77517 0.0
C4440 C 0.1262 0.63171 0.76349 0.0
C4441 C 0.12273 0.61476 0.7714 0.0
N4442 N 0.13999 0.62567 0.75704 0.0
N4443 N 0.11124 0.62247 0.78002 0.0
H4444 H 0.12509 0.60097 0.77457 0.0
H4445 H 0.11467 0.60517 0.77829 0.0
H4446 H 0.10785 0.62837 0.78187 0.0
H4447 H 0.11108 0.6174 0.7849 0.0
H4448 H 0.14113 0.63152 0.7533 0.0
H4449 H 0.14481 0.6206 0.75611 0.0
H4450 H 0.13589 0.64207 0.76153 0.0
H4451 H 0.12586 0.64553 0.76672 0.0
C4452 C 0.41461 0.12314 0.75694 0.0
C4453 C 0.41415 0.13042 0.7632 0.0
C4454 C 0.39965 0.12439 0.76864 0.0
C4455 C 0.40125 0.11621 0.76388 0.0
N4456 N 0.4104 0.10776 0.75335 0.0
N4457 N 0.40233 0.14041 0.76828 0.0
C4458 C 0.40873 0.11561 0.75792 0.0
C4459 C 0.4056 0.13185 0.76737 0.0
N4460 N 0.41984 0.12398 0.74941 0.0
N4461 N 0.39243 0.1251 0.77433 0.0
H4462 H 0.40531 0.14579 0.76486 0.0
H4463 H 0.39589 0.14184 0.77074 0.0
H4464 H 0.38776 0.1199 0.77521 0.0
H4465 H 0.39151 0.13063 0.77859 0.0
H4466 H 0.41983 0.1193 0.74415 0.0
H4467 H 0.42324 0.12998 0.74793 0.0
H4468 H 0.41634 0.10665 0.74973 0.0
H4469 H 0.4062 0.10212 0.75374 0.0
C4470 C 0.89923 0.40615 0.76167 0.0
C4471 C 0.90091 0.41443 0.76621 0.0
C4472 C 0.91452 0.40772 0.77291 0.0
C4473 C 0.91397 0.40035 0.76677 0.0
N4474 N 0.90214 0.39016 0.76216 0.0
N4475 N 0.91034 0.42315 0.77629 0.0
C4476 C 0.90531 0.39877 0.76288 0.0
C4477 C 0.90857 0.4152 0.77194 0.0
N4478 N 0.89182 0.40528 0.75623 0.0
N4479 N 0.91988 0.407 0.78039 0.0
H4480 H 0.9061 0.42877 0.77589 0.0
H4481 H 0.91638 0.42434 0.77973 0.0
H4482 H 0.9233 0.40102 0.78192 0.0
H4483 H 0.91994 0.41177 0.78556 0.0
H4484 H 0.89081 0.39966 0.7521 0.0
H4485 H 0.88706 0.41042 0.7554 0.0
H4486 H 0.89562 0.38862 0.75996 0.0
H4487 H 0.90538 0.38482 0.76545 0.0
C4488 C 0.62623 0.13185 0.26188 0.0
C4489 C 0.61783 0.13078 0.26643 0.0
C4490 C 0.62329 0.11615 0.27225 0.0
C4491 C 0.63056 0.11636 0.26601 0.0
N4492 N 0.639 0.12452 0.25473 0.0
N4493 N 0.61215 0.1249 0.28045 0.0
C4494 C 0.63202 0.12423 0.26074 0.0
C4495 C 0.61744 0.12377 0.27299 0.0
N4496 N 0.6296 0.14028 0.26045 0.0
N4497 N 0.62174 0.10857 0.27726 0.0
H4498 H 0.60863 0.13091 0.28162 0.0
H4499 H 0.61216 0.12047 0.28591 0.0
H4500 H 0.62593 0.1029 0.27704 0.0
H4501 H 0.61592 0.10765 0.28111 0.0
H4502 H 0.63591 0.14147 0.25756 0.0
H4503 H 0.62707 0.14581 0.26401 0.0
H4504 H 0.63978 0.12979 0.25012 0.0
H4505 H 0.64358 0.11922 0.25393 0.0
C4506 C 0.91764 0.6201 0.26448 0.0
C4507 C 0.9151 0.62932 0.26524 0.0
C4508 C 0.89907 0.62485 0.26566 0.0
C4509 C 0.90162 0.61571 0.26421 0.0
N4510 N 0.9132 0.60483 0.26056 0.0
N4511 N 0.90343 0.64069 0.26531 0.0
C4512 C 0.91088 0.6134 0.26314 0.0
C4513 C 0.90581 0.63176 0.26549 0.0
N4514 N 0.92653 0.61768 0.26538 0.0
N4515 N 0.89023 0.62689 0.26745 0.0
H4516 H 0.90819 0.64589 0.26528 0.0
H4517 H 0.89681 0.64294 0.26451 0.0
H4518 H 0.88513 0.62203 0.26747 0.0
H4519 H 0.88804 0.63324 0.26953 0.0
H4520 H 0.9287 0.61101 0.26593 0.0
H4521 H 0.93171 0.62236 0.26639 0.0
H4522 H 0.91972 0.60299 0.25867 0.0
H4523 H 0.90846 0.59971 0.25953 0.0
C4524 C 0.41737 0.91031 0.26288 0.0
C4525 C 0.41508 0.90109 0.26416 0.0
C4526 C 0.39905 0.90531 0.26568 0.0
C4527 C 0.40148 0.91458 0.26522 0.0
N4528 N 0.41311 0.92599 0.26493 0.0
N4529 N 0.40398 0.88978 0.26781 0.0
C4530 C 0.41069 0.9171 0.26424 0.0
C4531 C 0.40597 0.89857 0.26583 0.0
N4532 N 0.42588 0.91258 0.2601 0.0
N4533 N 0.39011 0.90295 0.26572 0.0
H4534 H 0.40885 0.88468 0.26783 0.0
H4535 H 0.39767 0.88764 0.27006 0.0
H4536 H 0.3849 0.90771 0.26571 0.0
H4537 H 0.38784 0.89633 0.26508 0.0
H4538 H 0.42768 0.91906 0.25805 0.0
H4539 H 0.43098 0.90782 0.25905 0.0
H4540 H 0.4198 0.92816 0.26531 0.0
H4541 H 0.40845 0.93119 0.26595 0.0
C4542 C 0.13147 0.40765 0.27088 0.0
C4543 C 0.131 0.41429 0.26398 0.0
C4544 C 0.1176 0.40672 0.25767 0.0
C4545 C 0.11731 0.40092 0.26528 0.0
N4546 N 0.12361 0.39613 0.27951 0.0
N4547 N 0.1231 0.42073 0.25124 0.0
C4548 C 0.1242 0.40139 0.27196 0.0
C4549 C 0.12397 0.41393 0.25743 0.0
N4550 N 0.13894 0.40724 0.2763 0.0
N4551 N 0.11187 0.40523 0.25057 0.0
H4552 H 0.12763 0.42611 0.25078 0.0
H4553 H 0.11752 0.42142 0.24701 0.0
H4554 H 0.10714 0.4 0.25052 0.0
H4555 H 0.11235 0.40861 0.24443 0.0
H4556 H 0.14016 0.40204 0.28087 0.0
H4557 H 0.14435 0.41173 0.27567 0.0
H4558 H 0.12782 0.39687 0.2851 0.0
H4559 H 0.11849 0.39139 0.28047 0.0
C4560 C 0.76386 0.6202 0.91686 0.0
C4561 C 0.76508 0.62942 0.91453 0.0
C4562 C 0.76661 0.6251 0.89854 0.0
C4563 C 0.76623 0.61583 0.90102 0.0
N4564 N 0.76603 0.60451 0.91272 0.0
N4565 N 0.76862 0.64068 0.90336 0.0
C4566 C 0.76526 0.61338 0.91024 0.0
C4567 C 0.76671 0.63189 0.90541 0.0
N4568 N 0.7611 0.61797 0.92539 0.0
N4569 N 0.76662 0.6274 0.8896 0.0
H4570 H 0.76859 0.64582 0.90819 0.0
H4571 H 0.77084 0.6428 0.89704 0.0
H4572 H 0.76663 0.62261 0.88443 0.0
H4573 H 0.76592 0.63401 0.88729 0.0
H4574 H 0.7591 0.61149 0.92722 0.0
H4575 H 0.76003 0.62276 0.93045 0.0
H4576 H 0.76643 0.60239 0.91941 0.0
H4577 H 0.76708 0.59929 0.9081 0.0
C4578 C 0.77189 0.39963 0.12255 0.0
C4579 C 0.76486 0.40003 0.11601 0.0
C4580 C 0.75835 0.41314 0.12387 0.0
C4581 C 0.76608 0.41356 0.12954 0.0
N4582 N 0.78055 0.40754 0.13404 0.0
N4583 N 0.7518 0.40768 0.10989 0.0
C4584 C 0.77291 0.40683 0.12889 0.0
C4585 C 0.75814 0.40687 0.11657 0.0
N4586 N 0.77749 0.39229 0.12276 0.0
N4587 N 0.75114 0.41868 0.12556 0.0
H4588 H 0.75136 0.40322 0.10445 0.0
H4589 H 0.74741 0.41315 0.10935 0.0
H4590 H 0.75107 0.42332 0.13087 0.0
H4591 H 0.74494 0.41809 0.12227 0.0
H4592 H 0.78218 0.39112 0.12788 0.0
H4593 H 0.77691 0.38694 0.11821 0.0
H4594 H 0.78623 0.40348 0.13316 0.0
H4595 H 0.78146 0.41261 0.13885 0.0
C4596 C 0.61398 0.76742 0.11989 0.0
C4597 C 0.61634 0.7662 0.1291 0.0
C4598 C 0.63236 0.76472 0.12478 0.0
C4599 C 0.62985 0.76511 0.11552 0.0
N4600 N 0.6181 0.7653 0.1042 0.0
N4601 N 0.62757 0.76266 0.14035 0.0
C4602 C 0.62061 0.76605 0.11307 0.0
C4603 C 0.62549 0.76458 0.13157 0.0
N4604 N 0.60542 0.77015 0.11767 0.0
N4605 N 0.64131 0.76472 0.12708 0.0
H4606 H 0.62275 0.76267 0.14549 0.0
H4607 H 0.63392 0.76044 0.14246 0.0
H4608 H 0.64648 0.76473 0.1223 0.0
H4609 H 0.64364 0.7654 0.13369 0.0
H4610 H 0.60356 0.77216 0.11119 0.0
H4611 H 0.60035 0.7712 0.12245 0.0
H4612 H 0.6114 0.76488 0.10209 0.0
H4613 H 0.62272 0.76427 0.09898 0.0
C4614 C 0.26598 0.61333 0.11987 0.0
C4615 C 0.26533 0.6158 0.12911 0.0
C4616 C 0.26517 0.63187 0.12477 0.0
C4617 C 0.26652 0.62937 0.1156 0.0
N4618 N 0.26988 0.61781 0.10462 0.0
N4619 N 0.26555 0.62737 0.14056 0.0
C4620 C 0.26741 0.62012 0.11322 0.0
C4621 C 0.26527 0.62507 0.13162 0.0
N4622 N 0.26489 0.60449 0.11738 0.0
N4623 N 0.26355 0.64071 0.12688 0.0
H4624 H 0.26553 0.62258 0.14572 0.0
H4625 H 0.26649 0.63395 0.14286 0.0
H4626 H 0.26358 0.64585 0.12206 0.0
H4627 H 0.26154 0.64288 0.13326 0.0
H4628 H 0.26425 0.6024 0.1107 0.0
H4629 H 0.26381 0.5993 0.12202 0.0
H4630 H 0.27165 0.61127 0.10273 0.0
H4631 H 0.27098 0.62256 0.09954 0.0
C4632 C 0.41262 0.25696 0.12485 0.0
C4633 C 0.41468 0.26466 0.13021 0.0
C4634 C 0.40343 0.27354 0.12175 0.0
C4635 C 0.40115 0.26575 0.11661 0.0
N4636 N 0.40194 0.2496 0.1148 0.0
N4637 N 0.41061 0.2796 0.13521 0.0
C4638 C 0.40523 0.25731 0.11867 0.0
C4639 C 0.40961 0.27274 0.12911 0.0
N4640 N 0.418 0.24945 0.12529 0.0
N4641 N 0.40003 0.28178 0.11934 0.0
H4642 H 0.41503 0.2792 0.14069 0.0
H4643 H 0.40648 0.2853 0.13533 0.0
H4644 H 0.39546 0.28265 0.11403 0.0
H4645 H 0.40224 0.28784 0.12214 0.0
H4646 H 0.41747 0.24405 0.12081 0.0
H4647 H 0.4235 0.2489 0.12967 0.0
H4648 H 0.404 0.24314 0.1167 0.0
H4649 H 0.3965 0.24961 0.1103 0.0
C4650 C 0.27381 0.41115 0.90421 0.0
C4651 C 0.2653 0.41352 0.90042 0.0
C4652 C 0.25814 0.40141 0.90923 0.0
C4653 C 0.26634 0.40006 0.91404 0.0
N4654 N 0.28186 0.40435 0.91675 0.0
N4655 N 0.24913 0.41146 0.89991 0.0
C4656 C 0.27418 0.40505 0.91164 0.0
C4657 C 0.2574 0.40873 0.90302 0.0
N4658 N 0.28155 0.41465 0.9006 0.0
N4659 N 0.25108 0.3956 0.91051 0.0
H4660 H 0.24829 0.41675 0.89536 0.0
H4661 H 0.24305 0.40892 0.90237 0.0
H4662 H 0.25144 0.39015 0.91496 0.0
H4663 H 0.24525 0.39566 0.90657 0.0
H4664 H 0.288 0.4125 0.90244 0.0
H4665 H 0.2815 0.41907 0.89511 0.0
H4666 H 0.28742 0.40859 0.91597 0.0
H4667 H 0.28243 0.40003 0.92226 0.0
C4668 C 0.61954 0.25702 0.90552 0.0
C4669 C 0.61763 0.26469 0.90007 0.0
C4670 C 0.62887 0.27351 0.90858 0.0
C4671 C 0.63099 0.26575 0.9138 0.0
N4672 N 0.63001 0.24963 0.91575 0.0
N4673 N 0.62191 0.27953 0.89499 0.0
C4674 C 0.62685 0.25734 0.91177 0.0
C4675 C 0.62277 0.27272 0.90115 0.0
N4676 N 0.61407 0.24959 0.90508 0.0
N4677 N 0.63233 0.28174 0.91097 0.0
H4678 H 0.61755 0.27912 0.88946 0.0
H4679 H 0.62609 0.28518 0.89487 0.0
H4680 H 0.63683 0.2826 0.91632 0.0
H4681 H 0.63021 0.2878 0.90809 0.0
H4682 H 0.61448 0.24424 0.90962 0.0
H4683 H 0.60861 0.24907 0.90065 0.0
H4684 H 0.6279 0.24318 0.91388 0.0
H4685 H 0.63539 0.24962 0.92031 0.0
C4686 C 0.4086 0.77392 0.90523 0.0
C4687 C 0.41092 0.76594 0.90041 0.0
C4688 C 0.40134 0.75699 0.91057 0.0
C4689 C 0.39864 0.76503 0.91506 0.0
N4690 N 0.39809 0.7813 0.91541 0.0
N4691 N 0.40804 0.75024 0.89722 0.0
C4692 C 0.40176 0.77355 0.91197 0.0
C4693 C 0.4068 0.75759 0.90268 0.0
N4694 N 0.41327 0.78174 0.90376 0.0
N4695 N 0.39906 0.74876 0.91408 0.0
H4696 H 0.41194 0.75049 0.89136 0.0
H4697 H 0.40455 0.74419 0.89802 0.0
H4698 H 0.39511 0.74803 0.91986 0.0
H4699 H 0.4017 0.74268 0.91172 0.0
H4700 H 0.41262 0.78745 0.90782 0.0
H4701 H 0.41835 0.78233 0.89893 0.0
H4702 H 0.39941 0.78769 0.91279 0.0
H4703 H 0.39304 0.78128 0.92033 0.0
C4704 C 0.07886 0.31456 0.32148 0.0
C4705 C 0.08498 0.30723 0.32054 0.0
C4706 C 0.08991 0.31322 0.30587 0.0
C4707 C 0.08473 0.32115 0.30743 0.0
N4708 N 0.07463 0.32973 0.3169 0.0
N4709 N 0.09647 0.29948 0.31201 0.0
C4710 C 0.07919 0.32187 0.31523 0.0
C4711 C 0.0905 0.30649 0.31273 0.0
N4712 N 0.07272 0.31454 0.32838 0.0
N4713 N 0.09412 0.31208 0.29773 0.0
H4714 H 0.09674 0.2942 0.31667 0.0
H4715 H 0.10147 0.29908 0.30709 0.0
H4716 H 0.09379 0.31688 0.29259 0.0
H4717 H 0.09731 0.30613 0.29577 0.0
H4718 H 0.06741 0.31913 0.32889 0.0
H4719 H 0.07249 0.30949 0.33327 0.0
H4720 H 0.07135 0.33113 0.32296 0.0
H4721 H 0.07459 0.33518 0.31245 0.0
C4722 C 0.70894 0.07883 0.3153 0.0
C4723 C 0.70961 0.08434 0.30749 0.0
C4724 C 0.72432 0.09007 0.31275 0.0
C4725 C 0.72363 0.08457 0.32057 0.0
N4726 N 0.71634 0.07237 0.32846 0.0
N4727 N 0.71866 0.09368 0.29775 0.0
C4728 C 0.71628 0.07848 0.32155 0.0
C4729 C 0.71755 0.08949 0.3059 0.0
N4730 N 0.70107 0.07429 0.317 0.0
N4731 N 0.73134 0.09603 0.312 0.0
H4732 H 0.71383 0.09336 0.29262 0.0
H4733 H 0.72462 0.09683 0.29577 0.0
H4734 H 0.73665 0.09629 0.31664 0.0
H4735 H 0.7317 0.10102 0.30707 0.0
H4736 H 0.6997 0.07102 0.32307 0.0
H4737 H 0.6956 0.07426 0.31256 0.0
H4738 H 0.71174 0.06708 0.329 0.0
H4739 H 0.72144 0.07212 0.33332 0.0
C4740 C 0.95362 0.71749 0.32098 0.0
C4741 C 0.94639 0.72384 0.32088 0.0
C4742 C 0.93998 0.71652 0.30738 0.0
C4743 C 0.94679 0.70976 0.30793 0.0
N4744 N 0.96099 0.70456 0.31395 0.0
N4745 N 0.93286 0.72977 0.31406 0.0
C4746 C 0.95392 0.71052 0.31432 0.0
C4747 C 0.93968 0.72352 0.31401 0.0
N4748 N 0.95991 0.71788 0.32776 0.0
N4749 N 0.93396 0.71631 0.30036 0.0
H4750 H 0.93273 0.73525 0.31851 0.0
H4751 H 0.92717 0.7295 0.30994 0.0
H4752 H 0.93406 0.7113 0.2954 0.0
H4753 H 0.92921 0.72131 0.29903 0.0
H4754 H 0.96484 0.71301 0.3289 0.0
H4755 H 0.96001 0.723 0.3326 0.0
H4756 H 0.96687 0.70513 0.31777 0.0
H4757 H 0.96126 0.69922 0.30936 0.0
C4758 C 0.32201 0.95198 0.3159 0.0
C4759 C 0.32139 0.9465 0.30804 0.0
C4760 C 0.30674 0.94061 0.31319 0.0
C4761 C 0.30737 0.94608 0.32105 0.0
N4762 N 0.31454 0.9583 0.32907 0.0
N4763 N 0.31245 0.93713 0.2982 0.0
C4764 C 0.31466 0.95223 0.32211 0.0
C4765 C 0.31351 0.94129 0.30638 0.0
N4766 N 0.32983 0.95658 0.31767 0.0
N4767 N 0.29978 0.93459 0.31237 0.0
H4768 H 0.31728 0.93752 0.29309 0.0
H4769 H 0.30652 0.93393 0.29617 0.0
H4770 H 0.29447 0.93424 0.31699 0.0
H4771 H 0.29947 0.92962 0.3074 0.0
H4772 H 0.33117 0.95982 0.32376 0.0
H4773 H 0.33531 0.95669 0.31324 0.0
H4774 H 0.3191 0.96362 0.32967 0.0
H4775 H 0.30944 0.95847 0.33392 0.0
C4776 C 0.08816 0.71437 0.70621 0.0
C4777 C 0.08574 0.72329 0.70881 0.0
C4778 C 0.08228 0.71791 0.72414 0.0
C4779 C 0.08553 0.70919 0.72175 0.0
N4780 N 0.09246 0.69926 0.71084 0.0
N4781 N 0.08122 0.73386 0.72033 0.0
C4782 C 0.08871 0.70747 0.71287 0.0
C4783 C 0.08295 0.72514 0.7178 0.0
N4784 N 0.08966 0.71245 0.6973 0.0
N4785 N 0.07845 0.71921 0.73243 0.0
H4786 H 0.08149 0.73926 0.71581 0.0
H4787 H 0.08009 0.73585 0.72697 0.0
H4788 H 0.07807 0.71412 0.73729 0.0
H4789 H 0.07509 0.7251 0.73431 0.0
H4790 H 0.09044 0.70592 0.6948 0.0
H4791 H 0.08938 0.71732 0.69222 0.0
H4792 H 0.09594 0.69794 0.70488 0.0
H4793 H 0.09266 0.69389 0.71538 0.0
C4794 C 0.30687 0.08077 0.71763 0.0
C4795 C 0.30812 0.08553 0.7094 0.0
C4796 C 0.32306 0.09066 0.71459 0.0
C4797 C 0.32207 0.08544 0.72257 0.0
N4798 N 0.31361 0.07467 0.73133 0.0
N4799 N 0.31797 0.09368 0.69932 0.0
C4800 C 0.31413 0.08023 0.72398 0.0
C4801 C 0.31637 0.09013 0.70769 0.0
N4802 N 0.29864 0.07701 0.71947 0.0
N4803 N 0.33035 0.09626 0.71366 0.0
H4804 H 0.31327 0.09344 0.69407 0.0
H4805 H 0.32422 0.09619 0.6973 0.0
H4806 H 0.33562 0.09656 0.71834 0.0
H4807 H 0.33089 0.10109 0.70859 0.0
H4808 H 0.29692 0.07425 0.72569 0.0
H4809 H 0.29324 0.0772 0.71493 0.0
H4810 H 0.30849 0.06995 0.73228 0.0
H4811 H 0.31867 0.07436 0.73624 0.0
C4812 C 0.94949 0.31258 0.72398 0.0
C4813 C 0.94583 0.32117 0.72174 0.0
C4814 C 0.94263 0.31584 0.70634 0.0
C4815 C 0.94549 0.30702 0.70882 0.0
N4816 N 0.95092 0.29666 0.72012 0.0
N4817 N 0.93802 0.33081 0.71116 0.0
C4818 C 0.94877 0.3053 0.71767 0.0
C4819 C 0.94216 0.32275 0.71301 0.0
N4820 N 0.95377 0.31144 0.73209 0.0
N4821 N 0.94064 0.31769 0.69751 0.0
H4822 H 0.93786 0.33619 0.7157 0.0
H4823 H 0.9342 0.33197 0.70537 0.0
H4824 H 0.94086 0.31282 0.69241 0.0
H4825 H 0.93951 0.32418 0.69505 0.0
H4826 H 0.95742 0.30568 0.73381 0.0
H4827 H 0.95418 0.31655 0.73693 0.0
H4828 H 0.95245 0.29473 0.7267 0.0
H4829 H 0.95061 0.29123 0.71563 0.0
C4830 C 0.72491 0.9498 0.71742 0.0
C4831 C 0.72367 0.945 0.70919 0.0
C4832 C 0.70871 0.93993 0.7143 0.0
C4833 C 0.70969 0.94517 0.72228 0.0
N4834 N 0.71812 0.95598 0.73105 0.0
N4835 N 0.71385 0.93683 0.69907 0.0
C4836 C 0.71762 0.95038 0.72372 0.0
C4837 C 0.71542 0.94042 0.70744 0.0
N4838 N 0.73314 0.95355 0.71931 0.0
N4839 N 0.7014 0.93434 0.71334 0.0
H4840 H 0.71857 0.93704 0.69385 0.0
H4841 H 0.70761 0.93431 0.69701 0.0
H4842 H 0.69612 0.93408 0.71798 0.0
H4843 H 0.70086 0.9295 0.70826 0.0
H4844 H 0.73483 0.95633 0.72554 0.0
H4845 H 0.73856 0.95333 0.71481 0.0
H4846 H 0.72324 0.96071 0.73201 0.0
H4847 H 0.71305 0.95634 0.73592 0.0
C4848 C 0.30696 0.08928 0.31269 0.0
C4849 C 0.30859 0.08409 0.32059 0.0
C4850 C 0.32268 0.07829 0.31393 0.0
C4851 C 0.32166 0.08441 0.30662 0.0
N4852 N 0.31304 0.09592 0.29899 0.0
N4853 N 0.3182 0.07406 0.32911 0.0
C4854 C 0.31381 0.08991 0.30595 0.0
C4855 C 0.31645 0.0786 0.32126 0.0
N4856 N 0.29879 0.09346 0.31159 0.0
N4857 N 0.32962 0.07219 0.31386 0.0
H4858 H 0.31378 0.07402 0.33459 0.0
H4859 H 0.3243 0.07082 0.33047 0.0
H4860 H 0.33447 0.07196 0.30876 0.0
H4861 H 0.33019 0.06688 0.31843 0.0
H4862 H 0.29679 0.09664 0.30565 0.0
H4863 H 0.29365 0.0931 0.31639 0.0
H4864 H 0.30809 0.10091 0.29865 0.0
H4865 H 0.31769 0.09623 0.2937 0.0
C4866 C 0.94013 0.31627 0.32147 0.0
C4867 C 0.94554 0.30838 0.32065 0.0
C4868 C 0.95021 0.31313 0.30542 0.0
C4869 C 0.94527 0.3213 0.30651 0.0
N4870 N 0.93684 0.3314 0.31614 0.0
N4871 N 0.95657 0.29968 0.31242 0.0
C4872 C 0.94057 0.32306 0.31469 0.0
C4873 C 0.95084 0.30692 0.31278 0.0
N4874 N 0.93446 0.31723 0.32869 0.0
N4875 N 0.95407 0.31121 0.29726 0.0
H4876 H 0.95695 0.29486 0.31754 0.0
H4877 H 0.96135 0.29873 0.30736 0.0
H4878 H 0.9538 0.31564 0.29179 0.0
H4879 H 0.95698 0.30501 0.29567 0.0
H4880 H 0.92951 0.32221 0.32911 0.0
H4881 H 0.93423 0.31265 0.33404 0.0
H4882 H 0.93424 0.33348 0.32233 0.0
H4883 H 0.93702 0.33659 0.31138 0.0
C4884 C 0.71789 0.94969 0.30542 0.0
C4885 C 0.70966 0.94489 0.30662 0.0
C4886 C 0.71473 0.93992 0.32163 0.0
C4887 C 0.72268 0.9452 0.3207 0.0
N4888 N 0.73148 0.95594 0.31225 0.0
N4889 N 0.69951 0.93675 0.31641 0.0
C4890 C 0.72416 0.95034 0.31274 0.0
C4891 C 0.70789 0.94034 0.31487 0.0
N4892 N 0.71981 0.95338 0.29718 0.0
N4893 N 0.71375 0.93438 0.32895 0.0
H4894 H 0.6943 0.93693 0.31167 0.0
H4895 H 0.69744 0.93428 0.32265 0.0
H4896 H 0.71836 0.93417 0.33429 0.0
H4897 H 0.7087 0.92951 0.32947 0.0
H4898 H 0.72604 0.95617 0.29552 0.0
H4899 H 0.71533 0.9531 0.29174 0.0
H4900 H 0.73246 0.96063 0.30711 0.0
H4901 H 0.73635 0.95633 0.31735 0.0
C4902 C 0.08101 0.70705 0.31541 0.0
C4903 C 0.08497 0.7092 0.30696 0.0
C4904 C 0.08765 0.72476 0.31219 0.0
C4905 C 0.08474 0.72226 0.32098 0.0
N4906 N 0.0794 0.71084 0.33127 0.0
N4907 N 0.0924 0.71989 0.29724 0.0
C4908 C 0.08152 0.71338 0.32265 0.0
C4909 C 0.08834 0.71803 0.30531 0.0
N4910 N 0.07674 0.69894 0.31652 0.0
N4911 N 0.08958 0.73361 0.3104 0.0
H4912 H 0.09262 0.71527 0.29192 0.0
H4913 H 0.09595 0.72582 0.29594 0.0
H4914 H 0.08914 0.73866 0.3153 0.0
H4915 H 0.0909 0.73609 0.30397 0.0
H4916 H 0.0728 0.69737 0.32213 0.0
H4917 H 0.07651 0.69399 0.31151 0.0
H4918 H 0.07807 0.7042 0.33314 0.0
H4919 H 0.0796 0.71526 0.33675 0.0
C4920 C 0.30711 0.94113 0.71736 0.0
C4921 C 0.30872 0.94627 0.70944 0.0
C4922 C 0.32278 0.95214 0.71613 0.0
C4923 C 0.32178 0.94606 0.72346 0.0
N4924 N 0.31319 0.93458 0.73113 0.0
N4925 N 0.31827 0.95633 0.70092 0.0
C4926 C 0.31395 0.94055 0.72413 0.0
C4927 C 0.31655 0.95179 0.70877 0.0
N4928 N 0.29895 0.93694 0.71845 0.0
N4929 N 0.32969 0.95827 0.7162 0.0
H4930 H 0.31384 0.95635 0.69545 0.0
H4931 H 0.32435 0.95959 0.69957 0.0
H4932 H 0.33454 0.95852 0.72132 0.0
H4933 H 0.33025 0.96355 0.71161 0.0
H4934 H 0.29695 0.93379 0.7244 0.0
H4935 H 0.29381 0.93727 0.71362 0.0
H4936 H 0.30825 0.92959 0.73148 0.0
H4937 H 0.31783 0.93431 0.73644 0.0
C4938 C 0.08881 0.32348 0.71412 0.0
C4939 C 0.086 0.32112 0.72297 0.0
C4940 C 0.08216 0.30583 0.71767 0.0
C4941 C 0.08577 0.30797 0.70905 0.0
N4942 N 0.09341 0.31846 0.69923 0.0
N4943 N 0.08071 0.30995 0.73351 0.0
C4944 C 0.08933 0.3167 0.70732 0.0
C4945 C 0.08283 0.31227 0.72484 0.0
N4946 N 0.09069 0.33231 0.71212 0.0
N4947 N 0.07799 0.29769 0.71894 0.0
H4948 H 0.08098 0.31454 0.73886 0.0
H4949 H 0.07927 0.30338 0.73556 0.0
H4950 H 0.07762 0.29277 0.71392 0.0
H4951 H 0.07437 0.29604 0.72473 0.0
H4952 H 0.09177 0.33467 0.7056 0.0
H4953 H 0.09043 0.33748 0.7169 0.0
H4954 H 0.09716 0.32427 0.69796 0.0
H4955 H 0.09361 0.31383 0.69392 0.0
C4956 C 0.71828 0.08077 0.72415 0.0
C4957 C 0.71004 0.08556 0.72292 0.0
C4958 C 0.71514 0.09066 0.70799 0.0
C4959 C 0.72313 0.08542 0.70896 0.0
N4960 N 0.73195 0.07462 0.71738 0.0
N4961 N 0.69989 0.09375 0.71313 0.0
C4962 C 0.72459 0.0802 0.71688 0.0
C4963 C 0.70828 0.09016 0.71469 0.0
N4964 N 0.72017 0.07699 0.73237 0.0
N4965 N 0.71416 0.09623 0.70069 0.0
H4966 H 0.69467 0.09353 0.71785 0.0
H4967 H 0.69783 0.09626 0.7069 0.0
H4968 H 0.71879 0.09649 0.6954 0.0
H4969 H 0.70908 0.10108 0.70016 0.0
H4970 H 0.72641 0.07421 0.73406 0.0
H4971 H 0.71566 0.0772 0.73777 0.0
H4972 H 0.73293 0.0699 0.72249 0.0
H4973 H 0.73684 0.0743 0.71232 0.0
C4974 C 0.94172 0.71756 0.72406 0.0
C4975 C 0.9467 0.70941 0.7231 0.0
C4976 C 0.95189 0.71424 0.7081 0.0
C4977 C 0.94691 0.7224 0.70905 0.0
N4978 N 0.9387 0.73274 0.71854 0.0
N4979 N 0.958 0.70076 0.71519 0.0
C4980 C 0.94232 0.72434 0.71724 0.0
C4981 C 0.9523 0.70803 0.71544 0.0
N4982 N 0.93622 0.7187 0.73139 0.0
N4983 N 0.95581 0.71219 0.7 0.0
H4984 H 0.95827 0.69591 0.72028 0.0
H4985 H 0.963 0.6999 0.71031 0.0
H4986 H 0.95576 0.71656 0.69448 0.0
H4987 H 0.95859 0.7059 0.69848 0.0
H4988 H 0.93157 0.72395 0.73201 0.0
H4989 H 0.93598 0.7141 0.73671 0.0
H4990 H 0.936 0.73494 0.72465 0.0
H4991 H 0.93906 0.73783 0.71369 0.0
C4992 C 0.32222 0.3159 0.07858 0.0
C4993 C 0.32156 0.30808 0.08409 0.0
C4994 C 0.30687 0.31334 0.08987 0.0
C4995 C 0.30756 0.32117 0.08438 0.0
N4996 N 0.3148 0.32907 0.07216 0.0
N4997 N 0.31254 0.29833 0.09345 0.0
C4998 C 0.31488 0.32215 0.07827 0.0
C4999 C 0.31364 0.30648 0.08926 0.0
N5000 N 0.33007 0.3176 0.07402 0.0
N5001 N 0.29988 0.31258 0.09584 0.0
H5002 H 0.31736 0.29319 0.0931 0.0
H5003 H 0.30659 0.29634 0.09662 0.0
H5004 H 0.29457 0.31723 0.09613 0.0
H5005 H 0.29953 0.30764 0.10082 0.0
H5006 H 0.33143 0.32367 0.07076 0.0
H5007 H 0.33554 0.31315 0.07397 0.0
H5008 H 0.31939 0.32961 0.06686 0.0
H5009 H 0.30971 0.33394 0.07193 0.0
C5010 C 0.32171 0.71492 0.95198 0.0
C5011 C 0.32097 0.72276 0.9465 0.0
C5012 C 0.3063 0.71746 0.94073 0.0
C5013 C 0.30704 0.70964 0.94622 0.0
N5014 N 0.31439 0.70174 0.95842 0.0
N5015 N 0.31189 0.73247 0.93712 0.0
C5016 C 0.3144 0.70866 0.95231 0.0
C5017 C 0.31303 0.72433 0.94132 0.0
N5018 N 0.3296 0.71323 0.95651 0.0
N5019 N 0.29927 0.7182 0.93476 0.0
H5020 H 0.3167 0.73762 0.93743 0.0
H5021 H 0.30593 0.73444 0.93394 0.0
H5022 H 0.29398 0.71355 0.93449 0.0
H5023 H 0.29888 0.72314 0.92978 0.0
H5024 H 0.33101 0.70715 0.95976 0.0
H5025 H 0.33506 0.71769 0.95655 0.0
H5026 H 0.31901 0.7012 0.9637 0.0
H5027 H 0.30931 0.69687 0.95866 0.0
C5028 C 0.32298 0.31525 0.94087 0.0
C5029 C 0.32116 0.30708 0.94554 0.0
C5030 C 0.30661 0.31328 0.95072 0.0
C5031 C 0.30814 0.32115 0.94545 0.0
N5032 N 0.31723 0.32929 0.93468 0.0
N5033 N 0.311 0.29782 0.95419 0.0
C5034 C 0.31617 0.32203 0.94028 0.0
C5035 C 0.31291 0.30597 0.9503 0.0
N5036 N 0.33137 0.31668 0.93726 0.0
N5037 N 0.29919 0.31288 0.9562 0.0
H5038 H 0.31553 0.29241 0.95413 0.0
H5039 H 0.30475 0.29619 0.95697 0.0
H5040 H 0.2943 0.31796 0.95641 0.0
H5041 H 0.29813 0.30781 0.96095 0.0
H5042 H 0.3335 0.32287 0.9347 0.0
H5043 H 0.33654 0.31189 0.93748 0.0
H5044 H 0.32233 0.32976 0.92987 0.0
H5045 H 0.31263 0.33463 0.93436 0.0
C5046 C 0.72525 0.31319 0.94939 0.0
C5047 C 0.72398 0.32138 0.94456 0.0
C5048 C 0.70898 0.31624 0.93959 0.0
C5049 C 0.71001 0.30829 0.94486 0.0
N5050 N 0.71852 0.29959 0.95566 0.0
N5051 N 0.71408 0.33146 0.93641 0.0
C5052 C 0.71798 0.30689 0.95003 0.0
C5053 C 0.71569 0.3231 0.94002 0.0
N5054 N 0.73351 0.31134 0.95312 0.0
N5055 N 0.70162 0.31717 0.93405 0.0
H5056 H 0.7188 0.3367 0.93658 0.0
H5057 H 0.70782 0.3335 0.93393 0.0
H5058 H 0.69633 0.31253 0.93384 0.0
H5059 H 0.70104 0.32222 0.9292 0.0
H5060 H 0.73523 0.30513 0.95593 0.0
H5061 H 0.73892 0.31584 0.95285 0.0
H5062 H 0.72367 0.29865 0.96036 0.0
H5063 H 0.71346 0.2947 0.95605 0.0
C5064 C 0.7151 0.70899 0.95155 0.0
C5065 C 0.72293 0.70966 0.94604 0.0
C5066 C 0.71768 0.72434 0.94029 0.0
C5067 C 0.70987 0.72368 0.94582 0.0
N5068 N 0.70196 0.71642 0.95802 0.0
N5069 N 0.73268 0.71866 0.93668 0.0
C5070 C 0.70887 0.71634 0.9519 0.0
C5071 C 0.72453 0.71757 0.94088 0.0
N5072 N 0.71337 0.70113 0.95608 0.0
N5073 N 0.71842 0.73133 0.93431 0.0
H5074 H 0.73782 0.71384 0.937 0.0
H5075 H 0.73467 0.72461 0.93352 0.0
H5076 H 0.71378 0.73664 0.93403 0.0
H5077 H 0.72335 0.73166 0.92931 0.0
H5078 H 0.7073 0.69978 0.95934 0.0
H5079 H 0.7178 0.69565 0.9561 0.0
H5080 H 0.70141 0.71182 0.9633 0.0
H5081 H 0.6971 0.72152 0.95827 0.0
C5082 C 0.71803 0.72413 0.08905 0.0
C5083 C 0.7101 0.72247 0.08389 0.0
C5084 C 0.71684 0.70844 0.07804 0.0
C5085 C 0.72419 0.70949 0.08414 0.0
N5086 N 0.73186 0.71812 0.09561 0.0
N5087 N 0.70159 0.71286 0.07385 0.0
C5088 C 0.72484 0.71732 0.08964 0.0
C5089 C 0.70946 0.71463 0.07838 0.0
N5090 N 0.71909 0.73229 0.09324 0.0
N5091 N 0.71693 0.7015 0.07194 0.0
H5092 H 0.69609 0.71726 0.07382 0.0
H5093 H 0.70025 0.70677 0.07059 0.0
H5094 H 0.72205 0.69666 0.0717 0.0
H5095 H 0.71232 0.70092 0.06665 0.0
H5096 H 0.72504 0.73432 0.0964 0.0
H5097 H 0.71423 0.7374 0.0929 0.0
H5098 H 0.73219 0.72307 0.1006 0.0
H5099 H 0.73719 0.71352 0.09589 0.0
C5100 C 0.31654 0.70902 0.07844 0.0
C5101 C 0.3087 0.70968 0.08394 0.0
C5102 C 0.31394 0.72434 0.08977 0.0
C5103 C 0.32178 0.72367 0.08427 0.0
N5104 N 0.3297 0.71645 0.07203 0.0
N5105 N 0.29892 0.71869 0.0933 0.0
C5106 C 0.32278 0.71636 0.07814 0.0
C5107 C 0.30709 0.71759 0.08913 0.0
N5108 N 0.31828 0.70118 0.07386 0.0
N5109 N 0.31317 0.73132 0.09577 0.0
H5110 H 0.29378 0.71388 0.09293 0.0
H5111 H 0.29692 0.72464 0.09648 0.0
H5112 H 0.31781 0.73662 0.09609 0.0
H5113 H 0.30822 0.73166 0.10075 0.0
H5114 H 0.32436 0.69982 0.0706 0.0
H5115 H 0.31385 0.69571 0.0738 0.0
H5116 H 0.33026 0.71187 0.06672 0.0
H5117 H 0.33454 0.72156 0.07181 0.0
C5118 C 0.70852 0.31514 0.08902 0.0
C5119 C 0.71036 0.30697 0.08433 0.0
C5120 C 0.7249 0.3132 0.07916 0.0
C5121 C 0.72334 0.32107 0.08444 0.0
N5122 N 0.71421 0.3292 0.09522 0.0
N5123 N 0.72054 0.29774 0.07561 0.0
C5124 C 0.7153 0.32193 0.0896 0.0
C5125 C 0.71862 0.30587 0.07955 0.0
N5126 N 0.70013 0.31654 0.09265 0.0
N5127 N 0.73233 0.3128 0.07369 0.0
H5128 H 0.71601 0.29234 0.07564 0.0
H5129 H 0.72678 0.29611 0.07282 0.0
H5130 H 0.7372 0.31789 0.0735 0.0
H5131 H 0.73343 0.30773 0.06894 0.0
H5132 H 0.69797 0.32272 0.09522 0.0
H5133 H 0.69499 0.31172 0.09246 0.0
H5134 H 0.70911 0.32966 0.10002 0.0
H5135 H 0.71878 0.33455 0.09554 0.0
C5136 C 0.59073 0.82267 0.81611 0.0
C5137 C 0.58597 0.82134 0.80787 0.0
C5138 C 0.58205 0.80589 0.81258 0.0
C5139 C 0.58639 0.80743 0.82101 0.0
N5140 N 0.59334 0.81778 0.8315 0.0
N5141 N 0.57615 0.81225 0.79861 0.0
C5142 C 0.59031 0.81596 0.82296 0.0
C5143 C 0.58133 0.8131 0.80621 0.0
N5144 N 0.59578 0.83031 0.81733 0.0
N5145 N 0.57885 0.79746 0.81059 0.0
H5146 H 0.57573 0.81728 0.7937 0.0
H5147 H 0.57182 0.80684 0.79741 0.0
H5148 H 0.57916 0.7921 0.81515 0.0
H5149 H 0.57645 0.79558 0.80425 0.0
H5150 H 0.60032 0.83116 0.82263 0.0
H5151 H 0.59595 0.83561 0.81269 0.0
H5152 H 0.59531 0.82418 0.83366 0.0
H5153 H 0.59317 0.81308 0.83674 0.0
C5154 C 0.20924 0.57875 0.81553 0.0
C5155 C 0.2099 0.58427 0.80771 0.0
C5156 C 0.22459 0.59004 0.81298 0.0
C5157 C 0.22393 0.5845 0.82078 0.0
N5158 N 0.21668 0.57226 0.82865 0.0
N5159 N 0.21891 0.59368 0.798 0.0
C5160 C 0.2166 0.5784 0.82175 0.0
C5161 C 0.21781 0.58946 0.80614 0.0
N5162 N 0.20139 0.57419 0.81723 0.0
N5163 N 0.23158 0.59604 0.81226 0.0
H5164 H 0.21408 0.59336 0.79287 0.0
H5165 H 0.22486 0.59685 0.79603 0.0
H5166 H 0.23689 0.59631 0.81689 0.0
H5167 H 0.2319 0.60105 0.80734 0.0
H5168 H 0.20003 0.57091 0.82329 0.0
H5169 H 0.1959 0.57417 0.8128 0.0
H5170 H 0.21209 0.56697 0.82919 0.0
H5171 H 0.2218 0.57201 0.83349 0.0
C5172 C 0.44408 0.2072 0.81727 0.0
C5173 C 0.44616 0.20909 0.80811 0.0
C5174 C 0.44765 0.22525 0.81174 0.0
C5175 C 0.44589 0.22329 0.82096 0.0
N5176 N 0.44413 0.21232 0.83284 0.0
N5177 N 0.45125 0.21954 0.79676 0.0
C5178 C 0.44461 0.21423 0.82382 0.0
C5179 C 0.44836 0.21802 0.80539 0.0
N5180 N 0.44134 0.19871 0.81967 0.0
N5181 N 0.44835 0.23405 0.80904 0.0
H5182 H 0.45165 0.21443 0.79191 0.0
H5183 H 0.45385 0.22568 0.79454 0.0
H5184 H 0.44807 0.23947 0.81355 0.0
H5185 H 0.44865 0.23605 0.80231 0.0
H5186 H 0.43863 0.19715 0.82596 0.0
H5187 H 0.44118 0.19329 0.81518 0.0
H5188 H 0.44422 0.20579 0.83544 0.0
H5189 H 0.4444 0.21727 0.83784 0.0
C5190 C 0.80649 0.4497 0.81283 0.0
C5191 C 0.80775 0.44488 0.82103 0.0
C5192 C 0.82273 0.43985 0.81588 0.0
C5193 C 0.82172 0.44511 0.80793 0.0
N5194 N 0.81324 0.45593 0.79923 0.0
N5195 N 0.81763 0.43672 0.83111 0.0
C5196 C 0.81377 0.45031 0.80653 0.0
C5197 C 0.81603 0.44031 0.82275 0.0
N5198 N 0.79824 0.45344 0.81097 0.0
N5199 N 0.83006 0.43428 0.81681 0.0
H5200 H 0.81293 0.43692 0.83635 0.0
H5201 H 0.82389 0.43422 0.83315 0.0
H5202 H 0.83534 0.43403 0.81216 0.0
H5203 H 0.83063 0.42942 0.82186 0.0
H5204 H 0.79653 0.45624 0.80475 0.0
H5205 H 0.79283 0.45318 0.81547 0.0
H5206 H 0.8081 0.46065 0.79829 0.0
H5207 H 0.8183 0.45631 0.79435 0.0
C5208 C 0.58178 0.21764 0.22422 0.0
C5209 C 0.58563 0.20912 0.22207 0.0
C5210 C 0.58898 0.21444 0.20672 0.0
C5211 C 0.58588 0.2232 0.20911 0.0
N5212 N 0.58012 0.23352 0.2203 0.0
N5213 N 0.59383 0.1996 0.21168 0.0
C5214 C 0.58246 0.2249 0.21791 0.0
C5215 C 0.5895 0.20758 0.21343 0.0
N5216 N 0.57737 0.21874 0.23226 0.0
N5217 N 0.59114 0.21259 0.19793 0.0
H5218 H 0.59403 0.19424 0.21624 0.0
H5219 H 0.59778 0.19849 0.20597 0.0
H5220 H 0.59088 0.21741 0.19281 0.0
H5221 H 0.59246 0.20611 0.19552 0.0
H5222 H 0.57357 0.22443 0.23388 0.0
H5223 H 0.57699 0.21365 0.23711 0.0
H5224 H 0.57848 0.23545 0.22686 0.0
H5225 H 0.58041 0.23893 0.21581 0.0
C5226 C 0.80629 0.58073 0.21709 0.0
C5227 C 0.80755 0.58556 0.2089 0.0
C5228 C 0.82254 0.59053 0.21408 0.0
C5229 C 0.82153 0.58527 0.22202 0.0
N5230 N 0.81304 0.57449 0.23072 0.0
N5231 N 0.8174 0.59373 0.19886 0.0
C5232 C 0.81357 0.5801 0.22342 0.0
C5233 C 0.81582 0.59011 0.2072 0.0
N5234 N 0.79804 0.577 0.21893 0.0
N5235 N 0.82987 0.59608 0.21316 0.0
H5236 H 0.81267 0.59357 0.19362 0.0
H5237 H 0.82365 0.59622 0.19683 0.0
H5238 H 0.83517 0.5963 0.21782 0.0
H5239 H 0.83044 0.60094 0.20812 0.0
H5240 H 0.79633 0.5742 0.22514 0.0
H5241 H 0.79263 0.57725 0.21441 0.0
H5242 H 0.80789 0.5698 0.23166 0.0
H5243 H 0.8181 0.5741 0.23562 0.0
C5244 C 0.44958 0.8125 0.22424 0.0
C5245 C 0.44592 0.82112 0.22212 0.0
C5246 C 0.44281 0.81608 0.20662 0.0
C5247 C 0.44567 0.80722 0.20896 0.0
N5248 N 0.45105 0.79666 0.22011 0.0
N5249 N 0.43814 0.83094 0.21169 0.0
C5250 C 0.4489 0.80534 0.2178 0.0
C5251 C 0.44229 0.82285 0.21342 0.0
N5252 N 0.45381 0.81123 0.23235 0.0
N5253 N 0.44087 0.81808 0.19781 0.0
H5254 H 0.43793 0.83624 0.21634 0.0
H5255 H 0.43434 0.8322 0.20591 0.0
H5256 H 0.44114 0.81332 0.19263 0.0
H5257 H 0.43975 0.82462 0.19547 0.0
H5258 H 0.45747 0.80544 0.23399 0.0
H5259 H 0.4542 0.81625 0.23728 0.0
H5260 H 0.45253 0.79461 0.22666 0.0
H5261 H 0.45076 0.79131 0.21552 0.0
C5262 C 0.20942 0.45178 0.21429 0.0
C5263 C 0.2101 0.44626 0.22211 0.0
C5264 C 0.22477 0.44046 0.21687 0.0
C5265 C 0.22409 0.44597 0.20905 0.0
N5266 N 0.21682 0.45821 0.20115 0.0
N5267 N 0.21913 0.43688 0.23186 0.0
C5268 C 0.21676 0.45209 0.20806 0.0
C5269 C 0.21802 0.44107 0.22371 0.0
N5270 N 0.20156 0.45635 0.21257 0.0
N5271 N 0.23177 0.43446 0.21762 0.0
H5272 H 0.21432 0.43722 0.23699 0.0
H5273 H 0.22509 0.43369 0.23384 0.0
H5274 H 0.23707 0.43416 0.21299 0.0
H5275 H 0.23212 0.42947 0.22255 0.0
H5276 H 0.20019 0.45962 0.20651 0.0
H5277 H 0.19609 0.4564 0.217 0.0
H5278 H 0.21223 0.46352 0.20061 0.0
H5279 H 0.22191 0.45844 0.1963 0.0
C5280 C 0.82378 0.59013 0.81498 0.0
C5281 C 0.82206 0.58556 0.80671 0.0
C5282 C 0.80756 0.58008 0.81272 0.0
C5283 C 0.80897 0.58526 0.82068 0.0
N5284 N 0.81783 0.59611 0.82902 0.0
N5285 N 0.81199 0.577 0.79721 0.0
C5286 C 0.81691 0.59055 0.82169 0.0
C5287 C 0.81386 0.58072 0.80545 0.0
N5288 N 0.83213 0.59377 0.81656 0.0
N5289 N 0.80026 0.57444 0.81219 0.0
H5290 H 0.8165 0.57727 0.7918 0.0
H5291 H 0.80577 0.57419 0.7955 0.0
H5292 H 0.79538 0.57404 0.81726 0.0
H5293 H 0.79932 0.56974 0.80705 0.0
H5294 H 0.83418 0.59627 0.82281 0.0
H5295 H 0.83736 0.59361 0.81185 0.0
H5296 H 0.82287 0.60098 0.82958 0.0
H5297 H 0.81318 0.59633 0.8343 0.0
C5298 C 0.45139 0.8234 0.81471 0.0
C5299 C 0.44723 0.82121 0.80634 0.0
C5300 C 0.44568 0.80541 0.81126 0.0
C5301 C 0.44889 0.80783 0.81999 0.0
N5302 N 0.45388 0.81935 0.83039 0.0
N5303 N 0.43978 0.81037 0.79675 0.0
C5304 C 0.4516 0.81687 0.82178 0.0
C5305 C 0.44423 0.81226 0.80463 0.0
N5306 N 0.45515 0.83175 0.81591 0.0
N5307 N 0.44418 0.79651 0.80929 0.0
H5308 H 0.43893 0.81512 0.79161 0.0
H5309 H 0.43646 0.80431 0.7955 0.0
H5310 H 0.44524 0.79136 0.81398 0.0
H5311 H 0.44265 0.79414 0.80285 0.0
H5312 H 0.45921 0.83344 0.8214 0.0
H5313 H 0.45479 0.83685 0.81107 0.0
H5314 H 0.45482 0.82602 0.8324 0.0
H5315 H 0.4542 0.8148 0.83575 0.0
C5316 C 0.22462 0.44098 0.81289 0.0
C5317 C 0.22306 0.44613 0.82083 0.0
C5318 C 0.209 0.45209 0.8142 0.0
C5319 C 0.20994 0.446 0.80685 0.0
N5320 N 0.21846 0.43448 0.79912 0.0
N5321 N 0.21357 0.45622 0.82941 0.0
C5322 C 0.21775 0.44044 0.80614 0.0
C5323 C 0.21525 0.45169 0.82154 0.0
N5324 N 0.23276 0.43674 0.81176 0.0
N5325 N 0.2021 0.45825 0.81417 0.0
H5326 H 0.21801 0.45621 0.83488 0.0
H5327 H 0.20751 0.45952 0.83079 0.0
H5328 H 0.19724 0.45854 0.80908 0.0
H5329 H 0.20159 0.46353 0.81879 0.0
H5330 H 0.23472 0.43359 0.80579 0.0
H5331 H 0.23791 0.43703 0.81657 0.0
H5332 H 0.22337 0.42946 0.79874 0.0
H5333 H 0.2138 0.43424 0.79383 0.0
C5334 C 0.5896 0.21385 0.82269 0.0
C5335 C 0.58582 0.22252 0.82103 0.0
C5336 C 0.58249 0.21811 0.80534 0.0
C5337 C 0.5859 0.20933 0.80715 0.0
N5338 N 0.59114 0.19826 0.81789 0.0
N5339 N 0.57752 0.23261 0.81132 0.0
C5340 C 0.58901 0.20704 0.81593 0.0
C5341 C 0.5819 0.22456 0.81251 0.0
N5342 N 0.59394 0.21219 0.83068 0.0
N5343 N 0.58008 0.22037 0.79672 0.0
H5344 H 0.57719 0.23754 0.81635 0.0
H5345 H 0.57368 0.23417 0.80564 0.0
H5346 H 0.58029 0.21578 0.79138 0.0
H5347 H 0.57845 0.22691 0.7947 0.0
H5348 H 0.59784 0.20645 0.83187 0.0
H5349 H 0.5942 0.21684 0.83597 0.0
H5350 H 0.59246 0.19593 0.82439 0.0
H5351 H 0.59083 0.19307 0.81313 0.0
C5352 C 0.81626 0.45174 0.2086 0.0
C5353 C 0.80843 0.44623 0.20928 0.0
C5354 C 0.8137 0.44049 0.22396 0.0
C5355 C 0.82153 0.44599 0.22326 0.0
N5356 N 0.82944 0.4582 0.21599 0.0
N5357 N 0.79867 0.43691 0.21832 0.0
C5358 C 0.82251 0.45208 0.21593 0.0
C5359 C 0.80683 0.44109 0.21721 0.0
N5360 N 0.81798 0.45627 0.20074 0.0
N5361 N 0.81295 0.43452 0.23095 0.0
H5362 H 0.79352 0.43725 0.2135 0.0
H5363 H 0.79669 0.43376 0.22427 0.0
H5364 H 0.81761 0.43424 0.23625 0.0
H5365 H 0.80801 0.42953 0.23131 0.0
H5366 H 0.82406 0.45952 0.19937 0.0
H5367 H 0.81353 0.45629 0.19527 0.0
H5368 H 0.82998 0.46348 0.2114 0.0
H5369 H 0.8343 0.45844 0.22109 0.0
C5370 C 0.58974 0.81697 0.20774 0.0
C5371 C 0.58575 0.80838 0.20926 0.0
C5372 C 0.58245 0.81267 0.22498 0.0
C5373 C 0.58606 0.8214 0.22331 0.0
N5374 N 0.59159 0.83246 0.21273 0.0
N5375 N 0.5772 0.79838 0.21879 0.0
C5376 C 0.58927 0.82371 0.21458 0.0
C5377 C 0.58176 0.80633 0.21773 0.0
N5378 N 0.59417 0.81861 0.19981 0.0
N5379 N 0.57997 0.81037 0.23356 0.0
H5380 H 0.57679 0.79351 0.21371 0.0
H5381 H 0.5733 0.79684 0.22443 0.0
H5382 H 0.58026 0.81489 0.23896 0.0
H5383 H 0.57818 0.80385 0.23549 0.0
H5384 H 0.59821 0.82426 0.19873 0.0
H5385 H 0.59435 0.81402 0.19447 0.0
H5386 H 0.59299 0.83483 0.20627 0.0
H5387 H 0.59136 0.83761 0.21754 0.0
C5388 C 0.22429 0.58932 0.21733 0.0
C5389 C 0.22269 0.58413 0.20943 0.0
C5390 C 0.20862 0.57831 0.21609 0.0
C5391 C 0.20962 0.58443 0.22341 0.0
N5392 N 0.2182 0.59596 0.23106 0.0
N5393 N 0.21311 0.57406 0.20091 0.0
C5394 C 0.21744 0.58995 0.22408 0.0
C5395 C 0.21485 0.57862 0.20875 0.0
N5396 N 0.23245 0.59352 0.21844 0.0
N5397 N 0.2017 0.57218 0.21616 0.0
H5398 H 0.21754 0.57402 0.19543 0.0
H5399 H 0.20703 0.5708 0.19954 0.0
H5400 H 0.19685 0.57196 0.22126 0.0
H5401 H 0.20116 0.56687 0.21158 0.0
H5402 H 0.23444 0.5967 0.22438 0.0
H5403 H 0.23759 0.59316 0.21363 0.0
H5404 H 0.22313 0.60095 0.2314 0.0
H5405 H 0.21356 0.59626 0.23635 0.0
C5406 C 0.4414 0.21766 0.22423 0.0
C5407 C 0.44632 0.20947 0.22322 0.0
C5408 C 0.45148 0.21431 0.20821 0.0
C5409 C 0.44658 0.22251 0.20923 0.0
N5410 N 0.4385 0.23289 0.2188 0.0
N5411 N 0.45748 0.20073 0.21521 0.0
C5412 C 0.44204 0.22446 0.21745 0.0
C5413 C 0.45186 0.20806 0.21552 0.0
N5414 N 0.43593 0.21881 0.23158 0.0
N5415 N 0.45537 0.21227 0.20009 0.0
H5416 H 0.45772 0.19586 0.22028 0.0
H5417 H 0.46243 0.19983 0.2103 0.0
H5418 H 0.45534 0.21669 0.19461 0.0
H5419 H 0.4581 0.20598 0.19853 0.0
H5420 H 0.43132 0.22409 0.23223 0.0
H5421 H 0.43566 0.21419 0.23688 0.0
H5422 H 0.43587 0.23508 0.22494 0.0
H5423 H 0.43889 0.238 0.21397 0.0
C5424 C 0.81386 0.80623 0.58909 0.0
C5425 C 0.8218 0.80782 0.58394 0.0
C5426 C 0.81511 0.82185 0.57804 0.0
C5427 C 0.80776 0.82087 0.58412 0.0
N5428 N 0.80008 0.81233 0.59562 0.0
N5429 N 0.83033 0.81734 0.57389 0.0
C5430 C 0.80708 0.81307 0.58965 0.0
C5431 C 0.82247 0.81563 0.57842 0.0
N5432 N 0.81277 0.79809 0.59331 0.0
N5433 N 0.81504 0.82875 0.57191 0.0
H5434 H 0.83582 0.81291 0.57389 0.0
H5435 H 0.83169 0.8234 0.57061 0.0
H5436 H 0.80992 0.83359 0.57164 0.0
H5437 H 0.81965 0.82929 0.56663 0.0
H5438 H 0.80681 0.79611 0.59646 0.0
H5439 H 0.8176 0.79296 0.59301 0.0
H5440 H 0.79973 0.80742 0.60063 0.0
H5441 H 0.79476 0.81696 0.59586 0.0
C5442 C 0.8139 0.22427 0.44098 0.0
C5443 C 0.82184 0.22269 0.44616 0.0
C5444 C 0.81518 0.20865 0.45204 0.0
C5445 C 0.80783 0.20963 0.44594 0.0
N5446 N 0.80012 0.21818 0.43443 0.0
N5447 N 0.83039 0.21318 0.45626 0.0
C5448 C 0.80714 0.21743 0.44041 0.0
C5449 C 0.82252 0.21488 0.45169 0.0
N5450 N 0.81279 0.23241 0.43676 0.0
N5451 N 0.81514 0.20174 0.45816 0.0
H5452 H 0.83585 0.21763 0.4563 0.0
H5453 H 0.83177 0.20712 0.45955 0.0
H5454 H 0.81004 0.19688 0.45841 0.0
H5455 H 0.81975 0.20119 0.46345 0.0
H5456 H 0.80683 0.23439 0.43358 0.0
H5457 H 0.81762 0.23754 0.43707 0.0
H5458 H 0.79976 0.22309 0.42943 0.0
H5459 H 0.79481 0.21355 0.43417 0.0
C5460 C 0.82349 0.81557 0.4401 0.0
C5461 C 0.82179 0.80733 0.4447 0.0
C5462 C 0.80723 0.81338 0.45007 0.0
C5463 C 0.80863 0.8213 0.44485 0.0
N5464 N 0.81752 0.82955 0.43399 0.0
N5465 N 0.81171 0.79788 0.45326 0.0
C5466 C 0.8166 0.82227 0.4396 0.0
C5467 C 0.81357 0.8061 0.4495 0.0
N5468 N 0.83187 0.81716 0.43652 0.0
N5469 N 0.79991 0.81288 0.45568 0.0
H5470 H 0.81623 0.79247 0.45303 0.0
H5471 H 0.80548 0.79619 0.45605 0.0
H5472 H 0.79502 0.81795 0.45603 0.0
H5473 H 0.79898 0.80777 0.4604 0.0
H5474 H 0.83389 0.8234 0.434 0.0
H5475 H 0.83712 0.81246 0.43675 0.0
H5476 H 0.82258 0.83008 0.42915 0.0
H5477 H 0.81284 0.83482 0.43371 0.0
C5478 C 0.21539 0.82298 0.44019 0.0
C5479 C 0.22366 0.82126 0.44476 0.0
C5480 C 0.21763 0.80676 0.45021 0.0
C5481 C 0.20967 0.80816 0.445 0.0
N5482 N 0.20137 0.81703 0.43413 0.0
N5483 N 0.23316 0.81119 0.45334 0.0
C5484 C 0.20868 0.81611 0.43972 0.0
C5485 C 0.22491 0.81306 0.44959 0.0
N5486 N 0.2138 0.83134 0.43658 0.0
N5487 N 0.21814 0.79946 0.45584 0.0
H5488 H 0.23858 0.81569 0.45308 0.0
H5489 H 0.23486 0.80497 0.45614 0.0
H5490 H 0.21306 0.79459 0.45623 0.0
H5491 H 0.22328 0.79853 0.46056 0.0
H5492 H 0.20754 0.83337 0.43407 0.0
H5493 H 0.21851 0.83657 0.43678 0.0
H5494 H 0.20081 0.82208 0.42927 0.0
H5495 H 0.19609 0.81237 0.43388 0.0
C5496 C 0.21782 0.22458 0.4496 0.0
C5497 C 0.20959 0.22337 0.44477 0.0
C5498 C 0.21473 0.20842 0.43965 0.0
C5499 C 0.22272 0.20939 0.44489 0.0
N5500 N 0.23149 0.21777 0.45575 0.0
N5501 N 0.19948 0.2136 0.43654 0.0
C5502 C 0.22415 0.21729 0.45015 0.0
C5503 C 0.20785 0.21514 0.44016 0.0
N5504 N 0.21968 0.23278 0.45341 0.0
N5505 N 0.21377 0.20114 0.43404 0.0
H5506 H 0.19425 0.21832 0.43676 0.0
H5507 H 0.19742 0.20737 0.434 0.0
H5508 H 0.21843 0.19585 0.43375 0.0
H5509 H 0.20869 0.20061 0.42919 0.0
H5510 H 0.22592 0.23446 0.45622 0.0
H5511 H 0.21516 0.23819 0.45323 0.0
H5512 H 0.23245 0.22287 0.46049 0.0
H5513 H 0.23638 0.21269 0.45608 0.0
C5514 C 0.21556 0.20748 0.58982 0.0
C5515 C 0.22381 0.20921 0.58523 0.0
C5516 C 0.21773 0.22372 0.57983 0.0
C5517 C 0.2098 0.2223 0.58503 0.0
N5518 N 0.20152 0.2134 0.59585 0.0
N5519 N 0.23325 0.21928 0.57665 0.0
C5520 C 0.20883 0.21434 0.59028 0.0
C5521 C 0.22503 0.21741 0.58041 0.0
N5522 N 0.21403 0.19912 0.59344 0.0
N5523 N 0.21822 0.23105 0.57423 0.0
H5524 H 0.23867 0.21476 0.57686 0.0
H5525 H 0.23494 0.2255 0.57386 0.0
H5526 H 0.21315 0.23594 0.57388 0.0
H5527 H 0.22334 0.232 0.56951 0.0
H5528 H 0.20779 0.19707 0.59596 0.0
H5529 H 0.21877 0.19391 0.59326 0.0
H5530 H 0.20098 0.20834 0.6007 0.0
H5531 H 0.19622 0.21804 0.59609 0.0
C5532 C 0.81638 0.2089 0.57846 0.0
C5533 C 0.80856 0.20958 0.58399 0.0
C5534 C 0.81383 0.22427 0.58974 0.0
C5535 C 0.82163 0.22358 0.58421 0.0
N5536 N 0.8295 0.21629 0.57197 0.0
N5537 N 0.79883 0.21863 0.59338 0.0
C5538 C 0.8226 0.21624 0.57811 0.0
C5539 C 0.80698 0.21751 0.58916 0.0
N5540 N 0.81809 0.20104 0.57392 0.0
N5541 N 0.8131 0.23126 0.59573 0.0
H5542 H 0.79369 0.21382 0.59306 0.0
H5543 H 0.79685 0.22459 0.59655 0.0
H5544 H 0.81774 0.23656 0.596 0.0
H5545 H 0.80818 0.23162 0.60074 0.0
H5546 H 0.82416 0.19966 0.57064 0.0
H5547 H 0.81366 0.19556 0.57391 0.0
H5548 H 0.83003 0.21169 0.56668 0.0
H5549 H 0.83435 0.2214 0.57171 0.0
C5550 C 0.22449 0.8128 0.58901 0.0
C5551 C 0.22287 0.8207 0.58383 0.0
C5552 C 0.20877 0.81405 0.57804 0.0
C5553 C 0.20978 0.80675 0.58416 0.0
N5554 N 0.2184 0.79909 0.59566 0.0
N5555 N 0.21328 0.82922 0.57378 0.0
C5556 C 0.21763 0.80606 0.58965 0.0
C5557 C 0.21501 0.82138 0.57834 0.0
N5558 N 0.23267 0.81169 0.59319 0.0
N5559 N 0.20182 0.81398 0.57194 0.0
H5560 H 0.21772 0.83469 0.57372 0.0
H5561 H 0.20718 0.83059 0.57053 0.0
H5562 H 0.19696 0.80889 0.57172 0.0
H5563 H 0.20125 0.81856 0.56664 0.0
H5564 H 0.23466 0.80575 0.59637 0.0
H5565 H 0.23781 0.81649 0.59283 0.0
H5566 H 0.22336 0.79875 0.60064 0.0
H5567 H 0.21375 0.79381 0.59597 0.0
C5568 C 1.01116 0.25557 0.36241 0.0
C5569 C 1.00679 0.26218 0.36781 0.0
C5570 C 0.02148 0.26762 0.37329 0.0
C5571 C 0.02586 0.26157 0.36726 0.0
N5572 N 0.02525 0.2482 0.35808 0.0
N5573 N 1.00744 0.27256 0.38029 0.0
C5574 C 0.02079 0.25496 0.36252 0.0
C5575 C 1.01187 0.2675 0.37395 0.0
N5576 N 1.00608 0.25017 0.35691 0.0
N5577 N 0.02646 0.27388 0.37791 0.0
H5578 H 1.00041 0.27268 0.3808 0.0
H5579 H 1.01068 0.27598 0.38551 0.0
H5580 H 0.03351 0.27401 0.37779 0.0
H5581 H 0.02367 0.2792 0.38155 0.0
H5582 H 1.00876 0.24587 0.35204 0.0
H5583 H 0.99902 0.25019 0.35707 0.0
H5584 H 0.02205 0.24276 0.35498 0.0
H5585 H 0.03229 0.24767 0.35816 0.0
C5586 C 0.76479 1.01165 0.37442 0.0
C5587 C 0.76926 1.00659 0.36763 0.0
C5588 C 0.77592 0.02053 0.36163 0.0
C5589 C 0.76999 0.02563 0.36716 0.0
N5590 N 0.75919 0.0263 0.3793 0.0
N5591 N 0.77979 1.00584 0.35531 0.0
C5592 C 0.76471 0.02127 0.37386 0.0
C5593 C 0.7752 1.01092 0.36151 0.0
N5594 N 0.76054 1.00722 0.38129 0.0
N5595 N 0.78214 0.02494 0.35645 0.0
H5596 H 0.7797 0.99879 0.35539 0.0
H5597 H 0.78347 1.00854 0.34997 0.0
H5598 H 0.78275 0.03197 0.35652 0.0
H5599 H 0.78714 0.02172 0.35271 0.0
H5600 H 0.75778 1.01043 0.3869 0.0
H5601 H 0.76045 1.00019 0.38175 0.0
H5602 H 0.75435 0.02355 0.38358 0.0
H5603 H 0.75917 0.03334 0.37925 0.0
C5604 C 0.02034 0.77523 0.36267 0.0
C5605 C 0.0247 0.76831 0.36768 0.0
C5606 C 1.00999 0.7627 0.37291 0.0
C5607 C 1.00561 0.76915 0.36729 0.0
N5608 N 1.0063 0.78297 0.35885 0.0
N5609 N 0.02402 0.75724 0.37953 0.0
C5610 C 1.01072 0.77593 0.36288 0.0
C5611 C 0.01961 0.76269 0.37352 0.0
N5612 N 0.02544 0.78087 0.35744 0.0
N5613 N 1.00499 0.75622 0.37716 0.0
H5614 H 0.03105 0.75698 0.37999 0.0
H5615 H 0.02078 0.75359 0.38458 0.0
H5616 H 0.99794 0.75614 0.37707 0.0
H5617 H 1.00777 0.75066 0.38043 0.0
H5618 H 0.02275 0.78543 0.35282 0.0
H5619 H 0.03249 0.78077 0.35755 0.0
H5620 H 1.00953 0.78853 0.35603 0.0
H5621 H 0.99927 0.78359 0.359 0.0
C5622 C 0.25604 0.01972 0.36112 0.0
C5623 C 0.26203 0.02419 0.36714 0.0
C5624 C 0.26674 1.00962 0.37352 0.0
C5625 C 0.26141 1.00513 0.36692 0.0
N5626 N 0.24913 1.00558 0.3563 0.0
N5627 N 0.27094 0.02381 0.38071 0.0
C5628 C 0.25538 1.01011 0.36137 0.0
C5629 C 0.26661 0.01925 0.37395 0.0
N5630 N 0.25132 0.02468 0.35492 0.0
N5631 N 0.27235 1.0047 0.37897 0.0
H5632 H 0.271 0.03085 0.38108 0.0
H5633 H 0.27379 0.0207 0.38633 0.0
H5634 H 0.27239 0.99766 0.37902 0.0
H5635 H 0.27721 1.00754 0.38319 0.0
H5636 H 0.2476 0.02188 0.34964 0.0
H5637 H 0.25136 0.03173 0.35491 0.0
H5638 H 0.24407 1.00872 0.35256 0.0
H5639 H 0.24856 0.99855 0.35646 0.0
C5640 C 1.01167 0.76027 0.659 0.0
C5641 C 1.00647 0.76765 0.66229 0.0
C5642 C 0.02038 0.77623 0.66527 0.0
C5643 C 0.02557 0.76865 0.66249 0.0
N5644 N 0.02636 0.75446 0.65455 0.0
N5645 N 1.00554 0.7833 0.66647 0.0
C5646 C 0.02126 0.76104 0.65856 0.0
C5647 C 1.01075 0.77588 0.66471 0.0
N5648 N 1.00748 0.75231 0.65686 0.0
N5649 N 0.02471 0.78362 0.66873 0.0
H5650 H 0.9985 0.78316 0.66606 0.0
H5651 H 1.00813 0.78973 0.66764 0.0
H5652 H 0.03174 0.78422 0.66875 0.0
H5653 H 0.02142 0.78902 0.67182 0.0
H5654 H 1.01092 0.74631 0.65558 0.0
H5655 H 1.00048 0.75152 0.65687 0.0
H5656 H 0.02364 0.74923 0.6507 0.0
H5657 H 0.0334 0.75461 0.65439 0.0
C5658 C 0.25791 0.02018 0.65845 0.0
C5659 C 0.26201 0.02494 0.66571 0.0
C5660 C 0.26592 1.01055 0.67291 0.0
C5661 C 0.26312 1.00586 0.66505 0.0
N5662 N 0.25669 1.00606 0.65011 0.0
N5663 N 0.27126 0.02461 0.6792 0.0
C5664 C 0.25909 1.01063 0.65777 0.0
C5665 C 0.2663 0.02011 0.67282 0.0
N5666 N 0.25279 0.0248 0.6523 0.0
N5667 N 0.2682 1.00583 0.68052 0.0
H5668 H 0.27201 0.03161 0.67932 0.0
H5669 H 0.27538 0.02135 0.68389 0.0
H5670 H 0.26803 0.99879 0.68085 0.0
H5671 H 0.26936 1.0089 0.68675 0.0
H5672 H 0.24892 0.02168 0.64732 0.0
H5673 H 0.25183 0.03178 0.65267 0.0
H5674 H 0.25463 1.00922 0.64418 0.0
H5675 H 0.25724 0.99905 0.64955 0.0
C5676 C 1.0103 0.26347 0.65561 0.0
C5677 C 1.00585 0.26045 0.66353 0.0
C5678 C 0.02045 0.25718 0.6707 0.0
C5679 C 0.02489 0.26106 0.66316 0.0
N5680 N 0.02451 0.26551 0.64758 0.0
N5681 N 1.00633 0.25207 0.67741 0.0
C5682 C 0.01994 0.26336 0.65528 0.0
C5683 C 1.01084 0.25644 0.67066 0.0
N5684 N 1.00528 0.26686 0.64863 0.0
N5685 N 0.02541 0.25467 0.67809 0.0
H5686 H 0.9993 0.25151 0.67749 0.0
H5687 H 1.00949 0.24838 0.68249 0.0
H5688 H 0.03246 0.25478 0.67816 0.0
H5689 H 0.0226 0.25277 0.68423 0.0
H5690 H 1.00802 0.27008 0.64304 0.0
H5691 H 0.99823 0.26664 0.64858 0.0
H5692 H 0.02143 0.26665 0.64136 0.0
H5693 H 0.03157 0.26545 0.64725 0.0
C5694 C 0.76518 0.01952 0.65559 0.0
C5695 C 0.76977 0.02452 0.66235 0.0
C5696 C 0.7763 1.01047 0.66832 0.0
C5697 C 0.77026 1.00547 0.6628 0.0
N5698 N 0.75935 1.00496 0.65072 0.0
N5699 N 0.78038 0.02507 0.67466 0.0
C5700 C 0.76498 1.00991 0.65613 0.0
C5701 C 0.77569 0.02008 0.66846 0.0
N5702 N 0.76091 0.02403 0.64875 0.0
N5703 N 0.78251 1.00595 0.67346 0.0
H5704 H 0.78037 0.03213 0.67461 0.0
H5705 H 0.78402 0.02231 0.68 0.0
H5706 H 0.78303 0.99892 0.67338 0.0
H5707 H 0.78758 1.00911 0.67717 0.0
H5708 H 0.75806 0.02086 0.64316 0.0
H5709 H 0.76091 0.03106 0.6483 0.0
H5710 H 0.75452 1.00778 0.64647 0.0
H5711 H 0.75927 0.99792 0.65076 0.0
C5712 C 0.36959 1.01077 0.25521 0.0
C5713 C 0.36704 1.00635 0.26332 0.0
C5714 C 0.3653 0.02103 0.27085 0.0
C5715 C 0.36676 0.02545 0.26248 0.0
N5716 N 0.37006 0.02477 0.24659 0.0
N5717 N 0.3616 1.00716 0.27866 0.0
C5718 C 0.36891 0.02039 0.25463 0.0
C5719 C 0.36475 1.01146 0.27111 0.0
N5720 N 0.37275 1.00575 0.24813 0.0
N5721 N 0.36449 0.02601 0.2786 0.0
H5722 H 0.36125 1.00016 0.27927 0.0
H5723 H 0.35868 1.01052 0.28411 0.0
H5724 H 0.36453 0.03305 0.27871 0.0
H5725 H 0.36452 0.02319 0.28504 0.0
H5726 H 0.37551 1.00852 0.2423 0.0
H5727 H 0.37323 0.99872 0.24838 0.0
H5728 H 0.37071 0.0215 0.24041 0.0
H5729 H 0.36992 0.0318 0.24606 0.0
C5730 C 1.01057 0.37461 0.26123 0.0
C5731 C 1.00606 0.36625 0.25992 0.0
C5732 C 0.02063 0.35857 0.25778 0.0
C5733 C 0.02511 0.36658 0.26056 0.0
N5734 N 0.0249 0.38259 0.26313 0.0
N5735 N 1.00642 0.35048 0.25599 0.0
C5736 C 0.02023 0.37477 0.26161 0.0
C5737 C 1.011 0.35833 0.25769 0.0
N5738 N 1.00554 0.38228 0.26237 0.0
N5739 N 0.02566 0.3512 0.25534 0.0
H5740 H 0.99939 0.35021 0.25552 0.0
H5741 H 1.00946 0.34419 0.25523 0.0
H5742 H 0.03271 0.35119 0.25544 0.0
H5743 H 0.02298 0.34529 0.25265 0.0
H5744 H 1.00818 0.38867 0.26357 0.0
H5745 H 0.99849 0.38228 0.26186 0.0
H5746 H 0.02195 0.38889 0.2641 0.0
H5747 H 0.03195 0.38281 0.26317 0.0
C5748 C 0.65807 1.00999 0.26769 0.0
C5749 C 0.66331 1.00554 0.26099 0.0
C5750 C 0.66762 0.02018 0.2545 0.0
C5751 C 0.66298 0.02461 0.26162 0.0
N5752 N 0.65178 0.02407 0.27337 0.0
N5753 N 0.671 1.00606 0.24672 0.0
C5754 C 0.65747 0.0196 0.26763 0.0
C5755 C 0.66736 1.01056 0.25392 0.0
N5756 N 0.65419 1.00507 0.27446 0.0
N5757 N 0.67257 0.02519 0.24854 0.0
H5758 H 0.67081 0.99903 0.2462 0.0
H5759 H 0.67351 1.00923 0.24099 0.0
H5760 H 0.67246 0.03224 0.24855 0.0
H5761 H 0.67695 0.02244 0.24379 0.0
H5762 H 0.65125 1.00791 0.28017 0.0
H5763 H 0.65428 0.99803 0.2746 0.0
H5764 H 0.64694 0.02087 0.27733 0.0
H5765 H 0.65135 0.0311 0.27361 0.0
C5766 C 1.01164 0.66 0.27051 0.0
C5767 C 1.00658 0.66267 0.2628 0.0
C5768 C 0.02068 0.6651 0.25436 0.0
C5769 C 0.02571 0.66282 0.2622 0.0
N5770 N 0.02618 0.65587 0.27691 0.0
N5771 N 1.00601 0.66566 0.24686 0.0
C5772 C 0.02123 0.65946 0.26997 0.0
C5773 C 1.01104 0.66451 0.25452 0.0
N5774 N 1.00731 0.65857 0.27855 0.0
N5775 N 0.02514 0.66813 0.24687 0.0
H5776 H 0.99896 0.66522 0.24686 0.0
H5777 H 1.00876 0.66633 0.24044 0.0
H5778 H 0.03218 0.66818 0.24644 0.0
H5779 H 0.02193 0.67088 0.24125 0.0
H5780 H 1.01066 0.65779 0.28469 0.0
H5781 H 1.0003 0.65873 0.27924 0.0
H5782 H 0.02333 0.6524 0.28231 0.0
H5783 H 0.03322 0.65567 0.27692 0.0
C5784 C 0.36417 1.01023 0.77608 0.0
C5785 C 0.3682 1.00517 0.76901 0.0
C5786 C 0.37419 0.01917 0.76242 0.0
C5787 C 0.36872 0.02424 0.76844 0.0
N5788 N 0.35915 0.02492 0.78153 0.0
N5789 N 0.3774 1.0046 0.7556 0.0
C5790 C 0.36403 0.01986 0.77554 0.0
C5791 C 0.37351 1.00957 0.76234 0.0
N5792 N 0.36044 1.00577 0.78323 0.0
N5793 N 0.3799 0.02359 0.75668 0.0
H5794 H 0.37726 0.99756 0.75545 0.0
H5795 H 0.3804 1.00739 0.74991 0.0
H5796 H 0.38039 0.03061 0.75647 0.0
H5797 H 0.3847 0.02035 0.75269 0.0
H5798 H 0.35791 1.00895 0.78897 0.0
H5799 H 0.36053 0.99873 0.78373 0.0
H5800 H 0.35474 0.02224 0.78628 0.0
H5801 H 0.35934 0.03197 0.78155 0.0
C5802 C 0.02073 0.35819 0.77152 0.0
C5803 C 0.02567 0.36617 0.76958 0.0
C5804 C 1.01151 0.37479 0.76829 0.0
C5805 C 1.00663 0.36658 0.76893 0.0
N5806 N 1.00605 0.351 0.77347 0.0
N5807 N 0.02621 0.38228 0.76775 0.0
C5808 C 1.01109 0.35845 0.77139 0.0
C5809 C 0.02117 0.37459 0.76863 0.0
N5810 N 0.02531 0.35029 0.77297 0.0
N5811 N 1.00684 0.38269 0.76722 0.0
H5812 H 0.03325 0.38223 0.76826 0.0
H5813 H 0.02357 0.38869 0.76667 0.0
H5814 H 0.99979 0.38292 0.76717 0.0
H5815 H 1.00978 0.38904 0.76672 0.0
H5816 H 0.02228 0.34399 0.77356 0.0
H5817 H 0.03234 0.35 0.77346 0.0
H5818 H 1.00871 0.34495 0.77586 0.0
H5819 H 0.999 0.35102 0.77336 0.0
C5820 C 0.65785 0.02079 0.76222 0.0
C5821 C 0.66316 0.02527 0.76885 0.0
C5822 C 0.66745 1.01067 0.77546 0.0
C5823 C 0.66277 1.0062 0.76838 0.0
N5824 N 0.65154 1.00669 0.75663 0.0
N5825 N 0.67096 0.02483 0.78308 0.0
C5826 C 0.65724 1.01118 0.76234 0.0
C5827 C 0.66725 0.02029 0.77595 0.0
N5828 N 0.6539 0.02569 0.75546 0.0
N5829 N 0.67239 1.00567 0.78147 0.0
H5830 H 0.67081 0.03187 0.78354 0.0
H5831 H 0.67353 0.02171 0.78883 0.0
H5832 H 0.67225 0.99862 0.78152 0.0
H5833 H 0.67679 1.00843 0.78621 0.0
H5834 H 0.65089 0.02283 0.74978 0.0
H5835 H 0.65398 0.03273 0.75528 0.0
H5836 H 0.64669 1.00986 0.75263 0.0
H5837 H 0.6511 0.99966 0.75645 0.0
C5838 C 0.01971 0.66461 0.75847 0.0
C5839 C 0.0248 0.66346 0.76652 0.0
C5840 C 1.01074 0.66267 0.77534 0.0
C5841 C 1.00568 0.66373 0.76725 0.0
N5842 N 1.00517 0.66378 0.75097 0.0
N5843 N 0.02539 0.65982 0.78234 0.0
C5844 C 1.01012 0.66403 0.75877 0.0
C5845 C 0.02037 0.66198 0.77489 0.0
N5846 N 0.024 0.66679 0.75058 0.0
N5847 N 1.00633 0.66257 0.78344 0.0
H5848 H 0.03243 0.65933 0.78216 0.0
H5849 H 0.02261 0.65787 0.78849 0.0
H5850 H 0.99929 0.66269 0.78393 0.0
H5851 H 1.00958 0.66278 0.78967 0.0
H5852 H 0.02063 0.6689 0.74478 0.0
H5853 H 0.03101 0.66716 0.74996 0.0
H5854 H 1.00801 0.66286 0.74461 0.0
H5855 H 0.99812 0.66374 0.75084 0.0
C5856 C 0.25596 0.36166 1.01068 0.0
C5857 C 0.26189 0.36778 1.0063 0.0
C5858 C 0.26666 0.37393 0.02094 0.0
C5859 C 0.26135 0.36727 0.02534 0.0
N5860 N 0.2491 0.35666 0.02475 0.0
N5861 N 0.27072 0.38138 1.00687 0.0
C5862 C 0.25533 0.36179 0.02029 0.0
C5863 C 0.26646 0.37452 1.01133 0.0
N5864 N 0.25131 0.35547 1.00565 0.0
N5865 N 0.27231 0.37929 0.02591 0.0
H5866 H 0.27072 0.38186 0.99984 0.0
H5867 H 0.27355 0.38696 1.01007 0.0
H5868 H 0.27243 0.37922 0.03295 0.0
H5869 H 0.27716 0.38353 0.02311 0.0
H5870 H 0.24767 0.35013 1.00839 0.0
H5871 H 0.25133 0.35554 0.99861 0.0
H5872 H 0.24403 0.35298 0.02155 0.0
H5873 H 0.24854 0.35672 0.03177 0.0
C5874 C 0.26656 0.65608 0.01925 0.0
C5875 C 0.26208 0.66289 0.02428 0.0
C5876 C 0.25539 0.66884 1.0103 0.0
C5877 C 0.2613 0.66325 1.00523 0.0
N5878 N 0.27204 0.65104 1.00462 0.0
N5879 N 0.25153 0.67524 0.02493 0.0
C5880 C 0.26659 0.65655 1.00963 0.0
C5881 C 0.25613 0.66901 0.0199 0.0
N5882 N 0.27089 0.64925 0.02372 0.0
N5883 N 0.24916 0.67401 1.00585 0.0
H5884 H 0.25163 0.67521 0.03198 0.0
H5885 H 0.24785 0.68058 0.0222 0.0
H5886 H 0.24852 0.67391 0.99883 0.0
H5887 H 0.24416 0.67779 1.00905 0.0
H5888 H 0.27367 0.64363 0.02055 0.0
H5889 H 0.27102 0.64885 0.03076 0.0
H5890 H 0.27687 0.64672 1.00736 0.0
H5891 H 0.27198 0.65101 0.99757 0.0
C5892 C 0.36468 0.27091 0.0193 0.0
C5893 C 0.36698 0.26314 0.02443 0.0
C5894 C 0.36919 0.25444 1.01044 0.0
C5895 C 0.36703 0.26227 1.00533 0.0
N5896 N 0.36443 0.27835 1.00474 0.0
N5897 N 0.3728 0.24797 0.02514 0.0
C5898 C 0.36535 0.27063 1.00973 0.0
C5899 C 0.36968 0.25503 0.02006 0.0
N5900 N 0.36141 0.27845 0.02355 0.0
N5901 N 0.37054 0.24641 1.00607 0.0
H5902 H 0.37311 0.24822 0.03217 0.0
H5903 H 0.37565 0.24215 0.02243 0.0
H5904 H 0.37058 0.24588 0.99904 0.0
H5905 H 0.3712 0.24023 1.00934 0.0
H5906 H 0.35847 0.28387 0.02017 0.0
H5907 H 0.36101 0.27908 0.03055 0.0
H5908 H 0.36433 0.2848 1.00755 0.0
H5909 H 0.36447 0.27844 0.99771 0.0
C5910 C 0.77561 0.36188 0.01946 0.0
C5911 C 0.76968 0.36799 0.02387 0.0
C5912 C 0.76495 0.37424 1.00927 0.0
C5913 C 0.77025 0.36758 1.00484 0.0
N5914 N 0.78248 0.3569 1.00537 0.0
N5915 N 0.76085 0.38161 0.02339 0.0
C5916 C 0.77626 0.36204 1.00986 0.0
C5917 C 0.76512 0.37477 0.01888 0.0
N5918 N 0.78026 0.35565 0.02446 0.0
N5919 N 0.75934 0.37966 1.00432 0.0
H5920 H 0.76084 0.38206 0.03042 0.0
H5921 H 0.75803 0.38722 0.02022 0.0
H5922 H 0.75926 0.37963 0.99728 0.0
H5923 H 0.75449 0.38391 1.00713 0.0
H5924 H 0.7839 0.35031 0.02169 0.0
H5925 H 0.78022 0.35569 0.0315 0.0
H5926 H 0.78753 0.35317 1.00854 0.0
H5927 H 0.78304 0.35699 0.99834 0.0
C5928 C 0.66755 0.77619 1.01046 0.0
C5929 C 0.66352 0.76915 1.00535 0.0
C5930 C 0.65753 0.76246 0.0193 0.0
C5931 C 0.66302 0.76843 0.0244 0.0
N5932 N 0.67254 0.78156 0.02519 0.0
N5933 N 0.65425 0.75578 1.00467 0.0
C5934 C 0.66769 0.77559 0.02007 0.0
C5935 C 0.65819 0.76246 1.0097 0.0
N5936 N 0.6713 0.78337 1.00604 0.0
N5937 N 0.65183 0.75668 0.02367 0.0
H5938 H 0.65437 0.75571 0.99763 0.0
H5939 H 0.65122 0.75008 1.00741 0.0
H5940 H 0.65136 0.7564 0.03069 0.0
H5941 H 0.64702 0.75271 0.02041 0.0
H5942 H 0.67384 0.78908 1.00925 0.0
H5943 H 0.67119 0.7839 0.99901 0.0
H5944 H 0.67691 0.78637 0.02254 0.0
H5945 H 0.67233 0.78153 0.03223 0.0
C5946 C 0.77552 0.66904 1.01006 0.0
C5947 C 0.76952 0.66297 1.00568 0.0
C5948 C 0.76486 0.65678 0.02031 0.0
C5949 C 0.77022 0.66342 0.02472 0.0
N5950 N 0.78253 0.67397 0.02412 0.0
N5951 N 0.76064 0.6494 1.00623 0.0
C5952 C 0.77623 0.66888 0.01966 0.0
C5953 C 0.76497 0.65622 1.0107 0.0
N5954 N 0.78017 0.67521 1.00504 0.0
N5955 N 0.75924 0.65142 0.0253 0.0
H5956 H 0.76058 0.64894 0.9992 0.0
H5957 H 0.75783 0.64381 1.00942 0.0
H5958 H 0.7592 0.65147 0.03233 0.0
H5959 H 0.75436 0.6472 0.0225 0.0
H5960 H 0.78387 0.68053 1.00778 0.0
H5961 H 0.78008 0.67516 0.99799 0.0
H5962 H 0.78758 0.67764 0.02091 0.0
H5963 H 0.78314 0.67388 0.03114 0.0
C5964 C 0.36945 0.7756 1.01125 0.0
C5965 C 0.36684 0.7675 1.00683 0.0
C5966 C 0.36557 0.75981 0.02144 0.0
C5967 C 0.36696 0.76819 0.02589 0.0
N5968 N 0.37019 0.7841 0.02532 0.0
N5969 N 0.36178 0.75201 1.00757 0.0
C5970 C 0.36898 0.7761 0.02087 0.0
C5971 C 0.36484 0.7596 1.01189 0.0
N5972 N 0.37243 0.78273 1.00623 0.0
N5973 N 0.36497 0.75202 0.02637 0.0
H5974 H 0.36138 0.75142 1.00057 0.0
H5975 H 0.35904 0.74648 1.01092 0.0
H5976 H 0.36518 0.75189 0.0334 0.0
H5977 H 0.36504 0.7456 0.02351 0.0
H5978 H 0.37519 0.78858 1.00899 0.0
H5979 H 0.37275 0.78252 0.99919 0.0
H5980 H 0.37076 0.79032 0.0221 0.0
H5981 H 0.37023 0.78457 0.03235 0.0
C5982 C 0.66676 0.27073 1.01133 0.0
C5983 C 0.66444 0.26298 1.00616 0.0
C5984 C 0.66213 0.25428 0.02011 0.0
C5985 C 0.66427 0.26209 0.02525 0.0
N5986 N 0.66697 0.27816 0.0259 0.0
N5987 N 0.65859 0.24785 1.00537 0.0
C5988 C 0.66602 0.27045 0.02089 0.0
C5989 C 0.66169 0.25488 1.01049 0.0
N5990 N 0.6701 0.27824 1.00711 0.0
N5991 N 0.66073 0.24625 0.02444 0.0
H5992 H 0.65831 0.2481 0.99833 0.0
H5993 H 0.6557 0.24203 1.00805 0.0
H5994 H 0.66065 0.24571 0.03147 0.0
H5995 H 0.66008 0.24007 0.02115 0.0
H5996 H 0.67305 0.28364 1.01053 0.0
H5997 H 0.67055 0.27887 1.00012 0.0
H5998 H 0.66711 0.28461 0.02311 0.0
H5999 H 0.66691 0.27825 0.03294 0.0
C6000 C 0.52182 0.75521 0.86706 0.0
C6001 C 0.52685 0.76223 0.86291 0.0
C6002 C 0.51281 0.7697 0.85814 0.0
C6003 C 0.50777 0.76311 0.86292 0.0
N6004 N 0.50718 0.74983 0.87227 0.0
N6005 N 0.52734 0.77674 0.85549 0.0
C6006 C 0.5122 0.7559 0.86746 0.0
C6007 C 0.52239 0.76962 0.85869 0.0
N6008 N 0.52626 0.74786 0.87046 0.0
N6009 N 0.50842 0.77598 0.85296 0.0
H6010 H 0.53438 0.7769 0.85552 0.0
H6011 H 0.52449 0.78282 0.85339 0.0
H6012 H 0.50139 0.77651 0.85264 0.0
H6013 H 0.51168 0.78025 0.84844 0.0
H6014 H 0.52304 0.74208 0.87282 0.0
H6015 H 0.53329 0.74732 0.87047 0.0
H6016 H 0.50995 0.74497 0.87654 0.0
H6017 H 0.50013 0.74991 0.87234 0.0
C6018 C 0.26535 0.5203 0.85684 0.0
C6019 C 0.26972 0.52513 0.8639 0.0
C6020 C 0.27261 0.51083 0.87186 0.0
C6021 C 0.26856 0.50605 0.8646 0.0
N6022 N 0.26339 0.50601 0.84916 0.0
N6023 N 0.279 0.52499 0.87727 0.0
C6024 C 0.26571 0.51073 0.85675 0.0
C6025 C 0.27383 0.52038 0.87116 0.0
N6026 N 0.26033 0.5248 0.85051 0.0
N6027 N 0.27502 0.50628 0.87952 0.0
H6028 H 0.27999 0.53196 0.87689 0.0
H6029 H 0.28287 0.52185 0.88224 0.0
H6030 H 0.27444 0.49928 0.8801 0.0
H6031 H 0.27711 0.50946 0.88544 0.0
H6032 H 0.25616 0.52153 0.84586 0.0
H6033 H 0.25957 0.53179 0.8504 0.0
H6034 H 0.2622 0.50907 0.84294 0.0
H6035 H 0.26355 0.49897 0.84882 0.0
C6036 C 0.51089 0.26521 0.85708 0.0
C6037 C 0.50592 0.26907 0.86435 0.0
C6038 C 0.52018 0.2719 0.87249 0.0
C6039 C 0.52504 0.26812 0.86513 0.0
N6040 N 0.52512 0.26232 0.84986 0.0
N6041 N 0.50583 0.27757 0.87822 0.0
C6042 C 0.52041 0.26529 0.85724 0.0
C6043 C 0.51058 0.27288 0.87184 0.0
N6044 N 0.50675 0.26106 0.84997 0.0
N6045 N 0.52473 0.27422 0.88019 0.0
H6046 H 0.49882 0.27838 0.8779 0.0
H6047 H 0.50883 0.28123 0.88342 0.0
H6048 H 0.53175 0.27382 0.88072 0.0
H6049 H 0.52156 0.27607 0.88618 0.0
H6050 H 0.49978 0.2602 0.8493 0.0
H6051 H 0.49978 0.2602 0.8493 0.0
H6052 H 0.52193 0.26015 0.84396 0.0
H6053 H 0.53217 0.26236 0.84951 0.0
C6054 C 0.75609 0.52001 0.8616 0.0
C6055 C 0.76205 0.52437 0.86772 0.0
C6056 C 0.76666 0.5097 0.87393 0.0
C6057 C 0.76132 0.50532 0.86726 0.0
N6058 N 0.74908 0.50598 0.85661 0.0
N6059 N 0.77087 0.52377 0.88134 0.0
C6060 C 0.75535 0.51041 0.86175 0.0
C6061 C 0.76657 0.51931 0.87449 0.0
N6062 N 0.75148 0.52506 0.85539 0.0
N6063 N 0.77225 0.50469 0.87932 0.0
H6064 H 0.77094 0.5308 0.88181 0.0
H6065 H 0.77366 0.52056 0.88695 0.0
H6066 H 0.77228 0.49765 0.87927 0.0
H6067 H 0.77713 0.50746 0.88357 0.0
H6068 H 0.74782 0.52233 0.85004 0.0
H6069 H 0.75159 0.53211 0.85543 0.0
H6070 H 0.74405 0.50921 0.8529 0.0
H6071 H 0.74845 0.49896 0.85669 0.0
C6072 C 0.51117 0.26346 0.15637 0.0
C6073 C 0.50616 0.26886 0.16249 0.0
C6074 C 0.52019 0.27613 0.16758 0.0
C6075 C 0.52523 0.26946 0.16289 0.0
N6076 N 0.52575 0.25706 0.15234 0.0
N6077 N 0.50554 0.281 0.17325 0.0
C6078 C 0.52079 0.26335 0.15695 0.0
C6079 C 0.51057 0.27553 0.16777 0.0
N6080 N 0.50669 0.25833 0.15013 0.0
N6081 N 0.52469 0.28294 0.1719 0.0
H6082 H 0.49848 0.28098 0.17315 0.0
H6083 H 0.50827 0.28535 0.17805 0.0
H6084 H 0.53173 0.28346 0.17177 0.0
H6085 H 0.52152 0.28842 0.17496 0.0
H6086 H 0.50987 0.25484 0.14493 0.0
H6087 H 0.49965 0.25821 0.14968 0.0
H6088 H 0.52294 0.25171 0.14876 0.0
H6089 H 0.5328 0.25696 0.1524 0.0
C6090 C 0.75767 0.52045 0.15845 0.0
C6091 C 0.76176 0.52528 0.16567 0.0
C6092 C 0.76579 0.51097 0.17297 0.0
C6093 C 0.76295 0.5062 0.16517 0.0
N6094 N 0.75648 0.50624 0.15025 0.0
N6095 N 0.77108 0.52512 0.17911 0.0
C6096 C 0.75889 0.51089 0.15785 0.0
C6097 C 0.76612 0.52054 0.17279 0.0
N6098 N 0.75252 0.52499 0.15227 0.0
N6099 N 0.76813 0.50633 0.18061 0.0
H6100 H 0.77177 0.53213 0.17917 0.0
H6101 H 0.77525 0.52192 0.1838 0.0
H6102 H 0.76799 0.4993 0.181 0.0
H6103 H 0.76931 0.50947 0.1868 0.0
H6104 H 0.74866 0.5218 0.14733 0.0
H6105 H 0.75154 0.53197 0.15257 0.0
H6106 H 0.7544 0.50934 0.14429 0.0
H6107 H 0.75706 0.49923 0.14974 0.0
C6108 C 0.52014 0.76751 0.15614 0.0
C6109 C 0.52513 0.7619 0.1621 0.0
C6110 C 0.51105 0.75463 0.16702 0.0
C6111 C 0.50605 0.76144 0.16248 0.0
N6112 N 0.50561 0.77414 0.15231 0.0
N6113 N 0.52568 0.74952 0.17257 0.0
C6114 C 0.51052 0.76768 0.15673 0.0
C6115 C 0.52068 0.75515 0.16722 0.0
N6116 N 0.52464 0.77277 0.15005 0.0
N6117 N 0.50651 0.74776 0.17117 0.0
H6118 H 0.53274 0.74948 0.17247 0.0
H6119 H 0.52292 0.74509 0.17726 0.0
H6120 H 0.49947 0.74729 0.17102 0.0
H6121 H 0.50964 0.74219 0.1741 0.0
H6122 H 0.52146 0.7764 0.14494 0.0
H6123 H 0.53168 0.77287 0.14961 0.0
H6124 H 0.50847 0.77958 0.14892 0.0
H6125 H 0.49856 0.77432 0.15237 0.0
C6126 C 0.26468 0.51933 0.15591 0.0
C6127 C 0.26922 0.52436 0.16269 0.0
C6128 C 0.27586 0.51035 0.16864 0.0
C6129 C 0.26988 0.50529 0.1631 0.0
N6130 N 0.25895 0.50473 0.15104 0.0
N6131 N 0.27979 0.52498 0.17502 0.0
C6132 C 0.26455 0.50971 0.15645 0.0
C6133 C 0.27516 0.51996 0.1688 0.0
N6134 N 0.2604 0.5238 0.14906 0.0
N6135 N 0.28212 0.50589 0.17376 0.0
H6136 H 0.27973 0.53203 0.17498 0.0
H6137 H 0.28345 0.52223 0.18036 0.0
H6138 H 0.28273 0.49886 0.17367 0.0
H6139 H 0.28716 0.50908 0.17748 0.0
H6140 H 0.25761 0.52061 0.14345 0.0
H6141 H 0.26034 0.53083 0.14861 0.0
H6142 H 0.25409 0.50753 0.14679 0.0
H6143 H 0.2589 0.49769 0.15107 0.0
C6144 C 0.86431 0.52012 0.75392 0.0
C6145 C 0.86839 0.52516 0.76098 0.0
C6146 C 0.87425 0.51111 0.76763 0.0
C6147 C 0.86872 0.50609 0.76162 0.0
N6148 N 0.85913 0.50548 0.74852 0.0
N6149 N 0.8776 0.52567 0.77441 0.0
C6150 C 0.86407 0.51051 0.75449 0.0
C6151 C 0.87366 0.52072 0.76767 0.0
N6152 N 0.86062 0.52461 0.74674 0.0
N6153 N 0.87994 0.50665 0.77339 0.0
H6154 H 0.87753 0.53271 0.77454 0.0
H6155 H 0.88058 0.52286 0.78012 0.0
H6156 H 0.88035 0.49962 0.77362 0.0
H6157 H 0.88478 0.50985 0.77737 0.0
H6158 H 0.85806 0.52144 0.74101 0.0
H6159 H 0.86079 0.53164 0.74622 0.0
H6160 H 0.85475 0.5082 0.74374 0.0
H6161 H 0.85925 0.49843 0.74853 0.0
C6162 C 0.51007 0.87449 0.76523 0.0
C6163 C 0.50568 0.8672 0.76079 0.0
C6164 C 0.52035 0.86094 0.75624 0.0
C6165 C 0.52473 0.86771 0.76144 0.0
N6166 N 0.52418 0.88229 0.76854 0.0
N6167 N 0.50628 0.85514 0.74996 0.0
C6168 C 0.5197 0.87499 0.76509 0.0
C6169 C 0.51074 0.861 0.75553 0.0
N6170 N 0.50505 0.88058 0.77002 0.0
N6171 N 0.5254 0.85422 0.75239 0.0
H6172 H 0.49924 0.85514 0.74937 0.0
H6173 H 0.50948 0.85084 0.74541 0.0
H6174 H 0.53245 0.85426 0.75249 0.0
H6175 H 0.52266 0.8485 0.74937 0.0
H6176 H 0.5078 0.88545 0.77428 0.0
H6177 H 0.49799 0.88057 0.76997 0.0
H6178 H 0.521 0.88819 0.77067 0.0
H6179 H 0.53122 0.88273 0.76853 0.0
C6180 C 0.15829 0.50979 0.76786 0.0
C6181 C 0.16356 0.50533 0.7612 0.0
C6182 C 0.16783 0.51995 0.75465 0.0
C6183 C 0.1632 0.5244 0.76177 0.0
N6184 N 0.15203 0.52389 0.77355 0.0
N6185 N 0.17131 0.50581 0.74697 0.0
C6186 C 0.15769 0.5194 0.7678 0.0
C6187 C 0.16762 0.51033 0.75412 0.0
N6188 N 0.15435 0.50487 0.7746 0.0
N6189 N 0.17272 0.52496 0.74864 0.0
H6190 H 0.17115 0.49877 0.74648 0.0
H6191 H 0.17386 0.50894 0.74123 0.0
H6192 H 0.17257 0.53202 0.74862 0.0
H6193 H 0.17708 0.52223 0.74386 0.0
H6194 H 0.15136 0.5077 0.78029 0.0
H6195 H 0.15442 0.49783 0.77474 0.0
H6196 H 0.1472 0.52071 0.77753 0.0
H6197 H 0.15161 0.53091 0.77377 0.0
C6198 C 0.5119 0.15881 0.7699 0.0
C6199 C 0.50674 0.16232 0.7626 0.0
C6200 C 0.5207 0.16559 0.75423 0.0
C6201 C 0.52584 0.16259 0.76176 0.0
N6202 N 0.52656 0.15415 0.77564 0.0
N6203 N 0.50591 0.16694 0.74708 0.0
C6204 C 0.52149 0.1584 0.76919 0.0
C6205 C 0.51107 0.16499 0.75449 0.0
N6206 N 0.50767 0.15645 0.77776 0.0
N6207 N 0.52505 0.16932 0.74701 0.0
H6208 H 0.49887 0.1665 0.74715 0.0
H6209 H 0.50855 0.16829 0.74071 0.0
H6210 H 0.53209 0.16938 0.74648 0.0
H6211 H 0.52179 0.17257 0.7417 0.0
H6212 H 0.51108 0.15498 0.78373 0.0
H6213 H 0.50067 0.15644 0.77851 0.0
H6214 H 0.52382 0.15014 0.78072 0.0
H6215 H 0.5336 0.15398 0.77551 0.0
C6216 C 0.87344 0.5095 0.26215 0.0
C6217 C 0.8681 0.50512 0.2688 0.0
C6218 C 0.86395 0.51981 0.27532 0.0
C6219 C 0.86865 0.52418 0.26821 0.0
N6220 N 0.87985 0.52351 0.25648 0.0
N6221 N 0.86031 0.50573 0.283 0.0
C6222 C 0.87412 0.51911 0.26221 0.0
C6223 C 0.86406 0.51019 0.27586 0.0
N6224 N 0.87735 0.50451 0.25542 0.0
N6225 N 0.8591 0.5249 0.28131 0.0
H6226 H 0.86039 0.4987 0.28349 0.0
H6227 H 0.85776 0.50891 0.28873 0.0
H6228 H 0.85932 0.53195 0.28132 0.0
H6229 H 0.8547 0.52223 0.28609 0.0
H6230 H 0.88038 0.5073 0.24974 0.0
H6231 H 0.87721 0.49748 0.25529 0.0
H6232 H 0.88466 0.52027 0.2525 0.0
H6233 H 0.88034 0.53053 0.25626 0.0
C6234 C 0.52085 0.85814 0.2718 0.0
C6235 C 0.52578 0.86615 0.26995 0.0
C6236 C 0.51161 0.87476 0.26871 0.0
C6237 C 0.50674 0.86653 0.26931 0.0
N6238 N 0.50619 0.85089 0.27364 0.0
N6239 N 0.5263 0.88225 0.26808 0.0
C6240 C 0.51122 0.85838 0.27166 0.0
C6241 C 0.52127 0.87456 0.26901 0.0
N6242 N 0.52544 0.85022 0.27317 0.0
N6243 N 0.50693 0.88267 0.26776 0.0
H6244 H 0.53334 0.88223 0.2686 0.0
H6245 H 0.52364 0.88864 0.26691 0.0
H6246 H 0.49988 0.88289 0.2677 0.0
H6247 H 0.50987 0.88903 0.26741 0.0
H6248 H 0.52242 0.84391 0.27367 0.0
H6249 H 0.53247 0.84992 0.27366 0.0
H6250 H 0.50886 0.84483 0.27598 0.0
H6251 H 0.49914 0.85088 0.2735 0.0
C6252 C 0.15821 0.52071 0.26209 0.0
C6253 C 0.1635 0.52514 0.26877 0.0
C6254 C 0.16783 0.51048 0.27524 0.0
C6255 C 0.16318 0.50607 0.26811 0.0
N6256 N 0.15195 0.50664 0.25635 0.0
N6257 N 0.17132 0.52459 0.28298 0.0
C6258 C 0.15764 0.51109 0.26211 0.0
C6259 C 0.1676 0.5201 0.27582 0.0
N6260 N 0.15424 0.52566 0.25537 0.0
N6261 N 0.17274 0.50544 0.28123 0.0
H6262 H 0.17115 0.53162 0.28351 0.0
H6263 H 0.17391 0.52143 0.2887 0.0
H6264 H 0.1726 0.49839 0.28122 0.0
H6265 H 0.1771 0.50815 0.28603 0.0
H6266 H 0.15124 0.52285 0.24967 0.0
H6267 H 0.1543 0.5327 0.25527 0.0
H6268 H 0.1471 0.50984 0.25238 0.0
H6269 H 0.15155 0.49962 0.25608 0.0
C6270 C 0.51067 0.16988 0.27455 0.0
C6271 C 0.50555 0.16354 0.26951 0.0
C6272 C 0.51953 0.15557 0.26537 0.0
C6273 C 0.5246 0.16294 0.26877 0.0
N6274 N 0.52535 0.17672 0.27736 0.0
N6275 N 0.50481 0.14986 0.26075 0.0
C6276 C 0.52028 0.16989 0.27377 0.0
C6277 C 0.5099 0.1561 0.26528 0.0
N6278 N 0.50627 0.17592 0.27996 0.0
N6279 N 0.52397 0.14816 0.26212 0.0
H6280 H 0.49776 0.1499 0.26086 0.0
H6281 H 0.50751 0.14484 0.25664 0.0
H6282 H 0.53101 0.14769 0.26211 0.0
H6283 H 0.52077 0.14221 0.26018 0.0
H6284 H 0.50951 0.18035 0.28436 0.0
H6285 H 0.49924 0.17597 0.2806 0.0
H6286 H 0.52264 0.18255 0.28021 0.0
H6287 H 0.53241 0.17667 0.27722 0.0
C6288 C 0.75768 0.87173 0.52038 0.0
C6289 C 0.7618 0.86445 0.5251 0.0
C6290 C 0.76583 0.85738 0.51067 0.0
C6291 C 0.76298 0.86525 0.50603 0.0
N6292 N 0.75652 0.88017 0.50633 0.0
N6293 N 0.77119 0.85106 0.52471 0.0
C6294 C 0.75892 0.87249 0.51084 0.0
C6295 C 0.76618 0.85741 0.52024 0.0
N6296 N 0.75249 0.8778 0.525 0.0
N6297 N 0.76816 0.8498 0.50591 0.0
H6298 H 0.77192 0.85091 0.53171 0.0
H6299 H 0.77536 0.84643 0.52143 0.0
H6300 H 0.768 0.84951 0.49888 0.0
H6301 H 0.76936 0.84357 0.50895 0.0
H6302 H 0.74861 0.88278 0.52188 0.0
H6303 H 0.75148 0.87739 0.53196 0.0
H6304 H 0.75443 0.88608 0.50954 0.0
H6305 H 0.75712 0.88081 0.49934 0.0
C6306 C 0.76682 0.15624 0.51925 0.0
C6307 C 0.76226 0.16304 0.52422 0.0
C6308 C 0.75568 0.16893 0.51016 0.0
C6309 C 0.76168 0.16337 0.50516 0.0
N6310 N 0.77257 0.15127 0.5047 0.0
N6311 N 0.75166 0.17536 0.52474 0.0
C6312 C 0.76698 0.15672 0.50963 0.0
C6313 C 0.75633 0.16913 0.51976 0.0
N6314 N 0.77109 0.14942 0.52377 0.0
N6315 N 0.74945 0.17404 0.50564 0.0
H6316 H 0.75169 0.17534 0.53178 0.0
H6317 H 0.748 0.18068 0.52195 0.0
H6318 H 0.74889 0.17392 0.49861 0.0
H6319 H 0.7444 0.17779 0.50879 0.0
H6320 H 0.77391 0.1438 0.52063 0.0
H6321 H 0.77113 0.14901 0.5308 0.0
H6322 H 0.77741 0.14702 0.50753 0.0
H6323 H 0.77263 0.15126 0.49766 0.0
C6324 C 0.86409 0.75428 0.5102 0.0
C6325 C 0.86816 0.76135 0.50519 0.0
C6326 C 0.87397 0.76798 0.51928 0.0
C6327 C 0.86846 0.76196 0.52427 0.0
N6328 N 0.85886 0.74887 0.5248 0.0
N6329 N 0.87726 0.77485 0.50477 0.0
C6330 C 0.86382 0.75484 0.51981 0.0
C6331 C 0.87338 0.76806 0.50967 0.0
N6332 N 0.86047 0.74708 0.50569 0.0
N6333 N 0.87966 0.77372 0.52376 0.0
H6334 H 0.87718 0.77501 0.49773 0.0
H6335 H 0.88019 0.78056 0.50763 0.0
H6336 H 0.88007 0.77395 0.53078 0.0
H6337 H 0.8845 0.77769 0.52058 0.0
H6338 H 0.85795 0.74133 0.50884 0.0
H6339 H 0.86067 0.74656 0.49866 0.0
H6340 H 0.85448 0.74412 0.52204 0.0
H6341 H 0.85896 0.74887 0.53185 0.0
C6342 C 0.27555 0.86159 0.51975 0.0
C6343 C 0.26954 0.8676 0.52417 0.0
C6344 C 0.26491 0.87398 0.50959 0.0
C6345 C 0.27027 0.86739 0.50513 0.0
N6346 N 0.28257 0.85679 0.50566 0.0
N6347 N 0.26064 0.88118 0.52374 0.0
C6348 C 0.27627 0.86184 0.51015 0.0
C6349 C 0.26499 0.87441 0.51921 0.0
N6350 N 0.28021 0.85535 0.52473 0.0
N6351 N 0.25931 0.87942 0.50464 0.0
H6352 H 0.26056 0.88155 0.53077 0.0
H6353 H 0.25782 0.88681 0.52061 0.0
H6354 H 0.2593 0.87946 0.4976 0.0
H6355 H 0.25442 0.88362 0.50745 0.0
H6356 H 0.28393 0.85007 0.52194 0.0
H6357 H 0.28012 0.85533 0.53177 0.0
H6358 H 0.28762 0.85306 0.50884 0.0
H6359 H 0.28318 0.85696 0.49864 0.0
C6360 C 0.16648 0.25952 0.519 0.0
C6361 C 0.16419 0.26736 0.52403 0.0
C6362 C 0.16228 0.27594 0.50994 0.0
C6363 C 0.16442 0.26804 0.50494 0.0
N6364 N 0.16676 0.25191 0.50452 0.0
N6365 N 0.15849 0.28258 0.52451 0.0
C6366 C 0.16591 0.2597 0.50943 0.0
C6367 C 0.16163 0.27545 0.51955 0.0
N6368 N 0.16964 0.252 0.52336 0.0
N6369 N 0.16111 0.28394 0.50549 0.0
H6370 H 0.15804 0.2824 0.53154 0.0
H6371 H 0.15573 0.2884 0.5217 0.0
H6372 H 0.16121 0.28441 0.49846 0.0
H6373 H 0.16048 0.29016 0.5087 0.0
H6374 H 0.17255 0.24651 0.52006 0.0
H6375 H 0.16999 0.25145 0.53037 0.0
H6376 H 0.16675 0.24549 0.50738 0.0
H6377 H 0.16672 0.25175 0.49748 0.0
C6378 C 0.26538 0.17298 0.51989 0.0
C6379 C 0.26975 0.16593 0.52472 0.0
C6380 C 0.27255 0.15788 0.51045 0.0
C6381 C 0.26849 0.16513 0.50567 0.0
N6382 N 0.26336 0.18059 0.50558 0.0
N6383 N 0.27898 0.15252 0.52461 0.0
C6384 C 0.26569 0.17302 0.51032 0.0
C6385 C 0.27382 0.15863 0.51999 0.0
N6386 N 0.26044 0.17938 0.52438 0.0
N6387 N 0.27492 0.15019 0.50592 0.0
H6388 H 0.28 0.15293 0.53157 0.0
H6389 H 0.28283 0.14752 0.52149 0.0
H6390 H 0.2743 0.14957 0.49893 0.0
H6391 H 0.27701 0.14428 0.50911 0.0
H6392 H 0.25628 0.18403 0.52113 0.0
H6393 H 0.25977 0.17955 0.53139 0.0
H6394 H 0.2622 0.18683 0.50863 0.0
H6395 H 0.26349 0.18089 0.49854 0.0
C6396 C 0.86957 0.27521 0.5105 0.0
C6397 C 0.86702 0.26713 0.50599 0.0
C6398 C 0.86526 0.25946 0.52058 0.0
C6399 C 0.86671 0.2678 0.52509 0.0
N6400 N 0.87002 0.2837 0.52459 0.0
N6401 N 0.86162 0.25176 0.50661 0.0
C6402 C 0.86887 0.2757 0.52012 0.0
C6403 C 0.86474 0.25928 0.511 0.0
N6404 N 0.87274 0.28233 0.50557 0.0
N6405 N 0.86444 0.25167 0.52547 0.0
H6406 H 0.86131 0.2512 0.4996 0.0
H6407 H 0.85871 0.24627 0.50989 0.0
H6408 H 0.86447 0.25151 0.5325 0.0
H6409 H 0.86447 0.24525 0.52259 0.0
H6410 H 0.87549 0.28814 0.50842 0.0
H6411 H 0.87322 0.28214 0.49855 0.0
H6412 H 0.87067 0.28992 0.52139 0.0
H6413 H 0.86988 0.28417 0.53162 0.0
C6414 C 0.16659 0.77126 0.51111 0.0
C6415 C 0.16427 0.76342 0.50609 0.0
C6416 C 0.16242 0.75486 0.5202 0.0
C6417 C 0.16459 0.76277 0.52519 0.0
N6418 N 0.1669 0.77889 0.52559 0.0
N6419 N 0.15855 0.74822 0.50565 0.0
C6420 C 0.16606 0.7711 0.52069 0.0
C6421 C 0.16172 0.75535 0.51059 0.0
N6422 N 0.16975 0.77876 0.50674 0.0
N6423 N 0.16128 0.74686 0.52466 0.0
H6424 H 0.15805 0.7484 0.49862 0.0
H6425 H 0.1558 0.74241 0.50848 0.0
H6426 H 0.16143 0.7464 0.53169 0.0
H6427 H 0.16064 0.74064 0.52145 0.0
H6428 H 0.17267 0.78424 0.51004 0.0
H6429 H 0.17008 0.7793 0.49973 0.0
H6430 H 0.16688 0.78531 0.52271 0.0
H6431 H 0.16687 0.77906 0.53263 0.0
loop_
_geom_bond_atom_site_label_1
_geom_bond_atom_site_label_2
_geom_bond_distance
_geom_bond_site_symmetry_2
_ccdc_geom_bond_type
C0 C1 1.264 . S
C0 C5 1.479 . S
C0 C10 1.465 . S
C1 C0 1.264 . S
C1 C3 1.339 . S
C1 H28 0.931 . S
C2 C3 1.395 . S
C2 C4 1.320 . S
C3 C1 1.339 . S
C3 C2 1.395 . S
C3 H29 0.929 . S
C4 C2 1.320 . S
C4 C5 1.405 . S
C4 H30 0.930 . S
C5 C0 1.479 . S
C5 C4 1.405 . S
C5 H31 0.931 . S
U6 O7 2.454 . S
U6 O8 2.458 . S
U6 C9 2.984 . S
U6 C10 2.847 . S
U6 C23 2.882 . S
U6 O24 2.441 . S
U6 O25 2.420 . S
U6 O26 2.455 . S
U6 O27 2.449 . S
O7 U6 2.454 . S
O7 C9 1.353 . S
O8 U6 2.458 . S
O8 C9 1.286 . S
C9 U6 2.984 . S
C9 O7 1.353 . S
C9 O8 1.286 . S
C9 C11 1.363 . S
C10 C0 1.465 . S
C10 U6 2.847 . S
C10 O24 1.249 . S
C10 O25 1.202 . S
C11 C9 1.363 . S
C11 C13 1.408 . S
C11 C16 1.342 . S
C12 C13 1.310 . S
C12 C15 1.461 . S
C12 H32 0.932 . S
C13 C11 1.408 . S
C13 C12 1.310 . S
C13 H33 0.930 . S
C14 C15 1.474 . S
C14 C16 1.285 . S
C14 H34 0.929 . S
C15 C12 1.461 . S
C15 C14 1.474 . S
C16 C11 1.342 . S
C16 C14 1.285 . S
C16 H35 0.930 . S
C17 C20 1.424 . S
C17 C22 1.245 . S
C17 C23 1.428 . S
C18 C21 1.260 . S
C18 C22 1.477 . S
C18 H36 0.932 . S
C19 C20 1.384 . S
C19 C21 1.479 . S
C19 H37 0.929 . S
C20 C17 1.424 . S
C20 C19 1.384 . S
C20 H38 0.928 . S
C21 C18 1.260 . S
C21 C19 1.479 . S
C22 C17 1.245 . S
C22 C18 1.477 . S
C22 H39 0.932 . S
C23 U6 2.882 . S
C23 C17 1.428 . S
C23 O26 1.301 . S
C23 O27 1.282 . S
O24 U6 2.441 . S
O24 C10 1.249 . S
O25 U6 2.420 . S
O25 C10 1.202 . S
O26 U6 2.455 . S
O26 C23 1.301 . S
O27 U6 2.449 . S
O27 C23 1.282 . S
H28 C1 0.931 . S
H29 C3 0.929 . S
H30 C4 0.930 . S
H31 C5 0.931 . S
H32 C12 0.932 . S
H33 C13 0.930 . S
H34 C14 0.929 . S
H35 C16 0.930 . S
H36 C18 0.932 . S
H37 C19 0.929 . S
H38 C20 0.928 . S
H39 C22 0.932 . S
C40 C41 1.264 . S
C40 C45 1.479 . S
C40 C50 1.465 . S
C41 C40 1.264 . S
C41 C43 1.339 . S
C41 H68 0.931 . S
C42 C43 1.395 . S
C42 C44 1.320 . S
C43 C41 1.339 . S
C43 C42 1.395 . S
C43 H69 0.929 . S
C44 C42 1.320 . S
C44 C45 1.405 . S
C44 H70 0.930 . S
C45 C40 1.479 . S
C45 C44 1.405 . S
C45 H71 0.931 . S
U46 O47 2.454 . S
U46 O48 2.458 . S
U46 C49 2.984 . S
U46 C50 2.847 . S
U46 C63 2.882 . S
U46 O64 2.441 . S
U46 O65 2.420 . S
U46 O66 2.455 . S
U46 O67 2.449 . S
O47 U46 2.454 . S
O47 C49 1.353 . S
O48 U46 2.458 . S
O48 C49 1.286 . S
C49 U46 2.984 . S
C49 O47 1.353 . S
C49 O48 1.286 . S
C49 C51 1.363 . S
C50 C40 1.465 . S
C50 U46 2.847 . S
C50 O64 1.249 . S
C50 O65 1.202 . S
C51 C49 1.363 . S
C51 C53 1.408 . S
C51 C56 1.342 . S
C52 C53 1.310 . S
C52 C55 1.461 . S
C52 H72 0.932 . S
C53 C51 1.408 . S
C53 C52 1.310 . S
C53 H73 0.930 . S
C54 C55 1.474 . S
C54 C56 1.285 . S
C54 H74 0.929 . S
C55 C52 1.461 . S
C55 C54 1.474 . S
C56 C51 1.342 . S
C56 C54 1.285 . S
C56 H75 0.930 . S
C57 C60 1.424 . S
C57 C62 1.245 . S
C57 C63 1.428 . S
C58 C61 1.260 . S
C58 C62 1.477 . S
C58 H76 0.932 . S
C59 C60 1.384 . S
C59 C61 1.479 . S
C59 H77 0.929 . S
C60 C57 1.424 . S
C60 C59 1.384 . S
C60 H78 0.928 . S
C61 C58 1.260 . S
C61 C59 1.479 . S
C62 C57 1.245 . S
C62 C58 1.477 . S
C62 H79 0.932 . S
C63 U46 2.882 . S
C63 C57 1.428 . S
C63 O66 1.301 . S
C63 O67 1.282 . S
O64 U46 2.441 . S
O64 C50 1.249 . S
O65 U46 2.420 . S
O65 C50 1.202 . S
O66 U46 2.455 . S
O66 C63 1.301 . S
O67 U46 2.449 . S
O67 C63 1.282 . S
H68 C41 0.931 . S
H69 C43 0.929 . S
H70 C44 0.930 . S
H71 C45 0.931 . S
H72 C52 0.932 . S
H73 C53 0.930 . S
H74 C54 0.929 . S
H75 C56 0.930 . S
H76 C58 0.932 . S
H77 C59 0.929 . S
H78 C60 0.928 . S
H79 C62 0.932 . S
C80 C81 1.264 . S
C80 C85 1.479 . S
C80 C90 1.465 . S
C81 C80 1.264 . S
C81 C83 1.339 . S
C81 H108 0.931 . S
C82 C83 1.395 . S
C82 C84 1.320 . S
C83 C81 1.339 . S
C83 C82 1.395 . S
C83 H109 0.929 . S
C84 C82 1.320 . S
C84 C85 1.405 . S
C84 H110 0.930 . S
C85 C80 1.479 . S
C85 C84 1.405 . S
C85 H111 0.931 . S
U86 O87 2.454 . S
U86 O88 2.458 . S
U86 C89 2.984 . S
U86 C90 2.847 . S
U86 C103 2.882 . S
U86 O104 2.441 . S
U86 O105 2.420 . S
U86 O106 2.455 . S
U86 O107 2.449 . S
O87 U86 2.454 . S
O87 C89 1.353 . S
O88 U86 2.458 . S
O88 C89 1.286 . S
C89 U86 2.984 . S
C89 O87 1.353 . S
C89 O88 1.286 . S
C89 C91 1.363 . S
C90 C80 1.465 . S
C90 U86 2.847 . S
C90 O104 1.249 . S
C90 O105 1.202 . S
C91 C89 1.363 . S
C91 C93 1.408 . S
C91 C96 1.342 . S
C92 C93 1.310 . S
C92 C95 1.461 . S
C92 H112 0.932 . S
C93 C91 1.408 . S
C93 C92 1.310 . S
C93 H113 0.930 . S
C94 C95 1.474 . S
C94 C96 1.285 . S
C94 H114 0.929 . S
C95 C92 1.461 . S
C95 C94 1.474 . S
C96 C91 1.342 . S
C96 C94 1.285 . S
C96 H115 0.930 . S
C97 C100 1.424 . S
C97 C102 1.245 . S
C97 C103 1.428 . S
C98 C101 1.260 . S
C98 C102 1.477 . S
C98 H116 0.932 . S
C99 C100 1.384 . S
C99 C101 1.479 . S
C99 H117 0.929 . S
C100 C97 1.424 . S
C100 C99 1.384 . S
C100 H118 0.928 . S
C101 C98 1.260 . S
C101 C99 1.479 . S
C102 C97 1.245 . S
C102 C98 1.477 . S
C102 H119 0.932 . S
C103 U86 2.882 . S
C103 C97 1.428 . S
C103 O106 1.301 . S
C103 O107 1.282 . S
O104 U86 2.441 . S
O104 C90 1.249 . S
O105 U86 2.420 . S
O105 C90 1.202 . S
O106 U86 2.455 . S
O106 C103 1.301 . S
O107 U86 2.449 . S
O107 C103 1.282 . S
H108 C81 0.931 . S
H109 C83 0.929 . S
H110 C84 0.930 . S
H111 C85 0.931 . S
H112 C92 0.932 . S
H113 C93 0.930 . S
H114 C94 0.929 . S
H115 C96 0.930 . S
H116 C98 0.932 . S
H117 C99 0.929 . S
H118 C100 0.928 . S
H119 C102 0.932 . S
C120 C121 1.264 . S
C120 C125 1.479 . S
C120 C130 1.465 . S
C121 C120 1.264 . S
C121 C123 1.339 . S
C121 H148 0.931 . S
C122 C123 1.395 . S
C122 C124 1.320 . S
C123 C121 1.339 . S
C123 C122 1.395 . S
C123 H149 0.929 . S
C124 C122 1.320 . S
C124 C125 1.405 . S
C124 H150 0.930 . S
C125 C120 1.479 . S
C125 C124 1.405 . S
C125 H151 0.931 . S
U126 O127 2.454 . S
U126 O128 2.458 . S
U126 C129 2.984 . S
U126 C130 2.847 . S
U126 C143 2.882 . S
U126 O144 2.441 . S
U126 O145 2.420 . S
U126 O146 2.455 . S
U126 O147 2.449 . S
O127 U126 2.454 . S
O127 C129 1.353 . S
O128 U126 2.458 . S
O128 C129 1.286 . S
C129 U126 2.984 . S
C129 O127 1.353 . S
C129 O128 1.286 . S
C129 C131 1.363 . S
C130 C120 1.465 . S
C130 U126 2.847 . S
C130 O144 1.249 . S
C130 O145 1.202 . S
C131 C129 1.363 . S
C131 C133 1.408 . S
C131 C136 1.342 . S
C132 C133 1.310 . S
C132 C135 1.461 . S
C132 H152 0.932 . S
C133 C131 1.408 . S
C133 C132 1.310 . S
C133 H153 0.930 . S
C134 C135 1.474 . S
C134 C136 1.285 . S
C134 H154 0.929 . S
C135 C132 1.461 . S
C135 C134 1.474 . S
C136 C131 1.342 . S
C136 C134 1.285 . S
C136 H155 0.930 . S
C137 C140 1.424 . S
C137 C142 1.245 . S
C137 C143 1.428 . S
C138 C141 1.260 . S
C138 C142 1.477 . S
C138 H156 0.932 . S
C139 C140 1.384 . S
C139 C141 1.479 . S
C139 H157 0.929 . S
C140 C137 1.424 . S
C140 C139 1.384 . S
C140 H158 0.928 . S
C141 C138 1.260 . S
C141 C139 1.479 . S
C142 C137 1.245 . S
C142 C138 1.477 . S
C142 H159 0.932 . S
C143 U126 2.882 . S
C143 C137 1.428 . S
C143 O146 1.301 . S
C143 O147 1.282 . S
O144 U126 2.441 . S
O144 C130 1.249 . S
O145 U126 2.420 . S
O145 C130 1.202 . S
O146 U126 2.455 . S
O146 C143 1.301 . S
O147 U126 2.449 . S
O147 C143 1.282 . S
H148 C121 0.931 . S
H149 C123 0.929 . S
H150 C124 0.930 . S
H151 C125 0.931 . S
H152 C132 0.932 . S
H153 C133 0.930 . S
H154 C134 0.929 . S
H155 C136 0.930 . S
H156 C138 0.932 . S
H157 C139 0.929 . S
H158 C140 0.928 . S
H159 C142 0.932 . S
C160 C161 1.264 . S
C160 C165 1.479 . S
C160 C170 1.465 . S
C161 C160 1.264 . S
C161 C163 1.339 . S
C161 H188 0.931 . S
C162 C163 1.395 . S
C162 C164 1.320 . S
C163 C161 1.339 . S
C163 C162 1.395 . S
C163 H189 0.929 . S
C164 C162 1.320 . S
C164 C165 1.405 . S
C164 H190 0.930 . S
C165 C160 1.479 . S
C165 C164 1.405 . S
C165 H191 0.931 . S
U166 O167 2.454 . S
U166 O168 2.458 . S
U166 C169 2.984 . S
U166 C170 2.847 . S
U166 C183 2.882 . S
U166 O184 2.441 . S
U166 O185 2.420 . S
U166 O186 2.455 . S
U166 O187 2.449 . S
O167 U166 2.454 . S
O167 C169 1.353 . S
O168 U166 2.458 . S
O168 C169 1.286 . S
C169 U166 2.984 . S
C169 O167 1.353 . S
C169 O168 1.286 . S
C169 C171 1.363 . S
C170 C160 1.465 . S
C170 U166 2.847 . S
C170 O184 1.249 . S
C170 O185 1.202 . S
C171 C169 1.363 . S
C171 C173 1.408 . S
C171 C176 1.342 . S
C172 C173 1.310 . S
C172 C175 1.461 . S
C172 H192 0.932 . S
C173 C171 1.408 . S
C173 C172 1.310 . S
C173 H193 0.930 . S
C174 C175 1.474 . S
C174 C176 1.285 . S
C174 H194 0.929 . S
C175 C172 1.461 . S
C175 C174 1.474 . S
C176 C171 1.342 . S
C176 C174 1.285 . S
C176 H195 0.930 . S
C177 C180 1.424 . S
C177 C182 1.245 . S
C177 C183 1.428 . S
C178 C181 1.260 . S
C178 C182 1.477 . S
C178 H196 0.932 . S
C179 C180 1.384 . S
C179 C181 1.479 . S
C179 H197 0.929 . S
C180 C177 1.424 . S
C180 C179 1.384 . S
C180 H198 0.928 . S
C181 C178 1.260 . S
C181 C179 1.479 . S
C182 C177 1.245 . S
C182 C178 1.477 . S
C182 H199 0.932 . S
C183 U166 2.882 . S
C183 C177 1.428 . S
C183 O186 1.301 . S
C183 O187 1.282 . S
O184 U166 2.441 . S
O184 C170 1.249 . S
O185 U166 2.420 . S
O185 C170 1.202 . S
O186 U166 2.455 . S
O186 C183 1.301 . S
O187 U166 2.449 . S
O187 C183 1.282 . S
H188 C161 0.931 . S
H189 C163 0.929 . S
H190 C164 0.930 . S
H191 C165 0.931 . S
H192 C172 0.932 . S
H193 C173 0.930 . S
H194 C174 0.929 . S
H195 C176 0.930 . S
H196 C178 0.932 . S
H197 C179 0.929 . S
H198 C180 0.928 . S
H199 C182 0.932 . S
C200 C201 1.264 . S
C200 C205 1.479 . S
C200 C210 1.465 . S
C201 C200 1.264 . S
C201 C203 1.339 . S
C201 H228 0.931 . S
C202 C203 1.395 . S
C202 C204 1.320 . S
C203 C201 1.339 . S
C203 C202 1.395 . S
C203 H229 0.929 . S
C204 C202 1.320 . S
C204 C205 1.405 . S
C204 H230 0.930 . S
C205 C200 1.479 . S
C205 C204 1.405 . S
C205 H231 0.931 . S
U206 O207 2.454 . S
U206 O208 2.458 . S
U206 C209 2.984 . S
U206 C210 2.847 . S
U206 C223 2.882 . S
U206 O224 2.441 . S
U206 O225 2.420 . S
U206 O226 2.455 . S
U206 O227 2.449 . S
O207 U206 2.454 . S
O207 C209 1.353 . S
O208 U206 2.458 . S
O208 C209 1.286 . S
C209 U206 2.984 . S
C209 O207 1.353 . S
C209 O208 1.286 . S
C209 C211 1.363 . S
C210 C200 1.465 . S
C210 U206 2.847 . S
C210 O224 1.249 . S
C210 O225 1.202 . S
C211 C209 1.363 . S
C211 C213 1.408 . S
C211 C216 1.342 . S
C212 C213 1.310 . S
C212 C215 1.461 . S
C212 H232 0.932 . S
C213 C211 1.408 . S
C213 C212 1.310 . S
C213 H233 0.930 . S
C214 C215 1.474 . S
C214 C216 1.285 . S
C214 H234 0.929 . S
C215 C212 1.461 . S
C215 C214 1.474 . S
C216 C211 1.342 . S
C216 C214 1.285 . S
C216 H235 0.930 . S
C217 C220 1.424 . S
C217 C222 1.245 . S
C217 C223 1.428 . S
C218 C221 1.260 . S
C218 C222 1.477 . S
C218 H236 0.932 . S
C219 C220 1.384 . S
C219 C221 1.479 . S
C219 H237 0.929 . S
C220 C217 1.424 . S
C220 C219 1.384 . S
C220 H238 0.928 . S
C221 C218 1.260 . S
C221 C219 1.479 . S
C222 C217 1.245 . S
C222 C218 1.477 . S
C222 H239 0.932 . S
C223 U206 2.882 . S
C223 C217 1.428 . S
C223 O226 1.301 . S
C223 O227 1.282 . S
O224 U206 2.441 . S
O224 C210 1.249 . S
O225 U206 2.420 . S
O225 C210 1.202 . S
O226 U206 2.455 . S
O226 C223 1.301 . S
O227 U206 2.449 . S
O227 C223 1.282 . S
H228 C201 0.931 . S
H229 C203 0.929 . S
H230 C204 0.930 . S
H231 C205 0.931 . S
H232 C212 0.932 . S
H233 C213 0.930 . S
H234 C214 0.929 . S
H235 C216 0.930 . S
H236 C218 0.932 . S
H237 C219 0.929 . S
H238 C220 0.928 . S
H239 C222 0.932 . S
C240 C241 1.264 . S
C240 C245 1.479 . S
C240 C250 1.465 . S
C241 C240 1.264 . S
C241 C243 1.339 . S
C241 H268 0.931 . S
C242 C243 1.395 . S
C242 C244 1.320 . S
C243 C241 1.339 . S
C243 C242 1.395 . S
C243 H269 0.929 . S
C244 C242 1.320 . S
C244 C245 1.405 . S
C244 H270 0.930 . S
C245 C240 1.479 . S
C245 C244 1.405 . S
C245 H271 0.931 . S
U246 O247 2.454 . S
U246 O248 2.458 . S
U246 C249 2.984 . S
U246 C250 2.847 . S
U246 C263 2.882 . S
U246 O264 2.441 . S
U246 O265 2.420 . S
U246 O266 2.455 . S
U246 O267 2.449 . S
O247 U246 2.454 . S
O247 C249 1.353 . S
O248 U246 2.458 . S
O248 C249 1.286 . S
C249 U246 2.984 . S
C249 O247 1.353 . S
C249 O248 1.286 . S
C249 C251 1.363 . S
C250 C240 1.465 . S
C250 U246 2.847 . S
C250 O264 1.249 . S
C250 O265 1.202 . S
C251 C249 1.363 . S
C251 C253 1.408 . S
C251 C256 1.342 . S
C252 C253 1.310 . S
C252 C255 1.461 . S
C252 H272 0.932 . S
C253 C251 1.408 . S
C253 C252 1.310 . S
C253 H273 0.930 . S
C254 C255 1.474 . S
C254 C256 1.285 . S
C254 H274 0.929 . S
C255 C252 1.461 . S
C255 C254 1.474 . S
C256 C251 1.342 . S
C256 C254 1.285 . S
C256 H275 0.930 . S
C257 C260 1.424 . S
C257 C262 1.245 . S
C257 C263 1.428 . S
C258 C261 1.260 . S
C258 C262 1.477 . S
C258 H276 0.932 . S
C259 C260 1.384 . S
C259 C261 1.479 . S
C259 H277 0.929 . S
C260 C257 1.424 . S
C260 C259 1.384 . S
C260 H278 0.928 . S
C261 C258 1.260 . S
C261 C259 1.479 . S
C262 C257 1.245 . S
C262 C258 1.477 . S
C262 H279 0.932 . S
C263 U246 2.882 . S
C263 C257 1.428 . S
C263 O266 1.301 . S
C263 O267 1.282 . S
O264 U246 2.441 . S
O264 C250 1.249 . S
O265 U246 2.420 . S
O265 C250 1.202 . S
O266 U246 2.455 . S
O266 C263 1.301 . S
O267 U246 2.449 . S
O267 C263 1.282 . S
H268 C241 0.931 . S
H269 C243 0.929 . S
H270 C244 0.930 . S
H271 C245 0.931 . S
H272 C252 0.932 . S
H273 C253 0.930 . S
H274 C254 0.929 . S
H275 C256 0.930 . S
H276 C258 0.932 . S
H277 C259 0.929 . S
H278 C260 0.928 . S
H279 C262 0.932 . S
C280 C281 1.264 . S
C280 C285 1.479 . S
C280 C290 1.465 . S
C281 C280 1.264 . S
C281 C283 1.339 . S
C281 H308 0.931 . S
C282 C283 1.395 . S
C282 C284 1.320 . S
C283 C281 1.339 . S
C283 C282 1.395 . S
C283 H309 0.929 . S
C284 C282 1.320 . S
C284 C285 1.405 . S
C284 H310 0.930 . S
C285 C280 1.479 . S
C285 C284 1.405 . S
C285 H311 0.931 . S
U286 O287 2.454 . S
U286 O288 2.458 . S
U286 C289 2.984 . S
U286 C290 2.847 . S
U286 C303 2.882 . S
U286 O304 2.441 . S
U286 O305 2.420 . S
U286 O306 2.455 . S
U286 O307 2.449 . S
O287 U286 2.454 . S
O287 C289 1.353 . S
O288 U286 2.458 . S
O288 C289 1.286 . S
C289 U286 2.984 . S
C289 O287 1.353 . S
C289 O288 1.286 . S
C289 C291 1.363 . S
C290 C280 1.465 . S
C290 U286 2.847 . S
C290 O304 1.249 . S
C290 O305 1.202 . S
C291 C289 1.363 . S
C291 C293 1.408 . S
C291 C296 1.342 . S
C292 C293 1.310 . S
C292 C295 1.461 . S
C292 H312 0.932 . S
C293 C291 1.408 . S
C293 C292 1.310 . S
C293 H313 0.930 . S
C294 C295 1.474 . S
C294 C296 1.285 . S
C294 H314 0.929 . S
C295 C292 1.461 . S
C295 C294 1.474 . S
C296 C291 1.342 . S
C296 C294 1.285 . S
C296 H315 0.930 . S
C297 C300 1.424 . S
C297 C302 1.245 . S
C297 C303 1.428 . S
C298 C301 1.260 . S
C298 C302 1.477 . S
C298 H316 0.932 . S
C299 C300 1.384 . S
C299 C301 1.479 . S
C299 H317 0.929 . S
C300 C297 1.424 . S
C300 C299 1.384 . S
C300 H318 0.928 . S
C301 C298 1.260 . S
C301 C299 1.479 . S
C302 C297 1.245 . S
C302 C298 1.477 . S
C302 H319 0.932 . S
C303 U286 2.882 . S
C303 C297 1.428 . S
C303 O306 1.301 . S
C303 O307 1.282 . S
O304 U286 2.441 . S
O304 C290 1.249 . S
O305 U286 2.420 . S
O305 C290 1.202 . S
O306 U286 2.455 . S
O306 C303 1.301 . S
O307 U286 2.449 . S
O307 C303 1.282 . S
H308 C281 0.931 . S
H309 C283 0.929 . S
H310 C284 0.930 . S
H311 C285 0.931 . S
H312 C292 0.932 . S
H313 C293 0.930 . S
H314 C294 0.929 . S
H315 C296 0.930 . S
H316 C298 0.932 . S
H317 C299 0.929 . S
H318 C300 0.928 . S
H319 C302 0.932 . S
C320 C321 1.264 . S
C320 C325 1.479 . S
C320 C330 1.465 . S
C321 C320 1.264 . S
C321 C323 1.339 . S
C321 H348 0.931 . S
C322 C323 1.395 . S
C322 C324 1.320 . S
C323 C321 1.339 . S
C323 C322 1.395 . S
C323 H349 0.929 . S
C324 C322 1.320 . S
C324 C325 1.405 . S
C324 H350 0.930 . S
C325 C320 1.479 . S
C325 C324 1.405 . S
C325 H351 0.931 . S
U326 O327 2.454 . S
U326 O328 2.458 . S
U326 C329 2.984 . S
U326 C330 2.847 . S
U326 C343 2.882 . S
U326 O344 2.441 . S
U326 O345 2.420 . S
U326 O346 2.455 . S
U326 O347 2.449 . S
O327 U326 2.454 . S
O327 C329 1.353 . S
O328 U326 2.458 . S
O328 C329 1.286 . S
C329 U326 2.984 . S
C329 O327 1.353 . S
C329 O328 1.286 . S
C329 C331 1.363 . S
C330 C320 1.465 . S
C330 U326 2.847 . S
C330 O344 1.249 . S
C330 O345 1.202 . S
C331 C329 1.363 . S
C331 C333 1.408 . S
C331 C336 1.342 . S
C332 C333 1.310 . S
C332 C335 1.461 . S
C332 H352 0.932 . S
C333 C331 1.408 . S
C333 C332 1.310 . S
C333 H353 0.930 . S
C334 C335 1.474 . S
C334 C336 1.285 . S
C334 H354 0.929 . S
C335 C332 1.461 . S
C335 C334 1.474 . S
C336 C331 1.342 . S
C336 C334 1.285 . S
C336 H355 0.930 . S
C337 C340 1.424 . S
C337 C342 1.245 . S
C337 C343 1.428 . S
C338 C341 1.260 . S
C338 C342 1.477 . S
C338 H356 0.932 . S
C339 C340 1.384 . S
C339 C341 1.479 . S
C339 H357 0.929 . S
C340 C337 1.424 . S
C340 C339 1.384 . S
C340 H358 0.928 . S
C341 C338 1.260 . S
C341 C339 1.479 . S
C342 C337 1.245 . S
C342 C338 1.477 . S
C342 H359 0.932 . S
C343 U326 2.882 . S
C343 C337 1.428 . S
C343 O346 1.301 . S
C343 O347 1.282 . S
O344 U326 2.441 . S
O344 C330 1.249 . S
O345 U326 2.420 . S
O345 C330 1.202 . S
O346 U326 2.455 . S
O346 C343 1.301 . S
O347 U326 2.449 . S
O347 C343 1.282 . S
H348 C321 0.931 . S
H349 C323 0.929 . S
H350 C324 0.930 . S
H351 C325 0.931 . S
H352 C332 0.932 . S
H353 C333 0.930 . S
H354 C334 0.929 . S
H355 C336 0.930 . S
H356 C338 0.932 . S
H357 C339 0.929 . S
H358 C340 0.928 . S
H359 C342 0.932 . S
C360 C361 1.264 . S
C360 C365 1.479 . S
C360 C370 1.465 . S
C361 C360 1.264 . S
C361 C363 1.339 . S
C361 H388 0.931 . S
C362 C363 1.395 . S
C362 C364 1.320 . S
C363 C361 1.339 . S
C363 C362 1.395 . S
C363 H389 0.929 . S
C364 C362 1.320 . S
C364 C365 1.405 . S
C364 H390 0.930 . S
C365 C360 1.479 . S
C365 C364 1.405 . S
C365 H391 0.931 . S
U366 O367 2.454 . S
U366 O368 2.458 . S
U366 C369 2.984 . S
U366 C370 2.847 . S
U366 C383 2.882 . S
U366 O384 2.441 . S
U366 O385 2.420 . S
U366 O386 2.455 . S
U366 O387 2.449 . S
O367 U366 2.454 . S
O367 C369 1.353 . S
O368 U366 2.458 . S
O368 C369 1.286 . S
C369 U366 2.984 . S
C369 O367 1.353 . S
C369 O368 1.286 . S
C369 C371 1.363 . S
C370 C360 1.465 . S
C370 U366 2.847 . S
C370 O384 1.249 . S
C370 O385 1.202 . S
C371 C369 1.363 . S
C371 C373 1.408 . S
C371 C376 1.342 . S
C372 C373 1.310 . S
C372 C375 1.461 . S
C372 H392 0.932 . S
C373 C371 1.408 . S
C373 C372 1.310 . S
C373 H393 0.930 . S
C374 C375 1.474 . S
C374 C376 1.285 . S
C374 H394 0.929 . S
C375 C372 1.461 . S
C375 C374 1.474 . S
C376 C371 1.342 . S
C376 C374 1.285 . S
C376 H395 0.930 . S
C377 C380 1.424 . S
C377 C382 1.245 . S
C377 C383 1.428 . S
C378 C381 1.260 . S
C378 C382 1.477 . S
C378 H396 0.932 . S
C379 C380 1.384 . S
C379 C381 1.479 . S
C379 H397 0.929 . S
C380 C377 1.424 . S
C380 C379 1.384 . S
C380 H398 0.928 . S
C381 C378 1.260 . S
C381 C379 1.479 . S
C382 C377 1.245 . S
C382 C378 1.477 . S
C382 H399 0.932 . S
C383 U366 2.882 . S
C383 C377 1.428 . S
C383 O386 1.301 . S
C383 O387 1.282 . S
O384 U366 2.441 . S
O384 C370 1.249 . S
O385 U366 2.420 . S
O385 C370 1.202 . S
O386 U366 2.455 . S
O386 C383 1.301 . S
O387 U366 2.449 . S
O387 C383 1.282 . S
H388 C361 0.931 . S
H389 C363 0.929 . S
H390 C364 0.930 . S
H391 C365 0.931 . S
H392 C372 0.932 . S
H393 C373 0.930 . S
H394 C374 0.929 . S
H395 C376 0.930 . S
H396 C378 0.932 . S
H397 C379 0.929 . S
H398 C380 0.928 . S
H399 C382 0.932 . S
C400 C401 1.264 . S
C400 C405 1.479 . S
C400 C410 1.465 . S
C401 C400 1.264 . S
C401 C403 1.339 . S
C401 H428 0.931 . S
C402 C403 1.395 . S
C402 C404 1.320 . S
C403 C401 1.339 . S
C403 C402 1.395 . S
C403 H429 0.929 . S
C404 C402 1.320 . S
C404 C405 1.405 . S
C404 H430 0.930 . S
C405 C400 1.479 . S
C405 C404 1.405 . S
C405 H431 0.931 . S
U406 O407 2.454 . S
U406 O408 2.458 . S
U406 C409 2.984 . S
U406 C410 2.847 . S
U406 C423 2.882 . S
U406 O424 2.441 . S
U406 O425 2.420 . S
U406 O426 2.455 . S
U406 O427 2.449 . S
O407 U406 2.454 . S
O407 C409 1.353 . S
O408 U406 2.458 . S
O408 C409 1.286 . S
C409 U406 2.984 . S
C409 O407 1.353 . S
C409 O408 1.286 . S
C409 C411 1.363 . S
C410 C400 1.465 . S
C410 U406 2.847 . S
C410 O424 1.249 . S
C410 O425 1.202 . S
C411 C409 1.363 . S
C411 C413 1.408 . S
C411 C416 1.342 . S
C412 C413 1.310 . S
C412 C415 1.461 . S
C412 H432 0.932 . S
C413 C411 1.408 . S
C413 C412 1.310 . S
C413 H433 0.930 . S
C414 C415 1.474 . S
C414 C416 1.285 . S
C414 H434 0.929 . S
C415 C412 1.461 . S
C415 C414 1.474 . S
C416 C411 1.342 . S
C416 C414 1.285 . S
C416 H435 0.930 . S
C417 C420 1.424 . S
C417 C422 1.245 . S
C417 C423 1.428 . S
C418 C421 1.260 . S
C418 C422 1.477 . S
C418 H436 0.932 . S
C419 C420 1.384 . S
C419 C421 1.479 . S
C419 H437 0.929 . S
C420 C417 1.424 . S
C420 C419 1.384 . S
C420 H438 0.928 . S
C421 C418 1.260 . S
C421 C419 1.479 . S
C422 C417 1.245 . S
C422 C418 1.477 . S
C422 H439 0.932 . S
C423 U406 2.882 . S
C423 C417 1.428 . S
C423 O426 1.301 . S
C423 O427 1.282 . S
O424 U406 2.441 . S
O424 C410 1.249 . S
O425 U406 2.420 . S
O425 C410 1.202 . S
O426 U406 2.455 . S
O426 C423 1.301 . S
O427 U406 2.449 . S
O427 C423 1.282 . S
H428 C401 0.931 . S
H429 C403 0.929 . S
H430 C404 0.930 . S
H431 C405 0.931 . S
H432 C412 0.932 . S
H433 C413 0.930 . S
H434 C414 0.929 . S
H435 C416 0.930 . S
H436 C418 0.932 . S
H437 C419 0.929 . S
H438 C420 0.928 . S
H439 C422 0.932 . S
C440 C441 1.264 . S
C440 C445 1.479 . S
C440 C450 1.465 . S
C441 C440 1.264 . S
C441 C443 1.339 . S
C441 H468 0.931 . S
C442 C443 1.395 . S
C442 C444 1.320 . S
C443 C441 1.339 . S
C443 C442 1.395 . S
C443 H469 0.929 . S
C444 C442 1.320 . S
C444 C445 1.405 . S
C444 H470 0.930 . S
C445 C440 1.479 . S
C445 C444 1.405 . S
C445 H471 0.931 . S
U446 O447 2.454 . S
U446 O448 2.458 . S
U446 C449 2.984 . S
U446 C450 2.847 . S
U446 C463 2.882 . S
U446 O464 2.441 . S
U446 O465 2.420 . S
U446 O466 2.455 . S
U446 O467 2.449 . S
O447 U446 2.454 . S
O447 C449 1.353 . S
O448 U446 2.458 . S
O448 C449 1.286 . S
C449 U446 2.984 . S
C449 O447 1.353 . S
C449 O448 1.286 . S
C449 C451 1.363 . S
C450 C440 1.465 . S
C450 U446 2.847 . S
C450 O464 1.249 . S
C450 O465 1.202 . S
C451 C449 1.363 . S
C451 C453 1.408 . S
C451 C456 1.342 . S
C452 C453 1.310 . S
C452 C455 1.461 . S
C452 H472 0.932 . S
C453 C451 1.408 . S
C453 C452 1.310 . S
C453 H473 0.930 . S
C454 C455 1.474 . S
C454 C456 1.285 . S
C454 H474 0.929 . S
C455 C452 1.461 . S
C455 C454 1.474 . S
C456 C451 1.342 . S
C456 C454 1.285 . S
C456 H475 0.930 . S
C457 C460 1.424 . S
C457 C462 1.245 . S
C457 C463 1.428 . S
C458 C461 1.260 . S
C458 C462 1.477 . S
C458 H476 0.932 . S
C459 C460 1.384 . S
C459 C461 1.479 . S
C459 H477 0.929 . S
C460 C457 1.424 . S
C460 C459 1.384 . S
C460 H478 0.928 . S
C461 C458 1.260 . S
C461 C459 1.479 . S
C462 C457 1.245 . S
C462 C458 1.477 . S
C462 H479 0.932 . S
C463 U446 2.882 . S
C463 C457 1.428 . S
C463 O466 1.301 . S
C463 O467 1.282 . S
O464 U446 2.441 . S
O464 C450 1.249 . S
O465 U446 2.420 . S
O465 C450 1.202 . S
O466 U446 2.455 . S
O466 C463 1.301 . S
O467 U446 2.449 . S
O467 C463 1.282 . S
H468 C441 0.931 . S
H469 C443 0.929 . S
H470 C444 0.930 . S
H471 C445 0.931 . S
H472 C452 0.932 . S
H473 C453 0.930 . S
H474 C454 0.929 . S
H475 C456 0.930 . S
H476 C458 0.932 . S
H477 C459 0.929 . S
H478 C460 0.928 . S
H479 C462 0.932 . S
C480 C481 1.264 . S
C480 C485 1.479 . S
C480 C490 1.465 . S
C481 C480 1.264 . S
C481 C483 1.339 . S
C481 H508 0.931 . S
C482 C483 1.395 . S
C482 C484 1.320 . S
C483 C481 1.339 . S
C483 C482 1.395 . S
C483 H509 0.929 . S
C484 C482 1.320 . S
C484 C485 1.405 . S
C484 H510 0.930 . S
C485 C480 1.479 . S
C485 C484 1.405 . S
C485 H511 0.931 . S
U486 O487 2.454 . S
U486 O488 2.458 . S
U486 C489 2.984 . S
U486 C490 2.847 . S
U486 C503 2.882 . S
U486 O504 2.441 . S
U486 O505 2.420 . S
U486 O506 2.455 . S
U486 O507 2.449 . S
O487 U486 2.454 . S
O487 C489 1.353 . S
O488 U486 2.458 . S
O488 C489 1.286 . S
C489 U486 2.984 . S
C489 O487 1.353 . S
C489 O488 1.286 . S
C489 C491 1.363 . S
C490 C480 1.465 . S
C490 U486 2.847 . S
C490 O504 1.249 . S
C490 O505 1.202 . S
C491 C489 1.363 . S
C491 C493 1.408 . S
C491 C496 1.342 . S
C492 C493 1.310 . S
C492 C495 1.461 . S
C492 H512 0.932 . S
C493 C491 1.408 . S
C493 C492 1.310 . S
C493 H513 0.930 . S
C494 C495 1.474 . S
C494 C496 1.285 . S
C494 H514 0.929 . S
C495 C492 1.461 . S
C495 C494 1.474 . S
C496 C491 1.342 . S
C496 C494 1.285 . S
C496 H515 0.930 . S
C497 C500 1.424 . S
C497 C502 1.245 . S
C497 C503 1.428 . S
C498 C501 1.260 . S
C498 C502 1.477 . S
C498 H516 0.932 . S
C499 C500 1.384 . S
C499 C501 1.479 . S
C499 H517 0.929 . S
C500 C497 1.424 . S
C500 C499 1.384 . S
C500 H518 0.928 . S
C501 C498 1.260 . S
C501 C499 1.479 . S
C502 C497 1.245 . S
C502 C498 1.477 . S
C502 H519 0.932 . S
C503 U486 2.882 . S
C503 C497 1.428 . S
C503 O506 1.301 . S
C503 O507 1.282 . S
O504 U486 2.441 . S
O504 C490 1.249 . S
O505 U486 2.420 . S
O505 C490 1.202 . S
O506 U486 2.455 . S
O506 C503 1.301 . S
O507 U486 2.449 . S
O507 C503 1.282 . S
H508 C481 0.931 . S
H509 C483 0.929 . S
H510 C484 0.930 . S
H511 C485 0.931 . S
H512 C492 0.932 . S
H513 C493 0.930 . S
H514 C494 0.929 . S
H515 C496 0.930 . S
H516 C498 0.932 . S
H517 C499 0.929 . S
H518 C500 0.928 . S
H519 C502 0.932 . S
C520 C521 1.264 . S
C520 C525 1.479 . S
C520 C530 1.465 . S
C521 C520 1.264 . S
C521 C523 1.339 . S
C521 H548 0.931 . S
C522 C523 1.395 . S
C522 C524 1.320 . S
C523 C521 1.339 . S
C523 C522 1.395 . S
C523 H549 0.929 . S
C524 C522 1.320 . S
C524 C525 1.405 . S
C524 H550 0.930 . S
C525 C520 1.479 . S
C525 C524 1.405 . S
C525 H551 0.931 . S
U526 O527 2.454 . S
U526 O528 2.458 . S
U526 C529 2.984 . S
U526 C530 2.847 . S
U526 C543 2.882 . S
U526 O544 2.441 . S
U526 O545 2.420 . S
U526 O546 2.455 . S
U526 O547 2.449 . S
O527 U526 2.454 . S
O527 C529 1.353 . S
O528 U526 2.458 . S
O528 C529 1.286 . S
C529 U526 2.984 . S
C529 O527 1.353 . S
C529 O528 1.286 . S
C529 C531 1.363 . S
C530 C520 1.465 . S
C530 U526 2.847 . S
C530 O544 1.249 . S
C530 O545 1.202 . S
C531 C529 1.363 . S
C531 C533 1.408 . S
C531 C536 1.342 . S
C532 C533 1.310 . S
C532 C535 1.461 . S
C532 H552 0.932 . S
C533 C531 1.408 . S
C533 C532 1.310 . S
C533 H553 0.930 . S
C534 C535 1.474 . S
C534 C536 1.285 . S
C534 H554 0.929 . S
C535 C532 1.461 . S
C535 C534 1.474 . S
C536 C531 1.342 . S
C536 C534 1.285 . S
C536 H555 0.930 . S
C537 C540 1.424 . S
C537 C542 1.245 . S
C537 C543 1.428 . S
C538 C541 1.260 . S
C538 C542 1.477 . S
C538 H556 0.932 . S
C539 C540 1.384 . S
C539 C541 1.479 . S
C539 H557 0.929 . S
C540 C537 1.424 . S
C540 C539 1.384 . S
C540 H558 0.928 . S
C541 C538 1.260 . S
C541 C539 1.479 . S
C542 C537 1.245 . S
C542 C538 1.477 . S
C542 H559 0.932 . S
C543 U526 2.882 . S
C543 C537 1.428 . S
C543 O546 1.301 . S
C543 O547 1.282 . S
O544 U526 2.441 . S
O544 C530 1.249 . S
O545 U526 2.420 . S
O545 C530 1.202 . S
O546 U526 2.455 . S
O546 C543 1.301 . S
O547 U526 2.449 . S
O547 C543 1.282 . S
H548 C521 0.931 . S
H549 C523 0.929 . S
H550 C524 0.930 . S
H551 C525 0.931 . S
H552 C532 0.932 . S
H553 C533 0.930 . S
H554 C534 0.929 . S
H555 C536 0.930 . S
H556 C538 0.932 . S
H557 C539 0.929 . S
H558 C540 0.928 . S
H559 C542 0.932 . S
C560 C561 1.264 . S
C560 C565 1.479 . S
C560 C570 1.465 . S
C561 C560 1.264 . S
C561 C563 1.339 . S
C561 H588 0.931 . S
C562 C563 1.395 . S
C562 C564 1.320 . S
C563 C561 1.339 . S
C563 C562 1.395 . S
C563 H589 0.929 . S
C564 C562 1.320 . S
C564 C565 1.405 . S
C564 H590 0.930 . S
C565 C560 1.479 . S
C565 C564 1.405 . S
C565 H591 0.931 . S
U566 O567 2.454 . S
U566 O568 2.458 . S
U566 C569 2.984 . S
U566 C570 2.847 . S
U566 C583 2.882 . S
U566 O584 2.441 . S
U566 O585 2.420 . S
U566 O586 2.455 . S
U566 O587 2.449 . S
O567 U566 2.454 . S
O567 C569 1.353 . S
O568 U566 2.458 . S
O568 C569 1.286 . S
C569 U566 2.984 . S
C569 O567 1.353 . S
C569 O568 1.286 . S
C569 C571 1.363 . S
C570 C560 1.465 . S
C570 U566 2.847 . S
C570 O584 1.249 . S
C570 O585 1.202 . S
C571 C569 1.363 . S
C571 C573 1.408 . S
C571 C576 1.342 . S
C572 C573 1.310 . S
C572 C575 1.461 . S
C572 H592 0.932 . S
C573 C571 1.408 . S
C573 C572 1.310 . S
C573 H593 0.930 . S
C574 C575 1.474 . S
C574 C576 1.285 . S
C574 H594 0.929 . S
C575 C572 1.461 . S
C575 C574 1.474 . S
C576 C571 1.342 . S
C576 C574 1.285 . S
C576 H595 0.930 . S
C577 C580 1.424 . S
C577 C582 1.245 . S
C577 C583 1.428 . S
C578 C581 1.260 . S
C578 C582 1.477 . S
C578 H596 0.932 . S
C579 C580 1.384 . S
C579 C581 1.479 . S
C579 H597 0.929 . S
C580 C577 1.424 . S
C580 C579 1.384 . S
C580 H598 0.928 . S
C581 C578 1.260 . S
C581 C579 1.479 . S
C582 C577 1.245 . S
C582 C578 1.477 . S
C582 H599 0.932 . S
C583 U566 2.882 . S
C583 C577 1.428 . S
C583 O586 1.301 . S
C583 O587 1.282 . S
O584 U566 2.441 . S
O584 C570 1.249 . S
O585 U566 2.420 . S
O585 C570 1.202 . S
O586 U566 2.455 . S
O586 C583 1.301 . S
O587 U566 2.449 . S
O587 C583 1.282 . S
H588 C561 0.931 . S
H589 C563 0.929 . S
H590 C564 0.930 . S
H591 C565 0.931 . S
H592 C572 0.932 . S
H593 C573 0.930 . S
H594 C574 0.929 . S
H595 C576 0.930 . S
H596 C578 0.932 . S
H597 C579 0.929 . S
H598 C580 0.928 . S
H599 C582 0.932 . S
C600 C601 1.264 . S
C600 C605 1.479 . S
C600 C610 1.465 . S
C601 C600 1.264 . S
C601 C603 1.339 . S
C601 H628 0.931 . S
C602 C603 1.395 . S
C602 C604 1.320 . S
C603 C601 1.339 . S
C603 C602 1.395 . S
C603 H629 0.929 . S
C604 C602 1.320 . S
C604 C605 1.405 . S
C604 H630 0.930 . S
C605 C600 1.479 . S
C605 C604 1.405 . S
C605 H631 0.931 . S
U606 O607 2.454 . S
U606 O608 2.458 . S
U606 C609 2.984 . S
U606 C610 2.847 . S
U606 C623 2.882 . S
U606 O624 2.441 . S
U606 O625 2.420 . S
U606 O626 2.455 . S
U606 O627 2.449 . S
O607 U606 2.454 . S
O607 C609 1.353 . S
O608 U606 2.458 . S
O608 C609 1.286 . S
C609 U606 2.984 . S
C609 O607 1.353 . S
C609 O608 1.286 . S
C609 C611 1.363 . S
C610 C600 1.465 . S
C610 U606 2.847 . S
C610 O624 1.249 . S
C610 O625 1.202 . S
C611 C609 1.363 . S
C611 C613 1.408 . S
C611 C616 1.342 . S
C612 C613 1.310 . S
C612 C615 1.461 . S
C612 H632 0.932 . S
C613 C611 1.408 . S
C613 C612 1.310 . S
C613 H633 0.930 . S
C614 C615 1.474 . S
C614 C616 1.285 . S
C614 H634 0.929 . S
C615 C612 1.461 . S
C615 C614 1.474 . S
C616 C611 1.342 . S
C616 C614 1.285 . S
C616 H635 0.930 . S
C617 C620 1.424 . S
C617 C622 1.245 . S
C617 C623 1.428 . S
C618 C621 1.260 . S
C618 C622 1.477 . S
C618 H636 0.932 . S
C619 C620 1.384 . S
C619 C621 1.479 . S
C619 H637 0.929 . S
C620 C617 1.424 . S
C620 C619 1.384 . S
C620 H638 0.928 . S
C621 C618 1.260 . S
C621 C619 1.479 . S
C622 C617 1.245 . S
C622 C618 1.477 . S
C622 H639 0.932 . S
C623 U606 2.882 . S
C623 C617 1.428 . S
C623 O626 1.301 . S
C623 O627 1.282 . S
O624 U606 2.441 . S
O624 C610 1.249 . S
O625 U606 2.420 . S
O625 C610 1.202 . S
O626 U606 2.455 . S
O626 C623 1.301 . S
O627 U606 2.449 . S
O627 C623 1.282 . S
H628 C601 0.931 . S
H629 C603 0.929 . S
H630 C604 0.930 . S
H631 C605 0.931 . S
H632 C612 0.932 . S
H633 C613 0.930 . S
H634 C614 0.929 . S
H635 C616 0.930 . S
H636 C618 0.932 . S
H637 C619 0.929 . S
H638 C620 0.928 . S
H639 C622 0.932 . S
C640 C641 1.264 . S
C640 C645 1.479 . S
C640 C650 1.465 . S
C641 C640 1.264 . S
C641 C643 1.339 . S
C641 H668 0.931 . S
C642 C643 1.395 . S
C642 C644 1.320 . S
C643 C641 1.339 . S
C643 C642 1.395 . S
C643 H669 0.929 . S
C644 C642 1.320 . S
C644 C645 1.405 . S
C644 H670 0.930 . S
C645 C640 1.479 . S
C645 C644 1.405 . S
C645 H671 0.931 . S
U646 O647 2.454 . S
U646 O648 2.458 . S
U646 C649 2.984 . S
U646 C650 2.847 . S
U646 C663 2.882 . S
U646 O664 2.441 . S
U646 O665 2.420 . S
U646 O666 2.455 . S
U646 O667 2.449 . S
O647 U646 2.454 . S
O647 C649 1.353 . S
O648 U646 2.458 . S
O648 C649 1.286 . S
C649 U646 2.984 . S
C649 O647 1.353 . S
C649 O648 1.286 . S
C649 C651 1.363 . S
C650 C640 1.465 . S
C650 U646 2.847 . S
C650 O664 1.249 . S
C650 O665 1.202 . S
C651 C649 1.363 . S
C651 C653 1.408 . S
C651 C656 1.342 . S
C652 C653 1.310 . S
C652 C655 1.461 . S
C652 H672 0.932 . S
C653 C651 1.408 . S
C653 C652 1.310 . S
C653 H673 0.930 . S
C654 C655 1.474 . S
C654 C656 1.285 . S
C654 H674 0.929 . S
C655 C652 1.461 . S
C655 C654 1.474 . S
C656 C651 1.342 . S
C656 C654 1.285 . S
C656 H675 0.930 . S
C657 C660 1.424 . S
C657 C662 1.245 . S
C657 C663 1.428 . S
C658 C661 1.260 . S
C658 C662 1.477 . S
C658 H676 0.932 . S
C659 C660 1.384 . S
C659 C661 1.479 . S
C659 H677 0.929 . S
C660 C657 1.424 . S
C660 C659 1.384 . S
C660 H678 0.928 . S
C661 C658 1.260 . S
C661 C659 1.479 . S
C662 C657 1.245 . S
C662 C658 1.477 . S
C662 H679 0.932 . S
C663 U646 2.882 . S
C663 C657 1.428 . S
C663 O666 1.301 . S
C663 O667 1.282 . S
O664 U646 2.441 . S
O664 C650 1.249 . S
O665 U646 2.420 . S
O665 C650 1.202 . S
O666 U646 2.455 . S
O666 C663 1.301 . S
O667 U646 2.449 . S
O667 C663 1.282 . S
H668 C641 0.931 . S
H669 C643 0.929 . S
H670 C644 0.930 . S
H671 C645 0.931 . S
H672 C652 0.932 . S
H673 C653 0.930 . S
H674 C654 0.929 . S
H675 C656 0.930 . S
H676 C658 0.932 . S
H677 C659 0.929 . S
H678 C660 0.928 . S
H679 C662 0.932 . S
C680 C681 1.264 . S
C680 C685 1.479 . S
C680 C690 1.465 . S
C681 C680 1.264 . S
C681 C683 1.339 . S
C681 H708 0.931 . S
C682 C683 1.395 . S
C682 C684 1.320 . S
C683 C681 1.339 . S
C683 C682 1.395 . S
C683 H709 0.929 . S
C684 C682 1.320 . S
C684 C685 1.405 . S
C684 H710 0.930 . S
C685 C680 1.479 . S
C685 C684 1.405 . S
C685 H711 0.931 . S
U686 O687 2.454 . S
U686 O688 2.458 . S
U686 C689 2.984 . S
U686 C690 2.847 . S
U686 C703 2.882 . S
U686 O704 2.441 . S
U686 O705 2.420 . S
U686 O706 2.455 . S
U686 O707 2.449 . S
O687 U686 2.454 . S
O687 C689 1.353 . S
O688 U686 2.458 . S
O688 C689 1.286 . S
C689 U686 2.984 . S
C689 O687 1.353 . S
C689 O688 1.286 . S
C689 C691 1.363 . S
C690 C680 1.465 . S
C690 U686 2.847 . S
C690 O704 1.249 . S
C690 O705 1.202 . S
C691 C689 1.363 . S
C691 C693 1.408 . S
C691 C696 1.342 . S
C692 C693 1.310 . S
C692 C695 1.461 . S
C692 H712 0.932 . S
C693 C691 1.408 . S
C693 C692 1.310 . S
C693 H713 0.930 . S
C694 C695 1.474 . S
C694 C696 1.285 . S
C694 H714 0.929 . S
C695 C692 1.461 . S
C695 C694 1.474 . S
C696 C691 1.342 . S
C696 C694 1.285 . S
C696 H715 0.930 . S
C697 C700 1.424 . S
C697 C702 1.245 . S
C697 C703 1.428 . S
C698 C701 1.260 . S
C698 C702 1.477 . S
C698 H716 0.932 . S
C699 C700 1.384 . S
C699 C701 1.479 . S
C699 H717 0.929 . S
C700 C697 1.424 . S
C700 C699 1.384 . S
C700 H718 0.928 . S
C701 C698 1.260 . S
C701 C699 1.479 . S
C702 C697 1.245 . S
C702 C698 1.477 . S
C702 H719 0.932 . S
C703 U686 2.882 . S
C703 C697 1.428 . S
C703 O706 1.301 . S
C703 O707 1.282 . S
O704 U686 2.441 . S
O704 C690 1.249 . S
O705 U686 2.420 . S
O705 C690 1.202 . S
O706 U686 2.455 . S
O706 C703 1.301 . S
O707 U686 2.449 . S
O707 C703 1.282 . S
H708 C681 0.931 . S
H709 C683 0.929 . S
H710 C684 0.930 . S
H711 C685 0.931 . S
H712 C692 0.932 . S
H713 C693 0.930 . S
H714 C694 0.929 . S
H715 C696 0.930 . S
H716 C698 0.932 . S
H717 C699 0.929 . S
H718 C700 0.928 . S
H719 C702 0.932 . S
C720 C721 1.264 . S
C720 C725 1.479 . S
C720 C730 1.465 . S
C721 C720 1.264 . S
C721 C723 1.339 . S
C721 H748 0.931 . S
C722 C723 1.395 . S
C722 C724 1.320 . S
C723 C721 1.339 . S
C723 C722 1.395 . S
C723 H749 0.929 . S
C724 C722 1.320 . S
C724 C725 1.405 . S
C724 H750 0.930 . S
C725 C720 1.479 . S
C725 C724 1.405 . S
C725 H751 0.931 . S
U726 O727 2.454 . S
U726 O728 2.458 . S
U726 C729 2.984 . S
U726 C730 2.847 . S
U726 C743 2.882 . S
U726 O744 2.441 . S
U726 O745 2.420 . S
U726 O746 2.455 . S
U726 O747 2.449 . S
O727 U726 2.454 . S
O727 C729 1.353 . S
O728 U726 2.458 . S
O728 C729 1.286 . S
C729 U726 2.984 . S
C729 O727 1.353 . S
C729 O728 1.286 . S
C729 C731 1.363 . S
C730 C720 1.465 . S
C730 U726 2.847 . S
C730 O744 1.249 . S
C730 O745 1.202 . S
C731 C729 1.363 . S
C731 C733 1.408 . S
C731 C736 1.342 . S
C732 C733 1.310 . S
C732 C735 1.461 . S
C732 H752 0.932 . S
C733 C731 1.408 . S
C733 C732 1.310 . S
C733 H753 0.930 . S
C734 C735 1.474 . S
C734 C736 1.285 . S
C734 H754 0.929 . S
C735 C732 1.461 . S
C735 C734 1.474 . S
C736 C731 1.342 . S
C736 C734 1.285 . S
C736 H755 0.930 . S
C737 C740 1.424 . S
C737 C742 1.245 . S
C737 C743 1.428 . S
C738 C741 1.260 . S
C738 C742 1.477 . S
C738 H756 0.932 . S
C739 C740 1.384 . S
C739 C741 1.479 . S
C739 H757 0.929 . S
C740 C737 1.424 . S
C740 C739 1.384 . S
C740 H758 0.928 . S
C741 C738 1.260 . S
C741 C739 1.479 . S
C742 C737 1.245 . S
C742 C738 1.477 . S
C742 H759 0.932 . S
C743 U726 2.882 . S
C743 C737 1.428 . S
C743 O746 1.301 . S
C743 O747 1.282 . S
O744 U726 2.441 . S
O744 C730 1.249 . S
O745 U726 2.420 . S
O745 C730 1.202 . S
O746 U726 2.455 . S
O746 C743 1.301 . S
O747 U726 2.449 . S
O747 C743 1.282 . S
H748 C721 0.931 . S
H749 C723 0.929 . S
H750 C724 0.930 . S
H751 C725 0.931 . S
H752 C732 0.932 . S
H753 C733 0.930 . S
H754 C734 0.929 . S
H755 C736 0.930 . S
H756 C738 0.932 . S
H757 C739 0.929 . S
H758 C740 0.928 . S
H759 C742 0.932 . S
C760 C761 1.264 . S
C760 C765 1.479 . S
C760 C770 1.465 . S
C761 C760 1.264 . S
C761 C763 1.339 . S
C761 H788 0.931 . S
C762 C763 1.395 . S
C762 C764 1.320 . S
C763 C761 1.339 . S
C763 C762 1.395 . S
C763 H789 0.929 . S
C764 C762 1.320 . S
C764 C765 1.405 . S
C764 H790 0.930 . S
C765 C760 1.479 . S
C765 C764 1.405 . S
C765 H791 0.931 . S
U766 O767 2.454 . S
U766 O768 2.458 . S
U766 C769 2.984 . S
U766 C770 2.847 . S
U766 C783 2.882 . S
U766 O784 2.441 . S
U766 O785 2.420 . S
U766 O786 2.455 . S
U766 O787 2.449 . S
O767 U766 2.454 . S
O767 C769 1.353 . S
O768 U766 2.458 . S
O768 C769 1.286 . S
C769 U766 2.984 . S
C769 O767 1.353 . S
C769 O768 1.286 . S
C769 C771 1.363 . S
C770 C760 1.465 . S
C770 U766 2.847 . S
C770 O784 1.249 . S
C770 O785 1.202 . S
C771 C769 1.363 . S
C771 C773 1.408 . S
C771 C776 1.342 . S
C772 C773 1.310 . S
C772 C775 1.461 . S
C772 H792 0.932 . S
C773 C771 1.408 . S
C773 C772 1.310 . S
C773 H793 0.930 . S
C774 C775 1.474 . S
C774 C776 1.285 . S
C774 H794 0.929 . S
C775 C772 1.461 . S
C775 C774 1.474 . S
C776 C771 1.342 . S
C776 C774 1.285 . S
C776 H795 0.930 . S
C777 C780 1.424 . S
C777 C782 1.245 . S
C777 C783 1.428 . S
C778 C781 1.260 . S
C778 C782 1.477 . S
C778 H796 0.932 . S
C779 C780 1.384 . S
C779 C781 1.479 . S
C779 H797 0.929 . S
C780 C777 1.424 . S
C780 C779 1.384 . S
C780 H798 0.928 . S
C781 C778 1.260 . S
C781 C779 1.479 . S
C782 C777 1.245 . S
C782 C778 1.477 . S
C782 H799 0.932 . S
C783 U766 2.882 . S
C783 C777 1.428 . S
C783 O786 1.301 . S
C783 O787 1.282 . S
O784 U766 2.441 . S
O784 C770 1.249 . S
O785 U766 2.420 . S
O785 C770 1.202 . S
O786 U766 2.455 . S
O786 C783 1.301 . S
O787 U766 2.449 . S
O787 C783 1.282 . S
H788 C761 0.931 . S
H789 C763 0.929 . S
H790 C764 0.930 . S
H791 C765 0.931 . S
H792 C772 0.932 . S
H793 C773 0.930 . S
H794 C774 0.929 . S
H795 C776 0.930 . S
H796 C778 0.932 . S
H797 C779 0.929 . S
H798 C780 0.928 . S
H799 C782 0.932 . S
C800 C801 1.264 . S
C800 C805 1.479 . S
C800 C810 1.465 . S
C801 C800 1.264 . S
C801 C803 1.339 . S
C801 H828 0.931 . S
C802 C803 1.395 . S
C802 C804 1.320 . S
C803 C801 1.339 . S
C803 C802 1.395 . S
C803 H829 0.929 . S
C804 C802 1.320 . S
C804 C805 1.405 . S
C804 H830 0.930 . S
C805 C800 1.479 . S
C805 C804 1.405 . S
C805 H831 0.931 . S
U806 O807 2.454 . S
U806 O808 2.458 . S
U806 C809 2.984 . S
U806 C810 2.847 . S
U806 C823 2.882 . S
U806 O824 2.441 . S
U806 O825 2.420 . S
U806 O826 2.455 . S
U806 O827 2.449 . S
O807 U806 2.454 . S
O807 C809 1.353 . S
O808 U806 2.458 . S
O808 C809 1.286 . S
C809 U806 2.984 . S
C809 O807 1.353 . S
C809 O808 1.286 . S
C809 C811 1.363 . S
C810 C800 1.465 . S
C810 U806 2.847 . S
C810 O824 1.249 . S
C810 O825 1.202 . S
C811 C809 1.363 . S
C811 C813 1.408 . S
C811 C816 1.342 . S
C812 C813 1.310 . S
C812 C815 1.461 . S
C812 H832 0.932 . S
C813 C811 1.408 . S
C813 C812 1.310 . S
C813 H833 0.930 . S
C814 C815 1.474 . S
C814 C816 1.285 . S
C814 H834 0.929 . S
C815 C812 1.461 . S
C815 C814 1.474 . S
C816 C811 1.342 . S
C816 C814 1.285 . S
C816 H835 0.930 . S
C817 C820 1.424 . S
C817 C822 1.245 . S
C817 C823 1.428 . S
C818 C821 1.260 . S
C818 C822 1.477 . S
C818 H836 0.932 . S
C819 C820 1.384 . S
C819 C821 1.479 . S
C819 H837 0.929 . S
C820 C817 1.424 . S
C820 C819 1.384 . S
C820 H838 0.928 . S
C821 C818 1.260 . S
C821 C819 1.479 . S
C822 C817 1.245 . S
C822 C818 1.477 . S
C822 H839 0.932 . S
C823 U806 2.882 . S
C823 C817 1.428 . S
C823 O826 1.301 . S
C823 O827 1.282 . S
O824 U806 2.441 . S
O824 C810 1.249 . S
O825 U806 2.420 . S
O825 C810 1.202 . S
O826 U806 2.455 . S
O826 C823 1.301 . S
O827 U806 2.449 . S
O827 C823 1.282 . S
H828 C801 0.931 . S
H829 C803 0.929 . S
H830 C804 0.930 . S
H831 C805 0.931 . S
H832 C812 0.932 . S
H833 C813 0.930 . S
H834 C814 0.929 . S
H835 C816 0.930 . S
H836 C818 0.932 . S
H837 C819 0.929 . S
H838 C820 0.928 . S
H839 C822 0.932 . S
C840 C841 1.264 . S
C840 C845 1.479 . S
C840 C850 1.465 . S
C841 C840 1.264 . S
C841 C843 1.339 . S
C841 H868 0.931 . S
C842 C843 1.395 . S
C842 C844 1.320 . S
C843 C841 1.339 . S
C843 C842 1.395 . S
C843 H869 0.929 . S
C844 C842 1.320 . S
C844 C845 1.405 . S
C844 H870 0.930 . S
C845 C840 1.479 . S
C845 C844 1.405 . S
C845 H871 0.931 . S
U846 O847 2.454 . S
U846 O848 2.458 . S
U846 C849 2.984 . S
U846 C850 2.847 . S
U846 C863 2.882 . S
U846 O864 2.441 . S
U846 O865 2.420 . S
U846 O866 2.455 . S
U846 O867 2.449 . S
O847 U846 2.454 . S
O847 C849 1.353 . S
O848 U846 2.458 . S
O848 C849 1.286 . S
C849 U846 2.984 . S
C849 O847 1.353 . S
C849 O848 1.286 . S
C849 C851 1.363 . S
C850 C840 1.465 . S
C850 U846 2.847 . S
C850 O864 1.249 . S
C850 O865 1.202 . S
C851 C849 1.363 . S
C851 C853 1.408 . S
C851 C856 1.342 . S
C852 C853 1.310 . S
C852 C855 1.461 . S
C852 H872 0.932 . S
C853 C851 1.408 . S
C853 C852 1.310 . S
C853 H873 0.930 . S
C854 C855 1.474 . S
C854 C856 1.285 . S
C854 H874 0.929 . S
C855 C852 1.461 . S
C855 C854 1.474 . S
C856 C851 1.342 . S
C856 C854 1.285 . S
C856 H875 0.930 . S
C857 C860 1.424 . S
C857 C862 1.245 . S
C857 C863 1.428 . S
C858 C861 1.260 . S
C858 C862 1.477 . S
C858 H876 0.932 . S
C859 C860 1.384 . S
C859 C861 1.479 . S
C859 H877 0.929 . S
C860 C857 1.424 . S
C860 C859 1.384 . S
C860 H878 0.928 . S
C861 C858 1.260 . S
C861 C859 1.479 . S
C862 C857 1.245 . S
C862 C858 1.477 . S
C862 H879 0.932 . S
C863 U846 2.882 . S
C863 C857 1.428 . S
C863 O866 1.301 . S
C863 O867 1.282 . S
O864 U846 2.441 . S
O864 C850 1.249 . S
O865 U846 2.420 . S
O865 C850 1.202 . S
O866 U846 2.455 . S
O866 C863 1.301 . S
O867 U846 2.449 . S
O867 C863 1.282 . S
H868 C841 0.931 . S
H869 C843 0.929 . S
H870 C844 0.930 . S
H871 C845 0.931 . S
H872 C852 0.932 . S
H873 C853 0.930 . S
H874 C854 0.929 . S
H875 C856 0.930 . S
H876 C858 0.932 . S
H877 C859 0.929 . S
H878 C860 0.928 . S
H879 C862 0.932 . S
C880 C881 1.264 . S
C880 C885 1.479 . S
C880 C890 1.465 . S
C881 C880 1.264 . S
C881 C883 1.339 . S
C881 H908 0.931 . S
C882 C883 1.395 . S
C882 C884 1.320 . S
C883 C881 1.339 . S
C883 C882 1.395 . S
C883 H909 0.929 . S
C884 C882 1.320 . S
C884 C885 1.405 . S
C884 H910 0.930 . S
C885 C880 1.479 . S
C885 C884 1.405 . S
C885 H911 0.931 . S
U886 O887 2.454 . S
U886 O888 2.458 . S
U886 C889 2.984 . S
U886 C890 2.847 . S
U886 C903 2.882 . S
U886 O904 2.441 . S
U886 O905 2.420 . S
U886 O906 2.455 . S
U886 O907 2.449 . S
O887 U886 2.454 . S
O887 C889 1.353 . S
O888 U886 2.458 . S
O888 C889 1.286 . S
C889 U886 2.984 . S
C889 O887 1.353 . S
C889 O888 1.286 . S
C889 C891 1.363 . S
C890 C880 1.465 . S
C890 U886 2.847 . S
C890 O904 1.249 . S
C890 O905 1.202 . S
C891 C889 1.363 . S
C891 C893 1.408 . S
C891 C896 1.342 . S
C892 C893 1.310 . S
C892 C895 1.461 . S
C892 H912 0.932 . S
C893 C891 1.408 . S
C893 C892 1.310 . S
C893 H913 0.930 . S
C894 C895 1.474 . S
C894 C896 1.285 . S
C894 H914 0.929 . S
C895 C892 1.461 . S
C895 C894 1.474 . S
C896 C891 1.342 . S
C896 C894 1.285 . S
C896 H915 0.930 . S
C897 C900 1.424 . S
C897 C902 1.245 . S
C897 C903 1.428 . S
C898 C901 1.260 . S
C898 C902 1.477 . S
C898 H916 0.932 . S
C899 C900 1.384 . S
C899 C901 1.479 . S
C899 H917 0.929 . S
C900 C897 1.424 . S
C900 C899 1.384 . S
C900 H918 0.928 . S
C901 C898 1.260 . S
C901 C899 1.479 . S
C902 C897 1.245 . S
C902 C898 1.477 . S
C902 H919 0.932 . S
C903 U886 2.882 . S
C903 C897 1.428 . S
C903 O906 1.301 . S
C903 O907 1.282 . S
O904 U886 2.441 . S
O904 C890 1.249 . S
O905 U886 2.420 . S
O905 C890 1.202 . S
O906 U886 2.455 . S
O906 C903 1.301 . S
O907 U886 2.449 . S
O907 C903 1.282 . S
H908 C881 0.931 . S
H909 C883 0.929 . S
H910 C884 0.930 . S
H911 C885 0.931 . S
H912 C892 0.932 . S
H913 C893 0.930 . S
H914 C894 0.929 . S
H915 C896 0.930 . S
H916 C898 0.932 . S
H917 C899 0.929 . S
H918 C900 0.928 . S
H919 C902 0.932 . S
C920 C921 1.264 . S
C920 C925 1.479 . S
C920 C930 1.465 . S
C921 C920 1.264 . S
C921 C923 1.339 . S
C921 H948 0.931 . S
C922 C923 1.395 . S
C922 C924 1.320 . S
C923 C921 1.339 . S
C923 C922 1.395 . S
C923 H949 0.929 . S
C924 C922 1.320 . S
C924 C925 1.405 . S
C924 H950 0.930 . S
C925 C920 1.479 . S
C925 C924 1.405 . S
C925 H951 0.931 . S
U926 O927 2.454 . S
U926 O928 2.458 . S
U926 C929 2.984 . S
U926 C930 2.847 . S
U926 C943 2.882 . S
U926 O944 2.441 . S
U926 O945 2.420 . S
U926 O946 2.455 . S
U926 O947 2.449 . S
O927 U926 2.454 . S
O927 C929 1.353 . S
O928 U926 2.458 . S
O928 C929 1.286 . S
C929 U926 2.984 . S
C929 O927 1.353 . S
C929 O928 1.286 . S
C929 C931 1.363 . S
C930 C920 1.465 . S
C930 U926 2.847 . S
C930 O944 1.249 . S
C930 O945 1.202 . S
C931 C929 1.363 . S
C931 C933 1.408 . S
C931 C936 1.342 . S
C932 C933 1.310 . S
C932 C935 1.461 . S
C932 H952 0.932 . S
C933 C931 1.408 . S
C933 C932 1.310 . S
C933 H953 0.930 . S
C934 C935 1.474 . S
C934 C936 1.285 . S
C934 H954 0.929 . S
C935 C932 1.461 . S
C935 C934 1.474 . S
C936 C931 1.342 . S
C936 C934 1.285 . S
C936 H955 0.930 . S
C937 C940 1.424 . S
C937 C942 1.245 . S
C937 C943 1.428 . S
C938 C941 1.260 . S
C938 C942 1.477 . S
C938 H956 0.932 . S
C939 C940 1.384 . S
C939 C941 1.479 . S
C939 H957 0.929 . S
C940 C937 1.424 . S
C940 C939 1.384 . S
C940 H958 0.928 . S
C941 C938 1.260 . S
C941 C939 1.479 . S
C942 C937 1.245 . S
C942 C938 1.477 . S
C942 H959 0.932 . S
C943 U926 2.882 . S
C943 C937 1.428 . S
C943 O946 1.301 . S
C943 O947 1.282 . S
O944 U926 2.441 . S
O944 C930 1.249 . S
O945 U926 2.420 . S
O945 C930 1.202 . S
O946 U926 2.455 . S
O946 C943 1.301 . S
O947 U926 2.449 . S
O947 C943 1.282 . S
H948 C921 0.931 . S
H949 C923 0.929 . S
H950 C924 0.930 . S
H951 C925 0.931 . S
H952 C932 0.932 . S
H953 C933 0.930 . S
H954 C934 0.929 . S
H955 C936 0.930 . S
H956 C938 0.932 . S
H957 C939 0.929 . S
H958 C940 0.928 . S
H959 C942 0.932 . S
C960 C961 1.264 . S
C960 C965 1.479 . S
C960 C970 1.465 . S
C961 C960 1.264 . S
C961 C963 1.339 . S
C961 H988 0.931 . S
C962 C963 1.395 . S
C962 C964 1.320 . S
C963 C961 1.339 . S
C963 C962 1.395 . S
C963 H989 0.929 . S
C964 C962 1.320 . S
C964 C965 1.405 . S
C964 H990 0.930 . S
C965 C960 1.479 . S
C965 C964 1.405 . S
C965 H991 0.931 . S
U966 O967 2.454 . S
U966 O968 2.458 . S
U966 C969 2.984 . S
U966 C970 2.847 . S
U966 C983 2.882 . S
U966 O984 2.441 . S
U966 O985 2.420 . S
U966 O986 2.455 . S
U966 O987 2.449 . S
O967 U966 2.454 . S
O967 C969 1.353 . S
O968 U966 2.458 . S
O968 C969 1.286 . S
C969 U966 2.984 . S
C969 O967 1.353 . S
C969 O968 1.286 . S
C969 C971 1.363 . S
C970 C960 1.465 . S
C970 U966 2.847 . S
C970 O984 1.249 . S
C970 O985 1.202 . S
C971 C969 1.363 . S
C971 C973 1.408 . S
C971 C976 1.342 . S
C972 C973 1.310 . S
C972 C975 1.461 . S
C972 H992 0.932 . S
C973 C971 1.408 . S
C973 C972 1.310 . S
C973 H993 0.930 . S
C974 C975 1.474 . S
C974 C976 1.285 . S
C974 H994 0.929 . S
C975 C972 1.461 . S
C975 C974 1.474 . S
C976 C971 1.342 . S
C976 C974 1.285 . S
C976 H995 0.930 . S
C977 C980 1.424 . S
C977 C982 1.245 . S
C977 C983 1.428 . S
C978 C981 1.260 . S
C978 C982 1.477 . S
C978 H996 0.932 . S
C979 C980 1.384 . S
C979 C981 1.479 . S
C979 H997 0.929 . S
C980 C977 1.424 . S
C980 C979 1.384 . S
C980 H998 0.928 . S
C981 C978 1.260 . S
C981 C979 1.479 . S
C982 C977 1.245 . S
C982 C978 1.477 . S
C982 H999 0.932 . S
C983 U966 2.882 . S
C983 C977 1.428 . S
C983 O986 1.301 . S
C983 O987 1.282 . S
O984 U966 2.441 . S
O984 C970 1.249 . S
O985 U966 2.420 . S
O985 C970 1.202 . S
O986 U966 2.455 . S
O986 C983 1.301 . S
O987 U966 2.449 . S
O987 C983 1.282 . S
H988 C961 0.931 . S
H989 C963 0.929 . S
H990 C964 0.930 . S
H991 C965 0.931 . S
H992 C972 0.932 . S
H993 C973 0.930 . S
H994 C974 0.929 . S
H995 C976 0.930 . S
H996 C978 0.932 . S
H997 C979 0.929 . S
H998 C980 0.928 . S
H999 C982 0.932 . S
C1000 C1001 1.264 . S
C1000 C1005 1.479 . S
C1000 C1010 1.465 . S
C1001 C1000 1.264 . S
C1001 C1003 1.339 . S
C1001 H1028 0.931 . S
C1002 C1003 1.395 . S
C1002 C1004 1.320 . S
C1003 C1001 1.339 . S
C1003 C1002 1.395 . S
C1003 H1029 0.929 . S
C1004 C1002 1.320 . S
C1004 C1005 1.405 . S
C1004 H1030 0.930 . S
C1005 C1000 1.479 . S
C1005 C1004 1.405 . S
C1005 H1031 0.931 . S
U1006 O1007 2.454 . S
U1006 O1008 2.458 . S
U1006 C1009 2.984 . S
U1006 C1010 2.847 . S
U1006 C1023 2.882 . S
U1006 O1024 2.441 . S
U1006 O1025 2.420 . S
U1006 O1026 2.455 . S
U1006 O1027 2.449 . S
O1007 U1006 2.454 . S
O1007 C1009 1.353 . S
O1008 U1006 2.458 . S
O1008 C1009 1.286 . S
C1009 U1006 2.984 . S
C1009 O1007 1.353 . S
C1009 O1008 1.286 . S
C1009 C1011 1.363 . S
C1010 C1000 1.465 . S
C1010 U1006 2.847 . S
C1010 O1024 1.249 . S
C1010 O1025 1.202 . S
C1011 C1009 1.363 . S
C1011 C1013 1.408 . S
C1011 C1016 1.342 . S
C1012 C1013 1.310 . S
C1012 C1015 1.461 . S
C1012 H1032 0.932 . S
C1013 C1011 1.408 . S
C1013 C1012 1.310 . S
C1013 H1033 0.930 . S
C1014 C1015 1.474 . S
C1014 C1016 1.285 . S
C1014 H1034 0.929 . S
C1015 C1012 1.461 . S
C1015 C1014 1.474 . S
C1016 C1011 1.342 . S
C1016 C1014 1.285 . S
C1016 H1035 0.930 . S
C1017 C1020 1.424 . S
C1017 C1022 1.245 . S
C1017 C1023 1.428 . S
C1018 C1021 1.260 . S
C1018 C1022 1.477 . S
C1018 H1036 0.932 . S
C1019 C1020 1.384 . S
C1019 C1021 1.479 . S
C1019 H1037 0.929 . S
C1020 C1017 1.424 . S
C1020 C1019 1.384 . S
C1020 H1038 0.928 . S
C1021 C1018 1.260 . S
C1021 C1019 1.479 . S
C1022 C1017 1.245 . S
C1022 C1018 1.477 . S
C1022 H1039 0.932 . S
C1023 U1006 2.882 . S
C1023 C1017 1.428 . S
C1023 O1026 1.301 . S
C1023 O1027 1.282 . S
O1024 U1006 2.441 . S
O1024 C1010 1.249 . S
O1025 U1006 2.420 . S
O1025 C1010 1.202 . S
O1026 U1006 2.455 . S
O1026 C1023 1.301 . S
O1027 U1006 2.449 . S
O1027 C1023 1.282 . S
H1028 C1001 0.931 . S
H1029 C1003 0.929 . S
H1030 C1004 0.930 . S
H1031 C1005 0.931 . S
H1032 C1012 0.932 . S
H1033 C1013 0.930 . S
H1034 C1014 0.929 . S
H1035 C1016 0.930 . S
H1036 C1018 0.932 . S
H1037 C1019 0.929 . S
H1038 C1020 0.928 . S
H1039 C1022 0.932 . S
C1040 C1041 1.264 . S
C1040 C1045 1.479 . S
C1040 C1050 1.465 . S
C1041 C1040 1.264 . S
C1041 C1043 1.339 . S
C1041 H1068 0.931 . S
C1042 C1043 1.395 . S
C1042 C1044 1.320 . S
C1043 C1041 1.339 . S
C1043 C1042 1.395 . S
C1043 H1069 0.929 . S
C1044 C1042 1.320 . S
C1044 C1045 1.405 . S
C1044 H1070 0.930 . S
C1045 C1040 1.479 . S
C1045 C1044 1.405 . S
C1045 H1071 0.931 . S
U1046 O1047 2.454 . S
U1046 O1048 2.458 . S
U1046 C1049 2.984 . S
U1046 C1050 2.847 . S
U1046 C1063 2.882 . S
U1046 O1064 2.441 . S
U1046 O1065 2.420 . S
U1046 O1066 2.455 . S
U1046 O1067 2.449 . S
O1047 U1046 2.454 . S
O1047 C1049 1.353 . S
O1048 U1046 2.458 . S
O1048 C1049 1.286 . S
C1049 U1046 2.984 . S
C1049 O1047 1.353 . S
C1049 O1048 1.286 . S
C1049 C1051 1.363 . S
C1050 C1040 1.465 . S
C1050 U1046 2.847 . S
C1050 O1064 1.249 . S
C1050 O1065 1.202 . S
C1051 C1049 1.363 . S
C1051 C1053 1.408 . S
C1051 C1056 1.342 . S
C1052 C1053 1.310 . S
C1052 C1055 1.461 . S
C1052 H1072 0.932 . S
C1053 C1051 1.408 . S
C1053 C1052 1.310 . S
C1053 H1073 0.930 . S
C1054 C1055 1.474 . S
C1054 C1056 1.285 . S
C1054 H1074 0.929 . S
C1055 C1052 1.461 . S
C1055 C1054 1.474 . S
C1056 C1051 1.342 . S
C1056 C1054 1.285 . S
C1056 H1075 0.930 . S
C1057 C1060 1.424 . S
C1057 C1062 1.245 . S
C1057 C1063 1.428 . S
C1058 C1061 1.260 . S
C1058 C1062 1.477 . S
C1058 H1076 0.932 . S
C1059 C1060 1.384 . S
C1059 C1061 1.479 . S
C1059 H1077 0.929 . S
C1060 C1057 1.424 . S
C1060 C1059 1.384 . S
C1060 H1078 0.928 . S
C1061 C1058 1.260 . S
C1061 C1059 1.479 . S
C1062 C1057 1.245 . S
C1062 C1058 1.477 . S
C1062 H1079 0.932 . S
C1063 U1046 2.882 . S
C1063 C1057 1.428 . S
C1063 O1066 1.301 . S
C1063 O1067 1.282 . S
O1064 U1046 2.441 . S
O1064 C1050 1.249 . S
O1065 U1046 2.420 . S
O1065 C1050 1.202 . S
O1066 U1046 2.455 . S
O1066 C1063 1.301 . S
O1067 U1046 2.449 . S
O1067 C1063 1.282 . S
H1068 C1041 0.931 . S
H1069 C1043 0.929 . S
H1070 C1044 0.930 . S
H1071 C1045 0.931 . S
H1072 C1052 0.932 . S
H1073 C1053 0.930 . S
H1074 C1054 0.929 . S
H1075 C1056 0.930 . S
H1076 C1058 0.932 . S
H1077 C1059 0.929 . S
H1078 C1060 0.928 . S
H1079 C1062 0.932 . S
C1080 C1081 1.264 . S
C1080 C1085 1.479 . S
C1080 C1090 1.465 . S
C1081 C1080 1.264 . S
C1081 C1083 1.339 . S
C1081 H1108 0.931 . S
C1082 C1083 1.395 . S
C1082 C1084 1.320 . S
C1083 C1081 1.339 . S
C1083 C1082 1.395 . S
C1083 H1109 0.929 . S
C1084 C1082 1.320 . S
C1084 C1085 1.405 . S
C1084 H1110 0.930 . S
C1085 C1080 1.479 . S
C1085 C1084 1.405 . S
C1085 H1111 0.931 . S
U1086 O1087 2.454 . S
U1086 O1088 2.458 . S
U1086 C1089 2.984 . S
U1086 C1090 2.847 . S
U1086 C1103 2.882 . S
U1086 O1104 2.441 . S
U1086 O1105 2.420 . S
U1086 O1106 2.455 . S
U1086 O1107 2.449 . S
O1087 U1086 2.454 . S
O1087 C1089 1.353 . S
O1088 U1086 2.458 . S
O1088 C1089 1.286 . S
C1089 U1086 2.984 . S
C1089 O1087 1.353 . S
C1089 O1088 1.286 . S
C1089 C1091 1.363 . S
C1090 C1080 1.465 . S
C1090 U1086 2.847 . S
C1090 O1104 1.249 . S
C1090 O1105 1.202 . S
C1091 C1089 1.363 . S
C1091 C1093 1.408 . S
C1091 C1096 1.342 . S
C1092 C1093 1.310 . S
C1092 C1095 1.461 . S
C1092 H1112 0.932 . S
C1093 C1091 1.408 . S
C1093 C1092 1.310 . S
C1093 H1113 0.930 . S
C1094 C1095 1.474 . S
C1094 C1096 1.285 . S
C1094 H1114 0.929 . S
C1095 C1092 1.461 . S
C1095 C1094 1.474 . S
C1096 C1091 1.342 . S
C1096 C1094 1.285 . S
C1096 H1115 0.930 . S
C1097 C1100 1.424 . S
C1097 C1102 1.245 . S
C1097 C1103 1.428 . S
C1098 C1101 1.260 . S
C1098 C1102 1.477 . S
C1098 H1116 0.932 . S
C1099 C1100 1.384 . S
C1099 C1101 1.479 . S
C1099 H1117 0.929 . S
C1100 C1097 1.424 . S
C1100 C1099 1.384 . S
C1100 H1118 0.928 . S
C1101 C1098 1.260 . S
C1101 C1099 1.479 . S
C1102 C1097 1.245 . S
C1102 C1098 1.477 . S
C1102 H1119 0.932 . S
C1103 U1086 2.882 . S
C1103 C1097 1.428 . S
C1103 O1106 1.301 . S
C1103 O1107 1.282 . S
O1104 U1086 2.441 . S
O1104 C1090 1.249 . S
O1105 U1086 2.420 . S
O1105 C1090 1.202 . S
O1106 U1086 2.455 . S
O1106 C1103 1.301 . S
O1107 U1086 2.449 . S
O1107 C1103 1.282 . S
H1108 C1081 0.931 . S
H1109 C1083 0.929 . S
H1110 C1084 0.930 . S
H1111 C1085 0.931 . S
H1112 C1092 0.932 . S
H1113 C1093 0.930 . S
H1114 C1094 0.929 . S
H1115 C1096 0.930 . S
H1116 C1098 0.932 . S
H1117 C1099 0.929 . S
H1118 C1100 0.928 . S
H1119 C1102 0.932 . S
C1120 C1121 1.264 . S
C1120 C1125 1.479 . S
C1120 C1130 1.465 . S
C1121 C1120 1.264 . S
C1121 C1123 1.339 . S
C1121 H1148 0.931 . S
C1122 C1123 1.395 . S
C1122 C1124 1.320 . S
C1123 C1121 1.339 . S
C1123 C1122 1.395 . S
C1123 H1149 0.929 . S
C1124 C1122 1.320 . S
C1124 C1125 1.405 . S
C1124 H1150 0.930 . S
C1125 C1120 1.479 . S
C1125 C1124 1.405 . S
C1125 H1151 0.931 . S
U1126 O1127 2.454 . S
U1126 O1128 2.458 . S
U1126 C1129 2.984 . S
U1126 C1130 2.847 . S
U1126 C1143 2.882 . S
U1126 O1144 2.441 . S
U1126 O1145 2.420 . S
U1126 O1146 2.455 . S
U1126 O1147 2.449 . S
O1127 U1126 2.454 . S
O1127 C1129 1.353 . S
O1128 U1126 2.458 . S
O1128 C1129 1.286 . S
C1129 U1126 2.984 . S
C1129 O1127 1.353 . S
C1129 O1128 1.286 . S
C1129 C1131 1.363 . S
C1130 C1120 1.465 . S
C1130 U1126 2.847 . S
C1130 O1144 1.249 . S
C1130 O1145 1.202 . S
C1131 C1129 1.363 . S
C1131 C1133 1.408 . S
C1131 C1136 1.342 . S
C1132 C1133 1.310 . S
C1132 C1135 1.461 . S
C1132 H1152 0.932 . S
C1133 C1131 1.408 . S
C1133 C1132 1.310 . S
C1133 H1153 0.930 . S
C1134 C1135 1.474 . S
C1134 C1136 1.285 . S
C1134 H1154 0.929 . S
C1135 C1132 1.461 . S
C1135 C1134 1.474 . S
C1136 C1131 1.342 . S
C1136 C1134 1.285 . S
C1136 H1155 0.930 . S
C1137 C1140 1.424 . S
C1137 C1142 1.245 . S
C1137 C1143 1.428 . S
C1138 C1141 1.260 . S
C1138 C1142 1.477 . S
C1138 H1156 0.932 . S
C1139 C1140 1.384 . S
C1139 C1141 1.479 . S
C1139 H1157 0.929 . S
C1140 C1137 1.424 . S
C1140 C1139 1.384 . S
C1140 H1158 0.928 . S
C1141 C1138 1.260 . S
C1141 C1139 1.479 . S
C1142 C1137 1.245 . S
C1142 C1138 1.477 . S
C1142 H1159 0.932 . S
C1143 U1126 2.882 . S
C1143 C1137 1.428 . S
C1143 O1146 1.301 . S
C1143 O1147 1.282 . S
O1144 U1126 2.441 . S
O1144 C1130 1.249 . S
O1145 U1126 2.420 . S
O1145 C1130 1.202 . S
O1146 U1126 2.455 . S
O1146 C1143 1.301 . S
O1147 U1126 2.449 . S
O1147 C1143 1.282 . S
H1148 C1121 0.931 . S
H1149 C1123 0.929 . S
H1150 C1124 0.930 . S
H1151 C1125 0.931 . S
H1152 C1132 0.932 . S
H1153 C1133 0.930 . S
H1154 C1134 0.929 . S
H1155 C1136 0.930 . S
H1156 C1138 0.932 . S
H1157 C1139 0.929 . S
H1158 C1140 0.928 . S
H1159 C1142 0.932 . S
C1160 C1161 1.264 . S
C1160 C1165 1.479 . S
C1160 C1170 1.465 . S
C1161 C1160 1.264 . S
C1161 C1163 1.339 . S
C1161 H1188 0.931 . S
C1162 C1163 1.395 . S
C1162 C1164 1.320 . S
C1163 C1161 1.339 . S
C1163 C1162 1.395 . S
C1163 H1189 0.929 . S
C1164 C1162 1.320 . S
C1164 C1165 1.405 . S
C1164 H1190 0.930 . S
C1165 C1160 1.479 . S
C1165 C1164 1.405 . S
C1165 H1191 0.931 . S
U1166 O1167 2.454 . S
U1166 O1168 2.458 . S
U1166 C1169 2.984 . S
U1166 C1170 2.847 . S
U1166 C1183 2.882 . S
U1166 O1184 2.441 . S
U1166 O1185 2.420 . S
U1166 O1186 2.455 . S
U1166 O1187 2.449 . S
O1167 U1166 2.454 . S
O1167 C1169 1.353 . S
O1168 U1166 2.458 . S
O1168 C1169 1.286 . S
C1169 U1166 2.984 . S
C1169 O1167 1.353 . S
C1169 O1168 1.286 . S
C1169 C1171 1.363 . S
C1170 C1160 1.465 . S
C1170 U1166 2.847 . S
C1170 O1184 1.249 . S
C1170 O1185 1.202 . S
C1171 C1169 1.363 . S
C1171 C1173 1.408 . S
C1171 C1176 1.342 . S
C1172 C1173 1.310 . S
C1172 C1175 1.461 . S
C1172 H1192 0.932 . S
C1173 C1171 1.408 . S
C1173 C1172 1.310 . S
C1173 H1193 0.930 . S
C1174 C1175 1.474 . S
C1174 C1176 1.285 . S
C1174 H1194 0.929 . S
C1175 C1172 1.461 . S
C1175 C1174 1.474 . S
C1176 C1171 1.342 . S
C1176 C1174 1.285 . S
C1176 H1195 0.930 . S
C1177 C1180 1.424 . S
C1177 C1182 1.245 . S
C1177 C1183 1.428 . S
C1178 C1181 1.260 . S
C1178 C1182 1.477 . S
C1178 H1196 0.932 . S
C1179 C1180 1.384 . S
C1179 C1181 1.479 . S
C1179 H1197 0.929 . S
C1180 C1177 1.424 . S
C1180 C1179 1.384 . S
C1180 H1198 0.928 . S
C1181 C1178 1.260 . S
C1181 C1179 1.479 . S
C1182 C1177 1.245 . S
C1182 C1178 1.477 . S
C1182 H1199 0.932 . S
C1183 U1166 2.882 . S
C1183 C1177 1.428 . S
C1183 O1186 1.301 . S
C1183 O1187 1.282 . S
O1184 U1166 2.441 . S
O1184 C1170 1.249 . S
O1185 U1166 2.420 . S
O1185 C1170 1.202 . S
O1186 U1166 2.455 . S
O1186 C1183 1.301 . S
O1187 U1166 2.449 . S
O1187 C1183 1.282 . S
H1188 C1161 0.931 . S
H1189 C1163 0.929 . S
H1190 C1164 0.930 . S
H1191 C1165 0.931 . S
H1192 C1172 0.932 . S
H1193 C1173 0.930 . S
H1194 C1174 0.929 . S
H1195 C1176 0.930 . S
H1196 C1178 0.932 . S
H1197 C1179 0.929 . S
H1198 C1180 0.928 . S
H1199 C1182 0.932 . S
C1200 C1201 1.264 . S
C1200 C1205 1.479 . S
C1200 C1210 1.465 . S
C1201 C1200 1.264 . S
C1201 C1203 1.339 . S
C1201 H1228 0.931 . S
C1202 C1203 1.395 . S
C1202 C1204 1.320 . S
C1203 C1201 1.339 . S
C1203 C1202 1.395 . S
C1203 H1229 0.929 . S
C1204 C1202 1.320 . S
C1204 C1205 1.405 . S
C1204 H1230 0.930 . S
C1205 C1200 1.479 . S
C1205 C1204 1.405 . S
C1205 H1231 0.931 . S
U1206 O1207 2.454 . S
U1206 O1208 2.458 . S
U1206 C1209 2.984 . S
U1206 C1210 2.847 . S
U1206 C1223 2.882 . S
U1206 O1224 2.441 . S
U1206 O1225 2.420 . S
U1206 O1226 2.455 . S
U1206 O1227 2.449 . S
O1207 U1206 2.454 . S
O1207 C1209 1.353 . S
O1208 U1206 2.458 . S
O1208 C1209 1.286 . S
C1209 U1206 2.984 . S
C1209 O1207 1.353 . S
C1209 O1208 1.286 . S
C1209 C1211 1.363 . S
C1210 C1200 1.465 . S
C1210 U1206 2.847 . S
C1210 O1224 1.249 . S
C1210 O1225 1.202 . S
C1211 C1209 1.363 . S
C1211 C1213 1.408 . S
C1211 C1216 1.342 . S
C1212 C1213 1.310 . S
C1212 C1215 1.461 . S
C1212 H1232 0.932 . S
C1213 C1211 1.408 . S
C1213 C1212 1.310 . S
C1213 H1233 0.930 . S
C1214 C1215 1.474 . S
C1214 C1216 1.285 . S
C1214 H1234 0.929 . S
C1215 C1212 1.461 . S
C1215 C1214 1.474 . S
C1216 C1211 1.342 . S
C1216 C1214 1.285 . S
C1216 H1235 0.930 . S
C1217 C1220 1.424 . S
C1217 C1222 1.245 . S
C1217 C1223 1.428 . S
C1218 C1221 1.260 . S
C1218 C1222 1.477 . S
C1218 H1236 0.932 . S
C1219 C1220 1.384 . S
C1219 C1221 1.479 . S
C1219 H1237 0.929 . S
C1220 C1217 1.424 . S
C1220 C1219 1.384 . S
C1220 H1238 0.928 . S
C1221 C1218 1.260 . S
C1221 C1219 1.479 . S
C1222 C1217 1.245 . S
C1222 C1218 1.477 . S
C1222 H1239 0.932 . S
C1223 U1206 2.882 . S
C1223 C1217 1.428 . S
C1223 O1226 1.301 . S
C1223 O1227 1.282 . S
O1224 U1206 2.441 . S
O1224 C1210 1.249 . S
O1225 U1206 2.420 . S
O1225 C1210 1.202 . S
O1226 U1206 2.455 . S
O1226 C1223 1.301 . S
O1227 U1206 2.449 . S
O1227 C1223 1.282 . S
H1228 C1201 0.931 . S
H1229 C1203 0.929 . S
H1230 C1204 0.930 . S
H1231 C1205 0.931 . S
H1232 C1212 0.932 . S
H1233 C1213 0.930 . S
H1234 C1214 0.929 . S
H1235 C1216 0.930 . S
H1236 C1218 0.932 . S
H1237 C1219 0.929 . S
H1238 C1220 0.928 . S
H1239 C1222 0.932 . S
C1240 C1241 1.264 . S
C1240 C1245 1.479 . S
C1240 C1250 1.465 . S
C1241 C1240 1.264 . S
C1241 C1243 1.339 . S
C1241 H1268 0.931 . S
C1242 C1243 1.395 . S
C1242 C1244 1.320 . S
C1243 C1241 1.339 . S
C1243 C1242 1.395 . S
C1243 H1269 0.929 . S
C1244 C1242 1.320 . S
C1244 C1245 1.405 . S
C1244 H1270 0.930 . S
C1245 C1240 1.479 . S
C1245 C1244 1.405 . S
C1245 H1271 0.931 . S
U1246 O1247 2.454 . S
U1246 O1248 2.458 . S
U1246 C1249 2.984 . S
U1246 C1250 2.847 . S
U1246 C1263 2.882 . S
U1246 O1264 2.441 . S
U1246 O1265 2.420 . S
U1246 O1266 2.455 . S
U1246 O1267 2.449 . S
O1247 U1246 2.454 . S
O1247 C1249 1.353 . S
O1248 U1246 2.458 . S
O1248 C1249 1.286 . S
C1249 U1246 2.984 . S
C1249 O1247 1.353 . S
C1249 O1248 1.286 . S
C1249 C1251 1.363 . S
C1250 C1240 1.465 . S
C1250 U1246 2.847 . S
C1250 O1264 1.249 . S
C1250 O1265 1.202 . S
C1251 C1249 1.363 . S
C1251 C1253 1.408 . S
C1251 C1256 1.342 . S
C1252 C1253 1.310 . S
C1252 C1255 1.461 . S
C1252 H1272 0.932 . S
C1253 C1251 1.408 . S
C1253 C1252 1.310 . S
C1253 H1273 0.930 . S
C1254 C1255 1.474 . S
C1254 C1256 1.285 . S
C1254 H1274 0.929 . S
C1255 C1252 1.461 . S
C1255 C1254 1.474 . S
C1256 C1251 1.342 . S
C1256 C1254 1.285 . S
C1256 H1275 0.930 . S
C1257 C1260 1.424 . S
C1257 C1262 1.245 . S
C1257 C1263 1.428 . S
C1258 C1261 1.260 . S
C1258 C1262 1.477 . S
C1258 H1276 0.932 . S
C1259 C1260 1.384 . S
C1259 C1261 1.479 . S
C1259 H1277 0.929 . S
C1260 C1257 1.424 . S
C1260 C1259 1.384 . S
C1260 H1278 0.928 . S
C1261 C1258 1.260 . S
C1261 C1259 1.479 . S
C1262 C1257 1.245 . S
C1262 C1258 1.477 . S
C1262 H1279 0.932 . S
C1263 U1246 2.882 . S
C1263 C1257 1.428 . S
C1263 O1266 1.301 . S
C1263 O1267 1.282 . S
O1264 U1246 2.441 . S
O1264 C1250 1.249 . S
O1265 U1246 2.420 . S
O1265 C1250 1.202 . S
O1266 U1246 2.455 . S
O1266 C1263 1.301 . S
O1267 U1246 2.449 . S
O1267 C1263 1.282 . S
H1268 C1241 0.931 . S
H1269 C1243 0.929 . S
H1270 C1244 0.930 . S
H1271 C1245 0.931 . S
H1272 C1252 0.932 . S
H1273 C1253 0.930 . S
H1274 C1254 0.929 . S
H1275 C1256 0.930 . S
H1276 C1258 0.932 . S
H1277 C1259 0.929 . S
H1278 C1260 0.928 . S
H1279 C1262 0.932 . S
C1280 C1281 1.264 . S
C1280 C1285 1.479 . S
C1280 C1290 1.465 . S
C1281 C1280 1.264 . S
C1281 C1283 1.339 . S
C1281 H1308 0.931 . S
C1282 C1283 1.395 . S
C1282 C1284 1.320 . S
C1283 C1281 1.339 . S
C1283 C1282 1.395 . S
C1283 H1309 0.929 . S
C1284 C1282 1.320 . S
C1284 C1285 1.405 . S
C1284 H1310 0.930 . S
C1285 C1280 1.479 . S
C1285 C1284 1.405 . S
C1285 H1311 0.931 . S
U1286 O1287 2.454 . S
U1286 O1288 2.458 . S
U1286 C1289 2.984 . S
U1286 C1290 2.847 . S
U1286 C1303 2.882 . S
U1286 O1304 2.441 . S
U1286 O1305 2.420 . S
U1286 O1306 2.455 . S
U1286 O1307 2.449 . S
O1287 U1286 2.454 . S
O1287 C1289 1.353 . S
O1288 U1286 2.458 . S
O1288 C1289 1.286 . S
C1289 U1286 2.984 . S
C1289 O1287 1.353 . S
C1289 O1288 1.286 . S
C1289 C1291 1.363 . S
C1290 C1280 1.465 . S
C1290 U1286 2.847 . S
C1290 O1304 1.249 . S
C1290 O1305 1.202 . S
C1291 C1289 1.363 . S
C1291 C1293 1.408 . S
C1291 C1296 1.342 . S
C1292 C1293 1.310 . S
C1292 C1295 1.461 . S
C1292 H1312 0.932 . S
C1293 C1291 1.408 . S
C1293 C1292 1.310 . S
C1293 H1313 0.930 . S
C1294 C1295 1.474 . S
C1294 C1296 1.285 . S
C1294 H1314 0.929 . S
C1295 C1292 1.461 . S
C1295 C1294 1.474 . S
C1296 C1291 1.342 . S
C1296 C1294 1.285 . S
C1296 H1315 0.930 . S
C1297 C1300 1.424 . S
C1297 C1302 1.245 . S
C1297 C1303 1.428 . S
C1298 C1301 1.260 . S
C1298 C1302 1.477 . S
C1298 H1316 0.932 . S
C1299 C1300 1.384 . S
C1299 C1301 1.479 . S
C1299 H1317 0.929 . S
C1300 C1297 1.424 . S
C1300 C1299 1.384 . S
C1300 H1318 0.928 . S
C1301 C1298 1.260 . S
C1301 C1299 1.479 . S
C1302 C1297 1.245 . S
C1302 C1298 1.477 . S
C1302 H1319 0.932 . S
C1303 U1286 2.882 . S
C1303 C1297 1.428 . S
C1303 O1306 1.301 . S
C1303 O1307 1.282 . S
O1304 U1286 2.441 . S
O1304 C1290 1.249 . S
O1305 U1286 2.420 . S
O1305 C1290 1.202 . S
O1306 U1286 2.455 . S
O1306 C1303 1.301 . S
O1307 U1286 2.449 . S
O1307 C1303 1.282 . S
H1308 C1281 0.931 . S
H1309 C1283 0.929 . S
H1310 C1284 0.930 . S
H1311 C1285 0.931 . S
H1312 C1292 0.932 . S
H1313 C1293 0.930 . S
H1314 C1294 0.929 . S
H1315 C1296 0.930 . S
H1316 C1298 0.932 . S
H1317 C1299 0.929 . S
H1318 C1300 0.928 . S
H1319 C1302 0.932 . S
C1320 C1321 1.264 . S
C1320 C1325 1.479 . S
C1320 C1330 1.465 . S
C1321 C1320 1.264 . S
C1321 C1323 1.339 . S
C1321 H1348 0.931 . S
C1322 C1323 1.395 . S
C1322 C1324 1.320 . S
C1323 C1321 1.339 . S
C1323 C1322 1.395 . S
C1323 H1349 0.929 . S
C1324 C1322 1.320 . S
C1324 C1325 1.405 . S
C1324 H1350 0.930 . S
C1325 C1320 1.479 . S
C1325 C1324 1.405 . S
C1325 H1351 0.931 . S
U1326 O1327 2.454 . S
U1326 O1328 2.458 . S
U1326 C1329 2.984 . S
U1326 C1330 2.847 . S
U1326 C1343 2.882 . S
U1326 O1344 2.441 . S
U1326 O1345 2.420 . S
U1326 O1346 2.455 . S
U1326 O1347 2.449 . S
O1327 U1326 2.454 . S
O1327 C1329 1.353 . S
O1328 U1326 2.458 . S
O1328 C1329 1.286 . S
C1329 U1326 2.984 . S
C1329 O1327 1.353 . S
C1329 O1328 1.286 . S
C1329 C1331 1.363 . S
C1330 C1320 1.465 . S
C1330 U1326 2.847 . S
C1330 O1344 1.249 . S
C1330 O1345 1.202 . S
C1331 C1329 1.363 . S
C1331 C1333 1.408 . S
C1331 C1336 1.342 . S
C1332 C1333 1.310 . S
C1332 C1335 1.461 . S
C1332 H1352 0.932 . S
C1333 C1331 1.408 . S
C1333 C1332 1.310 . S
C1333 H1353 0.930 . S
C1334 C1335 1.474 . S
C1334 C1336 1.285 . S
C1334 H1354 0.929 . S
C1335 C1332 1.461 . S
C1335 C1334 1.474 . S
C1336 C1331 1.342 . S
C1336 C1334 1.285 . S
C1336 H1355 0.930 . S
C1337 C1340 1.424 . S
C1337 C1342 1.245 . S
C1337 C1343 1.428 . S
C1338 C1341 1.260 . S
C1338 C1342 1.477 . S
C1338 H1356 0.932 . S
C1339 C1340 1.384 . S
C1339 C1341 1.479 . S
C1339 H1357 0.929 . S
C1340 C1337 1.424 . S
C1340 C1339 1.384 . S
C1340 H1358 0.928 . S
C1341 C1338 1.260 . S
C1341 C1339 1.479 . S
C1342 C1337 1.245 . S
C1342 C1338 1.477 . S
C1342 H1359 0.932 . S
C1343 U1326 2.882 . S
C1343 C1337 1.428 . S
C1343 O1346 1.301 . S
C1343 O1347 1.282 . S
O1344 U1326 2.441 . S
O1344 C1330 1.249 . S
O1345 U1326 2.420 . S
O1345 C1330 1.202 . S
O1346 U1326 2.455 . S
O1346 C1343 1.301 . S
O1347 U1326 2.449 . S
O1347 C1343 1.282 . S
H1348 C1321 0.931 . S
H1349 C1323 0.929 . S
H1350 C1324 0.930 . S
H1351 C1325 0.931 . S
H1352 C1332 0.932 . S
H1353 C1333 0.930 . S
H1354 C1334 0.929 . S
H1355 C1336 0.930 . S
H1356 C1338 0.932 . S
H1357 C1339 0.929 . S
H1358 C1340 0.928 . S
H1359 C1342 0.932 . S
C1360 C1361 1.264 . S
C1360 C1365 1.479 . S
C1360 C1370 1.465 . S
C1361 C1360 1.264 . S
C1361 C1363 1.339 . S
C1361 H1388 0.931 . S
C1362 C1363 1.395 . S
C1362 C1364 1.320 . S
C1363 C1361 1.339 . S
C1363 C1362 1.395 . S
C1363 H1389 0.929 . S
C1364 C1362 1.320 . S
C1364 C1365 1.405 . S
C1364 H1390 0.930 . S
C1365 C1360 1.479 . S
C1365 C1364 1.405 . S
C1365 H1391 0.931 . S
U1366 O1367 2.454 . S
U1366 O1368 2.458 . S
U1366 C1369 2.984 . S
U1366 C1370 2.847 . S
U1366 C1383 2.882 . S
U1366 O1384 2.441 . S
U1366 O1385 2.420 . S
U1366 O1386 2.455 . S
U1366 O1387 2.449 . S
O1367 U1366 2.454 . S
O1367 C1369 1.353 . S
O1368 U1366 2.458 . S
O1368 C1369 1.286 . S
C1369 U1366 2.984 . S
C1369 O1367 1.353 . S
C1369 O1368 1.286 . S
C1369 C1371 1.363 . S
C1370 C1360 1.465 . S
C1370 U1366 2.847 . S
C1370 O1384 1.249 . S
C1370 O1385 1.202 . S
C1371 C1369 1.363 . S
C1371 C1373 1.408 . S
C1371 C1376 1.342 . S
C1372 C1373 1.310 . S
C1372 C1375 1.461 . S
C1372 H1392 0.932 . S
C1373 C1371 1.408 . S
C1373 C1372 1.310 . S
C1373 H1393 0.930 . S
C1374 C1375 1.474 . S
C1374 C1376 1.285 . S
C1374 H1394 0.929 . S
C1375 C1372 1.461 . S
C1375 C1374 1.474 . S
C1376 C1371 1.342 . S
C1376 C1374 1.285 . S
C1376 H1395 0.930 . S
C1377 C1380 1.424 . S
C1377 C1382 1.245 . S
C1377 C1383 1.428 . S
C1378 C1381 1.260 . S
C1378 C1382 1.477 . S
C1378 H1396 0.932 . S
C1379 C1380 1.384 . S
C1379 C1381 1.479 . S
C1379 H1397 0.929 . S
C1380 C1377 1.424 . S
C1380 C1379 1.384 . S
C1380 H1398 0.928 . S
C1381 C1378 1.260 . S
C1381 C1379 1.479 . S
C1382 C1377 1.245 . S
C1382 C1378 1.477 . S
C1382 H1399 0.932 . S
C1383 U1366 2.882 . S
C1383 C1377 1.428 . S
C1383 O1386 1.301 . S
C1383 O1387 1.282 . S
O1384 U1366 2.441 . S
O1384 C1370 1.249 . S
O1385 U1366 2.420 . S
O1385 C1370 1.202 . S
O1386 U1366 2.455 . S
O1386 C1383 1.301 . S
O1387 U1366 2.449 . S
O1387 C1383 1.282 . S
H1388 C1361 0.931 . S
H1389 C1363 0.929 . S
H1390 C1364 0.930 . S
H1391 C1365 0.931 . S
H1392 C1372 0.932 . S
H1393 C1373 0.930 . S
H1394 C1374 0.929 . S
H1395 C1376 0.930 . S
H1396 C1378 0.932 . S
H1397 C1379 0.929 . S
H1398 C1380 0.928 . S
H1399 C1382 0.932 . S
C1400 C1401 1.264 . S
C1400 C1405 1.479 . S
C1400 C1410 1.465 . S
C1401 C1400 1.264 . S
C1401 C1403 1.339 . S
C1401 H1428 0.931 . S
C1402 C1403 1.395 . S
C1402 C1404 1.320 . S
C1403 C1401 1.339 . S
C1403 C1402 1.395 . S
C1403 H1429 0.929 . S
C1404 C1402 1.320 . S
C1404 C1405 1.405 . S
C1404 H1430 0.930 . S
C1405 C1400 1.479 . S
C1405 C1404 1.405 . S
C1405 H1431 0.931 . S
U1406 O1407 2.454 . S
U1406 O1408 2.458 . S
U1406 C1409 2.984 . S
U1406 C1410 2.847 . S
U1406 C1423 2.882 . S
U1406 O1424 2.441 . S
U1406 O1425 2.420 . S
U1406 O1426 2.455 . S
U1406 O1427 2.449 . S
O1407 U1406 2.454 . S
O1407 C1409 1.353 . S
O1408 U1406 2.458 . S
O1408 C1409 1.286 . S
C1409 U1406 2.984 . S
C1409 O1407 1.353 . S
C1409 O1408 1.286 . S
C1409 C1411 1.363 . S
C1410 C1400 1.465 . S
C1410 U1406 2.847 . S
C1410 O1424 1.249 . S
C1410 O1425 1.202 . S
C1411 C1409 1.363 . S
C1411 C1413 1.408 . S
C1411 C1416 1.342 . S
C1412 C1413 1.310 . S
C1412 C1415 1.461 . S
C1412 H1432 0.932 . S
C1413 C1411 1.408 . S
C1413 C1412 1.310 . S
C1413 H1433 0.930 . S
C1414 C1415 1.474 . S
C1414 C1416 1.285 . S
C1414 H1434 0.929 . S
C1415 C1412 1.461 . S
C1415 C1414 1.474 . S
C1416 C1411 1.342 . S
C1416 C1414 1.285 . S
C1416 H1435 0.930 . S
C1417 C1420 1.424 . S
C1417 C1422 1.245 . S
C1417 C1423 1.428 . S
C1418 C1421 1.260 . S
C1418 C1422 1.477 . S
C1418 H1436 0.932 . S
C1419 C1420 1.384 . S
C1419 C1421 1.479 . S
C1419 H1437 0.929 . S
C1420 C1417 1.424 . S
C1420 C1419 1.384 . S
C1420 H1438 0.928 . S
C1421 C1418 1.260 . S
C1421 C1419 1.479 . S
C1422 C1417 1.245 . S
C1422 C1418 1.477 . S
C1422 H1439 0.932 . S
C1423 U1406 2.882 . S
C1423 C1417 1.428 . S
C1423 O1426 1.301 . S
C1423 O1427 1.282 . S
O1424 U1406 2.441 . S
O1424 C1410 1.249 . S
O1425 U1406 2.420 . S
O1425 C1410 1.202 . S
O1426 U1406 2.455 . S
O1426 C1423 1.301 . S
O1427 U1406 2.449 . S
O1427 C1423 1.282 . S
H1428 C1401 0.931 . S
H1429 C1403 0.929 . S
H1430 C1404 0.930 . S
H1431 C1405 0.931 . S
H1432 C1412 0.932 . S
H1433 C1413 0.930 . S
H1434 C1414 0.929 . S
H1435 C1416 0.930 . S
H1436 C1418 0.932 . S
H1437 C1419 0.929 . S
H1438 C1420 0.928 . S
H1439 C1422 0.932 . S
C1440 C1441 1.264 . S
C1440 C1445 1.479 . S
C1440 C1450 1.465 . S
C1441 C1440 1.264 . S
C1441 C1443 1.339 . S
C1441 H1468 0.931 . S
C1442 C1443 1.395 . S
C1442 C1444 1.320 . S
C1443 C1441 1.339 . S
C1443 C1442 1.395 . S
C1443 H1469 0.929 . S
C1444 C1442 1.320 . S
C1444 C1445 1.405 . S
C1444 H1470 0.930 . S
C1445 C1440 1.479 . S
C1445 C1444 1.405 . S
C1445 H1471 0.931 . S
U1446 O1447 2.454 . S
U1446 O1448 2.458 . S
U1446 C1449 2.984 . S
U1446 C1450 2.847 . S
U1446 C1463 2.882 . S
U1446 O1464 2.441 . S
U1446 O1465 2.420 . S
U1446 O1466 2.455 . S
U1446 O1467 2.449 . S
O1447 U1446 2.454 . S
O1447 C1449 1.353 . S
O1448 U1446 2.458 . S
O1448 C1449 1.286 . S
C1449 U1446 2.984 . S
C1449 O1447 1.353 . S
C1449 O1448 1.286 . S
C1449 C1451 1.363 . S
C1450 C1440 1.465 . S
C1450 U1446 2.847 . S
C1450 O1464 1.249 . S
C1450 O1465 1.202 . S
C1451 C1449 1.363 . S
C1451 C1453 1.408 . S
C1451 C1456 1.342 . S
C1452 C1453 1.310 . S
C1452 C1455 1.461 . S
C1452 H1472 0.932 . S
C1453 C1451 1.408 . S
C1453 C1452 1.310 . S
C1453 H1473 0.930 . S
C1454 C1455 1.474 . S
C1454 C1456 1.285 . S
C1454 H1474 0.929 . S
C1455 C1452 1.461 . S
C1455 C1454 1.474 . S
C1456 C1451 1.342 . S
C1456 C1454 1.285 . S
C1456 H1475 0.930 . S
C1457 C1460 1.424 . S
C1457 C1462 1.245 . S
C1457 C1463 1.428 . S
C1458 C1461 1.260 . S
C1458 C1462 1.477 . S
C1458 H1476 0.932 . S
C1459 C1460 1.384 . S
C1459 C1461 1.479 . S
C1459 H1477 0.929 . S
C1460 C1457 1.424 . S
C1460 C1459 1.384 . S
C1460 H1478 0.928 . S
C1461 C1458 1.260 . S
C1461 C1459 1.479 . S
C1462 C1457 1.245 . S
C1462 C1458 1.477 . S
C1462 H1479 0.932 . S
C1463 U1446 2.882 . S
C1463 C1457 1.428 . S
C1463 O1466 1.301 . S
C1463 O1467 1.282 . S
O1464 U1446 2.441 . S
O1464 C1450 1.249 . S
O1465 U1446 2.420 . S
O1465 C1450 1.202 . S
O1466 U1446 2.455 . S
O1466 C1463 1.301 . S
O1467 U1446 2.449 . S
O1467 C1463 1.282 . S
H1468 C1441 0.931 . S
H1469 C1443 0.929 . S
H1470 C1444 0.930 . S
H1471 C1445 0.931 . S
H1472 C1452 0.932 . S
H1473 C1453 0.930 . S
H1474 C1454 0.929 . S
H1475 C1456 0.930 . S
H1476 C1458 0.932 . S
H1477 C1459 0.929 . S
H1478 C1460 0.928 . S
H1479 C1462 0.932 . S
C1480 C1481 1.264 . S
C1480 C1485 1.479 . S
C1480 C1490 1.465 . S
C1481 C1480 1.264 . S
C1481 C1483 1.339 . S
C1481 H1508 0.931 . S
C1482 C1483 1.395 . S
C1482 C1484 1.320 . S
C1483 C1481 1.339 . S
C1483 C1482 1.395 . S
C1483 H1509 0.929 . S
C1484 C1482 1.320 . S
C1484 C1485 1.405 . S
C1484 H1510 0.930 . S
C1485 C1480 1.479 . S
C1485 C1484 1.405 . S
C1485 H1511 0.931 . S
U1486 O1487 2.454 . S
U1486 O1488 2.458 . S
U1486 C1489 2.984 . S
U1486 C1490 2.847 . S
U1486 C1503 2.882 . S
U1486 O1504 2.441 . S
U1486 O1505 2.420 . S
U1486 O1506 2.455 . S
U1486 O1507 2.449 . S
O1487 U1486 2.454 . S
O1487 C1489 1.353 . S
O1488 U1486 2.458 . S
O1488 C1489 1.286 . S
C1489 U1486 2.984 . S
C1489 O1487 1.353 . S
C1489 O1488 1.286 . S
C1489 C1491 1.363 . S
C1490 C1480 1.465 . S
C1490 U1486 2.847 . S
C1490 O1504 1.249 . S
C1490 O1505 1.202 . S
C1491 C1489 1.363 . S
C1491 C1493 1.408 . S
C1491 C1496 1.342 . S
C1492 C1493 1.310 . S
C1492 C1495 1.461 . S
C1492 H1512 0.932 . S
C1493 C1491 1.408 . S
C1493 C1492 1.310 . S
C1493 H1513 0.930 . S
C1494 C1495 1.474 . S
C1494 C1496 1.285 . S
C1494 H1514 0.929 . S
C1495 C1492 1.461 . S
C1495 C1494 1.474 . S
C1496 C1491 1.342 . S
C1496 C1494 1.285 . S
C1496 H1515 0.930 . S
C1497 C1500 1.424 . S
C1497 C1502 1.245 . S
C1497 C1503 1.428 . S
C1498 C1501 1.260 . S
C1498 C1502 1.477 . S
C1498 H1516 0.932 . S
C1499 C1500 1.384 . S
C1499 C1501 1.479 . S
C1499 H1517 0.929 . S
C1500 C1497 1.424 . S
C1500 C1499 1.384 . S
C1500 H1518 0.928 . S
C1501 C1498 1.260 . S
C1501 C1499 1.479 . S
C1502 C1497 1.245 . S
C1502 C1498 1.477 . S
C1502 H1519 0.932 . S
C1503 U1486 2.882 . S
C1503 C1497 1.428 . S
C1503 O1506 1.301 . S
C1503 O1507 1.282 . S
O1504 U1486 2.441 . S
O1504 C1490 1.249 . S
O1505 U1486 2.420 . S
O1505 C1490 1.202 . S
O1506 U1486 2.455 . S
O1506 C1503 1.301 . S
O1507 U1486 2.449 . S
O1507 C1503 1.282 . S
H1508 C1481 0.931 . S
H1509 C1483 0.929 . S
H1510 C1484 0.930 . S
H1511 C1485 0.931 . S
H1512 C1492 0.932 . S
H1513 C1493 0.930 . S
H1514 C1494 0.929 . S
H1515 C1496 0.930 . S
H1516 C1498 0.932 . S
H1517 C1499 0.929 . S
H1518 C1500 0.928 . S
H1519 C1502 0.932 . S
C1520 C1521 1.264 . S
C1520 C1525 1.479 . S
C1520 C1530 1.465 . S
C1521 C1520 1.264 . S
C1521 C1523 1.339 . S
C1521 H1548 0.931 . S
C1522 C1523 1.395 . S
C1522 C1524 1.320 . S
C1523 C1521 1.339 . S
C1523 C1522 1.395 . S
C1523 H1549 0.929 . S
C1524 C1522 1.320 . S
C1524 C1525 1.405 . S
C1524 H1550 0.930 . S
C1525 C1520 1.479 . S
C1525 C1524 1.405 . S
C1525 H1551 0.931 . S
U1526 O1527 2.454 . S
U1526 O1528 2.458 . S
U1526 C1529 2.984 . S
U1526 C1530 2.847 . S
U1526 C1543 2.882 . S
U1526 O1544 2.441 . S
U1526 O1545 2.420 . S
U1526 O1546 2.455 . S
U1526 O1547 2.449 . S
O1527 U1526 2.454 . S
O1527 C1529 1.353 . S
O1528 U1526 2.458 . S
O1528 C1529 1.286 . S
C1529 U1526 2.984 . S
C1529 O1527 1.353 . S
C1529 O1528 1.286 . S
C1529 C1531 1.363 . S
C1530 C1520 1.465 . S
C1530 U1526 2.847 . S
C1530 O1544 1.249 . S
C1530 O1545 1.202 . S
C1531 C1529 1.363 . S
C1531 C1533 1.408 . S
C1531 C1536 1.342 . S
C1532 C1533 1.310 . S
C1532 C1535 1.461 . S
C1532 H1552 0.932 . S
C1533 C1531 1.408 . S
C1533 C1532 1.310 . S
C1533 H1553 0.930 . S
C1534 C1535 1.474 . S
C1534 C1536 1.285 . S
C1534 H1554 0.929 . S
C1535 C1532 1.461 . S
C1535 C1534 1.474 . S
C1536 C1531 1.342 . S
C1536 C1534 1.285 . S
C1536 H1555 0.930 . S
C1537 C1540 1.424 . S
C1537 C1542 1.245 . S
C1537 C1543 1.428 . S
C1538 C1541 1.260 . S
C1538 C1542 1.477 . S
C1538 H1556 0.932 . S
C1539 C1540 1.384 . S
C1539 C1541 1.479 . S
C1539 H1557 0.929 . S
C1540 C1537 1.424 . S
C1540 C1539 1.384 . S
C1540 H1558 0.928 . S
C1541 C1538 1.260 . S
C1541 C1539 1.479 . S
C1542 C1537 1.245 . S
C1542 C1538 1.477 . S
C1542 H1559 0.932 . S
C1543 U1526 2.882 . S
C1543 C1537 1.428 . S
C1543 O1546 1.301 . S
C1543 O1547 1.282 . S
O1544 U1526 2.441 . S
O1544 C1530 1.249 . S
O1545 U1526 2.420 . S
O1545 C1530 1.202 . S
O1546 U1526 2.455 . S
O1546 C1543 1.301 . S
O1547 U1526 2.449 . S
O1547 C1543 1.282 . S
H1548 C1521 0.931 . S
H1549 C1523 0.929 . S
H1550 C1524 0.930 . S
H1551 C1525 0.931 . S
H1552 C1532 0.932 . S
H1553 C1533 0.930 . S
H1554 C1534 0.929 . S
H1555 C1536 0.930 . S
H1556 C1538 0.932 . S
H1557 C1539 0.929 . S
H1558 C1540 0.928 . S
H1559 C1542 0.932 . S
C1560 C1561 1.264 . S
C1560 C1565 1.479 . S
C1560 C1570 1.465 . S
C1561 C1560 1.264 . S
C1561 C1563 1.339 . S
C1561 H1588 0.931 . S
C1562 C1563 1.395 . S
C1562 C1564 1.320 . S
C1563 C1561 1.339 . S
C1563 C1562 1.395 . S
C1563 H1589 0.929 . S
C1564 C1562 1.320 . S
C1564 C1565 1.405 . S
C1564 H1590 0.930 . S
C1565 C1560 1.479 . S
C1565 C1564 1.405 . S
C1565 H1591 0.931 . S
U1566 O1567 2.454 . S
U1566 O1568 2.458 . S
U1566 C1569 2.984 . S
U1566 C1570 2.847 . S
U1566 C1583 2.882 . S
U1566 O1584 2.441 . S
U1566 O1585 2.420 . S
U1566 O1586 2.455 . S
U1566 O1587 2.449 . S
O1567 U1566 2.454 . S
O1567 C1569 1.353 . S
O1568 U1566 2.458 . S
O1568 C1569 1.286 . S
C1569 U1566 2.984 . S
C1569 O1567 1.353 . S
C1569 O1568 1.286 . S
C1569 C1571 1.363 . S
C1570 C1560 1.465 . S
C1570 U1566 2.847 . S
C1570 O1584 1.249 . S
C1570 O1585 1.202 . S
C1571 C1569 1.363 . S
C1571 C1573 1.408 . S
C1571 C1576 1.342 . S
C1572 C1573 1.310 . S
C1572 C1575 1.461 . S
C1572 H1592 0.932 . S
C1573 C1571 1.408 . S
C1573 C1572 1.310 . S
C1573 H1593 0.930 . S
C1574 C1575 1.474 . S
C1574 C1576 1.285 . S
C1574 H1594 0.929 . S
C1575 C1572 1.461 . S
C1575 C1574 1.474 . S
C1576 C1571 1.342 . S
C1576 C1574 1.285 . S
C1576 H1595 0.930 . S
C1577 C1580 1.424 . S
C1577 C1582 1.245 . S
C1577 C1583 1.428 . S
C1578 C1581 1.260 . S
C1578 C1582 1.477 . S
C1578 H1596 0.932 . S
C1579 C1580 1.384 . S
C1579 C1581 1.479 . S
C1579 H1597 0.929 . S
C1580 C1577 1.424 . S
C1580 C1579 1.384 . S
C1580 H1598 0.928 . S
C1581 C1578 1.260 . S
C1581 C1579 1.479 . S
C1582 C1577 1.245 . S
C1582 C1578 1.477 . S
C1582 H1599 0.932 . S
C1583 U1566 2.882 . S
C1583 C1577 1.428 . S
C1583 O1586 1.301 . S
C1583 O1587 1.282 . S
O1584 U1566 2.441 . S
O1584 C1570 1.249 . S
O1585 U1566 2.420 . S
O1585 C1570 1.202 . S
O1586 U1566 2.455 . S
O1586 C1583 1.301 . S
O1587 U1566 2.449 . S
O1587 C1583 1.282 . S
H1588 C1561 0.931 . S
H1589 C1563 0.929 . S
H1590 C1564 0.930 . S
H1591 C1565 0.931 . S
H1592 C1572 0.932 . S
H1593 C1573 0.930 . S
H1594 C1574 0.929 . S
H1595 C1576 0.930 . S
H1596 C1578 0.932 . S
H1597 C1579 0.929 . S
H1598 C1580 0.928 . S
H1599 C1582 0.932 . S
C1600 C1601 1.264 . S
C1600 C1605 1.479 . S
C1600 C1610 1.465 . S
C1601 C1600 1.264 . S
C1601 C1603 1.339 . S
C1601 H1628 0.931 . S
C1602 C1603 1.395 . S
C1602 C1604 1.320 . S
C1603 C1601 1.339 . S
C1603 C1602 1.395 . S
C1603 H1629 0.929 . S
C1604 C1602 1.320 . S
C1604 C1605 1.405 . S
C1604 H1630 0.930 . S
C1605 C1600 1.479 . S
C1605 C1604 1.405 . S
C1605 H1631 0.931 . S
U1606 O1607 2.454 . S
U1606 O1608 2.458 . S
U1606 C1609 2.984 . S
U1606 C1610 2.847 . S
U1606 C1623 2.882 . S
U1606 O1624 2.441 . S
U1606 O1625 2.420 . S
U1606 O1626 2.455 . S
U1606 O1627 2.449 . S
O1607 U1606 2.454 . S
O1607 C1609 1.353 . S
O1608 U1606 2.458 . S
O1608 C1609 1.286 . S
C1609 U1606 2.984 . S
C1609 O1607 1.353 . S
C1609 O1608 1.286 . S
C1609 C1611 1.363 . S
C1610 C1600 1.465 . S
C1610 U1606 2.847 . S
C1610 O1624 1.249 . S
C1610 O1625 1.202 . S
C1611 C1609 1.363 . S
C1611 C1613 1.408 . S
C1611 C1616 1.342 . S
C1612 C1613 1.310 . S
C1612 C1615 1.461 . S
C1612 H1632 0.932 . S
C1613 C1611 1.408 . S
C1613 C1612 1.310 . S
C1613 H1633 0.930 . S
C1614 C1615 1.474 . S
C1614 C1616 1.285 . S
C1614 H1634 0.929 . S
C1615 C1612 1.461 . S
C1615 C1614 1.474 . S
C1616 C1611 1.342 . S
C1616 C1614 1.285 . S
C1616 H1635 0.930 . S
C1617 C1620 1.424 . S
C1617 C1622 1.245 . S
C1617 C1623 1.428 . S
C1618 C1621 1.260 . S
C1618 C1622 1.477 . S
C1618 H1636 0.932 . S
C1619 C1620 1.384 . S
C1619 C1621 1.479 . S
C1619 H1637 0.929 . S
C1620 C1617 1.424 . S
C1620 C1619 1.384 . S
C1620 H1638 0.928 . S
C1621 C1618 1.260 . S
C1621 C1619 1.479 . S
C1622 C1617 1.245 . S
C1622 C1618 1.477 . S
C1622 H1639 0.932 . S
C1623 U1606 2.882 . S
C1623 C1617 1.428 . S
C1623 O1626 1.301 . S
C1623 O1627 1.282 . S
O1624 U1606 2.441 . S
O1624 C1610 1.249 . S
O1625 U1606 2.420 . S
O1625 C1610 1.202 . S
O1626 U1606 2.455 . S
O1626 C1623 1.301 . S
O1627 U1606 2.449 . S
O1627 C1623 1.282 . S
H1628 C1601 0.931 . S
H1629 C1603 0.929 . S
H1630 C1604 0.930 . S
H1631 C1605 0.931 . S
H1632 C1612 0.932 . S
H1633 C1613 0.930 . S
H1634 C1614 0.929 . S
H1635 C1616 0.930 . S
H1636 C1618 0.932 . S
H1637 C1619 0.929 . S
H1638 C1620 0.928 . S
H1639 C1622 0.932 . S
C1640 C1641 1.264 . S
C1640 C1645 1.479 . S
C1640 C1650 1.465 . S
C1641 C1640 1.264 . S
C1641 C1643 1.339 . S
C1641 H1668 0.931 . S
C1642 C1643 1.395 . S
C1642 C1644 1.320 . S
C1643 C1641 1.339 . S
C1643 C1642 1.395 . S
C1643 H1669 0.929 . S
C1644 C1642 1.320 . S
C1644 C1645 1.405 . S
C1644 H1670 0.930 . S
C1645 C1640 1.479 . S
C1645 C1644 1.405 . S
C1645 H1671 0.931 . S
U1646 O1647 2.454 . S
U1646 O1648 2.458 . S
U1646 C1649 2.984 . S
U1646 C1650 2.847 . S
U1646 C1663 2.882 . S
U1646 O1664 2.441 . S
U1646 O1665 2.420 . S
U1646 O1666 2.455 . S
U1646 O1667 2.449 . S
O1647 U1646 2.454 . S
O1647 C1649 1.353 . S
O1648 U1646 2.458 . S
O1648 C1649 1.286 . S
C1649 U1646 2.984 . S
C1649 O1647 1.353 . S
C1649 O1648 1.286 . S
C1649 C1651 1.363 . S
C1650 C1640 1.465 . S
C1650 U1646 2.847 . S
C1650 O1664 1.249 . S
C1650 O1665 1.202 . S
C1651 C1649 1.363 . S
C1651 C1653 1.408 . S
C1651 C1656 1.342 . S
C1652 C1653 1.310 . S
C1652 C1655 1.461 . S
C1652 H1672 0.932 . S
C1653 C1651 1.408 . S
C1653 C1652 1.310 . S
C1653 H1673 0.930 . S
C1654 C1655 1.474 . S
C1654 C1656 1.285 . S
C1654 H1674 0.929 . S
C1655 C1652 1.461 . S
C1655 C1654 1.474 . S
C1656 C1651 1.342 . S
C1656 C1654 1.285 . S
C1656 H1675 0.930 . S
C1657 C1660 1.424 . S
C1657 C1662 1.245 . S
C1657 C1663 1.428 . S
C1658 C1661 1.260 . S
C1658 C1662 1.477 . S
C1658 H1676 0.932 . S
C1659 C1660 1.384 . S
C1659 C1661 1.479 . S
C1659 H1677 0.929 . S
C1660 C1657 1.424 . S
C1660 C1659 1.384 . S
C1660 H1678 0.928 . S
C1661 C1658 1.260 . S
C1661 C1659 1.479 . S
C1662 C1657 1.245 . S
C1662 C1658 1.477 . S
C1662 H1679 0.932 . S
C1663 U1646 2.882 . S
C1663 C1657 1.428 . S
C1663 O1666 1.301 . S
C1663 O1667 1.282 . S
O1664 U1646 2.441 . S
O1664 C1650 1.249 . S
O1665 U1646 2.420 . S
O1665 C1650 1.202 . S
O1666 U1646 2.455 . S
O1666 C1663 1.301 . S
O1667 U1646 2.449 . S
O1667 C1663 1.282 . S
H1668 C1641 0.931 . S
H1669 C1643 0.929 . S
H1670 C1644 0.930 . S
H1671 C1645 0.931 . S
H1672 C1652 0.932 . S
H1673 C1653 0.930 . S
H1674 C1654 0.929 . S
H1675 C1656 0.930 . S
H1676 C1658 0.932 . S
H1677 C1659 0.929 . S
H1678 C1660 0.928 . S
H1679 C1662 0.932 . S
C1680 C1681 1.264 . S
C1680 C1685 1.479 . S
C1680 C1690 1.465 . S
C1681 C1680 1.264 . S
C1681 C1683 1.339 . S
C1681 H1708 0.931 . S
C1682 C1683 1.395 . S
C1682 C1684 1.320 . S
C1683 C1681 1.339 . S
C1683 C1682 1.395 . S
C1683 H1709 0.929 . S
C1684 C1682 1.320 . S
C1684 C1685 1.405 . S
C1684 H1710 0.930 . S
C1685 C1680 1.479 . S
C1685 C1684 1.405 . S
C1685 H1711 0.931 . S
U1686 O1687 2.454 . S
U1686 O1688 2.458 . S
U1686 C1689 2.984 . S
U1686 C1690 2.847 . S
U1686 C1703 2.882 . S
U1686 O1704 2.441 . S
U1686 O1705 2.420 . S
U1686 O1706 2.455 . S
U1686 O1707 2.449 . S
O1687 U1686 2.454 . S
O1687 C1689 1.353 . S
O1688 U1686 2.458 . S
O1688 C1689 1.286 . S
C1689 U1686 2.984 . S
C1689 O1687 1.353 . S
C1689 O1688 1.286 . S
C1689 C1691 1.363 . S
C1690 C1680 1.465 . S
C1690 U1686 2.847 . S
C1690 O1704 1.249 . S
C1690 O1705 1.202 . S
C1691 C1689 1.363 . S
C1691 C1693 1.408 . S
C1691 C1696 1.342 . S
C1692 C1693 1.310 . S
C1692 C1695 1.461 . S
C1692 H1712 0.932 . S
C1693 C1691 1.408 . S
C1693 C1692 1.310 . S
C1693 H1713 0.930 . S
C1694 C1695 1.474 . S
C1694 C1696 1.285 . S
C1694 H1714 0.929 . S
C1695 C1692 1.461 . S
C1695 C1694 1.474 . S
C1696 C1691 1.342 . S
C1696 C1694 1.285 . S
C1696 H1715 0.930 . S
C1697 C1700 1.424 . S
C1697 C1702 1.245 . S
C1697 C1703 1.428 . S
C1698 C1701 1.260 . S
C1698 C1702 1.477 . S
C1698 H1716 0.932 . S
C1699 C1700 1.384 . S
C1699 C1701 1.479 . S
C1699 H1717 0.929 . S
C1700 C1697 1.424 . S
C1700 C1699 1.384 . S
C1700 H1718 0.928 . S
C1701 C1698 1.260 . S
C1701 C1699 1.479 . S
C1702 C1697 1.245 . S
C1702 C1698 1.477 . S
C1702 H1719 0.932 . S
C1703 U1686 2.882 . S
C1703 C1697 1.428 . S
C1703 O1706 1.301 . S
C1703 O1707 1.282 . S
O1704 U1686 2.441 . S
O1704 C1690 1.249 . S
O1705 U1686 2.420 . S
O1705 C1690 1.202 . S
O1706 U1686 2.455 . S
O1706 C1703 1.301 . S
O1707 U1686 2.449 . S
O1707 C1703 1.282 . S
H1708 C1681 0.931 . S
H1709 C1683 0.929 . S
H1710 C1684 0.930 . S
H1711 C1685 0.931 . S
H1712 C1692 0.932 . S
H1713 C1693 0.930 . S
H1714 C1694 0.929 . S
H1715 C1696 0.930 . S
H1716 C1698 0.932 . S
H1717 C1699 0.929 . S
H1718 C1700 0.928 . S
H1719 C1702 0.932 . S
C1720 C1721 1.264 . S
C1720 C1725 1.479 . S
C1720 C1730 1.465 . S
C1721 C1720 1.264 . S
C1721 C1723 1.339 . S
C1721 H1748 0.931 . S
C1722 C1723 1.395 . S
C1722 C1724 1.320 . S
C1723 C1721 1.339 . S
C1723 C1722 1.395 . S
C1723 H1749 0.929 . S
C1724 C1722 1.320 . S
C1724 C1725 1.405 . S
C1724 H1750 0.930 . S
C1725 C1720 1.479 . S
C1725 C1724 1.405 . S
C1725 H1751 0.931 . S
U1726 O1727 2.454 . S
U1726 O1728 2.458 . S
U1726 C1729 2.984 . S
U1726 C1730 2.847 . S
U1726 C1743 2.882 . S
U1726 O1744 2.441 . S
U1726 O1745 2.420 . S
U1726 O1746 2.455 . S
U1726 O1747 2.449 . S
O1727 U1726 2.454 . S
O1727 C1729 1.353 . S
O1728 U1726 2.458 . S
O1728 C1729 1.286 . S
C1729 U1726 2.984 . S
C1729 O1727 1.353 . S
C1729 O1728 1.286 . S
C1729 C1731 1.363 . S
C1730 C1720 1.465 . S
C1730 U1726 2.847 . S
C1730 O1744 1.249 . S
C1730 O1745 1.202 . S
C1731 C1729 1.363 . S
C1731 C1733 1.408 . S
C1731 C1736 1.342 . S
C1732 C1733 1.310 . S
C1732 C1735 1.461 . S
C1732 H1752 0.932 . S
C1733 C1731 1.408 . S
C1733 C1732 1.310 . S
C1733 H1753 0.930 . S
C1734 C1735 1.474 . S
C1734 C1736 1.285 . S
C1734 H1754 0.929 . S
C1735 C1732 1.461 . S
C1735 C1734 1.474 . S
C1736 C1731 1.342 . S
C1736 C1734 1.285 . S
C1736 H1755 0.930 . S
C1737 C1740 1.424 . S
C1737 C1742 1.245 . S
C1737 C1743 1.428 . S
C1738 C1741 1.260 . S
C1738 C1742 1.477 . S
C1738 H1756 0.932 . S
C1739 C1740 1.384 . S
C1739 C1741 1.479 . S
C1739 H1757 0.929 . S
C1740 C1737 1.424 . S
C1740 C1739 1.384 . S
C1740 H1758 0.928 . S
C1741 C1738 1.260 . S
C1741 C1739 1.479 . S
C1742 C1737 1.245 . S
C1742 C1738 1.477 . S
C1742 H1759 0.932 . S
C1743 U1726 2.882 . S
C1743 C1737 1.428 . S
C1743 O1746 1.301 . S
C1743 O1747 1.282 . S
O1744 U1726 2.441 . S
O1744 C1730 1.249 . S
O1745 U1726 2.420 . S
O1745 C1730 1.202 . S
O1746 U1726 2.455 . S
O1746 C1743 1.301 . S
O1747 U1726 2.449 . S
O1747 C1743 1.282 . S
H1748 C1721 0.931 . S
H1749 C1723 0.929 . S
H1750 C1724 0.930 . S
H1751 C1725 0.931 . S
H1752 C1732 0.932 . S
H1753 C1733 0.930 . S
H1754 C1734 0.929 . S
H1755 C1736 0.930 . S
H1756 C1738 0.932 . S
H1757 C1739 0.929 . S
H1758 C1740 0.928 . S
H1759 C1742 0.932 . S
C1760 C1761 1.264 . S
C1760 C1765 1.479 . S
C1760 C1770 1.465 . S
C1761 C1760 1.264 . S
C1761 C1763 1.339 . S
C1761 H1788 0.931 . S
C1762 C1763 1.395 . S
C1762 C1764 1.320 . S
C1763 C1761 1.339 . S
C1763 C1762 1.395 . S
C1763 H1789 0.929 . S
C1764 C1762 1.320 . S
C1764 C1765 1.405 . S
C1764 H1790 0.930 . S
C1765 C1760 1.479 . S
C1765 C1764 1.405 . S
C1765 H1791 0.931 . S
U1766 O1767 2.454 . S
U1766 O1768 2.458 . S
U1766 C1769 2.984 . S
U1766 C1770 2.847 . S
U1766 C1783 2.882 . S
U1766 O1784 2.441 . S
U1766 O1785 2.420 . S
U1766 O1786 2.455 . S
U1766 O1787 2.449 . S
O1767 U1766 2.454 . S
O1767 C1769 1.353 . S
O1768 U1766 2.458 . S
O1768 C1769 1.286 . S
C1769 U1766 2.984 . S
C1769 O1767 1.353 . S
C1769 O1768 1.286 . S
C1769 C1771 1.363 . S
C1770 C1760 1.465 . S
C1770 U1766 2.847 . S
C1770 O1784 1.249 . S
C1770 O1785 1.202 . S
C1771 C1769 1.363 . S
C1771 C1773 1.408 . S
C1771 C1776 1.342 . S
C1772 C1773 1.310 . S
C1772 C1775 1.461 . S
C1772 H1792 0.932 . S
C1773 C1771 1.408 . S
C1773 C1772 1.310 . S
C1773 H1793 0.930 . S
C1774 C1775 1.474 . S
C1774 C1776 1.285 . S
C1774 H1794 0.929 . S
C1775 C1772 1.461 . S
C1775 C1774 1.474 . S
C1776 C1771 1.342 . S
C1776 C1774 1.285 . S
C1776 H1795 0.930 . S
C1777 C1780 1.424 . S
C1777 C1782 1.245 . S
C1777 C1783 1.428 . S
C1778 C1781 1.260 . S
C1778 C1782 1.477 . S
C1778 H1796 0.932 . S
C1779 C1780 1.384 . S
C1779 C1781 1.479 . S
C1779 H1797 0.929 . S
C1780 C1777 1.424 . S
C1780 C1779 1.384 . S
C1780 H1798 0.928 . S
C1781 C1778 1.260 . S
C1781 C1779 1.479 . S
C1782 C1777 1.245 . S
C1782 C1778 1.477 . S
C1782 H1799 0.932 . S
C1783 U1766 2.882 . S
C1783 C1777 1.428 . S
C1783 O1786 1.301 . S
C1783 O1787 1.282 . S
O1784 U1766 2.441 . S
O1784 C1770 1.249 . S
O1785 U1766 2.420 . S
O1785 C1770 1.202 . S
O1786 U1766 2.455 . S
O1786 C1783 1.301 . S
O1787 U1766 2.449 . S
O1787 C1783 1.282 . S
H1788 C1761 0.931 . S
H1789 C1763 0.929 . S
H1790 C1764 0.930 . S
H1791 C1765 0.931 . S
H1792 C1772 0.932 . S
H1793 C1773 0.930 . S
H1794 C1774 0.929 . S
H1795 C1776 0.930 . S
H1796 C1778 0.932 . S
H1797 C1779 0.929 . S
H1798 C1780 0.928 . S
H1799 C1782 0.932 . S
C1800 C1801 1.264 . S
C1800 C1805 1.479 . S
C1800 C1810 1.465 . S
C1801 C1800 1.264 . S
C1801 C1803 1.339 . S
C1801 H1828 0.931 . S
C1802 C1803 1.395 . S
C1802 C1804 1.320 . S
C1803 C1801 1.339 . S
C1803 C1802 1.395 . S
C1803 H1829 0.929 . S
C1804 C1802 1.320 . S
C1804 C1805 1.405 . S
C1804 H1830 0.930 . S
C1805 C1800 1.479 . S
C1805 C1804 1.405 . S
C1805 H1831 0.931 . S
U1806 O1807 2.454 . S
U1806 O1808 2.458 . S
U1806 C1809 2.984 . S
U1806 C1810 2.847 . S
U1806 C1823 2.882 . S
U1806 O1824 2.441 . S
U1806 O1825 2.420 . S
U1806 O1826 2.455 . S
U1806 O1827 2.449 . S
O1807 U1806 2.454 . S
O1807 C1809 1.353 . S
O1808 U1806 2.458 . S
O1808 C1809 1.286 . S
C1809 U1806 2.984 . S
C1809 O1807 1.353 . S
C1809 O1808 1.286 . S
C1809 C1811 1.363 . S
C1810 C1800 1.465 . S
C1810 U1806 2.847 . S
C1810 O1824 1.249 . S
C1810 O1825 1.202 . S
C1811 C1809 1.363 . S
C1811 C1813 1.408 . S
C1811 C1816 1.342 . S
C1812 C1813 1.310 . S
C1812 C1815 1.461 . S
C1812 H1832 0.932 . S
C1813 C1811 1.408 . S
C1813 C1812 1.310 . S
C1813 H1833 0.930 . S
C1814 C1815 1.474 . S
C1814 C1816 1.285 . S
C1814 H1834 0.929 . S
C1815 C1812 1.461 . S
C1815 C1814 1.474 . S
C1816 C1811 1.342 . S
C1816 C1814 1.285 . S
C1816 H1835 0.930 . S
C1817 C1820 1.424 . S
C1817 C1822 1.245 . S
C1817 C1823 1.428 . S
C1818 C1821 1.260 . S
C1818 C1822 1.477 . S
C1818 H1836 0.932 . S
C1819 C1820 1.384 . S
C1819 C1821 1.479 . S
C1819 H1837 0.929 . S
C1820 C1817 1.424 . S
C1820 C1819 1.384 . S
C1820 H1838 0.928 . S
C1821 C1818 1.260 . S
C1821 C1819 1.479 . S
C1822 C1817 1.245 . S
C1822 C1818 1.477 . S
C1822 H1839 0.932 . S
C1823 U1806 2.882 . S
C1823 C1817 1.428 . S
C1823 O1826 1.301 . S
C1823 O1827 1.282 . S
O1824 U1806 2.441 . S
O1824 C1810 1.249 . S
O1825 U1806 2.420 . S
O1825 C1810 1.202 . S
O1826 U1806 2.455 . S
O1826 C1823 1.301 . S
O1827 U1806 2.449 . S
O1827 C1823 1.282 . S
H1828 C1801 0.931 . S
H1829 C1803 0.929 . S
H1830 C1804 0.930 . S
H1831 C1805 0.931 . S
H1832 C1812 0.932 . S
H1833 C1813 0.930 . S
H1834 C1814 0.929 . S
H1835 C1816 0.930 . S
H1836 C1818 0.932 . S
H1837 C1819 0.929 . S
H1838 C1820 0.928 . S
H1839 C1822 0.932 . S
C1840 C1841 1.264 . S
C1840 C1845 1.479 . S
C1840 C1850 1.465 . S
C1841 C1840 1.264 . S
C1841 C1843 1.339 . S
C1841 H1868 0.931 . S
C1842 C1843 1.395 . S
C1842 C1844 1.320 . S
C1843 C1841 1.339 . S
C1843 C1842 1.395 . S
C1843 H1869 0.929 . S
C1844 C1842 1.320 . S
C1844 C1845 1.405 . S
C1844 H1870 0.930 . S
C1845 C1840 1.479 . S
C1845 C1844 1.405 . S
C1845 H1871 0.931 . S
U1846 O1847 2.454 . S
U1846 O1848 2.458 . S
U1846 C1849 2.984 . S
U1846 C1850 2.847 . S
U1846 C1863 2.882 . S
U1846 O1864 2.441 . S
U1846 O1865 2.420 . S
U1846 O1866 2.455 . S
U1846 O1867 2.449 . S
O1847 U1846 2.454 . S
O1847 C1849 1.353 . S
O1848 U1846 2.458 . S
O1848 C1849 1.286 . S
C1849 U1846 2.984 . S
C1849 O1847 1.353 . S
C1849 O1848 1.286 . S
C1849 C1851 1.363 . S
C1850 C1840 1.465 . S
C1850 U1846 2.847 . S
C1850 O1864 1.249 . S
C1850 O1865 1.202 . S
C1851 C1849 1.363 . S
C1851 C1853 1.408 . S
C1851 C1856 1.342 . S
C1852 C1853 1.310 . S
C1852 C1855 1.461 . S
C1852 H1872 0.932 . S
C1853 C1851 1.408 . S
C1853 C1852 1.310 . S
C1853 H1873 0.930 . S
C1854 C1855 1.474 . S
C1854 C1856 1.285 . S
C1854 H1874 0.929 . S
C1855 C1852 1.461 . S
C1855 C1854 1.474 . S
C1856 C1851 1.342 . S
C1856 C1854 1.285 . S
C1856 H1875 0.930 . S
C1857 C1860 1.424 . S
C1857 C1862 1.245 . S
C1857 C1863 1.428 . S
C1858 C1861 1.260 . S
C1858 C1862 1.477 . S
C1858 H1876 0.932 . S
C1859 C1860 1.384 . S
C1859 C1861 1.479 . S
C1859 H1877 0.929 . S
C1860 C1857 1.424 . S
C1860 C1859 1.384 . S
C1860 H1878 0.928 . S
C1861 C1858 1.260 . S
C1861 C1859 1.479 . S
C1862 C1857 1.245 . S
C1862 C1858 1.477 . S
C1862 H1879 0.932 . S
C1863 U1846 2.882 . S
C1863 C1857 1.428 . S
C1863 O1866 1.301 . S
C1863 O1867 1.282 . S
O1864 U1846 2.441 . S
O1864 C1850 1.249 . S
O1865 U1846 2.420 . S
O1865 C1850 1.202 . S
O1866 U1846 2.455 . S
O1866 C1863 1.301 . S
O1867 U1846 2.449 . S
O1867 C1863 1.282 . S
H1868 C1841 0.931 . S
H1869 C1843 0.929 . S
H1870 C1844 0.930 . S
H1871 C1845 0.931 . S
H1872 C1852 0.932 . S
H1873 C1853 0.930 . S
H1874 C1854 0.929 . S
H1875 C1856 0.930 . S
H1876 C1858 0.932 . S
H1877 C1859 0.929 . S
H1878 C1860 0.928 . S
H1879 C1862 0.932 . S
C1880 C1881 1.264 . S
C1880 C1885 1.479 . S
C1880 C1890 1.465 . S
C1881 C1880 1.264 . S
C1881 C1883 1.339 . S
C1881 H1908 0.931 . S
C1882 C1883 1.395 . S
C1882 C1884 1.320 . S
C1883 C1881 1.339 . S
C1883 C1882 1.395 . S
C1883 H1909 0.929 . S
C1884 C1882 1.320 . S
C1884 C1885 1.405 . S
C1884 H1910 0.930 . S
C1885 C1880 1.479 . S
C1885 C1884 1.405 . S
C1885 H1911 0.931 . S
U1886 O1887 2.454 . S
U1886 O1888 2.458 . S
U1886 C1889 2.984 . S
U1886 C1890 2.847 . S
U1886 C1903 2.882 . S
U1886 O1904 2.441 . S
U1886 O1905 2.420 . S
U1886 O1906 2.455 . S
U1886 O1907 2.449 . S
O1887 U1886 2.454 . S
O1887 C1889 1.353 . S
O1888 U1886 2.458 . S
O1888 C1889 1.286 . S
C1889 U1886 2.984 . S
C1889 O1887 1.353 . S
C1889 O1888 1.286 . S
C1889 C1891 1.363 . S
C1890 C1880 1.465 . S
C1890 U1886 2.847 . S
C1890 O1904 1.249 . S
C1890 O1905 1.202 . S
C1891 C1889 1.363 . S
C1891 C1893 1.408 . S
C1891 C1896 1.342 . S
C1892 C1893 1.310 . S
C1892 C1895 1.461 . S
C1892 H1912 0.932 . S
C1893 C1891 1.408 . S
C1893 C1892 1.310 . S
C1893 H1913 0.930 . S
C1894 C1895 1.474 . S
C1894 C1896 1.285 . S
C1894 H1914 0.929 . S
C1895 C1892 1.461 . S
C1895 C1894 1.474 . S
C1896 C1891 1.342 . S
C1896 C1894 1.285 . S
C1896 H1915 0.930 . S
C1897 C1900 1.424 . S
C1897 C1902 1.245 . S
C1897 C1903 1.428 . S
C1898 C1901 1.260 . S
C1898 C1902 1.477 . S
C1898 H1916 0.932 . S
C1899 C1900 1.384 . S
C1899 C1901 1.479 . S
C1899 H1917 0.929 . S
C1900 C1897 1.424 . S
C1900 C1899 1.384 . S
C1900 H1918 0.928 . S
C1901 C1898 1.260 . S
C1901 C1899 1.479 . S
C1902 C1897 1.245 . S
C1902 C1898 1.477 . S
C1902 H1919 0.932 . S
C1903 U1886 2.882 . S
C1903 C1897 1.428 . S
C1903 O1906 1.301 . S
C1903 O1907 1.282 . S
O1904 U1886 2.441 . S
O1904 C1890 1.249 . S
O1905 U1886 2.420 . S
O1905 C1890 1.202 . S
O1906 U1886 2.455 . S
O1906 C1903 1.301 . S
O1907 U1886 2.449 . S
O1907 C1903 1.282 . S
H1908 C1881 0.931 . S
H1909 C1883 0.929 . S
H1910 C1884 0.930 . S
H1911 C1885 0.931 . S
H1912 C1892 0.932 . S
H1913 C1893 0.930 . S
H1914 C1894 0.929 . S
H1915 C1896 0.930 . S
H1916 C1898 0.932 . S
H1917 C1899 0.929 . S
H1918 C1900 0.928 . S
H1919 C1902 0.932 . S
C1920 C1921 1.264 . S
C1920 C1925 1.479 . S
C1920 C1930 1.465 . S
C1921 C1920 1.264 . S
C1921 C1923 1.339 . S
C1921 H1948 0.931 . S
C1922 C1923 1.395 . S
C1922 C1924 1.320 . S
C1923 C1921 1.339 . S
C1923 C1922 1.395 . S
C1923 H1949 0.929 . S
C1924 C1922 1.320 . S
C1924 C1925 1.405 . S
C1924 H1950 0.930 . S
C1925 C1920 1.479 . S
C1925 C1924 1.405 . S
C1925 H1951 0.931 . S
U1926 O1927 2.454 . S
U1926 O1928 2.458 . S
U1926 C1929 2.984 . S
U1926 C1930 2.847 . S
U1926 C1943 2.882 . S
U1926 O1944 2.441 . S
U1926 O1945 2.420 . S
U1926 O1946 2.455 . S
U1926 O1947 2.449 . S
O1927 U1926 2.454 . S
O1927 C1929 1.353 . S
O1928 U1926 2.458 . S
O1928 C1929 1.286 . S
C1929 U1926 2.984 . S
C1929 O1927 1.353 . S
C1929 O1928 1.286 . S
C1929 C1931 1.363 . S
C1930 C1920 1.465 . S
C1930 U1926 2.847 . S
C1930 O1944 1.249 . S
C1930 O1945 1.202 . S
C1931 C1929 1.363 . S
C1931 C1933 1.408 . S
C1931 C1936 1.342 . S
C1932 C1933 1.310 . S
C1932 C1935 1.461 . S
C1932 H1952 0.932 . S
C1933 C1931 1.408 . S
C1933 C1932 1.310 . S
C1933 H1953 0.930 . S
C1934 C1935 1.474 . S
C1934 C1936 1.285 . S
C1934 H1954 0.929 . S
C1935 C1932 1.461 . S
C1935 C1934 1.474 . S
C1936 C1931 1.342 . S
C1936 C1934 1.285 . S
C1936 H1955 0.930 . S
C1937 C1940 1.424 . S
C1937 C1942 1.245 . S
C1937 C1943 1.428 . S
C1938 C1941 1.260 . S
C1938 C1942 1.477 . S
C1938 H1956 0.932 . S
C1939 C1940 1.384 . S
C1939 C1941 1.479 . S
C1939 H1957 0.929 . S
C1940 C1937 1.424 . S
C1940 C1939 1.384 . S
C1940 H1958 0.928 . S
C1941 C1938 1.260 . S
C1941 C1939 1.479 . S
C1942 C1937 1.245 . S
C1942 C1938 1.477 . S
C1942 H1959 0.932 . S
C1943 U1926 2.882 . S
C1943 C1937 1.428 . S
C1943 O1946 1.301 . S
C1943 O1947 1.282 . S
O1944 U1926 2.441 . S
O1944 C1930 1.249 . S
O1945 U1926 2.420 . S
O1945 C1930 1.202 . S
O1946 U1926 2.455 . S
O1946 C1943 1.301 . S
O1947 U1926 2.449 . S
O1947 C1943 1.282 . S
H1948 C1921 0.931 . S
H1949 C1923 0.929 . S
H1950 C1924 0.930 . S
H1951 C1925 0.931 . S
H1952 C1932 0.932 . S
H1953 C1933 0.930 . S
H1954 C1934 0.929 . S
H1955 C1936 0.930 . S
H1956 C1938 0.932 . S
H1957 C1939 0.929 . S
H1958 C1940 0.928 . S
H1959 C1942 0.932 . S
C1960 C1961 1.264 . S
C1960 C1965 1.479 . S
C1960 C1970 1.465 . S
C1961 C1960 1.264 . S
C1961 C1963 1.339 . S
C1961 H1988 0.931 . S
C1962 C1963 1.395 . S
C1962 C1964 1.320 . S
C1963 C1961 1.339 . S
C1963 C1962 1.395 . S
C1963 H1989 0.929 . S
C1964 C1962 1.320 . S
C1964 C1965 1.405 . S
C1964 H1990 0.930 . S
C1965 C1960 1.479 . S
C1965 C1964 1.405 . S
C1965 H1991 0.931 . S
U1966 O1967 2.454 . S
U1966 O1968 2.458 . S
U1966 C1969 2.984 . S
U1966 C1970 2.847 . S
U1966 C1983 2.882 . S
U1966 O1984 2.441 . S
U1966 O1985 2.420 . S
U1966 O1986 2.455 . S
U1966 O1987 2.449 . S
O1967 U1966 2.454 . S
O1967 C1969 1.353 . S
O1968 U1966 2.458 . S
O1968 C1969 1.286 . S
C1969 U1966 2.984 . S
C1969 O1967 1.353 . S
C1969 O1968 1.286 . S
C1969 C1971 1.363 . S
C1970 C1960 1.465 . S
C1970 U1966 2.847 . S
C1970 O1984 1.249 . S
C1970 O1985 1.202 . S
C1971 C1969 1.363 . S
C1971 C1973 1.408 . S
C1971 C1976 1.342 . S
C1972 C1973 1.310 . S
C1972 C1975 1.461 . S
C1972 H1992 0.932 . S
C1973 C1971 1.408 . S
C1973 C1972 1.310 . S
C1973 H1993 0.930 . S
C1974 C1975 1.474 . S
C1974 C1976 1.285 . S
C1974 H1994 0.929 . S
C1975 C1972 1.461 . S
C1975 C1974 1.474 . S
C1976 C1971 1.342 . S
C1976 C1974 1.285 . S
C1976 H1995 0.930 . S
C1977 C1980 1.424 . S
C1977 C1982 1.245 . S
C1977 C1983 1.428 . S
C1978 C1981 1.260 . S
C1978 C1982 1.477 . S
C1978 H1996 0.932 . S
C1979 C1980 1.384 . S
C1979 C1981 1.479 . S
C1979 H1997 0.929 . S
C1980 C1977 1.424 . S
C1980 C1979 1.384 . S
C1980 H1998 0.928 . S
C1981 C1978 1.260 . S
C1981 C1979 1.479 . S
C1982 C1977 1.245 . S
C1982 C1978 1.477 . S
C1982 H1999 0.932 . S
C1983 U1966 2.882 . S
C1983 C1977 1.428 . S
C1983 O1986 1.301 . S
C1983 O1987 1.282 . S
O1984 U1966 2.441 . S
O1984 C1970 1.249 . S
O1985 U1966 2.420 . S
O1985 C1970 1.202 . S
O1986 U1966 2.455 . S
O1986 C1983 1.301 . S
O1987 U1966 2.449 . S
O1987 C1983 1.282 . S
H1988 C1961 0.931 . S
H1989 C1963 0.929 . S
H1990 C1964 0.930 . S
H1991 C1965 0.931 . S
H1992 C1972 0.932 . S
H1993 C1973 0.930 . S
H1994 C1974 0.929 . S
H1995 C1976 0.930 . S
H1996 C1978 0.932 . S
H1997 C1979 0.929 . S
H1998 C1980 0.928 . S
H1999 C1982 0.932 . S
C2000 C2001 1.264 . S
C2000 C2005 1.479 . S
C2000 C2010 1.465 . S
C2001 C2000 1.264 . S
C2001 C2003 1.339 . S
C2001 H2028 0.931 . S
C2002 C2003 1.395 . S
C2002 C2004 1.320 . S
C2003 C2001 1.339 . S
C2003 C2002 1.395 . S
C2003 H2029 0.929 . S
C2004 C2002 1.320 . S
C2004 C2005 1.405 . S
C2004 H2030 0.930 . S
C2005 C2000 1.479 . S
C2005 C2004 1.405 . S
C2005 H2031 0.931 . S
U2006 O2007 2.454 . S
U2006 O2008 2.458 . S
U2006 C2009 2.984 . S
U2006 C2010 2.847 . S
U2006 C2023 2.882 . S
U2006 O2024 2.441 . S
U2006 O2025 2.420 . S
U2006 O2026 2.455 . S
U2006 O2027 2.449 . S
O2007 U2006 2.454 . S
O2007 C2009 1.353 . S
O2008 U2006 2.458 . S
O2008 C2009 1.286 . S
C2009 U2006 2.984 . S
C2009 O2007 1.353 . S
C2009 O2008 1.286 . S
C2009 C2011 1.363 . S
C2010 C2000 1.465 . S
C2010 U2006 2.847 . S
C2010 O2024 1.249 . S
C2010 O2025 1.202 . S
C2011 C2009 1.363 . S
C2011 C2013 1.408 . S
C2011 C2016 1.342 . S
C2012 C2013 1.310 . S
C2012 C2015 1.461 . S
C2012 H2032 0.932 . S
C2013 C2011 1.408 . S
C2013 C2012 1.310 . S
C2013 H2033 0.930 . S
C2014 C2015 1.474 . S
C2014 C2016 1.285 . S
C2014 H2034 0.929 . S
C2015 C2012 1.461 . S
C2015 C2014 1.474 . S
C2016 C2011 1.342 . S
C2016 C2014 1.285 . S
C2016 H2035 0.930 . S
C2017 C2020 1.424 . S
C2017 C2022 1.245 . S
C2017 C2023 1.428 . S
C2018 C2021 1.260 . S
C2018 C2022 1.477 . S
C2018 H2036 0.932 . S
C2019 C2020 1.384 . S
C2019 C2021 1.479 . S
C2019 H2037 0.929 . S
C2020 C2017 1.424 . S
C2020 C2019 1.384 . S
C2020 H2038 0.928 . S
C2021 C2018 1.260 . S
C2021 C2019 1.479 . S
C2022 C2017 1.245 . S
C2022 C2018 1.477 . S
C2022 H2039 0.932 . S
C2023 U2006 2.882 . S
C2023 C2017 1.428 . S
C2023 O2026 1.301 . S
C2023 O2027 1.282 . S
O2024 U2006 2.441 . S
O2024 C2010 1.249 . S
O2025 U2006 2.420 . S
O2025 C2010 1.202 . S
O2026 U2006 2.455 . S
O2026 C2023 1.301 . S
O2027 U2006 2.449 . S
O2027 C2023 1.282 . S
H2028 C2001 0.931 . S
H2029 C2003 0.929 . S
H2030 C2004 0.930 . S
H2031 C2005 0.931 . S
H2032 C2012 0.932 . S
H2033 C2013 0.930 . S
H2034 C2014 0.929 . S
H2035 C2016 0.930 . S
H2036 C2018 0.932 . S
H2037 C2019 0.929 . S
H2038 C2020 0.928 . S
H2039 C2022 0.932 . S
C2040 C2041 1.264 . S
C2040 C2045 1.479 . S
C2040 C2050 1.465 . S
C2041 C2040 1.264 . S
C2041 C2043 1.339 . S
C2041 H2068 0.931 . S
C2042 C2043 1.395 . S
C2042 C2044 1.320 . S
C2043 C2041 1.339 . S
C2043 C2042 1.395 . S
C2043 H2069 0.929 . S
C2044 C2042 1.320 . S
C2044 C2045 1.405 . S
C2044 H2070 0.930 . S
C2045 C2040 1.479 . S
C2045 C2044 1.405 . S
C2045 H2071 0.931 . S
U2046 O2047 2.454 . S
U2046 O2048 2.458 . S
U2046 C2049 2.984 . S
U2046 C2050 2.847 . S
U2046 C2063 2.882 . S
U2046 O2064 2.441 . S
U2046 O2065 2.420 . S
U2046 O2066 2.455 . S
U2046 O2067 2.449 . S
O2047 U2046 2.454 . S
O2047 C2049 1.353 . S
O2048 U2046 2.458 . S
O2048 C2049 1.286 . S
C2049 U2046 2.984 . S
C2049 O2047 1.353 . S
C2049 O2048 1.286 . S
C2049 C2051 1.363 . S
C2050 C2040 1.465 . S
C2050 U2046 2.847 . S
C2050 O2064 1.249 . S
C2050 O2065 1.202 . S
C2051 C2049 1.363 . S
C2051 C2053 1.408 . S
C2051 C2056 1.342 . S
C2052 C2053 1.310 . S
C2052 C2055 1.461 . S
C2052 H2072 0.932 . S
C2053 C2051 1.408 . S
C2053 C2052 1.310 . S
C2053 H2073 0.930 . S
C2054 C2055 1.474 . S
C2054 C2056 1.285 . S
C2054 H2074 0.929 . S
C2055 C2052 1.461 . S
C2055 C2054 1.474 . S
C2056 C2051 1.342 . S
C2056 C2054 1.285 . S
C2056 H2075 0.930 . S
C2057 C2060 1.424 . S
C2057 C2062 1.245 . S
C2057 C2063 1.428 . S
C2058 C2061 1.260 . S
C2058 C2062 1.477 . S
C2058 H2076 0.932 . S
C2059 C2060 1.384 . S
C2059 C2061 1.479 . S
C2059 H2077 0.929 . S
C2060 C2057 1.424 . S
C2060 C2059 1.384 . S
C2060 H2078 0.928 . S
C2061 C2058 1.260 . S
C2061 C2059 1.479 . S
C2062 C2057 1.245 . S
C2062 C2058 1.477 . S
C2062 H2079 0.932 . S
C2063 U2046 2.882 . S
C2063 C2057 1.428 . S
C2063 O2066 1.301 . S
C2063 O2067 1.282 . S
O2064 U2046 2.441 . S
O2064 C2050 1.249 . S
O2065 U2046 2.420 . S
O2065 C2050 1.202 . S
O2066 U2046 2.455 . S
O2066 C2063 1.301 . S
O2067 U2046 2.449 . S
O2067 C2063 1.282 . S
H2068 C2041 0.931 . S
H2069 C2043 0.929 . S
H2070 C2044 0.930 . S
H2071 C2045 0.931 . S
H2072 C2052 0.932 . S
H2073 C2053 0.930 . S
H2074 C2054 0.929 . S
H2075 C2056 0.930 . S
H2076 C2058 0.932 . S
H2077 C2059 0.929 . S
H2078 C2060 0.928 . S
H2079 C2062 0.932 . S
C2080 C2081 1.264 . S
C2080 C2085 1.479 . S
C2080 C2090 1.465 . S
C2081 C2080 1.264 . S
C2081 C2083 1.339 . S
C2081 H2108 0.931 . S
C2082 C2083 1.395 . S
C2082 C2084 1.320 . S
C2083 C2081 1.339 . S
C2083 C2082 1.395 . S
C2083 H2109 0.929 . S
C2084 C2082 1.320 . S
C2084 C2085 1.405 . S
C2084 H2110 0.930 . S
C2085 C2080 1.479 . S
C2085 C2084 1.405 . S
C2085 H2111 0.931 . S
U2086 O2087 2.454 . S
U2086 O2088 2.458 . S
U2086 C2089 2.984 . S
U2086 C2090 2.847 . S
U2086 C2103 2.882 . S
U2086 O2104 2.441 . S
U2086 O2105 2.420 . S
U2086 O2106 2.455 . S
U2086 O2107 2.449 . S
O2087 U2086 2.454 . S
O2087 C2089 1.353 . S
O2088 U2086 2.458 . S
O2088 C2089 1.286 . S
C2089 U2086 2.984 . S
C2089 O2087 1.353 . S
C2089 O2088 1.286 . S
C2089 C2091 1.363 . S
C2090 C2080 1.465 . S
C2090 U2086 2.847 . S
C2090 O2104 1.249 . S
C2090 O2105 1.202 . S
C2091 C2089 1.363 . S
C2091 C2093 1.408 . S
C2091 C2096 1.342 . S
C2092 C2093 1.310 . S
C2092 C2095 1.461 . S
C2092 H2112 0.932 . S
C2093 C2091 1.408 . S
C2093 C2092 1.310 . S
C2093 H2113 0.930 . S
C2094 C2095 1.474 . S
C2094 C2096 1.285 . S
C2094 H2114 0.929 . S
C2095 C2092 1.461 . S
C2095 C2094 1.474 . S
C2096 C2091 1.342 . S
C2096 C2094 1.285 . S
C2096 H2115 0.930 . S
C2097 C2100 1.424 . S
C2097 C2102 1.245 . S
C2097 C2103 1.428 . S
C2098 C2101 1.260 . S
C2098 C2102 1.477 . S
C2098 H2116 0.932 . S
C2099 C2100 1.384 . S
C2099 C2101 1.479 . S
C2099 H2117 0.929 . S
C2100 C2097 1.424 . S
C2100 C2099 1.384 . S
C2100 H2118 0.928 . S
C2101 C2098 1.260 . S
C2101 C2099 1.479 . S
C2102 C2097 1.245 . S
C2102 C2098 1.477 . S
C2102 H2119 0.932 . S
C2103 U2086 2.882 . S
C2103 C2097 1.428 . S
C2103 O2106 1.301 . S
C2103 O2107 1.282 . S
O2104 U2086 2.441 . S
O2104 C2090 1.249 . S
O2105 U2086 2.420 . S
O2105 C2090 1.202 . S
O2106 U2086 2.455 . S
O2106 C2103 1.301 . S
O2107 U2086 2.449 . S
O2107 C2103 1.282 . S
H2108 C2081 0.931 . S
H2109 C2083 0.929 . S
H2110 C2084 0.930 . S
H2111 C2085 0.931 . S
H2112 C2092 0.932 . S
H2113 C2093 0.930 . S
H2114 C2094 0.929 . S
H2115 C2096 0.930 . S
H2116 C2098 0.932 . S
H2117 C2099 0.929 . S
H2118 C2100 0.928 . S
H2119 C2102 0.932 . S
C2120 C2121 1.264 . S
C2120 C2125 1.479 . S
C2120 C2130 1.465 . S
C2121 C2120 1.264 . S
C2121 C2123 1.339 . S
C2121 H2148 0.931 . S
C2122 C2123 1.395 . S
C2122 C2124 1.320 . S
C2123 C2121 1.339 . S
C2123 C2122 1.395 . S
C2123 H2149 0.929 . S
C2124 C2122 1.320 . S
C2124 C2125 1.405 . S
C2124 H2150 0.930 . S
C2125 C2120 1.479 . S
C2125 C2124 1.405 . S
C2125 H2151 0.931 . S
U2126 O2127 2.454 . S
U2126 O2128 2.458 . S
U2126 C2129 2.984 . S
U2126 C2130 2.847 . S
U2126 C2143 2.882 . S
U2126 O2144 2.441 . S
U2126 O2145 2.420 . S
U2126 O2146 2.455 . S
U2126 O2147 2.449 . S
O2127 U2126 2.454 . S
O2127 C2129 1.353 . S
O2128 U2126 2.458 . S
O2128 C2129 1.286 . S
C2129 U2126 2.984 . S
C2129 O2127 1.353 . S
C2129 O2128 1.286 . S
C2129 C2131 1.363 . S
C2130 C2120 1.465 . S
C2130 U2126 2.847 . S
C2130 O2144 1.249 . S
C2130 O2145 1.202 . S
C2131 C2129 1.363 . S
C2131 C2133 1.408 . S
C2131 C2136 1.342 . S
C2132 C2133 1.310 . S
C2132 C2135 1.461 . S
C2132 H2152 0.932 . S
C2133 C2131 1.408 . S
C2133 C2132 1.310 . S
C2133 H2153 0.930 . S
C2134 C2135 1.474 . S
C2134 C2136 1.285 . S
C2134 H2154 0.929 . S
C2135 C2132 1.461 . S
C2135 C2134 1.474 . S
C2136 C2131 1.342 . S
C2136 C2134 1.285 . S
C2136 H2155 0.930 . S
C2137 C2140 1.424 . S
C2137 C2142 1.245 . S
C2137 C2143 1.428 . S
C2138 C2141 1.260 . S
C2138 C2142 1.477 . S
C2138 H2156 0.932 . S
C2139 C2140 1.384 . S
C2139 C2141 1.479 . S
C2139 H2157 0.929 . S
C2140 C2137 1.424 . S
C2140 C2139 1.384 . S
C2140 H2158 0.928 . S
C2141 C2138 1.260 . S
C2141 C2139 1.479 . S
C2142 C2137 1.245 . S
C2142 C2138 1.477 . S
C2142 H2159 0.932 . S
C2143 U2126 2.882 . S
C2143 C2137 1.428 . S
C2143 O2146 1.301 . S
C2143 O2147 1.282 . S
O2144 U2126 2.441 . S
O2144 C2130 1.249 . S
O2145 U2126 2.420 . S
O2145 C2130 1.202 . S
O2146 U2126 2.455 . S
O2146 C2143 1.301 . S
O2147 U2126 2.449 . S
O2147 C2143 1.282 . S
H2148 C2121 0.931 . S
H2149 C2123 0.929 . S
H2150 C2124 0.930 . S
H2151 C2125 0.931 . S
H2152 C2132 0.932 . S
H2153 C2133 0.930 . S
H2154 C2134 0.929 . S
H2155 C2136 0.930 . S
H2156 C2138 0.932 . S
H2157 C2139 0.929 . S
H2158 C2140 0.928 . S
H2159 C2142 0.932 . S
C2160 C2161 1.264 . S
C2160 C2165 1.479 . S
C2160 C2170 1.465 . S
C2161 C2160 1.264 . S
C2161 C2163 1.339 . S
C2161 H2188 0.931 . S
C2162 C2163 1.395 . S
C2162 C2164 1.320 . S
C2163 C2161 1.339 . S
C2163 C2162 1.395 . S
C2163 H2189 0.929 . S
C2164 C2162 1.320 . S
C2164 C2165 1.405 . S
C2164 H2190 0.930 . S
C2165 C2160 1.479 . S
C2165 C2164 1.405 . S
C2165 H2191 0.931 . S
U2166 O2167 2.454 . S
U2166 O2168 2.458 . S
U2166 C2169 2.984 . S
U2166 C2170 2.847 . S
U2166 C2183 2.882 . S
U2166 O2184 2.441 . S
U2166 O2185 2.420 . S
U2166 O2186 2.455 . S
U2166 O2187 2.449 . S
O2167 U2166 2.454 . S
O2167 C2169 1.353 . S
O2168 U2166 2.458 . S
O2168 C2169 1.286 . S
C2169 U2166 2.984 . S
C2169 O2167 1.353 . S
C2169 O2168 1.286 . S
C2169 C2171 1.363 . S
C2170 C2160 1.465 . S
C2170 U2166 2.847 . S
C2170 O2184 1.249 . S
C2170 O2185 1.202 . S
C2171 C2169 1.363 . S
C2171 C2173 1.408 . S
C2171 C2176 1.342 . S
C2172 C2173 1.310 . S
C2172 C2175 1.461 . S
C2172 H2192 0.932 . S
C2173 C2171 1.408 . S
C2173 C2172 1.310 . S
C2173 H2193 0.930 . S
C2174 C2175 1.474 . S
C2174 C2176 1.285 . S
C2174 H2194 0.929 . S
C2175 C2172 1.461 . S
C2175 C2174 1.474 . S
C2176 C2171 1.342 . S
C2176 C2174 1.285 . S
C2176 H2195 0.930 . S
C2177 C2180 1.424 . S
C2177 C2182 1.245 . S
C2177 C2183 1.428 . S
C2178 C2181 1.260 . S
C2178 C2182 1.477 . S
C2178 H2196 0.932 . S
C2179 C2180 1.384 . S
C2179 C2181 1.479 . S
C2179 H2197 0.929 . S
C2180 C2177 1.424 . S
C2180 C2179 1.384 . S
C2180 H2198 0.928 . S
C2181 C2178 1.260 . S
C2181 C2179 1.479 . S
C2182 C2177 1.245 . S
C2182 C2178 1.477 . S
C2182 H2199 0.932 . S
C2183 U2166 2.882 . S
C2183 C2177 1.428 . S
C2183 O2186 1.301 . S
C2183 O2187 1.282 . S
O2184 U2166 2.441 . S
O2184 C2170 1.249 . S
O2185 U2166 2.420 . S
O2185 C2170 1.202 . S
O2186 U2166 2.455 . S
O2186 C2183 1.301 . S
O2187 U2166 2.449 . S
O2187 C2183 1.282 . S
H2188 C2161 0.931 . S
H2189 C2163 0.929 . S
H2190 C2164 0.930 . S
H2191 C2165 0.931 . S
H2192 C2172 0.932 . S
H2193 C2173 0.930 . S
H2194 C2174 0.929 . S
H2195 C2176 0.930 . S
H2196 C2178 0.932 . S
H2197 C2179 0.929 . S
H2198 C2180 0.928 . S
H2199 C2182 0.932 . S
C2200 C2201 1.264 . S
C2200 C2205 1.479 . S
C2200 C2210 1.465 . S
C2201 C2200 1.264 . S
C2201 C2203 1.339 . S
C2201 H2228 0.931 . S
C2202 C2203 1.395 . S
C2202 C2204 1.320 . S
C2203 C2201 1.339 . S
C2203 C2202 1.395 . S
C2203 H2229 0.929 . S
C2204 C2202 1.320 . S
C2204 C2205 1.405 . S
C2204 H2230 0.930 . S
C2205 C2200 1.479 . S
C2205 C2204 1.405 . S
C2205 H2231 0.931 . S
U2206 O2207 2.454 . S
U2206 O2208 2.458 . S
U2206 C2209 2.984 . S
U2206 C2210 2.847 . S
U2206 C2223 2.882 . S
U2206 O2224 2.441 . S
U2206 O2225 2.420 . S
U2206 O2226 2.455 . S
U2206 O2227 2.449 . S
O2207 U2206 2.454 . S
O2207 C2209 1.353 . S
O2208 U2206 2.458 . S
O2208 C2209 1.286 . S
C2209 U2206 2.984 . S
C2209 O2207 1.353 . S
C2209 O2208 1.286 . S
C2209 C2211 1.363 . S
C2210 C2200 1.465 . S
C2210 U2206 2.847 . S
C2210 O2224 1.249 . S
C2210 O2225 1.202 . S
C2211 C2209 1.363 . S
C2211 C2213 1.408 . S
C2211 C2216 1.342 . S
C2212 C2213 1.310 . S
C2212 C2215 1.461 . S
C2212 H2232 0.932 . S
C2213 C2211 1.408 . S
C2213 C2212 1.310 . S
C2213 H2233 0.930 . S
C2214 C2215 1.474 . S
C2214 C2216 1.285 . S
C2214 H2234 0.929 . S
C2215 C2212 1.461 . S
C2215 C2214 1.474 . S
C2216 C2211 1.342 . S
C2216 C2214 1.285 . S
C2216 H2235 0.930 . S
C2217 C2220 1.424 . S
C2217 C2222 1.245 . S
C2217 C2223 1.428 . S
C2218 C2221 1.260 . S
C2218 C2222 1.477 . S
C2218 H2236 0.932 . S
C2219 C2220 1.384 . S
C2219 C2221 1.479 . S
C2219 H2237 0.929 . S
C2220 C2217 1.424 . S
C2220 C2219 1.384 . S
C2220 H2238 0.928 . S
C2221 C2218 1.260 . S
C2221 C2219 1.479 . S
C2222 C2217 1.245 . S
C2222 C2218 1.477 . S
C2222 H2239 0.932 . S
C2223 U2206 2.882 . S
C2223 C2217 1.428 . S
C2223 O2226 1.301 . S
C2223 O2227 1.282 . S
O2224 U2206 2.441 . S
O2224 C2210 1.249 . S
O2225 U2206 2.420 . S
O2225 C2210 1.202 . S
O2226 U2206 2.455 . S
O2226 C2223 1.301 . S
O2227 U2206 2.449 . S
O2227 C2223 1.282 . S
H2228 C2201 0.931 . S
H2229 C2203 0.929 . S
H2230 C2204 0.930 . S
H2231 C2205 0.931 . S
H2232 C2212 0.932 . S
H2233 C2213 0.930 . S
H2234 C2214 0.929 . S
H2235 C2216 0.930 . S
H2236 C2218 0.932 . S
H2237 C2219 0.929 . S
H2238 C2220 0.928 . S
H2239 C2222 0.932 . S
C2240 C2241 1.264 . S
C2240 C2245 1.479 . S
C2240 C2250 1.465 . S
C2241 C2240 1.264 . S
C2241 C2243 1.339 . S
C2241 H2268 0.931 . S
C2242 C2243 1.395 . S
C2242 C2244 1.320 . S
C2243 C2241 1.339 . S
C2243 C2242 1.395 . S
C2243 H2269 0.929 . S
C2244 C2242 1.320 . S
C2244 C2245 1.405 . S
C2244 H2270 0.930 . S
C2245 C2240 1.479 . S
C2245 C2244 1.405 . S
C2245 H2271 0.931 . S
U2246 O2247 2.454 . S
U2246 O2248 2.458 . S
U2246 C2249 2.984 . S
U2246 C2250 2.847 . S
U2246 C2263 2.882 . S
U2246 O2264 2.441 . S
U2246 O2265 2.420 . S
U2246 O2266 2.455 . S
U2246 O2267 2.449 . S
O2247 U2246 2.454 . S
O2247 C2249 1.353 . S
O2248 U2246 2.458 . S
O2248 C2249 1.286 . S
C2249 U2246 2.984 . S
C2249 O2247 1.353 . S
C2249 O2248 1.286 . S
C2249 C2251 1.363 . S
C2250 C2240 1.465 . S
C2250 U2246 2.847 . S
C2250 O2264 1.249 . S
C2250 O2265 1.202 . S
C2251 C2249 1.363 . S
C2251 C2253 1.408 . S
C2251 C2256 1.342 . S
C2252 C2253 1.310 . S
C2252 C2255 1.461 . S
C2252 H2272 0.932 . S
C2253 C2251 1.408 . S
C2253 C2252 1.310 . S
C2253 H2273 0.930 . S
C2254 C2255 1.474 . S
C2254 C2256 1.285 . S
C2254 H2274 0.929 . S
C2255 C2252 1.461 . S
C2255 C2254 1.474 . S
C2256 C2251 1.342 . S
C2256 C2254 1.285 . S
C2256 H2275 0.930 . S
C2257 C2260 1.424 . S
C2257 C2262 1.245 . S
C2257 C2263 1.428 . S
C2258 C2261 1.260 . S
C2258 C2262 1.477 . S
C2258 H2276 0.932 . S
C2259 C2260 1.384 . S
C2259 C2261 1.479 . S
C2259 H2277 0.929 . S
C2260 C2257 1.424 . S
C2260 C2259 1.384 . S
C2260 H2278 0.928 . S
C2261 C2258 1.260 . S
C2261 C2259 1.479 . S
C2262 C2257 1.245 . S
C2262 C2258 1.477 . S
C2262 H2279 0.932 . S
C2263 U2246 2.882 . S
C2263 C2257 1.428 . S
C2263 O2266 1.301 . S
C2263 O2267 1.282 . S
O2264 U2246 2.441 . S
O2264 C2250 1.249 . S
O2265 U2246 2.420 . S
O2265 C2250 1.202 . S
O2266 U2246 2.455 . S
O2266 C2263 1.301 . S
O2267 U2246 2.449 . S
O2267 C2263 1.282 . S
H2268 C2241 0.931 . S
H2269 C2243 0.929 . S
H2270 C2244 0.930 . S
H2271 C2245 0.931 . S
H2272 C2252 0.932 . S
H2273 C2253 0.930 . S
H2274 C2254 0.929 . S
H2275 C2256 0.930 . S
H2276 C2258 0.932 . S
H2277 C2259 0.929 . S
H2278 C2260 0.928 . S
H2279 C2262 0.932 . S
C2280 C2281 1.264 . S
C2280 C2285 1.479 . S
C2280 C2290 1.465 . S
C2281 C2280 1.264 . S
C2281 C2283 1.339 . S
C2281 H2308 0.931 . S
C2282 C2283 1.395 . S
C2282 C2284 1.320 . S
C2283 C2281 1.339 . S
C2283 C2282 1.395 . S
C2283 H2309 0.929 . S
C2284 C2282 1.320 . S
C2284 C2285 1.405 . S
C2284 H2310 0.930 . S
C2285 C2280 1.479 . S
C2285 C2284 1.405 . S
C2285 H2311 0.931 . S
U2286 O2287 2.454 . S
U2286 O2288 2.458 . S
U2286 C2289 2.984 . S
U2286 C2290 2.847 . S
U2286 C2303 2.882 . S
U2286 O2304 2.441 . S
U2286 O2305 2.420 . S
U2286 O2306 2.455 . S
U2286 O2307 2.449 . S
O2287 U2286 2.454 . S
O2287 C2289 1.353 . S
O2288 U2286 2.458 . S
O2288 C2289 1.286 . S
C2289 U2286 2.984 . S
C2289 O2287 1.353 . S
C2289 O2288 1.286 . S
C2289 C2291 1.363 . S
C2290 C2280 1.465 . S
C2290 U2286 2.847 . S
C2290 O2304 1.249 . S
C2290 O2305 1.202 . S
C2291 C2289 1.363 . S
C2291 C2293 1.408 . S
C2291 C2296 1.342 . S
C2292 C2293 1.310 . S
C2292 C2295 1.461 . S
C2292 H2312 0.932 . S
C2293 C2291 1.408 . S
C2293 C2292 1.310 . S
C2293 H2313 0.930 . S
C2294 C2295 1.474 . S
C2294 C2296 1.285 . S
C2294 H2314 0.929 . S
C2295 C2292 1.461 . S
C2295 C2294 1.474 . S
C2296 C2291 1.342 . S
C2296 C2294 1.285 . S
C2296 H2315 0.930 . S
C2297 C2300 1.424 . S
C2297 C2302 1.245 . S
C2297 C2303 1.428 . S
C2298 C2301 1.260 . S
C2298 C2302 1.477 . S
C2298 H2316 0.932 . S
C2299 C2300 1.384 . S
C2299 C2301 1.479 . S
C2299 H2317 0.929 . S
C2300 C2297 1.424 . S
C2300 C2299 1.384 . S
C2300 H2318 0.928 . S
C2301 C2298 1.260 . S
C2301 C2299 1.479 . S
C2302 C2297 1.245 . S
C2302 C2298 1.477 . S
C2302 H2319 0.932 . S
C2303 U2286 2.882 . S
C2303 C2297 1.428 . S
C2303 O2306 1.301 . S
C2303 O2307 1.282 . S
O2304 U2286 2.441 . S
O2304 C2290 1.249 . S
O2305 U2286 2.420 . S
O2305 C2290 1.202 . S
O2306 U2286 2.455 . S
O2306 C2303 1.301 . S
O2307 U2286 2.449 . S
O2307 C2303 1.282 . S
H2308 C2281 0.931 . S
H2309 C2283 0.929 . S
H2310 C2284 0.930 . S
H2311 C2285 0.931 . S
H2312 C2292 0.932 . S
H2313 C2293 0.930 . S
H2314 C2294 0.929 . S
H2315 C2296 0.930 . S
H2316 C2298 0.932 . S
H2317 C2299 0.929 . S
H2318 C2300 0.928 . S
H2319 C2302 0.932 . S
C2320 C2321 1.264 . S
C2320 C2325 1.479 . S
C2320 C2330 1.465 . S
C2321 C2320 1.264 . S
C2321 C2323 1.339 . S
C2321 H2348 0.931 . S
C2322 C2323 1.395 . S
C2322 C2324 1.320 . S
C2323 C2321 1.339 . S
C2323 C2322 1.395 . S
C2323 H2349 0.929 . S
C2324 C2322 1.320 . S
C2324 C2325 1.405 . S
C2324 H2350 0.930 . S
C2325 C2320 1.479 . S
C2325 C2324 1.405 . S
C2325 H2351 0.931 . S
U2326 O2327 2.454 . S
U2326 O2328 2.458 . S
U2326 C2329 2.984 . S
U2326 C2330 2.847 . S
U2326 C2343 2.882 . S
U2326 O2344 2.441 . S
U2326 O2345 2.420 . S
U2326 O2346 2.455 . S
U2326 O2347 2.449 . S
O2327 U2326 2.454 . S
O2327 C2329 1.353 . S
O2328 U2326 2.458 . S
O2328 C2329 1.286 . S
C2329 U2326 2.984 . S
C2329 O2327 1.353 . S
C2329 O2328 1.286 . S
C2329 C2331 1.363 . S
C2330 C2320 1.465 . S
C2330 U2326 2.847 . S
C2330 O2344 1.249 . S
C2330 O2345 1.202 . S
C2331 C2329 1.363 . S
C2331 C2333 1.408 . S
C2331 C2336 1.342 . S
C2332 C2333 1.310 . S
C2332 C2335 1.461 . S
C2332 H2352 0.932 . S
C2333 C2331 1.408 . S
C2333 C2332 1.310 . S
C2333 H2353 0.930 . S
C2334 C2335 1.474 . S
C2334 C2336 1.285 . S
C2334 H2354 0.929 . S
C2335 C2332 1.461 . S
C2335 C2334 1.474 . S
C2336 C2331 1.342 . S
C2336 C2334 1.285 . S
C2336 H2355 0.930 . S
C2337 C2340 1.424 . S
C2337 C2342 1.245 . S
C2337 C2343 1.428 . S
C2338 C2341 1.260 . S
C2338 C2342 1.477 . S
C2338 H2356 0.932 . S
C2339 C2340 1.384 . S
C2339 C2341 1.479 . S
C2339 H2357 0.929 . S
C2340 C2337 1.424 . S
C2340 C2339 1.384 . S
C2340 H2358 0.928 . S
C2341 C2338 1.260 . S
C2341 C2339 1.479 . S
C2342 C2337 1.245 . S
C2342 C2338 1.477 . S
C2342 H2359 0.932 . S
C2343 U2326 2.882 . S
C2343 C2337 1.428 . S
C2343 O2346 1.301 . S
C2343 O2347 1.282 . S
O2344 U2326 2.441 . S
O2344 C2330 1.249 . S
O2345 U2326 2.420 . S
O2345 C2330 1.202 . S
O2346 U2326 2.455 . S
O2346 C2343 1.301 . S
O2347 U2326 2.449 . S
O2347 C2343 1.282 . S
H2348 C2321 0.931 . S
H2349 C2323 0.929 . S
H2350 C2324 0.930 . S
H2351 C2325 0.931 . S
H2352 C2332 0.932 . S
H2353 C2333 0.930 . S
H2354 C2334 0.929 . S
H2355 C2336 0.930 . S
H2356 C2338 0.932 . S
H2357 C2339 0.929 . S
H2358 C2340 0.928 . S
H2359 C2342 0.932 . S
C2360 C2361 1.264 . S
C2360 C2365 1.479 . S
C2360 C2370 1.465 . S
C2361 C2360 1.264 . S
C2361 C2363 1.339 . S
C2361 H2388 0.931 . S
C2362 C2363 1.395 . S
C2362 C2364 1.320 . S
C2363 C2361 1.339 . S
C2363 C2362 1.395 . S
C2363 H2389 0.929 . S
C2364 C2362 1.320 . S
C2364 C2365 1.405 . S
C2364 H2390 0.930 . S
C2365 C2360 1.479 . S
C2365 C2364 1.405 . S
C2365 H2391 0.931 . S
U2366 O2367 2.454 . S
U2366 O2368 2.458 . S
U2366 C2369 2.984 . S
U2366 C2370 2.847 . S
U2366 C2383 2.882 . S
U2366 O2384 2.441 . S
U2366 O2385 2.420 . S
U2366 O2386 2.455 . S
U2366 O2387 2.449 . S
O2367 U2366 2.454 . S
O2367 C2369 1.353 . S
O2368 U2366 2.458 . S
O2368 C2369 1.286 . S
C2369 U2366 2.984 . S
C2369 O2367 1.353 . S
C2369 O2368 1.286 . S
C2369 C2371 1.363 . S
C2370 C2360 1.465 . S
C2370 U2366 2.847 . S
C2370 O2384 1.249 . S
C2370 O2385 1.202 . S
C2371 C2369 1.363 . S
C2371 C2373 1.408 . S
C2371 C2376 1.342 . S
C2372 C2373 1.310 . S
C2372 C2375 1.461 . S
C2372 H2392 0.932 . S
C2373 C2371 1.408 . S
C2373 C2372 1.310 . S
C2373 H2393 0.930 . S
C2374 C2375 1.474 . S
C2374 C2376 1.285 . S
C2374 H2394 0.929 . S
C2375 C2372 1.461 . S
C2375 C2374 1.474 . S
C2376 C2371 1.342 . S
C2376 C2374 1.285 . S
C2376 H2395 0.930 . S
C2377 C2380 1.424 . S
C2377 C2382 1.245 . S
C2377 C2383 1.428 . S
C2378 C2381 1.260 . S
C2378 C2382 1.477 . S
C2378 H2396 0.932 . S
C2379 C2380 1.384 . S
C2379 C2381 1.479 . S
C2379 H2397 0.929 . S
C2380 C2377 1.424 . S
C2380 C2379 1.384 . S
C2380 H2398 0.928 . S
C2381 C2378 1.260 . S
C2381 C2379 1.479 . S
C2382 C2377 1.245 . S
C2382 C2378 1.477 . S
C2382 H2399 0.932 . S
C2383 U2366 2.882 . S
C2383 C2377 1.428 . S
C2383 O2386 1.301 . S
C2383 O2387 1.282 . S
O2384 U2366 2.441 . S
O2384 C2370 1.249 . S
O2385 U2366 2.420 . S
O2385 C2370 1.202 . S
O2386 U2366 2.455 . S
O2386 C2383 1.301 . S
O2387 U2366 2.449 . S
O2387 C2383 1.282 . S
H2388 C2361 0.931 . S
H2389 C2363 0.929 . S
H2390 C2364 0.930 . S
H2391 C2365 0.931 . S
H2392 C2372 0.932 . S
H2393 C2373 0.930 . S
H2394 C2374 0.929 . S
H2395 C2376 0.930 . S
H2396 C2378 0.932 . S
H2397 C2379 0.929 . S
H2398 C2380 0.928 . S
H2399 C2382 0.932 . S
C2400 C2401 1.264 . S
C2400 C2405 1.479 . S
C2400 C2410 1.465 . S
C2401 C2400 1.264 . S
C2401 C2403 1.339 . S
C2401 H2428 0.931 . S
C2402 C2403 1.395 . S
C2402 C2404 1.320 . S
C2403 C2401 1.339 . S
C2403 C2402 1.395 . S
C2403 H2429 0.929 . S
C2404 C2402 1.320 . S
C2404 C2405 1.405 . S
C2404 H2430 0.930 . S
C2405 C2400 1.479 . S
C2405 C2404 1.405 . S
C2405 H2431 0.931 . S
U2406 O2407 2.454 . S
U2406 O2408 2.458 . S
U2406 C2409 2.984 . S
U2406 C2410 2.847 . S
U2406 C2423 2.882 . S
U2406 O2424 2.441 . S
U2406 O2425 2.420 . S
U2406 O2426 2.455 . S
U2406 O2427 2.449 . S
O2407 U2406 2.454 . S
O2407 C2409 1.353 . S
O2408 U2406 2.458 . S
O2408 C2409 1.286 . S
C2409 U2406 2.984 . S
C2409 O2407 1.353 . S
C2409 O2408 1.286 . S
C2409 C2411 1.363 . S
C2410 C2400 1.465 . S
C2410 U2406 2.847 . S
C2410 O2424 1.249 . S
C2410 O2425 1.202 . S
C2411 C2409 1.363 . S
C2411 C2413 1.408 . S
C2411 C2416 1.342 . S
C2412 C2413 1.310 . S
C2412 C2415 1.461 . S
C2412 H2432 0.932 . S
C2413 C2411 1.408 . S
C2413 C2412 1.310 . S
C2413 H2433 0.930 . S
C2414 C2415 1.474 . S
C2414 C2416 1.285 . S
C2414 H2434 0.929 . S
C2415 C2412 1.461 . S
C2415 C2414 1.474 . S
C2416 C2411 1.342 . S
C2416 C2414 1.285 . S
C2416 H2435 0.930 . S
C2417 C2420 1.424 . S
C2417 C2422 1.245 . S
C2417 C2423 1.428 . S
C2418 C2421 1.260 . S
C2418 C2422 1.477 . S
C2418 H2436 0.932 . S
C2419 C2420 1.384 . S
C2419 C2421 1.479 . S
C2419 H2437 0.929 . S
C2420 C2417 1.424 . S
C2420 C2419 1.384 . S
C2420 H2438 0.928 . S
C2421 C2418 1.260 . S
C2421 C2419 1.479 . S
C2422 C2417 1.245 . S
C2422 C2418 1.477 . S
C2422 H2439 0.932 . S
C2423 U2406 2.882 . S
C2423 C2417 1.428 . S
C2423 O2426 1.301 . S
C2423 O2427 1.282 . S
O2424 U2406 2.441 . S
O2424 C2410 1.249 . S
O2425 U2406 2.420 . S
O2425 C2410 1.202 . S
O2426 U2406 2.455 . S
O2426 C2423 1.301 . S
O2427 U2406 2.449 . S
O2427 C2423 1.282 . S
H2428 C2401 0.931 . S
H2429 C2403 0.929 . S
H2430 C2404 0.930 . S
H2431 C2405 0.931 . S
H2432 C2412 0.932 . S
H2433 C2413 0.930 . S
H2434 C2414 0.929 . S
H2435 C2416 0.930 . S
H2436 C2418 0.932 . S
H2437 C2419 0.929 . S
H2438 C2420 0.928 . S
H2439 C2422 0.932 . S
C2440 C2441 1.264 . S
C2440 C2445 1.479 . S
C2440 C2450 1.465 . S
C2441 C2440 1.264 . S
C2441 C2443 1.339 . S
C2441 H2468 0.931 . S
C2442 C2443 1.395 . S
C2442 C2444 1.320 . S
C2443 C2441 1.339 . S
C2443 C2442 1.395 . S
C2443 H2469 0.929 . S
C2444 C2442 1.320 . S
C2444 C2445 1.405 . S
C2444 H2470 0.930 . S
C2445 C2440 1.479 . S
C2445 C2444 1.405 . S
C2445 H2471 0.931 . S
U2446 O2447 2.454 . S
U2446 O2448 2.458 . S
U2446 C2449 2.984 . S
U2446 C2450 2.847 . S
U2446 C2463 2.882 . S
U2446 O2464 2.441 . S
U2446 O2465 2.420 . S
U2446 O2466 2.455 . S
U2446 O2467 2.449 . S
O2447 U2446 2.454 . S
O2447 C2449 1.353 . S
O2448 U2446 2.458 . S
O2448 C2449 1.286 . S
C2449 U2446 2.984 . S
C2449 O2447 1.353 . S
C2449 O2448 1.286 . S
C2449 C2451 1.363 . S
C2450 C2440 1.465 . S
C2450 U2446 2.847 . S
C2450 O2464 1.249 . S
C2450 O2465 1.202 . S
C2451 C2449 1.363 . S
C2451 C2453 1.408 . S
C2451 C2456 1.342 . S
C2452 C2453 1.310 . S
C2452 C2455 1.461 . S
C2452 H2472 0.932 . S
C2453 C2451 1.408 . S
C2453 C2452 1.310 . S
C2453 H2473 0.930 . S
C2454 C2455 1.474 . S
C2454 C2456 1.285 . S
C2454 H2474 0.929 . S
C2455 C2452 1.461 . S
C2455 C2454 1.474 . S
C2456 C2451 1.342 . S
C2456 C2454 1.285 . S
C2456 H2475 0.930 . S
C2457 C2460 1.424 . S
C2457 C2462 1.245 . S
C2457 C2463 1.428 . S
C2458 C2461 1.260 . S
C2458 C2462 1.477 . S
C2458 H2476 0.932 . S
C2459 C2460 1.384 . S
C2459 C2461 1.479 . S
C2459 H2477 0.929 . S
C2460 C2457 1.424 . S
C2460 C2459 1.384 . S
C2460 H2478 0.928 . S
C2461 C2458 1.260 . S
C2461 C2459 1.479 . S
C2462 C2457 1.245 . S
C2462 C2458 1.477 . S
C2462 H2479 0.932 . S
C2463 U2446 2.882 . S
C2463 C2457 1.428 . S
C2463 O2466 1.301 . S
C2463 O2467 1.282 . S
O2464 U2446 2.441 . S
O2464 C2450 1.249 . S
O2465 U2446 2.420 . S
O2465 C2450 1.202 . S
O2466 U2446 2.455 . S
O2466 C2463 1.301 . S
O2467 U2446 2.449 . S
O2467 C2463 1.282 . S
H2468 C2441 0.931 . S
H2469 C2443 0.929 . S
H2470 C2444 0.930 . S
H2471 C2445 0.931 . S
H2472 C2452 0.932 . S
H2473 C2453 0.930 . S
H2474 C2454 0.929 . S
H2475 C2456 0.930 . S
H2476 C2458 0.932 . S
H2477 C2459 0.929 . S
H2478 C2460 0.928 . S
H2479 C2462 0.932 . S
C2480 C2481 1.264 . S
C2480 C2485 1.479 . S
C2480 C2490 1.465 . S
C2481 C2480 1.264 . S
C2481 C2483 1.339 . S
C2481 H2508 0.931 . S
C2482 C2483 1.395 . S
C2482 C2484 1.320 . S
C2483 C2481 1.339 . S
C2483 C2482 1.395 . S
C2483 H2509 0.929 . S
C2484 C2482 1.320 . S
C2484 C2485 1.405 . S
C2484 H2510 0.930 . S
C2485 C2480 1.479 . S
C2485 C2484 1.405 . S
C2485 H2511 0.931 . S
U2486 O2487 2.454 . S
U2486 O2488 2.458 . S
U2486 C2489 2.984 . S
U2486 C2490 2.847 . S
U2486 C2503 2.882 . S
U2486 O2504 2.441 . S
U2486 O2505 2.420 . S
U2486 O2506 2.455 . S
U2486 O2507 2.449 . S
O2487 U2486 2.454 . S
O2487 C2489 1.353 . S
O2488 U2486 2.458 . S
O2488 C2489 1.286 . S
C2489 U2486 2.984 . S
C2489 O2487 1.353 . S
C2489 O2488 1.286 . S
C2489 C2491 1.363 . S
C2490 C2480 1.465 . S
C2490 U2486 2.847 . S
C2490 O2504 1.249 . S
C2490 O2505 1.202 . S
C2491 C2489 1.363 . S
C2491 C2493 1.408 . S
C2491 C2496 1.342 . S
C2492 C2493 1.310 . S
C2492 C2495 1.461 . S
C2492 H2512 0.932 . S
C2493 C2491 1.408 . S
C2493 C2492 1.310 . S
C2493 H2513 0.930 . S
C2494 C2495 1.474 . S
C2494 C2496 1.285 . S
C2494 H2514 0.929 . S
C2495 C2492 1.461 . S
C2495 C2494 1.474 . S
C2496 C2491 1.342 . S
C2496 C2494 1.285 . S
C2496 H2515 0.930 . S
C2497 C2500 1.424 . S
C2497 C2502 1.245 . S
C2497 C2503 1.428 . S
C2498 C2501 1.260 . S
C2498 C2502 1.477 . S
C2498 H2516 0.932 . S
C2499 C2500 1.384 . S
C2499 C2501 1.479 . S
C2499 H2517 0.929 . S
C2500 C2497 1.424 . S
C2500 C2499 1.384 . S
C2500 H2518 0.928 . S
C2501 C2498 1.260 . S
C2501 C2499 1.479 . S
C2502 C2497 1.245 . S
C2502 C2498 1.477 . S
C2502 H2519 0.932 . S
C2503 U2486 2.882 . S
C2503 C2497 1.428 . S
C2503 O2506 1.301 . S
C2503 O2507 1.282 . S
O2504 U2486 2.441 . S
O2504 C2490 1.249 . S
O2505 U2486 2.420 . S
O2505 C2490 1.202 . S
O2506 U2486 2.455 . S
O2506 C2503 1.301 . S
O2507 U2486 2.449 . S
O2507 C2503 1.282 . S
H2508 C2481 0.931 . S
H2509 C2483 0.929 . S
H2510 C2484 0.930 . S
H2511 C2485 0.931 . S
H2512 C2492 0.932 . S
H2513 C2493 0.930 . S
H2514 C2494 0.929 . S
H2515 C2496 0.930 . S
H2516 C2498 0.932 . S
H2517 C2499 0.929 . S
H2518 C2500 0.928 . S
H2519 C2502 0.932 . S
C2520 C2521 1.264 . S
C2520 C2525 1.479 . S
C2520 C2530 1.465 . S
C2521 C2520 1.264 . S
C2521 C2523 1.339 . S
C2521 H2548 0.931 . S
C2522 C2523 1.395 . S
C2522 C2524 1.320 . S
C2523 C2521 1.339 . S
C2523 C2522 1.395 . S
C2523 H2549 0.929 . S
C2524 C2522 1.320 . S
C2524 C2525 1.405 . S
C2524 H2550 0.930 . S
C2525 C2520 1.479 . S
C2525 C2524 1.405 . S
C2525 H2551 0.931 . S
U2526 O2527 2.454 . S
U2526 O2528 2.458 . S
U2526 C2529 2.984 . S
U2526 C2530 2.847 . S
U2526 C2543 2.882 . S
U2526 O2544 2.441 . S
U2526 O2545 2.420 . S
U2526 O2546 2.455 . S
U2526 O2547 2.449 . S
O2527 U2526 2.454 . S
O2527 C2529 1.353 . S
O2528 U2526 2.458 . S
O2528 C2529 1.286 . S
C2529 U2526 2.984 . S
C2529 O2527 1.353 . S
C2529 O2528 1.286 . S
C2529 C2531 1.363 . S
C2530 C2520 1.465 . S
C2530 U2526 2.847 . S
C2530 O2544 1.249 . S
C2530 O2545 1.202 . S
C2531 C2529 1.363 . S
C2531 C2533 1.408 . S
C2531 C2536 1.342 . S
C2532 C2533 1.310 . S
C2532 C2535 1.461 . S
C2532 H2552 0.932 . S
C2533 C2531 1.408 . S
C2533 C2532 1.310 . S
C2533 H2553 0.930 . S
C2534 C2535 1.474 . S
C2534 C2536 1.285 . S
C2534 H2554 0.929 . S
C2535 C2532 1.461 . S
C2535 C2534 1.474 . S
C2536 C2531 1.342 . S
C2536 C2534 1.285 . S
C2536 H2555 0.930 . S
C2537 C2540 1.424 . S
C2537 C2542 1.245 . S
C2537 C2543 1.428 . S
C2538 C2541 1.260 . S
C2538 C2542 1.477 . S
C2538 H2556 0.932 . S
C2539 C2540 1.384 . S
C2539 C2541 1.479 . S
C2539 H2557 0.929 . S
C2540 C2537 1.424 . S
C2540 C2539 1.384 . S
C2540 H2558 0.928 . S
C2541 C2538 1.260 . S
C2541 C2539 1.479 . S
C2542 C2537 1.245 . S
C2542 C2538 1.477 . S
C2542 H2559 0.932 . S
C2543 U2526 2.882 . S
C2543 C2537 1.428 . S
C2543 O2546 1.301 . S
C2543 O2547 1.282 . S
O2544 U2526 2.441 . S
O2544 C2530 1.249 . S
O2545 U2526 2.420 . S
O2545 C2530 1.202 . S
O2546 U2526 2.455 . S
O2546 C2543 1.301 . S
O2547 U2526 2.449 . S
O2547 C2543 1.282 . S
H2548 C2521 0.931 . S
H2549 C2523 0.929 . S
H2550 C2524 0.930 . S
H2551 C2525 0.931 . S
H2552 C2532 0.932 . S
H2553 C2533 0.930 . S
H2554 C2534 0.929 . S
H2555 C2536 0.930 . S
H2556 C2538 0.932 . S
H2557 C2539 0.929 . S
H2558 C2540 0.928 . S
H2559 C2542 0.932 . S
C2560 C2561 1.264 . S
C2560 C2565 1.479 . S
C2560 C2570 1.465 . S
C2561 C2560 1.264 . S
C2561 C2563 1.339 . S
C2561 H2588 0.931 . S
C2562 C2563 1.395 . S
C2562 C2564 1.320 . S
C2563 C2561 1.339 . S
C2563 C2562 1.395 . S
C2563 H2589 0.929 . S
C2564 C2562 1.320 . S
C2564 C2565 1.405 . S
C2564 H2590 0.930 . S
C2565 C2560 1.479 . S
C2565 C2564 1.405 . S
C2565 H2591 0.931 . S
U2566 O2567 2.454 . S
U2566 O2568 2.458 . S
U2566 C2569 2.984 . S
U2566 C2570 2.847 . S
U2566 C2583 2.882 . S
U2566 O2584 2.441 . S
U2566 O2585 2.420 . S
U2566 O2586 2.455 . S
U2566 O2587 2.449 . S
O2567 U2566 2.454 . S
O2567 C2569 1.353 . S
O2568 U2566 2.458 . S
O2568 C2569 1.286 . S
C2569 U2566 2.984 . S
C2569 O2567 1.353 . S
C2569 O2568 1.286 . S
C2569 C2571 1.363 . S
C2570 C2560 1.465 . S
C2570 U2566 2.847 . S
C2570 O2584 1.249 . S
C2570 O2585 1.202 . S
C2571 C2569 1.363 . S
C2571 C2573 1.408 . S
C2571 C2576 1.342 . S
C2572 C2573 1.310 . S
C2572 C2575 1.461 . S
C2572 H2592 0.932 . S
C2573 C2571 1.408 . S
C2573 C2572 1.310 . S
C2573 H2593 0.930 . S
C2574 C2575 1.474 . S
C2574 C2576 1.285 . S
C2574 H2594 0.929 . S
C2575 C2572 1.461 . S
C2575 C2574 1.474 . S
C2576 C2571 1.342 . S
C2576 C2574 1.285 . S
C2576 H2595 0.930 . S
C2577 C2580 1.424 . S
C2577 C2582 1.245 . S
C2577 C2583 1.428 . S
C2578 C2581 1.260 . S
C2578 C2582 1.477 . S
C2578 H2596 0.932 . S
C2579 C2580 1.384 . S
C2579 C2581 1.479 . S
C2579 H2597 0.929 . S
C2580 C2577 1.424 . S
C2580 C2579 1.384 . S
C2580 H2598 0.928 . S
C2581 C2578 1.260 . S
C2581 C2579 1.479 . S
C2582 C2577 1.245 . S
C2582 C2578 1.477 . S
C2582 H2599 0.932 . S
C2583 U2566 2.882 . S
C2583 C2577 1.428 . S
C2583 O2586 1.301 . S
C2583 O2587 1.282 . S
O2584 U2566 2.441 . S
O2584 C2570 1.249 . S
O2585 U2566 2.420 . S
O2585 C2570 1.202 . S
O2586 U2566 2.455 . S
O2586 C2583 1.301 . S
O2587 U2566 2.449 . S
O2587 C2583 1.282 . S
H2588 C2561 0.931 . S
H2589 C2563 0.929 . S
H2590 C2564 0.930 . S
H2591 C2565 0.931 . S
H2592 C2572 0.932 . S
H2593 C2573 0.930 . S
H2594 C2574 0.929 . S
H2595 C2576 0.930 . S
H2596 C2578 0.932 . S
H2597 C2579 0.929 . S
H2598 C2580 0.928 . S
H2599 C2582 0.932 . S
C2600 C2601 1.264 . S
C2600 C2605 1.479 . S
C2600 C2610 1.465 . S
C2601 C2600 1.264 . S
C2601 C2603 1.339 . S
C2601 H2628 0.931 . S
C2602 C2603 1.395 . S
C2602 C2604 1.320 . S
C2603 C2601 1.339 . S
C2603 C2602 1.395 . S
C2603 H2629 0.929 . S
C2604 C2602 1.320 . S
C2604 C2605 1.405 . S
C2604 H2630 0.930 . S
C2605 C2600 1.479 . S
C2605 C2604 1.405 . S
C2605 H2631 0.931 . S
U2606 O2607 2.454 . S
U2606 O2608 2.458 . S
U2606 C2609 2.984 . S
U2606 C2610 2.847 . S
U2606 C2623 2.882 . S
U2606 O2624 2.441 . S
U2606 O2625 2.420 . S
U2606 O2626 2.455 . S
U2606 O2627 2.449 . S
O2607 U2606 2.454 . S
O2607 C2609 1.353 . S
O2608 U2606 2.458 . S
O2608 C2609 1.286 . S
C2609 U2606 2.984 . S
C2609 O2607 1.353 . S
C2609 O2608 1.286 . S
C2609 C2611 1.363 . S
C2610 C2600 1.465 . S
C2610 U2606 2.847 . S
C2610 O2624 1.249 . S
C2610 O2625 1.202 . S
C2611 C2609 1.363 . S
C2611 C2613 1.408 . S
C2611 C2616 1.342 . S
C2612 C2613 1.310 . S
C2612 C2615 1.461 . S
C2612 H2632 0.932 . S
C2613 C2611 1.408 . S
C2613 C2612 1.310 . S
C2613 H2633 0.930 . S
C2614 C2615 1.474 . S
C2614 C2616 1.285 . S
C2614 H2634 0.929 . S
C2615 C2612 1.461 . S
C2615 C2614 1.474 . S
C2616 C2611 1.342 . S
C2616 C2614 1.285 . S
C2616 H2635 0.930 . S
C2617 C2620 1.424 . S
C2617 C2622 1.245 . S
C2617 C2623 1.428 . S
C2618 C2621 1.260 . S
C2618 C2622 1.477 . S
C2618 H2636 0.932 . S
C2619 C2620 1.384 . S
C2619 C2621 1.479 . S
C2619 H2637 0.929 . S
C2620 C2617 1.424 . S
C2620 C2619 1.384 . S
C2620 H2638 0.928 . S
C2621 C2618 1.260 . S
C2621 C2619 1.479 . S
C2622 C2617 1.245 . S
C2622 C2618 1.477 . S
C2622 H2639 0.932 . S
C2623 U2606 2.882 . S
C2623 C2617 1.428 . S
C2623 O2626 1.301 . S
C2623 O2627 1.282 . S
O2624 U2606 2.441 . S
O2624 C2610 1.249 . S
O2625 U2606 2.420 . S
O2625 C2610 1.202 . S
O2626 U2606 2.455 . S
O2626 C2623 1.301 . S
O2627 U2606 2.449 . S
O2627 C2623 1.282 . S
H2628 C2601 0.931 . S
H2629 C2603 0.929 . S
H2630 C2604 0.930 . S
H2631 C2605 0.931 . S
H2632 C2612 0.932 . S
H2633 C2613 0.930 . S
H2634 C2614 0.929 . S
H2635 C2616 0.930 . S
H2636 C2618 0.932 . S
H2637 C2619 0.929 . S
H2638 C2620 0.928 . S
H2639 C2622 0.932 . S
C2640 C2641 1.264 . S
C2640 C2645 1.479 . S
C2640 C2650 1.465 . S
C2641 C2640 1.264 . S
C2641 C2643 1.339 . S
C2641 H2668 0.931 . S
C2642 C2643 1.395 . S
C2642 C2644 1.320 . S
C2643 C2641 1.339 . S
C2643 C2642 1.395 . S
C2643 H2669 0.929 . S
C2644 C2642 1.320 . S
C2644 C2645 1.405 . S
C2644 H2670 0.930 . S
C2645 C2640 1.479 . S
C2645 C2644 1.405 . S
C2645 H2671 0.931 . S
U2646 O2647 2.454 . S
U2646 O2648 2.458 . S
U2646 C2649 2.984 . S
U2646 C2650 2.847 . S
U2646 C2663 2.882 . S
U2646 O2664 2.441 . S
U2646 O2665 2.420 . S
U2646 O2666 2.455 . S
U2646 O2667 2.449 . S
O2647 U2646 2.454 . S
O2647 C2649 1.353 . S
O2648 U2646 2.458 . S
O2648 C2649 1.286 . S
C2649 U2646 2.984 . S
C2649 O2647 1.353 . S
C2649 O2648 1.286 . S
C2649 C2651 1.363 . S
C2650 C2640 1.465 . S
C2650 U2646 2.847 . S
C2650 O2664 1.249 . S
C2650 O2665 1.202 . S
C2651 C2649 1.363 . S
C2651 C2653 1.408 . S
C2651 C2656 1.342 . S
C2652 C2653 1.310 . S
C2652 C2655 1.461 . S
C2652 H2672 0.932 . S
C2653 C2651 1.408 . S
C2653 C2652 1.310 . S
C2653 H2673 0.930 . S
C2654 C2655 1.474 . S
C2654 C2656 1.285 . S
C2654 H2674 0.929 . S
C2655 C2652 1.461 . S
C2655 C2654 1.474 . S
C2656 C2651 1.342 . S
C2656 C2654 1.285 . S
C2656 H2675 0.930 . S
C2657 C2660 1.424 . S
C2657 C2662 1.245 . S
C2657 C2663 1.428 . S
C2658 C2661 1.260 . S
C2658 C2662 1.477 . S
C2658 H2676 0.932 . S
C2659 C2660 1.384 . S
C2659 C2661 1.479 . S
C2659 H2677 0.929 . S
C2660 C2657 1.424 . S
C2660 C2659 1.384 . S
C2660 H2678 0.928 . S
C2661 C2658 1.260 . S
C2661 C2659 1.479 . S
C2662 C2657 1.245 . S
C2662 C2658 1.477 . S
C2662 H2679 0.932 . S
C2663 U2646 2.882 . S
C2663 C2657 1.428 . S
C2663 O2666 1.301 . S
C2663 O2667 1.282 . S
O2664 U2646 2.441 . S
O2664 C2650 1.249 . S
O2665 U2646 2.420 . S
O2665 C2650 1.202 . S
O2666 U2646 2.455 . S
O2666 C2663 1.301 . S
O2667 U2646 2.449 . S
O2667 C2663 1.282 . S
H2668 C2641 0.931 . S
H2669 C2643 0.929 . S
H2670 C2644 0.930 . S
H2671 C2645 0.931 . S
H2672 C2652 0.932 . S
H2673 C2653 0.930 . S
H2674 C2654 0.929 . S
H2675 C2656 0.930 . S
H2676 C2658 0.932 . S
H2677 C2659 0.929 . S
H2678 C2660 0.928 . S
H2679 C2662 0.932 . S
C2680 C2681 1.264 . S
C2680 C2685 1.479 . S
C2680 C2690 1.465 . S
C2681 C2680 1.264 . S
C2681 C2683 1.339 . S
C2681 H2708 0.931 . S
C2682 C2683 1.395 . S
C2682 C2684 1.320 . S
C2683 C2681 1.339 . S
C2683 C2682 1.395 . S
C2683 H2709 0.929 . S
C2684 C2682 1.320 . S
C2684 C2685 1.405 . S
C2684 H2710 0.930 . S
C2685 C2680 1.479 . S
C2685 C2684 1.405 . S
C2685 H2711 0.931 . S
U2686 O2687 2.454 . S
U2686 O2688 2.458 . S
U2686 C2689 2.984 . S
U2686 C2690 2.847 . S
U2686 C2703 2.882 . S
U2686 O2704 2.441 . S
U2686 O2705 2.420 . S
U2686 O2706 2.455 . S
U2686 O2707 2.449 . S
O2687 U2686 2.454 . S
O2687 C2689 1.353 . S
O2688 U2686 2.458 . S
O2688 C2689 1.286 . S
C2689 U2686 2.984 . S
C2689 O2687 1.353 . S
C2689 O2688 1.286 . S
C2689 C2691 1.363 . S
C2690 C2680 1.465 . S
C2690 U2686 2.847 . S
C2690 O2704 1.249 . S
C2690 O2705 1.202 . S
C2691 C2689 1.363 . S
C2691 C2693 1.408 . S
C2691 C2696 1.342 . S
C2692 C2693 1.310 . S
C2692 C2695 1.461 . S
C2692 H2712 0.932 . S
C2693 C2691 1.408 . S
C2693 C2692 1.310 . S
C2693 H2713 0.930 . S
C2694 C2695 1.474 . S
C2694 C2696 1.285 . S
C2694 H2714 0.929 . S
C2695 C2692 1.461 . S
C2695 C2694 1.474 . S
C2696 C2691 1.342 . S
C2696 C2694 1.285 . S
C2696 H2715 0.930 . S
C2697 C2700 1.424 . S
C2697 C2702 1.245 . S
C2697 C2703 1.428 . S
C2698 C2701 1.260 . S
C2698 C2702 1.477 . S
C2698 H2716 0.932 . S
C2699 C2700 1.384 . S
C2699 C2701 1.479 . S
C2699 H2717 0.929 . S
C2700 C2697 1.424 . S
C2700 C2699 1.384 . S
C2700 H2718 0.928 . S
C2701 C2698 1.260 . S
C2701 C2699 1.479 . S
C2702 C2697 1.245 . S
C2702 C2698 1.477 . S
C2702 H2719 0.932 . S
C2703 U2686 2.882 . S
C2703 C2697 1.428 . S
C2703 O2706 1.301 . S
C2703 O2707 1.282 . S
O2704 U2686 2.441 . S
O2704 C2690 1.249 . S
O2705 U2686 2.420 . S
O2705 C2690 1.202 . S
O2706 U2686 2.455 . S
O2706 C2703 1.301 . S
O2707 U2686 2.449 . S
O2707 C2703 1.282 . S
H2708 C2681 0.931 . S
H2709 C2683 0.929 . S
H2710 C2684 0.930 . S
H2711 C2685 0.931 . S
H2712 C2692 0.932 . S
H2713 C2693 0.930 . S
H2714 C2694 0.929 . S
H2715 C2696 0.930 . S
H2716 C2698 0.932 . S
H2717 C2699 0.929 . S
H2718 C2700 0.928 . S
H2719 C2702 0.932 . S
C2720 C2721 1.264 . S
C2720 C2725 1.479 . S
C2720 C2730 1.465 . S
C2721 C2720 1.264 . S
C2721 C2723 1.339 . S
C2721 H2748 0.931 . S
C2722 C2723 1.395 . S
C2722 C2724 1.320 . S
C2723 C2721 1.339 . S
C2723 C2722 1.395 . S
C2723 H2749 0.929 . S
C2724 C2722 1.320 . S
C2724 C2725 1.405 . S
C2724 H2750 0.930 . S
C2725 C2720 1.479 . S
C2725 C2724 1.405 . S
C2725 H2751 0.931 . S
U2726 O2727 2.454 . S
U2726 O2728 2.458 . S
U2726 C2729 2.984 . S
U2726 C2730 2.847 . S
U2726 C2743 2.882 . S
U2726 O2744 2.441 . S
U2726 O2745 2.420 . S
U2726 O2746 2.455 . S
U2726 O2747 2.449 . S
O2727 U2726 2.454 . S
O2727 C2729 1.353 . S
O2728 U2726 2.458 . S
O2728 C2729 1.286 . S
C2729 U2726 2.984 . S
C2729 O2727 1.353 . S
C2729 O2728 1.286 . S
C2729 C2731 1.363 . S
C2730 C2720 1.465 . S
C2730 U2726 2.847 . S
C2730 O2744 1.249 . S
C2730 O2745 1.202 . S
C2731 C2729 1.363 . S
C2731 C2733 1.408 . S
C2731 C2736 1.342 . S
C2732 C2733 1.310 . S
C2732 C2735 1.461 . S
C2732 H2752 0.932 . S
C2733 C2731 1.408 . S
C2733 C2732 1.310 . S
C2733 H2753 0.930 . S
C2734 C2735 1.474 . S
C2734 C2736 1.285 . S
C2734 H2754 0.929 . S
C2735 C2732 1.461 . S
C2735 C2734 1.474 . S
C2736 C2731 1.342 . S
C2736 C2734 1.285 . S
C2736 H2755 0.930 . S
C2737 C2740 1.424 . S
C2737 C2742 1.245 . S
C2737 C2743 1.428 . S
C2738 C2741 1.260 . S
C2738 C2742 1.477 . S
C2738 H2756 0.932 . S
C2739 C2740 1.384 . S
C2739 C2741 1.479 . S
C2739 H2757 0.929 . S
C2740 C2737 1.424 . S
C2740 C2739 1.384 . S
C2740 H2758 0.928 . S
C2741 C2738 1.260 . S
C2741 C2739 1.479 . S
C2742 C2737 1.245 . S
C2742 C2738 1.477 . S
C2742 H2759 0.932 . S
C2743 U2726 2.882 . S
C2743 C2737 1.428 . S
C2743 O2746 1.301 . S
C2743 O2747 1.282 . S
O2744 U2726 2.441 . S
O2744 C2730 1.249 . S
O2745 U2726 2.420 . S
O2745 C2730 1.202 . S
O2746 U2726 2.455 . S
O2746 C2743 1.301 . S
O2747 U2726 2.449 . S
O2747 C2743 1.282 . S
H2748 C2721 0.931 . S
H2749 C2723 0.929 . S
H2750 C2724 0.930 . S
H2751 C2725 0.931 . S
H2752 C2732 0.932 . S
H2753 C2733 0.930 . S
H2754 C2734 0.929 . S
H2755 C2736 0.930 . S
H2756 C2738 0.932 . S
H2757 C2739 0.929 . S
H2758 C2740 0.928 . S
H2759 C2742 0.932 . S
C2760 C2761 1.264 . S
C2760 C2765 1.479 . S
C2760 C2770 1.465 . S
C2761 C2760 1.264 . S
C2761 C2763 1.339 . S
C2761 H2788 0.931 . S
C2762 C2763 1.395 . S
C2762 C2764 1.320 . S
C2763 C2761 1.339 . S
C2763 C2762 1.395 . S
C2763 H2789 0.929 . S
C2764 C2762 1.320 . S
C2764 C2765 1.405 . S
C2764 H2790 0.930 . S
C2765 C2760 1.479 . S
C2765 C2764 1.405 . S
C2765 H2791 0.931 . S
U2766 O2767 2.454 . S
U2766 O2768 2.458 . S
U2766 C2769 2.984 . S
U2766 C2770 2.847 . S
U2766 C2783 2.882 . S
U2766 O2784 2.441 . S
U2766 O2785 2.420 . S
U2766 O2786 2.455 . S
U2766 O2787 2.449 . S
O2767 U2766 2.454 . S
O2767 C2769 1.353 . S
O2768 U2766 2.458 . S
O2768 C2769 1.286 . S
C2769 U2766 2.984 . S
C2769 O2767 1.353 . S
C2769 O2768 1.286 . S
C2769 C2771 1.363 . S
C2770 C2760 1.465 . S
C2770 U2766 2.847 . S
C2770 O2784 1.249 . S
C2770 O2785 1.202 . S
C2771 C2769 1.363 . S
C2771 C2773 1.408 . S
C2771 C2776 1.342 . S
C2772 C2773 1.310 . S
C2772 C2775 1.461 . S
C2772 H2792 0.932 . S
C2773 C2771 1.408 . S
C2773 C2772 1.310 . S
C2773 H2793 0.930 . S
C2774 C2775 1.474 . S
C2774 C2776 1.285 . S
C2774 H2794 0.929 . S
C2775 C2772 1.461 . S
C2775 C2774 1.474 . S
C2776 C2771 1.342 . S
C2776 C2774 1.285 . S
C2776 H2795 0.930 . S
C2777 C2780 1.424 . S
C2777 C2782 1.245 . S
C2777 C2783 1.428 . S
C2778 C2781 1.260 . S
C2778 C2782 1.477 . S
C2778 H2796 0.932 . S
C2779 C2780 1.384 . S
C2779 C2781 1.479 . S
C2779 H2797 0.929 . S
C2780 C2777 1.424 . S
C2780 C2779 1.384 . S
C2780 H2798 0.928 . S
C2781 C2778 1.260 . S
C2781 C2779 1.479 . S
C2782 C2777 1.245 . S
C2782 C2778 1.477 . S
C2782 H2799 0.932 . S
C2783 U2766 2.882 . S
C2783 C2777 1.428 . S
C2783 O2786 1.301 . S
C2783 O2787 1.282 . S
O2784 U2766 2.441 . S
O2784 C2770 1.249 . S
O2785 U2766 2.420 . S
O2785 C2770 1.202 . S
O2786 U2766 2.455 . S
O2786 C2783 1.301 . S
O2787 U2766 2.449 . S
O2787 C2783 1.282 . S
H2788 C2761 0.931 . S
H2789 C2763 0.929 . S
H2790 C2764 0.930 . S
H2791 C2765 0.931 . S
H2792 C2772 0.932 . S
H2793 C2773 0.930 . S
H2794 C2774 0.929 . S
H2795 C2776 0.930 . S
H2796 C2778 0.932 . S
H2797 C2779 0.929 . S
H2798 C2780 0.928 . S
H2799 C2782 0.932 . S
C2800 C2801 1.264 . S
C2800 C2805 1.479 . S
C2800 C2810 1.465 . S
C2801 C2800 1.264 . S
C2801 C2803 1.339 . S
C2801 H2828 0.931 . S
C2802 C2803 1.395 . S
C2802 C2804 1.320 . S
C2803 C2801 1.339 . S
C2803 C2802 1.395 . S
C2803 H2829 0.929 . S
C2804 C2802 1.320 . S
C2804 C2805 1.405 . S
C2804 H2830 0.930 . S
C2805 C2800 1.479 . S
C2805 C2804 1.405 . S
C2805 H2831 0.931 . S
U2806 O2807 2.454 . S
U2806 O2808 2.458 . S
U2806 C2809 2.984 . S
U2806 C2810 2.847 . S
U2806 C2823 2.882 . S
U2806 O2824 2.441 . S
U2806 O2825 2.420 . S
U2806 O2826 2.455 . S
U2806 O2827 2.449 . S
O2807 U2806 2.454 . S
O2807 C2809 1.353 . S
O2808 U2806 2.458 . S
O2808 C2809 1.286 . S
C2809 U2806 2.984 . S
C2809 O2807 1.353 . S
C2809 O2808 1.286 . S
C2809 C2811 1.363 . S
C2810 C2800 1.465 . S
C2810 U2806 2.847 . S
C2810 O2824 1.249 . S
C2810 O2825 1.202 . S
C2811 C2809 1.363 . S
C2811 C2813 1.408 . S
C2811 C2816 1.342 . S
C2812 C2813 1.310 . S
C2812 C2815 1.461 . S
C2812 H2832 0.932 . S
C2813 C2811 1.408 . S
C2813 C2812 1.310 . S
C2813 H2833 0.930 . S
C2814 C2815 1.474 . S
C2814 C2816 1.285 . S
C2814 H2834 0.929 . S
C2815 C2812 1.461 . S
C2815 C2814 1.474 . S
C2816 C2811 1.342 . S
C2816 C2814 1.285 . S
C2816 H2835 0.930 . S
C2817 C2820 1.424 . S
C2817 C2822 1.245 . S
C2817 C2823 1.428 . S
C2818 C2821 1.260 . S
C2818 C2822 1.477 . S
C2818 H2836 0.932 . S
C2819 C2820 1.384 . S
C2819 C2821 1.479 . S
C2819 H2837 0.929 . S
C2820 C2817 1.424 . S
C2820 C2819 1.384 . S
C2820 H2838 0.928 . S
C2821 C2818 1.260 . S
C2821 C2819 1.479 . S
C2822 C2817 1.245 . S
C2822 C2818 1.477 . S
C2822 H2839 0.932 . S
C2823 U2806 2.882 . S
C2823 C2817 1.428 . S
C2823 O2826 1.301 . S
C2823 O2827 1.282 . S
O2824 U2806 2.441 . S
O2824 C2810 1.249 . S
O2825 U2806 2.420 . S
O2825 C2810 1.202 . S
O2826 U2806 2.455 . S
O2826 C2823 1.301 . S
O2827 U2806 2.449 . S
O2827 C2823 1.282 . S
H2828 C2801 0.931 . S
H2829 C2803 0.929 . S
H2830 C2804 0.930 . S
H2831 C2805 0.931 . S
H2832 C2812 0.932 . S
H2833 C2813 0.930 . S
H2834 C2814 0.929 . S
H2835 C2816 0.930 . S
H2836 C2818 0.932 . S
H2837 C2819 0.929 . S
H2838 C2820 0.928 . S
H2839 C2822 0.932 . S
C2840 C2841 1.264 . S
C2840 C2845 1.479 . S
C2840 C2850 1.465 . S
C2841 C2840 1.264 . S
C2841 C2843 1.339 . S
C2841 H2868 0.931 . S
C2842 C2843 1.395 . S
C2842 C2844 1.320 . S
C2843 C2841 1.339 . S
C2843 C2842 1.395 . S
C2843 H2869 0.929 . S
C2844 C2842 1.320 . S
C2844 C2845 1.405 . S
C2844 H2870 0.930 . S
C2845 C2840 1.479 . S
C2845 C2844 1.405 . S
C2845 H2871 0.931 . S
U2846 O2847 2.454 . S
U2846 O2848 2.458 . S
U2846 C2849 2.984 . S
U2846 C2850 2.847 . S
U2846 C2863 2.882 . S
U2846 O2864 2.441 . S
U2846 O2865 2.420 . S
U2846 O2866 2.455 . S
U2846 O2867 2.449 . S
O2847 U2846 2.454 . S
O2847 C2849 1.353 . S
O2848 U2846 2.458 . S
O2848 C2849 1.286 . S
C2849 U2846 2.984 . S
C2849 O2847 1.353 . S
C2849 O2848 1.286 . S
C2849 C2851 1.363 . S
C2850 C2840 1.465 . S
C2850 U2846 2.847 . S
C2850 O2864 1.249 . S
C2850 O2865 1.202 . S
C2851 C2849 1.363 . S
C2851 C2853 1.408 . S
C2851 C2856 1.342 . S
C2852 C2853 1.310 . S
C2852 C2855 1.461 . S
C2852 H2872 0.932 . S
C2853 C2851 1.408 . S
C2853 C2852 1.310 . S
C2853 H2873 0.930 . S
C2854 C2855 1.474 . S
C2854 C2856 1.285 . S
C2854 H2874 0.929 . S
C2855 C2852 1.461 . S
C2855 C2854 1.474 . S
C2856 C2851 1.342 . S
C2856 C2854 1.285 . S
C2856 H2875 0.930 . S
C2857 C2860 1.424 . S
C2857 C2862 1.245 . S
C2857 C2863 1.428 . S
C2858 C2861 1.260 . S
C2858 C2862 1.477 . S
C2858 H2876 0.932 . S
C2859 C2860 1.384 . S
C2859 C2861 1.479 . S
C2859 H2877 0.929 . S
C2860 C2857 1.424 . S
C2860 C2859 1.384 . S
C2860 H2878 0.928 . S
C2861 C2858 1.260 . S
C2861 C2859 1.479 . S
C2862 C2857 1.245 . S
C2862 C2858 1.477 . S
C2862 H2879 0.932 . S
C2863 U2846 2.882 . S
C2863 C2857 1.428 . S
C2863 O2866 1.301 . S
C2863 O2867 1.282 . S
O2864 U2846 2.441 . S
O2864 C2850 1.249 . S
O2865 U2846 2.420 . S
O2865 C2850 1.202 . S
O2866 U2846 2.455 . S
O2866 C2863 1.301 . S
O2867 U2846 2.449 . S
O2867 C2863 1.282 . S
H2868 C2841 0.931 . S
H2869 C2843 0.929 . S
H2870 C2844 0.930 . S
H2871 C2845 0.931 . S
H2872 C2852 0.932 . S
H2873 C2853 0.930 . S
H2874 C2854 0.929 . S
H2875 C2856 0.930 . S
H2876 C2858 0.932 . S
H2877 C2859 0.929 . S
H2878 C2860 0.928 . S
H2879 C2862 0.932 . S
C2880 C2881 1.264 . S
C2880 C2885 1.479 . S
C2880 C2890 1.465 . S
C2881 C2880 1.264 . S
C2881 C2883 1.339 . S
C2881 H2908 0.931 . S
C2882 C2883 1.395 . S
C2882 C2884 1.320 . S
C2883 C2881 1.339 . S
C2883 C2882 1.395 . S
C2883 H2909 0.929 . S
C2884 C2882 1.320 . S
C2884 C2885 1.405 . S
C2884 H2910 0.930 . S
C2885 C2880 1.479 . S
C2885 C2884 1.405 . S
C2885 H2911 0.931 . S
U2886 O2887 2.454 . S
U2886 O2888 2.458 . S
U2886 C2889 2.984 . S
U2886 C2890 2.847 . S
U2886 C2903 2.882 . S
U2886 O2904 2.441 . S
U2886 O2905 2.420 . S
U2886 O2906 2.455 . S
U2886 O2907 2.449 . S
O2887 U2886 2.454 . S
O2887 C2889 1.353 . S
O2888 U2886 2.458 . S
O2888 C2889 1.286 . S
C2889 U2886 2.984 . S
C2889 O2887 1.353 . S
C2889 O2888 1.286 . S
C2889 C2891 1.363 . S
C2890 C2880 1.465 . S
C2890 U2886 2.847 . S
C2890 O2904 1.249 . S
C2890 O2905 1.202 . S
C2891 C2889 1.363 . S
C2891 C2893 1.408 . S
C2891 C2896 1.342 . S
C2892 C2893 1.310 . S
C2892 C2895 1.461 . S
C2892 H2912 0.932 . S
C2893 C2891 1.408 . S
C2893 C2892 1.310 . S
C2893 H2913 0.930 . S
C2894 C2895 1.474 . S
C2894 C2896 1.285 . S
C2894 H2914 0.929 . S
C2895 C2892 1.461 . S
C2895 C2894 1.474 . S
C2896 C2891 1.342 . S
C2896 C2894 1.285 . S
C2896 H2915 0.930 . S
C2897 C2900 1.424 . S
C2897 C2902 1.245 . S
C2897 C2903 1.428 . S
C2898 C2901 1.260 . S
C2898 C2902 1.477 . S
C2898 H2916 0.932 . S
C2899 C2900 1.384 . S
C2899 C2901 1.479 . S
C2899 H2917 0.929 . S
C2900 C2897 1.424 . S
C2900 C2899 1.384 . S
C2900 H2918 0.928 . S
C2901 C2898 1.260 . S
C2901 C2899 1.479 . S
C2902 C2897 1.245 . S
C2902 C2898 1.477 . S
C2902 H2919 0.932 . S
C2903 U2886 2.882 . S
C2903 C2897 1.428 . S
C2903 O2906 1.301 . S
C2903 O2907 1.282 . S
O2904 U2886 2.441 . S
O2904 C2890 1.249 . S
O2905 U2886 2.420 . S
O2905 C2890 1.202 . S
O2906 U2886 2.455 . S
O2906 C2903 1.301 . S
O2907 U2886 2.449 . S
O2907 C2903 1.282 . S
H2908 C2881 0.931 . S
H2909 C2883 0.929 . S
H2910 C2884 0.930 . S
H2911 C2885 0.931 . S
H2912 C2892 0.932 . S
H2913 C2893 0.930 . S
H2914 C2894 0.929 . S
H2915 C2896 0.930 . S
H2916 C2898 0.932 . S
H2917 C2899 0.929 . S
H2918 C2900 0.928 . S
H2919 C2902 0.932 . S
C2920 C2921 1.264 . S
C2920 C2925 1.479 . S
C2920 C2930 1.465 . S
C2921 C2920 1.264 . S
C2921 C2923 1.339 . S
C2921 H2948 0.931 . S
C2922 C2923 1.395 . S
C2922 C2924 1.320 . S
C2923 C2921 1.339 . S
C2923 C2922 1.395 . S
C2923 H2949 0.929 . S
C2924 C2922 1.320 . S
C2924 C2925 1.405 . S
C2924 H2950 0.930 . S
C2925 C2920 1.479 . S
C2925 C2924 1.405 . S
C2925 H2951 0.931 . S
U2926 O2927 2.454 . S
U2926 O2928 2.458 . S
U2926 C2929 2.984 . S
U2926 C2930 2.847 . S
U2926 C2943 2.882 . S
U2926 O2944 2.441 . S
U2926 O2945 2.420 . S
U2926 O2946 2.455 . S
U2926 O2947 2.449 . S
O2927 U2926 2.454 . S
O2927 C2929 1.353 . S
O2928 U2926 2.458 . S
O2928 C2929 1.286 . S
C2929 U2926 2.984 . S
C2929 O2927 1.353 . S
C2929 O2928 1.286 . S
C2929 C2931 1.363 . S
C2930 C2920 1.465 . S
C2930 U2926 2.847 . S
C2930 O2944 1.249 . S
C2930 O2945 1.202 . S
C2931 C2929 1.363 . S
C2931 C2933 1.408 . S
C2931 C2936 1.342 . S
C2932 C2933 1.310 . S
C2932 C2935 1.461 . S
C2932 H2952 0.932 . S
C2933 C2931 1.408 . S
C2933 C2932 1.310 . S
C2933 H2953 0.930 . S
C2934 C2935 1.474 . S
C2934 C2936 1.285 . S
C2934 H2954 0.929 . S
C2935 C2932 1.461 . S
C2935 C2934 1.474 . S
C2936 C2931 1.342 . S
C2936 C2934 1.285 . S
C2936 H2955 0.930 . S
C2937 C2940 1.424 . S
C2937 C2942 1.245 . S
C2937 C2943 1.428 . S
C2938 C2941 1.260 . S
C2938 C2942 1.477 . S
C2938 H2956 0.932 . S
C2939 C2940 1.384 . S
C2939 C2941 1.479 . S
C2939 H2957 0.929 . S
C2940 C2937 1.424 . S
C2940 C2939 1.384 . S
C2940 H2958 0.928 . S
C2941 C2938 1.260 . S
C2941 C2939 1.479 . S
C2942 C2937 1.245 . S
C2942 C2938 1.477 . S
C2942 H2959 0.932 . S
C2943 U2926 2.882 . S
C2943 C2937 1.428 . S
C2943 O2946 1.301 . S
C2943 O2947 1.282 . S
O2944 U2926 2.441 . S
O2944 C2930 1.249 . S
O2945 U2926 2.420 . S
O2945 C2930 1.202 . S
O2946 U2926 2.455 . S
O2946 C2943 1.301 . S
O2947 U2926 2.449 . S
O2947 C2943 1.282 . S
H2948 C2921 0.931 . S
H2949 C2923 0.929 . S
H2950 C2924 0.930 . S
H2951 C2925 0.931 . S
H2952 C2932 0.932 . S
H2953 C2933 0.930 . S
H2954 C2934 0.929 . S
H2955 C2936 0.930 . S
H2956 C2938 0.932 . S
H2957 C2939 0.929 . S
H2958 C2940 0.928 . S
H2959 C2942 0.932 . S
C2960 C2961 1.264 . S
C2960 C2965 1.479 . S
C2960 C2970 1.465 . S
C2961 C2960 1.264 . S
C2961 C2963 1.339 . S
C2961 H2988 0.931 . S
C2962 C2963 1.395 . S
C2962 C2964 1.320 . S
C2963 C2961 1.339 . S
C2963 C2962 1.395 . S
C2963 H2989 0.929 . S
C2964 C2962 1.320 . S
C2964 C2965 1.405 . S
C2964 H2990 0.930 . S
C2965 C2960 1.479 . S
C2965 C2964 1.405 . S
C2965 H2991 0.931 . S
U2966 O2967 2.454 . S
U2966 O2968 2.458 . S
U2966 C2969 2.984 . S
U2966 C2970 2.847 . S
U2966 C2983 2.882 . S
U2966 O2984 2.441 . S
U2966 O2985 2.420 . S
U2966 O2986 2.455 . S
U2966 O2987 2.449 . S
O2967 U2966 2.454 . S
O2967 C2969 1.353 . S
O2968 U2966 2.458 . S
O2968 C2969 1.286 . S
C2969 U2966 2.984 . S
C2969 O2967 1.353 . S
C2969 O2968 1.286 . S
C2969 C2971 1.363 . S
C2970 C2960 1.465 . S
C2970 U2966 2.847 . S
C2970 O2984 1.249 . S
C2970 O2985 1.202 . S
C2971 C2969 1.363 . S
C2971 C2973 1.408 . S
C2971 C2976 1.342 . S
C2972 C2973 1.310 . S
C2972 C2975 1.461 . S
C2972 H2992 0.932 . S
C2973 C2971 1.408 . S
C2973 C2972 1.310 . S
C2973 H2993 0.930 . S
C2974 C2975 1.474 . S
C2974 C2976 1.285 . S
C2974 H2994 0.929 . S
C2975 C2972 1.461 . S
C2975 C2974 1.474 . S
C2976 C2971 1.342 . S
C2976 C2974 1.285 . S
C2976 H2995 0.930 . S
C2977 C2980 1.424 . S
C2977 C2982 1.245 . S
C2977 C2983 1.428 . S
C2978 C2981 1.260 . S
C2978 C2982 1.477 . S
C2978 H2996 0.932 . S
C2979 C2980 1.384 . S
C2979 C2981 1.479 . S
C2979 H2997 0.929 . S
C2980 C2977 1.424 . S
C2980 C2979 1.384 . S
C2980 H2998 0.928 . S
C2981 C2978 1.260 . S
C2981 C2979 1.479 . S
C2982 C2977 1.245 . S
C2982 C2978 1.477 . S
C2982 H2999 0.932 . S
C2983 U2966 2.882 . S
C2983 C2977 1.428 . S
C2983 O2986 1.301 . S
C2983 O2987 1.282 . S
O2984 U2966 2.441 . S
O2984 C2970 1.249 . S
O2985 U2966 2.420 . S
O2985 C2970 1.202 . S
O2986 U2966 2.455 . S
O2986 C2983 1.301 . S
O2987 U2966 2.449 . S
O2987 C2983 1.282 . S
H2988 C2961 0.931 . S
H2989 C2963 0.929 . S
H2990 C2964 0.930 . S
H2991 C2965 0.931 . S
H2992 C2972 0.932 . S
H2993 C2973 0.930 . S
H2994 C2974 0.929 . S
H2995 C2976 0.930 . S
H2996 C2978 0.932 . S
H2997 C2979 0.929 . S
H2998 C2980 0.928 . S
H2999 C2982 0.932 . S
C3000 C3001 1.264 . S
C3000 C3005 1.479 . S
C3000 C3010 1.465 . S
C3001 C3000 1.264 . S
C3001 C3003 1.339 . S
C3001 H3028 0.931 . S
C3002 C3003 1.395 . S
C3002 C3004 1.320 . S
C3003 C3001 1.339 . S
C3003 C3002 1.395 . S
C3003 H3029 0.929 . S
C3004 C3002 1.320 . S
C3004 C3005 1.405 . S
C3004 H3030 0.930 . S
C3005 C3000 1.479 . S
C3005 C3004 1.405 . S
C3005 H3031 0.931 . S
U3006 O3007 2.454 . S
U3006 O3008 2.458 . S
U3006 C3009 2.984 . S
U3006 C3010 2.847 . S
U3006 C3023 2.882 . S
U3006 O3024 2.441 . S
U3006 O3025 2.420 . S
U3006 O3026 2.455 . S
U3006 O3027 2.449 . S
O3007 U3006 2.454 . S
O3007 C3009 1.353 . S
O3008 U3006 2.458 . S
O3008 C3009 1.286 . S
C3009 U3006 2.984 . S
C3009 O3007 1.353 . S
C3009 O3008 1.286 . S
C3009 C3011 1.363 . S
C3010 C3000 1.465 . S
C3010 U3006 2.847 . S
C3010 O3024 1.249 . S
C3010 O3025 1.202 . S
C3011 C3009 1.363 . S
C3011 C3013 1.408 . S
C3011 C3016 1.342 . S
C3012 C3013 1.310 . S
C3012 C3015 1.461 . S
C3012 H3032 0.932 . S
C3013 C3011 1.408 . S
C3013 C3012 1.310 . S
C3013 H3033 0.930 . S
C3014 C3015 1.474 . S
C3014 C3016 1.285 . S
C3014 H3034 0.929 . S
C3015 C3012 1.461 . S
C3015 C3014 1.474 . S
C3016 C3011 1.342 . S
C3016 C3014 1.285 . S
C3016 H3035 0.930 . S
C3017 C3020 1.424 . S
C3017 C3022 1.245 . S
C3017 C3023 1.428 . S
C3018 C3021 1.260 . S
C3018 C3022 1.477 . S
C3018 H3036 0.932 . S
C3019 C3020 1.384 . S
C3019 C3021 1.479 . S
C3019 H3037 0.929 . S
C3020 C3017 1.424 . S
C3020 C3019 1.384 . S
C3020 H3038 0.928 . S
C3021 C3018 1.260 . S
C3021 C3019 1.479 . S
C3022 C3017 1.245 . S
C3022 C3018 1.477 . S
C3022 H3039 0.932 . S
C3023 U3006 2.882 . S
C3023 C3017 1.428 . S
C3023 O3026 1.301 . S
C3023 O3027 1.282 . S
O3024 U3006 2.441 . S
O3024 C3010 1.249 . S
O3025 U3006 2.420 . S
O3025 C3010 1.202 . S
O3026 U3006 2.455 . S
O3026 C3023 1.301 . S
O3027 U3006 2.449 . S
O3027 C3023 1.282 . S
H3028 C3001 0.931 . S
H3029 C3003 0.929 . S
H3030 C3004 0.930 . S
H3031 C3005 0.931 . S
H3032 C3012 0.932 . S
H3033 C3013 0.930 . S
H3034 C3014 0.929 . S
H3035 C3016 0.930 . S
H3036 C3018 0.932 . S
H3037 C3019 0.929 . S
H3038 C3020 0.928 . S
H3039 C3022 0.932 . S
C3040 C3041 1.264 . S
C3040 C3045 1.479 . S
C3040 C3050 1.465 . S
C3041 C3040 1.264 . S
C3041 C3043 1.339 . S
C3041 H3068 0.931 . S
C3042 C3043 1.395 . S
C3042 C3044 1.320 . S
C3043 C3041 1.339 . S
C3043 C3042 1.395 . S
C3043 H3069 0.929 . S
C3044 C3042 1.320 . S
C3044 C3045 1.405 . S
C3044 H3070 0.930 . S
C3045 C3040 1.479 . S
C3045 C3044 1.405 . S
C3045 H3071 0.931 . S
U3046 O3047 2.454 . S
U3046 O3048 2.458 . S
U3046 C3049 2.984 . S
U3046 C3050 2.847 . S
U3046 C3063 2.882 . S
U3046 O3064 2.441 . S
U3046 O3065 2.420 . S
U3046 O3066 2.455 . S
U3046 O3067 2.449 . S
O3047 U3046 2.454 . S
O3047 C3049 1.353 . S
O3048 U3046 2.458 . S
O3048 C3049 1.286 . S
C3049 U3046 2.984 . S
C3049 O3047 1.353 . S
C3049 O3048 1.286 . S
C3049 C3051 1.363 . S
C3050 C3040 1.465 . S
C3050 U3046 2.847 . S
C3050 O3064 1.249 . S
C3050 O3065 1.202 . S
C3051 C3049 1.363 . S
C3051 C3053 1.408 . S
C3051 C3056 1.342 . S
C3052 C3053 1.310 . S
C3052 C3055 1.461 . S
C3052 H3072 0.932 . S
C3053 C3051 1.408 . S
C3053 C3052 1.310 . S
C3053 H3073 0.930 . S
C3054 C3055 1.474 . S
C3054 C3056 1.285 . S
C3054 H3074 0.929 . S
C3055 C3052 1.461 . S
C3055 C3054 1.474 . S
C3056 C3051 1.342 . S
C3056 C3054 1.285 . S
C3056 H3075 0.930 . S
C3057 C3060 1.424 . S
C3057 C3062 1.245 . S
C3057 C3063 1.428 . S
C3058 C3061 1.260 . S
C3058 C3062 1.477 . S
C3058 H3076 0.932 . S
C3059 C3060 1.384 . S
C3059 C3061 1.479 . S
C3059 H3077 0.929 . S
C3060 C3057 1.424 . S
C3060 C3059 1.384 . S
C3060 H3078 0.928 . S
C3061 C3058 1.260 . S
C3061 C3059 1.479 . S
C3062 C3057 1.245 . S
C3062 C3058 1.477 . S
C3062 H3079 0.932 . S
C3063 U3046 2.882 . S
C3063 C3057 1.428 . S
C3063 O3066 1.301 . S
C3063 O3067 1.282 . S
O3064 U3046 2.441 . S
O3064 C3050 1.249 . S
O3065 U3046 2.420 . S
O3065 C3050 1.202 . S
O3066 U3046 2.455 . S
O3066 C3063 1.301 . S
O3067 U3046 2.449 . S
O3067 C3063 1.282 . S
H3068 C3041 0.931 . S
H3069 C3043 0.929 . S
H3070 C3044 0.930 . S
H3071 C3045 0.931 . S
H3072 C3052 0.932 . S
H3073 C3053 0.930 . S
H3074 C3054 0.929 . S
H3075 C3056 0.930 . S
H3076 C3058 0.932 . S
H3077 C3059 0.929 . S
H3078 C3060 0.928 . S
H3079 C3062 0.932 . S
C3080 C3081 1.264 . S
C3080 C3085 1.479 . S
C3080 C3090 1.465 . S
C3081 C3080 1.264 . S
C3081 C3083 1.339 . S
C3081 H3108 0.931 . S
C3082 C3083 1.395 . S
C3082 C3084 1.320 . S
C3083 C3081 1.339 . S
C3083 C3082 1.395 . S
C3083 H3109 0.929 . S
C3084 C3082 1.320 . S
C3084 C3085 1.405 . S
C3084 H3110 0.930 . S
C3085 C3080 1.479 . S
C3085 C3084 1.405 . S
C3085 H3111 0.931 . S
U3086 O3087 2.454 . S
U3086 O3088 2.458 . S
U3086 C3089 2.984 . S
U3086 C3090 2.847 . S
U3086 C3103 2.882 . S
U3086 O3104 2.441 . S
U3086 O3105 2.420 . S
U3086 O3106 2.455 . S
U3086 O3107 2.449 . S
O3087 U3086 2.454 . S
O3087 C3089 1.353 . S
O3088 U3086 2.458 . S
O3088 C3089 1.286 . S
C3089 U3086 2.984 . S
C3089 O3087 1.353 . S
C3089 O3088 1.286 . S
C3089 C3091 1.363 . S
C3090 C3080 1.465 . S
C3090 U3086 2.847 . S
C3090 O3104 1.249 . S
C3090 O3105 1.202 . S
C3091 C3089 1.363 . S
C3091 C3093 1.408 . S
C3091 C3096 1.342 . S
C3092 C3093 1.310 . S
C3092 C3095 1.461 . S
C3092 H3112 0.932 . S
C3093 C3091 1.408 . S
C3093 C3092 1.310 . S
C3093 H3113 0.930 . S
C3094 C3095 1.474 . S
C3094 C3096 1.285 . S
C3094 H3114 0.929 . S
C3095 C3092 1.461 . S
C3095 C3094 1.474 . S
C3096 C3091 1.342 . S
C3096 C3094 1.285 . S
C3096 H3115 0.930 . S
C3097 C3100 1.424 . S
C3097 C3102 1.245 . S
C3097 C3103 1.428 . S
C3098 C3101 1.260 . S
C3098 C3102 1.477 . S
C3098 H3116 0.932 . S
C3099 C3100 1.384 . S
C3099 C3101 1.479 . S
C3099 H3117 0.929 . S
C3100 C3097 1.424 . S
C3100 C3099 1.384 . S
C3100 H3118 0.928 . S
C3101 C3098 1.260 . S
C3101 C3099 1.479 . S
C3102 C3097 1.245 . S
C3102 C3098 1.477 . S
C3102 H3119 0.932 . S
C3103 U3086 2.882 . S
C3103 C3097 1.428 . S
C3103 O3106 1.301 . S
C3103 O3107 1.282 . S
O3104 U3086 2.441 . S
O3104 C3090 1.249 . S
O3105 U3086 2.420 . S
O3105 C3090 1.202 . S
O3106 U3086 2.455 . S
O3106 C3103 1.301 . S
O3107 U3086 2.449 . S
O3107 C3103 1.282 . S
H3108 C3081 0.931 . S
H3109 C3083 0.929 . S
H3110 C3084 0.930 . S
H3111 C3085 0.931 . S
H3112 C3092 0.932 . S
H3113 C3093 0.930 . S
H3114 C3094 0.929 . S
H3115 C3096 0.930 . S
H3116 C3098 0.932 . S
H3117 C3099 0.929 . S
H3118 C3100 0.928 . S
H3119 C3102 0.932 . S
C3120 C3121 1.264 . S
C3120 C3125 1.479 . S
C3120 C3130 1.465 . S
C3121 C3120 1.264 . S
C3121 C3123 1.339 . S
C3121 H3148 0.931 . S
C3122 C3123 1.395 . S
C3122 C3124 1.320 . S
C3123 C3121 1.339 . S
C3123 C3122 1.395 . S
C3123 H3149 0.929 . S
C3124 C3122 1.320 . S
C3124 C3125 1.405 . S
C3124 H3150 0.930 . S
C3125 C3120 1.479 . S
C3125 C3124 1.405 . S
C3125 H3151 0.931 . S
U3126 O3127 2.454 . S
U3126 O3128 2.458 . S
U3126 C3129 2.984 . S
U3126 C3130 2.847 . S
U3126 C3143 2.882 . S
U3126 O3144 2.441 . S
U3126 O3145 2.420 . S
U3126 O3146 2.455 . S
U3126 O3147 2.449 . S
O3127 U3126 2.454 . S
O3127 C3129 1.353 . S
O3128 U3126 2.458 . S
O3128 C3129 1.286 . S
C3129 U3126 2.984 . S
C3129 O3127 1.353 . S
C3129 O3128 1.286 . S
C3129 C3131 1.363 . S
C3130 C3120 1.465 . S
C3130 U3126 2.847 . S
C3130 O3144 1.249 . S
C3130 O3145 1.202 . S
C3131 C3129 1.363 . S
C3131 C3133 1.408 . S
C3131 C3136 1.342 . S
C3132 C3133 1.310 . S
C3132 C3135 1.461 . S
C3132 H3152 0.932 . S
C3133 C3131 1.408 . S
C3133 C3132 1.310 . S
C3133 H3153 0.930 . S
C3134 C3135 1.474 . S
C3134 C3136 1.285 . S
C3134 H3154 0.929 . S
C3135 C3132 1.461 . S
C3135 C3134 1.474 . S
C3136 C3131 1.342 . S
C3136 C3134 1.285 . S
C3136 H3155 0.930 . S
C3137 C3140 1.424 . S
C3137 C3142 1.245 . S
C3137 C3143 1.428 . S
C3138 C3141 1.260 . S
C3138 C3142 1.477 . S
C3138 H3156 0.932 . S
C3139 C3140 1.384 . S
C3139 C3141 1.479 . S
C3139 H3157 0.929 . S
C3140 C3137 1.424 . S
C3140 C3139 1.384 . S
C3140 H3158 0.928 . S
C3141 C3138 1.260 . S
C3141 C3139 1.479 . S
C3142 C3137 1.245 . S
C3142 C3138 1.477 . S
C3142 H3159 0.932 . S
C3143 U3126 2.882 . S
C3143 C3137 1.428 . S
C3143 O3146 1.301 . S
C3143 O3147 1.282 . S
O3144 U3126 2.441 . S
O3144 C3130 1.249 . S
O3145 U3126 2.420 . S
O3145 C3130 1.202 . S
O3146 U3126 2.455 . S
O3146 C3143 1.301 . S
O3147 U3126 2.449 . S
O3147 C3143 1.282 . S
H3148 C3121 0.931 . S
H3149 C3123 0.929 . S
H3150 C3124 0.930 . S
H3151 C3125 0.931 . S
H3152 C3132 0.932 . S
H3153 C3133 0.930 . S
H3154 C3134 0.929 . S
H3155 C3136 0.930 . S
H3156 C3138 0.932 . S
H3157 C3139 0.929 . S
H3158 C3140 0.928 . S
H3159 C3142 0.932 . S
C3160 C3161 1.264 . S
C3160 C3165 1.479 . S
C3160 C3170 1.465 . S
C3161 C3160 1.264 . S
C3161 C3163 1.339 . S
C3161 H3188 0.931 . S
C3162 C3163 1.395 . S
C3162 C3164 1.320 . S
C3163 C3161 1.339 . S
C3163 C3162 1.395 . S
C3163 H3189 0.929 . S
C3164 C3162 1.320 . S
C3164 C3165 1.405 . S
C3164 H3190 0.930 . S
C3165 C3160 1.479 . S
C3165 C3164 1.405 . S
C3165 H3191 0.931 . S
U3166 O3167 2.454 . S
U3166 O3168 2.458 . S
U3166 C3169 2.984 . S
U3166 C3170 2.847 . S
U3166 C3183 2.882 . S
U3166 O3184 2.441 . S
U3166 O3185 2.420 . S
U3166 O3186 2.455 . S
U3166 O3187 2.449 . S
O3167 U3166 2.454 . S
O3167 C3169 1.353 . S
O3168 U3166 2.458 . S
O3168 C3169 1.286 . S
C3169 U3166 2.984 . S
C3169 O3167 1.353 . S
C3169 O3168 1.286 . S
C3169 C3171 1.363 . S
C3170 C3160 1.465 . S
C3170 U3166 2.847 . S
C3170 O3184 1.249 . S
C3170 O3185 1.202 . S
C3171 C3169 1.363 . S
C3171 C3173 1.408 . S
C3171 C3176 1.342 . S
C3172 C3173 1.310 . S
C3172 C3175 1.461 . S
C3172 H3192 0.932 . S
C3173 C3171 1.408 . S
C3173 C3172 1.310 . S
C3173 H3193 0.930 . S
C3174 C3175 1.474 . S
C3174 C3176 1.285 . S
C3174 H3194 0.929 . S
C3175 C3172 1.461 . S
C3175 C3174 1.474 . S
C3176 C3171 1.342 . S
C3176 C3174 1.285 . S
C3176 H3195 0.930 . S
C3177 C3180 1.424 . S
C3177 C3182 1.245 . S
C3177 C3183 1.428 . S
C3178 C3181 1.260 . S
C3178 C3182 1.477 . S
C3178 H3196 0.932 . S
C3179 C3180 1.384 . S
C3179 C3181 1.479 . S
C3179 H3197 0.929 . S
C3180 C3177 1.424 . S
C3180 C3179 1.384 . S
C3180 H3198 0.928 . S
C3181 C3178 1.260 . S
C3181 C3179 1.479 . S
C3182 C3177 1.245 . S
C3182 C3178 1.477 . S
C3182 H3199 0.932 . S
C3183 U3166 2.882 . S
C3183 C3177 1.428 . S
C3183 O3186 1.301 . S
C3183 O3187 1.282 . S
O3184 U3166 2.441 . S
O3184 C3170 1.249 . S
O3185 U3166 2.420 . S
O3185 C3170 1.202 . S
O3186 U3166 2.455 . S
O3186 C3183 1.301 . S
O3187 U3166 2.449 . S
O3187 C3183 1.282 . S
H3188 C3161 0.931 . S
H3189 C3163 0.929 . S
H3190 C3164 0.930 . S
H3191 C3165 0.931 . S
H3192 C3172 0.932 . S
H3193 C3173 0.930 . S
H3194 C3174 0.929 . S
H3195 C3176 0.930 . S
H3196 C3178 0.932 . S
H3197 C3179 0.929 . S
H3198 C3180 0.928 . S
H3199 C3182 0.932 . S
C3200 C3201 1.264 . S
C3200 C3205 1.479 . S
C3200 C3210 1.465 . S
C3201 C3200 1.264 . S
C3201 C3203 1.339 . S
C3201 H3228 0.931 . S
C3202 C3203 1.395 . S
C3202 C3204 1.320 . S
C3203 C3201 1.339 . S
C3203 C3202 1.395 . S
C3203 H3229 0.929 . S
C3204 C3202 1.320 . S
C3204 C3205 1.405 . S
C3204 H3230 0.930 . S
C3205 C3200 1.479 . S
C3205 C3204 1.405 . S
C3205 H3231 0.931 . S
U3206 O3207 2.454 . S
U3206 O3208 2.458 . S
U3206 C3209 2.984 . S
U3206 C3210 2.847 . S
U3206 C3223 2.882 . S
U3206 O3224 2.441 . S
U3206 O3225 2.420 . S
U3206 O3226 2.455 . S
U3206 O3227 2.449 . S
O3207 U3206 2.454 . S
O3207 C3209 1.353 . S
O3208 U3206 2.458 . S
O3208 C3209 1.286 . S
C3209 U3206 2.984 . S
C3209 O3207 1.353 . S
C3209 O3208 1.286 . S
C3209 C3211 1.363 . S
C3210 C3200 1.465 . S
C3210 U3206 2.847 . S
C3210 O3224 1.249 . S
C3210 O3225 1.202 . S
C3211 C3209 1.363 . S
C3211 C3213 1.408 . S
C3211 C3216 1.342 . S
C3212 C3213 1.310 . S
C3212 C3215 1.461 . S
C3212 H3232 0.932 . S
C3213 C3211 1.408 . S
C3213 C3212 1.310 . S
C3213 H3233 0.930 . S
C3214 C3215 1.474 . S
C3214 C3216 1.285 . S
C3214 H3234 0.929 . S
C3215 C3212 1.461 . S
C3215 C3214 1.474 . S
C3216 C3211 1.342 . S
C3216 C3214 1.285 . S
C3216 H3235 0.930 . S
C3217 C3220 1.424 . S
C3217 C3222 1.245 . S
C3217 C3223 1.428 . S
C3218 C3221 1.260 . S
C3218 C3222 1.477 . S
C3218 H3236 0.932 . S
C3219 C3220 1.384 . S
C3219 C3221 1.479 . S
C3219 H3237 0.929 . S
C3220 C3217 1.424 . S
C3220 C3219 1.384 . S
C3220 H3238 0.928 . S
C3221 C3218 1.260 . S
C3221 C3219 1.479 . S
C3222 C3217 1.245 . S
C3222 C3218 1.477 . S
C3222 H3239 0.932 . S
C3223 U3206 2.882 . S
C3223 C3217 1.428 . S
C3223 O3226 1.301 . S
C3223 O3227 1.282 . S
O3224 U3206 2.441 . S
O3224 C3210 1.249 . S
O3225 U3206 2.420 . S
O3225 C3210 1.202 . S
O3226 U3206 2.455 . S
O3226 C3223 1.301 . S
O3227 U3206 2.449 . S
O3227 C3223 1.282 . S
H3228 C3201 0.931 . S
H3229 C3203 0.929 . S
H3230 C3204 0.930 . S
H3231 C3205 0.931 . S
H3232 C3212 0.932 . S
H3233 C3213 0.930 . S
H3234 C3214 0.929 . S
H3235 C3216 0.930 . S
H3236 C3218 0.932 . S
H3237 C3219 0.929 . S
H3238 C3220 0.928 . S
H3239 C3222 0.932 . S
C3240 C3241 1.264 . S
C3240 C3245 1.479 . S
C3240 C3250 1.465 . S
C3241 C3240 1.264 . S
C3241 C3243 1.339 . S
C3241 H3268 0.931 . S
C3242 C3243 1.395 . S
C3242 C3244 1.320 . S
C3243 C3241 1.339 . S
C3243 C3242 1.395 . S
C3243 H3269 0.929 . S
C3244 C3242 1.320 . S
C3244 C3245 1.405 . S
C3244 H3270 0.930 . S
C3245 C3240 1.479 . S
C3245 C3244 1.405 . S
C3245 H3271 0.931 . S
U3246 O3247 2.454 . S
U3246 O3248 2.458 . S
U3246 C3249 2.984 . S
U3246 C3250 2.847 . S
U3246 C3263 2.882 . S
U3246 O3264 2.441 . S
U3246 O3265 2.420 . S
U3246 O3266 2.455 . S
U3246 O3267 2.449 . S
O3247 U3246 2.454 . S
O3247 C3249 1.353 . S
O3248 U3246 2.458 . S
O3248 C3249 1.286 . S
C3249 U3246 2.984 . S
C3249 O3247 1.353 . S
C3249 O3248 1.286 . S
C3249 C3251 1.363 . S
C3250 C3240 1.465 . S
C3250 U3246 2.847 . S
C3250 O3264 1.249 . S
C3250 O3265 1.202 . S
C3251 C3249 1.363 . S
C3251 C3253 1.408 . S
C3251 C3256 1.342 . S
C3252 C3253 1.310 . S
C3252 C3255 1.461 . S
C3252 H3272 0.932 . S
C3253 C3251 1.408 . S
C3253 C3252 1.310 . S
C3253 H3273 0.930 . S
C3254 C3255 1.474 . S
C3254 C3256 1.285 . S
C3254 H3274 0.929 . S
C3255 C3252 1.461 . S
C3255 C3254 1.474 . S
C3256 C3251 1.342 . S
C3256 C3254 1.285 . S
C3256 H3275 0.930 . S
C3257 C3260 1.424 . S
C3257 C3262 1.245 . S
C3257 C3263 1.428 . S
C3258 C3261 1.260 . S
C3258 C3262 1.477 . S
C3258 H3276 0.932 . S
C3259 C3260 1.384 . S
C3259 C3261 1.479 . S
C3259 H3277 0.929 . S
C3260 C3257 1.424 . S
C3260 C3259 1.384 . S
C3260 H3278 0.928 . S
C3261 C3258 1.260 . S
C3261 C3259 1.479 . S
C3262 C3257 1.245 . S
C3262 C3258 1.477 . S
C3262 H3279 0.932 . S
C3263 U3246 2.882 . S
C3263 C3257 1.428 . S
C3263 O3266 1.301 . S
C3263 O3267 1.282 . S
O3264 U3246 2.441 . S
O3264 C3250 1.249 . S
O3265 U3246 2.420 . S
O3265 C3250 1.202 . S
O3266 U3246 2.455 . S
O3266 C3263 1.301 . S
O3267 U3246 2.449 . S
O3267 C3263 1.282 . S
H3268 C3241 0.931 . S
H3269 C3243 0.929 . S
H3270 C3244 0.930 . S
H3271 C3245 0.931 . S
H3272 C3252 0.932 . S
H3273 C3253 0.930 . S
H3274 C3254 0.929 . S
H3275 C3256 0.930 . S
H3276 C3258 0.932 . S
H3277 C3259 0.929 . S
H3278 C3260 0.928 . S
H3279 C3262 0.932 . S
C3280 C3281 1.264 . S
C3280 C3285 1.479 . S
C3280 C3290 1.465 . S
C3281 C3280 1.264 . S
C3281 C3283 1.339 . S
C3281 H3308 0.931 . S
C3282 C3283 1.395 . S
C3282 C3284 1.320 . S
C3283 C3281 1.339 . S
C3283 C3282 1.395 . S
C3283 H3309 0.929 . S
C3284 C3282 1.320 . S
C3284 C3285 1.405 . S
C3284 H3310 0.930 . S
C3285 C3280 1.479 . S
C3285 C3284 1.405 . S
C3285 H3311 0.931 . S
U3286 O3287 2.454 . S
U3286 O3288 2.458 . S
U3286 C3289 2.984 . S
U3286 C3290 2.847 . S
U3286 C3303 2.882 . S
U3286 O3304 2.441 . S
U3286 O3305 2.420 . S
U3286 O3306 2.455 . S
U3286 O3307 2.449 . S
O3287 U3286 2.454 . S
O3287 C3289 1.353 . S
O3288 U3286 2.458 . S
O3288 C3289 1.286 . S
C3289 U3286 2.984 . S
C3289 O3287 1.353 . S
C3289 O3288 1.286 . S
C3289 C3291 1.363 . S
C3290 C3280 1.465 . S
C3290 U3286 2.847 . S
C3290 O3304 1.249 . S
C3290 O3305 1.202 . S
C3291 C3289 1.363 . S
C3291 C3293 1.408 . S
C3291 C3296 1.342 . S
C3292 C3293 1.310 . S
C3292 C3295 1.461 . S
C3292 H3312 0.932 . S
C3293 C3291 1.408 . S
C3293 C3292 1.310 . S
C3293 H3313 0.930 . S
C3294 C3295 1.474 . S
C3294 C3296 1.285 . S
C3294 H3314 0.929 . S
C3295 C3292 1.461 . S
C3295 C3294 1.474 . S
C3296 C3291 1.342 . S
C3296 C3294 1.285 . S
C3296 H3315 0.930 . S
C3297 C3300 1.424 . S
C3297 C3302 1.245 . S
C3297 C3303 1.428 . S
C3298 C3301 1.260 . S
C3298 C3302 1.477 . S
C3298 H3316 0.932 . S
C3299 C3300 1.384 . S
C3299 C3301 1.479 . S
C3299 H3317 0.929 . S
C3300 C3297 1.424 . S
C3300 C3299 1.384 . S
C3300 H3318 0.928 . S
C3301 C3298 1.260 . S
C3301 C3299 1.479 . S
C3302 C3297 1.245 . S
C3302 C3298 1.477 . S
C3302 H3319 0.932 . S
C3303 U3286 2.882 . S
C3303 C3297 1.428 . S
C3303 O3306 1.301 . S
C3303 O3307 1.282 . S
O3304 U3286 2.441 . S
O3304 C3290 1.249 . S
O3305 U3286 2.420 . S
O3305 C3290 1.202 . S
O3306 U3286 2.455 . S
O3306 C3303 1.301 . S
O3307 U3286 2.449 . S
O3307 C3303 1.282 . S
H3308 C3281 0.931 . S
H3309 C3283 0.929 . S
H3310 C3284 0.930 . S
H3311 C3285 0.931 . S
H3312 C3292 0.932 . S
H3313 C3293 0.930 . S
H3314 C3294 0.929 . S
H3315 C3296 0.930 . S
H3316 C3298 0.932 . S
H3317 C3299 0.929 . S
H3318 C3300 0.928 . S
H3319 C3302 0.932 . S
C3320 C3321 1.264 . S
C3320 C3325 1.479 . S
C3320 C3330 1.465 . S
C3321 C3320 1.264 . S
C3321 C3323 1.339 . S
C3321 H3348 0.931 . S
C3322 C3323 1.395 . S
C3322 C3324 1.320 . S
C3323 C3321 1.339 . S
C3323 C3322 1.395 . S
C3323 H3349 0.929 . S
C3324 C3322 1.320 . S
C3324 C3325 1.405 . S
C3324 H3350 0.930 . S
C3325 C3320 1.479 . S
C3325 C3324 1.405 . S
C3325 H3351 0.931 . S
U3326 O3327 2.454 . S
U3326 O3328 2.458 . S
U3326 C3329 2.984 . S
U3326 C3330 2.847 . S
U3326 C3343 2.882 . S
U3326 O3344 2.441 . S
U3326 O3345 2.420 . S
U3326 O3346 2.455 . S
U3326 O3347 2.449 . S
O3327 U3326 2.454 . S
O3327 C3329 1.353 . S
O3328 U3326 2.458 . S
O3328 C3329 1.286 . S
C3329 U3326 2.984 . S
C3329 O3327 1.353 . S
C3329 O3328 1.286 . S
C3329 C3331 1.363 . S
C3330 C3320 1.465 . S
C3330 U3326 2.847 . S
C3330 O3344 1.249 . S
C3330 O3345 1.202 . S
C3331 C3329 1.363 . S
C3331 C3333 1.408 . S
C3331 C3336 1.342 . S
C3332 C3333 1.310 . S
C3332 C3335 1.461 . S
C3332 H3352 0.932 . S
C3333 C3331 1.408 . S
C3333 C3332 1.310 . S
C3333 H3353 0.930 . S
C3334 C3335 1.474 . S
C3334 C3336 1.285 . S
C3334 H3354 0.929 . S
C3335 C3332 1.461 . S
C3335 C3334 1.474 . S
C3336 C3331 1.342 . S
C3336 C3334 1.285 . S
C3336 H3355 0.930 . S
C3337 C3340 1.424 . S
C3337 C3342 1.245 . S
C3337 C3343 1.428 . S
C3338 C3341 1.260 . S
C3338 C3342 1.477 . S
C3338 H3356 0.932 . S
C3339 C3340 1.384 . S
C3339 C3341 1.479 . S
C3339 H3357 0.929 . S
C3340 C3337 1.424 . S
C3340 C3339 1.384 . S
C3340 H3358 0.928 . S
C3341 C3338 1.260 . S
C3341 C3339 1.479 . S
C3342 C3337 1.245 . S
C3342 C3338 1.477 . S
C3342 H3359 0.932 . S
C3343 U3326 2.882 . S
C3343 C3337 1.428 . S
C3343 O3346 1.301 . S
C3343 O3347 1.282 . S
O3344 U3326 2.441 . S
O3344 C3330 1.249 . S
O3345 U3326 2.420 . S
O3345 C3330 1.202 . S
O3346 U3326 2.455 . S
O3346 C3343 1.301 . S
O3347 U3326 2.449 . S
O3347 C3343 1.282 . S
H3348 C3321 0.931 . S
H3349 C3323 0.929 . S
H3350 C3324 0.930 . S
H3351 C3325 0.931 . S
H3352 C3332 0.932 . S
H3353 C3333 0.930 . S
H3354 C3334 0.929 . S
H3355 C3336 0.930 . S
H3356 C3338 0.932 . S
H3357 C3339 0.929 . S
H3358 C3340 0.928 . S
H3359 C3342 0.932 . S
C3360 C3361 1.264 . S
C3360 C3365 1.479 . S
C3360 C3370 1.465 . S
C3361 C3360 1.264 . S
C3361 C3363 1.339 . S
C3361 H3388 0.931 . S
C3362 C3363 1.395 . S
C3362 C3364 1.320 . S
C3363 C3361 1.339 . S
C3363 C3362 1.395 . S
C3363 H3389 0.929 . S
C3364 C3362 1.320 . S
C3364 C3365 1.405 . S
C3364 H3390 0.930 . S
C3365 C3360 1.479 . S
C3365 C3364 1.405 . S
C3365 H3391 0.931 . S
U3366 O3367 2.454 . S
U3366 O3368 2.458 . S
U3366 C3369 2.984 . S
U3366 C3370 2.847 . S
U3366 C3383 2.882 . S
U3366 O3384 2.441 . S
U3366 O3385 2.420 . S
U3366 O3386 2.455 . S
U3366 O3387 2.449 . S
O3367 U3366 2.454 . S
O3367 C3369 1.353 . S
O3368 U3366 2.458 . S
O3368 C3369 1.286 . S
C3369 U3366 2.984 . S
C3369 O3367 1.353 . S
C3369 O3368 1.286 . S
C3369 C3371 1.363 . S
C3370 C3360 1.465 . S
C3370 U3366 2.847 . S
C3370 O3384 1.249 . S
C3370 O3385 1.202 . S
C3371 C3369 1.363 . S
C3371 C3373 1.408 . S
C3371 C3376 1.342 . S
C3372 C3373 1.310 . S
C3372 C3375 1.461 . S
C3372 H3392 0.932 . S
C3373 C3371 1.408 . S
C3373 C3372 1.310 . S
C3373 H3393 0.930 . S
C3374 C3375 1.474 . S
C3374 C3376 1.285 . S
C3374 H3394 0.929 . S
C3375 C3372 1.461 . S
C3375 C3374 1.474 . S
C3376 C3371 1.342 . S
C3376 C3374 1.285 . S
C3376 H3395 0.930 . S
C3377 C3380 1.424 . S
C3377 C3382 1.245 . S
C3377 C3383 1.428 . S
C3378 C3381 1.260 . S
C3378 C3382 1.477 . S
C3378 H3396 0.932 . S
C3379 C3380 1.384 . S
C3379 C3381 1.479 . S
C3379 H3397 0.929 . S
C3380 C3377 1.424 . S
C3380 C3379 1.384 . S
C3380 H3398 0.928 . S
C3381 C3378 1.260 . S
C3381 C3379 1.479 . S
C3382 C3377 1.245 . S
C3382 C3378 1.477 . S
C3382 H3399 0.932 . S
C3383 U3366 2.882 . S
C3383 C3377 1.428 . S
C3383 O3386 1.301 . S
C3383 O3387 1.282 . S
O3384 U3366 2.441 . S
O3384 C3370 1.249 . S
O3385 U3366 2.420 . S
O3385 C3370 1.202 . S
O3386 U3366 2.455 . S
O3386 C3383 1.301 . S
O3387 U3366 2.449 . S
O3387 C3383 1.282 . S
H3388 C3361 0.931 . S
H3389 C3363 0.929 . S
H3390 C3364 0.930 . S
H3391 C3365 0.931 . S
H3392 C3372 0.932 . S
H3393 C3373 0.930 . S
H3394 C3374 0.929 . S
H3395 C3376 0.930 . S
H3396 C3378 0.932 . S
H3397 C3379 0.929 . S
H3398 C3380 0.928 . S
H3399 C3382 0.932 . S
C3400 C3401 1.264 . S
C3400 C3405 1.479 . S
C3400 C3410 1.465 . S
C3401 C3400 1.264 . S
C3401 C3403 1.339 . S
C3401 H3428 0.931 . S
C3402 C3403 1.395 . S
C3402 C3404 1.320 . S
C3403 C3401 1.339 . S
C3403 C3402 1.395 . S
C3403 H3429 0.929 . S
C3404 C3402 1.320 . S
C3404 C3405 1.405 . S
C3404 H3430 0.930 . S
C3405 C3400 1.479 . S
C3405 C3404 1.405 . S
C3405 H3431 0.931 . S
U3406 O3407 2.454 . S
U3406 O3408 2.458 . S
U3406 C3409 2.984 . S
U3406 C3410 2.847 . S
U3406 C3423 2.882 . S
U3406 O3424 2.441 . S
U3406 O3425 2.420 . S
U3406 O3426 2.455 . S
U3406 O3427 2.449 . S
O3407 U3406 2.454 . S
O3407 C3409 1.353 . S
O3408 U3406 2.458 . S
O3408 C3409 1.286 . S
C3409 U3406 2.984 . S
C3409 O3407 1.353 . S
C3409 O3408 1.286 . S
C3409 C3411 1.363 . S
C3410 C3400 1.465 . S
C3410 U3406 2.847 . S
C3410 O3424 1.249 . S
C3410 O3425 1.202 . S
C3411 C3409 1.363 . S
C3411 C3413 1.408 . S
C3411 C3416 1.342 . S
C3412 C3413 1.310 . S
C3412 C3415 1.461 . S
C3412 H3432 0.932 . S
C3413 C3411 1.408 . S
C3413 C3412 1.310 . S
C3413 H3433 0.930 . S
C3414 C3415 1.474 . S
C3414 C3416 1.285 . S
C3414 H3434 0.929 . S
C3415 C3412 1.461 . S
C3415 C3414 1.474 . S
C3416 C3411 1.342 . S
C3416 C3414 1.285 . S
C3416 H3435 0.930 . S
C3417 C3420 1.424 . S
C3417 C3422 1.245 . S
C3417 C3423 1.428 . S
C3418 C3421 1.260 . S
C3418 C3422 1.477 . S
C3418 H3436 0.932 . S
C3419 C3420 1.384 . S
C3419 C3421 1.479 . S
C3419 H3437 0.929 . S
C3420 C3417 1.424 . S
C3420 C3419 1.384 . S
C3420 H3438 0.928 . S
C3421 C3418 1.260 . S
C3421 C3419 1.479 . S
C3422 C3417 1.245 . S
C3422 C3418 1.477 . S
C3422 H3439 0.932 . S
C3423 U3406 2.882 . S
C3423 C3417 1.428 . S
C3423 O3426 1.301 . S
C3423 O3427 1.282 . S
O3424 U3406 2.441 . S
O3424 C3410 1.249 . S
O3425 U3406 2.420 . S
O3425 C3410 1.202 . S
O3426 U3406 2.455 . S
O3426 C3423 1.301 . S
O3427 U3406 2.449 . S
O3427 C3423 1.282 . S
H3428 C3401 0.931 . S
H3429 C3403 0.929 . S
H3430 C3404 0.930 . S
H3431 C3405 0.931 . S
H3432 C3412 0.932 . S
H3433 C3413 0.930 . S
H3434 C3414 0.929 . S
H3435 C3416 0.930 . S
H3436 C3418 0.932 . S
H3437 C3419 0.929 . S
H3438 C3420 0.928 . S
H3439 C3422 0.932 . S
C3440 C3441 1.264 . S
C3440 C3445 1.479 . S
C3440 C3450 1.465 . S
C3441 C3440 1.264 . S
C3441 C3443 1.339 . S
C3441 H3468 0.931 . S
C3442 C3443 1.395 . S
C3442 C3444 1.320 . S
C3443 C3441 1.339 . S
C3443 C3442 1.395 . S
C3443 H3469 0.929 . S
C3444 C3442 1.320 . S
C3444 C3445 1.405 . S
C3444 H3470 0.930 . S
C3445 C3440 1.479 . S
C3445 C3444 1.405 . S
C3445 H3471 0.931 . S
U3446 O3447 2.454 . S
U3446 O3448 2.458 . S
U3446 C3449 2.984 . S
U3446 C3450 2.847 . S
U3446 C3463 2.882 . S
U3446 O3464 2.441 . S
U3446 O3465 2.420 . S
U3446 O3466 2.455 . S
U3446 O3467 2.449 . S
O3447 U3446 2.454 . S
O3447 C3449 1.353 . S
O3448 U3446 2.458 . S
O3448 C3449 1.286 . S
C3449 U3446 2.984 . S
C3449 O3447 1.353 . S
C3449 O3448 1.286 . S
C3449 C3451 1.363 . S
C3450 C3440 1.465 . S
C3450 U3446 2.847 . S
C3450 O3464 1.249 . S
C3450 O3465 1.202 . S
C3451 C3449 1.363 . S
C3451 C3453 1.408 . S
C3451 C3456 1.342 . S
C3452 C3453 1.310 . S
C3452 C3455 1.461 . S
C3452 H3472 0.932 . S
C3453 C3451 1.408 . S
C3453 C3452 1.310 . S
C3453 H3473 0.930 . S
C3454 C3455 1.474 . S
C3454 C3456 1.285 . S
C3454 H3474 0.929 . S
C3455 C3452 1.461 . S
C3455 C3454 1.474 . S
C3456 C3451 1.342 . S
C3456 C3454 1.285 . S
C3456 H3475 0.930 . S
C3457 C3460 1.424 . S
C3457 C3462 1.245 . S
C3457 C3463 1.428 . S
C3458 C3461 1.260 . S
C3458 C3462 1.477 . S
C3458 H3476 0.932 . S
C3459 C3460 1.384 . S
C3459 C3461 1.479 . S
C3459 H3477 0.929 . S
C3460 C3457 1.424 . S
C3460 C3459 1.384 . S
C3460 H3478 0.928 . S
C3461 C3458 1.260 . S
C3461 C3459 1.479 . S
C3462 C3457 1.245 . S
C3462 C3458 1.477 . S
C3462 H3479 0.932 . S
C3463 U3446 2.882 . S
C3463 C3457 1.428 . S
C3463 O3466 1.301 . S
C3463 O3467 1.282 . S
O3464 U3446 2.441 . S
O3464 C3450 1.249 . S
O3465 U3446 2.420 . S
O3465 C3450 1.202 . S
O3466 U3446 2.455 . S
O3466 C3463 1.301 . S
O3467 U3446 2.449 . S
O3467 C3463 1.282 . S
H3468 C3441 0.931 . S
H3469 C3443 0.929 . S
H3470 C3444 0.930 . S
H3471 C3445 0.931 . S
H3472 C3452 0.932 . S
H3473 C3453 0.930 . S
H3474 C3454 0.929 . S
H3475 C3456 0.930 . S
H3476 C3458 0.932 . S
H3477 C3459 0.929 . S
H3478 C3460 0.928 . S
H3479 C3462 0.932 . S
C3480 C3481 1.264 . S
C3480 C3485 1.479 . S
C3480 C3490 1.465 . S
C3481 C3480 1.264 . S
C3481 C3483 1.339 . S
C3481 H3508 0.931 . S
C3482 C3483 1.395 . S
C3482 C3484 1.320 . S
C3483 C3481 1.339 . S
C3483 C3482 1.395 . S
C3483 H3509 0.929 . S
C3484 C3482 1.320 . S
C3484 C3485 1.405 . S
C3484 H3510 0.930 . S
C3485 C3480 1.479 . S
C3485 C3484 1.405 . S
C3485 H3511 0.931 . S
U3486 O3487 2.454 . S
U3486 O3488 2.458 . S
U3486 C3489 2.984 . S
U3486 C3490 2.847 . S
U3486 C3503 2.882 . S
U3486 O3504 2.441 . S
U3486 O3505 2.420 . S
U3486 O3506 2.455 . S
U3486 O3507 2.449 . S
O3487 U3486 2.454 . S
O3487 C3489 1.353 . S
O3488 U3486 2.458 . S
O3488 C3489 1.286 . S
C3489 U3486 2.984 . S
C3489 O3487 1.353 . S
C3489 O3488 1.286 . S
C3489 C3491 1.363 . S
C3490 C3480 1.465 . S
C3490 U3486 2.847 . S
C3490 O3504 1.249 . S
C3490 O3505 1.202 . S
C3491 C3489 1.363 . S
C3491 C3493 1.408 . S
C3491 C3496 1.342 . S
C3492 C3493 1.310 . S
C3492 C3495 1.461 . S
C3492 H3512 0.932 . S
C3493 C3491 1.408 . S
C3493 C3492 1.310 . S
C3493 H3513 0.930 . S
C3494 C3495 1.474 . S
C3494 C3496 1.285 . S
C3494 H3514 0.929 . S
C3495 C3492 1.461 . S
C3495 C3494 1.474 . S
C3496 C3491 1.342 . S
C3496 C3494 1.285 . S
C3496 H3515 0.930 . S
C3497 C3500 1.424 . S
C3497 C3502 1.245 . S
C3497 C3503 1.428 . S
C3498 C3501 1.260 . S
C3498 C3502 1.477 . S
C3498 H3516 0.932 . S
C3499 C3500 1.384 . S
C3499 C3501 1.479 . S
C3499 H3517 0.929 . S
C3500 C3497 1.424 . S
C3500 C3499 1.384 . S
C3500 H3518 0.928 . S
C3501 C3498 1.260 . S
C3501 C3499 1.479 . S
C3502 C3497 1.245 . S
C3502 C3498 1.477 . S
C3502 H3519 0.932 . S
C3503 U3486 2.882 . S
C3503 C3497 1.428 . S
C3503 O3506 1.301 . S
C3503 O3507 1.282 . S
O3504 U3486 2.441 . S
O3504 C3490 1.249 . S
O3505 U3486 2.420 . S
O3505 C3490 1.202 . S
O3506 U3486 2.455 . S
O3506 C3503 1.301 . S
O3507 U3486 2.449 . S
O3507 C3503 1.282 . S
H3508 C3481 0.931 . S
H3509 C3483 0.929 . S
H3510 C3484 0.930 . S
H3511 C3485 0.931 . S
H3512 C3492 0.932 . S
H3513 C3493 0.930 . S
H3514 C3494 0.929 . S
H3515 C3496 0.930 . S
H3516 C3498 0.932 . S
H3517 C3499 0.929 . S
H3518 C3500 0.928 . S
H3519 C3502 0.932 . S
C3520 C3521 1.264 . S
C3520 C3525 1.479 . S
C3520 C3530 1.465 . S
C3521 C3520 1.264 . S
C3521 C3523 1.339 . S
C3521 H3548 0.931 . S
C3522 C3523 1.395 . S
C3522 C3524 1.320 . S
C3523 C3521 1.339 . S
C3523 C3522 1.395 . S
C3523 H3549 0.929 . S
C3524 C3522 1.320 . S
C3524 C3525 1.405 . S
C3524 H3550 0.930 . S
C3525 C3520 1.479 . S
C3525 C3524 1.405 . S
C3525 H3551 0.931 . S
U3526 O3527 2.454 . S
U3526 O3528 2.458 . S
U3526 C3529 2.984 . S
U3526 C3530 2.847 . S
U3526 C3543 2.882 . S
U3526 O3544 2.441 . S
U3526 O3545 2.420 . S
U3526 O3546 2.455 . S
U3526 O3547 2.449 . S
O3527 U3526 2.454 . S
O3527 C3529 1.353 . S
O3528 U3526 2.458 . S
O3528 C3529 1.286 . S
C3529 U3526 2.984 . S
C3529 O3527 1.353 . S
C3529 O3528 1.286 . S
C3529 C3531 1.363 . S
C3530 C3520 1.465 . S
C3530 U3526 2.847 . S
C3530 O3544 1.249 . S
C3530 O3545 1.202 . S
C3531 C3529 1.363 . S
C3531 C3533 1.408 . S
C3531 C3536 1.342 . S
C3532 C3533 1.310 . S
C3532 C3535 1.461 . S
C3532 H3552 0.932 . S
C3533 C3531 1.408 . S
C3533 C3532 1.310 . S
C3533 H3553 0.930 . S
C3534 C3535 1.474 . S
C3534 C3536 1.285 . S
C3534 H3554 0.929 . S
C3535 C3532 1.461 . S
C3535 C3534 1.474 . S
C3536 C3531 1.342 . S
C3536 C3534 1.285 . S
C3536 H3555 0.930 . S
C3537 C3540 1.424 . S
C3537 C3542 1.245 . S
C3537 C3543 1.428 . S
C3538 C3541 1.260 . S
C3538 C3542 1.477 . S
C3538 H3556 0.932 . S
C3539 C3540 1.384 . S
C3539 C3541 1.479 . S
C3539 H3557 0.929 . S
C3540 C3537 1.424 . S
C3540 C3539 1.384 . S
C3540 H3558 0.928 . S
C3541 C3538 1.260 . S
C3541 C3539 1.479 . S
C3542 C3537 1.245 . S
C3542 C3538 1.477 . S
C3542 H3559 0.932 . S
C3543 U3526 2.882 . S
C3543 C3537 1.428 . S
C3543 O3546 1.301 . S
C3543 O3547 1.282 . S
O3544 U3526 2.441 . S
O3544 C3530 1.249 . S
O3545 U3526 2.420 . S
O3545 C3530 1.202 . S
O3546 U3526 2.455 . S
O3546 C3543 1.301 . S
O3547 U3526 2.449 . S
O3547 C3543 1.282 . S
H3548 C3521 0.931 . S
H3549 C3523 0.929 . S
H3550 C3524 0.930 . S
H3551 C3525 0.931 . S
H3552 C3532 0.932 . S
H3553 C3533 0.930 . S
H3554 C3534 0.929 . S
H3555 C3536 0.930 . S
H3556 C3538 0.932 . S
H3557 C3539 0.929 . S
H3558 C3540 0.928 . S
H3559 C3542 0.932 . S
C3560 C3561 1.264 . S
C3560 C3565 1.479 . S
C3560 C3570 1.465 . S
C3561 C3560 1.264 . S
C3561 C3563 1.339 . S
C3561 H3588 0.931 . S
C3562 C3563 1.395 . S
C3562 C3564 1.320 . S
C3563 C3561 1.339 . S
C3563 C3562 1.395 . S
C3563 H3589 0.929 . S
C3564 C3562 1.320 . S
C3564 C3565 1.405 . S
C3564 H3590 0.930 . S
C3565 C3560 1.479 . S
C3565 C3564 1.405 . S
C3565 H3591 0.931 . S
U3566 O3567 2.454 . S
U3566 O3568 2.458 . S
U3566 C3569 2.984 . S
U3566 C3570 2.847 . S
U3566 C3583 2.882 . S
U3566 O3584 2.441 . S
U3566 O3585 2.420 . S
U3566 O3586 2.455 . S
U3566 O3587 2.449 . S
O3567 U3566 2.454 . S
O3567 C3569 1.353 . S
O3568 U3566 2.458 . S
O3568 C3569 1.286 . S
C3569 U3566 2.984 . S
C3569 O3567 1.353 . S
C3569 O3568 1.286 . S
C3569 C3571 1.363 . S
C3570 C3560 1.465 . S
C3570 U3566 2.847 . S
C3570 O3584 1.249 . S
C3570 O3585 1.202 . S
C3571 C3569 1.363 . S
C3571 C3573 1.408 . S
C3571 C3576 1.342 . S
C3572 C3573 1.310 . S
C3572 C3575 1.461 . S
C3572 H3592 0.932 . S
C3573 C3571 1.408 . S
C3573 C3572 1.310 . S
C3573 H3593 0.930 . S
C3574 C3575 1.474 . S
C3574 C3576 1.285 . S
C3574 H3594 0.929 . S
C3575 C3572 1.461 . S
C3575 C3574 1.474 . S
C3576 C3571 1.342 . S
C3576 C3574 1.285 . S
C3576 H3595 0.930 . S
C3577 C3580 1.424 . S
C3577 C3582 1.245 . S
C3577 C3583 1.428 . S
C3578 C3581 1.260 . S
C3578 C3582 1.477 . S
C3578 H3596 0.932 . S
C3579 C3580 1.384 . S
C3579 C3581 1.479 . S
C3579 H3597 0.929 . S
C3580 C3577 1.424 . S
C3580 C3579 1.384 . S
C3580 H3598 0.928 . S
C3581 C3578 1.260 . S
C3581 C3579 1.479 . S
C3582 C3577 1.245 . S
C3582 C3578 1.477 . S
C3582 H3599 0.932 . S
C3583 U3566 2.882 . S
C3583 C3577 1.428 . S
C3583 O3586 1.301 . S
C3583 O3587 1.282 . S
O3584 U3566 2.441 . S
O3584 C3570 1.249 . S
O3585 U3566 2.420 . S
O3585 C3570 1.202 . S
O3586 U3566 2.455 . S
O3586 C3583 1.301 . S
O3587 U3566 2.449 . S
O3587 C3583 1.282 . S
H3588 C3561 0.931 . S
H3589 C3563 0.929 . S
H3590 C3564 0.930 . S
H3591 C3565 0.931 . S
H3592 C3572 0.932 . S
H3593 C3573 0.930 . S
H3594 C3574 0.929 . S
H3595 C3576 0.930 . S
H3596 C3578 0.932 . S
H3597 C3579 0.929 . S
H3598 C3580 0.928 . S
H3599 C3582 0.932 . S
C3600 C3601 1.264 . S
C3600 C3605 1.479 . S
C3600 C3610 1.465 . S
C3601 C3600 1.264 . S
C3601 C3603 1.339 . S
C3601 H3628 0.931 . S
C3602 C3603 1.395 . S
C3602 C3604 1.320 . S
C3603 C3601 1.339 . S
C3603 C3602 1.395 . S
C3603 H3629 0.929 . S
C3604 C3602 1.320 . S
C3604 C3605 1.405 . S
C3604 H3630 0.930 . S
C3605 C3600 1.479 . S
C3605 C3604 1.405 . S
C3605 H3631 0.931 . S
U3606 O3607 2.454 . S
U3606 O3608 2.458 . S
U3606 C3609 2.984 . S
U3606 C3610 2.847 . S
U3606 C3623 2.882 . S
U3606 O3624 2.441 . S
U3606 O3625 2.420 . S
U3606 O3626 2.455 . S
U3606 O3627 2.449 . S
O3607 U3606 2.454 . S
O3607 C3609 1.353 . S
O3608 U3606 2.458 . S
O3608 C3609 1.286 . S
C3609 U3606 2.984 . S
C3609 O3607 1.353 . S
C3609 O3608 1.286 . S
C3609 C3611 1.363 . S
C3610 C3600 1.465 . S
C3610 U3606 2.847 . S
C3610 O3624 1.249 . S
C3610 O3625 1.202 . S
C3611 C3609 1.363 . S
C3611 C3613 1.408 . S
C3611 C3616 1.342 . S
C3612 C3613 1.310 . S
C3612 C3615 1.461 . S
C3612 H3632 0.932 . S
C3613 C3611 1.408 . S
C3613 C3612 1.310 . S
C3613 H3633 0.930 . S
C3614 C3615 1.474 . S
C3614 C3616 1.285 . S
C3614 H3634 0.929 . S
C3615 C3612 1.461 . S
C3615 C3614 1.474 . S
C3616 C3611 1.342 . S
C3616 C3614 1.285 . S
C3616 H3635 0.930 . S
C3617 C3620 1.424 . S
C3617 C3622 1.245 . S
C3617 C3623 1.428 . S
C3618 C3621 1.260 . S
C3618 C3622 1.477 . S
C3618 H3636 0.932 . S
C3619 C3620 1.384 . S
C3619 C3621 1.479 . S
C3619 H3637 0.929 . S
C3620 C3617 1.424 . S
C3620 C3619 1.384 . S
C3620 H3638 0.928 . S
C3621 C3618 1.260 . S
C3621 C3619 1.479 . S
C3622 C3617 1.245 . S
C3622 C3618 1.477 . S
C3622 H3639 0.932 . S
C3623 U3606 2.882 . S
C3623 C3617 1.428 . S
C3623 O3626 1.301 . S
C3623 O3627 1.282 . S
O3624 U3606 2.441 . S
O3624 C3610 1.249 . S
O3625 U3606 2.420 . S
O3625 C3610 1.202 . S
O3626 U3606 2.455 . S
O3626 C3623 1.301 . S
O3627 U3606 2.449 . S
O3627 C3623 1.282 . S
H3628 C3601 0.931 . S
H3629 C3603 0.929 . S
H3630 C3604 0.930 . S
H3631 C3605 0.931 . S
H3632 C3612 0.932 . S
H3633 C3613 0.930 . S
H3634 C3614 0.929 . S
H3635 C3616 0.930 . S
H3636 C3618 0.932 . S
H3637 C3619 0.929 . S
H3638 C3620 0.928 . S
H3639 C3622 0.932 . S
C3640 C3641 1.264 . S
C3640 C3645 1.479 . S
C3640 C3650 1.465 . S
C3641 C3640 1.264 . S
C3641 C3643 1.339 . S
C3641 H3668 0.931 . S
C3642 C3643 1.395 . S
C3642 C3644 1.320 . S
C3643 C3641 1.339 . S
C3643 C3642 1.395 . S
C3643 H3669 0.929 . S
C3644 C3642 1.320 . S
C3644 C3645 1.405 . S
C3644 H3670 0.930 . S
C3645 C3640 1.479 . S
C3645 C3644 1.405 . S
C3645 H3671 0.931 . S
U3646 O3647 2.454 . S
U3646 O3648 2.458 . S
U3646 C3649 2.984 . S
U3646 C3650 2.847 . S
U3646 C3663 2.882 . S
U3646 O3664 2.441 . S
U3646 O3665 2.420 . S
U3646 O3666 2.455 . S
U3646 O3667 2.449 . S
O3647 U3646 2.454 . S
O3647 C3649 1.353 . S
O3648 U3646 2.458 . S
O3648 C3649 1.286 . S
C3649 U3646 2.984 . S
C3649 O3647 1.353 . S
C3649 O3648 1.286 . S
C3649 C3651 1.363 . S
C3650 C3640 1.465 . S
C3650 U3646 2.847 . S
C3650 O3664 1.249 . S
C3650 O3665 1.202 . S
C3651 C3649 1.363 . S
C3651 C3653 1.408 . S
C3651 C3656 1.342 . S
C3652 C3653 1.310 . S
C3652 C3655 1.461 . S
C3652 H3672 0.932 . S
C3653 C3651 1.408 . S
C3653 C3652 1.310 . S
C3653 H3673 0.930 . S
C3654 C3655 1.474 . S
C3654 C3656 1.285 . S
C3654 H3674 0.929 . S
C3655 C3652 1.461 . S
C3655 C3654 1.474 . S
C3656 C3651 1.342 . S
C3656 C3654 1.285 . S
C3656 H3675 0.930 . S
C3657 C3660 1.424 . S
C3657 C3662 1.245 . S
C3657 C3663 1.428 . S
C3658 C3661 1.260 . S
C3658 C3662 1.477 . S
C3658 H3676 0.932 . S
C3659 C3660 1.384 . S
C3659 C3661 1.479 . S
C3659 H3677 0.929 . S
C3660 C3657 1.424 . S
C3660 C3659 1.384 . S
C3660 H3678 0.928 . S
C3661 C3658 1.260 . S
C3661 C3659 1.479 . S
C3662 C3657 1.245 . S
C3662 C3658 1.477 . S
C3662 H3679 0.932 . S
C3663 U3646 2.882 . S
C3663 C3657 1.428 . S
C3663 O3666 1.301 . S
C3663 O3667 1.282 . S
O3664 U3646 2.441 . S
O3664 C3650 1.249 . S
O3665 U3646 2.420 . S
O3665 C3650 1.202 . S
O3666 U3646 2.455 . S
O3666 C3663 1.301 . S
O3667 U3646 2.449 . S
O3667 C3663 1.282 . S
H3668 C3641 0.931 . S
H3669 C3643 0.929 . S
H3670 C3644 0.930 . S
H3671 C3645 0.931 . S
H3672 C3652 0.932 . S
H3673 C3653 0.930 . S
H3674 C3654 0.929 . S
H3675 C3656 0.930 . S
H3676 C3658 0.932 . S
H3677 C3659 0.929 . S
H3678 C3660 0.928 . S
H3679 C3662 0.932 . S
C3680 C3681 1.264 . S
C3680 C3685 1.479 . S
C3680 C3690 1.465 . S
C3681 C3680 1.264 . S
C3681 C3683 1.339 . S
C3681 H3708 0.931 . S
C3682 C3683 1.395 . S
C3682 C3684 1.320 . S
C3683 C3681 1.339 . S
C3683 C3682 1.395 . S
C3683 H3709 0.929 . S
C3684 C3682 1.320 . S
C3684 C3685 1.405 . S
C3684 H3710 0.930 . S
C3685 C3680 1.479 . S
C3685 C3684 1.405 . S
C3685 H3711 0.931 . S
U3686 O3687 2.454 . S
U3686 O3688 2.458 . S
U3686 C3689 2.984 . S
U3686 C3690 2.847 . S
U3686 C3703 2.882 . S
U3686 O3704 2.441 . S
U3686 O3705 2.420 . S
U3686 O3706 2.455 . S
U3686 O3707 2.449 . S
O3687 U3686 2.454 . S
O3687 C3689 1.353 . S
O3688 U3686 2.458 . S
O3688 C3689 1.286 . S
C3689 U3686 2.984 . S
C3689 O3687 1.353 . S
C3689 O3688 1.286 . S
C3689 C3691 1.363 . S
C3690 C3680 1.465 . S
C3690 U3686 2.847 . S
C3690 O3704 1.249 . S
C3690 O3705 1.202 . S
C3691 C3689 1.363 . S
C3691 C3693 1.408 . S
C3691 C3696 1.342 . S
C3692 C3693 1.310 . S
C3692 C3695 1.461 . S
C3692 H3712 0.932 . S
C3693 C3691 1.408 . S
C3693 C3692 1.310 . S
C3693 H3713 0.930 . S
C3694 C3695 1.474 . S
C3694 C3696 1.285 . S
C3694 H3714 0.929 . S
C3695 C3692 1.461 . S
C3695 C3694 1.474 . S
C3696 C3691 1.342 . S
C3696 C3694 1.285 . S
C3696 H3715 0.930 . S
C3697 C3700 1.424 . S
C3697 C3702 1.245 . S
C3697 C3703 1.428 . S
C3698 C3701 1.260 . S
C3698 C3702 1.477 . S
C3698 H3716 0.932 . S
C3699 C3700 1.384 . S
C3699 C3701 1.479 . S
C3699 H3717 0.929 . S
C3700 C3697 1.424 . S
C3700 C3699 1.384 . S
C3700 H3718 0.928 . S
C3701 C3698 1.260 . S
C3701 C3699 1.479 . S
C3702 C3697 1.245 . S
C3702 C3698 1.477 . S
C3702 H3719 0.932 . S
C3703 U3686 2.882 . S
C3703 C3697 1.428 . S
C3703 O3706 1.301 . S
C3703 O3707 1.282 . S
O3704 U3686 2.441 . S
O3704 C3690 1.249 . S
O3705 U3686 2.420 . S
O3705 C3690 1.202 . S
O3706 U3686 2.455 . S
O3706 C3703 1.301 . S
O3707 U3686 2.449 . S
O3707 C3703 1.282 . S
H3708 C3681 0.931 . S
H3709 C3683 0.929 . S
H3710 C3684 0.930 . S
H3711 C3685 0.931 . S
H3712 C3692 0.932 . S
H3713 C3693 0.930 . S
H3714 C3694 0.929 . S
H3715 C3696 0.930 . S
H3716 C3698 0.932 . S
H3717 C3699 0.929 . S
H3718 C3700 0.928 . S
H3719 C3702 0.932 . S
C3720 C3721 1.264 . S
C3720 C3725 1.479 . S
C3720 C3730 1.465 . S
C3721 C3720 1.264 . S
C3721 C3723 1.339 . S
C3721 H3748 0.931 . S
C3722 C3723 1.395 . S
C3722 C3724 1.320 . S
C3723 C3721 1.339 . S
C3723 C3722 1.395 . S
C3723 H3749 0.929 . S
C3724 C3722 1.320 . S
C3724 C3725 1.405 . S
C3724 H3750 0.930 . S
C3725 C3720 1.479 . S
C3725 C3724 1.405 . S
C3725 H3751 0.931 . S
U3726 O3727 2.454 . S
U3726 O3728 2.458 . S
U3726 C3729 2.984 . S
U3726 C3730 2.847 . S
U3726 C3743 2.882 . S
U3726 O3744 2.441 . S
U3726 O3745 2.420 . S
U3726 O3746 2.455 . S
U3726 O3747 2.449 . S
O3727 U3726 2.454 . S
O3727 C3729 1.353 . S
O3728 U3726 2.458 . S
O3728 C3729 1.286 . S
C3729 U3726 2.984 . S
C3729 O3727 1.353 . S
C3729 O3728 1.286 . S
C3729 C3731 1.363 . S
C3730 C3720 1.465 . S
C3730 U3726 2.847 . S
C3730 O3744 1.249 . S
C3730 O3745 1.202 . S
C3731 C3729 1.363 . S
C3731 C3733 1.408 . S
C3731 C3736 1.342 . S
C3732 C3733 1.310 . S
C3732 C3735 1.461 . S
C3732 H3752 0.932 . S
C3733 C3731 1.408 . S
C3733 C3732 1.310 . S
C3733 H3753 0.930 . S
C3734 C3735 1.474 . S
C3734 C3736 1.285 . S
C3734 H3754 0.929 . S
C3735 C3732 1.461 . S
C3735 C3734 1.474 . S
C3736 C3731 1.342 . S
C3736 C3734 1.285 . S
C3736 H3755 0.930 . S
C3737 C3740 1.424 . S
C3737 C3742 1.245 . S
C3737 C3743 1.428 . S
C3738 C3741 1.260 . S
C3738 C3742 1.477 . S
C3738 H3756 0.932 . S
C3739 C3740 1.384 . S
C3739 C3741 1.479 . S
C3739 H3757 0.929 . S
C3740 C3737 1.424 . S
C3740 C3739 1.384 . S
C3740 H3758 0.928 . S
C3741 C3738 1.260 . S
C3741 C3739 1.479 . S
C3742 C3737 1.245 . S
C3742 C3738 1.477 . S
C3742 H3759 0.932 . S
C3743 U3726 2.882 . S
C3743 C3737 1.428 . S
C3743 O3746 1.301 . S
C3743 O3747 1.282 . S
O3744 U3726 2.441 . S
O3744 C3730 1.249 . S
O3745 U3726 2.420 . S
O3745 C3730 1.202 . S
O3746 U3726 2.455 . S
O3746 C3743 1.301 . S
O3747 U3726 2.449 . S
O3747 C3743 1.282 . S
H3748 C3721 0.931 . S
H3749 C3723 0.929 . S
H3750 C3724 0.930 . S
H3751 C3725 0.931 . S
H3752 C3732 0.932 . S
H3753 C3733 0.930 . S
H3754 C3734 0.929 . S
H3755 C3736 0.930 . S
H3756 C3738 0.932 . S
H3757 C3739 0.929 . S
H3758 C3740 0.928 . S
H3759 C3742 0.932 . S
C3760 C3761 1.264 . S
C3760 C3765 1.479 . S
C3760 C3770 1.465 . S
C3761 C3760 1.264 . S
C3761 C3763 1.339 . S
C3761 H3788 0.931 . S
C3762 C3763 1.395 . S
C3762 C3764 1.320 . S
C3763 C3761 1.339 . S
C3763 C3762 1.395 . S
C3763 H3789 0.929 . S
C3764 C3762 1.320 . S
C3764 C3765 1.405 . S
C3764 H3790 0.930 . S
C3765 C3760 1.479 . S
C3765 C3764 1.405 . S
C3765 H3791 0.931 . S
U3766 O3767 2.454 . S
U3766 O3768 2.458 . S
U3766 C3769 2.984 . S
U3766 C3770 2.847 . S
U3766 C3783 2.882 . S
U3766 O3784 2.441 . S
U3766 O3785 2.420 . S
U3766 O3786 2.455 . S
U3766 O3787 2.449 . S
O3767 U3766 2.454 . S
O3767 C3769 1.353 . S
O3768 U3766 2.458 . S
O3768 C3769 1.286 . S
C3769 U3766 2.984 . S
C3769 O3767 1.353 . S
C3769 O3768 1.286 . S
C3769 C3771 1.363 . S
C3770 C3760 1.465 . S
C3770 U3766 2.847 . S
C3770 O3784 1.249 . S
C3770 O3785 1.202 . S
C3771 C3769 1.363 . S
C3771 C3773 1.408 . S
C3771 C3776 1.342 . S
C3772 C3773 1.310 . S
C3772 C3775 1.461 . S
C3772 H3792 0.932 . S
C3773 C3771 1.408 . S
C3773 C3772 1.310 . S
C3773 H3793 0.930 . S
C3774 C3775 1.474 . S
C3774 C3776 1.285 . S
C3774 H3794 0.929 . S
C3775 C3772 1.461 . S
C3775 C3774 1.474 . S
C3776 C3771 1.342 . S
C3776 C3774 1.285 . S
C3776 H3795 0.930 . S
C3777 C3780 1.424 . S
C3777 C3782 1.245 . S
C3777 C3783 1.428 . S
C3778 C3781 1.260 . S
C3778 C3782 1.477 . S
C3778 H3796 0.932 . S
C3779 C3780 1.384 . S
C3779 C3781 1.479 . S
C3779 H3797 0.929 . S
C3780 C3777 1.424 . S
C3780 C3779 1.384 . S
C3780 H3798 0.928 . S
C3781 C3778 1.260 . S
C3781 C3779 1.479 . S
C3782 C3777 1.245 . S
C3782 C3778 1.477 . S
C3782 H3799 0.932 . S
C3783 U3766 2.882 . S
C3783 C3777 1.428 . S
C3783 O3786 1.301 . S
C3783 O3787 1.282 . S
O3784 U3766 2.441 . S
O3784 C3770 1.249 . S
O3785 U3766 2.420 . S
O3785 C3770 1.202 . S
O3786 U3766 2.455 . S
O3786 C3783 1.301 . S
O3787 U3766 2.449 . S
O3787 C3783 1.282 . S
H3788 C3761 0.931 . S
H3789 C3763 0.929 . S
H3790 C3764 0.930 . S
H3791 C3765 0.931 . S
H3792 C3772 0.932 . S
H3793 C3773 0.930 . S
H3794 C3774 0.929 . S
H3795 C3776 0.930 . S
H3796 C3778 0.932 . S
H3797 C3779 0.929 . S
H3798 C3780 0.928 . S
H3799 C3782 0.932 . S
C3800 C3801 1.264 . S
C3800 C3805 1.479 . S
C3800 C3810 1.465 . S
C3801 C3800 1.264 . S
C3801 C3803 1.339 . S
C3801 H3828 0.931 . S
C3802 C3803 1.395 . S
C3802 C3804 1.320 . S
C3803 C3801 1.339 . S
C3803 C3802 1.395 . S
C3803 H3829 0.929 . S
C3804 C3802 1.320 . S
C3804 C3805 1.405 . S
C3804 H3830 0.930 . S
C3805 C3800 1.479 . S
C3805 C3804 1.405 . S
C3805 H3831 0.931 . S
U3806 O3807 2.454 . S
U3806 O3808 2.458 . S
U3806 C3809 2.984 . S
U3806 C3810 2.847 . S
U3806 C3823 2.882 . S
U3806 O3824 2.441 . S
U3806 O3825 2.420 . S
U3806 O3826 2.455 . S
U3806 O3827 2.449 . S
O3807 U3806 2.454 . S
O3807 C3809 1.353 . S
O3808 U3806 2.458 . S
O3808 C3809 1.286 . S
C3809 U3806 2.984 . S
C3809 O3807 1.353 . S
C3809 O3808 1.286 . S
C3809 C3811 1.363 . S
C3810 C3800 1.465 . S
C3810 U3806 2.847 . S
C3810 O3824 1.249 . S
C3810 O3825 1.202 . S
C3811 C3809 1.363 . S
C3811 C3813 1.408 . S
C3811 C3816 1.342 . S
C3812 C3813 1.310 . S
C3812 C3815 1.461 . S
C3812 H3832 0.932 . S
C3813 C3811 1.408 . S
C3813 C3812 1.310 . S
C3813 H3833 0.930 . S
C3814 C3815 1.474 . S
C3814 C3816 1.285 . S
C3814 H3834 0.929 . S
C3815 C3812 1.461 . S
C3815 C3814 1.474 . S
C3816 C3811 1.342 . S
C3816 C3814 1.285 . S
C3816 H3835 0.930 . S
C3817 C3820 1.424 . S
C3817 C3822 1.245 . S
C3817 C3823 1.428 . S
C3818 C3821 1.260 . S
C3818 C3822 1.477 . S
C3818 H3836 0.932 . S
C3819 C3820 1.384 . S
C3819 C3821 1.479 . S
C3819 H3837 0.929 . S
C3820 C3817 1.424 . S
C3820 C3819 1.384 . S
C3820 H3838 0.928 . S
C3821 C3818 1.260 . S
C3821 C3819 1.479 . S
C3822 C3817 1.245 . S
C3822 C3818 1.477 . S
C3822 H3839 0.932 . S
C3823 U3806 2.882 . S
C3823 C3817 1.428 . S
C3823 O3826 1.301 . S
C3823 O3827 1.282 . S
O3824 U3806 2.441 . S
O3824 C3810 1.249 . S
O3825 U3806 2.420 . S
O3825 C3810 1.202 . S
O3826 U3806 2.455 . S
O3826 C3823 1.301 . S
O3827 U3806 2.449 . S
O3827 C3823 1.282 . S
H3828 C3801 0.931 . S
H3829 C3803 0.929 . S
H3830 C3804 0.930 . S
H3831 C3805 0.931 . S
H3832 C3812 0.932 . S
H3833 C3813 0.930 . S
H3834 C3814 0.929 . S
H3835 C3816 0.930 . S
H3836 C3818 0.932 . S
H3837 C3819 0.929 . S
H3838 C3820 0.928 . S
H3839 C3822 0.932 . S
C3840 C3841 1.363 . S
C3840 C3846 1.379 . S
C3840 N3848 1.356 . S
C3841 C3840 1.363 . S
C3841 C3847 1.363 . S
C3842 C3843 1.363 . S
C3842 C3847 1.379 . S
C3842 N3849 1.356 . S
C3843 C3842 1.363 . S
C3843 C3846 1.363 . S
N3844 C3846 1.356 . S
N3844 H3856 0.984 . S
N3844 H3857 0.985 . S
N3845 C3847 1.356 . S
N3845 H3850 0.984 . S
N3845 H3851 0.985 . S
C3846 C3840 1.379 . S
C3846 C3843 1.363 . S
C3846 N3844 1.356 . S
C3847 C3841 1.363 . S
C3847 C3842 1.379 . S
C3847 N3845 1.356 . S
N3848 C3840 1.356 . S
N3848 H3854 0.984 . S
N3848 H3855 0.984 . S
N3849 C3842 1.356 . S
N3849 H3852 0.984 . S
N3849 H3853 0.985 . S
H3850 N3845 0.984 . S
H3851 N3845 0.985 . S
H3852 N3849 0.984 . S
H3853 N3849 0.985 . S
H3854 N3848 0.984 . S
H3855 N3848 0.984 . S
H3856 N3844 0.984 . S
H3857 N3844 0.985 . S
C3858 C3859 1.363 . S
C3858 C3864 1.379 . S
C3858 N3866 1.356 . S
C3859 C3858 1.363 . S
C3859 C3865 1.363 . S
C3860 C3861 1.363 . S
C3860 C3865 1.379 . S
C3860 N3867 1.356 . S
C3861 C3860 1.363 . S
C3861 C3864 1.363 . S
N3862 C3864 1.356 . S
N3862 H3874 0.984 . S
N3862 H3875 0.985 . S
N3863 C3865 1.356 . S
N3863 H3868 0.984 . S
N3863 H3869 0.985 . S
C3864 C3858 1.379 . S
C3864 C3861 1.363 . S
C3864 N3862 1.356 . S
C3865 C3859 1.363 . S
C3865 C3860 1.379 . S
C3865 N3863 1.356 . S
N3866 C3858 1.356 . S
N3866 H3872 0.984 . S
N3866 H3873 0.984 . S
N3867 C3860 1.356 . S
N3867 H3870 0.984 . S
N3867 H3871 0.985 . S
H3868 N3863 0.984 . S
H3869 N3863 0.985 . S
H3870 N3867 0.984 . S
H3871 N3867 0.985 . S
H3872 N3866 0.984 . S
H3873 N3866 0.984 . S
H3874 N3862 0.984 . S
H3875 N3862 0.985 . S
C3876 C3877 1.363 . S
C3876 C3882 1.379 . S
C3876 N3884 1.356 . S
C3877 C3876 1.363 . S
C3877 C3883 1.363 . S
C3878 C3879 1.363 . S
C3878 C3883 1.379 . S
C3878 N3885 1.356 . S
C3879 C3878 1.363 . S
C3879 C3882 1.363 . S
N3880 C3882 1.356 . S
N3880 H3892 0.984 . S
N3880 H3893 0.985 . S
N3881 C3883 1.356 . S
N3881 H3886 0.984 . S
N3881 H3887 0.985 . S
C3882 C3876 1.379 . S
C3882 C3879 1.363 . S
C3882 N3880 1.356 . S
C3883 C3877 1.363 . S
C3883 C3878 1.379 . S
C3883 N3881 1.356 . S
N3884 C3876 1.356 . S
N3884 H3890 0.984 . S
N3884 H3891 0.984 . S
N3885 C3878 1.356 . S
N3885 H3888 0.984 . S
N3885 H3889 0.985 . S
H3886 N3881 0.984 . S
H3887 N3881 0.985 . S
H3888 N3885 0.984 . S
H3889 N3885 0.985 . S
H3890 N3884 0.984 . S
H3891 N3884 0.984 . S
H3892 N3880 0.984 . S
H3893 N3880 0.985 . S
C3894 C3895 1.363 . S
C3894 C3900 1.379 . S
C3894 N3902 1.356 . S
C3895 C3894 1.363 . S
C3895 C3901 1.363 . S
C3896 C3897 1.363 . S
C3896 C3901 1.379 . S
C3896 N3903 1.356 . S
C3897 C3896 1.363 . S
C3897 C3900 1.363 . S
N3898 C3900 1.356 . S
N3898 H3910 0.984 . S
N3898 H3911 0.985 . S
N3899 C3901 1.356 . S
N3899 H3904 0.984 . S
N3899 H3905 0.985 . S
C3900 C3894 1.379 . S
C3900 C3897 1.363 . S
C3900 N3898 1.356 . S
C3901 C3895 1.363 . S
C3901 C3896 1.379 . S
C3901 N3899 1.356 . S
N3902 C3894 1.356 . S
N3902 H3908 0.984 . S
N3902 H3909 0.984 . S
N3903 C3896 1.356 . S
N3903 H3906 0.984 . S
N3903 H3907 0.985 . S
H3904 N3899 0.984 . S
H3905 N3899 0.985 . S
H3906 N3903 0.984 . S
H3907 N3903 0.985 . S
H3908 N3902 0.984 . S
H3909 N3902 0.984 . S
H3910 N3898 0.984 . S
H3911 N3898 0.985 . S
C3912 C3913 1.363 . S
C3912 C3918 1.379 . S
C3912 N3920 1.356 . S
C3913 C3912 1.363 . S
C3913 C3919 1.363 . S
C3914 C3915 1.363 . S
C3914 C3919 1.379 . S
C3914 N3921 1.356 . S
C3915 C3914 1.363 . S
C3915 C3918 1.363 . S
N3916 C3918 1.356 . S
N3916 H3928 0.984 . S
N3916 H3929 0.985 . S
N3917 C3919 1.356 . S
N3917 H3922 0.984 . S
N3917 H3923 0.985 . S
C3918 C3912 1.379 . S
C3918 C3915 1.363 . S
C3918 N3916 1.356 . S
C3919 C3913 1.363 . S
C3919 C3914 1.379 . S
C3919 N3917 1.356 . S
N3920 C3912 1.356 . S
N3920 H3926 0.984 . S
N3920 H3927 0.984 . S
N3921 C3914 1.356 . S
N3921 H3924 0.984 . S
N3921 H3925 0.985 . S
H3922 N3917 0.984 . S
H3923 N3917 0.985 . S
H3924 N3921 0.984 . S
H3925 N3921 0.985 . S
H3926 N3920 0.984 . S
H3927 N3920 0.984 . S
H3928 N3916 0.984 . S
H3929 N3916 0.985 . S
C3930 C3931 1.363 . S
C3930 C3936 1.379 . S
C3930 N3938 1.356 . S
C3931 C3930 1.363 . S
C3931 C3937 1.363 . S
C3932 C3933 1.363 . S
C3932 C3937 1.379 . S
C3932 N3939 1.356 . S
C3933 C3932 1.363 . S
C3933 C3936 1.363 . S
N3934 C3936 1.356 . S
N3934 H3946 0.984 . S
N3934 H3947 0.985 . S
N3935 C3937 1.356 . S
N3935 H3940 0.984 . S
N3935 H3941 0.985 . S
C3936 C3930 1.379 . S
C3936 C3933 1.363 . S
C3936 N3934 1.356 . S
C3937 C3931 1.363 . S
C3937 C3932 1.379 . S
C3937 N3935 1.356 . S
N3938 C3930 1.356 . S
N3938 H3944 0.984 . S
N3938 H3945 0.984 . S
N3939 C3932 1.356 . S
N3939 H3942 0.984 . S
N3939 H3943 0.985 . S
H3940 N3935 0.984 . S
H3941 N3935 0.985 . S
H3942 N3939 0.984 . S
H3943 N3939 0.985 . S
H3944 N3938 0.984 . S
H3945 N3938 0.984 . S
H3946 N3934 0.984 . S
H3947 N3934 0.985 . S
C3948 C3949 1.363 . S
C3948 C3954 1.379 . S
C3948 N3956 1.356 . S
C3949 C3948 1.363 . S
C3949 C3955 1.363 . S
C3950 C3951 1.363 . S
C3950 C3955 1.379 . S
C3950 N3957 1.356 . S
C3951 C3950 1.363 . S
C3951 C3954 1.363 . S
N3952 C3954 1.356 . S
N3952 H3964 0.984 . S
N3952 H3965 0.985 . S
N3953 C3955 1.356 . S
N3953 H3958 0.984 . S
N3953 H3959 0.985 . S
C3954 C3948 1.379 . S
C3954 C3951 1.363 . S
C3954 N3952 1.356 . S
C3955 C3949 1.363 . S
C3955 C3950 1.379 . S
C3955 N3953 1.356 . S
N3956 C3948 1.356 . S
N3956 H3962 0.984 . S
N3956 H3963 0.984 . S
N3957 C3950 1.356 . S
N3957 H3960 0.984 . S
N3957 H3961 0.985 . S
H3958 N3953 0.984 . S
H3959 N3953 0.985 . S
H3960 N3957 0.984 . S
H3961 N3957 0.985 . S
H3962 N3956 0.984 . S
H3963 N3956 0.984 . S
H3964 N3952 0.984 . S
H3965 N3952 0.985 . S
C3966 C3967 1.363 . S
C3966 C3972 1.379 . S
C3966 N3974 1.356 . S
C3967 C3966 1.363 . S
C3967 C3973 1.363 . S
C3968 C3969 1.363 . S
C3968 C3973 1.379 . S
C3968 N3975 1.356 . S
C3969 C3968 1.363 . S
C3969 C3972 1.363 . S
N3970 C3972 1.356 . S
N3970 H3982 0.984 . S
N3970 H3983 0.985 . S
N3971 C3973 1.356 . S
N3971 H3976 0.984 . S
N3971 H3977 0.985 . S
C3972 C3966 1.379 . S
C3972 C3969 1.363 . S
C3972 N3970 1.356 . S
C3973 C3967 1.363 . S
C3973 C3968 1.379 . S
C3973 N3971 1.356 . S
N3974 C3966 1.356 . S
N3974 H3980 0.984 . S
N3974 H3981 0.984 . S
N3975 C3968 1.356 . S
N3975 H3978 0.984 . S
N3975 H3979 0.985 . S
H3976 N3971 0.984 . S
H3977 N3971 0.985 . S
H3978 N3975 0.984 . S
H3979 N3975 0.985 . S
H3980 N3974 0.984 . S
H3981 N3974 0.984 . S
H3982 N3970 0.984 . S
H3983 N3970 0.985 . S
C3984 C3985 1.363 . S
C3984 C3990 1.379 . S
C3984 N3992 1.356 . S
C3985 C3984 1.363 . S
C3985 C3991 1.363 . S
C3986 C3987 1.363 . S
C3986 C3991 1.379 . S
C3986 N3993 1.356 . S
C3987 C3986 1.363 . S
C3987 C3990 1.363 . S
N3988 C3990 1.356 . S
N3988 H4000 0.984 . S
N3988 H4001 0.985 . S
N3989 C3991 1.356 . S
N3989 H3994 0.984 . S
N3989 H3995 0.985 . S
C3990 C3984 1.379 . S
C3990 C3987 1.363 . S
C3990 N3988 1.356 . S
C3991 C3985 1.363 . S
C3991 C3986 1.379 . S
C3991 N3989 1.356 . S
N3992 C3984 1.356 . S
N3992 H3998 0.984 . S
N3992 H3999 0.984 . S
N3993 C3986 1.356 . S
N3993 H3996 0.984 . S
N3993 H3997 0.985 . S
H3994 N3989 0.984 . S
H3995 N3989 0.985 . S
H3996 N3993 0.984 . S
H3997 N3993 0.985 . S
H3998 N3992 0.984 . S
H3999 N3992 0.984 . S
H4000 N3988 0.984 . S
H4001 N3988 0.985 . S
C4002 C4003 1.363 . S
C4002 C4008 1.379 . S
C4002 N4010 1.356 . S
C4003 C4002 1.363 . S
C4003 C4009 1.363 . S
C4004 C4005 1.363 . S
C4004 C4009 1.379 . S
C4004 N4011 1.356 . S
C4005 C4004 1.363 . S
C4005 C4008 1.363 . S
N4006 C4008 1.356 . S
N4006 H4018 0.984 . S
N4006 H4019 0.985 . S
N4007 C4009 1.356 . S
N4007 H4012 0.984 . S
N4007 H4013 0.985 . S
C4008 C4002 1.379 . S
C4008 C4005 1.363 . S
C4008 N4006 1.356 . S
C4009 C4003 1.363 . S
C4009 C4004 1.379 . S
C4009 N4007 1.356 . S
N4010 C4002 1.356 . S
N4010 H4016 0.984 . S
N4010 H4017 0.984 . S
N4011 C4004 1.356 . S
N4011 H4014 0.984 . S
N4011 H4015 0.985 . S
H4012 N4007 0.984 . S
H4013 N4007 0.985 . S
H4014 N4011 0.984 . S
H4015 N4011 0.985 . S
H4016 N4010 0.984 . S
H4017 N4010 0.984 . S
H4018 N4006 0.984 . S
H4019 N4006 0.985 . S
C4020 C4021 1.363 . S
C4020 C4026 1.379 . S
C4020 N4028 1.356 . S
C4021 C4020 1.363 . S
C4021 C4027 1.363 . S
C4022 C4023 1.363 . S
C4022 C4027 1.379 . S
C4022 N4029 1.356 . S
C4023 C4022 1.363 . S
C4023 C4026 1.363 . S
N4024 C4026 1.356 . S
N4024 H4036 0.984 . S
N4024 H4037 0.985 . S
N4025 C4027 1.356 . S
N4025 H4030 0.984 . S
N4025 H4031 0.985 . S
C4026 C4020 1.379 . S
C4026 C4023 1.363 . S
C4026 N4024 1.356 . S
C4027 C4021 1.363 . S
C4027 C4022 1.379 . S
C4027 N4025 1.356 . S
N4028 C4020 1.356 . S
N4028 H4034 0.984 . S
N4028 H4035 0.984 . S
N4029 C4022 1.356 . S
N4029 H4032 0.984 . S
N4029 H4033 0.985 . S
H4030 N4025 0.984 . S
H4031 N4025 0.985 . S
H4032 N4029 0.984 . S
H4033 N4029 0.985 . S
H4034 N4028 0.984 . S
H4035 N4028 0.984 . S
H4036 N4024 0.984 . S
H4037 N4024 0.985 . S
C4038 C4039 1.363 . S
C4038 C4044 1.379 . S
C4038 N4046 1.356 . S
C4039 C4038 1.363 . S
C4039 C4045 1.363 . S
C4040 C4041 1.363 . S
C4040 C4045 1.379 . S
C4040 N4047 1.356 . S
C4041 C4040 1.363 . S
C4041 C4044 1.363 . S
N4042 C4044 1.356 . S
N4042 H4054 0.984 . S
N4042 H4055 0.985 . S
N4043 C4045 1.356 . S
N4043 H4048 0.984 . S
N4043 H4049 0.985 . S
C4044 C4038 1.379 . S
C4044 C4041 1.363 . S
C4044 N4042 1.356 . S
C4045 C4039 1.363 . S
C4045 C4040 1.379 . S
C4045 N4043 1.356 . S
N4046 C4038 1.356 . S
N4046 H4052 0.984 . S
N4046 H4053 0.984 . S
N4047 C4040 1.356 . S
N4047 H4050 0.984 . S
N4047 H4051 0.985 . S
H4048 N4043 0.984 . S
H4049 N4043 0.985 . S
H4050 N4047 0.984 . S
H4051 N4047 0.985 . S
H4052 N4046 0.984 . S
H4053 N4046 0.984 . S
H4054 N4042 0.984 . S
H4055 N4042 0.985 . S
C4056 C4057 1.363 . S
C4056 C4062 1.379 . S
C4056 N4064 1.356 . S
C4057 C4056 1.363 . S
C4057 C4063 1.363 . S
C4058 C4059 1.363 . S
C4058 C4063 1.379 . S
C4058 N4065 1.356 . S
C4059 C4058 1.363 . S
C4059 C4062 1.363 . S
N4060 C4062 1.356 . S
N4060 H4072 0.984 . S
N4060 H4073 0.985 . S
N4061 C4063 1.356 . S
N4061 H4066 0.984 . S
N4061 H4067 0.985 . S
C4062 C4056 1.379 . S
C4062 C4059 1.363 . S
C4062 N4060 1.356 . S
C4063 C4057 1.363 . S
C4063 C4058 1.379 . S
C4063 N4061 1.356 . S
N4064 C4056 1.356 . S
N4064 H4070 0.984 . S
N4064 H4071 0.984 . S
N4065 C4058 1.356 . S
N4065 H4068 0.984 . S
N4065 H4069 0.985 . S
H4066 N4061 0.984 . S
H4067 N4061 0.985 . S
H4068 N4065 0.984 . S
H4069 N4065 0.985 . S
H4070 N4064 0.984 . S
H4071 N4064 0.984 . S
H4072 N4060 0.984 . S
H4073 N4060 0.985 . S
C4074 C4075 1.363 . S
C4074 C4080 1.379 . S
C4074 N4082 1.356 . S
C4075 C4074 1.363 . S
C4075 C4081 1.363 . S
C4076 C4077 1.363 . S
C4076 C4081 1.379 . S
C4076 N4083 1.356 . S
C4077 C4076 1.363 . S
C4077 C4080 1.363 . S
N4078 C4080 1.356 . S
N4078 H4090 0.984 . S
N4078 H4091 0.985 . S
N4079 C4081 1.356 . S
N4079 H4084 0.984 . S
N4079 H4085 0.985 . S
C4080 C4074 1.379 . S
C4080 C4077 1.363 . S
C4080 N4078 1.356 . S
C4081 C4075 1.363 . S
C4081 C4076 1.379 . S
C4081 N4079 1.356 . S
N4082 C4074 1.356 . S
N4082 H4088 0.984 . S
N4082 H4089 0.984 . S
N4083 C4076 1.356 . S
N4083 H4086 0.984 . S
N4083 H4087 0.985 . S
H4084 N4079 0.984 . S
H4085 N4079 0.985 . S
H4086 N4083 0.984 . S
H4087 N4083 0.985 . S
H4088 N4082 0.984 . S
H4089 N4082 0.984 . S
H4090 N4078 0.984 . S
H4091 N4078 0.985 . S
C4092 C4093 1.363 . S
C4092 C4098 1.379 . S
C4092 N4100 1.356 . S
C4093 C4092 1.363 . S
C4093 C4099 1.363 . S
C4094 C4095 1.363 . S
C4094 C4099 1.379 . S
C4094 N4101 1.356 . S
C4095 C4094 1.363 . S
C4095 C4098 1.363 . S
N4096 C4098 1.356 . S
N4096 H4108 0.984 . S
N4096 H4109 0.985 . S
N4097 C4099 1.356 . S
N4097 H4102 0.984 . S
N4097 H4103 0.985 . S
C4098 C4092 1.379 . S
C4098 C4095 1.363 . S
C4098 N4096 1.356 . S
C4099 C4093 1.363 . S
C4099 C4094 1.379 . S
C4099 N4097 1.356 . S
N4100 C4092 1.356 . S
N4100 H4106 0.984 . S
N4100 H4107 0.984 . S
N4101 C4094 1.356 . S
N4101 H4104 0.984 . S
N4101 H4105 0.985 . S
H4102 N4097 0.984 . S
H4103 N4097 0.985 . S
H4104 N4101 0.984 . S
H4105 N4101 0.985 . S
H4106 N4100 0.984 . S
H4107 N4100 0.984 . S
H4108 N4096 0.984 . S
H4109 N4096 0.985 . S
C4110 C4111 1.363 . S
C4110 C4116 1.379 . S
C4110 N4118 1.356 . S
C4111 C4110 1.363 . S
C4111 C4117 1.363 . S
C4112 C4113 1.363 . S
C4112 C4117 1.379 . S
C4112 N4119 1.356 . S
C4113 C4112 1.363 . S
C4113 C4116 1.363 . S
N4114 C4116 1.356 . S
N4114 H4126 0.984 . S
N4114 H4127 0.985 . S
N4115 C4117 1.356 . S
N4115 H4120 0.984 . S
N4115 H4121 0.985 . S
C4116 C4110 1.379 . S
C4116 C4113 1.363 . S
C4116 N4114 1.356 . S
C4117 C4111 1.363 . S
C4117 C4112 1.379 . S
C4117 N4115 1.356 . S
N4118 C4110 1.356 . S
N4118 H4124 0.984 . S
N4118 H4125 0.984 . S
N4119 C4112 1.356 . S
N4119 H4122 0.984 . S
N4119 H4123 0.985 . S
H4120 N4115 0.984 . S
H4121 N4115 0.985 . S
H4122 N4119 0.984 . S
H4123 N4119 0.985 . S
H4124 N4118 0.984 . S
H4125 N4118 0.984 . S
H4126 N4114 0.984 . S
H4127 N4114 0.985 . S
C4128 C4129 1.363 . S
C4128 C4134 1.379 . S
C4128 N4136 1.356 . S
C4129 C4128 1.363 . S
C4129 C4135 1.363 . S
C4130 C4131 1.363 . S
C4130 C4135 1.379 . S
C4130 N4137 1.356 . S
C4131 C4130 1.363 . S
C4131 C4134 1.363 . S
N4132 C4134 1.356 . S
N4132 H4144 0.984 . S
N4132 H4145 0.985 . S
N4133 C4135 1.356 . S
N4133 H4138 0.984 . S
N4133 H4139 0.985 . S
C4134 C4128 1.379 . S
C4134 C4131 1.363 . S
C4134 N4132 1.356 . S
C4135 C4129 1.363 . S
C4135 C4130 1.379 . S
C4135 N4133 1.356 . S
N4136 C4128 1.356 . S
N4136 H4142 0.984 . S
N4136 H4143 0.984 . S
N4137 C4130 1.356 . S
N4137 H4140 0.984 . S
N4137 H4141 0.985 . S
H4138 N4133 0.984 . S
H4139 N4133 0.985 . S
H4140 N4137 0.984 . S
H4141 N4137 0.985 . S
H4142 N4136 0.984 . S
H4143 N4136 0.984 . S
H4144 N4132 0.984 . S
H4145 N4132 0.985 . S
C4146 C4147 1.363 . S
C4146 C4152 1.379 . S
C4146 N4154 1.356 . S
C4147 C4146 1.363 . S
C4147 C4153 1.363 . S
C4148 C4149 1.363 . S
C4148 C4153 1.379 . S
C4148 N4155 1.356 . S
C4149 C4148 1.363 . S
C4149 C4152 1.363 . S
N4150 C4152 1.356 . S
N4150 H4162 0.984 . S
N4150 H4163 0.985 . S
N4151 C4153 1.356 . S
N4151 H4156 0.984 . S
N4151 H4157 0.985 . S
C4152 C4146 1.379 . S
C4152 C4149 1.363 . S
C4152 N4150 1.356 . S
C4153 C4147 1.363 . S
C4153 C4148 1.379 . S
C4153 N4151 1.356 . S
N4154 C4146 1.356 . S
N4154 H4160 0.984 . S
N4154 H4161 0.984 . S
N4155 C4148 1.356 . S
N4155 H4158 0.984 . S
N4155 H4159 0.985 . S
H4156 N4151 0.984 . S
H4157 N4151 0.985 . S
H4158 N4155 0.984 . S
H4159 N4155 0.985 . S
H4160 N4154 0.984 . S
H4161 N4154 0.984 . S
H4162 N4150 0.984 . S
H4163 N4150 0.985 . S
C4164 C4165 1.363 . S
C4164 C4170 1.379 . S
C4164 N4172 1.356 . S
C4165 C4164 1.363 . S
C4165 C4171 1.363 . S
C4166 C4167 1.363 . S
C4166 C4171 1.379 . S
C4166 N4173 1.356 . S
C4167 C4166 1.363 . S
C4167 C4170 1.363 . S
N4168 C4170 1.356 . S
N4168 H4180 0.984 . S
N4168 H4181 0.985 . S
N4169 C4171 1.356 . S
N4169 H4174 0.984 . S
N4169 H4175 0.985 . S
C4170 C4164 1.379 . S
C4170 C4167 1.363 . S
C4170 N4168 1.356 . S
C4171 C4165 1.363 . S
C4171 C4166 1.379 . S
C4171 N4169 1.356 . S
N4172 C4164 1.356 . S
N4172 H4178 0.984 . S
N4172 H4179 0.984 . S
N4173 C4166 1.356 . S
N4173 H4176 0.984 . S
N4173 H4177 0.985 . S
H4174 N4169 0.984 . S
H4175 N4169 0.985 . S
H4176 N4173 0.984 . S
H4177 N4173 0.985 . S
H4178 N4172 0.984 . S
H4179 N4172 0.984 . S
H4180 N4168 0.984 . S
H4181 N4168 0.985 . S
C4182 C4183 1.363 . S
C4182 C4188 1.379 . S
C4182 N4190 1.356 . S
C4183 C4182 1.363 . S
C4183 C4189 1.363 . S
C4184 C4185 1.363 . S
C4184 C4189 1.379 . S
C4184 N4191 1.356 . S
C4185 C4184 1.363 . S
C4185 C4188 1.363 . S
N4186 C4188 1.356 . S
N4186 H4198 0.984 . S
N4186 H4199 0.985 . S
N4187 C4189 1.356 . S
N4187 H4192 0.984 . S
N4187 H4193 0.985 . S
C4188 C4182 1.379 . S
C4188 C4185 1.363 . S
C4188 N4186 1.356 . S
C4189 C4183 1.363 . S
C4189 C4184 1.379 . S
C4189 N4187 1.356 . S
N4190 C4182 1.356 . S
N4190 H4196 0.984 . S
N4190 H4197 0.984 . S
N4191 C4184 1.356 . S
N4191 H4194 0.984 . S
N4191 H4195 0.985 . S
H4192 N4187 0.984 . S
H4193 N4187 0.985 . S
H4194 N4191 0.984 . S
H4195 N4191 0.985 . S
H4196 N4190 0.984 . S
H4197 N4190 0.984 . S
H4198 N4186 0.984 . S
H4199 N4186 0.985 . S
C4200 C4201 1.363 . S
C4200 C4206 1.379 . S
C4200 N4208 1.356 . S
C4201 C4200 1.363 . S
C4201 C4207 1.363 . S
C4202 C4203 1.363 . S
C4202 C4207 1.379 . S
C4202 N4209 1.356 . S
C4203 C4202 1.363 . S
C4203 C4206 1.363 . S
N4204 C4206 1.356 . S
N4204 H4216 0.984 . S
N4204 H4217 0.985 . S
N4205 C4207 1.356 . S
N4205 H4210 0.984 . S
N4205 H4211 0.985 . S
C4206 C4200 1.379 . S
C4206 C4203 1.363 . S
C4206 N4204 1.356 . S
C4207 C4201 1.363 . S
C4207 C4202 1.379 . S
C4207 N4205 1.356 . S
N4208 C4200 1.356 . S
N4208 H4214 0.984 . S
N4208 H4215 0.984 . S
N4209 C4202 1.356 . S
N4209 H4212 0.984 . S
N4209 H4213 0.985 . S
H4210 N4205 0.984 . S
H4211 N4205 0.985 . S
H4212 N4209 0.984 . S
H4213 N4209 0.985 . S
H4214 N4208 0.984 . S
H4215 N4208 0.984 . S
H4216 N4204 0.984 . S
H4217 N4204 0.985 . S
C4218 C4219 1.363 . S
C4218 C4224 1.379 . S
C4218 N4226 1.356 . S
C4219 C4218 1.363 . S
C4219 C4225 1.363 . S
C4220 C4221 1.363 . S
C4220 C4225 1.379 . S
C4220 N4227 1.356 . S
C4221 C4220 1.363 . S
C4221 C4224 1.363 . S
N4222 C4224 1.356 . S
N4222 H4234 0.984 . S
N4222 H4235 0.985 . S
N4223 C4225 1.356 . S
N4223 H4228 0.984 . S
N4223 H4229 0.985 . S
C4224 C4218 1.379 . S
C4224 C4221 1.363 . S
C4224 N4222 1.356 . S
C4225 C4219 1.363 . S
C4225 C4220 1.379 . S
C4225 N4223 1.356 . S
N4226 C4218 1.356 . S
N4226 H4232 0.984 . S
N4226 H4233 0.984 . S
N4227 C4220 1.356 . S
N4227 H4230 0.984 . S
N4227 H4231 0.985 . S
H4228 N4223 0.984 . S
H4229 N4223 0.985 . S
H4230 N4227 0.984 . S
H4231 N4227 0.985 . S
H4232 N4226 0.984 . S
H4233 N4226 0.984 . S
H4234 N4222 0.984 . S
H4235 N4222 0.985 . S
C4236 C4237 1.363 . S
C4236 C4242 1.379 . S
C4236 N4244 1.356 . S
C4237 C4236 1.363 . S
C4237 C4243 1.363 . S
C4238 C4239 1.363 . S
C4238 C4243 1.379 . S
C4238 N4245 1.356 . S
C4239 C4238 1.363 . S
C4239 C4242 1.363 . S
N4240 C4242 1.356 . S
N4240 H4252 0.984 . S
N4240 H4253 0.985 . S
N4241 C4243 1.356 . S
N4241 H4246 0.984 . S
N4241 H4247 0.985 . S
C4242 C4236 1.379 . S
C4242 C4239 1.363 . S
C4242 N4240 1.356 . S
C4243 C4237 1.363 . S
C4243 C4238 1.379 . S
C4243 N4241 1.356 . S
N4244 C4236 1.356 . S
N4244 H4250 0.984 . S
N4244 H4251 0.984 . S
N4245 C4238 1.356 . S
N4245 H4248 0.984 . S
N4245 H4249 0.985 . S
H4246 N4241 0.984 . S
H4247 N4241 0.985 . S
H4248 N4245 0.984 . S
H4249 N4245 0.985 . S
H4250 N4244 0.984 . S
H4251 N4244 0.984 . S
H4252 N4240 0.984 . S
H4253 N4240 0.985 . S
C4254 C4255 1.363 . S
C4254 C4260 1.379 . S
C4254 N4262 1.356 . S
C4255 C4254 1.363 . S
C4255 C4261 1.363 . S
C4256 C4257 1.363 . S
C4256 C4261 1.379 . S
C4256 N4263 1.356 . S
C4257 C4256 1.363 . S
C4257 C4260 1.363 . S
N4258 C4260 1.356 . S
N4258 H4270 0.984 . S
N4258 H4271 0.985 . S
N4259 C4261 1.356 . S
N4259 H4264 0.984 . S
N4259 H4265 0.985 . S
C4260 C4254 1.379 . S
C4260 C4257 1.363 . S
C4260 N4258 1.356 . S
C4261 C4255 1.363 . S
C4261 C4256 1.379 . S
C4261 N4259 1.356 . S
N4262 C4254 1.356 . S
N4262 H4268 0.984 . S
N4262 H4269 0.984 . S
N4263 C4256 1.356 . S
N4263 H4266 0.984 . S
N4263 H4267 0.985 . S
H4264 N4259 0.984 . S
H4265 N4259 0.985 . S
H4266 N4263 0.984 . S
H4267 N4263 0.985 . S
H4268 N4262 0.984 . S
H4269 N4262 0.984 . S
H4270 N4258 0.984 . S
H4271 N4258 0.985 . S
C4272 C4273 1.363 . S
C4272 C4278 1.379 . S
C4272 N4280 1.356 . S
C4273 C4272 1.363 . S
C4273 C4279 1.363 . S
C4274 C4275 1.363 . S
C4274 C4279 1.379 . S
C4274 N4281 1.356 . S
C4275 C4274 1.363 . S
C4275 C4278 1.363 . S
N4276 C4278 1.356 . S
N4276 H4288 0.984 . S
N4276 H4289 0.985 . S
N4277 C4279 1.356 . S
N4277 H4282 0.984 . S
N4277 H4283 0.985 . S
C4278 C4272 1.379 . S
C4278 C4275 1.363 . S
C4278 N4276 1.356 . S
C4279 C4273 1.363 . S
C4279 C4274 1.379 . S
C4279 N4277 1.356 . S
N4280 C4272 1.356 . S
N4280 H4286 0.984 . S
N4280 H4287 0.984 . S
N4281 C4274 1.356 . S
N4281 H4284 0.984 . S
N4281 H4285 0.985 . S
H4282 N4277 0.984 . S
H4283 N4277 0.985 . S
H4284 N4281 0.984 . S
H4285 N4281 0.985 . S
H4286 N4280 0.984 . S
H4287 N4280 0.984 . S
H4288 N4276 0.984 . S
H4289 N4276 0.985 . S
C4290 C4291 1.363 . S
C4290 C4296 1.379 . S
C4290 N4298 1.356 . S
C4291 C4290 1.363 . S
C4291 C4297 1.363 . S
C4292 C4293 1.363 . S
C4292 C4297 1.379 . S
C4292 N4299 1.356 . S
C4293 C4292 1.363 . S
C4293 C4296 1.363 . S
N4294 C4296 1.356 . S
N4294 H4306 0.984 . S
N4294 H4307 0.985 . S
N4295 C4297 1.356 . S
N4295 H4300 0.984 . S
N4295 H4301 0.985 . S
C4296 C4290 1.379 . S
C4296 C4293 1.363 . S
C4296 N4294 1.356 . S
C4297 C4291 1.363 . S
C4297 C4292 1.379 . S
C4297 N4295 1.356 . S
N4298 C4290 1.356 . S
N4298 H4304 0.984 . S
N4298 H4305 0.984 . S
N4299 C4292 1.356 . S
N4299 H4302 0.984 . S
N4299 H4303 0.985 . S
H4300 N4295 0.984 . S
H4301 N4295 0.985 . S
H4302 N4299 0.984 . S
H4303 N4299 0.985 . S
H4304 N4298 0.984 . S
H4305 N4298 0.984 . S
H4306 N4294 0.984 . S
H4307 N4294 0.985 . S
C4308 C4309 1.363 . S
C4308 C4314 1.379 . S
C4308 N4316 1.356 . S
C4309 C4308 1.363 . S
C4309 C4315 1.363 . S
C4310 C4311 1.363 . S
C4310 C4315 1.379 . S
C4310 N4317 1.356 . S
C4311 C4310 1.363 . S
C4311 C4314 1.363 . S
N4312 C4314 1.356 . S
N4312 H4324 0.984 . S
N4312 H4325 0.985 . S
N4313 C4315 1.356 . S
N4313 H4318 0.984 . S
N4313 H4319 0.985 . S
C4314 C4308 1.379 . S
C4314 C4311 1.363 . S
C4314 N4312 1.356 . S
C4315 C4309 1.363 . S
C4315 C4310 1.379 . S
C4315 N4313 1.356 . S
N4316 C4308 1.356 . S
N4316 H4322 0.984 . S
N4316 H4323 0.984 . S
N4317 C4310 1.356 . S
N4317 H4320 0.984 . S
N4317 H4321 0.985 . S
H4318 N4313 0.984 . S
H4319 N4313 0.985 . S
H4320 N4317 0.984 . S
H4321 N4317 0.985 . S
H4322 N4316 0.984 . S
H4323 N4316 0.984 . S
H4324 N4312 0.984 . S
H4325 N4312 0.985 . S
C4326 C4327 1.363 . S
C4326 C4332 1.379 . S
C4326 N4334 1.356 . S
C4327 C4326 1.363 . S
C4327 C4333 1.363 . S
C4328 C4329 1.363 . S
C4328 C4333 1.379 . S
C4328 N4335 1.356 . S
C4329 C4328 1.363 . S
C4329 C4332 1.363 . S
N4330 C4332 1.356 . S
N4330 H4342 0.984 . S
N4330 H4343 0.985 . S
N4331 C4333 1.356 . S
N4331 H4336 0.984 . S
N4331 H4337 0.985 . S
C4332 C4326 1.379 . S
C4332 C4329 1.363 . S
C4332 N4330 1.356 . S
C4333 C4327 1.363 . S
C4333 C4328 1.379 . S
C4333 N4331 1.356 . S
N4334 C4326 1.356 . S
N4334 H4340 0.984 . S
N4334 H4341 0.984 . S
N4335 C4328 1.356 . S
N4335 H4338 0.984 . S
N4335 H4339 0.985 . S
H4336 N4331 0.984 . S
H4337 N4331 0.985 . S
H4338 N4335 0.984 . S
H4339 N4335 0.985 . S
H4340 N4334 0.984 . S
H4341 N4334 0.984 . S
H4342 N4330 0.984 . S
H4343 N4330 0.985 . S
C4344 C4345 1.363 . S
C4344 C4350 1.379 . S
C4344 N4352 1.356 . S
C4345 C4344 1.363 . S
C4345 C4351 1.363 . S
C4346 C4347 1.363 . S
C4346 C4351 1.379 . S
C4346 N4353 1.356 . S
C4347 C4346 1.363 . S
C4347 C4350 1.363 . S
N4348 C4350 1.356 . S
N4348 H4360 0.984 . S
N4348 H4361 0.985 . S
N4349 C4351 1.356 . S
N4349 H4354 0.984 . S
N4349 H4355 0.985 . S
C4350 C4344 1.379 . S
C4350 C4347 1.363 . S
C4350 N4348 1.356 . S
C4351 C4345 1.363 . S
C4351 C4346 1.379 . S
C4351 N4349 1.356 . S
N4352 C4344 1.356 . S
N4352 H4358 0.984 . S
N4352 H4359 0.984 . S
N4353 C4346 1.356 . S
N4353 H4356 0.984 . S
N4353 H4357 0.985 . S
H4354 N4349 0.984 . S
H4355 N4349 0.985 . S
H4356 N4353 0.984 . S
H4357 N4353 0.985 . S
H4358 N4352 0.984 . S
H4359 N4352 0.984 . S
H4360 N4348 0.984 . S
H4361 N4348 0.985 . S
C4362 C4363 1.363 . S
C4362 C4368 1.379 . S
C4362 N4370 1.356 . S
C4363 C4362 1.363 . S
C4363 C4369 1.363 . S
C4364 C4365 1.363 . S
C4364 C4369 1.379 . S
C4364 N4371 1.356 . S
C4365 C4364 1.363 . S
C4365 C4368 1.363 . S
N4366 C4368 1.356 . S
N4366 H4378 0.984 . S
N4366 H4379 0.985 . S
N4367 C4369 1.356 . S
N4367 H4372 0.984 . S
N4367 H4373 0.985 . S
C4368 C4362 1.379 . S
C4368 C4365 1.363 . S
C4368 N4366 1.356 . S
C4369 C4363 1.363 . S
C4369 C4364 1.379 . S
C4369 N4367 1.356 . S
N4370 C4362 1.356 . S
N4370 H4376 0.984 . S
N4370 H4377 0.984 . S
N4371 C4364 1.356 . S
N4371 H4374 0.984 . S
N4371 H4375 0.985 . S
H4372 N4367 0.984 . S
H4373 N4367 0.985 . S
H4374 N4371 0.984 . S
H4375 N4371 0.985 . S
H4376 N4370 0.984 . S
H4377 N4370 0.984 . S
H4378 N4366 0.984 . S
H4379 N4366 0.985 . S
C4380 C4381 1.363 . S
C4380 C4386 1.379 . S
C4380 N4388 1.356 . S
C4381 C4380 1.363 . S
C4381 C4387 1.363 . S
C4382 C4383 1.363 . S
C4382 C4387 1.379 . S
C4382 N4389 1.356 . S
C4383 C4382 1.363 . S
C4383 C4386 1.363 . S
N4384 C4386 1.356 . S
N4384 H4396 0.984 . S
N4384 H4397 0.985 . S
N4385 C4387 1.356 . S
N4385 H4390 0.984 . S
N4385 H4391 0.985 . S
C4386 C4380 1.379 . S
C4386 C4383 1.363 . S
C4386 N4384 1.356 . S
C4387 C4381 1.363 . S
C4387 C4382 1.379 . S
C4387 N4385 1.356 . S
N4388 C4380 1.356 . S
N4388 H4394 0.984 . S
N4388 H4395 0.984 . S
N4389 C4382 1.356 . S
N4389 H4392 0.984 . S
N4389 H4393 0.985 . S
H4390 N4385 0.984 . S
H4391 N4385 0.985 . S
H4392 N4389 0.984 . S
H4393 N4389 0.985 . S
H4394 N4388 0.984 . S
H4395 N4388 0.984 . S
H4396 N4384 0.984 . S
H4397 N4384 0.985 . S
C4398 C4399 1.363 . S
C4398 C4404 1.379 . S
C4398 N4406 1.356 . S
C4399 C4398 1.363 . S
C4399 C4405 1.363 . S
C4400 C4401 1.363 . S
C4400 C4405 1.379 . S
C4400 N4407 1.356 . S
C4401 C4400 1.363 . S
C4401 C4404 1.363 . S
N4402 C4404 1.356 . S
N4402 H4414 0.984 . S
N4402 H4415 0.985 . S
N4403 C4405 1.356 . S
N4403 H4408 0.984 . S
N4403 H4409 0.985 . S
C4404 C4398 1.379 . S
C4404 C4401 1.363 . S
C4404 N4402 1.356 . S
C4405 C4399 1.363 . S
C4405 C4400 1.379 . S
C4405 N4403 1.356 . S
N4406 C4398 1.356 . S
N4406 H4412 0.984 . S
N4406 H4413 0.984 . S
N4407 C4400 1.356 . S
N4407 H4410 0.984 . S
N4407 H4411 0.985 . S
H4408 N4403 0.984 . S
H4409 N4403 0.985 . S
H4410 N4407 0.984 . S
H4411 N4407 0.985 . S
H4412 N4406 0.984 . S
H4413 N4406 0.984 . S
H4414 N4402 0.984 . S
H4415 N4402 0.985 . S
C4416 C4417 1.363 . S
C4416 C4422 1.379 . S
C4416 N4424 1.356 . S
C4417 C4416 1.363 . S
C4417 C4423 1.363 . S
C4418 C4419 1.363 . S
C4418 C4423 1.379 . S
C4418 N4425 1.356 . S
C4419 C4418 1.363 . S
C4419 C4422 1.363 . S
N4420 C4422 1.356 . S
N4420 H4432 0.984 . S
N4420 H4433 0.985 . S
N4421 C4423 1.356 . S
N4421 H4426 0.984 . S
N4421 H4427 0.985 . S
C4422 C4416 1.379 . S
C4422 C4419 1.363 . S
C4422 N4420 1.356 . S
C4423 C4417 1.363 . S
C4423 C4418 1.379 . S
C4423 N4421 1.356 . S
N4424 C4416 1.356 . S
N4424 H4430 0.984 . S
N4424 H4431 0.984 . S
N4425 C4418 1.356 . S
N4425 H4428 0.984 . S
N4425 H4429 0.985 . S
H4426 N4421 0.984 . S
H4427 N4421 0.985 . S
H4428 N4425 0.984 . S
H4429 N4425 0.985 . S
H4430 N4424 0.984 . S
H4431 N4424 0.984 . S
H4432 N4420 0.984 . S
H4433 N4420 0.985 . S
C4434 C4435 1.363 . S
C4434 C4440 1.379 . S
C4434 N4442 1.356 . S
C4435 C4434 1.363 . S
C4435 C4441 1.363 . S
C4436 C4437 1.363 . S
C4436 C4441 1.379 . S
C4436 N4443 1.356 . S
C4437 C4436 1.363 . S
C4437 C4440 1.363 . S
N4438 C4440 1.356 . S
N4438 H4450 0.984 . S
N4438 H4451 0.985 . S
N4439 C4441 1.356 . S
N4439 H4444 0.984 . S
N4439 H4445 0.985 . S
C4440 C4434 1.379 . S
C4440 C4437 1.363 . S
C4440 N4438 1.356 . S
C4441 C4435 1.363 . S
C4441 C4436 1.379 . S
C4441 N4439 1.356 . S
N4442 C4434 1.356 . S
N4442 H4448 0.984 . S
N4442 H4449 0.984 . S
N4443 C4436 1.356 . S
N4443 H4446 0.984 . S
N4443 H4447 0.985 . S
H4444 N4439 0.984 . S
H4445 N4439 0.985 . S
H4446 N4443 0.984 . S
H4447 N4443 0.985 . S
H4448 N4442 0.984 . S
H4449 N4442 0.984 . S
H4450 N4438 0.984 . S
H4451 N4438 0.985 . S
C4452 C4453 1.363 . S
C4452 C4458 1.379 . S
C4452 N4460 1.356 . S
C4453 C4452 1.363 . S
C4453 C4459 1.363 . S
C4454 C4455 1.363 . S
C4454 C4459 1.379 . S
C4454 N4461 1.356 . S
C4455 C4454 1.363 . S
C4455 C4458 1.363 . S
N4456 C4458 1.356 . S
N4456 H4468 0.984 . S
N4456 H4469 0.985 . S
N4457 C4459 1.356 . S
N4457 H4462 0.984 . S
N4457 H4463 0.985 . S
C4458 C4452 1.379 . S
C4458 C4455 1.363 . S
C4458 N4456 1.356 . S
C4459 C4453 1.363 . S
C4459 C4454 1.379 . S
C4459 N4457 1.356 . S
N4460 C4452 1.356 . S
N4460 H4466 0.984 . S
N4460 H4467 0.984 . S
N4461 C4454 1.356 . S
N4461 H4464 0.984 . S
N4461 H4465 0.985 . S
H4462 N4457 0.984 . S
H4463 N4457 0.985 . S
H4464 N4461 0.984 . S
H4465 N4461 0.985 . S
H4466 N4460 0.984 . S
H4467 N4460 0.984 . S
H4468 N4456 0.984 . S
H4469 N4456 0.985 . S
C4470 C4471 1.363 . S
C4470 C4476 1.379 . S
C4470 N4478 1.356 . S
C4471 C4470 1.363 . S
C4471 C4477 1.363 . S
C4472 C4473 1.363 . S
C4472 C4477 1.379 . S
C4472 N4479 1.356 . S
C4473 C4472 1.363 . S
C4473 C4476 1.363 . S
N4474 C4476 1.356 . S
N4474 H4486 0.984 . S
N4474 H4487 0.985 . S
N4475 C4477 1.356 . S
N4475 H4480 0.984 . S
N4475 H4481 0.985 . S
C4476 C4470 1.379 . S
C4476 C4473 1.363 . S
C4476 N4474 1.356 . S
C4477 C4471 1.363 . S
C4477 C4472 1.379 . S
C4477 N4475 1.356 . S
N4478 C4470 1.356 . S
N4478 H4484 0.984 . S
N4478 H4485 0.984 . S
N4479 C4472 1.356 . S
N4479 H4482 0.984 . S
N4479 H4483 0.985 . S
H4480 N4475 0.984 . S
H4481 N4475 0.985 . S
H4482 N4479 0.984 . S
H4483 N4479 0.985 . S
H4484 N4478 0.984 . S
H4485 N4478 0.984 . S
H4486 N4474 0.984 . S
H4487 N4474 0.985 . S
C4488 C4489 1.363 . S
C4488 C4494 1.379 . S
C4488 N4496 1.356 . S
C4489 C4488 1.363 . S
C4489 C4495 1.363 . S
C4490 C4491 1.363 . S
C4490 C4495 1.379 . S
C4490 N4497 1.356 . S
C4491 C4490 1.363 . S
C4491 C4494 1.363 . S
N4492 C4494 1.356 . S
N4492 H4504 0.984 . S
N4492 H4505 0.985 . S
N4493 C4495 1.356 . S
N4493 H4498 0.984 . S
N4493 H4499 0.985 . S
C4494 C4488 1.379 . S
C4494 C4491 1.363 . S
C4494 N4492 1.356 . S
C4495 C4489 1.363 . S
C4495 C4490 1.379 . S
C4495 N4493 1.356 . S
N4496 C4488 1.356 . S
N4496 H4502 0.984 . S
N4496 H4503 0.984 . S
N4497 C4490 1.356 . S
N4497 H4500 0.984 . S
N4497 H4501 0.985 . S
H4498 N4493 0.984 . S
H4499 N4493 0.985 . S
H4500 N4497 0.984 . S
H4501 N4497 0.985 . S
H4502 N4496 0.984 . S
H4503 N4496 0.984 . S
H4504 N4492 0.984 . S
H4505 N4492 0.985 . S
C4506 C4507 1.363 . S
C4506 C4512 1.379 . S
C4506 N4514 1.356 . S
C4507 C4506 1.363 . S
C4507 C4513 1.363 . S
C4508 C4509 1.363 . S
C4508 C4513 1.379 . S
C4508 N4515 1.356 . S
C4509 C4508 1.363 . S
C4509 C4512 1.363 . S
N4510 C4512 1.356 . S
N4510 H4522 0.984 . S
N4510 H4523 0.985 . S
N4511 C4513 1.356 . S
N4511 H4516 0.984 . S
N4511 H4517 0.985 . S
C4512 C4506 1.379 . S
C4512 C4509 1.363 . S
C4512 N4510 1.356 . S
C4513 C4507 1.363 . S
C4513 C4508 1.379 . S
C4513 N4511 1.356 . S
N4514 C4506 1.356 . S
N4514 H4520 0.984 . S
N4514 H4521 0.984 . S
N4515 C4508 1.356 . S
N4515 H4518 0.984 . S
N4515 H4519 0.985 . S
H4516 N4511 0.984 . S
H4517 N4511 0.985 . S
H4518 N4515 0.984 . S
H4519 N4515 0.985 . S
H4520 N4514 0.984 . S
H4521 N4514 0.984 . S
H4522 N4510 0.984 . S
H4523 N4510 0.985 . S
C4524 C4525 1.363 . S
C4524 C4530 1.379 . S
C4524 N4532 1.356 . S
C4525 C4524 1.363 . S
C4525 C4531 1.363 . S
C4526 C4527 1.363 . S
C4526 C4531 1.379 . S
C4526 N4533 1.356 . S
C4527 C4526 1.363 . S
C4527 C4530 1.363 . S
N4528 C4530 1.356 . S
N4528 H4540 0.984 . S
N4528 H4541 0.985 . S
N4529 C4531 1.356 . S
N4529 H4534 0.984 . S
N4529 H4535 0.985 . S
C4530 C4524 1.379 . S
C4530 C4527 1.363 . S
C4530 N4528 1.356 . S
C4531 C4525 1.363 . S
C4531 C4526 1.379 . S
C4531 N4529 1.356 . S
N4532 C4524 1.356 . S
N4532 H4538 0.984 . S
N4532 H4539 0.984 . S
N4533 C4526 1.356 . S
N4533 H4536 0.984 . S
N4533 H4537 0.985 . S
H4534 N4529 0.984 . S
H4535 N4529 0.985 . S
H4536 N4533 0.984 . S
H4537 N4533 0.985 . S
H4538 N4532 0.984 . S
H4539 N4532 0.984 . S
H4540 N4528 0.984 . S
H4541 N4528 0.985 . S
C4542 C4543 1.363 . S
C4542 C4548 1.379 . S
C4542 N4550 1.356 . S
C4543 C4542 1.363 . S
C4543 C4549 1.363 . S
C4544 C4545 1.363 . S
C4544 C4549 1.379 . S
C4544 N4551 1.356 . S
C4545 C4544 1.363 . S
C4545 C4548 1.363 . S
N4546 C4548 1.356 . S
N4546 H4558 0.984 . S
N4546 H4559 0.985 . S
N4547 C4549 1.356 . S
N4547 H4552 0.984 . S
N4547 H4553 0.985 . S
C4548 C4542 1.379 . S
C4548 C4545 1.363 . S
C4548 N4546 1.356 . S
C4549 C4543 1.363 . S
C4549 C4544 1.379 . S
C4549 N4547 1.356 . S
N4550 C4542 1.356 . S
N4550 H4556 0.984 . S
N4550 H4557 0.984 . S
N4551 C4544 1.356 . S
N4551 H4554 0.984 . S
N4551 H4555 0.985 . S
H4552 N4547 0.984 . S
H4553 N4547 0.985 . S
H4554 N4551 0.984 . S
H4555 N4551 0.985 . S
H4556 N4550 0.984 . S
H4557 N4550 0.984 . S
H4558 N4546 0.984 . S
H4559 N4546 0.985 . S
C4560 C4561 1.363 . S
C4560 C4566 1.379 . S
C4560 N4568 1.356 . S
C4561 C4560 1.363 . S
C4561 C4567 1.363 . S
C4562 C4563 1.363 . S
C4562 C4567 1.379 . S
C4562 N4569 1.356 . S
C4563 C4562 1.363 . S
C4563 C4566 1.363 . S
N4564 C4566 1.356 . S
N4564 H4576 0.984 . S
N4564 H4577 0.985 . S
N4565 C4567 1.356 . S
N4565 H4570 0.984 . S
N4565 H4571 0.985 . S
C4566 C4560 1.379 . S
C4566 C4563 1.363 . S
C4566 N4564 1.356 . S
C4567 C4561 1.363 . S
C4567 C4562 1.379 . S
C4567 N4565 1.356 . S
N4568 C4560 1.356 . S
N4568 H4574 0.984 . S
N4568 H4575 0.984 . S
N4569 C4562 1.356 . S
N4569 H4572 0.984 . S
N4569 H4573 0.985 . S
H4570 N4565 0.984 . S
H4571 N4565 0.985 . S
H4572 N4569 0.984 . S
H4573 N4569 0.985 . S
H4574 N4568 0.984 . S
H4575 N4568 0.984 . S
H4576 N4564 0.984 . S
H4577 N4564 0.985 . S
C4578 C4579 1.363 . S
C4578 C4584 1.379 . S
C4578 N4586 1.356 . S
C4579 C4578 1.363 . S
C4579 C4585 1.363 . S
C4580 C4581 1.363 . S
C4580 C4585 1.379 . S
C4580 N4587 1.356 . S
C4581 C4580 1.363 . S
C4581 C4584 1.363 . S
N4582 C4584 1.356 . S
N4582 H4594 0.984 . S
N4582 H4595 0.985 . S
N4583 C4585 1.356 . S
N4583 H4588 0.984 . S
N4583 H4589 0.985 . S
C4584 C4578 1.379 . S
C4584 C4581 1.363 . S
C4584 N4582 1.356 . S
C4585 C4579 1.363 . S
C4585 C4580 1.379 . S
C4585 N4583 1.356 . S
N4586 C4578 1.356 . S
N4586 H4592 0.984 . S
N4586 H4593 0.984 . S
N4587 C4580 1.356 . S
N4587 H4590 0.984 . S
N4587 H4591 0.985 . S
H4588 N4583 0.984 . S
H4589 N4583 0.985 . S
H4590 N4587 0.984 . S
H4591 N4587 0.985 . S
H4592 N4586 0.984 . S
H4593 N4586 0.984 . S
H4594 N4582 0.984 . S
H4595 N4582 0.985 . S
C4596 C4597 1.363 . S
C4596 C4602 1.379 . S
C4596 N4604 1.356 . S
C4597 C4596 1.363 . S
C4597 C4603 1.363 . S
C4598 C4599 1.363 . S
C4598 C4603 1.379 . S
C4598 N4605 1.356 . S
C4599 C4598 1.363 . S
C4599 C4602 1.363 . S
N4600 C4602 1.356 . S
N4600 H4612 0.984 . S
N4600 H4613 0.985 . S
N4601 C4603 1.356 . S
N4601 H4606 0.984 . S
N4601 H4607 0.985 . S
C4602 C4596 1.379 . S
C4602 C4599 1.363 . S
C4602 N4600 1.356 . S
C4603 C4597 1.363 . S
C4603 C4598 1.379 . S
C4603 N4601 1.356 . S
N4604 C4596 1.356 . S
N4604 H4610 0.984 . S
N4604 H4611 0.984 . S
N4605 C4598 1.356 . S
N4605 H4608 0.984 . S
N4605 H4609 0.985 . S
H4606 N4601 0.984 . S
H4607 N4601 0.985 . S
H4608 N4605 0.984 . S
H4609 N4605 0.985 . S
H4610 N4604 0.984 . S
H4611 N4604 0.984 . S
H4612 N4600 0.984 . S
H4613 N4600 0.985 . S
C4614 C4615 1.363 . S
C4614 C4620 1.379 . S
C4614 N4622 1.356 . S
C4615 C4614 1.363 . S
C4615 C4621 1.363 . S
C4616 C4617 1.363 . S
C4616 C4621 1.379 . S
C4616 N4623 1.356 . S
C4617 C4616 1.363 . S
C4617 C4620 1.363 . S
N4618 C4620 1.356 . S
N4618 H4630 0.984 . S
N4618 H4631 0.985 . S
N4619 C4621 1.356 . S
N4619 H4624 0.984 . S
N4619 H4625 0.985 . S
C4620 C4614 1.379 . S
C4620 C4617 1.363 . S
C4620 N4618 1.356 . S
C4621 C4615 1.363 . S
C4621 C4616 1.379 . S
C4621 N4619 1.356 . S
N4622 C4614 1.356 . S
N4622 H4628 0.984 . S
N4622 H4629 0.984 . S
N4623 C4616 1.356 . S
N4623 H4626 0.984 . S
N4623 H4627 0.985 . S
H4624 N4619 0.984 . S
H4625 N4619 0.985 . S
H4626 N4623 0.984 . S
H4627 N4623 0.985 . S
H4628 N4622 0.984 . S
H4629 N4622 0.984 . S
H4630 N4618 0.984 . S
H4631 N4618 0.985 . S
C4632 C4633 1.363 . S
C4632 C4638 1.379 . S
C4632 N4640 1.356 . S
C4633 C4632 1.363 . S
C4633 C4639 1.363 . S
C4634 C4635 1.363 . S
C4634 C4639 1.379 . S
C4634 N4641 1.356 . S
C4635 C4634 1.363 . S
C4635 C4638 1.363 . S
N4636 C4638 1.356 . S
N4636 H4648 0.984 . S
N4636 H4649 0.985 . S
N4637 C4639 1.356 . S
N4637 H4642 0.984 . S
N4637 H4643 0.985 . S
C4638 C4632 1.379 . S
C4638 C4635 1.363 . S
C4638 N4636 1.356 . S
C4639 C4633 1.363 . S
C4639 C4634 1.379 . S
C4639 N4637 1.356 . S
N4640 C4632 1.356 . S
N4640 H4646 0.984 . S
N4640 H4647 0.984 . S
N4641 C4634 1.356 . S
N4641 H4644 0.984 . S
N4641 H4645 0.985 . S
H4642 N4637 0.984 . S
H4643 N4637 0.985 . S
H4644 N4641 0.984 . S
H4645 N4641 0.985 . S
H4646 N4640 0.984 . S
H4647 N4640 0.984 . S
H4648 N4636 0.984 . S
H4649 N4636 0.985 . S
C4650 C4651 1.363 . S
C4650 C4656 1.379 . S
C4650 N4658 1.356 . S
C4651 C4650 1.363 . S
C4651 C4657 1.363 . S
C4652 C4653 1.363 . S
C4652 C4657 1.379 . S
C4652 N4659 1.356 . S
C4653 C4652 1.363 . S
C4653 C4656 1.363 . S
N4654 C4656 1.356 . S
N4654 H4666 0.984 . S
N4654 H4667 0.985 . S
N4655 C4657 1.356 . S
N4655 H4660 0.984 . S
N4655 H4661 0.985 . S
C4656 C4650 1.379 . S
C4656 C4653 1.363 . S
C4656 N4654 1.356 . S
C4657 C4651 1.363 . S
C4657 C4652 1.379 . S
C4657 N4655 1.356 . S
N4658 C4650 1.356 . S
N4658 H4664 0.984 . S
N4658 H4665 0.984 . S
N4659 C4652 1.356 . S
N4659 H4662 0.984 . S
N4659 H4663 0.985 . S
H4660 N4655 0.984 . S
H4661 N4655 0.985 . S
H4662 N4659 0.984 . S
H4663 N4659 0.985 . S
H4664 N4658 0.984 . S
H4665 N4658 0.984 . S
H4666 N4654 0.984 . S
H4667 N4654 0.985 . S
C4668 C4669 1.363 . S
C4668 C4674 1.379 . S
C4668 N4676 1.356 . S
C4669 C4668 1.363 . S
C4669 C4675 1.363 . S
C4670 C4671 1.363 . S
C4670 C4675 1.379 . S
C4670 N4677 1.356 . S
C4671 C4670 1.363 . S
C4671 C4674 1.363 . S
N4672 C4674 1.356 . S
N4672 H4684 0.984 . S
N4672 H4685 0.985 . S
N4673 C4675 1.356 . S
N4673 H4678 0.984 . S
N4673 H4679 0.985 . S
C4674 C4668 1.379 . S
C4674 C4671 1.363 . S
C4674 N4672 1.356 . S
C4675 C4669 1.363 . S
C4675 C4670 1.379 . S
C4675 N4673 1.356 . S
N4676 C4668 1.356 . S
N4676 H4682 0.984 . S
N4676 H4683 0.984 . S
N4677 C4670 1.356 . S
N4677 H4680 0.984 . S
N4677 H4681 0.985 . S
H4678 N4673 0.984 . S
H4679 N4673 0.985 . S
H4680 N4677 0.984 . S
H4681 N4677 0.985 . S
H4682 N4676 0.984 . S
H4683 N4676 0.984 . S
H4684 N4672 0.984 . S
H4685 N4672 0.985 . S
C4686 C4687 1.363 . S
C4686 C4692 1.379 . S
C4686 N4694 1.356 . S
C4687 C4686 1.363 . S
C4687 C4693 1.363 . S
C4688 C4689 1.363 . S
C4688 C4693 1.379 . S
C4688 N4695 1.356 . S
C4689 C4688 1.363 . S
C4689 C4692 1.363 . S
N4690 C4692 1.356 . S
N4690 H4702 0.984 . S
N4690 H4703 0.985 . S
N4691 C4693 1.356 . S
N4691 H4696 0.984 . S
N4691 H4697 0.985 . S
C4692 C4686 1.379 . S
C4692 C4689 1.363 . S
C4692 N4690 1.356 . S
C4693 C4687 1.363 . S
C4693 C4688 1.379 . S
C4693 N4691 1.356 . S
N4694 C4686 1.356 . S
N4694 H4700 0.984 . S
N4694 H4701 0.984 . S
N4695 C4688 1.356 . S
N4695 H4698 0.984 . S
N4695 H4699 0.985 . S
H4696 N4691 0.984 . S
H4697 N4691 0.985 . S
H4698 N4695 0.984 . S
H4699 N4695 0.985 . S
H4700 N4694 0.984 . S
H4701 N4694 0.984 . S
H4702 N4690 0.984 . S
H4703 N4690 0.985 . S
C4704 C4705 1.363 . S
C4704 C4710 1.379 . S
C4704 N4712 1.356 . S
C4705 C4704 1.363 . S
C4705 C4711 1.363 . S
C4706 C4707 1.363 . S
C4706 C4711 1.379 . S
C4706 N4713 1.356 . S
C4707 C4706 1.363 . S
C4707 C4710 1.363 . S
N4708 C4710 1.356 . S
N4708 H4720 0.984 . S
N4708 H4721 0.985 . S
N4709 C4711 1.356 . S
N4709 H4714 0.984 . S
N4709 H4715 0.985 . S
C4710 C4704 1.379 . S
C4710 C4707 1.363 . S
C4710 N4708 1.356 . S
C4711 C4705 1.363 . S
C4711 C4706 1.379 . S
C4711 N4709 1.356 . S
N4712 C4704 1.356 . S
N4712 H4718 0.984 . S
N4712 H4719 0.984 . S
N4713 C4706 1.356 . S
N4713 H4716 0.984 . S
N4713 H4717 0.985 . S
H4714 N4709 0.984 . S
H4715 N4709 0.985 . S
H4716 N4713 0.984 . S
H4717 N4713 0.985 . S
H4718 N4712 0.984 . S
H4719 N4712 0.984 . S
H4720 N4708 0.984 . S
H4721 N4708 0.985 . S
C4722 C4723 1.363 . S
C4722 C4728 1.379 . S
C4722 N4730 1.356 . S
C4723 C4722 1.363 . S
C4723 C4729 1.363 . S
C4724 C4725 1.363 . S
C4724 C4729 1.379 . S
C4724 N4731 1.356 . S
C4725 C4724 1.363 . S
C4725 C4728 1.363 . S
N4726 C4728 1.356 . S
N4726 H4738 0.984 . S
N4726 H4739 0.985 . S
N4727 C4729 1.356 . S
N4727 H4732 0.984 . S
N4727 H4733 0.985 . S
C4728 C4722 1.379 . S
C4728 C4725 1.363 . S
C4728 N4726 1.356 . S
C4729 C4723 1.363 . S
C4729 C4724 1.379 . S
C4729 N4727 1.356 . S
N4730 C4722 1.356 . S
N4730 H4736 0.984 . S
N4730 H4737 0.984 . S
N4731 C4724 1.356 . S
N4731 H4734 0.984 . S
N4731 H4735 0.985 . S
H4732 N4727 0.984 . S
H4733 N4727 0.985 . S
H4734 N4731 0.984 . S
H4735 N4731 0.985 . S
H4736 N4730 0.984 . S
H4737 N4730 0.984 . S
H4738 N4726 0.984 . S
H4739 N4726 0.985 . S
C4740 C4741 1.363 . S
C4740 C4746 1.379 . S
C4740 N4748 1.356 . S
C4741 C4740 1.363 . S
C4741 C4747 1.363 . S
C4742 C4743 1.363 . S
C4742 C4747 1.379 . S
C4742 N4749 1.356 . S
C4743 C4742 1.363 . S
C4743 C4746 1.363 . S
N4744 C4746 1.356 . S
N4744 H4756 0.984 . S
N4744 H4757 0.985 . S
N4745 C4747 1.356 . S
N4745 H4750 0.984 . S
N4745 H4751 0.985 . S
C4746 C4740 1.379 . S
C4746 C4743 1.363 . S
C4746 N4744 1.356 . S
C4747 C4741 1.363 . S
C4747 C4742 1.379 . S
C4747 N4745 1.356 . S
N4748 C4740 1.356 . S
N4748 H4754 0.984 . S
N4748 H4755 0.984 . S
N4749 C4742 1.356 . S
N4749 H4752 0.984 . S
N4749 H4753 0.985 . S
H4750 N4745 0.984 . S
H4751 N4745 0.985 . S
H4752 N4749 0.984 . S
H4753 N4749 0.985 . S
H4754 N4748 0.984 . S
H4755 N4748 0.984 . S
H4756 N4744 0.984 . S
H4757 N4744 0.985 . S
C4758 C4759 1.363 . S
C4758 C4764 1.379 . S
C4758 N4766 1.356 . S
C4759 C4758 1.363 . S
C4759 C4765 1.363 . S
C4760 C4761 1.363 . S
C4760 C4765 1.379 . S
C4760 N4767 1.356 . S
C4761 C4760 1.363 . S
C4761 C4764 1.363 . S
N4762 C4764 1.356 . S
N4762 H4774 0.984 . S
N4762 H4775 0.985 . S
N4763 C4765 1.356 . S
N4763 H4768 0.984 . S
N4763 H4769 0.985 . S
C4764 C4758 1.379 . S
C4764 C4761 1.363 . S
C4764 N4762 1.356 . S
C4765 C4759 1.363 . S
C4765 C4760 1.379 . S
C4765 N4763 1.356 . S
N4766 C4758 1.356 . S
N4766 H4772 0.984 . S
N4766 H4773 0.984 . S
N4767 C4760 1.356 . S
N4767 H4770 0.984 . S
N4767 H4771 0.985 . S
H4768 N4763 0.984 . S
H4769 N4763 0.985 . S
H4770 N4767 0.984 . S
H4771 N4767 0.985 . S
H4772 N4766 0.984 . S
H4773 N4766 0.984 . S
H4774 N4762 0.984 . S
H4775 N4762 0.985 . S
C4776 C4777 1.363 . S
C4776 C4782 1.379 . S
C4776 N4784 1.356 . S
C4777 C4776 1.363 . S
C4777 C4783 1.363 . S
C4778 C4779 1.363 . S
C4778 C4783 1.379 . S
C4778 N4785 1.356 . S
C4779 C4778 1.363 . S
C4779 C4782 1.363 . S
N4780 C4782 1.356 . S
N4780 H4792 0.984 . S
N4780 H4793 0.985 . S
N4781 C4783 1.356 . S
N4781 H4786 0.984 . S
N4781 H4787 0.985 . S
C4782 C4776 1.379 . S
C4782 C4779 1.363 . S
C4782 N4780 1.356 . S
C4783 C4777 1.363 . S
C4783 C4778 1.379 . S
C4783 N4781 1.356 . S
N4784 C4776 1.356 . S
N4784 H4790 0.984 . S
N4784 H4791 0.984 . S
N4785 C4778 1.356 . S
N4785 H4788 0.984 . S
N4785 H4789 0.985 . S
H4786 N4781 0.984 . S
H4787 N4781 0.985 . S
H4788 N4785 0.984 . S
H4789 N4785 0.985 . S
H4790 N4784 0.984 . S
H4791 N4784 0.984 . S
H4792 N4780 0.984 . S
H4793 N4780 0.985 . S
C4794 C4795 1.363 . S
C4794 C4800 1.379 . S
C4794 N4802 1.356 . S
C4795 C4794 1.363 . S
C4795 C4801 1.363 . S
C4796 C4797 1.363 . S
C4796 C4801 1.379 . S
C4796 N4803 1.356 . S
C4797 C4796 1.363 . S
C4797 C4800 1.363 . S
N4798 C4800 1.356 . S
N4798 H4810 0.984 . S
N4798 H4811 0.985 . S
N4799 C4801 1.356 . S
N4799 H4804 0.984 . S
N4799 H4805 0.985 . S
C4800 C4794 1.379 . S
C4800 C4797 1.363 . S
C4800 N4798 1.356 . S
C4801 C4795 1.363 . S
C4801 C4796 1.379 . S
C4801 N4799 1.356 . S
N4802 C4794 1.356 . S
N4802 H4808 0.984 . S
N4802 H4809 0.984 . S
N4803 C4796 1.356 . S
N4803 H4806 0.984 . S
N4803 H4807 0.985 . S
H4804 N4799 0.984 . S
H4805 N4799 0.985 . S
H4806 N4803 0.984 . S
H4807 N4803 0.985 . S
H4808 N4802 0.984 . S
H4809 N4802 0.984 . S
H4810 N4798 0.984 . S
H4811 N4798 0.985 . S
C4812 C4813 1.363 . S
C4812 C4818 1.379 . S
C4812 N4820 1.356 . S
C4813 C4812 1.363 . S
C4813 C4819 1.363 . S
C4814 C4815 1.363 . S
C4814 C4819 1.379 . S
C4814 N4821 1.356 . S
C4815 C4814 1.363 . S
C4815 C4818 1.363 . S
N4816 C4818 1.356 . S
N4816 H4828 0.984 . S
N4816 H4829 0.985 . S
N4817 C4819 1.356 . S
N4817 H4822 0.984 . S
N4817 H4823 0.985 . S
C4818 C4812 1.379 . S
C4818 C4815 1.363 . S
C4818 N4816 1.356 . S
C4819 C4813 1.363 . S
C4819 C4814 1.379 . S
C4819 N4817 1.356 . S
N4820 C4812 1.356 . S
N4820 H4826 0.984 . S
N4820 H4827 0.984 . S
N4821 C4814 1.356 . S
N4821 H4824 0.984 . S
N4821 H4825 0.985 . S
H4822 N4817 0.984 . S
H4823 N4817 0.985 . S
H4824 N4821 0.984 . S
H4825 N4821 0.985 . S
H4826 N4820 0.984 . S
H4827 N4820 0.984 . S
H4828 N4816 0.984 . S
H4829 N4816 0.985 . S
C4830 C4831 1.363 . S
C4830 C4836 1.379 . S
C4830 N4838 1.356 . S
C4831 C4830 1.363 . S
C4831 C4837 1.363 . S
C4832 C4833 1.363 . S
C4832 C4837 1.379 . S
C4832 N4839 1.356 . S
C4833 C4832 1.363 . S
C4833 C4836 1.363 . S
N4834 C4836 1.356 . S
N4834 H4846 0.984 . S
N4834 H4847 0.985 . S
N4835 C4837 1.356 . S
N4835 H4840 0.984 . S
N4835 H4841 0.985 . S
C4836 C4830 1.379 . S
C4836 C4833 1.363 . S
C4836 N4834 1.356 . S
C4837 C4831 1.363 . S
C4837 C4832 1.379 . S
C4837 N4835 1.356 . S
N4838 C4830 1.356 . S
N4838 H4844 0.984 . S
N4838 H4845 0.984 . S
N4839 C4832 1.356 . S
N4839 H4842 0.984 . S
N4839 H4843 0.985 . S
H4840 N4835 0.984 . S
H4841 N4835 0.985 . S
H4842 N4839 0.984 . S
H4843 N4839 0.985 . S
H4844 N4838 0.984 . S
H4845 N4838 0.984 . S
H4846 N4834 0.984 . S
H4847 N4834 0.985 . S
C4848 C4849 1.363 . S
C4848 C4854 1.379 . S
C4848 N4856 1.356 . S
C4849 C4848 1.363 . S
C4849 C4855 1.363 . S
C4850 C4851 1.363 . S
C4850 C4855 1.379 . S
C4850 N4857 1.356 . S
C4851 C4850 1.363 . S
C4851 C4854 1.363 . S
N4852 C4854 1.356 . S
N4852 H4864 0.984 . S
N4852 H4865 0.985 . S
N4853 C4855 1.356 . S
N4853 H4858 0.984 . S
N4853 H4859 0.985 . S
C4854 C4848 1.379 . S
C4854 C4851 1.363 . S
C4854 N4852 1.356 . S
C4855 C4849 1.363 . S
C4855 C4850 1.379 . S
C4855 N4853 1.356 . S
N4856 C4848 1.356 . S
N4856 H4862 0.984 . S
N4856 H4863 0.984 . S
N4857 C4850 1.356 . S
N4857 H4860 0.984 . S
N4857 H4861 0.985 . S
H4858 N4853 0.984 . S
H4859 N4853 0.985 . S
H4860 N4857 0.984 . S
H4861 N4857 0.985 . S
H4862 N4856 0.984 . S
H4863 N4856 0.984 . S
H4864 N4852 0.984 . S
H4865 N4852 0.985 . S
C4866 C4867 1.363 . S
C4866 C4872 1.379 . S
C4866 N4874 1.356 . S
C4867 C4866 1.363 . S
C4867 C4873 1.363 . S
C4868 C4869 1.363 . S
C4868 C4873 1.379 . S
C4868 N4875 1.356 . S
C4869 C4868 1.363 . S
C4869 C4872 1.363 . S
N4870 C4872 1.356 . S
N4870 H4882 0.984 . S
N4870 H4883 0.985 . S
N4871 C4873 1.356 . S
N4871 H4876 0.984 . S
N4871 H4877 0.985 . S
C4872 C4866 1.379 . S
C4872 C4869 1.363 . S
C4872 N4870 1.356 . S
C4873 C4867 1.363 . S
C4873 C4868 1.379 . S
C4873 N4871 1.356 . S
N4874 C4866 1.356 . S
N4874 H4880 0.984 . S
N4874 H4881 0.984 . S
N4875 C4868 1.356 . S
N4875 H4878 0.984 . S
N4875 H4879 0.985 . S
H4876 N4871 0.984 . S
H4877 N4871 0.985 . S
H4878 N4875 0.984 . S
H4879 N4875 0.985 . S
H4880 N4874 0.984 . S
H4881 N4874 0.984 . S
H4882 N4870 0.984 . S
H4883 N4870 0.985 . S
C4884 C4885 1.363 . S
C4884 C4890 1.379 . S
C4884 N4892 1.356 . S
C4885 C4884 1.363 . S
C4885 C4891 1.363 . S
C4886 C4887 1.363 . S
C4886 C4891 1.379 . S
C4886 N4893 1.356 . S
C4887 C4886 1.363 . S
C4887 C4890 1.363 . S
N4888 C4890 1.356 . S
N4888 H4900 0.984 . S
N4888 H4901 0.985 . S
N4889 C4891 1.356 . S
N4889 H4894 0.984 . S
N4889 H4895 0.985 . S
C4890 C4884 1.379 . S
C4890 C4887 1.363 . S
C4890 N4888 1.356 . S
C4891 C4885 1.363 . S
C4891 C4886 1.379 . S
C4891 N4889 1.356 . S
N4892 C4884 1.356 . S
N4892 H4898 0.984 . S
N4892 H4899 0.984 . S
N4893 C4886 1.356 . S
N4893 H4896 0.984 . S
N4893 H4897 0.985 . S
H4894 N4889 0.984 . S
H4895 N4889 0.985 . S
H4896 N4893 0.984 . S
H4897 N4893 0.985 . S
H4898 N4892 0.984 . S
H4899 N4892 0.984 . S
H4900 N4888 0.984 . S
H4901 N4888 0.985 . S
C4902 C4903 1.363 . S
C4902 C4908 1.379 . S
C4902 N4910 1.356 . S
C4903 C4902 1.363 . S
C4903 C4909 1.363 . S
C4904 C4905 1.363 . S
C4904 C4909 1.379 . S
C4904 N4911 1.356 . S
C4905 C4904 1.363 . S
C4905 C4908 1.363 . S
N4906 C4908 1.356 . S
N4906 H4918 0.984 . S
N4906 H4919 0.985 . S
N4907 C4909 1.356 . S
N4907 H4912 0.984 . S
N4907 H4913 0.985 . S
C4908 C4902 1.379 . S
C4908 C4905 1.363 . S
C4908 N4906 1.356 . S
C4909 C4903 1.363 . S
C4909 C4904 1.379 . S
C4909 N4907 1.356 . S
N4910 C4902 1.356 . S
N4910 H4916 0.984 . S
N4910 H4917 0.984 . S
N4911 C4904 1.356 . S
N4911 H4914 0.984 . S
N4911 H4915 0.985 . S
H4912 N4907 0.984 . S
H4913 N4907 0.985 . S
H4914 N4911 0.984 . S
H4915 N4911 0.985 . S
H4916 N4910 0.984 . S
H4917 N4910 0.984 . S
H4918 N4906 0.984 . S
H4919 N4906 0.985 . S
C4920 C4921 1.363 . S
C4920 C4926 1.379 . S
C4920 N4928 1.356 . S
C4921 C4920 1.363 . S
C4921 C4927 1.363 . S
C4922 C4923 1.363 . S
C4922 C4927 1.379 . S
C4922 N4929 1.356 . S
C4923 C4922 1.363 . S
C4923 C4926 1.363 . S
N4924 C4926 1.356 . S
N4924 H4936 0.984 . S
N4924 H4937 0.985 . S
N4925 C4927 1.356 . S
N4925 H4930 0.984 . S
N4925 H4931 0.985 . S
C4926 C4920 1.379 . S
C4926 C4923 1.363 . S
C4926 N4924 1.356 . S
C4927 C4921 1.363 . S
C4927 C4922 1.379 . S
C4927 N4925 1.356 . S
N4928 C4920 1.356 . S
N4928 H4934 0.984 . S
N4928 H4935 0.984 . S
N4929 C4922 1.356 . S
N4929 H4932 0.984 . S
N4929 H4933 0.985 . S
H4930 N4925 0.984 . S
H4931 N4925 0.985 . S
H4932 N4929 0.984 . S
H4933 N4929 0.985 . S
H4934 N4928 0.984 . S
H4935 N4928 0.984 . S
H4936 N4924 0.984 . S
H4937 N4924 0.985 . S
C4938 C4939 1.363 . S
C4938 C4944 1.379 . S
C4938 N4946 1.356 . S
C4939 C4938 1.363 . S
C4939 C4945 1.363 . S
C4940 C4941 1.363 . S
C4940 C4945 1.379 . S
C4940 N4947 1.356 . S
C4941 C4940 1.363 . S
C4941 C4944 1.363 . S
N4942 C4944 1.356 . S
N4942 H4954 0.984 . S
N4942 H4955 0.985 . S
N4943 C4945 1.356 . S
N4943 H4948 0.984 . S
N4943 H4949 0.985 . S
C4944 C4938 1.379 . S
C4944 C4941 1.363 . S
C4944 N4942 1.356 . S
C4945 C4939 1.363 . S
C4945 C4940 1.379 . S
C4945 N4943 1.356 . S
N4946 C4938 1.356 . S
N4946 H4952 0.984 . S
N4946 H4953 0.984 . S
N4947 C4940 1.356 . S
N4947 H4950 0.984 . S
N4947 H4951 0.985 . S
H4948 N4943 0.984 . S
H4949 N4943 0.985 . S
H4950 N4947 0.984 . S
H4951 N4947 0.985 . S
H4952 N4946 0.984 . S
H4953 N4946 0.984 . S
H4954 N4942 0.984 . S
H4955 N4942 0.985 . S
C4956 C4957 1.363 . S
C4956 C4962 1.379 . S
C4956 N4964 1.356 . S
C4957 C4956 1.363 . S
C4957 C4963 1.363 . S
C4958 C4959 1.363 . S
C4958 C4963 1.379 . S
C4958 N4965 1.356 . S
C4959 C4958 1.363 . S
C4959 C4962 1.363 . S
N4960 C4962 1.356 . S
N4960 H4972 0.984 . S
N4960 H4973 0.985 . S
N4961 C4963 1.356 . S
N4961 H4966 0.984 . S
N4961 H4967 0.985 . S
C4962 C4956 1.379 . S
C4962 C4959 1.363 . S
C4962 N4960 1.356 . S
C4963 C4957 1.363 . S
C4963 C4958 1.379 . S
C4963 N4961 1.356 . S
N4964 C4956 1.356 . S
N4964 H4970 0.984 . S
N4964 H4971 0.984 . S
N4965 C4958 1.356 . S
N4965 H4968 0.984 . S
N4965 H4969 0.985 . S
H4966 N4961 0.984 . S
H4967 N4961 0.985 . S
H4968 N4965 0.984 . S
H4969 N4965 0.985 . S
H4970 N4964 0.984 . S
H4971 N4964 0.984 . S
H4972 N4960 0.984 . S
H4973 N4960 0.985 . S
C4974 C4975 1.363 . S
C4974 C4980 1.379 . S
C4974 N4982 1.356 . S
C4975 C4974 1.363 . S
C4975 C4981 1.363 . S
C4976 C4977 1.363 . S
C4976 C4981 1.379 . S
C4976 N4983 1.356 . S
C4977 C4976 1.363 . S
C4977 C4980 1.363 . S
N4978 C4980 1.356 . S
N4978 H4990 0.984 . S
N4978 H4991 0.985 . S
N4979 C4981 1.356 . S
N4979 H4984 0.984 . S
N4979 H4985 0.985 . S
C4980 C4974 1.379 . S
C4980 C4977 1.363 . S
C4980 N4978 1.356 . S
C4981 C4975 1.363 . S
C4981 C4976 1.379 . S
C4981 N4979 1.356 . S
N4982 C4974 1.356 . S
N4982 H4988 0.984 . S
N4982 H4989 0.984 . S
N4983 C4976 1.356 . S
N4983 H4986 0.984 . S
N4983 H4987 0.985 . S
H4984 N4979 0.984 . S
H4985 N4979 0.985 . S
H4986 N4983 0.984 . S
H4987 N4983 0.985 . S
H4988 N4982 0.984 . S
H4989 N4982 0.984 . S
H4990 N4978 0.984 . S
H4991 N4978 0.985 . S
C4992 C4993 1.363 . S
C4992 C4998 1.379 . S
C4992 N5000 1.356 . S
C4993 C4992 1.363 . S
C4993 C4999 1.363 . S
C4994 C4995 1.363 . S
C4994 C4999 1.379 . S
C4994 N5001 1.356 . S
C4995 C4994 1.363 . S
C4995 C4998 1.363 . S
N4996 C4998 1.356 . S
N4996 H5008 0.984 . S
N4996 H5009 0.985 . S
N4997 C4999 1.356 . S
N4997 H5002 0.984 . S
N4997 H5003 0.985 . S
C4998 C4992 1.379 . S
C4998 C4995 1.363 . S
C4998 N4996 1.356 . S
C4999 C4993 1.363 . S
C4999 C4994 1.379 . S
C4999 N4997 1.356 . S
N5000 C4992 1.356 . S
N5000 H5006 0.984 . S
N5000 H5007 0.984 . S
N5001 C4994 1.356 . S
N5001 H5004 0.984 . S
N5001 H5005 0.985 . S
H5002 N4997 0.984 . S
H5003 N4997 0.985 . S
H5004 N5001 0.984 . S
H5005 N5001 0.985 . S
H5006 N5000 0.984 . S
H5007 N5000 0.984 . S
H5008 N4996 0.984 . S
H5009 N4996 0.985 . S
C5010 C5011 1.363 . S
C5010 C5016 1.379 . S
C5010 N5018 1.356 . S
C5011 C5010 1.363 . S
C5011 C5017 1.363 . S
C5012 C5013 1.363 . S
C5012 C5017 1.379 . S
C5012 N5019 1.356 . S
C5013 C5012 1.363 . S
C5013 C5016 1.363 . S
N5014 C5016 1.356 . S
N5014 H5026 0.984 . S
N5014 H5027 0.985 . S
N5015 C5017 1.356 . S
N5015 H5020 0.984 . S
N5015 H5021 0.985 . S
C5016 C5010 1.379 . S
C5016 C5013 1.363 . S
C5016 N5014 1.356 . S
C5017 C5011 1.363 . S
C5017 C5012 1.379 . S
C5017 N5015 1.356 . S
N5018 C5010 1.356 . S
N5018 H5024 0.984 . S
N5018 H5025 0.984 . S
N5019 C5012 1.356 . S
N5019 H5022 0.984 . S
N5019 H5023 0.985 . S
H5020 N5015 0.984 . S
H5021 N5015 0.985 . S
H5022 N5019 0.984 . S
H5023 N5019 0.985 . S
H5024 N5018 0.984 . S
H5025 N5018 0.984 . S
H5026 N5014 0.984 . S
H5027 N5014 0.985 . S
C5028 C5029 1.363 . S
C5028 C5034 1.379 . S
C5028 N5036 1.356 . S
C5029 C5028 1.363 . S
C5029 C5035 1.363 . S
C5030 C5031 1.363 . S
C5030 C5035 1.379 . S
C5030 N5037 1.356 . S
C5031 C5030 1.363 . S
C5031 C5034 1.363 . S
N5032 C5034 1.356 . S
N5032 H5044 0.984 . S
N5032 H5045 0.985 . S
N5033 C5035 1.356 . S
N5033 H5038 0.984 . S
N5033 H5039 0.985 . S
C5034 C5028 1.379 . S
C5034 C5031 1.363 . S
C5034 N5032 1.356 . S
C5035 C5029 1.363 . S
C5035 C5030 1.379 . S
C5035 N5033 1.356 . S
N5036 C5028 1.356 . S
N5036 H5042 0.984 . S
N5036 H5043 0.984 . S
N5037 C5030 1.356 . S
N5037 H5040 0.984 . S
N5037 H5041 0.985 . S
H5038 N5033 0.984 . S
H5039 N5033 0.985 . S
H5040 N5037 0.984 . S
H5041 N5037 0.985 . S
H5042 N5036 0.984 . S
H5043 N5036 0.984 . S
H5044 N5032 0.984 . S
H5045 N5032 0.985 . S
C5046 C5047 1.363 . S
C5046 C5052 1.379 . S
C5046 N5054 1.356 . S
C5047 C5046 1.363 . S
C5047 C5053 1.363 . S
C5048 C5049 1.363 . S
C5048 C5053 1.379 . S
C5048 N5055 1.356 . S
C5049 C5048 1.363 . S
C5049 C5052 1.363 . S
N5050 C5052 1.356 . S
N5050 H5062 0.984 . S
N5050 H5063 0.985 . S
N5051 C5053 1.356 . S
N5051 H5056 0.984 . S
N5051 H5057 0.985 . S
C5052 C5046 1.379 . S
C5052 C5049 1.363 . S
C5052 N5050 1.356 . S
C5053 C5047 1.363 . S
C5053 C5048 1.379 . S
C5053 N5051 1.356 . S
N5054 C5046 1.356 . S
N5054 H5060 0.984 . S
N5054 H5061 0.984 . S
N5055 C5048 1.356 . S
N5055 H5058 0.984 . S
N5055 H5059 0.985 . S
H5056 N5051 0.984 . S
H5057 N5051 0.985 . S
H5058 N5055 0.984 . S
H5059 N5055 0.985 . S
H5060 N5054 0.984 . S
H5061 N5054 0.984 . S
H5062 N5050 0.984 . S
H5063 N5050 0.985 . S
C5064 C5065 1.363 . S
C5064 C5070 1.379 . S
C5064 N5072 1.356 . S
C5065 C5064 1.363 . S
C5065 C5071 1.363 . S
C5066 C5067 1.363 . S
C5066 C5071 1.379 . S
C5066 N5073 1.356 . S
C5067 C5066 1.363 . S
C5067 C5070 1.363 . S
N5068 C5070 1.356 . S
N5068 H5080 0.984 . S
N5068 H5081 0.985 . S
N5069 C5071 1.356 . S
N5069 H5074 0.984 . S
N5069 H5075 0.985 . S
C5070 C5064 1.379 . S
C5070 C5067 1.363 . S
C5070 N5068 1.356 . S
C5071 C5065 1.363 . S
C5071 C5066 1.379 . S
C5071 N5069 1.356 . S
N5072 C5064 1.356 . S
N5072 H5078 0.984 . S
N5072 H5079 0.984 . S
N5073 C5066 1.356 . S
N5073 H5076 0.984 . S
N5073 H5077 0.985 . S
H5074 N5069 0.984 . S
H5075 N5069 0.985 . S
H5076 N5073 0.984 . S
H5077 N5073 0.985 . S
H5078 N5072 0.984 . S
H5079 N5072 0.984 . S
H5080 N5068 0.984 . S
H5081 N5068 0.985 . S
C5082 C5083 1.363 . S
C5082 C5088 1.379 . S
C5082 N5090 1.356 . S
C5083 C5082 1.363 . S
C5083 C5089 1.363 . S
C5084 C5085 1.363 . S
C5084 C5089 1.379 . S
C5084 N5091 1.356 . S
C5085 C5084 1.363 . S
C5085 C5088 1.363 . S
N5086 C5088 1.356 . S
N5086 H5098 0.984 . S
N5086 H5099 0.985 . S
N5087 C5089 1.356 . S
N5087 H5092 0.984 . S
N5087 H5093 0.985 . S
C5088 C5082 1.379 . S
C5088 C5085 1.363 . S
C5088 N5086 1.356 . S
C5089 C5083 1.363 . S
C5089 C5084 1.379 . S
C5089 N5087 1.356 . S
N5090 C5082 1.356 . S
N5090 H5096 0.984 . S
N5090 H5097 0.984 . S
N5091 C5084 1.356 . S
N5091 H5094 0.984 . S
N5091 H5095 0.985 . S
H5092 N5087 0.984 . S
H5093 N5087 0.985 . S
H5094 N5091 0.984 . S
H5095 N5091 0.985 . S
H5096 N5090 0.984 . S
H5097 N5090 0.984 . S
H5098 N5086 0.984 . S
H5099 N5086 0.985 . S
C5100 C5101 1.363 . S
C5100 C5106 1.379 . S
C5100 N5108 1.356 . S
C5101 C5100 1.363 . S
C5101 C5107 1.363 . S
C5102 C5103 1.363 . S
C5102 C5107 1.379 . S
C5102 N5109 1.356 . S
C5103 C5102 1.363 . S
C5103 C5106 1.363 . S
N5104 C5106 1.356 . S
N5104 H5116 0.984 . S
N5104 H5117 0.985 . S
N5105 C5107 1.356 . S
N5105 H5110 0.984 . S
N5105 H5111 0.985 . S
C5106 C5100 1.379 . S
C5106 C5103 1.363 . S
C5106 N5104 1.356 . S
C5107 C5101 1.363 . S
C5107 C5102 1.379 . S
C5107 N5105 1.356 . S
N5108 C5100 1.356 . S
N5108 H5114 0.984 . S
N5108 H5115 0.984 . S
N5109 C5102 1.356 . S
N5109 H5112 0.984 . S
N5109 H5113 0.985 . S
H5110 N5105 0.984 . S
H5111 N5105 0.985 . S
H5112 N5109 0.984 . S
H5113 N5109 0.985 . S
H5114 N5108 0.984 . S
H5115 N5108 0.984 . S
H5116 N5104 0.984 . S
H5117 N5104 0.985 . S
C5118 C5119 1.363 . S
C5118 C5124 1.379 . S
C5118 N5126 1.356 . S
C5119 C5118 1.363 . S
C5119 C5125 1.363 . S
C5120 C5121 1.363 . S
C5120 C5125 1.379 . S
C5120 N5127 1.356 . S
C5121 C5120 1.363 . S
C5121 C5124 1.363 . S
N5122 C5124 1.356 . S
N5122 H5134 0.984 . S
N5122 H5135 0.985 . S
N5123 C5125 1.356 . S
N5123 H5128 0.984 . S
N5123 H5129 0.985 . S
C5124 C5118 1.379 . S
C5124 C5121 1.363 . S
C5124 N5122 1.356 . S
C5125 C5119 1.363 . S
C5125 C5120 1.379 . S
C5125 N5123 1.356 . S
N5126 C5118 1.356 . S
N5126 H5132 0.984 . S
N5126 H5133 0.984 . S
N5127 C5120 1.356 . S
N5127 H5130 0.984 . S
N5127 H5131 0.985 . S
H5128 N5123 0.984 . S
H5129 N5123 0.985 . S
H5130 N5127 0.984 . S
H5131 N5127 0.985 . S
H5132 N5126 0.984 . S
H5133 N5126 0.984 . S
H5134 N5122 0.984 . S
H5135 N5122 0.985 . S
C5136 C5137 1.363 . S
C5136 C5142 1.379 . S
C5136 N5144 1.356 . S
C5137 C5136 1.363 . S
C5137 C5143 1.363 . S
C5138 C5139 1.363 . S
C5138 C5143 1.379 . S
C5138 N5145 1.356 . S
C5139 C5138 1.363 . S
C5139 C5142 1.363 . S
N5140 C5142 1.356 . S
N5140 H5152 0.984 . S
N5140 H5153 0.985 . S
N5141 C5143 1.356 . S
N5141 H5146 0.984 . S
N5141 H5147 0.985 . S
C5142 C5136 1.379 . S
C5142 C5139 1.363 . S
C5142 N5140 1.356 . S
C5143 C5137 1.363 . S
C5143 C5138 1.379 . S
C5143 N5141 1.356 . S
N5144 C5136 1.356 . S
N5144 H5150 0.984 . S
N5144 H5151 0.984 . S
N5145 C5138 1.356 . S
N5145 H5148 0.984 . S
N5145 H5149 0.985 . S
H5146 N5141 0.984 . S
H5147 N5141 0.985 . S
H5148 N5145 0.984 . S
H5149 N5145 0.985 . S
H5150 N5144 0.984 . S
H5151 N5144 0.984 . S
H5152 N5140 0.984 . S
H5153 N5140 0.985 . S
C5154 C5155 1.363 . S
C5154 C5160 1.379 . S
C5154 N5162 1.356 . S
C5155 C5154 1.363 . S
C5155 C5161 1.363 . S
C5156 C5157 1.363 . S
C5156 C5161 1.379 . S
C5156 N5163 1.356 . S
C5157 C5156 1.363 . S
C5157 C5160 1.363 . S
N5158 C5160 1.356 . S
N5158 H5170 0.984 . S
N5158 H5171 0.985 . S
N5159 C5161 1.356 . S
N5159 H5164 0.984 . S
N5159 H5165 0.985 . S
C5160 C5154 1.379 . S
C5160 C5157 1.363 . S
C5160 N5158 1.356 . S
C5161 C5155 1.363 . S
C5161 C5156 1.379 . S
C5161 N5159 1.356 . S
N5162 C5154 1.356 . S
N5162 H5168 0.984 . S
N5162 H5169 0.984 . S
N5163 C5156 1.356 . S
N5163 H5166 0.984 . S
N5163 H5167 0.985 . S
H5164 N5159 0.984 . S
H5165 N5159 0.985 . S
H5166 N5163 0.984 . S
H5167 N5163 0.985 . S
H5168 N5162 0.984 . S
H5169 N5162 0.984 . S
H5170 N5158 0.984 . S
H5171 N5158 0.985 . S
C5172 C5173 1.363 . S
C5172 C5178 1.379 . S
C5172 N5180 1.356 . S
C5173 C5172 1.363 . S
C5173 C5179 1.363 . S
C5174 C5175 1.363 . S
C5174 C5179 1.379 . S
C5174 N5181 1.356 . S
C5175 C5174 1.363 . S
C5175 C5178 1.363 . S
N5176 C5178 1.356 . S
N5176 H5188 0.984 . S
N5176 H5189 0.985 . S
N5177 C5179 1.356 . S
N5177 H5182 0.984 . S
N5177 H5183 0.985 . S
C5178 C5172 1.379 . S
C5178 C5175 1.363 . S
C5178 N5176 1.356 . S
C5179 C5173 1.363 . S
C5179 C5174 1.379 . S
C5179 N5177 1.356 . S
N5180 C5172 1.356 . S
N5180 H5186 0.984 . S
N5180 H5187 0.984 . S
N5181 C5174 1.356 . S
N5181 H5184 0.984 . S
N5181 H5185 0.985 . S
H5182 N5177 0.984 . S
H5183 N5177 0.985 . S
H5184 N5181 0.984 . S
H5185 N5181 0.985 . S
H5186 N5180 0.984 . S
H5187 N5180 0.984 . S
H5188 N5176 0.984 . S
H5189 N5176 0.985 . S
C5190 C5191 1.363 . S
C5190 C5196 1.379 . S
C5190 N5198 1.356 . S
C5191 C5190 1.363 . S
C5191 C5197 1.363 . S
C5192 C5193 1.363 . S
C5192 C5197 1.379 . S
C5192 N5199 1.356 . S
C5193 C5192 1.363 . S
C5193 C5196 1.363 . S
N5194 C5196 1.356 . S
N5194 H5206 0.984 . S
N5194 H5207 0.985 . S
N5195 C5197 1.356 . S
N5195 H5200 0.984 . S
N5195 H5201 0.985 . S
C5196 C5190 1.379 . S
C5196 C5193 1.363 . S
C5196 N5194 1.356 . S
C5197 C5191 1.363 . S
C5197 C5192 1.379 . S
C5197 N5195 1.356 . S
N5198 C5190 1.356 . S
N5198 H5204 0.984 . S
N5198 H5205 0.984 . S
N5199 C5192 1.356 . S
N5199 H5202 0.984 . S
N5199 H5203 0.985 . S
H5200 N5195 0.984 . S
H5201 N5195 0.985 . S
H5202 N5199 0.984 . S
H5203 N5199 0.985 . S
H5204 N5198 0.984 . S
H5205 N5198 0.984 . S
H5206 N5194 0.984 . S
H5207 N5194 0.985 . S
C5208 C5209 1.363 . S
C5208 C5214 1.379 . S
C5208 N5216 1.356 . S
C5209 C5208 1.363 . S
C5209 C5215 1.363 . S
C5210 C5211 1.363 . S
C5210 C5215 1.379 . S
C5210 N5217 1.356 . S
C5211 C5210 1.363 . S
C5211 C5214 1.363 . S
N5212 C5214 1.356 . S
N5212 H5224 0.984 . S
N5212 H5225 0.985 . S
N5213 C5215 1.356 . S
N5213 H5218 0.984 . S
N5213 H5219 0.985 . S
C5214 C5208 1.379 . S
C5214 C5211 1.363 . S
C5214 N5212 1.356 . S
C5215 C5209 1.363 . S
C5215 C5210 1.379 . S
C5215 N5213 1.356 . S
N5216 C5208 1.356 . S
N5216 H5222 0.984 . S
N5216 H5223 0.984 . S
N5217 C5210 1.356 . S
N5217 H5220 0.984 . S
N5217 H5221 0.985 . S
H5218 N5213 0.984 . S
H5219 N5213 0.985 . S
H5220 N5217 0.984 . S
H5221 N5217 0.985 . S
H5222 N5216 0.984 . S
H5223 N5216 0.984 . S
H5224 N5212 0.984 . S
H5225 N5212 0.985 . S
C5226 C5227 1.363 . S
C5226 C5232 1.379 . S
C5226 N5234 1.356 . S
C5227 C5226 1.363 . S
C5227 C5233 1.363 . S
C5228 C5229 1.363 . S
C5228 C5233 1.379 . S
C5228 N5235 1.356 . S
C5229 C5228 1.363 . S
C5229 C5232 1.363 . S
N5230 C5232 1.356 . S
N5230 H5242 0.984 . S
N5230 H5243 0.985 . S
N5231 C5233 1.356 . S
N5231 H5236 0.984 . S
N5231 H5237 0.985 . S
C5232 C5226 1.379 . S
C5232 C5229 1.363 . S
C5232 N5230 1.356 . S
C5233 C5227 1.363 . S
C5233 C5228 1.379 . S
C5233 N5231 1.356 . S
N5234 C5226 1.356 . S
N5234 H5240 0.984 . S
N5234 H5241 0.984 . S
N5235 C5228 1.356 . S
N5235 H5238 0.984 . S
N5235 H5239 0.985 . S
H5236 N5231 0.984 . S
H5237 N5231 0.985 . S
H5238 N5235 0.984 . S
H5239 N5235 0.985 . S
H5240 N5234 0.984 . S
H5241 N5234 0.984 . S
H5242 N5230 0.984 . S
H5243 N5230 0.985 . S
C5244 C5245 1.363 . S
C5244 C5250 1.379 . S
C5244 N5252 1.356 . S
C5245 C5244 1.363 . S
C5245 C5251 1.363 . S
C5246 C5247 1.363 . S
C5246 C5251 1.379 . S
C5246 N5253 1.356 . S
C5247 C5246 1.363 . S
C5247 C5250 1.363 . S
N5248 C5250 1.356 . S
N5248 H5260 0.984 . S
N5248 H5261 0.985 . S
N5249 C5251 1.356 . S
N5249 H5254 0.984 . S
N5249 H5255 0.985 . S
C5250 C5244 1.379 . S
C5250 C5247 1.363 . S
C5250 N5248 1.356 . S
C5251 C5245 1.363 . S
C5251 C5246 1.379 . S
C5251 N5249 1.356 . S
N5252 C5244 1.356 . S
N5252 H5258 0.984 . S
N5252 H5259 0.984 . S
N5253 C5246 1.356 . S
N5253 H5256 0.984 . S
N5253 H5257 0.985 . S
H5254 N5249 0.984 . S
H5255 N5249 0.985 . S
H5256 N5253 0.984 . S
H5257 N5253 0.985 . S
H5258 N5252 0.984 . S
H5259 N5252 0.984 . S
H5260 N5248 0.984 . S
H5261 N5248 0.985 . S
C5262 C5263 1.363 . S
C5262 C5268 1.379 . S
C5262 N5270 1.356 . S
C5263 C5262 1.363 . S
C5263 C5269 1.363 . S
C5264 C5265 1.363 . S
C5264 C5269 1.379 . S
C5264 N5271 1.356 . S
C5265 C5264 1.363 . S
C5265 C5268 1.363 . S
N5266 C5268 1.356 . S
N5266 H5278 0.984 . S
N5266 H5279 0.985 . S
N5267 C5269 1.356 . S
N5267 H5272 0.984 . S
N5267 H5273 0.985 . S
C5268 C5262 1.379 . S
C5268 C5265 1.363 . S
C5268 N5266 1.356 . S
C5269 C5263 1.363 . S
C5269 C5264 1.379 . S
C5269 N5267 1.356 . S
N5270 C5262 1.356 . S
N5270 H5276 0.984 . S
N5270 H5277 0.984 . S
N5271 C5264 1.356 . S
N5271 H5274 0.984 . S
N5271 H5275 0.985 . S
H5272 N5267 0.984 . S
H5273 N5267 0.985 . S
H5274 N5271 0.984 . S
H5275 N5271 0.985 . S
H5276 N5270 0.984 . S
H5277 N5270 0.984 . S
H5278 N5266 0.984 . S
H5279 N5266 0.985 . S
C5280 C5281 1.363 . S
C5280 C5286 1.379 . S
C5280 N5288 1.356 . S
C5281 C5280 1.363 . S
C5281 C5287 1.363 . S
C5282 C5283 1.363 . S
C5282 C5287 1.379 . S
C5282 N5289 1.356 . S
C5283 C5282 1.363 . S
C5283 C5286 1.363 . S
N5284 C5286 1.356 . S
N5284 H5296 0.984 . S
N5284 H5297 0.985 . S
N5285 C5287 1.356 . S
N5285 H5290 0.984 . S
N5285 H5291 0.985 . S
C5286 C5280 1.379 . S
C5286 C5283 1.363 . S
C5286 N5284 1.356 . S
C5287 C5281 1.363 . S
C5287 C5282 1.379 . S
C5287 N5285 1.356 . S
N5288 C5280 1.356 . S
N5288 H5294 0.984 . S
N5288 H5295 0.984 . S
N5289 C5282 1.356 . S
N5289 H5292 0.984 . S
N5289 H5293 0.985 . S
H5290 N5285 0.984 . S
H5291 N5285 0.985 . S
H5292 N5289 0.984 . S
H5293 N5289 0.985 . S
H5294 N5288 0.984 . S
H5295 N5288 0.984 . S
H5296 N5284 0.984 . S
H5297 N5284 0.985 . S
C5298 C5299 1.363 . S
C5298 C5304 1.379 . S
C5298 N5306 1.356 . S
C5299 C5298 1.363 . S
C5299 C5305 1.363 . S
C5300 C5301 1.363 . S
C5300 C5305 1.379 . S
C5300 N5307 1.356 . S
C5301 C5300 1.363 . S
C5301 C5304 1.363 . S
N5302 C5304 1.356 . S
N5302 H5314 0.984 . S
N5302 H5315 0.985 . S
N5303 C5305 1.356 . S
N5303 H5308 0.984 . S
N5303 H5309 0.985 . S
C5304 C5298 1.379 . S
C5304 C5301 1.363 . S
C5304 N5302 1.356 . S
C5305 C5299 1.363 . S
C5305 C5300 1.379 . S
C5305 N5303 1.356 . S
N5306 C5298 1.356 . S
N5306 H5312 0.984 . S
N5306 H5313 0.984 . S
N5307 C5300 1.356 . S
N5307 H5310 0.984 . S
N5307 H5311 0.985 . S
H5308 N5303 0.984 . S
H5309 N5303 0.985 . S
H5310 N5307 0.984 . S
H5311 N5307 0.985 . S
H5312 N5306 0.984 . S
H5313 N5306 0.984 . S
H5314 N5302 0.984 . S
H5315 N5302 0.985 . S
C5316 C5317 1.363 . S
C5316 C5322 1.379 . S
C5316 N5324 1.356 . S
C5317 C5316 1.363 . S
C5317 C5323 1.363 . S
C5318 C5319 1.363 . S
C5318 C5323 1.379 . S
C5318 N5325 1.356 . S
C5319 C5318 1.363 . S
C5319 C5322 1.363 . S
N5320 C5322 1.356 . S
N5320 H5332 0.984 . S
N5320 H5333 0.985 . S
N5321 C5323 1.356 . S
N5321 H5326 0.984 . S
N5321 H5327 0.985 . S
C5322 C5316 1.379 . S
C5322 C5319 1.363 . S
C5322 N5320 1.356 . S
C5323 C5317 1.363 . S
C5323 C5318 1.379 . S
C5323 N5321 1.356 . S
N5324 C5316 1.356 . S
N5324 H5330 0.984 . S
N5324 H5331 0.984 . S
N5325 C5318 1.356 . S
N5325 H5328 0.984 . S
N5325 H5329 0.985 . S
H5326 N5321 0.984 . S
H5327 N5321 0.985 . S
H5328 N5325 0.984 . S
H5329 N5325 0.985 . S
H5330 N5324 0.984 . S
H5331 N5324 0.984 . S
H5332 N5320 0.984 . S
H5333 N5320 0.985 . S
C5334 C5335 1.363 . S
C5334 C5340 1.379 . S
C5334 N5342 1.356 . S
C5335 C5334 1.363 . S
C5335 C5341 1.363 . S
C5336 C5337 1.363 . S
C5336 C5341 1.379 . S
C5336 N5343 1.356 . S
C5337 C5336 1.363 . S
C5337 C5340 1.363 . S
N5338 C5340 1.356 . S
N5338 H5350 0.984 . S
N5338 H5351 0.985 . S
N5339 C5341 1.356 . S
N5339 H5344 0.984 . S
N5339 H5345 0.985 . S
C5340 C5334 1.379 . S
C5340 C5337 1.363 . S
C5340 N5338 1.356 . S
C5341 C5335 1.363 . S
C5341 C5336 1.379 . S
C5341 N5339 1.356 . S
N5342 C5334 1.356 . S
N5342 H5348 0.984 . S
N5342 H5349 0.984 . S
N5343 C5336 1.356 . S
N5343 H5346 0.984 . S
N5343 H5347 0.985 . S
H5344 N5339 0.984 . S
H5345 N5339 0.985 . S
H5346 N5343 0.984 . S
H5347 N5343 0.985 . S
H5348 N5342 0.984 . S
H5349 N5342 0.984 . S
H5350 N5338 0.984 . S
H5351 N5338 0.985 . S
C5352 C5353 1.363 . S
C5352 C5358 1.379 . S
C5352 N5360 1.356 . S
C5353 C5352 1.363 . S
C5353 C5359 1.363 . S
C5354 C5355 1.363 . S
C5354 C5359 1.379 . S
C5354 N5361 1.356 . S
C5355 C5354 1.363 . S
C5355 C5358 1.363 . S
N5356 C5358 1.356 . S
N5356 H5368 0.984 . S
N5356 H5369 0.985 . S
N5357 C5359 1.356 . S
N5357 H5362 0.984 . S
N5357 H5363 0.985 . S
C5358 C5352 1.379 . S
C5358 C5355 1.363 . S
C5358 N5356 1.356 . S
C5359 C5353 1.363 . S
C5359 C5354 1.379 . S
C5359 N5357 1.356 . S
N5360 C5352 1.356 . S
N5360 H5366 0.984 . S
N5360 H5367 0.984 . S
N5361 C5354 1.356 . S
N5361 H5364 0.984 . S
N5361 H5365 0.985 . S
H5362 N5357 0.984 . S
H5363 N5357 0.985 . S
H5364 N5361 0.984 . S
H5365 N5361 0.985 . S
H5366 N5360 0.984 . S
H5367 N5360 0.984 . S
H5368 N5356 0.984 . S
H5369 N5356 0.985 . S
C5370 C5371 1.363 . S
C5370 C5376 1.379 . S
C5370 N5378 1.356 . S
C5371 C5370 1.363 . S
C5371 C5377 1.363 . S
C5372 C5373 1.363 . S
C5372 C5377 1.379 . S
C5372 N5379 1.356 . S
C5373 C5372 1.363 . S
C5373 C5376 1.363 . S
N5374 C5376 1.356 . S
N5374 H5386 0.984 . S
N5374 H5387 0.985 . S
N5375 C5377 1.356 . S
N5375 H5380 0.984 . S
N5375 H5381 0.985 . S
C5376 C5370 1.379 . S
C5376 C5373 1.363 . S
C5376 N5374 1.356 . S
C5377 C5371 1.363 . S
C5377 C5372 1.379 . S
C5377 N5375 1.356 . S
N5378 C5370 1.356 . S
N5378 H5384 0.984 . S
N5378 H5385 0.984 . S
N5379 C5372 1.356 . S
N5379 H5382 0.984 . S
N5379 H5383 0.985 . S
H5380 N5375 0.984 . S
H5381 N5375 0.985 . S
H5382 N5379 0.984 . S
H5383 N5379 0.985 . S
H5384 N5378 0.984 . S
H5385 N5378 0.984 . S
H5386 N5374 0.984 . S
H5387 N5374 0.985 . S
C5388 C5389 1.363 . S
C5388 C5394 1.379 . S
C5388 N5396 1.356 . S
C5389 C5388 1.363 . S
C5389 C5395 1.363 . S
C5390 C5391 1.363 . S
C5390 C5395 1.379 . S
C5390 N5397 1.356 . S
C5391 C5390 1.363 . S
C5391 C5394 1.363 . S
N5392 C5394 1.356 . S
N5392 H5404 0.984 . S
N5392 H5405 0.985 . S
N5393 C5395 1.356 . S
N5393 H5398 0.984 . S
N5393 H5399 0.985 . S
C5394 C5388 1.379 . S
C5394 C5391 1.363 . S
C5394 N5392 1.356 . S
C5395 C5389 1.363 . S
C5395 C5390 1.379 . S
C5395 N5393 1.356 . S
N5396 C5388 1.356 . S
N5396 H5402 0.984 . S
N5396 H5403 0.984 . S
N5397 C5390 1.356 . S
N5397 H5400 0.984 . S
N5397 H5401 0.985 . S
H5398 N5393 0.984 . S
H5399 N5393 0.985 . S
H5400 N5397 0.984 . S
H5401 N5397 0.985 . S
H5402 N5396 0.984 . S
H5403 N5396 0.984 . S
H5404 N5392 0.984 . S
H5405 N5392 0.985 . S
C5406 C5407 1.363 . S
C5406 C5412 1.379 . S
C5406 N5414 1.356 . S
C5407 C5406 1.363 . S
C5407 C5413 1.363 . S
C5408 C5409 1.363 . S
C5408 C5413 1.379 . S
C5408 N5415 1.356 . S
C5409 C5408 1.363 . S
C5409 C5412 1.363 . S
N5410 C5412 1.356 . S
N5410 H5422 0.984 . S
N5410 H5423 0.985 . S
N5411 C5413 1.356 . S
N5411 H5416 0.984 . S
N5411 H5417 0.985 . S
C5412 C5406 1.379 . S
C5412 C5409 1.363 . S
C5412 N5410 1.356 . S
C5413 C5407 1.363 . S
C5413 C5408 1.379 . S
C5413 N5411 1.356 . S
N5414 C5406 1.356 . S
N5414 H5420 0.984 . S
N5414 H5421 0.984 . S
N5415 C5408 1.356 . S
N5415 H5418 0.984 . S
N5415 H5419 0.985 . S
H5416 N5411 0.984 . S
H5417 N5411 0.985 . S
H5418 N5415 0.984 . S
H5419 N5415 0.985 . S
H5420 N5414 0.984 . S
H5421 N5414 0.984 . S
H5422 N5410 0.984 . S
H5423 N5410 0.985 . S
C5424 C5425 1.363 . S
C5424 C5430 1.379 . S
C5424 N5432 1.356 . S
C5425 C5424 1.363 . S
C5425 C5431 1.363 . S
C5426 C5427 1.363 . S
C5426 C5431 1.379 . S
C5426 N5433 1.356 . S
C5427 C5426 1.363 . S
C5427 C5430 1.363 . S
N5428 C5430 1.356 . S
N5428 H5440 0.984 . S
N5428 H5441 0.985 . S
N5429 C5431 1.356 . S
N5429 H5434 0.984 . S
N5429 H5435 0.985 . S
C5430 C5424 1.379 . S
C5430 C5427 1.363 . S
C5430 N5428 1.356 . S
C5431 C5425 1.363 . S
C5431 C5426 1.379 . S
C5431 N5429 1.356 . S
N5432 C5424 1.356 . S
N5432 H5438 0.984 . S
N5432 H5439 0.984 . S
N5433 C5426 1.356 . S
N5433 H5436 0.984 . S
N5433 H5437 0.985 . S
H5434 N5429 0.984 . S
H5435 N5429 0.985 . S
H5436 N5433 0.984 . S
H5437 N5433 0.985 . S
H5438 N5432 0.984 . S
H5439 N5432 0.984 . S
H5440 N5428 0.984 . S
H5441 N5428 0.985 . S
C5442 C5443 1.363 . S
C5442 C5448 1.379 . S
C5442 N5450 1.356 . S
C5443 C5442 1.363 . S
C5443 C5449 1.363 . S
C5444 C5445 1.363 . S
C5444 C5449 1.379 . S
C5444 N5451 1.356 . S
C5445 C5444 1.363 . S
C5445 C5448 1.363 . S
N5446 C5448 1.356 . S
N5446 H5458 0.984 . S
N5446 H5459 0.985 . S
N5447 C5449 1.356 . S
N5447 H5452 0.984 . S
N5447 H5453 0.985 . S
C5448 C5442 1.379 . S
C5448 C5445 1.363 . S
C5448 N5446 1.356 . S
C5449 C5443 1.363 . S
C5449 C5444 1.379 . S
C5449 N5447 1.356 . S
N5450 C5442 1.356 . S
N5450 H5456 0.984 . S
N5450 H5457 0.984 . S
N5451 C5444 1.356 . S
N5451 H5454 0.984 . S
N5451 H5455 0.985 . S
H5452 N5447 0.984 . S
H5453 N5447 0.985 . S
H5454 N5451 0.984 . S
H5455 N5451 0.985 . S
H5456 N5450 0.984 . S
H5457 N5450 0.984 . S
H5458 N5446 0.984 . S
H5459 N5446 0.985 . S
C5460 C5461 1.363 . S
C5460 C5466 1.379 . S
C5460 N5468 1.356 . S
C5461 C5460 1.363 . S
C5461 C5467 1.363 . S
C5462 C5463 1.363 . S
C5462 C5467 1.379 . S
C5462 N5469 1.356 . S
C5463 C5462 1.363 . S
C5463 C5466 1.363 . S
N5464 C5466 1.356 . S
N5464 H5476 0.984 . S
N5464 H5477 0.985 . S
N5465 C5467 1.356 . S
N5465 H5470 0.984 . S
N5465 H5471 0.985 . S
C5466 C5460 1.379 . S
C5466 C5463 1.363 . S
C5466 N5464 1.356 . S
C5467 C5461 1.363 . S
C5467 C5462 1.379 . S
C5467 N5465 1.356 . S
N5468 C5460 1.356 . S
N5468 H5474 0.984 . S
N5468 H5475 0.984 . S
N5469 C5462 1.356 . S
N5469 H5472 0.984 . S
N5469 H5473 0.985 . S
H5470 N5465 0.984 . S
H5471 N5465 0.985 . S
H5472 N5469 0.984 . S
H5473 N5469 0.985 . S
H5474 N5468 0.984 . S
H5475 N5468 0.984 . S
H5476 N5464 0.984 . S
H5477 N5464 0.985 . S
C5478 C5479 1.363 . S
C5478 C5484 1.379 . S
C5478 N5486 1.356 . S
C5479 C5478 1.363 . S
C5479 C5485 1.363 . S
C5480 C5481 1.363 . S
C5480 C5485 1.379 . S
C5480 N5487 1.356 . S
C5481 C5480 1.363 . S
C5481 C5484 1.363 . S
N5482 C5484 1.356 . S
N5482 H5494 0.984 . S
N5482 H5495 0.985 . S
N5483 C5485 1.356 . S
N5483 H5488 0.984 . S
N5483 H5489 0.985 . S
C5484 C5478 1.379 . S
C5484 C5481 1.363 . S
C5484 N5482 1.356 . S
C5485 C5479 1.363 . S
C5485 C5480 1.379 . S
C5485 N5483 1.356 . S
N5486 C5478 1.356 . S
N5486 H5492 0.984 . S
N5486 H5493 0.984 . S
N5487 C5480 1.356 . S
N5487 H5490 0.984 . S
N5487 H5491 0.985 . S
H5488 N5483 0.984 . S
H5489 N5483 0.985 . S
H5490 N5487 0.984 . S
H5491 N5487 0.985 . S
H5492 N5486 0.984 . S
H5493 N5486 0.984 . S
H5494 N5482 0.984 . S
H5495 N5482 0.985 . S
C5496 C5497 1.363 . S
C5496 C5502 1.379 . S
C5496 N5504 1.356 . S
C5497 C5496 1.363 . S
C5497 C5503 1.363 . S
C5498 C5499 1.363 . S
C5498 C5503 1.379 . S
C5498 N5505 1.356 . S
C5499 C5498 1.363 . S
C5499 C5502 1.363 . S
N5500 C5502 1.356 . S
N5500 H5512 0.984 . S
N5500 H5513 0.985 . S
N5501 C5503 1.356 . S
N5501 H5506 0.984 . S
N5501 H5507 0.985 . S
C5502 C5496 1.379 . S
C5502 C5499 1.363 . S
C5502 N5500 1.356 . S
C5503 C5497 1.363 . S
C5503 C5498 1.379 . S
C5503 N5501 1.356 . S
N5504 C5496 1.356 . S
N5504 H5510 0.984 . S
N5504 H5511 0.984 . S
N5505 C5498 1.356 . S
N5505 H5508 0.984 . S
N5505 H5509 0.985 . S
H5506 N5501 0.984 . S
H5507 N5501 0.985 . S
H5508 N5505 0.984 . S
H5509 N5505 0.985 . S
H5510 N5504 0.984 . S
H5511 N5504 0.984 . S
H5512 N5500 0.984 . S
H5513 N5500 0.985 . S
C5514 C5515 1.363 . S
C5514 C5520 1.379 . S
C5514 N5522 1.356 . S
C5515 C5514 1.363 . S
C5515 C5521 1.363 . S
C5516 C5517 1.363 . S
C5516 C5521 1.379 . S
C5516 N5523 1.356 . S
C5517 C5516 1.363 . S
C5517 C5520 1.363 . S
N5518 C5520 1.356 . S
N5518 H5530 0.984 . S
N5518 H5531 0.985 . S
N5519 C5521 1.356 . S
N5519 H5524 0.984 . S
N5519 H5525 0.985 . S
C5520 C5514 1.379 . S
C5520 C5517 1.363 . S
C5520 N5518 1.356 . S
C5521 C5515 1.363 . S
C5521 C5516 1.379 . S
C5521 N5519 1.356 . S
N5522 C5514 1.356 . S
N5522 H5528 0.984 . S
N5522 H5529 0.984 . S
N5523 C5516 1.356 . S
N5523 H5526 0.984 . S
N5523 H5527 0.985 . S
H5524 N5519 0.984 . S
H5525 N5519 0.985 . S
H5526 N5523 0.984 . S
H5527 N5523 0.985 . S
H5528 N5522 0.984 . S
H5529 N5522 0.984 . S
H5530 N5518 0.984 . S
H5531 N5518 0.985 . S
C5532 C5533 1.363 . S
C5532 C5538 1.379 . S
C5532 N5540 1.356 . S
C5533 C5532 1.363 . S
C5533 C5539 1.363 . S
C5534 C5535 1.363 . S
C5534 C5539 1.379 . S
C5534 N5541 1.356 . S
C5535 C5534 1.363 . S
C5535 C5538 1.363 . S
N5536 C5538 1.356 . S
N5536 H5548 0.984 . S
N5536 H5549 0.985 . S
N5537 C5539 1.356 . S
N5537 H5542 0.984 . S
N5537 H5543 0.985 . S
C5538 C5532 1.379 . S
C5538 C5535 1.363 . S
C5538 N5536 1.356 . S
C5539 C5533 1.363 . S
C5539 C5534 1.379 . S
C5539 N5537 1.356 . S
N5540 C5532 1.356 . S
N5540 H5546 0.984 . S
N5540 H5547 0.984 . S
N5541 C5534 1.356 . S
N5541 H5544 0.984 . S
N5541 H5545 0.985 . S
H5542 N5537 0.984 . S
H5543 N5537 0.985 . S
H5544 N5541 0.984 . S
H5545 N5541 0.985 . S
H5546 N5540 0.984 . S
H5547 N5540 0.984 . S
H5548 N5536 0.984 . S
H5549 N5536 0.985 . S
C5550 C5551 1.363 . S
C5550 C5556 1.379 . S
C5550 N5558 1.356 . S
C5551 C5550 1.363 . S
C5551 C5557 1.363 . S
C5552 C5553 1.363 . S
C5552 C5557 1.379 . S
C5552 N5559 1.356 . S
C5553 C5552 1.363 . S
C5553 C5556 1.363 . S
N5554 C5556 1.356 . S
N5554 H5566 0.984 . S
N5554 H5567 0.985 . S
N5555 C5557 1.356 . S
N5555 H5560 0.984 . S
N5555 H5561 0.985 . S
C5556 C5550 1.379 . S
C5556 C5553 1.363 . S
C5556 N5554 1.356 . S
C5557 C5551 1.363 . S
C5557 C5552 1.379 . S
C5557 N5555 1.356 . S
N5558 C5550 1.356 . S
N5558 H5564 0.984 . S
N5558 H5565 0.984 . S
N5559 C5552 1.356 . S
N5559 H5562 0.984 . S
N5559 H5563 0.985 . S
H5560 N5555 0.984 . S
H5561 N5555 0.985 . S
H5562 N5559 0.984 . S
H5563 N5559 0.985 . S
H5564 N5558 0.984 . S
H5565 N5558 0.984 . S
H5566 N5554 0.984 . S
H5567 N5554 0.985 . S
C5568 C5569 1.363 . S
C5568 C5574 1.379 1_655 S
C5568 N5576 1.356 . S
C5569 C5568 1.363 . S
C5569 C5575 1.363 . S
C5570 C5571 1.363 . S
C5570 C5575 1.379 1_455 S
C5570 N5577 1.356 . S
C5571 C5570 1.363 . S
C5571 C5574 1.363 . S
N5572 C5574 1.356 . S
N5572 H5584 0.984 . S
N5572 H5585 0.985 . S
N5573 C5575 1.356 . S
N5573 H5578 0.984 . S
N5573 H5579 0.985 . S
C5574 C5568 1.379 1_455 S
C5574 C5571 1.363 . S
C5574 N5572 1.356 . S
C5575 C5569 1.363 . S
C5575 C5570 1.379 1_655 S
C5575 N5573 1.356 . S
N5576 C5568 1.356 . S
N5576 H5582 0.984 . S
N5576 H5583 0.984 . S
N5577 C5570 1.356 . S
N5577 H5580 0.984 . S
N5577 H5581 0.985 . S
H5578 N5573 0.984 . S
H5579 N5573 0.985 . S
H5580 N5577 0.984 . S
H5581 N5577 0.985 . S
H5582 N5576 0.984 . S
H5583 N5576 0.984 . S
H5584 N5572 0.984 . S
H5585 N5572 0.985 . S
C5586 C5587 1.363 . S
C5586 C5592 1.379 1_565 S
C5586 N5594 1.356 . S
C5587 C5586 1.363 . S
C5587 C5593 1.363 . S
C5588 C5589 1.363 . S
C5588 C5593 1.379 1_545 S
C5588 N5595 1.356 . S
C5589 C5588 1.363 . S
C5589 C5592 1.363 . S
N5590 C5592 1.356 . S
N5590 H5602 0.984 . S
N5590 H5603 0.985 . S
N5591 C5593 1.356 . S
N5591 H5596 0.984 . S
N5591 H5597 0.985 . S
C5592 C5586 1.379 1_545 S
C5592 C5589 1.363 . S
C5592 N5590 1.356 . S
C5593 C5587 1.363 . S
C5593 C5588 1.379 1_565 S
C5593 N5591 1.356 . S
N5594 C5586 1.356 . S
N5594 H5600 0.984 . S
N5594 H5601 0.984 . S
N5595 C5588 1.356 . S
N5595 H5598 0.984 . S
N5595 H5599 0.985 . S
H5596 N5591 0.984 . S
H5597 N5591 0.985 . S
H5598 N5595 0.984 . S
H5599 N5595 0.985 . S
H5600 N5594 0.984 . S
H5601 N5594 0.984 . S
H5602 N5590 0.984 . S
H5603 N5590 0.985 . S
C5604 C5605 1.363 . S
C5604 C5610 1.379 1_455 S
C5604 N5612 1.356 . S
C5605 C5604 1.363 . S
C5605 C5611 1.363 . S
C5606 C5607 1.363 . S
C5606 C5611 1.379 1_655 S
C5606 N5613 1.356 . S
C5607 C5606 1.363 . S
C5607 C5610 1.363 . S
N5608 C5610 1.356 . S
N5608 H5620 0.984 . S
N5608 H5621 0.985 . S
N5609 C5611 1.356 . S
N5609 H5614 0.984 . S
N5609 H5615 0.985 . S
C5610 C5604 1.379 1_655 S
C5610 C5607 1.363 . S
C5610 N5608 1.356 . S
C5611 C5605 1.363 . S
C5611 C5606 1.379 1_455 S
C5611 N5609 1.356 . S
N5612 C5604 1.356 . S
N5612 H5618 0.984 . S
N5612 H5619 0.984 . S
N5613 C5606 1.356 . S
N5613 H5616 0.984 . S
N5613 H5617 0.985 . S
H5614 N5609 0.984 . S
H5615 N5609 0.985 . S
H5616 N5613 0.984 . S
H5617 N5613 0.985 . S
H5618 N5612 0.984 . S
H5619 N5612 0.984 . S
H5620 N5608 0.984 . S
H5621 N5608 0.985 . S
C5622 C5623 1.363 . S
C5622 C5628 1.379 1_545 S
C5622 N5630 1.356 . S
C5623 C5622 1.363 . S
C5623 C5629 1.363 . S
C5624 C5625 1.363 . S
C5624 C5629 1.379 1_565 S
C5624 N5631 1.356 . S
C5625 C5624 1.363 . S
C5625 C5628 1.363 . S
N5626 C5628 1.356 . S
N5626 H5638 0.984 . S
N5626 H5639 0.985 . S
N5627 C5629 1.356 . S
N5627 H5632 0.984 . S
N5627 H5633 0.985 . S
C5628 C5622 1.379 1_565 S
C5628 C5625 1.363 . S
C5628 N5626 1.356 . S
C5629 C5623 1.363 . S
C5629 C5624 1.379 1_545 S
C5629 N5627 1.356 . S
N5630 C5622 1.356 . S
N5630 H5636 0.984 . S
N5630 H5637 0.984 . S
N5631 C5624 1.356 . S
N5631 H5634 0.984 . S
N5631 H5635 0.985 . S
H5632 N5627 0.984 . S
H5633 N5627 0.985 . S
H5634 N5631 0.984 . S
H5635 N5631 0.985 . S
H5636 N5630 0.984 . S
H5637 N5630 0.984 . S
H5638 N5626 0.984 . S
H5639 N5626 0.985 . S
C5640 C5641 1.363 . S
C5640 C5646 1.379 1_655 S
C5640 N5648 1.356 . S
C5641 C5640 1.363 . S
C5641 C5647 1.363 . S
C5642 C5643 1.363 . S
C5642 C5647 1.379 1_455 S
C5642 N5649 1.356 . S
C5643 C5642 1.363 . S
C5643 C5646 1.363 . S
N5644 C5646 1.356 . S
N5644 H5656 0.984 . S
N5644 H5657 0.985 . S
N5645 C5647 1.356 . S
N5645 H5650 0.984 . S
N5645 H5651 0.985 . S
C5646 C5640 1.379 1_455 S
C5646 C5643 1.363 . S
C5646 N5644 1.356 . S
C5647 C5641 1.363 . S
C5647 C5642 1.379 1_655 S
C5647 N5645 1.356 . S
N5648 C5640 1.356 . S
N5648 H5654 0.984 . S
N5648 H5655 0.984 . S
N5649 C5642 1.356 . S
N5649 H5652 0.984 . S
N5649 H5653 0.985 . S
H5650 N5645 0.984 . S
H5651 N5645 0.985 . S
H5652 N5649 0.984 . S
H5653 N5649 0.985 . S
H5654 N5648 0.984 . S
H5655 N5648 0.984 . S
H5656 N5644 0.984 . S
H5657 N5644 0.985 . S
C5658 C5659 1.363 . S
C5658 C5664 1.379 1_545 S
C5658 N5666 1.356 . S
C5659 C5658 1.363 . S
C5659 C5665 1.363 . S
C5660 C5661 1.363 . S
C5660 C5665 1.379 1_565 S
C5660 N5667 1.356 . S
C5661 C5660 1.363 . S
C5661 C5664 1.363 . S
N5662 C5664 1.356 . S
N5662 H5674 0.984 . S
N5662 H5675 0.985 . S
N5663 C5665 1.356 . S
N5663 H5668 0.984 . S
N5663 H5669 0.985 . S
C5664 C5658 1.379 1_565 S
C5664 C5661 1.363 . S
C5664 N5662 1.356 . S
C5665 C5659 1.363 . S
C5665 C5660 1.379 1_545 S
C5665 N5663 1.356 . S
N5666 C5658 1.356 . S
N5666 H5672 0.984 . S
N5666 H5673 0.984 . S
N5667 C5660 1.356 . S
N5667 H5670 0.984 . S
N5667 H5671 0.985 . S
H5668 N5663 0.984 . S
H5669 N5663 0.985 . S
H5670 N5667 0.984 . S
H5671 N5667 0.985 . S
H5672 N5666 0.984 . S
H5673 N5666 0.984 . S
H5674 N5662 0.984 . S
H5675 N5662 0.985 . S
C5676 C5677 1.363 . S
C5676 C5682 1.379 1_655 S
C5676 N5684 1.356 . S
C5677 C5676 1.363 . S
C5677 C5683 1.363 . S
C5678 C5679 1.363 . S
C5678 C5683 1.379 1_455 S
C5678 N5685 1.356 . S
C5679 C5678 1.363 . S
C5679 C5682 1.363 . S
N5680 C5682 1.356 . S
N5680 H5692 0.984 . S
N5680 H5693 0.985 . S
N5681 C5683 1.356 . S
N5681 H5686 0.984 . S
N5681 H5687 0.985 . S
C5682 C5676 1.379 1_455 S
C5682 C5679 1.363 . S
C5682 N5680 1.356 . S
C5683 C5677 1.363 . S
C5683 C5678 1.379 1_655 S
C5683 N5681 1.356 . S
N5684 C5676 1.356 . S
N5684 H5690 0.984 . S
N5684 H5691 0.984 . S
N5685 C5678 1.356 . S
N5685 H5688 0.984 . S
N5685 H5689 0.985 . S
H5686 N5681 0.984 . S
H5687 N5681 0.985 . S
H5688 N5685 0.984 . S
H5689 N5685 0.985 . S
H5690 N5684 0.984 . S
H5691 N5684 0.984 . S
H5692 N5680 0.984 . S
H5693 N5680 0.985 . S
C5694 C5695 1.363 . S
C5694 C5700 1.379 1_545 S
C5694 N5702 1.356 . S
C5695 C5694 1.363 . S
C5695 C5701 1.363 . S
C5696 C5697 1.363 . S
C5696 C5701 1.379 1_565 S
C5696 N5703 1.356 . S
C5697 C5696 1.363 . S
C5697 C5700 1.363 . S
N5698 C5700 1.356 . S
N5698 H5710 0.984 . S
N5698 H5711 0.985 . S
N5699 C5701 1.356 . S
N5699 H5704 0.984 . S
N5699 H5705 0.985 . S
C5700 C5694 1.379 1_565 S
C5700 C5697 1.363 . S
C5700 N5698 1.356 . S
C5701 C5695 1.363 . S
C5701 C5696 1.379 1_545 S
C5701 N5699 1.356 . S
N5702 C5694 1.356 . S
N5702 H5708 0.984 . S
N5702 H5709 0.984 . S
N5703 C5696 1.356 . S
N5703 H5706 0.984 . S
N5703 H5707 0.985 . S
H5704 N5699 0.984 . S
H5705 N5699 0.985 . S
H5706 N5703 0.984 . S
H5707 N5703 0.985 . S
H5708 N5702 0.984 . S
H5709 N5702 0.984 . S
H5710 N5698 0.984 . S
H5711 N5698 0.985 . S
C5712 C5713 1.363 . S
C5712 C5718 1.379 1_565 S
C5712 N5720 1.356 . S
C5713 C5712 1.363 . S
C5713 C5719 1.363 . S
C5714 C5715 1.363 . S
C5714 C5719 1.379 1_545 S
C5714 N5721 1.356 . S
C5715 C5714 1.363 . S
C5715 C5718 1.363 . S
N5716 C5718 1.356 . S
N5716 H5728 0.984 . S
N5716 H5729 0.985 . S
N5717 C5719 1.356 . S
N5717 H5722 0.984 . S
N5717 H5723 0.985 . S
C5718 C5712 1.379 1_545 S
C5718 C5715 1.363 . S
C5718 N5716 1.356 . S
C5719 C5713 1.363 . S
C5719 C5714 1.379 1_565 S
C5719 N5717 1.356 . S
N5720 C5712 1.356 . S
N5720 H5726 0.984 . S
N5720 H5727 0.984 . S
N5721 C5714 1.356 . S
N5721 H5724 0.984 . S
N5721 H5725 0.985 . S
H5722 N5717 0.984 . S
H5723 N5717 0.985 . S
H5724 N5721 0.984 . S
H5725 N5721 0.985 . S
H5726 N5720 0.984 . S
H5727 N5720 0.984 . S
H5728 N5716 0.984 . S
H5729 N5716 0.985 . S
C5730 C5731 1.363 . S
C5730 C5736 1.379 1_655 S
C5730 N5738 1.356 . S
C5731 C5730 1.363 . S
C5731 C5737 1.363 . S
C5732 C5733 1.363 . S
C5732 C5737 1.379 1_455 S
C5732 N5739 1.356 . S
C5733 C5732 1.363 . S
C5733 C5736 1.363 . S
N5734 C5736 1.356 . S
N5734 H5746 0.984 . S
N5734 H5747 0.985 . S
N5735 C5737 1.356 . S
N5735 H5740 0.984 . S
N5735 H5741 0.985 . S
C5736 C5730 1.379 1_455 S
C5736 C5733 1.363 . S
C5736 N5734 1.356 . S
C5737 C5731 1.363 . S
C5737 C5732 1.379 1_655 S
C5737 N5735 1.356 . S
N5738 C5730 1.356 . S
N5738 H5744 0.984 . S
N5738 H5745 0.984 . S
N5739 C5732 1.356 . S
N5739 H5742 0.984 . S
N5739 H5743 0.985 . S
H5740 N5735 0.984 . S
H5741 N5735 0.985 . S
H5742 N5739 0.984 . S
H5743 N5739 0.985 . S
H5744 N5738 0.984 . S
H5745 N5738 0.984 . S
H5746 N5734 0.984 . S
H5747 N5734 0.985 . S
C5748 C5749 1.363 . S
C5748 C5754 1.379 1_565 S
C5748 N5756 1.356 . S
C5749 C5748 1.363 . S
C5749 C5755 1.363 . S
C5750 C5751 1.363 . S
C5750 C5755 1.379 1_545 S
C5750 N5757 1.356 . S
C5751 C5750 1.363 . S
C5751 C5754 1.363 . S
N5752 C5754 1.356 . S
N5752 H5764 0.984 . S
N5752 H5765 0.985 . S
N5753 C5755 1.356 . S
N5753 H5758 0.984 . S
N5753 H5759 0.985 . S
C5754 C5748 1.379 1_545 S
C5754 C5751 1.363 . S
C5754 N5752 1.356 . S
C5755 C5749 1.363 . S
C5755 C5750 1.379 1_565 S
C5755 N5753 1.356 . S
N5756 C5748 1.356 . S
N5756 H5762 0.984 . S
N5756 H5763 0.984 . S
N5757 C5750 1.356 . S
N5757 H5760 0.984 . S
N5757 H5761 0.985 . S
H5758 N5753 0.984 . S
H5759 N5753 0.985 . S
H5760 N5757 0.984 . S
H5761 N5757 0.985 . S
H5762 N5756 0.984 . S
H5763 N5756 0.984 . S
H5764 N5752 0.984 . S
H5765 N5752 0.985 . S
C5766 C5767 1.363 . S
C5766 C5772 1.379 1_655 S
C5766 N5774 1.356 . S
C5767 C5766 1.363 . S
C5767 C5773 1.363 . S
C5768 C5769 1.363 . S
C5768 C5773 1.379 1_455 S
C5768 N5775 1.356 . S
C5769 C5768 1.363 . S
C5769 C5772 1.363 . S
N5770 C5772 1.356 . S
N5770 H5782 0.984 . S
N5770 H5783 0.985 . S
N5771 C5773 1.356 . S
N5771 H5776 0.984 . S
N5771 H5777 0.985 . S
C5772 C5766 1.379 1_455 S
C5772 C5769 1.363 . S
C5772 N5770 1.356 . S
C5773 C5767 1.363 . S
C5773 C5768 1.379 1_655 S
C5773 N5771 1.356 . S
N5774 C5766 1.356 . S
N5774 H5780 0.984 . S
N5774 H5781 0.984 . S
N5775 C5768 1.356 . S
N5775 H5778 0.984 . S
N5775 H5779 0.985 . S
H5776 N5771 0.984 . S
H5777 N5771 0.985 . S
H5778 N5775 0.984 . S
H5779 N5775 0.985 . S
H5780 N5774 0.984 . S
H5781 N5774 0.984 . S
H5782 N5770 0.984 . S
H5783 N5770 0.985 . S
C5784 C5785 1.363 . S
C5784 C5790 1.379 1_565 S
C5784 N5792 1.356 . S
C5785 C5784 1.363 . S
C5785 C5791 1.363 . S
C5786 C5787 1.363 . S
C5786 C5791 1.379 1_545 S
C5786 N5793 1.356 . S
C5787 C5786 1.363 . S
C5787 C5790 1.363 . S
N5788 C5790 1.356 . S
N5788 H5800 0.984 . S
N5788 H5801 0.985 . S
N5789 C5791 1.356 . S
N5789 H5794 0.984 . S
N5789 H5795 0.985 . S
C5790 C5784 1.379 1_545 S
C5790 C5787 1.363 . S
C5790 N5788 1.356 . S
C5791 C5785 1.363 . S
C5791 C5786 1.379 1_565 S
C5791 N5789 1.356 . S
N5792 C5784 1.356 . S
N5792 H5798 0.984 . S
N5792 H5799 0.984 . S
N5793 C5786 1.356 . S
N5793 H5796 0.984 . S
N5793 H5797 0.985 . S
H5794 N5789 0.984 . S
H5795 N5789 0.985 . S
H5796 N5793 0.984 . S
H5797 N5793 0.985 . S
H5798 N5792 0.984 . S
H5799 N5792 0.984 . S
H5800 N5788 0.984 . S
H5801 N5788 0.985 . S
C5802 C5803 1.363 . S
C5802 C5808 1.379 1_455 S
C5802 N5810 1.356 . S
C5803 C5802 1.363 . S
C5803 C5809 1.363 . S
C5804 C5805 1.363 . S
C5804 C5809 1.379 1_655 S
C5804 N5811 1.356 . S
C5805 C5804 1.363 . S
C5805 C5808 1.363 . S
N5806 C5808 1.356 . S
N5806 H5818 0.984 . S
N5806 H5819 0.985 . S
N5807 C5809 1.356 . S
N5807 H5812 0.984 . S
N5807 H5813 0.985 . S
C5808 C5802 1.379 1_655 S
C5808 C5805 1.363 . S
C5808 N5806 1.356 . S
C5809 C5803 1.363 . S
C5809 C5804 1.379 1_455 S
C5809 N5807 1.356 . S
N5810 C5802 1.356 . S
N5810 H5816 0.984 . S
N5810 H5817 0.984 . S
N5811 C5804 1.356 . S
N5811 H5814 0.984 . S
N5811 H5815 0.985 . S
H5812 N5807 0.984 . S
H5813 N5807 0.985 . S
H5814 N5811 0.984 . S
H5815 N5811 0.985 . S
H5816 N5810 0.984 . S
H5817 N5810 0.984 . S
H5818 N5806 0.984 . S
H5819 N5806 0.985 . S
C5820 C5821 1.363 . S
C5820 C5826 1.379 1_545 S
C5820 N5828 1.356 . S
C5821 C5820 1.363 . S
C5821 C5827 1.363 . S
C5822 C5823 1.363 . S
C5822 C5827 1.379 1_565 S
C5822 N5829 1.356 . S
C5823 C5822 1.363 . S
C5823 C5826 1.363 . S
N5824 C5826 1.356 . S
N5824 H5836 0.984 . S
N5824 H5837 0.985 . S
N5825 C5827 1.356 . S
N5825 H5830 0.984 . S
N5825 H5831 0.985 . S
C5826 C5820 1.379 1_565 S
C5826 C5823 1.363 . S
C5826 N5824 1.356 . S
C5827 C5821 1.363 . S
C5827 C5822 1.379 1_545 S
C5827 N5825 1.356 . S
N5828 C5820 1.356 . S
N5828 H5834 0.984 . S
N5828 H5835 0.984 . S
N5829 C5822 1.356 . S
N5829 H5832 0.984 . S
N5829 H5833 0.985 . S
H5830 N5825 0.984 . S
H5831 N5825 0.985 . S
H5832 N5829 0.984 . S
H5833 N5829 0.985 . S
H5834 N5828 0.984 . S
H5835 N5828 0.984 . S
H5836 N5824 0.984 . S
H5837 N5824 0.985 . S
C5838 C5839 1.363 . S
C5838 C5844 1.379 1_455 S
C5838 N5846 1.356 . S
C5839 C5838 1.363 . S
C5839 C5845 1.363 . S
C5840 C5841 1.363 . S
C5840 C5845 1.379 1_655 S
C5840 N5847 1.356 . S
C5841 C5840 1.363 . S
C5841 C5844 1.363 . S
N5842 C5844 1.356 . S
N5842 H5854 0.984 . S
N5842 H5855 0.985 . S
N5843 C5845 1.356 . S
N5843 H5848 0.984 . S
N5843 H5849 0.985 . S
C5844 C5838 1.379 1_655 S
C5844 C5841 1.363 . S
C5844 N5842 1.356 . S
C5845 C5839 1.363 . S
C5845 C5840 1.379 1_455 S
C5845 N5843 1.356 . S
N5846 C5838 1.356 . S
N5846 H5852 0.984 . S
N5846 H5853 0.984 . S
N5847 C5840 1.356 . S
N5847 H5850 0.984 . S
N5847 H5851 0.985 . S
H5848 N5843 0.984 . S
H5849 N5843 0.985 . S
H5850 N5847 0.984 . S
H5851 N5847 0.985 . S
H5852 N5846 0.984 . S
H5853 N5846 0.984 . S
H5854 N5842 0.984 . S
H5855 N5842 0.985 . S
C5856 C5857 1.363 . S
C5856 C5862 1.379 1_556 S
C5856 N5864 1.356 . S
C5857 C5856 1.363 . S
C5857 C5863 1.363 . S
C5858 C5859 1.363 . S
C5858 C5863 1.379 1_554 S
C5858 N5865 1.356 . S
C5859 C5858 1.363 . S
C5859 C5862 1.363 . S
N5860 C5862 1.356 . S
N5860 H5872 0.984 . S
N5860 H5873 0.985 . S
N5861 C5863 1.356 . S
N5861 H5866 0.984 . S
N5861 H5867 0.985 . S
C5862 C5856 1.379 1_554 S
C5862 C5859 1.363 . S
C5862 N5860 1.356 . S
C5863 C5857 1.363 . S
C5863 C5858 1.379 1_556 S
C5863 N5861 1.356 . S
N5864 C5856 1.356 . S
N5864 H5870 0.984 . S
N5864 H5871 0.984 . S
N5865 C5858 1.356 . S
N5865 H5868 0.984 . S
N5865 H5869 0.985 . S
H5866 N5861 0.984 . S
H5867 N5861 0.985 . S
H5868 N5865 0.984 . S
H5869 N5865 0.985 . S
H5870 N5864 0.984 . S
H5871 N5864 0.984 . S
H5872 N5860 0.984 . S
H5873 N5860 0.985 . S
C5874 C5875 1.363 . S
C5874 C5880 1.379 1_554 S
C5874 N5882 1.356 . S
C5875 C5874 1.363 . S
C5875 C5881 1.363 . S
C5876 C5877 1.363 . S
C5876 C5881 1.379 1_556 S
C5876 N5883 1.356 . S
C5877 C5876 1.363 . S
C5877 C5880 1.363 . S
N5878 C5880 1.356 . S
N5878 H5890 0.984 . S
N5878 H5891 0.985 . S
N5879 C5881 1.356 . S
N5879 H5884 0.984 . S
N5879 H5885 0.985 . S
C5880 C5874 1.379 1_556 S
C5880 C5877 1.363 . S
C5880 N5878 1.356 . S
C5881 C5875 1.363 . S
C5881 C5876 1.379 1_554 S
C5881 N5879 1.356 . S
N5882 C5874 1.356 . S
N5882 H5888 0.984 . S
N5882 H5889 0.984 . S
N5883 C5876 1.356 . S
N5883 H5886 0.984 . S
N5883 H5887 0.985 . S
H5884 N5879 0.984 . S
H5885 N5879 0.985 . S
H5886 N5883 0.984 . S
H5887 N5883 0.985 . S
H5888 N5882 0.984 . S
H5889 N5882 0.984 . S
H5890 N5878 0.984 . S
H5891 N5878 0.985 . S
C5892 C5893 1.363 . S
C5892 C5898 1.379 1_554 S
C5892 N5900 1.356 . S
C5893 C5892 1.363 . S
C5893 C5899 1.363 . S
C5894 C5895 1.363 . S
C5894 C5899 1.379 1_556 S
C5894 N5901 1.356 . S
C5895 C5894 1.363 . S
C5895 C5898 1.363 . S
N5896 C5898 1.356 . S
N5896 H5908 0.984 . S
N5896 H5909 0.985 . S
N5897 C5899 1.356 . S
N5897 H5902 0.984 . S
N5897 H5903 0.985 . S
C5898 C5892 1.379 1_556 S
C5898 C5895 1.363 . S
C5898 N5896 1.356 . S
C5899 C5893 1.363 . S
C5899 C5894 1.379 1_554 S
C5899 N5897 1.356 . S
N5900 C5892 1.356 . S
N5900 H5906 0.984 . S
N5900 H5907 0.984 . S
N5901 C5894 1.356 . S
N5901 H5904 0.984 . S
N5901 H5905 0.985 . S
H5902 N5897 0.984 . S
H5903 N5897 0.985 . S
H5904 N5901 0.984 . S
H5905 N5901 0.985 . S
H5906 N5900 0.984 . S
H5907 N5900 0.984 . S
H5908 N5896 0.984 . S
H5909 N5896 0.985 . S
C5910 C5911 1.363 . S
C5910 C5916 1.379 1_554 S
C5910 N5918 1.356 . S
C5911 C5910 1.363 . S
C5911 C5917 1.363 . S
C5912 C5913 1.363 . S
C5912 C5917 1.379 1_556 S
C5912 N5919 1.356 . S
C5913 C5912 1.363 . S
C5913 C5916 1.363 . S
N5914 C5916 1.356 . S
N5914 H5926 0.984 . S
N5914 H5927 0.985 . S
N5915 C5917 1.356 . S
N5915 H5920 0.984 . S
N5915 H5921 0.985 . S
C5916 C5910 1.379 1_556 S
C5916 C5913 1.363 . S
C5916 N5914 1.356 . S
C5917 C5911 1.363 . S
C5917 C5912 1.379 1_554 S
C5917 N5915 1.356 . S
N5918 C5910 1.356 . S
N5918 H5924 0.984 . S
N5918 H5925 0.984 . S
N5919 C5912 1.356 . S
N5919 H5922 0.984 . S
N5919 H5923 0.985 . S
H5920 N5915 0.984 . S
H5921 N5915 0.985 . S
H5922 N5919 0.984 . S
H5923 N5919 0.985 . S
H5924 N5918 0.984 . S
H5925 N5918 0.984 . S
H5926 N5914 0.984 . S
H5927 N5914 0.985 . S
C5928 C5929 1.363 . S
C5928 C5934 1.379 1_556 S
C5928 N5936 1.356 . S
C5929 C5928 1.363 . S
C5929 C5935 1.363 . S
C5930 C5931 1.363 . S
C5930 C5935 1.379 1_554 S
C5930 N5937 1.356 . S
C5931 C5930 1.363 . S
C5931 C5934 1.363 . S
N5932 C5934 1.356 . S
N5932 H5944 0.984 . S
N5932 H5945 0.985 . S
N5933 C5935 1.356 . S
N5933 H5938 0.984 . S
N5933 H5939 0.985 . S
C5934 C5928 1.379 1_554 S
C5934 C5931 1.363 . S
C5934 N5932 1.356 . S
C5935 C5929 1.363 . S
C5935 C5930 1.379 1_556 S
C5935 N5933 1.356 . S
N5936 C5928 1.356 . S
N5936 H5942 0.984 . S
N5936 H5943 0.984 . S
N5937 C5930 1.356 . S
N5937 H5940 0.984 . S
N5937 H5941 0.985 . S
H5938 N5933 0.984 . S
H5939 N5933 0.985 . S
H5940 N5937 0.984 . S
H5941 N5937 0.985 . S
H5942 N5936 0.984 . S
H5943 N5936 0.984 . S
H5944 N5932 0.984 . S
H5945 N5932 0.985 . S
C5946 C5947 1.363 . S
C5946 C5952 1.379 1_556 S
C5946 N5954 1.356 . S
C5947 C5946 1.363 . S
C5947 C5953 1.363 . S
C5948 C5949 1.363 . S
C5948 C5953 1.379 1_554 S
C5948 N5955 1.356 . S
C5949 C5948 1.363 . S
C5949 C5952 1.363 . S
N5950 C5952 1.356 . S
N5950 H5962 0.984 . S
N5950 H5963 0.985 . S
N5951 C5953 1.356 . S
N5951 H5956 0.984 . S
N5951 H5957 0.985 . S
C5952 C5946 1.379 1_554 S
C5952 C5949 1.363 . S
C5952 N5950 1.356 . S
C5953 C5947 1.363 . S
C5953 C5948 1.379 1_556 S
C5953 N5951 1.356 . S
N5954 C5946 1.356 . S
N5954 H5960 0.984 . S
N5954 H5961 0.984 . S
N5955 C5948 1.356 . S
N5955 H5958 0.984 . S
N5955 H5959 0.985 . S
H5956 N5951 0.984 . S
H5957 N5951 0.985 . S
H5958 N5955 0.984 . S
H5959 N5955 0.985 . S
H5960 N5954 0.984 . S
H5961 N5954 0.984 . S
H5962 N5950 0.984 . S
H5963 N5950 0.985 . S
C5964 C5965 1.363 . S
C5964 C5970 1.379 1_556 S
C5964 N5972 1.356 . S
C5965 C5964 1.363 . S
C5965 C5971 1.363 . S
C5966 C5967 1.363 . S
C5966 C5971 1.379 1_554 S
C5966 N5973 1.356 . S
C5967 C5966 1.363 . S
C5967 C5970 1.363 . S
N5968 C5970 1.356 . S
N5968 H5980 0.984 . S
N5968 H5981 0.985 . S
N5969 C5971 1.356 . S
N5969 H5974 0.984 . S
N5969 H5975 0.985 . S
C5970 C5964 1.379 1_554 S
C5970 C5967 1.363 . S
C5970 N5968 1.356 . S
C5971 C5965 1.363 . S
C5971 C5966 1.379 1_556 S
C5971 N5969 1.356 . S
N5972 C5964 1.356 . S
N5972 H5978 0.984 . S
N5972 H5979 0.984 . S
N5973 C5966 1.356 . S
N5973 H5976 0.984 . S
N5973 H5977 0.985 . S
H5974 N5969 0.984 . S
H5975 N5969 0.985 . S
H5976 N5973 0.984 . S
H5977 N5973 0.985 . S
H5978 N5972 0.984 . S
H5979 N5972 0.984 . S
H5980 N5968 0.984 . S
H5981 N5968 0.985 . S
C5982 C5983 1.363 . S
C5982 C5988 1.379 1_556 S
C5982 N5990 1.356 . S
C5983 C5982 1.363 . S
C5983 C5989 1.363 . S
C5984 C5985 1.363 . S
C5984 C5989 1.379 1_554 S
C5984 N5991 1.356 . S
C5985 C5984 1.363 . S
C5985 C5988 1.363 . S
N5986 C5988 1.356 . S
N5986 H5998 0.984 . S
N5986 H5999 0.985 . S
N5987 C5989 1.356 . S
N5987 H5992 0.984 . S
N5987 H5993 0.985 . S
C5988 C5982 1.379 1_554 S
C5988 C5985 1.363 . S
C5988 N5986 1.356 . S
C5989 C5983 1.363 . S
C5989 C5984 1.379 1_556 S
C5989 N5987 1.356 . S
N5990 C5982 1.356 . S
N5990 H5996 0.984 . S
N5990 H5997 0.984 . S
N5991 C5984 1.356 . S
N5991 H5994 0.984 . S
N5991 H5995 0.985 . S
H5992 N5987 0.984 . S
H5993 N5987 0.985 . S
H5994 N5991 0.984 . S
H5995 N5991 0.985 . S
H5996 N5990 0.984 . S
H5997 N5990 0.984 . S
H5998 N5986 0.984 . S
H5999 N5986 0.985 . S
C6000 C6001 1.363 . S
C6000 C6006 1.379 . S
C6000 N6008 1.356 . S
C6001 C6000 1.363 . S
C6001 C6007 1.363 . S
C6002 C6003 1.363 . S
C6002 C6007 1.379 . S
C6002 N6009 1.356 . S
C6003 C6002 1.363 . S
C6003 C6006 1.363 . S
N6004 C6006 1.356 . S
N6004 H6016 0.984 . S
N6004 H6017 0.985 . S
N6005 C6007 1.356 . S
N6005 H6010 0.984 . S
N6005 H6011 0.985 . S
C6006 C6000 1.379 . S
C6006 C6003 1.363 . S
C6006 N6004 1.356 . S
C6007 C6001 1.363 . S
C6007 C6002 1.379 . S
C6007 N6005 1.356 . S
N6008 C6000 1.356 . S
N6008 H6014 0.984 . S
N6008 H6015 0.984 . S
N6009 C6002 1.356 . S
N6009 H6012 0.984 . S
N6009 H6013 0.985 . S
H6010 N6005 0.984 . S
H6011 N6005 0.985 . S
H6012 N6009 0.984 . S
H6013 N6009 0.985 . S
H6014 N6008 0.984 . S
H6015 N6008 0.984 . S
H6016 N6004 0.984 . S
H6017 N6004 0.985 . S
C6018 C6019 1.363 . S
C6018 C6024 1.379 . S
C6018 N6026 1.356 . S
C6019 C6018 1.363 . S
C6019 C6025 1.363 . S
C6020 C6021 1.363 . S
C6020 C6025 1.379 . S
C6020 N6027 1.356 . S
C6021 C6020 1.363 . S
C6021 C6024 1.363 . S
N6022 C6024 1.356 . S
N6022 H6034 0.984 . S
N6022 H6035 0.985 . S
N6023 C6025 1.356 . S
N6023 H6028 0.984 . S
N6023 H6029 0.985 . S
C6024 C6018 1.379 . S
C6024 C6021 1.363 . S
C6024 N6022 1.356 . S
C6025 C6019 1.363 . S
C6025 C6020 1.379 . S
C6025 N6023 1.356 . S
N6026 C6018 1.356 . S
N6026 H6032 0.984 . S
N6026 H6033 0.984 . S
N6027 C6020 1.356 . S
N6027 H6030 0.984 . S
N6027 H6031 0.985 . S
H6028 N6023 0.984 . S
H6029 N6023 0.985 . S
H6030 N6027 0.984 . S
H6031 N6027 0.985 . S
H6032 N6026 0.984 . S
H6033 N6026 0.984 . S
H6034 N6022 0.984 . S
H6035 N6022 0.985 . S
C6036 C6037 1.363 . S
C6036 C6042 1.379 . S
C6036 N6044 1.356 . S
C6037 C6036 1.363 . S
C6037 C6043 1.363 . S
C6038 C6039 1.363 . S
C6038 C6043 1.379 . S
C6038 N6045 1.356 . S
C6039 C6038 1.363 . S
C6039 C6042 1.363 . S
N6040 C6042 1.356 . S
N6040 H6052 0.984 . S
N6040 H6053 0.985 . S
N6041 C6043 1.356 . S
N6041 H6046 0.984 . S
N6041 H6047 0.985 . S
C6042 C6036 1.379 . S
C6042 C6039 1.363 . S
C6042 N6040 1.356 . S
C6043 C6037 1.363 . S
C6043 C6038 1.379 . S
C6043 N6041 1.356 . S
N6044 C6036 1.356 . S
N6044 H6050 0.984 . S
N6044 H6051 0.984 . S
N6045 C6038 1.356 . S
N6045 H6048 0.984 . S
N6045 H6049 0.985 . S
H6046 N6041 0.984 . S
H6047 N6041 0.985 . S
H6048 N6045 0.984 . S
H6049 N6045 0.985 . S
H6050 N6044 0.984 . S
H6051 N6044 0.984 . S
H6052 N6040 0.984 . S
H6053 N6040 0.985 . S
C6054 C6055 1.363 . S
C6054 C6060 1.379 . S
C6054 N6062 1.356 . S
C6055 C6054 1.363 . S
C6055 C6061 1.363 . S
C6056 C6057 1.363 . S
C6056 C6061 1.379 . S
C6056 N6063 1.356 . S
C6057 C6056 1.363 . S
C6057 C6060 1.363 . S
N6058 C6060 1.356 . S
N6058 H6070 0.984 . S
N6058 H6071 0.985 . S
N6059 C6061 1.356 . S
N6059 H6064 0.984 . S
N6059 H6065 0.985 . S
C6060 C6054 1.379 . S
C6060 C6057 1.363 . S
C6060 N6058 1.356 . S
C6061 C6055 1.363 . S
C6061 C6056 1.379 . S
C6061 N6059 1.356 . S
N6062 C6054 1.356 . S
N6062 H6068 0.984 . S
N6062 H6069 0.984 . S
N6063 C6056 1.356 . S
N6063 H6066 0.984 . S
N6063 H6067 0.985 . S
H6064 N6059 0.984 . S
H6065 N6059 0.985 . S
H6066 N6063 0.984 . S
H6067 N6063 0.985 . S
H6068 N6062 0.984 . S
H6069 N6062 0.984 . S
H6070 N6058 0.984 . S
H6071 N6058 0.985 . S
C6072 C6073 1.363 . S
C6072 C6078 1.379 . S
C6072 N6080 1.356 . S
C6073 C6072 1.363 . S
C6073 C6079 1.363 . S
C6074 C6075 1.363 . S
C6074 C6079 1.379 . S
C6074 N6081 1.356 . S
C6075 C6074 1.363 . S
C6075 C6078 1.363 . S
N6076 C6078 1.356 . S
N6076 H6088 0.984 . S
N6076 H6089 0.985 . S
N6077 C6079 1.356 . S
N6077 H6082 0.984 . S
N6077 H6083 0.985 . S
C6078 C6072 1.379 . S
C6078 C6075 1.363 . S
C6078 N6076 1.356 . S
C6079 C6073 1.363 . S
C6079 C6074 1.379 . S
C6079 N6077 1.356 . S
N6080 C6072 1.356 . S
N6080 H6086 0.984 . S
N6080 H6087 0.984 . S
N6081 C6074 1.356 . S
N6081 H6084 0.984 . S
N6081 H6085 0.985 . S
H6082 N6077 0.984 . S
H6083 N6077 0.985 . S
H6084 N6081 0.984 . S
H6085 N6081 0.985 . S
H6086 N6080 0.984 . S
H6087 N6080 0.984 . S
H6088 N6076 0.984 . S
H6089 N6076 0.985 . S
C6090 C6091 1.363 . S
C6090 C6096 1.379 . S
C6090 N6098 1.356 . S
C6091 C6090 1.363 . S
C6091 C6097 1.363 . S
C6092 C6093 1.363 . S
C6092 C6097 1.379 . S
C6092 N6099 1.356 . S
C6093 C6092 1.363 . S
C6093 C6096 1.363 . S
N6094 C6096 1.356 . S
N6094 H6106 0.984 . S
N6094 H6107 0.985 . S
N6095 C6097 1.356 . S
N6095 H6100 0.984 . S
N6095 H6101 0.985 . S
C6096 C6090 1.379 . S
C6096 C6093 1.363 . S
C6096 N6094 1.356 . S
C6097 C6091 1.363 . S
C6097 C6092 1.379 . S
C6097 N6095 1.356 . S
N6098 C6090 1.356 . S
N6098 H6104 0.984 . S
N6098 H6105 0.984 . S
N6099 C6092 1.356 . S
N6099 H6102 0.984 . S
N6099 H6103 0.985 . S
H6100 N6095 0.984 . S
H6101 N6095 0.985 . S
H6102 N6099 0.984 . S
H6103 N6099 0.985 . S
H6104 N6098 0.984 . S
H6105 N6098 0.984 . S
H6106 N6094 0.984 . S
H6107 N6094 0.985 . S
C6108 C6109 1.363 . S
C6108 C6114 1.379 . S
C6108 N6116 1.356 . S
C6109 C6108 1.363 . S
C6109 C6115 1.363 . S
C6110 C6111 1.363 . S
C6110 C6115 1.379 . S
C6110 N6117 1.356 . S
C6111 C6110 1.363 . S
C6111 C6114 1.363 . S
N6112 C6114 1.356 . S
N6112 H6124 0.984 . S
N6112 H6125 0.985 . S
N6113 C6115 1.356 . S
N6113 H6118 0.984 . S
N6113 H6119 0.985 . S
C6114 C6108 1.379 . S
C6114 C6111 1.363 . S
C6114 N6112 1.356 . S
C6115 C6109 1.363 . S
C6115 C6110 1.379 . S
C6115 N6113 1.356 . S
N6116 C6108 1.356 . S
N6116 H6122 0.984 . S
N6116 H6123 0.984 . S
N6117 C6110 1.356 . S
N6117 H6120 0.984 . S
N6117 H6121 0.985 . S
H6118 N6113 0.984 . S
H6119 N6113 0.985 . S
H6120 N6117 0.984 . S
H6121 N6117 0.985 . S
H6122 N6116 0.984 . S
H6123 N6116 0.984 . S
H6124 N6112 0.984 . S
H6125 N6112 0.985 . S
C6126 C6127 1.363 . S
C6126 C6132 1.379 . S
C6126 N6134 1.356 . S
C6127 C6126 1.363 . S
C6127 C6133 1.363 . S
C6128 C6129 1.363 . S
C6128 C6133 1.379 . S
C6128 N6135 1.356 . S
C6129 C6128 1.363 . S
C6129 C6132 1.363 . S
N6130 C6132 1.356 . S
N6130 H6142 0.984 . S
N6130 H6143 0.985 . S
N6131 C6133 1.356 . S
N6131 H6136 0.984 . S
N6131 H6137 0.985 . S
C6132 C6126 1.379 . S
C6132 C6129 1.363 . S
C6132 N6130 1.356 . S
C6133 C6127 1.363 . S
C6133 C6128 1.379 . S
C6133 N6131 1.356 . S
N6134 C6126 1.356 . S
N6134 H6140 0.984 . S
N6134 H6141 0.984 . S
N6135 C6128 1.356 . S
N6135 H6138 0.984 . S
N6135 H6139 0.985 . S
H6136 N6131 0.984 . S
H6137 N6131 0.985 . S
H6138 N6135 0.984 . S
H6139 N6135 0.985 . S
H6140 N6134 0.984 . S
H6141 N6134 0.984 . S
H6142 N6130 0.984 . S
H6143 N6130 0.985 . S
C6144 C6145 1.363 . S
C6144 C6150 1.379 . S
C6144 N6152 1.356 . S
C6145 C6144 1.363 . S
C6145 C6151 1.363 . S
C6146 C6147 1.363 . S
C6146 C6151 1.379 . S
C6146 N6153 1.356 . S
C6147 C6146 1.363 . S
C6147 C6150 1.363 . S
N6148 C6150 1.356 . S
N6148 H6160 0.984 . S
N6148 H6161 0.985 . S
N6149 C6151 1.356 . S
N6149 H6154 0.984 . S
N6149 H6155 0.985 . S
C6150 C6144 1.379 . S
C6150 C6147 1.363 . S
C6150 N6148 1.356 . S
C6151 C6145 1.363 . S
C6151 C6146 1.379 . S
C6151 N6149 1.356 . S
N6152 C6144 1.356 . S
N6152 H6158 0.984 . S
N6152 H6159 0.984 . S
N6153 C6146 1.356 . S
N6153 H6156 0.984 . S
N6153 H6157 0.985 . S
H6154 N6149 0.984 . S
H6155 N6149 0.985 . S
H6156 N6153 0.984 . S
H6157 N6153 0.985 . S
H6158 N6152 0.984 . S
H6159 N6152 0.984 . S
H6160 N6148 0.984 . S
H6161 N6148 0.985 . S
C6162 C6163 1.363 . S
C6162 C6168 1.379 . S
C6162 N6170 1.356 . S
C6163 C6162 1.363 . S
C6163 C6169 1.363 . S
C6164 C6165 1.363 . S
C6164 C6169 1.379 . S
C6164 N6171 1.356 . S
C6165 C6164 1.363 . S
C6165 C6168 1.363 . S
N6166 C6168 1.356 . S
N6166 H6178 0.984 . S
N6166 H6179 0.985 . S
N6167 C6169 1.356 . S
N6167 H6172 0.984 . S
N6167 H6173 0.985 . S
C6168 C6162 1.379 . S
C6168 C6165 1.363 . S
C6168 N6166 1.356 . S
C6169 C6163 1.363 . S
C6169 C6164 1.379 . S
C6169 N6167 1.356 . S
N6170 C6162 1.356 . S
N6170 H6176 0.984 . S
N6170 H6177 0.984 . S
N6171 C6164 1.356 . S
N6171 H6174 0.984 . S
N6171 H6175 0.985 . S
H6172 N6167 0.984 . S
H6173 N6167 0.985 . S
H6174 N6171 0.984 . S
H6175 N6171 0.985 . S
H6176 N6170 0.984 . S
H6177 N6170 0.984 . S
H6178 N6166 0.984 . S
H6179 N6166 0.985 . S
C6180 C6181 1.363 . S
C6180 C6186 1.379 . S
C6180 N6188 1.356 . S
C6181 C6180 1.363 . S
C6181 C6187 1.363 . S
C6182 C6183 1.363 . S
C6182 C6187 1.379 . S
C6182 N6189 1.356 . S
C6183 C6182 1.363 . S
C6183 C6186 1.363 . S
N6184 C6186 1.356 . S
N6184 H6196 0.984 . S
N6184 H6197 0.985 . S
N6185 C6187 1.356 . S
N6185 H6190 0.984 . S
N6185 H6191 0.985 . S
C6186 C6180 1.379 . S
C6186 C6183 1.363 . S
C6186 N6184 1.356 . S
C6187 C6181 1.363 . S
C6187 C6182 1.379 . S
C6187 N6185 1.356 . S
N6188 C6180 1.356 . S
N6188 H6194 0.984 . S
N6188 H6195 0.984 . S
N6189 C6182 1.356 . S
N6189 H6192 0.984 . S
N6189 H6193 0.985 . S
H6190 N6185 0.984 . S
H6191 N6185 0.985 . S
H6192 N6189 0.984 . S
H6193 N6189 0.985 . S
H6194 N6188 0.984 . S
H6195 N6188 0.984 . S
H6196 N6184 0.984 . S
H6197 N6184 0.985 . S
C6198 C6199 1.363 . S
C6198 C6204 1.379 . S
C6198 N6206 1.356 . S
C6199 C6198 1.363 . S
C6199 C6205 1.363 . S
C6200 C6201 1.363 . S
C6200 C6205 1.379 . S
C6200 N6207 1.356 . S
C6201 C6200 1.363 . S
C6201 C6204 1.363 . S
N6202 C6204 1.356 . S
N6202 H6214 0.984 . S
N6202 H6215 0.985 . S
N6203 C6205 1.356 . S
N6203 H6208 0.984 . S
N6203 H6209 0.985 . S
C6204 C6198 1.379 . S
C6204 C6201 1.363 . S
C6204 N6202 1.356 . S
C6205 C6199 1.363 . S
C6205 C6200 1.379 . S
C6205 N6203 1.356 . S
N6206 C6198 1.356 . S
N6206 H6212 0.984 . S
N6206 H6213 0.984 . S
N6207 C6200 1.356 . S
N6207 H6210 0.984 . S
N6207 H6211 0.985 . S
H6208 N6203 0.984 . S
H6209 N6203 0.985 . S
H6210 N6207 0.984 . S
H6211 N6207 0.985 . S
H6212 N6206 0.984 . S
H6213 N6206 0.984 . S
H6214 N6202 0.984 . S
H6215 N6202 0.985 . S
C6216 C6217 1.363 . S
C6216 C6222 1.379 . S
C6216 N6224 1.356 . S
C6217 C6216 1.363 . S
C6217 C6223 1.363 . S
C6218 C6219 1.363 . S
C6218 C6223 1.379 . S
C6218 N6225 1.356 . S
C6219 C6218 1.363 . S
C6219 C6222 1.363 . S
N6220 C6222 1.356 . S
N6220 H6232 0.984 . S
N6220 H6233 0.985 . S
N6221 C6223 1.356 . S
N6221 H6226 0.984 . S
N6221 H6227 0.985 . S
C6222 C6216 1.379 . S
C6222 C6219 1.363 . S
C6222 N6220 1.356 . S
C6223 C6217 1.363 . S
C6223 C6218 1.379 . S
C6223 N6221 1.356 . S
N6224 C6216 1.356 . S
N6224 H6230 0.984 . S
N6224 H6231 0.984 . S
N6225 C6218 1.356 . S
N6225 H6228 0.984 . S
N6225 H6229 0.985 . S
H6226 N6221 0.984 . S
H6227 N6221 0.985 . S
H6228 N6225 0.984 . S
H6229 N6225 0.985 . S
H6230 N6224 0.984 . S
H6231 N6224 0.984 . S
H6232 N6220 0.984 . S
H6233 N6220 0.985 . S
C6234 C6235 1.363 . S
C6234 C6240 1.379 . S
C6234 N6242 1.356 . S
C6235 C6234 1.363 . S
C6235 C6241 1.363 . S
C6236 C6237 1.363 . S
C6236 C6241 1.379 . S
C6236 N6243 1.356 . S
C6237 C6236 1.363 . S
C6237 C6240 1.363 . S
N6238 C6240 1.356 . S
N6238 H6250 0.984 . S
N6238 H6251 0.985 . S
N6239 C6241 1.356 . S
N6239 H6244 0.984 . S
N6239 H6245 0.985 . S
C6240 C6234 1.379 . S
C6240 C6237 1.363 . S
C6240 N6238 1.356 . S
C6241 C6235 1.363 . S
C6241 C6236 1.379 . S
C6241 N6239 1.356 . S
N6242 C6234 1.356 . S
N6242 H6248 0.984 . S
N6242 H6249 0.984 . S
N6243 C6236 1.356 . S
N6243 H6246 0.984 . S
N6243 H6247 0.985 . S
H6244 N6239 0.984 . S
H6245 N6239 0.985 . S
H6246 N6243 0.984 . S
H6247 N6243 0.985 . S
H6248 N6242 0.984 . S
H6249 N6242 0.984 . S
H6250 N6238 0.984 . S
H6251 N6238 0.985 . S
C6252 C6253 1.363 . S
C6252 C6258 1.379 . S
C6252 N6260 1.356 . S
C6253 C6252 1.363 . S
C6253 C6259 1.363 . S
C6254 C6255 1.363 . S
C6254 C6259 1.379 . S
C6254 N6261 1.356 . S
C6255 C6254 1.363 . S
C6255 C6258 1.363 . S
N6256 C6258 1.356 . S
N6256 H6268 0.984 . S
N6256 H6269 0.985 . S
N6257 C6259 1.356 . S
N6257 H6262 0.984 . S
N6257 H6263 0.985 . S
C6258 C6252 1.379 . S
C6258 C6255 1.363 . S
C6258 N6256 1.356 . S
C6259 C6253 1.363 . S
C6259 C6254 1.379 . S
C6259 N6257 1.356 . S
N6260 C6252 1.356 . S
N6260 H6266 0.984 . S
N6260 H6267 0.984 . S
N6261 C6254 1.356 . S
N6261 H6264 0.984 . S
N6261 H6265 0.985 . S
H6262 N6257 0.984 . S
H6263 N6257 0.985 . S
H6264 N6261 0.984 . S
H6265 N6261 0.985 . S
H6266 N6260 0.984 . S
H6267 N6260 0.984 . S
H6268 N6256 0.984 . S
H6269 N6256 0.985 . S
C6270 C6271 1.363 . S
C6270 C6276 1.379 . S
C6270 N6278 1.356 . S
C6271 C6270 1.363 . S
C6271 C6277 1.363 . S
C6272 C6273 1.363 . S
C6272 C6277 1.379 . S
C6272 N6279 1.356 . S
C6273 C6272 1.363 . S
C6273 C6276 1.363 . S
N6274 C6276 1.356 . S
N6274 H6286 0.984 . S
N6274 H6287 0.985 . S
N6275 C6277 1.356 . S
N6275 H6280 0.984 . S
N6275 H6281 0.985 . S
C6276 C6270 1.379 . S
C6276 C6273 1.363 . S
C6276 N6274 1.356 . S
C6277 C6271 1.363 . S
C6277 C6272 1.379 . S
C6277 N6275 1.356 . S
N6278 C6270 1.356 . S
N6278 H6284 0.984 . S
N6278 H6285 0.984 . S
N6279 C6272 1.356 . S
N6279 H6282 0.984 . S
N6279 H6283 0.985 . S
H6280 N6275 0.984 . S
H6281 N6275 0.985 . S
H6282 N6279 0.984 . S
H6283 N6279 0.985 . S
H6284 N6278 0.984 . S
H6285 N6278 0.984 . S
H6286 N6274 0.984 . S
H6287 N6274 0.985 . S
C6288 C6289 1.363 . S
C6288 C6294 1.379 . S
C6288 N6296 1.356 . S
C6289 C6288 1.363 . S
C6289 C6295 1.363 . S
C6290 C6291 1.363 . S
C6290 C6295 1.379 . S
C6290 N6297 1.356 . S
C6291 C6290 1.363 . S
C6291 C6294 1.363 . S
N6292 C6294 1.356 . S
N6292 H6304 0.984 . S
N6292 H6305 0.985 . S
N6293 C6295 1.356 . S
N6293 H6298 0.984 . S
N6293 H6299 0.985 . S
C6294 C6288 1.379 . S
C6294 C6291 1.363 . S
C6294 N6292 1.356 . S
C6295 C6289 1.363 . S
C6295 C6290 1.379 . S
C6295 N6293 1.356 . S
N6296 C6288 1.356 . S
N6296 H6302 0.984 . S
N6296 H6303 0.984 . S
N6297 C6290 1.356 . S
N6297 H6300 0.984 . S
N6297 H6301 0.985 . S
H6298 N6293 0.984 . S
H6299 N6293 0.985 . S
H6300 N6297 0.984 . S
H6301 N6297 0.985 . S
H6302 N6296 0.984 . S
H6303 N6296 0.984 . S
H6304 N6292 0.984 . S
H6305 N6292 0.985 . S
C6306 C6307 1.363 . S
C6306 C6312 1.379 . S
C6306 N6314 1.356 . S
C6307 C6306 1.363 . S
C6307 C6313 1.363 . S
C6308 C6309 1.363 . S
C6308 C6313 1.379 . S
C6308 N6315 1.356 . S
C6309 C6308 1.363 . S
C6309 C6312 1.363 . S
N6310 C6312 1.356 . S
N6310 H6322 0.984 . S
N6310 H6323 0.985 . S
N6311 C6313 1.356 . S
N6311 H6316 0.984 . S
N6311 H6317 0.985 . S
C6312 C6306 1.379 . S
C6312 C6309 1.363 . S
C6312 N6310 1.356 . S
C6313 C6307 1.363 . S
C6313 C6308 1.379 . S
C6313 N6311 1.356 . S
N6314 C6306 1.356 . S
N6314 H6320 0.984 . S
N6314 H6321 0.984 . S
N6315 C6308 1.356 . S
N6315 H6318 0.984 . S
N6315 H6319 0.985 . S
H6316 N6311 0.984 . S
H6317 N6311 0.985 . S
H6318 N6315 0.984 . S
H6319 N6315 0.985 . S
H6320 N6314 0.984 . S
H6321 N6314 0.984 . S
H6322 N6310 0.984 . S
H6323 N6310 0.985 . S
C6324 C6325 1.363 . S
C6324 C6330 1.379 . S
C6324 N6332 1.356 . S
C6325 C6324 1.363 . S
C6325 C6331 1.363 . S
C6326 C6327 1.363 . S
C6326 C6331 1.379 . S
C6326 N6333 1.356 . S
C6327 C6326 1.363 . S
C6327 C6330 1.363 . S
N6328 C6330 1.356 . S
N6328 H6340 0.984 . S
N6328 H6341 0.985 . S
N6329 C6331 1.356 . S
N6329 H6334 0.984 . S
N6329 H6335 0.985 . S
C6330 C6324 1.379 . S
C6330 C6327 1.363 . S
C6330 N6328 1.356 . S
C6331 C6325 1.363 . S
C6331 C6326 1.379 . S
C6331 N6329 1.356 . S
N6332 C6324 1.356 . S
N6332 H6338 0.984 . S
N6332 H6339 0.984 . S
N6333 C6326 1.356 . S
N6333 H6336 0.984 . S
N6333 H6337 0.985 . S
H6334 N6329 0.984 . S
H6335 N6329 0.985 . S
H6336 N6333 0.984 . S
H6337 N6333 0.985 . S
H6338 N6332 0.984 . S
H6339 N6332 0.984 . S
H6340 N6328 0.984 . S
H6341 N6328 0.985 . S
C6342 C6343 1.363 . S
C6342 C6348 1.379 . S
C6342 N6350 1.356 . S
C6343 C6342 1.363 . S
C6343 C6349 1.363 . S
C6344 C6345 1.363 . S
C6344 C6349 1.379 . S
C6344 N6351 1.356 . S
C6345 C6344 1.363 . S
C6345 C6348 1.363 . S
N6346 C6348 1.356 . S
N6346 H6358 0.984 . S
N6346 H6359 0.985 . S
N6347 C6349 1.356 . S
N6347 H6352 0.984 . S
N6347 H6353 0.985 . S
C6348 C6342 1.379 . S
C6348 C6345 1.363 . S
C6348 N6346 1.356 . S
C6349 C6343 1.363 . S
C6349 C6344 1.379 . S
C6349 N6347 1.356 . S
N6350 C6342 1.356 . S
N6350 H6356 0.984 . S
N6350 H6357 0.984 . S
N6351 C6344 1.356 . S
N6351 H6354 0.984 . S
N6351 H6355 0.985 . S
H6352 N6347 0.984 . S
H6353 N6347 0.985 . S
H6354 N6351 0.984 . S
H6355 N6351 0.985 . S
H6356 N6350 0.984 . S
H6357 N6350 0.984 . S
H6358 N6346 0.984 . S
H6359 N6346 0.985 . S
C6360 C6361 1.363 . S
C6360 C6366 1.379 . S
C6360 N6368 1.356 . S
C6361 C6360 1.363 . S
C6361 C6367 1.363 . S
C6362 C6363 1.363 . S
C6362 C6367 1.379 . S
C6362 N6369 1.356 . S
C6363 C6362 1.363 . S
C6363 C6366 1.363 . S
N6364 C6366 1.356 . S
N6364 H6376 0.984 . S
N6364 H6377 0.985 . S
N6365 C6367 1.356 . S
N6365 H6370 0.984 . S
N6365 H6371 0.985 . S
C6366 C6360 1.379 . S
C6366 C6363 1.363 . S
C6366 N6364 1.356 . S
C6367 C6361 1.363 . S
C6367 C6362 1.379 . S
C6367 N6365 1.356 . S
N6368 C6360 1.356 . S
N6368 H6374 0.984 . S
N6368 H6375 0.984 . S
N6369 C6362 1.356 . S
N6369 H6372 0.984 . S
N6369 H6373 0.985 . S
H6370 N6365 0.984 . S
H6371 N6365 0.985 . S
H6372 N6369 0.984 . S
H6373 N6369 0.985 . S
H6374 N6368 0.984 . S
H6375 N6368 0.984 . S
H6376 N6364 0.984 . S
H6377 N6364 0.985 . S
C6378 C6379 1.363 . S
C6378 C6384 1.379 . S
C6378 N6386 1.356 . S
C6379 C6378 1.363 . S
C6379 C6385 1.363 . S
C6380 C6381 1.363 . S
C6380 C6385 1.379 . S
C6380 N6387 1.356 . S
C6381 C6380 1.363 . S
C6381 C6384 1.363 . S
N6382 C6384 1.356 . S
N6382 H6394 0.984 . S
N6382 H6395 0.985 . S
N6383 C6385 1.356 . S
N6383 H6388 0.984 . S
N6383 H6389 0.985 . S
C6384 C6378 1.379 . S
C6384 C6381 1.363 . S
C6384 N6382 1.356 . S
C6385 C6379 1.363 . S
C6385 C6380 1.379 . S
C6385 N6383 1.356 . S
N6386 C6378 1.356 . S
N6386 H6392 0.984 . S
N6386 H6393 0.984 . S
N6387 C6380 1.356 . S
N6387 H6390 0.984 . S
N6387 H6391 0.985 . S
H6388 N6383 0.984 . S
H6389 N6383 0.985 . S
H6390 N6387 0.984 . S
H6391 N6387 0.985 . S
H6392 N6386 0.984 . S
H6393 N6386 0.984 . S
H6394 N6382 0.984 . S
H6395 N6382 0.985 . S
C6396 C6397 1.363 . S
C6396 C6402 1.379 . S
C6396 N6404 1.356 . S
C6397 C6396 1.363 . S
C6397 C6403 1.363 . S
C6398 C6399 1.363 . S
C6398 C6403 1.379 . S
C6398 N6405 1.356 . S
C6399 C6398 1.363 . S
C6399 C6402 1.363 . S
N6400 C6402 1.356 . S
N6400 H6412 0.984 . S
N6400 H6413 0.985 . S
N6401 C6403 1.356 . S
N6401 H6406 0.984 . S
N6401 H6407 0.985 . S
C6402 C6396 1.379 . S
C6402 C6399 1.363 . S
C6402 N6400 1.356 . S
C6403 C6397 1.363 . S
C6403 C6398 1.379 . S
C6403 N6401 1.356 . S
N6404 C6396 1.356 . S
N6404 H6410 0.984 . S
N6404 H6411 0.984 . S
N6405 C6398 1.356 . S
N6405 H6408 0.984 . S
N6405 H6409 0.985 . S
H6406 N6401 0.984 . S
H6407 N6401 0.985 . S
H6408 N6405 0.984 . S
H6409 N6405 0.985 . S
H6410 N6404 0.984 . S
H6411 N6404 0.984 . S
H6412 N6400 0.984 . S
H6413 N6400 0.985 . S
C6414 C6415 1.363 . S
C6414 C6420 1.379 . S
C6414 N6422 1.356 . S
C6415 C6414 1.363 . S
C6415 C6421 1.363 . S
C6416 C6417 1.363 . S
C6416 C6421 1.379 . S
C6416 N6423 1.356 . S
C6417 C6416 1.363 . S
C6417 C6420 1.363 . S
N6418 C6420 1.356 . S
N6418 H6430 0.984 . S
N6418 H6431 0.985 . S
N6419 C6421 1.356 . S
N6419 H6424 0.984 . S
N6419 H6425 0.985 . S
C6420 C6414 1.379 . S
C6420 C6417 1.363 . S
C6420 N6418 1.356 . S
C6421 C6415 1.363 . S
C6421 C6416 1.379 . S
C6421 N6419 1.356 . S
N6422 C6414 1.356 . S
N6422 H6428 0.984 . S
N6422 H6429 0.984 . S
N6423 C6416 1.356 . S
N6423 H6426 0.984 . S
N6423 H6427 0.985 . S
H6424 N6419 0.984 . S
H6425 N6419 0.985 . S
H6426 N6423 0.984 . S
H6427 N6423 0.985 . S
H6428 N6422 0.984 . S
H6429 N6422 0.984 . S
H6430 N6418 0.984 . S
H6431 N6418 0.985 . S
C3841 C15 1.727 . S
C3843 C2735 1.727 . S
C3859 C2615 1.727 . S
C3861 C55 1.727 . S
C3877 C95 1.727 . S
C3879 C2655 1.727 . S
C3895 C2695 1.727 . S
C3897 C135 1.727 . S
C3913 C175 1.727 . S
C3915 C2855 1.727 . S
C3931 C2775 1.727 . S
C3933 C215 1.727 . S
C3949 C2815 1.727 . S
C3951 C255 1.727 . S
C3967 C2575 1.727 . S
C3969 C295 1.727 . S
C3985 C335 1.727 . S
C3987 C2535 1.727 . S
C4003 C375 1.727 . S
C4005 C2415 1.727 . S
C4021 C415 1.727 . S
C4023 C2455 1.727 . S
C4039 C455 1.727 . S
C4041 C2495 1.727 . S
C4057 C2295 1.727 . S
C4059 C495 1.727 . S
C4075 C535 1.727 . S
C4077 C2335 1.727 . S
C4093 C2375 1.727 . S
C4095 C575 1.727 . S
C4111 C615 1.727 . S
C4113 C2255 1.727 . S
C4129 C655 1.727 . S
C4131 C2215 1.727 . S
C4147 C695 1.727 . S
C4149 C1975 1.727 . S
C4165 C735 1.727 . S
C4167 C2015 1.727 . S
C4183 C775 1.727 . S
C4185 C2055 1.727 . S
C4201 C1935 1.727 . S
C4203 C815 1.727 . S
C4219 C2135 1.727 . S
C4221 C855 1.727 . S
C4237 C2175 1.727 . S
C4239 C895 1.727 . S
C4255 C935 1.727 . S
C4257 C2095 1.727 . S
C4273 C3695 1.713 . S
C4275 C975 1.713 . S
C4291 C1015 1.713 . S
C4293 C3575 1.713 . S
C4309 C1055 1.713 . S
C4311 C3615 1.713 . S
C4327 C1095 1.713 . S
C4329 C3655 1.713 . S
C4345 C1135 1.713 . S
C4347 C3815 1.713 . S
C4363 C1175 1.713 . S
C4365 C3735 1.713 . S
C4381 C3775 1.713 . S
C4383 C1215 1.713 . S
C4399 C1255 1.713 . S
C4401 C3535 1.713 . S
C4417 C1295 1.713 . S
C4419 C3495 1.713 . S
C4435 C3375 1.713 . S
C4437 C1335 1.713 . S
C4453 C3415 1.713 . S
C4455 C1375 1.713 . S
C4471 C3455 1.713 . S
C4473 C1415 1.713 . S
C4489 C3255 1.713 . S
C4491 C1455 1.713 . S
C4507 C1495 1.713 . S
C4509 C3295 1.713 . S
C4525 C3335 1.713 . S
C4527 C1535 1.713 . S
C4543 C3215 1.713 . S
C4545 C1575 1.713 . S
C4561 C1615 1.713 . S
C4563 C3175 1.713 . S
C4579 C1655 1.713 . S
C4581 C2935 1.713 . S
C4597 C2975 1.713 . S
C4599 C1695 1.713 . S
C4615 C3015 1.713 . S
C4617 C1735 1.713 . S
C4633 C2895 1.713 . S
C4635 C1775 1.713 . S
C4651 C3095 1.713 . S
C4653 C1815 1.713 . S
C4669 C3135 1.713 . S
C4671 C1855 1.713 . S
C4687 C3055 1.713 . S
C4689 C1895 1.713 . S
C4705 C2 1.732 . S
C4707 C1562 1.697 . S
C4723 C1442 1.697 . S
C4725 C42 1.732 . S
C4741 C82 1.732 . S
C4743 C1482 1.697 . S
C4759 C1522 1.697 . S
C4761 C122 1.732 . S
C4777 C162 1.732 . S
C4779 C1322 1.697 . S
C4795 C202 1.732 . S
C4797 C1362 1.697 . S
C4813 C1402 1.697 . S
C4815 C242 1.732 . S
C4831 C282 1.732 . S
C4833 C1282 1.697 . S
C4849 C1242 1.697 . S
C4851 C322 1.732 . S
C4867 C1122 1.697 . S
C4869 C362 1.732 . S
C4885 C402 1.732 . S
C4887 C1162 1.697 . S
C4903 C442 1.732 . S
C4905 C1202 1.697 . S
C4921 C1002 1.697 . S
C4923 C482 1.732 . S
C4939 C522 1.732 . S
C4941 C1042 1.697 . S
C4957 C562 1.732 . S
C4959 C1082 1.697 . S
C4975 C602 1.732 . S
C4977 C962 1.697 . S
C4993 C1762 1.697 . S
C4995 C642 1.732 . S
C5011 C1882 1.697 . S
C5013 C682 1.732 . S
C5029 C722 1.732 . S
C5031 C1802 1.697 . S
C5047 C762 1.732 . S
C5049 C1842 1.697 . S
C5065 C1602 1.697 . S
C5067 C802 1.732 . S
C5083 C1682 1.697 . S
C5085 C842 1.732 . S
C5101 C1722 1.697 . S
C5103 C882 1.732 . S
C5119 C922 1.732 . S
C5121 C1642 1.697 . S
C5137 C3482 1.697 . S
C5139 C1922 1.732 . S
C5155 C3362 1.697 . S
C5157 C1962 1.732 . S
C5173 C3402 1.697 . S
C5175 C2002 1.732 . S
C5191 C2042 1.732 . S
C5193 C3442 1.697 . S
C5209 C3242 1.697 . S
C5211 C2082 1.732 . S
C5227 C2122 1.732 . S
C5229 C3282 1.697 . S
C5245 C3322 1.697 . S
C5247 C2162 1.732 . S
C5263 C3202 1.697 . S
C5265 C2202 1.732 . S
C5281 C2242 1.732 . S
C5283 C3162 1.697 . S
C5299 C2282 1.732 . S
C5301 C3042 1.697 . S
C5317 C3082 1.697 . S
C5319 C2322 1.732 . S
C5335 C3122 1.697 . S
C5337 C2362 1.732 . S
C5353 C2922 1.697 . S
C5355 C2402 1.732 . S
C5371 C2962 1.697 . S
C5373 C2442 1.732 . S
C5389 C3002 1.697 . S
C5391 C2482 1.732 . S
C5407 C2522 1.732 . S
C5409 C2882 1.697 . S
C5425 C3682 1.697 . S
C5427 C2562 1.732 . S
C5443 C3802 1.697 . S
C5445 C2602 1.732 . S
C5461 C2642 1.732 . S
C5463 C3722 1.697 . S
C5479 C2682 1.732 . S
C5481 C3762 1.697 . S
C5497 C2722 1.732 . S
C5499 C3522 1.697 . S
C5515 C2762 1.732 . S
C5517 C3602 1.697 . S
C5533 C3642 1.697 . S
C5535 C2802 1.732 . S
C5551 C3562 1.697 . S
C5553 C2842 1.732 . S
C5569 C1141 1.555 . S
C5571 C21 1.593 . S
C5587 C1181 1.555 . S
C5589 C61 1.593 . S
C5605 C1221 1.555 . S
C5607 C101 1.593 . S
C5623 C1261 1.555 . S
C5625 C141 1.593 . S
C5641 C981 1.555 . S
C5643 C181 1.593 . S
C5659 C221 1.593 . S
C5661 C1021 1.555 . S
C5677 C261 1.593 . S
C5679 C1061 1.555 . S
C5695 C1101 1.555 . S
C5697 C301 1.593 . S
C5713 C1541 1.555 . S
C5715 C341 1.593 . S
C5731 C381 1.593 . S
C5733 C1581 1.555 . S
C5749 C421 1.593 . S
C5751 C1461 1.555 . S
C5767 C1501 1.555 . S
C5769 C461 1.593 . S
C5785 C501 1.593 . S
C5787 C1381 1.555 . S
C5803 C541 1.593 . S
C5805 C1421 1.555 . S
C5821 C581 1.593 . S
C5823 C1301 1.555 . S
C5839 C1341 1.555 . S
C5841 C621 1.593 . S
C5857 C1821 1.555 . S
C5859 C661 1.593 . S
C5875 C1741 1.555 . S
C5877 C701 1.593 . S
C5893 C1781 1.555 . S
C5895 C741 1.593 . S
C5911 C1661 1.555 . S
C5913 C781 1.593 . S
C5929 C821 1.593 . S
C5931 C1701 1.555 . S
C5947 C1621 1.555 . S
C5949 C861 1.593 . S
C5965 C1901 1.555 . S
C5967 C901 1.593 . S
C5983 C1861 1.555 . S
C5985 C941 1.593 . S
C6001 C1941 1.593 . S
C6003 C3061 1.555 . S
C6019 C1981 1.593 . S
C6021 C3101 1.555 . S
C6037 C2021 1.593 . S
C6039 C3141 1.555 . S
C6055 C3181 1.555 . S
C6057 C2061 1.593 . S
C6073 C2901 1.555 . S
C6075 C2101 1.593 . S
C6091 C2141 1.593 . S
C6093 C2941 1.555 . S
C6109 C2981 1.555 . S
C6111 C2181 1.593 . S
C6127 C3021 1.555 . S
C6129 C2221 1.593 . S
C6145 C2261 1.593 . S
C6147 C3461 1.555 . S
C6163 C2301 1.593 . S
C6165 C3501 1.555 . S
C6181 C2341 1.593 . S
C6183 C3381 1.555 . S
C6199 C3421 1.555 . S
C6201 C2381 1.593 . S
C6217 C2421 1.593 . S
C6219 C3301 1.555 . S
C6235 C2461 1.593 . S
C6237 C3341 1.555 . S
C6253 C2501 1.593 . S
C6255 C3221 1.555 . S
C6271 C2541 1.593 . S
C6273 C3261 1.555 . S
C6289 C2581 1.593 . S
C6291 C3741 1.555 . S
C6307 C3661 1.555 . S
C6309 C2621 1.593 . S
C6325 C2661 1.593 . S
C6327 C3701 1.555 . S
C6343 C3581 1.555 . S
C6345 C2701 1.593 . S
C6361 C3621 1.555 . S
C6363 C2741 1.593 . S
C6379 C2781 1.593 . S
C6381 C3541 1.555 . S
C6397 C3821 1.555 . S
C6399 C2821 1.593 . S
C6415 C3781 1.555 . S
C6417 C2861 1.593 . S
