# Generated by pormake.
# Topology wjz, (5)-cn, num edge types: 1
# Building blocks:
#     Node 0, Type 0, BuildingBlock: XOMCOT_clean_sbu_1, # of connection points: 5
#     Node 1, Type 0, BuildingBlock: XOMCOT_clean_sbu_1, # of connection points: 5
#     Node 2, Type 0, BuildingBlock: XOMCOT_clean_sbu_1, # of connection points: 5
#     Node 3, Type 0, BuildingBlock: XOMCOT_clean_sbu_1, # of connection points: 5
#     Node 4, Type 0, BuildingBlock: XOMCOT_clean_sbu_1, # of connection points: 5
#     Node 5, Type 0, BuildingBlock: XOMCOT_clean_sbu_1, # of connection points: 5
#     Node 6, Type 0, BuildingBlock: XOMCOT_clean_sbu_1, # of connection points: 5
#     Node 7, Type 0, BuildingBlock: XOMCOT_clean_sbu_1, # of connection points: 5
#     Node 8, Type 0, BuildingBlock: XOMCOT_clean_sbu_1, # of connection points: 5
#     Node 9, Type 0, BuildingBlock: XOMCOT_clean_sbu_1, # of connection points: 5
#     Node 10, Type 0, BuildingBlock: XOMCOT_clean_sbu_1, # of connection points: 5
#     Node 11, Type 0, BuildingBlock: XOMCOT_clean_sbu_1, # of connection points: 5
#     Edge 12, Type (0, 0), BuildingBlock: TEMPAE_clean_linker_10, # of connection points: 2
#     Edge 13, Type (0, 0), BuildingBlock: TEMPAE_clean_linker_10, # of connection points: 2
#     Edge 14, Type (0, 0), BuildingBlock: TEMPAE_clean_linker_10, # of connection points: 2
#     Edge 15, Type (0, 0), BuildingBlock: TEMPAE_clean_linker_10, # of connection points: 2
#     Edge 16, Type (0, 0), BuildingBlock: TEMPAE_clean_linker_10, # of connection points: 2
#     Edge 17, Type (0, 0), BuildingBlock: TEMPAE_clean_linker_10, # of connection points: 2
#     Edge 18, Type (0, 0), BuildingBlock: TEMPAE_clean_linker_10, # of connection points: 2
#     Edge 19, Type (0, 0), BuildingBlock: TEMPAE_clean_linker_10, # of connection points: 2
#     Edge 20, Type (0, 0), BuildingBlock: TEMPAE_clean_linker_10, # of connection points: 2
#     Edge 21, Type (0, 0), BuildingBlock: TEMPAE_clean_linker_10, # of connection points: 2
#     Edge 22, Type (0, 0), BuildingBlock: TEMPAE_clean_linker_10, # of connection points: 2
#     Edge 23, Type (0, 0), BuildingBlock: TEMPAE_clean_linker_10, # of connection points: 2
#     Edge 24, Type (0, 0), BuildingBlock: TEMPAE_clean_linker_10, # of connection points: 2
#     Edge 25, Type (0, 0), BuildingBlock: TEMPAE_clean_linker_10, # of connection points: 2
#     Edge 26, Type (0, 0), BuildingBlock: TEMPAE_clean_linker_10, # of connection points: 2
#     Edge 27, Type (0, 0), BuildingBlock: TEMPAE_clean_linker_10, # of connection points: 2
#     Edge 28, Type (0, 0), BuildingBlock: TEMPAE_clean_linker_10, # of connection points: 2
#     Edge 29, Type (0, 0), BuildingBlock: TEMPAE_clean_linker_10, # of connection points: 2
#     Edge 30, Type (0, 0), BuildingBlock: TEMPAE_clean_linker_10, # of connection points: 2
#     Edge 31, Type (0, 0), BuildingBlock: TEMPAE_clean_linker_10, # of connection points: 2
#     Edge 32, Type (0, 0), BuildingBlock: TEMPAE_clean_linker_10, # of connection points: 2
#     Edge 33, Type (0, 0), BuildingBlock: TEMPAE_clean_linker_10, # of connection points: 2
#     Edge 34, Type (0, 0), BuildingBlock: TEMPAE_clean_linker_10, # of connection points: 2
#     Edge 35, Type (0, 0), BuildingBlock: TEMPAE_clean_linker_10, # of connection points: 2
#     Edge 36, Type (0, 0), BuildingBlock: TEMPAE_clean_linker_10, # of connection points: 2
#     Edge 37, Type (0, 0), BuildingBlock: TEMPAE_clean_linker_10, # of connection points: 2
#     Edge 38, Type (0, 0), BuildingBlock: TEMPAE_clean_linker_10, # of connection points: 2
#     Edge 39, Type (0, 0), BuildingBlock: TEMPAE_clean_linker_10, # of connection points: 2
#     Edge 40, Type (0, 0), BuildingBlock: TEMPAE_clean_linker_10, # of connection points: 2
#     Edge 41, Type (0, 0), BuildingBlock: TEMPAE_clean_linker_10, # of connection points: 2
# Relax obj value: 0.173
# Max RMSD: 0.191
# Mean RMSD: 0.191
data_MOF--net-wjz--node1-XOMCOT_clean_sbu_1--edge1-TEMPAE_clean_linker_10
_symmetry_space_group_name_H-M    P1
_symmetry_Int_Tables_number       1
_symmetry_cell_setting            triclinic
loop_
_symmetry_equiv_pos_as_xyz
'x, y, z'
_cell_length_a     74.14002
_cell_length_b     74.133697
_cell_length_c     17.579521
_cell_angle_alpha  90.046381
_cell_angle_beta   89.992928
_cell_angle_gamma 119.99249
loop_
_atom_site_label
_atom_site_type_symbol
_atom_site_fract_x
_atom_site_fract_y
_atom_site_fract_z
_atom_type_partial_charge
C0 C 0.32309 0.45601 0.11627 0.0
C1 C 0.3199 0.45251 0.0392 0.0
N2 N 0.32499 0.4707 0.00494 0.0
N3 N 0.3304 0.47638 0.13057 0.0
C4 C 0.33093 0.48481 0.06179 0.0
H5 H 0.32126 0.44469 0.15883 0.0
Co6 Co 0.34062 0.48942 0.225 0.0
C7 C 0.37799 0.52836 0.17314 0.0
O8 O 0.38989 0.52578 0.22225 0.0
N9 N 0.34963 0.50205 0.32147 0.0
C10 C 0.36055 0.5241 0.4196 0.0
C11 C 0.36034 0.52238 0.34173 0.0
C12 C 0.34236 0.49191 0.38841 0.0
N13 N 0.34919 0.50489 0.44891 0.0
O14 O 0.31922 0.49626 0.2307 0.0
H15 H 0.36644 0.53544 0.3033 0.0
H16 H 0.33183 0.47529 0.39252 0.0
O17 O 0.35838 0.51559 0.17222 0.0
C18 C 0.30042 0.48191 0.23886 0.0
O19 O 0.2958 0.46234 0.23709 0.0
N20 N 0.36176 0.48194 0.21997 0.0
C21 C 0.39036 0.46775 0.20737 0.0
C22 C 0.38652 0.47741 0.14589 0.0
C23 C 0.37238 0.48446 0.15347 0.0
C24 C 0.36481 0.472 0.27963 0.0
C25 C 0.37938 0.46532 0.27529 0.0
H26 H 0.36971 0.49164 0.10463 0.0
H27 H 0.3557 0.46867 0.33063 0.0
H28 H 0.33682 0.50121 0.05272 0.0
H29 H 0.31487 0.43784 0.0104 0.0
H30 H 0.36756 0.53845 0.45202 0.0
H31 H 0.39387 0.47908 0.09116 0.0
H32 H 0.38172 0.45808 0.32483 0.0
C33 C 0.86969 0.33471 0.27438 0.0
C34 C 0.87076 0.3326 0.19687 0.0
N35 N 0.85578 0.33512 0.16372 0.0
N36 N 0.85432 0.33884 0.28978 0.0
C37 C 0.84592 0.33866 0.22133 0.0
H38 H 0.87992 0.33399 0.31666 0.0
Co39 Co 0.84799 0.34544 0.38465 0.0
C40 C 0.84161 0.38091 0.34251 0.0
O41 O 0.85324 0.39251 0.39906 0.0
N42 N 0.84094 0.35119 0.48148 0.0
C43 C 0.82458 0.35705 0.57659 0.0
C44 C 0.82699 0.35726 0.49904 0.0
C45 C 0.84564 0.34605 0.54962 0.0
N46 N 0.83629 0.34991 0.60814 0.0
O47 O 0.82095 0.32204 0.37831 0.0
H48 H 0.818 0.36043 0.45851 0.0
H49 H 0.85496 0.3387 0.55652 0.0
O50 O 0.83824 0.36236 0.33437 0.0
C51 C 0.8195 0.30596 0.40986 0.0
O52 O 0.83628 0.30719 0.44019 0.0
N53 N 0.87556 0.36808 0.39121 0.0
C54 C 0.91802 0.39765 0.39767 0.0
C55 C 0.90534 0.39848 0.34019 0.0
C56 C 0.88433 0.38323 0.33672 0.0
C57 C 0.88788 0.36657 0.44534 0.0
C58 C 0.909 0.38131 0.45041 0.0
H59 H 0.8754 0.38321 0.28821 0.0
H60 H 0.88176 0.35319 0.48196 0.0
H61 H 0.83335 0.3419 0.21339 0.0
H62 H 0.88187 0.32973 0.16714 0.0
H63 H 0.81423 0.36083 0.60721 0.0
H64 H 0.91166 0.41048 0.29698 0.0
H65 H 0.91836 0.37926 0.49308 0.0
C66 C 0.53169 0.84781 0.20598 0.0
C67 C 0.53423 0.84824 0.12829 0.0
N68 N 0.5152 0.83892 0.09592 0.0
N69 N 0.51118 0.83826 0.22206 0.0
C70 C 0.50155 0.83291 0.15399 0.0
H71 H 0.54396 0.8541 0.24813 0.0
Co72 Co 0.49931 0.8335 0.3176 0.0
C73 C 0.46235 0.83856 0.29664 0.0
O74 O 0.46598 0.84873 0.3613 0.0
N75 N 0.48714 0.82791 0.41482 0.0
C76 C 0.46428 0.81035 0.50676 0.0
C77 C 0.4673 0.8129 0.42959 0.0
C78 C 0.49591 0.83396 0.48438 0.0
N79 N 0.48231 0.82369 0.54087 0.0
O80 O 0.48717 0.80437 0.30373 0.0
H81 H 0.4559 0.80371 0.38675 0.0
H82 H 0.51219 0.84458 0.49456 0.0
O83 O 0.47449 0.83206 0.2743 0.0
C84 C 0.49893 0.79655 0.3098 0.0
O85 O 0.51919 0.80912 0.31171 0.0
N86 N 0.5124 0.8625 0.33222 0.0
C87 C 0.53442 0.90507 0.36254 0.0
C88 C 0.51857 0.89698 0.30772 0.0
C89 C 0.50804 0.87566 0.29213 0.0
C90 C 0.52926 0.87048 0.3792 0.0
C91 C 0.54012 0.89163 0.39705 0.0
H92 H 0.49668 0.86995 0.24693 0.0
H93 H 0.53449 0.86038 0.40227 0.0
H94 H 0.48481 0.82449 0.14702 0.0
H95 H 0.54889 0.85518 0.098 0.0
H96 H 0.45011 0.79926 0.53551 0.0
H97 H 0.51427 0.907 0.27749 0.0
H98 H 0.55309 0.89748 0.43639 0.0
C99 C 0.66972 0.5475 0.59446 0.0
C100 C 0.6727 0.55082 0.51714 0.0
N101 N 0.66763 0.53257 0.48321 0.0
N102 N 0.66248 0.52717 0.60912 0.0
C103 C 0.66185 0.51862 0.54043 0.0
H104 H 0.67175 0.55893 0.63693 0.0
Co105 Co 0.65294 0.51388 0.70332 0.0
C106 C 0.6147 0.47553 0.6499 0.0
O107 O 0.6028 0.47789 0.69973 0.0
N108 N 0.64453 0.5008 0.79967 0.0
C109 C 0.63303 0.47839 0.89659 0.0
C110 C 0.63304 0.48045 0.81883 0.0
C111 C 0.65235 0.51052 0.86702 0.0
N112 N 0.64521 0.49736 0.92683 0.0
O113 O 0.67401 0.50662 0.70213 0.0
H114 H 0.62598 0.46757 0.77958 0.0
H115 H 0.66325 0.52704 0.8721 0.0
O116 O 0.63433 0.48813 0.64979 0.0
C117 C 0.69104 0.51962 0.73371 0.0
O118 O 0.69287 0.5369 0.76174 0.0
N119 N 0.6323 0.52204 0.70457 0.0
C120 C 0.60489 0.53783 0.70265 0.0
C121 C 0.60739 0.52806 0.6383 0.0
C122 C 0.621 0.52022 0.64057 0.0
C123 C 0.63057 0.53209 0.76672 0.0
C124 C 0.61656 0.53947 0.76785 0.0
H125 H 0.62283 0.51313 0.58962 0.0
H126 H 0.64039 0.53511 0.81546 0.0
H127 H 0.65624 0.50225 0.53183 0.0
H128 H 0.67773 0.56544 0.48805 0.0
H129 H 0.62533 0.46394 0.92823 0.0
H130 H 0.59944 0.52696 0.58542 0.0
H131 H 0.61526 0.5467 0.81945 0.0
C132 C 0.11479 0.65947 0.82572 0.0
C133 C 0.11329 0.6606 0.74805 0.0
N134 N 0.12825 0.65789 0.71568 0.0
N135 N 0.13059 0.65603 0.84197 0.0
C136 C 0.13858 0.6553 0.77392 0.0
H137 H 0.10493 0.66092 0.86768 0.0
Co138 Co 0.13898 0.65281 0.93778 0.0
C139 C 0.15106 0.6205 0.91533 0.0
O140 O 0.14259 0.61153 0.98039 0.0
N141 N 0.14797 0.6502 0.03458 0.0
C142 C 0.17028 0.65416 0.1268 0.0
C143 C 0.16742 0.65386 0.0496 0.0
C144 C 0.1394 0.64848 0.10393 0.0
N145 N 0.15261 0.65076 0.16063 0.0
O146 O 0.16509 0.67748 0.92363 0.0
H147 H 0.17917 0.65705 0.00699 0.0
H148 H 0.12438 0.64703 0.11377 0.0
O149 O 0.1505 0.63667 0.89401 0.0
C150 C 0.16586 0.69496 0.91921 0.0
O151 O 0.14856 0.69573 0.92175 0.0
N152 N 0.11248 0.6291 0.95092 0.0
C153 C 0.06997 0.59997 0.95084 0.0
C154 C 0.08385 0.59655 0.90781 0.0
C155 C 0.10494 0.61155 0.90695 0.0
C156 C 0.09909 0.63266 0.99275 0.0
C157 C 0.07783 0.61817 0.99454 0.0
H158 H 0.1146 0.60966 0.86569 0.0
H159 H 0.10464 0.64757 0.02011 0.0
H160 H 0.15188 0.65314 0.76715 0.0
H161 H 0.10183 0.6628 0.71782 0.0
H162 H 0.18442 0.65725 0.15586 0.0
H163 H 0.07824 0.58318 0.87045 0.0
H164 H 0.0675 0.62166 0.02689 0.0
C165 C 0.48686 0.15604 0.92499 0.0
C166 C 0.48279 0.15463 0.848 0.0
N167 N 0.49802 0.15323 0.81149 0.0
N168 N 0.50465 0.15571 0.93678 0.0
C169 C 0.51104 0.15396 0.86653 0.0
H170 H 0.47749 0.15727 0.96961 0.0
Co171 Co 0.51676 0.15742 0.03132 0.0
C172 C 0.55716 0.15981 0.99178 0.0
O173 O 0.55574 0.14815 0.05034 0.0
N174 N 0.52866 0.15972 0.12828 0.0
C175 C 0.55011 0.17428 0.22639 0.0
C176 C 0.5482 0.17412 0.14881 0.0
C177 C 0.51877 0.15198 0.19529 0.0
N178 N 0.53146 0.16052 0.25624 0.0
O179 O 0.5251 0.18615 0.03649 0.0
H180 H 0.56006 0.18492 0.11035 0.0
H181 H 0.50218 0.14177 0.1997 0.0
O182 O 0.543 0.16458 0.98092 0.0
C183 C 0.51371 0.19023 0.07896 0.0
O184 O 0.49798 0.17482 0.11464 0.0
N185 N 0.50691 0.12853 0.02586 0.0
C186 C 0.4839 0.08553 0.0021 0.0
C187 C 0.50245 0.09783 0.96247 0.0
C188 C 0.51348 0.11927 0.97396 0.0
C189 C 0.48892 0.11671 0.06529 0.0
C190 C 0.47734 0.09513 0.05529 0.0
H191 H 0.52627 0.12821 0.93619 0.0
H192 H 0.48263 0.12419 0.10043 0.0
H193 H 0.52511 0.15348 0.85537 0.0
H194 H 0.46957 0.15446 0.82111 0.0
H195 H 0.56403 0.18461 0.25789 0.0
H196 H 0.50792 0.09106 0.92007 0.0
H197 H 0.46271 0.08627 0.08524 0.0
C198 C 0.51991 0.67198 0.76788 0.0
C199 C 0.52302 0.67571 0.84487 0.0
N200 N 0.50429 0.66795 0.87885 0.0
N201 N 0.4993 0.66172 0.75326 0.0
C202 C 0.49022 0.65988 0.82183 0.0
H203 H 0.53184 0.67566 0.72555 0.0
Co204 Co 0.48712 0.65035 0.6585 0.0
C205 C 0.45236 0.60957 0.71098 0.0
O206 O 0.45747 0.59942 0.6622 0.0
N207 N 0.47508 0.64013 0.56183 0.0
C208 C 0.4532 0.62628 0.46401 0.0
C209 C 0.45523 0.62634 0.5417 0.0
C210 C 0.48435 0.64917 0.49507 0.0
N211 N 0.47154 0.64069 0.43473 0.0
O212 O 0.47574 0.66813 0.65297 0.0
H213 H 0.44242 0.6178 0.58021 0.0
H214 H 0.50016 0.66205 0.49105 0.0
O215 O 0.4623 0.62947 0.71127 0.0
C216 C 0.4883 0.68732 0.64091 0.0
O217 O 0.50841 0.69444 0.64659 0.0
N218 N 0.49931 0.63304 0.66186 0.0
C219 C 0.51993 0.61001 0.66803 0.0
C220 C 0.5093 0.61149 0.73166 0.0
C221 C 0.49904 0.62291 0.72729 0.0
C222 C 0.51026 0.63245 0.60051 0.0
C223 C 0.52011 0.6206 0.60156 0.0
H224 H 0.4911 0.62382 0.77739 0.0
H225 H 0.51189 0.64145 0.55047 0.0
H226 H 0.47359 0.65174 0.83058 0.0
H227 H 0.53791 0.68307 0.87378 0.0
H228 H 0.43903 0.61709 0.43179 0.0
H229 H 0.50921 0.60433 0.78538 0.0
H230 H 0.52791 0.61999 0.55045 0.0
C231 C 0.86345 0.52701 0.93074 0.0
C232 C 0.86443 0.53059 0.00792 0.0
N233 N 0.85105 0.51258 0.04261 0.0
N234 N 0.84974 0.50678 0.91702 0.0
C235 C 0.84216 0.49847 0.98619 0.0
H236 H 0.87285 0.53817 0.88759 0.0
Co237 Co 0.84582 0.49389 0.82262 0.0
C238 C 0.83948 0.45246 0.86666 0.0
O239 O 0.85231 0.45353 0.81288 0.0
N240 N 0.8413 0.48138 0.72558 0.0
C241 C 0.82643 0.4597 0.62773 0.0
C242 C 0.82761 0.46147 0.70558 0.0
C243 C 0.84712 0.49159 0.65825 0.0
N244 N 0.83862 0.47872 0.59823 0.0
O245 O 0.81863 0.49005 0.81798 0.0
H246 H 0.81775 0.44916 0.74433 0.0
H247 H 0.85634 0.50833 0.65299 0.0
O248 O 0.83506 0.467 0.87318 0.0
C249 C 0.81761 0.50434 0.78173 0.0
O250 O 0.83483 0.51984 0.75368 0.0
N251 N 0.87357 0.49902 0.82795 0.0
C252 C 0.91616 0.51404 0.84953 0.0
C253 C 0.90146 0.49994 0.90095 0.0
C254 C 0.88042 0.49314 0.89041 0.0
C255 C 0.88767 0.51263 0.77701 0.0
C256 C 0.90899 0.52014 0.78619 0.0
H257 H 0.86987 0.48411 0.9354 0.0
H258 H 0.88273 0.51901 0.73209 0.0
H259 H 0.83127 0.48215 0.99576 0.0
H260 H 0.87459 0.54516 0.03649 0.0
H261 H 0.81628 0.44584 0.59535 0.0
H262 H 0.9062 0.49486 0.95104 0.0
H263 H 0.91979 0.53164 0.74652 0.0
C264 C 0.32921 0.88592 0.99933 0.0
C265 C 0.32837 0.88772 0.07698 0.0
N266 N 0.33322 0.87425 0.10966 0.0
N267 N 0.3345 0.87137 0.98355 0.0
C268 C 0.33671 0.86445 0.05183 0.0
H269 H 0.3264 0.8948 0.95697 0.0
Co270 Co 0.33852 0.86374 0.88769 0.0
C271 C 0.37243 0.85401 0.9075 0.0
O272 O 0.38105 0.86354 0.84337 0.0
N273 N 0.3419 0.85548 0.79041 0.0
C274 C 0.33993 0.83401 0.69786 0.0
C275 C 0.33946 0.8365 0.77499 0.0
C276 C 0.3435 0.86409 0.72123 0.0
N277 N 0.34245 0.8514 0.66427 0.0
O278 O 0.3147 0.83688 0.90046 0.0
H279 H 0.33676 0.82481 0.81726 0.0
H280 H 0.34407 0.87871 0.71165 0.0
O281 O 0.35567 0.85314 0.93053 0.0
C282 C 0.29649 0.83423 0.90815 0.0
O283 O 0.29376 0.85042 0.90992 0.0
N284 N 0.36153 0.89086 0.87653 0.0
C285 C 0.3902 0.93357 0.87963 0.0
C286 C 0.39317 0.91972 0.9247 0.0
C287 C 0.37846 0.89858 0.92375 0.0
C288 C 0.35815 0.90421 0.83364 0.0
C289 C 0.37247 0.92557 0.83312 0.0
H290 H 0.38002 0.88893 0.96595 0.0
H291 H 0.34355 0.89854 0.80394 0.0
H292 H 0.3407 0.85238 0.0592 0.0
H293 H 0.32497 0.89842 0.107 0.0
H294 H 0.33802 0.8203 0.6687 0.0
H295 H 0.406 0.92532 0.96457 0.0
H296 H 0.36925 0.93579 0.79902 0.0
C297 C 0.47526 0.33731 0.23134 0.0
C298 C 0.47202 0.3341 0.3086 0.0
N299 N 0.49064 0.34116 0.34281 0.0
N300 N 0.49585 0.34665 0.217 0.0
C301 C 0.50474 0.34831 0.28581 0.0
H302 H 0.46349 0.33402 0.18871 0.0
Co303 Co 0.50863 0.35738 0.12289 0.0
C304 C 0.54476 0.39737 0.17482 0.0
O305 O 0.54085 0.40789 0.12363 0.0
N306 N 0.52125 0.36695 0.02646 0.0
C307 C 0.54345 0.37982 0.92912 0.0
C308 C 0.54146 0.3794 0.00699 0.0
C309 C 0.51161 0.35899 0.95913 0.0
N310 N 0.52463 0.36691 0.89916 0.0
O311 O 0.51822 0.33801 0.12172 0.0
H312 H 0.55435 0.38681 0.04609 0.0
H313 H 0.49532 0.3473 0.95417 0.0
O314 O 0.53384 0.37749 0.17625 0.0
C315 C 0.50577 0.32075 0.09017 0.0
O316 O 0.48804 0.31801 0.06322 0.0
N317 N 0.49805 0.37615 0.12441 0.0
C318 C 0.47862 0.40032 0.13313 0.0
C319 C 0.48941 0.39855 0.19561 0.0
C320 C 0.49903 0.38659 0.18998 0.0
C321 C 0.48718 0.37726 0.06369 0.0
C322 C 0.4779 0.38966 0.06605 0.0
H323 H 0.50684 0.3853 0.23977 0.0
H324 H 0.48496 0.36811 0.01353 0.0
H325 H 0.52133 0.35571 0.2947 0.0
H326 H 0.45718 0.3276 0.33747 0.0
H327 H 0.55779 0.3882 0.89717 0.0
H328 H 0.48991 0.40573 0.24978 0.0
H329 H 0.46993 0.39049 0.01579 0.0
C330 C 0.12533 0.46442 0.53351 0.0
C331 C 0.12435 0.46138 0.611 0.0
N332 N 0.13863 0.4793 0.64399 0.0
N333 N 0.13998 0.48424 0.51796 0.0
C334 C 0.14803 0.49281 0.58634 0.0
H335 H 0.11549 0.45315 0.49132 0.0
Co336 Co 0.14549 0.49703 0.42285 0.0
C337 C 0.14853 0.53759 0.46509 0.0
O338 O 0.13649 0.5366 0.4084 0.0
N339 N 0.1516 0.50977 0.32621 0.0
C340 C 0.16655 0.53247 0.23136 0.0
C341 C 0.1645 0.53007 0.30892 0.0
C342 C 0.14726 0.50006 0.25785 0.0
N343 N 0.15571 0.51354 0.19946 0.0
O344 O 0.17358 0.50329 0.428 0.0
H345 H 0.173 0.54237 0.34961 0.0
H346 H 0.13886 0.48337 0.25062 0.0
O347 O 0.15322 0.52332 0.47335 0.0
C348 C 0.17738 0.48837 0.42654 0.0
O349 O 0.16187 0.46909 0.42874 0.0
N350 N 0.11716 0.48972 0.41638 0.0
C351 C 0.07421 0.47366 0.40894 0.0
C352 C 0.08606 0.488 0.46554 0.0
C353 C 0.10743 0.49536 0.4697 0.0
C354 C 0.10559 0.47503 0.36328 0.0
C355 C 0.08417 0.46703 0.35774 0.0
H356 H 0.11586 0.50484 0.51793 0.0
H357 H 0.11268 0.4685 0.32769 0.0
H358 H 0.15991 0.50892 0.5942 0.0
H359 H 0.11371 0.44723 0.64085 0.0
H360 H 0.17612 0.54686 0.2009 0.0
H361 H 0.07872 0.49269 0.5084 0.0
H362 H 0.07539 0.45539 0.31487 0.0
C363 C 0.6852 0.1303 0.58778 0.0
C364 C 0.68782 0.12913 0.66497 0.0
N365 N 0.67068 0.12676 0.70071 0.0
N366 N 0.66661 0.12886 0.57507 0.0
C367 C 0.65811 0.12661 0.64495 0.0
H368 H 0.69627 0.13238 0.54376 0.0
Co369 Co 0.65633 0.13092 0.4807 0.0
C370 C 0.61864 0.13378 0.52941 0.0
O371 O 0.60589 0.12073 0.47809 0.0
N372 N 0.64656 0.13345 0.38421 0.0
C373 C 0.63723 0.14622 0.28692 0.0
C374 C 0.63907 0.14608 0.36464 0.0
C375 C 0.64983 0.12673 0.31669 0.0
N376 N 0.64418 0.13414 0.25641 0.0
O377 O 0.67628 0.15965 0.4774 0.0
H378 H 0.63644 0.15581 0.40354 0.0
H379 H 0.65786 0.11803 0.3113 0.0
O380 O 0.63753 0.13796 0.53224 0.0
C381 C 0.69196 0.16452 0.4351 0.0
O382 O 0.6932 0.14967 0.39884 0.0
N383 N 0.63768 0.10216 0.48279 0.0
C384 C 0.61482 0.05879 0.47479 0.0
C385 C 0.60867 0.06969 0.52378 0.0
C386 C 0.62057 0.09141 0.52809 0.0
C387 C 0.64459 0.09169 0.43915 0.0
C388 C 0.63322 0.0701 0.43289 0.0
H389 H 0.61625 0.09926 0.56954 0.0
H390 H 0.65931 0.10017 0.40985 0.0
H391 H 0.64319 0.12546 0.6554 0.0
H392 H 0.70127 0.12998 0.69256 0.0
H393 H 0.63196 0.15528 0.2556 0.0
H394 H 0.59507 0.0615 0.55972 0.0
H395 H 0.6388 0.06239 0.39519 0.0
C396 C 0.36036 0.51059 0.58286 0.0
C397 C 0.34486 0.4997 0.52833 0.0
C398 C 0.35658 0.50584 0.66056 0.0
C399 C 0.33664 0.49006 0.68471 0.0
C400 C 0.32078 0.47923 0.62991 0.0
C401 C 0.32516 0.48401 0.55223 0.0
C402 C 0.37404 0.51756 0.71666 0.0
C403 C 0.29919 0.46265 0.65338 0.0
C404 C 0.33278 0.46389 0.87493 0.0
C405 C 0.32689 0.47493 0.92425 0.0
C406 C 0.33587 0.46857 0.79696 0.0
C407 C 0.33267 0.48449 0.76704 0.0
C408 C 0.32639 0.49549 0.81632 0.0
C409 C 0.32377 0.4907 0.89441 0.0
C410 C 0.34312 0.45687 0.74695 0.0
C411 C 0.32257 0.51239 0.78667 0.0
H412 H 0.37564 0.52261 0.56434 0.0
H413 H 0.31307 0.47579 0.51021 0.0
H414 H 0.36963 0.52603 0.75778 0.0
H415 H 0.37687 0.50645 0.74967 0.0
H416 H 0.38879 0.52898 0.68842 0.0
H417 H 0.28835 0.45634 0.60423 0.0
H418 H 0.29986 0.44962 0.68157 0.0
H419 H 0.29274 0.46913 0.69533 0.0
H420 H 0.33563 0.45198 0.89778 0.0
H421 H 0.31915 0.49922 0.93222 0.0
H422 H 0.35841 0.46793 0.72132 0.0
H423 H 0.33199 0.4492 0.69952 0.0
H424 H 0.34473 0.44481 0.77885 0.0
H425 H 0.3373 0.52551 0.76441 0.0
H426 H 0.31644 0.5185 0.83137 0.0
H427 H 0.31132 0.50636 0.73877 0.0
C428 C 0.86908 0.34456 0.03266 0.0
C429 C 0.85226 0.33589 0.08344 0.0
C430 C 0.86603 0.34627 0.95475 0.0
C431 C 0.84559 0.33873 0.92659 0.0
C432 C 0.82849 0.32964 0.97747 0.0
C433 C 0.83206 0.32854 0.05542 0.0
C434 C 0.88474 0.35661 0.90288 0.0
C435 C 0.80645 0.32118 0.94967 0.0
C436 C 0.83937 0.36134 0.74096 0.0
C437 C 0.83798 0.34664 0.68782 0.0
C438 C 0.84175 0.35888 0.81871 0.0
C439 C 0.84225 0.34103 0.84431 0.0
C440 C 0.84026 0.32581 0.79092 0.0
C441 C 0.83843 0.32894 0.71306 0.0
C442 C 0.84448 0.37576 0.87311 0.0
C443 C 0.84011 0.30627 0.81603 0.0
H444 H 0.88474 0.35058 0.05433 0.0
H445 H 0.81903 0.32174 0.09453 0.0
H446 H 0.88333 0.34576 0.85675 0.0
H447 H 0.88546 0.37044 0.87556 0.0
H448 H 0.89959 0.36165 0.93374 0.0
H449 H 0.7948 0.31324 0.99553 0.0
H450 H 0.8045 0.33405 0.92693 0.0
H451 H 0.8031 0.30997 0.9025 0.0
H452 H 0.83922 0.3751 0.72117 0.0
H453 H 0.83706 0.31743 0.6719 0.0
H454 H 0.85967 0.38192 0.90241 0.0
H455 H 0.83214 0.3693 0.91718 0.0
H456 H 0.84403 0.38885 0.84415 0.0
H457 H 0.85526 0.31037 0.84256 0.0
H458 H 0.83725 0.29542 0.76796 0.0
H459 H 0.82788 0.29807 0.85975 0.0
C460 C 0.49267 0.83651 0.989 0.0
C461 C 0.51034 0.83629 0.01609 0.0
C462 C 0.48776 0.83412 0.91135 0.0
C463 C 0.50084 0.83138 0.85968 0.0
C464 C 0.5186 0.83094 0.88671 0.0
C465 C 0.52319 0.83351 0.96469 0.0
C466 C 0.46881 0.8349 0.88451 0.0
C467 C 0.53272 0.82776 0.83327 0.0
C468 C 0.47818 0.80785 0.6672 0.0
C469 C 0.4868 0.82556 0.6208 0.0
C470 C 0.48281 0.80947 0.74509 0.0
C471 C 0.4961 0.82933 0.77714 0.0
C472 C 0.50474 0.84728 0.73049 0.0
C473 C 0.50011 0.84514 0.65262 0.0
C474 C 0.47354 0.78996 0.79297 0.0
C475 C 0.51876 0.86874 0.76288 0.0
H476 H 0.48287 0.83897 0.02845 0.0
H477 H 0.5367 0.83306 0.98568 0.0
H478 H 0.47377 0.84892 0.84869 0.0
H479 H 0.45877 0.82111 0.84886 0.0
H480 H 0.45938 0.83543 0.93258 0.0
H481 H 0.54561 0.82729 0.86369 0.0
H482 H 0.52361 0.81297 0.80137 0.0
H483 H 0.53953 0.84053 0.79085 0.0
H484 H 0.46815 0.79269 0.64216 0.0
H485 H 0.50661 0.85881 0.61654 0.0
H486 H 0.4637 0.79093 0.83854 0.0
H487 H 0.48613 0.78849 0.82115 0.0
H488 H 0.46388 0.77568 0.75887 0.0
H489 H 0.51039 0.87216 0.80785 0.0
H490 H 0.52414 0.88109 0.71881 0.0
H491 H 0.53261 0.8694 0.78982 0.0
C492 C 0.66914 0.51806 0.03101 0.0
C493 C 0.64947 0.5024 0.00649 0.0
C494 C 0.67328 0.52304 0.10874 0.0
C495 C 0.65723 0.51242 0.16301 0.0
C496 C 0.63737 0.49661 0.13822 0.0
C497 C 0.63381 0.49166 0.06056 0.0
C498 C 0.69481 0.53965 0.13281 0.0
C499 C 0.61973 0.48511 0.19355 0.0
C500 C 0.66926 0.51231 0.37406 0.0
C501 C 0.66606 0.52818 0.40258 0.0
C502 C 0.66694 0.50733 0.29607 0.0
C503 C 0.66091 0.51823 0.24537 0.0
C504 C 0.65765 0.53426 0.27391 0.0
C505 C 0.66043 0.53914 0.35188 0.0
C506 C 0.67083 0.49032 0.26804 0.0
C507 C 0.65064 0.54587 0.22241 0.0
H508 H 0.68136 0.52621 0.98942 0.0
H509 H 0.61854 0.4797 0.0417 0.0
H510 H 0.69408 0.55282 0.15963 0.0
H511 H 0.70105 0.5333 0.17604 0.0
H512 H 0.70583 0.54573 0.08417 0.0
H513 H 0.60502 0.47375 0.16483 0.0
H514 H 0.62391 0.4766 0.23525 0.0
H515 H 0.61696 0.49637 0.22581 0.0
H516 H 0.67371 0.50385 0.41283 0.0
H517 H 0.65753 0.55113 0.37362 0.0
H518 H 0.68242 0.49628 0.22125 0.0
H519 H 0.65623 0.47725 0.24468 0.0
H520 H 0.67657 0.48416 0.3139 0.0
H521 H 0.66195 0.55337 0.17537 0.0
H522 H 0.64899 0.55805 0.25325 0.0
H523 H 0.63542 0.53478 0.19631 0.0
C524 C 0.16527 0.66687 0.28597 0.0
C525 C 0.1493 0.65186 0.24048 0.0
C526 C 0.16208 0.66851 0.36362 0.0
C527 C 0.14257 0.65452 0.39651 0.0
C528 C 0.12645 0.63919 0.35089 0.0
C529 C 0.12996 0.6382 0.27304 0.0
C530 C 0.17956 0.68516 0.41047 0.0
C531 C 0.10561 0.62373 0.38446 0.0
C532 C 0.14064 0.64533 0.609 0.0
C533 C 0.1321 0.65729 0.63573 0.0
C534 C 0.1443 0.64444 0.53124 0.0
C535 C 0.13916 0.65568 0.47903 0.0
C536 C 0.13072 0.66792 0.50557 0.0
C537 C 0.12725 0.66855 0.58367 0.0
C538 C 0.15328 0.63117 0.50486 0.0
C539 C 0.12542 0.68041 0.45147 0.0
H540 H 0.18012 0.67761 0.26032 0.0
H541 H 0.11771 0.62653 0.2376 0.0
H542 H 0.17429 0.69515 0.43839 0.0
H543 H 0.18403 0.67785 0.45622 0.0
H544 H 0.19357 0.69518 0.37566 0.0
H545 H 0.09471 0.61283 0.34106 0.0
H546 H 0.10778 0.61453 0.42955 0.0
H547 H 0.09834 0.63207 0.41151 0.0
H548 H 0.14415 0.63634 0.64874 0.0
H549 H 0.12095 0.67805 0.60415 0.0
H550 H 0.16615 0.63976 0.46382 0.0
H551 H 0.14102 0.61717 0.47526 0.0
H552 H 0.15934 0.62608 0.55291 0.0
H553 H 0.13947 0.69139 0.41873 0.0
H554 H 0.11931 0.68944 0.48145 0.0
H555 H 0.11358 0.66987 0.40983 0.0
C556 C 0.49377 0.16181 0.6794 0.0
C557 C 0.50046 0.15188 0.73064 0.0
C558 C 0.49739 0.16185 0.60093 0.0
C559 C 0.50776 0.15152 0.57296 0.0
C560 C 0.51367 0.14064 0.62407 0.0
C561 C 0.51018 0.14117 0.70233 0.0
C562 C 0.49076 0.17354 0.54824 0.0
C563 C 0.52434 0.12902 0.59695 0.0
C564 C 0.50663 0.14091 0.3604 0.0
C565 C 0.52567 0.15781 0.33601 0.0
C566 C 0.50051 0.13866 0.43715 0.0
C567 C 0.51385 0.15347 0.49131 0.0
C568 C 0.53323 0.17027 0.46773 0.0
C569 C 0.5388 0.17233 0.39066 0.0
C570 C 0.47983 0.12039 0.46048 0.0
C571 C 0.5481 0.18615 0.52406 0.0
H572 H 0.48638 0.17022 0.70097 0.0
H573 H 0.51509 0.13317 0.74147 0.0
H574 H 0.50473 0.18698 0.52298 0.0
H575 H 0.48133 0.16333 0.50068 0.0
H576 H 0.48152 0.17944 0.57804 0.0
H577 H 0.52191 0.11653 0.6375 0.0
H578 H 0.51862 0.12184 0.54027 0.0
H579 H 0.54131 0.14006 0.59209 0.0
H580 H 0.49645 0.12931 0.31974 0.0
H581 H 0.55343 0.18559 0.37368 0.0
H582 H 0.47013 0.12602 0.48834 0.0
H583 H 0.48233 0.11073 0.5027 0.0
H584 H 0.47107 0.1104 0.41137 0.0
H585 H 0.54048 0.19387 0.55315 0.0
H586 H 0.56264 0.1983 0.4967 0.0
H587 H 0.55232 0.17826 0.56842 0.0
C588 C 0.4889 0.66651 0.33195 0.0
C589 C 0.47615 0.64583 0.35538 0.0
C590 C 0.49337 0.67148 0.25437 0.0
C591 C 0.48512 0.65534 0.1992 0.0
C592 C 0.47215 0.63446 0.22289 0.0
C593 C 0.46771 0.63001 0.30046 0.0
C594 C 0.50678 0.69398 0.2314 0.0
C595 C 0.46325 0.61674 0.16646 0.0
C596 C 0.48228 0.66582 0.98833 0.0
C597 C 0.50004 0.66601 0.95959 0.0
C598 C 0.47756 0.66305 0.06651 0.0
C599 C 0.4907 0.66001 0.11705 0.0
C600 C 0.5087 0.66032 0.08835 0.0
C601 C 0.51322 0.66346 0.01025 0.0
C602 C 0.45836 0.66308 0.09481 0.0
C603 C 0.5229 0.65671 0.13984 0.0
H604 H 0.49511 0.67879 0.37426 0.0
H605 H 0.45796 0.61402 0.3186 0.0
H606 H 0.51998 0.69597 0.19564 0.0
H607 H 0.49743 0.69883 0.1967 0.0
H608 H 0.51311 0.70451 0.28134 0.0
H609 H 0.45356 0.60138 0.19423 0.0
H610 H 0.45351 0.61905 0.12412 0.0
H611 H 0.47606 0.61642 0.13491 0.0
H612 H 0.47211 0.66791 0.94959 0.0
H613 H 0.52675 0.66321 0.98843 0.0
H614 H 0.46245 0.67423 0.14269 0.0
H615 H 0.44696 0.64742 0.11671 0.0
H616 H 0.45071 0.66731 0.04942 0.0
H617 H 0.52867 0.66825 0.18685 0.0
H618 H 0.53651 0.65786 0.10898 0.0
H619 H 0.51409 0.64102 0.16596 0.0
C620 C 0.84296 0.47185 0.465 0.0
C621 C 0.84036 0.48419 0.51912 0.0
C622 C 0.84453 0.47673 0.38739 0.0
C623 C 0.84282 0.49402 0.36299 0.0
C624 C 0.8398 0.50634 0.41756 0.0
C625 C 0.8389 0.50144 0.49525 0.0
C626 C 0.84836 0.46357 0.33168 0.0
C627 C 0.83729 0.52452 0.39381 0.0
C628 C 0.86611 0.51829 0.1714 0.0
C629 C 0.84876 0.50851 0.1232 0.0
C630 C 0.86438 0.51376 0.24948 0.0
C631 C 0.84471 0.49941 0.28054 0.0
C632 C 0.82705 0.48973 0.23227 0.0
C633 C 0.82935 0.4942 0.154 0.0
C634 C 0.88372 0.52388 0.29835 0.0
C635 C 0.80575 0.47456 0.26318 0.0
H636 H 0.84415 0.45857 0.48388 0.0
H637 H 0.83654 0.51076 0.53732 0.0
H638 H 0.835 0.45571 0.29205 0.0
H639 H 0.86239 0.47371 0.29734 0.0
H640 H 0.85067 0.45151 0.3602 0.0
H641 H 0.83416 0.53199 0.44296 0.0
H642 H 0.8516 0.5364 0.36465 0.0
H643 H 0.82427 0.51924 0.35262 0.0
H644 H 0.88121 0.52903 0.14747 0.0
H645 H 0.81593 0.48667 0.11679 0.0
H646 H 0.8863 0.51173 0.32445 0.0
H647 H 0.88173 0.53269 0.34546 0.0
H648 H 0.89784 0.53469 0.26544 0.0
H649 H 0.80561 0.46044 0.2847 0.0
H650 H 0.79337 0.46972 0.21937 0.0
H651 H 0.80195 0.48163 0.31181 0.0
C652 C 0.32221 0.87387 0.242 0.0
C653 C 0.33499 0.87134 0.18953 0.0
C654 C 0.32362 0.87084 0.31997 0.0
C655 C 0.3383 0.86533 0.34583 0.0
C656 C 0.35136 0.8629 0.29318 0.0
C657 C 0.34953 0.86592 0.21554 0.0
C658 C 0.30924 0.87327 0.37452 0.0
C659 C 0.36733 0.85723 0.31889 0.0
C660 C 0.3538 0.87485 0.55376 0.0
C661 C 0.34182 0.85483 0.5842 0.0
C662 C 0.35302 0.87849 0.47591 0.0
C663 C 0.3397 0.86171 0.42793 0.0
C664 C 0.32757 0.84146 0.45841 0.0
C665 C 0.32887 0.83825 0.53622 0.0
C666 C 0.36638 0.90023 0.44504 0.0
C667 C 0.31306 0.82324 0.40899 0.0
H668 H 0.31082 0.87784 0.22184 0.0
H669 H 0.35967 0.8643 0.1752 0.0
H670 H 0.29953 0.85844 0.40537 0.0
H671 H 0.31846 0.88532 0.41773 0.0
H672 H 0.29878 0.87774 0.34517 0.0
H673 H 0.37552 0.85492 0.27032 0.0
H674 H 0.37904 0.86974 0.35588 0.0
H675 H 0.35979 0.84272 0.35307 0.0
H676 H 0.36394 0.88761 0.59088 0.0
H677 H 0.31937 0.82282 0.55997 0.0
H678 H 0.35639 0.90579 0.41914 0.0
H679 H 0.37671 0.90017 0.39954 0.0
H680 H 0.37616 0.91147 0.48981 0.0
H681 H 0.3014 0.82639 0.38193 0.0
H682 H 0.30469 0.80848 0.44169 0.0
H683 H 0.32196 0.82109 0.36258 0.0
C684 C 0.5291 0.37835 0.76572 0.0
C685 C 0.51969 0.36239 0.81963 0.0
C686 C 0.52431 0.37444 0.68806 0.0
C687 C 0.51014 0.35395 0.66317 0.0
C688 C 0.50087 0.33766 0.71737 0.0
C689 C 0.50555 0.34213 0.79511 0.0
C690 C 0.53421 0.39234 0.63284 0.0
C691 C 0.48607 0.31552 0.69319 0.0
C692 C 0.4826 0.34729 0.47354 0.0
C693 C 0.49499 0.34337 0.42348 0.0
C694 C 0.48731 0.35065 0.55153 0.0
C695 C 0.50465 0.34975 0.58073 0.0
C696 C 0.51705 0.34549 0.53066 0.0
C697 C 0.51218 0.34253 0.45263 0.0
C698 C 0.47402 0.35574 0.60235 0.0
C699 C 0.53553 0.34416 0.55942 0.0
H700 H 0.53988 0.39404 0.78474 0.0
H701 H 0.49847 0.32973 0.8367 0.0
H702 H 0.54396 0.38967 0.59165 0.0
H703 H 0.52195 0.39331 0.60002 0.0
H704 H 0.54415 0.4075 0.66169 0.0
H705 H 0.48087 0.30451 0.74188 0.0
H706 H 0.47215 0.31455 0.66566 0.0
H707 H 0.49368 0.31048 0.6505 0.0
H708 H 0.46957 0.34838 0.45128 0.0
H709 H 0.52175 0.33943 0.41433 0.0
H710 H 0.48376 0.37132 0.62843 0.0
H711 H 0.46743 0.3443 0.64944 0.0
H712 H 0.46101 0.35571 0.57098 0.0
H713 H 0.5474 0.35944 0.58281 0.0
H714 H 0.5429 0.33961 0.51397 0.0
H715 H 0.53065 0.33265 0.60635 0.0
C716 C 0.1518 0.52161 0.06697 0.0
C717 C 0.15414 0.50876 0.11961 0.0
C718 C 0.14968 0.51694 0.98901 0.0
C719 C 0.1504 0.49922 0.96294 0.0
C720 C 0.15325 0.48645 0.01582 0.0
C721 C 0.15484 0.49124 0.09373 0.0
C722 C 0.1462 0.53067 0.93477 0.0
C723 C 0.1546 0.46773 0.99008 0.0
C724 C 0.12474 0.47504 0.77414 0.0
C725 C 0.14173 0.48383 0.72414 0.0
C726 C 0.12735 0.47997 0.85192 0.0
C727 C 0.14751 0.49373 0.88064 0.0
C728 C 0.16478 0.50247 0.83053 0.0
C729 C 0.16164 0.49757 0.75269 0.0
C730 C 0.10846 0.47076 0.90308 0.0
C731 C 0.18656 0.51698 0.85911 0.0
H732 H 0.1511 0.53505 0.08725 0.0
H733 H 0.15695 0.48148 0.13445 0.0
H734 H 0.15877 0.53733 0.89159 0.0
H735 H 0.13129 0.52122 0.90395 0.0
H736 H 0.14569 0.54367 0.96427 0.0
H737 H 0.15788 0.46 0.03793 0.0
H738 H 0.13975 0.45621 0.96285 0.0
H739 H 0.16706 0.47246 0.94678 0.0
H740 H 0.10929 0.46472 0.75195 0.0
H741 H 0.17479 0.50429 0.7141 0.0
H742 H 0.10693 0.48343 0.93039 0.0
H743 H 0.1103 0.46162 0.94925 0.0
H744 H 0.09385 0.46045 0.87168 0.0
H745 H 0.1875 0.53128 0.8829 0.0
H746 H 0.19842 0.52156 0.81347 0.0
H747 H 0.19047 0.50943 0.90571 0.0
C748 C 0.64655 0.11444 0.81004 0.0
C749 C 0.6669 0.12584 0.78153 0.0
C750 C 0.64244 0.11436 0.88808 0.0
C751 C 0.65911 0.12605 0.93902 0.0
C752 C 0.67976 0.1371 0.91084 0.0
C753 C 0.68341 0.13683 0.83251 0.0
C754 C 0.62025 0.10158 0.91553 0.0
C755 C 0.69798 0.14954 0.96329 0.0
C756 C 0.64838 0.14619 0.12261 0.0
C757 C 0.64736 0.13173 0.17653 0.0
C758 C 0.65187 0.14433 0.04527 0.0
C759 C 0.65487 0.1278 0.02086 0.0
C760 C 0.65385 0.11311 0.0746 0.0
C761 C 0.64993 0.11514 0.15152 0.0
C762 C 0.65283 0.16043 0.99022 0.0
C763 C 0.65704 0.09533 0.05094 0.0
H764 H 0.63379 0.10551 0.77116 0.0
H765 H 0.69915 0.14576 0.81083 0.0
H766 H 0.6178 0.08657 0.93835 0.0
H767 H 0.61681 0.10955 0.96192 0.0
H768 H 0.6089 0.09802 0.86866 0.0
H769 H 0.71317 0.15582 0.93356 0.0
H770 H 0.69689 0.16277 0.98761 0.0
H771 H 0.69763 0.13971 0.0115 0.0
H772 H 0.64682 0.1593 0.14062 0.0
H773 H 0.64886 0.10365 0.192 0.0
H774 H 0.64512 0.1532 0.93562 0.0
H775 H 0.66937 0.17184 0.97764 0.0
H776 H 0.64542 0.16904 0.01393 0.0
H777 H 0.64451 0.08494 0.01117 0.0
H778 H 0.65701 0.08595 0.10026 0.0
H779 H 0.67206 0.10139 0.02029 0.0
C780 C 0.4331 0.60902 0.82858 0.0
C781 C 0.43765 0.59818 0.77342 0.0
C782 C 0.42217 0.59907 0.89496 0.0
C783 C 0.41524 0.57767 0.90543 0.0
C784 C 0.41868 0.56635 0.84793 0.0
C785 C 0.42985 0.57674 0.78254 0.0
C786 C 0.41907 0.61171 0.95561 0.0
C787 C 0.41158 0.5435 0.85744 0.0
C788 C 0.40931 0.55477 0.10229 0.0
C789 C 0.38759 0.54362 0.11068 0.0
C790 C 0.41854 0.56664 0.03688 0.0
C791 C 0.40574 0.56735 0.97861 0.0
C792 C 0.38389 0.55701 0.98833 0.0
C793 C 0.37509 0.54546 0.05477 0.0
C794 C 0.44193 0.57744 0.02821 0.0
C795 C 0.36974 0.55716 0.92686 0.0
H796 H 0.43868 0.62547 0.82128 0.0
H797 H 0.43317 0.5682 0.74007 0.0
H798 H 0.40247 0.60401 0.97287 0.0
H799 H 0.42825 0.61267 0.00688 0.0
H800 H 0.42404 0.6278 0.93638 0.0
H801 H 0.41425 0.53665 0.80542 0.0
H802 H 0.42016 0.54142 0.90513 0.0
H803 H 0.39478 0.53466 0.87206 0.0
H804 H 0.41911 0.55357 0.14535 0.0
H805 H 0.35834 0.53728 0.06152 0.0
H806 H 0.44822 0.59403 0.01286 0.0
H807 H 0.44601 0.57011 0.9813 0.0
H808 H 0.44975 0.57657 0.08083 0.0
H809 H 0.37488 0.57337 0.90899 0.0
H810 H 0.35324 0.54964 0.94555 0.0
H811 H 0.37061 0.54872 0.87611 0.0
C812 C 0.84851 0.41203 0.26623 0.0
C813 C 0.83658 0.39051 0.27858 0.0
C814 C 0.8467 0.42086 0.19824 0.0
C815 C 0.83215 0.40795 0.14262 0.0
C816 C 0.81936 0.38637 0.1563 0.0
C817 C 0.82177 0.37789 0.22417 0.0
C818 C 0.86132 0.44377 0.18359 0.0
C819 C 0.80403 0.37208 0.09744 0.0
C820 C 0.82054 0.43607 0.98722 0.0
C821 C 0.83479 0.43794 0.93091 0.0
C822 C 0.81888 0.42562 0.05559 0.0
C823 C 0.83176 0.41684 0.06758 0.0
C824 C 0.84558 0.41798 0.00985 0.0
C825 C 0.84671 0.42826 0.94166 0.0
C826 C 0.80431 0.42508 0.11669 0.0
C827 C 0.86013 0.40949 0.02212 0.0
H828 H 0.86018 0.42182 0.30757 0.0
H829 H 0.81253 0.36123 0.23351 0.0
H830 H 0.87067 0.44591 0.13166 0.0
H831 H 0.85224 0.45172 0.1732 0.0
H832 H 0.87229 0.45149 0.23149 0.0
H833 H 0.79374 0.35614 0.11996 0.0
H834 H 0.79421 0.37848 0.07684 0.0
H835 H 0.81263 0.37095 0.04771 0.0
H836 H 0.81123 0.44345 0.97909 0.0
H837 H 0.85786 0.42975 0.8987 0.0
H838 H 0.81354 0.43504 0.1651 0.0
H839 H 0.79461 0.409 0.13873 0.0
H840 H 0.7939 0.43076 0.09576 0.0
H841 H 0.86973 0.41641 0.07379 0.0
H842 H 0.87088 0.41283 0.97341 0.0
H843 H 0.85098 0.39243 0.03158 0.0
C844 C 0.40568 0.8569 0.95214 0.0
C845 C 0.38408 0.84808 0.96014 0.0
C846 C 0.41742 0.85362 0.00711 0.0
C847 C 0.40724 0.84091 0.07087 0.0
C848 C 0.38533 0.83119 0.0775 0.0
C849 C 0.374 0.83502 0.02226 0.0
C850 C 0.44084 0.86479 0.99902 0.0
C851 C 0.37396 0.81738 0.14435 0.0
C852 C 0.43921 0.82325 0.18373 0.0
C853 C 0.44651 0.83768 0.24365 0.0
C854 C 0.42571 0.82358 0.12856 0.0
C855 C 0.41973 0.83893 0.13286 0.0
C856 C 0.42667 0.85322 0.19427 0.0
C857 C 0.43985 0.85229 0.24934 0.0
C858 C 0.4184 0.80796 0.06435 0.0
C859 C 0.42127 0.87031 0.19966 0.0
H860 H 0.4136 0.86719 0.9047 0.0
H861 H 0.35728 0.82809 0.02845 0.0
H862 H 0.44786 0.87801 0.03968 0.0
H863 H 0.44705 0.85434 0.013 0.0
H864 H 0.44596 0.87101 0.94069 0.0
H865 H 0.35679 0.81023 0.13933 0.0
H866 H 0.37785 0.80478 0.14937 0.0
H867 H 0.37908 0.82658 0.19775 0.0
H868 H 0.44428 0.81187 0.17938 0.0
H869 H 0.44568 0.86365 0.29501 0.0
H870 H 0.42451 0.81615 0.00946 0.0
H871 H 0.40115 0.79961 0.06072 0.0
H872 H 0.42358 0.79634 0.07146 0.0
H873 H 0.43104 0.88283 0.15878 0.0
H874 H 0.42414 0.87722 0.25758 0.0
H875 H 0.40477 0.86452 0.18437 0.0
C876 C 0.56224 0.39728 0.29633 0.0
C877 C 0.55854 0.40844 0.23998 0.0
C878 C 0.57205 0.4068 0.3649 0.0
C879 C 0.57878 0.42813 0.37649 0.0
C880 C 0.57604 0.43975 0.31838 0.0
C881 C 0.566 0.42977 0.25067 0.0
C882 C 0.57419 0.39378 0.4264 0.0
C883 C 0.58283 0.46249 0.32929 0.0
C884 C 0.58356 0.45049 0.5742 0.0
C885 C 0.60517 0.46081 0.58571 0.0
C886 C 0.57469 0.43916 0.50728 0.0
C887 C 0.58775 0.43815 0.45071 0.0
C888 C 0.60946 0.44781 0.46327 0.0
C889 C 0.61786 0.45875 0.53118 0.0
C890 C 0.55146 0.42916 0.49535 0.0
C891 C 0.62394 0.44761 0.40328 0.0
H892 H 0.55686 0.38088 0.28803 0.0
H893 H 0.56324 0.43855 0.20751 0.0
H894 H 0.59061 0.40105 0.44555 0.0
H895 H 0.56473 0.39306 0.47643 0.0
H896 H 0.56895 0.37762 0.40722 0.0
H897 H 0.58043 0.46955 0.27736 0.0
H898 H 0.57388 0.4643 0.37621 0.0
H899 H 0.5995 0.47135 0.34582 0.0
H900 H 0.57362 0.45192 0.61605 0.0
H901 H 0.63451 0.46628 0.54026 0.0
H902 H 0.5448 0.41254 0.47942 0.0
H903 H 0.54817 0.43687 0.4477 0.0
H904 H 0.54333 0.43027 0.54668 0.0
H905 H 0.61888 0.43139 0.38575 0.0
H906 H 0.64034 0.45511 0.42321 0.0
H907 H 0.62335 0.45602 0.35201 0.0
C908 C 0.14101 0.56209 0.53703 0.0
C909 C 0.15307 0.55251 0.5279 0.0
C910 C 0.14297 0.57381 0.60224 0.0
C911 C 0.15754 0.57624 0.65921 0.0
C912 C 0.17037 0.56734 0.64889 0.0
C913 C 0.16794 0.55551 0.58336 0.0
C914 C 0.1285 0.5825 0.61195 0.0
C915 C 0.18615 0.56974 0.70819 0.0
C916 C 0.1697 0.61989 0.79852 0.0
C917 C 0.15575 0.60904 0.85751 0.0
C918 C 0.17142 0.60931 0.73527 0.0
C919 C 0.1586 0.58739 0.7307 0.0
C920 C 0.1452 0.57629 0.79189 0.0
C921 C 0.14414 0.58725 0.85516 0.0
C922 C 0.18669 0.62177 0.67322 0.0
C923 C 0.13102 0.55296 0.7884 0.0
H924 H 0.12932 0.55963 0.49493 0.0
H925 H 0.17738 0.54823 0.57636 0.0
H926 H 0.11568 0.57228 0.65106 0.0
H927 H 0.13667 0.59827 0.63754 0.0
H928 H 0.12149 0.58324 0.55703 0.0
H929 H 0.19552 0.56258 0.69012 0.0
H930 H 0.19682 0.5865 0.72025 0.0
H931 H 0.17808 0.56232 0.76214 0.0
H932 H 0.17884 0.63675 0.8008 0.0
H933 H 0.13319 0.57883 0.90042 0.0
H934 H 0.18104 0.61496 0.61605 0.0
H935 H 0.20151 0.6219 0.68374 0.0
H936 H 0.19013 0.63818 0.6728 0.0
H937 H 0.11972 0.54894 0.74117 0.0
H938 H 0.12215 0.54659 0.842 0.0
H939 H 0.1402 0.54519 0.77645 0.0
C940 C 0.58994 0.12962 0.615 0.0
C941 C 0.61073 0.14132 0.5916 0.0
C942 C 0.58298 0.13518 0.68037 0.0
C943 C 0.59701 0.15316 0.72204 0.0
C944 C 0.6178 0.16551 0.69679 0.0
C945 C 0.62447 0.15932 0.63227 0.0
C946 C 0.56092 0.12114 0.70726 0.0
C947 C 0.63318 0.1848 0.73959 0.0
C948 C 0.57087 0.17213 0.86049 0.0
C949 C 0.57108 0.162 0.92766 0.0
C950 C 0.58016 0.17026 0.79365 0.0
C951 C 0.59012 0.15821 0.79439 0.0
C952 C 0.59182 0.14937 0.86344 0.0
C953 C 0.58232 0.15141 0.9293 0.0
C954 C 0.57807 0.17996 0.72116 0.0
C955 C 0.60226 0.13638 0.8668 0.0
H956 H 0.57936 0.11553 0.58443 0.0
H957 H 0.64058 0.1684 0.61426 0.0
H958 H 0.56115 0.11289 0.75957 0.0
H959 H 0.5534 0.13037 0.72209 0.0
H960 H 0.5513 0.1093 0.66388 0.0
H961 H 0.64819 0.19371 0.70875 0.0
H962 H 0.62658 0.19513 0.74947 0.0
H963 H 0.63633 0.18033 0.79616 0.0
H964 H 0.56251 0.18064 0.85894 0.0
H965 H 0.58272 0.14365 0.98096 0.0
H966 H 0.56738 0.16748 0.68174 0.0
H967 H 0.59337 0.18877 0.69228 0.0
H968 H 0.5718 0.19058 0.73154 0.0
H969 H 0.59202 0.12106 0.83966 0.0
H970 H 0.60528 0.13365 0.92635 0.0
H971 H 0.6172 0.14391 0.83522 0.0
C972 C 0.26394 0.47464 0.23479 0.0
C973 C 0.28437 0.48702 0.26065 0.0
C974 C 0.24795 0.47783 0.26167 0.0
C975 C 0.25247 0.49323 0.31785 0.0
C976 C 0.27324 0.50612 0.34279 0.0
C977 C 0.28905 0.50305 0.31289 0.0
C978 C 0.2261 0.46419 0.23194 0.0
C979 C 0.27855 0.52229 0.40409 0.0
C980 C 0.2103 0.50696 0.35296 0.0
C981 C 0.19838 0.49229 0.40864 0.0
C982 C 0.2285 0.50806 0.32448 0.0
C983 C 0.23512 0.49458 0.35425 0.0
C984 C 0.22389 0.48083 0.41449 0.0
C985 C 0.20539 0.47957 0.43997 0.0
C986 C 0.23973 0.52253 0.25897 0.0
C987 C 0.23083 0.46668 0.4494 0.0
H988 H 0.26043 0.4623 0.19414 0.0
H989 H 0.30488 0.51242 0.33354 0.0
H990 H 0.21612 0.45356 0.27761 0.0
H991 H 0.21924 0.47386 0.21459 0.0
H992 H 0.22565 0.45461 0.18254 0.0
H993 H 0.29564 0.53222 0.41233 0.0
H994 H 0.27197 0.53242 0.39022 0.0
H995 H 0.2715 0.5144 0.45869 0.0
H996 H 0.20464 0.51659 0.32808 0.0
H997 H 0.19612 0.46828 0.4832 0.0
H998 H 0.23743 0.5132 0.20672 0.0
H999 H 0.25672 0.53161 0.27001 0.0
H1000 H 0.23397 0.53353 0.24797 0.0
H1001 H 0.2285 0.45441 0.40796 0.0
H1002 H 0.22199 0.459 0.50194 0.0
H1003 H 0.24767 0.47559 0.46337 0.0
C1004 C 0.78212 0.28358 0.37221 0.0
C1005 C 0.79942 0.28629 0.41394 0.0
C1006 C 0.76325 0.26459 0.37429 0.0
C1007 C 0.76171 0.24809 0.41952 0.0
C1008 C 0.77898 0.25096 0.46321 0.0
C1009 C 0.79763 0.27 0.45966 0.0
C1010 C 0.74514 0.262 0.32674 0.0
C1011 C 0.7779 0.23376 0.51252 0.0
C1012 C 0.70989 0.20178 0.47672 0.0
C1013 C 0.70877 0.18637 0.42748 0.0
C1014 C 0.72668 0.22226 0.47294 0.0
C1015 C 0.74255 0.22736 0.41833 0.0
C1016 C 0.741 0.21206 0.36643 0.0
C1017 C 0.72416 0.19172 0.37184 0.0
C1018 C 0.72789 0.2382 0.52935 0.0
C1019 C 0.75754 0.21695 0.307 0.0
H1020 H 0.78343 0.29616 0.33687 0.0
H1021 H 0.81089 0.27206 0.49263 0.0
H1022 H 0.74141 0.24992 0.28264 0.0
H1023 H 0.73108 0.25659 0.36271 0.0
H1024 H 0.74848 0.27671 0.29811 0.0
H1025 H 0.79237 0.23889 0.54597 0.0
H1026 H 0.76458 0.2281 0.55249 0.0
H1027 H 0.77525 0.22037 0.4764 0.0
H1028 H 0.69798 0.19773 0.51968 0.0
H1029 H 0.72324 0.17992 0.33301 0.0
H1030 H 0.7308 0.25259 0.49949 0.0
H1031 H 0.74114 0.24256 0.5687 0.0
H1032 H 0.71342 0.23227 0.56354 0.0
H1033 H 0.76052 0.2309 0.27382 0.0
H1034 H 0.75313 0.20379 0.26699 0.0
H1035 H 0.77237 0.22058 0.33524 0.0
C1036 C 0.47124 0.76525 0.37657 0.0
C1037 C 0.49027 0.775 0.3373 0.0
C1038 C 0.46581 0.74784 0.42269 0.0
C1039 C 0.47955 0.73987 0.42804 0.0
C1040 C 0.49747 0.74811 0.38116 0.0
C1041 C 0.50273 0.76574 0.33681 0.0
C1042 C 0.44649 0.73941 0.47127 0.0
C1043 C 0.51225 0.73965 0.38349 0.0
C1044 C 0.49061 0.72103 0.6116 0.0
C1045 C 0.48135 0.69967 0.59785 0.0
C1046 C 0.48844 0.73408 0.55943 0.0
C1047 C 0.47738 0.72555 0.49074 0.0
C1048 C 0.46684 0.70375 0.47902 0.0
C1049 C 0.46875 0.69098 0.53349 0.0
C1050 C 0.49941 0.75721 0.57508 0.0
C1051 C 0.45524 0.69408 0.40613 0.0
H1052 H 0.4614 0.7722 0.37661 0.0
H1053 H 0.51729 0.77305 0.30557 0.0
H1054 H 0.43844 0.72217 0.47452 0.0
H1055 H 0.45099 0.74557 0.52998 0.0
H1056 H 0.43541 0.74413 0.44925 0.0
H1057 H 0.52299 0.74495 0.33395 0.0
H1058 H 0.52173 0.74512 0.4362 0.0
H1059 H 0.50357 0.72238 0.38454 0.0
H1060 H 0.5004 0.72766 0.66138 0.0
H1061 H 0.46185 0.67444 0.52238 0.0
H1062 H 0.48886 0.76348 0.56385 0.0
H1063 H 0.513 0.76535 0.53651 0.0
H1064 H 0.50504 0.76095 0.63473 0.0
H1065 H 0.4461 0.70142 0.38759 0.0
H1066 H 0.44459 0.67703 0.41219 0.0
H1067 H 0.46662 0.69662 0.36048 0.0
C1068 C 0.79606 0.5167 0.71626 0.0
C1069 C 0.79764 0.50386 0.77114 0.0
C1070 C 0.77769 0.51748 0.70777 0.0
C1071 C 0.76056 0.50529 0.75599 0.0
C1072 C 0.76182 0.49181 0.81007 0.0
C1073 C 0.78036 0.49116 0.81672 0.0
C1074 C 0.77685 0.53185 0.64878 0.0
C1075 C 0.74389 0.4787 0.86276 0.0
C1076 C 0.72496 0.52735 0.79011 0.0
C1077 C 0.70834 0.51528 0.74091 0.0
C1078 C 0.74174 0.5238 0.79717 0.0
C1079 C 0.742 0.50792 0.75331 0.0
C1080 C 0.72514 0.49545 0.70428 0.0
C1081 C 0.70841 0.49922 0.69895 0.0
C1082 C 0.75936 0.5373 0.85059 0.0
C1083 C 0.72503 0.47852 0.65616 0.0
H1084 H 0.80929 0.52635 0.68019 0.0
H1085 H 0.78153 0.48119 0.85916 0.0
H1086 H 0.76288 0.52323 0.61228 0.0
H1087 H 0.77556 0.5445 0.6774 0.0
H1088 H 0.79089 0.53902 0.61187 0.0
H1089 H 0.7468 0.46794 0.89779 0.0
H1090 H 0.74124 0.48899 0.90144 0.0
H1091 H 0.72936 0.46941 0.8297 0.0
H1092 H 0.72489 0.53965 0.82329 0.0
H1093 H 0.69558 0.48984 0.66085 0.0
H1094 H 0.77393 0.54657 0.81769 0.0
H1095 H 0.76214 0.52743 0.89089 0.0
H1096 H 0.7562 0.54818 0.88379 0.0
H1097 H 0.73817 0.4855 0.61522 0.0
H1098 H 0.71028 0.46955 0.62378 0.0
H1099 H 0.7273 0.46759 0.69248 0.0
C1100 C 0.26169 0.80892 0.95999 0.0
C1101 C 0.27844 0.81308 0.91232 0.0
C1102 C 0.24408 0.78897 0.96279 0.0
C1103 C 0.24294 0.77313 0.91446 0.0
C1104 C 0.25989 0.77731 0.86621 0.0
C1105 C 0.27765 0.7972 0.86678 0.0
C1106 C 0.22661 0.7849 0.01684 0.0
C1107 C 0.25895 0.76103 0.8121 0.0
C1108 C 0.20288 0.71691 0.95799 0.0
C1109 C 0.18599 0.71432 0.91418 0.0
C1110 C 0.22163 0.73601 0.95864 0.0
C1111 C 0.22362 0.75251 0.91217 0.0
C1112 C 0.20681 0.74959 0.86542 0.0
C1113 C 0.18801 0.73062 0.86819 0.0
C1114 C 0.23896 0.73879 0.01109 0.0
C1115 C 0.20859 0.76657 0.81322 0.0
H1116 H 0.26248 0.82124 0.99563 0.0
H1117 H 0.29061 0.80057 0.82945 0.0
H1118 H 0.21249 0.78161 0.98417 0.0
H1119 H 0.22255 0.77097 0.05211 0.0
H1120 H 0.23072 0.79834 0.05517 0.0
H1121 H 0.27359 0.76671 0.77917 0.0
H1122 H 0.25588 0.74685 0.84378 0.0
H1123 H 0.24588 0.7564 0.77156 0.0
H1124 H 0.20114 0.70428 0.99411 0.0
H1125 H 0.1749 0.72845 0.83398 0.0
H1126 H 0.24227 0.7513 0.05289 0.0
H1127 H 0.25347 0.74371 0.97833 0.0
H1128 H 0.23503 0.72429 0.04261 0.0
H1129 H 0.21034 0.77994 0.84734 0.0
H1130 H 0.19474 0.76115 0.77585 0.0
H1131 H 0.22266 0.77234 0.77696 0.0
C1132 C 0.52733 0.30464 0.126 0.0
C1133 C 0.51065 0.30375 0.08518 0.0
C1134 C 0.53098 0.28777 0.12536 0.0
C1135 C 0.51766 0.26973 0.08268 0.0
C1136 C 0.50136 0.26914 0.03894 0.0
C1137 C 0.49803 0.28613 0.04089 0.0
C1138 C 0.54852 0.28892 0.17262 0.0
C1139 C 0.48688 0.25023 0.9923 0.0
C1140 C 0.52994 0.22715 0.03375 0.0
C1141 C 0.51706 0.21156 0.08527 0.0
C1142 C 0.53121 0.2467 0.03459 0.0
C1143 C 0.5194 0.25067 0.08841 0.0
C1144 C 0.50733 0.23538 0.14322 0.0
C1145 C 0.50627 0.216 0.14083 0.0
C1146 C 0.54429 0.26267 0.97541 0.0
C1147 C 0.49464 0.23906 0.20196 0.0
H1148 H 0.53718 0.31826 0.16015 0.0
H1149 H 0.48526 0.28543 0.00847 0.0
H1150 H 0.54198 0.27781 0.22076 0.0
H1151 H 0.55811 0.28432 0.1382 0.0
H1152 H 0.55876 0.30478 0.19601 0.0
H1153 H 0.47593 0.25286 0.95728 0.0
H1154 H 0.49597 0.24585 0.95402 0.0
H1155 H 0.47765 0.23682 0.03061 0.0
H1156 H 0.53838 0.22381 0.99087 0.0
H1157 H 0.49651 0.20411 0.18151 0.0
H1158 H 0.55408 0.27815 0.00215 0.0
H1159 H 0.53395 0.26429 0.93373 0.0
H1160 H 0.55454 0.25826 0.94415 0.0
H1161 H 0.50443 0.25405 0.23184 0.0
H1162 H 0.4877 0.22639 0.2449 0.0
H1163 H 0.48184 0.24009 0.17338 0.0
C1164 C 0.42205 0.46901 0.14915 0.0
C1165 C 0.40497 0.45948 0.19906 0.0
C1166 C 0.43485 0.4604 0.13589 0.0
C1167 C 0.43112 0.44234 0.17606 0.0
C1168 C 0.41457 0.43315 0.22901 0.0
C1169 C 0.40146 0.44155 0.23869 0.0
C1170 C 0.45198 0.47028 0.07727 0.0
C1171 C 0.41048 0.41422 0.27464 0.0
C1172 C 0.44866 0.40578 0.09946 0.0
C1173 C 0.46726 0.41216 0.13978 0.0
C1174 C 0.43725 0.41608 0.10832 0.0
C1175 C 0.44408 0.43261 0.16117 0.0
C1176 C 0.46284 0.43929 0.2017 0.0
C1177 C 0.47443 0.42932 0.18923 0.0
C1178 C 0.41764 0.40894 0.06219 0.0
C1179 C 0.47033 0.45651 0.26011 0.0
H1180 H 0.4254 0.48316 0.11959 0.0
H1181 H 0.38818 0.43368 0.27623 0.0
H1182 H 0.46728 0.475 0.10376 0.0
H1183 H 0.44945 0.45877 0.03212 0.0
H1184 H 0.45271 0.48418 0.05032 0.0
H1185 H 0.39828 0.41017 0.3186 0.0
H1186 H 0.40539 0.40065 0.23624 0.0
H1187 H 0.42499 0.41693 0.30313 0.0
H1188 H 0.44258 0.39238 0.06219 0.0
H1189 H 0.48902 0.43488 0.21926 0.0
H1190 H 0.41785 0.42244 0.03407 0.0
H1191 H 0.40387 0.40172 0.10021 0.0
H1192 H 0.41567 0.39739 0.0179 0.0
H1193 H 0.47244 0.471 0.23357 0.0
H1194 H 0.48528 0.45988 0.28683 0.0
H1195 H 0.45844 0.45209 0.30546 0.0
C1196 C 0.95226 0.41866 0.33099 0.0
C1197 C 0.94083 0.41245 0.39901 0.0
C1198 C 0.97406 0.43075 0.3318 0.0
C1199 C 0.98469 0.43647 0.40228 0.0
C1200 C 0.97325 0.43105 0.47104 0.0
C1201 C 0.95145 0.41924 0.46854 0.0
C1202 C 0.98573 0.43649 0.25724 0.0
C1203 C 0.98405 0.43678 0.54735 0.0
C1204 C 0.03857 0.44267 0.40517 0.0
C1205 C 0.05134 0.46436 0.40706 0.0
C1206 C 0.01685 0.43345 0.40426 0.0
C1207 C 0.00771 0.44627 0.40418 0.0
C1208 C 0.02054 0.46821 0.40576 0.0
C1209 C 0.04227 0.47702 0.4079 0.0
C1210 C 0.00368 0.40998 0.4038 0.0
C1211 C 0.01132 0.48232 0.4045 0.0
H1212 H 0.9443 0.41333 0.27695 0.0
H1213 H 0.94272 0.41487 0.5213 0.0
H1214 H -0.00233 0.45327 0.25655 0.0
H1215 H 0.99398 0.42756 0.25045 0.0
H1216 H 0.9752 0.4331 0.20773 0.0
H1217 H 0.97292 0.43288 0.5952 0.0
H1218 H 0.9927 0.4283 0.55567 0.0
H1219 H 0.99558 0.45367 0.54958 0.0
H1220 H 0.04561 0.4329 0.40563 0.0
H1221 H 0.05222 0.49381 0.40905 0.0
H1222 H 0.99385 0.40472 0.35192 0.0
H1223 H 0.99305 0.40466 0.45355 0.0
H1224 H 0.01325 0.40228 0.40547 0.0
H1225 H 0.00175 0.47931 0.35247 0.0
H1226 H 0.02346 0.49907 0.40578 0.0
H1227 H 0.00083 0.47898 0.45399 0.0
C1228 C 0.58052 0.02574 0.46278 0.0
C1229 C 0.60231 0.03579 0.46728 0.0
C1230 C 0.56866 0.00421 0.44979 0.0
C1231 C 0.57888 0.99253 0.44059 0.0
C1232 C 0.6008 0.00247 0.44728 0.0
C1233 C 0.61223 0.02395 0.46097 0.0
C1234 C 0.54528 0.99406 0.4437 0.0
C1235 C 0.61224 0.99052 0.43792 0.0
C1236 C 0.54888 0.93367 0.45891 0.0
C1237 C 0.54536 0.92747 0.38243 0.0
C1238 C 0.55943 0.95482 0.47885 0.0
C1239 C 0.56678 0.97008 0.42081 0.0
C1240 C 0.56316 0.96389 0.3435 0.0
C1241 C 0.55239 0.94263 0.32523 0.0
C1242 C 0.56281 0.96085 0.56189 0.0
C1243 C 0.57098 0.97974 0.28004 0.0
H1244 H 0.57277 0.03481 0.46704 0.0
H1245 H 0.62903 0.03154 0.46604 0.0
H1246 H 0.54027 0.98816 0.38502 0.0
H1247 H 0.53765 0.9805 0.48258 0.0
H1248 H 0.53964 0.00503 0.45757 0.0
H1249 H 0.62927 0.00047 0.44719 0.0
H1250 H 0.60611 0.97733 0.47856 0.0
H1251 H 0.60962 0.98384 0.37977 0.0
H1252 H 0.54322 0.92194 0.5032 0.0
H1253 H 0.54986 0.93786 0.26607 0.0
H1254 H 0.55629 0.97108 0.57531 0.0
H1255 H 0.57974 0.96983 0.5744 0.0
H1256 H 0.55549 0.94707 0.60004 0.0
H1257 H 0.56469 0.99044 0.28673 0.0
H1258 H 0.56652 0.97235 0.22296 0.0
H1259 H 0.58821 0.98934 0.28279 0.0
C1260 C 0.59588 0.56496 0.74354 0.0
C1261 C 0.59106 0.54712 0.70042 0.0
C1262 C 0.58334 0.57416 0.74065 0.0
C1263 C 0.56606 0.56595 0.69084 0.0
C1264 C 0.56106 0.54806 0.64689 0.0
C1265 C 0.57332 0.5386 0.65348 0.0
C1266 C 0.58881 0.59287 0.79018 0.0
C1267 C 0.54311 0.53924 0.59138 0.0
C1268 C 0.52438 0.58076 0.71988 0.0
C1269 C 0.53133 0.59816 0.6719 0.0
C1270 C 0.53559 0.57022 0.72711 0.0
C1271 C 0.55371 0.5766 0.68283 0.0
C1272 C 0.56045 0.59361 0.63233 0.0
C1273 C 0.54948 0.60445 0.62876 0.0
C1274 C 0.52831 0.55255 0.78341 0.0
C1275 C 0.5794 0.60052 0.58253 0.0
H1276 H 0.60971 0.57214 0.77869 0.0
H1277 H 0.56901 0.52458 0.62118 0.0
H1278 H 0.59399 0.60688 0.75414 0.0
H1279 H 0.5749 0.5905 0.82229 0.0
H1280 H 0.60142 0.59601 0.83137 0.0
H1281 H 0.54142 0.52538 0.56069 0.0
H1282 H 0.52833 0.53478 0.62157 0.0
H1283 H 0.54544 0.5513 0.54893 0.0
H1284 H 0.51017 0.57532 0.75226 0.0
H1285 H 0.55546 0.6181 0.59283 0.0
H1286 H 0.54085 0.55603 0.82524 0.0
H1287 H 0.52488 0.53798 0.7537 0.0
H1288 H 0.51414 0.54979 0.81478 0.0
H1289 H 0.59358 0.60678 0.61833 0.0
H1290 H 0.58143 0.61275 0.54128 0.0
H1291 H 0.57817 0.58705 0.55046 0.0
C1292 C 0.03447 0.59447 0.92604 0.0
C1293 C 0.04724 0.586 0.94193 0.0
C1294 C 0.01319 0.58159 0.91145 0.0
C1295 C 0.00444 0.5597 0.9134 0.0
C1296 C 0.01718 0.55102 0.93054 0.0
C1297 C 0.03851 0.56431 0.94414 0.0
C1298 C 0.00014 0.59143 0.89272 0.0
C1299 C 0.00829 0.52775 0.93413 0.0
C1300 C 0.94602 0.52976 0.94121 0.0
C1301 C 0.9388 0.52399 0.8663 0.0
C1302 C 0.96735 0.54054 0.95774 0.0
C1303 C 0.98189 0.54603 0.89783 0.0
C1304 C 0.97479 0.53982 0.82239 0.0
C1305 C 0.95331 0.52878 0.80756 0.0
C1306 C 0.97433 0.5468 0.039 0.0
C1307 C 0.98987 0.54549 0.75699 0.0
H1308 H 0.04127 0.61123 0.92277 0.0
H1309 H 0.0484 0.55777 0.95651 0.0
H1310 H 0.99303 0.58627 0.83558 0.0
H1311 H 0.98722 0.5863 0.93423 0.0
H1312 H 0.00938 0.60872 0.89336 0.0
H1313 H 0.02023 0.52351 0.94952 0.0
H1314 H 0.99553 0.52084 0.97664 0.0
H1315 H 0.00146 0.52063 0.87828 0.0
H1316 H 0.93501 0.52653 0.98692 0.0
H1317 H 0.94787 0.52415 0.74974 0.0
H1318 H 0.98196 0.56397 0.04463 0.0
H1319 H 0.98597 0.54224 0.05515 0.0
H1320 H 0.96113 0.53958 0.07978 0.0
H1321 H -0.00126 0.56267 0.75007 0.0
H1322 H 0.98188 0.5384 0.70247 0.0
H1323 H 0.00132 0.54039 0.76898 0.0
C1324 C 0.46693 0.05716 0.9056 0.0
C1325 C 0.47053 0.06324 0.98225 0.0
C1326 C 0.45406 0.03625 0.88516 0.0
C1327 C 0.44457 0.02106 0.94279 0.0
C1328 C 0.44814 0.02707 0.02032 0.0
C1329 C 0.46104 0.04815 0.03916 0.0
C1330 C 0.45047 0.03046 0.80191 0.0
C1331 C 0.43834 0.01125 0.08329 0.0
C1332 C 0.39616 0.96969 0.89609 0.0
C1333 C 0.40434 0.95633 0.8884 0.0
C1334 C 0.40914 0.99089 0.91258 0.0
C1335 C 0.43078 -0.00113 0.92191 0.0
C1336 C 0.43922 0.9856 0.91231 0.0
C1337 C 0.42589 0.96449 0.89549 0.0
C1338 C 0.39961 0.00462 0.92206 0.0
C1339 C 0.46225 0.9936 0.92147 0.0
H1340 H 0.47391 0.06884 0.86137 0.0
H1341 H 0.46387 0.05282 0.0984 0.0
H1342 H 0.45529 0.01884 0.78878 0.0
H1343 H 0.43363 0.02313 0.78851 0.0
H1344 H 0.45919 0.04415 0.76414 0.0
H1345 H 0.44281 0.01845 0.14065 0.0
H1346 H 0.42112 0.00309 0.07825 0.0
H1347 H 0.44309 -0.00072 0.07816 0.0
H1348 H 0.37949 0.96344 0.89199 0.0
H1349 H 0.43231 0.95426 0.88889 0.0
H1350 H 0.40741 0.01832 0.88386 0.0
H1351 H 0.40197 0.01059 0.98124 0.0
H1352 H 0.38265 0.99621 0.90952 0.0
H1353 H 0.47125 0.00679 0.88204 0.0
H1354 H 0.46638 0.98135 0.91032 0.0
H1355 H 0.46718 -0.00043 0.98015 0.0
loop_
_geom_bond_atom_site_label_1
_geom_bond_atom_site_label_2
_geom_bond_distance
_geom_bond_site_symmetry_2
_ccdc_geom_bond_type
C0 C1 1.351 . S
C0 N3 1.368 . S
C0 H5 0.931 . S
C1 C0 1.351 . S
C1 N2 1.373 . S
C1 H29 0.930 . S
N2 C1 1.373 . S
N2 C4 1.340 . S
N3 C0 1.368 . S
N3 C4 1.321 . S
N3 Co6 2.135 1_556 S
C4 N2 1.340 . S
C4 N3 1.321 . S
C4 H28 0.930 . S
H5 C0 0.931 . S
Co6 N3 2.135 1_554 S
Co6 N9 2.121 . S
Co6 O14 2.055 . S
Co6 O17 2.039 . S
Co6 N20 2.140 . S
C7 O8 1.227 . S
C7 O17 1.265 . S
O8 C7 1.227 . S
N9 Co6 2.121 . S
N9 C11 1.375 . S
N9 C12 1.313 . S
C10 C11 1.338 . S
C10 N13 1.377 . S
C10 H30 0.930 . S
C11 N9 1.375 . S
C11 C10 1.338 . S
C11 H15 0.931 . S
C12 N9 1.313 . S
C12 N13 1.344 . S
C12 H16 0.930 . S
N13 C10 1.377 . S
N13 C12 1.344 . S
O14 Co6 2.055 . S
O14 C18 1.253 . S
H15 C11 0.931 . S
H16 C12 0.930 . S
O17 Co6 2.039 . S
O17 C7 1.265 . S
C18 O14 1.253 . S
C18 O19 1.227 . S
O19 C18 1.227 . S
N20 Co6 2.140 . S
N20 C23 1.346 . S
N20 C24 1.345 . S
C21 C22 1.387 . S
C21 C25 1.391 . S
C22 C21 1.387 . S
C22 C23 1.369 . S
C22 H31 0.929 . S
C23 N20 1.346 . S
C23 C22 1.369 . S
C23 H26 0.928 1_554 S
C24 N20 1.345 . S
C24 C25 1.371 . S
C24 H27 0.931 . S
C25 C21 1.391 . S
C25 C24 1.371 . S
C25 H32 0.930 . S
H26 C23 0.928 1_556 S
H27 C24 0.931 . S
H28 C4 0.930 . S
H29 C1 0.930 . S
H30 C10 0.930 . S
H31 C22 0.929 . S
H32 C25 0.930 . S
C33 C34 1.351 . S
C33 N36 1.368 . S
C33 H38 0.931 . S
C34 C33 1.351 . S
C34 N35 1.373 . S
C34 H62 0.930 . S
N35 C34 1.373 . S
N35 C37 1.340 . S
N36 C33 1.368 . S
N36 C37 1.321 . S
N36 Co39 2.135 . S
C37 N35 1.340 . S
C37 N36 1.321 . S
C37 H61 0.930 . S
H38 C33 0.931 . S
Co39 N36 2.135 . S
Co39 N42 2.121 . S
Co39 O47 2.055 . S
Co39 O50 2.039 . S
Co39 N53 2.140 . S
C40 O41 1.227 . S
C40 O50 1.265 . S
O41 C40 1.227 . S
N42 Co39 2.121 . S
N42 C44 1.375 . S
N42 C45 1.313 . S
C43 C44 1.338 . S
C43 N46 1.377 . S
C43 H63 0.930 . S
C44 N42 1.375 . S
C44 C43 1.338 . S
C44 H48 0.931 . S
C45 N42 1.313 . S
C45 N46 1.344 . S
C45 H49 0.930 . S
N46 C43 1.377 . S
N46 C45 1.344 . S
O47 Co39 2.055 . S
O47 C51 1.253 . S
H48 C44 0.931 . S
H49 C45 0.930 . S
O50 Co39 2.039 . S
O50 C40 1.265 . S
C51 O47 1.253 . S
C51 O52 1.227 . S
O52 C51 1.227 . S
N53 Co39 2.140 . S
N53 C56 1.346 . S
N53 C57 1.345 . S
C54 C55 1.387 . S
C54 C58 1.391 . S
C55 C54 1.387 . S
C55 C56 1.369 . S
C55 H64 0.929 . S
C56 N53 1.346 . S
C56 C55 1.369 . S
C56 H59 0.928 . S
C57 N53 1.345 . S
C57 C58 1.371 . S
C57 H60 0.931 . S
C58 C54 1.391 . S
C58 C57 1.371 . S
C58 H65 0.930 . S
H59 C56 0.928 . S
H60 C57 0.931 . S
H61 C37 0.930 . S
H62 C34 0.930 . S
H63 C43 0.930 . S
H64 C55 0.929 . S
H65 C58 0.930 . S
C66 C67 1.351 . S
C66 N69 1.368 . S
C66 H71 0.931 . S
C67 C66 1.351 . S
C67 N68 1.373 . S
C67 H95 0.930 . S
N68 C67 1.373 . S
N68 C70 1.340 . S
N69 C66 1.368 . S
N69 C70 1.321 . S
N69 Co72 2.135 . S
C70 N68 1.340 . S
C70 N69 1.321 . S
C70 H94 0.930 . S
H71 C66 0.931 . S
Co72 N69 2.135 . S
Co72 N75 2.121 . S
Co72 O80 2.055 . S
Co72 O83 2.039 . S
Co72 N86 2.140 . S
C73 O74 1.227 . S
C73 O83 1.265 . S
O74 C73 1.227 . S
N75 Co72 2.121 . S
N75 C77 1.375 . S
N75 C78 1.313 . S
C76 C77 1.338 . S
C76 N79 1.377 . S
C76 H96 0.930 . S
C77 N75 1.375 . S
C77 C76 1.338 . S
C77 H81 0.931 . S
C78 N75 1.313 . S
C78 N79 1.344 . S
C78 H82 0.930 . S
N79 C76 1.377 . S
N79 C78 1.344 . S
O80 Co72 2.055 . S
O80 C84 1.253 . S
H81 C77 0.931 . S
H82 C78 0.930 . S
O83 Co72 2.039 . S
O83 C73 1.265 . S
C84 O80 1.253 . S
C84 O85 1.227 . S
O85 C84 1.227 . S
N86 Co72 2.140 . S
N86 C89 1.346 . S
N86 C90 1.345 . S
C87 C88 1.387 . S
C87 C91 1.391 . S
C88 C87 1.387 . S
C88 C89 1.369 . S
C88 H97 0.929 . S
C89 N86 1.346 . S
C89 C88 1.369 . S
C89 H92 0.928 . S
C90 N86 1.345 . S
C90 C91 1.371 . S
C90 H93 0.931 . S
C91 C87 1.391 . S
C91 C90 1.371 . S
C91 H98 0.930 . S
H92 C89 0.928 . S
H93 C90 0.931 . S
H94 C70 0.930 . S
H95 C67 0.930 . S
H96 C76 0.930 . S
H97 C88 0.929 . S
H98 C91 0.930 . S
C99 C100 1.351 . S
C99 N102 1.368 . S
C99 H104 0.931 . S
C100 C99 1.351 . S
C100 N101 1.373 . S
C100 H128 0.930 . S
N101 C100 1.373 . S
N101 C103 1.340 . S
N102 C99 1.368 . S
N102 C103 1.321 . S
N102 Co105 2.135 . S
C103 N101 1.340 . S
C103 N102 1.321 . S
C103 H127 0.930 . S
H104 C99 0.931 . S
Co105 N102 2.135 . S
Co105 N108 2.121 . S
Co105 O113 2.055 . S
Co105 O116 2.039 . S
Co105 N119 2.140 . S
C106 O107 1.227 . S
C106 O116 1.265 . S
O107 C106 1.227 . S
N108 Co105 2.121 . S
N108 C110 1.375 . S
N108 C111 1.313 . S
C109 C110 1.338 . S
C109 N112 1.377 . S
C109 H129 0.930 . S
C110 N108 1.375 . S
C110 C109 1.338 . S
C110 H114 0.931 . S
C111 N108 1.313 . S
C111 N112 1.344 . S
C111 H115 0.930 . S
N112 C109 1.377 . S
N112 C111 1.344 . S
O113 Co105 2.055 . S
O113 C117 1.253 . S
H114 C110 0.931 . S
H115 C111 0.930 . S
O116 Co105 2.039 . S
O116 C106 1.265 . S
C117 O113 1.253 . S
C117 O118 1.227 . S
O118 C117 1.227 . S
N119 Co105 2.140 . S
N119 C122 1.346 . S
N119 C123 1.345 . S
C120 C121 1.387 . S
C120 C124 1.391 . S
C121 C120 1.387 . S
C121 C122 1.369 . S
C121 H130 0.929 . S
C122 N119 1.346 . S
C122 C121 1.369 . S
C122 H125 0.928 . S
C123 N119 1.345 . S
C123 C124 1.371 . S
C123 H126 0.931 . S
C124 C120 1.391 . S
C124 C123 1.371 . S
C124 H131 0.930 . S
H125 C122 0.928 . S
H126 C123 0.931 . S
H127 C103 0.930 . S
H128 C100 0.930 . S
H129 C109 0.930 . S
H130 C121 0.929 . S
H131 C124 0.930 . S
C132 C133 1.351 . S
C132 N135 1.368 . S
C132 H137 0.931 . S
C133 C132 1.351 . S
C133 N134 1.373 . S
C133 H161 0.930 . S
N134 C133 1.373 . S
N134 C136 1.340 . S
N135 C132 1.368 . S
N135 C136 1.321 . S
N135 Co138 2.135 . S
C136 N134 1.340 . S
C136 N135 1.321 . S
C136 H160 0.930 . S
H137 C132 0.931 . S
Co138 N135 2.135 . S
Co138 N141 2.121 . S
Co138 O146 2.055 . S
Co138 O149 2.039 . S
Co138 N152 2.140 . S
C139 O140 1.227 . S
C139 O149 1.265 . S
O140 C139 1.227 . S
N141 Co138 2.121 . S
N141 C143 1.375 . S
N141 C144 1.313 . S
C142 C143 1.338 . S
C142 N145 1.377 . S
C142 H162 0.930 1_556 S
C143 N141 1.375 . S
C143 C142 1.338 . S
C143 H147 0.931 . S
C144 N141 1.313 . S
C144 N145 1.344 . S
C144 H148 0.930 . S
N145 C142 1.377 . S
N145 C144 1.344 . S
O146 Co138 2.055 . S
O146 C150 1.253 . S
H147 C143 0.931 . S
H148 C144 0.930 . S
O149 Co138 2.039 . S
O149 C139 1.265 . S
C150 O146 1.253 . S
C150 O151 1.227 . S
O151 C150 1.227 . S
N152 Co138 2.140 . S
N152 C155 1.346 . S
N152 C156 1.345 . S
C153 C154 1.387 . S
C153 C157 1.391 . S
C154 C153 1.387 . S
C154 C155 1.369 . S
C154 H163 0.929 . S
C155 N152 1.346 . S
C155 C154 1.369 . S
C155 H158 0.928 . S
C156 N152 1.345 . S
C156 C157 1.371 . S
C156 H159 0.931 . S
C157 C153 1.391 . S
C157 C156 1.371 . S
C157 H164 0.930 . S
H158 C155 0.928 . S
H159 C156 0.931 . S
H160 C136 0.930 . S
H161 C133 0.930 . S
H162 C142 0.930 1_554 S
H163 C154 0.929 . S
H164 C157 0.930 . S
C165 C166 1.351 . S
C165 N168 1.368 . S
C165 H170 0.931 . S
C166 C165 1.351 . S
C166 N167 1.373 . S
C166 H194 0.930 . S
N167 C166 1.373 . S
N167 C169 1.340 . S
N168 C165 1.368 . S
N168 C169 1.321 . S
N168 Co171 2.135 . S
C169 N167 1.340 . S
C169 N168 1.321 . S
C169 H193 0.930 . S
H170 C165 0.931 . S
Co171 N168 2.135 . S
Co171 N174 2.121 1_556 S
Co171 O179 2.055 . S
Co171 O182 2.039 . S
Co171 N185 2.140 . S
C172 O173 1.227 . S
C172 O182 1.265 . S
O173 C172 1.227 . S
N174 Co171 2.121 1_554 S
N174 C176 1.375 . S
N174 C177 1.313 . S
C175 C176 1.338 . S
C175 N178 1.377 . S
C175 H195 0.930 . S
C176 N174 1.375 . S
C176 C175 1.338 . S
C176 H180 0.931 . S
C177 N174 1.313 . S
C177 N178 1.344 . S
C177 H181 0.930 . S
N178 C175 1.377 . S
N178 C177 1.344 . S
O179 Co171 2.055 . S
O179 C183 1.253 . S
H180 C176 0.931 . S
H181 C177 0.930 . S
O182 Co171 2.039 . S
O182 C172 1.265 . S
C183 O179 1.253 . S
C183 O184 1.227 . S
O184 C183 1.227 . S
N185 Co171 2.140 . S
N185 C188 1.346 . S
N185 C189 1.345 . S
C186 C187 1.387 . S
C186 C190 1.391 . S
C187 C186 1.387 . S
C187 C188 1.369 . S
C187 H196 0.929 . S
C188 N185 1.346 . S
C188 C187 1.369 . S
C188 H191 0.928 . S
C189 N185 1.345 . S
C189 C190 1.371 . S
C189 H192 0.931 1_556 S
C190 C186 1.391 . S
C190 C189 1.371 . S
C190 H197 0.930 1_556 S
H191 C188 0.928 . S
H192 C189 0.931 1_554 S
H193 C169 0.930 . S
H194 C166 0.930 . S
H195 C175 0.930 . S
H196 C187 0.929 . S
H197 C190 0.930 1_554 S
C198 C199 1.351 . S
C198 N201 1.368 . S
C198 H203 0.931 . S
C199 C198 1.351 . S
C199 N200 1.373 . S
C199 H227 0.930 . S
N200 C199 1.373 . S
N200 C202 1.340 . S
N201 C198 1.368 . S
N201 C202 1.321 . S
N201 Co204 2.135 . S
C202 N200 1.340 . S
C202 N201 1.321 . S
C202 H226 0.930 . S
H203 C198 0.931 . S
Co204 N201 2.135 . S
Co204 N207 2.121 . S
Co204 O212 2.055 . S
Co204 O215 2.039 . S
Co204 N218 2.140 . S
C205 O206 1.227 . S
C205 O215 1.265 . S
O206 C205 1.227 . S
N207 Co204 2.121 . S
N207 C209 1.375 . S
N207 C210 1.313 . S
C208 C209 1.338 . S
C208 N211 1.377 . S
C208 H228 0.930 . S
C209 N207 1.375 . S
C209 C208 1.338 . S
C209 H213 0.931 . S
C210 N207 1.313 . S
C210 N211 1.344 . S
C210 H214 0.930 . S
N211 C208 1.377 . S
N211 C210 1.344 . S
O212 Co204 2.055 . S
O212 C216 1.253 . S
H213 C209 0.931 . S
H214 C210 0.930 . S
O215 Co204 2.039 . S
O215 C205 1.265 . S
C216 O212 1.253 . S
C216 O217 1.227 . S
O217 C216 1.227 . S
N218 Co204 2.140 . S
N218 C221 1.346 . S
N218 C222 1.345 . S
C219 C220 1.387 . S
C219 C223 1.391 . S
C220 C219 1.387 . S
C220 C221 1.369 . S
C220 H229 0.929 . S
C221 N218 1.346 . S
C221 C220 1.369 . S
C221 H224 0.928 . S
C222 N218 1.345 . S
C222 C223 1.371 . S
C222 H225 0.931 . S
C223 C219 1.391 . S
C223 C222 1.371 . S
C223 H230 0.930 . S
H224 C221 0.928 . S
H225 C222 0.931 . S
H226 C202 0.930 . S
H227 C199 0.930 . S
H228 C208 0.930 . S
H229 C220 0.929 . S
H230 C223 0.930 . S
C231 C232 1.351 . S
C231 N234 1.368 . S
C231 H236 0.931 . S
C232 C231 1.351 . S
C232 N233 1.373 . S
C232 H260 0.930 . S
N233 C232 1.373 . S
N233 C235 1.340 . S
N234 C231 1.368 . S
N234 C235 1.321 . S
N234 Co237 2.135 1_554 S
C235 N233 1.340 . S
C235 N234 1.321 . S
C235 H259 0.930 . S
H236 C231 0.931 . S
Co237 N234 2.135 1_556 S
Co237 N240 2.121 . S
Co237 O245 2.055 . S
Co237 O248 2.039 . S
Co237 N251 2.140 . S
C238 O239 1.227 . S
C238 O248 1.265 . S
O239 C238 1.227 . S
N240 Co237 2.121 . S
N240 C242 1.375 . S
N240 C243 1.313 . S
C241 C242 1.338 . S
C241 N244 1.377 . S
C241 H261 0.930 . S
C242 N240 1.375 . S
C242 C241 1.338 . S
C242 H246 0.931 . S
C243 N240 1.313 . S
C243 N244 1.344 . S
C243 H247 0.930 . S
N244 C241 1.377 . S
N244 C243 1.344 . S
O245 Co237 2.055 . S
O245 C249 1.253 . S
H246 C242 0.931 . S
H247 C243 0.930 . S
O248 Co237 2.039 . S
O248 C238 1.265 . S
C249 O245 1.253 . S
C249 O250 1.227 . S
O250 C249 1.227 . S
N251 Co237 2.140 . S
N251 C254 1.346 . S
N251 C255 1.345 . S
C252 C253 1.387 . S
C252 C256 1.391 . S
C253 C252 1.387 . S
C253 C254 1.369 . S
C253 H262 0.929 . S
C254 N251 1.346 . S
C254 C253 1.369 . S
C254 H257 0.928 1_556 S
C255 N251 1.345 . S
C255 C256 1.371 . S
C255 H258 0.931 . S
C256 C252 1.391 . S
C256 C255 1.371 . S
C256 H263 0.930 . S
H257 C254 0.928 1_554 S
H258 C255 0.931 . S
H259 C235 0.930 . S
H260 C232 0.930 . S
H261 C241 0.930 . S
H262 C253 0.929 . S
H263 C256 0.930 . S
C264 C265 1.351 . S
C264 N267 1.368 . S
C264 H269 0.931 . S
C265 C264 1.351 . S
C265 N266 1.373 . S
C265 H293 0.930 . S
N266 C265 1.373 . S
N266 C268 1.340 . S
N267 C264 1.368 . S
N267 C268 1.321 . S
N267 Co270 2.135 . S
C268 N266 1.340 . S
C268 N267 1.321 . S
C268 H292 0.930 . S
H269 C264 0.931 . S
Co270 N267 2.135 . S
Co270 N273 2.121 1_554 S
Co270 O278 2.055 . S
Co270 O281 2.039 . S
Co270 N284 2.140 . S
C271 O272 1.227 . S
C271 O281 1.265 . S
O272 C271 1.227 . S
N273 Co270 2.121 1_556 S
N273 C275 1.375 . S
N273 C276 1.313 . S
C274 C275 1.338 . S
C274 N277 1.377 . S
C274 H294 0.930 . S
C275 N273 1.375 . S
C275 C274 1.338 . S
C275 H279 0.931 . S
C276 N273 1.313 . S
C276 N277 1.344 . S
C276 H280 0.930 . S
N277 C274 1.377 . S
N277 C276 1.344 . S
O278 Co270 2.055 . S
O278 C282 1.253 . S
H279 C275 0.931 . S
H280 C276 0.930 . S
O281 Co270 2.039 . S
O281 C271 1.265 . S
C282 O278 1.253 . S
C282 O283 1.227 . S
O283 C282 1.227 . S
N284 Co270 2.140 . S
N284 C287 1.346 . S
N284 C288 1.345 . S
C285 C286 1.387 . S
C285 C289 1.391 . S
C286 C285 1.387 . S
C286 C287 1.369 . S
C286 H295 0.929 . S
C287 N284 1.346 . S
C287 C286 1.369 . S
C287 H290 0.928 . S
C288 N284 1.345 . S
C288 C289 1.371 . S
C288 H291 0.931 1_554 S
C289 C285 1.391 . S
C289 C288 1.371 . S
C289 H296 0.930 1_554 S
H290 C287 0.928 . S
H291 C288 0.931 1_556 S
H292 C268 0.930 . S
H293 C265 0.930 . S
H294 C274 0.930 . S
H295 C286 0.929 . S
H296 C289 0.930 1_556 S
C297 C298 1.351 . S
C297 N300 1.368 . S
C297 H302 0.931 . S
C298 C297 1.351 . S
C298 N299 1.373 . S
C298 H326 0.930 . S
N299 C298 1.373 . S
N299 C301 1.340 . S
N300 C297 1.368 . S
N300 C301 1.321 . S
N300 Co303 2.135 . S
C301 N299 1.340 . S
C301 N300 1.321 . S
C301 H325 0.930 . S
H302 C297 0.931 . S
Co303 N300 2.135 . S
Co303 N306 2.121 . S
Co303 O311 2.055 . S
Co303 O314 2.039 . S
Co303 N317 2.140 . S
C304 O305 1.227 . S
C304 O314 1.265 . S
O305 C304 1.227 . S
N306 Co303 2.121 . S
N306 C308 1.375 . S
N306 C309 1.313 . S
C307 C308 1.338 . S
C307 N310 1.377 . S
C307 H327 0.930 1_554 S
C308 N306 1.375 . S
C308 C307 1.338 . S
C308 H312 0.931 . S
C309 N306 1.313 . S
C309 N310 1.344 . S
C309 H313 0.930 . S
N310 C307 1.377 . S
N310 C309 1.344 . S
O311 Co303 2.055 . S
O311 C315 1.253 . S
H312 C308 0.931 . S
H313 C309 0.930 . S
O314 Co303 2.039 . S
O314 C304 1.265 . S
C315 O311 1.253 . S
C315 O316 1.227 . S
O316 C315 1.227 . S
N317 Co303 2.140 . S
N317 C320 1.346 . S
N317 C321 1.345 . S
C318 C319 1.387 . S
C318 C322 1.391 . S
C319 C318 1.387 . S
C319 C320 1.369 . S
C319 H328 0.929 . S
C320 N317 1.346 . S
C320 C319 1.369 . S
C320 H323 0.928 . S
C321 N317 1.345 . S
C321 C322 1.371 . S
C321 H324 0.931 . S
C322 C318 1.391 . S
C322 C321 1.371 . S
C322 H329 0.930 . S
H323 C320 0.928 . S
H324 C321 0.931 . S
H325 C301 0.930 . S
H326 C298 0.930 . S
H327 C307 0.930 1_556 S
H328 C319 0.929 . S
H329 C322 0.930 . S
C330 C331 1.351 . S
C330 N333 1.368 . S
C330 H335 0.931 . S
C331 C330 1.351 . S
C331 N332 1.373 . S
C331 H359 0.930 . S
N332 C331 1.373 . S
N332 C334 1.340 . S
N333 C330 1.368 . S
N333 C334 1.321 . S
N333 Co336 2.135 . S
C334 N332 1.340 . S
C334 N333 1.321 . S
C334 H358 0.930 . S
H335 C330 0.931 . S
Co336 N333 2.135 . S
Co336 N339 2.121 . S
Co336 O344 2.055 . S
Co336 O347 2.039 . S
Co336 N350 2.140 . S
C337 O338 1.227 . S
C337 O347 1.265 . S
O338 C337 1.227 . S
N339 Co336 2.121 . S
N339 C341 1.375 . S
N339 C342 1.313 . S
C340 C341 1.338 . S
C340 N343 1.377 . S
C340 H360 0.930 . S
C341 N339 1.375 . S
C341 C340 1.338 . S
C341 H345 0.931 . S
C342 N339 1.313 . S
C342 N343 1.344 . S
C342 H346 0.930 . S
N343 C340 1.377 . S
N343 C342 1.344 . S
O344 Co336 2.055 . S
O344 C348 1.253 . S
H345 C341 0.931 . S
H346 C342 0.930 . S
O347 Co336 2.039 . S
O347 C337 1.265 . S
C348 O344 1.253 . S
C348 O349 1.227 . S
O349 C348 1.227 . S
N350 Co336 2.140 . S
N350 C353 1.346 . S
N350 C354 1.345 . S
C351 C352 1.387 . S
C351 C355 1.391 . S
C352 C351 1.387 . S
C352 C353 1.369 . S
C352 H361 0.929 . S
C353 N350 1.346 . S
C353 C352 1.369 . S
C353 H356 0.928 . S
C354 N350 1.345 . S
C354 C355 1.371 . S
C354 H357 0.931 . S
C355 C351 1.391 . S
C355 C354 1.371 . S
C355 H362 0.930 . S
H356 C353 0.928 . S
H357 C354 0.931 . S
H358 C334 0.930 . S
H359 C331 0.930 . S
H360 C340 0.930 . S
H361 C352 0.929 . S
H362 C355 0.930 . S
C363 C364 1.351 . S
C363 N366 1.368 . S
C363 H368 0.931 . S
C364 C363 1.351 . S
C364 N365 1.373 . S
C364 H392 0.930 . S
N365 C364 1.373 . S
N365 C367 1.340 . S
N366 C363 1.368 . S
N366 C367 1.321 . S
N366 Co369 2.135 . S
C367 N365 1.340 . S
C367 N366 1.321 . S
C367 H391 0.930 . S
H368 C363 0.931 . S
Co369 N366 2.135 . S
Co369 N372 2.121 . S
Co369 O377 2.055 . S
Co369 O380 2.039 . S
Co369 N383 2.140 . S
C370 O371 1.227 . S
C370 O380 1.265 . S
O371 C370 1.227 . S
N372 Co369 2.121 . S
N372 C374 1.375 . S
N372 C375 1.313 . S
C373 C374 1.338 . S
C373 N376 1.377 . S
C373 H393 0.930 . S
C374 N372 1.375 . S
C374 C373 1.338 . S
C374 H378 0.931 . S
C375 N372 1.313 . S
C375 N376 1.344 . S
C375 H379 0.930 . S
N376 C373 1.377 . S
N376 C375 1.344 . S
O377 Co369 2.055 . S
O377 C381 1.253 . S
H378 C374 0.931 . S
H379 C375 0.930 . S
O380 Co369 2.039 . S
O380 C370 1.265 . S
C381 O377 1.253 . S
C381 O382 1.227 . S
O382 C381 1.227 . S
N383 Co369 2.140 . S
N383 C386 1.346 . S
N383 C387 1.345 . S
C384 C385 1.387 . S
C384 C388 1.391 . S
C385 C384 1.387 . S
C385 C386 1.369 . S
C385 H394 0.929 . S
C386 N383 1.346 . S
C386 C385 1.369 . S
C386 H389 0.928 . S
C387 N383 1.345 . S
C387 C388 1.371 . S
C387 H390 0.931 . S
C388 C384 1.391 . S
C388 C387 1.371 . S
C388 H395 0.930 . S
H389 C386 0.928 . S
H390 C387 0.931 . S
H391 C367 0.930 . S
H392 C364 0.930 . S
H393 C373 0.930 . S
H394 C385 0.929 . S
H395 C388 0.930 . S
C396 C397 1.391 . S
C396 C398 1.394 . S
C396 H412 0.931 . S
C397 C396 1.391 . S
C397 C401 1.376 . S
C398 C396 1.394 . S
C398 C399 1.369 . S
C398 C402 1.531 . S
C399 C398 1.369 . S
C399 C400 1.410 . S
C399 C407 1.503 . S
C400 C399 1.410 . S
C400 C401 1.392 . S
C400 C403 1.511 . S
C401 C397 1.376 . S
C401 C400 1.392 . S
C401 H413 0.929 . S
C402 C398 1.531 . S
C402 H414 0.960 . S
C402 H415 0.962 . S
C402 H416 0.960 . S
C403 C400 1.511 . S
C403 H417 0.961 . S
C403 H418 0.961 . S
C403 H419 0.961 . S
C404 C405 1.370 . S
C404 C406 1.363 . S
C404 H420 0.931 . S
C405 C404 1.370 . S
C405 C409 1.408 . S
C406 C404 1.363 . S
C406 C407 1.370 . S
C406 C410 1.524 . S
C407 C399 1.503 . S
C407 C406 1.370 . S
C407 C408 1.403 . S
C408 C407 1.403 . S
C408 C409 1.404 . S
C408 C411 1.539 . S
C409 C405 1.408 . S
C409 C408 1.404 . S
C409 H421 0.930 . S
C410 C406 1.524 . S
C410 H422 0.956 . S
C410 H423 0.961 . S
C410 H424 0.961 . S
C411 C408 1.539 . S
C411 H425 0.958 . S
C411 H426 0.961 . S
C411 H427 0.960 . S
H412 C396 0.931 . S
H413 C401 0.929 . S
H414 C402 0.960 . S
H415 C402 0.962 . S
H416 C402 0.960 . S
H417 C403 0.961 . S
H418 C403 0.961 . S
H419 C403 0.961 . S
H420 C404 0.931 . S
H421 C409 0.930 . S
H422 C410 0.956 . S
H423 C410 0.961 . S
H424 C410 0.961 . S
H425 C411 0.958 . S
H426 C411 0.961 . S
H427 C411 0.960 . S
C428 C429 1.391 . S
C428 C430 1.394 . S
C428 H444 0.931 . S
C429 C428 1.391 . S
C429 C433 1.376 . S
C430 C428 1.394 . S
C430 C431 1.369 . S
C430 C434 1.531 . S
C431 C430 1.369 . S
C431 C432 1.410 . S
C431 C439 1.503 . S
C432 C431 1.410 . S
C432 C433 1.392 . S
C432 C435 1.511 . S
C433 C429 1.376 . S
C433 C432 1.392 . S
C433 H445 0.929 . S
C434 C430 1.531 . S
C434 H446 0.960 . S
C434 H447 0.962 . S
C434 H448 0.960 . S
C435 C432 1.511 . S
C435 H449 0.961 . S
C435 H450 0.961 . S
C435 H451 0.961 . S
C436 C437 1.370 . S
C436 C438 1.363 . S
C436 H452 0.931 . S
C437 C436 1.370 . S
C437 C441 1.408 . S
C438 C436 1.363 . S
C438 C439 1.370 . S
C438 C442 1.524 . S
C439 C431 1.503 . S
C439 C438 1.370 . S
C439 C440 1.403 . S
C440 C439 1.403 . S
C440 C441 1.404 . S
C440 C443 1.539 . S
C441 C437 1.408 . S
C441 C440 1.404 . S
C441 H453 0.930 . S
C442 C438 1.524 . S
C442 H454 0.956 . S
C442 H455 0.961 . S
C442 H456 0.961 . S
C443 C440 1.539 . S
C443 H457 0.958 . S
C443 H458 0.961 . S
C443 H459 0.960 . S
H444 C428 0.931 . S
H445 C433 0.929 . S
H446 C434 0.960 . S
H447 C434 0.962 . S
H448 C434 0.960 . S
H449 C435 0.961 . S
H450 C435 0.961 . S
H451 C435 0.961 . S
H452 C436 0.931 . S
H453 C441 0.930 . S
H454 C442 0.956 . S
H455 C442 0.961 . S
H456 C442 0.961 . S
H457 C443 0.958 . S
H458 C443 0.961 . S
H459 C443 0.960 . S
C460 C461 1.391 . S
C460 C462 1.394 . S
C460 H476 0.931 . S
C461 C460 1.391 . S
C461 C465 1.376 . S
C462 C460 1.394 . S
C462 C463 1.369 1_554 S
C462 C466 1.531 1_554 S
C463 C462 1.369 1_556 S
C463 C464 1.410 . S
C463 C471 1.503 . S
C464 C463 1.410 . S
C464 C465 1.392 1_556 S
C464 C467 1.511 . S
C465 C461 1.376 . S
C465 C464 1.392 1_554 S
C465 H477 0.929 . S
C466 C462 1.531 1_556 S
C466 H478 0.960 . S
C466 H479 0.962 . S
C466 H480 0.964 . S
C467 C464 1.511 . S
C467 H481 0.961 . S
C467 H482 0.961 . S
C467 H483 0.961 . S
C468 C469 1.370 . S
C468 C470 1.363 . S
C468 H484 0.931 . S
C469 C468 1.370 . S
C469 C473 1.408 . S
C470 C468 1.363 . S
C470 C471 1.370 . S
C470 C474 1.524 . S
C471 C463 1.503 . S
C471 C470 1.370 . S
C471 C472 1.403 . S
C472 C471 1.403 . S
C472 C473 1.404 . S
C472 C475 1.539 . S
C473 C469 1.408 . S
C473 C472 1.404 . S
C473 H485 0.930 . S
C474 C470 1.524 . S
C474 H486 0.956 . S
C474 H487 0.961 . S
C474 H488 0.961 . S
C475 C472 1.539 . S
C475 H489 0.958 . S
C475 H490 0.961 . S
C475 H491 0.960 . S
H476 C460 0.931 . S
H477 C465 0.929 . S
H478 C466 0.960 . S
H479 C466 0.962 . S
H480 C466 0.964 . S
H481 C467 0.961 . S
H482 C467 0.961 . S
H483 C467 0.961 . S
H484 C468 0.931 . S
H485 C473 0.930 . S
H486 C474 0.956 . S
H487 C474 0.961 . S
H488 C474 0.961 . S
H489 C475 0.958 . S
H490 C475 0.961 . S
H491 C475 0.960 . S
C492 C493 1.391 . S
C492 C494 1.395 . S
C492 H508 0.931 . S
C493 C492 1.391 . S
C493 C497 1.376 . S
C494 C492 1.395 . S
C494 C495 1.368 1_556 S
C494 C498 1.530 1_556 S
C495 C494 1.368 1_554 S
C495 C496 1.410 . S
C495 C503 1.503 . S
C496 C495 1.410 . S
C496 C497 1.392 1_554 S
C496 C499 1.511 . S
C497 C493 1.376 . S
C497 C496 1.392 1_556 S
C497 H509 0.929 . S
C498 C494 1.530 1_554 S
C498 H510 0.960 . S
C498 H511 0.962 . S
C498 H512 0.960 1_554 S
C499 C496 1.511 . S
C499 H513 0.961 . S
C499 H514 0.961 . S
C499 H515 0.961 . S
C500 C501 1.370 . S
C500 C502 1.363 . S
C500 H516 0.931 . S
C501 C500 1.370 . S
C501 C505 1.408 . S
C502 C500 1.363 . S
C502 C503 1.370 . S
C502 C506 1.524 . S
C503 C495 1.503 . S
C503 C502 1.370 . S
C503 C504 1.403 . S
C504 C503 1.403 . S
C504 C505 1.404 . S
C504 C507 1.539 . S
C505 C501 1.408 . S
C505 C504 1.404 . S
C505 H517 0.930 . S
C506 C502 1.524 . S
C506 H518 0.956 . S
C506 H519 0.961 . S
C506 H520 0.961 . S
C507 C504 1.539 . S
C507 H521 0.958 . S
C507 H522 0.961 . S
C507 H523 0.960 . S
H508 C492 0.931 . S
H509 C497 0.929 . S
H510 C498 0.960 . S
H511 C498 0.962 . S
H512 C498 0.960 1_556 S
H513 C499 0.961 . S
H514 C499 0.961 . S
H515 C499 0.961 . S
H516 C500 0.931 . S
H517 C505 0.930 . S
H518 C506 0.956 . S
H519 C506 0.961 . S
H520 C506 0.961 . S
H521 C507 0.958 . S
H522 C507 0.961 . S
H523 C507 0.960 . S
C524 C525 1.391 . S
C524 C526 1.394 . S
C524 H540 0.931 . S
C525 C524 1.391 . S
C525 C529 1.376 . S
C526 C524 1.394 . S
C526 C527 1.369 . S
C526 C530 1.531 . S
C527 C526 1.369 . S
C527 C528 1.410 . S
C527 C535 1.503 . S
C528 C527 1.410 . S
C528 C529 1.392 . S
C528 C531 1.511 . S
C529 C525 1.376 . S
C529 C528 1.392 . S
C529 H541 0.929 . S
C530 C526 1.531 . S
C530 H542 0.960 . S
C530 H543 0.962 . S
C530 H544 0.960 . S
C531 C528 1.511 . S
C531 H545 0.961 . S
C531 H546 0.961 . S
C531 H547 0.961 . S
C532 C533 1.370 . S
C532 C534 1.363 . S
C532 H548 0.931 . S
C533 C532 1.370 . S
C533 C537 1.408 . S
C534 C532 1.363 . S
C534 C535 1.370 . S
C534 C538 1.524 . S
C535 C527 1.503 . S
C535 C534 1.370 . S
C535 C536 1.403 . S
C536 C535 1.403 . S
C536 C537 1.404 . S
C536 C539 1.539 . S
C537 C533 1.408 . S
C537 C536 1.404 . S
C537 H549 0.930 . S
C538 C534 1.524 . S
C538 H550 0.956 . S
C538 H551 0.961 . S
C538 H552 0.961 . S
C539 C536 1.539 . S
C539 H553 0.958 . S
C539 H554 0.961 . S
C539 H555 0.960 . S
H540 C524 0.931 . S
H541 C529 0.929 . S
H542 C530 0.960 . S
H543 C530 0.962 . S
H544 C530 0.960 . S
H545 C531 0.961 . S
H546 C531 0.961 . S
H547 C531 0.961 . S
H548 C532 0.931 . S
H549 C537 0.930 . S
H550 C538 0.956 . S
H551 C538 0.961 . S
H552 C538 0.961 . S
H553 C539 0.958 . S
H554 C539 0.961 . S
H555 C539 0.960 . S
C556 C557 1.391 . S
C556 C558 1.394 . S
C556 H572 0.931 . S
C557 C556 1.391 . S
C557 C561 1.376 . S
C558 C556 1.394 . S
C558 C559 1.369 . S
C558 C562 1.531 . S
C559 C558 1.369 . S
C559 C560 1.410 . S
C559 C567 1.503 . S
C560 C559 1.410 . S
C560 C561 1.392 . S
C560 C563 1.511 . S
C561 C557 1.376 . S
C561 C560 1.392 . S
C561 H573 0.929 . S
C562 C558 1.531 . S
C562 H574 0.960 . S
C562 H575 0.962 . S
C562 H576 0.960 . S
C563 C560 1.511 . S
C563 H577 0.961 . S
C563 H578 0.961 . S
C563 H579 0.961 . S
C564 C565 1.370 . S
C564 C566 1.363 . S
C564 H580 0.931 . S
C565 C564 1.370 . S
C565 C569 1.408 . S
C566 C564 1.363 . S
C566 C567 1.370 . S
C566 C570 1.524 . S
C567 C559 1.503 . S
C567 C566 1.370 . S
C567 C568 1.403 . S
C568 C567 1.403 . S
C568 C569 1.404 . S
C568 C571 1.539 . S
C569 C565 1.408 . S
C569 C568 1.404 . S
C569 H581 0.930 . S
C570 C566 1.524 . S
C570 H582 0.956 . S
C570 H583 0.961 . S
C570 H584 0.961 . S
C571 C568 1.539 . S
C571 H585 0.958 . S
C571 H586 0.961 . S
C571 H587 0.960 . S
H572 C556 0.931 . S
H573 C561 0.929 . S
H574 C562 0.960 . S
H575 C562 0.962 . S
H576 C562 0.960 . S
H577 C563 0.961 . S
H578 C563 0.961 . S
H579 C563 0.961 . S
H580 C564 0.931 . S
H581 C569 0.930 . S
H582 C570 0.956 . S
H583 C570 0.961 . S
H584 C570 0.961 . S
H585 C571 0.958 . S
H586 C571 0.961 . S
H587 C571 0.960 . S
C588 C589 1.391 . S
C588 C590 1.394 . S
C588 H604 0.931 . S
C589 C588 1.391 . S
C589 C593 1.376 . S
C590 C588 1.394 . S
C590 C591 1.369 . S
C590 C594 1.531 . S
C591 C590 1.369 . S
C591 C592 1.410 . S
C591 C599 1.503 . S
C592 C591 1.410 . S
C592 C593 1.392 . S
C592 C595 1.511 . S
C593 C589 1.376 . S
C593 C592 1.392 . S
C593 H605 0.929 . S
C594 C590 1.531 . S
C594 H606 0.960 . S
C594 H607 0.962 . S
C594 H608 0.960 . S
C595 C592 1.511 . S
C595 H609 0.961 . S
C595 H610 0.961 . S
C595 H611 0.961 . S
C596 C597 1.370 . S
C596 C598 1.363 . S
C596 H612 0.931 . S
C597 C596 1.370 . S
C597 C601 1.408 . S
C598 C596 1.363 . S
C598 C599 1.370 . S
C598 C602 1.524 . S
C599 C591 1.503 . S
C599 C598 1.370 . S
C599 C600 1.403 . S
C600 C599 1.403 . S
C600 C601 1.404 . S
C600 C603 1.539 . S
C601 C597 1.408 . S
C601 C600 1.404 . S
C601 H613 0.930 . S
C602 C598 1.524 . S
C602 H614 0.956 . S
C602 H615 0.961 . S
C602 H616 0.961 . S
C603 C600 1.539 . S
C603 H617 0.958 . S
C603 H618 0.961 . S
C603 H619 0.960 . S
H604 C588 0.931 . S
H605 C593 0.929 . S
H606 C594 0.960 . S
H607 C594 0.962 . S
H608 C594 0.960 . S
H609 C595 0.961 . S
H610 C595 0.961 . S
H611 C595 0.961 . S
H612 C596 0.931 . S
H613 C601 0.930 . S
H614 C602 0.956 . S
H615 C602 0.961 . S
H616 C602 0.961 . S
H617 C603 0.958 . S
H618 C603 0.961 . S
H619 C603 0.960 . S
C620 C621 1.391 . S
C620 C622 1.394 . S
C620 H636 0.931 . S
C621 C620 1.391 . S
C621 C625 1.376 . S
C622 C620 1.394 . S
C622 C623 1.369 . S
C622 C626 1.531 . S
C623 C622 1.369 . S
C623 C624 1.410 . S
C623 C631 1.503 . S
C624 C623 1.410 . S
C624 C625 1.392 . S
C624 C627 1.511 . S
C625 C621 1.376 . S
C625 C624 1.392 . S
C625 H637 0.929 . S
C626 C622 1.531 . S
C626 H638 0.960 . S
C626 H639 0.962 . S
C626 H640 0.960 . S
C627 C624 1.511 . S
C627 H641 0.961 . S
C627 H642 0.961 . S
C627 H643 0.961 . S
C628 C629 1.370 . S
C628 C630 1.363 . S
C628 H644 0.931 . S
C629 C628 1.370 . S
C629 C633 1.408 . S
C630 C628 1.363 . S
C630 C631 1.370 . S
C630 C634 1.524 . S
C631 C623 1.503 . S
C631 C630 1.370 . S
C631 C632 1.403 . S
C632 C631 1.403 . S
C632 C633 1.404 . S
C632 C635 1.539 . S
C633 C629 1.408 . S
C633 C632 1.404 . S
C633 H645 0.930 . S
C634 C630 1.524 . S
C634 H646 0.956 . S
C634 H647 0.961 . S
C634 H648 0.961 . S
C635 C632 1.539 . S
C635 H649 0.958 . S
C635 H650 0.961 . S
C635 H651 0.960 . S
H636 C620 0.931 . S
H637 C625 0.929 . S
H638 C626 0.960 . S
H639 C626 0.962 . S
H640 C626 0.960 . S
H641 C627 0.961 . S
H642 C627 0.961 . S
H643 C627 0.961 . S
H644 C628 0.931 . S
H645 C633 0.930 . S
H646 C634 0.956 . S
H647 C634 0.961 . S
H648 C634 0.961 . S
H649 C635 0.958 . S
H650 C635 0.961 . S
H651 C635 0.960 . S
C652 C653 1.391 . S
C652 C654 1.394 . S
C652 H668 0.931 . S
C653 C652 1.391 . S
C653 C657 1.376 . S
C654 C652 1.394 . S
C654 C655 1.369 . S
C654 C658 1.531 . S
C655 C654 1.369 . S
C655 C656 1.410 . S
C655 C663 1.503 . S
C656 C655 1.410 . S
C656 C657 1.392 . S
C656 C659 1.511 . S
C657 C653 1.376 . S
C657 C656 1.392 . S
C657 H669 0.929 . S
C658 C654 1.531 . S
C658 H670 0.960 . S
C658 H671 0.962 . S
C658 H672 0.960 . S
C659 C656 1.511 . S
C659 H673 0.961 . S
C659 H674 0.961 . S
C659 H675 0.961 . S
C660 C661 1.370 . S
C660 C662 1.363 . S
C660 H676 0.931 . S
C661 C660 1.370 . S
C661 C665 1.408 . S
C662 C660 1.363 . S
C662 C663 1.370 . S
C662 C666 1.524 . S
C663 C655 1.503 . S
C663 C662 1.370 . S
C663 C664 1.403 . S
C664 C663 1.403 . S
C664 C665 1.404 . S
C664 C667 1.539 . S
C665 C661 1.408 . S
C665 C664 1.404 . S
C665 H677 0.930 . S
C666 C662 1.524 . S
C666 H678 0.956 . S
C666 H679 0.961 . S
C666 H680 0.961 . S
C667 C664 1.539 . S
C667 H681 0.958 . S
C667 H682 0.961 . S
C667 H683 0.960 . S
H668 C652 0.931 . S
H669 C657 0.929 . S
H670 C658 0.960 . S
H671 C658 0.962 . S
H672 C658 0.960 . S
H673 C659 0.961 . S
H674 C659 0.961 . S
H675 C659 0.961 . S
H676 C660 0.931 . S
H677 C665 0.930 . S
H678 C666 0.956 . S
H679 C666 0.961 . S
H680 C666 0.961 . S
H681 C667 0.958 . S
H682 C667 0.961 . S
H683 C667 0.960 . S
C684 C685 1.391 . S
C684 C686 1.394 . S
C684 H700 0.931 . S
C685 C684 1.391 . S
C685 C689 1.376 . S
C686 C684 1.394 . S
C686 C687 1.369 . S
C686 C690 1.531 . S
C687 C686 1.369 . S
C687 C688 1.410 . S
C687 C695 1.503 . S
C688 C687 1.410 . S
C688 C689 1.392 . S
C688 C691 1.511 . S
C689 C685 1.376 . S
C689 C688 1.392 . S
C689 H701 0.929 . S
C690 C686 1.531 . S
C690 H702 0.960 . S
C690 H703 0.962 . S
C690 H704 0.960 . S
C691 C688 1.511 . S
C691 H705 0.961 . S
C691 H706 0.961 . S
C691 H707 0.961 . S
C692 C693 1.370 . S
C692 C694 1.363 . S
C692 H708 0.931 . S
C693 C692 1.370 . S
C693 C697 1.408 . S
C694 C692 1.363 . S
C694 C695 1.370 . S
C694 C698 1.524 . S
C695 C687 1.503 . S
C695 C694 1.370 . S
C695 C696 1.403 . S
C696 C695 1.403 . S
C696 C697 1.404 . S
C696 C699 1.539 . S
C697 C693 1.408 . S
C697 C696 1.404 . S
C697 H709 0.930 . S
C698 C694 1.524 . S
C698 H710 0.956 . S
C698 H711 0.961 . S
C698 H712 0.961 . S
C699 C696 1.539 . S
C699 H713 0.958 . S
C699 H714 0.961 . S
C699 H715 0.960 . S
H700 C684 0.931 . S
H701 C689 0.929 . S
H702 C690 0.960 . S
H703 C690 0.962 . S
H704 C690 0.960 . S
H705 C691 0.961 . S
H706 C691 0.961 . S
H707 C691 0.961 . S
H708 C692 0.931 . S
H709 C697 0.930 . S
H710 C698 0.956 . S
H711 C698 0.961 . S
H712 C698 0.961 . S
H713 C699 0.958 . S
H714 C699 0.961 . S
H715 C699 0.960 . S
C716 C717 1.391 . S
C716 C718 1.394 1_554 S
C716 H732 0.931 . S
C717 C716 1.391 . S
C717 C721 1.376 . S
C718 C716 1.394 1_556 S
C718 C719 1.369 . S
C718 C722 1.531 . S
C719 C718 1.369 . S
C719 C720 1.410 . S
C719 C727 1.503 . S
C720 C719 1.410 . S
C720 C721 1.392 1_556 S
C720 C723 1.511 . S
C721 C717 1.376 . S
C721 C720 1.392 1_554 S
C721 H733 0.929 . S
C722 C718 1.531 . S
C722 H734 0.960 . S
C722 H735 0.962 . S
C722 H736 0.960 . S
C723 C720 1.511 . S
C723 H737 0.961 1_556 S
C723 H738 0.961 . S
C723 H739 0.961 . S
C724 C725 1.370 . S
C724 C726 1.363 . S
C724 H740 0.931 . S
C725 C724 1.370 . S
C725 C729 1.408 . S
C726 C724 1.363 . S
C726 C727 1.370 . S
C726 C730 1.524 . S
C727 C719 1.503 . S
C727 C726 1.370 . S
C727 C728 1.403 . S
C728 C727 1.403 . S
C728 C729 1.404 . S
C728 C731 1.539 . S
C729 C725 1.408 . S
C729 C728 1.404 . S
C729 H741 0.930 . S
C730 C726 1.524 . S
C730 H742 0.956 . S
C730 H743 0.961 . S
C730 H744 0.961 . S
C731 C728 1.539 . S
C731 H745 0.958 . S
C731 H746 0.961 . S
C731 H747 0.960 . S
H732 C716 0.931 . S
H733 C721 0.929 . S
H734 C722 0.960 . S
H735 C722 0.962 . S
H736 C722 0.960 . S
H737 C723 0.961 1_554 S
H738 C723 0.961 . S
H739 C723 0.961 . S
H740 C724 0.931 . S
H741 C729 0.930 . S
H742 C730 0.956 . S
H743 C730 0.961 . S
H744 C730 0.961 . S
H745 C731 0.958 . S
H746 C731 0.961 . S
H747 C731 0.960 . S
C748 C749 1.391 . S
C748 C750 1.394 . S
C748 H764 0.931 . S
C749 C748 1.391 . S
C749 C753 1.376 . S
C750 C748 1.394 . S
C750 C751 1.369 1_556 S
C750 C754 1.531 1_556 S
C751 C750 1.369 1_554 S
C751 C752 1.410 . S
C751 C759 1.503 . S
C752 C751 1.410 . S
C752 C753 1.392 1_554 S
C752 C755 1.511 . S
C753 C749 1.376 . S
C753 C752 1.392 1_556 S
C753 H765 0.929 . S
C754 C750 1.531 1_554 S
C754 H766 0.960 . S
C754 H767 0.962 . S
C754 H768 0.960 1_554 S
C755 C752 1.511 . S
C755 H769 0.961 . S
C755 H770 0.961 . S
C755 H771 0.961 . S
C756 C757 1.370 . S
C756 C758 1.363 . S
C756 H772 0.931 . S
C757 C756 1.370 . S
C757 C761 1.408 . S
C758 C756 1.363 . S
C758 C759 1.370 . S
C758 C762 1.524 . S
C759 C751 1.503 . S
C759 C758 1.370 . S
C759 C760 1.403 . S
C760 C759 1.403 . S
C760 C761 1.404 . S
C760 C763 1.539 . S
C761 C757 1.408 . S
C761 C760 1.404 . S
C761 H773 0.930 . S
C762 C758 1.524 . S
C762 H774 0.956 . S
C762 H775 0.961 . S
C762 H776 0.961 . S
C763 C760 1.539 . S
C763 H777 0.958 . S
C763 H778 0.961 . S
C763 H779 0.960 . S
H764 C748 0.931 . S
H765 C753 0.929 . S
H766 C754 0.960 . S
H767 C754 0.962 . S
H768 C754 0.960 1_556 S
H769 C755 0.961 . S
H770 C755 0.961 . S
H771 C755 0.961 . S
H772 C756 0.931 . S
H773 C761 0.930 . S
H774 C762 0.956 . S
H775 C762 0.961 . S
H776 C762 0.961 . S
H777 C763 0.958 . S
H778 C763 0.961 . S
H779 C763 0.960 . S
C780 C781 1.391 . S
C780 C782 1.394 . S
C780 H796 0.931 . S
C781 C780 1.391 . S
C781 C785 1.376 . S
C782 C780 1.394 . S
C782 C783 1.369 . S
C782 C786 1.531 . S
C783 C782 1.369 . S
C783 C784 1.410 . S
C783 C791 1.503 . S
C784 C783 1.410 . S
C784 C785 1.392 . S
C784 C787 1.511 . S
C785 C781 1.376 . S
C785 C784 1.392 . S
C785 H797 0.929 . S
C786 C782 1.531 . S
C786 H798 0.960 . S
C786 H799 0.962 . S
C786 H800 0.960 . S
C787 C784 1.511 . S
C787 H801 0.961 . S
C787 H802 0.961 . S
C787 H803 0.961 . S
C788 C789 1.370 . S
C788 C790 1.363 1_554 S
C788 H804 0.931 . S
C789 C788 1.370 . S
C789 C793 1.408 1_554 S
C790 C788 1.363 1_556 S
C790 C791 1.370 . S
C790 C794 1.524 1_556 S
C791 C783 1.503 . S
C791 C790 1.370 . S
C791 C792 1.403 . S
C792 C791 1.403 . S
C792 C793 1.404 . S
C792 C795 1.539 . S
C793 C789 1.408 1_556 S
C793 C792 1.404 . S
C793 H805 0.930 . S
C794 C790 1.524 1_554 S
C794 H806 0.956 . S
C794 H807 0.961 . S
C794 H808 0.961 . S
C795 C792 1.539 . S
C795 H809 0.958 . S
C795 H810 0.961 . S
C795 H811 0.960 . S
H796 C780 0.931 . S
H797 C785 0.929 . S
H798 C786 0.960 . S
H799 C786 0.962 . S
H800 C786 0.960 . S
H801 C787 0.961 . S
H802 C787 0.961 . S
H803 C787 0.961 . S
H804 C788 0.931 . S
H805 C793 0.930 . S
H806 C794 0.956 . S
H807 C794 0.961 . S
H808 C794 0.961 . S
H809 C795 0.958 . S
H810 C795 0.961 . S
H811 C795 0.960 . S
C812 C813 1.391 . S
C812 C814 1.394 . S
C812 H828 0.931 . S
C813 C812 1.391 . S
C813 C817 1.376 . S
C814 C812 1.394 . S
C814 C815 1.369 . S
C814 C818 1.531 . S
C815 C814 1.369 . S
C815 C816 1.410 . S
C815 C823 1.503 . S
C816 C815 1.410 . S
C816 C817 1.392 . S
C816 C819 1.511 . S
C817 C813 1.376 . S
C817 C816 1.392 . S
C817 H829 0.929 . S
C818 C814 1.531 . S
C818 H830 0.960 . S
C818 H831 0.962 . S
C818 H832 0.960 . S
C819 C816 1.511 . S
C819 H833 0.961 1_554 S
C819 H834 0.961 1_554 S
C819 H835 0.961 . S
C820 C821 1.370 . S
C820 C822 1.363 1_556 S
C820 H836 0.931 . S
C821 C820 1.370 . S
C821 C825 1.408 1_556 S
C822 C820 1.363 1_554 S
C822 C823 1.370 . S
C822 C826 1.524 . S
C823 C815 1.503 . S
C823 C822 1.370 . S
C823 C824 1.403 . S
C824 C823 1.403 . S
C824 C825 1.404 . S
C824 C827 1.539 . S
C825 C821 1.408 1_554 S
C825 C824 1.404 . S
C825 H837 0.930 . S
C826 C822 1.524 . S
C826 H838 0.956 . S
C826 H839 0.961 1_554 S
C826 H840 0.961 1_554 S
C827 C824 1.539 . S
C827 H841 0.958 . S
C827 H842 0.961 . S
C827 H843 0.960 . S
H828 C812 0.931 . S
H829 C817 0.929 . S
H830 C818 0.960 . S
H831 C818 0.962 . S
H832 C818 0.960 . S
H833 C819 0.961 1_556 S
H834 C819 0.961 1_556 S
H835 C819 0.961 . S
H836 C820 0.931 . S
H837 C825 0.930 . S
H838 C826 0.956 . S
H839 C826 0.961 1_556 S
H840 C826 0.961 1_556 S
H841 C827 0.958 . S
H842 C827 0.961 . S
H843 C827 0.960 . S
C844 C845 1.391 . S
C844 C846 1.394 . S
C844 H860 0.931 . S
C845 C844 1.391 . S
C845 C849 1.376 . S
C846 C844 1.394 . S
C846 C847 1.369 . S
C846 C850 1.531 . S
C847 C846 1.369 . S
C847 C848 1.410 . S
C847 C855 1.503 . S
C848 C847 1.410 . S
C848 C849 1.392 . S
C848 C851 1.511 . S
C849 C845 1.376 . S
C849 C848 1.392 . S
C849 H861 0.929 . S
C850 C846 1.531 . S
C850 H862 0.960 . S
C850 H863 0.962 . S
C850 H864 0.960 . S
C851 C848 1.511 . S
C851 H865 0.961 . S
C851 H866 0.961 . S
C851 H867 0.961 . S
C852 C853 1.370 . S
C852 C854 1.363 . S
C852 H868 0.931 . S
C853 C852 1.370 . S
C853 C857 1.408 . S
C854 C852 1.363 . S
C854 C855 1.370 . S
C854 C858 1.524 . S
C855 C847 1.503 . S
C855 C854 1.370 . S
C855 C856 1.403 . S
C856 C855 1.403 . S
C856 C857 1.404 . S
C856 C859 1.539 . S
C857 C853 1.408 . S
C857 C856 1.404 . S
C857 H869 0.930 . S
C858 C854 1.524 . S
C858 H870 0.956 . S
C858 H871 0.961 . S
C858 H872 0.961 . S
C859 C856 1.539 . S
C859 H873 0.958 . S
C859 H874 0.961 . S
C859 H875 0.960 . S
H860 C844 0.931 . S
H861 C849 0.929 . S
H862 C850 0.960 . S
H863 C850 0.962 . S
H864 C850 0.960 . S
H865 C851 0.961 . S
H866 C851 0.961 . S
H867 C851 0.961 . S
H868 C852 0.931 . S
H869 C857 0.930 . S
H870 C858 0.956 . S
H871 C858 0.961 . S
H872 C858 0.961 . S
H873 C859 0.958 . S
H874 C859 0.961 . S
H875 C859 0.960 . S
C876 C877 1.391 . S
C876 C878 1.394 . S
C876 H892 0.931 . S
C877 C876 1.391 . S
C877 C881 1.376 . S
C878 C876 1.394 . S
C878 C879 1.369 . S
C878 C882 1.531 . S
C879 C878 1.369 . S
C879 C880 1.410 . S
C879 C887 1.503 . S
C880 C879 1.410 . S
C880 C881 1.392 . S
C880 C883 1.511 . S
C881 C877 1.376 . S
C881 C880 1.392 . S
C881 H893 0.929 . S
C882 C878 1.531 . S
C882 H894 0.960 . S
C882 H895 0.962 . S
C882 H896 0.960 . S
C883 C880 1.511 . S
C883 H897 0.961 . S
C883 H898 0.961 . S
C883 H899 0.961 . S
C884 C885 1.370 . S
C884 C886 1.363 . S
C884 H900 0.931 . S
C885 C884 1.370 . S
C885 C889 1.408 . S
C886 C884 1.363 . S
C886 C887 1.370 . S
C886 C890 1.524 . S
C887 C879 1.503 . S
C887 C886 1.370 . S
C887 C888 1.403 . S
C888 C887 1.403 . S
C888 C889 1.404 . S
C888 C891 1.539 . S
C889 C885 1.408 . S
C889 C888 1.404 . S
C889 H901 0.930 . S
C890 C886 1.524 . S
C890 H902 0.956 . S
C890 H903 0.961 . S
C890 H904 0.961 . S
C891 C888 1.539 . S
C891 H905 0.958 . S
C891 H906 0.961 . S
C891 H907 0.960 . S
H892 C876 0.931 . S
H893 C881 0.929 . S
H894 C882 0.960 . S
H895 C882 0.962 . S
H896 C882 0.960 . S
H897 C883 0.961 . S
H898 C883 0.961 . S
H899 C883 0.961 . S
H900 C884 0.931 . S
H901 C889 0.930 . S
H902 C890 0.956 . S
H903 C890 0.961 . S
H904 C890 0.961 . S
H905 C891 0.958 . S
H906 C891 0.961 . S
H907 C891 0.960 . S
C908 C909 1.391 . S
C908 C910 1.394 . S
C908 H924 0.931 . S
C909 C908 1.391 . S
C909 C913 1.376 . S
C910 C908 1.394 . S
C910 C911 1.369 . S
C910 C914 1.531 . S
C911 C910 1.369 . S
C911 C912 1.410 . S
C911 C919 1.503 . S
C912 C911 1.410 . S
C912 C913 1.392 . S
C912 C915 1.511 . S
C913 C909 1.376 . S
C913 C912 1.392 . S
C913 H925 0.929 . S
C914 C910 1.531 . S
C914 H926 0.960 . S
C914 H927 0.962 . S
C914 H928 0.960 . S
C915 C912 1.511 . S
C915 H929 0.961 . S
C915 H930 0.961 . S
C915 H931 0.961 . S
C916 C917 1.370 . S
C916 C918 1.363 . S
C916 H932 0.931 . S
C917 C916 1.370 . S
C917 C921 1.408 . S
C918 C916 1.363 . S
C918 C919 1.370 . S
C918 C922 1.524 . S
C919 C911 1.503 . S
C919 C918 1.370 . S
C919 C920 1.403 . S
C920 C919 1.403 . S
C920 C921 1.404 . S
C920 C923 1.539 . S
C921 C917 1.408 . S
C921 C920 1.404 . S
C921 H933 0.930 . S
C922 C918 1.524 . S
C922 H934 0.956 . S
C922 H935 0.961 . S
C922 H936 0.961 . S
C923 C920 1.539 . S
C923 H937 0.958 . S
C923 H938 0.961 . S
C923 H939 0.960 . S
H924 C908 0.931 . S
H925 C913 0.929 . S
H926 C914 0.960 . S
H927 C914 0.962 . S
H928 C914 0.960 . S
H929 C915 0.961 . S
H930 C915 0.961 . S
H931 C915 0.961 . S
H932 C916 0.931 . S
H933 C921 0.930 . S
H934 C922 0.956 . S
H935 C922 0.961 . S
H936 C922 0.961 . S
H937 C923 0.958 . S
H938 C923 0.961 . S
H939 C923 0.960 . S
C940 C941 1.391 . S
C940 C942 1.394 . S
C940 H956 0.931 . S
C941 C940 1.391 . S
C941 C945 1.376 . S
C942 C940 1.394 . S
C942 C943 1.369 . S
C942 C946 1.531 . S
C943 C942 1.369 . S
C943 C944 1.410 . S
C943 C951 1.503 . S
C944 C943 1.410 . S
C944 C945 1.392 . S
C944 C947 1.511 . S
C945 C941 1.376 . S
C945 C944 1.392 . S
C945 H957 0.929 . S
C946 C942 1.531 . S
C946 H958 0.960 . S
C946 H959 0.962 . S
C946 H960 0.960 . S
C947 C944 1.511 . S
C947 H961 0.961 . S
C947 H962 0.961 . S
C947 H963 0.961 . S
C948 C949 1.370 . S
C948 C950 1.363 . S
C948 H964 0.931 . S
C949 C948 1.370 . S
C949 C953 1.408 . S
C950 C948 1.363 . S
C950 C951 1.370 . S
C950 C954 1.524 . S
C951 C943 1.503 . S
C951 C950 1.370 . S
C951 C952 1.403 . S
C952 C951 1.403 . S
C952 C953 1.404 . S
C952 C955 1.539 . S
C953 C949 1.408 . S
C953 C952 1.404 . S
C953 H965 0.930 . S
C954 C950 1.524 . S
C954 H966 0.956 . S
C954 H967 0.961 . S
C954 H968 0.961 . S
C955 C952 1.539 . S
C955 H969 0.958 . S
C955 H970 0.961 . S
C955 H971 0.960 . S
H956 C940 0.931 . S
H957 C945 0.929 . S
H958 C946 0.960 . S
H959 C946 0.962 . S
H960 C946 0.960 . S
H961 C947 0.961 . S
H962 C947 0.961 . S
H963 C947 0.961 . S
H964 C948 0.931 . S
H965 C953 0.930 . S
H966 C954 0.956 . S
H967 C954 0.961 . S
H968 C954 0.961 . S
H969 C955 0.958 . S
H970 C955 0.961 . S
H971 C955 0.960 . S
C972 C973 1.391 . S
C972 C974 1.394 . S
C972 H988 0.931 . S
C973 C972 1.391 . S
C973 C977 1.376 . S
C974 C972 1.394 . S
C974 C975 1.369 . S
C974 C978 1.531 . S
C975 C974 1.369 . S
C975 C976 1.410 . S
C975 C983 1.503 . S
C976 C975 1.410 . S
C976 C977 1.392 . S
C976 C979 1.511 . S
C977 C973 1.376 . S
C977 C976 1.392 . S
C977 H989 0.929 . S
C978 C974 1.531 . S
C978 H990 0.960 . S
C978 H991 0.962 . S
C978 H992 0.960 . S
C979 C976 1.511 . S
C979 H993 0.961 . S
C979 H994 0.961 . S
C979 H995 0.961 . S
C980 C981 1.370 . S
C980 C982 1.363 . S
C980 H996 0.931 . S
C981 C980 1.370 . S
C981 C985 1.408 . S
C982 C980 1.363 . S
C982 C983 1.370 . S
C982 C986 1.524 . S
C983 C975 1.503 . S
C983 C982 1.370 . S
C983 C984 1.403 . S
C984 C983 1.403 . S
C984 C985 1.404 . S
C984 C987 1.539 . S
C985 C981 1.408 . S
C985 C984 1.404 . S
C985 H997 0.930 . S
C986 C982 1.524 . S
C986 H998 0.956 . S
C986 H999 0.961 . S
C986 H1000 0.961 . S
C987 C984 1.539 . S
C987 H1001 0.958 . S
C987 H1002 0.961 . S
C987 H1003 0.960 . S
H988 C972 0.931 . S
H989 C977 0.929 . S
H990 C978 0.960 . S
H991 C978 0.962 . S
H992 C978 0.960 . S
H993 C979 0.961 . S
H994 C979 0.961 . S
H995 C979 0.961 . S
H996 C980 0.931 . S
H997 C985 0.930 . S
H998 C986 0.956 . S
H999 C986 0.961 . S
H1000 C986 0.961 . S
H1001 C987 0.958 . S
H1002 C987 0.961 . S
H1003 C987 0.960 . S
C1004 C1005 1.391 . S
C1004 C1006 1.394 . S
C1004 H1020 0.931 . S
C1005 C1004 1.391 . S
C1005 C1009 1.376 . S
C1006 C1004 1.394 . S
C1006 C1007 1.369 . S
C1006 C1010 1.531 . S
C1007 C1006 1.369 . S
C1007 C1008 1.410 . S
C1007 C1015 1.503 . S
C1008 C1007 1.410 . S
C1008 C1009 1.392 . S
C1008 C1011 1.511 . S
C1009 C1005 1.376 . S
C1009 C1008 1.392 . S
C1009 H1021 0.929 . S
C1010 C1006 1.531 . S
C1010 H1022 0.960 . S
C1010 H1023 0.962 . S
C1010 H1024 0.960 . S
C1011 C1008 1.511 . S
C1011 H1025 0.961 . S
C1011 H1026 0.961 . S
C1011 H1027 0.961 . S
C1012 C1013 1.370 . S
C1012 C1014 1.363 . S
C1012 H1028 0.931 . S
C1013 C1012 1.370 . S
C1013 C1017 1.408 . S
C1014 C1012 1.363 . S
C1014 C1015 1.370 . S
C1014 C1018 1.524 . S
C1015 C1007 1.503 . S
C1015 C1014 1.370 . S
C1015 C1016 1.403 . S
C1016 C1015 1.403 . S
C1016 C1017 1.404 . S
C1016 C1019 1.539 . S
C1017 C1013 1.408 . S
C1017 C1016 1.404 . S
C1017 H1029 0.930 . S
C1018 C1014 1.524 . S
C1018 H1030 0.956 . S
C1018 H1031 0.961 . S
C1018 H1032 0.961 . S
C1019 C1016 1.539 . S
C1019 H1033 0.958 . S
C1019 H1034 0.961 . S
C1019 H1035 0.960 . S
H1020 C1004 0.931 . S
H1021 C1009 0.929 . S
H1022 C1010 0.960 . S
H1023 C1010 0.962 . S
H1024 C1010 0.960 . S
H1025 C1011 0.961 . S
H1026 C1011 0.961 . S
H1027 C1011 0.961 . S
H1028 C1012 0.931 . S
H1029 C1017 0.930 . S
H1030 C1018 0.956 . S
H1031 C1018 0.961 . S
H1032 C1018 0.961 . S
H1033 C1019 0.958 . S
H1034 C1019 0.961 . S
H1035 C1019 0.960 . S
C1036 C1037 1.391 . S
C1036 C1038 1.394 . S
C1036 H1052 0.931 . S
C1037 C1036 1.391 . S
C1037 C1041 1.376 . S
C1038 C1036 1.394 . S
C1038 C1039 1.369 . S
C1038 C1042 1.531 . S
C1039 C1038 1.369 . S
C1039 C1040 1.410 . S
C1039 C1047 1.503 . S
C1040 C1039 1.410 . S
C1040 C1041 1.392 . S
C1040 C1043 1.511 . S
C1041 C1037 1.376 . S
C1041 C1040 1.392 . S
C1041 H1053 0.929 . S
C1042 C1038 1.531 . S
C1042 H1054 0.960 . S
C1042 H1055 0.962 . S
C1042 H1056 0.960 . S
C1043 C1040 1.511 . S
C1043 H1057 0.961 . S
C1043 H1058 0.961 . S
C1043 H1059 0.961 . S
C1044 C1045 1.370 . S
C1044 C1046 1.363 . S
C1044 H1060 0.931 . S
C1045 C1044 1.370 . S
C1045 C1049 1.408 . S
C1046 C1044 1.363 . S
C1046 C1047 1.370 . S
C1046 C1050 1.524 . S
C1047 C1039 1.503 . S
C1047 C1046 1.370 . S
C1047 C1048 1.403 . S
C1048 C1047 1.403 . S
C1048 C1049 1.404 . S
C1048 C1051 1.539 . S
C1049 C1045 1.408 . S
C1049 C1048 1.404 . S
C1049 H1061 0.930 . S
C1050 C1046 1.524 . S
C1050 H1062 0.956 . S
C1050 H1063 0.961 . S
C1050 H1064 0.961 . S
C1051 C1048 1.539 . S
C1051 H1065 0.958 . S
C1051 H1066 0.961 . S
C1051 H1067 0.960 . S
H1052 C1036 0.931 . S
H1053 C1041 0.929 . S
H1054 C1042 0.960 . S
H1055 C1042 0.962 . S
H1056 C1042 0.960 . S
H1057 C1043 0.961 . S
H1058 C1043 0.961 . S
H1059 C1043 0.961 . S
H1060 C1044 0.931 . S
H1061 C1049 0.930 . S
H1062 C1050 0.956 . S
H1063 C1050 0.961 . S
H1064 C1050 0.961 . S
H1065 C1051 0.958 . S
H1066 C1051 0.961 . S
H1067 C1051 0.960 . S
C1068 C1069 1.391 . S
C1068 C1070 1.394 . S
C1068 H1084 0.931 . S
C1069 C1068 1.391 . S
C1069 C1073 1.376 . S
C1070 C1068 1.394 . S
C1070 C1071 1.369 . S
C1070 C1074 1.531 . S
C1071 C1070 1.369 . S
C1071 C1072 1.410 . S
C1071 C1079 1.503 . S
C1072 C1071 1.410 . S
C1072 C1073 1.392 . S
C1072 C1075 1.511 . S
C1073 C1069 1.376 . S
C1073 C1072 1.392 . S
C1073 H1085 0.929 . S
C1074 C1070 1.531 . S
C1074 H1086 0.960 . S
C1074 H1087 0.962 . S
C1074 H1088 0.960 . S
C1075 C1072 1.511 . S
C1075 H1089 0.961 . S
C1075 H1090 0.961 . S
C1075 H1091 0.961 . S
C1076 C1077 1.370 . S
C1076 C1078 1.363 . S
C1076 H1092 0.931 . S
C1077 C1076 1.370 . S
C1077 C1081 1.408 . S
C1078 C1076 1.363 . S
C1078 C1079 1.370 . S
C1078 C1082 1.524 . S
C1079 C1071 1.503 . S
C1079 C1078 1.370 . S
C1079 C1080 1.403 . S
C1080 C1079 1.403 . S
C1080 C1081 1.404 . S
C1080 C1083 1.539 . S
C1081 C1077 1.408 . S
C1081 C1080 1.404 . S
C1081 H1093 0.930 . S
C1082 C1078 1.524 . S
C1082 H1094 0.956 . S
C1082 H1095 0.961 . S
C1082 H1096 0.961 . S
C1083 C1080 1.539 . S
C1083 H1097 0.958 . S
C1083 H1098 0.961 . S
C1083 H1099 0.960 . S
H1084 C1068 0.931 . S
H1085 C1073 0.929 . S
H1086 C1074 0.960 . S
H1087 C1074 0.962 . S
H1088 C1074 0.960 . S
H1089 C1075 0.961 . S
H1090 C1075 0.961 . S
H1091 C1075 0.961 . S
H1092 C1076 0.931 . S
H1093 C1081 0.930 . S
H1094 C1082 0.956 . S
H1095 C1082 0.961 . S
H1096 C1082 0.961 . S
H1097 C1083 0.958 . S
H1098 C1083 0.961 . S
H1099 C1083 0.960 . S
C1100 C1101 1.391 1_556 S
C1100 C1102 1.394 . S
C1100 H1116 0.931 . S
C1101 C1100 1.391 1_554 S
C1101 C1105 1.376 1_554 S
C1102 C1100 1.394 . S
C1102 C1103 1.369 . S
C1102 C1106 1.531 . S
C1103 C1102 1.369 . S
C1103 C1104 1.410 . S
C1103 C1111 1.503 . S
C1104 C1103 1.410 . S
C1104 C1105 1.392 . S
C1104 C1107 1.511 . S
C1105 C1101 1.376 1_556 S
C1105 C1104 1.392 . S
C1105 H1117 0.932 . S
C1106 C1102 1.531 . S
C1106 H1118 0.960 . S
C1106 H1119 0.962 . S
C1106 H1120 0.960 . S
C1107 C1104 1.511 . S
C1107 H1121 0.961 . S
C1107 H1122 0.961 . S
C1107 H1123 0.961 . S
C1108 C1109 1.370 . S
C1108 C1110 1.363 . S
C1108 H1124 0.931 . S
C1109 C1108 1.370 . S
C1109 C1113 1.408 . S
C1110 C1108 1.363 . S
C1110 C1111 1.370 . S
C1110 C1114 1.524 1_556 S
C1111 C1103 1.503 . S
C1111 C1110 1.370 . S
C1111 C1112 1.403 . S
C1112 C1111 1.403 . S
C1112 C1113 1.404 . S
C1112 C1115 1.539 . S
C1113 C1109 1.408 . S
C1113 C1112 1.404 . S
C1113 H1125 0.930 . S
C1114 C1110 1.524 1_554 S
C1114 H1126 0.956 . S
C1114 H1127 0.961 . S
C1114 H1128 0.961 . S
C1115 C1112 1.539 . S
C1115 H1129 0.958 . S
C1115 H1130 0.961 . S
C1115 H1131 0.960 . S
H1116 C1100 0.931 . S
H1117 C1105 0.932 . S
H1118 C1106 0.960 . S
H1119 C1106 0.962 . S
H1120 C1106 0.960 . S
H1121 C1107 0.961 . S
H1122 C1107 0.961 . S
H1123 C1107 0.961 . S
H1124 C1108 0.931 . S
H1125 C1113 0.930 . S
H1126 C1114 0.956 . S
H1127 C1114 0.961 . S
H1128 C1114 0.961 . S
H1129 C1115 0.958 . S
H1130 C1115 0.961 . S
H1131 C1115 0.960 . S
C1132 C1133 1.391 . S
C1132 C1134 1.394 . S
C1132 H1148 0.931 . S
C1133 C1132 1.391 . S
C1133 C1137 1.376 . S
C1134 C1132 1.394 . S
C1134 C1135 1.369 . S
C1134 C1138 1.531 . S
C1135 C1134 1.369 . S
C1135 C1136 1.410 . S
C1135 C1143 1.503 . S
C1136 C1135 1.410 . S
C1136 C1137 1.392 . S
C1136 C1139 1.511 . S
C1137 C1133 1.376 . S
C1137 C1136 1.392 . S
C1137 H1149 0.929 . S
C1138 C1134 1.531 . S
C1138 H1150 0.960 . S
C1138 H1151 0.962 . S
C1138 H1152 0.960 . S
C1139 C1136 1.511 . S
C1139 H1153 0.961 1_554 S
C1139 H1154 0.961 1_554 S
C1139 H1155 0.961 . S
C1140 C1141 1.370 . S
C1140 C1142 1.363 1_556 S
C1140 H1156 0.931 . S
C1141 C1140 1.370 . S
C1141 C1145 1.408 1_556 S
C1142 C1140 1.363 1_554 S
C1142 C1143 1.370 . S
C1142 C1146 1.524 . S
C1143 C1135 1.503 . S
C1143 C1142 1.370 . S
C1143 C1144 1.403 . S
C1144 C1143 1.403 . S
C1144 C1145 1.404 . S
C1144 C1147 1.539 . S
C1145 C1141 1.408 1_554 S
C1145 C1144 1.404 . S
C1145 H1157 0.930 . S
C1146 C1142 1.524 . S
C1146 H1158 0.956 . S
C1146 H1159 0.961 1_554 S
C1146 H1160 0.961 1_554 S
C1147 C1144 1.539 . S
C1147 H1161 0.958 . S
C1147 H1162 0.961 . S
C1147 H1163 0.960 . S
H1148 C1132 0.931 . S
H1149 C1137 0.929 . S
H1150 C1138 0.960 . S
H1151 C1138 0.962 . S
H1152 C1138 0.960 . S
H1153 C1139 0.961 1_556 S
H1154 C1139 0.961 1_556 S
H1155 C1139 0.961 . S
H1156 C1140 0.931 . S
H1157 C1145 0.930 . S
H1158 C1146 0.956 . S
H1159 C1146 0.961 1_556 S
H1160 C1146 0.961 1_556 S
H1161 C1147 0.958 . S
H1162 C1147 0.961 . S
H1163 C1147 0.960 . S
C1164 C1165 1.391 . S
C1164 C1166 1.394 . S
C1164 H1180 0.931 . S
C1165 C1164 1.391 . S
C1165 C1169 1.376 . S
C1166 C1164 1.394 . S
C1166 C1167 1.369 . S
C1166 C1170 1.531 . S
C1167 C1166 1.369 . S
C1167 C1168 1.410 . S
C1167 C1175 1.503 . S
C1168 C1167 1.410 . S
C1168 C1169 1.392 . S
C1168 C1171 1.511 . S
C1169 C1165 1.376 . S
C1169 C1168 1.392 . S
C1169 H1181 0.929 . S
C1170 C1166 1.531 . S
C1170 H1182 0.960 . S
C1170 H1183 0.962 . S
C1170 H1184 0.960 . S
C1171 C1168 1.511 . S
C1171 H1185 0.961 . S
C1171 H1186 0.961 . S
C1171 H1187 0.961 . S
C1172 C1173 1.370 . S
C1172 C1174 1.363 . S
C1172 H1188 0.931 . S
C1173 C1172 1.370 . S
C1173 C1177 1.408 . S
C1174 C1172 1.363 . S
C1174 C1175 1.370 . S
C1174 C1178 1.524 . S
C1175 C1167 1.503 . S
C1175 C1174 1.370 . S
C1175 C1176 1.403 . S
C1176 C1175 1.403 . S
C1176 C1177 1.404 . S
C1176 C1179 1.539 . S
C1177 C1173 1.408 . S
C1177 C1176 1.404 . S
C1177 H1189 0.930 . S
C1178 C1174 1.524 . S
C1178 H1190 0.956 . S
C1178 H1191 0.961 . S
C1178 H1192 0.961 . S
C1179 C1176 1.539 . S
C1179 H1193 0.958 . S
C1179 H1194 0.961 . S
C1179 H1195 0.960 . S
H1180 C1164 0.931 . S
H1181 C1169 0.929 . S
H1182 C1170 0.960 . S
H1183 C1170 0.962 . S
H1184 C1170 0.960 . S
H1185 C1171 0.961 . S
H1186 C1171 0.961 . S
H1187 C1171 0.961 . S
H1188 C1172 0.931 . S
H1189 C1177 0.930 . S
H1190 C1178 0.956 . S
H1191 C1178 0.961 . S
H1192 C1178 0.961 . S
H1193 C1179 0.958 . S
H1194 C1179 0.961 . S
H1195 C1179 0.960 . S
C1196 C1197 1.391 . S
C1196 C1198 1.394 . S
C1196 H1212 0.931 . S
C1197 C1196 1.391 . S
C1197 C1201 1.376 . S
C1198 C1196 1.394 . S
C1198 C1199 1.369 . S
C1198 C1202 1.531 . S
C1199 C1198 1.369 . S
C1199 C1200 1.410 . S
C1199 C1207 1.503 1_655 S
C1200 C1199 1.410 . S
C1200 C1201 1.392 . S
C1200 C1203 1.511 . S
C1201 C1197 1.376 . S
C1201 C1200 1.392 . S
C1201 H1213 0.929 . S
C1202 C1198 1.531 . S
C1202 H1214 0.960 1_655 S
C1202 H1215 0.967 . S
C1202 H1216 0.960 . S
C1203 C1200 1.511 . S
C1203 H1217 0.961 . S
C1203 H1218 0.961 . S
C1203 H1219 0.961 . S
C1204 C1205 1.370 . S
C1204 C1206 1.363 . S
C1204 H1220 0.931 . S
C1205 C1204 1.370 . S
C1205 C1209 1.408 . S
C1206 C1204 1.363 . S
C1206 C1207 1.370 . S
C1206 C1210 1.524 . S
C1207 C1199 1.503 1_455 S
C1207 C1206 1.370 . S
C1207 C1208 1.403 . S
C1208 C1207 1.403 . S
C1208 C1209 1.404 . S
C1208 C1211 1.539 . S
C1209 C1205 1.408 . S
C1209 C1208 1.404 . S
C1209 H1221 0.930 . S
C1210 C1206 1.524 . S
C1210 H1222 0.956 1_455 S
C1210 H1223 0.961 1_455 S
C1210 H1224 0.961 . S
C1211 C1208 1.539 . S
C1211 H1225 0.958 . S
C1211 H1226 0.961 . S
C1211 H1227 0.960 . S
H1212 C1196 0.931 . S
H1213 C1201 0.929 . S
H1214 C1202 0.960 1_455 S
H1215 C1202 0.967 . S
H1216 C1202 0.960 . S
H1217 C1203 0.961 . S
H1218 C1203 0.961 . S
H1219 C1203 0.961 . S
H1220 C1204 0.931 . S
H1221 C1209 0.930 . S
H1222 C1210 0.956 1_655 S
H1223 C1210 0.961 1_655 S
H1224 C1210 0.961 . S
H1225 C1211 0.958 . S
H1226 C1211 0.961 . S
H1227 C1211 0.960 . S
C1228 C1229 1.391 . S
C1228 C1230 1.394 . S
C1228 H1244 0.931 . S
C1229 C1228 1.391 . S
C1229 C1233 1.376 . S
C1230 C1228 1.394 . S
C1230 C1231 1.369 . S
C1230 C1234 1.531 . S
C1231 C1230 1.369 . S
C1231 C1232 1.410 . S
C1231 C1239 1.503 1_545 S
C1232 C1231 1.410 . S
C1232 C1233 1.392 . S
C1232 C1235 1.511 . S
C1233 C1229 1.376 . S
C1233 C1232 1.392 . S
C1233 H1245 0.929 . S
C1234 C1230 1.531 . S
C1234 H1246 0.960 . S
C1234 H1247 0.962 . S
C1234 H1248 0.960 . S
C1235 C1232 1.511 . S
C1235 H1249 0.961 . S
C1235 H1250 0.961 1_545 S
C1235 H1251 0.961 . S
C1236 C1237 1.370 . S
C1236 C1238 1.363 . S
C1236 H1252 0.931 . S
C1237 C1236 1.370 . S
C1237 C1241 1.408 . S
C1238 C1236 1.363 . S
C1238 C1239 1.370 . S
C1238 C1242 1.524 . S
C1239 C1231 1.503 1_565 S
C1239 C1238 1.370 . S
C1239 C1240 1.403 . S
C1240 C1239 1.403 . S
C1240 C1241 1.404 . S
C1240 C1243 1.539 . S
C1241 C1237 1.408 . S
C1241 C1240 1.404 . S
C1241 H1253 0.930 . S
C1242 C1238 1.524 . S
C1242 H1254 0.956 . S
C1242 H1255 0.961 . S
C1242 H1256 0.961 . S
C1243 C1240 1.539 . S
C1243 H1257 0.923 1_565 S
C1243 H1258 0.961 . S
C1243 H1259 0.960 1_565 S
H1244 C1228 0.931 . S
H1245 C1233 0.929 . S
H1246 C1234 0.960 . S
H1247 C1234 0.962 . S
H1248 C1234 0.960 . S
H1249 C1235 0.961 . S
H1250 C1235 0.961 1_565 S
H1251 C1235 0.961 . S
H1252 C1236 0.931 . S
H1253 C1241 0.930 . S
H1254 C1242 0.956 . S
H1255 C1242 0.961 . S
H1256 C1242 0.961 . S
H1257 C1243 0.923 1_545 S
H1258 C1243 0.961 . S
H1259 C1243 0.960 1_545 S
C1260 C1261 1.391 . S
C1260 C1262 1.394 . S
C1260 H1276 0.931 . S
C1261 C1260 1.391 . S
C1261 C1265 1.376 . S
C1262 C1260 1.394 . S
C1262 C1263 1.369 . S
C1262 C1266 1.531 . S
C1263 C1262 1.369 . S
C1263 C1264 1.410 . S
C1263 C1271 1.503 . S
C1264 C1263 1.410 . S
C1264 C1265 1.392 . S
C1264 C1267 1.511 . S
C1265 C1261 1.376 . S
C1265 C1264 1.392 . S
C1265 H1277 0.929 . S
C1266 C1262 1.531 . S
C1266 H1278 0.960 . S
C1266 H1279 0.962 . S
C1266 H1280 0.960 . S
C1267 C1264 1.511 . S
C1267 H1281 0.961 . S
C1267 H1282 0.961 . S
C1267 H1283 0.961 . S
C1268 C1269 1.370 . S
C1268 C1270 1.363 . S
C1268 H1284 0.931 . S
C1269 C1268 1.370 . S
C1269 C1273 1.408 . S
C1270 C1268 1.363 . S
C1270 C1271 1.370 . S
C1270 C1274 1.524 . S
C1271 C1263 1.503 . S
C1271 C1270 1.370 . S
C1271 C1272 1.403 . S
C1272 C1271 1.403 . S
C1272 C1273 1.404 . S
C1272 C1275 1.539 . S
C1273 C1269 1.408 . S
C1273 C1272 1.404 . S
C1273 H1285 0.930 . S
C1274 C1270 1.524 . S
C1274 H1286 0.956 . S
C1274 H1287 0.961 . S
C1274 H1288 0.961 . S
C1275 C1272 1.539 . S
C1275 H1289 0.958 . S
C1275 H1290 0.961 . S
C1275 H1291 0.960 . S
H1276 C1260 0.931 . S
H1277 C1265 0.929 . S
H1278 C1266 0.960 . S
H1279 C1266 0.962 . S
H1280 C1266 0.960 . S
H1281 C1267 0.961 . S
H1282 C1267 0.961 . S
H1283 C1267 0.961 . S
H1284 C1268 0.931 . S
H1285 C1273 0.930 . S
H1286 C1274 0.956 . S
H1287 C1274 0.961 . S
H1288 C1274 0.961 . S
H1289 C1275 0.958 . S
H1290 C1275 0.961 . S
H1291 C1275 0.960 . S
C1292 C1293 1.391 . S
C1292 C1294 1.394 . S
C1292 H1308 0.931 . S
C1293 C1292 1.391 . S
C1293 C1297 1.376 . S
C1294 C1292 1.394 . S
C1294 C1295 1.369 . S
C1294 C1298 1.531 . S
C1295 C1294 1.369 . S
C1295 C1296 1.410 . S
C1295 C1303 1.503 1_455 S
C1296 C1295 1.410 . S
C1296 C1297 1.392 . S
C1296 C1299 1.511 . S
C1297 C1293 1.376 . S
C1297 C1296 1.392 . S
C1297 H1309 0.929 . S
C1298 C1294 1.531 . S
C1298 H1310 0.960 1_455 S
C1298 H1311 0.962 . S
C1298 H1312 0.960 . S
C1299 C1296 1.511 . S
C1299 H1313 0.961 . S
C1299 H1314 0.961 . S
C1299 H1315 0.961 . S
C1300 C1301 1.370 . S
C1300 C1302 1.363 . S
C1300 H1316 0.931 . S
C1301 C1300 1.370 . S
C1301 C1305 1.408 . S
C1302 C1300 1.363 . S
C1302 C1303 1.370 . S
C1302 C1306 1.523 . S
C1303 C1295 1.503 1_655 S
C1303 C1302 1.370 . S
C1303 C1304 1.403 . S
C1304 C1303 1.403 . S
C1304 C1305 1.404 . S
C1304 C1307 1.539 . S
C1305 C1301 1.408 . S
C1305 C1304 1.404 . S
C1305 H1317 0.930 . S
C1306 C1302 1.523 . S
C1306 H1318 0.956 1_655 S
C1306 H1319 0.964 1_655 S
C1306 H1320 0.959 1_556 S
C1307 C1304 1.539 . S
C1307 H1321 0.958 . S
C1307 H1322 0.961 . S
C1307 H1323 0.960 . S
H1308 C1292 0.931 . S
H1309 C1297 0.929 . S
H1310 C1298 0.960 1_655 S
H1311 C1298 0.962 . S
H1312 C1298 0.960 . S
H1313 C1299 0.961 . S
H1314 C1299 0.961 . S
H1315 C1299 0.961 . S
H1316 C1300 0.931 . S
H1317 C1305 0.930 . S
H1318 C1306 0.956 1_455 S
H1319 C1306 0.964 1_455 S
H1320 C1306 0.959 1_554 S
H1321 C1307 0.958 . S
H1322 C1307 0.961 . S
H1323 C1307 0.960 . S
C1324 C1325 1.391 . S
C1324 C1326 1.394 . S
C1324 H1340 0.931 . S
C1325 C1324 1.391 . S
C1325 C1329 1.376 1_556 S
C1326 C1324 1.394 . S
C1326 C1327 1.369 . S
C1326 C1330 1.531 . S
C1327 C1326 1.369 . S
C1327 C1328 1.410 1_556 S
C1327 C1335 1.503 1_546 S
C1328 C1327 1.410 1_554 S
C1328 C1329 1.392 . S
C1328 C1331 1.511 . S
C1329 C1325 1.376 1_554 S
C1329 C1328 1.392 . S
C1329 H1341 0.929 . S
C1330 C1326 1.531 . S
C1330 H1342 0.960 1_545 S
C1330 H1343 0.944 . S
C1330 H1344 0.960 . S
C1331 C1328 1.511 . S
C1331 H1345 0.961 . S
C1331 H1346 0.961 . S
C1331 H1347 0.961 . S
C1332 C1333 1.370 . S
C1332 C1334 1.363 . S
C1332 H1348 0.931 . S
C1333 C1332 1.370 . S
C1333 C1337 1.408 1_554 S
C1334 C1332 1.363 . S
C1334 C1335 1.370 . S
C1334 C1338 1.524 . S
C1335 C1327 1.503 1_564 S
C1335 C1334 1.370 . S
C1335 C1336 1.403 1_554 S
C1336 C1335 1.403 1_556 S
C1336 C1337 1.404 . S
C1336 C1339 1.539 . S
C1337 C1333 1.408 1_556 S
C1337 C1336 1.404 . S
C1337 H1349 0.930 . S
C1338 C1334 1.524 . S
C1338 H1350 0.956 1_565 S
C1338 H1351 0.961 1_565 S
C1338 H1352 0.961 . S
C1339 C1336 1.539 . S
C1339 H1353 0.958 . S
C1339 H1354 0.961 . S
C1339 H1355 0.960 . S
H1340 C1324 0.931 . S
H1341 C1329 0.929 . S
H1342 C1330 0.960 1_565 S
H1343 C1330 0.944 . S
H1344 C1330 0.960 . S
H1345 C1331 0.961 . S
H1346 C1331 0.961 . S
H1347 C1331 0.961 . S
H1348 C1332 0.931 . S
H1349 C1337 0.930 . S
H1350 C1338 0.956 1_545 S
H1351 C1338 0.961 1_545 S
H1352 C1338 0.961 . S
H1353 C1339 0.958 . S
H1354 C1339 0.961 . S
H1355 C1339 0.960 . S
C397 N13 1.223 . S
C405 N2 1.201 . S
C429 N35 1.184 1_556 S
C437 N46 1.218 . S
C461 N68 1.215 . S
C469 N79 1.207 . S
C493 N112 1.190 . S
C501 N101 1.216 . S
C525 N145 1.211 1_554 S
C533 N134 1.208 . S
C557 N167 1.200 . S
C565 N178 1.211 . S
C589 N211 1.208 . S
C597 N200 1.209 1_554 S
C621 N244 1.220 . S
C629 N233 1.202 . S
C653 N266 1.191 . S
C661 N277 1.215 . S
C685 N310 1.209 1_556 S
C693 N299 1.207 . S
C717 N343 1.223 . S
C725 N332 1.201 . S
C749 N365 1.217 . S
C757 N376 1.206 . S
C781 C205 1.562 . S
C789 C7 1.545 . S
C813 C40 1.551 . S
C821 C238 1.546 . S
C845 C271 1.530 . S
C853 C73 1.555 . S
C877 C304 1.572 . S
C885 C106 1.546 . S
C909 C337 1.545 . S
C917 C139 1.565 . S
C941 C370 1.541 . S
C949 C172 1.565 . S
C973 C18 1.162 . S
C981 C348 1.196 . S
C1005 C51 1.209 . S
C1013 C381 1.191 . S
C1037 C84 1.178 . S
C1045 C216 1.180 . S
C1069 C249 1.163 . S
C1077 C117 1.186 . S
C1101 C282 1.163 . S
C1109 C150 1.197 . S
C1133 C315 1.210 . S
C1141 C183 1.190 . S
C1165 C21 1.452 . S
C1173 C318 1.473 . S
C1197 C54 1.466 . S
C1205 C351 1.467 . S
C1229 C384 1.470 . S
C1237 C87 1.483 . S
C1261 C120 1.491 . S
C1269 C219 1.475 . S
C1293 C153 1.476 . S
C1301 C252 1.468 . S
C1325 C186 1.467 . S
C1333 C285 1.467 . S
