# Generated by pormake.
# Topology xff, (7)-cn, num edge types: 1
# Building blocks:
#     Node 0, Type 0, BuildingBlock: HICVOG_clean_sbu_0, # of connection points: 7
#     Node 1, Type 0, BuildingBlock: HICVOG_clean_sbu_0, # of connection points: 7
#     Node 2, Type 0, BuildingBlock: HICVOG_clean_sbu_0, # of connection points: 7
#     Node 3, Type 0, BuildingBlock: HICVOG_clean_sbu_0, # of connection points: 7
#     Node 4, Type 0, BuildingBlock: HICVOG_clean_sbu_0, # of connection points: 7
#     Node 5, Type 0, BuildingBlock: HICVOG_clean_sbu_0, # of connection points: 7
#     Node 6, Type 0, BuildingBlock: HICVOG_clean_sbu_0, # of connection points: 7
#     Node 7, Type 0, BuildingBlock: HICVOG_clean_sbu_0, # of connection points: 7
#     Node 8, Type 0, BuildingBlock: HICVOG_clean_sbu_0, # of connection points: 7
#     Node 9, Type 0, BuildingBlock: HICVOG_clean_sbu_0, # of connection points: 7
#     Node 10, Type 0, BuildingBlock: HICVOG_clean_sbu_0, # of connection points: 7
#     Node 11, Type 0, BuildingBlock: HICVOG_clean_sbu_0, # of connection points: 7
#     Node 12, Type 0, BuildingBlock: HICVOG_clean_sbu_0, # of connection points: 7
#     Node 13, Type 0, BuildingBlock: HICVOG_clean_sbu_0, # of connection points: 7
#     Node 14, Type 0, BuildingBlock: HICVOG_clean_sbu_0, # of connection points: 7
#     Node 15, Type 0, BuildingBlock: HICVOG_clean_sbu_0, # of connection points: 7
#     Edge 16, Type (0, 0), BuildingBlock: AJUNOK_clean_linker_0, # of connection points: 2
#     Edge 17, Type (0, 0), BuildingBlock: AJUNOK_clean_linker_0, # of connection points: 2
#     Edge 18, Type (0, 0), BuildingBlock: AJUNOK_clean_linker_0, # of connection points: 2
#     Edge 19, Type (0, 0), BuildingBlock: AJUNOK_clean_linker_0, # of connection points: 2
#     Edge 20, Type (0, 0), BuildingBlock: AJUNOK_clean_linker_0, # of connection points: 2
#     Edge 21, Type (0, 0), BuildingBlock: AJUNOK_clean_linker_0, # of connection points: 2
#     Edge 22, Type (0, 0), BuildingBlock: AJUNOK_clean_linker_0, # of connection points: 2
#     Edge 23, Type (0, 0), BuildingBlock: AJUNOK_clean_linker_0, # of connection points: 2
#     Edge 24, Type (0, 0), BuildingBlock: AJUNOK_clean_linker_0, # of connection points: 2
#     Edge 25, Type (0, 0), BuildingBlock: AJUNOK_clean_linker_0, # of connection points: 2
#     Edge 26, Type (0, 0), BuildingBlock: AJUNOK_clean_linker_0, # of connection points: 2
#     Edge 27, Type (0, 0), BuildingBlock: AJUNOK_clean_linker_0, # of connection points: 2
#     Edge 28, Type (0, 0), BuildingBlock: AJUNOK_clean_linker_0, # of connection points: 2
#     Edge 29, Type (0, 0), BuildingBlock: AJUNOK_clean_linker_0, # of connection points: 2
#     Edge 30, Type (0, 0), BuildingBlock: AJUNOK_clean_linker_0, # of connection points: 2
#     Edge 31, Type (0, 0), BuildingBlock: AJUNOK_clean_linker_0, # of connection points: 2
#     Edge 32, Type (0, 0), BuildingBlock: AJUNOK_clean_linker_0, # of connection points: 2
#     Edge 33, Type (0, 0), BuildingBlock: AJUNOK_clean_linker_0, # of connection points: 2
#     Edge 34, Type (0, 0), BuildingBlock: AJUNOK_clean_linker_0, # of connection points: 2
#     Edge 35, Type (0, 0), BuildingBlock: AJUNOK_clean_linker_0, # of connection points: 2
#     Edge 36, Type (0, 0), BuildingBlock: AJUNOK_clean_linker_0, # of connection points: 2
#     Edge 37, Type (0, 0), BuildingBlock: AJUNOK_clean_linker_0, # of connection points: 2
#     Edge 38, Type (0, 0), BuildingBlock: AJUNOK_clean_linker_0, # of connection points: 2
#     Edge 39, Type (0, 0), BuildingBlock: AJUNOK_clean_linker_0, # of connection points: 2
#     Edge 40, Type (0, 0), BuildingBlock: AJUNOK_clean_linker_0, # of connection points: 2
#     Edge 41, Type (0, 0), BuildingBlock: AJUNOK_clean_linker_0, # of connection points: 2
#     Edge 42, Type (0, 0), BuildingBlock: AJUNOK_clean_linker_0, # of connection points: 2
#     Edge 43, Type (0, 0), BuildingBlock: AJUNOK_clean_linker_0, # of connection points: 2
#     Edge 44, Type (0, 0), BuildingBlock: AJUNOK_clean_linker_0, # of connection points: 2
#     Edge 45, Type (0, 0), BuildingBlock: AJUNOK_clean_linker_0, # of connection points: 2
#     Edge 46, Type (0, 0), BuildingBlock: AJUNOK_clean_linker_0, # of connection points: 2
#     Edge 47, Type (0, 0), BuildingBlock: AJUNOK_clean_linker_0, # of connection points: 2
#     Edge 48, Type (0, 0), BuildingBlock: AJUNOK_clean_linker_0, # of connection points: 2
#     Edge 49, Type (0, 0), BuildingBlock: AJUNOK_clean_linker_0, # of connection points: 2
#     Edge 50, Type (0, 0), BuildingBlock: AJUNOK_clean_linker_0, # of connection points: 2
#     Edge 51, Type (0, 0), BuildingBlock: AJUNOK_clean_linker_0, # of connection points: 2
#     Edge 52, Type (0, 0), BuildingBlock: AJUNOK_clean_linker_0, # of connection points: 2
#     Edge 53, Type (0, 0), BuildingBlock: AJUNOK_clean_linker_0, # of connection points: 2
#     Edge 54, Type (0, 0), BuildingBlock: AJUNOK_clean_linker_0, # of connection points: 2
#     Edge 55, Type (0, 0), BuildingBlock: AJUNOK_clean_linker_0, # of connection points: 2
#     Edge 56, Type (0, 0), BuildingBlock: AJUNOK_clean_linker_0, # of connection points: 2
#     Edge 57, Type (0, 0), BuildingBlock: AJUNOK_clean_linker_0, # of connection points: 2
#     Edge 58, Type (0, 0), BuildingBlock: AJUNOK_clean_linker_0, # of connection points: 2
#     Edge 59, Type (0, 0), BuildingBlock: AJUNOK_clean_linker_0, # of connection points: 2
#     Edge 60, Type (0, 0), BuildingBlock: AJUNOK_clean_linker_0, # of connection points: 2
#     Edge 61, Type (0, 0), BuildingBlock: AJUNOK_clean_linker_0, # of connection points: 2
#     Edge 62, Type (0, 0), BuildingBlock: AJUNOK_clean_linker_0, # of connection points: 2
#     Edge 63, Type (0, 0), BuildingBlock: AJUNOK_clean_linker_0, # of connection points: 2
#     Edge 64, Type (0, 0), BuildingBlock: AJUNOK_clean_linker_0, # of connection points: 2
#     Edge 65, Type (0, 0), BuildingBlock: AJUNOK_clean_linker_0, # of connection points: 2
#     Edge 66, Type (0, 0), BuildingBlock: AJUNOK_clean_linker_0, # of connection points: 2
#     Edge 67, Type (0, 0), BuildingBlock: AJUNOK_clean_linker_0, # of connection points: 2
#     Edge 68, Type (0, 0), BuildingBlock: AJUNOK_clean_linker_0, # of connection points: 2
#     Edge 69, Type (0, 0), BuildingBlock: AJUNOK_clean_linker_0, # of connection points: 2
#     Edge 70, Type (0, 0), BuildingBlock: AJUNOK_clean_linker_0, # of connection points: 2
#     Edge 71, Type (0, 0), BuildingBlock: AJUNOK_clean_linker_0, # of connection points: 2
# Relax obj value: 0.404
# Max RMSD: 0.251
# Mean RMSD: 0.251
data_MOF--net-xff--node1-HICVOG_clean_sbu_0--edge1-AJUNOK_clean_linker_0
_symmetry_space_group_name_H-M    P1
_symmetry_Int_Tables_number       1
_symmetry_cell_setting            triclinic
loop_
_symmetry_equiv_pos_as_xyz
'x, y, z'
_cell_length_a     21.396466
_cell_length_b     21.440039
_cell_length_c     53.74102
_cell_angle_alpha  89.701374
_cell_angle_beta   90.366202
_cell_angle_gamma 89.980595
loop_
_atom_site_label
_atom_site_type_symbol
_atom_site_fract_x
_atom_site_fract_y
_atom_site_fract_z
_atom_type_partial_charge
Zn0 Zn 0.22936 0.06196 0.04933 0.0
C1 C 0.24674 0.22843 0.01186 0.0
N2 N 0.22385 0.24871 0.03355 0.0
C3 C 0.21818 0.1968 0.04728 0.0
N4 N 0.23581 0.14578 0.0345 0.0
N5 N 0.25552 0.16506 0.01238 0.0
C6 C 0.25282 0.09783 0.94627 0.0
O7 O 0.2158 0.06509 0.96069 0.0
O8 O 0.27121 0.06606 0.083 0.0
Zn9 Zn 0.30812 0.11069 -0.00763 0.0
N10 N 0.1409 1.04631 0.05359 0.0
C11 C 1.044 1.01548 0.03533 0.0
C12 C 0.10757 1.02902 0.03313 0.0
C13 C 0.11312 1.05086 0.07618 0.0
N14 N 1.01612 1.02034 0.05787 0.0
C15 C 1.04899 1.03834 0.07835 0.0
O16 O 0.2996 1.0146 -0.00473 0.0
C17 C 0.283 0.97114 0.01011 0.0
O18 O 0.25903 0.98414 0.03102 0.0
H19 H 0.13046 1.02532 0.0153 0.0
H20 H 0.14074 0.06362 0.09231 0.0
C21 C 0.41617 0.18391 -0.00452 0.0
C22 C 0.47639 0.20004 0.00337 0.0
C23 C 0.48519 0.10286 0.02438 0.0
C24 C 0.42526 0.08684 0.0163 0.0
N25 N 0.39213 0.12795 0.00209 0.0
N26 N 0.50931 0.15916 0.01783 0.0
H27 H 0.3879 0.2157 0.98453 0.0
C28 C 0.3276 0.05237 0.08843 0.0
O29 O 0.36413 1.02946 0.0712 0.0
O30 O 0.2968 0.12903 0.95609 0.0
H31 H 0.40505 1.04252 0.02154 0.0
H32 H 1.01702 1.00127 0.01923 0.0
H33 H 0.51219 0.07099 0.03584 0.0
Zn34 Zn 0.73901 0.44539 0.29515 0.0
C35 C 0.57518 0.48421 0.25929 0.0
N36 N 0.5527 0.47054 0.2819 0.0
C37 C 0.60388 0.4618 0.29582 0.0
N38 N 0.65638 0.46883 0.28225 0.0
N39 N 0.63912 0.48477 0.2593 0.0
C40 C 0.71151 0.49857 0.18773 0.0
O41 O 0.74934 0.45747 0.19798 0.0
O42 O 0.74533 0.47471 0.33058 0.0
Zn43 Zn 0.69934 0.52903 0.23831 0.0
N44 N 0.74053 0.35529 0.29593 0.0
C45 C 0.71095 0.256 0.28006 0.0
C46 C 0.71527 0.32076 0.27725 0.0
C47 C 0.76358 0.32773 0.31679 0.0
N48 N 0.73062 0.22882 0.30166 0.0
C49 C 0.75744 0.26315 0.32009 0.0
O50 O 0.79294 0.50555 0.2405 0.0
C51 C 0.83452 0.4883 0.2562 0.0
O52 O 0.81935 0.46979 0.27779 0.0
H53 H 0.69718 0.34346 0.26069 0.0
H54 H 0.78166 0.35674 0.33159 0.0
C55 C 0.65147 0.6523 0.24442 0.0
C56 C 0.65426 0.71466 0.25209 0.0
C57 C 0.7542 0.69624 0.27001 0.0
C58 C 0.75116 0.63439 0.26249 0.0
N59 N 0.70021 0.61378 0.24966 0.0
N60 N 0.70578 0.73484 0.26468 0.0
H61 H 0.61158 0.63457 0.23419 0.0
C62 C 0.73564 0.52995 0.33808 0.0
O63 O 0.72276 0.57386 0.32168 0.0
O64 O 0.67704 0.53147 0.20167 0.0
H65 H 0.78937 0.60342 0.26686 0.0
H66 H 0.69008 0.22787 0.26556 0.0
H67 H 0.79452 0.71345 0.28009 0.0
Zn68 Zn 0.37728 1.01372 0.54944 0.0
C69 C 0.31164 0.86224 0.51199 0.0
N70 N 0.29656 0.84266 0.53497 0.0
C71 C 0.31259 0.89048 0.54951 0.0
N72 N 0.33729 0.9381 0.53622 0.0
N73 N 0.33463 0.92186 0.51245 0.0
C74 C 0.3435 1.00054 0.4436 0.0
O75 O 0.38468 1.03222 0.45665 0.0
O76 O 0.35109 1.02054 0.58514 0.0
Zn77 Zn 0.29439 0.98674 0.49193 0.0
N78 N 0.46675 1.00043 0.54909 0.0
C79 C 0.55892 0.95794 0.53123 0.0
C80 C 0.49598 0.97507 0.52916 0.0
C81 C 0.49824 1.01121 0.57061 0.0
N82 N 0.58941 0.96536 0.55332 0.0
C83 C 0.56066 0.99213 0.57309 0.0
O84 O 0.31501 0.07991 0.49718 0.0
C85 C 0.33685 0.11835 0.51303 0.0
O86 O 0.36002 0.09903 0.53351 0.0
H87 H 0.47018 0.96648 0.51215 0.0
H88 H 0.47314 1.02958 0.58637 0.0
C89 C 0.17327 0.93412 0.49278 0.0
C90 C 0.11393 0.92372 0.50285 0.0
C91 C 0.12688 1.01266 0.52843 0.0
C92 C 0.18634 1.02195 0.51871 0.0
N93 N 0.2084 0.9821 0.50127 0.0
N94 N 0.09227 0.96343 0.52051 0.0
H95 H 0.193 0.90269 0.47933 0.0
C96 C 0.29454 1.02669 0.59175 0.0
O97 O 0.25102 1.03214 0.57453 0.0
O98 O 0.30097 0.97096 0.45509 0.0
H99 H 0.21543 0.05932 0.52561 0.0
H100 H 0.58268 0.93686 0.51568 0.0
H101 H 0.10926 1.04319 0.54271 0.0
Zn102 Zn 0.87475 0.6671 0.79558 0.0
C103 C 1.02218 0.58606 0.76038 0.0
N104 N 1.03409 0.56444 0.78345 0.0
C105 C 0.98684 0.58619 0.79697 0.0
N106 N 0.94601 0.61915 0.78297 0.0
N107 N 0.96596 0.61661 0.75966 0.0
C108 C 0.8877 0.63382 0.68924 0.0
O109 O 0.85392 0.67485 0.70125 0.0
O110 O 0.86137 0.6391 0.83077 0.0
Zn111 Zn 0.89965 0.58493 0.73787 0.0
N112 N 0.90038 0.7534 0.79785 0.0
C113 C 0.96098 0.84053 0.78466 0.0
C114 C 0.93649 0.78107 0.78024 0.0
C115 C 0.88685 0.78308 0.8194 0.0
N116 N 0.94901 0.86933 0.80663 0.0
C117 C 0.91182 0.8423 0.82407 0.0
O118 O 0.8092 0.61359 0.74277 0.0
C119 C 0.77054 0.63871 0.75758 0.0
O120 O 0.7889 0.6607 0.77832 0.0
H121 H 0.94763 0.75649 0.76331 0.0
H122 H 0.85941 0.75933 0.83337 0.0
C123 C 0.94124 0.45928 0.7388 0.0
C124 C 0.93754 0.39545 0.74414 0.0
C125 C 0.83564 0.41028 0.76018 0.0
C126 C 0.84035 0.47402 0.75545 0.0
N127 N 0.89294 0.49714 0.74471 0.0
N128 N 0.88444 0.37257 0.75462 0.0
H129 H 0.98223 0.47893 0.73026 0.0
C130 C 0.84975 0.58396 0.83807 0.0
O131 O 0.84149 0.53993 0.82145 0.0
O132 O 0.91855 0.5935 0.70154 0.0
H133 H 0.80241 0.50456 0.76043 0.0
H134 H 0.99048 0.86296 0.771 0.0
H135 H 0.79403 0.39104 0.76859 0.0
Zn136 Zn 0.78828 0.99173 0.98238 0.0
C137 C 0.88042 0.9077 0.92638 0.0
N138 N 0.87007 0.85434 0.93853 0.0
C139 C 0.84267 0.87266 0.95967 0.0
N140 N 0.83537 0.93616 0.9603 0.0
N141 N 0.86048 0.9574 0.93935 0.0
C142 C 0.79384 1.04688 0.88513 0.0
O143 O 0.75057 1.04863 0.90236 0.0
O144 O 0.80952 0.976 0.0183 0.0
Zn145 Zn 0.88119 1.04067 0.92704 0.0
N146 N 0.69991 0.97667 0.97877 0.0
C147 C 0.59759 1.01574 0.97056 0.0
C148 C 0.66223 1.02401 0.97087 0.0
C149 C 0.67565 0.92107 0.98602 0.0
N150 N 0.57329 0.9601 0.97777 0.0
C151 C 0.61071 0.91224 0.98538 0.0
O152 O 0.8511 0.1191 0.94446 0.0
C153 C 0.81869 0.13129 0.96354 0.0
O154 O 0.79731 0.08721 0.97709 0.0
H155 H 0.68202 0.06818 0.96524 0.0
H156 H 0.70657 0.88466 -0.00731 0.0
C157 C 1.00075 1.04119 0.90414 0.0
C158 C 0.06499 1.02872 0.90313 0.0
C159 C 0.06875 1.02415 0.94715 0.0
C160 C 1.00432 1.03473 0.94805 0.0
N161 N 0.97156 1.04223 0.92649 0.0
N162 N 0.09748 1.02008 0.92471 0.0
H163 H 0.97339 1.04512 0.88721 0.0
C164 C 0.85056 1.01065 0.02833 0.0
O165 O 0.88315 1.0484 0.01411 0.0
O166 O 0.85094 1.04519 0.89169 0.0
H167 H 0.98021 1.03453 0.96569 0.0
H168 H 0.56696 0.05319 0.96461 0.0
H169 H 0.09522 1.01697 0.96414 0.0
Zn170 Zn 0.35855 0.63156 0.67812 0.0
C171 C 0.52818 0.63473 0.71269 0.0
N172 N 0.54894 0.63909 0.68925 0.0
C173 C 0.49692 0.63448 0.67538 0.0
N174 N 0.44568 0.62753 0.68974 0.0
N175 N 0.46498 0.62613 0.71326 0.0
C176 C 0.39876 0.64717 0.78695 0.0
O177 O 0.35923 0.68481 0.77565 0.0
O178 O 0.3523 0.59091 0.64484 0.0
Zn179 Zn 0.40605 0.59685 0.7384 0.0
N180 N 0.33772 0.71992 0.67556 0.0
C181 C 0.33902 0.81983 0.6948 0.0
C182 C 0.34696 0.75528 0.6962 0.0
C183 C 0.31893 0.74657 0.65372 0.0
N184 N 0.32459 0.84676 0.67258 0.0
C185 C 0.31416 0.81181 0.65194 0.0
O186 O 0.31518 0.62973 0.73498 0.0
C187 C 0.27292 0.61254 0.71962 0.0
O188 O 0.28844 0.59293 0.6983 0.0
H189 H 0.36199 0.73364 0.71344 0.0
H190 H 0.31228 0.7177 0.63746 0.0
C191 C 0.44814 0.46996 0.72983 0.0
C192 C 0.44166 0.40458 0.73065 0.0
C193 C 0.33674 0.41653 0.74382 0.0
C194 C 0.34364 0.4811 0.74334 0.0
N195 N 0.39891 0.50669 0.73621 0.0
N196 N 0.3859 0.37987 0.73771 0.0
H197 H 0.49233 0.49144 0.72521 0.0
C198 C 0.373 0.53627 0.64088 0.0
O199 O 0.39986 0.50494 0.6591 0.0
O200 O 0.4332 0.61203 0.7739 0.0
H201 H 0.30556 0.51053 0.74921 0.0
H202 H 0.34695 0.84854 0.71101 0.0
H203 H 0.29305 0.39563 0.74951 0.0
Zn204 Zn 0.80915 0.12123 0.48909 0.0
C205 C 0.77541 0.21275 0.42445 0.0
N206 N 0.78661 0.26467 0.43727 0.0
C207 C 0.79137 0.24419 0.46081 0.0
N208 N 0.78502 0.1806 0.46232 0.0
N209 N 0.77264 0.16165 0.43925 0.0
C210 C 0.84866 0.08433 0.38929 0.0
O211 O 0.88389 0.09757 0.40866 0.0
O212 O 0.76424 0.13615 0.52141 0.0
Zn213 Zn 0.75017 0.07888 0.42582 0.0
N214 N 0.89565 0.13345 0.49791 0.0
C215 C 0.98111 0.09934 0.52296 0.0
C216 C 0.92051 0.09104 0.51401 0.0
C217 C 0.92924 0.18345 0.4901 0.0
N218 N 1.01431 0.15007 0.5156 0.0
C219 C 0.99019 0.19251 0.49921 0.0
O220 O 0.7732 0.99981 0.44417 0.0
C221 C 0.79249 0.98438 0.46568 0.0
O222 O 0.80492 1.02594 0.4819 0.0
H223 H 0.89278 0.05185 0.52026 0.0
H224 H 0.90782 0.21687 0.47778 0.0
C225 C 0.63422 0.07728 0.39805 0.0
C226 C 0.56911 0.08054 0.39524 0.0
C227 C 0.55809 0.06818 0.43881 0.0
C228 C 0.62309 0.06885 0.44166 0.0
N229 N 0.65992 0.07435 0.42124 0.0
N230 N 0.53253 0.07535 0.41574 0.0
H231 H 0.66426 0.08049 0.38196 0.0
C232 C 0.73154 0.09224 0.53048 0.0
O233 O 0.71505 1.0458 0.51602 0.0
O234 O 0.79095 0.0728 0.39252 0.0
H235 H 0.64413 0.06545 0.45998 0.0
H236 H 1.00085 0.06655 0.53616 0.0
H237 H 0.52819 0.06392 0.45489 0.0
Zn238 Zn 0.23652 0.45408 0.17661 0.0
C239 C 0.07483 0.4908 0.21226 0.0
N240 N 0.05249 0.48151 0.18919 0.0
C241 C 0.10379 0.47592 0.17549 0.0
N242 N 0.15609 0.48101 0.18948 0.0
N243 N 0.13882 0.49217 0.21273 0.0
C244 C 0.21772 0.498 0.28396 0.0
O245 O 0.25587 0.46125 0.27188 0.0
O246 O 0.24265 0.48523 0.14174 0.0
Zn247 Zn 0.19836 0.53665 0.23446 0.0
N248 N 0.23089 0.36437 0.1747 0.0
C249 C 0.19348 0.26912 0.19188 0.0
C250 C 0.20838 0.3321 0.19453 0.0
C251 C 0.24113 0.33584 0.15257 0.0
N252 N 0.20076 0.24141 0.16941 0.0
C253 C 0.22481 0.27286 0.14963 0.0
O254 O 0.29345 0.5195 0.23026 0.0
C255 C 0.3342 0.49925 0.21502 0.0
O256 O 0.31756 0.47553 0.19441 0.0
H257 H 0.19979 0.35576 0.21191 0.0
H258 H 0.25695 0.36326 0.13687 0.0
C259 C 0.14572 0.65926 0.2335 0.0
C260 C 0.13776 0.71976 0.2236 0.0
C261 C 0.22607 0.70314 0.19764 0.0
C262 C 0.23201 0.64287 0.20687 0.0
N263 N 0.19155 0.62213 0.22441 0.0
N264 N 0.17898 0.73956 0.20597 0.0
H265 H 0.11692 0.64078 0.24813 0.0
C266 C 0.2385 0.54208 0.13527 0.0
O267 O 0.23275 0.58504 0.15241 0.0
O268 O 0.18015 0.53207 0.2715 0.0
H269 H 0.26809 0.61252 0.19989 0.0
H270 H 0.17437 0.24301 0.20734 0.0
H271 H 0.2577 0.72051 0.18359 0.0
Zn272 Zn 0.7366 0.57685 0.54488 0.0
C273 C 0.77675 0.7431 0.51072 0.0
N274 N 0.7628 0.76341 0.53357 0.0
C275 C 0.75086 0.71104 0.54615 0.0
N276 N 0.75741 0.65981 0.53186 0.0
N277 N 0.7748 0.67923 0.50938 0.0
C278 C 0.72253 0.58361 0.44388 0.0
O279 O 0.70688 0.54062 0.46015 0.0
O280 O 0.77016 0.57343 0.57976 0.0
Zn281 Zn 0.80283 0.62024 0.48342 0.0
N282 N 0.64676 0.57203 0.54739 0.0
C283 C 0.54403 0.56871 0.53017 0.0
C284 C 0.60891 0.56894 0.52704 0.0
C285 C 0.62258 0.57357 0.57063 0.0
N286 N 0.51987 0.57259 0.55348 0.0
C287 C 0.55779 0.57478 0.5739 0.0
O288 O 0.80382 0.52543 0.49159 0.0
C289 C 0.7893 0.48325 0.50736 0.0
O290 O 0.76413 0.49768 0.52784 0.0
H291 H 0.62891 0.56738 0.50861 0.0
H292 H 0.65371 0.57699 0.58644 0.0
C293 C 0.92011 0.68598 0.4838 0.0
C294 C 0.97978 0.69971 0.47465 0.0
C295 C 0.97251 0.61279 0.44764 0.0
C296 C 0.91281 0.60005 0.45653 0.0
N297 N 0.88768 0.63729 0.47424 0.0
N298 N 1.00427 0.66271 0.45664 0.0
H299 H 0.89874 0.71474 0.49771 0.0
C300 C 0.82698 0.5779 0.58643 0.0
O301 O 0.87043 0.58156 0.56932 0.0
O302 O 0.75538 0.62952 0.45106 0.0
H303 H 0.88608 0.56148 0.44911 0.0
H304 H 0.51317 0.56657 0.51417 0.0
H305 H 0.99297 0.58399 0.43337 0.0
Zn306 Zn 0.20822 1.04272 0.74137 0.0
C307 C 0.12352 0.97831 0.80167 0.0
N308 N 0.06995 0.98339 0.78894 0.0
C309 C 0.0884 0.99452 0.7655 0.0
N310 N 0.15226 0.99765 0.76396 0.0
N311 N 0.1734 0.98607 0.7868 0.0
C312 C 0.26543 1.04374 0.84086 0.0
O313 O 0.25919 0.08899 0.82446 0.0
O314 O 0.18924 1.03186 0.70502 0.0
Zn315 Zn 0.25622 0.9598 0.7982 0.0
N316 N 0.20005 0.12859 0.75029 0.0
C317 C 0.23543 0.21006 0.77653 0.0
C318 C 0.24079 0.14953 0.76783 0.0
C319 C 0.15414 0.16566 0.74084 0.0
N320 N 0.18842 0.24653 0.76779 0.0
C321 C 0.14675 0.22641 0.75028 0.0
O322 O 0.33534 0.98338 0.77937 0.0
C323 C 0.34782 1.00939 0.75869 0.0
O324 O 0.30393 1.02903 0.74451 0.0
H325 H 0.27673 0.11912 0.77519 0.0
H326 H 0.12469 0.14715 0.72631 0.0
C327 C 0.2674 0.83916 0.82054 0.0
C328 C 0.25036 0.77628 0.82354 0.0
C329 C 0.20313 0.77854 0.78352 0.0
C330 C 0.21984 0.84094 0.78071 0.0
N331 N 0.25067 0.87023 0.79944 0.0
N332 N 0.21781 0.74778 0.80497 0.0
H333 H 0.28925 0.86456 0.8356 0.0
C334 C 0.223 0.9905 0.69489 0.0
O335 O 0.25435 0.95148 0.70916 0.0
O336 O 0.26679 0.98771 0.83341 0.0
H337 H 0.2056 0.86678 0.76428 0.0
H338 H 0.26743 0.22761 0.79049 0.0
H339 H 0.17638 0.75582 0.7691 0.0
Zn340 Zn 0.78443 0.49325 0.98267 0.0
C341 C 0.84385 0.39841 0.04415 0.0
N342 N 0.83173 0.34735 0.03092 0.0
C343 C 0.81219 0.37 0.009 0.0
N344 N 0.81199 0.43392 0.0087 0.0
N345 N 0.83216 0.45157 0.03113 0.0
C346 C 0.76625 0.55949 0.0848 0.0
O347 O 0.72346 0.57026 0.06768 0.0
O348 O 0.82664 0.47903 0.94999 0.0
Zn349 Zn 0.85638 0.53522 0.04376 0.0
N350 N 0.6971 0.48398 0.97517 0.0
C351 C 0.61031 0.5203 0.95125 0.0
C352 C 0.67257 0.52563 0.95865 0.0
C353 C 0.66209 0.43686 0.98455 0.0
N354 N 0.57574 0.47205 0.96002 0.0
C355 C 0.60006 0.42988 0.97644 0.0
O356 O 0.83556 0.61617 0.02491 0.0
C357 C 0.81099 0.6302 0.00403 0.0
O358 O 0.79337 0.58717 -0.01067 0.0
H359 H 0.70168 0.56177 0.95087 0.0
H360 H 0.68321 0.40384 -0.00273 0.0
C361 C 0.97147 0.52752 0.07062 0.0
C362 C 1.03617 0.52006 0.07337 0.0
C363 C 1.04713 0.5235 0.02954 0.0
C364 C 0.98255 0.53072 0.02685 0.0
N365 N 0.94607 0.53226 0.04744 0.0
N366 N 0.07244 0.51768 0.05271 0.0
H367 H 0.94141 0.52739 0.08674 0.0
C368 C 0.86674 0.51898 0.94301 0.0
O369 O 0.89171 0.55618 0.95966 0.0
O370 O 0.82168 0.54625 0.07819 0.0
H371 H 0.96144 0.53394 0.00854 0.0
H372 H 0.59012 0.55313 0.93813 0.0
H373 H 0.07674 0.52155 0.01333 0.0
Zn374 Zn 0.40281 0.07557 0.23779 0.0
C375 C 0.48901 0.14612 0.29612 0.0
N376 N 0.54011 0.15039 0.28205 0.0
C377 C 0.51913 0.137 0.25906 0.0
N378 N 0.45656 0.12455 0.25915 0.0
N379 N 0.43804 0.13207 0.28242 0.0
C380 C 0.31765 0.05673 0.33787 0.0
O381 O 0.27884 1.02743 0.32295 0.0
O382 O 0.43022 0.07252 0.20202 0.0
Zn383 Zn 0.35363 0.14222 0.29565 0.0
N384 N 0.40501 0.99283 0.25143 0.0
C385 C 0.36912 0.92048 0.28175 0.0
C386 C 0.36572 0.97882 0.2704 0.0
C387 C 0.44767 0.95102 0.24323 0.0
N388 N 0.41313 0.87935 0.27417 0.0
C389 C 0.45335 0.893 0.25535 0.0
O390 O 0.27548 0.12122 0.27474 0.0
C391 C 0.26467 0.10999 0.25185 0.0
O392 O 0.30958 0.09843 0.23703 0.0
H393 H 0.3327 1.01296 0.27688 0.0
H394 H 0.47671 0.9637 0.22764 0.0
C395 C 0.35522 0.25269 0.32485 0.0
C396 C 0.35194 0.31707 0.32898 0.0
C397 C 0.33582 0.33371 0.28579 0.0
C398 C 0.33874 0.26954 0.28176 0.0
N399 N 0.34785 0.23041 0.3014 0.0
N400 N 0.34181 0.35607 0.30931 0.0
H401 H 0.36292 0.22055 0.34015 0.0
C402 C 0.40936 0.11646 0.18841 0.0
O403 O 0.38357 0.16474 0.19929 0.0
O404 O 0.34947 0.10222 0.32957 0.0
H405 H 0.33409 0.25094 0.26317 0.0
H406 H 0.3382 0.90851 0.29689 0.0
H407 H 0.32914 0.36537 0.27029 0.0
Zn408 Zn 0.30434 0.48471 0.49062 0.0
C409 C 0.35563 0.38582 0.432 0.0
N410 N 0.35266 0.33519 0.44652 0.0
C411 C 0.34243 0.35912 0.46914 0.0
N412 N 0.33935 0.42294 0.46839 0.0
N413 N 0.34813 0.439 0.4448 0.0
C414 C 0.27574 0.54094 0.38858 0.0
O415 O 0.23404 0.55597 0.40535 0.0
O416 O 0.31366 0.46228 0.52639 0.0
Zn417 Zn 0.36842 0.52001 0.43008 0.0
N418 N 0.21679 0.4838 0.48309 0.0
C419 C 0.12646 0.52571 0.46319 0.0
C420 C 0.18869 0.53168 0.4707 0.0
C421 C 0.18541 0.43056 0.48849 0.0
N422 N 0.09533 0.47184 0.46811 0.0
C423 C 0.12327 0.42393 0.48066 0.0
O424 O 0.35039 0.60117 0.44846 0.0
C425 C 0.34286 0.61732 0.47098 0.0
O426 O 0.33231 0.57704 0.48801 0.0
H427 H 0.21466 0.57341 0.46619 0.0
H428 H 0.20972 0.39288 0.49788 0.0
C429 C 0.48143 0.51236 0.40242 0.0
C430 C 0.54522 0.50009 0.39906 0.0
C431 C 0.55905 0.49591 0.44282 0.0
C432 C 0.49543 0.50787 0.44607 0.0
N433 N 0.45789 0.51546 0.42579 0.0
N434 N 0.58244 0.49164 0.41942 0.0
H435 H 0.45027 0.51658 0.38657 0.0
C436 C 0.36574 0.46094 0.5378 0.0
O437 O 0.41783 0.46511 0.52511 0.0
O438 O 0.33081 0.52638 0.39556 0.0
H439 H 0.4757 0.50925 0.46455 0.0
H440 H 0.10354 0.56307 0.45309 0.0
H441 H 0.58929 0.48878 0.45879 0.0
Zn442 Zn 0.88877 0.07543 0.23493 0.0
C443 C 0.96522 0.05836 0.17887 0.0
N444 N 1.01134 1.03597 0.19315 0.0
C445 C 1.00867 0.07053 0.21394 0.0
N446 N 0.95593 0.1067 0.21365 0.0
N447 N 0.93254 0.10255 0.19078 0.0
C448 C 0.83159 0.06358 0.13397 0.0
O449 O 0.81327 1.02276 0.15071 0.0
O450 O 0.90308 0.08038 0.27148 0.0
Zn451 Zn 0.86206 0.14841 0.17584 0.0
N452 N 0.88141 0.98807 0.22805 0.0
C453 C 0.82548 0.90133 0.21182 0.0
C454 C 0.82926 0.96492 0.21681 0.0
C455 C 0.92977 0.95043 0.23452 0.0
N456 N 0.87462 0.86393 0.21769 0.0
C457 C 0.92705 0.88697 0.22879 0.0
O458 O 0.77627 0.1415 0.19232 0.0
C459 C 0.75974 0.12595 0.21417 0.0
O460 O 0.79974 0.10594 0.22991 0.0
H461 H 0.79103 0.99533 0.21169 0.0
H462 H 0.97033 0.97015 0.24369 0.0
C463 C 0.88405 0.25934 0.14885 0.0
C464 C 0.89445 0.32309 0.14503 0.0
C465 C 0.90504 0.3365 0.18863 0.0
C466 C 0.89426 0.27276 0.19234 0.0
N467 N 0.88346 0.23563 0.17235 0.0
N468 N 0.90409 0.36039 0.16511 0.0
H469 H 0.87422 0.22927 0.13324 0.0
C470 C 0.92659 0.11849 0.28687 0.0
O471 O 0.95475 0.16922 0.27898 0.0
O472 O 0.85088 0.1167 0.14099 0.0
H473 H 0.89343 0.25323 0.21094 0.0
H474 H 0.78441 0.88201 0.20291 0.0
H475 H 0.91311 0.36691 0.20434 0.0
Zn476 Zn 0.31094 0.60708 -0.01116 0.0
C477 C 0.27117 0.70224 0.92566 0.0
N478 N 0.28162 0.75386 0.93875 0.0
C479 C 0.2894 0.73253 0.96204 0.0
N480 N 0.28558 0.66856 0.9631 0.0
N481 N 0.27231 0.65035 0.94003 0.0
C482 C 0.33617 0.57167 0.88763 0.0
O483 O 0.37577 0.5778 0.90624 0.0
O484 O 0.27301 0.62717 0.02159 0.0
Zn485 Zn 0.244 0.56956 0.92702 0.0
N486 N 0.40006 0.61222 -0.00562 0.0
C487 C 0.4974 0.56274 0.00332 0.0
C488 C 0.43333 0.55906 -0.00142 0.0
C489 C 0.42817 0.66881 -0.00492 0.0
N490 N 0.52563 0.61944 0.00366 0.0
C491 C 0.49242 0.67286 -8e-05 0.0
O492 O 0.26173 0.48694 0.94515 0.0
C493 C 0.27999 0.47069 0.9668 0.0
O494 O 0.29612 0.51206 0.98261 0.0
H495 H 0.4104 0.5142 -0.00161 0.0
H496 H 0.40093 0.71005 -0.00854 0.0
C497 C 0.12515 0.56978 0.90196 0.0
C498 C 0.06165 0.58494 0.89945 0.0
C499 C 0.05776 0.60875 0.94238 0.0
C500 C 0.12144 0.59529 0.9447 0.0
N501 N 0.154 0.57687 0.92437 0.0
N502 N 1.02953 0.60433 0.91973 0.0
H503 H 0.15225 0.55631 0.88592 0.0
C504 C 0.22984 0.59198 0.02952 0.0
O505 O 0.20443 0.55145 0.01427 0.0
O506 O 0.27852 0.56379 0.89237 0.0
H507 H 0.14521 0.60109 0.96237 0.0
H508 H 0.52449 0.52091 0.00669 0.0
H509 H 1.03134 0.62409 0.95832 0.0
Zn510 Zn 0.75005 0.95731 0.67861 0.0
C511 C 0.58704 1.00428 0.7124 0.0
N512 N 0.56558 0.98856 0.68976 0.0
C513 C 0.61767 0.97766 0.67692 0.0
N514 N 0.66928 0.98588 0.69097 0.0
N515 N 0.65099 1.00473 0.71325 0.0
C516 C 0.72285 1.00721 0.7819 0.0
O517 O 0.75168 0.96384 0.76916 0.0
O518 O 0.75938 0.99081 0.64384 0.0
Zn519 Zn 0.71005 0.05288 0.73345 0.0
N520 N 0.7399 0.86769 0.67535 0.0
C521 C 0.6948 0.77318 0.69031 0.0
C522 C 0.71281 0.83505 0.69417 0.0
C523 C 0.75116 0.8404 0.65304 0.0
N524 N 0.70381 0.74672 0.66769 0.0
C525 C 0.73205 0.77859 0.64894 0.0
O526 O 0.80399 1.02967 0.73072 0.0
C527 C 0.84593 1.00261 0.71787 0.0
O528 O 0.83116 0.97418 0.69796 0.0
H529 H 0.7031 0.85767 0.71168 0.0
H530 H 0.77097 0.86786 0.63809 0.0
C531 C 0.65317 0.17401 0.72472 0.0
C532 C 0.65217 0.23609 0.7158 0.0
C533 C 0.75674 0.22383 0.70199 0.0
C534 C 0.75728 0.16269 0.71076 0.0
N535 N 0.70572 0.13893 0.72203 0.0
N536 N 0.70454 0.2589 0.70474 0.0
H537 H 0.61285 0.15323 0.73346 0.0
C538 C 0.75318 1.04728 0.63696 0.0
O539 O 0.74425 0.09045 0.65382 0.0
O540 O 0.69266 1.04933 0.77023 0.0
H541 H 0.79857 0.13437 0.70848 0.0
H542 H 0.67225 0.74694 0.70495 0.0
H543 H 0.7975 0.24335 0.69304 0.0
C544 C 0.17387 0.213 0.11506 0.0
C545 C 0.22715 0.24315 0.12484 0.0
C546 C 0.17123 0.19499 0.08992 0.0
C547 C 0.22338 0.20207 0.07451 0.0
H548 H 0.13228 0.208 0.1263 0.0
H549 H 0.12743 0.17864 0.08222 0.0
S550 S 0.37766 0.26704 0.09242 0.0
N551 N 0.33498 0.27354 0.11778 0.0
N552 N 0.33177 0.23451 0.07136 0.0
C553 C 0.27848 0.22713 0.08471 0.0
C554 C 0.28013 0.24856 0.10973 0.0
C555 C 0.55807 0.53884 0.35567 0.0
C556 C 0.57043 0.49292 0.37373 0.0
C557 C 0.57301 0.52907 0.33071 0.0
C558 C 0.59989 0.47267 0.32281 0.0
H559 H 0.53518 0.58196 0.36078 0.0
H560 H 0.56127 0.56516 0.31726 0.0
S561 S 0.64333 0.33917 0.363 0.0
N562 N 0.61515 0.39116 0.3825 0.0
N563 N 0.63821 0.37068 0.33497 0.0
C564 C 0.61363 0.42698 0.3407 0.0
C565 C 0.60038 0.43782 0.36636 0.0
C566 C 0.25594 0.866 0.58865 0.0
C567 C 0.31191 0.88351 0.57682 0.0
C568 C 0.25578 0.8455 0.61355 0.0
C569 C 0.31162 0.84232 0.62733 0.0
H570 H 0.21241 0.86567 0.57823 0.0
H571 H 0.21232 0.83005 0.62176 0.0
S572 S 0.47017 0.87804 0.60475 0.0
N573 N 0.42448 0.8916 0.58045 0.0
N574 N 0.4236 0.8578 0.62773 0.0
C575 C 0.36725 0.86146 0.61603 0.0
C576 C 0.36766 0.88062 0.59058 0.0
C577 C 1.01933 0.64106 0.86231 0.0
C578 C 1.03154 0.58448 0.87477 0.0
C579 C 0.99986 0.64162 0.8373 0.0
C580 C 0.99127 0.58555 0.82426 0.0
H581 H 1.02793 0.68505 0.87156 0.0
H582 H 0.99474 0.68599 0.82777 0.0
S583 S 1.01258 0.4256 0.84927 0.0
N584 N 1.0305 0.47151 0.87286 0.0
N585 N 0.99356 0.47242 0.82591 0.0
C586 C 1.00092 0.52889 0.8369 0.0
C587 C 1.02096 0.52836 0.86222 0.0
C588 C 0.95461 0.88693 0.86343 0.0
C589 C 0.90254 0.87178 0.84857 0.0
C590 C 0.94749 0.9028 0.88861 0.0
C591 C 0.88793 0.90678 0.89923 0.0
H592 H 1.00114 0.88212 0.85599 0.0
H593 H 0.98867 0.90869 0.90014 0.0
S594 S 0.73667 0.87491 0.86787 0.0
N595 N 0.78944 0.86408 0.84602 0.0
N596 N 0.77608 0.89534 0.89306 0.0
C597 C 0.83547 0.89456 0.88423 0.0
C598 C 0.84271 0.87714 0.85888 0.0
C599 C 0.54178 0.56522 0.64373 0.0
C600 C 0.50197 0.61552 0.64908 0.0
C601 C 0.55714 0.55009 0.61927 0.0
C602 C 0.53213 0.58387 0.59909 0.0
H603 H 0.56323 0.5387 0.65871 0.0
H604 H 0.5901 0.5126 0.61616 0.0
S605 S 0.42297 0.71691 0.60267 0.0
N606 N 0.43767 0.69877 0.63208 0.0
N607 N 0.46273 0.66699 0.58575 0.0
C608 C 0.48959 0.63196 0.60401 0.0
C609 C 0.47561 0.64886 0.62909 0.0
C610 C 0.72204 0.19912 0.38353 0.0
C611 C 0.77599 0.21355 0.3971 0.0
C612 C 0.71958 0.20736 0.35762 0.0
C613 C 0.76929 0.23572 0.34491 0.0
H614 H 0.68009 0.18667 0.39331 0.0
H615 H 0.67613 0.19804 0.34792 0.0
S616 S 0.92044 0.28507 0.37219 0.0
N617 N 0.881 0.25641 0.39598 0.0
N618 N 0.87463 0.27701 0.3476 0.0
C619 C 0.82397 0.24985 0.35824 0.0
C620 C 0.82735 0.23871 0.38436 0.0
C621 C 0.06477 0.55892 0.11558 0.0
C622 C 0.06372 0.51022 0.09825 0.0
C623 C 0.08286 0.54783 0.14034 0.0
C624 C 0.0999 0.48767 0.14855 0.0
H625 H 1.04973 0.6053 0.11013 0.0
H626 H 0.08087 0.58601 0.15345 0.0
S627 S 0.10462 0.34572 0.11024 0.0
N628 N 0.08305 0.40089 0.0905 0.0
N629 N 0.11319 0.37934 0.13759 0.0
C630 C 0.09969 0.43911 0.13132 0.0
C631 C 0.08267 0.45065 0.10598 0.0
C632 C 0.68556 0.72956 0.61087 0.0
C633 C 0.73866 0.7501 0.62412 0.0
C634 C 0.68991 0.71201 0.58573 0.0
C635 C 0.74774 0.71241 0.57349 0.0
H636 H 0.63994 0.73082 0.6195 0.0
H637 H 0.64746 0.70181 0.57547 0.0
S638 S 0.90067 0.75772 0.60063 0.0
N639 N 0.85076 0.76651 0.62364 0.0
N640 N 0.85909 0.73276 0.57668 0.0
C641 C 0.80127 0.73013 0.58696 0.0
C642 C 0.79676 0.74879 0.61227 0.0
C643 C 0.10863 0.05216 0.836 0.0
C644 C 0.12391 0.99133 0.82847 0.0
C645 C 0.09378 0.0651 0.86076 0.0
C646 C 0.09448 1.01771 0.87885 0.0
H647 H 0.10477 0.08935 0.82234 0.0
H648 H 0.07881 0.11176 0.86557 0.0
S649 S 0.13319 0.85155 0.86891 0.0
N650 N 0.13929 0.88361 0.841 0.0
N651 N 0.11452 0.90858 0.88802 0.0
C652 C 0.11305 0.9575 0.87188 0.0
C653 C 0.12678 0.94401 0.84649 0.0
C654 C 0.84162 0.39273 0.1143 0.0
C655 C 0.88957 0.35003 0.11974 0.0
C656 C 0.82922 0.4117 0.08972 0.0
C657 C 0.86688 0.39213 0.06998 0.0
H658 H 0.81001 0.407 0.12885 0.0
H659 H 0.78642 0.43665 0.08589 0.0
S660 S 0.99146 0.27209 0.07386 0.0
N661 N 0.96914 0.28164 0.10297 0.0
N662 N 0.94999 0.32227 0.05719 0.0
C663 C 0.91513 0.34931 0.07525 0.0
C664 C 0.9257 0.3274 0.10004 0.0
C665 C 0.55134 0.15785 0.36141 0.0
C666 C 0.54116 0.09774 0.37101 0.0
C667 C 0.52928 0.17516 0.33775 0.0
C668 C 0.49607 0.13282 0.3229 0.0
H669 H 0.57833 0.19113 0.37203 0.0
H670 H 0.54084 0.22103 0.33057 0.0
S671 S 0.46374 0.96709 0.33843 0.0
N672 N 0.49858 0.99473 0.36359 0.0
N673 N 0.45942 1.02601 0.31854 0.0
C674 C 0.48623 0.07208 0.3322 0.0
C675 C 0.50806 0.05484 0.35646 0.0
C676 C 0.30672 0.37434 0.3648 0.0
C677 C 0.3573 0.34214 0.35439 0.0
C678 C 0.3078 0.3921 0.38989 0.0
C679 C 0.3604 0.38035 0.40495 0.0
H680 H 0.26486 0.38293 0.35386 0.0
H681 H 0.26614 0.4123 0.39788 0.0
S682 S 0.50171 0.29341 0.3873 0.0
N683 N 0.45972 0.29639 0.36144 0.0
N684 N 0.46191 0.33173 0.40844 0.0
C685 C 0.41109 0.34868 0.39474 0.0
C686 C 0.40967 0.32939 0.36944 0.0
C687 C 0.99305 0.10743 0.13876 0.0
C688 C 0.97146 0.05468 0.15176 0.0
C689 C 1.01614 0.10215 0.11455 0.0
C690 C 1.01764 1.04414 0.10252 0.0
H691 H 0.99562 0.1523 0.14791 0.0
H692 H 1.0345 0.14332 0.10542 0.0
S693 S 0.96229 0.89328 0.12794 0.0
N694 N 0.95092 0.94345 0.15071 0.0
N695 N 0.9918 0.93398 0.1046 0.0
C696 C 0.99304 0.99181 0.11479 0.0
C697 C 0.97088 0.99692 0.13966 0.0
C698 C 0.21322 0.69899 0.88515 0.0
C699 C 0.26967 0.70506 0.89832 0.0
C700 C 0.20883 0.71682 0.85999 0.0
C701 C 0.25992 0.74452 0.84777 0.0
H702 H 0.17128 0.68499 0.89474 0.0
H703 H 0.16381 0.71382 0.85073 0.0
S704 S 0.4193 0.76575 0.8737 0.0
N705 N 0.37883 0.73556 0.89688 0.0
N706 N 0.37004 0.77149 0.85001 0.0
C707 C 0.31727 0.74817 0.86048 0.0
C708 C 0.32208 0.72843 0.88575 0.0
C709 C 0.61194 0.93615 0.60857 0.0
C710 C 0.59051 0.9925 0.59793 0.0
C711 C 0.62343 0.93129 0.63429 0.0
C712 C 0.61673 0.98339 0.64971 0.0
H713 H 0.61456 0.89435 0.59738 0.0
H714 H 0.63385 0.88606 0.64227 0.0
S715 S 0.57255 0.14358 0.63023 0.0
N716 N 0.56998 0.10265 0.6043 0.0
N717 N 0.59385 0.0941 0.65236 0.0
C718 C 0.6002 1.04091 0.63893 0.0
C719 C 0.5872 1.04552 0.61303 0.0
C720 C 0.33938 0.88772 0.98612 0.0
C721 C 0.29124 0.90406 0.00256 0.0
C722 C 0.34433 0.82711 0.97639 0.0
C723 C 0.30049 0.77981 0.98193 0.0
H724 H 0.37261 0.92266 0.98005 0.0
H725 H 0.37988 0.81874 0.96251 0.0
S726 S 0.16679 0.79694 0.02486 0.0
N727 N 0.20114 0.86597 0.02548 0.0
N728 N 0.20856 0.75341 0.00587 0.0
C729 C 0.25413 0.79433 -0.00059 0.0
C730 C 0.24986 0.85601 0.00992 0.0
C731 C 0.98191 0.54859 0.22483 0.0
C732 C 1.02873 0.50555 0.23189 0.0
C733 C 0.92003 0.54293 0.23307 0.0
C734 C 0.90216 0.49554 0.2497 0.0
H735 H 0.99159 0.58306 0.21053 0.0
H736 H 0.88542 0.57503 0.22565 0.0
S737 S 1.00805 0.37531 0.27667 0.0
N738 N 0.05356 0.41625 0.25796 0.0
N739 N 0.93824 0.40822 0.27508 0.0
C740 C 0.94965 0.4557 0.25891 0.0
C741 C 1.01266 0.46036 0.24979 0.0
C742 C 0.27891 0.27364 0.48624 0.0
C743 C 0.32973 0.31465 0.48984 0.0
C744 C 0.28064 0.21129 0.49466 0.0
C745 C 0.33275 0.18711 0.50764 0.0
H746 H 0.24024 0.28779 0.47436 0.0
H747 H 0.24192 0.18094 0.48992 0.0
S748 S 0.47471 0.27678 0.52498 0.0
N749 N 0.43161 0.32736 0.50913 0.0
N750 N 0.43357 0.2116 0.52622 0.0
C751 C 0.38119 0.22918 0.51361 0.0
C752 C 0.37989 0.29249 0.5045 0.0
C753 C 0.67862 0.58082 0.73989 0.0
C754 C 0.70218 0.63497 0.75137 0.0
C755 C 0.61662 0.57731 0.73117 0.0
C756 C 0.57519 0.62814 0.73302 0.0
H757 H 0.70916 0.54146 0.73662 0.0
H758 H 0.60297 0.53654 0.7206 0.0
S759 S 0.61209 0.77987 0.7625 0.0
N760 N 0.67732 0.73919 0.76577 0.0
N761 N 0.56178 0.73363 0.74816 0.0
C762 C 0.59689 0.68126 0.74574 0.0
C763 C 0.66001 0.68446 0.75517 0.0
C764 C 0.84088 0.30842 0.97146 0.0
C765 C 0.79567 0.32405 -0.01066 0.0
C766 C 0.84584 0.24701 0.96203 0.0
C767 C 0.80654 0.19828 0.97045 0.0
H768 H 0.87666 0.34204 0.96664 0.0
H769 H 0.88373 0.23676 0.94943 0.0
S770 S 0.67568 0.21652 0.0148 0.0
N771 N 0.70703 0.28672 0.01305 0.0
N772 N 0.71612 0.17268 -0.00441 0.0
C773 C 0.75796 0.21478 0.98668 0.0
C774 C 0.75245 0.27717 -0.00409 0.0
C775 C 0.12841 0.63271 0.75992 0.0
C776 C 0.07921 0.60524 0.74616 0.0
C777 C 0.1898 0.63518 0.75102 0.0
C778 C 0.20554 0.6122 0.72746 0.0
H779 H 0.12019 0.64929 0.77864 0.0
H780 H 0.22566 0.6538 0.76317 0.0
S781 S 0.0934 0.54196 0.68239 0.0
N782 N 1.05006 0.55816 0.70685 0.0
N783 N 0.16496 0.56524 0.68942 0.0
C784 C 0.15618 0.58812 0.71266 0.0
C785 C 0.09329 0.58437 0.72209 0.0
C786 C 0.8409 0.89651 0.49052 0.0
C787 C 0.79738 0.91643 0.47245 0.0
C788 C 0.8405 0.83504 0.49982 0.0
C789 C 0.79596 0.79054 0.4919 0.0
H790 H 0.87379 0.92945 0.49842 0.0
H791 H 0.87164 0.82397 0.51522 0.0
S792 S 0.67528 0.81679 0.44328 0.0
N793 N 0.71213 0.88436 0.44513 0.0
N794 N 0.71014 0.76991 0.46355 0.0
C795 C 0.75524 0.80837 0.47255 0.0
C796 C 0.75615 0.87096 0.46268 0.0
C797 C 0.42314 0.54884 0.23877 0.0
C798 C 0.40258 0.50429 0.22141 0.0
C799 C 0.48524 0.54961 0.24755 0.0
C800 C 0.52968 0.50503 0.23992 0.0
H801 H 0.39028 0.5817 0.2466 0.0
H802 H 0.49664 0.58099 0.26266 0.0
S803 S 0.50307 0.38477 0.19182 0.0
N804 N 0.43476 0.42009 0.19412 0.0
N805 N 0.5504 0.41993 0.2117 0.0
C806 C 0.51146 0.46406 0.2209 0.0
C807 C 0.44825 0.46388 0.21151 0.0
C808 C 0.84591 0.398 0.48465 0.0
C809 C 0.79777 0.41573 0.50082 0.0
C810 C 0.84917 0.33729 0.47497 0.0
C811 C 0.80394 0.29132 0.48055 0.0
H812 H 0.87972 0.43218 0.4784 0.0
H813 H 0.88416 0.32807 0.46097 0.0
S814 S 0.67092 0.31189 0.52352 0.0
N815 N 0.70673 0.38019 0.52386 0.0
N816 N 0.71176 0.2671 0.50468 0.0
C817 C 0.75818 0.30693 0.49808 0.0
C818 C 0.75529 0.36881 0.50836 0.0
C819 C 0.46198 0.97606 0.75943 0.0
C820 C 0.4149 1.01753 0.75099 0.0
C821 C 0.52334 0.97802 0.74972 0.0
C822 C 0.54059 1.02231 0.73156 0.0
H823 H 0.45029 0.93901 0.77236 0.0
H824 H 0.55554 0.94092 0.7547 0.0
S825 S 0.43864 0.14791 0.70626 0.0
N826 N 0.39299 0.10924 0.72561 0.0
N827 N 0.50725 0.11279 0.70769 0.0
C828 C 0.49559 0.06746 0.72482 0.0
C829 C 0.43315 0.06501 0.73433 0.0
C830 C 0.84353 0.80695 -0.00128 0.0
C831 C 0.81522 0.82318 0.97585 0.0
C832 C 0.83882 0.7456 0.0086 0.0
C833 C 0.80658 0.69765 -0.00422 0.0
H834 H 0.8739 0.84011 0.00795 0.0
H835 H 0.86416 0.7348 0.02559 0.0
S836 S 0.72073 0.71793 0.93589 0.0
N837 N 0.75061 0.78737 0.94158 0.0
N838 N 0.74159 0.67387 0.95978 0.0
C839 C 0.77471 0.715 0.97376 0.0
C840 C 0.77905 0.77708 0.96396 0.0
C841 C 0.08425 0.09654 0.24964 0.0
C842 C 0.07131 0.09125 0.22401 0.0
C843 C 0.14633 0.10496 0.25857 0.0
C844 C 0.19823 0.10688 0.24229 0.0
H845 H 1.04683 0.09133 0.26291 0.0
H846 H 0.15385 0.10742 0.27849 0.0
S847 S 0.18937 0.0957 0.17334 0.0
N848 N 0.11622 0.09283 0.18242 0.0
N849 N 0.23089 0.1031 0.19909 0.0
C850 C 0.18535 0.10282 0.21664 0.0
C851 C 0.12267 0.09652 0.20759 0.0
C852 C 0.28726 0.78594 0.47789 0.0
C853 C 0.33116 0.81199 0.49453 0.0
C854 C 0.29343 0.72416 0.46911 0.0
C855 C 0.34248 0.68511 0.47735 0.0
H856 H 0.24546 0.81157 0.47298 0.0
H857 H 0.25723 0.70548 0.4571 0.0
S858 S 0.47124 0.73075 0.51994 0.0
N859 N 0.42766 0.79416 0.51754 0.0
N860 N 0.43742 0.67801 0.50203 0.0
C861 C 0.38801 0.7112 0.49307 0.0
C862 C 0.38286 0.77452 0.50133 0.0
C863 C 0.67313 0.07849 0.23889 0.0
C864 C 0.69206 0.12283 0.22108 0.0
C865 C 0.61178 0.07668 0.24786 0.0
C866 C 0.56644 0.12036 0.24014 0.0
H867 H 0.70674 1.04608 0.24679 0.0
H868 H 0.60152 1.0447 0.26299 0.0
S869 S 0.58949 0.24252 0.19206 0.0
N870 N 0.65815 0.20743 0.19393 0.0
N871 N 0.54355 0.20668 0.2122 0.0
C872 C 0.58329 0.16255 0.22119 0.0
C873 C 0.64585 0.16326 0.2114 0.0
C874 C 0.31382 0.32075 0.00398 0.0
C875 C 0.27154 0.27647 -0.00584 0.0
C876 C 0.31816 0.38199 -0.00561 0.0
C877 C 0.28082 0.4024 0.97422 0.0
H878 H 0.34008 0.30957 0.02073 0.0
H879 H 0.34917 0.41441 0.00367 0.0
S880 S 0.16722 0.30305 0.93983 0.0
N881 N 0.19475 0.25646 0.9619 0.0
N882 N 0.20407 0.37026 0.94318 0.0
C883 C 0.24198 0.35705 0.96288 0.0
C884 C 0.23709 0.29466 0.97297 0.0
C885 C 0.99203 0.05157 0.75438 0.0
C886 C 1.03915 1.01003 0.74667 0.0
C887 C 0.93086 1.04922 0.74469 0.0
C888 C 0.91341 1.00614 0.72623 0.0
H889 H 1.00116 0.0831 0.76968 0.0
H890 H 0.89643 0.08058 0.7524 0.0
S891 S 1.01997 0.88898 0.69827 0.0
N892 N 0.06447 0.92539 0.71882 0.0
N893 N 0.95059 0.92276 0.69948 0.0
C894 C 0.96114 0.96675 0.7171 0.0
C895 C 1.02356 0.96845 0.72746 0.0
C896 C 0.25521 0.13231 0.90185 0.0
C897 C 0.25477 0.08411 0.91958 0.0
C898 C 0.25898 0.11892 0.87636 0.0
C899 C 0.264 0.05697 0.8679 0.0
H900 H 0.25192 0.18048 0.9077 0.0
H901 H 0.25791 0.15744 0.86325 0.0
S902 S 0.27078 0.91469 0.9078 0.0
N903 N 0.26239 0.97281 0.92751 0.0
N904 N 0.27188 0.94725 0.8799 0.0
C905 C 0.2653 1.00853 0.88576 0.0
C906 C 0.26002 1.02222 0.91154 0.0
C907 C 0.7975 0.54004 0.12892 0.0
C908 C 0.74944 0.55151 0.11145 0.0
C909 C 0.78422 0.52283 0.15342 0.0
C910 C 0.72236 0.51782 0.16174 0.0
H911 H 0.84613 0.54207 0.12348 0.0
H912 H 0.82296 0.5131 0.16594 0.0
S913 S 0.57916 0.54869 0.12466 0.0
N914 N 0.6369 0.56008 0.10487 0.0
N915 N 0.61244 0.52983 0.15149 0.0
C916 C 0.67371 0.53248 0.1451 0.0
C917 C 0.68711 0.54893 0.11983 0.0
C918 C 0.36282 0.07515 0.38015 0.0
C919 C 0.32505 1.03839 0.36445 0.0
C920 C 0.37036 0.06078 0.40538 0.0
C921 C 0.33988 1.00941 0.41623 0.0
H922 H 0.38641 0.11619 0.37304 0.0
H923 H 0.39878 0.09171 0.4166 0.0
S924 S 0.23868 0.89568 0.38325 0.0
N925 N 0.25925 0.94609 0.36145 0.0
N926 N 0.27262 0.91974 0.40916 0.0
C927 C 0.30298 0.9713 0.40076 0.0
C928 C 0.2957 0.98565 0.37485 0.0
C929 C 0.90485 0.59895 0.62056 0.0
C930 C 0.84246 0.58841 0.61305 0.0
C931 C 0.91975 0.61408 0.64531 0.0
C932 C 0.87259 0.62046 0.66313 0.0
H933 H 0.94245 0.59628 0.60722 0.0
H934 H 0.96819 0.62163 0.65045 0.0
S935 S 0.70336 0.59122 0.65424 0.0
N936 N 0.734 0.58035 0.6265 0.0
N937 N 0.76238 0.61032 0.67255 0.0
C938 C 0.81053 0.60862 0.65616 0.0
C939 C 0.79536 0.5921 0.63124 0.0
C940 C 0.86984 0.07707 0.06538 0.0
C941 C 0.85084 1.01939 0.05562 0.0
C942 C 0.86286 0.09062 0.0906 0.0
C943 C 0.83738 1.04677 0.10731 0.0
H944 H 0.88842 0.11314 0.05332 0.0
H945 H 0.8775 0.13626 0.09693 0.0
S946 S 0.78625 0.88621 0.0915 0.0
N947 N 0.80907 0.91642 0.06472 0.0
N948 N 0.79696 0.94136 0.11244 0.0
C949 C 0.82037 0.98787 0.09798 0.0
C950 C 0.82693 0.9743 0.0721 0.0
C951 C 0.32374 0.61525 0.81941 0.0
C952 C 0.38573 0.62839 0.81279 0.0
C953 C 0.30891 0.59394 0.84327 0.0
C954 C 0.35533 0.58629 0.86173 0.0
H955 H 0.28622 0.62082 0.80594 0.0
H956 H 0.26018 0.58523 0.84738 0.0
S957 S 0.52553 0.61278 0.85322 0.0
N958 N 0.49438 0.6299 0.82582 0.0
N959 N 0.46673 0.59206 0.87126 0.0
C960 C 0.41793 0.59839 0.85515 0.0
C961 C 0.43306 0.61894 0.83054 0.0
C962 C 0.74609 1.01197 0.59288 0.0
C963 C 0.74711 0.06156 0.60997 0.0
C964 C 0.73745 1.02249 0.56742 0.0
C965 C 0.73094 0.08319 0.55777 0.0
H966 H 0.75152 0.96416 0.59915 0.0
H967 H 0.73808 0.98258 0.55514 0.0
S968 S 0.7287 0.22949 0.59419 0.0
N969 N 0.73873 0.17402 0.61529 0.0
N970 N 0.72479 0.1937 0.56708 0.0
C971 C 0.73156 0.13337 0.57447 0.0
C972 C 0.73919 0.12261 0.60062 0.0
C973 C 0.30519 0.51742 0.34475 0.0
C974 C 0.25843 0.53378 0.36186 0.0
C975 C 0.29088 0.50505 0.31986 0.0
C976 C 0.22937 0.50975 0.31071 0.0
H977 H 0.35349 0.51276 0.35065 0.0
H978 H 0.32881 0.49248 0.30759 0.0
S979 S 0.08959 0.55327 0.34708 0.0
N980 N 0.14754 0.55505 0.36754 0.0
N981 N 0.12129 0.53362 0.32029 0.0
C982 C 0.18217 0.52773 0.32724 0.0
C983 C 0.19654 0.53937 0.35288 0.0
C984 C 0.71422 0.60224 0.37369 0.0
C985 C 0.73243 0.54287 0.36519 0.0
C986 C 0.70954 0.61504 0.39922 0.0
C987 C 0.72139 0.56851 0.41712 0.0
H988 H 0.70374 0.63934 0.36056 0.0
H989 H 0.6967 0.66163 0.405 0.0
S990 S 0.77372 0.40645 0.40506 0.0
N991 N 0.76531 0.43798 0.37717 0.0
N992 N 0.75416 0.46154 0.42486 0.0
C993 C 0.73931 0.50897 0.40898 0.0
C994 C 0.74548 0.49628 0.38309 0.0
C995 C 0.21384 1.0185 0.62526 0.0
C996 C 0.27729 1.01949 0.61831 0.0
C997 C 0.19619 1.00873 0.65009 0.0
C998 C 0.24132 0.99829 0.6687 0.0
H999 H 0.17734 1.02504 0.61144 0.0
H1000 H 0.14698 1.00869 0.65473 0.0
S1001 S 0.41355 1.0007 0.66101 0.0
N1002 N 0.38541 1.01274 0.63272 0.0
N1003 N 0.35194 0.99301 0.67908 0.0
C1004 C 0.3048 0.99986 0.66218 0.0
C1005 C 0.32288 1.01082 0.63706 0.0
C1006 C 0.85763 0.48982 0.89818 0.0
C1007 C 0.86933 0.53551 0.91629 0.0
C1008 C 0.85115 0.50585 0.87296 0.0
C1009 C 0.85516 0.56834 0.86494 0.0
H1010 H 0.85263 0.44134 0.90359 0.0
H1011 H 0.8426 0.46889 0.85971 0.0
S1012 S 0.88441 0.70605 0.90523 0.0
N1013 N 0.88472 0.646 0.92455 0.0
N1014 N 0.87159 0.67635 0.87741 0.0
C1015 C 0.86718 0.61453 0.88295 0.0
C1016 C 0.87464 0.59806 0.90853 0.0
C1017 C 0.33884 0.12696 0.15195 0.0
C1018 C 0.39514 0.10413 0.16191 0.0
C1019 C 0.31692 0.10744 0.12876 0.0
C1020 C 0.35244 0.06832 0.11349 0.0
H1021 H 0.30966 0.15792 0.16267 0.0
H1022 H 0.2712 0.12293 0.12283 0.0
S1023 S 0.50617 0.9988 0.13015 0.0
N1024 N 0.48694 1.04006 0.15484 0.0
N1025 N 0.44869 1.0085 0.1098 0.0
C1026 C 0.4105 1.04705 0.12271 0.0
C1027 C 0.43132 0.06415 0.14715 0.0
C1028 C 0.32151 0.51491 0.57425 0.0
C1029 C 0.3661 0.47341 0.5647 0.0
C1030 C 0.32372 0.53379 0.59904 0.0
C1031 C 0.36963 0.51072 0.61546 0.0
H1032 H 0.28593 0.53509 0.56223 0.0
H1033 H 0.28945 0.56738 0.60529 0.0
S1034 S 0.49438 0.39716 0.60004 0.0
N1035 N 0.45645 0.40826 0.5735 0.0
N1036 N 0.45859 0.44087 0.6208 0.0
C1037 C 0.41293 0.4669 0.60646 0.0
C1038 C 0.41182 0.44915 0.58087 0.0
C1039 C 0.83318 0.07507 0.34359 0.0
C1040 C 0.87266 0.09083 0.3636 0.0
C1041 C 0.85165 0.08422 0.31903 0.0
C1042 C 0.91019 0.11017 0.31329 0.0
H1043 H 0.78704 0.05599 0.34683 0.0
H1044 H 0.81904 0.07176 0.30436 0.0
S1045 S 1.03235 0.15774 0.35844 0.0
N1046 N 0.97445 0.13201 0.37591 0.0
N1047 N 1.00834 0.1505 0.32931 0.0
C1048 C 0.95049 0.12614 0.33291 0.0
C1049 C 0.93206 0.11588 0.35815 0.0
C1050 C 0.21858 0.52177 0.06586 0.0
C1051 C 0.22418 0.58276 0.05654 0.0
C1052 C 0.22378 0.50946 0.0913 0.0
C1053 C 0.23336 0.5578 0.10853 0.0
H1054 H 0.21276 0.48269 0.05335 0.0
H1055 H 0.22046 0.46135 0.09741 0.0
S1056 S 0.24844 0.72629 0.09348 0.0
N1057 N 0.23884 0.69232 0.06621 0.0
N1058 N 0.24623 0.66964 0.11441 0.0
C1059 C 0.2371 0.61942 0.09951 0.0
C1060 C 0.23308 0.63177 0.07342 0.0
C1061 C 0.71305 1.03917 0.85114 0.0
C1062 C 0.77647 1.03986 0.85849 0.0
C1063 C 0.69552 1.02879 0.82626 0.0
C1064 C 0.74076 1.01731 0.80806 0.0
H1065 H 0.67654 1.04624 0.8647 0.0
H1066 H 0.64636 1.02872 0.82131 0.0
S1067 S 0.91286 1.01995 0.8167 0.0
N1068 N 0.88464 1.03288 0.8447 0.0
N1069 N 0.8513 1.01123 0.79839 0.0
C1070 C 0.80414 1.01887 0.81495 0.0
C1071 C 0.82212 1.03079 0.84005 0.0
C1072 C 0.5649 0.35196 0.00814 0.0
C1073 C 0.56352 0.37444 0.98352 0.0
C1074 C 0.53556 0.29582 0.01448 0.0
C1075 C 0.50406 0.26046 -0.00359 0.0
H1076 H 0.58951 0.37749 0.02252 0.0
H1077 H 0.53811 0.27963 0.03359 0.0
S1078 S 0.48733 0.29908 0.92931 0.0
N1079 N 0.52758 0.35771 0.94108 0.0
N1080 N 0.47334 0.25158 0.95289 0.0
C1081 C 0.50127 0.28308 0.97183 0.0
C1082 C 0.53072 0.34037 0.96543 0.0
C1083 C 0.54029 0.73974 0.25264 0.0
C1084 C 0.60201 0.75835 0.24793 0.0
C1085 C 0.49193 0.7836 0.25345 0.0
C1086 C 0.50347 0.84759 0.24955 0.0
H1087 H 0.52977 0.69166 0.25721 0.0
H1088 H 0.4455 0.76747 0.2582 0.0
S1089 S 0.65699 0.91801 0.23351 0.0
N1090 N 0.67162 0.84292 0.23667 0.0
N1091 N 0.58166 0.92616 0.23899 0.0
C1092 C 0.5647 0.86606 0.24331 0.0
C1093 C 0.61373 0.82118 0.24236 0.0
C1094 C 0.07553 0.8476 0.47115 0.0
C1095 C 0.07766 0.86773 0.496 0.0
C1096 C 1.04428 0.79276 0.46458 0.0
C1097 C 1.01384 0.7562 0.48259 0.0
H1098 H 0.09791 0.87456 0.45662 0.0
H1099 H 1.04321 0.77937 0.44517 0.0
S1100 S 1.01027 0.78601 0.55051 0.0
N1101 N 1.04928 0.84564 0.53884 0.0
N1102 N 0.9911 0.7419 0.52657 0.0
C1103 C 1.0162 0.77541 0.50757 0.0
C1104 C 1.04782 0.83146 0.51423 0.0
C1105 C 0.1024 0.33334 0.74762 0.0
C1106 C 0.09438 0.26901 0.74326 0.0
C1107 C 0.05217 0.37479 0.74654 0.0
C1108 C 0.99171 0.35386 0.74067 0.0
H1109 H 0.14753 0.35178 0.75313 0.0
H1110 H 0.06047 0.42281 0.75179 0.0
S1111 S 0.94595 0.19405 0.72252 0.0
N1112 N 1.02085 0.18842 0.72972 0.0
N1113 N 0.92742 0.26782 0.72669 0.0
C1114 C 0.98351 0.29124 0.73411 0.0
C1115 C 1.03457 0.24844 0.73551 0.0
C1116 C 0.60836 0.79672 0.98149 0.0
C1117 C 0.58285 0.85129 -0.00843 0.0
C1118 C 0.58007 0.73872 0.98518 0.0
C1119 C 0.52483 0.73348 -0.00103 0.0
H1120 H 0.64907 0.79938 0.96983 0.0
H1121 H 0.60013 0.69815 0.9763 0.0
S1122 S 0.44511 0.86104 0.03277 0.0
N1123 N 0.50311 0.89589 0.01807 0.0
N1124 N 0.44973 0.78648 0.02537 0.0
C1125 C 0.50038 0.78728 0.01023 0.0
C1126 C 0.5293 0.84639 0.00637 0.0
C1127 C 0.55547 0.27032 0.73864 0.0
C1128 C 0.59667 0.27764 0.71848 0.0
C1129 C 0.5053 0.31132 0.74212 0.0
C1130 C 0.49474 0.36197 0.7259 0.0
H1131 H 0.56261 0.23378 0.75232 0.0
H1132 H 0.47532 0.30413 0.75806 0.0
S1133 S 0.58464 0.39905 0.66898 0.0
N1134 N 0.62029 0.33749 0.68102 0.0
N1135 N 0.52654 0.41495 0.688 0.0
C1136 C 0.5345 0.36942 0.70543 0.0
C1137 C 0.58529 0.32725 0.70166 0.0
C1138 C 0.09197 0.3352 0.50822 0.0
C1139 C 0.08941 0.36488 0.48486 0.0
C1140 C 0.06065 0.27884 0.51243 0.0
C1141 C 1.02581 0.25 0.49341 0.0
H1142 H 0.11756 0.35618 0.52349 0.0
H1143 H 0.06268 0.25843 0.5309 0.0
S1144 S 1.01208 0.30503 0.428 0.0
N1145 N 0.05363 0.3595 0.44201 0.0
N1146 N 0.99626 0.25236 0.44957 0.0
C1147 C 1.0248 0.2782 0.46968 0.0
C1148 C 0.0561 0.33603 0.46553 0.0
C1149 C 0.09181 0.82629 0.22432 0.0
C1150 C 0.08525 0.7624 0.23022 0.0
C1151 C 1.04122 0.86726 0.22522 0.0
C1152 C 0.98186 0.8463 0.23234 0.0
H1153 H 0.13596 0.84474 0.21783 0.0
H1154 H 1.04811 0.91486 0.21895 0.0
S1155 S 0.9402 0.68868 0.25486 0.0
N1156 N 1.01433 0.683 0.24686 0.0
N1157 N 0.92019 0.76151 0.24901 0.0
C1158 C 0.97512 0.78448 0.24031 0.0
C1159 C 1.02659 0.74218 0.23928 0.0
loop_
_geom_bond_atom_site_label_1
_geom_bond_atom_site_label_2
_geom_bond_distance
_geom_bond_site_symmetry_2
_ccdc_geom_bond_type
Zn0 N4 2.020 . S
Zn0 O8 2.019 . S
Zn0 N10 2.119 . S
Zn0 O18 1.975 . S
C1 N2 1.334 . S
C1 N5 1.336 . S
N2 C1 1.334 . S
N2 C3 1.334 . S
C3 N2 1.334 . S
C3 N4 1.336 . S
N4 Zn0 2.020 . S
N4 C3 1.336 . S
N4 N5 1.354 . S
N5 C1 1.336 . S
N5 N4 1.354 . S
N5 Zn9 2.020 1_554 S
C6 O7 1.244 . S
C6 O30 1.257 . S
O7 C6 1.244 . S
O8 Zn0 2.019 . S
O8 C28 1.257 . S
Zn9 N5 2.020 1_556 S
Zn9 O16 1.975 1_556 S
Zn9 N25 2.119 1_556 S
Zn9 O30 2.019 . S
N10 Zn0 2.119 . S
N10 C12 1.334 . S
N10 C13 1.328 . S
C11 C12 1.391 . S
C11 N14 1.329 . S
C11 H32 0.930 . S
C12 N10 1.334 . S
C12 C11 1.391 . S
C12 H19 0.930 . S
C13 N10 1.328 . S
C13 C15 1.392 . S
C13 H20 0.930 . S
N14 C11 1.329 . S
N14 C15 1.331 . S
C15 C13 1.392 . S
C15 N14 1.331 . S
O16 Zn9 1.975 1_554 S
O16 C17 1.252 . S
C17 O16 1.252 . S
C17 O18 1.252 . S
O18 Zn0 1.975 . S
O18 C17 1.252 . S
H19 C12 0.930 . S
H20 C13 0.930 . S
C21 C22 1.392 . S
C21 N25 1.328 1_556 S
C21 H27 0.930 . S
C22 C21 1.392 . S
C22 N26 1.331 1_556 S
C23 C24 1.391 . S
C23 N26 1.329 . S
C23 H33 0.930 . S
C24 C23 1.391 . S
C24 N25 1.334 . S
C24 H31 0.930 . S
N25 Zn9 2.119 1_554 S
N25 C21 1.328 1_554 S
N25 C24 1.334 . S
N26 C22 1.331 1_554 S
N26 C23 1.329 . S
H27 C21 0.930 . S
C28 O8 1.257 . S
C28 O29 1.244 . S
O29 C28 1.244 . S
O30 C6 1.257 . S
O30 Zn9 2.019 . S
H31 C24 0.930 . S
H32 C11 0.930 . S
H33 C23 0.930 . S
Zn34 N38 2.020 . S
Zn34 O42 2.019 . S
Zn34 N44 2.119 . S
Zn34 O52 1.975 . S
C35 N36 1.334 . S
C35 N39 1.336 . S
N36 C35 1.334 . S
N36 C37 1.334 . S
C37 N36 1.334 . S
C37 N38 1.336 . S
N38 Zn34 2.020 . S
N38 C37 1.336 . S
N38 N39 1.354 . S
N39 C35 1.336 . S
N39 N38 1.354 . S
N39 Zn43 2.020 . S
C40 O41 1.244 . S
C40 O64 1.257 . S
O41 C40 1.244 . S
O42 Zn34 2.019 . S
O42 C62 1.257 . S
Zn43 N39 2.020 . S
Zn43 O50 1.975 . S
Zn43 N59 2.119 . S
Zn43 O64 2.019 . S
N44 Zn34 2.119 . S
N44 C46 1.334 . S
N44 C47 1.328 . S
C45 C46 1.391 . S
C45 N48 1.329 . S
C45 H66 0.930 . S
C46 N44 1.334 . S
C46 C45 1.391 . S
C46 H53 0.930 . S
C47 N44 1.328 . S
C47 C49 1.392 . S
C47 H54 0.930 . S
N48 C45 1.329 . S
N48 C49 1.331 . S
C49 C47 1.392 . S
C49 N48 1.331 . S
O50 Zn43 1.975 . S
O50 C51 1.252 . S
C51 O50 1.252 . S
C51 O52 1.252 . S
O52 Zn34 1.975 . S
O52 C51 1.252 . S
H53 C46 0.930 . S
H54 C47 0.930 . S
C55 C56 1.392 . S
C55 N59 1.328 . S
C55 H61 0.930 . S
C56 C55 1.392 . S
C56 N60 1.331 . S
C57 C58 1.391 . S
C57 N60 1.329 . S
C57 H67 0.930 . S
C58 C57 1.391 . S
C58 N59 1.334 . S
C58 H65 0.930 . S
N59 Zn43 2.119 . S
N59 C55 1.328 . S
N59 C58 1.334 . S
N60 C56 1.331 . S
N60 C57 1.329 . S
H61 C55 0.930 . S
C62 O42 1.257 . S
C62 O63 1.244 . S
O63 C62 1.244 . S
O64 C40 1.257 . S
O64 Zn43 2.019 . S
H65 C58 0.930 . S
H66 C45 0.930 . S
H67 C57 0.930 . S
Zn68 N72 2.020 . S
Zn68 O76 2.019 . S
Zn68 N78 2.119 . S
Zn68 O86 1.975 . S
C69 N70 1.334 . S
C69 N73 1.336 . S
N70 C69 1.334 . S
N70 C71 1.334 . S
C71 N70 1.334 . S
C71 N72 1.336 . S
N72 Zn68 2.020 . S
N72 C71 1.336 . S
N72 N73 1.354 . S
N73 C69 1.336 . S
N73 N72 1.354 . S
N73 Zn77 2.020 . S
C74 O75 1.244 . S
C74 O98 1.257 . S
O75 C74 1.244 . S
O76 Zn68 2.019 . S
O76 C96 1.257 . S
Zn77 N73 2.020 . S
Zn77 O84 1.975 . S
Zn77 N93 2.119 . S
Zn77 O98 2.019 . S
N78 Zn68 2.119 . S
N78 C80 1.334 . S
N78 C81 1.328 . S
C79 C80 1.391 . S
C79 N82 1.329 . S
C79 H100 0.930 . S
C80 N78 1.334 . S
C80 C79 1.391 . S
C80 H87 0.930 . S
C81 N78 1.328 . S
C81 C83 1.392 . S
C81 H88 0.930 . S
N82 C79 1.329 . S
N82 C83 1.331 . S
C83 C81 1.392 . S
C83 N82 1.331 . S
O84 Zn77 1.975 . S
O84 C85 1.252 . S
C85 O84 1.252 . S
C85 O86 1.252 . S
O86 Zn68 1.975 . S
O86 C85 1.252 . S
H87 C80 0.930 . S
H88 C81 0.930 . S
C89 C90 1.392 . S
C89 N93 1.328 . S
C89 H95 0.930 . S
C90 C89 1.392 . S
C90 N94 1.331 . S
C91 C92 1.391 . S
C91 N94 1.329 . S
C91 H101 0.930 . S
C92 C91 1.391 . S
C92 N93 1.334 . S
C92 H99 0.930 . S
N93 Zn77 2.119 . S
N93 C89 1.328 . S
N93 C92 1.334 . S
N94 C90 1.331 . S
N94 C91 1.329 . S
H95 C89 0.930 . S
C96 O76 1.257 . S
C96 O97 1.244 . S
O97 C96 1.244 . S
O98 C74 1.257 . S
O98 Zn77 2.019 . S
H99 C92 0.930 . S
H100 C79 0.930 . S
H101 C91 0.930 . S
Zn102 N106 2.020 . S
Zn102 O110 2.019 . S
Zn102 N112 2.119 . S
Zn102 O120 1.975 . S
C103 N104 1.334 1_655 S
C103 N107 1.336 . S
N104 C103 1.334 1_455 S
N104 C105 1.334 1_455 S
C105 N104 1.334 1_655 S
C105 N106 1.336 . S
N106 Zn102 2.020 . S
N106 C105 1.336 . S
N106 N107 1.354 . S
N107 C103 1.336 . S
N107 N106 1.354 . S
N107 Zn111 2.020 . S
C108 O109 1.244 . S
C108 O132 1.257 . S
O109 C108 1.244 . S
O110 Zn102 2.019 . S
O110 C130 1.257 . S
Zn111 N107 2.020 . S
Zn111 O118 1.975 . S
Zn111 N127 2.119 . S
Zn111 O132 2.019 . S
N112 Zn102 2.119 . S
N112 C114 1.334 . S
N112 C115 1.328 . S
C113 C114 1.391 . S
C113 N116 1.329 . S
C113 H134 0.930 . S
C114 N112 1.334 . S
C114 C113 1.391 . S
C114 H121 0.930 . S
C115 N112 1.328 . S
C115 C117 1.392 . S
C115 H122 0.930 . S
N116 C113 1.329 . S
N116 C117 1.331 . S
C117 C115 1.392 . S
C117 N116 1.331 . S
O118 Zn111 1.975 . S
O118 C119 1.252 . S
C119 O118 1.252 . S
C119 O120 1.252 . S
O120 Zn102 1.975 . S
O120 C119 1.252 . S
H121 C114 0.930 . S
H122 C115 0.930 . S
C123 C124 1.392 . S
C123 N127 1.328 . S
C123 H129 0.930 . S
C124 C123 1.392 . S
C124 N128 1.331 . S
C125 C126 1.391 . S
C125 N128 1.329 . S
C125 H135 0.930 . S
C126 C125 1.391 . S
C126 N127 1.334 . S
C126 H133 0.930 . S
N127 Zn111 2.119 . S
N127 C123 1.328 . S
N127 C126 1.334 . S
N128 C124 1.331 . S
N128 C125 1.329 . S
H129 C123 0.930 . S
C130 O110 1.257 . S
C130 O131 1.244 . S
O131 C130 1.244 . S
O132 C108 1.257 . S
O132 Zn111 2.019 . S
H133 C126 0.930 . S
H134 C113 0.930 . S
H135 C125 0.930 . S
Zn136 N140 2.020 1_554 S
Zn136 O144 2.019 . S
Zn136 N146 2.119 1_554 S
Zn136 O154 1.975 1_554 S
C137 N138 1.334 . S
C137 N141 1.336 . S
N138 C137 1.334 . S
N138 C139 1.334 . S
C139 N138 1.334 . S
C139 N140 1.336 . S
N140 Zn136 2.020 1_556 S
N140 C139 1.336 . S
N140 N141 1.354 . S
N141 C137 1.336 . S
N141 N140 1.354 . S
N141 Zn145 2.020 . S
C142 O143 1.244 . S
C142 O166 1.257 . S
O143 C142 1.244 . S
O144 Zn136 2.019 . S
O144 C164 1.257 . S
Zn145 N141 2.020 . S
Zn145 O152 1.975 . S
Zn145 N161 2.119 . S
Zn145 O166 2.019 . S
N146 Zn136 2.119 1_556 S
N146 C148 1.334 . S
N146 C149 1.328 1_556 S
C147 C148 1.391 . S
C147 N150 1.329 . S
C147 H168 0.930 . S
C148 N146 1.334 . S
C148 C147 1.391 . S
C148 H155 0.930 . S
C149 N146 1.328 1_554 S
C149 C151 1.392 . S
C149 H156 0.930 . S
N150 C147 1.329 . S
N150 C151 1.331 1_556 S
C151 C149 1.392 . S
C151 N150 1.331 1_554 S
O152 Zn145 1.975 . S
O152 C153 1.252 . S
C153 O152 1.252 . S
C153 O154 1.252 . S
O154 Zn136 1.975 1_556 S
O154 C153 1.252 . S
H155 C148 0.930 . S
H156 C149 0.930 . S
C157 C158 1.392 . S
C157 N161 1.328 . S
C157 H163 0.930 . S
C158 C157 1.392 . S
C158 N162 1.331 . S
C159 C160 1.391 . S
C159 N162 1.329 . S
C159 H169 0.930 . S
C160 C159 1.391 . S
C160 N161 1.334 . S
C160 H167 0.930 . S
N161 Zn145 2.119 . S
N161 C157 1.328 . S
N161 C160 1.334 . S
N162 C158 1.331 . S
N162 C159 1.329 . S
H163 C157 0.930 . S
C164 O144 1.257 . S
C164 O165 1.244 . S
O165 C164 1.244 . S
O166 C142 1.257 . S
O166 Zn145 2.019 . S
H167 C160 0.930 . S
H168 C147 0.930 . S
H169 C159 0.930 . S
Zn170 N174 2.020 . S
Zn170 O178 2.019 . S
Zn170 N180 2.119 . S
Zn170 O188 1.975 . S
C171 N172 1.334 . S
C171 N175 1.336 . S
N172 C171 1.334 . S
N172 C173 1.334 . S
C173 N172 1.334 . S
C173 N174 1.336 . S
N174 Zn170 2.020 . S
N174 C173 1.336 . S
N174 N175 1.354 . S
N175 C171 1.336 . S
N175 N174 1.354 . S
N175 Zn179 2.020 . S
C176 O177 1.244 . S
C176 O200 1.257 . S
O177 C176 1.244 . S
O178 Zn170 2.019 . S
O178 C198 1.257 . S
Zn179 N175 2.020 . S
Zn179 O186 1.975 . S
Zn179 N195 2.119 . S
Zn179 O200 2.019 . S
N180 Zn170 2.119 . S
N180 C182 1.334 . S
N180 C183 1.328 . S
C181 C182 1.391 . S
C181 N184 1.329 . S
C181 H202 0.930 . S
C182 N180 1.334 . S
C182 C181 1.391 . S
C182 H189 0.930 . S
C183 N180 1.328 . S
C183 C185 1.392 . S
C183 H190 0.930 . S
N184 C181 1.329 . S
N184 C185 1.331 . S
C185 C183 1.392 . S
C185 N184 1.331 . S
O186 Zn179 1.975 . S
O186 C187 1.252 . S
C187 O186 1.252 . S
C187 O188 1.252 . S
O188 Zn170 1.975 . S
O188 C187 1.252 . S
H189 C182 0.930 . S
H190 C183 0.930 . S
C191 C192 1.392 . S
C191 N195 1.328 . S
C191 H197 0.930 . S
C192 C191 1.392 . S
C192 N196 1.331 . S
C193 C194 1.391 . S
C193 N196 1.329 . S
C193 H203 0.930 . S
C194 C193 1.391 . S
C194 N195 1.334 . S
C194 H201 0.930 . S
N195 Zn179 2.119 . S
N195 C191 1.328 . S
N195 C194 1.334 . S
N196 C192 1.331 . S
N196 C193 1.329 . S
H197 C191 0.930 . S
C198 O178 1.257 . S
C198 O199 1.244 . S
O199 C198 1.244 . S
O200 C176 1.257 . S
O200 Zn179 2.019 . S
H201 C194 0.930 . S
H202 C181 0.930 . S
H203 C193 0.930 . S
Zn204 N208 2.020 . S
Zn204 O212 2.019 . S
Zn204 N214 2.119 . S
Zn204 O222 1.975 . S
C205 N206 1.334 . S
C205 N209 1.336 . S
N206 C205 1.334 . S
N206 C207 1.334 . S
C207 N206 1.334 . S
C207 N208 1.336 . S
N208 Zn204 2.020 . S
N208 C207 1.336 . S
N208 N209 1.354 . S
N209 C205 1.336 . S
N209 N208 1.354 . S
N209 Zn213 2.020 . S
C210 O211 1.244 . S
C210 O234 1.257 . S
O211 C210 1.244 . S
O212 Zn204 2.019 . S
O212 C232 1.257 . S
Zn213 N209 2.020 . S
Zn213 O220 1.975 . S
Zn213 N229 2.119 . S
Zn213 O234 2.019 . S
N214 Zn204 2.119 . S
N214 C216 1.334 . S
N214 C217 1.328 . S
C215 C216 1.391 . S
C215 N218 1.329 . S
C215 H236 0.930 . S
C216 N214 1.334 . S
C216 C215 1.391 . S
C216 H223 0.930 . S
C217 N214 1.328 . S
C217 C219 1.392 . S
C217 H224 0.930 . S
N218 C215 1.329 . S
N218 C219 1.331 . S
C219 C217 1.392 . S
C219 N218 1.331 . S
O220 Zn213 1.975 . S
O220 C221 1.252 . S
C221 O220 1.252 . S
C221 O222 1.252 . S
O222 Zn204 1.975 . S
O222 C221 1.252 . S
H223 C216 0.930 . S
H224 C217 0.930 . S
C225 C226 1.392 . S
C225 N229 1.328 . S
C225 H231 0.930 . S
C226 C225 1.392 . S
C226 N230 1.331 . S
C227 C228 1.391 . S
C227 N230 1.329 . S
C227 H237 0.930 . S
C228 C227 1.391 . S
C228 N229 1.334 . S
C228 H235 0.930 . S
N229 Zn213 2.119 . S
N229 C225 1.328 . S
N229 C228 1.334 . S
N230 C226 1.331 . S
N230 C227 1.329 . S
H231 C225 0.930 . S
C232 O212 1.257 . S
C232 O233 1.244 . S
O233 C232 1.244 . S
O234 C210 1.257 . S
O234 Zn213 2.019 . S
H235 C228 0.930 . S
H236 C215 0.930 . S
H237 C227 0.930 . S
Zn238 N242 2.020 . S
Zn238 O246 2.019 . S
Zn238 N248 2.119 . S
Zn238 O256 1.975 . S
C239 N240 1.334 1_455 S
C239 N243 1.336 . S
N240 C239 1.334 1_655 S
N240 C241 1.334 1_655 S
C241 N240 1.334 1_455 S
C241 N242 1.336 . S
N242 Zn238 2.020 . S
N242 C241 1.336 . S
N242 N243 1.354 . S
N243 C239 1.336 . S
N243 N242 1.354 . S
N243 Zn247 2.020 . S
C244 O245 1.244 . S
C244 O268 1.257 . S
O245 C244 1.244 . S
O246 Zn238 2.019 . S
O246 C266 1.257 . S
Zn247 N243 2.020 . S
Zn247 O254 1.975 . S
Zn247 N263 2.119 . S
Zn247 O268 2.019 . S
N248 Zn238 2.119 . S
N248 C250 1.334 . S
N248 C251 1.328 . S
C249 C250 1.391 . S
C249 N252 1.329 . S
C249 H270 0.930 . S
C250 N248 1.334 . S
C250 C249 1.391 . S
C250 H257 0.930 . S
C251 N248 1.328 . S
C251 C253 1.392 . S
C251 H258 0.930 . S
N252 C249 1.329 . S
N252 C253 1.331 . S
C253 C251 1.392 . S
C253 N252 1.331 . S
O254 Zn247 1.975 . S
O254 C255 1.252 . S
C255 O254 1.252 . S
C255 O256 1.252 . S
O256 Zn238 1.975 . S
O256 C255 1.252 . S
H257 C250 0.930 . S
H258 C251 0.930 . S
C259 C260 1.392 . S
C259 N263 1.328 . S
C259 H265 0.930 . S
C260 C259 1.392 . S
C260 N264 1.331 . S
C261 C262 1.391 . S
C261 N264 1.329 . S
C261 H271 0.930 . S
C262 C261 1.391 . S
C262 N263 1.334 . S
C262 H269 0.930 . S
N263 Zn247 2.119 . S
N263 C259 1.328 . S
N263 C262 1.334 . S
N264 C260 1.331 . S
N264 C261 1.329 . S
H265 C259 0.930 . S
C266 O246 1.257 . S
C266 O267 1.244 . S
O267 C266 1.244 . S
O268 C244 1.257 . S
O268 Zn247 2.019 . S
H269 C262 0.930 . S
H270 C249 0.930 . S
H271 C261 0.930 . S
Zn272 N276 2.020 . S
Zn272 O280 2.019 . S
Zn272 N282 2.119 . S
Zn272 O290 1.975 . S
C273 N274 1.334 . S
C273 N277 1.336 . S
N274 C273 1.334 . S
N274 C275 1.334 . S
C275 N274 1.334 . S
C275 N276 1.336 . S
N276 Zn272 2.020 . S
N276 C275 1.336 . S
N276 N277 1.354 . S
N277 C273 1.336 . S
N277 N276 1.354 . S
N277 Zn281 2.020 . S
C278 O279 1.244 . S
C278 O302 1.257 . S
O279 C278 1.244 . S
O280 Zn272 2.019 . S
O280 C300 1.257 . S
Zn281 N277 2.020 . S
Zn281 O288 1.975 . S
Zn281 N297 2.119 . S
Zn281 O302 2.019 . S
N282 Zn272 2.119 . S
N282 C284 1.334 . S
N282 C285 1.328 . S
C283 C284 1.391 . S
C283 N286 1.329 . S
C283 H304 0.930 . S
C284 N282 1.334 . S
C284 C283 1.391 . S
C284 H291 0.930 . S
C285 N282 1.328 . S
C285 C287 1.392 . S
C285 H292 0.930 . S
N286 C283 1.329 . S
N286 C287 1.331 . S
C287 C285 1.392 . S
C287 N286 1.331 . S
O288 Zn281 1.975 . S
O288 C289 1.252 . S
C289 O288 1.252 . S
C289 O290 1.252 . S
O290 Zn272 1.975 . S
O290 C289 1.252 . S
H291 C284 0.930 . S
H292 C285 0.930 . S
C293 C294 1.392 . S
C293 N297 1.328 . S
C293 H299 0.930 . S
C294 C293 1.392 . S
C294 N298 1.331 . S
C295 C296 1.391 . S
C295 N298 1.329 . S
C295 H305 0.930 . S
C296 C295 1.391 . S
C296 N297 1.334 . S
C296 H303 0.930 . S
N297 Zn281 2.119 . S
N297 C293 1.328 . S
N297 C296 1.334 . S
N298 C294 1.331 . S
N298 C295 1.329 . S
H299 C293 0.930 . S
C300 O280 1.257 . S
C300 O301 1.244 . S
O301 C300 1.244 . S
O302 C278 1.257 . S
O302 Zn281 2.019 . S
H303 C296 0.930 . S
H304 C283 0.930 . S
H305 C295 0.930 . S
Zn306 N310 2.020 . S
Zn306 O314 2.019 . S
Zn306 N316 2.119 . S
Zn306 O324 1.975 . S
C307 N308 1.334 1_455 S
C307 N311 1.336 . S
N308 C307 1.334 1_655 S
N308 C309 1.334 1_655 S
C309 N308 1.334 1_455 S
C309 N310 1.336 1_565 S
N310 Zn306 2.020 . S
N310 C309 1.336 1_545 S
N310 N311 1.354 1_545 S
N311 C307 1.336 . S
N311 N310 1.354 1_565 S
N311 Zn315 2.020 . S
C312 O313 1.244 . S
C312 O336 1.257 1_545 S
O313 C312 1.244 . S
O314 Zn306 2.019 . S
O314 C334 1.257 1_545 S
Zn315 N311 2.020 . S
Zn315 O322 1.975 1_565 S
Zn315 N331 2.119 . S
Zn315 O336 2.019 . S
N316 Zn306 2.119 . S
N316 C318 1.334 . S
N316 C319 1.328 . S
C317 C318 1.391 . S
C317 N320 1.329 . S
C317 H338 0.930 . S
C318 N316 1.334 . S
C318 C317 1.391 . S
C318 H325 0.930 . S
C319 N316 1.328 . S
C319 C321 1.392 . S
C319 H326 0.930 . S
N320 C317 1.329 . S
N320 C321 1.331 . S
C321 C319 1.392 . S
C321 N320 1.331 . S
O322 Zn315 1.975 1_545 S
O322 C323 1.252 . S
C323 O322 1.252 . S
C323 O324 1.252 . S
O324 Zn306 1.975 . S
O324 C323 1.252 . S
H325 C318 0.930 . S
H326 C319 0.930 . S
C327 C328 1.392 . S
C327 N331 1.328 . S
C327 H333 0.930 . S
C328 C327 1.392 . S
C328 N332 1.331 . S
C329 C330 1.391 . S
C329 N332 1.329 . S
C329 H339 0.930 . S
C330 C329 1.391 . S
C330 N331 1.334 . S
C330 H337 0.930 . S
N331 Zn315 2.119 . S
N331 C327 1.328 . S
N331 C330 1.334 . S
N332 C328 1.331 . S
N332 C329 1.329 . S
H333 C327 0.930 . S
C334 O314 1.257 1_565 S
C334 O335 1.244 . S
O335 C334 1.244 . S
O336 C312 1.257 1_565 S
O336 Zn315 2.019 . S
H337 C330 0.930 . S
H338 C317 0.930 . S
H339 C329 0.930 . S
Zn340 N344 2.020 1_556 S
Zn340 O348 2.019 . S
Zn340 N350 2.119 1_556 S
Zn340 O358 1.975 1_556 S
C341 N342 1.334 . S
C341 N345 1.336 . S
N342 C341 1.334 . S
N342 C343 1.334 . S
C343 N342 1.334 . S
C343 N344 1.336 . S
N344 Zn340 2.020 1_554 S
N344 C343 1.336 . S
N344 N345 1.354 . S
N345 C341 1.336 . S
N345 N344 1.354 . S
N345 Zn349 2.020 . S
C346 O347 1.244 . S
C346 O370 1.257 . S
O347 C346 1.244 . S
O348 Zn340 2.019 . S
O348 C368 1.257 . S
Zn349 N345 2.020 . S
Zn349 O356 1.975 . S
Zn349 N365 2.119 . S
Zn349 O370 2.019 . S
N350 Zn340 2.119 1_554 S
N350 C352 1.334 . S
N350 C353 1.328 1_554 S
C351 C352 1.391 . S
C351 N354 1.329 . S
C351 H372 0.930 . S
C352 N350 1.334 . S
C352 C351 1.391 . S
C352 H359 0.930 . S
C353 N350 1.328 1_556 S
C353 C355 1.392 . S
C353 H360 0.930 . S
N354 C351 1.329 . S
N354 C355 1.331 1_554 S
C355 C353 1.392 . S
C355 N354 1.331 1_556 S
O356 Zn349 1.975 . S
O356 C357 1.252 . S
C357 O356 1.252 . S
C357 O358 1.252 . S
O358 Zn340 1.975 1_554 S
O358 C357 1.252 . S
H359 C352 0.930 . S
H360 C353 0.930 . S
C361 C362 1.392 . S
C361 N365 1.328 . S
C361 H367 0.930 . S
C362 C361 1.392 . S
C362 N366 1.331 . S
C363 C364 1.391 . S
C363 N366 1.329 . S
C363 H373 0.930 . S
C364 C363 1.391 . S
C364 N365 1.334 . S
C364 H371 0.930 . S
N365 Zn349 2.119 . S
N365 C361 1.328 . S
N365 C364 1.334 . S
N366 C362 1.331 . S
N366 C363 1.329 . S
H367 C361 0.930 . S
C368 O348 1.257 . S
C368 O369 1.244 . S
O369 C368 1.244 . S
O370 C346 1.257 . S
O370 Zn349 2.019 . S
H371 C364 0.930 . S
H372 C351 0.930 . S
H373 C363 0.930 . S
Zn374 N378 2.020 . S
Zn374 O382 2.019 . S
Zn374 N384 2.119 . S
Zn374 O392 1.975 . S
C375 N376 1.334 . S
C375 N379 1.336 . S
N376 C375 1.334 . S
N376 C377 1.334 . S
C377 N376 1.334 . S
C377 N378 1.336 1_545 S
N378 Zn374 2.020 . S
N378 C377 1.336 1_565 S
N378 N379 1.354 1_565 S
N379 C375 1.336 . S
N379 N378 1.354 1_545 S
N379 Zn383 2.020 . S
C380 O381 1.244 . S
C380 O404 1.257 1_565 S
O381 C380 1.244 . S
O382 Zn374 2.019 . S
O382 C402 1.257 1_565 S
Zn383 N379 2.020 . S
Zn383 O390 1.975 1_545 S
Zn383 N399 2.119 . S
Zn383 O404 2.019 . S
N384 Zn374 2.119 . S
N384 C386 1.334 . S
N384 C387 1.328 . S
C385 C386 1.391 . S
C385 N388 1.329 . S
C385 H406 0.930 . S
C386 N384 1.334 . S
C386 C385 1.391 . S
C386 H393 0.930 . S
C387 N384 1.328 . S
C387 C389 1.392 . S
C387 H394 0.930 . S
N388 C385 1.329 . S
N388 C389 1.331 . S
C389 C387 1.392 . S
C389 N388 1.331 . S
O390 Zn383 1.975 1_565 S
O390 C391 1.252 . S
C391 O390 1.252 . S
C391 O392 1.252 . S
O392 Zn374 1.975 . S
O392 C391 1.252 . S
H393 C386 0.930 . S
H394 C387 0.930 . S
C395 C396 1.392 . S
C395 N399 1.328 . S
C395 H401 0.930 . S
C396 C395 1.392 . S
C396 N400 1.331 . S
C397 C398 1.391 . S
C397 N400 1.329 . S
C397 H407 0.930 . S
C398 C397 1.391 . S
C398 N399 1.334 . S
C398 H405 0.930 . S
N399 Zn383 2.119 . S
N399 C395 1.328 . S
N399 C398 1.334 . S
N400 C396 1.331 . S
N400 C397 1.329 . S
H401 C395 0.930 . S
C402 O382 1.257 1_545 S
C402 O403 1.244 . S
O403 C402 1.244 . S
O404 C380 1.257 1_545 S
O404 Zn383 2.019 . S
H405 C398 0.930 . S
H406 C385 0.930 . S
H407 C397 0.930 . S
Zn408 N412 2.020 . S
Zn408 O416 2.019 . S
Zn408 N418 2.119 . S
Zn408 O426 1.975 . S
C409 N410 1.334 . S
C409 N413 1.336 . S
N410 C409 1.334 . S
N410 C411 1.334 . S
C411 N410 1.334 . S
C411 N412 1.336 . S
N412 Zn408 2.020 . S
N412 C411 1.336 . S
N412 N413 1.354 . S
N413 C409 1.336 . S
N413 N412 1.354 . S
N413 Zn417 2.020 . S
C414 O415 1.244 . S
C414 O438 1.257 . S
O415 C414 1.244 . S
O416 Zn408 2.019 . S
O416 C436 1.257 . S
Zn417 N413 2.020 . S
Zn417 O424 1.975 . S
Zn417 N433 2.119 . S
Zn417 O438 2.019 . S
N418 Zn408 2.119 . S
N418 C420 1.334 . S
N418 C421 1.328 . S
C419 C420 1.391 . S
C419 N422 1.329 . S
C419 H440 0.930 . S
C420 N418 1.334 . S
C420 C419 1.391 . S
C420 H427 0.930 . S
C421 N418 1.328 . S
C421 C423 1.392 . S
C421 H428 0.930 . S
N422 C419 1.329 . S
N422 C423 1.331 . S
C423 C421 1.392 . S
C423 N422 1.331 . S
O424 Zn417 1.975 . S
O424 C425 1.252 . S
C425 O424 1.252 . S
C425 O426 1.252 . S
O426 Zn408 1.975 . S
O426 C425 1.252 . S
H427 C420 0.930 . S
H428 C421 0.930 . S
C429 C430 1.392 . S
C429 N433 1.328 . S
C429 H435 0.930 . S
C430 C429 1.392 . S
C430 N434 1.331 . S
C431 C432 1.391 . S
C431 N434 1.329 . S
C431 H441 0.930 . S
C432 C431 1.391 . S
C432 N433 1.334 . S
C432 H439 0.930 . S
N433 Zn417 2.119 . S
N433 C429 1.328 . S
N433 C432 1.334 . S
N434 C430 1.331 . S
N434 C431 1.329 . S
H435 C429 0.930 . S
C436 O416 1.257 . S
C436 O437 1.244 . S
O437 C436 1.244 . S
O438 C414 1.257 . S
O438 Zn417 2.019 . S
H439 C432 0.930 . S
H440 C419 0.930 . S
H441 C431 0.930 . S
Zn442 N446 2.020 . S
Zn442 O450 2.019 . S
Zn442 N452 2.119 . S
Zn442 O460 1.975 . S
C443 N444 1.334 1_655 S
C443 N447 1.336 . S
N444 C443 1.334 1_455 S
N444 C445 1.334 1_455 S
C445 N444 1.334 1_655 S
C445 N446 1.336 1_545 S
N446 Zn442 2.020 . S
N446 C445 1.336 1_565 S
N446 N447 1.354 1_565 S
N447 C443 1.336 . S
N447 N446 1.354 1_545 S
N447 Zn451 2.020 . S
C448 O449 1.244 . S
C448 O472 1.257 1_565 S
O449 C448 1.244 . S
O450 Zn442 2.019 . S
O450 C470 1.257 1_565 S
Zn451 N447 2.020 . S
Zn451 O458 1.975 1_545 S
Zn451 N467 2.119 . S
Zn451 O472 2.019 . S
N452 Zn442 2.119 . S
N452 C454 1.334 . S
N452 C455 1.328 . S
C453 C454 1.391 . S
C453 N456 1.329 . S
C453 H474 0.930 . S
C454 N452 1.334 . S
C454 C453 1.391 . S
C454 H461 0.930 . S
C455 N452 1.328 . S
C455 C457 1.392 . S
C455 H462 0.930 . S
N456 C453 1.329 . S
N456 C457 1.331 . S
C457 C455 1.392 . S
C457 N456 1.331 . S
O458 Zn451 1.975 1_565 S
O458 C459 1.252 . S
C459 O458 1.252 . S
C459 O460 1.252 . S
O460 Zn442 1.975 . S
O460 C459 1.252 . S
H461 C454 0.930 . S
H462 C455 0.930 . S
C463 C464 1.392 . S
C463 N467 1.328 . S
C463 H469 0.930 . S
C464 C463 1.392 . S
C464 N468 1.331 . S
C465 C466 1.391 . S
C465 N468 1.329 . S
C465 H475 0.930 . S
C466 C465 1.391 . S
C466 N467 1.334 . S
C466 H473 0.930 . S
N467 Zn451 2.119 . S
N467 C463 1.328 . S
N467 C466 1.334 . S
N468 C464 1.331 . S
N468 C465 1.329 . S
H469 C463 0.930 . S
C470 O450 1.257 1_545 S
C470 O471 1.244 . S
O471 C470 1.244 . S
O472 C448 1.257 1_545 S
O472 Zn451 2.019 . S
H473 C466 0.930 . S
H474 C453 0.930 . S
H475 C465 0.930 . S
Zn476 N480 2.020 1_554 S
Zn476 O484 2.019 . S
Zn476 N486 2.119 1_554 S
Zn476 O494 1.975 1_554 S
C477 N478 1.334 . S
C477 N481 1.336 . S
N478 C477 1.334 . S
N478 C479 1.334 . S
C479 N478 1.334 . S
C479 N480 1.336 . S
N480 Zn476 2.020 1_556 S
N480 C479 1.336 . S
N480 N481 1.354 . S
N481 C477 1.336 . S
N481 N480 1.354 . S
N481 Zn485 2.020 . S
C482 O483 1.244 . S
C482 O506 1.257 . S
O483 C482 1.244 . S
O484 Zn476 2.019 . S
O484 C504 1.257 . S
Zn485 N481 2.020 . S
Zn485 O492 1.975 . S
Zn485 N501 2.119 . S
Zn485 O506 2.019 . S
N486 Zn476 2.119 1_556 S
N486 C488 1.334 . S
N486 C489 1.328 1_556 S
C487 C488 1.391 . S
C487 N490 1.329 . S
C487 H508 0.930 . S
C488 N486 1.334 . S
C488 C487 1.391 . S
C488 H495 0.930 . S
C489 N486 1.328 1_554 S
C489 C491 1.392 . S
C489 H496 0.930 . S
N490 C487 1.329 . S
N490 C491 1.331 1_556 S
C491 C489 1.392 . S
C491 N490 1.331 1_554 S
O492 Zn485 1.975 . S
O492 C493 1.252 . S
C493 O492 1.252 . S
C493 O494 1.252 . S
O494 Zn476 1.975 1_556 S
O494 C493 1.252 . S
H495 C488 0.930 . S
H496 C489 0.930 . S
C497 C498 1.392 . S
C497 N501 1.328 . S
C497 H503 0.930 . S
C498 C497 1.392 . S
C498 N502 1.331 . S
C499 C500 1.391 . S
C499 N502 1.329 . S
C499 H509 0.930 . S
C500 C499 1.391 . S
C500 N501 1.334 . S
C500 H507 0.930 . S
N501 Zn485 2.119 . S
N501 C497 1.328 . S
N501 C500 1.334 . S
N502 C498 1.331 . S
N502 C499 1.329 . S
H503 C497 0.930 . S
C504 O484 1.257 . S
C504 O505 1.244 . S
O505 C504 1.244 . S
O506 C482 1.257 . S
O506 Zn485 2.019 . S
H507 C500 0.930 . S
H508 C487 0.930 . S
H509 C499 0.930 . S
Zn510 N514 2.020 . S
Zn510 O518 2.019 . S
Zn510 N520 2.119 . S
Zn510 O528 1.975 1_565 S
C511 N512 1.334 . S
C511 N515 1.336 1_565 S
N512 C511 1.334 . S
N512 C513 1.334 . S
C513 N512 1.334 . S
C513 N514 1.336 . S
N514 Zn510 2.020 . S
N514 C513 1.336 . S
N514 N515 1.354 1_565 S
N515 C511 1.336 1_545 S
N515 N514 1.354 1_545 S
N515 Zn519 2.020 . S
C516 O517 1.244 . S
C516 O540 1.257 1_565 S
O517 C516 1.244 . S
O518 Zn510 2.019 . S
O518 C538 1.257 1_565 S
Zn519 N515 2.020 . S
Zn519 O526 1.975 . S
Zn519 N535 2.119 . S
Zn519 O540 2.019 . S
N520 Zn510 2.119 . S
N520 C522 1.334 . S
N520 C523 1.328 . S
C521 C522 1.391 . S
C521 N524 1.329 . S
C521 H542 0.930 . S
C522 N520 1.334 . S
C522 C521 1.391 . S
C522 H529 0.930 . S
C523 N520 1.328 . S
C523 C525 1.392 . S
C523 H530 0.930 . S
N524 C521 1.329 . S
N524 C525 1.331 . S
C525 C523 1.392 . S
C525 N524 1.331 . S
O526 Zn519 1.975 . S
O526 C527 1.252 . S
C527 O526 1.252 . S
C527 O528 1.252 . S
O528 Zn510 1.975 1_545 S
O528 C527 1.252 . S
H529 C522 0.930 . S
H530 C523 0.930 . S
C531 C532 1.392 . S
C531 N535 1.328 . S
C531 H537 0.930 . S
C532 C531 1.392 . S
C532 N536 1.331 . S
C533 C534 1.391 . S
C533 N536 1.329 . S
C533 H543 0.930 . S
C534 C533 1.391 . S
C534 N535 1.334 . S
C534 H541 0.930 . S
N535 Zn519 2.119 . S
N535 C531 1.328 . S
N535 C534 1.334 . S
N536 C532 1.331 . S
N536 C533 1.329 . S
H537 C531 0.930 . S
C538 O518 1.257 1_545 S
C538 O539 1.244 . S
O539 C538 1.244 . S
O540 C516 1.257 1_545 S
O540 Zn519 2.019 . S
H541 C534 0.930 . S
H542 C521 0.930 . S
H543 C533 0.930 . S
C544 C545 1.369 . S
C544 C546 1.419 . S
C544 H548 0.930 . S
C545 C544 1.369 . S
C545 C554 1.429 . S
C546 C544 1.419 . S
C546 C547 1.363 . S
C546 H549 0.929 . S
C547 C546 1.363 . S
C547 C553 1.428 . S
H548 C544 0.930 . S
H549 C546 0.929 . S
S550 N551 1.613 . S
S550 N552 1.610 . S
N551 S550 1.613 . S
N551 C554 1.350 . S
N552 S550 1.610 . S
N552 C553 1.351 . S
C553 C547 1.428 . S
C553 N552 1.351 . S
C553 C554 1.434 . S
C554 C545 1.429 . S
C554 N551 1.350 . S
C554 C553 1.434 . S
C555 C556 1.369 . S
C555 C557 1.419 . S
C555 H559 0.930 . S
C556 C555 1.369 . S
C556 C565 1.429 . S
C557 C555 1.419 . S
C557 C558 1.363 . S
C557 H560 0.929 . S
C558 C557 1.363 . S
C558 C564 1.428 . S
H559 C555 0.930 . S
H560 C557 0.929 . S
S561 N562 1.613 . S
S561 N563 1.610 . S
N562 S561 1.613 . S
N562 C565 1.350 . S
N563 S561 1.610 . S
N563 C564 1.351 . S
C564 C558 1.428 . S
C564 N563 1.351 . S
C564 C565 1.434 . S
C565 C556 1.429 . S
C565 N562 1.350 . S
C565 C564 1.434 . S
C566 C567 1.369 . S
C566 C568 1.419 . S
C566 H570 0.930 . S
C567 C566 1.369 . S
C567 C576 1.429 . S
C568 C566 1.419 . S
C568 C569 1.363 . S
C568 H571 0.929 . S
C569 C568 1.363 . S
C569 C575 1.428 . S
H570 C566 0.930 . S
H571 C568 0.929 . S
S572 N573 1.613 . S
S572 N574 1.610 . S
N573 S572 1.613 . S
N573 C576 1.350 . S
N574 S572 1.610 . S
N574 C575 1.351 . S
C575 C569 1.428 . S
C575 N574 1.351 . S
C575 C576 1.434 . S
C576 C567 1.429 . S
C576 N573 1.350 . S
C576 C575 1.434 . S
C577 C578 1.369 1_655 S
C577 C579 1.419 . S
C577 H581 0.930 . S
C578 C577 1.369 1_455 S
C578 C587 1.429 . S
C579 C577 1.419 . S
C579 C580 1.363 . S
C579 H582 0.929 . S
C580 C579 1.363 . S
C580 C586 1.428 1_655 S
H581 C577 0.930 . S
H582 C579 0.929 . S
S583 N584 1.613 . S
S583 N585 1.610 . S
N584 S583 1.613 . S
N584 C587 1.350 . S
N585 S583 1.610 . S
N585 C586 1.351 . S
C586 C580 1.428 1_455 S
C586 N585 1.351 . S
C586 C587 1.434 . S
C587 C578 1.429 . S
C587 N584 1.350 . S
C587 C586 1.434 . S
C588 C589 1.369 . S
C588 C590 1.419 . S
C588 H592 0.930 . S
C589 C588 1.369 . S
C589 C598 1.429 . S
C590 C588 1.419 . S
C590 C591 1.363 . S
C590 H593 0.929 . S
C591 C590 1.363 . S
C591 C597 1.428 . S
H592 C588 0.930 . S
H593 C590 0.929 . S
S594 N595 1.613 . S
S594 N596 1.610 . S
N595 S594 1.613 . S
N595 C598 1.350 . S
N596 S594 1.610 . S
N596 C597 1.351 . S
C597 C591 1.428 . S
C597 N596 1.351 . S
C597 C598 1.434 . S
C598 C589 1.429 . S
C598 N595 1.350 . S
C598 C597 1.434 . S
C599 C600 1.369 . S
C599 C601 1.419 . S
C599 H603 0.930 . S
C600 C599 1.369 . S
C600 C609 1.429 . S
C601 C599 1.419 . S
C601 C602 1.363 . S
C601 H604 0.929 . S
C602 C601 1.363 . S
C602 C608 1.428 . S
H603 C599 0.930 . S
H604 C601 0.929 . S
S605 N606 1.613 . S
S605 N607 1.610 . S
N606 S605 1.613 . S
N606 C609 1.350 . S
N607 S605 1.610 . S
N607 C608 1.351 . S
C608 C602 1.428 . S
C608 N607 1.351 . S
C608 C609 1.434 . S
C609 C600 1.429 . S
C609 N606 1.350 . S
C609 C608 1.434 . S
C610 C611 1.369 . S
C610 C612 1.419 . S
C610 H614 0.930 . S
C611 C610 1.369 . S
C611 C620 1.429 . S
C612 C610 1.419 . S
C612 C613 1.363 . S
C612 H615 0.929 . S
C613 C612 1.363 . S
C613 C619 1.428 . S
H614 C610 0.930 . S
H615 C612 0.929 . S
S616 N617 1.613 . S
S616 N618 1.610 . S
N617 S616 1.613 . S
N617 C620 1.350 . S
N618 S616 1.610 . S
N618 C619 1.351 . S
C619 C613 1.428 . S
C619 N618 1.351 . S
C619 C620 1.434 . S
C620 C611 1.429 . S
C620 N617 1.350 . S
C620 C619 1.434 . S
C621 C622 1.369 . S
C621 C623 1.419 . S
C621 H625 0.930 . S
C622 C621 1.369 . S
C622 C631 1.429 1_655 S
C623 C621 1.419 . S
C623 C624 1.363 1_655 S
C623 H626 0.929 . S
C624 C623 1.363 1_455 S
C624 C630 1.428 . S
H625 C621 0.930 . S
H626 C623 0.929 . S
S627 N628 1.613 . S
S627 N629 1.610 . S
N628 S627 1.613 . S
N628 C631 1.350 . S
N629 S627 1.610 . S
N629 C630 1.351 . S
C630 C624 1.428 . S
C630 N629 1.351 . S
C630 C631 1.434 . S
C631 C622 1.429 1_455 S
C631 N628 1.350 . S
C631 C630 1.434 . S
C632 C633 1.369 . S
C632 C634 1.419 . S
C632 H636 0.930 . S
C633 C632 1.369 . S
C633 C642 1.429 . S
C634 C632 1.419 . S
C634 C635 1.363 . S
C634 H637 0.929 . S
C635 C634 1.363 . S
C635 C641 1.428 . S
H636 C632 0.930 . S
H637 C634 0.929 . S
S638 N639 1.613 . S
S638 N640 1.610 . S
N639 S638 1.613 . S
N639 C642 1.350 . S
N640 S638 1.610 . S
N640 C641 1.351 . S
C641 C635 1.428 . S
C641 N640 1.351 . S
C641 C642 1.434 . S
C642 C633 1.429 . S
C642 N639 1.350 . S
C642 C641 1.434 . S
C643 C644 1.369 1_655 S
C643 C645 1.419 . S
C643 H647 0.930 1_565 S
C644 C643 1.369 1_455 S
C644 C653 1.429 . S
C645 C643 1.419 . S
C645 C646 1.363 . S
C645 H648 0.929 1_565 S
C646 C645 1.363 . S
C646 C652 1.428 1_655 S
H647 C643 0.930 1_545 S
H648 C645 0.929 1_545 S
S649 N650 1.613 . S
S649 N651 1.610 . S
N650 S649 1.613 . S
N650 C653 1.350 . S
N651 S649 1.610 . S
N651 C652 1.351 . S
C652 C646 1.428 1_455 S
C652 N651 1.351 . S
C652 C653 1.434 . S
C653 C644 1.429 . S
C653 N650 1.350 . S
C653 C652 1.434 . S
C654 C655 1.369 . S
C654 C656 1.419 . S
C654 H658 0.930 . S
C655 C654 1.369 . S
C655 C664 1.429 . S
C656 C654 1.419 . S
C656 C657 1.363 . S
C656 H659 0.929 . S
C657 C656 1.363 . S
C657 C663 1.428 . S
H658 C654 0.930 . S
H659 C656 0.929 . S
S660 N661 1.613 . S
S660 N662 1.610 . S
N661 S660 1.613 . S
N661 C664 1.350 . S
N662 S660 1.610 . S
N662 C663 1.351 . S
C663 C657 1.428 . S
C663 N662 1.351 . S
C663 C664 1.434 . S
C664 C655 1.429 . S
C664 N661 1.350 . S
C664 C663 1.434 . S
C665 C666 1.369 . S
C665 C667 1.419 . S
C665 H669 0.930 . S
C666 C665 1.369 . S
C666 C675 1.429 1_545 S
C667 C665 1.419 . S
C667 C668 1.363 . S
C667 H670 0.929 . S
C668 C667 1.363 . S
C668 C674 1.428 1_545 S
H669 C665 0.930 . S
H670 C667 0.929 . S
S671 N672 1.613 . S
S671 N673 1.610 . S
N672 S671 1.613 . S
N672 C675 1.350 . S
N673 S671 1.610 . S
N673 C674 1.351 . S
C674 C668 1.428 1_565 S
C674 N673 1.351 . S
C674 C675 1.434 . S
C675 C666 1.429 1_565 S
C675 N672 1.350 . S
C675 C674 1.434 . S
C676 C677 1.369 . S
C676 C678 1.419 . S
C676 H680 0.930 . S
C677 C676 1.369 . S
C677 C686 1.429 . S
C678 C676 1.419 . S
C678 C679 1.363 . S
C678 H681 0.929 . S
C679 C678 1.363 . S
C679 C685 1.428 . S
H680 C676 0.930 . S
H681 C678 0.929 . S
S682 N683 1.613 . S
S682 N684 1.610 . S
N683 S682 1.613 . S
N683 C686 1.350 . S
N684 S682 1.610 . S
N684 C685 1.351 . S
C685 C679 1.428 . S
C685 N684 1.351 . S
C685 C686 1.434 . S
C686 C677 1.429 . S
C686 N683 1.350 . S
C686 C685 1.434 . S
C687 C688 1.369 1_455 S
C687 C689 1.419 . S
C687 H691 0.930 . S
C688 C687 1.369 1_655 S
C688 C697 1.429 . S
C689 C687 1.419 . S
C689 C690 1.363 . S
C689 H692 0.929 . S
C690 C689 1.363 . S
C690 C696 1.428 1_455 S
H691 C687 0.930 . S
H692 C689 0.929 . S
S693 N694 1.613 . S
S693 N695 1.610 . S
N694 S693 1.613 . S
N694 C697 1.350 1_565 S
N695 S693 1.610 . S
N695 C696 1.351 1_565 S
C696 C690 1.428 1_655 S
C696 N695 1.351 1_545 S
C696 C697 1.434 . S
C697 C688 1.429 . S
C697 N694 1.350 1_545 S
C697 C696 1.434 . S
C698 C699 1.369 . S
C698 C700 1.419 . S
C698 H702 0.930 . S
C699 C698 1.369 . S
C699 C708 1.429 . S
C700 C698 1.419 . S
C700 C701 1.363 . S
C700 H703 0.929 . S
C701 C700 1.363 . S
C701 C707 1.428 . S
H702 C698 0.930 . S
H703 C700 0.929 . S
S704 N705 1.613 . S
S704 N706 1.610 . S
N705 S704 1.613 . S
N705 C708 1.350 . S
N706 S704 1.610 . S
N706 C707 1.351 . S
C707 C701 1.428 . S
C707 N706 1.351 . S
C707 C708 1.434 . S
C708 C699 1.429 . S
C708 N705 1.350 . S
C708 C707 1.434 . S
C709 C710 1.369 . S
C709 C711 1.419 . S
C709 H713 0.930 . S
C710 C709 1.369 . S
C710 C719 1.429 1_565 S
C711 C709 1.419 . S
C711 C712 1.363 . S
C711 H714 0.929 . S
C712 C711 1.363 . S
C712 C718 1.428 1_565 S
H713 C709 0.930 . S
H714 C711 0.929 . S
S715 N716 1.613 . S
S715 N717 1.610 . S
N716 S715 1.613 . S
N716 C719 1.350 . S
N717 S715 1.610 . S
N717 C718 1.351 . S
C718 C712 1.428 1_545 S
C718 N717 1.351 . S
C718 C719 1.434 . S
C719 C710 1.429 1_545 S
C719 N716 1.350 . S
C719 C718 1.434 . S
C720 C721 1.369 . S
C720 C722 1.419 . S
C720 H724 0.930 . S
C721 C720 1.369 . S
C721 C730 1.431 . S
C722 C720 1.419 . S
C722 C723 1.363 1_554 S
C722 H725 0.929 . S
C723 C722 1.363 1_556 S
C723 C729 1.428 . S
H724 C720 0.930 . S
H725 C722 0.929 . S
S726 N727 1.613 . S
S726 N728 1.610 . S
N727 S726 1.613 . S
N727 C730 1.349 1_556 S
N728 S726 1.610 . S
N728 C729 1.351 . S
C729 C723 1.428 . S
C729 N728 1.351 . S
C729 C730 1.432 1_556 S
C730 C721 1.431 . S
C730 N727 1.349 1_554 S
C730 C729 1.432 1_554 S
C731 C732 1.369 . S
C731 C733 1.419 . S
C731 H735 0.930 . S
C732 C731 1.369 . S
C732 C741 1.429 . S
C733 C731 1.419 . S
C733 C734 1.363 . S
C733 H736 0.929 . S
C734 C733 1.363 . S
C734 C740 1.428 . S
H735 C731 0.930 . S
H736 C733 0.929 . S
S737 N738 1.613 . S
S737 N739 1.610 . S
N738 S737 1.613 . S
N738 C741 1.350 . S
N739 S737 1.610 . S
N739 C740 1.351 . S
C740 C734 1.428 . S
C740 N739 1.351 . S
C740 C741 1.434 . S
C741 C732 1.429 . S
C741 N738 1.350 . S
C741 C740 1.434 . S
C742 C743 1.369 . S
C742 C744 1.419 . S
C742 H746 0.930 . S
C743 C742 1.369 . S
C743 C752 1.429 . S
C744 C742 1.419 . S
C744 C745 1.363 . S
C744 H747 0.929 . S
C745 C744 1.363 . S
C745 C751 1.428 . S
H746 C742 0.930 . S
H747 C744 0.929 . S
S748 N749 1.613 . S
S748 N750 1.610 . S
N749 S748 1.613 . S
N749 C752 1.350 . S
N750 S748 1.610 . S
N750 C751 1.351 . S
C751 C745 1.428 . S
C751 N750 1.351 . S
C751 C752 1.434 . S
C752 C743 1.429 . S
C752 N749 1.350 . S
C752 C751 1.434 . S
C753 C754 1.369 . S
C753 C755 1.419 . S
C753 H757 0.930 . S
C754 C753 1.369 . S
C754 C763 1.429 . S
C755 C753 1.419 . S
C755 C756 1.363 . S
C755 H758 0.929 . S
C756 C755 1.363 . S
C756 C762 1.428 . S
H757 C753 0.930 . S
H758 C755 0.929 . S
S759 N760 1.613 . S
S759 N761 1.610 . S
N760 S759 1.613 . S
N760 C763 1.350 . S
N761 S759 1.610 . S
N761 C762 1.351 . S
C762 C756 1.428 . S
C762 N761 1.351 . S
C762 C763 1.434 . S
C763 C754 1.429 . S
C763 N760 1.350 . S
C763 C762 1.434 . S
C764 C765 1.369 1_556 S
C764 C766 1.419 . S
C764 H768 0.930 . S
C765 C764 1.369 1_554 S
C765 C774 1.429 . S
C766 C764 1.419 . S
C766 C767 1.363 . S
C766 H769 0.929 . S
C767 C766 1.363 . S
C767 C773 1.428 1_556 S
H768 C764 0.930 . S
H769 C766 0.929 . S
S770 N771 1.613 . S
S770 N772 1.610 . S
N771 S770 1.613 . S
N771 C774 1.350 . S
N772 S770 1.610 . S
N772 C773 1.351 . S
C773 C767 1.428 1_554 S
C773 N772 1.351 . S
C773 C774 1.434 . S
C774 C765 1.429 . S
C774 N771 1.350 . S
C774 C773 1.434 . S
C775 C776 1.369 . S
C775 C777 1.419 . S
C775 H779 0.930 . S
C776 C775 1.369 . S
C776 C785 1.429 . S
C777 C775 1.419 . S
C777 C778 1.363 . S
C777 H780 0.929 . S
C778 C777 1.363 . S
C778 C784 1.428 . S
H779 C775 0.930 . S
H780 C777 0.929 . S
S781 N782 1.613 . S
S781 N783 1.610 . S
N782 S781 1.613 . S
N782 C785 1.350 . S
N783 S781 1.610 . S
N783 C784 1.351 . S
C784 C778 1.428 . S
C784 N783 1.351 . S
C784 C785 1.434 . S
C785 C776 1.429 . S
C785 N782 1.350 . S
C785 C784 1.434 . S
C786 C787 1.369 . S
C786 C788 1.419 . S
C786 H790 0.930 . S
C787 C786 1.369 . S
C787 C796 1.429 . S
C788 C786 1.419 . S
C788 C789 1.363 . S
C788 H791 0.929 . S
C789 C788 1.363 . S
C789 C795 1.428 . S
H790 C786 0.930 . S
H791 C788 0.929 . S
S792 N793 1.613 . S
S792 N794 1.610 . S
N793 S792 1.613 . S
N793 C796 1.350 . S
N794 S792 1.610 . S
N794 C795 1.351 . S
C795 C789 1.428 . S
C795 N794 1.351 . S
C795 C796 1.434 . S
C796 C787 1.429 . S
C796 N793 1.350 . S
C796 C795 1.434 . S
C797 C798 1.369 . S
C797 C799 1.419 . S
C797 H801 0.930 . S
C798 C797 1.369 . S
C798 C807 1.429 . S
C799 C797 1.419 . S
C799 C800 1.363 . S
C799 H802 0.929 . S
C800 C799 1.363 . S
C800 C806 1.428 . S
H801 C797 0.930 . S
H802 C799 0.929 . S
S803 N804 1.613 . S
S803 N805 1.610 . S
N804 S803 1.613 . S
N804 C807 1.350 . S
N805 S803 1.610 . S
N805 C806 1.351 . S
C806 C800 1.428 . S
C806 N805 1.351 . S
C806 C807 1.434 . S
C807 C798 1.429 . S
C807 N804 1.350 . S
C807 C806 1.434 . S
C808 C809 1.369 . S
C808 C810 1.419 . S
C808 H812 0.930 . S
C809 C808 1.369 . S
C809 C818 1.429 . S
C810 C808 1.419 . S
C810 C811 1.363 . S
C810 H813 0.929 . S
C811 C810 1.363 . S
C811 C817 1.428 . S
H812 C808 0.930 . S
H813 C810 0.929 . S
S814 N815 1.613 . S
S814 N816 1.610 . S
N815 S814 1.613 . S
N815 C818 1.350 . S
N816 S814 1.610 . S
N816 C817 1.351 . S
C817 C811 1.428 . S
C817 N816 1.351 . S
C817 C818 1.434 . S
C818 C809 1.429 . S
C818 N815 1.350 . S
C818 C817 1.434 . S
C819 C820 1.369 . S
C819 C821 1.419 . S
C819 H823 0.930 . S
C820 C819 1.369 . S
C820 C829 1.429 1_545 S
C821 C819 1.419 . S
C821 C822 1.363 . S
C821 H824 0.929 . S
C822 C821 1.363 . S
C822 C828 1.428 1_545 S
H823 C819 0.930 . S
H824 C821 0.929 . S
S825 N826 1.613 . S
S825 N827 1.610 . S
N826 S825 1.613 . S
N826 C829 1.350 . S
N827 S825 1.610 . S
N827 C828 1.351 . S
C828 C822 1.428 1_565 S
C828 N827 1.351 . S
C828 C829 1.434 . S
C829 C820 1.429 1_565 S
C829 N826 1.350 . S
C829 C828 1.434 . S
C830 C831 1.369 1_554 S
C830 C832 1.419 . S
C830 H834 0.930 . S
C831 C830 1.369 1_556 S
C831 C840 1.429 . S
C832 C830 1.419 . S
C832 C833 1.363 . S
C832 H835 0.929 . S
C833 C832 1.363 . S
C833 C839 1.428 1_554 S
H834 C830 0.930 . S
H835 C832 0.929 . S
S836 N837 1.613 . S
S836 N838 1.610 . S
N837 S836 1.613 . S
N837 C840 1.350 . S
N838 S836 1.610 . S
N838 C839 1.351 . S
C839 C833 1.428 1_556 S
C839 N838 1.351 . S
C839 C840 1.434 . S
C840 C831 1.429 . S
C840 N837 1.350 . S
C840 C839 1.434 . S
C841 C842 1.369 . S
C841 C843 1.419 . S
C841 H845 0.930 . S
C842 C841 1.369 . S
C842 C851 1.429 1_565 S
C843 C841 1.419 . S
C843 C844 1.363 . S
C843 H846 0.929 . S
C844 C843 1.363 . S
C844 C850 1.428 1_565 S
H845 C841 0.930 . S
H846 C843 0.929 . S
S847 N848 1.613 . S
S847 N849 1.610 . S
N848 S847 1.613 . S
N848 C851 1.350 . S
N849 S847 1.610 . S
N849 C850 1.351 . S
C850 C844 1.428 1_545 S
C850 N849 1.351 . S
C850 C851 1.434 . S
C851 C842 1.429 1_545 S
C851 N848 1.350 . S
C851 C850 1.434 . S
C852 C853 1.369 . S
C852 C854 1.419 . S
C852 H856 0.930 . S
C853 C852 1.369 . S
C853 C862 1.429 . S
C854 C852 1.419 . S
C854 C855 1.363 . S
C854 H857 0.929 . S
C855 C854 1.363 . S
C855 C861 1.428 . S
H856 C852 0.930 . S
H857 C854 0.929 . S
S858 N859 1.613 . S
S858 N860 1.610 . S
N859 S858 1.613 . S
N859 C862 1.350 . S
N860 S858 1.610 . S
N860 C861 1.351 . S
C861 C855 1.428 . S
C861 N860 1.351 . S
C861 C862 1.434 . S
C862 C853 1.429 . S
C862 N859 1.350 . S
C862 C861 1.434 . S
C863 C864 1.369 . S
C863 C865 1.419 . S
C863 H867 0.930 . S
C864 C863 1.369 . S
C864 C873 1.429 . S
C865 C863 1.419 . S
C865 C866 1.363 . S
C865 H868 0.929 . S
C866 C865 1.363 . S
C866 C872 1.428 1_565 S
H867 C863 0.930 . S
H868 C865 0.929 . S
S869 N870 1.613 . S
S869 N871 1.610 . S
N870 S869 1.613 . S
N870 C873 1.350 1_545 S
N871 S869 1.610 . S
N871 C872 1.351 . S
C872 C866 1.428 1_545 S
C872 N871 1.351 . S
C872 C873 1.434 1_545 S
C873 C864 1.429 . S
C873 N870 1.350 1_565 S
C873 C872 1.434 1_565 S
C874 C875 1.369 . S
C874 C876 1.419 . S
C874 H878 0.930 . S
C875 C874 1.369 . S
C875 C884 1.429 1_554 S
C876 C874 1.419 . S
C876 C877 1.363 1_554 S
C876 H879 0.929 . S
C877 C876 1.363 1_556 S
C877 C883 1.428 . S
H878 C874 0.930 . S
H879 C876 0.929 . S
S880 N881 1.613 . S
S880 N882 1.610 . S
N881 S880 1.613 . S
N881 C884 1.350 . S
N882 S880 1.610 . S
N882 C883 1.351 . S
C883 C877 1.428 . S
C883 N882 1.351 . S
C883 C884 1.434 . S
C884 C875 1.429 1_556 S
C884 N881 1.350 . S
C884 C883 1.434 . S
C885 C886 1.369 . S
C885 C887 1.419 . S
C885 H889 0.930 . S
C886 C885 1.369 . S
C886 C895 1.429 1_545 S
C887 C885 1.419 . S
C887 C888 1.363 . S
C887 H890 0.929 . S
C888 C887 1.363 . S
C888 C894 1.428 1_545 S
H889 C885 0.930 . S
H890 C887 0.929 . S
S891 N892 1.613 . S
S891 N893 1.610 . S
N892 S891 1.613 . S
N892 C895 1.350 . S
N893 S891 1.610 . S
N893 C894 1.351 . S
C894 C888 1.428 1_565 S
C894 N893 1.351 . S
C894 C895 1.434 . S
C895 C886 1.429 1_565 S
C895 N892 1.350 . S
C895 C894 1.434 . S
C896 C897 1.369 . S
C896 C898 1.419 . S
C896 H900 0.930 . S
C897 C896 1.369 . S
C897 C906 1.429 . S
C898 C896 1.419 . S
C898 C899 1.363 . S
C898 H901 0.929 . S
C899 C898 1.363 . S
C899 C905 1.428 . S
H900 C896 0.930 . S
H901 C898 0.929 . S
S902 N903 1.613 . S
S902 N904 1.610 . S
N903 S902 1.613 . S
N903 C906 1.350 . S
N904 S902 1.610 . S
N904 C905 1.351 . S
C905 C899 1.428 . S
C905 N904 1.351 . S
C905 C906 1.434 . S
C906 C897 1.429 . S
C906 N903 1.350 . S
C906 C905 1.434 . S
C907 C908 1.369 . S
C907 C909 1.419 . S
C907 H911 0.930 . S
C908 C907 1.369 . S
C908 C917 1.429 . S
C909 C907 1.419 . S
C909 C910 1.363 . S
C909 H912 0.929 . S
C910 C909 1.363 . S
C910 C916 1.428 . S
H911 C907 0.930 . S
H912 C909 0.929 . S
S913 N914 1.613 . S
S913 N915 1.610 . S
N914 S913 1.613 . S
N914 C917 1.350 . S
N915 S913 1.610 . S
N915 C916 1.351 . S
C916 C910 1.428 . S
C916 N915 1.351 . S
C916 C917 1.434 . S
C917 C908 1.429 . S
C917 N914 1.350 . S
C917 C916 1.434 . S
C918 C919 1.369 . S
C918 C920 1.419 . S
C918 H922 0.930 1_565 S
C919 C918 1.369 . S
C919 C928 1.429 . S
C920 C918 1.419 . S
C920 C921 1.363 . S
C920 H923 0.929 . S
C921 C920 1.363 . S
C921 C927 1.428 . S
H922 C918 0.930 1_545 S
H923 C920 0.929 . S
S924 N925 1.613 . S
S924 N926 1.610 . S
N925 S924 1.613 . S
N925 C928 1.350 . S
N926 S924 1.610 . S
N926 C927 1.351 . S
C927 C921 1.428 . S
C927 N926 1.351 . S
C927 C928 1.434 . S
C928 C919 1.429 . S
C928 N925 1.350 . S
C928 C927 1.434 . S
C929 C930 1.369 . S
C929 C931 1.419 . S
C929 H933 0.930 . S
C930 C929 1.369 . S
C930 C939 1.429 . S
C931 C929 1.419 . S
C931 C932 1.363 . S
C931 H934 0.929 . S
C932 C931 1.363 . S
C932 C938 1.428 . S
H933 C929 0.930 . S
H934 C931 0.929 . S
S935 N936 1.613 . S
S935 N937 1.610 . S
N936 S935 1.613 . S
N936 C939 1.350 . S
N937 S935 1.610 . S
N937 C938 1.351 . S
C938 C932 1.428 . S
C938 N937 1.351 . S
C938 C939 1.434 . S
C939 C930 1.429 . S
C939 N936 1.350 . S
C939 C938 1.434 . S
C940 C941 1.369 . S
C940 C942 1.419 . S
C940 H944 0.930 . S
C941 C940 1.369 . S
C941 C950 1.429 . S
C942 C940 1.419 . S
C942 C943 1.363 . S
C942 H945 0.929 1_565 S
C943 C942 1.363 . S
C943 C949 1.428 . S
H944 C940 0.930 . S
H945 C942 0.929 1_545 S
S946 N947 1.613 . S
S946 N948 1.610 . S
N947 S946 1.613 . S
N947 C950 1.350 . S
N948 S946 1.610 . S
N948 C949 1.351 . S
C949 C943 1.428 . S
C949 N948 1.351 . S
C949 C950 1.434 . S
C950 C941 1.429 . S
C950 N947 1.350 . S
C950 C949 1.434 . S
C951 C952 1.369 . S
C951 C953 1.419 . S
C951 H955 0.930 . S
C952 C951 1.369 . S
C952 C961 1.429 . S
C953 C951 1.419 . S
C953 C954 1.363 . S
C953 H956 0.929 . S
C954 C953 1.363 . S
C954 C960 1.428 . S
H955 C951 0.930 . S
H956 C953 0.929 . S
S957 N958 1.613 . S
S957 N959 1.610 . S
N958 S957 1.613 . S
N958 C961 1.350 . S
N959 S957 1.610 . S
N959 C960 1.351 . S
C960 C954 1.428 . S
C960 N959 1.351 . S
C960 C961 1.434 . S
C961 C952 1.429 . S
C961 N958 1.350 . S
C961 C960 1.434 . S
C962 C963 1.369 . S
C962 C964 1.419 . S
C962 H966 0.930 . S
C963 C962 1.369 . S
C963 C972 1.429 . S
C964 C962 1.419 . S
C964 C965 1.363 . S
C964 H967 0.929 . S
C965 C964 1.363 . S
C965 C971 1.428 . S
H966 C962 0.930 . S
H967 C964 0.929 . S
S968 N969 1.613 . S
S968 N970 1.610 . S
N969 S968 1.613 . S
N969 C972 1.350 . S
N970 S968 1.610 . S
N970 C971 1.351 . S
C971 C965 1.428 . S
C971 N970 1.351 . S
C971 C972 1.434 . S
C972 C963 1.429 . S
C972 N969 1.350 . S
C972 C971 1.434 . S
C973 C974 1.369 . S
C973 C975 1.419 . S
C973 H977 0.930 . S
C974 C973 1.369 . S
C974 C983 1.429 . S
C975 C973 1.419 . S
C975 C976 1.363 . S
C975 H978 0.929 . S
C976 C975 1.363 . S
C976 C982 1.428 . S
H977 C973 0.930 . S
H978 C975 0.929 . S
S979 N980 1.613 . S
S979 N981 1.610 . S
N980 S979 1.613 . S
N980 C983 1.350 . S
N981 S979 1.610 . S
N981 C982 1.351 . S
C982 C976 1.428 . S
C982 N981 1.351 . S
C982 C983 1.434 . S
C983 C974 1.429 . S
C983 N980 1.350 . S
C983 C982 1.434 . S
C984 C985 1.369 . S
C984 C986 1.419 . S
C984 H988 0.930 . S
C985 C984 1.369 . S
C985 C994 1.429 . S
C986 C984 1.419 . S
C986 C987 1.363 . S
C986 H989 0.929 . S
C987 C986 1.363 . S
C987 C993 1.428 . S
H988 C984 0.930 . S
H989 C986 0.929 . S
S990 N991 1.613 . S
S990 N992 1.610 . S
N991 S990 1.613 . S
N991 C994 1.350 . S
N992 S990 1.610 . S
N992 C993 1.351 . S
C993 C987 1.428 . S
C993 N992 1.351 . S
C993 C994 1.434 . S
C994 C985 1.429 . S
C994 N991 1.350 . S
C994 C993 1.434 . S
C995 C996 1.369 . S
C995 C997 1.419 . S
C995 H999 0.930 . S
C996 C995 1.369 . S
C996 C1005 1.429 . S
C997 C995 1.419 . S
C997 C998 1.363 . S
C997 H1000 0.929 . S
C998 C997 1.363 . S
C998 C1004 1.428 . S
H999 C995 0.930 . S
H1000 C997 0.929 . S
S1001 N1002 1.613 . S
S1001 N1003 1.610 . S
N1002 S1001 1.613 . S
N1002 C1005 1.350 . S
N1003 S1001 1.610 . S
N1003 C1004 1.351 . S
C1004 C998 1.428 . S
C1004 N1003 1.351 . S
C1004 C1005 1.434 . S
C1005 C996 1.429 . S
C1005 N1002 1.350 . S
C1005 C1004 1.434 . S
C1006 C1007 1.369 . S
C1006 C1008 1.419 . S
C1006 H1010 0.930 . S
C1007 C1006 1.369 . S
C1007 C1016 1.429 . S
C1008 C1006 1.419 . S
C1008 C1009 1.363 . S
C1008 H1011 0.929 . S
C1009 C1008 1.363 . S
C1009 C1015 1.428 . S
H1010 C1006 0.930 . S
H1011 C1008 0.929 . S
S1012 N1013 1.613 . S
S1012 N1014 1.610 . S
N1013 S1012 1.613 . S
N1013 C1016 1.350 . S
N1014 S1012 1.610 . S
N1014 C1015 1.351 . S
C1015 C1009 1.428 . S
C1015 N1014 1.351 . S
C1015 C1016 1.434 . S
C1016 C1007 1.429 . S
C1016 N1013 1.350 . S
C1016 C1015 1.434 . S
C1017 C1018 1.369 . S
C1017 C1019 1.419 . S
C1017 H1021 0.930 1_545 S
C1018 C1017 1.369 . S
C1018 C1027 1.429 . S
C1019 C1017 1.419 . S
C1019 C1020 1.363 . S
C1019 H1022 0.929 . S
C1020 C1019 1.363 . S
C1020 C1026 1.428 . S
H1021 C1017 0.930 1_565 S
H1022 C1019 0.929 . S
S1023 N1024 1.613 . S
S1023 N1025 1.610 . S
N1024 S1023 1.613 . S
N1024 C1027 1.350 . S
N1025 S1023 1.610 . S
N1025 C1026 1.351 . S
C1026 C1020 1.428 . S
C1026 N1025 1.351 . S
C1026 C1027 1.434 . S
C1027 C1018 1.429 . S
C1027 N1024 1.350 . S
C1027 C1026 1.434 . S
C1028 C1029 1.369 . S
C1028 C1030 1.419 . S
C1028 H1032 0.930 . S
C1029 C1028 1.369 . S
C1029 C1038 1.429 . S
C1030 C1028 1.419 . S
C1030 C1031 1.363 . S
C1030 H1033 0.929 . S
C1031 C1030 1.363 . S
C1031 C1037 1.428 . S
H1032 C1028 0.930 . S
H1033 C1030 0.929 . S
S1034 N1035 1.613 . S
S1034 N1036 1.610 . S
N1035 S1034 1.613 . S
N1035 C1038 1.350 . S
N1036 S1034 1.610 . S
N1036 C1037 1.351 . S
C1037 C1031 1.428 . S
C1037 N1036 1.351 . S
C1037 C1038 1.434 . S
C1038 C1029 1.429 . S
C1038 N1035 1.350 . S
C1038 C1037 1.434 . S
C1039 C1040 1.369 . S
C1039 C1041 1.419 1_545 S
C1039 H1043 0.930 1_545 S
C1040 C1039 1.369 . S
C1040 C1049 1.429 . S
C1041 C1039 1.419 1_565 S
C1041 C1042 1.363 1_565 S
C1041 H1044 0.929 . S
C1042 C1041 1.363 1_545 S
C1042 C1048 1.428 . S
H1043 C1039 0.930 1_565 S
H1044 C1041 0.929 . S
S1045 N1046 1.613 . S
S1045 N1047 1.610 . S
N1046 S1045 1.613 . S
N1046 C1049 1.350 . S
N1047 S1045 1.610 . S
N1047 C1048 1.351 . S
C1048 C1042 1.428 . S
C1048 N1047 1.351 . S
C1048 C1049 1.434 . S
C1049 C1040 1.429 . S
C1049 N1046 1.350 . S
C1049 C1048 1.434 . S
C1050 C1051 1.369 . S
C1050 C1052 1.419 . S
C1050 H1054 0.930 . S
C1051 C1050 1.369 . S
C1051 C1060 1.429 . S
C1052 C1050 1.419 . S
C1052 C1053 1.363 . S
C1052 H1055 0.929 . S
C1053 C1052 1.363 . S
C1053 C1059 1.428 . S
H1054 C1050 0.930 . S
H1055 C1052 0.929 . S
S1056 N1057 1.613 . S
S1056 N1058 1.610 . S
N1057 S1056 1.613 . S
N1057 C1060 1.350 . S
N1058 S1056 1.610 . S
N1058 C1059 1.351 . S
C1059 C1053 1.428 . S
C1059 N1058 1.351 . S
C1059 C1060 1.434 . S
C1060 C1051 1.429 . S
C1060 N1057 1.350 . S
C1060 C1059 1.434 . S
C1061 C1062 1.369 . S
C1061 C1063 1.419 . S
C1061 H1065 0.930 . S
C1062 C1061 1.369 . S
C1062 C1071 1.429 . S
C1063 C1061 1.419 . S
C1063 C1064 1.363 . S
C1063 H1066 0.929 . S
C1064 C1063 1.363 . S
C1064 C1070 1.428 . S
H1065 C1061 0.930 . S
H1066 C1063 0.929 . S
S1067 N1068 1.613 . S
S1067 N1069 1.610 . S
N1068 S1067 1.613 . S
N1068 C1071 1.350 . S
N1069 S1067 1.610 . S
N1069 C1070 1.351 . S
C1070 C1064 1.428 . S
C1070 N1069 1.351 . S
C1070 C1071 1.434 . S
C1071 C1062 1.429 . S
C1071 N1068 1.350 . S
C1071 C1070 1.434 . S
C1072 C1073 1.369 . S
C1072 C1074 1.419 . S
C1072 H1076 0.930 1_556 S
C1073 C1072 1.369 . S
C1073 C1082 1.429 . S
C1074 C1072 1.419 . S
C1074 C1075 1.363 . S
C1074 H1077 0.929 1_556 S
C1075 C1074 1.363 . S
C1075 C1081 1.428 . S
H1076 C1072 0.930 1_554 S
H1077 C1074 0.929 1_554 S
S1078 N1079 1.613 . S
S1078 N1080 1.610 . S
N1079 S1078 1.613 . S
N1079 C1082 1.350 . S
N1080 S1078 1.610 . S
N1080 C1081 1.351 . S
C1081 C1075 1.428 . S
C1081 N1080 1.351 . S
C1081 C1082 1.434 . S
C1082 C1073 1.429 . S
C1082 N1079 1.350 . S
C1082 C1081 1.434 . S
C1083 C1084 1.369 . S
C1083 C1085 1.419 . S
C1083 H1087 0.930 . S
C1084 C1083 1.369 . S
C1084 C1093 1.429 . S
C1085 C1083 1.419 . S
C1085 C1086 1.363 . S
C1085 H1088 0.929 . S
C1086 C1085 1.363 . S
C1086 C1092 1.428 . S
H1087 C1083 0.930 . S
H1088 C1085 0.929 . S
S1089 N1090 1.613 . S
S1089 N1091 1.610 . S
N1090 S1089 1.613 . S
N1090 C1093 1.350 . S
N1091 S1089 1.610 . S
N1091 C1092 1.351 . S
C1092 C1086 1.428 . S
C1092 N1091 1.351 . S
C1092 C1093 1.434 . S
C1093 C1084 1.429 . S
C1093 N1090 1.350 . S
C1093 C1092 1.434 . S
C1094 C1095 1.369 . S
C1094 C1096 1.419 . S
C1094 H1098 0.930 . S
C1095 C1094 1.369 . S
C1095 C1104 1.429 1_455 S
C1096 C1094 1.419 . S
C1096 C1097 1.363 1_455 S
C1096 H1099 0.929 . S
C1097 C1096 1.363 1_655 S
C1097 C1103 1.428 . S
H1098 C1094 0.930 . S
H1099 C1096 0.929 . S
S1100 N1101 1.613 . S
S1100 N1102 1.610 . S
N1101 S1100 1.613 . S
N1101 C1104 1.350 . S
N1102 S1100 1.610 . S
N1102 C1103 1.351 . S
C1103 C1097 1.428 . S
C1103 N1102 1.351 . S
C1103 C1104 1.434 . S
C1104 C1095 1.429 1_655 S
C1104 N1101 1.350 . S
C1104 C1103 1.434 . S
C1105 C1106 1.369 . S
C1105 C1107 1.419 1_455 S
C1105 H1109 0.930 . S
C1106 C1105 1.369 . S
C1106 C1115 1.429 . S
C1107 C1105 1.419 1_655 S
C1107 C1108 1.363 . S
C1107 H1110 0.929 . S
C1108 C1107 1.363 . S
C1108 C1114 1.428 . S
H1109 C1105 0.930 . S
H1110 C1107 0.929 . S
S1111 N1112 1.613 1_655 S
S1111 N1113 1.610 . S
N1112 S1111 1.613 1_455 S
N1112 C1115 1.350 . S
N1113 S1111 1.610 . S
N1113 C1114 1.351 . S
C1114 C1108 1.428 . S
C1114 N1113 1.351 . S
C1114 C1115 1.434 1_655 S
C1115 C1106 1.429 . S
C1115 N1112 1.350 . S
C1115 C1114 1.434 1_455 S
C1116 C1117 1.369 . S
C1116 C1118 1.419 . S
C1116 H1120 0.930 . S
C1117 C1116 1.369 . S
C1117 C1126 1.429 . S
C1118 C1116 1.419 . S
C1118 C1119 1.363 . S
C1118 H1121 0.929 . S
C1119 C1118 1.363 . S
C1119 C1125 1.428 . S
H1120 C1116 0.930 . S
H1121 C1118 0.929 . S
S1122 N1123 1.613 . S
S1122 N1124 1.610 . S
N1123 S1122 1.613 . S
N1123 C1126 1.350 . S
N1124 S1122 1.610 . S
N1124 C1125 1.351 . S
C1125 C1119 1.428 . S
C1125 N1124 1.351 . S
C1125 C1126 1.434 . S
C1126 C1117 1.429 . S
C1126 N1123 1.350 . S
C1126 C1125 1.434 . S
C1127 C1128 1.369 . S
C1127 C1129 1.419 . S
C1127 H1131 0.930 . S
C1128 C1127 1.369 . S
C1128 C1137 1.429 . S
C1129 C1127 1.419 . S
C1129 C1130 1.363 . S
C1129 H1132 0.929 . S
C1130 C1129 1.363 . S
C1130 C1136 1.428 . S
H1131 C1127 0.930 . S
H1132 C1129 0.929 . S
S1133 N1134 1.613 . S
S1133 N1135 1.610 . S
N1134 S1133 1.613 . S
N1134 C1137 1.350 . S
N1135 S1133 1.610 . S
N1135 C1136 1.351 . S
C1136 C1130 1.428 . S
C1136 N1135 1.351 . S
C1136 C1137 1.434 . S
C1137 C1128 1.429 . S
C1137 N1134 1.350 . S
C1137 C1136 1.434 . S
C1138 C1139 1.369 . S
C1138 C1140 1.419 1_455 S
C1138 H1142 0.930 . S
C1139 C1138 1.369 . S
C1139 C1148 1.429 . S
C1140 C1138 1.419 1_655 S
C1140 C1141 1.363 . S
C1140 H1143 0.929 . S
C1141 C1140 1.363 . S
C1141 C1147 1.428 . S
H1142 C1138 0.930 . S
H1143 C1140 0.929 . S
S1144 N1145 1.613 1_655 S
S1144 N1146 1.610 . S
N1145 S1144 1.613 1_455 S
N1145 C1148 1.350 . S
N1146 S1144 1.610 . S
N1146 C1147 1.351 . S
C1147 C1141 1.428 . S
C1147 N1146 1.351 . S
C1147 C1148 1.434 1_655 S
C1148 C1139 1.429 . S
C1148 N1145 1.350 . S
C1148 C1147 1.434 1_455 S
C1149 C1150 1.369 . S
C1149 C1151 1.419 1_455 S
C1149 H1153 0.930 . S
C1150 C1149 1.369 . S
C1150 C1159 1.429 . S
C1151 C1149 1.419 1_655 S
C1151 C1152 1.363 . S
C1151 H1154 0.929 . S
C1152 C1151 1.363 . S
C1152 C1158 1.428 . S
H1153 C1149 0.930 . S
H1154 C1151 0.929 . S
S1155 N1156 1.613 1_655 S
S1155 N1157 1.610 . S
N1156 S1155 1.613 1_455 S
N1156 C1159 1.350 . S
N1157 S1155 1.610 . S
N1157 C1158 1.351 . S
C1158 C1152 1.428 . S
C1158 N1157 1.351 . S
C1158 C1159 1.434 1_655 S
C1159 C1150 1.429 . S
C1159 N1156 1.350 . S
C1159 C1158 1.434 1_455 S
C545 C253 1.586 . S
C547 C3 1.570 . S
C556 C430 1.580 . S
C558 C37 1.573 . S
C567 C71 1.575 . S
C569 C185 1.582 . S
C578 C498 1.581 . S
C580 C105 1.569 . S
C589 C117 1.583 . S
C591 C137 1.568 . S
C600 C173 1.572 . S
C602 C287 1.585 . S
C611 C205 1.569 . S
C613 C49 1.581 . S
C622 C362 1.583 . S
C624 C241 1.574 . S
C633 C525 1.586 . S
C635 C275 1.570 . S
C644 C307 1.575 . S
C646 C158 1.582 . S
C655 C464 1.580 . S
C657 C341 1.573 . S
C666 C226 1.586 . S
C668 C375 1.569 . S
C677 C396 1.581 . S
C679 C409 1.574 . S
C688 C443 1.571 . S
C690 C15 1.585 . S
C699 C477 1.568 . S
C701 C328 1.582 . S
C710 C83 1.586 . S
C712 C513 1.570 . S
C721 C17 2.267 1_565 S
C723 C479 2.173 . S
C732 C239 2.171 1_655 S
C734 C51 2.267 . S
C743 C411 2.177 . S
C745 C85 2.268 1_545 S
C754 C119 2.267 . S
C756 C171 2.172 . S
C765 C343 2.171 . S
C767 C153 2.267 1_545 S
C776 C103 2.177 1_455 S
C778 C187 2.270 . S
C787 C221 2.267 1_565 S
C789 C273 2.171 . S
C798 C255 2.267 . S
C800 C35 2.174 . S
C809 C289 2.269 . S
C811 C207 2.177 . S
C820 C323 2.267 . S
C822 C511 2.172 1_545 S
C831 C139 2.174 . S
C833 C357 2.270 . S
C842 C445 2.171 1_465 S
C844 C391 2.267 . S
C853 C69 2.171 . S
C855 C425 2.267 . S
C864 C459 2.268 . S
C866 C377 2.176 1_565 S
C875 C1 2.178 . S
C877 C493 2.269 . S
C886 C309 2.173 1_645 S
C888 C527 2.267 . S
C897 C6 1.332 . S
C899 C312 1.374 . S
C908 C346 1.372 . S
C910 C40 1.333 . S
C919 C380 1.372 . S
C921 C74 1.334 . S
C930 C300 1.377 . S
C932 C108 1.326 . S
C941 C164 1.334 . S
C943 C448 1.373 . S
C952 C176 1.334 . S
C954 C482 1.373 . S
C963 C538 1.372 . S
C965 C232 1.334 . S
C974 C414 1.373 . S
C976 C244 1.333 . S
C985 C62 1.378 . S
C987 C278 1.325 . S
C996 C96 1.377 . S
C998 C334 1.326 . S
C1007 C368 1.324 . S
C1009 C130 1.377 . S
C1018 C402 1.333 . S
C1020 C28 1.374 . S
C1029 C436 1.333 . S
C1031 C198 1.374 . S
C1040 C210 1.375 . S
C1042 C470 1.330 . S
C1051 C504 1.335 . S
C1053 C266 1.373 . S
C1062 C142 1.378 . S
C1064 C516 1.325 . S
C1073 C355 1.203 . S
C1075 C22 1.195 . S
C1084 C56 1.201 . S
C1086 C389 1.192 . S
C1095 C90 1.184 . S
C1097 C294 1.186 . S
C1106 C321 1.195 . S
C1108 C124 1.200 . S
C1117 C151 1.203 . S
C1119 C491 1.194 . S
C1128 C532 1.188 . S
C1130 C192 1.186 . S
C1139 C423 1.188 . S
C1141 C219 1.185 . S
C1150 C260 1.190 . S
C1152 C457 1.199 . S
