# Generated by pormake.
# Topology umf, (4)-cn, num edge types: 1
# Building blocks:
#     Node 0, Type 0, BuildingBlock: CEKHIL_clean_sbu_0, # of connection points: 4
#     Node 1, Type 0, BuildingBlock: CEKHIL_clean_sbu_0, # of connection points: 4
#     Node 2, Type 0, BuildingBlock: CEKHIL_clean_sbu_0, # of connection points: 4
#     Node 3, Type 0, BuildingBlock: CEKHIL_clean_sbu_0, # of connection points: 4
#     Node 4, Type 0, BuildingBlock: CEKHIL_clean_sbu_0, # of connection points: 4
#     Node 5, Type 0, BuildingBlock: CEKHIL_clean_sbu_0, # of connection points: 4
#     Node 6, Type 0, BuildingBlock: CEKHIL_clean_sbu_0, # of connection points: 4
#     Node 7, Type 0, BuildingBlock: CEKHIL_clean_sbu_0, # of connection points: 4
#     Edge 8, Type (0, 0), BuildingBlock: FUNLAD_clean_linker_1, # of connection points: 2
#     Edge 9, Type (0, 0), BuildingBlock: FUNLAD_clean_linker_1, # of connection points: 2
#     Edge 10, Type (0, 0), BuildingBlock: FUNLAD_clean_linker_1, # of connection points: 2
#     Edge 11, Type (0, 0), BuildingBlock: FUNLAD_clean_linker_1, # of connection points: 2
#     Edge 12, Type (0, 0), BuildingBlock: FUNLAD_clean_linker_1, # of connection points: 2
#     Edge 13, Type (0, 0), BuildingBlock: FUNLAD_clean_linker_1, # of connection points: 2
#     Edge 14, Type (0, 0), BuildingBlock: FUNLAD_clean_linker_1, # of connection points: 2
#     Edge 15, Type (0, 0), BuildingBlock: FUNLAD_clean_linker_1, # of connection points: 2
#     Edge 16, Type (0, 0), BuildingBlock: FUNLAD_clean_linker_1, # of connection points: 2
#     Edge 17, Type (0, 0), BuildingBlock: FUNLAD_clean_linker_1, # of connection points: 2
#     Edge 18, Type (0, 0), BuildingBlock: FUNLAD_clean_linker_1, # of connection points: 2
#     Edge 19, Type (0, 0), BuildingBlock: FUNLAD_clean_linker_1, # of connection points: 2
#     Edge 20, Type (0, 0), BuildingBlock: FUNLAD_clean_linker_1, # of connection points: 2
#     Edge 21, Type (0, 0), BuildingBlock: FUNLAD_clean_linker_1, # of connection points: 2
#     Edge 22, Type (0, 0), BuildingBlock: FUNLAD_clean_linker_1, # of connection points: 2
#     Edge 23, Type (0, 0), BuildingBlock: FUNLAD_clean_linker_1, # of connection points: 2
# Relax obj value: 0.166
# Max RMSD: 0.288
# Mean RMSD: 0.281
data_MOF--net-umf--node1-CEKHIL_clean_sbu_0--edge1-FUNLAD_clean_linker_1
_symmetry_space_group_name_H-M    P1
_symmetry_Int_Tables_number       1
_symmetry_cell_setting            triclinic
loop_
_symmetry_equiv_pos_as_xyz
'x, y, z'
_cell_length_a     29.192314
_cell_length_b     27.700669
_cell_length_c     55.015097
_cell_angle_alpha  90.006474
_cell_angle_beta   90.101725
_cell_angle_gamma 90.073845
loop_
_atom_site_label
_atom_site_type_symbol
_atom_site_fract_x
_atom_site_fract_y
_atom_site_fract_z
_atom_type_partial_charge
Co0 Co 0.06255 0.26019 0.14654 0.0
O1 O 0.08914 0.28251 0.17618 0.0
O2 O 0.12063 0.22704 0.15255 0.0
C3 C 0.04355 0.33333 0.13276 0.0
O4 O 0.0424 0.23171 0.11354 0.0
Co5 Co 0.95847 0.27495 0.14264 0.0
O6 O 0.96799 0.25238 0.10902 0.0
C7 C 0.99149 0.19427 0.17116 0.0
C8 C 0.12177 0.25202 0.17269 0.0
C9 C 0.00486 0.23389 0.10099 0.0
O10 O 0.03182 0.20672 0.16475 0.0
O11 O 0.95556 0.21767 0.16506 0.0
O12 O 0.08456 0.31656 0.12947 0.0
O13 O 0.01708 0.3079 0.14672 0.0
Co14 Co 0.73505 0.06855 0.64814 0.0
O15 O 0.66967 0.06856 0.64971 0.0
O16 O 0.71299 0.00279 0.64787 0.0
C17 C 0.7478 0.1222 0.67803 0.0
O18 O 0.80332 0.05478 0.64728 0.0
Co19 Co 0.78555 0.15807 0.63098 0.0
O20 O 0.84069 0.12525 0.64352 0.0
C21 C 0.74899 0.0928 0.59406 0.0
C22 C 0.67232 0.02185 0.64862 0.0
C23 C 0.8403 0.07993 0.6472 0.0
O24 O 0.73181 0.06825 0.61153 0.0
O25 O 0.77222 0.13139 0.59749 0.0
O26 O 0.74005 0.0771 0.68279 0.0
O27 O 0.74193 0.13549 0.65554 0.0
Co28 Co 0.9143 0.75592 0.14646 0.0
O29 O 0.89589 0.74153 0.17897 0.0
O30 O 0.85455 0.78461 0.1532 0.0
C31 C 0.9376 0.68184 0.13688 0.0
O32 O 0.92501 0.77501 0.1107 0.0
Co33 Co 0.0181 0.74965 0.13711 0.0
O34 O -0.00152 0.75525 0.10283 0.0
C35 C 0.98317 0.8342 0.16196 0.0
C36 C 0.85958 0.767 0.17506 0.0
C37 C 0.95905 0.76949 0.09589 0.0
O38 O 0.94309 0.81705 0.15837 0.0
O39 O 0.0198 0.812 0.15592 0.0
O40 O 0.8946 0.6932 0.1353 0.0
O41 O 0.96414 0.71335 0.14725 0.0
Co42 Co 0.26012 0.90441 0.62753 0.0
O43 O 0.32323 0.88745 0.62317 0.0
O44 O 0.29674 0.96224 0.62685 0.0
C45 C 0.24412 0.85088 0.65737 0.0
O46 O 0.19814 0.93517 0.63326 0.0
Co47 Co 0.18498 0.83006 0.61464 0.0
O48 O 0.14441 0.877 0.63102 0.0
C49 C 0.22398 0.88976 0.57546 0.0
C50 C 0.33154 0.93342 0.62451 0.0
C51 C 0.15664 0.92037 0.6353 0.0
O52 O 0.25049 0.90986 0.5912 0.0
O53 O 0.19651 0.85534 0.58081 0.0
O54 O 0.26481 0.89124 0.66209 0.0
O55 O 0.23916 0.84106 0.63443 0.0
Co56 Co 0.05853 0.74581 0.8557 0.0
O57 O 0.07712 0.73178 0.82299 0.0
O58 O 0.12207 0.76492 0.85079 0.0
C59 C 0.02281 0.67664 0.8634 0.0
O60 O 0.04913 0.76357 0.89171 0.0
Co61 Co 0.95375 0.7549 0.86495 0.0
O62 O 0.97366 0.75446 0.89937 0.0
C63 C 0.00213 0.83437 0.84167 0.0
C64 C 0.11635 0.7509 0.82835 0.0
C65 C 0.01466 0.76213 0.90647 0.0
O66 O 0.03958 0.81155 0.84508 0.0
O67 O 0.96266 0.81749 0.84713 0.0
O68 O 0.06715 0.67931 0.86544 0.0
O69 O 0.0027 0.71328 0.85356 0.0
Co70 Co 0.26804 0.06695 0.36026 0.0
O71 O 0.33089 0.08457 0.3637 0.0
O72 O 0.30543 0.00907 0.36209 0.0
C73 C 0.2519 0.11738 0.32965 0.0
O74 O 0.20417 0.0373 0.35565 0.0
Co75 Co 0.19792 0.14191 0.375 0.0
O76 O 0.15534 0.09995 0.35697 0.0
C77 C 0.23897 0.08509 0.41353 0.0
C78 C 0.33981 0.03892 0.36416 0.0
C79 C 0.16388 0.05567 0.35287 0.0
O80 O 0.26205 0.0646 0.39671 0.0
O81 O 0.21051 0.11908 0.40927 0.0
O82 O 0.27126 0.07614 0.32577 0.0
O83 O 0.24855 0.13073 0.35233 0.0
Co84 Co 0.94603 0.25187 0.86741 0.0
O85 O 0.9277 0.27364 0.83584 0.0
O86 O 0.88869 0.22056 0.85759 0.0
C87 C 0.9642 0.32422 0.88238 0.0
O88 O 0.95728 0.22306 0.90144 0.0
Co89 Co 0.04968 0.2658 0.8792 0.0
O90 O 0.03064 0.24129 0.91139 0.0
C91 C 0.02213 0.18833 0.84671 0.0
C92 C 0.89344 0.24429 0.83723 0.0
C93 C 0.99154 0.2235 0.91644 0.0
O94 O 0.98041 0.19824 0.85165 0.0
O95 O 0.0563 0.2125 0.85472 0.0
O96 O 0.92181 0.30968 0.88261 0.0
O97 O 0.99256 0.29733 0.87057 0.0
Co98 Co 0.74093 0.9052 0.38143 0.0
O99 O 0.68208 0.88182 0.39115 0.0
O100 O 0.69803 0.95842 0.38274 0.0
C101 C 0.75458 0.84961 0.35249 0.0
O102 O 0.79894 0.94021 0.37011 0.0
Co103 Co 0.82395 0.84024 0.39226 0.0
O104 O 0.85171 0.88144 0.3668 0.0
C105 C 0.78746 0.90026 0.43173 0.0
C106 C 0.66797 0.92581 0.38889 0.0
C107 C 0.83792 0.92426 0.36256 0.0
O108 O 0.75795 0.91689 0.41655 0.0
O109 O 0.81636 0.8674 0.42611 0.0
O110 O 0.72898 0.88677 0.34815 0.0
O111 O 0.76571 0.84339 0.37517 0.0
H112 H 0.06082 0.40395 0.11752 0.0
C113 C 0.03353 0.38341 0.12614 0.0
H114 H 0.96904 0.38637 0.14315 0.0
H115 H -0.00024 0.59733 0.18198 0.0
H116 H -0.00223 0.55052 0.21915 0.0
H117 H 0.99542 0.46155 0.21788 0.0
H118 H 0.99448 0.41896 0.17948 0.0
C119 C 0.99562 0.4061 0.13354 0.0
C120 C 0.99472 0.45966 0.13389 0.0
C121 C 0.99598 0.48387 0.15662 0.0
C122 C -0.00183 0.53505 0.15737 0.0
C123 C -0.00153 0.55845 0.1803 0.0
C124 C -0.00261 0.53202 0.20182 0.0
C125 C 0.99603 0.48196 0.2011 0.0
C126 C 0.99542 0.45797 0.17885 0.0
H127 H 0.92644 0.60954 0.12227 0.0
C128 C 0.95221 0.6331 0.13029 0.0
H129 H 0.01834 0.63706 0.14571 0.0
H130 H 0.98994 0.42465 0.08732 0.0
H131 H 0.99512 0.47154 0.05014 0.0
H132 H 0.0034 0.56018 0.0516 0.0
H133 H 0.00626 0.60245 0.09031 0.0
C134 C 0.993 0.61489 0.13646 0.0
C135 C -0.00084 0.5618 0.13544 0.0
C136 C -0.00062 0.5376 0.11274 0.0
C137 C 0.99624 0.48645 0.11193 0.0
C138 C 0.99402 0.46333 0.089 0.0
C139 C 0.99661 0.48985 0.06752 0.0
C140 C 0.00115 0.53976 0.06834 0.0
C141 C 0.00248 0.56358 0.09064 0.0
H142 H 0.38366 0.99067 0.62742 0.0
C143 C 0.37859 0.95195 0.6256 0.0
H144 H 0.41037 0.88323 0.62494 0.0
H145 H 0.60204 0.98451 0.59979 0.0
H146 H 0.58356 0.94954 0.56058 0.0
H147 H 0.50902 0.90975 0.55357 0.0
H148 H 0.45238 0.90499 0.58578 0.0
C149 C 0.41464 0.92202 0.62684 0.0
C150 C 0.46112 0.94103 0.63185 0.0
C151 C 0.49418 0.94217 0.61308 0.0
C152 C 0.5373 0.96453 0.61724 0.0
C153 C 0.56905 0.96715 0.59783 0.0
C154 C 0.55881 0.94737 0.57517 0.0
C155 C 0.51683 0.925 0.57122 0.0
C156 C 0.48467 0.92249 0.58985 0.0
H157 H 0.63397 0.95311 0.64568 0.0
C158 C 0.63078 0.99216 0.64652 0.0
H159 H 0.58609 0.05213 0.64516 0.0
H160 H 0.40773 0.93783 0.67282 0.0
H161 H 0.42669 0.97127 0.71233 0.0
H162 H 0.50108 0.01135 0.71937 0.0
H163 H 0.55706 0.01785 0.68695 0.0
C164 C 0.58964 0.01314 0.64406 0.0
C165 C 0.54724 0.98485 0.64032 0.0
C166 C 0.51493 0.98172 0.65941 0.0
C167 C 0.4719 0.95932 0.65525 0.0
C168 C 0.44054 0.9556 0.67479 0.0
C169 C 0.4511 0.97437 0.69762 0.0
C170 C 0.49299 -0.00311 0.70159 0.0
C171 C 0.52473 0.00052 0.6828 0.0
H172 H 0.01274 0.38369 0.88714 0.0
C173 C 0.97739 0.37273 0.89011 0.0
H174 H 0.90998 0.39634 0.89795 0.0
H175 H 0.00811 0.59865 0.92893 0.0
H176 H 0.99201 0.56766 0.96943 0.0
H177 H 0.96127 0.48552 0.97514 0.0
H178 H 0.94498 0.43408 0.94029 0.0
C179 C 0.9458 0.406 0.89564 0.0
C180 C 0.95767 0.45744 0.8926 0.0
C181 C 0.96717 0.48658 0.91305 0.0
C182 C 0.98574 0.5335 0.90973 0.0
C183 C 0.99451 0.5624 0.93046 0.0
C184 C 0.98549 0.54509 0.95377 0.0
C185 C 0.96803 0.49882 0.95699 0.0
C186 C 0.95894 0.46967 0.93691 0.0
H187 H 0.96143 0.63064 0.86578 0.0
C188 C 0.99719 0.6339 0.87108 0.0
H189 H 0.05356 0.60091 0.88861 0.0
H190 H 0.9338 0.41396 0.8496 0.0
H191 H 0.9512 0.44308 0.80907 0.0
H192 H 0.99162 0.52048 0.80321 0.0
H193 H 0.01358 0.56954 0.83763 0.0
C194 C 0.01826 0.59747 0.88253 0.0
C195 C 0.99531 0.55039 0.88595 0.0
C196 C 0.98474 0.52141 0.8654 0.0
C197 C 0.96411 0.47564 0.86877 0.0
C198 C 0.95137 0.44824 0.84805 0.0
C199 C 0.96091 0.46462 0.82468 0.0
C200 C 0.98346 0.50825 0.82138 0.0
C201 C 0.99547 0.53636 0.8414 0.0
H202 H 0.41267 0.05263 0.36934 0.0
C203 C 0.38744 0.02386 0.36759 0.0
H204 H 0.37769 0.94805 0.36693 0.0
H205 H 0.59167 0.94939 0.33506 0.0
H206 H 0.55582 0.92858 0.29664 0.0
H207 H 0.47164 0.92598 0.29266 0.0
H208 H 0.42277 0.94382 0.32723 0.0
C209 C 0.40139 0.97801 0.36911 0.0
C210 C 0.45101 0.96898 0.37285 0.0
C211 C 0.47898 0.958 0.35263 0.0
C212 C 0.52743 0.95987 0.35492 0.0
C213 C 0.55463 0.94889 0.33435 0.0
C214 C 0.5345 0.93685 0.31217 0.0
C215 C 0.4871 0.93538 0.30993 0.0
C216 C 0.45947 0.94584 0.32986 0.0
H217 H 0.5981 0.90863 0.40043 0.0
C218 C 0.61896 0.93588 0.39146 0.0
H219 H 0.6183 -0.00232 0.36912 0.0
H220 H 0.40682 0.98548 0.41577 0.0
H221 H 0.44223 0.00613 0.45444 0.0
H222 H 0.52628 0.0125 0.45818 0.0
H223 H 0.57542 -0.00199 0.42339 0.0
C224 C 0.59837 0.9724 0.37991 0.0
C225 C 0.54768 0.97239 0.37753 0.0
C226 C 0.51963 0.98171 0.398 0.0
C227 C 0.47121 0.97931 0.39571 0.0
C228 C 0.44381 0.98796 0.41647 0.0
C229 C 0.46369 -0.00041 0.43876 0.0
C230 C 0.51101 0.00305 0.44087 0.0
C231 C 0.53883 0.99436 0.42079 0.0
H232 H 0.01432 0.17633 0.94574 0.0
C233 C 0.98797 0.20236 0.94093 0.0
H234 H 0.94385 0.25566 0.95425 0.0
H235 H 0.01945 0.12933 0.05192 0.0
H236 H 0.98442 0.05828 0.03384 0.0
H237 H 0.94772 0.06256 0.99346 0.0
H238 H 0.94642 0.13765 0.97075 0.0
C239 C 0.96686 0.22625 0.95894 0.0
C240 C 0.98487 0.22363 0.98449 0.0
C241 C 0.9839 0.17985 0.99793 0.0
C242 C 0.00326 0.17787 0.02175 0.0
C243 C 0.00367 0.13318 0.03422 0.0
C244 C 0.98397 0.0921 0.02398 0.0
C245 C 0.96345 0.09448 1.00121 0.0
C246 C 0.96323 0.13774 0.98828 0.0
H247 H 0.96748 0.20582 0.06963 0.0
C248 C 0.0017 0.21547 0.07585 0.0
H249 H 0.06808 0.23432 0.06451 0.0
H250 H 0.99654 0.31274 0.96334 0.0
H251 H 0.02836 0.38404 0.9822 0.0
H252 H 0.05679 0.38188 0.02441 0.0
H253 H 0.05426 0.30811 0.04784 0.0
C254 C 0.03466 0.22073 0.0591 0.0
C255 C 0.02165 0.22015 0.03269 0.0
C256 C 0.02293 0.26383 0.01919 0.0
C257 C 0.00508 0.26544 0.99506 0.0
C258 C 0.00815 0.30942 0.98193 0.0
C259 C 0.02663 0.35078 0.9925 0.0
C260 C 0.04272 0.34954 0.01623 0.0
C261 C 0.04105 0.30676 0.02948 0.0
H262 H 0.71269 0.05086 0.56596 0.0
C263 C 0.74313 0.07252 0.56935 0.0
H264 H 0.8085 0.092 0.55627 0.0
H265 H 0.75107 0.88967 0.49647 0.0
H266 H 0.75313 0.8511 0.53593 0.0
H267 H 0.76791 0.89855 0.57307 0.0
H268 H 0.77932 0.985 0.57101 0.0
C269 C 0.77723 0.07173 0.5529 0.0
C270 C 0.77424 0.04176 0.5302 0.0
C271 C 0.77067 0.99057 0.53152 0.0
C272 C 0.76532 0.96263 0.50989 0.0
C273 C 0.75782 0.9123 0.51206 0.0
C274 C 0.75854 0.88969 0.53467 0.0
C275 C 0.76662 0.91643 0.55558 0.0
C276 C 0.77269 0.96621 0.55414 0.0
H277 H 0.81842 0.9121 0.46814 0.0
C278 C 0.7902 0.9225 0.45631 0.0
H279 H 0.73323 0.96834 0.45163 0.0
H280 H 0.78212 0.1383 0.52093 0.0
H281 H 0.78549 0.17642 0.4813 0.0
H282 H 0.78151 0.12776 0.44382 0.0
H283 H 0.77375 0.04081 0.44567 0.0
C284 C 0.76069 0.95702 0.46372 0.0
C285 C 0.76686 0.98536 0.48676 0.0
C286 C 0.7724 0.03631 0.48545 0.0
C287 C 0.7757 0.06442 0.50712 0.0
C288 C 0.78009 0.11519 0.50511 0.0
C289 C 0.78201 0.13758 0.48247 0.0
C290 C 0.77969 0.11019 0.46137 0.0
C291 C 0.77501 0.06021 0.46272 0.0
H292 H 0.91844 0.78005 0.06191 0.0
C293 C 0.95284 0.77769 0.06937 0.0
H294 H 0.02389 0.77618 0.06208 0.0
H295 H 0.02584 0.68786 0.95854 0.0
H296 H 0.05444 0.62151 0.98273 0.0
H297 H 0.05116 0.6242 0.02747 0.0
H298 H 0.0199 0.6937 0.04831 0.0
C299 C 0.98963 0.77889 0.05443 0.0
C300 C 0.98698 0.77648 0.02735 0.0
C301 C 0.00518 0.73536 0.0153 0.0
C302 C 0.00702 0.73373 0.98943 0.0
C303 C 0.02438 0.69167 0.97806 0.0
C304 C 0.0406 0.65299 0.99175 0.0
C305 C 0.03887 0.65455 0.01694 0.0
C306 C 0.02112 0.69493 0.02867 0.0
H307 H 0.05689 0.77199 0.93991 0.0
C308 C 0.02213 0.76881 0.933 0.0
H309 H 0.9515 0.76792 0.94162 0.0
H310 H 0.9539 0.86243 0.04443 0.0
H311 H 0.92755 0.93013 0.02023 0.0
H312 H 0.92952 0.92682 0.97544 0.0
H313 H 0.95832 0.85594 0.95455 0.0
C314 C 0.98633 0.76942 0.94858 0.0
C315 C 0.9908 0.77336 0.97554 0.0
C316 C 0.97306 0.81464 0.98759 0.0
C317 C 0.97143 0.81637 0.01348 0.0
C318 C 0.95506 0.85878 0.02488 0.0
C319 C 0.93999 0.898 0.0112 0.0
C320 C 0.9411 0.89615 0.98597 0.0
C321 C 0.95749 0.85513 0.97421 0.0
H322 H 0.27875 0.04873 0.44209 0.0
C323 C 0.24598 0.0659 0.43838 0.0
H324 H 0.17865 0.07644 0.45129 0.0
H325 H 0.26372 0.88413 0.51035 0.0
H326 H 0.26317 0.84536 0.47091 0.0
H327 H 0.23961 0.89011 0.43422 0.0
H328 H 0.21789 0.9743 0.43667 0.0
C329 C 0.21211 0.06069 0.45472 0.0
C330 C 0.21906 0.03136 0.4774 0.0
C331 C 0.22874 0.98111 0.47594 0.0
C332 C 0.23913 0.95427 0.4974 0.0
C333 C 0.25279 0.90547 0.49497 0.0
C334 C 0.25306 0.88283 0.47236 0.0
C335 C 0.24005 0.90809 0.45169 0.0
C336 C 0.22803 0.95661 0.45334 0.0
H337 H 0.195 0.8964 0.53842 0.0
C338 C 0.22119 0.91053 0.55058 0.0
H339 H 0.27134 0.96426 0.55598 0.0
H340 H 0.20019 0.12601 0.48688 0.0
H341 H 0.19498 0.1636 0.52659 0.0
H342 H 0.20721 0.11607 0.56393 0.0
H343 H 0.22525 0.03094 0.56188 0.0
C344 C 0.24623 0.94906 0.54353 0.0
C345 C 0.23639 0.97665 0.52059 0.0
C346 C 0.2247 0.02642 0.52207 0.0
C347 C 0.21652 0.05376 0.50051 0.0
C348 C 0.20615 0.1035 0.50264 0.0
C349 C 0.20306 0.12556 0.52532 0.0
C350 C 0.21002 0.09881 0.54634 0.0
C351 C 0.22061 0.04988 0.54487 0.0
H352 H 0.15578 0.27252 0.2063 0.0
C353 C 0.15349 0.24347 0.19304 0.0
H354 H 0.16211 0.16918 0.18728 0.0
H355 H 0.25336 0.24268 0.29537 0.0
H356 H 0.30277 0.29592 0.27212 0.0
H357 H 0.29807 0.29837 0.22735 0.0
H358 H 0.24285 0.24886 0.20566 0.0
C359 C 0.16748 0.19926 0.19964 0.0
C360 C 0.17832 0.18941 0.22586 0.0
C361 C 0.21297 0.21598 0.23816 0.0
C362 C 0.21796 0.21199 0.26384 0.0
C363 C 0.24996 0.24231 0.27579 0.0
C364 C 0.27826 0.2733 0.26268 0.0
C365 C 0.27545 0.27486 0.23749 0.0
C366 C 0.24331 0.24658 0.22528 0.0
H367 H 0.269 0.14635 0.29419 0.0
C368 C 0.24354 0.14862 0.30856 0.0
H369 H 0.17498 0.16511 0.31646 0.0
H370 H 0.10711 0.13388 0.20862 0.0
H371 H 0.06246 0.07619 0.23133 0.0
H372 H 0.07657 0.063 0.27498 0.0
H373 H 0.13472 0.10859 0.29637 0.0
C374 C 0.20231 0.16693 0.30311 0.0
C375 C 0.19123 0.17814 0.27707 0.0
C376 C 0.15741 0.15048 0.2647 0.0
C377 C 0.15043 0.15671 0.23922 0.0
C378 C 0.11509 0.12992 0.22769 0.0
C379 C 0.08886 0.09665 0.24057 0.0
C380 C 0.09675 0.08934 0.26516 0.0
C381 C 0.13041 0.11586 0.2772 0.0
H382 H 0.88415 0.24487 0.79796 0.0
C383 C 0.8675 0.23395 0.81475 0.0
H384 H 0.81059 0.19897 0.83006 0.0
H385 H 0.80264 0.23554 0.70721 0.0
H386 H 0.80867 0.32088 0.71605 0.0
H387 H 0.81024 0.35012 0.75841 0.0
H388 H 0.80808 0.29357 0.79218 0.0
C389 C 0.8273 0.21046 0.81342 0.0
C390 C 0.80859 0.19513 0.78908 0.0
C391 C 0.80475 0.22871 0.76959 0.0
C392 C 0.7992 0.21213 0.7452 0.0
C393 C 0.80265 0.24614 0.72608 0.0
C394 C 0.80675 0.29534 0.73091 0.0
C395 C 0.80794 0.31179 0.75475 0.0
C396 C 0.80708 0.27901 0.77393 0.0
H397 H 0.73728 0.1875 0.70055 0.0
C398 C 0.75848 0.1557 0.69816 0.0
H399 H 0.80914 0.10976 0.71177 0.0
H400 H 0.80875 0.12079 0.82212 0.0
H401 H 0.79108 0.03712 0.81411 0.0
H402 H 0.77034 0.00997 0.77286 0.0
H403 H 0.76842 0.06618 0.73928 0.0
C404 C 0.78904 0.1421 0.71525 0.0
C405 C 0.79167 0.16229 0.74055 0.0
C406 C 0.78951 0.12957 0.76049 0.0
C407 C 0.79929 0.14566 0.78458 0.0
C408 C 0.80042 0.11119 0.80361 0.0
C409 C 0.79033 0.06281 0.79929 0.0
C410 C 0.7788 0.0475 0.77606 0.0
C411 C 0.77824 0.08024 0.75687 0.0
H412 H 0.79921 0.79359 0.33563 0.0
C413 C 0.77413 0.82164 0.33204 0.0
H414 H 0.73868 0.86255 0.30559 0.0
H415 H 0.87759 0.84703 0.22039 0.0
H416 H 0.90107 0.92385 0.23728 0.0
H417 H 0.87232 0.95095 0.27713 0.0
H418 H 0.8197 0.9012 0.30033 0.0
C419 C 0.76277 0.83343 0.30899 0.0
C420 C 0.78534 0.81312 0.28704 0.0
C421 C 0.81568 0.84279 0.27352 0.0
C422 C 0.83212 0.82721 0.25048 0.0
C423 C 0.86333 0.8572 0.23776 0.0
C424 C 0.87733 0.90142 0.24731 0.0
C425 C 0.86109 0.9167 0.26973 0.0
C426 C 0.83069 0.88789 0.28278 0.0
H427 H 0.8031 0.80713 0.19315 0.0
C428 C 0.82962 0.78013 0.19572 0.0
H429 H 0.86519 0.73555 0.22064 0.0
H430 H 0.72823 0.74731 0.30835 0.0
H431 H 0.70624 0.66921 0.29202 0.0
H432 H 0.73524 0.64181 0.25226 0.0
H433 H 0.78606 0.69255 0.22842 0.0
C434 C 0.83911 0.7631 0.21819 0.0
C435 C 0.81795 0.78199 0.24088 0.0
C436 C 0.7886 0.75182 0.25472 0.0
C437 C 0.77209 0.76748 0.27775 0.0
C438 C 0.74202 0.73703 0.29087 0.0
C439 C 0.72912 0.69213 0.2817 0.0
C440 C 0.74547 0.67668 0.25931 0.0
C441 C 0.77476 0.70607 0.24586 0.0
H442 H 0.20164 0.79138 0.67265 0.0
C443 C 0.22392 0.82151 0.67719 0.0
H444 H 0.25271 0.86462 0.70492 0.0
H445 H 0.10607 0.83714 0.78575 0.0
H446 H 0.0887 0.91803 0.77194 0.0
H447 H 0.12481 0.95105 0.73498 0.0
H448 H 0.17799 0.90309 0.71145 0.0
C449 C 0.23124 0.83366 0.70065 0.0
C450 C 0.20671 0.81116 0.72161 0.0
C451 C 0.17555 0.83964 0.73525 0.0
C452 C 0.15489 0.82067 0.75665 0.0
C453 C 0.12323 0.84976 0.76954 0.0
C454 C 0.11276 0.89631 0.76177 0.0
C455 C 0.13304 0.91487 0.74096 0.0
C456 C 0.16385 0.887 0.72772 0.0
H457 H 0.17918 0.78477 0.81329 0.0
C458 C 0.1496 0.7626 0.80888 0.0
H459 H 0.11064 0.72959 0.78097 0.0
H460 H 0.26681 0.74773 0.70076 0.0
H461 H 0.28398 0.66658 0.71458 0.0
H462 H 0.24691 0.63322 0.75119 0.0
H463 H 0.19272 0.68109 0.7744 0.0
C464 C 0.14022 0.75173 0.78546 0.0
C465 C 0.16556 0.77322 0.76456 0.0
C466 C 0.19648 0.74467 0.75089 0.0
C467 C 0.21738 0.76372 0.72952 0.0
C468 C 0.24929 0.73483 0.71679 0.0
C469 C 0.25958 0.68822 0.72459 0.0
C470 C 0.23872 0.66943 0.74521 0.0
C471 C 0.20759 0.69719 0.75831 0.0
H472 H 0.01832 0.13522 0.1931 0.0
C473 C 0.98818 0.147 0.18306 0.0
H474 H 0.93129 0.12418 0.1627 0.0
H475 H 0.03229 0.94055 0.12406 0.0
H476 H 0.02666 0.99037 0.08804 0.0
H477 H -0.00126 0.07419 0.09062 0.0
H478 H 0.97561 0.10835 0.12912 0.0
C479 C 0.95923 0.11341 0.17461 0.0
C480 C 0.9751 0.06242 0.17346 0.0
C481 C 0.98953 0.04336 0.15076 0.0
C482 C 0.00671 0.99545 0.14935 0.0
C483 C 0.01953 0.97689 0.12632 0.0
C484 C 0.01652 0.00512 0.10544 0.0
C485 C 0.00076 0.05227 0.10688 0.0
C486 C 0.98743 0.07137 0.12918 0.0
H487 H 0.95249 0.89729 0.17916 0.0
C488 C 0.98454 0.8834 0.17189 0.0
H489 H 0.05049 0.90209 0.15951 0.0
H490 H 0.95025 0.08771 0.21964 0.0
H491 H 0.96008 0.03924 0.25602 0.0
H492 H 0.99441 0.95815 0.254 0.0
H493 H 0.01846 0.92439 0.21525 0.0
C494 C 0.01924 0.91421 0.16828 0.0
C495 C 0.00994 0.96686 0.17066 0.0
C496 C -0.0022 0.98681 0.19351 0.0
C497 C 0.97952 0.0343 0.19485 0.0
C498 C 0.9655 0.05234 0.21771 0.0
C499 C 0.97079 0.02486 0.23873 0.0
C500 C 0.99006 0.97911 0.23755 0.0
C501 C 0.00341 0.96007 0.21523 0.0
H502 H 0.1314 0.99278 0.64545 0.0
C503 C 0.12108 0.95607 0.64097 0.0
H504 H 0.06572 0.90935 0.63293 0.0
H505 H 0.94897 0.07673 0.68997 0.0
H506 H 0.98952 0.05126 0.72631 0.0
H507 H 0.05423 0.99376 0.72357 0.0
H508 H 0.07776 0.96107 0.68491 0.0
C509 C 0.07653 0.94517 0.63867 0.0
C510 C 0.04083 0.98271 0.64036 0.0
C511 C 0.02729 0.00087 0.66329 0.0
C512 C 0.99002 0.03356 0.66482 0.0
C513 C 0.97687 0.05138 0.68788 0.0
C514 C -6e-05 0.03713 0.70885 0.0
C515 C 0.03621 0.00479 0.70734 0.0
C516 C 0.04964 0.98645 0.68493 0.0
H517 H 0.88339 0.01592 0.65345 0.0
C518 C 0.88409 0.05445 0.64963 0.0
H519 H 0.92577 0.1143 0.64018 0.0
H520 H 0.06148 0.95784 0.59341 0.0
H521 H 0.02232 0.98539 0.557 0.0
H522 H 0.9572 0.04186 0.55974 0.0
H523 H 0.93101 0.07125 0.59891 0.0
C524 C 0.92419 0.07637 0.64514 0.0
C525 C 0.9665 0.04747 0.64346 0.0
C526 C 0.98151 0.03125 0.62042 0.0
C527 C 0.01872 -0.00143 0.61887 0.0
C528 C 0.03301 0.98242 0.59564 0.0
C529 C 0.01092 -0.00197 0.5746 0.0
C530 C 0.97429 0.02985 0.57614 0.0
C531 C 0.95957 0.04637 0.59873 0.0
H532 H 0.00023 0.13111 0.82259 0.0
C533 C 0.02902 0.14308 0.83368 0.0
H534 H 0.08564 0.12093 0.85445 0.0
H535 H 0.97604 0.93519 0.88584 0.0
H536 H 0.99122 0.97523 0.92409 0.0
H537 H 0.0293 0.05472 0.92518 0.0
H538 H 0.05342 0.09391 0.88813 0.0
C539 C 0.05863 0.11012 0.84197 0.0
C540 C 0.04355 0.05892 0.8415 0.0
C541 C 0.02921 0.03685 0.86352 0.0
C542 C 0.00602 0.99175 0.86288 0.0
C543 C 0.99308 0.96983 0.88514 0.0
C544 C 0.00158 0.99242 0.9073 0.0
C545 C 0.02306 0.03711 0.90791 0.0
C546 C 0.03676 0.05924 0.88638 0.0
H547 H 0.04033 0.89363 0.82544 0.0
C548 C 0.0073 0.88406 0.83326 0.0
H549 H 0.94708 0.91077 0.84945 0.0
H550 H 0.07187 0.08823 0.79657 0.0
H551 H 0.05287 0.05049 0.75804 0.0
H552 H 0.00513 0.97632 0.75676 0.0
H553 H 0.97837 0.93913 0.79389 0.0
C554 C 0.97866 0.91926 0.83991 0.0
C555 C 0.99648 0.96941 0.84023 0.0
C556 C 0.01019 0.99185 0.81829 0.0
C557 C 0.03523 0.03571 0.81898 0.0
C558 C 0.0511 0.05583 0.79691 0.0
C559 C 0.04059 0.03435 0.77471 0.0
C560 C 0.01406 0.99266 0.77398 0.0
C561 C -0.00093 0.97142 0.79546 0.0
H562 H 0.87208 0.99493 0.35843 0.0
C563 C 0.87188 0.95777 0.35209 0.0
H564 H 0.90671 0.90304 0.33309 0.0
H565 H 0.04476 0.09324 0.31737 0.0
H566 H 0.98404 0.12823 0.293 0.0
H567 H 0.90854 0.08852 0.28993 0.0
H568 H 0.89382 0.01276 0.3107 0.0
C569 C 0.90758 0.94027 0.33936 0.0
C570 C 0.9532 0.96409 0.34025 0.0
C571 C 0.96144 0.00784 0.32776 0.0
C572 C 0.00476 0.03102 0.32988 0.0
C573 C 0.01222 0.07452 0.3169 0.0
C574 C 0.97769 0.09496 0.30276 0.0
C575 C 0.93519 0.0726 0.30103 0.0
C576 C 0.92716 0.02921 0.31308 0.0
H577 H 0.13109 0.98828 0.33932 0.0
C578 C 0.12473 0.02446 0.34614 0.0
H579 H 0.07553 0.07619 0.35671 0.0
H580 H 0.94924 0.87909 0.36597 0.0
H581 H 0.00764 0.84679 0.39247 0.0
H582 H 0.08042 0.89024 0.3988 0.0
H583 H 0.09541 0.96545 0.37833 0.0
C584 C 0.08145 0.03991 0.34988 0.0
C585 C 0.03951 0.01091 0.34492 0.0
C586 C 0.03105 0.96715 0.35761 0.0
C587 C 0.9883 0.94309 0.35471 0.0
C588 C 0.98086 0.89921 0.36744 0.0
C589 C 0.01408 0.88022 0.38287 0.0
C590 C 0.05507 0.9046 0.38638 0.0
C591 C 0.06347 0.94769 0.37416 0.0
loop_
_geom_bond_atom_site_label_1
_geom_bond_atom_site_label_2
_geom_bond_distance
_geom_bond_site_symmetry_2
_ccdc_geom_bond_type
Co0 O1 2.216 . S
Co0 O2 2.091 . S
Co0 O4 2.004 . S
Co0 O10 2.021 . S
Co0 O12 2.137 . S
Co0 O13 2.244 . S
O1 Co0 2.216 . S
O1 C8 1.247 . S
O2 Co0 2.091 . S
O2 C8 1.261 . S
C3 O12 1.247 . S
C3 O13 1.272 . S
O4 Co0 2.004 . S
O4 C9 1.259 . S
Co5 O6 2.061 1_655 S
Co5 O11 2.052 1_655 S
Co5 O13 2.135 1_655 S
O6 Co5 2.061 1_455 S
O6 C9 1.235 . S
C7 O10 1.238 . S
C7 O11 1.241 . S
C8 O1 1.247 . S
C8 O2 1.261 . S
C9 O4 1.259 . S
C9 O6 1.235 . S
O10 Co0 2.021 . S
O10 C7 1.238 . S
O11 Co5 2.052 1_455 S
O11 C7 1.241 . S
O12 Co0 2.137 . S
O12 C3 1.247 . S
O13 Co0 2.244 . S
O13 C3 1.272 . S
O13 Co5 2.135 1_455 S
Co14 O15 2.216 . S
Co14 O16 2.091 . S
Co14 O18 2.004 . S
Co14 O24 2.021 . S
Co14 O26 2.137 . S
Co14 O27 2.244 . S
O15 Co14 2.216 . S
O15 C22 1.247 . S
O16 Co14 2.091 . S
O16 C22 1.261 . S
C17 O26 1.247 . S
C17 O27 1.272 . S
O18 Co14 2.004 . S
O18 C23 1.259 . S
Co19 O20 2.061 . S
Co19 O25 2.052 . S
Co19 O27 2.135 . S
O20 Co19 2.061 . S
O20 C23 1.235 . S
C21 O24 1.238 . S
C21 O25 1.241 . S
C22 O15 1.247 . S
C22 O16 1.261 . S
C23 O18 1.259 . S
C23 O20 1.235 . S
O24 Co14 2.021 . S
O24 C21 1.238 . S
O25 Co19 2.052 . S
O25 C21 1.241 . S
O26 Co14 2.137 . S
O26 C17 1.247 . S
O27 Co14 2.244 . S
O27 C17 1.272 . S
O27 Co19 2.135 . S
Co28 O29 2.216 . S
Co28 O30 2.091 . S
Co28 O32 2.004 . S
Co28 O38 2.021 . S
Co28 O40 2.137 . S
Co28 O41 2.244 . S
O29 Co28 2.216 . S
O29 C36 1.247 . S
O30 Co28 2.091 . S
O30 C36 1.261 . S
C31 O40 1.247 . S
C31 O41 1.272 . S
O32 Co28 2.004 . S
O32 C37 1.259 . S
Co33 O34 2.061 1_455 S
Co33 O39 2.052 1_455 S
Co33 O41 2.135 1_455 S
O34 Co33 2.061 1_655 S
O34 C37 1.235 . S
C35 O38 1.238 . S
C35 O39 1.241 . S
C36 O29 1.247 . S
C36 O30 1.261 . S
C37 O32 1.259 . S
C37 O34 1.235 . S
O38 Co28 2.021 . S
O38 C35 1.238 . S
O39 Co33 2.052 1_655 S
O39 C35 1.241 . S
O40 Co28 2.137 . S
O40 C31 1.247 . S
O41 Co28 2.244 . S
O41 C31 1.272 . S
O41 Co33 2.135 1_655 S
Co42 O43 2.216 . S
Co42 O44 2.091 . S
Co42 O46 2.004 . S
Co42 O52 2.021 . S
Co42 O54 2.137 . S
Co42 O55 2.244 . S
O43 Co42 2.216 . S
O43 C50 1.247 . S
O44 Co42 2.091 . S
O44 C50 1.261 . S
C45 O54 1.247 . S
C45 O55 1.272 . S
O46 Co42 2.004 . S
O46 C51 1.259 . S
Co47 O48 2.061 . S
Co47 O53 2.052 . S
Co47 O55 2.135 . S
O48 Co47 2.061 . S
O48 C51 1.235 . S
C49 O52 1.238 . S
C49 O53 1.241 . S
C50 O43 1.247 . S
C50 O44 1.261 . S
C51 O46 1.259 . S
C51 O48 1.235 . S
O52 Co42 2.021 . S
O52 C49 1.238 . S
O53 Co47 2.052 . S
O53 C49 1.241 . S
O54 Co42 2.137 . S
O54 C45 1.247 . S
O55 Co42 2.244 . S
O55 C45 1.272 . S
O55 Co47 2.135 . S
Co56 O57 2.216 . S
Co56 O58 2.091 . S
Co56 O60 2.004 . S
Co56 O66 2.021 . S
Co56 O68 2.137 . S
Co56 O69 2.244 . S
O57 Co56 2.216 . S
O57 C64 1.247 . S
O58 Co56 2.091 . S
O58 C64 1.261 . S
C59 O68 1.247 . S
C59 O69 1.272 . S
O60 Co56 2.004 . S
O60 C65 1.259 . S
Co61 O62 2.061 1_655 S
Co61 O67 2.052 1_655 S
Co61 O69 2.135 1_655 S
O62 Co61 2.061 1_455 S
O62 C65 1.235 . S
C63 O66 1.238 . S
C63 O67 1.241 . S
C64 O57 1.247 . S
C64 O58 1.261 . S
C65 O60 1.259 . S
C65 O62 1.235 . S
O66 Co56 2.021 . S
O66 C63 1.238 . S
O67 Co61 2.052 1_455 S
O67 C63 1.241 . S
O68 Co56 2.137 . S
O68 C59 1.247 . S
O69 Co56 2.244 . S
O69 C59 1.272 . S
O69 Co61 2.135 1_455 S
Co70 O71 2.216 . S
Co70 O72 2.091 . S
Co70 O74 2.004 . S
Co70 O80 2.021 . S
Co70 O82 2.137 . S
Co70 O83 2.244 . S
O71 Co70 2.216 . S
O71 C78 1.247 . S
O72 Co70 2.091 . S
O72 C78 1.261 . S
C73 O82 1.247 . S
C73 O83 1.272 . S
O74 Co70 2.004 . S
O74 C79 1.259 . S
Co75 O76 2.061 . S
Co75 O81 2.052 . S
Co75 O83 2.135 . S
O76 Co75 2.061 . S
O76 C79 1.235 . S
C77 O80 1.238 . S
C77 O81 1.241 . S
C78 O71 1.247 . S
C78 O72 1.261 . S
C79 O74 1.259 . S
C79 O76 1.235 . S
O80 Co70 2.021 . S
O80 C77 1.238 . S
O81 Co75 2.052 . S
O81 C77 1.241 . S
O82 Co70 2.137 . S
O82 C73 1.247 . S
O83 Co70 2.244 . S
O83 C73 1.272 . S
O83 Co75 2.135 . S
Co84 O85 2.216 . S
Co84 O86 2.091 . S
Co84 O88 2.004 . S
Co84 O94 2.021 . S
Co84 O96 2.137 . S
Co84 O97 2.244 . S
O85 Co84 2.216 . S
O85 C92 1.247 . S
O86 Co84 2.091 . S
O86 C92 1.261 . S
C87 O96 1.247 . S
C87 O97 1.272 . S
O88 Co84 2.004 . S
O88 C93 1.259 . S
Co89 O90 2.061 1_455 S
Co89 O95 2.052 1_455 S
Co89 O97 2.135 1_455 S
O90 Co89 2.061 1_655 S
O90 C93 1.235 . S
C91 O94 1.238 . S
C91 O95 1.241 . S
C92 O85 1.247 . S
C92 O86 1.261 . S
C93 O88 1.259 . S
C93 O90 1.235 . S
O94 Co84 2.021 . S
O94 C91 1.238 . S
O95 Co89 2.052 1_655 S
O95 C91 1.241 . S
O96 Co84 2.137 . S
O96 C87 1.247 . S
O97 Co84 2.244 . S
O97 C87 1.272 . S
O97 Co89 2.135 1_655 S
Co98 O99 2.216 . S
Co98 O100 2.091 . S
Co98 O102 2.004 . S
Co98 O108 2.021 . S
Co98 O110 2.137 . S
Co98 O111 2.244 . S
O99 Co98 2.216 . S
O99 C106 1.247 . S
O100 Co98 2.091 . S
O100 C106 1.261 . S
C101 O110 1.247 . S
C101 O111 1.272 . S
O102 Co98 2.004 . S
O102 C107 1.259 . S
Co103 O104 2.061 . S
Co103 O109 2.052 . S
Co103 O111 2.135 . S
O104 Co103 2.061 . S
O104 C107 1.235 . S
C105 O108 1.238 . S
C105 O109 1.241 . S
C106 O99 1.247 . S
C106 O100 1.261 . S
C107 O102 1.259 . S
C107 O104 1.235 . S
O108 Co98 2.021 . S
O108 C105 1.238 . S
O109 Co103 2.052 . S
O109 C105 1.241 . S
O110 Co98 2.137 . S
O110 C101 1.247 . S
O111 Co98 2.244 . S
O111 C101 1.272 . S
O111 Co103 2.135 . S
H112 C113 0.951 . S
C113 H112 0.951 . S
C113 C119 1.265 . S
H114 C119 0.950 1_655 S
H115 C123 0.949 . S
H116 C124 0.950 . S
H117 C125 0.951 . S
H118 C126 0.951 . S
C119 C113 1.265 . S
C119 H114 0.950 1_455 S
C119 C120 1.478 . S
C120 C119 1.478 . S
C120 C121 1.397 1_455 S
C120 C137 1.394 . S
C121 C120 1.397 1_655 S
C121 C122 1.438 . S
C121 C126 1.429 . S
C122 C121 1.438 . S
C122 C123 1.428 . S
C122 C135 1.394 . S
C123 H115 0.949 . S
C123 C122 1.428 . S
C123 C124 1.345 . S
C124 H116 0.950 . S
C124 C123 1.345 . S
C124 C125 1.424 . S
C125 H117 0.951 . S
C125 C124 1.424 . S
C125 C126 1.347 . S
C126 H118 0.951 . S
C126 C121 1.429 . S
C126 C125 1.347 . S
H127 C128 0.951 . S
C128 H127 0.951 . S
C128 C134 1.265 . S
H129 C134 0.950 1_455 S
H130 C138 0.949 . S
H131 C139 0.950 . S
H132 C140 0.951 . S
H133 C141 0.951 . S
C134 C128 1.265 . S
C134 H129 0.950 1_655 S
C134 C135 1.478 . S
C135 C122 1.394 . S
C135 C134 1.478 . S
C135 C136 1.397 1_655 S
C136 C135 1.397 1_455 S
C136 C137 1.438 . S
C136 C141 1.429 . S
C137 C120 1.394 . S
C137 C136 1.438 . S
C137 C138 1.428 . S
C138 H130 0.949 . S
C138 C137 1.428 . S
C138 C139 1.345 . S
C139 H131 0.950 . S
C139 C138 1.345 . S
C139 C140 1.424 . S
C140 H132 0.951 . S
C140 C139 1.424 . S
C140 C141 1.347 . S
C141 H133 0.951 . S
C141 C136 1.429 . S
C141 C140 1.347 . S
H142 C143 0.927 1_545 S
C143 H142 0.927 1_565 S
C143 C149 1.265 . S
H144 C149 0.950 . S
H145 C153 0.949 1_545 S
H146 C154 0.950 . S
H147 C155 0.951 . S
H148 C156 0.951 . S
C149 C143 1.265 . S
C149 H144 0.950 . S
C149 C150 1.478 . S
C150 C149 1.478 . S
C150 C151 1.397 . S
C150 C167 1.394 1_565 S
C151 C150 1.397 . S
C151 C152 1.438 . S
C151 C156 1.429 . S
C152 C151 1.438 . S
C152 C153 1.428 . S
C152 C165 1.394 1_565 S
C153 H145 0.949 1_565 S
C153 C152 1.428 . S
C153 C154 1.345 . S
C154 H146 0.950 . S
C154 C153 1.345 . S
C154 C155 1.424 . S
C155 H147 0.951 . S
C155 C154 1.424 . S
C155 C156 1.347 . S
C156 H148 0.951 . S
C156 C151 1.429 . S
C156 C155 1.347 . S
H157 C158 0.927 1_565 S
C158 H157 0.927 1_545 S
C158 C164 1.265 . S
H159 C164 0.950 . S
H160 C168 0.949 1_565 S
H161 C169 0.950 . S
H162 C170 0.951 . S
H163 C171 0.951 . S
C164 C158 1.265 . S
C164 H159 0.950 . S
C164 C165 1.478 . S
C165 C152 1.394 1_545 S
C165 C164 1.478 . S
C165 C166 1.397 . S
C166 C165 1.397 . S
C166 C167 1.438 . S
C166 C171 1.429 . S
C167 C150 1.394 1_545 S
C167 C166 1.438 . S
C167 C168 1.428 . S
C168 H160 0.949 1_545 S
C168 C167 1.428 . S
C168 C169 1.345 . S
C169 H161 0.950 . S
C169 C168 1.345 . S
C169 C170 1.424 . S
C170 H162 0.951 . S
C170 C169 1.424 . S
C170 C171 1.347 . S
C171 H163 0.951 . S
C171 C166 1.429 . S
C171 C170 1.347 . S
H172 C173 0.951 . S
C173 H172 0.951 . S
C173 C179 1.265 . S
H174 C179 0.950 . S
H175 C183 0.949 . S
H176 C184 0.950 . S
H177 C185 0.951 . S
H178 C186 0.951 . S
C179 C173 1.265 . S
C179 H174 0.950 . S
C179 C180 1.478 . S
C180 C179 1.478 . S
C180 C181 1.397 . S
C180 C197 1.394 . S
C181 C180 1.397 . S
C181 C182 1.438 1_655 S
C181 C186 1.429 . S
C182 C181 1.438 1_455 S
C182 C183 1.428 . S
C182 C195 1.394 . S
C183 H175 0.949 . S
C183 C182 1.428 . S
C183 C184 1.345 1_455 S
C184 H176 0.950 . S
C184 C183 1.345 1_655 S
C184 C185 1.424 . S
C185 H177 0.951 . S
C185 C184 1.424 . S
C185 C186 1.347 . S
C186 H178 0.951 . S
C186 C181 1.429 . S
C186 C185 1.347 . S
H187 C188 0.951 . S
C188 H187 0.951 . S
C188 C194 1.265 . S
H189 C194 0.950 . S
H190 C198 0.949 . S
H191 C199 0.950 . S
H192 C200 0.951 . S
H193 C201 0.951 . S
C194 C188 1.265 . S
C194 H189 0.950 . S
C194 C195 1.478 . S
C195 C182 1.394 . S
C195 C194 1.478 . S
C195 C196 1.397 . S
C196 C195 1.397 . S
C196 C197 1.438 1_455 S
C196 C201 1.429 . S
C197 C180 1.394 . S
C197 C196 1.438 1_655 S
C197 C198 1.428 . S
C198 H190 0.949 . S
C198 C197 1.428 . S
C198 C199 1.345 1_655 S
C199 H191 0.950 . S
C199 C198 1.345 1_455 S
C199 C200 1.424 . S
C200 H192 0.951 . S
C200 C199 1.424 . S
C200 C201 1.347 . S
C201 H193 0.951 . S
C201 C196 1.429 . S
C201 C200 1.347 . S
H202 C203 0.951 . S
C203 H202 0.951 . S
C203 C209 1.265 . S
H204 C209 0.950 1_565 S
H205 C213 0.949 . S
H206 C214 0.950 . S
H207 C215 0.951 . S
H208 C216 0.951 . S
C209 C203 1.265 . S
C209 H204 0.950 1_545 S
C209 C210 1.478 . S
C210 C209 1.478 . S
C210 C211 1.397 1_545 S
C210 C227 1.394 . S
C211 C210 1.397 1_565 S
C211 C212 1.438 . S
C211 C216 1.429 . S
C212 C211 1.438 . S
C212 C213 1.428 . S
C212 C225 1.394 . S
C213 H205 0.949 . S
C213 C212 1.428 . S
C213 C214 1.345 . S
C214 H206 0.950 . S
C214 C213 1.345 . S
C214 C215 1.424 . S
C215 H207 0.951 . S
C215 C214 1.424 . S
C215 C216 1.347 . S
C216 H208 0.951 . S
C216 C211 1.429 . S
C216 C215 1.347 . S
H217 C218 0.951 . S
C218 H217 0.951 . S
C218 C224 1.265 . S
H219 C224 0.950 1_545 S
H220 C228 0.949 . S
H221 C229 0.950 . S
H222 C230 0.951 . S
H223 C231 0.951 . S
C224 C218 1.265 . S
C224 H219 0.950 1_565 S
C224 C225 1.478 . S
C225 C212 1.394 . S
C225 C224 1.478 . S
C225 C226 1.397 1_565 S
C226 C225 1.397 1_545 S
C226 C227 1.438 . S
C226 C231 1.429 . S
C227 C210 1.394 . S
C227 C226 1.438 . S
C227 C228 1.428 . S
C228 H220 0.949 . S
C228 C227 1.428 . S
C228 C229 1.345 . S
C229 H221 0.950 . S
C229 C228 1.345 . S
C229 C230 1.424 . S
C230 H222 0.951 . S
C230 C229 1.424 . S
C230 C231 1.347 . S
C231 H223 0.951 . S
C231 C226 1.429 . S
C231 C230 1.347 . S
H232 C233 0.951 . S
C233 H232 0.951 . S
C233 C239 1.265 . S
H234 C239 0.950 . S
H235 C243 0.949 . S
H236 C244 0.950 . S
H237 C245 0.951 . S
H238 C246 0.951 . S
C239 C233 1.265 . S
C239 H234 0.950 . S
C239 C240 1.478 . S
C240 C239 1.478 . S
C240 C241 1.397 . S
C240 C257 1.394 . S
C241 C240 1.397 . S
C241 C242 1.438 1_656 S
C241 C246 1.429 . S
C242 C241 1.438 1_454 S
C242 C243 1.428 . S
C242 C255 1.394 . S
C243 H235 0.949 . S
C243 C242 1.428 . S
C243 C244 1.345 1_455 S
C244 H236 0.950 . S
C244 C243 1.345 1_655 S
C244 C245 1.424 . S
C245 H237 0.951 . S
C245 C244 1.424 . S
C245 C246 1.347 1_554 S
C246 H238 0.951 . S
C246 C241 1.429 . S
C246 C245 1.347 1_556 S
H247 C248 0.951 . S
C248 H247 0.951 . S
C248 C254 1.265 . S
H249 C254 0.950 . S
H250 C258 0.949 . S
H251 C259 0.950 . S
H252 C260 0.951 . S
H253 C261 0.951 . S
C254 C248 1.265 . S
C254 H249 0.950 . S
C254 C255 1.478 . S
C255 C242 1.394 . S
C255 C254 1.478 . S
C255 C256 1.397 . S
C256 C255 1.397 . S
C256 C257 1.438 1_454 S
C256 C261 1.429 . S
C257 C240 1.394 . S
C257 C256 1.438 1_656 S
C257 C258 1.428 . S
C258 H250 0.949 . S
C258 C257 1.428 . S
C258 C259 1.345 1_655 S
C259 H251 0.950 . S
C259 C258 1.345 1_455 S
C259 C260 1.424 . S
C260 H252 0.951 . S
C260 C259 1.424 . S
C260 C261 1.347 1_556 S
C261 H253 0.951 . S
C261 C256 1.429 . S
C261 C260 1.347 1_554 S
H262 C263 0.951 . S
C263 H262 0.951 . S
C263 C269 1.265 . S
H264 C269 0.950 . S
H265 C273 0.949 . S
H266 C274 0.950 . S
H267 C275 0.951 . S
H268 C276 0.951 . S
C269 C263 1.265 . S
C269 H264 0.950 . S
C269 C270 1.478 . S
C270 C269 1.478 . S
C270 C271 1.397 1_545 S
C270 C287 1.394 . S
C271 C270 1.397 1_565 S
C271 C272 1.438 . S
C271 C276 1.429 . S
C272 C271 1.438 . S
C272 C273 1.428 . S
C272 C285 1.394 . S
C273 H265 0.949 . S
C273 C272 1.428 . S
C273 C274 1.345 . S
C274 H266 0.950 . S
C274 C273 1.345 . S
C274 C275 1.424 . S
C275 H267 0.951 . S
C275 C274 1.424 . S
C275 C276 1.347 . S
C276 H268 0.951 . S
C276 C271 1.429 . S
C276 C275 1.347 . S
H277 C278 0.951 . S
C278 H277 0.951 . S
C278 C284 1.265 . S
H279 C284 0.950 . S
H280 C288 0.949 . S
H281 C289 0.950 . S
H282 C290 0.951 . S
H283 C291 0.951 . S
C284 C278 1.265 . S
C284 H279 0.950 . S
C284 C285 1.478 . S
C285 C272 1.394 . S
C285 C284 1.478 . S
C285 C286 1.397 1_565 S
C286 C285 1.397 1_545 S
C286 C287 1.438 . S
C286 C291 1.429 . S
C287 C270 1.394 . S
C287 C286 1.438 . S
C287 C288 1.428 . S
C288 H280 0.949 . S
C288 C287 1.428 . S
C288 C289 1.345 . S
C289 H281 0.950 . S
C289 C288 1.345 . S
C289 C290 1.424 . S
C290 H282 0.951 . S
C290 C289 1.424 . S
C290 C291 1.347 . S
C291 H283 0.951 . S
C291 C286 1.429 . S
C291 C290 1.347 . S
H292 C293 0.951 . S
C293 H292 0.951 . S
C293 C299 1.265 . S
H294 C299 0.950 . S
H295 C303 0.949 . S
H296 C304 0.950 . S
H297 C305 0.951 . S
H298 C306 0.951 1_655 S
C299 C293 1.265 . S
C299 H294 0.950 . S
C299 C300 1.478 . S
C300 C299 1.478 . S
C300 C301 1.397 1_655 S
C300 C317 1.394 . S
C301 C300 1.397 1_455 S
C301 C302 1.438 1_554 S
C301 C306 1.429 . S
C302 C301 1.438 1_556 S
C302 C303 1.428 . S
C302 C315 1.394 . S
C303 H295 0.949 . S
C303 C302 1.428 . S
C303 C304 1.345 . S
C304 H296 0.950 . S
C304 C303 1.345 . S
C304 C305 1.424 1_556 S
C305 H297 0.951 . S
C305 C304 1.424 1_554 S
C305 C306 1.347 . S
C306 H298 0.951 1_455 S
C306 C301 1.429 . S
C306 C305 1.347 . S
H307 C308 0.951 . S
C308 H307 0.951 . S
C308 C314 1.265 . S
H309 C314 0.950 . S
H310 C318 0.949 . S
H311 C319 0.950 . S
H312 C320 0.951 . S
H313 C321 0.951 1_455 S
C314 C308 1.265 . S
C314 H309 0.950 . S
C314 C315 1.478 . S
C315 C302 1.394 . S
C315 C314 1.478 . S
C315 C316 1.397 1_455 S
C316 C315 1.397 1_655 S
C316 C317 1.438 1_556 S
C316 C321 1.429 . S
C317 C300 1.394 . S
C317 C316 1.438 1_554 S
C317 C318 1.428 . S
C318 H310 0.949 . S
C318 C317 1.428 . S
C318 C319 1.345 . S
C319 H311 0.950 . S
C319 C318 1.345 . S
C319 C320 1.424 1_554 S
C320 H312 0.951 . S
C320 C319 1.424 1_556 S
C320 C321 1.347 . S
C321 H313 0.951 1_655 S
C321 C316 1.429 . S
C321 C320 1.347 . S
H322 C323 0.951 . S
C323 H322 0.951 . S
C323 C329 1.265 . S
H324 C329 0.950 . S
H325 C333 0.949 . S
H326 C334 0.950 . S
H327 C335 0.951 . S
H328 C336 0.951 1_545 S
C329 C323 1.265 . S
C329 H324 0.950 . S
C329 C330 1.478 . S
C330 C329 1.478 . S
C330 C331 1.397 1_545 S
C330 C347 1.394 . S
C331 C330 1.397 1_565 S
C331 C332 1.438 . S
C331 C336 1.429 . S
C332 C331 1.438 . S
C332 C333 1.428 . S
C332 C345 1.394 . S
C333 H325 0.949 . S
C333 C332 1.428 . S
C333 C334 1.345 . S
C334 H326 0.950 . S
C334 C333 1.345 . S
C334 C335 1.424 . S
C335 H327 0.951 . S
C335 C334 1.424 . S
C335 C336 1.347 . S
C336 H328 0.951 1_565 S
C336 C331 1.429 . S
C336 C335 1.347 . S
H337 C338 0.951 . S
C338 H337 0.951 . S
C338 C344 1.265 . S
H339 C344 0.950 . S
H340 C348 0.949 . S
H341 C349 0.950 . S
H342 C350 0.951 . S
H343 C351 0.951 1_565 S
C344 C338 1.265 . S
C344 H339 0.950 . S
C344 C345 1.478 . S
C345 C332 1.394 . S
C345 C344 1.478 . S
C345 C346 1.397 1_565 S
C346 C345 1.397 1_545 S
C346 C347 1.438 . S
C346 C351 1.429 . S
C347 C330 1.394 . S
C347 C346 1.438 . S
C347 C348 1.428 . S
C348 H340 0.949 . S
C348 C347 1.428 . S
C348 C349 1.345 . S
C349 H341 0.950 . S
C349 C348 1.345 . S
C349 C350 1.424 . S
C350 H342 0.951 . S
C350 C349 1.424 . S
C350 C351 1.347 . S
C351 H343 0.951 1_545 S
C351 C346 1.429 . S
C351 C350 1.347 . S
H352 C353 0.951 . S
C353 H352 0.951 . S
C353 C359 1.265 . S
H354 C359 0.950 . S
H355 C363 0.949 . S
H356 C364 0.950 . S
H357 C365 0.951 . S
H358 C366 0.951 . S
C359 C353 1.265 . S
C359 H354 0.950 . S
C359 C360 1.478 . S
C360 C359 1.478 . S
C360 C361 1.397 . S
C360 C377 1.394 . S
C361 C360 1.397 . S
C361 C362 1.438 . S
C361 C366 1.429 . S
C362 C361 1.438 . S
C362 C363 1.428 . S
C362 C375 1.394 . S
C363 H355 0.949 . S
C363 C362 1.428 . S
C363 C364 1.345 . S
C364 H356 0.950 . S
C364 C363 1.345 . S
C364 C365 1.424 . S
C365 H357 0.951 . S
C365 C364 1.424 . S
C365 C366 1.347 . S
C366 H358 0.951 . S
C366 C361 1.429 . S
C366 C365 1.347 . S
H367 C368 0.951 . S
C368 H367 0.951 . S
C368 C374 1.265 . S
H369 C374 0.950 . S
H370 C378 0.949 . S
H371 C379 0.950 . S
H372 C380 0.951 . S
H373 C381 0.951 . S
C374 C368 1.265 . S
C374 H369 0.950 . S
C374 C375 1.478 . S
C375 C362 1.394 . S
C375 C374 1.478 . S
C375 C376 1.397 . S
C376 C375 1.397 . S
C376 C377 1.438 . S
C376 C381 1.429 . S
C377 C360 1.394 . S
C377 C376 1.438 . S
C377 C378 1.428 . S
C378 H370 0.949 . S
C378 C377 1.428 . S
C378 C379 1.345 . S
C379 H371 0.950 . S
C379 C378 1.345 . S
C379 C380 1.424 . S
C380 H372 0.951 . S
C380 C379 1.424 . S
C380 C381 1.347 . S
C381 H373 0.951 . S
C381 C376 1.429 . S
C381 C380 1.347 . S
H382 C383 0.951 . S
C383 H382 0.951 . S
C383 C389 1.265 . S
H384 C389 0.950 . S
H385 C393 0.949 . S
H386 C394 0.950 . S
H387 C395 0.951 . S
H388 C396 0.951 . S
C389 C383 1.265 . S
C389 H384 0.950 . S
C389 C390 1.478 . S
C390 C389 1.478 . S
C390 C391 1.397 . S
C390 C407 1.394 . S
C391 C390 1.397 . S
C391 C392 1.438 . S
C391 C396 1.429 . S
C392 C391 1.438 . S
C392 C393 1.428 . S
C392 C405 1.394 . S
C393 H385 0.949 . S
C393 C392 1.428 . S
C393 C394 1.345 . S
C394 H386 0.950 . S
C394 C393 1.345 . S
C394 C395 1.424 . S
C395 H387 0.951 . S
C395 C394 1.424 . S
C395 C396 1.347 . S
C396 H388 0.951 . S
C396 C391 1.429 . S
C396 C395 1.347 . S
H397 C398 0.951 . S
C398 H397 0.951 . S
C398 C404 1.265 . S
H399 C404 0.950 . S
H400 C408 0.949 . S
H401 C409 0.950 . S
H402 C410 0.951 . S
H403 C411 0.951 . S
C404 C398 1.265 . S
C404 H399 0.950 . S
C404 C405 1.478 . S
C405 C392 1.394 . S
C405 C404 1.478 . S
C405 C406 1.397 . S
C406 C405 1.397 . S
C406 C407 1.438 . S
C406 C411 1.429 . S
C407 C390 1.394 . S
C407 C406 1.438 . S
C407 C408 1.428 . S
C408 H400 0.949 . S
C408 C407 1.428 . S
C408 C409 1.345 . S
C409 H401 0.950 . S
C409 C408 1.345 . S
C409 C410 1.424 . S
C410 H402 0.951 . S
C410 C409 1.424 . S
C410 C411 1.347 . S
C411 H403 0.951 . S
C411 C406 1.429 . S
C411 C410 1.347 . S
H412 C413 0.951 . S
C413 H412 0.951 . S
C413 C419 1.265 . S
H414 C419 0.950 . S
H415 C423 0.949 . S
H416 C424 0.950 . S
H417 C425 0.951 . S
H418 C426 0.951 . S
C419 C413 1.265 . S
C419 H414 0.950 . S
C419 C420 1.478 . S
C420 C419 1.478 . S
C420 C421 1.397 . S
C420 C437 1.394 . S
C421 C420 1.397 . S
C421 C422 1.438 . S
C421 C426 1.429 . S
C422 C421 1.438 . S
C422 C423 1.428 . S
C422 C435 1.394 . S
C423 H415 0.949 . S
C423 C422 1.428 . S
C423 C424 1.345 . S
C424 H416 0.950 . S
C424 C423 1.345 . S
C424 C425 1.424 . S
C425 H417 0.951 . S
C425 C424 1.424 . S
C425 C426 1.347 . S
C426 H418 0.951 . S
C426 C421 1.429 . S
C426 C425 1.347 . S
H427 C428 0.951 . S
C428 H427 0.951 . S
C428 C434 1.265 . S
H429 C434 0.950 . S
H430 C438 0.949 . S
H431 C439 0.950 . S
H432 C440 0.951 . S
H433 C441 0.951 . S
C434 C428 1.265 . S
C434 H429 0.950 . S
C434 C435 1.478 . S
C435 C422 1.394 . S
C435 C434 1.478 . S
C435 C436 1.397 . S
C436 C435 1.397 . S
C436 C437 1.438 . S
C436 C441 1.429 . S
C437 C420 1.394 . S
C437 C436 1.438 . S
C437 C438 1.428 . S
C438 H430 0.949 . S
C438 C437 1.428 . S
C438 C439 1.345 . S
C439 H431 0.950 . S
C439 C438 1.345 . S
C439 C440 1.424 . S
C440 H432 0.951 . S
C440 C439 1.424 . S
C440 C441 1.347 . S
C441 H433 0.951 . S
C441 C436 1.429 . S
C441 C440 1.347 . S
H442 C443 0.951 . S
C443 H442 0.951 . S
C443 C449 1.265 . S
H444 C449 0.950 . S
H445 C453 0.949 . S
H446 C454 0.950 . S
H447 C455 0.951 . S
H448 C456 0.951 . S
C449 C443 1.265 . S
C449 H444 0.950 . S
C449 C450 1.478 . S
C450 C449 1.478 . S
C450 C451 1.397 . S
C450 C467 1.394 . S
C451 C450 1.397 . S
C451 C452 1.438 . S
C451 C456 1.429 . S
C452 C451 1.438 . S
C452 C453 1.428 . S
C452 C465 1.394 . S
C453 H445 0.949 . S
C453 C452 1.428 . S
C453 C454 1.345 . S
C454 H446 0.950 . S
C454 C453 1.345 . S
C454 C455 1.424 . S
C455 H447 0.951 . S
C455 C454 1.424 . S
C455 C456 1.347 . S
C456 H448 0.951 . S
C456 C451 1.429 . S
C456 C455 1.347 . S
H457 C458 0.951 . S
C458 H457 0.951 . S
C458 C464 1.265 . S
H459 C464 0.950 . S
H460 C468 0.949 . S
H461 C469 0.950 . S
H462 C470 0.951 . S
H463 C471 0.951 . S
C464 C458 1.265 . S
C464 H459 0.950 . S
C464 C465 1.478 . S
C465 C452 1.394 . S
C465 C464 1.478 . S
C465 C466 1.397 . S
C466 C465 1.397 . S
C466 C467 1.438 . S
C466 C471 1.429 . S
C467 C450 1.394 . S
C467 C466 1.438 . S
C467 C468 1.428 . S
C468 H460 0.949 . S
C468 C467 1.428 . S
C468 C469 1.345 . S
C469 H461 0.950 . S
C469 C468 1.345 . S
C469 C470 1.424 . S
C470 H462 0.951 . S
C470 C469 1.424 . S
C470 C471 1.347 . S
C471 H463 0.951 . S
C471 C466 1.429 . S
C471 C470 1.347 . S
H472 C473 0.951 . S
C473 H472 0.951 . S
C473 C479 1.265 . S
H474 C479 0.950 1_655 S
H475 C483 0.949 . S
H476 C484 0.950 . S
H477 C485 0.951 . S
H478 C486 0.951 . S
C479 C473 1.265 . S
C479 H474 0.950 1_455 S
C479 C480 1.478 . S
C480 C479 1.478 . S
C480 C481 1.397 1_455 S
C480 C497 1.394 . S
C481 C480 1.397 1_655 S
C481 C482 1.438 1_545 S
C481 C486 1.429 . S
C482 C481 1.438 1_565 S
C482 C483 1.428 . S
C482 C495 1.394 . S
C483 H475 0.949 . S
C483 C482 1.428 . S
C483 C484 1.345 . S
C484 H476 0.950 . S
C484 C483 1.345 . S
C484 C485 1.424 1_565 S
C485 H477 0.951 . S
C485 C484 1.424 1_545 S
C485 C486 1.347 . S
C486 H478 0.951 . S
C486 C481 1.429 . S
C486 C485 1.347 . S
H487 C488 0.951 . S
C488 H487 0.951 . S
C488 C494 1.265 . S
H489 C494 0.950 1_455 S
H490 C498 0.949 . S
H491 C499 0.950 . S
H492 C500 0.951 . S
H493 C501 0.951 . S
C494 C488 1.265 . S
C494 H489 0.950 1_655 S
C494 C495 1.478 . S
C495 C482 1.394 . S
C495 C494 1.478 . S
C495 C496 1.397 1_655 S
C496 C495 1.397 1_455 S
C496 C497 1.438 1_565 S
C496 C501 1.429 . S
C497 C480 1.394 . S
C497 C496 1.438 1_545 S
C497 C498 1.428 . S
C498 H490 0.949 . S
C498 C497 1.428 . S
C498 C499 1.345 . S
C499 H491 0.950 . S
C499 C498 1.345 . S
C499 C500 1.424 1_545 S
C500 H492 0.951 . S
C500 C499 1.424 1_565 S
C500 C501 1.347 . S
C501 H493 0.951 . S
C501 C496 1.429 . S
C501 C500 1.347 . S
H502 C503 0.951 1_545 S
C503 H502 0.951 1_565 S
C503 C509 1.265 . S
H504 C509 0.950 . S
H505 C513 0.949 . S
H506 C514 0.948 1_545 S
H507 C515 0.951 . S
H508 C516 0.951 . S
C509 C503 1.265 . S
C509 H504 0.950 . S
C509 C510 1.478 . S
C510 C509 1.478 . S
C510 C511 1.397 . S
C510 C527 1.394 . S
C511 C510 1.397 . S
C511 C512 1.438 1_465 S
C511 C516 1.429 . S
C512 C511 1.438 1_645 S
C512 C513 1.428 . S
C512 C525 1.394 . S
C513 H505 0.949 . S
C513 C512 1.428 . S
C513 C514 1.341 1_545 S
C514 H506 0.948 1_565 S
C514 C513 1.341 1_565 S
C514 C515 1.429 1_655 S
C515 H507 0.951 . S
C515 C514 1.429 1_455 S
C515 C516 1.347 . S
C516 H508 0.951 . S
C516 C511 1.429 . S
C516 C515 1.347 . S
H517 C518 0.951 1_565 S
C518 H517 0.951 1_545 S
C518 C524 1.265 . S
H519 C524 0.950 . S
H520 C528 0.949 . S
H521 C529 0.948 1_565 S
H522 C530 0.951 . S
H523 C531 0.951 . S
C524 C518 1.265 . S
C524 H519 0.950 . S
C524 C525 1.478 . S
C525 C512 1.394 . S
C525 C524 1.478 . S
C525 C526 1.397 . S
C526 C525 1.397 . S
C526 C527 1.438 1_645 S
C526 C531 1.429 . S
C527 C510 1.394 . S
C527 C526 1.438 1_465 S
C527 C528 1.428 . S
C528 H520 0.949 . S
C528 C527 1.428 . S
C528 C529 1.341 1_565 S
C529 H521 0.948 1_545 S
C529 C528 1.341 1_545 S
C529 C530 1.429 1_455 S
C530 H522 0.951 . S
C530 C529 1.429 1_655 S
C530 C531 1.347 . S
C531 H523 0.951 . S
C531 C526 1.429 . S
C531 C530 1.347 . S
H532 C533 0.951 . S
C533 H532 0.951 . S
C533 C539 1.265 . S
H534 C539 0.950 1_455 S
H535 C543 0.949 . S
H536 C544 0.950 . S
H537 C545 0.951 . S
H538 C546 0.951 . S
C539 C533 1.265 . S
C539 H534 0.950 1_655 S
C539 C540 1.478 . S
C540 C539 1.478 . S
C540 C541 1.397 1_655 S
C540 C557 1.394 . S
C541 C540 1.397 1_455 S
C541 C542 1.438 1_545 S
C541 C546 1.429 . S
C542 C541 1.438 1_565 S
C542 C543 1.428 . S
C542 C555 1.394 . S
C543 H535 0.949 . S
C543 C542 1.428 . S
C543 C544 1.345 . S
C544 H536 0.950 . S
C544 C543 1.345 . S
C544 C545 1.424 1_565 S
C545 H537 0.951 . S
C545 C544 1.424 1_545 S
C545 C546 1.347 . S
C546 H538 0.951 . S
C546 C541 1.429 . S
C546 C545 1.347 . S
H547 C548 0.951 . S
C548 H547 0.951 . S
C548 C554 1.265 . S
H549 C554 0.950 1_655 S
H550 C558 0.949 . S
H551 C559 0.950 . S
H552 C560 0.951 . S
H553 C561 0.951 . S
C554 C548 1.265 . S
C554 H549 0.950 1_455 S
C554 C555 1.478 . S
C555 C542 1.394 . S
C555 C554 1.478 . S
C555 C556 1.397 1_455 S
C556 C555 1.397 1_655 S
C556 C557 1.438 1_565 S
C556 C561 1.429 . S
C557 C540 1.394 . S
C557 C556 1.438 1_545 S
C557 C558 1.428 . S
C558 H550 0.949 . S
C558 C557 1.428 . S
C558 C559 1.345 . S
C559 H551 0.950 . S
C559 C558 1.345 . S
C559 C560 1.424 1_545 S
C560 H552 0.951 . S
C560 C559 1.424 1_565 S
C560 C561 1.347 . S
C561 H553 0.951 . S
C561 C556 1.429 . S
C561 C560 1.347 . S
H562 C563 0.951 . S
C563 H562 0.951 . S
C563 C569 1.265 . S
H564 C569 0.950 1_545 S
H565 C573 0.949 . S
H566 C574 0.950 . S
H567 C575 0.951 . S
H568 C576 0.951 . S
C569 C563 1.265 . S
C569 H564 0.950 1_565 S
C569 C570 1.478 . S
C570 C569 1.478 . S
C570 C571 1.397 1_565 S
C570 C587 1.394 . S
C571 C570 1.397 1_545 S
C571 C572 1.438 1_655 S
C571 C576 1.429 . S
C572 C571 1.438 1_455 S
C572 C573 1.428 . S
C572 C585 1.394 . S
C573 H565 0.949 . S
C573 C572 1.428 . S
C573 C574 1.345 . S
C574 H566 0.950 . S
C574 C573 1.345 . S
C574 C575 1.424 1_455 S
C575 H567 0.951 . S
C575 C574 1.424 1_655 S
C575 C576 1.347 . S
C576 H568 0.951 . S
C576 C571 1.429 . S
C576 C575 1.347 . S
H577 C578 0.951 . S
C578 H577 0.951 . S
C578 C584 1.265 . S
H579 C584 0.950 1_565 S
H580 C588 0.949 . S
H581 C589 0.950 . S
H582 C590 0.951 . S
H583 C591 0.951 . S
C584 C578 1.265 . S
C584 H579 0.950 1_545 S
C584 C585 1.478 . S
C585 C572 1.394 . S
C585 C584 1.478 . S
C585 C586 1.397 1_545 S
C586 C585 1.397 1_565 S
C586 C587 1.438 1_455 S
C586 C591 1.429 . S
C587 C570 1.394 . S
C587 C586 1.438 1_655 S
C587 C588 1.428 . S
C588 H580 0.949 . S
C588 C587 1.428 . S
C588 C589 1.345 . S
C589 H581 0.950 . S
C589 C588 1.345 . S
C589 C590 1.424 1_655 S
C590 H582 0.951 . S
C590 C589 1.424 1_455 S
C590 C591 1.347 . S
C591 H583 0.951 . S
C591 C586 1.429 . S
C591 C590 1.347 . S
C113 C3 1.346 . S
C128 C31 1.346 . S
C143 C50 1.389 . S
C158 C22 1.389 . S
C173 C87 1.380 . S
C188 C59 1.374 . S
C203 C78 1.388 . S
C218 C106 1.388 . S
C233 C93 1.420 . S
C248 C9 1.420 . S
C263 C21 1.602 . S
C278 C105 1.543 . S
C293 C37 1.573 . S
C308 C65 1.573 . S
C323 C77 1.576 . S
C338 C49 1.521 . S
C353 C8 1.393 . S
C368 C73 1.379 . S
C383 C92 1.392 . S
C398 C17 1.402 . S
C413 C101 1.386 . S
C428 C36 1.475 . S
C443 C45 1.440 . S
C458 C64 1.461 . S
C473 C7 0.933 . S
C488 C35 0.933 . S
C503 C51 0.986 . S
C518 C23 0.994 . S
C533 C91 0.937 . S
C548 C63 0.929 . S
C563 C107 0.879 . S
C578 C79 0.907 . S
