# Generated by pormake.
# Topology pcb, (4)-cn, num edge types: 1
# Building blocks:
#     Node 0, Type 0, BuildingBlock: QUQFOY_clean_sbu_1, # of connection points: 4
#     Node 1, Type 0, BuildingBlock: QUQFOY_clean_sbu_1, # of connection points: 4
#     Node 2, Type 0, BuildingBlock: QUQFOY_clean_sbu_1, # of connection points: 4
#     Node 3, Type 0, BuildingBlock: QUQFOY_clean_sbu_1, # of connection points: 4
#     Node 4, Type 0, BuildingBlock: QUQFOY_clean_sbu_1, # of connection points: 4
#     Node 5, Type 0, BuildingBlock: QUQFOY_clean_sbu_1, # of connection points: 4
#     Node 6, Type 0, BuildingBlock: QUQFOY_clean_sbu_1, # of connection points: 4
#     Node 7, Type 0, BuildingBlock: QUQFOY_clean_sbu_1, # of connection points: 4
#     Node 8, Type 0, BuildingBlock: QUQFOY_clean_sbu_1, # of connection points: 4
#     Node 9, Type 0, BuildingBlock: QUQFOY_clean_sbu_1, # of connection points: 4
#     Node 10, Type 0, BuildingBlock: QUQFOY_clean_sbu_1, # of connection points: 4
#     Node 11, Type 0, BuildingBlock: QUQFOY_clean_sbu_1, # of connection points: 4
#     Node 12, Type 0, BuildingBlock: QUQFOY_clean_sbu_1, # of connection points: 4
#     Node 13, Type 0, BuildingBlock: QUQFOY_clean_sbu_1, # of connection points: 4
#     Node 14, Type 0, BuildingBlock: QUQFOY_clean_sbu_1, # of connection points: 4
#     Node 15, Type 0, BuildingBlock: QUQFOY_clean_sbu_1, # of connection points: 4
#     Edge 16, Type (0, 0), BuildingBlock: UVAHIK_clean_linker_0, # of connection points: 2
#     Edge 17, Type (0, 0), BuildingBlock: UVAHIK_clean_linker_0, # of connection points: 2
#     Edge 18, Type (0, 0), BuildingBlock: UVAHIK_clean_linker_0, # of connection points: 2
#     Edge 19, Type (0, 0), BuildingBlock: UVAHIK_clean_linker_0, # of connection points: 2
#     Edge 20, Type (0, 0), BuildingBlock: UVAHIK_clean_linker_0, # of connection points: 2
#     Edge 21, Type (0, 0), BuildingBlock: UVAHIK_clean_linker_0, # of connection points: 2
#     Edge 22, Type (0, 0), BuildingBlock: UVAHIK_clean_linker_0, # of connection points: 2
#     Edge 23, Type (0, 0), BuildingBlock: UVAHIK_clean_linker_0, # of connection points: 2
#     Edge 24, Type (0, 0), BuildingBlock: UVAHIK_clean_linker_0, # of connection points: 2
#     Edge 25, Type (0, 0), BuildingBlock: UVAHIK_clean_linker_0, # of connection points: 2
#     Edge 26, Type (0, 0), BuildingBlock: UVAHIK_clean_linker_0, # of connection points: 2
#     Edge 27, Type (0, 0), BuildingBlock: UVAHIK_clean_linker_0, # of connection points: 2
#     Edge 28, Type (0, 0), BuildingBlock: UVAHIK_clean_linker_0, # of connection points: 2
#     Edge 29, Type (0, 0), BuildingBlock: UVAHIK_clean_linker_0, # of connection points: 2
#     Edge 30, Type (0, 0), BuildingBlock: UVAHIK_clean_linker_0, # of connection points: 2
#     Edge 31, Type (0, 0), BuildingBlock: UVAHIK_clean_linker_0, # of connection points: 2
#     Edge 32, Type (0, 0), BuildingBlock: UVAHIK_clean_linker_0, # of connection points: 2
#     Edge 33, Type (0, 0), BuildingBlock: UVAHIK_clean_linker_0, # of connection points: 2
#     Edge 34, Type (0, 0), BuildingBlock: UVAHIK_clean_linker_0, # of connection points: 2
#     Edge 35, Type (0, 0), BuildingBlock: UVAHIK_clean_linker_0, # of connection points: 2
#     Edge 36, Type (0, 0), BuildingBlock: UVAHIK_clean_linker_0, # of connection points: 2
#     Edge 37, Type (0, 0), BuildingBlock: UVAHIK_clean_linker_0, # of connection points: 2
#     Edge 38, Type (0, 0), BuildingBlock: UVAHIK_clean_linker_0, # of connection points: 2
#     Edge 39, Type (0, 0), BuildingBlock: UVAHIK_clean_linker_0, # of connection points: 2
#     Edge 40, Type (0, 0), BuildingBlock: UVAHIK_clean_linker_0, # of connection points: 2
#     Edge 41, Type (0, 0), BuildingBlock: UVAHIK_clean_linker_0, # of connection points: 2
#     Edge 42, Type (0, 0), BuildingBlock: UVAHIK_clean_linker_0, # of connection points: 2
#     Edge 43, Type (0, 0), BuildingBlock: UVAHIK_clean_linker_0, # of connection points: 2
#     Edge 44, Type (0, 0), BuildingBlock: UVAHIK_clean_linker_0, # of connection points: 2
#     Edge 45, Type (0, 0), BuildingBlock: UVAHIK_clean_linker_0, # of connection points: 2
#     Edge 46, Type (0, 0), BuildingBlock: UVAHIK_clean_linker_0, # of connection points: 2
#     Edge 47, Type (0, 0), BuildingBlock: UVAHIK_clean_linker_0, # of connection points: 2
# Relax obj value: 0.298
# Max RMSD: 0.245
# Mean RMSD: 0.193
data_MOF--net-pcb--node1-QUQFOY_clean_sbu_1--edge1-UVAHIK_clean_linker_0
_symmetry_space_group_name_H-M    P1
_symmetry_Int_Tables_number       1
_symmetry_cell_setting            triclinic
loop_
_symmetry_equiv_pos_as_xyz
'x, y, z'
_cell_length_a     58.105723
_cell_length_b     62.147079
_cell_length_c     62.462184
_cell_angle_alpha  94.461439
_cell_angle_beta   93.804265
_cell_angle_gamma 97.660183
loop_
_atom_site_label
_atom_site_type_symbol
_atom_site_fract_x
_atom_site_fract_y
_atom_site_fract_z
_atom_type_partial_charge
O0 O 0.15387 0.14983 0.16091 0.0
Cd1 Cd 0.18859 0.14806 0.15737 0.0
Cd2 Cd 0.17412 0.13202 0.11681 0.0
O3 O 0.1431 0.14068 0.12656 0.0
O4 O 0.20699 0.16917 0.17937 0.0
O5 O 0.20629 0.17314 0.14431 0.0
C6 C 0.21349 0.18052 0.16385 0.0
C7 C 0.18195 0.13612 0.08109 0.0
C8 C 0.13819 0.14684 0.1454 0.0
C9 C 0.19697 0.10287 0.14588 0.0
O10 O 0.18619 0.10499 0.12799 0.0
O11 O 0.20069 0.11867 0.16037 0.0
O12 O 0.16598 0.12142 0.08617 0.0
O13 O 0.1932 0.14932 0.09641 0.0
O14 O 0.84235 0.14798 0.19792 0.0
Cd15 Cd 0.85743 0.17887 0.19299 0.0
Cd16 Cd 0.84931 0.16547 0.15136 0.0
O17 O 0.82991 0.13967 0.16382 0.0
O18 O 0.85073 0.19925 0.21708 0.0
O19 O 0.83586 0.19927 0.18341 0.0
C20 C 0.83698 0.2069 0.20338 0.0
C21 C 0.83483 0.1777 0.11928 0.0
C22 C 0.83073 0.13488 0.18325 0.0
C23 C 0.89955 0.17571 0.17008 0.0
O24 O 0.88519 0.16739 0.15442 0.0
O25 O 0.8922 0.18304 0.18752 0.0
O26 O 0.84184 0.15894 0.11977 0.0
O27 O 0.8354 0.18955 0.13726 0.0
O28 O 0.8549 0.87075 0.18581 0.0
Cd29 Cd 0.81992 0.86971 0.18893 0.0
Cd30 Cd 0.81771 0.87797 0.14755 0.0
O31 O 0.85226 0.87284 0.15072 0.0
O32 O 0.81245 0.84972 0.21135 0.0
O33 O 0.79953 0.84234 0.17697 0.0
C34 C 0.80123 0.83621 0.19626 0.0
C35 C 0.79716 0.86552 0.11458 0.0
C36 C 0.8643 0.87093 0.16805 0.0
C37 C 0.8039 0.91132 0.18119 0.0
O38 O 0.80767 0.90605 0.16179 0.0
O39 O 0.80708 0.89853 0.19564 0.0
O40 O 0.81245 0.8827 0.11669 0.0
O41 O 0.79366 0.85487 0.13127 0.0
O42 O 0.16916 0.87083 0.18115 0.0
Cd43 Cd 0.15157 0.8404 0.18414 0.0
Cd44 Cd 0.14685 0.83766 0.14062 0.0
O45 O 0.16502 0.86876 0.14568 0.0
O46 O 0.16239 0.83159 0.21251 0.0
O47 O 0.16834 0.81437 0.18133 0.0
C48 C 0.17109 0.8162 0.20214 0.0
C49 C 0.15677 0.81608 0.11132 0.0
C50 C 0.17257 0.87931 0.16358 0.0
C51 C 0.10299 0.8343 0.16464 0.0
O52 O 0.11212 0.83362 0.14672 0.0
O53 O 0.11579 0.83691 0.18219 0.0
O54 O 0.1442 0.83137 0.10882 0.0
O55 O 0.16397 0.81282 0.13064 0.0
O56 O 0.14704 0.77041 0.88224 0.0
Cd57 Cd 0.13375 0.77524 0.85186 0.0
Cd58 Cd 0.14339 0.81778 0.86599 0.0
O59 O 0.16196 0.80491 0.89021 0.0
O60 O 0.14337 0.75483 0.82891 0.0
O61 O 0.15578 0.79034 0.83321 0.0
C62 C 0.15623 0.77159 0.82291 0.0
C63 C 0.15826 0.85139 0.85407 0.0
C64 C 0.15934 0.7852 0.89486 0.0
C65 C 0.09258 0.79707 0.85673 0.0
O66 O 0.10737 0.81293 0.86513 0.0
O67 O 0.09937 0.77984 0.84861 0.0
O68 O 0.15096 0.84996 0.873 0.0
O69 O 0.15805 0.83355 0.84203 0.0
O70 O 0.14759 0.15271 0.80966 0.0
Cd71 Cd 0.18028 0.14352 0.81307 0.0
Cd72 Cd 0.15573 0.10349 0.81534 0.0
O73 O 0.1284 0.11944 0.80565 0.0
O74 O 0.20122 0.16937 0.80623 0.0
O75 O 0.19689 0.13784 0.78626 0.0
C76 C 0.20637 0.15794 0.78961 0.0
C77 C 0.15553 0.06717 0.80237 0.0
C78 C 0.12857 0.13992 0.80587 0.0
C79 C 0.18463 0.12459 0.85515 0.0
O80 O 0.16872 0.10959 0.84707 0.0
O81 O 0.19305 0.13923 0.8437 0.0
O82 O 0.14007 0.07302 0.81457 0.0
O83 O 0.17088 0.08217 0.79662 0.0
O84 O 0.89128 0.1885 0.82829 0.0
Cd85 Cd 0.85693 0.17792 0.83253 0.0
Cd86 Cd 0.87212 0.18165 0.87473 0.0
O87 O 0.90287 0.19429 0.8628 0.0
O88 O 0.83918 0.18268 0.80553 0.0
O89 O 0.83421 0.19911 0.83732 0.0
C90 C 0.82861 0.196 0.81683 0.0
C91 C 0.86209 0.19789 0.90724 0.0
C92 C 0.90729 0.19472 0.84317 0.0
C93 C 0.85316 0.13665 0.85396 0.0
O94 O 0.86308 0.14821 0.87055 0.0
O95 O 0.84825 0.14548 0.83689 0.0
O96 O 0.87958 0.18724 0.90636 0.0
O97 O 0.8503 0.19985 0.8894 0.0
O98 O 0.83695 0.82035 0.86018 0.0
Cd99 Cd 0.80369 0.82827 0.85764 0.0
Cd100 Cd 0.82277 0.86842 0.8741 0.0
O101 O 0.85258 0.85387 0.87167 0.0
O102 O 0.78529 0.8088 0.83429 0.0
O103 O 0.79559 0.84426 0.83211 0.0
C104 C 0.78551 0.82557 0.8233 0.0
C105 C 0.82627 0.90506 0.86704 0.0
C106 C 0.8548 0.83419 0.86605 0.0
C107 C 0.78701 0.84309 0.89925 0.0
O108 O 0.80094 0.8604 0.89783 0.0
O109 O 0.78501 0.82753 0.88454 0.0
O110 O 0.83579 0.89893 0.8843 0.0
O111 O 0.8147 0.89023 0.85337 0.0
O112 O 0.65422 0.65061 0.66592 0.0
Cd113 Cd 0.68868 0.64802 0.66201 0.0
Cd114 Cd 0.67357 0.63173 0.62116 0.0
O115 O 0.64327 0.64139 0.63162 0.0
O116 O 0.70785 0.66915 0.68348 0.0
O117 O 0.70656 0.67252 0.64828 0.0
C118 C 0.71424 0.68013 0.66766 0.0
C119 C 0.67887 0.63432 0.58467 0.0
C120 C 0.63854 0.64788 0.65042 0.0
C121 C 0.6964 0.60261 0.65047 0.0
O122 O 0.68575 0.60482 0.63255 0.0
O123 O 0.70016 0.61837 0.66501 0.0
O124 O 0.66327 0.62012 0.59113 0.0
O125 O 0.69141 0.64771 0.59907 0.0
O126 O 0.34388 0.65227 0.69363 0.0
Cd127 Cd 0.35824 0.68403 0.69154 0.0
Cd128 Cd 0.35183 0.67424 0.64903 0.0
O129 O 0.33185 0.6474 0.6592 0.0
O130 O 0.35005 0.70207 0.7167 0.0
O131 O 0.33623 0.70449 0.68308 0.0
C132 C 0.33645 0.71042 0.70343 0.0
C133 C 0.33896 0.68649 0.61635 0.0
C134 C 0.33244 0.64059 0.67787 0.0
C135 C 0.40141 0.68378 0.66998 0.0
O136 O 0.38771 0.67645 0.65354 0.0
O137 O 0.39326 0.68964 0.68753 0.0
O138 O 0.34646 0.66801 0.61724 0.0
O139 O 0.33825 0.69819 0.63423 0.0
O140 O 0.35421 0.37207 0.68654 0.0
Cd141 Cd 0.31924 0.37213 0.68862 0.0
Cd142 Cd 0.31776 0.3763 0.64621 0.0
O143 O 0.35211 0.37083 0.65112 0.0
O144 O 0.30978 0.35308 0.71128 0.0
O145 O 0.29874 0.34496 0.67654 0.0
C146 C 0.29913 0.33935 0.69605 0.0
C147 C 0.29834 0.3626 0.61304 0.0
C148 C 0.36384 0.37033 0.66896 0.0
C149 C 0.30393 0.41267 0.67673 0.0
O150 O 0.3076 0.40535 0.65788 0.0
O151 O 0.30709 0.40161 0.69264 0.0
O152 O 0.31407 0.37943 0.61489 0.0
O153 O 0.29386 0.35288 0.63011 0.0
O154 O 0.66858 0.36993 0.68331 0.0
Cd155 Cd 0.65134 0.33925 0.68579 0.0
Cd156 Cd 0.64535 0.33807 0.64156 0.0
O157 O 0.66445 0.36866 0.64787 0.0
O158 O 0.66204 0.33082 0.71434 0.0
O159 O 0.66872 0.31353 0.68345 0.0
C160 C 0.67119 0.31555 0.70427 0.0
C161 C 0.65226 0.31885 0.60942 0.0
C162 C 0.67207 0.37878 0.66595 0.0
C163 C 0.60238 0.33374 0.66707 0.0
O164 O 0.611 0.3341 0.64892 0.0
O165 O 0.61558 0.33543 0.68432 0.0
O166 O 0.64076 0.33515 0.60963 0.0
O167 O 0.66026 0.3133 0.62765 0.0
O168 O 0.65013 0.27649 0.37827 0.0
Cd169 Cd 0.63663 0.28122 0.34791 0.0
Cd170 Cd 0.64416 0.32358 0.36215 0.0
O171 O 0.66158 0.31145 0.38752 0.0
O172 O 0.6464 0.26047 0.32546 0.0
O173 O 0.65843 0.29607 0.32877 0.0
C174 C 0.65907 0.27709 0.319 0.0
C175 C 0.65881 0.35747 0.35073 0.0
C176 C 0.66049 0.29166 0.39174 0.0
C177 C 0.59412 0.30147 0.35175 0.0
O178 O 0.60821 0.31792 0.35994 0.0
O179 O 0.60178 0.28439 0.34436 0.0
O180 O 0.65047 0.35578 0.3692 0.0
O181 O 0.6598 0.33973 0.33889 0.0
O182 O 0.64737 0.65825 0.31258 0.0
Cd183 Cd 0.67875 0.64642 0.31559 0.0
Cd184 Cd 0.65196 0.60877 0.31361 0.0
O185 O 0.62774 0.62645 0.30029 0.0
O186 O 0.70232 0.67044 0.30906 0.0
O187 O 0.69412 0.63925 0.2885 0.0
C188 C 0.70575 0.65857 0.29203 0.0
C189 C 0.65377 0.57313 0.29982 0.0
C190 C 0.62873 0.64695 0.30407 0.0
C191 C 0.67763 0.62576 0.35609 0.0
O192 O 0.66015 0.61339 0.34659 0.0
O193 O 0.68979 0.63918 0.34566 0.0
O194 O 0.63609 0.57827 0.30943 0.0
O195 O 0.67022 0.58856 0.29697 0.0
O196 O 0.38684 0.68422 0.32272 0.0
Cd197 Cd 0.35338 0.67534 0.33087 0.0
Cd198 Cd 0.37436 0.6807 0.37106 0.0
O199 O 0.40313 0.69272 0.35567 0.0
O200 O 0.3337 0.67799 0.30431 0.0
O201 O 0.33165 0.69766 0.33504 0.0
C202 C 0.32452 0.6928 0.31499 0.0
C203 C 0.36575 0.69903 0.40299 0.0
C204 C 0.40465 0.69139 0.33542 0.0
C205 C 0.3525 0.6353 0.35414 0.0
O206 O 0.36538 0.6472 0.36895 0.0
O207 O 0.34466 0.64364 0.33772 0.0
O208 O 0.38358 0.68878 0.40216 0.0
O209 O 0.35295 0.69948 0.38535 0.0
O210 O 0.33732 0.31858 0.35757 0.0
Cd211 Cd 0.30391 0.32617 0.35575 0.0
Cd212 Cd 0.32282 0.3664 0.37271 0.0
O213 O 0.35269 0.35211 0.3693 0.0
O214 O 0.28533 0.30694 0.33235 0.0
O215 O 0.29516 0.34255 0.3307 0.0
C216 C 0.28515 0.32392 0.3217 0.0
C217 C 0.32604 0.40334 0.36681 0.0
C218 C 0.35509 0.33257 0.36331 0.0
C219 C 0.28774 0.34011 0.39785 0.0
O220 O 0.30143 0.3576 0.39653 0.0
O221 O 0.28571 0.32477 0.38292 0.0
O222 O 0.33592 0.39671 0.38363 0.0
O223 O 0.31428 0.38884 0.35292 0.0
C224 C 0.28715 0.33224 0.28335 0.0
C225 C 0.27538 0.32134 0.29917 0.0
C226 C 0.28103 0.32588 0.26148 0.0
C227 C 0.27819 0.28987 0.22404 0.0
H228 H 0.21512 0.2709 0.19919 0.0
C229 C 0.24411 0.20544 0.18637 0.0
C230 C 0.22722 0.20216 0.16891 0.0
C231 C 0.25363 0.22649 0.1945 0.0
C232 C 0.23291 0.27656 0.20547 0.0
H233 H 0.24684 0.29684 0.30486 0.0
H234 H 0.23564 0.28626 0.26683 0.0
H235 H 0.22216 0.29881 0.22954 0.0
H236 H 0.20789 0.21799 0.14539 0.0
H237 H 0.22392 0.25513 0.16032 0.0
H238 H 0.28862 0.26598 0.20143 0.0
C239 C 0.24968 0.29951 0.27115 0.0
C240 C 0.2369 0.29245 0.22289 0.0
C241 C 0.25616 0.30545 0.29291 0.0
C242 C 0.22107 0.2202 0.15878 0.0
C243 C 0.23016 0.24137 0.16731 0.0
C244 C 0.27415 0.27376 0.20681 0.0
C245 C 0.26266 0.309 0.25526 0.0
C246 C 0.2594 0.29836 0.23304 0.0
C247 C 0.24598 0.24465 0.18566 0.0
C248 C 0.25133 0.26615 0.19818 0.0
H249 H 0.30216 0.34445 0.28786 0.0
H250 H 0.29135 0.33333 0.2495 0.0
H251 H 0.29569 0.29404 0.23165 0.0
H252 H 0.24906 0.19174 0.19443 0.0
H253 H 0.26555 0.22852 0.20883 0.0
C254 C 0.67649 0.25349 0.292 0.0
C255 C 0.67491 0.27433 0.30172 0.0
C256 C 0.69311 0.25058 0.27727 0.0
C257 C 0.75051 0.27568 0.26417 0.0
H258 H 0.73999 0.23086 0.21645 0.0
C259 C 0.80309 0.22723 0.19681 0.0
C260 C 0.82119 0.22221 0.21082 0.0
C261 C 0.78573 0.23849 0.20478 0.0
C262 C 0.74319 0.24374 0.22944 0.0
H263 H 0.68877 0.30864 0.30285 0.0
H264 H 0.7177 0.30354 0.277 0.0
H265 H 0.70707 0.24092 0.23527 0.0
H266 H 0.83619 0.22644 0.24387 0.0
H267 H 0.80597 0.24587 0.25774 0.0
H268 H 0.78668 0.27821 0.25858 0.0
C269 C 0.70629 0.28942 0.281 0.0
C270 C 0.72434 0.24931 0.24039 0.0
C271 C 0.68965 0.29233 0.29573 0.0
C272 C 0.82244 0.22997 0.23266 0.0
C273 C 0.80515 0.24125 0.2406 0.0
C274 C 0.76936 0.27011 0.25321 0.0
C275 C 0.7085 0.26846 0.27192 0.0
C276 C 0.72787 0.26488 0.25828 0.0
C277 C 0.78621 0.24504 0.22689 0.0
C278 C 0.766 0.25363 0.23612 0.0
H279 H 0.66539 0.23929 0.29625 0.0
H280 H 0.69453 0.23417 0.27078 0.0
H281 H 0.75387 0.28766 0.27795 0.0
H282 H 0.8017 0.22156 0.17987 0.0
H283 H 0.77153 0.24145 0.19376 0.0
C284 C 0.77962 0.79885 0.18482 0.0
C285 C 0.79217 0.81382 0.20086 0.0
C286 C 0.77266 0.77724 0.18911 0.0
C287 C 0.78676 0.73666 0.22619 0.0
H288 H 0.72146 0.71258 0.21727 0.0
C289 C 0.73983 0.68417 0.28389 0.0
C290 C 0.72133 0.66789 0.27649 0.0
C291 C 0.75193 0.69635 0.26939 0.0
C292 C 0.73988 0.71872 0.21932 0.0
H293 H 0.80703 0.81795 0.23399 0.0
H294 H 0.7949 0.78056 0.24139 0.0
H295 H 0.73547 0.74607 0.20131 0.0
H296 H 0.70172 0.65057 0.24818 0.0
H297 H 0.7227 0.6724 0.22259 0.0
H298 H 0.79094 0.71009 0.24524 0.0
C299 C 0.79068 0.78535 0.22544 0.0
C300 C 0.74787 0.73794 0.21024 0.0
C301 C 0.79739 0.80687 0.22126 0.0
C302 C 0.71604 0.66301 0.25423 0.0
C303 C 0.72791 0.67553 0.23964 0.0
C304 C 0.77881 0.71749 0.23522 0.0
C305 C 0.77845 0.77026 0.20939 0.0
C306 C 0.77114 0.74763 0.21452 0.0
C307 C 0.74553 0.69273 0.24718 0.0
C308 C 0.75508 0.70894 0.23276 0.0
H309 H 0.7754 0.80374 0.16892 0.0
H310 H 0.76312 0.76593 0.1765 0.0
H311 H 0.80491 0.74357 0.22933 0.0
H312 H 0.74426 0.68819 0.30099 0.0
H313 H 0.76521 0.70964 0.27573 0.0
C314 C 0.30011 0.69874 0.28218 0.0
C315 C 0.30679 0.7041 0.30419 0.0
C316 C 0.28416 0.70987 0.27149 0.0
C317 C 0.23796 0.74405 0.27973 0.0
H318 H 0.25281 0.76277 0.22384 0.0
C319 C 0.1886 0.80492 0.23641 0.0
C320 C 0.18447 0.8016 0.21389 0.0
C321 C 0.2023 0.79199 0.24753 0.0
C322 C 0.24821 0.75738 0.23927 0.0
H323 H 0.30163 0.72505 0.33238 0.0
H324 H 0.27368 0.74462 0.3136 0.0
H325 H 0.27906 0.74238 0.24333 0.0
H326 H 0.19095 0.7817 0.18543 0.0
H327 H 0.21463 0.75886 0.2049 0.0
H328 H 0.20707 0.75908 0.27565 0.0
C329 C 0.28076 0.73169 0.30469 0.0
C330 C 0.26329 0.74575 0.25047 0.0
C331 C 0.29682 0.72056 0.31541 0.0
C332 C 0.19391 0.78474 0.20277 0.0
C333 C 0.20758 0.77174 0.21391 0.0
C334 C 0.2228 0.75564 0.26848 0.0
C335 C 0.27448 0.7266 0.28256 0.0
C336 C 0.25834 0.73897 0.27081 0.0
C337 C 0.21215 0.77539 0.2364 0.0
C338 C 0.22779 0.76247 0.24813 0.0
H339 H 0.30736 0.68606 0.27307 0.0
H340 H 0.27939 0.70535 0.25452 0.0
H341 H 0.23357 0.73881 0.29527 0.0
H342 H 0.18161 0.81781 0.24547 0.0
H343 H 0.20571 0.79541 0.26481 0.0
C344 C 0.30127 0.72931 0.6981 0.0
C345 C 0.31989 0.72457 0.71165 0.0
C346 C 0.28337 0.73936 0.70671 0.0
C347 C 0.26637 0.76857 0.75617 0.0
H348 H 0.20477 0.73759 0.73852 0.0
C349 C 0.17415 0.74867 0.79563 0.0
C350 C 0.17204 0.76931 0.80554 0.0
C351 C 0.19078 0.74634 0.78076 0.0
C352 C 0.22184 0.74645 0.74357 0.0
H353 H 0.33519 0.72801 0.74458 0.0
H354 H 0.30408 0.74542 0.75955 0.0
H355 H 0.23792 0.7292 0.71903 0.0
H356 H 0.18491 0.80386 0.80681 0.0
H357 H 0.21379 0.79978 0.78074 0.0
H358 H 0.25053 0.78499 0.78143 0.0
C359 C 0.30324 0.74148 0.74229 0.0
C360 C 0.2408 0.74185 0.73224 0.0
C361 C 0.32104 0.73136 0.73372 0.0
C362 C 0.18622 0.78769 0.79959 0.0
C363 C 0.20284 0.78536 0.78472 0.0
C364 C 0.24742 0.7732 0.76748 0.0
C365 C 0.28386 0.74499 0.729 0.0
C366 C 0.26337 0.75244 0.73879 0.0
C367 C 0.20563 0.76462 0.77546 0.0
C368 C 0.22504 0.76177 0.76166 0.0
H369 H 0.29992 0.72432 0.68101 0.0
H370 H 0.26879 0.74212 0.69604 0.0
H371 H 0.28351 0.77717 0.76146 0.0
H372 H 0.16348 0.73419 0.79986 0.0
H373 H 0.19265 0.7301 0.77412 0.0
C374 C 0.21724 0.16357 0.75215 0.0
C375 C 0.2217 0.16839 0.7745 0.0
C376 C 0.2288 0.17688 0.73798 0.0
C377 C 0.27799 0.22101 0.73522 0.0
H378 H 0.23415 0.24782 0.70003 0.0
C379 C 0.29349 0.3106 0.72156 0.0
C380 C 0.28957 0.31714 0.70077 0.0
C381 C 0.28691 0.28907 0.72579 0.0
C382 C 0.24669 0.24021 0.70936 0.0
H383 H 0.24282 0.18952 0.79963 0.0
H384 H 0.26328 0.21232 0.77512 0.0
H385 H 0.22107 0.21375 0.71549 0.0
H386 H 0.27496 0.30636 0.66822 0.0
H387 H 0.26288 0.26854 0.67588 0.0
H388 H 0.30322 0.24816 0.73025 0.0
C389 C 0.25088 0.19848 0.76838 0.0
C390 C 0.23925 0.22067 0.71814 0.0
C391 C 0.23907 0.18552 0.78244 0.0
C392 C 0.27819 0.30179 0.68442 0.0
C393 C 0.27135 0.28018 0.68875 0.0
C394 C 0.28537 0.24051 0.72653 0.0
C395 C 0.24531 0.1948 0.74604 0.0
C396 C 0.25458 0.21148 0.73199 0.0
C397 C 0.2761 0.27358 0.70939 0.0
C398 C 0.26952 0.2508 0.71439 0.0
H399 H 0.20377 0.15048 0.7457 0.0
H400 H 0.22423 0.1737 0.72082 0.0
H401 H 0.29023 0.21409 0.74559 0.0
H402 H 0.30217 0.32198 0.73454 0.0
H403 H 0.29029 0.28453 0.74198 0.0
C404 C 0.79896 0.22186 0.81838 0.0
C405 C 0.81072 0.20734 0.80635 0.0
C406 C 0.78225 0.23265 0.80818 0.0
C407 C 0.74406 0.23017 0.7579 0.0
H408 H 0.74455 0.29184 0.77354 0.0
C409 C 0.69593 0.28549 0.70562 0.0
C410 C 0.68477 0.30137 0.7164 0.0
C411 C 0.70982 0.27302 0.71724 0.0
C412 C 0.74398 0.27455 0.76918 0.0
H413 H 0.81412 0.19268 0.77422 0.0
H414 H 0.7853 0.21164 0.7565 0.0
H415 H 0.77147 0.27199 0.79298 0.0
H416 H 0.6789 0.31622 0.74784 0.0
H417 H 0.70294 0.29438 0.76802 0.0
H418 H 0.71678 0.23283 0.73389 0.0
C419 C 0.78868 0.21448 0.77382 0.0
C420 C 0.75938 0.26318 0.78034 0.0
C421 C 0.80534 0.20373 0.78398 0.0
C422 C 0.68736 0.3042 0.73902 0.0
C423 C 0.70124 0.29178 0.75061 0.0
C424 C 0.72868 0.24155 0.74672 0.0
C425 C 0.77697 0.22909 0.78577 0.0
C426 C 0.75973 0.2409 0.77471 0.0
C427 C 0.71284 0.27623 0.73985 0.0
C428 C 0.72858 0.2639 0.75215 0.0
H429 H 0.80268 0.22493 0.83566 0.0
H430 H 0.77335 0.24367 0.81786 0.0
H431 H 0.74366 0.21292 0.7534 0.0
H432 H 0.69428 0.28295 0.6882 0.0
H433 H 0.71871 0.2613 0.70848 0.0
C434 C 0.78829 0.83317 0.78483 0.0
C435 C 0.77612 0.82268 0.80066 0.0
C436 C 0.78246 0.82649 0.76298 0.0
C437 C 0.77973 0.7899 0.7261 0.0
H438 H 0.71683 0.77117 0.70073 0.0
C439 C 0.74521 0.70516 0.68965 0.0
C440 C 0.72829 0.70168 0.67222 0.0
C441 C 0.75495 0.72626 0.69738 0.0
C442 C 0.73459 0.77675 0.70714 0.0
H443 H 0.7472 0.79858 0.80634 0.0
H444 H 0.7365 0.78746 0.76834 0.0
H445 H 0.72378 0.79955 0.73065 0.0
H446 H 0.7092 0.71721 0.64827 0.0
H447 H 0.72564 0.75447 0.66246 0.0
H448 H 0.79018 0.7655 0.70407 0.0
C449 C 0.75063 0.80063 0.77264 0.0
C450 C 0.73852 0.79291 0.72432 0.0
C451 C 0.75682 0.80688 0.79439 0.0
C452 C 0.72239 0.71955 0.66166 0.0
C453 C 0.73171 0.7408 0.66977 0.0
C454 C 0.77574 0.77352 0.70911 0.0
C455 C 0.76398 0.80971 0.75677 0.0
C456 C 0.76093 0.79874 0.73469 0.0
C457 C 0.74751 0.74431 0.68814 0.0
C458 C 0.75296 0.766 0.7003 0.0
H459 H 0.80337 0.8453 0.78935 0.0
H460 H 0.79307 0.83363 0.75103 0.0
H461 H 0.79716 0.79401 0.73388 0.0
H462 H 0.74999 0.69159 0.69804 0.0
H463 H 0.76686 0.72847 0.71173 0.0
C464 C 0.20692 0.14403 0.88846 0.0
C465 C 0.19222 0.12573 0.87834 0.0
C466 C 0.21208 0.14603 0.91077 0.0
C467 C 0.20937 0.11484 0.95905 0.0
H468 H 0.19902 0.16948 0.9888 0.0
C469 C 0.17753 0.11985 0.04315 0.0
C470 C 0.18761 0.13684 0.05843 0.0
C471 C 0.1832 0.11962 0.02185 0.0
C472 C 0.20244 0.15429 0.98074 0.0
H473 H 0.17228 0.09476 0.88361 0.0
H474 H 0.18111 0.09832 0.92237 0.0
H475 H 0.20047 0.16657 0.94969 0.0
H476 H 0.21143 0.16709 0.0633 0.0
H477 H 0.22107 0.16688 0.02558 0.0
H478 H 0.21023 0.10228 0.98998 0.0
C479 C 0.18883 0.11106 0.91311 0.0
C480 C 0.2033 0.1526 0.95836 0.0
C481 C 0.18361 0.10909 0.89087 0.0
C482 C 0.20338 0.15379 0.05186 0.0
C483 C 0.20889 0.15368 0.03034 0.0
C484 C 0.20843 0.11651 0.98136 0.0
C485 C 0.20277 0.12971 0.92337 0.0
C486 C 0.20597 0.13263 0.94723 0.0
C487 C 0.19898 0.13645 0.01522 0.0
C488 C 0.20415 0.13601 0.99232 0.0
H489 H 0.2139 0.15712 0.87925 0.0
H490 H 0.22305 0.1605 0.91821 0.0
H491 H 0.21195 0.09938 0.95097 0.0
H492 H 0.16533 0.10652 0.04765 0.0
H493 H 0.17495 0.10635 0.01046 0.0
C494 C 0.83212 0.20965 0.93114 0.0
C495 C 0.85517 0.20612 0.92836 0.0
C496 C 0.82494 0.21379 0.95187 0.0
C497 C 0.84664 0.2274 0.00951 0.0
H498 H 0.79419 0.18547 0.0208 0.0
C499 C 0.82289 0.17086 0.08004 0.0
C500 C 0.82808 0.18568 0.09841 0.0
C501 C 0.82003 0.17828 0.05967 0.0
C502 C 0.80869 0.19748 0.0179 0.0
H503 H 0.88914 0.20579 0.94482 0.0
H504 H 0.87677 0.2131 0.98072 0.0
H505 H 0.80222 0.19132 0.98371 0.0
H506 H 0.83308 0.2199 0.11001 0.0
H507 H 0.82835 0.23296 0.07414 0.0
H508 H 0.85407 0.23243 0.04368 0.0
C509 C 0.86416 0.21269 0.96707 0.0
C510 C 0.81317 0.20099 0.99664 0.0
C511 C 0.87123 0.20831 0.94647 0.0
C512 C 0.82908 0.2081 0.09611 0.0
C513 C 0.82648 0.21557 0.0756 0.0
C514 C 0.84212 0.22394 0.03077 0.0
C515 C 0.84079 0.21481 0.97009 0.0
C516 C 0.83281 0.21526 0.99222 0.0
C517 C 0.82249 0.20072 0.05712 0.0
C518 C 0.82371 0.20821 0.03516 0.0
H519 H 0.81937 0.20805 0.91745 0.0
H520 H 0.80684 0.21547 0.95371 0.0
H521 H 0.86174 0.23871 0.00659 0.0
H522 H 0.82191 0.15348 0.08131 0.0
H523 H 0.81726 0.16639 0.04579 0.0
C524 C 0.77274 0.85925 0.93278 0.0
C525 C 0.7746 0.84071 0.91901 0.0
C526 C 0.7644 0.85714 0.95302 0.0
C527 C 0.76529 0.82034 0.99496 0.0
H528 H 0.73464 0.86433 0.02465 0.0
C529 C 0.77494 0.83674 0.08767 0.0
C530 C 0.7843 0.85861 0.09349 0.0
C531 C 0.76499 0.83029 0.06669 0.0
C532 C 0.74293 0.85172 0.01656 0.0
H533 H 0.76778 0.8054 0.91509 0.0
H534 H 0.75341 0.8017 0.9508 0.0
H535 H 0.73202 0.86032 0.98534 0.0
H536 H 0.78931 0.89105 0.08255 0.0
H537 H 0.77187 0.87995 0.04634 0.0
H538 H 0.77744 0.8127 0.02621 0.0
C539 C 0.75844 0.81786 0.94584 0.0
C540 C 0.74147 0.84944 0.99409 0.0
C541 C 0.76658 0.81999 0.92539 0.0
C542 C 0.78241 0.87405 0.07846 0.0
C543 C 0.77216 0.86772 0.05777 0.0
C544 C 0.76671 0.82259 0.01748 0.0
C545 C 0.75787 0.83642 0.96007 0.0
C546 C 0.7537 0.83455 0.98309 0.0
C547 C 0.7638 0.84573 0.05148 0.0
C548 C 0.7566 0.8391 0.02845 0.0
H549 H 0.77861 0.87544 0.92826 0.0
H550 H 0.76448 0.87178 0.96366 0.0
H551 H 0.775 0.80877 0.98699 0.0
H552 H 0.77619 0.82452 0.09899 0.0
H553 H 0.75871 0.81322 0.06222 0.0
C554 C 0.1456 0.79532 0.07587 0.0
C555 C 0.16296 0.80335 0.09228 0.0
C556 C 0.15155 0.78669 0.05604 0.0
C557 C 0.19091 0.79964 0.01888 0.0
H558 H 0.16848 0.74373 0.98744 0.0
C559 C 0.18812 0.79255 0.92704 0.0
C560 C 0.1681 0.78019 0.91637 0.0
C561 C 0.19407 0.79036 0.94875 0.0
C562 C 0.17475 0.75951 0.99587 0.0
H563 H 0.20002 0.80819 0.10133 0.0
H564 H 0.21062 0.79401 0.06592 0.0
H565 H 0.16568 0.74839 0.02634 0.0
H566 H 0.13919 0.75512 0.91961 0.0
H567 H 0.14847 0.75225 0.95756 0.0
H568 H 0.19767 0.81175 0.98869 0.0
C569 C 0.1924 0.79376 0.06878 0.0
C570 C 0.17343 0.76201 0.0182 0.0
C571 C 0.18636 0.8018 0.08893 0.0
C572 C 0.15483 0.76476 0.92743 0.0
C573 C 0.16033 0.76305 0.94929 0.0
C574 C 0.19164 0.79736 0.99654 0.0
C575 C 0.17502 0.78655 0.0521 0.0
C576 C 0.18099 0.78224 0.02974 0.0
C577 C 0.17963 0.77634 0.9605 0.0
C578 C 0.18287 0.77745 0.98455 0.0
H579 H 0.12746 0.7965 0.07813 0.0
H580 H 0.13792 0.78149 0.04329 0.0
H581 H 0.19651 0.81549 0.02748 0.0
H582 H 0.19881 0.80438 0.91876 0.0
H583 H 0.20953 0.80033 0.95646 0.0
C584 C 0.1082 0.15821 0.16953 0.0
C585 C 0.11407 0.15059 0.14908 0.0
C586 C 0.08534 0.1617 0.1728 0.0
C587 C 0.02496 0.14549 0.14958 0.0
H588 H 0.01208 0.19754 0.18239 0.0
C589 C 0.93283 0.16852 0.14844 0.0
C590 C 0.92481 0.17558 0.16817 0.0
C591 C 0.95628 0.16651 0.14687 0.0
C592 C 0.01542 0.18282 0.17338 0.0
H593 H 0.10052 0.14085 0.11601 0.0
H594 H 0.06088 0.14703 0.12172 0.0
H595 H 0.05244 0.19161 0.17854 0.0
H596 H 0.93535 0.18676 0.2016 0.0
H597 H 0.97643 0.18305 0.19886 0.0
H598 H 0.9881 0.13663 0.14436 0.0
C599 C 0.07384 0.15006 0.13529 0.0
C600 C 0.03851 0.17942 0.1712 0.0
C601 C 0.09662 0.14663 0.132 0.0
C602 C 0.94097 0.18128 0.18616 0.0
C603 C 0.96451 0.17922 0.18458 0.0
C604 C 0.00196 0.14887 0.15177 0.0
C605 C 0.0679 0.15755 0.15572 0.0
C606 C 0.0435 0.16082 0.15905 0.0
C607 C 0.97232 0.17142 0.165 0.0
C608 C 0.9969 0.16769 0.16346 0.0
H609 H 0.12122 0.16145 0.18303 0.0
H610 H 0.08125 0.16733 0.18877 0.0
H611 H 0.02823 0.13077 0.14051 0.0
H612 H 0.92092 0.16419 0.13421 0.0
H613 H 0.96183 0.16092 0.13144 0.0
C614 C 0.78956 0.94532 0.1705 0.0
C615 C 0.79735 0.93311 0.18685 0.0
C616 C 0.78632 0.96697 0.17514 0.0
C617 C 0.81055 0.01361 0.21188 0.0
H618 H 0.76423 0.04167 0.18122 0.0
C619 C 0.82224 0.10665 0.20938 0.0
C620 C 0.81951 0.11329 0.18845 0.0
C621 C 0.81403 0.08531 0.21358 0.0
C622 C 0.77725 0.03408 0.18996 0.0
H623 H 0.80657 0.93365 0.22112 0.0
H624 H 0.8011 0.97174 0.22922 0.0
H625 H 0.75916 0.002 0.1809 0.0
H626 H 0.80482 0.10306 0.15581 0.0
H627 H 0.79089 0.06595 0.16303 0.0
H628 H 0.82932 0.04549 0.21996 0.0
C629 C 0.79758 0.96447 0.2128 0.0
C630 C 0.77432 0.01139 0.18982 0.0
C631 C 0.80062 0.94267 0.20817 0.0
C632 C 0.80732 0.09849 0.1721 0.0
C633 C 0.79913 0.07721 0.1763 0.0
C634 C 0.81353 0.03629 0.21197 0.0
C635 C 0.79093 0.97698 0.19622 0.0
C636 C 0.79137 0.00089 0.20012 0.0
C637 C 0.80288 0.0702 0.19695 0.0
C638 C 0.79735 0.04673 0.20034 0.0
H639 H 0.78672 0.93839 0.15392 0.0
H640 H 0.78144 0.9762 0.16196 0.0
H641 H 0.82412 0.00601 0.2198 0.0
H642 H 0.8314 0.11769 0.22239 0.0
H643 H 0.81694 0.08049 0.22972 0.0
C644 C 0.89898 0.86477 0.14772 0.0
C645 C 0.88902 0.86765 0.16747 0.0
C646 C 0.92185 0.8602 0.14719 0.0
C647 C 0.96761 0.83874 0.17996 0.0
H648 H 0.00847 0.86513 0.13975 0.0
C649 C 0.06711 0.83664 0.18447 0.0
C650 C 0.07749 0.83398 0.1649 0.0
C651 C 0.04351 0.83893 0.18455 0.0
C652 C 0.99717 0.8574 0.15088 0.0
H653 H 0.89552 0.86854 0.20218 0.0
H654 H 0.9355 0.861 0.20124 0.0
H655 H 0.9688 0.87369 0.14041 0.0
H656 H 0.07089 0.83055 0.13009 0.0
H657 H 0.02977 0.83442 0.1303 0.0
H658 H 0.99618 0.82269 0.1906 0.0
C659 C 0.92548 0.86181 0.18614 0.0
C660 C 0.97444 0.86232 0.15126 0.0
C661 C 0.90261 0.86631 0.18668 0.0
C662 C 0.06352 0.83273 0.14546 0.0
C663 C 0.03998 0.83508 0.14555 0.0
C664 C 0.99039 0.83389 0.17962 0.0
C665 C 0.93529 0.85848 0.16639 0.0
C666 C 0.95941 0.8531 0.16584 0.0
C667 C 0.02984 0.83867 0.16508 0.0
C668 C 0.00541 0.84319 0.16509 0.0
H669 H 0.88896 0.8656 0.13262 0.0
H670 H 0.9288 0.85752 0.13169 0.0
H671 H 0.95635 0.83106 0.19113 0.0
H672 H 0.07736 0.83766 0.19973 0.0
H673 H 0.03621 0.84178 0.19986 0.0
C674 C 0.21067 0.07665 0.1709 0.0
C675 C 0.20409 0.08149 0.14994 0.0
C676 C 0.21482 0.05558 0.17481 0.0
C677 C 0.22441 0.00236 0.14794 0.0
H678 H 0.18824 0.97792 0.19243 0.0
C679 C 0.18674 0.91208 0.14473 0.0
C680 C 0.18421 0.90204 0.16399 0.0
C681 C 0.19555 0.93415 0.14519 0.0
C682 C 0.1989 0.98451 0.18026 0.0
H683 H 0.19808 0.0684 0.11649 0.0
H684 H 0.20516 0.03183 0.12331 0.0
H685 H 0.1929 0.01702 0.18952 0.0
H686 H 0.1902 0.90702 0.19881 0.0
H687 H 0.20572 0.94554 0.19956 0.0
H688 H 0.22962 0.96969 0.13816 0.0
C689 C 0.20724 0.04424 0.13673 0.0
C690 C 0.20158 0.00697 0.1786 0.0
C691 C 0.20295 0.06518 0.13286 0.0
C692 C 0.19172 0.9143 0.18368 0.0
C693 C 0.20055 0.93639 0.18413 0.0
C694 C 0.22177 0.9799 0.14962 0.0
C695 C 0.21268 0.03906 0.1578 0.0
C696 C 0.2137 0.01603 0.16198 0.0
C697 C 0.20208 0.94667 0.16491 0.0
C698 C 0.20833 0.97066 0.16535 0.0
H699 H 0.21179 0.0889 0.18439 0.0
H700 H 0.21916 0.05208 0.19119 0.0
H701 H 0.23417 0.00896 0.13518 0.0
H702 H 0.1812 0.90311 0.12928 0.0
H703 H 0.19621 0.9416 0.1301 0.0
C704 C 0.88181 0.80683 0.85748 0.0
C705 C 0.8784 0.82769 0.86601 0.0
C706 C 0.90429 0.80114 0.85693 0.0
C707 C 0.96419 0.8168 0.88186 0.0
H708 H 0.98302 0.78913 0.82927 0.0
C709 C 0.06019 0.81782 0.86634 0.0
C710 C 0.06741 0.79872 0.85712 0.0
C711 C 0.0366 0.81935 0.86759 0.0
C712 C 0.97793 0.79656 0.84417 0.0
H713 H 0.89596 0.85885 0.88081 0.0
H714 H 0.93495 0.84896 0.8798 0.0
H715 H 0.94247 0.79513 0.83159 0.0
H716 H 0.05537 0.76632 0.84164 0.0
H717 H 0.01396 0.76904 0.84389 0.0
H718 H -0.00041 0.81855 0.89437 0.0
C719 C 0.92029 0.83691 0.87371 0.0
C720 C 0.95473 0.79999 0.8455 0.0
C721 C 0.89791 0.84262 0.87417 0.0
C722 C 0.0504 0.78127 0.84884 0.0
C723 C 0.02669 0.78284 0.85007 0.0
C724 C 0.98731 0.81337 0.88054 0.0
C725 C 0.92376 0.81615 0.86505 0.0
C726 C 0.94774 0.81055 0.86423 0.0
C727 C 0.01957 0.80183 0.85967 0.0
C728 C 0.99455 0.80363 0.86154 0.0
H729 H 0.86715 0.79495 0.85105 0.0
H730 H 0.90644 0.78497 0.85029 0.0
H731 H 0.95923 0.82457 0.89666 0.0
H732 H 0.07277 0.83165 0.87276 0.0
H733 H 0.03168 0.83438 0.87468 0.0
C734 C 0.16607 0.875 0.8238 0.0
C735 C 0.16449 0.87294 0.84594 0.0
C736 C 0.16795 0.89559 0.81586 0.0
C737 C 0.17941 0.94345 0.8049 0.0
H738 H 0.13671 0.97885 0.83074 0.0
C739 C 0.17838 0.03612 0.7964 0.0
C740 C 0.15677 0.04377 0.79754 0.0
C741 C 0.17994 0.01394 0.79773 0.0
C742 C 0.1485 0.96911 0.82309 0.0
H743 H 0.16563 0.89087 0.87729 0.0
H744 H 0.16926 0.92663 0.86354 0.0
H745 H 0.14006 0.94336 0.84309 0.0
H746 H 0.11964 0.03418 0.7984 0.0
H747 H 0.12221 0.99554 0.7999 0.0
H748 H 0.18768 0.96951 0.78479 0.0
C749 C 0.16845 0.91237 0.85223 0.0
C750 C 0.15071 0.94887 0.83046 0.0
C751 C 0.16648 0.89188 0.86011 0.0
C752 C 0.13655 0.02872 0.79778 0.0
C753 C 0.13806 0.00662 0.79879 0.0
C754 C 0.17726 0.96391 0.79754 0.0
C755 C 0.16831 0.91441 0.82997 0.0
C756 C 0.16631 0.93587 0.82163 0.0
C757 C 0.15987 -0.00084 0.80001 0.0
C758 C 0.16173 0.97694 0.80658 0.0
H759 H 0.16462 0.86067 0.81248 0.0
H760 H 0.1678 0.89665 0.79863 0.0
H761 H 0.19156 0.93375 0.79779 0.0
H762 H 0.19424 0.04744 0.79629 0.0
H763 H 0.197 0.0087 0.79861 0.0
C764 C 0.0851 0.13512 0.8046 0.0
C765 C 0.10626 0.14893 0.80418 0.0
C766 C 0.06435 0.14381 0.80664 0.0
C767 C 0.03107 0.16826 0.83097 0.0
H768 H 0.00648 0.21051 0.79646 0.0
C769 C 0.94992 0.2031 0.8542 0.0
C770 C 0.93179 0.19923 0.83773 0.0
C771 C 0.97292 0.20219 0.84943 0.0
C772 C 0.01329 0.19884 0.80628 0.0
H773 H 0.12193 0.18264 0.80391 0.0
H774 H 0.0854 0.19776 0.80721 0.0
H775 H 0.04299 0.19703 0.78777 0.0
H776 H 0.92392 0.19376 0.80311 0.0
H777 H 0.96412 0.19214 0.79486 0.0
H778 H 0.00157 0.16971 0.84936 0.0
C779 C 0.08507 0.18024 0.80615 0.0
C780 C 0.0341 0.19118 0.80133 0.0
C781 C 0.10594 0.17156 0.80433 0.0
C782 C 0.93744 0.19661 0.81621 0.0
C783 C 0.96049 0.19577 0.81144 0.0
C784 C 0.01058 0.1761 0.83608 0.0
C785 C 0.06426 0.16645 0.80805 0.0
C786 C 0.04289 0.17552 0.81344 0.0
C787 C 0.97826 0.19751 0.82811 0.0
C788 C 0.00132 0.19127 0.82367 0.0
H789 H 0.08466 0.11763 0.80439 0.0
H790 H 0.04843 0.13284 0.80778 0.0
H791 H 0.03766 0.1564 0.84071 0.0
H792 H 0.94625 0.20545 0.87094 0.0
H793 H 0.98638 0.20396 0.86256 0.0
C794 C 0.84089 0.94389 0.87918 0.0
C795 C 0.82856 0.92847 0.86347 0.0
C796 C 0.84313 0.96605 0.87631 0.0
C797 C 0.81682 0.00691 0.84701 0.0
H798 H 0.87572 0.04259 0.86581 0.0
C799 C 0.83678 0.09959 0.83633 0.0
C800 C 0.84838 0.11268 0.85424 0.0
C801 C 0.83361 0.07687 0.83617 0.0
C802 C 0.85912 0.03286 0.86063 0.0
H803 H 0.80885 0.92421 0.83236 0.0
H804 H 0.81298 0.96319 0.8272 0.0
H805 H 0.87211 0.00325 0.86704 0.0
H806 H 0.86521 0.11213 0.88624 0.0
H807 H 0.85965 0.07259 0.88593 0.0
H808 H 0.80392 0.03673 0.84063 0.0
C809 C 0.82073 0.95802 0.84185 0.0
C810 C 0.85704 0.01033 0.86132 0.0
C811 C 0.81846 0.93572 0.84475 0.0
C812 C 0.85628 0.10257 0.87215 0.0
C813 C 0.85324 0.0799 0.87192 0.0
C814 C 0.81895 0.02953 0.84621 0.0
C815 C 0.83318 0.97341 0.8576 0.0
C816 C 0.83576 0.99712 0.85492 0.0
C817 C 0.84213 0.06681 0.85385 0.0
C818 C 0.84002 0.04274 0.8534 0.0
H819 H 0.84877 0.9389 0.89387 0.0
H820 H 0.85242 0.97747 0.88896 0.0
H821 H 0.80015 0.99719 0.84211 0.0
H822 H 0.83044 0.10686 0.82228 0.0
H823 H 0.82505 0.06717 0.82199 0.0
C824 C 0.66994 0.6104 0.39119 0.0
C825 C 0.68302 0.62544 0.37953 0.0
C826 C 0.67382 0.61115 0.41354 0.0
C827 C 0.69539 0.64919 0.46045 0.0
H828 H 0.69126 0.59648 0.49017 0.0
C829 C 0.69964 0.64942 0.55385 0.0
C830 C 0.68246 0.63444 0.56149 0.0
C831 C 0.70319 0.64865 0.53185 0.0
C832 C 0.69241 0.61135 0.48208 0.0
H833 H 0.71097 0.65267 0.38214 0.0
H834 H 0.71773 0.65391 0.42122 0.0
H835 H 0.69162 0.59397 0.45105 0.0
H836 H 0.65538 0.6071 0.55204 0.0
H837 H 0.66144 0.60592 0.51398 0.0
H838 H 0.69555 0.6665 0.49151 0.0
C839 C 0.70434 0.64168 0.41304 0.0
C840 C 0.69261 0.6099 0.45971 0.0
C841 C 0.70052 0.64088 0.39065 0.0
C842 C 0.66884 0.61884 0.54674 0.0
C843 C 0.67243 0.61803 0.52491 0.0
C844 C 0.69518 0.65064 0.48288 0.0
C845 C 0.69084 0.62698 0.42474 0.0
C846 C 0.69352 0.62875 0.4486 0.0
C847 C 0.68973 0.63279 0.51721 0.0
C848 C 0.69307 0.63167 0.49385 0.0
H849 H 0.65634 0.5983 0.38313 0.0
H850 H 0.66294 0.59976 0.42213 0.0
H851 H 0.69592 0.664 0.45232 0.0
H852 H 0.71042 0.6616 0.56485 0.0
H853 H 0.71666 0.66023 0.52633 0.0
C854 C 0.33443 0.71652 0.59235 0.0
C855 C 0.33278 0.69418 0.59521 0.0
C856 C 0.33225 0.72351 0.57159 0.0
C857 C 0.34815 0.73 0.52632 0.0
H858 H 0.30695 0.6972 0.48024 0.0
C859 C 0.3758 0.71092 0.44191 0.0
C860 C 0.35946 0.70834 0.42397 0.0
C861 C 0.36917 0.71626 0.4625 0.0
C862 C 0.31829 0.70693 0.49287 0.0
H863 H 0.32595 0.66164 0.57887 0.0
H864 H 0.32191 0.67371 0.54293 0.0
H865 H 0.29903 0.69283 0.5176 0.0
H866 H 0.32367 0.71066 0.41335 0.0
H867 H 0.31196 0.71985 0.44954 0.0
H868 H 0.36803 0.74334 0.50158 0.0
C869 C 0.32491 0.68591 0.55654 0.0
C870 C 0.31386 0.70427 0.51429 0.0
C871 C 0.32742 0.67898 0.57715 0.0
C872 C 0.33663 0.71251 0.42688 0.0
C873 C 0.32991 0.71766 0.44759 0.0
C874 C 0.35264 0.73262 0.50488 0.0
C875 C 0.32795 0.70823 0.55344 0.0
C876 C 0.3293 0.71504 0.53123 0.0
C877 C 0.34598 0.719 0.46569 0.0
C878 C 0.33832 0.72039 0.48794 0.0
H879 H 0.33861 0.72859 0.60601 0.0
H880 H 0.33459 0.74082 0.56967 0.0
H881 H 0.36042 0.7385 0.53899 0.0
H882 H 0.39356 0.70793 0.44018 0.0
H883 H 0.38194 0.71691 0.47605 0.0
C884 C 0.26799 0.31646 0.42395 0.0
C885 C 0.27555 0.33733 0.41768 0.0
C886 C 0.25997 0.31403 0.4444 0.0
C887 C 0.24237 0.34494 0.49277 0.0
H888 H 0.27937 0.30893 0.52481 0.0
C889 C 0.28418 0.37043 0.57654 0.0
C890 C 0.28582 0.35528 0.5919 0.0
C891 C 0.27394 0.36381 0.55591 0.0
C892 C 0.26835 0.31859 0.51609 0.0
H893 H 0.27892 0.37199 0.42716 0.0
H894 H 0.26499 0.36781 0.46255 0.0
H895 H 0.27679 0.30499 0.48556 0.0
H896 H 0.27741 0.3214 0.59802 0.0
H897 H 0.26005 0.30953 0.56127 0.0
H898 H 0.23547 0.3597 0.52337 0.0
C899 C 0.26517 0.35328 0.45183 0.0
C900 C 0.26686 0.31634 0.49357 0.0
C901 C 0.27339 0.35569 0.43158 0.0
C902 C 0.27635 0.33338 0.58642 0.0
C903 C 0.26645 0.32662 0.56548 0.0
C904 C 0.24394 0.34723 0.51525 0.0
C905 C 0.25905 0.33243 0.45875 0.0
C906 C 0.25491 0.33034 0.48173 0.0
C907 C 0.26538 0.3418 0.55 0.0
C908 C 0.25797 0.3349 0.52708 0.0
H909 H 0.26943 0.30201 0.41354 0.0
H910 H 0.25527 0.29778 0.44928 0.0
H911 H 0.23264 0.35563 0.48406 0.0
H912 H 0.29118 0.38745 0.58037 0.0
H913 H 0.27373 0.37582 0.54424 0.0
C914 C 0.66251 0.26587 0.42059 0.0
C915 C 0.66875 0.28665 0.41352 0.0
C916 C 0.66621 0.26239 0.44233 0.0
C917 C 0.69396 0.28781 0.49559 0.0
H918 H 0.63541 0.26403 0.5166 0.0
C919 C 0.64021 0.30799 0.57081 0.0
C920 C 0.65599 0.30728 0.58867 0.0
C921 C 0.64427 0.29889 0.55057 0.0
C922 C 0.65201 0.27039 0.511 0.0
H923 H 0.68574 0.31949 0.4234 0.0
H924 H 0.69202 0.31349 0.46118 0.0
H925 H 0.6404 0.26024 0.47817 0.0
H926 H 0.68814 0.29604 0.59954 0.0
H927 H 0.69569 0.28054 0.56363 0.0
H928 H 0.70489 0.2992 0.52845 0.0
C929 C 0.68432 0.29983 0.45 0.0
C930 C 0.65497 0.26808 0.48898 0.0
C931 C 0.68053 0.30333 0.42831 0.0
C932 C 0.67568 0.29673 0.58601 0.0
C933 C 0.68002 0.28795 0.56553 0.0
C934 C 0.69103 0.29001 0.51767 0.0
C935 C 0.67636 0.27958 0.45741 0.0
C936 C 0.6756 0.27758 0.48092 0.0
C937 C 0.66441 0.28914 0.5476 0.0
C938 C 0.66964 0.28215 0.52543 0.0
H939 H 0.65355 0.25259 0.40959 0.0
H940 H 0.66017 0.24652 0.44752 0.0
H941 H 0.71016 0.29507 0.48987 0.0
H942 H 0.62483 0.31594 0.5724 0.0
H943 H 0.6321 0.30034 0.53702 0.0
C944 C 0.59755 0.64965 0.63658 0.0
C945 C 0.61465 0.65246 0.65395 0.0
C946 C 0.57501 0.65395 0.6396 0.0
C947 C 0.54018 0.68377 0.67567 0.0
H948 H 0.48897 0.6438 0.646 0.0
C949 C 0.44215 0.68809 0.68756 0.0
C950 C 0.42679 0.68379 0.66888 0.0
C951 C 0.46568 0.68561 0.68669 0.0
C952 C 0.50308 0.65525 0.65422 0.0
H953 H 0.62143 0.66219 0.68816 0.0
H954 H 0.58178 0.66954 0.69347 0.0
H955 H 0.5287 0.63627 0.64318 0.0
H956 H 0.4244 0.67472 0.63445 0.0
H957 H 0.46528 0.67064 0.63295 0.0
H958 H 0.51432 0.70273 0.68669 0.0
C959 C 0.586 0.66416 0.67747 0.0
C960 C 0.52585 0.65092 0.65262 0.0
C961 C 0.60866 0.65982 0.67444 0.0
C962 C 0.43566 0.67793 0.6492 0.0
C963 C 0.45909 0.67546 0.64834 0.0
C964 C 0.51729 0.6881 0.6773 0.0
C965 C 0.56891 0.66114 0.66008 0.0
C966 C 0.5447 0.66527 0.66305 0.0
C967 C 0.47424 0.67876 0.66714 0.0
C968 C 0.49854 0.67403 0.66631 0.0
H969 H 0.60155 0.64414 0.62054 0.0
H970 H 0.56237 0.65184 0.62579 0.0
H971 H 0.55436 0.69521 0.68378 0.0
H972 H 0.43588 0.69265 0.70298 0.0
H973 H 0.47695 0.68823 0.70146 0.0
C974 C 0.30719 0.60601 0.66368 0.0
C975 C 0.32132 0.61825 0.68069 0.0
C976 C 0.29932 0.58399 0.66504 0.0
C977 C 0.2935 0.5395 0.70156 0.0
H978 H 0.30519 0.50442 0.6504 0.0
C979 C 0.30423 0.44783 0.69938 0.0
C980 C 0.2977 0.43489 0.67993 0.0
C981 C 0.30205 0.47006 0.70086 0.0
C982 C 0.30129 0.51387 0.66468 0.0
H983 H 0.33699 0.61731 0.71306 0.0
H984 H 0.32354 0.57869 0.71527 0.0
H985 H 0.31023 0.5437 0.65054 0.0
H986 H 0.28174 0.43442 0.6475 0.0
H987 H 0.27717 0.47284 0.65029 0.0
H988 H 0.28506 0.5094 0.7158 0.0
C989 C 0.31839 0.5862 0.70095 0.0
C990 C 0.30423 0.53647 0.66476 0.0
C991 C 0.3262 0.60831 0.69964 0.0
C992 C 0.28729 0.44411 0.66258 0.0
C993 C 0.28479 0.46616 0.66416 0.0
C994 C 0.29046 0.51674 0.70146 0.0
C995 C 0.30549 0.57366 0.68338 0.0
C996 C 0.30054 0.54958 0.68321 0.0
C997 C 0.29306 0.47961 0.68298 0.0
C998 C 0.29449 0.50368 0.68303 0.0
H999 H 0.30282 0.61323 0.64897 0.0
H1000 H 0.28899 0.57485 0.65141 0.0
H1001 H 0.29043 0.5492 0.71598 0.0
H1002 H 0.31234 0.44113 0.713 0.0
H1003 H 0.30867 0.47995 0.71557 0.0
C1004 C 0.56236 0.33214 0.649 0.0
C1005 C 0.57691 0.33312 0.66806 0.0
C1006 C 0.53877 0.33405 0.64984 0.0
C1007 C 0.49893 0.35746 0.6853 0.0
H1008 H 0.45105 0.32534 0.64438 0.0
C1009 C 0.40139 0.36558 0.68895 0.0
C1010 C 0.38847 0.36652 0.66928 0.0
C1011 C 0.42418 0.36073 0.68929 0.0
C1012 C 0.46427 0.33457 0.65578 0.0
H1013 H 0.5778 0.33582 0.70297 0.0
H1014 H 0.5365 0.33891 0.70439 0.0
H1015 H 0.49083 0.31677 0.64448 0.0
H1016 H 0.38954 0.36342 0.63452 0.0
H1017 H 0.42944 0.35519 0.63515 0.0
H1018 H 0.47244 0.37539 0.69647 0.0
C1019 C 0.54349 0.33704 0.68881 0.0
C1020 C 0.48704 0.32963 0.65587 0.0
C1021 C 0.56711 0.33512 0.68798 0.0
C1022 C 0.39898 0.36281 0.64995 0.0
C1023 C 0.42178 0.35791 0.6503 0.0
C1024 C 0.47617 0.36238 0.68522 0.0
C1025 C 0.52917 0.33696 0.66974 0.0
C1026 C 0.50466 0.34114 0.67053 0.0
C1027 C 0.43457 0.35668 0.66997 0.0
C1028 C 0.45863 0.35111 0.67035 0.0
H1029 H 0.56931 0.33058 0.63338 0.0
H1030 H 0.52828 0.33411 0.63485 0.0
H1031 H 0.51217 0.36689 0.69654 0.0
H1032 H 0.39381 0.36829 0.70414 0.0
H1033 H 0.4335 0.3597 0.70469 0.0
C1034 C 0.70244 0.56497 0.63736 0.0
C1035 C 0.70339 0.58117 0.65451 0.0
C1036 C 0.70672 0.54401 0.64117 0.0
C1037 C 0.70069 0.50635 0.68265 0.0
H1038 H 0.72966 0.46968 0.64239 0.0
C1039 C 0.69099 0.41353 0.68669 0.0
C1040 C 0.68381 0.40151 0.66681 0.0
C1041 C 0.69981 0.43565 0.68751 0.0
C1042 C 0.72155 0.47972 0.6538 0.0
H1043 H 0.71065 0.58837 0.68903 0.0
H1044 H 0.71798 0.5515 0.69571 0.0
H1045 H 0.73403 0.50899 0.63976 0.0
H1046 H 0.68141 0.40307 0.63215 0.0
H1047 H 0.6964 0.44159 0.6336 0.0
H1048 H 0.68725 0.47708 0.69605 0.0
C1049 C 0.71382 0.55511 0.67933 0.0
C1050 C 0.72409 0.5022 0.65232 0.0
C1051 C 0.70971 0.5762 0.67549 0.0
C1052 C 0.68669 0.41184 0.64774 0.0
C1053 C 0.69549 0.43393 0.64857 0.0
C1054 C 0.69811 0.48387 0.6841 0.0
C1055 C 0.71194 0.5387 0.66223 0.0
C1056 C 0.71305 0.51566 0.66628 0.0
C1057 C 0.70167 0.44621 0.66847 0.0
C1058 C 0.70787 0.47023 0.66925 0.0
H1059 H 0.69777 0.56829 0.62098 0.0
H1060 H 0.70483 0.53168 0.62768 0.0
H1061 H 0.69177 0.51625 0.6935 0.0
H1062 H 0.68918 0.40603 0.70169 0.0
H1063 H 0.7047 0.44461 0.70308 0.0
C1064 C 0.39823 0.34153 0.37066 0.0
C1065 C 0.3788 0.32639 0.36275 0.0
C1066 C 0.4207 0.33613 0.36981 0.0
C1067 C 0.45541 0.29989 0.34103 0.0
H1068 H 0.50065 0.31931 0.38944 0.0
C1069 C 0.55237 0.28416 0.34383 0.0
C1070 C 0.56875 0.30225 0.35175 0.0
C1071 C 0.52849 0.28487 0.34506 0.0
C1072 C 0.48824 0.31386 0.37575 0.0
H1073 H 0.36778 0.29363 0.34773 0.0
H1074 H 0.40726 0.2842 0.34628 0.0
H1075 H 0.46007 0.32427 0.39229 0.0
H1076 H 0.57277 0.33545 0.36663 0.0
H1077 H 0.53143 0.33665 0.36862 0.0
H1078 H 0.48385 0.28981 0.3244 0.0
C1079 C 0.40497 0.30028 0.35305 0.0
C1080 C 0.46501 0.3167 0.37738 0.0
C1081 C 0.38239 0.30566 0.354 0.0
C1082 C 0.56072 0.32114 0.3605 0.0
C1083 C 0.53698 0.32181 0.36179 0.0
C1084 C 0.47875 0.29703 0.3394 0.0
C1085 C 0.42435 0.31548 0.361 0.0
C1086 C 0.44843 0.31022 0.35989 0.0
C1087 C 0.52061 0.30362 0.35435 0.0
C1088 C 0.49548 0.30448 0.35658 0.0
H1089 H 0.39615 0.35767 0.37745 0.0
H1090 H 0.43528 0.34834 0.37574 0.0
H1091 H 0.44304 0.29483 0.32724 0.0
H1092 H 0.55799 0.26936 0.33697 0.0
H1093 H 0.51624 0.2706 0.33921 0.0
C1094 C 0.66789 0.38139 0.32089 0.0
C1095 C 0.66484 0.37917 0.3428 0.0
C1096 C 0.66959 0.40198 0.31295 0.0
C1097 C 0.68066 0.45033 0.30288 0.0
H1098 H 0.63403 0.4835 0.32497 0.0
C1099 C 0.67805 0.5429 0.29564 0.0
C1100 C 0.65603 0.54993 0.29491 0.0
C1101 C 0.68 0.52077 0.29673 0.0
C1102 C 0.64695 0.47438 0.31836 0.0
H1103 H 0.66312 0.39688 0.37385 0.0
H1104 H 0.66634 0.43261 0.36011 0.0
H1105 H 0.63739 0.44798 0.33732 0.0
H1106 H 0.61882 0.53927 0.29221 0.0
H1107 H 0.62217 0.50075 0.29341 0.0
H1108 H 0.69015 0.47707 0.28389 0.0
C1109 C 0.66688 0.41847 0.34895 0.0
C1110 C 0.64912 0.45413 0.32572 0.0
C1111 C 0.66514 0.398 0.35683 0.0
C1112 C 0.63603 0.53432 0.29307 0.0
C1113 C 0.63795 0.51228 0.2939 0.0
C1114 C 0.67857 0.47081 0.29554 0.0
C1115 C 0.66826 0.42063 0.32683 0.0
C1116 C 0.66613 0.44196 0.31829 0.0
C1117 C 0.65993 0.50539 0.29693 0.0
C1118 C 0.66167 0.48306 0.30326 0.0
H1119 H 0.66776 0.36715 0.30968 0.0
H1120 H 0.67065 0.40316 0.29583 0.0
H1121 H 0.69391 0.44126 0.29686 0.0
H1122 H 0.69377 0.55461 0.29712 0.0
H1123 H 0.69718 0.51598 0.29906 0.0
C1124 C 0.58954 0.6477 0.28527 0.0
C1125 C 0.60751 0.65726 0.30054 0.0
C1126 C 0.56834 0.65598 0.28382 0.0
C1127 C 0.53744 0.70165 0.30547 0.0
H1128 H 0.48395 0.65657 0.29638 0.0
C1129 C 0.44766 0.70407 0.34027 0.0
C1130 C 0.42776 0.69545 0.32669 0.0
C1131 C 0.46989 0.70405 0.33296 0.0
C1132 C 0.49869 0.66942 0.2986 0.0
H1133 H 0.6178 0.68342 0.32573 0.0
H1134 H 0.58056 0.6971 0.32413 0.0
H1135 H 0.52241 0.6472 0.291 0.0
H1136 H 0.41555 0.6816 0.29428 0.0
H1137 H 0.45436 0.6812 0.28177 0.0
H1138 H 0.51334 0.72343 0.3147 0.0
C1139 C 0.58287 0.68373 0.31267 0.0
C1140 C 0.52083 0.66409 0.2954 0.0
C1141 C 0.60426 0.67578 0.31372 0.0
C1142 C 0.4305 0.68825 0.30521 0.0
C1143 C 0.4527 0.68797 0.29802 0.0
C1144 C 0.51524 0.70686 0.30912 0.0
C1145 C 0.56438 0.6736 0.29805 0.0
C1146 C 0.54061 0.68004 0.2991 0.0
C1147 C 0.47257 0.69519 0.31204 0.0
C1148 C 0.49574 0.69071 0.30595 0.0
H1149 H 0.59173 0.63357 0.2747 0.0
H1150 H 0.55485 0.64813 0.27188 0.0
H1151 H 0.55212 0.71449 0.30807 0.0
H1152 H 0.44614 0.70986 0.35686 0.0
H1153 H 0.48498 0.70962 0.3441 0.0
C1154 C 0.31695 0.43471 0.3461 0.0
C1155 C 0.32815 0.4269 0.36396 0.0
C1156 C 0.31895 0.45714 0.34393 0.0
C1157 C 0.35616 0.50902 0.36284 0.0
H1158 H 0.30191 0.53583 0.34614 0.0
C1159 C 0.3575 0.60177 0.37278 0.0
C1160 C 0.3476 0.61146 0.35546 0.0
C1161 C 0.35427 0.57915 0.37325 0.0
C1162 C 0.31726 0.52854 0.35062 0.0
H1163 H 0.35014 0.43648 0.39355 0.0
H1164 H 0.35341 0.4753 0.38985 0.0
H1165 H 0.29827 0.49628 0.34719 0.0
H1166 H 0.32595 0.60497 0.32536 0.0
H1167 H 0.3204 0.56546 0.3262 0.0
H1168 H 0.37513 0.54117 0.36643 0.0
C1169 C 0.34338 0.46421 0.37735 0.0
C1170 C 0.31518 0.5059 0.35117 0.0
C1171 C 0.34137 0.44191 0.37953 0.0
C1172 C 0.33385 0.59804 0.33893 0.0
C1173 C 0.33057 0.5754 0.33944 0.0
C1174 C 0.35822 0.53159 0.36233 0.0
C1175 C 0.33226 0.47211 0.35953 0.0
C1176 C 0.33458 0.49594 0.35754 0.0
C1177 C 0.34104 0.5657 0.35645 0.0
C1178 C 0.33875 0.54163 0.35644 0.0
H1179 H 0.30664 0.42354 0.33384 0.0
H1180 H 0.31031 0.46275 0.32993 0.0
H1181 H 0.37154 0.5018 0.3674 0.0
H1182 H 0.3681 0.61161 0.38583 0.0
H1183 H 0.36223 0.57217 0.38677 0.0
loop_
_geom_bond_atom_site_label_1
_geom_bond_atom_site_label_2
_geom_bond_distance
_geom_bond_site_symmetry_2
_ccdc_geom_bond_type
O0 Cd1 2.223 . S
O0 C8 1.315 . S
Cd1 O0 2.223 . S
Cd1 O4 2.297 . S
Cd1 O5 2.439 . S
Cd1 O11 2.240 . S
Cd2 O3 2.240 . S
Cd2 O10 2.223 . S
Cd2 O12 2.297 . S
Cd2 O13 2.439 . S
O3 Cd2 2.240 . S
O3 C8 1.279 . S
O4 Cd1 2.297 . S
O4 C6 1.247 . S
O5 Cd1 2.439 . S
O5 C6 1.208 . S
C6 O4 1.247 . S
C6 O5 1.208 . S
C7 O12 1.247 . S
C7 O13 1.208 . S
C8 O0 1.315 . S
C8 O3 1.279 . S
C9 O10 1.315 . S
C9 O11 1.279 . S
O10 Cd2 2.223 . S
O10 C9 1.315 . S
O11 Cd1 2.240 . S
O11 C9 1.279 . S
O12 Cd2 2.297 . S
O12 C7 1.247 . S
O13 Cd2 2.439 . S
O13 C7 1.208 . S
O14 Cd15 2.223 . S
O14 C22 1.315 . S
Cd15 O14 2.223 . S
Cd15 O18 2.297 . S
Cd15 O19 2.439 . S
Cd15 O25 2.240 . S
Cd16 O17 2.240 . S
Cd16 O24 2.223 . S
Cd16 O26 2.297 . S
Cd16 O27 2.439 . S
O17 Cd16 2.240 . S
O17 C22 1.279 . S
O18 Cd15 2.297 . S
O18 C20 1.247 . S
O19 Cd15 2.439 . S
O19 C20 1.208 . S
C20 O18 1.247 . S
C20 O19 1.208 . S
C21 O26 1.247 . S
C21 O27 1.208 . S
C22 O14 1.315 . S
C22 O17 1.279 . S
C23 O24 1.315 . S
C23 O25 1.279 . S
O24 Cd16 2.223 . S
O24 C23 1.315 . S
O25 Cd15 2.240 . S
O25 C23 1.279 . S
O26 Cd16 2.297 . S
O26 C21 1.247 . S
O27 Cd16 2.439 . S
O27 C21 1.208 . S
O28 Cd29 2.223 . S
O28 C36 1.315 . S
Cd29 O28 2.223 . S
Cd29 O32 2.297 . S
Cd29 O33 2.439 . S
Cd29 O39 2.240 . S
Cd30 O31 2.240 . S
Cd30 O38 2.223 . S
Cd30 O40 2.297 . S
Cd30 O41 2.439 . S
O31 Cd30 2.240 . S
O31 C36 1.279 . S
O32 Cd29 2.297 . S
O32 C34 1.247 . S
O33 Cd29 2.439 . S
O33 C34 1.208 . S
C34 O32 1.247 . S
C34 O33 1.208 . S
C35 O40 1.247 . S
C35 O41 1.208 . S
C36 O28 1.315 . S
C36 O31 1.279 . S
C37 O38 1.315 . S
C37 O39 1.279 . S
O38 Cd30 2.223 . S
O38 C37 1.315 . S
O39 Cd29 2.240 . S
O39 C37 1.279 . S
O40 Cd30 2.297 . S
O40 C35 1.247 . S
O41 Cd30 2.439 . S
O41 C35 1.208 . S
O42 Cd43 2.223 . S
O42 C50 1.315 . S
Cd43 O42 2.223 . S
Cd43 O46 2.297 . S
Cd43 O47 2.439 . S
Cd43 O53 2.240 . S
Cd44 O45 2.240 . S
Cd44 O52 2.223 . S
Cd44 O54 2.297 . S
Cd44 O55 2.439 . S
O45 Cd44 2.240 . S
O45 C50 1.279 . S
O46 Cd43 2.297 . S
O46 C48 1.247 . S
O47 Cd43 2.439 . S
O47 C48 1.208 . S
C48 O46 1.247 . S
C48 O47 1.208 . S
C49 O54 1.247 . S
C49 O55 1.208 . S
C50 O42 1.315 . S
C50 O45 1.279 . S
C51 O52 1.315 . S
C51 O53 1.279 . S
O52 Cd44 2.223 . S
O52 C51 1.315 . S
O53 Cd43 2.240 . S
O53 C51 1.279 . S
O54 Cd44 2.297 . S
O54 C49 1.247 . S
O55 Cd44 2.439 . S
O55 C49 1.208 . S
O56 Cd57 2.223 . S
O56 C64 1.315 . S
Cd57 O56 2.223 . S
Cd57 O60 2.297 . S
Cd57 O61 2.439 . S
Cd57 O67 2.240 . S
Cd58 O59 2.240 . S
Cd58 O66 2.223 . S
Cd58 O68 2.297 . S
Cd58 O69 2.439 . S
O59 Cd58 2.240 . S
O59 C64 1.279 . S
O60 Cd57 2.297 . S
O60 C62 1.247 . S
O61 Cd57 2.439 . S
O61 C62 1.208 . S
C62 O60 1.247 . S
C62 O61 1.208 . S
C63 O68 1.247 . S
C63 O69 1.208 . S
C64 O56 1.315 . S
C64 O59 1.279 . S
C65 O66 1.315 . S
C65 O67 1.279 . S
O66 Cd58 2.223 . S
O66 C65 1.315 . S
O67 Cd57 2.240 . S
O67 C65 1.279 . S
O68 Cd58 2.297 . S
O68 C63 1.247 . S
O69 Cd58 2.439 . S
O69 C63 1.208 . S
O70 Cd71 2.223 . S
O70 C78 1.315 . S
Cd71 O70 2.223 . S
Cd71 O74 2.297 . S
Cd71 O75 2.439 . S
Cd71 O81 2.240 . S
Cd72 O73 2.240 . S
Cd72 O80 2.223 . S
Cd72 O82 2.297 . S
Cd72 O83 2.439 . S
O73 Cd72 2.240 . S
O73 C78 1.279 . S
O74 Cd71 2.297 . S
O74 C76 1.247 . S
O75 Cd71 2.439 . S
O75 C76 1.208 . S
C76 O74 1.247 . S
C76 O75 1.208 . S
C77 O82 1.247 . S
C77 O83 1.208 . S
C78 O70 1.315 . S
C78 O73 1.279 . S
C79 O80 1.315 . S
C79 O81 1.279 . S
O80 Cd72 2.223 . S
O80 C79 1.315 . S
O81 Cd71 2.240 . S
O81 C79 1.279 . S
O82 Cd72 2.297 . S
O82 C77 1.247 . S
O83 Cd72 2.439 . S
O83 C77 1.208 . S
O84 Cd85 2.223 . S
O84 C92 1.315 . S
Cd85 O84 2.223 . S
Cd85 O88 2.297 . S
Cd85 O89 2.439 . S
Cd85 O95 2.240 . S
Cd86 O87 2.240 . S
Cd86 O94 2.223 . S
Cd86 O96 2.297 . S
Cd86 O97 2.439 . S
O87 Cd86 2.240 . S
O87 C92 1.279 . S
O88 Cd85 2.297 . S
O88 C90 1.247 . S
O89 Cd85 2.439 . S
O89 C90 1.208 . S
C90 O88 1.247 . S
C90 O89 1.208 . S
C91 O96 1.247 . S
C91 O97 1.208 . S
C92 O84 1.315 . S
C92 O87 1.279 . S
C93 O94 1.315 . S
C93 O95 1.279 . S
O94 Cd86 2.223 . S
O94 C93 1.315 . S
O95 Cd85 2.240 . S
O95 C93 1.279 . S
O96 Cd86 2.297 . S
O96 C91 1.247 . S
O97 Cd86 2.439 . S
O97 C91 1.208 . S
O98 Cd99 2.223 . S
O98 C106 1.315 . S
Cd99 O98 2.223 . S
Cd99 O102 2.297 . S
Cd99 O103 2.439 . S
Cd99 O109 2.240 . S
Cd100 O101 2.240 . S
Cd100 O108 2.223 . S
Cd100 O110 2.297 . S
Cd100 O111 2.439 . S
O101 Cd100 2.240 . S
O101 C106 1.279 . S
O102 Cd99 2.297 . S
O102 C104 1.247 . S
O103 Cd99 2.439 . S
O103 C104 1.208 . S
C104 O102 1.247 . S
C104 O103 1.208 . S
C105 O110 1.247 . S
C105 O111 1.208 . S
C106 O98 1.315 . S
C106 O101 1.279 . S
C107 O108 1.315 . S
C107 O109 1.279 . S
O108 Cd100 2.223 . S
O108 C107 1.315 . S
O109 Cd99 2.240 . S
O109 C107 1.279 . S
O110 Cd100 2.297 . S
O110 C105 1.247 . S
O111 Cd100 2.439 . S
O111 C105 1.208 . S
O112 Cd113 2.223 . S
O112 C120 1.315 . S
Cd113 O112 2.223 . S
Cd113 O116 2.297 . S
Cd113 O117 2.439 . S
Cd113 O123 2.240 . S
Cd114 O115 2.240 . S
Cd114 O122 2.223 . S
Cd114 O124 2.297 . S
Cd114 O125 2.439 . S
O115 Cd114 2.240 . S
O115 C120 1.279 . S
O116 Cd113 2.297 . S
O116 C118 1.247 . S
O117 Cd113 2.439 . S
O117 C118 1.208 . S
C118 O116 1.247 . S
C118 O117 1.208 . S
C119 O124 1.247 . S
C119 O125 1.208 . S
C120 O112 1.315 . S
C120 O115 1.279 . S
C121 O122 1.315 . S
C121 O123 1.279 . S
O122 Cd114 2.223 . S
O122 C121 1.315 . S
O123 Cd113 2.240 . S
O123 C121 1.279 . S
O124 Cd114 2.297 . S
O124 C119 1.247 . S
O125 Cd114 2.439 . S
O125 C119 1.208 . S
O126 Cd127 2.223 . S
O126 C134 1.315 . S
Cd127 O126 2.223 . S
Cd127 O130 2.297 . S
Cd127 O131 2.439 . S
Cd127 O137 2.240 . S
Cd128 O129 2.240 . S
Cd128 O136 2.223 . S
Cd128 O138 2.297 . S
Cd128 O139 2.439 . S
O129 Cd128 2.240 . S
O129 C134 1.279 . S
O130 Cd127 2.297 . S
O130 C132 1.247 . S
O131 Cd127 2.439 . S
O131 C132 1.208 . S
C132 O130 1.247 . S
C132 O131 1.208 . S
C133 O138 1.247 . S
C133 O139 1.208 . S
C134 O126 1.315 . S
C134 O129 1.279 . S
C135 O136 1.315 . S
C135 O137 1.279 . S
O136 Cd128 2.223 . S
O136 C135 1.315 . S
O137 Cd127 2.240 . S
O137 C135 1.279 . S
O138 Cd128 2.297 . S
O138 C133 1.247 . S
O139 Cd128 2.439 . S
O139 C133 1.208 . S
O140 Cd141 2.223 . S
O140 C148 1.315 . S
Cd141 O140 2.223 . S
Cd141 O144 2.297 . S
Cd141 O145 2.439 . S
Cd141 O151 2.240 . S
Cd142 O143 2.240 . S
Cd142 O150 2.223 . S
Cd142 O152 2.297 . S
Cd142 O153 2.439 . S
O143 Cd142 2.240 . S
O143 C148 1.279 . S
O144 Cd141 2.297 . S
O144 C146 1.247 . S
O145 Cd141 2.439 . S
O145 C146 1.208 . S
C146 O144 1.247 . S
C146 O145 1.208 . S
C147 O152 1.247 . S
C147 O153 1.208 . S
C148 O140 1.315 . S
C148 O143 1.279 . S
C149 O150 1.315 . S
C149 O151 1.279 . S
O150 Cd142 2.223 . S
O150 C149 1.315 . S
O151 Cd141 2.240 . S
O151 C149 1.279 . S
O152 Cd142 2.297 . S
O152 C147 1.247 . S
O153 Cd142 2.439 . S
O153 C147 1.208 . S
O154 Cd155 2.223 . S
O154 C162 1.315 . S
Cd155 O154 2.223 . S
Cd155 O158 2.297 . S
Cd155 O159 2.439 . S
Cd155 O165 2.240 . S
Cd156 O157 2.240 . S
Cd156 O164 2.223 . S
Cd156 O166 2.297 . S
Cd156 O167 2.439 . S
O157 Cd156 2.240 . S
O157 C162 1.279 . S
O158 Cd155 2.297 . S
O158 C160 1.247 . S
O159 Cd155 2.439 . S
O159 C160 1.208 . S
C160 O158 1.247 . S
C160 O159 1.208 . S
C161 O166 1.247 . S
C161 O167 1.208 . S
C162 O154 1.315 . S
C162 O157 1.279 . S
C163 O164 1.315 . S
C163 O165 1.279 . S
O164 Cd156 2.223 . S
O164 C163 1.315 . S
O165 Cd155 2.240 . S
O165 C163 1.279 . S
O166 Cd156 2.297 . S
O166 C161 1.247 . S
O167 Cd156 2.439 . S
O167 C161 1.208 . S
O168 Cd169 2.223 . S
O168 C176 1.315 . S
Cd169 O168 2.223 . S
Cd169 O172 2.297 . S
Cd169 O173 2.439 . S
Cd169 O179 2.240 . S
Cd170 O171 2.240 . S
Cd170 O178 2.223 . S
Cd170 O180 2.297 . S
Cd170 O181 2.439 . S
O171 Cd170 2.240 . S
O171 C176 1.279 . S
O172 Cd169 2.297 . S
O172 C174 1.247 . S
O173 Cd169 2.439 . S
O173 C174 1.208 . S
C174 O172 1.247 . S
C174 O173 1.208 . S
C175 O180 1.247 . S
C175 O181 1.208 . S
C176 O168 1.315 . S
C176 O171 1.279 . S
C177 O178 1.315 . S
C177 O179 1.279 . S
O178 Cd170 2.223 . S
O178 C177 1.315 . S
O179 Cd169 2.240 . S
O179 C177 1.279 . S
O180 Cd170 2.297 . S
O180 C175 1.247 . S
O181 Cd170 2.439 . S
O181 C175 1.208 . S
O182 Cd183 2.223 . S
O182 C190 1.315 . S
Cd183 O182 2.223 . S
Cd183 O186 2.297 . S
Cd183 O187 2.439 . S
Cd183 O193 2.240 . S
Cd184 O185 2.240 . S
Cd184 O192 2.223 . S
Cd184 O194 2.297 . S
Cd184 O195 2.439 . S
O185 Cd184 2.240 . S
O185 C190 1.279 . S
O186 Cd183 2.297 . S
O186 C188 1.247 . S
O187 Cd183 2.439 . S
O187 C188 1.208 . S
C188 O186 1.247 . S
C188 O187 1.208 . S
C189 O194 1.247 . S
C189 O195 1.208 . S
C190 O182 1.315 . S
C190 O185 1.279 . S
C191 O192 1.315 . S
C191 O193 1.279 . S
O192 Cd184 2.223 . S
O192 C191 1.315 . S
O193 Cd183 2.240 . S
O193 C191 1.279 . S
O194 Cd184 2.297 . S
O194 C189 1.247 . S
O195 Cd184 2.439 . S
O195 C189 1.208 . S
O196 Cd197 2.223 . S
O196 C204 1.315 . S
Cd197 O196 2.223 . S
Cd197 O200 2.297 . S
Cd197 O201 2.439 . S
Cd197 O207 2.240 . S
Cd198 O199 2.240 . S
Cd198 O206 2.223 . S
Cd198 O208 2.297 . S
Cd198 O209 2.439 . S
O199 Cd198 2.240 . S
O199 C204 1.279 . S
O200 Cd197 2.297 . S
O200 C202 1.247 . S
O201 Cd197 2.439 . S
O201 C202 1.208 . S
C202 O200 1.247 . S
C202 O201 1.208 . S
C203 O208 1.247 . S
C203 O209 1.208 . S
C204 O196 1.315 . S
C204 O199 1.279 . S
C205 O206 1.315 . S
C205 O207 1.279 . S
O206 Cd198 2.223 . S
O206 C205 1.315 . S
O207 Cd197 2.240 . S
O207 C205 1.279 . S
O208 Cd198 2.297 . S
O208 C203 1.247 . S
O209 Cd198 2.439 . S
O209 C203 1.208 . S
O210 Cd211 2.223 . S
O210 C218 1.315 . S
Cd211 O210 2.223 . S
Cd211 O214 2.297 . S
Cd211 O215 2.439 . S
Cd211 O221 2.240 . S
Cd212 O213 2.240 . S
Cd212 O220 2.223 . S
Cd212 O222 2.297 . S
Cd212 O223 2.439 . S
O213 Cd212 2.240 . S
O213 C218 1.279 . S
O214 Cd211 2.297 . S
O214 C216 1.247 . S
O215 Cd211 2.439 . S
O215 C216 1.208 . S
C216 O214 1.247 . S
C216 O215 1.208 . S
C217 O222 1.247 . S
C217 O223 1.208 . S
C218 O210 1.315 . S
C218 O213 1.279 . S
C219 O220 1.315 . S
C219 O221 1.279 . S
O220 Cd212 2.223 . S
O220 C219 1.315 . S
O221 Cd211 2.240 . S
O221 C219 1.279 . S
O222 Cd212 2.297 . S
O222 C217 1.247 . S
O223 Cd212 2.439 . S
O223 C217 1.208 . S
C224 C225 1.349 . S
C224 C226 1.327 . S
C224 H249 0.950 . S
C225 C224 1.349 . S
C225 C241 1.349 . S
C226 C224 1.327 . S
C226 C245 1.429 . S
C226 H250 0.950 . S
C227 C244 1.574 . S
C227 C246 1.368 . S
C227 H251 0.949 . S
H228 C232 0.949 . S
C229 C230 1.349 . S
C229 C231 1.327 . S
C229 H252 0.950 . S
C230 C229 1.349 . S
C230 C242 1.349 . S
C231 C229 1.327 . S
C231 C247 1.429 . S
C231 H253 0.950 . S
C232 H228 0.949 . S
C232 C240 1.574 . S
C232 C248 1.368 . S
H233 C241 0.950 . S
H234 C239 0.950 . S
H235 C240 0.949 . S
H236 C242 0.950 . S
H237 C243 0.950 . S
H238 C244 0.949 . S
C239 H234 0.950 . S
C239 C241 1.327 . S
C239 C245 1.429 . S
C240 C232 1.574 . S
C240 H235 0.949 . S
C240 C246 1.368 . S
C241 C225 1.349 . S
C241 H233 0.950 . S
C241 C239 1.327 . S
C242 C230 1.349 . S
C242 H236 0.950 . S
C242 C243 1.327 . S
C243 H237 0.950 . S
C243 C242 1.327 . S
C243 C247 1.429 . S
C244 C227 1.574 . S
C244 H238 0.949 . S
C244 C248 1.368 . S
C245 C226 1.429 . S
C245 C239 1.429 . S
C245 C246 1.523 . S
C246 C227 1.368 . S
C246 C240 1.368 . S
C246 C245 1.523 . S
C247 C231 1.429 . S
C247 C243 1.429 . S
C247 C248 1.523 . S
C248 C232 1.368 . S
C248 C244 1.368 . S
C248 C247 1.523 . S
H249 C224 0.950 . S
H250 C226 0.950 . S
H251 C227 0.949 . S
H252 C229 0.950 . S
H253 C231 0.950 . S
C254 C255 1.349 . S
C254 C256 1.327 . S
C254 H279 0.950 . S
C255 C254 1.349 . S
C255 C271 1.349 . S
C256 C254 1.327 . S
C256 C275 1.429 . S
C256 H280 0.950 . S
C257 C274 1.574 . S
C257 C276 1.368 . S
C257 H281 0.949 . S
H258 C262 0.949 . S
C259 C260 1.349 . S
C259 C261 1.327 . S
C259 H282 0.950 . S
C260 C259 1.349 . S
C260 C272 1.349 . S
C261 C259 1.327 . S
C261 C277 1.429 . S
C261 H283 0.950 . S
C262 H258 0.949 . S
C262 C270 1.574 . S
C262 C278 1.368 . S
H263 C271 0.950 . S
H264 C269 0.950 . S
H265 C270 0.949 . S
H266 C272 0.950 . S
H267 C273 0.950 . S
H268 C274 0.949 . S
C269 H264 0.950 . S
C269 C271 1.327 . S
C269 C275 1.429 . S
C270 C262 1.574 . S
C270 H265 0.949 . S
C270 C276 1.368 . S
C271 C255 1.349 . S
C271 H263 0.950 . S
C271 C269 1.327 . S
C272 C260 1.349 . S
C272 H266 0.950 . S
C272 C273 1.327 . S
C273 H267 0.950 . S
C273 C272 1.327 . S
C273 C277 1.429 . S
C274 C257 1.574 . S
C274 H268 0.949 . S
C274 C278 1.368 . S
C275 C256 1.429 . S
C275 C269 1.429 . S
C275 C276 1.523 . S
C276 C257 1.368 . S
C276 C270 1.368 . S
C276 C275 1.523 . S
C277 C261 1.429 . S
C277 C273 1.429 . S
C277 C278 1.523 . S
C278 C262 1.368 . S
C278 C274 1.368 . S
C278 C277 1.523 . S
H279 C254 0.950 . S
H280 C256 0.950 . S
H281 C257 0.949 . S
H282 C259 0.950 . S
H283 C261 0.950 . S
C284 C285 1.349 . S
C284 C286 1.327 . S
C284 H309 0.950 . S
C285 C284 1.349 . S
C285 C301 1.349 . S
C286 C284 1.327 . S
C286 C305 1.429 . S
C286 H310 0.950 . S
C287 C304 1.574 . S
C287 C306 1.368 . S
C287 H311 0.949 . S
H288 C292 0.949 . S
C289 C290 1.349 . S
C289 C291 1.327 . S
C289 H312 0.950 . S
C290 C289 1.349 . S
C290 C302 1.349 . S
C291 C289 1.327 . S
C291 C307 1.429 . S
C291 H313 0.950 . S
C292 H288 0.949 . S
C292 C300 1.574 . S
C292 C308 1.368 . S
H293 C301 0.950 . S
H294 C299 0.950 . S
H295 C300 0.949 . S
H296 C302 0.950 . S
H297 C303 0.950 . S
H298 C304 0.949 . S
C299 H294 0.950 . S
C299 C301 1.327 . S
C299 C305 1.429 . S
C300 C292 1.574 . S
C300 H295 0.949 . S
C300 C306 1.368 . S
C301 C285 1.349 . S
C301 H293 0.950 . S
C301 C299 1.327 . S
C302 C290 1.349 . S
C302 H296 0.950 . S
C302 C303 1.327 . S
C303 H297 0.950 . S
C303 C302 1.327 . S
C303 C307 1.429 . S
C304 C287 1.574 . S
C304 H298 0.949 . S
C304 C308 1.368 . S
C305 C286 1.429 . S
C305 C299 1.429 . S
C305 C306 1.523 . S
C306 C287 1.368 . S
C306 C300 1.368 . S
C306 C305 1.523 . S
C307 C291 1.429 . S
C307 C303 1.429 . S
C307 C308 1.523 . S
C308 C292 1.368 . S
C308 C304 1.368 . S
C308 C307 1.523 . S
H309 C284 0.950 . S
H310 C286 0.950 . S
H311 C287 0.949 . S
H312 C289 0.950 . S
H313 C291 0.950 . S
C314 C315 1.349 . S
C314 C316 1.327 . S
C314 H339 0.950 . S
C315 C314 1.349 . S
C315 C331 1.349 . S
C316 C314 1.327 . S
C316 C335 1.429 . S
C316 H340 0.950 . S
C317 C334 1.574 . S
C317 C336 1.368 . S
C317 H341 0.949 . S
H318 C322 0.949 . S
C319 C320 1.349 . S
C319 C321 1.327 . S
C319 H342 0.950 . S
C320 C319 1.349 . S
C320 C332 1.349 . S
C321 C319 1.327 . S
C321 C337 1.429 . S
C321 H343 0.950 . S
C322 H318 0.949 . S
C322 C330 1.574 . S
C322 C338 1.368 . S
H323 C331 0.950 . S
H324 C329 0.950 . S
H325 C330 0.949 . S
H326 C332 0.950 . S
H327 C333 0.950 . S
H328 C334 0.949 . S
C329 H324 0.950 . S
C329 C331 1.327 . S
C329 C335 1.429 . S
C330 C322 1.574 . S
C330 H325 0.949 . S
C330 C336 1.368 . S
C331 C315 1.349 . S
C331 H323 0.950 . S
C331 C329 1.327 . S
C332 C320 1.349 . S
C332 H326 0.950 . S
C332 C333 1.327 . S
C333 H327 0.950 . S
C333 C332 1.327 . S
C333 C337 1.429 . S
C334 C317 1.574 . S
C334 H328 0.949 . S
C334 C338 1.368 . S
C335 C316 1.429 . S
C335 C329 1.429 . S
C335 C336 1.523 . S
C336 C317 1.368 . S
C336 C330 1.368 . S
C336 C335 1.523 . S
C337 C321 1.429 . S
C337 C333 1.429 . S
C337 C338 1.523 . S
C338 C322 1.368 . S
C338 C334 1.368 . S
C338 C337 1.523 . S
H339 C314 0.950 . S
H340 C316 0.950 . S
H341 C317 0.949 . S
H342 C319 0.950 . S
H343 C321 0.950 . S
C344 C345 1.349 . S
C344 C346 1.327 . S
C344 H369 0.950 . S
C345 C344 1.349 . S
C345 C361 1.349 . S
C346 C344 1.327 . S
C346 C365 1.429 . S
C346 H370 0.950 . S
C347 C364 1.574 . S
C347 C366 1.368 . S
C347 H371 0.949 . S
H348 C352 0.949 . S
C349 C350 1.349 . S
C349 C351 1.327 . S
C349 H372 0.950 . S
C350 C349 1.349 . S
C350 C362 1.349 . S
C351 C349 1.327 . S
C351 C367 1.429 . S
C351 H373 0.950 . S
C352 H348 0.949 . S
C352 C360 1.574 . S
C352 C368 1.368 . S
H353 C361 0.950 . S
H354 C359 0.950 . S
H355 C360 0.949 . S
H356 C362 0.950 . S
H357 C363 0.950 . S
H358 C364 0.949 . S
C359 H354 0.950 . S
C359 C361 1.327 . S
C359 C365 1.429 . S
C360 C352 1.574 . S
C360 H355 0.949 . S
C360 C366 1.368 . S
C361 C345 1.349 . S
C361 H353 0.950 . S
C361 C359 1.327 . S
C362 C350 1.349 . S
C362 H356 0.950 . S
C362 C363 1.327 . S
C363 H357 0.950 . S
C363 C362 1.327 . S
C363 C367 1.429 . S
C364 C347 1.574 . S
C364 H358 0.949 . S
C364 C368 1.368 . S
C365 C346 1.429 . S
C365 C359 1.429 . S
C365 C366 1.523 . S
C366 C347 1.368 . S
C366 C360 1.368 . S
C366 C365 1.523 . S
C367 C351 1.429 . S
C367 C363 1.429 . S
C367 C368 1.523 . S
C368 C352 1.368 . S
C368 C364 1.368 . S
C368 C367 1.523 . S
H369 C344 0.950 . S
H370 C346 0.950 . S
H371 C347 0.949 . S
H372 C349 0.950 . S
H373 C351 0.950 . S
C374 C375 1.349 . S
C374 C376 1.327 . S
C374 H399 0.950 . S
C375 C374 1.349 . S
C375 C391 1.349 . S
C376 C374 1.327 . S
C376 C395 1.429 . S
C376 H400 0.950 . S
C377 C394 1.574 . S
C377 C396 1.368 . S
C377 H401 0.949 . S
H378 C382 0.949 . S
C379 C380 1.349 . S
C379 C381 1.327 . S
C379 H402 0.950 . S
C380 C379 1.349 . S
C380 C392 1.349 . S
C381 C379 1.327 . S
C381 C397 1.429 . S
C381 H403 0.950 . S
C382 H378 0.949 . S
C382 C390 1.574 . S
C382 C398 1.368 . S
H383 C391 0.950 . S
H384 C389 0.950 . S
H385 C390 0.949 . S
H386 C392 0.950 . S
H387 C393 0.950 . S
H388 C394 0.949 . S
C389 H384 0.950 . S
C389 C391 1.327 . S
C389 C395 1.429 . S
C390 C382 1.574 . S
C390 H385 0.949 . S
C390 C396 1.368 . S
C391 C375 1.349 . S
C391 H383 0.950 . S
C391 C389 1.327 . S
C392 C380 1.349 . S
C392 H386 0.950 . S
C392 C393 1.327 . S
C393 H387 0.950 . S
C393 C392 1.327 . S
C393 C397 1.429 . S
C394 C377 1.574 . S
C394 H388 0.949 . S
C394 C398 1.368 . S
C395 C376 1.429 . S
C395 C389 1.429 . S
C395 C396 1.523 . S
C396 C377 1.368 . S
C396 C390 1.368 . S
C396 C395 1.523 . S
C397 C381 1.429 . S
C397 C393 1.429 . S
C397 C398 1.523 . S
C398 C382 1.368 . S
C398 C394 1.368 . S
C398 C397 1.523 . S
H399 C374 0.950 . S
H400 C376 0.950 . S
H401 C377 0.949 . S
H402 C379 0.950 . S
H403 C381 0.950 . S
C404 C405 1.349 . S
C404 C406 1.327 . S
C404 H429 0.950 . S
C405 C404 1.349 . S
C405 C421 1.349 . S
C406 C404 1.327 . S
C406 C425 1.429 . S
C406 H430 0.950 . S
C407 C424 1.574 . S
C407 C426 1.368 . S
C407 H431 0.949 . S
H408 C412 0.949 . S
C409 C410 1.349 . S
C409 C411 1.327 . S
C409 H432 0.950 . S
C410 C409 1.349 . S
C410 C422 1.349 . S
C411 C409 1.327 . S
C411 C427 1.429 . S
C411 H433 0.950 . S
C412 H408 0.949 . S
C412 C420 1.574 . S
C412 C428 1.368 . S
H413 C421 0.950 . S
H414 C419 0.950 . S
H415 C420 0.949 . S
H416 C422 0.950 . S
H417 C423 0.950 . S
H418 C424 0.949 . S
C419 H414 0.950 . S
C419 C421 1.327 . S
C419 C425 1.429 . S
C420 C412 1.574 . S
C420 H415 0.949 . S
C420 C426 1.368 . S
C421 C405 1.349 . S
C421 H413 0.950 . S
C421 C419 1.327 . S
C422 C410 1.349 . S
C422 H416 0.950 . S
C422 C423 1.327 . S
C423 H417 0.950 . S
C423 C422 1.327 . S
C423 C427 1.429 . S
C424 C407 1.574 . S
C424 H418 0.949 . S
C424 C428 1.368 . S
C425 C406 1.429 . S
C425 C419 1.429 . S
C425 C426 1.523 . S
C426 C407 1.368 . S
C426 C420 1.368 . S
C426 C425 1.523 . S
C427 C411 1.429 . S
C427 C423 1.429 . S
C427 C428 1.523 . S
C428 C412 1.368 . S
C428 C424 1.368 . S
C428 C427 1.523 . S
H429 C404 0.950 . S
H430 C406 0.950 . S
H431 C407 0.949 . S
H432 C409 0.950 . S
H433 C411 0.950 . S
C434 C435 1.349 . S
C434 C436 1.327 . S
C434 H459 0.950 . S
C435 C434 1.349 . S
C435 C451 1.349 . S
C436 C434 1.327 . S
C436 C455 1.429 . S
C436 H460 0.950 . S
C437 C454 1.574 . S
C437 C456 1.368 . S
C437 H461 0.949 . S
H438 C442 0.949 . S
C439 C440 1.349 . S
C439 C441 1.327 . S
C439 H462 0.950 . S
C440 C439 1.349 . S
C440 C452 1.349 . S
C441 C439 1.327 . S
C441 C457 1.429 . S
C441 H463 0.950 . S
C442 H438 0.949 . S
C442 C450 1.574 . S
C442 C458 1.368 . S
H443 C451 0.950 . S
H444 C449 0.950 . S
H445 C450 0.949 . S
H446 C452 0.950 . S
H447 C453 0.950 . S
H448 C454 0.949 . S
C449 H444 0.950 . S
C449 C451 1.327 . S
C449 C455 1.429 . S
C450 C442 1.574 . S
C450 H445 0.949 . S
C450 C456 1.368 . S
C451 C435 1.349 . S
C451 H443 0.950 . S
C451 C449 1.327 . S
C452 C440 1.349 . S
C452 H446 0.950 . S
C452 C453 1.327 . S
C453 H447 0.950 . S
C453 C452 1.327 . S
C453 C457 1.429 . S
C454 C437 1.574 . S
C454 H448 0.949 . S
C454 C458 1.368 . S
C455 C436 1.429 . S
C455 C449 1.429 . S
C455 C456 1.523 . S
C456 C437 1.368 . S
C456 C450 1.368 . S
C456 C455 1.523 . S
C457 C441 1.429 . S
C457 C453 1.429 . S
C457 C458 1.523 . S
C458 C442 1.368 . S
C458 C454 1.368 . S
C458 C457 1.523 . S
H459 C434 0.950 . S
H460 C436 0.950 . S
H461 C437 0.949 . S
H462 C439 0.950 . S
H463 C441 0.950 . S
C464 C465 1.349 . S
C464 C466 1.327 . S
C464 H489 0.950 . S
C465 C464 1.349 . S
C465 C481 1.349 . S
C466 C464 1.327 . S
C466 C485 1.429 . S
C466 H490 0.950 . S
C467 C484 1.574 . S
C467 C486 1.368 . S
C467 H491 0.949 . S
H468 C472 0.949 . S
C469 C470 1.349 . S
C469 C471 1.327 . S
C469 H492 0.950 . S
C470 C469 1.349 . S
C470 C482 1.349 . S
C471 C469 1.327 . S
C471 C487 1.429 . S
C471 H493 0.950 . S
C472 H468 0.949 . S
C472 C480 1.574 . S
C472 C488 1.368 . S
H473 C481 0.950 . S
H474 C479 0.950 . S
H475 C480 0.949 . S
H476 C482 0.950 . S
H477 C483 0.950 . S
H478 C484 0.949 . S
C479 H474 0.950 . S
C479 C481 1.327 . S
C479 C485 1.429 . S
C480 C472 1.574 . S
C480 H475 0.949 . S
C480 C486 1.368 . S
C481 C465 1.349 . S
C481 H473 0.950 . S
C481 C479 1.327 . S
C482 C470 1.349 . S
C482 H476 0.950 . S
C482 C483 1.327 . S
C483 H477 0.950 . S
C483 C482 1.327 . S
C483 C487 1.429 . S
C484 C467 1.574 . S
C484 H478 0.949 . S
C484 C488 1.368 . S
C485 C466 1.429 . S
C485 C479 1.429 . S
C485 C486 1.523 . S
C486 C467 1.368 . S
C486 C480 1.368 . S
C486 C485 1.523 . S
C487 C471 1.429 . S
C487 C483 1.429 . S
C487 C488 1.523 1_554 S
C488 C472 1.368 . S
C488 C484 1.368 . S
C488 C487 1.523 1_556 S
H489 C464 0.950 . S
H490 C466 0.950 . S
H491 C467 0.949 . S
H492 C469 0.950 . S
H493 C471 0.950 . S
C494 C495 1.349 . S
C494 C496 1.327 . S
C494 H519 0.950 . S
C495 C494 1.349 . S
C495 C511 1.349 . S
C496 C494 1.327 . S
C496 C515 1.429 . S
C496 H520 0.950 . S
C497 C514 1.574 . S
C497 C516 1.368 . S
C497 H521 0.949 . S
H498 C502 0.949 . S
C499 C500 1.349 . S
C499 C501 1.327 . S
C499 H522 0.950 . S
C500 C499 1.349 . S
C500 C512 1.349 . S
C501 C499 1.327 . S
C501 C517 1.429 . S
C501 H523 0.950 . S
C502 H498 0.949 . S
C502 C510 1.574 . S
C502 C518 1.368 . S
H503 C511 0.950 . S
H504 C509 0.950 . S
H505 C510 0.949 . S
H506 C512 0.950 . S
H507 C513 0.950 . S
H508 C514 0.949 . S
C509 H504 0.950 . S
C509 C511 1.327 . S
C509 C515 1.429 . S
C510 C502 1.574 . S
C510 H505 0.949 . S
C510 C516 1.368 . S
C511 C495 1.349 . S
C511 H503 0.950 . S
C511 C509 1.327 . S
C512 C500 1.349 . S
C512 H506 0.950 . S
C512 C513 1.327 . S
C513 H507 0.950 . S
C513 C512 1.327 . S
C513 C517 1.429 . S
C514 C497 1.574 . S
C514 H508 0.949 . S
C514 C518 1.368 . S
C515 C496 1.429 . S
C515 C509 1.429 . S
C515 C516 1.523 1_556 S
C516 C497 1.368 . S
C516 C510 1.368 . S
C516 C515 1.523 1_554 S
C517 C501 1.429 . S
C517 C513 1.429 . S
C517 C518 1.523 . S
C518 C502 1.368 . S
C518 C514 1.368 . S
C518 C517 1.523 . S
H519 C494 0.950 . S
H520 C496 0.950 . S
H521 C497 0.949 . S
H522 C499 0.950 . S
H523 C501 0.950 . S
C524 C525 1.349 . S
C524 C526 1.327 . S
C524 H549 0.950 . S
C525 C524 1.349 . S
C525 C541 1.349 . S
C526 C524 1.327 . S
C526 C545 1.429 . S
C526 H550 0.950 . S
C527 C544 1.574 1_556 S
C527 C546 1.368 . S
C527 H551 0.949 . S
H528 C532 0.949 . S
C529 C530 1.349 . S
C529 C531 1.327 . S
C529 H552 0.950 . S
C530 C529 1.349 . S
C530 C542 1.349 . S
C531 C529 1.327 . S
C531 C547 1.429 . S
C531 H553 0.950 . S
C532 H528 0.949 . S
C532 C540 1.574 1_554 S
C532 C548 1.368 . S
H533 C541 0.950 . S
H534 C539 0.950 . S
H535 C540 0.949 . S
H536 C542 0.950 . S
H537 C543 0.950 . S
H538 C544 0.949 . S
C539 H534 0.950 . S
C539 C541 1.327 . S
C539 C545 1.429 . S
C540 C532 1.574 1_556 S
C540 H535 0.949 . S
C540 C546 1.368 . S
C541 C525 1.349 . S
C541 H533 0.950 . S
C541 C539 1.327 . S
C542 C530 1.349 . S
C542 H536 0.950 . S
C542 C543 1.327 . S
C543 H537 0.950 . S
C543 C542 1.327 . S
C543 C547 1.429 . S
C544 C527 1.574 1_554 S
C544 H538 0.949 . S
C544 C548 1.368 . S
C545 C526 1.429 . S
C545 C539 1.429 . S
C545 C546 1.523 . S
C546 C527 1.368 . S
C546 C540 1.368 . S
C546 C545 1.523 . S
C547 C531 1.429 . S
C547 C543 1.429 . S
C547 C548 1.523 . S
C548 C532 1.368 . S
C548 C544 1.368 . S
C548 C547 1.523 . S
H549 C524 0.950 . S
H550 C526 0.950 . S
H551 C527 0.949 . S
H552 C529 0.950 . S
H553 C531 0.950 . S
C554 C555 1.349 . S
C554 C556 1.327 . S
C554 H579 0.950 . S
C555 C554 1.349 . S
C555 C571 1.349 . S
C556 C554 1.327 . S
C556 C575 1.429 . S
C556 H580 0.950 . S
C557 C574 1.574 1_554 S
C557 C576 1.368 . S
C557 H581 0.949 . S
H558 C562 0.949 . S
C559 C560 1.349 . S
C559 C561 1.327 . S
C559 H582 0.950 . S
C560 C559 1.349 . S
C560 C572 1.349 . S
C561 C559 1.327 . S
C561 C577 1.429 . S
C561 H583 0.950 . S
C562 H558 0.949 . S
C562 C570 1.574 1_556 S
C562 C578 1.368 . S
H563 C571 0.950 . S
H564 C569 0.950 . S
H565 C570 0.949 . S
H566 C572 0.950 . S
H567 C573 0.950 . S
H568 C574 0.949 . S
C569 H564 0.950 . S
C569 C571 1.327 . S
C569 C575 1.429 . S
C570 C562 1.574 1_554 S
C570 H565 0.949 . S
C570 C576 1.368 . S
C571 C555 1.349 . S
C571 H563 0.950 . S
C571 C569 1.327 . S
C572 C560 1.349 . S
C572 H566 0.950 . S
C572 C573 1.327 . S
C573 H567 0.950 . S
C573 C572 1.327 . S
C573 C577 1.429 . S
C574 C557 1.574 1_556 S
C574 H568 0.949 . S
C574 C578 1.368 . S
C575 C556 1.429 . S
C575 C569 1.429 . S
C575 C576 1.523 . S
C576 C557 1.368 . S
C576 C570 1.368 . S
C576 C575 1.523 . S
C577 C561 1.429 . S
C577 C573 1.429 . S
C577 C578 1.523 . S
C578 C562 1.368 . S
C578 C574 1.368 . S
C578 C577 1.523 . S
H579 C554 0.950 . S
H580 C556 0.950 . S
H581 C557 0.949 . S
H582 C559 0.950 . S
H583 C561 0.950 . S
C584 C585 1.349 . S
C584 C586 1.327 . S
C584 H609 0.950 . S
C585 C584 1.349 . S
C585 C601 1.349 . S
C586 C584 1.327 . S
C586 C605 1.429 . S
C586 H610 0.950 . S
C587 C604 1.574 . S
C587 C606 1.368 . S
C587 H611 0.949 . S
H588 C592 0.949 . S
C589 C590 1.349 . S
C589 C591 1.327 . S
C589 H612 0.950 . S
C590 C589 1.349 . S
C590 C602 1.349 . S
C591 C589 1.327 . S
C591 C607 1.429 . S
C591 H613 0.950 . S
C592 H588 0.949 . S
C592 C600 1.574 . S
C592 C608 1.368 . S
H593 C601 0.950 . S
H594 C599 0.950 . S
H595 C600 0.949 . S
H596 C602 0.950 . S
H597 C603 0.950 . S
H598 C604 0.949 1_655 S
C599 H594 0.950 . S
C599 C601 1.327 . S
C599 C605 1.429 . S
C600 C592 1.574 . S
C600 H595 0.949 . S
C600 C606 1.368 . S
C601 C585 1.349 . S
C601 H593 0.950 . S
C601 C599 1.327 . S
C602 C590 1.349 . S
C602 H596 0.950 . S
C602 C603 1.327 . S
C603 H597 0.950 . S
C603 C602 1.327 . S
C603 C607 1.429 . S
C604 C587 1.574 . S
C604 H598 0.949 1_455 S
C604 C608 1.368 . S
C605 C586 1.429 . S
C605 C599 1.429 . S
C605 C606 1.523 . S
C606 C587 1.368 . S
C606 C600 1.368 . S
C606 C605 1.523 . S
C607 C591 1.429 . S
C607 C603 1.429 . S
C607 C608 1.523 1_655 S
C608 C592 1.368 . S
C608 C604 1.368 . S
C608 C607 1.523 1_455 S
H609 C584 0.950 . S
H610 C586 0.950 . S
H611 C587 0.949 . S
H612 C589 0.950 . S
H613 C591 0.950 . S
C614 C615 1.349 . S
C614 C616 1.327 . S
C614 H639 0.950 . S
C615 C614 1.349 . S
C615 C631 1.349 . S
C616 C614 1.327 . S
C616 C635 1.429 . S
C616 H640 0.950 . S
C617 C634 1.574 . S
C617 C636 1.368 1_545 S
C617 H641 0.949 1_545 S
H618 C622 0.949 . S
C619 C620 1.349 . S
C619 C621 1.327 . S
C619 H642 0.950 . S
C620 C619 1.349 . S
C620 C632 1.349 . S
C621 C619 1.327 . S
C621 C637 1.429 . S
C621 H643 0.950 . S
C622 H618 0.949 . S
C622 C630 1.574 . S
C622 C638 1.368 . S
H623 C631 0.950 . S
H624 C629 0.950 . S
H625 C630 0.952 . S
H626 C632 0.950 . S
H627 C633 0.950 . S
H628 C634 0.949 . S
C629 H624 0.950 . S
C629 C631 1.327 . S
C629 C635 1.429 . S
C630 C622 1.574 . S
C630 H625 0.952 . S
C630 C636 1.368 1_545 S
C631 C615 1.349 . S
C631 H623 0.950 . S
C631 C629 1.327 . S
C632 C620 1.349 . S
C632 H626 0.950 . S
C632 C633 1.327 . S
C633 H627 0.950 . S
C633 C632 1.327 . S
C633 C637 1.429 . S
C634 C617 1.574 . S
C634 H628 0.949 . S
C634 C638 1.368 . S
C635 C616 1.429 . S
C635 C629 1.429 . S
C635 C636 1.523 . S
C636 C617 1.368 1_565 S
C636 C630 1.368 1_565 S
C636 C635 1.523 . S
C637 C621 1.429 . S
C637 C633 1.429 . S
C637 C638 1.523 . S
C638 C622 1.368 . S
C638 C634 1.368 . S
C638 C637 1.523 . S
H639 C614 0.950 . S
H640 C616 0.950 . S
H641 C617 0.949 1_565 S
H642 C619 0.950 . S
H643 C621 0.950 . S
C644 C645 1.349 . S
C644 C646 1.327 . S
C644 H669 0.950 . S
C645 C644 1.349 . S
C645 C661 1.349 . S
C646 C644 1.327 . S
C646 C665 1.429 . S
C646 H670 0.950 . S
C647 C664 1.574 . S
C647 C666 1.368 . S
C647 H671 0.949 . S
H648 C652 0.930 1_455 S
C649 C650 1.349 . S
C649 C651 1.327 . S
C649 H672 0.950 . S
C650 C649 1.349 . S
C650 C662 1.349 . S
C651 C649 1.327 . S
C651 C667 1.429 . S
C651 H673 0.950 . S
C652 H648 0.930 1_655 S
C652 C660 1.609 . S
C652 C668 1.356 1_655 S
H653 C661 0.950 . S
H654 C659 0.950 . S
H655 C660 0.949 . S
H656 C662 0.950 . S
H657 C663 0.950 . S
H658 C664 0.949 1_455 S
C659 H654 0.950 . S
C659 C661 1.327 . S
C659 C665 1.429 . S
C660 C652 1.609 . S
C660 H655 0.949 . S
C660 C666 1.368 . S
C661 C645 1.349 . S
C661 H653 0.950 . S
C661 C659 1.327 . S
C662 C650 1.349 . S
C662 H656 0.950 . S
C662 C663 1.327 . S
C663 H657 0.950 . S
C663 C662 1.327 . S
C663 C667 1.429 . S
C664 C647 1.574 . S
C664 H658 0.949 1_655 S
C664 C668 1.368 1_655 S
C665 C646 1.429 . S
C665 C659 1.429 . S
C665 C666 1.523 . S
C666 C647 1.368 . S
C666 C660 1.368 . S
C666 C665 1.523 . S
C667 C651 1.429 . S
C667 C663 1.429 . S
C667 C668 1.523 . S
C668 C652 1.356 1_455 S
C668 C664 1.368 1_455 S
C668 C667 1.523 . S
H669 C644 0.950 . S
H670 C646 0.950 . S
H671 C647 0.949 . S
H672 C649 0.950 . S
H673 C651 0.950 . S
C674 C675 1.349 . S
C674 C676 1.327 . S
C674 H699 0.950 . S
C675 C674 1.349 . S
C675 C691 1.349 . S
C676 C674 1.327 . S
C676 C695 1.429 . S
C676 H700 0.950 . S
C677 C694 1.574 . S
C677 C696 1.368 . S
C677 H701 0.949 . S
H678 C682 0.949 . S
C679 C680 1.349 . S
C679 C681 1.327 . S
C679 H702 0.950 . S
C680 C679 1.349 . S
C680 C692 1.349 . S
C681 C679 1.327 . S
C681 C697 1.429 . S
C681 H703 0.950 . S
C682 H678 0.949 . S
C682 C690 1.574 . S
C682 C698 1.368 . S
H683 C691 0.950 . S
H684 C689 0.950 . S
H685 C690 0.949 1_545 S
H686 C692 0.950 . S
H687 C693 0.950 . S
H688 C694 0.949 . S
C689 H684 0.950 . S
C689 C691 1.327 . S
C689 C695 1.429 . S
C690 C682 1.574 . S
C690 H685 0.949 1_565 S
C690 C696 1.368 . S
C691 C675 1.349 . S
C691 H683 0.950 . S
C691 C689 1.327 . S
C692 C680 1.349 . S
C692 H686 0.950 . S
C692 C693 1.327 . S
C693 H687 0.950 . S
C693 C692 1.327 . S
C693 C697 1.429 . S
C694 C677 1.574 . S
C694 H688 0.949 . S
C694 C698 1.368 . S
C695 C676 1.429 . S
C695 C689 1.429 . S
C695 C696 1.523 1_545 S
C696 C677 1.368 . S
C696 C690 1.368 . S
C696 C695 1.523 1_565 S
C697 C681 1.429 . S
C697 C693 1.429 . S
C697 C698 1.523 . S
C698 C682 1.368 . S
C698 C694 1.368 . S
C698 C697 1.523 . S
H699 C674 0.950 . S
H700 C676 0.950 . S
H701 C677 0.949 . S
H702 C679 0.950 . S
H703 C681 0.950 . S
C704 C705 1.349 . S
C704 C706 1.327 . S
C704 H729 0.950 . S
C705 C704 1.349 . S
C705 C721 1.349 . S
C706 C704 1.327 . S
C706 C725 1.429 . S
C706 H730 0.950 . S
C707 C724 1.574 . S
C707 C726 1.368 . S
C707 H731 0.949 . S
H708 C712 0.949 . S
C709 C710 1.349 . S
C709 C711 1.327 . S
C709 H732 0.950 . S
C710 C709 1.349 . S
C710 C722 1.349 . S
C711 C709 1.327 . S
C711 C727 1.429 . S
C711 H733 0.950 . S
C712 H708 0.949 . S
C712 C720 1.574 . S
C712 C728 1.368 . S
H713 C721 0.950 . S
H714 C719 0.950 . S
H715 C720 0.949 . S
H716 C722 0.950 . S
H717 C723 0.950 1_655 S
H718 C724 0.949 1_455 S
C719 H714 0.950 . S
C719 C721 1.327 . S
C719 C725 1.429 . S
C720 C712 1.574 . S
C720 H715 0.949 . S
C720 C726 1.368 . S
C721 C705 1.349 . S
C721 H713 0.950 . S
C721 C719 1.327 . S
C722 C710 1.349 . S
C722 H716 0.950 . S
C722 C723 1.327 . S
C723 H717 0.950 1_455 S
C723 C722 1.327 . S
C723 C727 1.429 . S
C724 C707 1.574 . S
C724 H718 0.949 1_655 S
C724 C728 1.368 . S
C725 C706 1.429 . S
C725 C719 1.429 . S
C725 C726 1.523 . S
C726 C707 1.368 . S
C726 C720 1.368 . S
C726 C725 1.523 . S
C727 C711 1.429 . S
C727 C723 1.429 . S
C727 C728 1.523 1_455 S
C728 C712 1.368 . S
C728 C724 1.368 . S
C728 C727 1.523 1_655 S
H729 C704 0.950 . S
H730 C706 0.950 . S
H731 C707 0.949 . S
H732 C709 0.950 . S
H733 C711 0.950 . S
C734 C735 1.349 . S
C734 C736 1.327 . S
C734 H759 0.950 . S
C735 C734 1.349 . S
C735 C751 1.349 . S
C736 C734 1.327 . S
C736 C755 1.429 . S
C736 H760 0.950 . S
C737 C754 1.574 . S
C737 C756 1.368 . S
C737 H761 0.949 . S
H738 C742 0.949 . S
C739 C740 1.349 . S
C739 C741 1.327 . S
C739 H762 0.950 . S
C740 C739 1.349 . S
C740 C752 1.349 . S
C741 C739 1.327 . S
C741 C757 1.429 1_545 S
C741 H763 0.950 . S
C742 H738 0.949 . S
C742 C750 1.574 . S
C742 C758 1.368 . S
H743 C751 0.950 . S
H744 C749 0.950 . S
H745 C750 0.949 . S
H746 C752 0.950 . S
H747 C753 0.950 . S
H748 C754 0.949 . S
C749 H744 0.950 . S
C749 C751 1.327 . S
C749 C755 1.429 . S
C750 C742 1.574 . S
C750 H745 0.949 . S
C750 C756 1.368 . S
C751 C735 1.349 . S
C751 H743 0.950 . S
C751 C749 1.327 . S
C752 C740 1.349 . S
C752 H746 0.950 . S
C752 C753 1.327 . S
C753 H747 0.950 . S
C753 C752 1.327 . S
C753 C757 1.429 1_545 S
C754 C737 1.574 . S
C754 H748 0.949 . S
C754 C758 1.368 . S
C755 C736 1.429 . S
C755 C749 1.429 . S
C755 C756 1.523 . S
C756 C737 1.368 . S
C756 C750 1.368 . S
C756 C755 1.523 . S
C757 C741 1.429 1_565 S
C757 C753 1.429 1_565 S
C757 C758 1.523 . S
C758 C742 1.368 . S
C758 C754 1.368 . S
C758 C757 1.523 . S
H759 C734 0.950 . S
H760 C736 0.950 . S
H761 C737 0.949 . S
H762 C739 0.950 . S
H763 C741 0.950 . S
C764 C765 1.349 . S
C764 C766 1.327 . S
C764 H789 0.950 . S
C765 C764 1.349 . S
C765 C781 1.349 . S
C766 C764 1.327 . S
C766 C785 1.429 . S
C766 H790 0.950 . S
C767 C784 1.574 . S
C767 C786 1.368 . S
C767 H791 0.949 . S
H768 C772 0.949 . S
C769 C770 1.349 . S
C769 C771 1.327 . S
C769 H792 0.950 . S
C770 C769 1.349 . S
C770 C782 1.349 . S
C771 C769 1.327 . S
C771 C787 1.429 . S
C771 H793 0.950 . S
C772 H768 0.949 . S
C772 C780 1.574 1_655 S
C772 C788 1.368 . S
H773 C781 0.950 . S
H774 C779 0.950 . S
H775 C780 0.949 . S
H776 C782 0.950 . S
H777 C783 0.950 . S
H778 C784 0.949 . S
C779 H774 0.950 . S
C779 C781 1.327 . S
C779 C785 1.429 . S
C780 C772 1.574 1_455 S
C780 H775 0.949 . S
C780 C786 1.368 . S
C781 C765 1.349 . S
C781 H773 0.950 . S
C781 C779 1.327 . S
C782 C770 1.349 . S
C782 H776 0.950 . S
C782 C783 1.327 . S
C783 H777 0.950 . S
C783 C782 1.327 . S
C783 C787 1.429 . S
C784 C767 1.574 . S
C784 H778 0.949 . S
C784 C788 1.368 1_455 S
C785 C766 1.429 . S
C785 C779 1.429 . S
C785 C786 1.523 . S
C786 C767 1.368 . S
C786 C780 1.368 . S
C786 C785 1.523 . S
C787 C771 1.429 . S
C787 C783 1.429 . S
C787 C788 1.523 . S
C788 C772 1.368 . S
C788 C784 1.368 1_655 S
C788 C787 1.523 . S
H789 C764 0.950 . S
H790 C766 0.950 . S
H791 C767 0.949 . S
H792 C769 0.950 . S
H793 C771 0.950 . S
C794 C795 1.349 . S
C794 C796 1.327 . S
C794 H819 0.950 . S
C795 C794 1.349 . S
C795 C811 1.349 . S
C796 C794 1.327 . S
C796 C815 1.429 1_565 S
C796 H820 0.941 1_565 S
C797 C814 1.574 . S
C797 C816 1.368 . S
C797 H821 0.949 . S
H798 C802 0.949 . S
C799 C800 1.349 . S
C799 C801 1.327 . S
C799 H822 0.950 . S
C800 C799 1.349 . S
C800 C812 1.349 . S
C801 C799 1.327 . S
C801 C817 1.429 . S
C801 H823 0.950 . S
C802 H798 0.949 . S
C802 C810 1.574 . S
C802 C818 1.368 . S
H803 C811 0.950 . S
H804 C809 0.950 1_545 S
H805 C810 0.949 . S
H806 C812 0.950 . S
H807 C813 0.950 . S
H808 C814 0.949 . S
C809 H804 0.950 1_565 S
C809 C811 1.327 . S
C809 C815 1.429 1_565 S
C810 C802 1.574 . S
C810 H805 0.949 . S
C810 C816 1.368 . S
C811 C795 1.349 . S
C811 H803 0.950 . S
C811 C809 1.327 . S
C812 C800 1.349 . S
C812 H806 0.950 . S
C812 C813 1.327 . S
C813 H807 0.950 . S
C813 C812 1.327 . S
C813 C817 1.429 . S
C814 C797 1.574 . S
C814 H808 0.949 . S
C814 C818 1.368 . S
C815 C796 1.429 1_545 S
C815 C809 1.429 1_545 S
C815 C816 1.523 . S
C816 C797 1.368 . S
C816 C810 1.368 . S
C816 C815 1.523 . S
C817 C801 1.429 . S
C817 C813 1.429 . S
C817 C818 1.523 . S
C818 C802 1.368 . S
C818 C814 1.368 . S
C818 C817 1.523 . S
H819 C794 0.950 . S
H820 C796 0.941 1_545 S
H821 C797 0.949 . S
H822 C799 0.950 . S
H823 C801 0.950 . S
C824 C825 1.349 . S
C824 C826 1.327 . S
C824 H849 0.950 . S
C825 C824 1.349 . S
C825 C841 1.349 . S
C826 C824 1.327 . S
C826 C845 1.429 . S
C826 H850 0.950 . S
C827 C844 1.574 . S
C827 C846 1.368 . S
C827 H851 0.949 . S
H828 C832 0.949 . S
C829 C830 1.349 . S
C829 C831 1.327 . S
C829 H852 0.950 . S
C830 C829 1.349 . S
C830 C842 1.349 . S
C831 C829 1.327 . S
C831 C847 1.429 . S
C831 H853 0.950 . S
C832 H828 0.949 . S
C832 C840 1.574 . S
C832 C848 1.368 . S
H833 C841 0.950 . S
H834 C839 0.950 . S
H835 C840 0.949 . S
H836 C842 0.950 . S
H837 C843 0.950 . S
H838 C844 0.949 . S
C839 H834 0.950 . S
C839 C841 1.327 . S
C839 C845 1.429 . S
C840 C832 1.574 . S
C840 H835 0.949 . S
C840 C846 1.368 . S
C841 C825 1.349 . S
C841 H833 0.950 . S
C841 C839 1.327 . S
C842 C830 1.349 . S
C842 H836 0.950 . S
C842 C843 1.327 . S
C843 H837 0.950 . S
C843 C842 1.327 . S
C843 C847 1.429 . S
C844 C827 1.574 . S
C844 H838 0.949 . S
C844 C848 1.368 . S
C845 C826 1.429 . S
C845 C839 1.429 . S
C845 C846 1.523 . S
C846 C827 1.368 . S
C846 C840 1.368 . S
C846 C845 1.523 . S
C847 C831 1.429 . S
C847 C843 1.429 . S
C847 C848 1.523 . S
C848 C832 1.368 . S
C848 C844 1.368 . S
C848 C847 1.523 . S
H849 C824 0.950 . S
H850 C826 0.950 . S
H851 C827 0.949 . S
H852 C829 0.950 . S
H853 C831 0.950 . S
C854 C855 1.349 . S
C854 C856 1.327 . S
C854 H879 0.950 . S
C855 C854 1.349 . S
C855 C871 1.349 . S
C856 C854 1.327 . S
C856 C875 1.429 . S
C856 H880 0.950 . S
C857 C874 1.574 . S
C857 C876 1.368 . S
C857 H881 0.949 . S
H858 C862 0.949 . S
C859 C860 1.349 . S
C859 C861 1.327 . S
C859 H882 0.950 . S
C860 C859 1.349 . S
C860 C872 1.349 . S
C861 C859 1.327 . S
C861 C877 1.429 . S
C861 H883 0.950 . S
C862 H858 0.949 . S
C862 C870 1.574 . S
C862 C878 1.368 . S
H863 C871 0.950 . S
H864 C869 0.950 . S
H865 C870 0.949 . S
H866 C872 0.950 . S
H867 C873 0.950 . S
H868 C874 0.949 . S
C869 H864 0.950 . S
C869 C871 1.327 . S
C869 C875 1.429 . S
C870 C862 1.574 . S
C870 H865 0.949 . S
C870 C876 1.368 . S
C871 C855 1.349 . S
C871 H863 0.950 . S
C871 C869 1.327 . S
C872 C860 1.349 . S
C872 H866 0.950 . S
C872 C873 1.327 . S
C873 H867 0.950 . S
C873 C872 1.327 . S
C873 C877 1.429 . S
C874 C857 1.574 . S
C874 H868 0.949 . S
C874 C878 1.368 . S
C875 C856 1.429 . S
C875 C869 1.429 . S
C875 C876 1.523 . S
C876 C857 1.368 . S
C876 C870 1.368 . S
C876 C875 1.523 . S
C877 C861 1.429 . S
C877 C873 1.429 . S
C877 C878 1.523 . S
C878 C862 1.368 . S
C878 C874 1.368 . S
C878 C877 1.523 . S
H879 C854 0.950 . S
H880 C856 0.950 . S
H881 C857 0.949 . S
H882 C859 0.950 . S
H883 C861 0.950 . S
C884 C885 1.349 . S
C884 C886 1.327 . S
C884 H909 0.950 . S
C885 C884 1.349 . S
C885 C901 1.349 . S
C886 C884 1.327 . S
C886 C905 1.429 . S
C886 H910 0.950 . S
C887 C904 1.574 . S
C887 C906 1.368 . S
C887 H911 0.949 . S
H888 C892 0.949 . S
C889 C890 1.349 . S
C889 C891 1.327 . S
C889 H912 0.950 . S
C890 C889 1.349 . S
C890 C902 1.349 . S
C891 C889 1.327 . S
C891 C907 1.429 . S
C891 H913 0.950 . S
C892 H888 0.949 . S
C892 C900 1.574 . S
C892 C908 1.368 . S
H893 C901 0.950 . S
H894 C899 0.950 . S
H895 C900 0.949 . S
H896 C902 0.950 . S
H897 C903 0.950 . S
H898 C904 0.949 . S
C899 H894 0.950 . S
C899 C901 1.327 . S
C899 C905 1.429 . S
C900 C892 1.574 . S
C900 H895 0.949 . S
C900 C906 1.368 . S
C901 C885 1.349 . S
C901 H893 0.950 . S
C901 C899 1.327 . S
C902 C890 1.349 . S
C902 H896 0.950 . S
C902 C903 1.327 . S
C903 H897 0.950 . S
C903 C902 1.327 . S
C903 C907 1.429 . S
C904 C887 1.574 . S
C904 H898 0.949 . S
C904 C908 1.368 . S
C905 C886 1.429 . S
C905 C899 1.429 . S
C905 C906 1.523 . S
C906 C887 1.368 . S
C906 C900 1.368 . S
C906 C905 1.523 . S
C907 C891 1.429 . S
C907 C903 1.429 . S
C907 C908 1.523 . S
C908 C892 1.368 . S
C908 C904 1.368 . S
C908 C907 1.523 . S
H909 C884 0.950 . S
H910 C886 0.950 . S
H911 C887 0.949 . S
H912 C889 0.950 . S
H913 C891 0.950 . S
C914 C915 1.349 . S
C914 C916 1.327 . S
C914 H939 0.950 . S
C915 C914 1.349 . S
C915 C931 1.349 . S
C916 C914 1.327 . S
C916 C935 1.429 . S
C916 H940 0.950 . S
C917 C934 1.574 . S
C917 C936 1.368 . S
C917 H941 0.949 . S
H918 C922 0.949 . S
C919 C920 1.349 . S
C919 C921 1.327 . S
C919 H942 0.950 . S
C920 C919 1.349 . S
C920 C932 1.349 . S
C921 C919 1.327 . S
C921 C937 1.429 . S
C921 H943 0.950 . S
C922 H918 0.949 . S
C922 C930 1.574 . S
C922 C938 1.368 . S
H923 C931 0.950 . S
H924 C929 0.950 . S
H925 C930 0.949 . S
H926 C932 0.950 . S
H927 C933 0.950 . S
H928 C934 0.949 . S
C929 H924 0.950 . S
C929 C931 1.327 . S
C929 C935 1.429 . S
C930 C922 1.574 . S
C930 H925 0.949 . S
C930 C936 1.368 . S
C931 C915 1.349 . S
C931 H923 0.950 . S
C931 C929 1.327 . S
C932 C920 1.349 . S
C932 H926 0.950 . S
C932 C933 1.327 . S
C933 H927 0.950 . S
C933 C932 1.327 . S
C933 C937 1.429 . S
C934 C917 1.574 . S
C934 H928 0.949 . S
C934 C938 1.368 . S
C935 C916 1.429 . S
C935 C929 1.429 . S
C935 C936 1.523 . S
C936 C917 1.368 . S
C936 C930 1.368 . S
C936 C935 1.523 . S
C937 C921 1.429 . S
C937 C933 1.429 . S
C937 C938 1.523 . S
C938 C922 1.368 . S
C938 C934 1.368 . S
C938 C937 1.523 . S
H939 C914 0.950 . S
H940 C916 0.950 . S
H941 C917 0.949 . S
H942 C919 0.950 . S
H943 C921 0.950 . S
C944 C945 1.349 . S
C944 C946 1.327 . S
C944 H969 0.950 . S
C945 C944 1.349 . S
C945 C961 1.349 . S
C946 C944 1.327 . S
C946 C965 1.429 . S
C946 H970 0.950 . S
C947 C964 1.574 . S
C947 C966 1.368 . S
C947 H971 0.949 . S
H948 C952 0.949 . S
C949 C950 1.349 . S
C949 C951 1.327 . S
C949 H972 0.950 . S
C950 C949 1.349 . S
C950 C962 1.349 . S
C951 C949 1.327 . S
C951 C967 1.429 . S
C951 H973 0.950 . S
C952 H948 0.949 . S
C952 C960 1.574 . S
C952 C968 1.368 . S
H953 C961 0.950 . S
H954 C959 0.950 . S
H955 C960 0.949 . S
H956 C962 0.950 . S
H957 C963 0.950 . S
H958 C964 0.949 . S
C959 H954 0.950 . S
C959 C961 1.327 . S
C959 C965 1.429 . S
C960 C952 1.574 . S
C960 H955 0.949 . S
C960 C966 1.368 . S
C961 C945 1.349 . S
C961 H953 0.950 . S
C961 C959 1.327 . S
C962 C950 1.349 . S
C962 H956 0.950 . S
C962 C963 1.327 . S
C963 H957 0.950 . S
C963 C962 1.327 . S
C963 C967 1.429 . S
C964 C947 1.574 . S
C964 H958 0.949 . S
C964 C968 1.368 . S
C965 C946 1.429 . S
C965 C959 1.429 . S
C965 C966 1.523 . S
C966 C947 1.368 . S
C966 C960 1.368 . S
C966 C965 1.523 . S
C967 C951 1.429 . S
C967 C963 1.429 . S
C967 C968 1.523 . S
C968 C952 1.368 . S
C968 C964 1.368 . S
C968 C967 1.523 . S
H969 C944 0.950 . S
H970 C946 0.950 . S
H971 C947 0.949 . S
H972 C949 0.950 . S
H973 C951 0.950 . S
C974 C975 1.349 . S
C974 C976 1.327 . S
C974 H999 0.950 . S
C975 C974 1.349 . S
C975 C991 1.349 . S
C976 C974 1.327 . S
C976 C995 1.429 . S
C976 H1000 0.950 . S
C977 C994 1.574 . S
C977 C996 1.368 . S
C977 H1001 0.949 . S
H978 C982 0.949 . S
C979 C980 1.349 . S
C979 C981 1.327 . S
C979 H1002 0.950 . S
C980 C979 1.349 . S
C980 C992 1.349 . S
C981 C979 1.327 . S
C981 C997 1.429 . S
C981 H1003 0.950 . S
C982 H978 0.949 . S
C982 C990 1.574 . S
C982 C998 1.368 . S
H983 C991 0.950 . S
H984 C989 0.950 . S
H985 C990 0.949 . S
H986 C992 0.950 . S
H987 C993 0.950 . S
H988 C994 0.949 . S
C989 H984 0.950 . S
C989 C991 1.327 . S
C989 C995 1.429 . S
C990 C982 1.574 . S
C990 H985 0.949 . S
C990 C996 1.368 . S
C991 C975 1.349 . S
C991 H983 0.950 . S
C991 C989 1.327 . S
C992 C980 1.349 . S
C992 H986 0.950 . S
C992 C993 1.327 . S
C993 H987 0.950 . S
C993 C992 1.327 . S
C993 C997 1.429 . S
C994 C977 1.574 . S
C994 H988 0.949 . S
C994 C998 1.368 . S
C995 C976 1.429 . S
C995 C989 1.429 . S
C995 C996 1.523 . S
C996 C977 1.368 . S
C996 C990 1.368 . S
C996 C995 1.523 . S
C997 C981 1.429 . S
C997 C993 1.429 . S
C997 C998 1.523 . S
C998 C982 1.368 . S
C998 C994 1.368 . S
C998 C997 1.523 . S
H999 C974 0.950 . S
H1000 C976 0.950 . S
H1001 C977 0.949 . S
H1002 C979 0.950 . S
H1003 C981 0.950 . S
C1004 C1005 1.349 . S
C1004 C1006 1.327 . S
C1004 H1029 0.950 . S
C1005 C1004 1.349 . S
C1005 C1021 1.349 . S
C1006 C1004 1.327 . S
C1006 C1025 1.429 . S
C1006 H1030 0.950 . S
C1007 C1024 1.574 . S
C1007 C1026 1.368 . S
C1007 H1031 0.949 . S
H1008 C1012 0.949 . S
C1009 C1010 1.349 . S
C1009 C1011 1.327 . S
C1009 H1032 0.950 . S
C1010 C1009 1.349 . S
C1010 C1022 1.349 . S
C1011 C1009 1.327 . S
C1011 C1027 1.429 . S
C1011 H1033 0.950 . S
C1012 H1008 0.949 . S
C1012 C1020 1.574 . S
C1012 C1028 1.368 . S
H1013 C1021 0.950 . S
H1014 C1019 0.950 . S
H1015 C1020 0.949 . S
H1016 C1022 0.950 . S
H1017 C1023 0.950 . S
H1018 C1024 0.949 . S
C1019 H1014 0.950 . S
C1019 C1021 1.327 . S
C1019 C1025 1.429 . S
C1020 C1012 1.574 . S
C1020 H1015 0.949 . S
C1020 C1026 1.368 . S
C1021 C1005 1.349 . S
C1021 H1013 0.950 . S
C1021 C1019 1.327 . S
C1022 C1010 1.349 . S
C1022 H1016 0.950 . S
C1022 C1023 1.327 . S
C1023 H1017 0.950 . S
C1023 C1022 1.327 . S
C1023 C1027 1.429 . S
C1024 C1007 1.574 . S
C1024 H1018 0.949 . S
C1024 C1028 1.368 . S
C1025 C1006 1.429 . S
C1025 C1019 1.429 . S
C1025 C1026 1.523 . S
C1026 C1007 1.368 . S
C1026 C1020 1.368 . S
C1026 C1025 1.523 . S
C1027 C1011 1.429 . S
C1027 C1023 1.429 . S
C1027 C1028 1.523 . S
C1028 C1012 1.368 . S
C1028 C1024 1.368 . S
C1028 C1027 1.523 . S
H1029 C1004 0.950 . S
H1030 C1006 0.950 . S
H1031 C1007 0.949 . S
H1032 C1009 0.950 . S
H1033 C1011 0.950 . S
C1034 C1035 1.349 . S
C1034 C1036 1.327 . S
C1034 H1059 0.950 . S
C1035 C1034 1.349 . S
C1035 C1051 1.349 . S
C1036 C1034 1.327 . S
C1036 C1055 1.429 . S
C1036 H1060 0.950 . S
C1037 C1054 1.574 . S
C1037 C1056 1.368 . S
C1037 H1061 0.949 . S
H1038 C1042 0.949 . S
C1039 C1040 1.349 . S
C1039 C1041 1.327 . S
C1039 H1062 0.950 . S
C1040 C1039 1.349 . S
C1040 C1052 1.349 . S
C1041 C1039 1.327 . S
C1041 C1057 1.429 . S
C1041 H1063 0.950 . S
C1042 H1038 0.949 . S
C1042 C1050 1.574 . S
C1042 C1058 1.368 . S
H1043 C1051 0.950 . S
H1044 C1049 0.950 . S
H1045 C1050 0.949 . S
H1046 C1052 0.950 . S
H1047 C1053 0.950 . S
H1048 C1054 0.949 . S
C1049 H1044 0.950 . S
C1049 C1051 1.327 . S
C1049 C1055 1.429 . S
C1050 C1042 1.574 . S
C1050 H1045 0.949 . S
C1050 C1056 1.368 . S
C1051 C1035 1.349 . S
C1051 H1043 0.950 . S
C1051 C1049 1.327 . S
C1052 C1040 1.349 . S
C1052 H1046 0.950 . S
C1052 C1053 1.327 . S
C1053 H1047 0.950 . S
C1053 C1052 1.327 . S
C1053 C1057 1.429 . S
C1054 C1037 1.574 . S
C1054 H1048 0.949 . S
C1054 C1058 1.368 . S
C1055 C1036 1.429 . S
C1055 C1049 1.429 . S
C1055 C1056 1.523 . S
C1056 C1037 1.368 . S
C1056 C1050 1.368 . S
C1056 C1055 1.523 . S
C1057 C1041 1.429 . S
C1057 C1053 1.429 . S
C1057 C1058 1.523 . S
C1058 C1042 1.368 . S
C1058 C1054 1.368 . S
C1058 C1057 1.523 . S
H1059 C1034 0.950 . S
H1060 C1036 0.950 . S
H1061 C1037 0.949 . S
H1062 C1039 0.950 . S
H1063 C1041 0.950 . S
C1064 C1065 1.349 . S
C1064 C1066 1.327 . S
C1064 H1089 0.950 . S
C1065 C1064 1.349 . S
C1065 C1081 1.349 . S
C1066 C1064 1.327 . S
C1066 C1085 1.429 . S
C1066 H1090 0.950 . S
C1067 C1084 1.574 . S
C1067 C1086 1.368 . S
C1067 H1091 0.949 . S
H1068 C1072 0.949 . S
C1069 C1070 1.349 . S
C1069 C1071 1.327 . S
C1069 H1092 0.950 . S
C1070 C1069 1.349 . S
C1070 C1082 1.349 . S
C1071 C1069 1.327 . S
C1071 C1087 1.429 . S
C1071 H1093 0.950 . S
C1072 H1068 0.949 . S
C1072 C1080 1.574 . S
C1072 C1088 1.368 . S
H1073 C1081 0.950 . S
H1074 C1079 0.950 . S
H1075 C1080 0.949 . S
H1076 C1082 0.950 . S
H1077 C1083 0.950 . S
H1078 C1084 0.949 . S
C1079 H1074 0.950 . S
C1079 C1081 1.327 . S
C1079 C1085 1.429 . S
C1080 C1072 1.574 . S
C1080 H1075 0.949 . S
C1080 C1086 1.368 . S
C1081 C1065 1.349 . S
C1081 H1073 0.950 . S
C1081 C1079 1.327 . S
C1082 C1070 1.349 . S
C1082 H1076 0.950 . S
C1082 C1083 1.327 . S
C1083 H1077 0.950 . S
C1083 C1082 1.327 . S
C1083 C1087 1.429 . S
C1084 C1067 1.574 . S
C1084 H1078 0.949 . S
C1084 C1088 1.368 . S
C1085 C1066 1.429 . S
C1085 C1079 1.429 . S
C1085 C1086 1.523 . S
C1086 C1067 1.368 . S
C1086 C1080 1.368 . S
C1086 C1085 1.523 . S
C1087 C1071 1.429 . S
C1087 C1083 1.429 . S
C1087 C1088 1.523 . S
C1088 C1072 1.368 . S
C1088 C1084 1.368 . S
C1088 C1087 1.523 . S
H1089 C1064 0.950 . S
H1090 C1066 0.950 . S
H1091 C1067 0.949 . S
H1092 C1069 0.950 . S
H1093 C1071 0.950 . S
C1094 C1095 1.349 . S
C1094 C1096 1.327 . S
C1094 H1119 0.950 . S
C1095 C1094 1.349 . S
C1095 C1111 1.349 . S
C1096 C1094 1.327 . S
C1096 C1115 1.429 . S
C1096 H1120 0.950 . S
C1097 C1114 1.574 . S
C1097 C1116 1.368 . S
C1097 H1121 0.949 . S
H1098 C1102 0.949 . S
C1099 C1100 1.349 . S
C1099 C1101 1.327 . S
C1099 H1122 0.950 . S
C1100 C1099 1.349 . S
C1100 C1112 1.349 . S
C1101 C1099 1.327 . S
C1101 C1117 1.429 . S
C1101 H1123 0.950 . S
C1102 H1098 0.949 . S
C1102 C1110 1.574 . S
C1102 C1118 1.368 . S
H1103 C1111 0.950 . S
H1104 C1109 0.950 . S
H1105 C1110 0.949 . S
H1106 C1112 0.950 . S
H1107 C1113 0.950 . S
H1108 C1114 0.949 . S
C1109 H1104 0.950 . S
C1109 C1111 1.327 . S
C1109 C1115 1.429 . S
C1110 C1102 1.574 . S
C1110 H1105 0.949 . S
C1110 C1116 1.368 . S
C1111 C1095 1.349 . S
C1111 H1103 0.950 . S
C1111 C1109 1.327 . S
C1112 C1100 1.349 . S
C1112 H1106 0.950 . S
C1112 C1113 1.327 . S
C1113 H1107 0.950 . S
C1113 C1112 1.327 . S
C1113 C1117 1.429 . S
C1114 C1097 1.574 . S
C1114 H1108 0.949 . S
C1114 C1118 1.368 . S
C1115 C1096 1.429 . S
C1115 C1109 1.429 . S
C1115 C1116 1.523 . S
C1116 C1097 1.368 . S
C1116 C1110 1.368 . S
C1116 C1115 1.523 . S
C1117 C1101 1.429 . S
C1117 C1113 1.429 . S
C1117 C1118 1.523 . S
C1118 C1102 1.368 . S
C1118 C1114 1.368 . S
C1118 C1117 1.523 . S
H1119 C1094 0.950 . S
H1120 C1096 0.950 . S
H1121 C1097 0.949 . S
H1122 C1099 0.950 . S
H1123 C1101 0.950 . S
C1124 C1125 1.349 . S
C1124 C1126 1.327 . S
C1124 H1149 0.950 . S
C1125 C1124 1.349 . S
C1125 C1141 1.349 . S
C1126 C1124 1.327 . S
C1126 C1145 1.429 . S
C1126 H1150 0.950 . S
C1127 C1144 1.574 . S
C1127 C1146 1.368 . S
C1127 H1151 0.949 . S
H1128 C1132 0.949 . S
C1129 C1130 1.349 . S
C1129 C1131 1.327 . S
C1129 H1152 0.950 . S
C1130 C1129 1.349 . S
C1130 C1142 1.349 . S
C1131 C1129 1.327 . S
C1131 C1147 1.429 . S
C1131 H1153 0.950 . S
C1132 H1128 0.949 . S
C1132 C1140 1.574 . S
C1132 C1148 1.368 . S
H1133 C1141 0.950 . S
H1134 C1139 0.950 . S
H1135 C1140 0.949 . S
H1136 C1142 0.950 . S
H1137 C1143 0.950 . S
H1138 C1144 0.949 . S
C1139 H1134 0.950 . S
C1139 C1141 1.327 . S
C1139 C1145 1.429 . S
C1140 C1132 1.574 . S
C1140 H1135 0.949 . S
C1140 C1146 1.368 . S
C1141 C1125 1.349 . S
C1141 H1133 0.950 . S
C1141 C1139 1.327 . S
C1142 C1130 1.349 . S
C1142 H1136 0.950 . S
C1142 C1143 1.327 . S
C1143 H1137 0.950 . S
C1143 C1142 1.327 . S
C1143 C1147 1.429 . S
C1144 C1127 1.574 . S
C1144 H1138 0.949 . S
C1144 C1148 1.368 . S
C1145 C1126 1.429 . S
C1145 C1139 1.429 . S
C1145 C1146 1.523 . S
C1146 C1127 1.368 . S
C1146 C1140 1.368 . S
C1146 C1145 1.523 . S
C1147 C1131 1.429 . S
C1147 C1143 1.429 . S
C1147 C1148 1.523 . S
C1148 C1132 1.368 . S
C1148 C1144 1.368 . S
C1148 C1147 1.523 . S
H1149 C1124 0.950 . S
H1150 C1126 0.950 . S
H1151 C1127 0.949 . S
H1152 C1129 0.950 . S
H1153 C1131 0.950 . S
C1154 C1155 1.349 . S
C1154 C1156 1.327 . S
C1154 H1179 0.950 . S
C1155 C1154 1.349 . S
C1155 C1171 1.349 . S
C1156 C1154 1.327 . S
C1156 C1175 1.429 . S
C1156 H1180 0.950 . S
C1157 C1174 1.574 . S
C1157 C1176 1.368 . S
C1157 H1181 0.949 . S
H1158 C1162 0.949 . S
C1159 C1160 1.349 . S
C1159 C1161 1.327 . S
C1159 H1182 0.950 . S
C1160 C1159 1.349 . S
C1160 C1172 1.349 . S
C1161 C1159 1.327 . S
C1161 C1177 1.429 . S
C1161 H1183 0.950 . S
C1162 H1158 0.949 . S
C1162 C1170 1.574 . S
C1162 C1178 1.368 . S
H1163 C1171 0.950 . S
H1164 C1169 0.950 . S
H1165 C1170 0.949 . S
H1166 C1172 0.950 . S
H1167 C1173 0.950 . S
H1168 C1174 0.949 . S
C1169 H1164 0.950 . S
C1169 C1171 1.327 . S
C1169 C1175 1.429 . S
C1170 C1162 1.574 . S
C1170 H1165 0.949 . S
C1170 C1176 1.368 . S
C1171 C1155 1.349 . S
C1171 H1163 0.950 . S
C1171 C1169 1.327 . S
C1172 C1160 1.349 . S
C1172 H1166 0.950 . S
C1172 C1173 1.327 . S
C1173 H1167 0.950 . S
C1173 C1172 1.327 . S
C1173 C1177 1.429 . S
C1174 C1157 1.574 . S
C1174 H1168 0.949 . S
C1174 C1178 1.368 . S
C1175 C1156 1.429 . S
C1175 C1169 1.429 . S
C1175 C1176 1.523 . S
C1176 C1157 1.368 . S
C1176 C1170 1.368 . S
C1176 C1175 1.523 . S
C1177 C1161 1.429 . S
C1177 C1173 1.429 . S
C1177 C1178 1.523 . S
C1178 C1162 1.368 . S
C1178 C1174 1.368 . S
C1178 C1177 1.523 . S
H1179 C1154 0.950 . S
H1180 C1156 0.950 . S
H1181 C1157 0.949 . S
H1182 C1159 0.950 . S
H1183 C1161 0.950 . S
C225 C216 1.004 . S
C230 C6 1.024 . S
C255 C174 1.074 . S
C260 C20 1.071 . S
C285 C34 1.141 . S
C290 C188 1.075 . S
C315 C202 1.240 . S
C320 C48 1.320 . S
C345 C132 1.071 . S
C350 C62 1.074 . S
C375 C76 1.075 . S
C380 C146 1.141 . S
C405 C90 1.240 . S
C410 C160 1.320 . S
C435 C104 1.004 . S
C440 C118 1.024 . S
C465 C79 2.113 . S
C470 C7 1.975 . S
C495 C91 1.327 . S
C500 C21 1.349 . S
C525 C107 1.307 . S
C530 C35 1.191 . S
C555 C49 1.435 . S
C560 C64 1.566 . S
C585 C8 1.221 . S
C590 C23 1.177 . S
C615 C37 1.303 . S
C620 C22 1.323 . S
C645 C36 1.362 . S
C650 C51 1.357 . S
C675 C9 1.654 . S
C680 C50 1.660 . S
C705 C106 1.591 . S
C710 C65 1.502 . S
C735 C63 1.337 . S
C740 C77 1.289 . S
C765 C78 1.596 . S
C770 C92 1.584 . S
C795 C105 1.651 . S
C800 C93 1.792 . S
C825 C191 2.113 . S
C830 C119 1.975 . S
C855 C133 1.349 . S
C860 C203 1.327 . S
C885 C219 1.307 . S
C890 C147 1.191 . S
C915 C176 1.566 . S
C920 C161 1.435 . S
C945 C120 1.221 . S
C950 C135 1.177 . S
C975 C134 1.323 . S
C980 C149 1.303 . S
C1005 C163 1.357 . S
C1010 C148 1.362 . S
C1035 C121 1.654 . S
C1040 C162 1.660 . S
C1065 C218 1.591 . S
C1070 C177 1.502 . S
C1095 C175 1.337 . S
C1100 C189 1.289 . S
C1125 C190 1.596 . S
C1130 C204 1.584 . S
C1155 C217 1.651 . S
C1160 C205 1.792 . S
