# Generated by pormake.
# Topology rho, (4)-cn, num edge types: 1
# Building blocks:
#     Node 0, Type 0, BuildingBlock: NAHDIM_clean_sbu_0, # of connection points: 4
#     Node 1, Type 0, BuildingBlock: NAHDIM_clean_sbu_0, # of connection points: 4
#     Node 2, Type 0, BuildingBlock: NAHDIM_clean_sbu_0, # of connection points: 4
#     Node 3, Type 0, BuildingBlock: NAHDIM_clean_sbu_0, # of connection points: 4
#     Node 4, Type 0, BuildingBlock: NAHDIM_clean_sbu_0, # of connection points: 4
#     Node 5, Type 0, BuildingBlock: NAHDIM_clean_sbu_0, # of connection points: 4
#     Node 6, Type 0, BuildingBlock: NAHDIM_clean_sbu_0, # of connection points: 4
#     Node 7, Type 0, BuildingBlock: NAHDIM_clean_sbu_0, # of connection points: 4
#     Node 8, Type 0, BuildingBlock: NAHDIM_clean_sbu_0, # of connection points: 4
#     Node 9, Type 0, BuildingBlock: NAHDIM_clean_sbu_0, # of connection points: 4
#     Node 10, Type 0, BuildingBlock: NAHDIM_clean_sbu_0, # of connection points: 4
#     Node 11, Type 0, BuildingBlock: NAHDIM_clean_sbu_0, # of connection points: 4
#     Node 12, Type 0, BuildingBlock: NAHDIM_clean_sbu_0, # of connection points: 4
#     Node 13, Type 0, BuildingBlock: NAHDIM_clean_sbu_0, # of connection points: 4
#     Node 14, Type 0, BuildingBlock: NAHDIM_clean_sbu_0, # of connection points: 4
#     Node 15, Type 0, BuildingBlock: NAHDIM_clean_sbu_0, # of connection points: 4
#     Node 16, Type 0, BuildingBlock: NAHDIM_clean_sbu_0, # of connection points: 4
#     Node 17, Type 0, BuildingBlock: NAHDIM_clean_sbu_0, # of connection points: 4
#     Node 18, Type 0, BuildingBlock: NAHDIM_clean_sbu_0, # of connection points: 4
#     Node 19, Type 0, BuildingBlock: NAHDIM_clean_sbu_0, # of connection points: 4
#     Node 20, Type 0, BuildingBlock: NAHDIM_clean_sbu_0, # of connection points: 4
#     Node 21, Type 0, BuildingBlock: NAHDIM_clean_sbu_0, # of connection points: 4
#     Node 22, Type 0, BuildingBlock: NAHDIM_clean_sbu_0, # of connection points: 4
#     Node 23, Type 0, BuildingBlock: NAHDIM_clean_sbu_0, # of connection points: 4
#     Node 24, Type 0, BuildingBlock: NAHDIM_clean_sbu_0, # of connection points: 4
#     Node 25, Type 0, BuildingBlock: NAHDIM_clean_sbu_0, # of connection points: 4
#     Node 26, Type 0, BuildingBlock: NAHDIM_clean_sbu_0, # of connection points: 4
#     Node 27, Type 0, BuildingBlock: NAHDIM_clean_sbu_0, # of connection points: 4
#     Node 28, Type 0, BuildingBlock: NAHDIM_clean_sbu_0, # of connection points: 4
#     Node 29, Type 0, BuildingBlock: NAHDIM_clean_sbu_0, # of connection points: 4
#     Node 30, Type 0, BuildingBlock: NAHDIM_clean_sbu_0, # of connection points: 4
#     Node 31, Type 0, BuildingBlock: NAHDIM_clean_sbu_0, # of connection points: 4
#     Node 32, Type 0, BuildingBlock: NAHDIM_clean_sbu_0, # of connection points: 4
#     Node 33, Type 0, BuildingBlock: NAHDIM_clean_sbu_0, # of connection points: 4
#     Node 34, Type 0, BuildingBlock: NAHDIM_clean_sbu_0, # of connection points: 4
#     Node 35, Type 0, BuildingBlock: NAHDIM_clean_sbu_0, # of connection points: 4
#     Node 36, Type 0, BuildingBlock: NAHDIM_clean_sbu_0, # of connection points: 4
#     Node 37, Type 0, BuildingBlock: NAHDIM_clean_sbu_0, # of connection points: 4
#     Node 38, Type 0, BuildingBlock: NAHDIM_clean_sbu_0, # of connection points: 4
#     Node 39, Type 0, BuildingBlock: NAHDIM_clean_sbu_0, # of connection points: 4
#     Node 40, Type 0, BuildingBlock: NAHDIM_clean_sbu_0, # of connection points: 4
#     Node 41, Type 0, BuildingBlock: NAHDIM_clean_sbu_0, # of connection points: 4
#     Node 42, Type 0, BuildingBlock: NAHDIM_clean_sbu_0, # of connection points: 4
#     Node 43, Type 0, BuildingBlock: NAHDIM_clean_sbu_0, # of connection points: 4
#     Node 44, Type 0, BuildingBlock: NAHDIM_clean_sbu_0, # of connection points: 4
#     Node 45, Type 0, BuildingBlock: NAHDIM_clean_sbu_0, # of connection points: 4
#     Node 46, Type 0, BuildingBlock: NAHDIM_clean_sbu_0, # of connection points: 4
#     Node 47, Type 0, BuildingBlock: NAHDIM_clean_sbu_0, # of connection points: 4
#     Edge 48, Type (0, 0), None
#     Edge 49, Type (0, 0), None
#     Edge 50, Type (0, 0), None
#     Edge 51, Type (0, 0), None
#     Edge 52, Type (0, 0), None
#     Edge 53, Type (0, 0), None
#     Edge 54, Type (0, 0), None
#     Edge 55, Type (0, 0), None
#     Edge 56, Type (0, 0), None
#     Edge 57, Type (0, 0), None
#     Edge 58, Type (0, 0), None
#     Edge 59, Type (0, 0), None
#     Edge 60, Type (0, 0), None
#     Edge 61, Type (0, 0), None
#     Edge 62, Type (0, 0), None
#     Edge 63, Type (0, 0), None
#     Edge 64, Type (0, 0), None
#     Edge 65, Type (0, 0), None
#     Edge 66, Type (0, 0), None
#     Edge 67, Type (0, 0), None
#     Edge 68, Type (0, 0), None
#     Edge 69, Type (0, 0), None
#     Edge 70, Type (0, 0), None
#     Edge 71, Type (0, 0), None
#     Edge 72, Type (0, 0), None
#     Edge 73, Type (0, 0), None
#     Edge 74, Type (0, 0), None
#     Edge 75, Type (0, 0), None
#     Edge 76, Type (0, 0), None
#     Edge 77, Type (0, 0), None
#     Edge 78, Type (0, 0), None
#     Edge 79, Type (0, 0), None
#     Edge 80, Type (0, 0), None
#     Edge 81, Type (0, 0), None
#     Edge 82, Type (0, 0), None
#     Edge 83, Type (0, 0), None
#     Edge 84, Type (0, 0), None
#     Edge 85, Type (0, 0), None
#     Edge 86, Type (0, 0), None
#     Edge 87, Type (0, 0), None
#     Edge 88, Type (0, 0), None
#     Edge 89, Type (0, 0), None
#     Edge 90, Type (0, 0), None
#     Edge 91, Type (0, 0), None
#     Edge 92, Type (0, 0), None
#     Edge 93, Type (0, 0), None
#     Edge 94, Type (0, 0), None
#     Edge 95, Type (0, 0), None
#     Edge 96, Type (0, 0), None
#     Edge 97, Type (0, 0), None
#     Edge 98, Type (0, 0), None
#     Edge 99, Type (0, 0), None
#     Edge 100, Type (0, 0), None
#     Edge 101, Type (0, 0), None
#     Edge 102, Type (0, 0), None
#     Edge 103, Type (0, 0), None
#     Edge 104, Type (0, 0), None
#     Edge 105, Type (0, 0), None
#     Edge 106, Type (0, 0), None
#     Edge 107, Type (0, 0), None
#     Edge 108, Type (0, 0), None
#     Edge 109, Type (0, 0), None
#     Edge 110, Type (0, 0), None
#     Edge 111, Type (0, 0), None
#     Edge 112, Type (0, 0), None
#     Edge 113, Type (0, 0), None
#     Edge 114, Type (0, 0), None
#     Edge 115, Type (0, 0), None
#     Edge 116, Type (0, 0), None
#     Edge 117, Type (0, 0), None
#     Edge 118, Type (0, 0), None
#     Edge 119, Type (0, 0), None
#     Edge 120, Type (0, 0), None
#     Edge 121, Type (0, 0), None
#     Edge 122, Type (0, 0), None
#     Edge 123, Type (0, 0), None
#     Edge 124, Type (0, 0), None
#     Edge 125, Type (0, 0), None
#     Edge 126, Type (0, 0), None
#     Edge 127, Type (0, 0), None
#     Edge 128, Type (0, 0), None
#     Edge 129, Type (0, 0), None
#     Edge 130, Type (0, 0), None
#     Edge 131, Type (0, 0), None
#     Edge 132, Type (0, 0), None
#     Edge 133, Type (0, 0), None
#     Edge 134, Type (0, 0), None
#     Edge 135, Type (0, 0), None
#     Edge 136, Type (0, 0), None
#     Edge 137, Type (0, 0), None
#     Edge 138, Type (0, 0), None
#     Edge 139, Type (0, 0), None
#     Edge 140, Type (0, 0), None
#     Edge 141, Type (0, 0), None
#     Edge 142, Type (0, 0), None
#     Edge 143, Type (0, 0), None
# Relax obj value: 0.180
# Max RMSD: 0.220
# Mean RMSD: 0.203
data_MOF--net-rho--node1-NAHDIM_clean_sbu_0--edge1-none
_symmetry_space_group_name_H-M    P1
_symmetry_Int_Tables_number       1
_symmetry_cell_setting            triclinic
loop_
_symmetry_equiv_pos_as_xyz
'x, y, z'
_cell_length_a     32.44199
_cell_length_b     32.633519
_cell_length_c     32.346688
_cell_angle_alpha  90.679686
_cell_angle_beta   90.881918
_cell_angle_gamma 92.799586
loop_
_atom_site_label
_atom_site_type_symbol
_atom_site_fract_x
_atom_site_fract_y
_atom_site_fract_z
_atom_type_partial_charge
C0 C 0.19033 0.22933 0.3821 0.0
O1 O 0.20735 0.26665 0.38126 0.0
O2 O 0.13307 0.31881 0.36083 0.0
Zn3 Zn 0.12156 0.27491 0.40269 0.0
O4 O 0.13607 0.29183 0.46145 0.0
C5 C 0.03775 0.23573 0.38349 0.0
O6 O 0.05475 0.20696 0.36182 0.0
O7 O 0.15209 0.22433 0.38947 0.0
C8 C 0.11205 0.31377 0.48188 0.0
O9 O 0.08128 0.33049 0.46262 0.0
C10 C 0.14495 0.35592 0.3679 0.0
O11 O 0.15404 0.36836 0.40584 0.0
O12 O 0.06005 0.26386 0.40142 0.0
C13 C 0.70437 0.10676 0.32461 0.0
O14 O 0.73718 0.12481 0.30822 0.0
O15 O 0.80805 0.11651 0.36525 0.0
Zn16 Zn 0.76266 0.07791 0.38529 0.0
O17 O 0.77359 0.01833 0.37573 0.0
C18 C 0.79051 0.08134 0.46822 0.0
O19 O 0.8242 0.07021 0.45009 0.0
O20 O 0.70794 0.08689 0.35783 0.0
C21 C 0.75058 -0.00532 0.39733 0.0
O22 O 0.72471 0.01071 0.42305 0.0
C23 C 0.84418 0.10628 0.35634 0.0
O24 O 0.85299 0.06744 0.35647 0.0
O25 O 0.75856 0.08752 0.44649 0.0
C26 C 0.78411 0.76929 0.3916 0.0
O27 O 0.77619 0.72945 0.3898 0.0
O28 O 0.86156 0.70084 0.35987 0.0
Zn29 Zn 0.86355 0.74154 0.40733 0.0
O30 O 0.85351 0.718 0.46394 0.0
C31 C 0.94835 0.76152 0.38451 0.0
O32 O 0.93837 0.7396 0.35124 0.0
O33 O 0.82097 0.78313 0.39789 0.0
C34 C 0.88265 0.70141 0.48322 0.0
O35 O 0.91583 0.69225 0.46299 0.0
C36 C 0.85131 0.66282 0.35818 0.0
O37 O 0.83848 0.64367 0.39142 0.0
O38 O 0.92099 0.76847 0.41104 0.0
C39 C 0.26333 0.88163 0.31169 0.0
O40 O 0.22591 0.88279 0.29581 0.0
O41 O 0.17242 0.8591 0.3675 0.0
Zn42 Zn 0.21794 0.9016 0.38084 0.0
O43 O 0.20609 0.95902 0.36248 0.0
C44 C 0.19651 0.8951 0.4652 0.0
O45 O 0.15967 0.89135 0.44784 0.0
O46 O 0.26882 0.88731 0.35032 0.0
C47 C 0.20061 0.98818 0.38788 0.0
O48 O 0.19744 0.9804 0.42744 0.0
C49 C 0.13562 0.86513 0.35605 0.0
O50 O 0.12435 0.90257 0.34917 0.0
O51 O 0.22803 0.90045 0.44265 0.0
C52 C 0.10932 0.71052 0.66916 0.0
O53 O 0.11092 0.74753 0.68569 0.0
O54 O 0.13195 0.80226 0.61556 0.0
Zn55 Zn 0.08749 0.75844 0.60256 0.0
O56 O 0.03127 0.77168 0.62396 0.0
C57 C 0.09035 0.78346 0.51922 0.0
O58 O 0.09625 0.81905 0.53825 0.0
O59 O 0.10129 0.70613 0.63078 0.0
C60 C 0.00202 0.78432 0.60166 0.0
O61 O 0.00868 0.79359 0.56289 0.0
C62 C 0.12658 0.83765 0.63068 0.0
O63 O 0.08957 0.84751 0.64182 0.0
O64 O 0.0851 0.75107 0.54037 0.0
C65 C 0.22732 0.19234 0.60641 0.0
O66 O 0.26683 0.20276 0.60429 0.0
O67 O 0.29864 0.10732 0.63059 0.0
Zn68 Zn 0.25582 0.11318 0.58531 0.0
O69 O 0.27872 0.12707 0.52909 0.0
C70 C 0.22597 0.03003 0.60294 0.0
O71 O 0.24179 0.03778 0.63998 0.0
O72 O 0.2151 0.15513 0.60054 0.0
C73 C 0.29618 0.09934 0.5088 0.0
O74 O 0.30597 0.06575 0.52781 0.0
C75 C 0.33383 0.12591 0.63414 0.0
O76 O 0.34591 0.15266 0.60629 0.0
O77 O 0.22635 0.05817 0.57619 0.0
C78 C 0.86505 0.29968 0.63938 0.0
O79 O 0.84763 0.2669 0.6562 0.0
O80 O 0.86146 0.19635 0.60648 0.0
Zn81 Zn 0.9028 0.2401 0.5882 0.0
O82 O 0.95974 0.23261 0.61225 0.0
C83 C 0.9018 0.20375 0.50792 0.0
O84 O 0.90077 0.1704 0.53026 0.0
O85 O 0.88791 0.29578 0.60825 0.0
C86 C 0.9905 0.22447 0.59033 0.0
O87 O 0.98521 0.217 0.55061 0.0
C88 C 0.87041 0.16256 0.62265 0.0
O89 O 0.9091 0.15524 0.63086 0.0
O90 O 0.90325 0.23868 0.5258 0.0
C91 C 0.75935 0.81144 0.61575 0.0
O92 O 0.72175 0.79512 0.61892 0.0
O93 O 0.67418 0.87497 0.64677 0.0
Zn94 Zn 0.71248 0.87966 0.59833 0.0
O95 O 0.68751 0.85816 0.54425 0.0
C96 C 0.75009 0.96517 0.60588 0.0
O97 O 0.77583 0.95306 0.63444 0.0
O98 O 0.76442 0.84948 0.60834 0.0
C99 C 0.66123 0.87868 0.5249 0.0
O100 O 0.64504 0.90978 0.54374 0.0
C101 C 0.64218 0.8511 0.64851 0.0
O102 O 0.63236 0.82614 0.61739 0.0
O103 O 0.72411 0.93975 0.58879 0.0
C104 C 0.33459 0.1044 0.29828 0.0
O105 O 0.31136 0.09323 0.2661 0.0
O106 O 0.38898 0.12675 0.1953 0.0
Zn107 Zn 0.39837 0.08655 0.2415 0.0
O108 O 0.3761 0.02909 0.22718 0.0
C109 C 0.48853 0.10665 0.25362 0.0
O110 O 0.48079 0.14577 0.25388 0.0
O111 O 0.37361 0.10497 0.29527 0.0
C112 C 0.39523 0.00816 0.20087 0.0
O113 O 0.4251 0.02619 0.17977 0.0
C114 C 0.36317 0.1198 0.16576 0.0
O115 O 0.34044 0.08539 0.16465 0.0
O116 O 0.4592 0.07965 0.24959 0.0
C117 C 0.85413 0.3156 0.30919 0.0
O118 O 0.81711 0.32328 0.29525 0.0
O119 O 0.83719 0.35607 0.20813 0.0
Zn120 Zn 0.88436 0.37282 0.24637 0.0
O121 O 0.93978 0.3719 0.21932 0.0
C122 C 0.84283 0.4476 0.26597 0.0
O123 O 0.80883 0.42492 0.25898 0.0
O124 O 0.88569 0.33403 0.29406 0.0
C125 C 0.96841 0.38222 0.24515 0.0
O126 O 0.95876 0.39089 0.28346 0.0
C127 C 0.83679 0.36477 0.17002 0.0
O128 O 0.86952 0.38292 0.15358 0.0
O129 O 0.87762 0.43145 0.26433 0.0
C130 C 0.61133 0.82785 0.18421 0.0
O131 O 0.59377 0.80907 0.21554 0.0
O132 O 0.62389 0.87768 0.28822 0.0
Zn133 Zn 0.59527 0.89469 0.23573 0.0
O134 O 0.53424 0.88017 0.23571 0.0
C135 C 0.63981 0.97232 0.22465 0.0
O136 O 0.67208 0.94955 0.22422 0.0
O137 O 0.61771 0.86648 0.18588 0.0
C138 C 0.50784 0.89065 0.26192 0.0
O139 O 0.51954 0.91287 0.29451 0.0
C140 C 0.60996 0.8525 0.31494 0.0
O141 O 0.5735 0.83382 0.30944 0.0
O142 O 0.60399 0.95561 0.22922 0.0
C143 C 0.16609 0.61672 0.19877 0.0
O144 O 0.17327 0.62147 0.23865 0.0
O145 O 0.09427 0.65346 0.2686 0.0
Zn146 Zn 0.08971 0.6025 0.23258 0.0
O147 O 0.10564 0.55039 0.26005 0.0
C148 C 0.00273 0.60332 0.23871 0.0
O149 O 0.01398 0.62333 0.27279 0.0
O150 O 0.12924 0.60954 0.18583 0.0
C151 C 0.08423 0.53181 0.2872 0.0
O152 O 0.0528 0.54963 0.30347 0.0
C153 C 0.10223 0.656 0.30711 0.0
O154 O 0.11038 0.62298 0.3279 0.0
O155 O 0.03017 0.59233 0.21377 0.0
C156 C 0.3734 0.79346 0.78124 0.0
O157 O 0.3766 0.78346 0.74201 0.0
O158 O 0.34129 0.85 0.69846 0.0
Zn159 Zn 0.3834 0.86727 0.74254 0.0
O160 O 0.44278 0.86079 0.72782 0.0
C161 C 0.34434 0.94548 0.75167 0.0
O162 O 0.3097 0.92398 0.74425 0.0
O163 O 0.37383 0.83115 0.79163 0.0
C164 C 0.4631 0.8889 0.70905 0.0
O165 O 0.44377 0.91977 0.69359 0.0
C166 C 0.33856 0.86819 0.66417 0.0
O167 O 0.36658 0.89676 0.65468 0.0
O168 O 0.37807 0.92747 0.75469 0.0
C169 C 0.13305 0.36546 0.81419 0.0
O170 O 0.15539 0.37794 0.78281 0.0
O171 O 0.09259 0.34806 0.70814 0.0
Zn172 Zn 0.07262 0.38276 0.75542 0.0
O173 O 0.09344 0.44179 0.7515 0.0
C174 C 0.98886 0.34758 0.75686 0.0
O175 O 0.00708 0.31261 0.75918 0.0
O176 O 0.09404 0.36276 0.8101 0.0
C177 C 0.08494 0.46761 0.72391 0.0
O178 O 0.06079 0.45645 0.6924 0.0
C179 C 0.12134 0.35912 0.68376 0.0
O180 O 0.1405 0.39526 0.68856 0.0
O181 O 0.01052 0.381 0.75511 0.0
C182 C 0.65742 0.14049 0.65684 0.0
O183 O 0.65196 0.17316 0.67979 0.0
O184 O 0.60345 0.14834 0.7491 0.0
Zn185 Zn 0.59923 0.09829 0.71183 0.0
O186 O 0.61995 0.04699 0.73783 0.0
C187 C 0.51158 0.09725 0.71973 0.0
O188 O 0.5227 0.11723 0.75387 0.0
O189 O 0.63621 0.10746 0.66323 0.0
C190 C 0.59623 0.0216 0.75661 0.0
O191 O 0.55833 0.0312 0.7646 0.0
C192 C 0.61159 0.14935 0.7876 0.0
O193 O 0.6197 0.11544 0.80692 0.0
O194 O 0.53914 0.08649 0.69479 0.0
C195 C 0.87908 0.66258 0.69301 0.0
O196 O 0.88827 0.68538 0.72592 0.0
O197 O 0.86152 0.62187 0.79667 0.0
Zn198 Zn 0.89634 0.60116 0.75079 0.0
O199 O 0.95732 0.61319 0.76003 0.0
C200 C 0.87471 0.51394 0.72526 0.0
O201 O 0.8629 0.5259 0.68852 0.0
O202 O 0.87938 0.62381 0.69565 0.0
C203 C 0.97738 0.59112 0.78461 0.0
O204 O 0.95735 0.56393 0.80735 0.0
C205 C 0.87422 0.63819 0.83067 0.0
O206 O 0.91381 0.64653 0.83708 0.0
O207 O 0.88821 0.53994 0.75227 0.0
C208 C 0.27768 0.29622 0.10742 0.0
O209 O 0.23799 0.28701 0.1104 0.0
O210 O 0.21253 0.37319 0.15073 0.0
Zn211 Zn 0.2456 0.37442 0.09824 0.0
O212 O 0.21311 0.36025 0.0456 0.0
C213 C 0.26661 0.4613 0.11535 0.0
O214 O 0.2512 0.4537 0.15191 0.0
O215 O 0.28999 0.33345 0.10278 0.0
C216 C 0.19328 0.38762 0.02733 0.0
O217 O 0.18775 0.42248 0.04666 0.0
C218 C 0.17424 0.37867 0.15412 0.0
O219 O 0.15139 0.38392 0.12095 0.0
O220 O 0.26963 0.43209 0.08939 0.0
C221 C 0.18241 0.60397 0.82854 0.0
O222 O 0.21544 0.5933 0.8089 0.0
O223 O 0.28311 0.62137 0.87459 0.0
Zn224 Zn 0.23523 0.58512 0.89323 0.0
O225 O 0.23938 0.5264 0.87449 0.0
C226 C 0.26777 0.59325 0.97513 0.0
O227 O 0.30211 0.59678 0.95429 0.0
O228 O 0.18287 0.60449 0.86779 0.0
C229 C 0.25557 0.49919 0.89632 0.0
O230 O 0.27326 0.50942 0.93197 0.0
C231 C 0.31695 0.60979 0.86028 0.0
O232 O 0.3223 0.5706 0.854 0.0
O233 O 0.23349 0.5879 0.95576 0.0
C234 C 0.29619 0.26409 0.88702 0.0
O235 O 0.28485 0.22495 0.88433 0.0
O236 O 0.36949 0.19422 0.84427 0.0
Zn237 Zn 0.37342 0.22978 0.89558 0.0
O238 O 0.36067 0.20127 0.94909 0.0
C239 C 0.4588 0.24889 0.87458 0.0
O240 O 0.44806 0.23157 0.83894 0.0
O241 O 0.3342 0.2748 0.89082 0.0
C242 C 0.38764 0.18032 0.96679 0.0
O243 O 0.42036 0.1705 0.94616 0.0
C244 C 0.35968 0.15622 0.84076 0.0
O245 O 0.34884 0.13504 0.87343 0.0
O246 O 0.43187 0.25313 0.9022 0.0
C247 C 0.78442 0.35385 0.83329 0.0
O248 O 0.765 0.3203 0.84629 0.0
O249 O 0.67804 0.35402 0.86201 0.0
Zn250 Zn 0.72225 0.39669 0.87856 0.0
O251 O 0.70664 0.45548 0.8715 0.0
C252 C 0.70183 0.39053 0.96171 0.0
O253 O 0.66587 0.39666 0.94427 0.0
O254 O 0.77237 0.38872 0.8443 0.0
C255 C 0.73367 0.48048 0.88778 0.0
O256 O 0.76613 0.46598 0.90624 0.0
C257 C 0.64078 0.35915 0.85164 0.0
O258 O 0.62754 0.39639 0.84849 0.0
O259 O 0.73352 0.38874 0.93927 0.0
C260 C 0.68285 0.70205 0.88728 0.0
O261 O 0.68811 0.74215 0.88546 0.0
O262 O 0.60099 0.76411 0.85223 0.0
Zn263 Zn 0.60294 0.72657 0.90142 0.0
O264 O 0.61536 0.75465 0.95656 0.0
C265 C 0.51865 0.69957 0.8802 0.0
O266 O 0.52797 0.714 0.84361 0.0
O267 O 0.64691 0.68612 0.89298 0.0
C268 C 0.58736 0.7732 0.97516 0.0
O269 O 0.55318 0.78076 0.95499 0.0
C270 C 0.6053 0.80296 0.85177 0.0
O271 O 0.61322 0.82363 0.88628 0.0
O272 O 0.5465 0.69887 0.90817 0.0
C273 C 0.71418 0.67078 0.11109 0.0
O274 O 0.75235 0.68603 0.11376 0.0
O275 O 0.79492 0.60086 0.14573 0.0
Zn276 Zn 0.75806 0.60079 0.09503 0.0
O277 O 0.7852 0.62351 0.04418 0.0
C278 C 0.73205 0.51327 0.10221 0.0
O279 O 0.7259 0.5202 0.14166 0.0
O280 O 0.70758 0.63258 0.10451 0.0
C281 C 0.81107 0.60213 0.02563 0.0
O282 O 0.8262 0.57071 0.04464 0.0
C283 C 0.82726 0.62374 0.15192 0.0
O284 O 0.83895 0.65063 0.12404 0.0
O285 O 0.74338 0.54253 0.0789 0.0
C286 C 0.36905 0.79906 0.15535 0.0
O287 O 0.37679 0.76685 0.17763 0.0
O288 O 0.34779 0.6959 0.11333 0.0
Zn289 Zn 0.38715 0.74141 0.09428 0.0
O290 O 0.44528 0.73519 0.11539 0.0
C291 C 0.38115 0.70594 0.0137 0.0
O292 O 0.3755 0.67286 0.03598 0.0
O293 O 0.36986 0.79604 0.1162 0.0
C294 C 0.472 0.71324 0.0989 0.0
O295 O 0.46188 0.69004 0.06655 0.0
C296 C 0.35762 0.66306 0.13094 0.0
O297 O 0.39631 0.65768 0.141 0.0
O298 O 0.38695 0.74065 0.03165 0.0
C299 C 0.65257 0.17627 0.12858 0.0
O300 O 0.68244 0.20428 0.12346 0.0
O301 O 0.63992 0.27948 0.105 0.0
Zn302 Zn 0.59932 0.23366 0.08828 0.0
O303 O 0.54231 0.24094 0.11071 0.0
C304 C 0.60194 0.26431 0.0069 0.0
O305 O 0.60629 0.29872 0.02828 0.0
O306 O 0.61691 0.18155 0.11344 0.0
C307 C 0.51209 0.25181 0.08873 0.0
O308 O 0.51805 0.26257 0.05024 0.0
C309 C 0.63161 0.31363 0.12125 0.0
O310 O 0.59348 0.32062 0.1312 0.0
O311 O 0.5978 0.23042 0.02577 0.0
C312 C 0.79442 0.78475 0.61609 0.0
O313 O 0.78781 0.74508 0.62095 0.0
O314 O 0.87476 0.72103 0.65117 0.0
Zn315 Zn 0.87284 0.75616 0.60021 0.0
O316 O 0.85794 0.72522 0.54708 0.0
C317 C 0.95951 0.77918 0.61624 0.0
O318 O 0.95253 0.76345 0.65279 0.0
O319 O 0.83051 0.79873 0.60765 0.0
C320 C 0.88499 0.70526 0.52853 0.0
O321 O 0.92004 0.69886 0.54768 0.0
C322 C 0.87187 0.68216 0.65313 0.0
O323 O 0.86555 0.65995 0.61932 0.0
O324 O 0.92979 0.78183 0.59052 0.0
C325 C 0.29952 0.86462 0.64075 0.0
O326 O 0.26822 0.84254 0.65532 0.0
O327 O 0.19342 0.8602 0.61066 0.0
Zn328 Zn 0.23681 0.90145 0.59073 0.0
O329 O 0.22814 0.9586 0.61222 0.0
C330 C 0.20041 0.89484 0.51031 0.0
O331 O 0.16703 0.89072 0.53261 0.0
O332 O 0.29354 0.8894 0.6116 0.0
C333 C 0.21726 0.98754 0.58923 0.0
O334 O 0.20691 0.97981 0.55044 0.0
C335 C 0.16009 0.86925 0.62796 0.0
O336 O 0.1533 0.90774 0.63655 0.0
O337 O 0.23541 0.90021 0.52824 0.0
C338 C 0.19712 0.22417 0.60921 0.0
O339 O 0.20947 0.26303 0.60747 0.0
O340 O 0.11323 0.29706 0.64522 0.0
Zn341 Zn 0.11865 0.25802 0.59693 0.0
O342 O 0.13563 0.28602 0.5444 0.0
C343 C 0.03234 0.23192 0.60731 0.0
O344 O 0.03786 0.24562 0.64542 0.0
O345 O 0.15878 0.21427 0.60758 0.0
C346 C 0.11122 0.30999 0.52701 0.0
O347 O 0.07885 0.32166 0.54711 0.0
C348 C 0.13154 0.3322 0.64911 0.0
O349 O 0.15779 0.34506 0.62104 0.0
O350 O 0.06256 0.23231 0.58285 0.0
C351 C 0.69365 0.13894 0.63051 0.0
O352 O 0.71859 0.17151 0.62648 0.0
O353 O 0.80263 0.13605 0.60998 0.0
Zn354 Zn 0.75935 0.09271 0.59346 0.0
O355 O 0.77284 0.03586 0.61153 0.0
C356 C 0.78945 0.08451 0.51329 0.0
O357 O 0.82259 0.07737 0.53534 0.0
O358 O 0.7045 0.1042 0.61775 0.0
C359 C 0.74849 0.00851 0.59499 0.0
O360 O 0.71975 0.01965 0.56899 0.0
C361 C 0.83845 0.12936 0.62391 0.0
O362 O 0.84837 0.09171 0.63185 0.0
O363 O 0.7563 0.09247 0.53147 0.0
C364 C 0.85985 0.28224 0.33832 0.0
O365 O 0.82789 0.26068 0.35225 0.0
O366 O 0.86867 0.17505 0.36325 0.0
Zn367 Zn 0.90887 0.22162 0.37917 0.0
O368 O 0.96854 0.20973 0.36992 0.0
C369 C 0.90387 0.20022 0.46289 0.0
O370 O 0.90828 0.16411 0.44566 0.0
O371 O 0.89616 0.27162 0.34669 0.0
C372 C -0.00718 0.23714 0.3865 0.0
O373 O 0.9772 0.268 0.40628 0.0
C374 C 0.87731 0.13837 0.35488 0.0
O375 O 0.91603 0.12857 0.35316 0.0
O376 O 0.90259 0.23171 0.44027 0.0
C377 C 0.75004 0.79708 0.39127 0.0
O378 O 0.71177 0.78202 0.38953 0.0
O379 O 0.66895 0.86559 0.35733 0.0
Zn380 Zn 0.7079 0.86905 0.40635 0.0
O381 O 0.6839 0.85274 0.46124 0.0
C382 C 0.74912 0.95016 0.39128 0.0
O383 O 0.76893 0.93325 0.3609 0.0
O384 O 0.75704 0.83535 0.39699 0.0
C385 C 0.65981 0.87634 0.4795 0.0
O386 O 0.64406 0.90638 0.4588 0.0
C387 C 0.6341 0.84652 0.35293 0.0
O388 O 0.61908 0.82389 0.38297 0.0
O389 O 0.72454 0.92854 0.41317 0.0
C390 C 0.09669 0.69504 0.32861 0.0
O391 O 0.08605 0.72704 0.3074 0.0
O392 O 0.11588 0.79696 0.37253 0.0
Zn393 Zn 0.0787 0.75002 0.39194 0.0
O394 O 0.0194 0.75435 0.37339 0.0
C395 C 0.08843 0.78206 0.474 0.0
O396 O 0.09219 0.81644 0.45345 0.0
O397 O 0.09747 0.69719 0.36781 0.0
C398 C -0.00802 0.77035 0.39513 0.0
O399 O 0.00233 0.78813 0.43065 0.0
C400 C 0.1047 0.831 0.35858 0.0
O401 O 0.0653 0.83733 0.35344 0.0
O402 O 0.08213 0.74831 0.4544 0.0
C403 C 0.2164 0.194 0.37972 0.0
O404 O 0.25653 0.19995 0.37635 0.0
O405 O 0.27635 0.10949 0.34081 0.0
Zn406 Zn 0.24182 0.11384 0.39219 0.0
O407 O 0.2735 0.12676 0.44552 0.0
C408 C 0.20803 0.03071 0.37466 0.0
O409 O 0.21835 0.03836 0.33632 0.0
O410 O 0.2012 0.15793 0.38541 0.0
C411 C 0.29282 0.09882 0.4634 0.0
O412 O 0.29868 0.0645 0.44319 0.0
C413 C 0.31537 0.11312 0.33807 0.0
O414 O 0.33821 0.12187 0.37115 0.0
O415 O 0.21289 0.05879 0.40207 0.0
C416 C 0.59824 0.8244 0.81285 0.0
O417 O 0.58768 0.80327 0.7792 0.0
O418 O 0.62276 0.88048 0.71237 0.0
Zn419 Zn 0.58346 0.89092 0.75888 0.0
O420 O 0.52573 0.87188 0.74158 0.0
C421 C 0.6076 0.97881 0.76016 0.0
O422 O 0.64328 0.96756 0.74645 0.0
O423 O 0.59963 0.86331 0.81187 0.0
C424 C 0.50811 0.89224 0.71369 0.0
O425 O 0.52904 0.92216 0.69542 0.0
C426 C 0.61481 0.85376 0.68402 0.0
O427 O 0.58067 0.83052 0.68521 0.0
O428 O 0.57976 0.95173 0.76876 0.0
C429 C 0.11069 0.67496 0.69624 0.0
O430 O 0.11436 0.681 0.73637 0.0
O431 O 0.14342 0.60196 0.76657 0.0
Zn432 Zn 0.09415 0.59769 0.72764 0.0
O433 O 0.04021 0.61132 0.75328 0.0
C434 C 0.09802 0.51081 0.73093 0.0
O435 O 0.1179 0.52124 0.76539 0.0
O436 O 0.10306 0.63875 0.68232 0.0
C437 C 0.0221 0.58897 0.77998 0.0
O438 O 0.04113 0.55822 0.79609 0.0
C439 C 0.1442 0.60979 0.80512 0.0
O440 O 0.11013 0.61815 0.82418 0.0
O441 O 0.08603 0.53871 0.70702 0.0
C442 C 0.36593 0.13572 0.80093 0.0
O443 O 0.381 0.15704 0.76996 0.0
O444 O 0.34928 0.08955 0.69508 0.0
Zn445 Zn 0.38266 0.07235 0.74485 0.0
O446 O 0.44248 0.0919 0.74138 0.0
C447 C 0.34505 0.99043 0.75166 0.0
O448 O 0.3104 0.00959 0.75022 0.0
O449 O 0.36148 0.097 0.79732 0.0
C450 C 0.46817 0.08351 0.71362 0.0
O451 O 0.45649 0.06 0.68192 0.0
C452 C 0.36081 0.11688 0.66939 0.0
O453 O 0.39679 0.13667 0.67433 0.0
O454 O 0.37934 0.01082 0.74961 0.0
C455 C 0.81622 0.3516 0.80179 0.0
O456 O 0.82597 0.31599 0.78645 0.0
O457 O 0.84959 0.34068 0.697 0.0
Zn458 Zn 0.86644 0.38692 0.73578 0.0
O459 O 0.8613 0.44251 0.7105 0.0
C460 C 0.94381 0.34809 0.75292 0.0
O461 O 0.9215 0.31358 0.74877 0.0
O462 O 0.83074 0.38458 0.78597 0.0
C463 C 0.87359 0.47048 0.73606 0.0
O464 O 0.88643 0.46006 0.77301 0.0
C465 C 0.86589 0.33897 0.66169 0.0
O466 O 0.89041 0.36958 0.6496 0.0
O467 O 0.92667 0.38216 0.75026 0.0
C468 C 0.6563 0.14543 0.16072 0.0
O469 O 0.68989 0.14517 0.18384 0.0
O470 O 0.66345 0.11778 0.26506 0.0
Zn471 Zn 0.61595 0.10019 0.2274 0.0
O472 O 0.56105 0.11943 0.24737 0.0
C473 C 0.64507 0.01707 0.22243 0.0
O474 O 0.68215 0.03512 0.22295 0.0
O475 O 0.62355 0.12619 0.17219 0.0
C476 C 0.53098 0.09339 0.25127 0.0
O477 O 0.53711 0.05415 0.24676 0.0
C478 C 0.66534 0.1033 0.3012 0.0
O479 O 0.63457 0.07964 0.31457 0.0
O480 O 0.61348 0.03853 0.22269 0.0
C481 C 0.85841 0.64025 0.31966 0.0
O482 O 0.87461 0.65999 0.28821 0.0
O483 O 0.84185 0.59058 0.21486 0.0
Zn484 Zn 0.87506 0.57597 0.2655 0.0
O485 O 0.93416 0.59707 0.26141 0.0
C486 C 0.84121 0.49231 0.26985 0.0
O487 O 0.80558 0.50972 0.26843 0.0
O488 O 0.85299 0.60149 0.31737 0.0
C489 C 0.95939 0.58938 0.23302 0.0
O490 O 0.94751 0.56583 0.20142 0.0
C491 C 0.85237 0.61844 0.18938 0.0
O492 O 0.88651 0.64104 0.19573 0.0
O493 O 0.87451 0.51446 0.2698 0.0
C494 C 0.29847 0.87929 0.28409 0.0
O495 O 0.29184 0.87725 0.24394 0.0
O496 O 0.37078 0.84134 0.21486 0.0
Zn497 Zn 0.37722 0.89079 0.25319 0.0
O498 O 0.36771 0.94609 0.22825 0.0
C499 C 0.46397 0.88163 0.2525 0.0
O500 O 0.45343 0.86367 0.21712 0.0
O501 O 0.33529 0.88398 0.29792 0.0
C502 C 0.39199 0.96317 0.20252 0.0
O503 O 0.42091 0.94192 0.18581 0.0
C504 C 0.36504 0.83893 0.17597 0.0
O505 O 0.36072 0.8723 0.15439 0.0
O506 O 0.43606 0.89476 0.2757 0.0
C507 C 0.15701 0.38365 0.19544 0.0
O508 O 0.18117 0.38208 0.22827 0.0
O509 O 0.12473 0.37312 0.30038 0.0
Zn510 Zn 0.09972 0.40772 0.25647 0.0
O511 O 0.10994 0.46843 0.26642 0.0
C512 C 0.01175 0.38589 0.23317 0.0
O513 O 0.02272 0.37935 0.19485 0.0
O514 O 0.1198 0.39318 0.19961 0.0
C515 C 0.08779 0.48748 0.29165 0.0
O516 O 0.06141 0.46666 0.31469 0.0
C517 C 0.1401 0.38574 0.33487 0.0
O518 O 0.14414 0.42523 0.34304 0.0
O519 O 0.03855 0.39686 0.26061 0.0
C520 C 0.71894 0.67679 0.88772 0.0
O521 O 0.75612 0.69458 0.88728 0.0
O522 O 0.8092 0.62359 0.85977 0.0
Zn523 Zn 0.76746 0.6097 0.90337 0.0
O524 O 0.78671 0.62495 0.9613 0.0
C525 C 0.73035 0.52506 0.88542 0.0
O526 O 0.69985 0.54101 0.86503 0.0
O527 O 0.7149 0.63829 0.8928 0.0
C528 C 0.81255 0.60369 0.98035 0.0
O529 O 0.83142 0.57521 0.96001 0.0
C530 C 0.84528 0.63995 0.86493 0.0
O531 O 0.85821 0.65195 0.90198 0.0
O532 O 0.75865 0.54812 0.90231 0.0
C533 C 0.79754 0.36163 0.14705 0.0
O534 O 0.76342 0.35126 0.16648 0.0
O535 O 0.69747 0.34091 0.10396 0.0
Zn536 Zn 0.73908 0.38492 0.08713 0.0
O537 O 0.72467 0.44074 0.10857 0.0
C538 C 0.70499 0.38764 0.00675 0.0
O539 O 0.67175 0.39056 0.02903 0.0
O540 O 0.79534 0.37519 0.11053 0.0
C541 C 0.73317 0.47136 0.08586 0.0
O542 O 0.74851 0.46542 0.04908 0.0
C543 C 0.66315 0.34724 0.12071 0.0
O544 O 0.65379 0.38473 0.13068 0.0
O545 O 0.73972 0.38447 0.02477 0.0
C546 C 0.68007 0.69851 0.1108 0.0
O547 O 0.68808 0.73825 0.1141 0.0
O548 O 0.60652 0.76719 0.14422 0.0
Zn549 Zn 0.60251 0.72871 0.09511 0.0
O550 O 0.6149 0.75463 0.03991 0.0
C551 C 0.5154 0.7201 0.1114 0.0
O552 O 0.52522 0.74758 0.14027 0.0
O553 O 0.64328 0.68505 0.10326 0.0
C554 C 0.58755 0.77385 0.02062 0.0
O555 O 0.55398 0.78339 0.03997 0.0
C556 C 0.61805 0.80487 0.14593 0.0
O557 O 0.63099 0.82368 0.11254 0.0
O558 O 0.54363 0.70524 0.08979 0.0
C559 C 0.201 0.61365 0.17102 0.0
O560 O 0.23866 0.61554 0.18661 0.0
O561 O 0.29143 0.63311 0.11649 0.0
Zn562 Zn 0.24681 0.58931 0.10385 0.0
O563 O 0.25967 0.53271 0.12424 0.0
C564 C 0.26993 0.59395 0.02033 0.0
O565 O 0.30609 0.59905 0.03893 0.0
O566 O 0.19534 0.60399 0.13315 0.0
C567 C 0.27152 0.50384 0.10124 0.0
O568 O 0.28015 0.51107 0.06243 0.0
C569 C 0.32673 0.62885 0.13292 0.0
O570 O 0.3371 0.59264 0.14559 0.0
O571 O 0.23775 0.58828 0.04186 0.0
C572 C 0.30672 0.26321 0.10517 0.0
O573 O 0.29264 0.2248 0.10424 0.0
O574 O 0.38188 0.18277 0.13321 0.0
Zn575 Zn 0.38197 0.22507 0.08772 0.0
O576 O 0.36431 0.20116 0.0321 0.0
C577 C 0.46991 0.24455 0.10355 0.0
O578 O 0.46354 0.22807 0.13988 0.0
O579 O 0.34499 0.27142 0.10034 0.0
C580 C 0.38903 0.17954 0.01217 0.0
O581 O 0.42223 0.16716 0.03105 0.0
C582 C 0.35978 0.14952 0.13223 0.0
O583 O 0.33478 0.14129 0.10059 0.0
O584 O 0.43989 0.24774 0.0784 0.0
C585 C 0.265 0.2948 0.8896 0.0
O586 O 0.22563 0.28341 0.88763 0.0
O587 O 0.19193 0.3671 0.85741 0.0
Zn588 Zn 0.23078 0.37065 0.90658 0.0
O589 O 0.20643 0.35774 0.9623 0.0
C590 C 0.24758 0.45588 0.88536 0.0
O591 O 0.22662 0.44579 0.85142 0.0
O592 O 0.27573 0.33211 0.89705 0.0
C593 C 0.18906 0.38589 0.98202 0.0
O594 O 0.17924 0.4191 0.96234 0.0
C595 C 0.15325 0.35966 0.85441 0.0
O596 O 0.1316 0.35135 0.8875 0.0
O597 O 0.25481 0.42864 0.91186 0.0
C598 C 0.60624 0.18751 0.8108 0.0
O599 O 0.59422 0.22004 0.79129 0.0
O600 O 0.62475 0.28871 0.86106 0.0
Zn601 Zn 0.58945 0.23924 0.87781 0.0
O602 O 0.5297 0.24356 0.86105 0.0
C603 C 0.60014 0.26593 0.96175 0.0
O604 O 0.60316 0.30171 0.94366 0.0
O605 O 0.60858 0.18827 0.84999 0.0
C606 C 0.50255 0.25642 0.88523 0.0
O607 O 0.51346 0.27037 0.92222 0.0
C608 C 0.61156 0.32342 0.85125 0.0
O609 O 0.5717 0.32833 0.84846 0.0
O610 O 0.59409 0.2335 0.93992 0.0
C611 C 0.37473 0.76123 0.81218 0.0
O612 O 0.37832 0.7231 0.79986 0.0
O613 O 0.34684 0.67603 0.87155 0.0
Zn614 Zn 0.39025 0.72066 0.8842 0.0
O615 O 0.44761 0.70647 0.86729 0.0
C616 C 0.38193 0.70182 0.96862 0.0
O617 O 0.37679 0.66516 0.95166 0.0
O618 O 0.37726 0.76982 0.85055 0.0
C619 C 0.47525 0.69441 0.89191 0.0
O620 O 0.46598 0.68635 0.93041 0.0
C621 C 0.35186 0.63984 0.85841 0.0
O622 O 0.38898 0.62828 0.8497 0.0
O623 O 0.38889 0.73271 0.94571 0.0
loop_
_geom_bond_atom_site_label_1
_geom_bond_atom_site_label_2
_geom_bond_distance
_geom_bond_site_symmetry_2
_ccdc_geom_bond_type
C0 O1 1.160 . S
C0 O7 1.185 . S
O1 C0 1.160 . S
O2 Zn3 1.899 . S
O2 C10 1.284 . S
Zn3 O2 1.899 . S
Zn3 O4 2.032 . S
Zn3 O7 2.086 . S
Zn3 O12 1.977 . S
O4 Zn3 2.032 . S
O4 C8 1.278 . S
C5 O6 1.203 . S
C5 O12 1.267 . S
O6 C5 1.203 . S
O7 C0 1.185 . S
O7 Zn3 2.086 . S
C8 O4 1.278 . S
C8 O9 1.211 . S
O9 C8 1.211 . S
C10 O2 1.284 . S
C10 O11 1.273 . S
O11 C10 1.273 . S
O12 Zn3 1.977 . S
O12 C5 1.267 . S
C13 O14 1.160 . S
C13 O20 1.185 . S
O14 C13 1.160 . S
O15 Zn16 1.899 . S
O15 C23 1.284 . S
Zn16 O15 1.899 . S
Zn16 O17 2.032 . S
Zn16 O20 2.086 . S
Zn16 O25 1.977 . S
O17 Zn16 2.032 . S
O17 C21 1.278 . S
C18 O19 1.203 . S
C18 O25 1.267 . S
O19 C18 1.203 . S
O20 C13 1.185 . S
O20 Zn16 2.086 . S
C21 O17 1.278 . S
C21 O22 1.211 . S
O22 C21 1.211 . S
C23 O15 1.284 . S
C23 O24 1.273 . S
O24 C23 1.273 . S
O25 Zn16 1.977 . S
O25 C18 1.267 . S
C26 O27 1.160 . S
C26 O33 1.185 . S
O27 C26 1.160 . S
O28 Zn29 1.899 . S
O28 C36 1.284 . S
Zn29 O28 1.899 . S
Zn29 O30 2.032 . S
Zn29 O33 2.086 . S
Zn29 O38 1.977 . S
O30 Zn29 2.032 . S
O30 C34 1.278 . S
C31 O32 1.203 . S
C31 O38 1.267 . S
O32 C31 1.203 . S
O33 C26 1.185 . S
O33 Zn29 2.086 . S
C34 O30 1.278 . S
C34 O35 1.211 . S
O35 C34 1.211 . S
C36 O28 1.284 . S
C36 O37 1.273 . S
O37 C36 1.273 . S
O38 Zn29 1.977 . S
O38 C31 1.267 . S
C39 O40 1.160 . S
C39 O46 1.185 . S
O40 C39 1.160 . S
O41 Zn42 1.899 . S
O41 C49 1.284 . S
Zn42 O41 1.899 . S
Zn42 O43 2.032 . S
Zn42 O46 2.086 . S
Zn42 O51 1.977 . S
O43 Zn42 2.032 . S
O43 C47 1.278 . S
C44 O45 1.203 . S
C44 O51 1.267 . S
O45 C44 1.203 . S
O46 C39 1.185 . S
O46 Zn42 2.086 . S
C47 O43 1.278 . S
C47 O48 1.211 . S
O48 C47 1.211 . S
C49 O41 1.284 . S
C49 O50 1.273 . S
O50 C49 1.273 . S
O51 Zn42 1.977 . S
O51 C44 1.267 . S
C52 O53 1.160 . S
C52 O59 1.185 . S
O53 C52 1.160 . S
O54 Zn55 1.899 . S
O54 C62 1.284 . S
Zn55 O54 1.899 . S
Zn55 O56 2.032 . S
Zn55 O59 2.086 . S
Zn55 O64 1.977 . S
O56 Zn55 2.032 . S
O56 C60 1.278 . S
C57 O58 1.203 . S
C57 O64 1.267 . S
O58 C57 1.203 . S
O59 C52 1.185 . S
O59 Zn55 2.086 . S
C60 O56 1.278 . S
C60 O61 1.211 . S
O61 C60 1.211 . S
C62 O54 1.284 . S
C62 O63 1.273 . S
O63 C62 1.273 . S
O64 Zn55 1.977 . S
O64 C57 1.267 . S
C65 O66 1.160 . S
C65 O72 1.185 . S
O66 C65 1.160 . S
O67 Zn68 1.899 . S
O67 C75 1.284 . S
Zn68 O67 1.899 . S
Zn68 O69 2.032 . S
Zn68 O72 2.086 . S
Zn68 O77 1.977 . S
O69 Zn68 2.032 . S
O69 C73 1.278 . S
C70 O71 1.203 . S
C70 O77 1.267 . S
O71 C70 1.203 . S
O72 C65 1.185 . S
O72 Zn68 2.086 . S
C73 O69 1.278 . S
C73 O74 1.211 . S
O74 C73 1.211 . S
C75 O67 1.284 . S
C75 O76 1.273 . S
O76 C75 1.273 . S
O77 Zn68 1.977 . S
O77 C70 1.267 . S
C78 O79 1.160 . S
C78 O85 1.185 . S
O79 C78 1.160 . S
O80 Zn81 1.899 . S
O80 C88 1.284 . S
Zn81 O80 1.899 . S
Zn81 O82 2.032 . S
Zn81 O85 2.086 . S
Zn81 O90 1.977 . S
O82 Zn81 2.032 . S
O82 C86 1.278 . S
C83 O84 1.203 . S
C83 O90 1.267 . S
O84 C83 1.203 . S
O85 C78 1.185 . S
O85 Zn81 2.086 . S
C86 O82 1.278 . S
C86 O87 1.211 . S
O87 C86 1.211 . S
C88 O80 1.284 . S
C88 O89 1.273 . S
O89 C88 1.273 . S
O90 Zn81 1.977 . S
O90 C83 1.267 . S
C91 O92 1.160 . S
C91 O98 1.185 . S
O92 C91 1.160 . S
O93 Zn94 1.899 . S
O93 C101 1.284 . S
Zn94 O93 1.899 . S
Zn94 O95 2.032 . S
Zn94 O98 2.086 . S
Zn94 O103 1.977 . S
O95 Zn94 2.032 . S
O95 C99 1.278 . S
C96 O97 1.203 . S
C96 O103 1.267 . S
O97 C96 1.203 . S
O98 C91 1.185 . S
O98 Zn94 2.086 . S
C99 O95 1.278 . S
C99 O100 1.211 . S
O100 C99 1.211 . S
C101 O93 1.284 . S
C101 O102 1.273 . S
O102 C101 1.273 . S
O103 Zn94 1.977 . S
O103 C96 1.267 . S
C104 O105 1.160 . S
C104 O111 1.185 . S
O105 C104 1.160 . S
O106 Zn107 1.899 . S
O106 C114 1.284 . S
Zn107 O106 1.899 . S
Zn107 O108 2.032 . S
Zn107 O111 2.086 . S
Zn107 O116 1.977 . S
O108 Zn107 2.032 . S
O108 C112 1.278 . S
C109 O110 1.203 . S
C109 O116 1.267 . S
O110 C109 1.203 . S
O111 C104 1.185 . S
O111 Zn107 2.086 . S
C112 O108 1.278 . S
C112 O113 1.211 . S
O113 C112 1.211 . S
C114 O106 1.284 . S
C114 O115 1.273 . S
O115 C114 1.273 . S
O116 Zn107 1.977 . S
O116 C109 1.267 . S
C117 O118 1.160 . S
C117 O124 1.185 . S
O118 C117 1.160 . S
O119 Zn120 1.899 . S
O119 C127 1.284 . S
Zn120 O119 1.899 . S
Zn120 O121 2.032 . S
Zn120 O124 2.086 . S
Zn120 O129 1.977 . S
O121 Zn120 2.032 . S
O121 C125 1.278 . S
C122 O123 1.203 . S
C122 O129 1.267 . S
O123 C122 1.203 . S
O124 C117 1.185 . S
O124 Zn120 2.086 . S
C125 O121 1.278 . S
C125 O126 1.211 . S
O126 C125 1.211 . S
C127 O119 1.284 . S
C127 O128 1.273 . S
O128 C127 1.273 . S
O129 Zn120 1.977 . S
O129 C122 1.267 . S
C130 O131 1.160 . S
C130 O137 1.185 . S
O131 C130 1.160 . S
O132 Zn133 1.899 . S
O132 C140 1.284 . S
Zn133 O132 1.899 . S
Zn133 O134 2.032 . S
Zn133 O137 2.086 . S
Zn133 O142 1.977 . S
O134 Zn133 2.032 . S
O134 C138 1.278 . S
C135 O136 1.203 . S
C135 O142 1.267 . S
O136 C135 1.203 . S
O137 C130 1.185 . S
O137 Zn133 2.086 . S
C138 O134 1.278 . S
C138 O139 1.211 . S
O139 C138 1.211 . S
C140 O132 1.284 . S
C140 O141 1.273 . S
O141 C140 1.273 . S
O142 Zn133 1.977 . S
O142 C135 1.267 . S
C143 O144 1.160 . S
C143 O150 1.185 . S
O144 C143 1.160 . S
O145 Zn146 1.899 . S
O145 C153 1.284 . S
Zn146 O145 1.899 . S
Zn146 O147 2.032 . S
Zn146 O150 2.086 . S
Zn146 O155 1.977 . S
O147 Zn146 2.032 . S
O147 C151 1.278 . S
C148 O149 1.203 . S
C148 O155 1.267 . S
O149 C148 1.203 . S
O150 C143 1.185 . S
O150 Zn146 2.086 . S
C151 O147 1.278 . S
C151 O152 1.211 . S
O152 C151 1.211 . S
C153 O145 1.284 . S
C153 O154 1.273 . S
O154 C153 1.273 . S
O155 Zn146 1.977 . S
O155 C148 1.267 . S
C156 O157 1.160 . S
C156 O163 1.185 . S
O157 C156 1.160 . S
O158 Zn159 1.899 . S
O158 C166 1.284 . S
Zn159 O158 1.899 . S
Zn159 O160 2.032 . S
Zn159 O163 2.086 . S
Zn159 O168 1.977 . S
O160 Zn159 2.032 . S
O160 C164 1.278 . S
C161 O162 1.203 . S
C161 O168 1.267 . S
O162 C161 1.203 . S
O163 C156 1.185 . S
O163 Zn159 2.086 . S
C164 O160 1.278 . S
C164 O165 1.211 . S
O165 C164 1.211 . S
C166 O158 1.284 . S
C166 O167 1.273 . S
O167 C166 1.273 . S
O168 Zn159 1.977 . S
O168 C161 1.267 . S
C169 O170 1.160 . S
C169 O176 1.185 . S
O170 C169 1.160 . S
O171 Zn172 1.899 . S
O171 C179 1.284 . S
Zn172 O171 1.899 . S
Zn172 O173 2.032 . S
Zn172 O176 2.086 . S
Zn172 O181 1.977 . S
O173 Zn172 2.032 . S
O173 C177 1.278 . S
C174 O175 1.203 . S
C174 O181 1.267 . S
O175 C174 1.203 . S
O176 C169 1.185 . S
O176 Zn172 2.086 . S
C177 O173 1.278 . S
C177 O178 1.211 . S
O178 C177 1.211 . S
C179 O171 1.284 . S
C179 O180 1.273 . S
O180 C179 1.273 . S
O181 Zn172 1.977 . S
O181 C174 1.267 . S
C182 O183 1.160 . S
C182 O189 1.185 . S
O183 C182 1.160 . S
O184 Zn185 1.899 . S
O184 C192 1.284 . S
Zn185 O184 1.899 . S
Zn185 O186 2.032 . S
Zn185 O189 2.086 . S
Zn185 O194 1.977 . S
O186 Zn185 2.032 . S
O186 C190 1.278 . S
C187 O188 1.203 . S
C187 O194 1.267 . S
O188 C187 1.203 . S
O189 C182 1.185 . S
O189 Zn185 2.086 . S
C190 O186 1.278 . S
C190 O191 1.211 . S
O191 C190 1.211 . S
C192 O184 1.284 . S
C192 O193 1.273 . S
O193 C192 1.273 . S
O194 Zn185 1.977 . S
O194 C187 1.267 . S
C195 O196 1.160 . S
C195 O202 1.185 . S
O196 C195 1.160 . S
O197 Zn198 1.899 . S
O197 C205 1.284 . S
Zn198 O197 1.899 . S
Zn198 O199 2.032 . S
Zn198 O202 2.086 . S
Zn198 O207 1.977 . S
O199 Zn198 2.032 . S
O199 C203 1.278 . S
C200 O201 1.203 . S
C200 O207 1.267 . S
O201 C200 1.203 . S
O202 C195 1.185 . S
O202 Zn198 2.086 . S
C203 O199 1.278 . S
C203 O204 1.211 . S
O204 C203 1.211 . S
C205 O197 1.284 . S
C205 O206 1.273 . S
O206 C205 1.273 . S
O207 Zn198 1.977 . S
O207 C200 1.267 . S
C208 O209 1.160 . S
C208 O215 1.185 . S
O209 C208 1.160 . S
O210 Zn211 1.899 . S
O210 C218 1.284 . S
Zn211 O210 1.899 . S
Zn211 O212 2.032 . S
Zn211 O215 2.086 . S
Zn211 O220 1.977 . S
O212 Zn211 2.032 . S
O212 C216 1.278 . S
C213 O214 1.203 . S
C213 O220 1.267 . S
O214 C213 1.203 . S
O215 C208 1.185 . S
O215 Zn211 2.086 . S
C216 O212 1.278 . S
C216 O217 1.211 . S
O217 C216 1.211 . S
C218 O210 1.284 . S
C218 O219 1.273 . S
O219 C218 1.273 . S
O220 Zn211 1.977 . S
O220 C213 1.267 . S
C221 O222 1.160 . S
C221 O228 1.185 . S
O222 C221 1.160 . S
O223 Zn224 1.899 . S
O223 C231 1.284 . S
Zn224 O223 1.899 . S
Zn224 O225 2.032 . S
Zn224 O228 2.086 . S
Zn224 O233 1.977 . S
O225 Zn224 2.032 . S
O225 C229 1.278 . S
C226 O227 1.203 . S
C226 O233 1.267 . S
O227 C226 1.203 . S
O228 C221 1.185 . S
O228 Zn224 2.086 . S
C229 O225 1.278 . S
C229 O230 1.211 . S
O230 C229 1.211 . S
C231 O223 1.284 . S
C231 O232 1.273 . S
O232 C231 1.273 . S
O233 Zn224 1.977 . S
O233 C226 1.267 . S
C234 O235 1.160 . S
C234 O241 1.185 . S
O235 C234 1.160 . S
O236 Zn237 1.899 . S
O236 C244 1.284 . S
Zn237 O236 1.899 . S
Zn237 O238 2.032 . S
Zn237 O241 2.086 . S
Zn237 O246 1.977 . S
O238 Zn237 2.032 . S
O238 C242 1.278 . S
C239 O240 1.203 . S
C239 O246 1.267 . S
O240 C239 1.203 . S
O241 C234 1.185 . S
O241 Zn237 2.086 . S
C242 O238 1.278 . S
C242 O243 1.211 . S
O243 C242 1.211 . S
C244 O236 1.284 . S
C244 O245 1.273 . S
O245 C244 1.273 . S
O246 Zn237 1.977 . S
O246 C239 1.267 . S
C247 O248 1.160 . S
C247 O254 1.185 . S
O248 C247 1.160 . S
O249 Zn250 1.899 . S
O249 C257 1.284 . S
Zn250 O249 1.899 . S
Zn250 O251 2.032 . S
Zn250 O254 2.086 . S
Zn250 O259 1.977 . S
O251 Zn250 2.032 . S
O251 C255 1.278 . S
C252 O253 1.203 . S
C252 O259 1.267 . S
O253 C252 1.203 . S
O254 C247 1.185 . S
O254 Zn250 2.086 . S
C255 O251 1.278 . S
C255 O256 1.211 . S
O256 C255 1.211 . S
C257 O249 1.284 . S
C257 O258 1.273 . S
O258 C257 1.273 . S
O259 Zn250 1.977 . S
O259 C252 1.267 . S
C260 O261 1.160 . S
C260 O267 1.185 . S
O261 C260 1.160 . S
O262 Zn263 1.899 . S
O262 C270 1.284 . S
Zn263 O262 1.899 . S
Zn263 O264 2.032 . S
Zn263 O267 2.086 . S
Zn263 O272 1.977 . S
O264 Zn263 2.032 . S
O264 C268 1.278 . S
C265 O266 1.203 . S
C265 O272 1.267 . S
O266 C265 1.203 . S
O267 C260 1.185 . S
O267 Zn263 2.086 . S
C268 O264 1.278 . S
C268 O269 1.211 . S
O269 C268 1.211 . S
C270 O262 1.284 . S
C270 O271 1.273 . S
O271 C270 1.273 . S
O272 Zn263 1.977 . S
O272 C265 1.267 . S
C273 O274 1.160 . S
C273 O280 1.185 . S
O274 C273 1.160 . S
O275 Zn276 1.899 . S
O275 C283 1.284 . S
Zn276 O275 1.899 . S
Zn276 O277 2.032 . S
Zn276 O280 2.086 . S
Zn276 O285 1.977 . S
O277 Zn276 2.032 . S
O277 C281 1.278 . S
C278 O279 1.203 . S
C278 O285 1.267 . S
O279 C278 1.203 . S
O280 C273 1.185 . S
O280 Zn276 2.086 . S
C281 O277 1.278 . S
C281 O282 1.211 . S
O282 C281 1.211 . S
C283 O275 1.284 . S
C283 O284 1.273 . S
O284 C283 1.273 . S
O285 Zn276 1.977 . S
O285 C278 1.267 . S
C286 O287 1.160 . S
C286 O293 1.185 . S
O287 C286 1.160 . S
O288 Zn289 1.899 . S
O288 C296 1.284 . S
Zn289 O288 1.899 . S
Zn289 O290 2.032 . S
Zn289 O293 2.086 . S
Zn289 O298 1.977 . S
O290 Zn289 2.032 . S
O290 C294 1.278 . S
C291 O292 1.203 . S
C291 O298 1.267 . S
O292 C291 1.203 . S
O293 C286 1.185 . S
O293 Zn289 2.086 . S
C294 O290 1.278 . S
C294 O295 1.211 . S
O295 C294 1.211 . S
C296 O288 1.284 . S
C296 O297 1.273 . S
O297 C296 1.273 . S
O298 Zn289 1.977 . S
O298 C291 1.267 . S
C299 O300 1.160 . S
C299 O306 1.185 . S
O300 C299 1.160 . S
O301 Zn302 1.899 . S
O301 C309 1.284 . S
Zn302 O301 1.899 . S
Zn302 O303 2.032 . S
Zn302 O306 2.086 . S
Zn302 O311 1.977 . S
O303 Zn302 2.032 . S
O303 C307 1.278 . S
C304 O305 1.203 . S
C304 O311 1.267 . S
O305 C304 1.203 . S
O306 C299 1.185 . S
O306 Zn302 2.086 . S
C307 O303 1.278 . S
C307 O308 1.211 . S
O308 C307 1.211 . S
C309 O301 1.284 . S
C309 O310 1.273 . S
O310 C309 1.273 . S
O311 Zn302 1.977 . S
O311 C304 1.267 . S
C312 O313 1.160 . S
C312 O319 1.185 . S
O313 C312 1.160 . S
O314 Zn315 1.899 . S
O314 C322 1.284 . S
Zn315 O314 1.899 . S
Zn315 O316 2.032 . S
Zn315 O319 2.086 . S
Zn315 O324 1.977 . S
O316 Zn315 2.032 . S
O316 C320 1.278 . S
C317 O318 1.203 . S
C317 O324 1.267 . S
O318 C317 1.203 . S
O319 C312 1.185 . S
O319 Zn315 2.086 . S
C320 O316 1.278 . S
C320 O321 1.211 . S
O321 C320 1.211 . S
C322 O314 1.284 . S
C322 O323 1.273 . S
O323 C322 1.273 . S
O324 Zn315 1.977 . S
O324 C317 1.267 . S
C325 O326 1.160 . S
C325 O332 1.185 . S
O326 C325 1.160 . S
O327 Zn328 1.899 . S
O327 C335 1.284 . S
Zn328 O327 1.899 . S
Zn328 O329 2.032 . S
Zn328 O332 2.086 . S
Zn328 O337 1.977 . S
O329 Zn328 2.032 . S
O329 C333 1.278 . S
C330 O331 1.203 . S
C330 O337 1.267 . S
O331 C330 1.203 . S
O332 C325 1.185 . S
O332 Zn328 2.086 . S
C333 O329 1.278 . S
C333 O334 1.211 . S
O334 C333 1.211 . S
C335 O327 1.284 . S
C335 O336 1.273 . S
O336 C335 1.273 . S
O337 Zn328 1.977 . S
O337 C330 1.267 . S
C338 O339 1.160 . S
C338 O345 1.185 . S
O339 C338 1.160 . S
O340 Zn341 1.899 . S
O340 C348 1.284 . S
Zn341 O340 1.899 . S
Zn341 O342 2.032 . S
Zn341 O345 2.086 . S
Zn341 O350 1.977 . S
O342 Zn341 2.032 . S
O342 C346 1.278 . S
C343 O344 1.203 . S
C343 O350 1.267 . S
O344 C343 1.203 . S
O345 C338 1.185 . S
O345 Zn341 2.086 . S
C346 O342 1.278 . S
C346 O347 1.211 . S
O347 C346 1.211 . S
C348 O340 1.284 . S
C348 O349 1.273 . S
O349 C348 1.273 . S
O350 Zn341 1.977 . S
O350 C343 1.267 . S
C351 O352 1.160 . S
C351 O358 1.185 . S
O352 C351 1.160 . S
O353 Zn354 1.899 . S
O353 C361 1.284 . S
Zn354 O353 1.899 . S
Zn354 O355 2.032 . S
Zn354 O358 2.086 . S
Zn354 O363 1.977 . S
O355 Zn354 2.032 . S
O355 C359 1.278 . S
C356 O357 1.203 . S
C356 O363 1.267 . S
O357 C356 1.203 . S
O358 C351 1.185 . S
O358 Zn354 2.086 . S
C359 O355 1.278 . S
C359 O360 1.211 . S
O360 C359 1.211 . S
C361 O353 1.284 . S
C361 O362 1.273 . S
O362 C361 1.273 . S
O363 Zn354 1.977 . S
O363 C356 1.267 . S
C364 O365 1.160 . S
C364 O371 1.185 . S
O365 C364 1.160 . S
O366 Zn367 1.899 . S
O366 C374 1.284 . S
Zn367 O366 1.899 . S
Zn367 O368 2.032 . S
Zn367 O371 2.086 . S
Zn367 O376 1.977 . S
O368 Zn367 2.032 . S
O368 C372 1.278 . S
C369 O370 1.203 . S
C369 O376 1.267 . S
O370 C369 1.203 . S
O371 C364 1.185 . S
O371 Zn367 2.086 . S
C372 O368 1.278 . S
C372 O373 1.211 . S
O373 C372 1.211 . S
C374 O366 1.284 . S
C374 O375 1.273 . S
O375 C374 1.273 . S
O376 Zn367 1.977 . S
O376 C369 1.267 . S
C377 O378 1.160 . S
C377 O384 1.185 . S
O378 C377 1.160 . S
O379 Zn380 1.899 . S
O379 C387 1.284 . S
Zn380 O379 1.899 . S
Zn380 O381 2.032 . S
Zn380 O384 2.086 . S
Zn380 O389 1.977 . S
O381 Zn380 2.032 . S
O381 C385 1.278 . S
C382 O383 1.203 . S
C382 O389 1.267 . S
O383 C382 1.203 . S
O384 C377 1.185 . S
O384 Zn380 2.086 . S
C385 O381 1.278 . S
C385 O386 1.211 . S
O386 C385 1.211 . S
C387 O379 1.284 . S
C387 O388 1.273 . S
O388 C387 1.273 . S
O389 Zn380 1.977 . S
O389 C382 1.267 . S
C390 O391 1.160 . S
C390 O397 1.185 . S
O391 C390 1.160 . S
O392 Zn393 1.899 . S
O392 C400 1.284 . S
Zn393 O392 1.899 . S
Zn393 O394 2.032 . S
Zn393 O397 2.086 . S
Zn393 O402 1.977 . S
O394 Zn393 2.032 . S
O394 C398 1.278 . S
C395 O396 1.203 . S
C395 O402 1.267 . S
O396 C395 1.203 . S
O397 C390 1.185 . S
O397 Zn393 2.086 . S
C398 O394 1.278 . S
C398 O399 1.211 . S
O399 C398 1.211 . S
C400 O392 1.284 . S
C400 O401 1.273 . S
O401 C400 1.273 . S
O402 Zn393 1.977 . S
O402 C395 1.267 . S
C403 O404 1.160 . S
C403 O410 1.185 . S
O404 C403 1.160 . S
O405 Zn406 1.899 . S
O405 C413 1.284 . S
Zn406 O405 1.899 . S
Zn406 O407 2.032 . S
Zn406 O410 2.086 . S
Zn406 O415 1.977 . S
O407 Zn406 2.032 . S
O407 C411 1.278 . S
C408 O409 1.203 . S
C408 O415 1.267 . S
O409 C408 1.203 . S
O410 C403 1.185 . S
O410 Zn406 2.086 . S
C411 O407 1.278 . S
C411 O412 1.211 . S
O412 C411 1.211 . S
C413 O405 1.284 . S
C413 O414 1.273 . S
O414 C413 1.273 . S
O415 Zn406 1.977 . S
O415 C408 1.267 . S
C416 O417 1.160 . S
C416 O423 1.185 . S
O417 C416 1.160 . S
O418 Zn419 1.899 . S
O418 C426 1.284 . S
Zn419 O418 1.899 . S
Zn419 O420 2.032 . S
Zn419 O423 2.086 . S
Zn419 O428 1.977 . S
O420 Zn419 2.032 . S
O420 C424 1.278 . S
C421 O422 1.203 . S
C421 O428 1.267 . S
O422 C421 1.203 . S
O423 C416 1.185 . S
O423 Zn419 2.086 . S
C424 O420 1.278 . S
C424 O425 1.211 . S
O425 C424 1.211 . S
C426 O418 1.284 . S
C426 O427 1.273 . S
O427 C426 1.273 . S
O428 Zn419 1.977 . S
O428 C421 1.267 . S
C429 O430 1.160 . S
C429 O436 1.185 . S
O430 C429 1.160 . S
O431 Zn432 1.899 . S
O431 C439 1.284 . S
Zn432 O431 1.899 . S
Zn432 O433 2.032 . S
Zn432 O436 2.086 . S
Zn432 O441 1.977 . S
O433 Zn432 2.032 . S
O433 C437 1.278 . S
C434 O435 1.203 . S
C434 O441 1.267 . S
O435 C434 1.203 . S
O436 C429 1.185 . S
O436 Zn432 2.086 . S
C437 O433 1.278 . S
C437 O438 1.211 . S
O438 C437 1.211 . S
C439 O431 1.284 . S
C439 O440 1.273 . S
O440 C439 1.273 . S
O441 Zn432 1.977 . S
O441 C434 1.267 . S
C442 O443 1.160 . S
C442 O449 1.185 . S
O443 C442 1.160 . S
O444 Zn445 1.899 . S
O444 C452 1.284 . S
Zn445 O444 1.899 . S
Zn445 O446 2.032 . S
Zn445 O449 2.086 . S
Zn445 O454 1.977 . S
O446 Zn445 2.032 . S
O446 C450 1.278 . S
C447 O448 1.203 . S
C447 O454 1.267 . S
O448 C447 1.203 . S
O449 C442 1.185 . S
O449 Zn445 2.086 . S
C450 O446 1.278 . S
C450 O451 1.211 . S
O451 C450 1.211 . S
C452 O444 1.284 . S
C452 O453 1.273 . S
O453 C452 1.273 . S
O454 Zn445 1.977 . S
O454 C447 1.267 . S
C455 O456 1.160 . S
C455 O462 1.185 . S
O456 C455 1.160 . S
O457 Zn458 1.899 . S
O457 C465 1.284 . S
Zn458 O457 1.899 . S
Zn458 O459 2.032 . S
Zn458 O462 2.086 . S
Zn458 O467 1.977 . S
O459 Zn458 2.032 . S
O459 C463 1.278 . S
C460 O461 1.203 . S
C460 O467 1.267 . S
O461 C460 1.203 . S
O462 C455 1.185 . S
O462 Zn458 2.086 . S
C463 O459 1.278 . S
C463 O464 1.211 . S
O464 C463 1.211 . S
C465 O457 1.284 . S
C465 O466 1.273 . S
O466 C465 1.273 . S
O467 Zn458 1.977 . S
O467 C460 1.267 . S
C468 O469 1.160 . S
C468 O475 1.185 . S
O469 C468 1.160 . S
O470 Zn471 1.899 . S
O470 C478 1.284 . S
Zn471 O470 1.899 . S
Zn471 O472 2.032 . S
Zn471 O475 2.086 . S
Zn471 O480 1.977 . S
O472 Zn471 2.032 . S
O472 C476 1.278 . S
C473 O474 1.203 . S
C473 O480 1.267 . S
O474 C473 1.203 . S
O475 C468 1.185 . S
O475 Zn471 2.086 . S
C476 O472 1.278 . S
C476 O477 1.211 . S
O477 C476 1.211 . S
C478 O470 1.284 . S
C478 O479 1.273 . S
O479 C478 1.273 . S
O480 Zn471 1.977 . S
O480 C473 1.267 . S
C481 O482 1.160 . S
C481 O488 1.185 . S
O482 C481 1.160 . S
O483 Zn484 1.899 . S
O483 C491 1.284 . S
Zn484 O483 1.899 . S
Zn484 O485 2.032 . S
Zn484 O488 2.086 . S
Zn484 O493 1.977 . S
O485 Zn484 2.032 . S
O485 C489 1.278 . S
C486 O487 1.203 . S
C486 O493 1.267 . S
O487 C486 1.203 . S
O488 C481 1.185 . S
O488 Zn484 2.086 . S
C489 O485 1.278 . S
C489 O490 1.211 . S
O490 C489 1.211 . S
C491 O483 1.284 . S
C491 O492 1.273 . S
O492 C491 1.273 . S
O493 Zn484 1.977 . S
O493 C486 1.267 . S
C494 O495 1.160 . S
C494 O501 1.185 . S
O495 C494 1.160 . S
O496 Zn497 1.899 . S
O496 C504 1.284 . S
Zn497 O496 1.899 . S
Zn497 O498 2.032 . S
Zn497 O501 2.086 . S
Zn497 O506 1.977 . S
O498 Zn497 2.032 . S
O498 C502 1.278 . S
C499 O500 1.203 . S
C499 O506 1.267 . S
O500 C499 1.203 . S
O501 C494 1.185 . S
O501 Zn497 2.086 . S
C502 O498 1.278 . S
C502 O503 1.211 . S
O503 C502 1.211 . S
C504 O496 1.284 . S
C504 O505 1.273 . S
O505 C504 1.273 . S
O506 Zn497 1.977 . S
O506 C499 1.267 . S
C507 O508 1.160 . S
C507 O514 1.185 . S
O508 C507 1.160 . S
O509 Zn510 1.899 . S
O509 C517 1.284 . S
Zn510 O509 1.899 . S
Zn510 O511 2.032 . S
Zn510 O514 2.086 . S
Zn510 O519 1.977 . S
O511 Zn510 2.032 . S
O511 C515 1.278 . S
C512 O513 1.203 . S
C512 O519 1.267 . S
O513 C512 1.203 . S
O514 C507 1.185 . S
O514 Zn510 2.086 . S
C515 O511 1.278 . S
C515 O516 1.211 . S
O516 C515 1.211 . S
C517 O509 1.284 . S
C517 O518 1.273 . S
O518 C517 1.273 . S
O519 Zn510 1.977 . S
O519 C512 1.267 . S
C520 O521 1.160 . S
C520 O527 1.185 . S
O521 C520 1.160 . S
O522 Zn523 1.899 . S
O522 C530 1.284 . S
Zn523 O522 1.899 . S
Zn523 O524 2.032 . S
Zn523 O527 2.086 . S
Zn523 O532 1.977 . S
O524 Zn523 2.032 . S
O524 C528 1.278 . S
C525 O526 1.203 . S
C525 O532 1.267 . S
O526 C525 1.203 . S
O527 C520 1.185 . S
O527 Zn523 2.086 . S
C528 O524 1.278 . S
C528 O529 1.211 . S
O529 C528 1.211 . S
C530 O522 1.284 . S
C530 O531 1.273 . S
O531 C530 1.273 . S
O532 Zn523 1.977 . S
O532 C525 1.267 . S
C533 O534 1.160 . S
C533 O540 1.185 . S
O534 C533 1.160 . S
O535 Zn536 1.899 . S
O535 C543 1.284 . S
Zn536 O535 1.899 . S
Zn536 O537 2.032 . S
Zn536 O540 2.086 . S
Zn536 O545 1.977 . S
O537 Zn536 2.032 . S
O537 C541 1.278 . S
C538 O539 1.203 . S
C538 O545 1.267 . S
O539 C538 1.203 . S
O540 C533 1.185 . S
O540 Zn536 2.086 . S
C541 O537 1.278 . S
C541 O542 1.211 . S
O542 C541 1.211 . S
C543 O535 1.284 . S
C543 O544 1.273 . S
O544 C543 1.273 . S
O545 Zn536 1.977 . S
O545 C538 1.267 . S
C546 O547 1.160 . S
C546 O553 1.185 . S
O547 C546 1.160 . S
O548 Zn549 1.899 . S
O548 C556 1.284 . S
Zn549 O548 1.899 . S
Zn549 O550 2.032 . S
Zn549 O553 2.086 . S
Zn549 O558 1.977 . S
O550 Zn549 2.032 . S
O550 C554 1.278 . S
C551 O552 1.203 . S
C551 O558 1.267 . S
O552 C551 1.203 . S
O553 C546 1.185 . S
O553 Zn549 2.086 . S
C554 O550 1.278 . S
C554 O555 1.211 . S
O555 C554 1.211 . S
C556 O548 1.284 . S
C556 O557 1.273 . S
O557 C556 1.273 . S
O558 Zn549 1.977 . S
O558 C551 1.267 . S
C559 O560 1.160 . S
C559 O566 1.185 . S
O560 C559 1.160 . S
O561 Zn562 1.899 . S
O561 C569 1.284 . S
Zn562 O561 1.899 . S
Zn562 O563 2.032 . S
Zn562 O566 2.086 . S
Zn562 O571 1.977 . S
O563 Zn562 2.032 . S
O563 C567 1.278 . S
C564 O565 1.203 . S
C564 O571 1.267 . S
O565 C564 1.203 . S
O566 C559 1.185 . S
O566 Zn562 2.086 . S
C567 O563 1.278 . S
C567 O568 1.211 . S
O568 C567 1.211 . S
C569 O561 1.284 . S
C569 O570 1.273 . S
O570 C569 1.273 . S
O571 Zn562 1.977 . S
O571 C564 1.267 . S
C572 O573 1.160 . S
C572 O579 1.185 . S
O573 C572 1.160 . S
O574 Zn575 1.899 . S
O574 C582 1.284 . S
Zn575 O574 1.899 . S
Zn575 O576 2.032 . S
Zn575 O579 2.086 . S
Zn575 O584 1.977 . S
O576 Zn575 2.032 . S
O576 C580 1.278 . S
C577 O578 1.203 . S
C577 O584 1.267 . S
O578 C577 1.203 . S
O579 C572 1.185 . S
O579 Zn575 2.086 . S
C580 O576 1.278 . S
C580 O581 1.211 . S
O581 C580 1.211 . S
C582 O574 1.284 . S
C582 O583 1.273 . S
O583 C582 1.273 . S
O584 Zn575 1.977 . S
O584 C577 1.267 . S
C585 O586 1.160 . S
C585 O592 1.185 . S
O586 C585 1.160 . S
O587 Zn588 1.899 . S
O587 C595 1.284 . S
Zn588 O587 1.899 . S
Zn588 O589 2.032 . S
Zn588 O592 2.086 . S
Zn588 O597 1.977 . S
O589 Zn588 2.032 . S
O589 C593 1.278 . S
C590 O591 1.203 . S
C590 O597 1.267 . S
O591 C590 1.203 . S
O592 C585 1.185 . S
O592 Zn588 2.086 . S
C593 O589 1.278 . S
C593 O594 1.211 . S
O594 C593 1.211 . S
C595 O587 1.284 . S
C595 O596 1.273 . S
O596 C595 1.273 . S
O597 Zn588 1.977 . S
O597 C590 1.267 . S
C598 O599 1.160 . S
C598 O605 1.185 . S
O599 C598 1.160 . S
O600 Zn601 1.899 . S
O600 C608 1.284 . S
Zn601 O600 1.899 . S
Zn601 O602 2.032 . S
Zn601 O605 2.086 . S
Zn601 O610 1.977 . S
O602 Zn601 2.032 . S
O602 C606 1.278 . S
C603 O604 1.203 . S
C603 O610 1.267 . S
O604 C603 1.203 . S
O605 C598 1.185 . S
O605 Zn601 2.086 . S
C606 O602 1.278 . S
C606 O607 1.211 . S
O607 C606 1.211 . S
C608 O600 1.284 . S
C608 O609 1.273 . S
O609 C608 1.273 . S
O610 Zn601 1.977 . S
O610 C603 1.267 . S
C611 O612 1.160 . S
C611 O618 1.185 . S
O612 C611 1.160 . S
O613 Zn614 1.899 . S
O613 C621 1.284 . S
Zn614 O613 1.899 . S
Zn614 O615 2.032 . S
Zn614 O618 2.086 . S
Zn614 O623 1.977 . S
O615 Zn614 2.032 . S
O615 C619 1.278 . S
C616 O617 1.203 . S
C616 O623 1.267 . S
O617 C616 1.203 . S
O618 C611 1.185 . S
O618 Zn614 2.086 . S
C619 O615 1.278 . S
C619 O620 1.211 . S
O620 C619 1.211 . S
C621 O613 1.284 . S
C621 O622 1.273 . S
O622 C621 1.273 . S
O623 Zn614 1.977 . S
O623 C616 1.267 . S
C517 C10 1.552 . S
C13 C478 1.202 . S
C36 C481 1.474 . S
C494 C39 1.170 . S
C429 C52 1.167 . S
C75 C452 1.404 . S
C78 C465 1.261 . S
C101 C426 1.526 . S
C104 C413 1.536 . S
C364 C117 1.017 . S
C387 C140 1.407 . S
C153 C390 1.433 . S
C166 C325 1.357 . S
C179 C348 1.404 . S
C351 C182 1.072 . S
C322 C195 1.519 . S
C208 C572 1.324 . S
C621 C231 1.216 . S
C585 C234 1.204 . S
C608 C257 1.167 . S
C520 C260 1.336 . S
C546 C273 1.297 . S
C296 C569 1.220 . S
C543 C309 1.153 . S
C416 C270 1.534 . S
C221 C439 1.389 . S
C442 C244 1.476 . S
C455 C247 1.001 . S
C299 C468 0.996 . S
C491 C283 1.414 . S
C286 C504 1.431 . S
C218 C507 1.530 . S
C530 C205 1.554 . S
C156 C611 1.118 . S
C595 C169 1.505 . S
C192 C598 1.312 . S
C127 C533 1.204 . S
C130 C556 1.478 . S
C143 C559 1.153 . S
C582 C114 1.538 . S
C312 C91 1.315 . S
C374 C23 1.161 . S
C377 C26 1.273 . S
C400 C49 1.229 . S
C403 C0 1.330 . S
C65 C338 1.349 . S
C361 C88 1.175 . S
C335 C62 1.214 . S
C8 C346 1.404 . S
C356 C18 1.043 . S
C34 C320 1.349 . S
C44 C330 1.081 . S
C57 C395 1.083 . S
C411 C73 1.399 . S
C83 C369 1.061 . S
C385 C99 1.399 . S
C109 C476 1.345 . S
C486 C122 1.057 . S
C138 C499 1.256 . S
C151 C515 1.372 . S
C164 C424 1.314 . S
C177 C434 1.237 . S
C450 C187 1.185 . S
C200 C463 1.371 . S
C567 C213 1.333 . S
C229 C590 1.244 . S
C239 C606 1.280 . S
C525 C255 1.474 . S
C619 C265 1.367 . S
C278 C541 1.383 . S
C551 C294 1.256 . S
C307 C577 1.451 . S
C554 C268 1.345 1_554 S
C226 C564 1.073 1_556 S
C580 C242 1.344 1_554 S
C538 C252 1.050 1_554 S
C603 C304 1.052 1_556 S
C281 C528 1.400 1_554 S
C616 C291 1.090 1_556 S
C216 C593 1.341 1_554 S
C437 C203 1.371 1_455 S
C161 C447 1.140 1_565 S
C174 C460 1.068 1_455 S
C421 C190 1.423 1_565 S
C125 C512 1.365 1_655 S
C473 C135 1.048 1_545 S
C148 C489 1.246 1_455 S
C112 C502 1.382 1_545 S
C359 C96 1.439 1_545 S
C21 C382 1.395 1_545 S
C31 C398 1.262 1_655 S
C408 C47 1.362 1_545 S
C5 C372 1.485 1_455 S
C70 C333 1.360 1_545 S
C86 C343 1.401 1_655 S
C60 C317 1.335 1_455 S
