# Generated by pormake.
# Topology fne, (5)-cn, num edge types: 1
# Building blocks:
#     Node 0, Type 0, BuildingBlock: XOMCOT_clean_sbu_0, # of connection points: 5
#     Node 1, Type 0, BuildingBlock: XOMCOT_clean_sbu_0, # of connection points: 5
#     Node 2, Type 0, BuildingBlock: XOMCOT_clean_sbu_0, # of connection points: 5
#     Node 3, Type 0, BuildingBlock: XOMCOT_clean_sbu_0, # of connection points: 5
#     Node 4, Type 0, BuildingBlock: XOMCOT_clean_sbu_0, # of connection points: 5
#     Node 5, Type 0, BuildingBlock: XOMCOT_clean_sbu_0, # of connection points: 5
#     Edge 6, Type (0, 0), BuildingBlock: UVAHIK_clean_linker_0, # of connection points: 2
#     Edge 7, Type (0, 0), BuildingBlock: UVAHIK_clean_linker_0, # of connection points: 2
#     Edge 8, Type (0, 0), BuildingBlock: UVAHIK_clean_linker_0, # of connection points: 2
#     Edge 9, Type (0, 0), BuildingBlock: UVAHIK_clean_linker_0, # of connection points: 2
#     Edge 10, Type (0, 0), BuildingBlock: UVAHIK_clean_linker_0, # of connection points: 2
#     Edge 11, Type (0, 0), BuildingBlock: UVAHIK_clean_linker_0, # of connection points: 2
#     Edge 12, Type (0, 0), BuildingBlock: UVAHIK_clean_linker_0, # of connection points: 2
#     Edge 13, Type (0, 0), BuildingBlock: UVAHIK_clean_linker_0, # of connection points: 2
#     Edge 14, Type (0, 0), BuildingBlock: UVAHIK_clean_linker_0, # of connection points: 2
#     Edge 15, Type (0, 0), BuildingBlock: UVAHIK_clean_linker_0, # of connection points: 2
#     Edge 16, Type (0, 0), BuildingBlock: UVAHIK_clean_linker_0, # of connection points: 2
#     Edge 17, Type (0, 0), BuildingBlock: UVAHIK_clean_linker_0, # of connection points: 2
#     Edge 18, Type (0, 0), BuildingBlock: UVAHIK_clean_linker_0, # of connection points: 2
#     Edge 19, Type (0, 0), BuildingBlock: UVAHIK_clean_linker_0, # of connection points: 2
#     Edge 20, Type (0, 0), BuildingBlock: UVAHIK_clean_linker_0, # of connection points: 2
# Relax obj value: 0.060
# Max RMSD: 0.096
# Mean RMSD: 0.096
data_MOF--net-fne--node1-XOMCOT_clean_sbu_0--edge1-UVAHIK_clean_linker_0
_symmetry_space_group_name_H-M    P1
_symmetry_Int_Tables_number       1
_symmetry_cell_setting            triclinic
loop_
_symmetry_equiv_pos_as_xyz
'x, y, z'
_cell_length_a     59.504318
_cell_length_b     59.535868
_cell_length_c     21.931168
_cell_angle_alpha  89.995389
_cell_angle_beta   90.030702
_cell_angle_gamma 120.07754
loop_
_atom_site_label
_atom_site_type_symbol
_atom_site_fract_x
_atom_site_fract_y
_atom_site_fract_z
_atom_type_partial_charge
Co0 Co 0.35174 0.06075 0.07857 0.0
C1 C 0.34685 0.05361 0.21354 0.0
C2 C 0.31155 0.02737 0.16763 0.0
C3 C 0.30731 0.0239 0.22944 0.0
N4 N 0.33666 0.04532 0.1573 0.0
N5 N 0.32951 0.04052 0.2581 0.0
H6 H 0.36598 0.06981 0.22229 0.0
H7 H 0.29677 0.01832 0.13293 0.0
C8 C 0.31988 1.00419 0.04818 0.0
O9 O 0.33157 0.99966 0.09341 0.0
N10 N 0.3662 0.07641 0.00073 0.0
C11 C 0.39129 0.09392 0.98963 0.0
C12 C 0.39466 0.09768 0.92763 0.0
C13 C 0.35453 0.07001 0.9457 0.0
N14 N 0.37155 0.0826 0.90021 0.0
C15 C 0.39605 0.05971 0.12837 0.0
C16 C 0.40089 0.03088 0.03597 0.0
C17 C 0.41942 0.04025 0.08291 0.0
C18 C 0.41672 0.05485 0.12951 0.0
C19 C 0.38056 0.03628 0.03649 0.0
N20 N 0.37775 0.04985 0.08337 0.0
H21 H 0.39579 0.07269 0.16195 0.0
H22 H 0.36753 0.03019 0.99791 0.0
H23 H 0.40629 0.10246 0.02406 0.0
H24 H 0.33436 0.05547 0.93876 0.0
O25 O 0.37124 0.09434 0.11702 0.0
O26 O 0.33144 0.07802 0.07986 0.0
O27 O 0.3258 0.02753 0.03569 0.0
C28 C 0.35115 0.09706 0.10768 0.0
H29 H 0.28896 0.01126 0.25162 0.0
H30 H 0.4128 0.11007 0.90439 0.0
H31 H 0.40222 0.01976 -0.00149 0.0
H32 H 0.43112 0.06353 0.1653 0.0
Co33 Co 0.3182 0.34473 0.4119 0.0
C34 C 0.32065 0.33996 0.54651 0.0
C35 C 0.31262 0.30504 0.50057 0.0
C36 C 0.31116 0.30059 0.56234 0.0
N37 N 0.31946 0.33005 0.49035 0.0
N38 N 0.31611 0.32257 0.59114 0.0
H39 H 0.32299 0.35884 0.55489 0.0
H40 H 0.30725 0.29038 0.46576 0.0
C41 C 0.34424 0.31433 0.38021 0.0
O42 O 0.36078 0.32662 0.42458 0.0
N43 N 0.31592 0.35857 0.33425 0.0
C44 C 0.32139 0.383 0.32254 0.0
C45 C 0.3193 0.38547 0.26066 0.0
C46 C 0.31042 0.34645 0.27988 0.0
N47 N 0.31254 0.36251 0.23394 0.0
C48 C 0.36344 0.38944 0.46121 0.0
C49 C 0.3963 0.39631 0.36514 0.0
C50 C 0.40548 0.4144 0.41291 0.0
C51 C 0.38871 0.41063 0.46153 0.0
C52 C 0.37094 0.37517 0.367 0.0
N53 N 0.35493 0.37151 0.41538 0.0
H54 H 0.35041 0.3885 0.49618 0.0
H55 H 0.36391 0.36224 0.32826 0.0
H56 H 0.32735 0.39816 0.35638 0.0
H57 H 0.30533 0.32641 0.27399 0.0
O58 O 0.30358 0.36359 0.45086 0.0
O59 O 0.28066 0.3236 0.4144 0.0
O60 O 0.32616 0.3194 0.36868 0.0
C61 C 0.28093 0.34314 0.44199 0.0
H62 H 0.30521 0.28213 0.58415 0.0
H63 H 0.32352 0.40312 0.23701 0.0
H64 H 0.40847 0.39865 0.32618 0.0
H65 H 0.39462 0.42467 0.49818 0.0
Co66 Co 1.00014 0.31257 0.73982 0.0
C67 C 1.00888 0.31635 0.87429 0.0
C68 C 0.03222 0.30378 0.82774 0.0
C69 C 0.03575 0.30281 0.88942 0.0
N70 N 0.0159 0.31298 0.81792 0.0
N71 N 0.02099 0.31066 0.91871 0.0
H72 H 0.99359 0.32057 0.88322 0.0
H73 H 0.04002 0.29687 0.79265 0.0
C74 C 0.0567 0.33687 0.71016 0.0
O75 O 0.06141 0.35271 0.75633 0.0
N76 N 0.9842 0.31131 0.66239 0.0
C77 C 0.96545 0.31723 0.6522 0.0
C78 C 0.9612 0.31653 0.59035 0.0
C79 C 0.991 0.3069 0.60698 0.0
N80 N 0.97736 0.31014 0.56199 0.0
C81 C 1.00003 0.35747 0.78833 0.0
C82 C 0.03034 0.3918 0.69841 0.0
C83 C 0.02007 0.40058 0.74405 0.0
C84 C 1.00469 0.38292 0.78936 0.0
C85 C 0.02509 0.36611 0.69896 0.0
N86 N 1.01085 0.34943 0.74482 0.0
H87 H 0.9864 0.34392 0.82059 0.0
H88 H 0.03178 0.35947 0.66104 0.0
H89 H 0.95612 0.32249 0.68718 0.0
H90 H 1.00637 0.30252 0.59954 0.0
O91 O 0.96666 0.29814 0.77908 0.0
O92 O 0.98306 0.27498 0.74084 0.0
O93 O 0.03327 0.32001 0.69654 0.0
C94 C 0.96406 0.27541 0.76929 0.0
H95 H 0.04763 0.29601 0.91086 0.0
H96 H 0.94752 0.32076 0.56803 0.0
H97 H 0.04204 0.40451 0.66185 0.0
H98 H 0.99526 0.38829 0.82393 0.0
Co99 Co 0.7154 0.99236 0.06584 0.0
C100 C 0.72071 1.00172 0.20032 0.0
C101 C 0.75717 0.02093 0.1535 0.0
C102 C 0.76192 0.02447 0.21507 0.0
N103 N 0.73129 1.00706 0.14399 0.0
N104 N 0.73895 0.01235 0.24436 0.0
H105 H 0.70047 0.98876 0.2098 0.0
H106 H 0.77172 0.02706 0.11809 0.0
C107 C 0.74862 0.04922 0.04208 0.0
O108 O 0.73808 0.05314 0.09063 0.0
N109 N 0.70032 0.97758 0.98796 0.0
C110 C 0.6758 0.9585 0.97714 0.0
C111 C 0.67242 0.95481 0.91505 0.0
C112 C 0.71154 0.98525 0.93284 0.0
N113 N 0.69488 0.97177 0.88743 0.0
C114 C 0.66995 0.99085 0.11579 0.0
C115 C 0.66726 0.02435 0.03292 0.0
C116 C 0.64768 0.01265 0.07709 0.0
C117 C 0.64927 0.99564 0.11879 0.0
C118 C 0.68757 0.01892 0.03142 0.0
N119 N 0.68942 1.00315 0.07411 0.0
H120 H 0.66932 0.97599 0.14488 0.0
H121 H 0.70121 0.02669 0.99419 0.0
H122 H 0.66123 0.94846 0.01186 0.0
H123 H 0.73142 1.0005 0.92598 0.0
O124 O 0.69631 0.9584 0.10296 0.0
O125 O 0.73563 0.97502 0.0631 0.0
O126 O 0.74124 0.02603 0.02458 0.0
C127 C 0.71624 0.95573 0.09097 0.0
H128 H 0.78082 0.03451 0.23663 0.0
H129 H 0.65458 0.94137 0.89197 0.0
H130 H 0.66673 0.03727 -0.00105 0.0
H131 H 0.63401 0.98509 0.15182 0.0
Co132 Co 0.74996 0.70993 0.39667 0.0
C133 C 0.74392 0.71219 0.52946 0.0
C134 C 0.75308 0.74811 0.48606 0.0
C135 C 0.7524 0.75112 0.54812 0.0
N136 N 0.74768 0.72369 0.47452 0.0
N137 N 0.74682 0.72858 0.57538 0.0
H138 H 0.73996 0.69251 0.53563 0.0
H139 H 0.75846 0.76311 0.45214 0.0
C140 C 0.72648 0.73219 0.3098 0.0
O141 O 0.71291 0.70937 0.28363 0.0
N142 N 0.75305 0.69654 0.31804 0.0
C143 C 0.74918 0.67272 0.3047 0.0
C144 C 0.75317 0.67144 0.24336 0.0
C145 C 0.76083 0.70979 0.26496 0.0
N146 N 0.76018 0.69469 0.21826 0.0
C147 C 0.70785 0.65805 0.4138 0.0
C148 C 0.66765 0.66848 0.40731 0.0
C149 C 0.66168 0.64248 0.41026 0.0
C150 C 0.6823 0.6376 0.41593 0.0
C151 C 0.69369 0.68848 0.40589 0.0
N152 N 0.71342 0.68297 0.40424 0.0
H153 H 0.72314 0.65366 0.42054 0.0
H154 H 0.69783 0.70832 0.40589 0.0
H155 H 0.74408 0.65718 0.33669 0.0
H156 H 0.76666 0.73007 0.26037 0.0
O157 O 0.7655 0.69198 0.43585 0.0
O158 O 0.78755 0.73188 0.39902 0.0
O159 O 0.74134 0.73515 0.35501 0.0
C160 C 0.78785 0.71271 0.42698 0.0
H161 H 0.75714 0.76898 0.57144 0.0
H162 H 0.75031 0.65441 0.2189 0.0
H163 H 0.65244 0.67338 0.40505 0.0
H164 H 0.6788 0.61807 0.4224 0.0
Co165 Co 0.06717 0.74415 0.73828 0.0
C166 C 0.05879 0.74029 0.87252 0.0
C167 C 0.03521 0.75281 0.82682 0.0
C168 C 0.03199 0.75385 0.88864 0.0
N169 N 0.05147 0.74357 0.81644 0.0
N170 N 0.04696 0.7461 0.91727 0.0
H171 H 0.07365 0.73541 0.88096 0.0
H172 H 0.02745 0.75991 0.79206 0.0
C173 C 1.01065 0.72048 0.70786 0.0
O174 O 1.00554 0.70442 0.75374 0.0
N175 N 0.08301 0.74559 0.6608 0.0
C176 C 0.10121 0.73904 0.64936 0.0
C177 C 0.10549 0.74046 0.5874 0.0
C178 C 0.07655 0.75105 0.60621 0.0
N179 N 0.08985 0.74788 0.56037 0.0
C180 C 0.067 0.699 0.78567 0.0
C181 C 0.03606 0.66474 0.69627 0.0
C182 C 0.04624 0.6558 0.74181 0.0
C183 C 0.06199 0.67344 0.78675 0.0
C184 C 0.04167 0.69057 0.6968 0.0
N185 N 0.05618 0.7072 0.74252 0.0
H186 H 0.0809 0.71248 0.81762 0.0
H187 H 0.03501 0.69734 0.65902 0.0
H188 H 0.11002 0.73275 0.68343 0.0
H189 H 0.06212 0.75683 0.60012 0.0
O190 O 0.10063 0.75817 0.77749 0.0
O191 O 0.08453 0.78175 0.74022 0.0
O192 O 0.0342 0.73718 0.69495 0.0
C193 C 0.10343 0.78102 0.76843 0.0
H194 H 0.02086 0.76138 0.91074 0.0
H195 H 0.11828 0.73532 0.56397 0.0
H196 H 0.02415 0.65206 0.6599 0.0
H197 H 0.07141 0.66795 0.82111 0.0
C198 C 0.45469 0.03713 0.02652 0.0
C199 C 0.44221 0.03616 0.08176 0.0
C200 C 0.4767 0.03437 0.02577 0.0
C201 C 0.51328 0.01114 0.11915 0.0
H202 H 0.56959 0.05396 0.00872 0.0
C203 C 0.61359 0.01792 0.13301 0.0
C204 C 0.62492 0.01678 0.0776 0.0
C205 C 0.59151 0.02056 0.13349 0.0
C206 C 0.55395 0.0417 0.03945 0.0
H207 H 0.44298 0.03092 0.17948 0.0
H208 H 0.48168 0.02684 0.17838 0.0
H209 H 0.53054 0.05756 0.00955 0.0
H210 H 0.62159 0.01751 0.97913 0.0
H211 H 0.58339 0.02253 0.98012 0.0
H212 H 0.53689 0.99552 0.14945 0.0
C213 C 0.47427 0.02941 0.13542 0.0
C214 C 0.53149 0.0437 0.03984 0.0
C215 C 0.4522 0.03207 0.13614 0.0
C216 C 0.61376 0.01878 0.02271 0.0
C217 C 0.59177 0.02158 0.02323 0.0
C218 C 0.53579 0.00926 0.11898 0.0
C219 C 0.48692 0.03066 0.08025 0.0
C220 C 0.51082 0.02842 0.07964 0.0
C221 C 0.58025 0.02229 0.07861 0.0
C222 C 0.5564 0.0245 0.0791 0.0
H223 H 0.44781 0.04058 0.98377 0.0
H224 H 0.48566 0.03508 0.98231 0.0
H225 H 0.49763 0.99874 0.1497 0.0
H226 H 0.62185 0.01687 0.17619 0.0
H227 H 0.58337 0.02146 0.17696 0.0
C228 C 0.61393 0.62163 0.43634 0.0
C229 C 0.6344 0.62039 0.40753 0.0
C230 C 0.58859 0.6003 0.43497 0.0
C231 C 0.54689 0.5378 0.35322 0.0
H232 H 0.50429 0.52057 0.49838 0.0
C233 C 0.44083 0.45262 0.35686 0.0
C234 C 0.43177 0.43792 0.41063 0.0
C235 C 0.46502 0.47544 0.35555 0.0
C236 C 0.51599 0.52492 0.45759 0.0
H237 H 0.64386 0.59588 0.35276 0.0
H238 H 0.60029 0.55871 0.35236 0.0
H239 H 0.54721 0.5592 0.49756 0.0
H240 H 0.44124 0.43535 0.50482 0.0
H241 H 0.4837 0.47473 0.50225 0.0
H242 H 0.51622 0.503 0.3141 0.0
C243 C 0.60356 0.57618 0.3754 0.0
C244 C 0.54051 0.54737 0.45679 0.0
C245 C 0.62875 0.59746 0.37646 0.0
C246 C 0.44758 0.4464 0.46286 0.0
C247 C 0.47188 0.46909 0.46142 0.0
C248 C 0.52248 0.51528 0.35417 0.0
C249 C 0.58311 0.57721 0.40479 0.0
C250 C 0.5564 0.55403 0.40474 0.0
C251 C 0.48089 0.48405 0.40785 0.0
C252 C 0.50673 0.50841 0.40648 0.0
H253 H 0.61752 0.63888 0.46099 0.0
H254 H 0.5733 0.60196 0.45749 0.0
H255 H 0.55833 0.54245 0.31191 0.0
H256 H 0.42892 0.44683 0.31614 0.0
H257 H 0.47102 0.4866 0.31374 0.0
C258 C 0.0269 0.44106 0.79728 0.0
C259 C 0.02402 0.42741 0.74277 0.0
C260 C 0.02939 0.46571 0.79637 0.0
C261 C 0.01695 0.50926 0.69809 0.0
H262 H 0.06202 0.56178 0.81409 0.0
C263 C 0.04144 0.61663 0.68555 0.0
C264 C 0.04186 0.62881 0.74091 0.0
C265 C 0.03875 0.59187 0.68513 0.0
C266 C 0.04915 0.54724 0.78177 0.0
H267 H 0.0216 0.42932 0.64431 0.0
H268 H 0.02687 0.47257 0.64262 0.0
H269 H 0.05928 0.51955 0.81402 0.0
H270 H 0.03881 0.62385 0.83917 0.0
H271 H 0.03445 0.5809 0.83834 0.0
H272 H 1.00714 0.53721 0.66543 0.0
C273 C 0.02673 0.46402 0.68629 0.0
C274 C 0.04754 0.52297 0.78176 0.0
C275 C 0.02411 0.4393 0.68722 0.0
C276 C 0.03907 0.61534 0.79572 0.0
C277 C 0.03655 0.59069 0.79529 0.0
C278 C 0.01872 0.53361 0.69785 0.0
C279 C 0.02922 0.4775 0.74088 0.0
C280 C 0.03133 0.50358 0.74008 0.0
C281 C 0.03656 0.57873 0.74004 0.0
C282 C 0.03475 0.55285 0.73987 0.0
H283 H 0.02721 0.4327 0.8409 0.0
H284 H 0.03097 0.47531 0.83941 0.0
H285 H 1.00393 0.49473 0.66599 0.0
H286 H 0.04396 0.6265 0.64247 0.0
H287 H 0.0391 0.58332 0.64181 0.0
C288 C 0.34853 0.06987 0.34645 0.0
C289 C 0.33322 0.04471 0.32281 0.0
C290 C 0.35178 0.07387 0.40944 0.0
C291 C 0.35208 0.04231 0.55115 0.0
H292 H 0.34058 0.09399 0.63034 0.0
C293 C 0.38558 0.07884 0.79677 0.0
C294 C 0.36673 0.07862 0.83571 0.0
C295 C 0.38076 0.07432 0.73437 0.0
C296 C 0.34377 0.07945 0.60876 0.0
H297 H 0.30958 1.00406 0.34605 0.0
H298 H 0.31573 0.01098 0.45637 0.0
H299 H 0.33364 0.0869 0.52013 0.0
H300 H 0.32824 0.07386 0.83997 0.0
H301 H 0.31996 0.0665 0.73005 0.0
H302 H 0.36269 0.0352 0.63947 0.0
C303 C 0.32499 0.02757 0.42615 0.0
C304 C 0.33997 0.07552 0.54583 0.0
C305 C 0.32136 0.02363 0.36325 0.0
C306 C 0.34303 0.07404 0.8109 0.0
C307 C 0.33837 0.06998 0.74818 0.0
C308 C 0.35632 0.04656 0.61382 0.0
C309 C 0.34016 0.05274 0.44983 0.0
C310 C 0.34406 0.05689 0.5165 0.0
C311 C 0.35714 0.06991 0.70946 0.0
C312 C 0.35219 0.06515 0.64321 0.0
H313 H 0.35764 0.08646 0.31627 0.0
H314 H 0.36367 0.09345 0.42658 0.0
H315 H 0.35549 0.02792 0.52954 0.0
H316 H 0.40389 0.08202 0.8148 0.0
H317 H 0.39559 0.07449 0.70542 0.0
C318 C 0.30764 0.34389 0.67786 0.0
C319 C 0.3145 0.32597 0.65575 0.0
C320 C 0.3062 0.34721 0.74048 0.0
C321 C 0.29932 0.31515 0.88889 0.0
H322 H 0.32826 0.38492 0.95324 0.0
C323 C 0.31558 0.33807 0.14623 0.0
C324 C 0.31043 0.35703 0.16952 0.0
C325 C 0.31472 0.3336 0.08354 0.0
C326 C 0.31977 0.36529 0.93593 0.0
H327 H 0.32535 0.29761 0.68218 0.0
H328 H 0.32288 0.30342 0.7916 0.0
H329 H 0.32956 0.37849 0.84386 0.0
H330 H 0.29956 0.3856 0.14522 0.0
H331 H 0.29798 0.37777 0.03573 0.0
H332 H 0.28965 0.30197 0.98107 0.0
C333 C 0.31828 0.31465 0.76041 0.0
C334 C 0.32054 0.36161 0.87325 0.0
C335 C 0.31972 0.31133 0.69775 0.0
C336 C 0.304 0.37114 0.12869 0.0
C337 C 0.30312 0.36666 0.06597 0.0
C338 C 0.29854 0.31883 0.95161 0.0
C339 C 0.31157 0.33268 0.78247 0.0
C340 C 0.3104 0.33651 0.84904 0.0
C341 C 0.30868 0.34798 0.04265 0.0
C342 C 0.30883 0.34395 0.97586 0.0
H343 H 0.30295 0.35509 0.6469 0.0
H344 H 0.30055 0.36095 0.75602 0.0
H345 H 0.291 0.29554 0.87154 0.0
H346 H 0.32103 0.32715 0.1762 0.0
H347 H 0.31949 0.31935 0.06701 0.0
C348 C 1.00821 0.32658 0.00904 0.0
C349 C 0.01697 0.31065 0.98362 0.0
C350 C 1.00383 0.32623 0.07172 0.0
C351 C 0.02072 0.30889 0.21942 0.0
H352 H 0.9588 0.30842 0.2764 0.0
C353 C 0.99052 0.29374 0.47322 0.0
C354 C 0.9809 0.30916 0.49719 0.0
C355 C 0.99459 0.29336 0.41052 0.0
C356 C 0.97633 0.30883 0.2613 0.0
H357 H 0.02779 0.28168 0.00471 0.0
H358 H 0.02032 0.28125 0.11388 0.0
H359 H 0.96693 0.30931 0.16726 0.0
H360 H 0.96835 0.33659 0.47388 0.0
H361 H 0.97551 0.33603 0.36488 0.0
H362 H 0.03024 0.30861 0.31343 0.0
C363 C 0.01713 0.29422 0.0853 0.0
C364 C 0.98098 0.30934 0.19874 0.0
C365 C 0.02144 0.29451 0.02261 0.0
C366 C 0.97533 0.32412 0.45695 0.0
C367 C 0.97945 0.3238 0.39434 0.0
C368 C 0.01611 0.30846 0.28203 0.0
C369 C 1.00818 0.31 0.11054 0.0
C370 C 1.00324 0.30942 0.17708 0.0
C371 C 0.98918 0.30847 0.37034 0.0
C372 C 0.99388 0.30847 0.30373 0.0
H373 H 1.00499 0.33955 0.9806 0.0
H374 H 0.99732 0.33892 0.08991 0.0
H375 H 0.03822 0.30927 0.20419 0.0
H376 H 0.99469 0.28174 0.50286 0.0
H377 H 1.00173 0.28102 0.39348 0.0
C378 C 0.71692 1.00074 0.8002 0.0
C379 C 0.69958 0.97588 0.82294 0.0
C380 C 0.72114 1.00489 0.73758 0.0
C381 C 0.6922 0.97589 0.58796 0.0
H382 H 0.76145 0.02379 0.52866 0.0
C383 C 0.71202 1.00642 0.33512 0.0
C384 C 0.73479 0.00907 0.30916 0.0
C385 C 0.70776 1.0028 0.3979 0.0
C386 C 0.74203 0.01017 0.54435 0.0
H387 H 0.67338 0.93582 0.7981 0.0
H388 H 0.68108 0.94288 0.68867 0.0
H389 H 0.75414 0.01583 0.63756 0.0
H390 H 0.77076 0.00957 0.32843 0.0
H391 H 0.76324 1.00285 0.43768 0.0
H392 H 0.68027 0.96956 0.49457 0.0
C393 C 0.69099 0.95932 0.7191 0.0
C394 C 0.73776 1.00586 0.60694 0.0
C395 C 0.68663 0.95522 0.78177 0.0
C396 C 0.75324 1.00803 0.34724 0.0
C397 C 0.74891 1.00421 0.40991 0.0
C398 C 0.6965 0.98007 0.52532 0.0
C399 C 0.70826 0.98423 0.69622 0.0
C400 C 0.71279 0.98869 0.62955 0.0
C401 C 0.72612 1.00154 0.43605 0.0
C402 C 0.72147 0.99726 0.50273 0.0
H403 H 0.72683 0.01713 0.83073 0.0
H404 H 0.73418 0.02441 0.72156 0.0
H405 H 0.67265 0.96278 0.60378 0.0
H406 H 0.69763 1.00746 0.3069 0.0
H407 H 0.69021 1.00127 0.41659 0.0
C408 C 0.75431 0.70652 0.66215 0.0
C409 C 0.74719 0.72425 0.63999 0.0
C410 C 0.7563 0.70361 0.72483 0.0
C411 C 0.76541 0.73795 0.87117 0.0
H412 H 0.74129 0.66989 0.94149 0.0
C413 C 0.75627 0.71895 0.1312 0.0
C414 C 0.76263 0.70075 0.15408 0.0
C415 C 0.75591 0.72277 0.0684 0.0
C416 C 0.74845 0.68908 0.92247 0.0
H417 H 0.73572 0.75214 0.6665 0.0
H418 H 0.73903 0.74697 0.77584 0.0
H419 H 0.73657 0.67396 0.83232 0.0
H420 H 0.77483 0.67329 0.12891 0.0
H421 H 0.77433 0.68003 0.01935 0.0
H422 H 0.77715 0.75304 0.96146 0.0
C423 C 0.74359 0.73569 0.7447 0.0
C424 C 0.74571 0.6914 0.85987 0.0
C425 C 0.74163 0.73861 0.68204 0.0
C426 C 0.76947 0.68714 0.11275 0.0
C427 C 0.76912 0.69096 0.04997 0.0
C428 C 0.76814 0.73562 0.9338 0.0
C429 C 0.75119 0.71834 0.76685 0.0
C430 C 0.7541 0.71585 0.83347 0.0
C431 C 0.7619 0.70849 0.02701 0.0
C432 C 0.75966 0.71115 0.9602 0.0
H433 H 0.75915 0.69546 0.63111 0.0
H434 H 0.76252 0.69031 0.74031 0.0
H435 H 0.77248 0.75712 0.85215 0.0
H436 H 0.7505 0.72947 0.1616 0.0
H437 H 0.74999 0.73621 0.05225 0.0
C438 C 0.10636 0.75452 0.4546 0.0
C439 C 0.08634 0.74962 0.49584 0.0
C440 C 0.10256 0.75507 0.39187 0.0
C441 C 0.06086 0.7622 0.27776 0.0
H442 H 0.08535 0.72712 0.17083 0.0
C443 C 0.032 0.74297 0.0236 0.0
C444 C 0.05148 0.74663 0.98194 0.0
C445 C 0.03642 0.74371 0.08634 0.0
C446 C 0.07866 0.73726 0.19997 0.0
H447 H 0.04653 0.74138 0.50314 0.0
H448 H 0.03998 0.74246 0.39396 0.0
H449 H 0.09315 0.72836 0.2802 0.0
H450 H 0.09115 0.75458 0.9737 0.0
H451 H 0.09884 0.75585 0.08293 0.0
H452 H 0.04633 0.77107 0.1975 0.0
C453 C 0.05875 0.74623 0.41019 0.0
C454 C 0.08314 0.73799 0.26264 0.0
C455 C 0.06254 0.74565 0.47289 0.0
C456 C 0.07552 0.75113 0.00443 0.0
C457 C 0.07995 0.75191 0.06712 0.0
C458 C 0.05639 0.7615 0.21505 0.0
C459 C 0.07865 0.75075 0.36896 0.0
C460 C 0.07427 0.75043 0.30225 0.0
C461 C 0.06046 0.7482 0.10881 0.0
C462 C 0.06521 0.749 0.17546 0.0
H463 H 0.12503 0.75803 0.47078 0.0
H464 H 0.11841 0.75902 0.36129 0.0
H465 H 0.05408 0.77224 0.307 0.0
H466 H 0.01319 0.73917 0.00765 0.0
H467 H 0.02086 0.74041 0.11726 0.0
C468 C 0.37109 0.13876 0.16602 0.0
C469 C 0.35049 0.12016 0.13044 0.0
C470 C 0.37021 0.16002 0.19019 0.0
C471 C 0.33902 0.19992 0.17325 0.0
H472 H 0.36067 0.21855 0.34127 0.0
C473 C 0.32594 0.27741 0.30501 0.0
C474 C 0.3455 0.29334 0.34662 0.0
C475 C 0.32646 0.25664 0.27629 0.0
C476 C 0.3549 0.21391 0.29403 0.0
H477 H 0.31296 0.10955 0.09155 0.0
H478 H 0.31145 0.14685 0.13376 0.0
H479 H 0.36167 0.18184 0.29554 0.0
H480 H 0.38144 0.30041 0.3889 0.0
H481 H 0.38263 0.26472 0.33812 0.0
H482 H 0.33244 0.23217 0.17167 0.0
C483 C 0.32834 0.14498 0.14268 0.0
C484 C 0.35542 0.19277 0.26783 0.0
C485 C 0.32915 0.12356 0.11873 0.0
C486 C 0.36592 0.28842 0.35756 0.0
C487 C 0.3665 0.26778 0.3287 0.0
C488 C 0.33862 0.2212 0.19942 0.0
C489 C 0.34875 0.16332 0.17926 0.0
C490 C 0.34762 0.18558 0.20704 0.0
C491 C 0.34661 0.25137 0.28831 0.0
C492 C 0.34669 0.22857 0.26012 0.0
H493 H 0.38784 0.13676 0.1759 0.0
H494 H 0.38643 0.17396 0.21741 0.0
H495 H 0.3331 0.19503 0.12615 0.0
H496 H 0.30991 0.28063 0.2955 0.0
H497 H 0.31069 0.24433 0.24589 0.0
C498 C 0.23229 0.3209 0.45041 0.0
C499 C 0.2569 0.34213 0.46392 0.0
C500 C 0.20973 0.32009 0.47211 0.0
C501 C 0.18594 0.36244 0.536 0.0
H502 H 0.12887 0.29762 0.5961 0.0
C503 C 0.10426 0.35773 0.68704 0.0
C504 C 0.07865 0.33785 0.67576 0.0
C505 C 0.12513 0.35818 0.65663 0.0
C506 C 0.1445 0.31581 0.57879 0.0
H507 H 0.27716 0.37903 0.51131 0.0
H508 H 0.2381 0.37741 0.54996 0.0
H509 H 0.16686 0.29835 0.55193 0.0
H510 H 0.05491 0.30297 0.62294 0.0
H511 H 0.09144 0.30373 0.57003 0.0
H512 H 0.1638 0.37997 0.56417 0.0
C513 C 0.23602 0.36162 0.5215 0.0
C514 C 0.1663 0.31624 0.55335 0.0
C515 C 0.25849 0.36248 0.4996 0.0
C516 C 0.07439 0.31856 0.63278 0.0
C517 C 0.09532 0.3189 0.60269 0.0
C518 C 0.16425 0.36203 0.56176 0.0
C519 C 0.21131 0.34045 0.50801 0.0
C520 C 0.18745 0.33963 0.53219 0.0
C521 C 0.12095 0.33867 0.61445 0.0
C522 C 0.14337 0.33877 0.58401 0.0
H523 H 0.23042 0.30494 0.42292 0.0
H524 H 0.19106 0.30362 0.46022 0.0
H525 H 0.20156 0.38071 0.51901 0.0
H526 H 0.10828 0.37289 0.71982 0.0
H527 H 0.14464 0.37353 0.66724 0.0
C528 C 0.77558 0.09711 0.02397 0.0
C529 C 0.76952 0.07174 0.00892 0.0
C530 C 0.79607 0.11853 0.99514 0.0
C531 C 0.84009 0.13827 0.86042 0.0
H532 H 0.8821 0.19923 0.95943 0.0
C533 C 0.93744 0.2268 0.77814 0.0
C534 C 0.94114 0.25147 0.7922 0.0
C535 C 0.91621 0.20435 0.80211 0.0
C536 C 0.87043 0.18244 0.93099 0.0
H537 H 0.78006 0.049 0.95081 0.0
H538 H 0.8162 0.08639 0.90138 0.0
H539 H 0.84585 0.16115 0.00553 0.0
H540 H 0.92532 0.2719 0.84193 0.0
H541 H 0.8885 0.2329 0.88376 0.0
H542 H 0.86519 0.15969 0.78608 0.0
C543 C 0.80485 0.08976 0.93486 0.0
C544 C 0.84954 0.16058 0.95738 0.0
C545 C 0.78418 0.06829 0.96345 0.0
C546 C 0.92306 0.25321 0.83019 0.0
C547 C 0.90203 0.23085 0.85451 0.0
C548 C 0.86118 0.16013 0.8341 0.0
C549 C 0.81125 0.11521 0.95079 0.0
C550 C 0.8339 0.13825 0.92241 0.0
C551 C 0.89842 0.20617 0.84114 0.0
C552 C 0.87644 0.18255 0.869 0.0
H553 H 0.76456 0.10052 0.05834 0.0
H554 H 0.79996 0.13774 0.00769 0.0
H555 H 0.82836 0.12158 0.83184 0.0
H556 H 0.95105 0.22482 0.74903 0.0
H557 H 0.91405 0.18563 0.79126 0.0
C558 C 0.73764 0.92849 0.09315 0.0
C559 C 0.71697 0.93223 0.11016 0.0
C560 C 0.73845 0.90651 0.11292 0.0
C561 C 0.71401 0.85716 0.2346 0.0
H562 H 0.73309 0.81837 0.12494 0.0
C563 C 0.73569 0.77805 0.31976 0.0
C564 C 0.72502 0.75481 0.28623 0.0
C565 C 0.73457 0.79948 0.29746 0.0
C566 C 0.7276 0.82893 0.15603 0.0
H567 H 0.68088 0.91575 0.16093 0.0
H568 H 0.68237 0.8776 0.19548 0.0
H569 H 0.73126 0.85607 0.08692 0.0
H570 H 0.70505 0.73604 0.20244 0.0
H571 H 0.70319 0.77354 0.16342 0.0
H572 H 0.71026 0.83006 0.30366 0.0
C573 C 0.69801 0.89167 0.16715 0.0
C574 C 0.72679 0.85066 0.1344 0.0
C575 C 0.69709 0.91348 0.14701 0.0
C576 C 0.71334 0.75358 0.22961 0.0
C577 C 0.71244 0.77513 0.20702 0.0
C578 C 0.71504 0.83561 0.25633 0.0
C579 C 0.71874 0.88795 0.15059 0.0
C580 C 0.7199 0.86498 0.1734 0.0
C581 C 0.72297 0.79832 0.24079 0.0
C582 C 0.72181 0.8212 0.21733 0.0
H583 H 0.75326 0.94259 0.06484 0.0
H584 H 0.75479 0.90432 0.09975 0.0
H585 H 0.70886 0.8679 0.26599 0.0
H586 H 0.74487 0.77973 0.36345 0.0
H587 H 0.74311 0.81713 0.32432 0.0
C588 C 0.99377 0.73918 0.62938 0.0
C589 C 0.98904 0.71974 0.67237 0.0
C590 C 0.97319 0.73895 0.5978 0.0
C591 C 0.905 0.69577 0.55178 0.0
H592 H 0.90165 0.75905 0.54133 0.0
C593 C 0.81072 0.69401 0.4851 0.0
C594 C 0.81209 0.71429 0.44954 0.0
C595 C 0.83324 0.69526 0.5078 0.0
C596 C 0.90245 0.74128 0.54288 0.0
H597 H 0.95893 0.68459 0.71499 0.0
H598 H 0.92316 0.68413 0.65972 0.0
H599 H 0.93935 0.76001 0.58833 0.0
H600 H 0.83826 0.75182 0.40969 0.0
H601 H 0.87783 0.75385 0.44851 0.0
H602 H 0.86827 0.67698 0.50635 0.0
C603 C 0.94279 0.69952 0.65031 0.0
C604 C 0.92406 0.74184 0.56997 0.0
C605 C 0.96331 0.69987 0.68226 0.0
C606 C 0.83658 0.73589 0.437 0.0
C607 C 0.85923 0.73709 0.45956 0.0
C608 C 0.88353 0.69524 0.52436 0.0
C609 C 0.94744 0.71913 0.60799 0.0
C610 C 0.92538 0.719 0.57557 0.0
C611 C 0.85784 0.71676 0.49528 0.0
C612 C 0.88172 0.71789 0.52043 0.0
H613 H 0.01336 0.75477 0.62058 0.0
H614 H 0.97743 0.75421 0.56511 0.0
H615 H 0.90565 0.67793 0.55439 0.0
H616 H 0.79216 0.67718 0.49611 0.0
H617 H 0.83127 0.67948 0.53615 0.0
C618 C 0.14477 0.80263 0.82823 0.0
C619 C 0.12644 0.80473 0.79196 0.0
C620 C 0.1659 0.82472 0.85322 0.0
C621 C 0.20609 0.89587 0.83776 0.0
H622 H 0.2233 0.89235 0.00671 0.0
C623 C 0.28327 0.98599 0.97204 0.0
C624 C 0.2988 0.98209 0.01424 0.0
C625 C 0.26251 0.96484 0.94276 0.0
C626 C 0.21905 0.89362 0.95924 0.0
H627 H 0.11614 0.83177 0.75265 0.0
H628 H 0.15321 0.8705 0.79625 0.0
H629 H 0.18682 0.85479 0.95953 0.0
H630 H 0.30516 0.95289 0.05707 0.0
H631 H 0.26949 0.91625 0.00531 0.0
H632 H 0.23853 0.93468 0.83737 0.0
C633 C 0.15124 0.8517 0.80511 0.0
C634 C 0.19805 0.87205 0.93221 0.0
C635 C 0.12995 0.82952 0.78035 0.0
C636 C 0.29348 0.95663 0.0253 0.0
C637 C 0.27285 0.93555 0.99585 0.0
C638 C 0.22725 0.91746 0.86475 0.0
C639 C 0.16931 0.84952 0.8424 0.0
C640 C 0.19138 0.87283 0.87107 0.0
C641 C 0.25685 0.9393 0.95478 0.0
C642 C 0.23411 0.91656 0.9258 0.0
H643 H 0.14267 0.78383 0.83805 0.0
H644 H 0.17964 0.82237 0.881 0.0
H645 H 0.20159 0.89702 0.79041 0.0
H646 H 0.28682 1.00535 0.96249 0.0
H647 H 0.2505 0.9685 0.91185 0.0
loop_
_geom_bond_atom_site_label_1
_geom_bond_atom_site_label_2
_geom_bond_distance
_geom_bond_site_symmetry_2
_ccdc_geom_bond_type
Co0 N4 2.148 . S
Co0 N10 2.128 1_554 S
Co0 N20 2.194 . S
Co0 O25 2.351 . S
Co0 O26 2.155 . S
Co0 O27 2.096 1_545 S
C1 N4 1.301 . S
C1 N5 1.328 . S
C1 H6 0.930 . S
C2 C3 1.333 . S
C2 N4 1.317 1_565 S
C2 H7 0.930 . S
C3 C2 1.333 . S
C3 N5 1.350 1_565 S
C3 H29 0.931 . S
N4 Co0 2.148 . S
N4 C1 1.301 . S
N4 C2 1.317 1_545 S
N5 C1 1.328 . S
N5 C3 1.350 1_545 S
H6 C1 0.930 . S
H7 C2 0.930 . S
C8 O9 1.224 . S
C8 O27 1.247 . S
O9 C8 1.224 . S
N10 Co0 2.128 1_556 S
N10 C11 1.355 . S
N10 C13 1.311 . S
C11 N10 1.355 . S
C11 C12 1.363 . S
C11 H23 0.929 . S
C12 C11 1.363 . S
C12 N14 1.375 . S
C12 H30 0.931 . S
C13 N10 1.311 . S
C13 N14 1.347 . S
C13 H24 0.929 . S
N14 C12 1.375 . S
N14 C13 1.347 . S
C15 C18 1.365 . S
C15 N20 1.328 . S
C15 H21 0.929 . S
C16 C17 1.359 1_565 S
C16 C19 1.373 1_565 S
C16 H31 0.937 . S
C17 C16 1.359 1_545 S
C17 C18 1.366 . S
C18 C15 1.365 . S
C18 C17 1.366 . S
C18 H32 0.930 . S
C19 C16 1.373 1_545 S
C19 N20 1.315 . S
C19 H22 0.930 1_545 S
N20 Co0 2.194 . S
N20 C15 1.328 . S
N20 C19 1.315 . S
H21 C15 0.929 . S
H22 C19 0.930 1_565 S
H23 C11 0.929 . S
H24 C13 0.929 . S
O25 Co0 2.351 . S
O25 C28 1.244 . S
O26 Co0 2.155 . S
O26 C28 1.240 . S
O27 Co0 2.096 1_565 S
O27 C8 1.247 . S
C28 O25 1.244 . S
C28 O26 1.240 . S
H29 C3 0.931 . S
H30 C12 0.931 . S
H31 C16 0.937 . S
H32 C18 0.930 . S
Co33 N37 2.148 . S
Co33 N43 2.128 . S
Co33 N53 2.194 . S
Co33 O58 2.351 . S
Co33 O59 2.155 . S
Co33 O60 2.096 . S
C34 N37 1.301 . S
C34 N38 1.328 . S
C34 H39 0.930 . S
C35 C36 1.333 . S
C35 N37 1.317 . S
C35 H40 0.930 . S
C36 C35 1.333 . S
C36 N38 1.350 . S
C36 H62 0.931 . S
N37 Co33 2.148 . S
N37 C34 1.301 . S
N37 C35 1.317 . S
N38 C34 1.328 . S
N38 C36 1.350 . S
H39 C34 0.930 . S
H40 C35 0.930 . S
C41 O42 1.224 . S
C41 O60 1.247 . S
O42 C41 1.224 . S
N43 Co33 2.128 . S
N43 C44 1.355 . S
N43 C46 1.311 . S
C44 N43 1.355 . S
C44 C45 1.363 . S
C44 H56 0.929 . S
C45 C44 1.363 . S
C45 N47 1.375 . S
C45 H63 0.931 . S
C46 N43 1.311 . S
C46 N47 1.347 . S
C46 H57 0.929 . S
N47 C45 1.375 . S
N47 C46 1.347 . S
C48 C51 1.365 . S
C48 N53 1.328 . S
C48 H54 0.929 . S
C49 C50 1.362 . S
C49 C52 1.378 . S
C49 H64 0.929 . S
C50 C49 1.362 . S
C50 C51 1.366 . S
C51 C48 1.365 . S
C51 C50 1.366 . S
C51 H65 0.930 . S
C52 C49 1.378 . S
C52 N53 1.315 . S
C52 H55 0.930 . S
N53 Co33 2.194 . S
N53 C48 1.328 . S
N53 C52 1.315 . S
H54 C48 0.929 . S
H55 C52 0.930 . S
H56 C44 0.929 . S
H57 C46 0.929 . S
O58 Co33 2.351 . S
O58 C61 1.244 . S
O59 Co33 2.155 . S
O59 C61 1.240 . S
O60 Co33 2.096 . S
O60 C41 1.247 . S
C61 O58 1.244 . S
C61 O59 1.240 . S
H62 C36 0.931 . S
H63 C45 0.931 . S
H64 C49 0.929 . S
H65 C51 0.930 . S
Co66 N70 2.148 . S
Co66 N76 2.128 . S
Co66 N86 2.194 . S
Co66 O91 2.351 1_455 S
Co66 O92 2.155 1_455 S
Co66 O93 2.096 . S
C67 N70 1.301 . S
C67 N71 1.328 . S
C67 H72 0.930 . S
C68 C69 1.333 . S
C68 N70 1.317 . S
C68 H73 0.930 . S
C69 C68 1.333 . S
C69 N71 1.350 . S
C69 H95 0.931 . S
N70 Co66 2.148 . S
N70 C67 1.301 . S
N70 C68 1.317 . S
N71 C67 1.328 . S
N71 C69 1.350 . S
H72 C67 0.930 . S
H73 C68 0.930 . S
C74 O75 1.224 . S
C74 O93 1.247 . S
O75 C74 1.224 . S
N76 Co66 2.128 . S
N76 C77 1.355 1_455 S
N76 C79 1.311 . S
C77 N76 1.355 1_655 S
C77 C78 1.363 . S
C77 H89 0.929 . S
C78 C77 1.363 . S
C78 N80 1.375 1_655 S
C78 H96 0.931 . S
C79 N76 1.311 . S
C79 N80 1.347 . S
C79 H90 0.929 . S
N80 C78 1.375 1_455 S
N80 C79 1.347 . S
C81 C84 1.365 . S
C81 N86 1.295 1_655 S
C81 H87 0.947 . S
C82 C83 1.362 . S
C82 C85 1.378 . S
C82 H97 0.929 . S
C83 C82 1.362 . S
C83 C84 1.351 1_455 S
C84 C81 1.365 . S
C84 C83 1.351 1_655 S
C84 H98 0.964 . S
C85 C82 1.378 . S
C85 N86 1.315 . S
C85 H88 0.930 . S
N86 Co66 2.194 . S
N86 C81 1.295 1_455 S
N86 C85 1.315 . S
H87 C81 0.947 . S
H88 C85 0.930 . S
H89 C77 0.929 . S
H90 C79 0.929 . S
O91 Co66 2.351 1_655 S
O91 C94 1.244 . S
O92 Co66 2.155 1_655 S
O92 C94 1.240 . S
O93 Co66 2.096 . S
O93 C74 1.247 . S
C94 O91 1.244 . S
C94 O92 1.240 . S
H95 C69 0.931 . S
H96 C78 0.931 . S
H97 C82 0.929 . S
H98 C84 0.964 . S
Co99 N103 2.148 . S
Co99 N109 2.128 1_554 S
Co99 N119 2.194 . S
Co99 O124 2.351 1_545 S
Co99 O125 2.155 1_545 S
Co99 O126 2.096 . S
C100 N103 1.301 . S
C100 N104 1.328 . S
C100 H105 0.928 . S
C101 C102 1.333 . S
C101 N103 1.317 . S
C101 H106 0.930 . S
C102 C101 1.333 . S
C102 N104 1.350 . S
C102 H128 0.931 . S
N103 Co99 2.148 . S
N103 C100 1.301 . S
N103 C101 1.317 . S
N104 C100 1.328 . S
N104 C102 1.350 . S
H105 C100 0.928 . S
H106 C101 0.930 . S
C107 O108 1.224 . S
C107 O126 1.247 . S
O108 C107 1.224 . S
N109 Co99 2.128 1_556 S
N109 C110 1.355 1_545 S
N109 C112 1.311 . S
C110 N109 1.355 1_565 S
C110 C111 1.363 . S
C110 H122 0.929 . S
C111 C110 1.363 . S
C111 N113 1.375 1_565 S
C111 H129 0.931 . S
C112 N109 1.311 . S
C112 N113 1.347 . S
C112 H123 0.929 . S
N113 C111 1.375 1_545 S
N113 C112 1.347 . S
C114 C117 1.365 . S
C114 N119 1.328 1_565 S
C114 H120 0.929 . S
C115 C116 1.362 . S
C115 C118 1.378 . S
C115 H130 0.929 . S
C116 C115 1.362 . S
C116 C117 1.366 1_545 S
C117 C114 1.365 . S
C117 C116 1.366 1_565 S
C117 H131 0.930 . S
C118 C115 1.378 . S
C118 N119 1.315 . S
C118 H121 0.930 . S
N119 Co99 2.194 . S
N119 C114 1.328 1_545 S
N119 C118 1.315 . S
H120 C114 0.929 . S
H121 C118 0.930 . S
H122 C110 0.929 . S
H123 C112 0.929 . S
O124 Co99 2.351 1_565 S
O124 C127 1.244 . S
O125 Co99 2.155 1_565 S
O125 C127 1.240 . S
O126 Co99 2.096 . S
O126 C107 1.247 . S
C127 O124 1.244 . S
C127 O125 1.240 . S
H128 C102 0.931 . S
H129 C111 0.931 . S
H130 C115 0.929 . S
H131 C117 0.930 . S
Co132 N136 2.148 . S
Co132 N142 2.128 . S
Co132 N152 2.194 . S
Co132 O157 2.351 . S
Co132 O158 2.155 . S
Co132 O159 2.096 . S
C133 N136 1.301 . S
C133 N137 1.328 . S
C133 H138 0.930 . S
C134 C135 1.333 . S
C134 N136 1.317 . S
C134 H139 0.930 . S
C135 C134 1.333 . S
C135 N137 1.350 . S
C135 H161 0.931 . S
N136 Co132 2.148 . S
N136 C133 1.301 . S
N136 C134 1.317 . S
N137 C133 1.328 . S
N137 C135 1.350 . S
H138 C133 0.930 . S
H139 C134 0.930 . S
C140 O141 1.224 . S
C140 O159 1.247 . S
O141 C140 1.224 . S
N142 Co132 2.128 . S
N142 C143 1.355 . S
N142 C145 1.311 . S
C143 N142 1.355 . S
C143 C144 1.363 . S
C143 H155 0.929 . S
C144 C143 1.363 . S
C144 N146 1.375 . S
C144 H162 0.931 . S
C145 N142 1.311 . S
C145 N146 1.347 . S
C145 H156 0.929 . S
N146 C144 1.375 . S
N146 C145 1.347 . S
C147 C150 1.365 . S
C147 N152 1.328 . S
C147 H153 0.929 . S
C148 C149 1.362 . S
C148 C151 1.378 . S
C148 H163 0.929 . S
C149 C148 1.362 . S
C149 C150 1.366 . S
C150 C147 1.365 . S
C150 C149 1.366 . S
C150 H164 0.930 . S
C151 C148 1.378 . S
C151 N152 1.315 . S
C151 H154 0.930 . S
N152 Co132 2.194 . S
N152 C147 1.328 . S
N152 C151 1.315 . S
H153 C147 0.929 . S
H154 C151 0.930 . S
H155 C143 0.929 . S
H156 C145 0.929 . S
O157 Co132 2.351 . S
O157 C160 1.244 . S
O158 Co132 2.155 . S
O158 C160 1.240 . S
O159 Co132 2.096 . S
O159 C140 1.247 . S
C160 O157 1.244 . S
C160 O158 1.240 . S
H161 C135 0.931 . S
H162 C144 0.931 . S
H163 C148 0.929 . S
H164 C150 0.930 . S
Co165 N169 2.148 . S
Co165 N175 2.128 . S
Co165 N185 2.194 . S
Co165 O190 2.351 . S
Co165 O191 2.155 . S
Co165 O192 2.096 1_455 S
C166 N169 1.301 . S
C166 N170 1.328 . S
C166 H171 0.930 . S
C167 C168 1.333 . S
C167 N169 1.317 1_655 S
C167 H172 0.930 . S
C168 C167 1.333 . S
C168 N170 1.350 1_655 S
C168 H194 0.931 . S
N169 Co165 2.148 . S
N169 C166 1.301 . S
N169 C167 1.317 1_455 S
N170 C166 1.328 . S
N170 C168 1.350 1_455 S
H171 C166 0.930 . S
H172 C167 0.930 . S
C173 O174 1.224 . S
C173 O192 1.247 . S
O174 C173 1.224 . S
N175 Co165 2.128 . S
N175 C176 1.355 . S
N175 C178 1.311 . S
C176 N175 1.355 . S
C176 C177 1.363 . S
C176 H188 0.929 . S
C177 C176 1.363 . S
C177 N179 1.375 . S
C177 H195 0.931 . S
C178 N175 1.311 . S
C178 N179 1.347 . S
C178 H189 0.929 . S
N179 C177 1.375 . S
N179 C178 1.347 . S
C180 C183 1.365 . S
C180 N185 1.328 . S
C180 H186 0.929 . S
C181 C182 1.362 . S
C181 C184 1.378 . S
C181 H196 0.929 1_455 S
C182 C181 1.362 . S
C182 C183 1.366 . S
C183 C180 1.365 . S
C183 C182 1.366 . S
C183 H197 0.930 . S
C184 C181 1.378 . S
C184 N185 1.315 . S
C184 H187 0.930 1_455 S
N185 Co165 2.194 . S
N185 C180 1.328 . S
N185 C184 1.315 . S
H186 C180 0.929 . S
H187 C184 0.930 1_655 S
H188 C176 0.929 . S
H189 C178 0.929 . S
O190 Co165 2.351 . S
O190 C193 1.244 . S
O191 Co165 2.155 . S
O191 C193 1.240 . S
O192 Co165 2.096 1_655 S
O192 C173 1.247 . S
C193 O190 1.244 . S
C193 O191 1.240 . S
H194 C168 0.931 . S
H195 C177 0.931 . S
H196 C181 0.929 1_655 S
H197 C183 0.930 . S
C198 C199 1.349 . S
C198 C200 1.327 . S
C198 H223 0.950 1_554 S
C199 C198 1.349 . S
C199 C215 1.349 . S
C200 C198 1.327 . S
C200 C219 1.429 . S
C200 H224 0.950 1_554 S
C201 C218 1.574 . S
C201 C220 1.368 . S
C201 H225 0.949 1_545 S
H202 C206 0.949 1_556 S
C203 C204 1.349 . S
C203 C205 1.327 . S
C203 H226 0.950 1_545 S
C204 C203 1.349 . S
C204 C216 1.349 . S
C205 C203 1.327 . S
C205 C221 1.429 . S
C205 H227 0.950 1_545 S
C206 H202 0.949 1_554 S
C206 C214 1.574 . S
C206 C222 1.368 . S
H207 C215 0.950 1_565 S
H208 C213 0.950 1_565 S
H209 C214 0.949 1_556 S
H210 C216 0.950 1_556 S
H211 C217 0.950 1_556 S
H212 C218 0.949 1_565 S
C213 H208 0.950 1_545 S
C213 C215 1.327 . S
C213 C219 1.429 . S
C214 C206 1.574 . S
C214 H209 0.949 1_554 S
C214 C220 1.368 . S
C215 C199 1.349 . S
C215 H207 0.950 1_545 S
C215 C213 1.327 . S
C216 C204 1.349 . S
C216 H210 0.950 1_554 S
C216 C217 1.327 . S
C217 H211 0.950 1_554 S
C217 C216 1.327 . S
C217 C221 1.429 . S
C218 C201 1.574 . S
C218 H212 0.949 1_545 S
C218 C222 1.368 . S
C219 C200 1.429 . S
C219 C213 1.429 . S
C219 C220 1.523 . S
C220 C201 1.368 . S
C220 C214 1.368 . S
C220 C219 1.523 . S
C221 C205 1.429 . S
C221 C217 1.429 . S
C221 C222 1.523 . S
C222 C206 1.368 . S
C222 C218 1.368 . S
C222 C221 1.523 . S
H223 C198 0.950 1_556 S
H224 C200 0.950 1_556 S
H225 C201 0.949 1_565 S
H226 C203 0.950 1_565 S
H227 C205 0.950 1_565 S
C228 C229 1.349 . S
C228 C230 1.327 . S
C228 H253 0.950 . S
C229 C228 1.349 . S
C229 C245 1.349 . S
C230 C228 1.327 . S
C230 C249 1.429 . S
C230 H254 0.950 . S
C231 C248 1.574 . S
C231 C250 1.368 . S
C231 H255 0.949 . S
H232 C236 0.949 . S
C233 C234 1.349 . S
C233 C235 1.327 . S
C233 H256 0.950 . S
C234 C233 1.349 . S
C234 C246 1.349 . S
C235 C233 1.327 . S
C235 C251 1.429 . S
C235 H257 0.950 . S
C236 H232 0.949 . S
C236 C244 1.574 . S
C236 C252 1.368 . S
H237 C245 0.950 . S
H238 C243 0.950 . S
H239 C244 0.949 . S
H240 C246 0.950 . S
H241 C247 0.950 . S
H242 C248 0.949 . S
C243 H238 0.950 . S
C243 C245 1.327 . S
C243 C249 1.429 . S
C244 C236 1.574 . S
C244 H239 0.949 . S
C244 C250 1.368 . S
C245 C229 1.349 . S
C245 H237 0.950 . S
C245 C243 1.327 . S
C246 C234 1.349 . S
C246 H240 0.950 . S
C246 C247 1.327 . S
C247 H241 0.950 . S
C247 C246 1.327 . S
C247 C251 1.429 . S
C248 C231 1.574 . S
C248 H242 0.949 . S
C248 C252 1.368 . S
C249 C230 1.429 . S
C249 C243 1.429 . S
C249 C250 1.523 . S
C250 C231 1.368 . S
C250 C244 1.368 . S
C250 C249 1.523 . S
C251 C235 1.429 . S
C251 C247 1.429 . S
C251 C252 1.523 . S
C252 C236 1.368 . S
C252 C248 1.368 . S
C252 C251 1.523 . S
H253 C228 0.950 . S
H254 C230 0.950 . S
H255 C231 0.949 . S
H256 C233 0.950 . S
H257 C235 0.950 . S
C258 C259 1.349 . S
C258 C260 1.327 . S
C258 H283 0.950 . S
C259 C258 1.349 . S
C259 C275 1.349 . S
C260 C258 1.327 . S
C260 C279 1.429 . S
C260 H284 0.950 . S
C261 C278 1.574 . S
C261 C280 1.368 . S
C261 H285 0.949 1_455 S
H262 C266 0.949 . S
C263 C264 1.349 . S
C263 C265 1.327 . S
C263 H286 0.944 1_455 S
C264 C263 1.349 . S
C264 C276 1.349 . S
C265 C263 1.327 . S
C265 C281 1.429 . S
C265 H287 0.950 1_455 S
C266 H262 0.949 . S
C266 C274 1.574 . S
C266 C282 1.368 . S
H267 C275 0.950 1_655 S
H268 C273 0.950 1_655 S
H269 C274 0.949 . S
H270 C276 0.950 . S
H271 C277 0.950 . S
H272 C278 0.949 1_655 S
C273 H268 0.950 1_455 S
C273 C275 1.327 . S
C273 C279 1.429 . S
C274 C266 1.574 . S
C274 H269 0.949 . S
C274 C280 1.368 . S
C275 C259 1.349 . S
C275 H267 0.950 1_455 S
C275 C273 1.327 . S
C276 C264 1.349 . S
C276 H270 0.950 . S
C276 C277 1.327 . S
C277 H271 0.950 . S
C277 C276 1.327 . S
C277 C281 1.429 . S
C278 C261 1.574 . S
C278 H272 0.949 1_455 S
C278 C282 1.368 . S
C279 C260 1.429 . S
C279 C273 1.429 . S
C279 C280 1.523 . S
C280 C261 1.368 . S
C280 C274 1.368 . S
C280 C279 1.523 . S
C281 C265 1.429 . S
C281 C277 1.429 . S
C281 C282 1.523 . S
C282 C266 1.368 . S
C282 C278 1.368 . S
C282 C281 1.523 . S
H283 C258 0.950 . S
H284 C260 0.950 . S
H285 C261 0.949 1_655 S
H286 C263 0.944 1_655 S
H287 C265 0.950 1_655 S
C288 C289 1.349 . S
C288 C290 1.327 . S
C288 H313 0.950 . S
C289 C288 1.349 . S
C289 C305 1.349 1_545 S
C290 C288 1.327 . S
C290 C309 1.429 . S
C290 H314 0.950 . S
C291 C308 1.573 . S
C291 C310 1.366 . S
C291 H315 0.951 1_545 S
H292 C296 0.949 . S
C293 C294 1.349 . S
C293 C295 1.327 . S
C293 H316 0.950 1_545 S
C294 C293 1.349 . S
C294 C306 1.349 . S
C295 C293 1.327 . S
C295 C311 1.429 . S
C295 H317 0.950 1_545 S
C296 H292 0.949 . S
C296 C304 1.574 . S
C296 C312 1.368 . S
H297 C305 0.950 . S
H298 C303 0.950 . S
H299 C304 0.949 . S
H300 C306 0.950 . S
H301 C307 0.950 . S
H302 C308 0.949 1_565 S
C303 H298 0.950 . S
C303 C305 1.327 . S
C303 C309 1.429 1_565 S
C304 C296 1.574 . S
C304 H299 0.949 . S
C304 C310 1.368 . S
C305 C289 1.349 1_565 S
C305 H297 0.950 . S
C305 C303 1.327 . S
C306 C294 1.349 . S
C306 H300 0.950 . S
C306 C307 1.327 . S
C307 H301 0.950 . S
C307 C306 1.327 . S
C307 C311 1.429 . S
C308 C291 1.573 . S
C308 H302 0.949 1_545 S
C308 C312 1.368 . S
C309 C290 1.429 . S
C309 C303 1.429 1_545 S
C309 C310 1.523 . S
C310 C291 1.366 . S
C310 C304 1.368 . S
C310 C309 1.523 . S
C311 C295 1.429 . S
C311 C307 1.429 . S
C311 C312 1.523 . S
C312 C296 1.368 . S
C312 C308 1.368 . S
C312 C311 1.523 . S
H313 C288 0.950 . S
H314 C290 0.950 . S
H315 C291 0.951 1_565 S
H316 C293 0.950 1_565 S
H317 C295 0.950 1_565 S
C318 C319 1.349 . S
C318 C320 1.327 . S
C318 H343 0.950 . S
C319 C318 1.349 . S
C319 C335 1.349 . S
C320 C318 1.327 . S
C320 C339 1.429 . S
C320 H344 0.950 . S
C321 C338 1.574 . S
C321 C340 1.368 . S
C321 H345 0.949 . S
H322 C326 0.949 . S
C323 C324 1.349 . S
C323 C325 1.327 . S
C323 H346 0.950 . S
C324 C323 1.349 . S
C324 C336 1.349 . S
C325 C323 1.327 . S
C325 C341 1.429 . S
C325 H347 0.950 . S
C326 H322 0.949 . S
C326 C334 1.574 . S
C326 C342 1.368 . S
H327 C335 0.950 . S
H328 C333 0.950 . S
H329 C334 0.949 . S
H330 C336 0.950 . S
H331 C337 0.950 . S
H332 C338 0.949 . S
C333 H328 0.950 . S
C333 C335 1.327 . S
C333 C339 1.429 . S
C334 C326 1.574 . S
C334 H329 0.949 . S
C334 C340 1.368 . S
C335 C319 1.349 . S
C335 H327 0.950 . S
C335 C333 1.327 . S
C336 C324 1.349 . S
C336 H330 0.950 . S
C336 C337 1.327 . S
C337 H331 0.950 . S
C337 C336 1.327 . S
C337 C341 1.429 . S
C338 C321 1.574 . S
C338 H332 0.949 . S
C338 C342 1.368 . S
C339 C320 1.429 . S
C339 C333 1.429 . S
C339 C340 1.523 . S
C340 C321 1.368 . S
C340 C334 1.368 . S
C340 C339 1.523 . S
C341 C325 1.429 . S
C341 C337 1.429 . S
C341 C342 1.523 1_554 S
C342 C326 1.368 . S
C342 C338 1.368 . S
C342 C341 1.523 1_556 S
H343 C318 0.950 . S
H344 C320 0.950 . S
H345 C321 0.949 . S
H346 C323 0.950 . S
H347 C325 0.950 . S
C348 C349 1.349 1_554 S
C348 C350 1.327 . S
C348 H373 0.950 1_554 S
C349 C348 1.349 1_556 S
C349 C365 1.349 1_556 S
C350 C348 1.327 . S
C350 C369 1.429 . S
C350 H374 0.950 . S
C351 C368 1.574 . S
C351 C370 1.368 . S
C351 H375 0.949 . S
H352 C356 0.949 . S
C353 C354 1.349 . S
C353 C355 1.327 . S
C353 H376 0.950 . S
C354 C353 1.349 . S
C354 C366 1.349 . S
C355 C353 1.327 . S
C355 C371 1.429 . S
C355 H377 0.950 . S
C356 H352 0.949 . S
C356 C364 1.574 . S
C356 C372 1.368 . S
H357 C365 0.950 1_556 S
H358 C363 0.950 . S
H359 C364 0.949 . S
H360 C366 0.950 . S
H361 C367 0.950 . S
H362 C368 0.949 . S
C363 H358 0.950 . S
C363 C365 1.327 . S
C363 C369 1.429 . S
C364 C356 1.574 . S
C364 H359 0.949 . S
C364 C370 1.368 . S
C365 C349 1.349 1_554 S
C365 H357 0.950 1_554 S
C365 C363 1.327 . S
C366 C354 1.349 . S
C366 H360 0.950 . S
C366 C367 1.327 . S
C367 H361 0.950 . S
C367 C366 1.327 . S
C367 C371 1.429 . S
C368 C351 1.574 . S
C368 H362 0.949 . S
C368 C372 1.368 . S
C369 C350 1.429 . S
C369 C363 1.429 . S
C369 C370 1.523 . S
C370 C351 1.368 . S
C370 C364 1.368 . S
C370 C369 1.523 . S
C371 C355 1.429 . S
C371 C367 1.429 . S
C371 C372 1.523 . S
C372 C356 1.368 . S
C372 C368 1.368 . S
C372 C371 1.523 . S
H373 C348 0.950 1_556 S
H374 C350 0.950 . S
H375 C351 0.949 . S
H376 C353 0.950 . S
H377 C355 0.950 . S
C378 C379 1.349 . S
C378 C380 1.327 . S
C378 H403 0.950 . S
C379 C378 1.349 . S
C379 C395 1.349 1_545 S
C380 C378 1.327 . S
C380 C399 1.429 . S
C380 H404 0.950 . S
C381 C398 1.576 . S
C381 C400 1.368 1_565 S
C381 H405 0.949 . S
H382 C386 0.949 . S
C383 C384 1.349 . S
C383 C385 1.327 . S
C383 H406 0.950 1_545 S
C384 C383 1.349 . S
C384 C396 1.349 . S
C385 C383 1.327 . S
C385 C401 1.429 . S
C385 H407 0.950 1_545 S
C386 H382 0.949 . S
C386 C394 1.574 . S
C386 C402 1.368 . S
H387 C395 0.950 . S
H388 C393 0.950 . S
H389 C394 0.949 . S
H390 C396 0.950 . S
H391 C397 0.950 . S
H392 C398 0.957 . S
C393 H388 0.950 . S
C393 C395 1.327 . S
C393 C399 1.429 1_565 S
C394 C386 1.574 . S
C394 H389 0.949 . S
C394 C400 1.368 . S
C395 C379 1.349 1_565 S
C395 H387 0.950 . S
C395 C393 1.327 . S
C396 C384 1.349 . S
C396 H390 0.950 . S
C396 C397 1.327 . S
C397 H391 0.950 . S
C397 C396 1.327 . S
C397 C401 1.429 . S
C398 C381 1.576 . S
C398 H392 0.957 . S
C398 C402 1.358 1_565 S
C399 C380 1.429 . S
C399 C393 1.429 1_545 S
C399 C400 1.523 . S
C400 C381 1.368 1_545 S
C400 C394 1.368 . S
C400 C399 1.523 . S
C401 C385 1.429 . S
C401 C397 1.429 . S
C401 C402 1.523 . S
C402 C386 1.368 . S
C402 C398 1.358 1_545 S
C402 C401 1.523 . S
H403 C378 0.950 . S
H404 C380 0.950 . S
H405 C381 0.949 . S
H406 C383 0.950 1_565 S
H407 C385 0.950 1_565 S
C408 C409 1.349 . S
C408 C410 1.327 . S
C408 H433 0.950 . S
C409 C408 1.349 . S
C409 C425 1.349 . S
C410 C408 1.327 . S
C410 C429 1.429 . S
C410 H434 0.950 . S
C411 C428 1.574 . S
C411 C430 1.368 . S
C411 H435 0.949 . S
H412 C416 0.949 . S
C413 C414 1.349 . S
C413 C415 1.327 . S
C413 H436 0.950 . S
C414 C413 1.349 . S
C414 C426 1.349 . S
C415 C413 1.327 . S
C415 C431 1.429 . S
C415 H437 0.950 . S
C416 H412 0.949 . S
C416 C424 1.574 . S
C416 C432 1.368 . S
H417 C425 0.950 . S
H418 C423 0.950 . S
H419 C424 0.949 . S
H420 C426 0.950 . S
H421 C427 0.950 . S
H422 C428 0.949 . S
C423 H418 0.950 . S
C423 C425 1.327 . S
C423 C429 1.429 . S
C424 C416 1.574 . S
C424 H419 0.949 . S
C424 C430 1.368 . S
C425 C409 1.349 . S
C425 H417 0.950 . S
C425 C423 1.327 . S
C426 C414 1.349 . S
C426 H420 0.950 . S
C426 C427 1.327 . S
C427 H421 0.950 . S
C427 C426 1.327 . S
C427 C431 1.429 . S
C428 C411 1.574 . S
C428 H422 0.949 . S
C428 C432 1.368 . S
C429 C410 1.429 . S
C429 C423 1.429 . S
C429 C430 1.523 . S
C430 C411 1.368 . S
C430 C424 1.368 . S
C430 C429 1.523 . S
C431 C415 1.429 . S
C431 C427 1.429 . S
C431 C432 1.523 1_554 S
C432 C416 1.368 . S
C432 C428 1.368 . S
C432 C431 1.523 1_556 S
H433 C408 0.950 . S
H434 C410 0.950 . S
H435 C411 0.949 . S
H436 C413 0.950 . S
H437 C415 0.950 . S
C438 C439 1.349 . S
C438 C440 1.327 . S
C438 H463 0.950 . S
C439 C438 1.349 . S
C439 C455 1.349 . S
C440 C438 1.327 . S
C440 C459 1.429 . S
C440 H464 0.950 . S
C441 C458 1.574 1_455 S
C441 C460 1.368 . S
C441 H465 0.949 1_455 S
H442 C446 0.949 . S
C443 C444 1.349 1_654 S
C443 C445 1.327 . S
C443 H466 0.950 1_554 S
C444 C443 1.349 1_456 S
C444 C456 1.349 1_556 S
C445 C443 1.327 . S
C445 C461 1.429 1_655 S
C445 H467 0.950 . S
C446 H442 0.949 . S
C446 C454 1.574 . S
C446 C462 1.368 . S
H447 C455 0.950 1_655 S
H448 C453 0.950 1_655 S
H449 C454 0.949 . S
H450 C456 0.950 1_556 S
H451 C457 0.950 . S
H452 C458 0.949 . S
C453 H448 0.950 1_455 S
C453 C455 1.327 . S
C453 C459 1.429 . S
C454 C446 1.574 . S
C454 H449 0.949 . S
C454 C460 1.368 . S
C455 C439 1.349 . S
C455 H447 0.950 1_455 S
C455 C453 1.327 . S
C456 C444 1.349 1_554 S
C456 H450 0.950 1_554 S
C456 C457 1.327 . S
C457 H451 0.950 . S
C457 C456 1.327 . S
C457 C461 1.429 . S
C458 C441 1.574 1_655 S
C458 H452 0.949 . S
C458 C462 1.368 1_655 S
C459 C440 1.429 . S
C459 C453 1.429 . S
C459 C460 1.523 . S
C460 C441 1.368 . S
C460 C454 1.368 . S
C460 C459 1.523 . S
C461 C445 1.429 1_455 S
C461 C457 1.429 . S
C461 C462 1.523 . S
C462 C446 1.368 . S
C462 C458 1.368 1_455 S
C462 C461 1.523 . S
H463 C438 0.950 . S
H464 C440 0.950 . S
H465 C441 0.949 1_655 S
H466 C443 0.950 1_556 S
H467 C445 0.950 . S
C468 C469 1.349 . S
C468 C470 1.327 . S
C468 H493 0.950 . S
C469 C468 1.349 . S
C469 C485 1.349 . S
C470 C468 1.327 . S
C470 C489 1.429 . S
C470 H494 0.950 . S
C471 C488 1.574 . S
C471 C490 1.368 . S
C471 H495 0.949 . S
H472 C476 0.949 . S
C473 C474 1.349 . S
C473 C475 1.327 . S
C473 H496 0.950 . S
C474 C473 1.349 . S
C474 C486 1.349 . S
C475 C473 1.327 . S
C475 C491 1.429 . S
C475 H497 0.950 . S
C476 H472 0.949 . S
C476 C484 1.574 . S
C476 C492 1.368 . S
H477 C485 0.950 . S
H478 C483 0.950 . S
H479 C484 0.949 . S
H480 C486 0.950 . S
H481 C487 0.950 . S
H482 C488 0.949 . S
C483 H478 0.950 . S
C483 C485 1.327 . S
C483 C489 1.429 . S
C484 C476 1.574 . S
C484 H479 0.949 . S
C484 C490 1.368 . S
C485 C469 1.349 . S
C485 H477 0.950 . S
C485 C483 1.327 . S
C486 C474 1.349 . S
C486 H480 0.950 . S
C486 C487 1.327 . S
C487 H481 0.950 . S
C487 C486 1.327 . S
C487 C491 1.429 . S
C488 C471 1.574 . S
C488 H482 0.949 . S
C488 C492 1.368 . S
C489 C470 1.429 . S
C489 C483 1.429 . S
C489 C490 1.523 . S
C490 C471 1.368 . S
C490 C484 1.368 . S
C490 C489 1.523 . S
C491 C475 1.429 . S
C491 C487 1.429 . S
C491 C492 1.523 . S
C492 C476 1.368 . S
C492 C488 1.368 . S
C492 C491 1.523 . S
H493 C468 0.950 . S
H494 C470 0.950 . S
H495 C471 0.949 . S
H496 C473 0.950 . S
H497 C475 0.950 . S
C498 C499 1.349 . S
C498 C500 1.327 . S
C498 H523 0.950 . S
C499 C498 1.349 . S
C499 C515 1.349 . S
C500 C498 1.327 . S
C500 C519 1.429 . S
C500 H524 0.950 . S
C501 C518 1.574 . S
C501 C520 1.368 . S
C501 H525 0.949 . S
H502 C506 0.949 . S
C503 C504 1.349 . S
C503 C505 1.327 . S
C503 H526 0.950 . S
C504 C503 1.349 . S
C504 C516 1.349 . S
C505 C503 1.327 . S
C505 C521 1.429 . S
C505 H527 0.950 . S
C506 H502 0.949 . S
C506 C514 1.574 . S
C506 C522 1.368 . S
H507 C515 0.950 . S
H508 C513 0.950 . S
H509 C514 0.949 . S
H510 C516 0.950 . S
H511 C517 0.950 . S
H512 C518 0.949 . S
C513 H508 0.950 . S
C513 C515 1.327 . S
C513 C519 1.429 . S
C514 C506 1.574 . S
C514 H509 0.949 . S
C514 C520 1.368 . S
C515 C499 1.349 . S
C515 H507 0.950 . S
C515 C513 1.327 . S
C516 C504 1.349 . S
C516 H510 0.950 . S
C516 C517 1.327 . S
C517 H511 0.950 . S
C517 C516 1.327 . S
C517 C521 1.429 . S
C518 C501 1.574 . S
C518 H512 0.949 . S
C518 C522 1.368 . S
C519 C500 1.429 . S
C519 C513 1.429 . S
C519 C520 1.523 . S
C520 C501 1.368 . S
C520 C514 1.368 . S
C520 C519 1.523 . S
C521 C505 1.429 . S
C521 C517 1.429 . S
C521 C522 1.523 . S
C522 C506 1.368 . S
C522 C518 1.368 . S
C522 C521 1.523 . S
H523 C498 0.950 . S
H524 C500 0.950 . S
H525 C501 0.949 . S
H526 C503 0.950 . S
H527 C505 0.950 . S
C528 C529 1.349 . S
C528 C530 1.327 . S
C528 H553 0.950 . S
C529 C528 1.349 . S
C529 C545 1.349 1_554 S
C530 C528 1.327 . S
C530 C549 1.429 1_554 S
C530 H554 0.950 . S
C531 C548 1.574 . S
C531 C550 1.368 . S
C531 H555 0.949 . S
H532 C536 0.949 . S
C533 C534 1.349 . S
C533 C535 1.327 . S
C533 H556 0.950 . S
C534 C533 1.349 . S
C534 C546 1.349 . S
C535 C533 1.327 . S
C535 C551 1.429 . S
C535 H557 0.950 . S
C536 H532 0.949 . S
C536 C544 1.574 . S
C536 C552 1.368 . S
H537 C545 0.950 . S
H538 C543 0.950 . S
H539 C544 0.949 1_554 S
H540 C546 0.950 . S
H541 C547 0.950 . S
H542 C548 0.949 . S
C543 H538 0.950 . S
C543 C545 1.327 . S
C543 C549 1.429 . S
C544 C536 1.574 . S
C544 H539 0.949 1_556 S
C544 C550 1.368 . S
C545 C529 1.349 1_556 S
C545 H537 0.950 . S
C545 C543 1.327 . S
C546 C534 1.349 . S
C546 H540 0.950 . S
C546 C547 1.327 . S
C547 H541 0.950 . S
C547 C546 1.327 . S
C547 C551 1.429 . S
C548 C531 1.574 . S
C548 H542 0.949 . S
C548 C552 1.368 . S
C549 C530 1.429 1_556 S
C549 C543 1.429 . S
C549 C550 1.523 . S
C550 C531 1.368 . S
C550 C544 1.368 . S
C550 C549 1.523 . S
C551 C535 1.429 . S
C551 C547 1.429 . S
C551 C552 1.523 . S
C552 C536 1.368 . S
C552 C548 1.368 . S
C552 C551 1.523 . S
H553 C528 0.950 . S
H554 C530 0.950 . S
H555 C531 0.949 . S
H556 C533 0.950 . S
H557 C535 0.950 . S
C558 C559 1.349 . S
C558 C560 1.327 . S
C558 H583 0.950 . S
C559 C558 1.349 . S
C559 C575 1.349 . S
C560 C558 1.327 . S
C560 C579 1.429 . S
C560 H584 0.950 . S
C561 C578 1.574 . S
C561 C580 1.368 . S
C561 H585 0.949 . S
H562 C566 0.949 . S
C563 C564 1.349 . S
C563 C565 1.327 . S
C563 H586 0.950 . S
C564 C563 1.349 . S
C564 C576 1.349 . S
C565 C563 1.327 . S
C565 C581 1.429 . S
C565 H587 0.950 . S
C566 H562 0.949 . S
C566 C574 1.574 . S
C566 C582 1.368 . S
H567 C575 0.950 . S
H568 C573 0.950 . S
H569 C574 0.949 . S
H570 C576 0.950 . S
H571 C577 0.950 . S
H572 C578 0.949 . S
C573 H568 0.950 . S
C573 C575 1.327 . S
C573 C579 1.429 . S
C574 C566 1.574 . S
C574 H569 0.949 . S
C574 C580 1.368 . S
C575 C559 1.349 . S
C575 H567 0.950 . S
C575 C573 1.327 . S
C576 C564 1.349 . S
C576 H570 0.950 . S
C576 C577 1.327 . S
C577 H571 0.950 . S
C577 C576 1.327 . S
C577 C581 1.429 . S
C578 C561 1.574 . S
C578 H572 0.949 . S
C578 C582 1.368 . S
C579 C560 1.429 . S
C579 C573 1.429 . S
C579 C580 1.523 . S
C580 C561 1.368 . S
C580 C574 1.368 . S
C580 C579 1.523 . S
C581 C565 1.429 . S
C581 C577 1.429 . S
C581 C582 1.523 . S
C582 C566 1.368 . S
C582 C578 1.368 . S
C582 C581 1.523 . S
H583 C558 0.950 . S
H584 C560 0.950 . S
H585 C561 0.949 . S
H586 C563 0.950 . S
H587 C565 0.950 . S
C588 C589 1.349 . S
C588 C590 1.327 . S
C588 H613 0.950 . S
C589 C588 1.349 . S
C589 C605 1.349 . S
C590 C588 1.327 . S
C590 C609 1.429 . S
C590 H614 0.950 . S
C591 C608 1.574 . S
C591 C610 1.368 . S
C591 H615 0.949 . S
H592 C596 0.949 . S
C593 C594 1.349 . S
C593 C595 1.327 . S
C593 H616 0.950 . S
C594 C593 1.349 . S
C594 C606 1.349 . S
C595 C593 1.327 . S
C595 C611 1.429 . S
C595 H617 0.950 . S
C596 H592 0.949 . S
C596 C604 1.574 . S
C596 C612 1.368 . S
H597 C605 0.950 . S
H598 C603 0.950 . S
H599 C604 0.949 . S
H600 C606 0.950 . S
H601 C607 0.950 . S
H602 C608 0.949 . S
C603 H598 0.950 . S
C603 C605 1.327 . S
C603 C609 1.429 . S
C604 C596 1.574 . S
C604 H599 0.949 . S
C604 C610 1.368 . S
C605 C589 1.349 . S
C605 H597 0.950 . S
C605 C603 1.327 . S
C606 C594 1.349 . S
C606 H600 0.950 . S
C606 C607 1.327 . S
C607 H601 0.950 . S
C607 C606 1.327 . S
C607 C611 1.429 . S
C608 C591 1.574 . S
C608 H602 0.949 . S
C608 C612 1.368 . S
C609 C590 1.429 . S
C609 C603 1.429 . S
C609 C610 1.523 . S
C610 C591 1.368 . S
C610 C604 1.368 . S
C610 C609 1.523 . S
C611 C595 1.429 . S
C611 C607 1.429 . S
C611 C612 1.523 . S
C612 C596 1.368 . S
C612 C608 1.368 . S
C612 C611 1.523 . S
H613 C588 0.950 . S
H614 C590 0.950 . S
H615 C591 0.949 . S
H616 C593 0.950 . S
H617 C595 0.950 . S
C618 C619 1.349 . S
C618 C620 1.327 . S
C618 H643 0.950 . S
C619 C618 1.349 . S
C619 C635 1.349 . S
C620 C618 1.327 . S
C620 C639 1.429 . S
C620 H644 0.950 . S
C621 C638 1.574 . S
C621 C640 1.368 . S
C621 H645 0.949 . S
H622 C626 0.956 . S
C623 C624 1.349 1_556 S
C623 C625 1.327 . S
C623 H646 0.950 . S
C624 C623 1.349 1_554 S
C624 C636 1.349 . S
C625 C623 1.327 . S
C625 C641 1.429 . S
C625 H647 0.950 . S
C626 H622 0.956 . S
C626 C634 1.574 . S
C626 C642 1.368 . S
H627 C635 0.950 . S
H628 C633 0.950 . S
H629 C634 0.949 . S
H630 C636 0.950 . S
H631 C637 0.950 . S
H632 C638 0.949 . S
C633 H628 0.950 . S
C633 C635 1.327 . S
C633 C639 1.429 . S
C634 C626 1.574 . S
C634 H629 0.949 . S
C634 C640 1.368 . S
C635 C619 1.349 . S
C635 H627 0.950 . S
C635 C633 1.327 . S
C636 C624 1.349 . S
C636 H630 0.950 . S
C636 C637 1.327 . S
C637 H631 0.950 . S
C637 C636 1.327 . S
C637 C641 1.429 1_554 S
C638 C621 1.574 . S
C638 H632 0.949 . S
C638 C642 1.368 . S
C639 C620 1.429 . S
C639 C633 1.429 . S
C639 C640 1.523 . S
C640 C621 1.368 . S
C640 C634 1.368 . S
C640 C639 1.523 . S
C641 C625 1.429 . S
C641 C637 1.429 1_556 S
C641 C642 1.523 . S
C642 C626 1.368 . S
C642 C638 1.368 . S
C642 C641 1.523 . S
H643 C618 0.950 . S
H644 C620 0.950 . S
H645 C621 0.949 . S
H646 C623 0.950 . S
H647 C625 0.950 . S
C199 C17 1.616 . S
C204 C116 1.616 . S
C229 C149 1.616 . S
C234 C50 1.616 . S
C259 C83 1.616 . S
C264 C182 1.616 . S
C289 N5 1.131 . S
C294 N14 1.127 . S
C319 N38 1.131 . S
C324 N47 1.127 . S
C349 N71 1.131 . S
C354 N80 1.127 . S
C379 N113 1.127 . S
C384 N104 1.131 . S
C409 N137 1.131 . S
C414 N146 1.127 . S
C439 N179 1.127 . S
C444 N170 1.131 . S
C469 C28 1.493 . S
C474 C41 1.488 . S
C499 C61 1.493 . S
C504 C74 1.488 . S
C529 C107 1.488 . S
C534 C94 1.493 . S
C559 C127 1.493 . S
C564 C140 1.488 . S
C589 C173 1.488 . S
C594 C160 1.493 . S
C619 C193 1.492 . S
C624 C8 1.488 . S
