# Generated by pormake.
# Topology sma, (6)-cn, num edge types: 1
# Building blocks:
#     Node 0, Type 0, BuildingBlock: BETFEN_clean_sbu_0, # of connection points: 6
#     Node 1, Type 0, BuildingBlock: BETFEN_clean_sbu_0, # of connection points: 6
#     Node 2, Type 0, BuildingBlock: BETFEN_clean_sbu_0, # of connection points: 6
#     Edge 3, Type (0, 0), BuildingBlock: UKIBIB_clean_linker_0, # of connection points: 2
#     Edge 4, Type (0, 0), BuildingBlock: UKIBIB_clean_linker_0, # of connection points: 2
#     Edge 5, Type (0, 0), BuildingBlock: UKIBIB_clean_linker_0, # of connection points: 2
#     Edge 6, Type (0, 0), BuildingBlock: UKIBIB_clean_linker_0, # of connection points: 2
#     Edge 7, Type (0, 0), BuildingBlock: UKIBIB_clean_linker_0, # of connection points: 2
#     Edge 8, Type (0, 0), BuildingBlock: UKIBIB_clean_linker_0, # of connection points: 2
#     Edge 9, Type (0, 0), BuildingBlock: UKIBIB_clean_linker_0, # of connection points: 2
#     Edge 10, Type (0, 0), BuildingBlock: UKIBIB_clean_linker_0, # of connection points: 2
#     Edge 11, Type (0, 0), BuildingBlock: UKIBIB_clean_linker_0, # of connection points: 2
# Relax obj value: 0.122
# Max RMSD: 0.243
# Mean RMSD: 0.202
data_MOF--net-sma--node1-BETFEN_clean_sbu_0--edge1-UKIBIB_clean_linker_0
_symmetry_space_group_name_H-M    P1
_symmetry_Int_Tables_number       1
_symmetry_cell_setting            triclinic
loop_
_symmetry_equiv_pos_as_xyz
'x, y, z'
_cell_length_a     40.058003
_cell_length_b     49.865744
_cell_length_c     19.979765
_cell_angle_alpha  90.231972
_cell_angle_beta   93.323046
_cell_angle_gamma 100.31641
loop_
_atom_site_label
_atom_site_type_symbol
_atom_site_fract_x
_atom_site_fract_y
_atom_site_fract_z
_atom_type_partial_charge
Pr0 Pr 0.08312 0.50803 0.06722 0.0
Pr1 Pr 0.10907 0.56919 0.06591 0.0
C2 C 1.0603 0.45472 0.08621 0.0
C3 C 1.02682 0.43748 0.09617 0.0
C4 C 1.01103 0.41914 0.04536 0.0
C5 C 0.98013 0.40187 0.05515 0.0
C6 C 0.96446 0.40247 0.11621 0.0
C7 C 0.97961 0.42168 0.16579 0.0
C8 C 1.01037 0.43898 0.15591 0.0
C9 C 0.08456 0.5308 -0.05895 0.0
C10 C 1.02668 0.54606 0.05285 0.0
C11 C 0.12945 0.62284 0.04808 0.0
C12 C 0.16142 0.64213 0.066 0.0
C13 C 0.16697 0.65437 0.13006 0.0
C14 C 0.19764 0.67146 0.14838 0.0
C15 C 0.2234 0.67698 0.10302 0.0
C16 C 0.21787 0.66524 0.03848 0.0
C17 C 0.18715 0.64784 0.0202 0.0
C18 C 0.10697 0.54626 0.1928 0.0
C19 C 0.16699 0.53093 0.0645 0.0
O20 O 0.07426 0.47143 0.13503 0.0
O21 O 1.06422 0.4653 0.02687 0.0
O22 O 0.10793 0.53618 -0.01367 0.0
O23 O 1.05984 0.51227 -0.04094 0.0
O24 O 1.05123 0.56455 0.03075 0.0
O25 O 1.03331 0.5242 0.0836 0.0
O26 O 0.13086 0.60454 0.00173 0.0
O27 O 0.11106 0.61306 0.09754 0.0
O28 O 0.08382 0.54105 0.14702 0.0
O29 O 0.1316 0.5649 0.17492 0.0
O30 O 0.14274 0.5097 0.07423 0.0
O31 O 0.16066 0.55567 0.05597 0.0
H32 H 1.0229 0.41781 -0.00162 0.0
H33 H 0.96892 0.38764 0.0155 0.0
H34 H 0.96856 0.42255 0.21377 0.0
H35 H 1.02159 0.45307 0.19584 0.0
H36 H 0.14769 0.65068 0.16641 0.0
H37 H 0.20104 0.68075 0.198 0.0
H38 H 0.23735 0.6693 0.0026 0.0
H39 H 0.18364 0.63874 -0.02962 0.0
Pr40 Pr 0.63461 0.04957 0.46486 0.0
Pr41 Pr 0.55759 1.03335 0.46122 0.0
C42 C 0.69747 0.07793 0.45023 0.0
C43 C 0.71213 0.10712 0.44126 0.0
C44 C 0.73476 0.12146 0.49118 0.0
C45 C 0.7507 0.14844 0.48099 0.0
C46 C 0.74441 0.16133 0.42048 0.0
C47 C 0.72034 0.14762 0.37245 0.0
C48 C 0.70422 0.12086 0.38278 0.0
C49 C 0.60875 0.03941 0.58915 0.0
C50 C 0.58627 0.09725 0.47141 0.0
C51 C 0.49461 1.00587 0.47807 0.0
C52 C 0.47708 0.97773 0.46 0.0
C53 C 0.45844 0.97245 0.39816 0.0
C54 C 0.44364 0.94587 0.37887 0.0
C55 C 0.4468 0.92389 0.42107 0.0
C56 C 0.46469 0.92905 0.48365 0.0
C57 C 0.47982 0.95573 0.50286 0.0
C58 C 0.58341 0.04301 0.33642 0.0
C59 C 0.60709 0.98498 0.4708 0.0
O60 O 0.6785 0.06498 0.40028 0.0
O61 O 0.68573 0.07135 0.5087 0.0
O62 O 0.59595 0.05268 0.54402 0.0
O63 O 0.63675 1.03233 0.57214 0.0
O64 O 0.56084 0.07891 0.49051 0.0
O65 O 0.61327 0.09002 0.44695 0.0
O66 O 0.51914 1.00831 0.5251 0.0
O67 O 0.50167 1.02271 0.42857 0.0
O68 O 0.59634 1.02986 0.38175 0.0
O69 O 0.55534 0.04999 0.3533 0.0
O70 O 0.63486 1.0028 0.46024 0.0
O71 O 0.57734 0.99237 0.47566 0.0
H72 H 0.74091 0.11152 0.53722 0.0
H73 H 0.76921 0.15867 0.51868 0.0
H74 H 0.71497 0.15735 0.32562 0.0
H75 H 0.68636 0.11072 0.34394 0.0
H76 H 0.4556 0.98884 0.36411 0.0
H77 H 0.42951 0.94249 0.33076 0.0
H78 H 0.46759 0.91244 0.51701 0.0
H79 H 0.494 0.95904 0.5509 0.0
Pr80 Pr 0.58425 0.51301 0.78441 0.0
Pr81 Pr 0.59373 0.57465 0.78735 0.0
C82 C 0.57233 0.45875 0.76249 0.0
C83 C 0.59075 0.43602 0.75201 0.0
C84 C 0.59028 0.41563 0.80058 0.0
C85 C 0.60274 0.39182 0.7871 0.0
C86 C 0.61548 0.38798 0.72454 0.0
C87 C 0.61848 0.40924 0.67818 0.0
C88 C 0.6063 0.4331 0.6918 0.0
C89 C 0.59695 0.53617 0.9116 0.0
C90 C 0.6611 0.54487 0.80224 0.0
C91 C 0.607 0.62932 0.80245 0.0
C92 C 0.59109 0.65342 0.78781 0.0
C93 C 0.58573 0.66196 0.72163 0.0
C94 C 0.57494 0.68674 0.70937 0.0
C95 C 0.56962 0.70347 0.76293 0.0
C96 C 0.5731 0.69432 0.8288 0.0
C97 C 0.58355 0.6694 0.8411 0.0
C98 C 0.58136 0.55024 0.66054 0.0
C99 C 0.51616 0.54273 0.79542 0.0
O100 O 0.57114 0.4764 0.71432 0.0
O101 O 0.5755 0.46982 0.8224 0.0
O102 O 0.57697 0.54322 0.86704 0.0
O103 O 0.61015 0.51573 0.89229 0.0
O104 O 0.64748 0.56544 0.82294 0.0
O105 O 0.6424 0.52348 0.7715 0.0
O106 O 0.59407 0.61295 0.84896 0.0
O107 O 0.61689 0.61652 0.75201 0.0
O108 O 0.60194 0.54432 0.70537 0.0
O109 O 0.5665 0.56975 0.67997 0.0
O110 O 0.52715 0.52063 0.77546 0.0
O111 O 0.53712 0.56574 0.80948 0.0
H112 H 0.57862 0.41745 0.84759 0.0
H113 H 0.60001 0.37562 0.82343 0.0
H114 H 0.62843 0.40668 0.62973 0.0
H115 H 0.60754 0.44858 0.65372 0.0
H116 H 0.5912 0.65012 0.67938 0.0
H117 H 0.57287 0.69367 0.65821 0.0
H118 H 0.56923 0.70702 0.87075 0.0
H119 H 0.58725 0.66321 0.89252 0.0
C120 C 0.2048 0.51373 -0.01195 0.0
C121 C 0.20103 0.52687 0.04865 0.0
C122 C 0.23682 0.51598 -0.03788 0.0
C123 C 0.47625 0.5526 0.87782 0.0
C124 C 0.48112 0.54096 0.81574 0.0
C125 C 0.44367 0.55187 0.89934 0.0
H126 H 0.2273 0.55242 0.1301 0.0
H127 H 0.28399 0.55521 0.08611 0.0
H128 H 0.45594 0.51971 0.7269 0.0
H129 H 0.39804 0.5188 0.76465 0.0
C130 C 0.22988 0.54154 0.08417 0.0
C131 C 0.26206 0.54341 0.05873 0.0
C132 C 0.45272 0.5286 0.77514 0.0
C133 C 0.41984 0.52822 0.79648 0.0
C134 C 0.26546 0.53115 -0.00319 0.0
C135 C 0.29794 0.53471 -0.03265 0.0
C136 C 0.32438 0.53694 -0.05987 0.0
C137 C 0.41533 0.53973 0.85889 0.0
C138 C 0.38197 0.53842 0.88347 0.0
C139 C 0.35514 0.53824 0.90808 0.0
H140 H 0.18269 0.50328 -0.04145 0.0
H141 H 0.23904 0.50665 0.91387 0.0
H142 H 0.49782 0.56199 0.91036 0.0
H143 H 0.44064 0.56065 -0.05214 0.0
C144 C 0.76506 0.212 0.43487 0.0
C145 C 0.76608 0.18715 0.40224 0.0
C146 C 0.78343 0.23643 0.41116 0.0
C147 C 0.93405 0.3538 0.11432 0.0
C148 C 0.93484 0.3813 0.13194 0.0
C149 C 0.91073 0.33312 0.14182 0.0
H150 H 0.7883 0.16789 0.32294 0.0
H151 H 0.82055 0.21042 0.28222 0.0
H152 H 0.90902 0.40869 0.18571 0.0
H153 H 0.86861 0.37235 0.23432 0.0
C154 C 0.78687 0.18689 0.3482 0.0
C155 C 0.80529 0.2111 0.32505 0.0
C156 C 0.9097 0.38771 0.17256 0.0
C157 C 0.88648 0.367 0.20011 0.0
C158 C 0.80305 0.23601 0.35524 0.0
C159 C 0.81951 0.26082 0.32549 0.0
C160 C 0.83439 0.27986 0.2956 0.0
C161 C 0.88786 0.33965 0.18701 0.0
C162 C 0.8684 0.31852 0.22509 0.0
C163 C 0.85208 0.30087 0.25702 0.0
H164 H 0.74922 0.2126 0.4768 0.0
H165 H 0.78161 0.2556 0.43517 0.0
H166 H 0.95295 0.34806 0.08319 0.0
H167 H 0.91188 0.31202 0.13072 0.0
C168 C 0.57833 0.93673 0.47382 0.0
C169 C 0.6082 0.9562 0.48604 0.0
C170 C 0.57476 0.91127 0.50378 0.0
C171 C 0.59463 0.75261 0.76863 0.0
C172 C 0.56678 0.7321 0.75006 0.0
C173 C 0.59586 0.77909 0.74536 0.0
H174 H 0.65853 0.96365 0.53597 0.0
H175 H 0.65237 0.91842 0.58789 0.0
H176 H 0.51737 0.72321 0.69674 0.0
H177 H 0.51914 0.77021 0.65713 0.0
C178 C 0.63548 0.94892 0.52493 0.0
C179 C 0.63181 0.92327 0.55518 0.0
C180 C 0.53908 0.73881 0.71149 0.0
C181 C 0.54011 0.76551 0.68894 0.0
C182 C 0.60099 0.90477 0.54633 0.0
C183 C 0.595 0.87987 0.5837 0.0
C184 C 0.58792 0.85869 0.613 0.0
C185 C 0.5691 0.78545 0.70384 0.0
C186 C 0.57345 0.81142 0.67105 0.0
C187 C 0.57915 0.83355 0.64568 0.0
H188 H 0.55684 0.94178 0.44417 0.0
H189 H 0.55087 0.89716 0.49615 0.0
H190 H 0.61641 0.74774 0.79764 0.0
H191 H 0.61846 0.79425 0.75707 0.0
C192 C 0.71751 0.53276 0.78089 0.0
C193 C 0.69654 0.54373 0.82345 0.0
C194 C 0.75066 0.53055 0.80328 0.0
C195 C 0.96561 0.54088 0.07769 0.0
C196 C 0.9912 0.54694 0.03214 0.0
C197 C 0.93144 0.53875 0.05556 0.0
H198 H 0.69288 0.55996 0.92302 0.0
H199 H 0.7507 0.55561 -0.03759 0.0
H200 H 1.00169 0.55477 0.92819 0.0
H201 H 0.94172 0.55056 0.8893 0.0
C202 C 0.7089 0.55204 0.88885 0.0
C203 C 0.74173 0.54937 0.91152 0.0
C204 C 0.98232 0.55081 -0.03564 0.0
C205 C 0.94819 0.54816 -0.05791 0.0
C206 C 0.76275 0.53877 0.86875 0.0
C207 C 0.79691 0.53703 0.8921 0.0
C208 C 0.82521 0.53612 0.91466 0.0
C209 C 0.92269 0.54206 -0.01246 0.0
C210 C 0.88763 0.53921 -0.03606 0.0
C211 C 0.85866 0.53703 -0.05825 0.0
H212 H 0.70835 0.52612 0.73038 0.0
H213 H 0.76677 0.52243 0.76964 0.0
H214 H 0.97205 0.53762 0.13009 0.0
H215 H 0.91192 0.53415 0.09124 0.0
C216 C 0.43591 0.88719 0.33319 0.0
C217 C 0.43138 0.89581 0.39856 0.0
C218 C 0.41826 0.86223 0.30801 0.0
C219 C 0.27168 0.69296 0.18615 0.0
C220 C 0.25503 0.69606 0.12358 0.0
C221 C 0.29632 0.71403 0.21374 0.0
H222 H 0.4062 0.88446 0.49015 0.0
H223 H 0.375 0.84035 0.44533 0.0
H224 H 0.25318 0.72237 0.03787 0.0
H225 H 0.2967 0.75951 0.08673 0.0
C226 C 0.41013 0.87828 0.43959 0.0
C227 C 0.39227 0.85321 0.41406 0.0
C228 C 0.26565 0.71957 0.08626 0.0
C229 C 0.29031 0.74077 0.11418 0.0
C230 C 0.39584 0.84546 0.34766 0.0
C231 C 0.37542 0.82123 0.31774 0.0
C232 C 0.35998 0.80173 0.2866 0.0
C233 C 0.30463 0.7384 0.17915 0.0
C234 C 0.32476 0.76163 0.21386 0.0
C235 C 0.34173 0.78004 0.24651 0.0
H236 H 0.45255 0.90009 0.30093 0.0
H237 H 0.42141 0.85637 0.25677 0.0
H238 H 0.26422 0.67485 0.21536 0.0
H239 H 0.30745 0.71186 0.26374 0.0
C240 C 0.63989 0.34497 0.73876 0.0
C241 C 0.61905 0.3604 0.70251 0.0
C242 C 0.64056 0.3181 0.71857 0.0
C243 C 0.56322 0.14073 0.47904 0.0
C244 C 0.58933 0.1258 0.49246 0.0
C245 C 0.56723 0.16782 0.50193 0.0
H246 H 0.5822 0.35996 0.61854 0.0
H247 H 0.58316 0.31312 0.58409 0.0
H248 H 0.6394 0.12668 0.54089 0.0
H249 H 0.64583 0.17359 0.58214 0.0
C250 C 0.59901 0.34866 0.64631 0.0
C251 C 0.5994 0.32191 0.62683 0.0
C252 C 0.61917 0.13803 0.52913 0.0
C253 C 0.62285 0.16472 0.55283 0.0
C254 C 0.61999 0.30651 0.66286 0.0
C255 C 0.61856 0.27863 0.6427 0.0
C256 C 0.61442 0.25586 0.61964 0.0
C257 C 0.59698 0.1797 0.53942 0.0
C258 C 0.60126 0.207 0.56589 0.0
C259 C 0.60723 0.2296 0.59018 0.0
H260 H 0.65538 0.35363 0.78251 0.0
H261 H 0.65661 0.30631 0.74686 0.0
H262 H 0.5401 0.13159 0.45064 0.0
H263 H 0.54709 0.17932 0.49104 0.0
C264 C 0.07907 0.55718 0.83801 0.0
C265 C 0.09065 0.53561 0.87107 0.0
C266 C 0.08173 0.55976 0.76894 0.0
C267 C 0.10885 0.51951 0.29672 0.0
C268 C 0.10019 0.5421 0.26304 0.0
C269 C 0.10546 0.51729 0.36574 0.0
H270 H 0.11528 0.50066 0.86149 0.0
H271 H 0.11972 0.50506 0.73985 0.0
H272 H 0.07988 0.57928 0.27192 0.0
H273 H 0.07393 0.57537 0.39327 0.0
C274 C 0.1062 0.51735 0.83597 0.0
C275 C 0.10875 0.51987 0.76708 0.0
C276 C 0.08677 0.56181 0.29772 0.0
C277 C 0.08334 0.55957 0.3665 0.0
C278 C 0.09581 0.54067 0.7334 0.0
C279 C 0.09466 0.54095 0.66194 0.0
C280 C 0.09438 0.54016 0.60201 0.0
C281 C 0.09342 0.53767 0.40071 0.0
C282 C 0.09382 0.53743 0.47218 0.0
C283 C 0.09363 0.53827 0.53207 0.0
H284 H 1.06714 0.57142 0.86516 0.0
H285 H 1.07177 0.57597 0.74309 0.0
H286 H 0.11913 0.50415 0.27013 0.0
H287 H 0.11325 0.50025 0.39202 0.0
C288 C 0.61922 0.05721 0.24108 0.0
C289 C 0.59058 0.04096 0.26628 0.0
C290 C 0.62323 0.05765 0.17206 0.0
C291 C 0.57461 1.02608 0.68681 0.0
C292 C 0.60238 0.04244 0.65912 0.0
C293 C 0.5712 1.02704 0.75587 0.0
H294 H 0.54463 1.01165 0.24206 0.0
H295 H 0.552 1.01207 0.12113 0.0
H296 H 0.64722 0.07345 0.67833 0.0
H297 H 0.64102 0.07533 0.79953 0.0
C298 C 0.56682 1.02431 0.22295 0.0
C299 C 0.57099 1.02455 0.15435 0.0
C300 C 0.62578 0.06063 0.69964 0.0
C301 C 0.62223 0.06173 0.7683 0.0
C302 C 0.59871 0.04167 0.12878 0.0
C303 C 0.60034 0.04388 0.05783 0.0
C304 C 0.59917 0.04416 -0.00216 0.0
C305 C 0.59546 0.04449 0.79657 0.0
C306 C 0.59475 0.04347 0.86777 0.0
C307 C 0.59613 0.04392 0.92778 0.0
H308 H 0.63756 0.07031 0.27425 0.0
H309 H 0.64472 0.071 0.15242 0.0
H310 H 0.55651 1.01191 0.65562 0.0
H311 H 0.55043 1.0136 0.77761 0.0
C312 C 0.61432 0.55815 0.55995 0.0
C313 C 0.58511 0.5451 0.58996 0.0
C314 C 0.61669 0.55573 0.49102 0.0
C315 C 0.56509 0.52937 0.01335 0.0
C316 C 0.59419 0.54171 -0.01797 0.0
C317 C 0.56409 0.53136 0.08266 0.0
H318 H 0.53655 0.51811 0.57454 0.0
H319 H 0.54093 0.51353 0.45267 0.0
H320 H 0.64406 0.56692 -0.00475 0.0
H321 H 0.64209 0.57086 0.11778 0.0
C322 C 0.55904 0.52848 0.55152 0.0
C323 C 0.56159 0.52582 0.48254 0.0
C324 C 0.62158 0.55722 0.0194 0.0
C325 C 0.62043 0.55946 0.08876 0.0
C326 C 0.59 0.54006 0.4522 0.0
C327 C 0.59053 0.54062 0.38089 0.0
C328 C 0.59166 0.54147 0.32117 0.0
C329 C 0.59208 0.54587 0.12041 0.0
C330 C 0.59271 0.54489 0.19175 0.0
C331 C 0.59237 0.54363 0.25152 0.0
H332 H 0.63462 0.57103 0.58942 0.0
H333 H 0.63873 0.56683 0.46781 0.0
H334 H 0.54386 0.51725 -0.01542 0.0
H335 H 0.5421 0.52077 0.10691 0.0
loop_
_geom_bond_atom_site_label_1
_geom_bond_atom_site_label_2
_geom_bond_distance
_geom_bond_site_symmetry_2
_ccdc_geom_bond_type
Pr0 C2 2.880 1_455 S
Pr0 O20 2.562 1_455 S
Pr0 O21 2.490 1_455 S
Pr0 O22 2.695 . S
Pr0 O23 2.512 1_554 S
Pr0 O25 2.437 1_455 S
Pr0 O28 2.436 . S
Pr0 O30 2.438 . S
Pr1 C11 2.880 . S
Pr1 O22 2.436 . S
Pr1 O24 2.438 1_455 S
Pr1 O26 2.562 . S
Pr1 O27 2.490 . S
Pr1 O28 2.695 . S
Pr1 O29 2.512 . S
Pr1 O31 2.437 . S
C2 Pr0 2.880 1_655 S
C2 C3 1.491 . S
C2 O20 1.254 . S
C2 O21 1.225 . S
C3 C2 1.491 . S
C3 C4 1.392 . S
C3 C8 1.356 . S
C4 C3 1.392 . S
C4 C5 1.368 . S
C4 H32 0.929 . S
C5 C4 1.368 . S
C5 C6 1.386 . S
C5 H33 0.929 . S
C6 C5 1.386 . S
C6 C7 1.373 . S
C7 C6 1.373 . S
C7 C8 1.409 . S
C7 H34 0.931 . S
C8 C3 1.356 . S
C8 C7 1.409 . S
C8 H35 0.930 . S
C9 O22 1.270 1_556 S
C9 O23 1.248 . S
C10 O24 1.267 . S
C10 O25 1.278 . S
C11 Pr1 2.880 . S
C11 C12 1.491 . S
C11 O26 1.254 . S
C11 O27 1.225 . S
C12 C11 1.491 . S
C12 C13 1.392 . S
C12 C17 1.356 . S
C13 C12 1.392 . S
C13 C14 1.368 . S
C13 H36 0.929 . S
C14 C13 1.368 . S
C14 C15 1.386 . S
C14 H37 0.929 . S
C15 C14 1.386 . S
C15 C16 1.373 . S
C16 C15 1.373 . S
C16 C17 1.409 . S
C16 H38 0.931 . S
C17 C12 1.356 . S
C17 C16 1.409 . S
C17 H39 0.930 . S
C18 O28 1.270 . S
C18 O29 1.248 . S
C19 O30 1.267 . S
C19 O31 1.278 . S
O20 Pr0 2.562 1_655 S
O20 C2 1.254 . S
O21 Pr0 2.490 1_655 S
O21 C2 1.225 . S
O22 Pr0 2.695 . S
O22 Pr1 2.436 . S
O22 C9 1.270 1_554 S
O23 Pr0 2.512 1_556 S
O23 C9 1.248 . S
O24 Pr1 2.438 1_655 S
O24 C10 1.267 . S
O25 Pr0 2.437 1_655 S
O25 C10 1.278 . S
O26 Pr1 2.562 . S
O26 C11 1.254 . S
O27 Pr1 2.490 . S
O27 C11 1.225 . S
O28 Pr0 2.436 . S
O28 Pr1 2.695 . S
O28 C18 1.270 . S
O29 Pr1 2.512 . S
O29 C18 1.248 . S
O30 Pr0 2.438 . S
O30 C19 1.267 . S
O31 Pr1 2.437 . S
O31 C19 1.278 . S
H32 C4 0.929 . S
H33 C5 0.929 . S
H34 C7 0.931 . S
H35 C8 0.930 . S
H36 C13 0.929 . S
H37 C14 0.929 . S
H38 C16 0.931 . S
H39 C17 0.930 . S
Pr40 C42 2.880 . S
Pr40 O60 2.562 . S
Pr40 O61 2.490 . S
Pr40 O62 2.695 . S
Pr40 O63 2.512 . S
Pr40 O65 2.437 . S
Pr40 O68 2.436 . S
Pr40 O70 2.438 1_545 S
Pr41 C51 2.880 . S
Pr41 O62 2.436 1_565 S
Pr41 O64 2.438 1_565 S
Pr41 O66 2.562 . S
Pr41 O67 2.490 . S
Pr41 O68 2.695 1_565 S
Pr41 O69 2.512 . S
Pr41 O71 2.437 . S
C42 Pr40 2.880 . S
C42 C43 1.491 . S
C42 O60 1.254 . S
C42 O61 1.225 . S
C43 C42 1.491 . S
C43 C44 1.392 . S
C43 C48 1.356 . S
C44 C43 1.392 . S
C44 C45 1.368 . S
C44 H72 0.929 . S
C45 C44 1.368 . S
C45 C46 1.386 . S
C45 H73 0.929 . S
C46 C45 1.386 . S
C46 C47 1.373 . S
C47 C46 1.373 . S
C47 C48 1.409 . S
C47 H74 0.931 . S
C48 C43 1.356 . S
C48 C47 1.409 . S
C48 H75 0.930 . S
C49 O62 1.270 . S
C49 O63 1.248 . S
C50 O64 1.267 . S
C50 O65 1.278 . S
C51 Pr41 2.880 . S
C51 C52 1.491 . S
C51 O66 1.254 . S
C51 O67 1.225 . S
C52 C51 1.491 . S
C52 C53 1.392 . S
C52 C57 1.356 . S
C53 C52 1.392 . S
C53 C54 1.368 . S
C53 H76 0.929 . S
C54 C53 1.368 . S
C54 C55 1.386 . S
C54 H77 0.929 . S
C55 C54 1.386 . S
C55 C56 1.373 . S
C56 C55 1.373 . S
C56 C57 1.409 . S
C56 H78 0.931 . S
C57 C52 1.356 . S
C57 C56 1.409 . S
C57 H79 0.930 . S
C58 O68 1.270 . S
C58 O69 1.248 1_545 S
C59 O70 1.267 . S
C59 O71 1.278 . S
O60 Pr40 2.562 . S
O60 C42 1.254 . S
O61 Pr40 2.490 . S
O61 C42 1.225 . S
O62 Pr40 2.695 . S
O62 Pr41 2.436 1_545 S
O62 C49 1.270 . S
O63 Pr40 2.512 . S
O63 C49 1.248 . S
O64 Pr41 2.438 1_545 S
O64 C50 1.267 . S
O65 Pr40 2.437 . S
O65 C50 1.278 . S
O66 Pr41 2.562 . S
O66 C51 1.254 . S
O67 Pr41 2.490 . S
O67 C51 1.225 . S
O68 Pr40 2.436 . S
O68 Pr41 2.695 1_545 S
O68 C58 1.270 . S
O69 Pr41 2.512 . S
O69 C58 1.248 1_565 S
O70 Pr40 2.438 1_565 S
O70 C59 1.267 . S
O71 Pr41 2.437 . S
O71 C59 1.278 . S
H72 C44 0.929 . S
H73 C45 0.929 . S
H74 C47 0.931 . S
H75 C48 0.930 . S
H76 C53 0.929 . S
H77 C54 0.929 . S
H78 C56 0.931 . S
H79 C57 0.930 . S
Pr80 C82 2.880 . S
Pr80 O100 2.562 . S
Pr80 O101 2.490 . S
Pr80 O102 2.695 . S
Pr80 O103 2.512 . S
Pr80 O105 2.437 . S
Pr80 O108 2.436 . S
Pr80 O110 2.438 . S
Pr81 C91 2.880 . S
Pr81 O102 2.436 . S
Pr81 O104 2.438 . S
Pr81 O106 2.562 . S
Pr81 O107 2.490 . S
Pr81 O108 2.695 . S
Pr81 O109 2.512 . S
Pr81 O111 2.437 . S
C82 Pr80 2.880 . S
C82 C83 1.491 . S
C82 O100 1.254 . S
C82 O101 1.225 . S
C83 C82 1.491 . S
C83 C84 1.392 . S
C83 C88 1.356 . S
C84 C83 1.392 . S
C84 C85 1.368 . S
C84 H112 0.929 . S
C85 C84 1.368 . S
C85 C86 1.386 . S
C85 H113 0.929 . S
C86 C85 1.386 . S
C86 C87 1.373 . S
C87 C86 1.373 . S
C87 C88 1.409 . S
C87 H114 0.931 . S
C88 C83 1.356 . S
C88 C87 1.409 . S
C88 H115 0.930 . S
C89 O102 1.270 . S
C89 O103 1.248 . S
C90 O104 1.267 . S
C90 O105 1.278 . S
C91 Pr81 2.880 . S
C91 C92 1.491 . S
C91 O106 1.254 . S
C91 O107 1.225 . S
C92 C91 1.491 . S
C92 C93 1.392 . S
C92 C97 1.356 . S
C93 C92 1.392 . S
C93 C94 1.368 . S
C93 H116 0.929 . S
C94 C93 1.368 . S
C94 C95 1.386 . S
C94 H117 0.929 . S
C95 C94 1.386 . S
C95 C96 1.373 . S
C96 C95 1.373 . S
C96 C97 1.409 . S
C96 H118 0.931 . S
C97 C92 1.356 . S
C97 C96 1.409 . S
C97 H119 0.930 . S
C98 O108 1.270 . S
C98 O109 1.248 . S
C99 O110 1.267 . S
C99 O111 1.278 . S
O100 Pr80 2.562 . S
O100 C82 1.254 . S
O101 Pr80 2.490 . S
O101 C82 1.225 . S
O102 Pr80 2.695 . S
O102 Pr81 2.436 . S
O102 C89 1.270 . S
O103 Pr80 2.512 . S
O103 C89 1.248 . S
O104 Pr81 2.438 . S
O104 C90 1.267 . S
O105 Pr80 2.437 . S
O105 C90 1.278 . S
O106 Pr81 2.562 . S
O106 C91 1.254 . S
O107 Pr81 2.490 . S
O107 C91 1.225 . S
O108 Pr80 2.436 . S
O108 Pr81 2.695 . S
O108 C98 1.270 . S
O109 Pr81 2.512 . S
O109 C98 1.248 . S
O110 Pr80 2.438 . S
O110 C99 1.267 . S
O111 Pr81 2.437 . S
O111 C99 1.278 . S
H112 C84 0.929 . S
H113 C85 0.929 . S
H114 C87 0.931 . S
H115 C88 0.930 . S
H116 C93 0.929 . S
H117 C94 0.929 . S
H118 C96 0.931 . S
H119 C97 0.930 . S
C120 C121 1.332 . S
C120 C122 1.345 . S
C120 H140 0.928 1_554 S
C121 C120 1.332 . S
C121 C130 1.332 . S
C122 C120 1.345 . S
C122 C134 1.334 . S
C122 H141 0.928 1_554 S
C123 C124 1.332 . S
C123 C125 1.345 . S
C123 H142 0.932 . S
C124 C123 1.332 . S
C124 C132 1.332 . S
C125 C123 1.345 . S
C125 C137 1.334 . S
C125 H143 0.928 1_556 S
H126 C130 0.932 . S
H127 C131 0.928 . S
H128 C132 0.932 . S
H129 C133 0.928 . S
C130 C121 1.332 . S
C130 H126 0.932 . S
C130 C131 1.345 . S
C131 H127 0.928 . S
C131 C130 1.345 . S
C131 C134 1.334 . S
C132 C124 1.332 . S
C132 H128 0.932 . S
C132 C133 1.345 . S
C133 H129 0.928 . S
C133 C132 1.345 . S
C133 C137 1.334 . S
C134 C122 1.334 . S
C134 C131 1.334 . S
C134 C135 1.487 . S
C135 C134 1.487 . S
C135 C136 1.185 . S
C136 C135 1.185 . S
C136 C139 1.482 1_554 S
C137 C125 1.334 . S
C137 C133 1.334 . S
C137 C138 1.487 . S
C138 C137 1.487 . S
C138 C139 1.185 . S
C139 C136 1.482 1_556 S
C139 C138 1.185 . S
H140 C120 0.928 1_556 S
H141 C122 0.928 1_556 S
H142 C123 0.932 . S
H143 C125 0.928 1_554 S
C144 C145 1.332 . S
C144 C146 1.345 . S
C144 H164 0.932 . S
C145 C144 1.332 . S
C145 C154 1.332 . S
C146 C144 1.345 . S
C146 C158 1.334 . S
C146 H165 0.928 . S
C147 C148 1.332 . S
C147 C149 1.345 . S
C147 H166 0.932 . S
C148 C147 1.332 . S
C148 C156 1.332 . S
C149 C147 1.345 . S
C149 C161 1.334 . S
C149 H167 0.928 . S
H150 C154 0.932 . S
H151 C155 0.928 . S
H152 C156 0.932 . S
H153 C157 0.928 . S
C154 C145 1.332 . S
C154 H150 0.932 . S
C154 C155 1.345 . S
C155 H151 0.928 . S
C155 C154 1.345 . S
C155 C158 1.334 . S
C156 C148 1.332 . S
C156 H152 0.932 . S
C156 C157 1.345 . S
C157 H153 0.928 . S
C157 C156 1.345 . S
C157 C161 1.334 . S
C158 C146 1.334 . S
C158 C155 1.334 . S
C158 C159 1.487 . S
C159 C158 1.487 . S
C159 C160 1.185 . S
C160 C159 1.185 . S
C160 C163 1.482 . S
C161 C149 1.334 . S
C161 C157 1.334 . S
C161 C162 1.487 . S
C162 C161 1.487 . S
C162 C163 1.185 . S
C163 C160 1.482 . S
C163 C162 1.185 . S
H164 C144 0.932 . S
H165 C146 0.928 . S
H166 C147 0.932 . S
H167 C149 0.928 . S
C168 C169 1.332 . S
C168 C170 1.345 . S
C168 H188 0.932 . S
C169 C168 1.332 . S
C169 C178 1.332 . S
C170 C168 1.345 . S
C170 C182 1.334 . S
C170 H189 0.928 . S
C171 C172 1.332 . S
C171 C173 1.345 . S
C171 H190 0.932 . S
C172 C171 1.332 . S
C172 C180 1.332 . S
C173 C171 1.345 . S
C173 C185 1.334 . S
C173 H191 0.928 . S
H174 C178 0.932 . S
H175 C179 0.928 . S
H176 C180 0.932 . S
H177 C181 0.928 . S
C178 C169 1.332 . S
C178 H174 0.932 . S
C178 C179 1.345 . S
C179 H175 0.928 . S
C179 C178 1.345 . S
C179 C182 1.334 . S
C180 C172 1.332 . S
C180 H176 0.932 . S
C180 C181 1.345 . S
C181 H177 0.928 . S
C181 C180 1.345 . S
C181 C185 1.334 . S
C182 C170 1.334 . S
C182 C179 1.334 . S
C182 C183 1.487 . S
C183 C182 1.487 . S
C183 C184 1.185 . S
C184 C183 1.185 . S
C184 C187 1.482 . S
C185 C173 1.334 . S
C185 C181 1.334 . S
C185 C186 1.487 . S
C186 C185 1.487 . S
C186 C187 1.185 . S
C187 C184 1.482 . S
C187 C186 1.185 . S
H188 C168 0.932 . S
H189 C170 0.928 . S
H190 C171 0.932 . S
H191 C173 0.928 . S
C192 C193 1.332 . S
C192 C194 1.345 . S
C192 H212 0.932 . S
C193 C192 1.332 . S
C193 C202 1.332 . S
C194 C192 1.345 . S
C194 C206 1.334 . S
C194 H213 0.928 . S
C195 C196 1.332 . S
C195 C197 1.345 . S
C195 H214 0.932 . S
C196 C195 1.332 . S
C196 C204 1.332 . S
C197 C195 1.345 . S
C197 C209 1.334 . S
C197 H215 0.928 . S
H198 C202 0.932 . S
H199 C203 0.928 1_554 S
H200 C204 0.932 1_556 S
H201 C205 0.928 1_556 S
C202 C193 1.332 . S
C202 H198 0.932 . S
C202 C203 1.345 . S
C203 H199 0.928 1_556 S
C203 C202 1.345 . S
C203 C206 1.334 . S
C204 C196 1.332 . S
C204 H200 0.932 1_554 S
C204 C205 1.345 . S
C205 H201 0.928 1_554 S
C205 C204 1.345 . S
C205 C209 1.334 . S
C206 C194 1.334 . S
C206 C203 1.334 . S
C206 C207 1.487 . S
C207 C206 1.487 . S
C207 C208 1.185 . S
C208 C207 1.185 . S
C208 C211 1.482 1_556 S
C209 C197 1.334 . S
C209 C205 1.334 . S
C209 C210 1.487 . S
C210 C209 1.487 . S
C210 C211 1.185 . S
C211 C208 1.482 1_554 S
C211 C210 1.185 . S
H212 C192 0.932 . S
H213 C194 0.928 . S
H214 C195 0.932 . S
H215 C197 0.928 . S
C216 C217 1.332 . S
C216 C218 1.345 . S
C216 H236 0.932 . S
C217 C216 1.332 . S
C217 C226 1.332 . S
C218 C216 1.345 . S
C218 C230 1.334 . S
C218 H237 0.928 . S
C219 C220 1.332 . S
C219 C221 1.345 . S
C219 H238 0.932 . S
C220 C219 1.332 . S
C220 C228 1.332 . S
C221 C219 1.345 . S
C221 C233 1.334 . S
C221 H239 0.928 . S
H222 C226 0.932 . S
H223 C227 0.928 . S
H224 C228 0.932 . S
H225 C229 0.928 . S
C226 C217 1.332 . S
C226 H222 0.932 . S
C226 C227 1.345 . S
C227 H223 0.928 . S
C227 C226 1.345 . S
C227 C230 1.334 . S
C228 C220 1.332 . S
C228 H224 0.932 . S
C228 C229 1.345 . S
C229 H225 0.928 . S
C229 C228 1.345 . S
C229 C233 1.334 . S
C230 C218 1.334 . S
C230 C227 1.334 . S
C230 C231 1.487 . S
C231 C230 1.487 . S
C231 C232 1.185 . S
C232 C231 1.185 . S
C232 C235 1.482 . S
C233 C221 1.334 . S
C233 C229 1.334 . S
C233 C234 1.487 . S
C234 C233 1.487 . S
C234 C235 1.185 . S
C235 C232 1.482 . S
C235 C234 1.185 . S
H236 C216 0.932 . S
H237 C218 0.928 . S
H238 C219 0.932 . S
H239 C221 0.928 . S
C240 C241 1.332 . S
C240 C242 1.345 . S
C240 H260 0.932 . S
C241 C240 1.332 . S
C241 C250 1.332 . S
C242 C240 1.345 . S
C242 C254 1.334 . S
C242 H261 0.928 . S
C243 C244 1.332 . S
C243 C245 1.345 . S
C243 H262 0.932 . S
C244 C243 1.332 . S
C244 C252 1.332 . S
C245 C243 1.345 . S
C245 C257 1.334 . S
C245 H263 0.928 . S
H246 C250 0.932 . S
H247 C251 0.928 . S
H248 C252 0.932 . S
H249 C253 0.928 . S
C250 C241 1.332 . S
C250 H246 0.932 . S
C250 C251 1.345 . S
C251 H247 0.928 . S
C251 C250 1.345 . S
C251 C254 1.334 . S
C252 C244 1.332 . S
C252 H248 0.932 . S
C252 C253 1.345 . S
C253 H249 0.928 . S
C253 C252 1.345 . S
C253 C257 1.334 . S
C254 C242 1.334 . S
C254 C251 1.334 . S
C254 C255 1.487 . S
C255 C254 1.487 . S
C255 C256 1.185 . S
C256 C255 1.185 . S
C256 C259 1.482 . S
C257 C245 1.334 . S
C257 C253 1.334 . S
C257 C258 1.487 . S
C258 C257 1.487 . S
C258 C259 1.185 . S
C259 C256 1.482 . S
C259 C258 1.185 . S
H260 C240 0.932 . S
H261 C242 0.928 . S
H262 C243 0.932 . S
H263 C245 0.928 . S
C264 C265 1.332 . S
C264 C266 1.345 . S
C264 H284 0.932 . S
C265 C264 1.332 . S
C265 C274 1.332 . S
C266 C264 1.345 . S
C266 C278 1.334 . S
C266 H285 0.928 . S
C267 C268 1.332 . S
C267 C269 1.345 . S
C267 H286 0.932 . S
C268 C267 1.332 . S
C268 C276 1.332 . S
C269 C267 1.345 . S
C269 C281 1.334 . S
C269 H287 0.928 . S
H270 C274 0.932 . S
H271 C275 0.928 . S
H272 C276 0.932 . S
H273 C277 0.928 . S
C274 C265 1.332 . S
C274 H270 0.932 . S
C274 C275 1.345 . S
C275 H271 0.928 . S
C275 C274 1.345 . S
C275 C278 1.334 . S
C276 C268 1.332 . S
C276 H272 0.932 . S
C276 C277 1.345 . S
C277 H273 0.928 . S
C277 C276 1.345 . S
C277 C281 1.334 . S
C278 C266 1.334 . S
C278 C275 1.334 . S
C278 C279 1.487 . S
C279 C278 1.487 . S
C279 C280 1.185 . S
C280 C279 1.185 . S
C280 C283 1.482 . S
C281 C269 1.334 . S
C281 C277 1.334 . S
C281 C282 1.487 . S
C282 C281 1.487 . S
C282 C283 1.185 . S
C283 C280 1.482 . S
C283 C282 1.185 . S
H284 C264 0.932 . S
H285 C266 0.928 . S
H286 C267 0.932 . S
H287 C269 0.928 . S
C288 C289 1.332 . S
C288 C290 1.345 . S
C288 H308 0.932 . S
C289 C288 1.332 . S
C289 C298 1.332 1_545 S
C290 C288 1.345 . S
C290 C302 1.334 . S
C290 H309 0.928 . S
C291 C292 1.332 1_565 S
C291 C293 1.345 . S
C291 H310 0.932 . S
C292 C291 1.332 1_545 S
C292 C300 1.332 . S
C293 C291 1.345 . S
C293 C305 1.334 1_565 S
C293 H311 0.928 . S
H294 C298 0.932 . S
H295 C299 0.928 . S
H296 C300 0.932 . S
H297 C301 0.928 . S
C298 C289 1.332 1_565 S
C298 H294 0.932 . S
C298 C299 1.345 . S
C299 H295 0.928 . S
C299 C298 1.345 . S
C299 C302 1.334 1_565 S
C300 C292 1.332 . S
C300 H296 0.932 . S
C300 C301 1.345 . S
C301 H297 0.928 . S
C301 C300 1.345 . S
C301 C305 1.334 . S
C302 C290 1.334 . S
C302 C299 1.334 1_545 S
C302 C303 1.487 . S
C303 C302 1.487 . S
C303 C304 1.185 . S
C304 C303 1.185 . S
C304 C307 1.482 1_554 S
C305 C293 1.334 1_545 S
C305 C301 1.334 . S
C305 C306 1.487 . S
C306 C305 1.487 . S
C306 C307 1.185 . S
C307 C304 1.482 1_556 S
C307 C306 1.185 . S
H308 C288 0.932 . S
H309 C290 0.928 . S
H310 C291 0.932 . S
H311 C293 0.928 . S
C312 C313 1.332 . S
C312 C314 1.345 . S
C312 H332 0.932 . S
C313 C312 1.332 . S
C313 C322 1.332 . S
C314 C312 1.345 . S
C314 C326 1.334 . S
C314 H333 0.928 . S
C315 C316 1.332 1_554 S
C315 C317 1.345 . S
C315 H334 0.932 1_554 S
C316 C315 1.332 1_556 S
C316 C324 1.332 1_556 S
C317 C315 1.345 . S
C317 C329 1.334 . S
C317 H335 0.928 . S
H318 C322 0.932 . S
H319 C323 0.928 . S
H320 C324 0.932 . S
H321 C325 0.928 . S
C322 C313 1.332 . S
C322 H318 0.932 . S
C322 C323 1.345 . S
C323 H319 0.928 . S
C323 C322 1.345 . S
C323 C326 1.334 . S
C324 C316 1.332 1_554 S
C324 H320 0.932 . S
C324 C325 1.345 . S
C325 H321 0.928 . S
C325 C324 1.345 . S
C325 C329 1.334 . S
C326 C314 1.334 . S
C326 C323 1.334 . S
C326 C327 1.487 . S
C327 C326 1.487 . S
C327 C328 1.185 . S
C328 C327 1.185 . S
C328 C331 1.482 . S
C329 C317 1.334 . S
C329 C325 1.334 . S
C329 C330 1.487 . S
C330 C329 1.487 . S
C330 C331 1.185 . S
C331 C328 1.482 . S
C331 C330 1.185 . S
H332 C312 0.932 . S
H333 C314 0.928 . S
H334 C315 0.932 1_556 S
H335 C317 0.928 . S
C121 C19 3.094 . S
C124 C99 3.063 . S
C145 C46 1.585 . S
C148 C6 1.584 . S
C169 C59 2.511 . S
C172 C95 2.418 . S
C193 C90 2.722 . S
C196 C10 2.745 . S
C217 C55 1.489 . S
C220 C15 1.483 . S
C241 C86 2.214 . S
C244 C50 2.181 . S
C265 C9 0.383 . S
C268 C18 0.383 . S
C289 C58 0.376 . S
C292 C49 0.376 . S
C313 C98 0.413 . S
C316 C89 0.413 . S
