# Generated by pormake.
# Topology smt, (6)-cn, num edge types: 1
# Building blocks:
#     Node 0, Type 0, BuildingBlock: LEVNOQ01_clean_sbu_1, # of connection points: 6
#     Node 1, Type 0, BuildingBlock: LEVNOQ01_clean_sbu_1, # of connection points: 6
#     Node 2, Type 0, BuildingBlock: LEVNOQ01_clean_sbu_1, # of connection points: 6
#     Node 3, Type 0, BuildingBlock: LEVNOQ01_clean_sbu_1, # of connection points: 6
#     Node 4, Type 0, BuildingBlock: LEVNOQ01_clean_sbu_1, # of connection points: 6
#     Node 5, Type 0, BuildingBlock: LEVNOQ01_clean_sbu_1, # of connection points: 6
#     Edge 6, Type (0, 0), BuildingBlock: EZIPEK_clean_linker_0, # of connection points: 2
#     Edge 7, Type (0, 0), BuildingBlock: EZIPEK_clean_linker_0, # of connection points: 2
#     Edge 8, Type (0, 0), BuildingBlock: EZIPEK_clean_linker_0, # of connection points: 2
#     Edge 9, Type (0, 0), BuildingBlock: EZIPEK_clean_linker_0, # of connection points: 2
#     Edge 10, Type (0, 0), BuildingBlock: EZIPEK_clean_linker_0, # of connection points: 2
#     Edge 11, Type (0, 0), BuildingBlock: EZIPEK_clean_linker_0, # of connection points: 2
#     Edge 12, Type (0, 0), BuildingBlock: EZIPEK_clean_linker_0, # of connection points: 2
#     Edge 13, Type (0, 0), BuildingBlock: EZIPEK_clean_linker_0, # of connection points: 2
#     Edge 14, Type (0, 0), BuildingBlock: EZIPEK_clean_linker_0, # of connection points: 2
#     Edge 15, Type (0, 0), BuildingBlock: EZIPEK_clean_linker_0, # of connection points: 2
#     Edge 16, Type (0, 0), BuildingBlock: EZIPEK_clean_linker_0, # of connection points: 2
#     Edge 17, Type (0, 0), BuildingBlock: EZIPEK_clean_linker_0, # of connection points: 2
#     Edge 18, Type (0, 0), BuildingBlock: EZIPEK_clean_linker_0, # of connection points: 2
#     Edge 19, Type (0, 0), BuildingBlock: EZIPEK_clean_linker_0, # of connection points: 2
#     Edge 20, Type (0, 0), BuildingBlock: EZIPEK_clean_linker_0, # of connection points: 2
#     Edge 21, Type (0, 0), BuildingBlock: EZIPEK_clean_linker_0, # of connection points: 2
#     Edge 22, Type (0, 0), BuildingBlock: EZIPEK_clean_linker_0, # of connection points: 2
#     Edge 23, Type (0, 0), BuildingBlock: EZIPEK_clean_linker_0, # of connection points: 2
# Relax obj value: 0.322
# Max RMSD: 0.278
# Mean RMSD: 0.278
data_MOF--net-smt--node1-LEVNOQ01_clean_sbu_1--edge1-EZIPEK_clean_linker_0
_symmetry_space_group_name_H-M    P1
_symmetry_Int_Tables_number       1
_symmetry_cell_setting            triclinic
loop_
_symmetry_equiv_pos_as_xyz
'x, y, z'
_cell_length_a     26.768876
_cell_length_b     26.878851
_cell_length_c     17.053238
_cell_angle_alpha  90.513792
_cell_angle_beta   89.651458
_cell_angle_gamma 120.01911
loop_
_atom_site_label
_atom_site_type_symbol
_atom_site_fract_x
_atom_site_fract_y
_atom_site_fract_z
_atom_type_partial_charge
O0 O 0.28078 0.98689 0.03969 0.0
Mg1 Mg 0.31587 0.04958 0.13246 0.0
O2 O 0.34337 0.02984 0.94155 0.0
Mg3 Mg 0.42042 0.10246 0.00353 0.0
O4 O 0.36079 0.12257 0.07179 0.0
O5 O 0.29108 0.11205 0.15052 0.0
O6 O 0.4997 0.17789 0.09193 0.0
O7 O 0.41982 0.16435 0.91125 0.0
Mg8 Mg 0.49034 0.12981 0.98129 0.0
O9 O 0.46485 0.06554 0.90867 0.0
O10 O 0.53296 0.12056 0.07806 0.0
O11 O 0.5057 0.21369 0.95622 0.0
O12 O 0.55075 0.14292 0.89686 0.0
C13 C 0.40961 0.02745 0.16349 0.0
C14 C 0.29681 0.98851 0.96871 0.0
C15 C 0.32995 0.1429 0.09981 0.0
C16 C 0.53657 0.16353 0.11224 0.0
C17 C 0.46679 0.21123 0.91342 0.0
C18 C 0.51409 0.09223 0.87385 0.0
O19 O 0.37889 0.04403 0.19974 0.0
O20 O 0.41984 0.03747 0.09088 0.0
O21 O 0.30076 0.55366 0.0728 0.0
Mg22 Mg 0.38563 0.56759 0.07005 0.0
O23 O 0.2477 0.46237 0.11011 0.0
Mg24 Mg 0.31584 0.44609 0.16523 0.0
O25 O 0.37668 0.48942 0.06467 0.0
O26 O 0.42844 0.55559 0.97665 0.0
O27 O 0.38418 0.43763 0.23574 0.0
O28 O 0.29138 0.36256 0.09576 0.0
Mg29 Mg 0.26001 0.33391 0.29505 0.0
O30 O 0.24816 0.39597 0.25209 0.0
O31 O 0.33918 0.39366 0.34674 0.0
O32 O 0.2771 0.29989 0.19114 0.0
O33 O 0.1752 0.32337 0.30731 0.0
C34 C 0.40227 0.5753 0.23989 0.0
C35 C 0.25232 0.50985 0.08891 0.0
C36 C 0.41171 0.5057 0.00618 0.0
C37 C 0.38467 0.42849 0.30928 0.0
C38 C 0.28626 0.3152 0.11956 0.0
C39 C 0.19394 0.36902 0.26601 0.0
O40 O 0.42905 0.59478 0.17598 0.0
O41 O 0.35205 0.53015 0.2417 0.0
O42 O 0.00177 0.32715 0.32908 0.0
Mg43 Mg 0.94197 0.29282 0.41948 0.0
O44 O 0.94888 0.35026 0.25425 0.0
Mg45 Mg 0.86552 0.33056 0.32926 0.0
O46 O 0.85893 0.24807 0.38082 0.0
O47 O 0.90423 0.20806 0.44182 0.0
O48 O 0.79084 0.3217 0.4081 0.0
O49 O 0.79639 0.27002 0.23441 0.0
Mg50 Mg 0.78927 0.38191 0.2254 0.0
O51 O 0.86821 0.40747 0.27365 0.0
O52 O 0.73818 0.32546 0.31655 0.0
O53 O 0.79504 0.32647 0.14331 0.0
O54 O 0.85386 0.46956 0.21184 0.0
C55 C 0.94134 0.38849 0.49752 0.0
C56 C -0.00515 0.34809 0.26674 0.0
C57 C 0.85825 0.2034 0.41058 0.0
C58 C 0.75576 0.33782 0.38604 0.0
C59 C 0.77504 0.27628 0.1705 0.0
C60 C 0.88999 0.45552 0.23793 0.0
O61 O 0.9495 0.34702 0.51158 0.0
O62 O 0.91989 0.39167 0.43236 0.0
O63 O 0.48209 0.77678 0.47486 0.0
Mg64 Mg 0.48331 0.85582 0.44031 0.0
O65 O 0.55001 0.8273 0.39833 0.0
Mg66 Mg 0.54531 0.88446 0.50784 0.0
O67 O 0.52389 0.94205 0.43345 0.0
O68 O 0.49986 0.88644 0.32678 0.0
O69 O 0.54054 0.94002 0.60553 0.0
O70 O 0.63446 0.95826 0.46224 0.0
Mg71 Mg 0.6328 0.91434 0.58602 0.0
O72 O 0.57505 0.82713 0.58325 0.0
O73 O 0.62837 0.98159 0.64682 0.0
O74 O 0.70019 0.9401 0.503 0.0
O75 O 0.64692 0.87168 0.66869 0.0
C76 C 0.39977 0.81907 0.53317 0.0
C77 C 0.51364 0.77753 0.42095 0.0
C78 C 0.51274 0.93492 0.35953 0.0
C79 C 0.58076 0.98018 0.64412 0.0
C80 C 0.68674 0.97046 0.46255 0.0
C81 C 0.60853 0.82459 0.63665 0.0
O82 O 0.40126 0.83627 0.46452 0.0
O83 O 0.44604 0.82449 0.56384 0.0
O84 O 0.68894 0.6639 0.72044 0.0
Mg85 Mg 0.70368 0.61907 0.80913 0.0
O86 O 0.65838 0.60451 0.61685 0.0
Mg87 Mg 0.65245 0.51809 0.65864 0.0
O88 O 0.71898 0.56546 0.74658 0.0
O89 O 0.78523 0.6255 0.82714 0.0
O90 O 0.63985 0.43163 0.712 0.0
O91 O 0.72696 0.52613 0.57295 0.0
Mg92 Mg 0.5986 0.41102 0.54474 0.0
O93 O 0.58622 0.47801 0.5589 0.0
O94 O 0.57126 0.36163 0.64141 0.0
O95 O 0.683 0.44225 0.50891 0.0
O96 O 0.53795 0.40697 0.47197 0.0
C97 C 0.58095 0.5191 0.82631 0.0
C98 C 0.67017 0.65207 0.65039 0.0
C99 C 0.77005 0.58698 0.7731 0.0
C100 C 0.60112 0.37885 0.70295 0.0
C101 C 0.72799 0.48958 0.52487 0.0
C102 C 0.54889 0.45548 0.50269 0.0
O103 O 0.62505 0.56041 0.85859 0.0
O104 O 0.58173 0.50341 0.75477 0.0
O105 O 0.21346 0.65975 0.70576 0.0
Mg106 Mg 0.17531 0.57922 0.7618 0.0
O107 O 0.15953 0.69894 0.74006 0.0
Mg108 Mg 0.09958 0.64155 0.83833 0.0
O109 O 0.09431 0.56564 0.77551 0.0
O110 O 0.10833 0.50568 0.70485 0.0
O111 O 0.04637 0.58693 0.94461 0.0
O112 O 0.01952 0.62305 0.76934 0.0
Mg113 Mg 0.02695 0.69477 0.93508 0.0
O114 O 0.10596 0.72247 0.88953 0.0
O115 O 0.01995 0.63695 0.02215 0.0
O116 O 0.97187 0.65732 0.83804 0.0
O117 O 0.08344 0.78286 0.94609 0.0
C118 C 0.1805 0.6067 0.93187 0.0
C119 C 0.20054 0.6992 0.70113 0.0
C120 C 0.07339 0.52231 0.72888 0.0
C121 C 0.02617 0.59377 0.00941 0.0
C122 C 0.97684 0.63084 0.7791 0.0
C123 C 0.12113 0.77424 0.91077 0.0
O124 O 0.19056 0.57849 0.88024 0.0
O125 O 0.17437 0.64941 0.91328 0.0
C126 C 0.27357 0.88896 0.94522 0.0
C127 C 0.2663 0.93539 0.92265 0.0
C128 C 0.17917 0.86988 0.85147 0.0
C129 C 0.17798 0.82395 0.89315 0.0
N130 N 0.22592 0.78736 0.97339 0.0
N131 N 0.2187 0.97323 0.84474 0.0
C132 C 0.22668 0.83241 0.93611 0.0
C133 C 0.22184 0.927 0.87082 0.0
N134 N 0.3245 0.89958 0.97784 0.0
N135 N 0.13827 0.85824 0.79579 0.0
H136 H 0.25083 0.01539 0.85702 0.0
H137 H 0.18397 0.96991 0.81321 0.0
H138 H 0.1071 0.81608 0.78142 0.0
H139 H 0.13829 0.88933 0.7598 0.0
H140 H 0.33415 0.86754 -0.00921 0.0
H141 H 0.35924 0.94126 0.98481 0.0
H142 H 0.25729 0.79174 0.01309 0.0
H143 H 0.19202 0.74545 0.96682 0.0
C144 C 0.36366 0.29583 0.08326 0.0
C145 C 0.30646 0.28359 0.06991 0.0
C146 C 0.27937 0.1859 0.03102 0.0
C147 C 0.3305 0.19387 0.06707 0.0
N148 N 0.42543 0.25731 0.11796 0.0
N149 N 0.21257 0.22192 0.01681 0.0
C150 C 0.37484 0.24959 0.088 0.0
C151 C 0.26553 0.23043 0.03699 0.0
N152 N 0.40595 0.35131 0.09571 0.0
N153 N 0.24396 0.13524 -0.00654 0.0
H154 H 0.20335 0.25537 0.01926 0.0
H155 H 0.17817 0.18239 -0.00052 0.0
H156 H 0.2544 0.10273 0.98848 0.0
H157 H 0.20751 0.12747 0.96204 0.0
H158 H 0.44956 0.36417 0.09999 0.0
H159 H 0.39721 0.38501 0.09459 0.0
H160 H 0.45718 0.29582 0.14239 0.0
H161 H 0.43471 0.22404 0.12036 0.0
C162 C 0.09214 0.42582 0.24122 0.0
C163 C 0.04502 0.37404 0.21348 0.0
C164 C 0.11053 0.33952 0.17654 0.0
C165 C 0.15237 0.38186 0.22714 0.0
N166 N 0.18879 0.47171 0.29631 0.0
N167 N 0.01043 0.29085 0.13217 0.0
C168 C 0.14586 0.42833 0.25376 0.0
C169 C 0.05537 0.33498 0.1709 0.0
N170 N 0.08321 0.46992 0.26137 0.0
N171 N 0.12358 0.30328 0.13646 0.0
H172 H 0.9704 0.28868 0.12877 0.0
H173 H 0.01239 0.25723 0.10447 0.0
H174 H 0.16437 0.30726 0.13983 0.0
H175 H 0.09611 0.27247 0.09631 0.0
H176 H 0.11593 0.51046 0.27867 0.0
H177 H 0.04269 0.4661 0.25439 0.0
H178 H 0.18466 0.50407 0.3242 0.0
H179 H 0.22868 0.47448 0.30463 0.0
C180 C 0.78591 0.129 0.4942 0.0
C181 C 0.805 0.14788 0.41742 0.0
C182 C 0.74144 0.05075 0.36697 0.0
C183 C 0.73074 0.03037 0.44534 0.0
N184 N 0.75133 0.05083 0.58466 0.0
N185 N 0.80404 0.12827 0.27936 0.0
C186 C 0.7553 0.0696 0.50937 0.0
C187 C 0.78317 0.10936 0.35296 0.0
N188 N 0.79718 0.16831 0.55278 0.0
N189 N 0.71211 0.01426 0.30643 0.0
H190 H 0.83308 0.17141 0.26754 0.0
H191 H 0.7945 0.10106 0.23103 0.0
H192 H 0.6832 0.97059 0.31465 0.0
H193 H 0.71372 0.02801 0.24908 0.0
H194 H 0.77941 0.15704 0.60881 0.0
H195 H 0.81912 0.21251 0.54257 0.0
H196 H 0.77458 0.0781 0.63092 0.0
H197 H 0.72972 0.00799 0.60111 0.0
C198 C 0.57936 0.71926 0.60618 0.0
C199 C 0.61669 0.77315 0.64332 0.0
C200 C 0.69465 0.75144 0.63764 0.0
C201 C 0.65657 0.69441 0.61471 0.0
N202 N 0.5618 0.62376 0.56983 0.0
N203 N 0.69883 0.82002 0.73114 0.0
C204 C 0.59864 0.67834 0.59536 0.0
C205 C 0.67141 0.78371 0.66969 0.0
N206 N 0.52495 0.70604 0.58529 0.0
N207 N 0.75264 0.77192 0.63818 0.0
H208 H 0.67814 0.83571 0.76728 0.0
H209 H 0.73776 0.82629 0.75358 0.0
H210 H 0.77012 0.74735 0.61662 0.0
H211 H 0.78226 0.81442 0.65317 0.0
H212 H 0.49823 0.67151 0.54918 0.0
H213 H 0.5062 0.72961 0.60571 0.0
H214 H 0.51754 0.60664 0.5635 0.0
H215 H 0.57605 0.59537 0.55442 0.0
C216 C 0.88253 0.54653 0.76485 0.0
C217 C 0.92532 0.59858 0.73152 0.0
C218 C 0.8527 0.61947 0.68393 0.0
C219 C 0.81328 0.57686 0.73578 0.0
N220 N 0.78349 0.49161 0.81129 0.0
N221 N 0.95273 0.6745 0.63991 0.0
C222 C 0.82543 0.53645 0.76988 0.0
C223 C 0.9104 0.63085 0.68241 0.0
N224 N 0.89823 0.50985 0.79627 0.0
N225 N 0.83512 0.65031 0.6404 0.0
H226 H -0.00516 0.68154 0.63946 0.0
H227 H 0.94648 0.70237 0.60485 0.0
H228 H 0.79243 0.64147 0.64143 0.0
H229 H 0.86135 0.68229 0.60114 0.0
H230 H 0.86944 0.47008 0.82013 0.0
H231 H 0.94082 0.51861 0.79365 0.0
H232 H 0.79012 0.46263 0.84321 0.0
H233 H 0.7412 0.48379 0.81328 0.0
C234 C 0.48961 0.00416 0.18837 0.0
C235 C 0.43498 -0.00187 0.20809 0.0
C236 C 0.43955 0.96326 0.33778 0.0
C237 C 0.49475 0.97127 0.31912 0.0
N238 N 0.57867 0.01302 0.23738 0.0
N239 N 0.34879 0.94617 0.28568 0.0
C240 C 0.52177 -0.00385 0.2476 0.0
C241 C 0.40732 0.97053 0.27861 0.0
N242 N 0.50779 0.01022 0.11226 0.0
N243 N 0.41805 0.94967 0.41226 0.0
H244 H 0.3229 0.94497 0.23933 0.0
H245 H 0.32527 0.92036 0.33264 0.0
H246 H 0.4411 0.94651 0.45885 0.0
H247 H 0.3801 0.94838 0.42999 0.0
H248 H 0.54575 0.01134 0.09513 0.0
H249 H 0.48147 0.00519 0.06475 0.0
H250 H 0.60301 0.03742 0.18989 0.0
H251 H 0.60271 0.00804 0.28147 0.0
C252 C 0.49258 0.47062 0.32791 0.0
C253 C 0.43822 0.46112 0.35521 0.0
C254 C 0.47468 0.48325 0.48874 0.0
C255 C 0.52628 0.48745 0.46159 0.0
N256 N 0.59479 0.51577 0.35696 0.0
N257 N 0.38961 0.48747 0.45341 0.0
C258 C 0.53917 0.49421 0.38106 0.0
C259 C 0.43353 0.47799 0.43299 0.0
N260 N 0.49877 0.45145 0.25621 0.0
N261 N 0.46291 0.47861 0.56689 0.0
H262 H 0.36039 0.48636 0.41214 0.0
H263 H 0.38659 0.50262 0.50872 0.0
H264 H 0.49334 0.48171 0.60736 0.0
H265 H 0.42288 0.469 0.58978 0.0
H266 H 0.53713 0.45377 0.23803 0.0
H267 H 0.4646 0.42792 0.21823 0.0
H268 H 0.6071 0.52391 0.29822 0.0
H269 H 0.62843 0.53026 0.39753 0.0
C270 C 0.97377 0.44553 0.70145 0.0
C271 C 0.01885 0.50157 0.68648 0.0
C272 C -0.00506 0.4909 0.54735 0.0
C273 C 0.95541 0.43174 0.56049 0.0
N274 N 0.89343 0.35878 0.65416 0.0
N275 N 0.05432 0.58508 0.60598 0.0
C276 C 0.93934 0.41159 0.63863 0.0
C277 C 0.02227 0.52693 0.61311 0.0
N278 N 0.96544 0.42372 0.77527 0.0
N279 N 0.01143 0.5115 0.4731 0.0
H280 H 0.07641 0.61144 0.65356 0.0
H281 H 0.0537 0.60671 0.55594 0.0
H282 H -0.00614 0.48674 0.42284 0.0
H283 H 0.04539 0.55262 0.46126 0.0
H284 H 0.93337 0.3818 0.7884 0.0
H285 H -0.00958 0.4485 0.82249 0.0
H286 H 0.86521 0.33153 0.61105 0.0
H287 H 0.86521 0.33153 0.61105 0.0
C288 C 0.51687 0.02097 0.68133 0.0
C289 C 0.56951 0.02085 0.69074 0.0
C290 C 0.58624 0.07027 0.81598 0.0
C291 C 0.53087 0.06513 0.81152 0.0
N292 N 0.4426 0.03597 0.7396 0.0
N293 N 0.6662 0.07813 0.74087 0.0
C294 C 0.49576 0.0406 0.74402 0.0
C295 C 0.60813 0.05529 0.75019 0.0
N296 N 0.491 0.0087 0.60939 0.0
N297 N 0.6169 0.08643 0.88444 0.0
H298 H 0.68435 0.07605 0.68761 0.0
H299 H 0.69634 0.10725 0.78056 0.0
H300 H 0.60091 0.0936 0.93665 0.0
H301 H 0.65528 0.0859 0.89165 0.0
H302 H 0.45444 0.01121 0.59619 0.0
H303 H 0.51091 0.00356 0.5597 0.0
H304 H 0.41197 0.01123 0.69748 0.0
H305 H 0.42754 0.05457 0.78016 0.0
C306 C 0.49069 0.48552 0.00898 0.0
C307 C 0.43738 0.47246 0.97621 0.0
C308 C 0.4722 0.47335 0.84504 0.0
C309 C 0.52799 0.49065 0.87592 0.0
N310 N 0.58313 0.49248 -0.00958 0.0
N311 N 0.36952 0.42717 0.87288 0.0
C312 C 0.53451 0.48871 0.95901 0.0
C313 C 0.42533 0.45493 0.89772 0.0
N314 N 0.50151 0.5015 0.08604 0.0
N315 N 0.46488 0.4826 0.76862 0.0
H316 H 0.33559 0.41628 0.91233 0.0
H317 H 0.35759 0.41052 0.81626 0.0
H318 H 0.49925 0.50701 0.73144 0.0
H319 H 0.42524 0.47381 0.7458 0.0
H320 H 0.54242 0.51996 0.11106 0.0
H321 H 0.46941 0.49887 0.12371 0.0
H322 H 0.58677 0.48568 0.04968 0.0
H323 H 0.61773 0.49706 0.9568 0.0
C324 C 0.97117 0.49203 0.05896 0.0
C325 C 0.00943 0.5513 0.07307 0.0
C326 C -0.01193 0.53785 0.21352 0.0
C327 C 0.94621 0.4803 0.19773 0.0
N328 N 0.91857 0.39755 0.11504 0.0
N329 N 0.07191 0.62414 0.16576 0.0
C330 C 0.94618 0.45563 0.12404 0.0
C331 C 0.02434 0.57187 0.15148 0.0
N332 N 0.95325 0.4711 0.98482 0.0
N333 N -0.00989 0.56067 0.28598 0.0
H334 H 0.09921 0.64929 0.12072 0.0
H335 H 0.08699 0.63956 0.22203 0.0
H336 H 0.96363 0.53553 0.3317 0.0
H337 H 0.0158 0.60421 0.29924 0.0
H338 H 0.92009 0.42934 0.97353 0.0
H339 H 0.96734 0.49599 0.93454 0.0
H340 H 0.92163 0.37731 0.06428 0.0
H341 H 0.89757 0.37017 0.16139 0.0
C342 C 0.50476 0.23733 0.78144 0.0
C343 C 0.48635 0.25316 0.85048 0.0
C344 C 0.56529 0.35161 0.83857 0.0
C345 C 0.58143 0.33701 0.76716 0.0
N346 N 0.58186 0.26391 0.68645 0.0
N347 N 0.48974 0.32632 0.93477 0.0
C348 C 0.55597 0.27873 0.74403 0.0
C349 C 0.51367 0.31088 0.87542 0.0
N350 N 0.47267 0.18304 0.75151 0.0
N351 N 0.60202 0.40179 0.87532 0.0
H352 H 0.45057 0.29645 0.96008 0.0
H353 H 0.50558 0.36882 0.95243 0.0
H354 H 0.64184 0.43141 0.85166 0.0
H355 H 0.59679 0.40804 0.93442 0.0
H356 H 0.48208 0.16951 0.69892 0.0
H357 H 0.43299 0.1532 0.7754 0.0
H358 H 0.56859 0.22169 0.67011 0.0
H359 H 0.62046 0.29462 0.66048 0.0
C360 C 0.19366 0.60407 0.07464 0.0
C361 C 0.1603 0.57717 0.00789 0.0
C362 C 0.15519 0.48678 0.03937 0.0
C363 C 0.20231 0.51876 0.08988 0.0
N364 N 0.24497 0.59472 0.1855 0.0
N365 N 0.08396 0.48885 0.95442 0.0
C366 C 0.21267 0.57263 0.11944 0.0
C367 C 0.13016 0.51623 0.00322 0.0
N368 N 0.21154 0.66038 0.08926 0.0
N369 N 0.13957 0.43173 0.01881 0.0
H370 H 0.07031 0.51181 0.9205 0.0
H371 H 0.05786 0.44435 0.95139 0.0
H372 H 0.15774 0.4096 0.04472 0.0
H373 H 0.10956 0.40844 0.9753 0.0
H374 H 0.24078 0.68474 0.13298 0.0
H375 H 0.19582 0.68212 0.05647 0.0
H376 H 0.25318 0.63309 0.21208 0.0
H377 H 0.26016 0.57148 0.21594 0.0
C378 C 0.61369 0.18113 0.20616 0.0
C379 C 0.59375 0.20324 0.14637 0.0
C380 C 0.68955 0.252 0.08813 0.0
C381 C 0.71231 0.23622 0.15195 0.0
N382 N 0.69246 0.17114 0.25955 0.0
N383 N 0.61765 0.27578 0.04912 0.0
C384 C 0.67334 0.19673 0.2084 0.0
C385 C 0.63349 0.24414 0.09369 0.0
N386 N 0.57453 0.14448 0.25945 0.0
N387 N 0.72159 0.27383 0.0216 0.0
H388 H 0.57848 0.2745 0.05828 0.0
H389 H 0.6462 0.30841 0.01197 0.0
H390 H 0.76173 0.27665 0.01453 0.0
H391 H 0.70542 0.28245 0.97121 0.0
H392 H 0.58425 0.1262 0.30611 0.0
H393 H 0.53144 0.13443 0.25826 0.0
H394 H 0.66776 0.14345 0.3041 0.0
H395 H 0.73215 0.1733 0.25223 0.0
C396 C 0.51636 0.69196 0.36474 0.0
C397 C 0.48974 0.72593 0.37069 0.0
C398 C 0.39822 0.64431 0.3294 0.0
C399 C 0.42656 0.61439 0.30755 0.0
N400 N 0.51392 0.60924 0.30239 0.0
N401 N 0.40907 0.73816 0.3357 0.0
C402 C 0.48614 0.63782 0.32555 0.0
C403 C 0.43176 0.7032 0.34592 0.0
N404 N 0.56964 0.71107 0.39649 0.0
N405 N 0.33955 0.617 0.33375 0.0
H406 H 0.43332 0.78237 0.34345 0.0
H407 H 0.3685 0.72375 0.31098 0.0
H408 H 0.31413 0.57255 0.32826 0.0
H409 H 0.31736 0.63745 0.3534 0.0
H410 H 0.58861 0.68552 0.40089 0.0
H411 H 0.59326 0.75162 0.42252 0.0
H412 H 0.55834 0.62639 0.30703 0.0
H413 H 0.49218 0.56914 0.27484 0.0
C414 C 0.78307 0.40692 0.50079 0.0
C415 C 0.76288 0.39241 0.42186 0.0
C416 C 0.77734 0.49009 0.40873 0.0
C417 C 0.78175 0.49638 0.49021 0.0
N418 N 0.83299 0.48456 0.59446 0.0
N419 N 0.72573 0.41994 0.30865 0.0
C420 C 0.80039 0.46293 0.52917 0.0
C421 C 0.7572 0.43434 0.37628 0.0
N422 N 0.78025 0.36634 0.55115 0.0
N423 N 0.78423 0.53519 0.36501 0.0
H424 H 0.69698 0.37788 0.29177 0.0
H425 H 0.71985 0.44938 0.27648 0.0
H426 H 0.79477 0.57441 0.39169 0.0
H427 H 0.78457 0.53473 0.30386 0.0
H428 H 0.79068 0.37481 0.61041 0.0
H429 H 0.7603 0.32278 0.53691 0.0
H430 H 0.85152 0.464 0.62403 0.0
H431 H 0.84613 0.52651 0.61139 0.0
C432 C 0.33997 0.82067 0.64544 0.0
C433 C 0.34467 0.79434 0.57532 0.0
C434 C 0.24022 0.73265 0.57245 0.0
C435 C 0.23813 0.74753 0.65096 0.0
N436 N 0.28215 0.81044 0.76084 0.0
N437 N 0.29888 0.72162 0.47404 0.0
C438 C 0.28665 0.79424 0.68635 0.0
C439 C 0.29447 0.74995 0.53827 0.0
N440 N 0.38567 0.87092 0.67186 0.0
N441 N 0.18995 0.6991 0.53323 0.0
H442 H 0.33845 0.72994 0.45114 0.0
H443 H 0.26371 0.6859 0.44886 0.0
H444 H 0.15027 0.68715 0.5596 0.0
H445 H 0.1881 0.68894 0.47379 0.0
H446 H 0.38292 0.89467 0.71856 0.0
H447 H 0.42539 0.89137 0.64323 0.0
H448 H 0.31722 0.83961 0.79433 0.0
H449 H 0.24246 0.79264 0.78953 0.0
loop_
_geom_bond_atom_site_label_1
_geom_bond_atom_site_label_2
_geom_bond_distance
_geom_bond_site_symmetry_2
_ccdc_geom_bond_type
O0 Mg1 1.990 . S
O0 C14 1.253 1_554 S
Mg1 O0 1.990 . S
Mg1 O4 2.180 . S
Mg1 O5 2.117 . S
Mg1 O19 2.030 . S
O2 Mg3 2.072 1_556 S
O2 C14 1.260 . S
Mg3 O2 2.072 1_554 S
Mg3 O4 2.099 . S
Mg3 O6 2.079 . S
Mg3 O7 2.072 1_554 S
Mg3 O9 2.099 1_554 S
Mg3 O20 2.079 . S
O4 Mg1 2.180 . S
O4 Mg3 2.099 . S
O4 C15 1.279 . S
O5 Mg1 2.117 . S
O5 C15 1.250 . S
O6 Mg3 2.079 . S
O6 C16 1.264 . S
O7 Mg3 2.072 1_556 S
O7 C17 1.260 . S
Mg8 O9 2.180 . S
Mg8 O10 2.030 . S
Mg8 O11 1.990 . S
Mg8 O12 2.117 . S
O9 Mg3 2.099 1_556 S
O9 Mg8 2.180 . S
O9 C18 1.279 . S
O10 Mg8 2.030 . S
O10 C16 1.248 1_556 S
O11 Mg8 1.990 . S
O11 C17 1.253 . S
O12 Mg8 2.117 . S
O12 C18 1.250 . S
C13 O19 1.248 . S
C13 O20 1.264 . S
C14 O0 1.253 1_556 S
C14 O2 1.260 . S
C15 O4 1.279 . S
C15 O5 1.250 . S
C16 O6 1.264 . S
C16 O10 1.248 1_554 S
C17 O7 1.260 . S
C17 O11 1.253 . S
C18 O9 1.279 . S
C18 O12 1.250 . S
O19 Mg1 2.030 . S
O19 C13 1.248 . S
O20 Mg3 2.079 . S
O20 C13 1.264 . S
O21 Mg22 1.990 . S
O21 C35 1.253 . S
Mg22 O21 1.990 . S
Mg22 O25 2.180 . S
Mg22 O26 2.117 1_554 S
Mg22 O40 2.030 . S
O23 Mg24 2.072 . S
O23 C35 1.260 . S
Mg24 O23 2.072 . S
Mg24 O25 2.099 . S
Mg24 O27 2.079 . S
Mg24 O28 2.072 . S
Mg24 O30 2.099 . S
Mg24 O41 2.079 . S
O25 Mg22 2.180 . S
O25 Mg24 2.099 . S
O25 C36 1.279 . S
O26 Mg22 2.117 1_556 S
O26 C36 1.250 1_556 S
O27 Mg24 2.079 . S
O27 C37 1.264 . S
O28 Mg24 2.072 . S
O28 C38 1.260 . S
Mg29 O30 2.180 . S
Mg29 O31 2.030 . S
Mg29 O32 1.990 . S
Mg29 O33 2.117 . S
O30 Mg24 2.099 . S
O30 Mg29 2.180 . S
O30 C39 1.279 . S
O31 Mg29 2.030 . S
O31 C37 1.248 . S
O32 Mg29 1.990 . S
O32 C38 1.253 . S
O33 Mg29 2.117 . S
O33 C39 1.250 . S
C34 O40 1.248 . S
C34 O41 1.264 . S
C35 O21 1.253 . S
C35 O23 1.260 . S
C36 O25 1.279 . S
C36 O26 1.250 1_554 S
C37 O27 1.264 . S
C37 O31 1.248 . S
C38 O28 1.260 . S
C38 O32 1.253 . S
C39 O30 1.279 . S
C39 O33 1.250 . S
O40 Mg22 2.030 . S
O40 C34 1.248 . S
O41 Mg24 2.079 . S
O41 C34 1.264 . S
O42 Mg43 1.990 . S
O42 C56 1.253 . S
Mg43 O42 1.990 . S
Mg43 O46 2.180 . S
Mg43 O47 2.117 . S
Mg43 O61 2.030 . S
O44 Mg45 2.072 . S
O44 C56 1.260 . S
Mg45 O44 2.072 . S
Mg45 O46 2.099 . S
Mg45 O48 2.079 . S
Mg45 O49 2.072 . S
Mg45 O51 2.099 . S
Mg45 O62 2.079 . S
O46 Mg43 2.180 . S
O46 Mg45 2.099 . S
O46 C57 1.279 . S
O47 Mg43 2.117 . S
O47 C57 1.250 . S
O48 Mg45 2.079 . S
O48 C58 1.264 . S
O49 Mg45 2.072 . S
O49 C59 1.260 . S
Mg50 O51 2.180 . S
Mg50 O52 2.030 . S
Mg50 O53 1.990 . S
Mg50 O54 2.117 . S
O51 Mg45 2.099 . S
O51 Mg50 2.180 . S
O51 C60 1.279 . S
O52 Mg50 2.030 . S
O52 C58 1.248 . S
O53 Mg50 1.990 . S
O53 C59 1.253 . S
O54 Mg50 2.117 . S
O54 C60 1.250 . S
C55 O61 1.248 . S
C55 O62 1.264 . S
C56 O42 1.253 . S
C56 O44 1.260 . S
C57 O46 1.279 . S
C57 O47 1.250 . S
C58 O48 1.264 . S
C58 O52 1.248 . S
C59 O49 1.260 . S
C59 O53 1.253 . S
C60 O51 1.279 . S
C60 O54 1.250 . S
O61 Mg43 2.030 . S
O61 C55 1.248 . S
O62 Mg45 2.079 . S
O62 C55 1.264 . S
O63 Mg64 1.990 . S
O63 C77 1.253 . S
Mg64 O63 1.990 . S
Mg64 O67 2.180 . S
Mg64 O68 2.117 . S
Mg64 O82 2.030 . S
O65 Mg66 2.072 . S
O65 C77 1.260 . S
Mg66 O65 2.072 . S
Mg66 O67 2.099 . S
Mg66 O69 2.079 . S
Mg66 O70 2.072 . S
Mg66 O72 2.099 . S
Mg66 O83 2.079 . S
O67 Mg64 2.180 . S
O67 Mg66 2.099 . S
O67 C78 1.279 . S
O68 Mg64 2.117 . S
O68 C78 1.250 . S
O69 Mg66 2.079 . S
O69 C79 1.264 . S
O70 Mg66 2.072 . S
O70 C80 1.260 . S
Mg71 O72 2.180 . S
Mg71 O73 2.030 . S
Mg71 O74 1.990 . S
Mg71 O75 2.117 . S
O72 Mg66 2.099 . S
O72 Mg71 2.180 . S
O72 C81 1.279 . S
O73 Mg71 2.030 . S
O73 C79 1.248 . S
O74 Mg71 1.990 . S
O74 C80 1.253 . S
O75 Mg71 2.117 . S
O75 C81 1.250 . S
C76 O82 1.248 . S
C76 O83 1.264 . S
C77 O63 1.253 . S
C77 O65 1.260 . S
C78 O67 1.279 . S
C78 O68 1.250 . S
C79 O69 1.264 . S
C79 O73 1.248 . S
C80 O70 1.260 . S
C80 O74 1.253 . S
C81 O72 1.279 . S
C81 O75 1.250 . S
O82 Mg64 2.030 . S
O82 C76 1.248 . S
O83 Mg66 2.079 . S
O83 C76 1.264 . S
O84 Mg85 1.990 . S
O84 C98 1.253 . S
Mg85 O84 1.990 . S
Mg85 O88 2.180 . S
Mg85 O89 2.117 . S
Mg85 O103 2.030 . S
O86 Mg87 2.072 . S
O86 C98 1.260 . S
Mg87 O86 2.072 . S
Mg87 O88 2.099 . S
Mg87 O90 2.079 . S
Mg87 O91 2.072 . S
Mg87 O93 2.099 . S
Mg87 O104 2.079 . S
O88 Mg85 2.180 . S
O88 Mg87 2.099 . S
O88 C99 1.279 . S
O89 Mg85 2.117 . S
O89 C99 1.250 . S
O90 Mg87 2.079 . S
O90 C100 1.264 . S
O91 Mg87 2.072 . S
O91 C101 1.260 . S
Mg92 O93 2.180 . S
Mg92 O94 2.030 . S
Mg92 O95 1.990 . S
Mg92 O96 2.117 . S
O93 Mg87 2.099 . S
O93 Mg92 2.180 . S
O93 C102 1.279 . S
O94 Mg92 2.030 . S
O94 C100 1.248 . S
O95 Mg92 1.990 . S
O95 C101 1.253 . S
O96 Mg92 2.117 . S
O96 C102 1.250 . S
C97 O103 1.248 . S
C97 O104 1.264 . S
C98 O84 1.253 . S
C98 O86 1.260 . S
C99 O88 1.279 . S
C99 O89 1.250 . S
C100 O90 1.264 . S
C100 O94 1.248 . S
C101 O91 1.260 . S
C101 O95 1.253 . S
C102 O93 1.279 . S
C102 O96 1.250 . S
O103 Mg85 2.030 . S
O103 C97 1.248 . S
O104 Mg87 2.079 . S
O104 C97 1.264 . S
O105 Mg106 1.990 . S
O105 C119 1.253 . S
Mg106 O105 1.990 . S
Mg106 O109 2.180 . S
Mg106 O110 2.117 . S
Mg106 O124 2.030 . S
O107 Mg108 2.072 . S
O107 C119 1.260 . S
Mg108 O107 2.072 . S
Mg108 O109 2.099 . S
Mg108 O111 2.079 . S
Mg108 O112 2.072 . S
Mg108 O114 2.099 . S
Mg108 O125 2.079 . S
O109 Mg106 2.180 . S
O109 Mg108 2.099 . S
O109 C120 1.279 . S
O110 Mg106 2.117 . S
O110 C120 1.250 . S
O111 Mg108 2.079 . S
O111 C121 1.264 . S
O112 Mg108 2.072 . S
O112 C122 1.260 . S
Mg113 O114 2.180 . S
Mg113 O115 2.030 . S
Mg113 O116 1.990 . S
Mg113 O117 2.117 . S
O114 Mg108 2.099 . S
O114 Mg113 2.180 . S
O114 C123 1.279 . S
O115 Mg113 2.030 . S
O115 C121 1.248 . S
O116 Mg113 1.990 . S
O116 C122 1.253 . S
O117 Mg113 2.117 . S
O117 C123 1.250 . S
C118 O124 1.248 . S
C118 O125 1.264 . S
C119 O105 1.253 . S
C119 O107 1.260 . S
C120 O109 1.279 . S
C120 O110 1.250 . S
C121 O111 1.264 . S
C121 O115 1.248 . S
C122 O112 1.260 . S
C122 O116 1.253 . S
C123 O114 1.279 . S
C123 O117 1.250 . S
O124 Mg106 2.030 . S
O124 C118 1.248 . S
O125 Mg108 2.079 . S
O125 C118 1.264 . S
C126 C127 1.363 1_554 S
C126 C132 1.379 . S
C126 N134 1.356 . S
C127 C126 1.363 1_556 S
C127 C133 1.363 . S
C128 C129 1.363 . S
C128 C133 1.379 . S
C128 N135 1.356 . S
C129 C128 1.363 . S
C129 C132 1.363 1_556 S
N130 C132 1.356 . S
N130 H142 0.984 . S
N130 H143 0.985 . S
N131 C133 1.356 . S
N131 H136 0.984 1_565 S
N131 H137 0.985 . S
C132 C126 1.379 . S
C132 C129 1.363 1_554 S
C132 N130 1.356 . S
C133 C127 1.363 . S
C133 C128 1.379 . S
C133 N131 1.356 . S
N134 C126 1.356 . S
N134 H140 0.984 . S
N134 H141 0.984 1_565 S
N135 C128 1.356 . S
N135 H138 0.984 . S
N135 H139 0.985 . S
H136 N131 0.984 1_545 S
H137 N131 0.985 . S
H138 N135 0.984 . S
H139 N135 0.985 . S
H140 N134 0.984 . S
H141 N134 0.984 1_545 S
H142 N130 0.984 . S
H143 N130 0.985 . S
C144 C145 1.363 . S
C144 C150 1.379 . S
C144 N152 1.356 . S
C145 C144 1.363 . S
C145 C151 1.363 . S
C146 C147 1.363 . S
C146 C151 1.379 . S
C146 N153 1.356 . S
C147 C146 1.363 . S
C147 C150 1.363 . S
N148 C150 1.356 . S
N148 H160 0.984 . S
N148 H161 0.985 . S
N149 C151 1.356 . S
N149 H154 0.984 . S
N149 H155 0.985 1_554 S
C150 C144 1.379 . S
C150 C147 1.363 . S
C150 N148 1.356 . S
C151 C145 1.363 . S
C151 C146 1.379 . S
C151 N149 1.356 . S
N152 C144 1.356 . S
N152 H158 0.984 . S
N152 H159 0.984 . S
N153 C146 1.356 . S
N153 H156 0.984 . S
N153 H157 0.985 1_554 S
H154 N149 0.984 . S
H155 N149 0.985 1_556 S
H156 N153 0.984 . S
H157 N153 0.985 1_556 S
H158 N152 0.984 . S
H159 N152 0.984 . S
H160 N148 0.984 . S
H161 N148 0.985 . S
C162 C163 1.363 . S
C162 C168 1.379 . S
C162 N170 1.356 . S
C163 C162 1.363 . S
C163 C169 1.363 . S
C164 C165 1.363 . S
C164 C169 1.379 . S
C164 N171 1.356 . S
C165 C164 1.363 . S
C165 C168 1.363 . S
N166 C168 1.356 . S
N166 H178 0.984 . S
N166 H179 0.985 . S
N167 C169 1.356 . S
N167 H172 0.984 1_455 S
N167 H173 0.985 . S
C168 C162 1.379 . S
C168 C165 1.363 . S
C168 N166 1.356 . S
C169 C163 1.363 . S
C169 C164 1.379 . S
C169 N167 1.356 . S
N170 C162 1.356 . S
N170 H176 0.984 . S
N170 H177 0.984 1_455 S
N171 C164 1.356 . S
N171 H174 0.984 . S
N171 H175 0.985 . S
H172 N167 0.984 1_655 S
H173 N167 0.985 . S
H174 N171 0.984 . S
H175 N171 0.985 . S
H176 N170 0.984 . S
H177 N170 0.984 1_655 S
H178 N166 0.984 . S
H179 N166 0.985 . S
C180 C181 1.363 . S
C180 C186 1.379 . S
C180 N188 1.356 . S
C181 C180 1.363 . S
C181 C187 1.363 . S
C182 C183 1.363 . S
C182 C187 1.379 . S
C182 N189 1.356 . S
C183 C182 1.363 . S
C183 C186 1.363 . S
N184 C186 1.356 . S
N184 H196 0.984 . S
N184 H197 0.985 1_545 S
N185 C187 1.356 . S
N185 H190 0.984 . S
N185 H191 0.985 . S
C186 C180 1.379 . S
C186 C183 1.363 . S
C186 N184 1.356 . S
C187 C181 1.363 . S
C187 C182 1.379 . S
C187 N185 1.356 . S
N188 C180 1.356 . S
N188 H194 0.984 . S
N188 H195 0.984 . S
N189 C182 1.356 . S
N189 H192 0.984 1_545 S
N189 H193 0.985 . S
H190 N185 0.984 . S
H191 N185 0.985 . S
H192 N189 0.984 1_565 S
H193 N189 0.985 . S
H194 N188 0.984 . S
H195 N188 0.984 . S
H196 N184 0.984 . S
H197 N184 0.985 1_565 S
C198 C199 1.363 . S
C198 C204 1.379 . S
C198 N206 1.356 . S
C199 C198 1.363 . S
C199 C205 1.363 . S
C200 C201 1.363 . S
C200 C205 1.379 . S
C200 N207 1.356 . S
C201 C200 1.363 . S
C201 C204 1.363 . S
N202 C204 1.356 . S
N202 H214 0.984 . S
N202 H215 0.985 . S
N203 C205 1.356 . S
N203 H208 0.984 . S
N203 H209 0.985 . S
C204 C198 1.379 . S
C204 C201 1.363 . S
C204 N202 1.356 . S
C205 C199 1.363 . S
C205 C200 1.379 . S
C205 N203 1.356 . S
N206 C198 1.356 . S
N206 H212 0.984 . S
N206 H213 0.984 . S
N207 C200 1.356 . S
N207 H210 0.984 . S
N207 H211 0.985 . S
H208 N203 0.984 . S
H209 N203 0.985 . S
H210 N207 0.984 . S
H211 N207 0.985 . S
H212 N206 0.984 . S
H213 N206 0.984 . S
H214 N202 0.984 . S
H215 N202 0.985 . S
C216 C217 1.363 . S
C216 C222 1.379 . S
C216 N224 1.356 . S
C217 C216 1.363 . S
C217 C223 1.363 . S
C218 C219 1.363 . S
C218 C223 1.379 . S
C218 N225 1.356 . S
C219 C218 1.363 . S
C219 C222 1.363 . S
N220 C222 1.356 . S
N220 H232 0.984 . S
N220 H233 0.985 . S
N221 C223 1.356 . S
N221 H226 0.984 1_655 S
N221 H227 0.985 . S
C222 C216 1.379 . S
C222 C219 1.363 . S
C222 N220 1.356 . S
C223 C217 1.363 . S
C223 C218 1.379 . S
C223 N221 1.356 . S
N224 C216 1.356 . S
N224 H230 0.984 . S
N224 H231 0.984 1_655 S
N225 C218 1.356 . S
N225 H228 0.984 . S
N225 H229 0.985 . S
H226 N221 0.984 1_455 S
H227 N221 0.985 . S
H228 N225 0.984 . S
H229 N225 0.985 . S
H230 N224 0.984 . S
H231 N224 0.984 1_455 S
H232 N220 0.984 . S
H233 N220 0.985 . S
C234 C235 1.363 1_545 S
C234 C240 1.379 . S
C234 N242 1.356 . S
C235 C234 1.363 1_565 S
C235 C241 1.363 . S
C236 C237 1.363 . S
C236 C241 1.379 . S
C236 N243 1.356 . S
C237 C236 1.363 . S
C237 C240 1.363 1_565 S
N238 C240 1.356 . S
N238 H250 0.984 . S
N238 H251 0.985 . S
N239 C241 1.356 . S
N239 H244 0.984 . S
N239 H245 0.985 . S
C240 C234 1.379 . S
C240 C237 1.363 1_545 S
C240 N238 1.356 . S
C241 C235 1.363 . S
C241 C236 1.379 . S
C241 N239 1.356 . S
N242 C234 1.356 . S
N242 H248 0.984 . S
N242 H249 0.984 . S
N243 C236 1.356 . S
N243 H246 0.984 . S
N243 H247 0.985 . S
H244 N239 0.984 . S
H245 N239 0.985 . S
H246 N243 0.984 . S
H247 N243 0.985 . S
H248 N242 0.984 . S
H249 N242 0.984 . S
H250 N238 0.984 . S
H251 N238 0.985 . S
C252 C253 1.363 . S
C252 C258 1.379 . S
C252 N260 1.356 . S
C253 C252 1.363 . S
C253 C259 1.363 . S
C254 C255 1.363 . S
C254 C259 1.379 . S
C254 N261 1.356 . S
C255 C254 1.363 . S
C255 C258 1.363 . S
N256 C258 1.356 . S
N256 H268 0.984 . S
N256 H269 0.985 . S
N257 C259 1.356 . S
N257 H262 0.984 . S
N257 H263 0.985 . S
C258 C252 1.379 . S
C258 C255 1.363 . S
C258 N256 1.356 . S
C259 C253 1.363 . S
C259 C254 1.379 . S
C259 N257 1.356 . S
N260 C252 1.356 . S
N260 H266 0.984 . S
N260 H267 0.984 . S
N261 C254 1.356 . S
N261 H264 0.984 . S
N261 H265 0.985 . S
H262 N257 0.984 . S
H263 N257 0.985 . S
H264 N261 0.984 . S
H265 N261 0.985 . S
H266 N260 0.984 . S
H267 N260 0.984 . S
H268 N256 0.984 . S
H269 N256 0.985 . S
C270 C271 1.363 . S
C270 C276 1.379 . S
C270 N278 1.356 . S
C271 C270 1.363 . S
C271 C277 1.363 . S
C272 C273 1.363 . S
C272 C277 1.379 . S
C272 N279 1.356 . S
C273 C272 1.363 . S
C273 C276 1.363 . S
N274 C276 1.356 1_655 S
N274 H286 0.984 . S
N274 H287 0.985 . S
N275 C277 1.356 . S
N275 H280 0.984 . S
N275 H281 0.985 . S
C276 C270 1.379 . S
C276 C273 1.363 . S
C276 N274 1.356 1_455 S
C277 C271 1.363 . S
C277 C272 1.379 . S
C277 N275 1.356 . S
N278 C270 1.356 . S
N278 H284 0.984 . S
N278 H285 0.984 . S
N279 C272 1.356 . S
N279 H282 0.984 . S
N279 H283 0.985 . S
H280 N275 0.984 . S
H281 N275 0.985 . S
H282 N279 0.984 . S
H283 N279 0.985 . S
H284 N278 0.984 . S
H285 N278 0.984 . S
H286 N274 0.984 . S
H287 N274 0.985 . S
C288 C289 1.363 1_565 S
C288 C294 1.379 . S
C288 N296 1.356 . S
C289 C288 1.363 1_545 S
C289 C295 1.363 . S
C290 C291 1.363 . S
C290 C295 1.379 . S
C290 N297 1.356 . S
C291 C290 1.363 . S
C291 C294 1.363 1_545 S
N292 C294 1.356 . S
N292 H304 0.984 . S
N292 H305 0.985 . S
N293 C295 1.356 . S
N293 H298 0.984 . S
N293 H299 0.985 . S
C294 C288 1.379 . S
C294 C291 1.363 1_565 S
C294 N292 1.356 . S
C295 C289 1.363 . S
C295 C290 1.379 . S
C295 N293 1.356 . S
N296 C288 1.356 . S
N296 H302 0.984 . S
N296 H303 0.984 . S
N297 C290 1.356 . S
N297 H300 0.984 . S
N297 H301 0.985 . S
H298 N293 0.984 . S
H299 N293 0.985 . S
H300 N297 0.984 . S
H301 N297 0.985 . S
H302 N296 0.984 . S
H303 N296 0.984 . S
H304 N292 0.984 . S
H305 N292 0.985 . S
C306 C307 1.363 . S
C306 C312 1.379 1_554 S
C306 N314 1.356 . S
C307 C306 1.363 . S
C307 C313 1.363 1_554 S
C308 C309 1.363 . S
C308 C313 1.379 . S
C308 N315 1.356 . S
C309 C308 1.363 . S
C309 C312 1.363 . S
N310 C312 1.356 . S
N310 H322 0.984 . S
N310 H323 0.985 . S
N311 C313 1.356 . S
N311 H316 0.984 1_556 S
N311 H317 0.985 . S
C312 C306 1.379 1_556 S
C312 C309 1.363 . S
C312 N310 1.356 . S
C313 C307 1.363 1_556 S
C313 C308 1.379 . S
C313 N311 1.356 . S
N314 C306 1.356 . S
N314 H320 0.984 . S
N314 H321 0.984 . S
N315 C308 1.356 . S
N315 H318 0.984 . S
N315 H319 0.985 . S
H316 N311 0.984 1_554 S
H317 N311 0.985 . S
H318 N315 0.984 . S
H319 N315 0.985 . S
H320 N314 0.984 . S
H321 N314 0.984 . S
H322 N310 0.984 . S
H323 N310 0.985 . S
C324 C325 1.363 . S
C324 C330 1.379 . S
C324 N332 1.356 1_554 S
C325 C324 1.363 . S
C325 C331 1.363 1_655 S
C326 C327 1.363 1_455 S
C326 C331 1.379 . S
C326 N333 1.356 . S
C327 C326 1.363 1_655 S
C327 C330 1.363 . S
N328 C330 1.356 . S
N328 H340 0.984 . S
N328 H341 0.985 . S
N329 C331 1.356 . S
N329 H334 0.986 1_554 S
N329 H335 0.985 . S
C330 C324 1.379 . S
C330 C327 1.363 . S
C330 N328 1.356 . S
C331 C325 1.363 1_455 S
C331 C326 1.379 . S
C331 N329 1.356 . S
N332 C324 1.356 1_556 S
N332 H338 0.984 . S
N332 H339 0.984 . S
N333 C326 1.356 . S
N333 H336 0.984 . S
N333 H337 0.985 . S
H334 N329 0.986 1_556 S
H335 N329 0.985 . S
H336 N333 0.984 . S
H337 N333 0.985 . S
H338 N332 0.984 . S
H339 N332 0.984 . S
H340 N328 0.984 . S
H341 N328 0.985 . S
C342 C343 1.363 . S
C342 C348 1.379 . S
C342 N350 1.356 . S
C343 C342 1.363 . S
C343 C349 1.363 . S
C344 C345 1.363 . S
C344 C349 1.379 . S
C344 N351 1.356 . S
C345 C344 1.363 . S
C345 C348 1.363 . S
N346 C348 1.356 . S
N346 H358 0.984 . S
N346 H359 0.985 . S
N347 C349 1.356 . S
N347 H352 0.984 . S
N347 H353 0.985 1_556 S
C348 C342 1.379 . S
C348 C345 1.363 . S
C348 N346 1.356 . S
C349 C343 1.363 . S
C349 C344 1.379 . S
C349 N347 1.356 . S
N350 C342 1.356 . S
N350 H356 0.984 . S
N350 H357 0.984 . S
N351 C344 1.356 . S
N351 H354 0.984 . S
N351 H355 0.985 . S
H352 N347 0.984 . S
H353 N347 0.985 1_554 S
H354 N351 0.984 . S
H355 N351 0.985 . S
H356 N350 0.984 . S
H357 N350 0.984 . S
H358 N346 0.984 . S
H359 N346 0.985 . S
C360 C361 1.363 . S
C360 C366 1.379 1_556 S
C360 N368 1.356 . S
C361 C360 1.363 . S
C361 C367 1.363 . S
C362 C363 1.363 1_556 S
C362 C367 1.379 . S
C362 N369 1.356 1_556 S
C363 C362 1.363 1_554 S
C363 C366 1.363 . S
N364 C366 1.356 . S
N364 H376 0.984 . S
N364 H377 0.985 . S
N365 C367 1.356 . S
N365 H370 0.984 . S
N365 H371 0.985 . S
C366 C360 1.379 1_554 S
C366 C363 1.363 . S
C366 N364 1.356 . S
C367 C361 1.363 . S
C367 C362 1.379 . S
C367 N365 1.356 . S
N368 C360 1.356 . S
N368 H374 0.984 . S
N368 H375 0.984 . S
N369 C362 1.356 1_554 S
N369 H372 0.984 . S
N369 H373 0.985 . S
H370 N365 0.984 . S
H371 N365 0.985 . S
H372 N369 0.984 . S
H373 N369 0.985 . S
H374 N368 0.984 . S
H375 N368 0.984 . S
H376 N364 0.984 . S
H377 N364 0.985 . S
C378 C379 1.363 . S
C378 C384 1.379 . S
C378 N386 1.356 . S
C379 C378 1.363 . S
C379 C385 1.363 . S
C380 C381 1.363 . S
C380 C385 1.379 . S
C380 N387 1.356 . S
C381 C380 1.363 . S
C381 C384 1.363 . S
N382 C384 1.356 . S
N382 H394 0.984 . S
N382 H395 0.985 . S
N383 C385 1.356 . S
N383 H388 0.984 1_554 S
N383 H389 0.985 1_554 S
C384 C378 1.379 . S
C384 C381 1.363 . S
C384 N382 1.356 . S
C385 C379 1.363 . S
C385 C380 1.379 . S
C385 N383 1.356 . S
N386 C378 1.356 . S
N386 H392 0.984 . S
N386 H393 0.984 . S
N387 C380 1.356 . S
N387 H390 0.984 . S
N387 H391 0.985 . S
H388 N383 0.984 1_556 S
H389 N383 0.985 1_556 S
H390 N387 0.984 . S
H391 N387 0.985 . S
H392 N386 0.984 . S
H393 N386 0.984 . S
H394 N382 0.984 . S
H395 N382 0.985 . S
C396 C397 1.363 . S
C396 C402 1.379 . S
C396 N404 1.356 . S
C397 C396 1.363 . S
C397 C403 1.363 . S
C398 C399 1.363 . S
C398 C403 1.379 . S
C398 N405 1.356 . S
C399 C398 1.363 . S
C399 C402 1.363 . S
N400 C402 1.356 . S
N400 H412 0.984 . S
N400 H413 0.985 . S
N401 C403 1.356 . S
N401 H406 0.984 . S
N401 H407 0.985 . S
C402 C396 1.379 . S
C402 C399 1.363 . S
C402 N400 1.356 . S
C403 C397 1.363 . S
C403 C398 1.379 . S
C403 N401 1.356 . S
N404 C396 1.356 . S
N404 H410 0.984 . S
N404 H411 0.984 . S
N405 C398 1.356 . S
N405 H408 0.984 . S
N405 H409 0.985 . S
H406 N401 0.984 . S
H407 N401 0.985 . S
H408 N405 0.984 . S
H409 N405 0.985 . S
H410 N404 0.984 . S
H411 N404 0.984 . S
H412 N400 0.984 . S
H413 N400 0.985 . S
C414 C415 1.363 . S
C414 C420 1.379 . S
C414 N422 1.356 . S
C415 C414 1.363 . S
C415 C421 1.363 . S
C416 C417 1.363 . S
C416 C421 1.379 . S
C416 N423 1.356 . S
C417 C416 1.363 . S
C417 C420 1.363 . S
N418 C420 1.356 . S
N418 H430 0.984 . S
N418 H431 0.985 . S
N419 C421 1.356 . S
N419 H424 0.984 . S
N419 H425 0.985 . S
C420 C414 1.379 . S
C420 C417 1.363 . S
C420 N418 1.356 . S
C421 C415 1.363 . S
C421 C416 1.379 . S
C421 N419 1.356 . S
N422 C414 1.356 . S
N422 H428 0.984 . S
N422 H429 0.984 . S
N423 C416 1.356 . S
N423 H426 0.984 . S
N423 H427 0.985 . S
H424 N419 0.984 . S
H425 N419 0.985 . S
H426 N423 0.984 . S
H427 N423 0.985 . S
H428 N422 0.984 . S
H429 N422 0.984 . S
H430 N418 0.984 . S
H431 N418 0.985 . S
C432 C433 1.363 . S
C432 C438 1.379 . S
C432 N440 1.356 . S
C433 C432 1.363 . S
C433 C439 1.363 . S
C434 C435 1.363 . S
C434 C439 1.379 . S
C434 N441 1.356 . S
C435 C434 1.363 . S
C435 C438 1.363 . S
N436 C438 1.356 . S
N436 H448 0.984 . S
N436 H449 0.985 . S
N437 C439 1.356 . S
N437 H442 0.984 . S
N437 H443 0.985 . S
C438 C432 1.379 . S
C438 C435 1.363 . S
C438 N436 1.356 . S
C439 C433 1.363 . S
C439 C434 1.379 . S
C439 N437 1.356 . S
N440 C432 1.356 . S
N440 H446 0.984 . S
N440 H447 0.984 . S
N441 C434 1.356 . S
N441 H444 0.984 . S
N441 H445 0.985 . S
H442 N437 0.984 . S
H443 N437 0.985 . S
H444 N441 0.984 . S
H445 N441 0.985 . S
H446 N440 0.984 . S
H447 N440 0.984 . S
H448 N436 0.984 . S
H449 N436 0.985 . S
C127 C14 1.694 1_565 S
C129 C123 1.613 . S
C145 C38 1.694 . S
C147 C15 1.613 . S
C163 C56 1.694 1_455 S
C165 C39 1.613 . S
C181 C57 1.613 . S
C183 C80 1.694 1_545 S
C199 C81 1.613 . S
C201 C98 1.694 . S
C217 C122 1.694 1_655 S
C219 C99 1.613 . S
C235 C13 1.348 1_565 S
C237 C78 1.083 . S
C253 C37 1.348 . S
C255 C102 1.083 . S
C271 C120 1.083 . S
C273 C55 1.349 1_455 S
C289 C79 1.348 1_545 S
C291 C18 1.083 . S
C307 C36 1.083 . S
C309 C97 1.348 . S
C325 C121 1.349 1_654 S
C327 C60 1.083 . S
C343 C17 1.217 . S
C345 C100 1.275 . S
C361 C118 1.275 . S
C363 C35 1.217 . S
C379 C16 1.275 . S
C381 C59 1.217 . S
C397 C77 1.217 . S
C399 C34 1.275 . S
C415 C58 1.275 . S
C417 C101 1.217 . S
C433 C76 1.275 . S
C435 C119 1.217 . S
