# Generated by pormake.
# Topology ums, (4)-cn, num edge types: 1
# Building blocks:
#     Node 0, Type 0, BuildingBlock: GALJAG_clean_sbu_0, # of connection points: 4
#     Node 1, Type 0, BuildingBlock: GALJAG_clean_sbu_0, # of connection points: 4
#     Node 2, Type 0, BuildingBlock: GALJAG_clean_sbu_0, # of connection points: 4
#     Node 3, Type 0, BuildingBlock: GALJAG_clean_sbu_0, # of connection points: 4
#     Node 4, Type 0, BuildingBlock: GALJAG_clean_sbu_0, # of connection points: 4
#     Node 5, Type 0, BuildingBlock: GALJAG_clean_sbu_0, # of connection points: 4
#     Node 6, Type 0, BuildingBlock: GALJAG_clean_sbu_0, # of connection points: 4
#     Node 7, Type 0, BuildingBlock: GALJAG_clean_sbu_0, # of connection points: 4
#     Node 8, Type 0, BuildingBlock: GALJAG_clean_sbu_0, # of connection points: 4
#     Node 9, Type 0, BuildingBlock: GALJAG_clean_sbu_0, # of connection points: 4
#     Node 10, Type 0, BuildingBlock: GALJAG_clean_sbu_0, # of connection points: 4
#     Node 11, Type 0, BuildingBlock: GALJAG_clean_sbu_0, # of connection points: 4
#     Node 12, Type 0, BuildingBlock: GALJAG_clean_sbu_0, # of connection points: 4
#     Node 13, Type 0, BuildingBlock: GALJAG_clean_sbu_0, # of connection points: 4
#     Node 14, Type 0, BuildingBlock: GALJAG_clean_sbu_0, # of connection points: 4
#     Node 15, Type 0, BuildingBlock: GALJAG_clean_sbu_0, # of connection points: 4
#     Node 16, Type 0, BuildingBlock: GALJAG_clean_sbu_0, # of connection points: 4
#     Node 17, Type 0, BuildingBlock: GALJAG_clean_sbu_0, # of connection points: 4
#     Node 18, Type 0, BuildingBlock: GALJAG_clean_sbu_0, # of connection points: 4
#     Node 19, Type 0, BuildingBlock: GALJAG_clean_sbu_0, # of connection points: 4
#     Node 20, Type 0, BuildingBlock: GALJAG_clean_sbu_0, # of connection points: 4
#     Node 21, Type 0, BuildingBlock: GALJAG_clean_sbu_0, # of connection points: 4
#     Node 22, Type 0, BuildingBlock: GALJAG_clean_sbu_0, # of connection points: 4
#     Node 23, Type 0, BuildingBlock: GALJAG_clean_sbu_0, # of connection points: 4
#     Node 24, Type 0, BuildingBlock: GALJAG_clean_sbu_0, # of connection points: 4
#     Node 25, Type 0, BuildingBlock: GALJAG_clean_sbu_0, # of connection points: 4
#     Node 26, Type 0, BuildingBlock: GALJAG_clean_sbu_0, # of connection points: 4
#     Node 27, Type 0, BuildingBlock: GALJAG_clean_sbu_0, # of connection points: 4
#     Node 28, Type 0, BuildingBlock: GALJAG_clean_sbu_0, # of connection points: 4
#     Node 29, Type 0, BuildingBlock: GALJAG_clean_sbu_0, # of connection points: 4
#     Node 30, Type 0, BuildingBlock: GALJAG_clean_sbu_0, # of connection points: 4
#     Node 31, Type 0, BuildingBlock: GALJAG_clean_sbu_0, # of connection points: 4
#     Node 32, Type 0, BuildingBlock: GALJAG_clean_sbu_0, # of connection points: 4
#     Node 33, Type 0, BuildingBlock: GALJAG_clean_sbu_0, # of connection points: 4
#     Node 34, Type 0, BuildingBlock: GALJAG_clean_sbu_0, # of connection points: 4
#     Node 35, Type 0, BuildingBlock: GALJAG_clean_sbu_0, # of connection points: 4
#     Edge 36, Type (0, 0), BuildingBlock: OJICUG_clean_linker_0, # of connection points: 2
#     Edge 37, Type (0, 0), BuildingBlock: OJICUG_clean_linker_0, # of connection points: 2
#     Edge 38, Type (0, 0), BuildingBlock: OJICUG_clean_linker_0, # of connection points: 2
#     Edge 39, Type (0, 0), BuildingBlock: OJICUG_clean_linker_0, # of connection points: 2
#     Edge 40, Type (0, 0), BuildingBlock: OJICUG_clean_linker_0, # of connection points: 2
#     Edge 41, Type (0, 0), BuildingBlock: OJICUG_clean_linker_0, # of connection points: 2
#     Edge 42, Type (0, 0), BuildingBlock: OJICUG_clean_linker_0, # of connection points: 2
#     Edge 43, Type (0, 0), BuildingBlock: OJICUG_clean_linker_0, # of connection points: 2
#     Edge 44, Type (0, 0), BuildingBlock: OJICUG_clean_linker_0, # of connection points: 2
#     Edge 45, Type (0, 0), BuildingBlock: OJICUG_clean_linker_0, # of connection points: 2
#     Edge 46, Type (0, 0), BuildingBlock: OJICUG_clean_linker_0, # of connection points: 2
#     Edge 47, Type (0, 0), BuildingBlock: OJICUG_clean_linker_0, # of connection points: 2
#     Edge 48, Type (0, 0), BuildingBlock: OJICUG_clean_linker_0, # of connection points: 2
#     Edge 49, Type (0, 0), BuildingBlock: OJICUG_clean_linker_0, # of connection points: 2
#     Edge 50, Type (0, 0), BuildingBlock: OJICUG_clean_linker_0, # of connection points: 2
#     Edge 51, Type (0, 0), BuildingBlock: OJICUG_clean_linker_0, # of connection points: 2
#     Edge 52, Type (0, 0), BuildingBlock: OJICUG_clean_linker_0, # of connection points: 2
#     Edge 53, Type (0, 0), BuildingBlock: OJICUG_clean_linker_0, # of connection points: 2
#     Edge 54, Type (0, 0), BuildingBlock: OJICUG_clean_linker_0, # of connection points: 2
#     Edge 55, Type (0, 0), BuildingBlock: OJICUG_clean_linker_0, # of connection points: 2
#     Edge 56, Type (0, 0), BuildingBlock: OJICUG_clean_linker_0, # of connection points: 2
#     Edge 57, Type (0, 0), BuildingBlock: OJICUG_clean_linker_0, # of connection points: 2
#     Edge 58, Type (0, 0), BuildingBlock: OJICUG_clean_linker_0, # of connection points: 2
#     Edge 59, Type (0, 0), BuildingBlock: OJICUG_clean_linker_0, # of connection points: 2
#     Edge 60, Type (0, 0), BuildingBlock: OJICUG_clean_linker_0, # of connection points: 2
#     Edge 61, Type (0, 0), BuildingBlock: OJICUG_clean_linker_0, # of connection points: 2
#     Edge 62, Type (0, 0), BuildingBlock: OJICUG_clean_linker_0, # of connection points: 2
#     Edge 63, Type (0, 0), BuildingBlock: OJICUG_clean_linker_0, # of connection points: 2
#     Edge 64, Type (0, 0), BuildingBlock: OJICUG_clean_linker_0, # of connection points: 2
#     Edge 65, Type (0, 0), BuildingBlock: OJICUG_clean_linker_0, # of connection points: 2
#     Edge 66, Type (0, 0), BuildingBlock: OJICUG_clean_linker_0, # of connection points: 2
#     Edge 67, Type (0, 0), BuildingBlock: OJICUG_clean_linker_0, # of connection points: 2
#     Edge 68, Type (0, 0), BuildingBlock: OJICUG_clean_linker_0, # of connection points: 2
#     Edge 69, Type (0, 0), BuildingBlock: OJICUG_clean_linker_0, # of connection points: 2
#     Edge 70, Type (0, 0), BuildingBlock: OJICUG_clean_linker_0, # of connection points: 2
#     Edge 71, Type (0, 0), BuildingBlock: OJICUG_clean_linker_0, # of connection points: 2
#     Edge 72, Type (0, 0), BuildingBlock: OJICUG_clean_linker_0, # of connection points: 2
#     Edge 73, Type (0, 0), BuildingBlock: OJICUG_clean_linker_0, # of connection points: 2
#     Edge 74, Type (0, 0), BuildingBlock: OJICUG_clean_linker_0, # of connection points: 2
#     Edge 75, Type (0, 0), BuildingBlock: OJICUG_clean_linker_0, # of connection points: 2
#     Edge 76, Type (0, 0), BuildingBlock: OJICUG_clean_linker_0, # of connection points: 2
#     Edge 77, Type (0, 0), BuildingBlock: OJICUG_clean_linker_0, # of connection points: 2
#     Edge 78, Type (0, 0), BuildingBlock: OJICUG_clean_linker_0, # of connection points: 2
#     Edge 79, Type (0, 0), BuildingBlock: OJICUG_clean_linker_0, # of connection points: 2
#     Edge 80, Type (0, 0), BuildingBlock: OJICUG_clean_linker_0, # of connection points: 2
#     Edge 81, Type (0, 0), BuildingBlock: OJICUG_clean_linker_0, # of connection points: 2
#     Edge 82, Type (0, 0), BuildingBlock: OJICUG_clean_linker_0, # of connection points: 2
#     Edge 83, Type (0, 0), BuildingBlock: OJICUG_clean_linker_0, # of connection points: 2
#     Edge 84, Type (0, 0), BuildingBlock: OJICUG_clean_linker_0, # of connection points: 2
#     Edge 85, Type (0, 0), BuildingBlock: OJICUG_clean_linker_0, # of connection points: 2
#     Edge 86, Type (0, 0), BuildingBlock: OJICUG_clean_linker_0, # of connection points: 2
#     Edge 87, Type (0, 0), BuildingBlock: OJICUG_clean_linker_0, # of connection points: 2
#     Edge 88, Type (0, 0), BuildingBlock: OJICUG_clean_linker_0, # of connection points: 2
#     Edge 89, Type (0, 0), BuildingBlock: OJICUG_clean_linker_0, # of connection points: 2
#     Edge 90, Type (0, 0), BuildingBlock: OJICUG_clean_linker_0, # of connection points: 2
#     Edge 91, Type (0, 0), BuildingBlock: OJICUG_clean_linker_0, # of connection points: 2
#     Edge 92, Type (0, 0), BuildingBlock: OJICUG_clean_linker_0, # of connection points: 2
#     Edge 93, Type (0, 0), BuildingBlock: OJICUG_clean_linker_0, # of connection points: 2
#     Edge 94, Type (0, 0), BuildingBlock: OJICUG_clean_linker_0, # of connection points: 2
#     Edge 95, Type (0, 0), BuildingBlock: OJICUG_clean_linker_0, # of connection points: 2
#     Edge 96, Type (0, 0), BuildingBlock: OJICUG_clean_linker_0, # of connection points: 2
#     Edge 97, Type (0, 0), BuildingBlock: OJICUG_clean_linker_0, # of connection points: 2
#     Edge 98, Type (0, 0), BuildingBlock: OJICUG_clean_linker_0, # of connection points: 2
#     Edge 99, Type (0, 0), BuildingBlock: OJICUG_clean_linker_0, # of connection points: 2
#     Edge 100, Type (0, 0), BuildingBlock: OJICUG_clean_linker_0, # of connection points: 2
#     Edge 101, Type (0, 0), BuildingBlock: OJICUG_clean_linker_0, # of connection points: 2
#     Edge 102, Type (0, 0), BuildingBlock: OJICUG_clean_linker_0, # of connection points: 2
#     Edge 103, Type (0, 0), BuildingBlock: OJICUG_clean_linker_0, # of connection points: 2
#     Edge 104, Type (0, 0), BuildingBlock: OJICUG_clean_linker_0, # of connection points: 2
#     Edge 105, Type (0, 0), BuildingBlock: OJICUG_clean_linker_0, # of connection points: 2
#     Edge 106, Type (0, 0), BuildingBlock: OJICUG_clean_linker_0, # of connection points: 2
#     Edge 107, Type (0, 0), BuildingBlock: OJICUG_clean_linker_0, # of connection points: 2
# Relax obj value: 0.176
# Max RMSD: 0.175
# Mean RMSD: 0.174
data_MOF--net-ums--node1-GALJAG_clean_sbu_0--edge1-OJICUG_clean_linker_0
_symmetry_space_group_name_H-M    P1
_symmetry_Int_Tables_number       1
_symmetry_cell_setting            triclinic
loop_
_symmetry_equiv_pos_as_xyz
'x, y, z'
_cell_length_a     71.249471
_cell_length_b     71.270481
_cell_length_c     19.15371
_cell_angle_alpha  89.930509
_cell_angle_beta   89.960576
_cell_angle_gamma 119.87054
loop_
_atom_site_label
_atom_site_type_symbol
_atom_site_fract_x
_atom_site_fract_y
_atom_site_fract_z
_atom_type_partial_charge
In0 In 0.15485 0.24563 0.17992 0.0
O1 O 0.15709 0.21483 0.18423 0.0
O2 O 0.18491 0.24472 0.21167 0.0
C3 C 0.13011 0.23563 0.06536 0.0
C4 C 0.13358 0.23682 0.30203 0.0
C5 C 0.1794 0.28766 0.1454 0.0
O6 O 0.14498 0.23095 0.0707 0.0
O7 O 0.12724 0.24422 0.11869 0.0
O8 O 0.16272 0.28068 0.1831 0.0
O9 O 0.1843 0.27362 0.1275 0.0
C10 C 0.17643 0.22448 0.20573 0.0
O11 O 0.15325 0.25107 0.29579 0.0
O12 O 0.12446 0.22716 0.24641 0.0
In13 In 0.74307 0.90445 0.20011 0.0
O14 O 0.72938 0.89037 0.30711 0.0
O15 O 0.75936 0.89284 0.27905 0.0
C16 C 0.70519 0.8969 0.14526 0.0
C17 C 0.76567 0.94695 0.23058 0.0
C18 C 0.75109 0.88498 0.09269 0.0
O19 O 0.70634 0.88935 0.20385 0.0
O20 O 0.72312 0.90861 0.11545 0.0
O21 O 0.76138 0.90527 0.10074 0.0
O22 O 0.73804 0.87462 0.14143 0.0
C23 C 0.74493 0.88773 0.32514 0.0
O24 O 0.77492 0.9366 0.21165 0.0
O25 O 0.74534 0.93599 0.23225 0.0
In26 In 0.08006 0.83362 0.17245 0.0
O27 O 0.04917 0.83532 0.18955 0.0
O28 O 0.04714 0.80462 0.19559 0.0
C29 C 0.09781 0.85991 0.06184 0.0
C30 C 0.09583 0.85293 0.2962 0.0
C31 C 0.09232 0.80525 0.1309 0.0
O32 O 0.07759 0.84773 0.06806 0.0
O33 O 0.10877 0.85975 0.11335 0.0
O34 O 0.0982 0.81515 0.18837 0.0
O35 O 0.07966 0.80907 0.09558 0.0
C36 C 0.03757 0.81536 0.20187 0.0
O37 O 0.08938 0.8332 0.28522 0.0
O38 O 0.0949 0.86325 0.2439 0.0
In39 In 0.24447 0.1601 0.31593 0.0
O40 O 0.25363 0.16046 0.20211 0.0
O41 O 0.22865 0.13077 0.24354 0.0
C42 C 0.28493 0.187 0.36137 0.0
C43 C 0.2219 0.1805 0.29178 0.0
C44 C 0.23478 0.13286 0.42447 0.0
O45 O 0.28121 0.1777 0.30279 0.0
O46 O 0.26831 0.18339 0.39545 0.0
O47 O 0.22653 0.14487 0.41753 0.0
O48 O 0.24671 0.13365 0.37447 0.0
C49 C 0.23981 0.14091 0.19098 0.0
O50 O 0.24222 0.19035 0.29684 0.0
O51 O 0.21279 0.16035 0.30149 0.0
In52 In 0.83012 0.07983 0.33065 0.0
O53 O 0.82951 0.08727 0.21567 0.0
O54 O 0.8598 0.09438 0.25901 0.0
C55 C 0.8024 0.0932 0.37053 0.0
C56 C 0.81027 0.03673 0.31064 0.0
C57 C 0.85697 0.09775 0.43966 0.0
O58 O 0.81162 0.09792 0.31165 0.0
O59 O 0.80668 0.0813 0.40814 0.0
O60 O 0.84516 0.0775 0.4331 0.0
O61 O 0.85614 0.10872 0.3892 0.0
C62 C 0.8494 0.09424 0.2055 0.0
O63 O 0.83053 0.04814 0.31647 0.0
O64 O 0.80017 0.04696 0.31716 0.0
In65 In 0.91088 0.7569 0.36592 0.0
O66 O 0.89776 0.74382 0.25871 0.0
O67 O 0.8962 0.77148 0.29125 0.0
C68 C 0.89009 0.71489 0.40352 0.0
C69 C 0.9524 0.77721 0.32342 0.0
C70 C 0.90737 0.7722 0.49098 0.0
O71 O 0.88057 0.72581 0.39949 0.0
O72 O 0.90988 0.72504 0.38727 0.0
O73 O 0.9203 0.76529 0.4797 0.0
O74 O 0.89712 0.77268 0.43788 0.0
C75 C 0.89281 0.75799 0.24339 0.0
O76 O 0.94185 0.75731 0.33731 0.0
O77 O 0.94234 0.78734 0.33424 0.0
In78 In 0.83536 0.74888 0.8521 0.0
O79 O 0.81688 0.76666 0.87421 0.0
O80 O 0.81523 0.75442 0.77147 0.0
C81 C 0.85885 0.75801 0.97038 0.0
C82 C 0.86626 0.76386 0.75268 0.0
C83 C 0.80604 0.70658 0.87 0.0
O84 O 0.84914 0.76814 0.95401 0.0
O85 O 0.85745 0.74443 0.92584 0.0
O86 O 0.81881 0.71347 0.81862 0.0
O87 O 0.80736 0.7211 0.9104 0.0
C88 C 0.80963 0.76453 0.8128 0.0
O89 O 0.85748 0.74482 0.7762 0.0
O90 O 0.85982 0.77574 0.78017 0.0
In91 In 0.24334 0.0831 0.81624 0.0
O92 O 0.2538 0.09376 0.70446 0.0
O93 O 0.22685 0.09578 0.74266 0.0
C94 C 0.28308 0.09447 0.86376 0.0
C95 C 0.22131 0.04041 0.78929 0.0
C96 C 0.23437 0.10133 0.9244 0.0
O97 O 0.28009 0.10091 0.80552 0.0
O98 O 0.26607 0.08194 0.89693 0.0
O99 O 0.22551 0.08104 0.91745 0.0
O100 O 0.24658 0.11221 0.87456 0.0
C101 C 0.23914 0.09827 0.69173 0.0
O102 O 0.2118 0.05087 0.80329 0.0
O103 O 0.24164 0.0513 0.79156 0.0
In104 In 0.90578 0.15711 0.82998 0.0
O105 O 0.93757 0.15721 0.81281 0.0
O106 O 0.93835 0.18737 0.81353 0.0
C107 C 0.88872 0.13023 0.93976 0.0
C108 C 0.89134 0.1376 0.70552 0.0
C109 C 0.89175 0.18425 0.86997 0.0
O110 O 0.90887 0.14274 0.93301 0.0
O111 O 0.87746 0.13047 0.88928 0.0
O112 O 0.88672 0.17463 0.81188 0.0
O113 O 0.90427 0.18064 0.90682 0.0
C114 C 0.9487 0.17746 0.80551 0.0
O115 O 0.89753 0.15732 0.71567 0.0
O116 O 0.89186 0.12744 0.75883 0.0
In117 In 0.73717 0.82415 0.7014 0.0
O118 O 0.72714 0.82706 0.81129 0.0
O119 O 0.75675 0.85324 0.77432 0.0
C120 C 0.69771 0.79545 0.65152 0.0
C121 C 0.75853 0.80262 0.72878 0.0
C122 C 0.74612 0.85218 0.59503 0.0
O123 O 0.70031 0.80603 0.70684 0.0
O124 O 0.71498 0.79855 0.62307 0.0
O125 O 0.75695 0.84283 0.60599 0.0
O126 O 0.73191 0.8486 0.64071 0.0
C127 C 0.74356 0.84508 0.82448 0.0
O128 O 0.76507 0.81744 0.68357 0.0
O129 O 0.7411 0.79835 0.75856 0.0
In130 In 0.15831 0.90901 0.67204 0.0
O131 O 0.15801 0.94073 0.68631 0.0
O132 O 0.18805 0.94137 0.69389 0.0
C133 C 0.13182 0.89167 0.56205 0.0
C134 C 0.13827 0.89386 0.79572 0.0
C135 C 0.18672 0.89685 0.62966 0.0
O136 O 0.1436 0.91188 0.56967 0.0
O137 O 0.1326 0.88043 0.61175 0.0
O138 O 0.1768 0.89078 0.68723 0.0
O139 O 0.18267 0.90938 0.59448 0.0
C140 C 0.17806 0.95174 0.69801 0.0
O141 O 0.15795 0.89981 0.78576 0.0
O142 O 0.12839 0.89492 0.74254 0.0
In143 In 0.07925 0.24306 0.67646 0.0
O144 O 0.04661 0.21202 0.68602 0.0
O145 O 0.0485 0.24194 0.71234 0.0
C146 C 0.09155 0.22991 0.56302 0.0
C147 C 0.09382 0.23858 0.80103 0.0
C148 C 0.09745 0.28441 0.63249 0.0
O149 O 0.07373 0.22972 0.56523 0.0
O150 O 0.10218 0.23538 0.61908 0.0
O151 O 0.10813 0.2767 0.66064 0.0
O152 O 0.07734 0.27153 0.62881 0.0
C153 C 0.03698 0.22164 0.70867 0.0
O154 O 0.08966 0.2535 0.78821 0.0
O155 O 0.0909 0.22604 0.75071 0.0
In156 In 0.82178 0.58211 0.50538 0.0
O157 O 0.81889 0.58295 0.62283 0.0
O158 O 0.79006 0.5632 0.56566 0.0
C159 C 0.84619 0.6252 0.48652 0.0
C160 C 0.84341 0.56069 0.5262 0.0
C161 C 0.79932 0.57432 0.38613 0.0
O162 O 0.82951 0.61679 0.5246 0.0
O163 O 0.85104 0.61195 0.4602 0.0
O164 O 0.81344 0.56873 0.3942 0.0
O165 O 0.79604 0.58283 0.43887 0.0
C166 C 0.7988 0.56986 0.62446 0.0
O167 O 0.85225 0.58101 0.53075 0.0
O168 O 0.82374 0.55115 0.50821 0.0
In169 In 0.41007 0.23736 0.52691 0.0
O170 O 0.4417 0.26968 0.53658 0.0
O171 O 0.41199 0.26929 0.55172 0.0
C172 C 0.41879 0.21888 0.41886 0.0
C173 C 0.41453 0.22233 0.65164 0.0
C174 C 0.37028 0.22601 0.47927 0.0
O175 O 0.42798 0.23918 0.42609 0.0
O176 O 0.40636 0.20809 0.46839 0.0
O177 O 0.37327 0.21967 0.5377 0.0
O178 O 0.38731 0.23846 0.44604 0.0
C179 C 0.43234 0.28024 0.5514 0.0
O180 O 0.40013 0.22726 0.63955 0.0
O181 O 0.42647 0.22441 0.60009 0.0
In182 In 0.74437 0.16407 0.51161 0.0
O183 O 0.75312 0.16423 0.62558 0.0
O184 O 0.7582 0.19389 0.58235 0.0
C185 C 0.75825 0.13683 0.47129 0.0
C186 C 0.70156 0.14376 0.53831 0.0
C187 C 0.76128 0.19076 0.40126 0.0
O188 O 0.76363 0.14675 0.52883 0.0
O189 O 0.74544 0.14019 0.43508 0.0
O190 O 0.74115 0.17813 0.408 0.0
O191 O 0.77257 0.1907 0.45194 0.0
C192 C 0.75908 0.1839 0.63561 0.0
O193 O 0.71248 0.16388 0.52778 0.0
O194 O 0.71202 0.1339 0.53207 0.0
In195 In 0.91043 0.49512 0.63706 0.0
O196 O 0.87888 0.49576 0.62252 0.0
O197 O 0.90853 0.52545 0.61554 0.0
C198 C 0.90098 0.46796 0.74607 0.0
C199 C 0.90594 0.47563 0.51255 0.0
C200 C 0.9507 0.52249 0.68297 0.0
O201 O 0.89256 0.47982 0.73892 0.0
O202 O 0.91298 0.46887 0.69611 0.0
O203 O 0.94718 0.51316 0.62448 0.0
O204 O 0.93396 0.51858 0.71691 0.0
C205 C 0.88821 0.51586 0.61122 0.0
O206 O 0.9202 0.495 0.52414 0.0
O207 O 0.89421 0.46578 0.56448 0.0
In208 In 0.49682 0.41335 0.64838 0.0
O209 O 0.52639 0.42799 0.57625 0.0
O210 O 0.49601 0.4209 0.5337 0.0
C211 C 0.46958 0.42718 0.68946 0.0
C212 C 0.47683 0.37031 0.62777 0.0
C213 C 0.52381 0.43101 0.75712 0.0
O214 O 0.47863 0.43177 0.63034 0.0
O215 O 0.47372 0.41511 0.72672 0.0
O216 O 0.51171 0.41079 0.75088 0.0
O217 O 0.52322 0.44203 0.70641 0.0
C218 C 0.51588 0.42793 0.52312 0.0
O219 O 0.49709 0.38163 0.6342 0.0
O220 O 0.46679 0.3806 0.634 0.0
In221 In 0.57191 0.07954 0.67688 0.0
O222 O 0.56413 0.07028 0.56344 0.0
O223 O 0.55772 0.09441 0.6035 0.0
C224 C 0.55071 0.03738 0.71382 0.0
C225 C 0.61414 0.10076 0.64336 0.0
C226 C 0.56161 0.09385 0.7921 0.0
O227 O 0.54198 0.04617 0.67996 0.0
O228 O 0.57044 0.04974 0.72782 0.0
O229 O 0.57793 0.09134 0.78972 0.0
O230 O 0.55151 0.09045 0.73532 0.0
C231 C 0.55729 0.08325 0.55175 0.0
O232 O 0.60403 0.11056 0.65863 0.0
O233 O 0.60317 0.08043 0.64808 0.0
In234 In 0.49513 0.07183 0.16988 0.0
O235 O 0.49336 0.10279 0.16448 0.0
O236 O 0.46454 0.07289 0.14539 0.0
C237 C 0.51864 0.08149 0.28732 0.0
C238 C 0.51824 0.08401 0.05119 0.0
C239 C 0.47164 0.02856 0.18797 0.0
O240 O 0.50332 0.08546 0.28071 0.0
O241 O 0.52229 0.07334 0.23435 0.0
O242 O 0.48718 0.03739 0.14546 0.0
O243 O 0.4674 0.04149 0.2198 0.0
C244 C 0.47361 0.09326 0.14769 0.0
O245 O 0.49796 0.07196 0.05211 0.0
O246 O 0.52703 0.08966 0.11035 0.0
In247 In 0.90913 0.41736 0.13747 0.0
O248 O 0.91908 0.4273 0.02471 0.0
O249 O 0.89308 0.43069 0.06435 0.0
C250 C 0.94912 0.42904 0.18403 0.0
C251 C 0.88638 0.37449 0.11258 0.0
C252 C 0.90052 0.4358 0.2461 0.0
O253 O 0.9459 0.4352 0.12563 0.0
O254 O 0.93222 0.41651 0.21765 0.0
O255 O 0.89155 0.4155 0.23922 0.0
O256 O 0.91263 0.44659 0.19598 0.0
C257 C 0.90491 0.43255 0.01271 0.0
O258 O 0.87726 0.38534 0.12643 0.0
O259 O 0.90674 0.38512 0.11364 0.0
In260 In 0.57164 0.49113 0.14681 0.0
O261 O 0.60385 0.4916 0.1377 0.0
O262 O 0.60336 0.5206 0.11632 0.0
C263 C 0.55474 0.46473 0.25757 0.0
C264 C 0.55716 0.47097 0.02331 0.0
C265 C 0.55852 0.51888 0.18784 0.0
O266 O 0.57485 0.47748 0.25094 0.0
O267 O 0.54341 0.46457 0.20667 0.0
O268 O 0.55189 0.50799 0.13234 0.0
O269 O 0.57214 0.51616 0.22182 0.0
C270 C 0.61422 0.51107 0.11806 0.0
O271 O 0.56238 0.49044 0.03336 0.0
O272 O 0.55854 0.46124 0.07647 0.0
In273 In 0.40878 0.16006 0.0274 0.0
O274 O 0.3989 0.1602 0.13999 0.0
O275 O 0.42539 0.18922 0.10046 0.0
C276 C 0.36839 0.13345 0.98139 0.0
C277 C 0.43024 0.13867 0.05436 0.0
C278 C 0.41876 0.18732 0.91852 0.0
O279 O 0.37209 0.1429 0.0397 0.0
O280 O 0.385 0.13683 0.9477 0.0
O281 O 0.42668 0.175 0.92529 0.0
O282 O 0.40707 0.18682 0.96884 0.0
C283 C 0.41345 0.17942 0.15206 0.0
O284 O 0.40994 0.12937 0.04948 0.0
O285 O 0.43991 0.15876 0.04266 0.0
In286 In 0.82019 0.24159 0.01088 0.0
O287 O 0.82052 0.27368 0.02462 0.0
O288 O 0.85048 0.27404 0.027 0.0
C289 C 0.79341 0.2239 0.90148 0.0
C290 C 0.80068 0.22704 0.13573 0.0
C291 C 0.84759 0.22789 0.97054 0.0
O292 O 0.80541 0.24412 0.90799 0.0
O293 O 0.79401 0.21288 0.95217 0.0
O294 O 0.83823 0.22304 0.02918 0.0
O295 O 0.84359 0.24007 0.93331 0.0
C296 C 0.84076 0.28466 0.03247 0.0
O297 O 0.82045 0.2335 0.12536 0.0
O298 O 0.79046 0.22751 0.08254 0.0
In299 In 0.74503 0.57548 0.9956 0.0
O300 O 0.71108 0.57072 0.99097 0.0
O301 O 0.71465 0.54496 0.03175 0.0
C302 C 0.75576 0.56016 0.88402 0.0
C303 C 0.76294 0.57498 0.11888 0.0
C304 C 0.76258 0.61726 0.9548 0.0
O305 O 0.73833 0.56077 0.88633 0.0
O306 O 0.76687 0.56612 0.93925 0.0
O307 O 0.76856 0.60462 0.93123 0.0
O308 O 0.74797 0.60908 0.00075 0.0
C309 C 0.70213 0.55224 0.01887 0.0
O310 O 0.75729 0.58871 0.1043 0.0
O311 O 0.75995 0.56174 0.07085 0.0
In312 In 0.48231 0.90319 0.79126 0.0
O313 O 0.50418 0.88878 0.77367 0.0
O314 O 0.50095 0.89758 0.87731 0.0
C315 C 0.46848 0.89041 0.6592 0.0
C316 C 0.4502 0.88815 0.88678 0.0
C317 C 0.50325 0.94685 0.7859 0.0
O318 O 0.45639 0.88164 0.7114 0.0
O319 O 0.4875 0.90469 0.67413 0.0
O320 O 0.48356 0.93521 0.77036 0.0
O321 O 0.51228 0.93653 0.80709 0.0
C322 C 0.50929 0.88972 0.83719 0.0
O323 O 0.45801 0.90666 0.85933 0.0
O324 O 0.45797 0.87683 0.86404 0.0
In325 In 0.07624 0.57557 0.84638 0.0
O326 O 0.10817 0.60744 0.85879 0.0
O327 O 0.07874 0.6079 0.86941 0.0
C328 C 0.08498 0.5572 0.73793 0.0
C329 C 0.08034 0.56042 0.9712 0.0
C330 C 0.03624 0.56388 0.79995 0.0
O331 O 0.0938 0.57749 0.74463 0.0
O332 O 0.07293 0.54638 0.78813 0.0
O333 O 0.03948 0.55771 0.85832 0.0
O334 O 0.05314 0.57642 0.76628 0.0
C335 C 0.0991 0.61839 0.87178 0.0
O336 O 0.06619 0.56569 0.95903 0.0
O337 O 0.09218 0.56221 0.91965 0.0
In338 In 0.41368 0.49987 0.83225 0.0
O339 O 0.42195 0.49976 0.94667 0.0
O340 O 0.42756 0.52958 0.90321 0.0
C341 C 0.42716 0.47234 0.79174 0.0
C342 C 0.37079 0.47968 0.85664 0.0
C343 C 0.43083 0.52672 0.7225 0.0
O344 O 0.43259 0.48215 0.84949 0.0
O345 O 0.41457 0.47602 0.75548 0.0
O346 O 0.41066 0.51447 0.72968 0.0
O347 O 0.44211 0.52621 0.77248 0.0
C348 C 0.42808 0.51947 0.95667 0.0
O349 O 0.38191 0.49988 0.84843 0.0
O350 O 0.38112 0.46971 0.8497 0.0
In351 In 0.5833 0.83318 0.96051 0.0
O352 O 0.55439 0.83853 0.97335 0.0
O353 O 0.58016 0.85995 0.90706 0.0
C354 C 0.57424 0.8055 0.06787 0.0
C355 C 0.57707 0.81241 0.83726 0.0
C356 C 0.6228 0.86162 0.01036 0.0
O357 O 0.56419 0.81571 0.05822 0.0
O358 O 0.58773 0.80811 0.02064 0.0
O359 O 0.62013 0.85093 0.95526 0.0
O360 O 0.60558 0.85874 0.03866 0.0
C361 C 0.56179 0.85444 0.93209 0.0
O362 O 0.59333 0.83057 0.85028 0.0
O363 O 0.56402 0.80406 0.88763 0.0
In364 In 0.16529 0.75056 0.98246 0.0
O365 O 0.16583 0.76025 0.8692 0.0
O366 O 0.19504 0.76382 0.91109 0.0
C367 C 0.13725 0.76319 0.0246 0.0
C368 C 0.14464 0.70767 0.95754 0.0
C369 C 0.19184 0.76813 0.09254 0.0
O370 O 0.14699 0.76895 0.96668 0.0
O371 O 0.14128 0.75073 0.06023 0.0
O372 O 0.18001 0.74791 0.08527 0.0
O373 O 0.19116 0.77927 0.04233 0.0
C374 C 0.18532 0.76554 0.85852 0.0
O375 O 0.16472 0.71833 0.96893 0.0
O376 O 0.13509 0.71849 0.96119 0.0
In377 In 0.24 0.41458 0.98269 0.0
O378 O 0.22973 0.40422 0.87081 0.0
O379 O 0.22856 0.43172 0.90821 0.0
C380 C 0.22179 0.37323 0.02648 0.0
C381 C 0.28231 0.43587 0.9513 0.0
C382 C 0.22757 0.42767 0.09597 0.0
O383 O 0.21112 0.38092 -0.00191 0.0
O384 O 0.24188 0.38613 0.03049 0.0
O385 O 0.24547 0.42802 0.09376 0.0
O386 O 0.21691 0.42207 0.03998 0.0
C387 C 0.22565 0.41919 0.85789 0.0
O388 O 0.27269 0.44555 0.97338 0.0
O389 O 0.27075 0.41557 0.9477 0.0
In390 In 0.16445 0.41209 0.47936 0.0
O391 O 0.16239 0.443 0.47541 0.0
O392 O 0.13443 0.41318 0.44836 0.0
C393 C 0.18928 0.42206 0.5937 0.0
C394 C 0.18561 0.42086 0.35702 0.0
C395 C 0.13986 0.37002 0.51374 0.0
O396 O 0.17442 0.42677 0.58851 0.0
O397 O 0.19208 0.41344 0.54035 0.0
O398 O 0.15653 0.37701 0.476 0.0
O399 O 0.13498 0.38408 0.53176 0.0
C400 C 0.14301 0.43343 0.45435 0.0
O401 O 0.16591 0.40669 0.36335 0.0
O402 O 0.19479 0.43045 0.41265 0.0
In403 In 0.57748 0.75294 0.46184 0.0
O404 O 0.5909 0.76661 0.35425 0.0
O405 O 0.56145 0.7651 0.38392 0.0
C406 C 0.61535 0.76033 0.51642 0.0
C407 C 0.55446 0.71048 0.4312 0.0
C408 C 0.56962 0.77246 0.5693 0.0
O409 O 0.61422 0.768 0.45806 0.0
O410 O 0.59741 0.74856 0.54611 0.0
O411 O 0.55927 0.75217 0.56127 0.0
O412 O 0.58269 0.78281 0.52059 0.0
C413 C 0.5756 0.76975 0.33712 0.0
O414 O 0.54543 0.72099 0.45062 0.0
O415 O 0.5748 0.72125 0.42919 0.0
In416 In 0.24394 0.82653 0.48226 0.0
O417 O 0.23561 0.8274 0.36826 0.0
O418 O 0.22764 0.79682 0.41154 0.0
C419 C 0.2323 0.85548 0.52295 0.0
C420 C 0.28645 0.84326 0.45523 0.0
C421 C 0.22577 0.80014 0.59269 0.0
O422 O 0.22692 0.84608 0.46455 0.0
O423 O 0.24427 0.85097 0.55935 0.0
O424 O 0.24604 0.8118 0.58599 0.0
O425 O 0.21492 0.8009 0.54182 0.0
C426 C 0.22785 0.80739 0.35829 0.0
O427 O 0.27803 0.85491 0.46577 0.0
O428 O 0.27366 0.82322 0.46164 0.0
In429 In 0.07495 0.49807 0.34674 0.0
O430 O 0.06554 0.49788 0.4603 0.0
O431 O 0.09083 0.52743 0.41916 0.0
C432 C 0.03466 0.47057 0.30113 0.0
C433 C 0.09759 0.47772 0.37097 0.0
C434 C 0.08432 0.52526 0.23805 0.0
O435 O 0.03818 0.47988 0.35968 0.0
O436 O 0.0514 0.47459 0.26703 0.0
O437 O 0.09288 0.51354 0.24529 0.0
O438 O 0.07218 0.5242 0.28778 0.0
C439 C 0.07949 0.51739 0.47154 0.0
O440 O 0.07727 0.46791 0.36641 0.0
O441 O 0.1067 0.49786 0.36092 0.0
In442 In 0.48876 0.57761 0.3313 0.0
O443 O 0.48862 0.60942 0.34602 0.0
O444 O 0.51886 0.61038 0.34384 0.0
C445 C 0.46172 0.55955 0.22277 0.0
C446 C 0.46973 0.56316 0.4567 0.0
C447 C 0.51622 0.56405 0.29048 0.0
O448 O 0.47352 0.57981 0.22908 0.0
O449 O 0.4626 0.54865 0.27337 0.0
O450 O 0.50738 0.55963 0.34995 0.0
O451 O 0.51173 0.57579 0.2528 0.0
C452 C 0.50892 0.62072 0.35103 0.0
O453 O 0.48954 0.56988 0.44584 0.0
O454 O 0.45927 0.56333 0.40376 0.0
In455 In 0.4118 0.89502 0.28366 0.0
O456 O 0.37707 0.86774 0.29802 0.0
O457 O 0.38636 0.89807 0.34608 0.0
C458 C 0.41207 0.88045 0.15373 0.0
C459 C 0.4329 0.88817 0.38969 0.0
C460 C 0.43071 0.93773 0.2564 0.0
O461 O 0.40184 0.89006 0.16934 0.0
O462 O 0.42111 0.87694 0.20473 0.0
O463 O 0.4395 0.9266 0.24205 0.0
O464 O 0.41251 0.92743 0.28615 0.0
C465 C 0.37169 0.87875 0.33618 0.0
O466 O 0.44095 0.90555 0.35544 0.0
O467 O 0.41448 0.87391 0.36916 0.0
C468 C 0.18795 0.17974 0.25386 0.0
C469 C 0.20999 0.19162 0.27155 0.0
H470 H 0.16005 0.18087 0.21797 0.0
C471 C 0.22089 0.21427 0.26655 0.0
H472 H 0.1792 0.16223 0.25682 0.0
C473 C 0.20998 0.22489 0.24442 0.0
C474 C 0.18799 0.21304 0.22634 0.0
H475 H 0.2379 0.22383 0.27963 0.0
H476 H 0.21879 0.24239 0.24145 0.0
C477 C 0.17705 0.19037 0.23114 0.0
C478 C 0.81092 0.00317 0.27591 0.0
C479 C 0.79915 0.01355 0.29302 0.0
H480 H 0.80951 0.97382 0.24188 0.0
C481 C 0.77647 0.00185 0.28976 0.0
H482 H 0.82844 0.01188 0.27769 0.0
C483 C 0.76573 0.98025 0.26927 0.0
C484 C 0.77742 0.96989 0.25135 0.0
H485 H 0.76697 0.00943 0.30253 0.0
H486 H 0.7482 0.97171 0.26718 0.0
C487 C 0.80012 0.98148 0.25507 0.0
C488 C 0.98361 0.77447 0.27755 0.0
C489 C 0.97421 0.78728 0.29233 0.0
H490 H 0.01084 0.77327 0.23626 0.0
C491 C 0.9854 0.80932 0.27434 0.0
H492 H 0.97529 0.75738 0.29025 0.0
C493 C 0.00582 0.81843 0.24292 0.0
C494 C 0.01529 0.80561 0.22893 0.0
H495 H 0.97842 0.81951 0.28464 0.0
H496 H 0.01431 0.83554 0.23057 0.0
C497 C 0.00392 0.78354 0.24612 0.0
C498 C 0.79688 0.78048 0.72125 0.0
C499 C 0.79605 0.7736 0.79052 0.0
H500 H 0.78587 0.7956 0.64759 0.0
C501 C 0.78242 0.7758 0.8386 0.0
H502 H 0.80736 0.77899 0.68337 0.0
C503 C 0.76972 0.78466 0.81768 0.0
C504 C 0.77097 0.79208 0.74894 0.0
H505 H 0.78149 0.77054 0.89222 0.0
H506 H 0.75934 0.78625 0.85577 0.0
C507 C 0.78468 0.78999 0.70087 0.0
C508 C 0.22173 0.00706 0.75421 0.0
C509 C 0.20988 0.01758 0.7675 0.0
H510 H 0.22094 0.97808 0.7212 0.0
C511 C 0.18741 0.00643 0.75657 0.0
H512 H 0.2391 0.01529 0.76189 0.0
C513 C 0.17698 0.98506 0.73262 0.0
C514 C 0.1889 0.97458 0.71954 0.0
H515 H 0.17793 0.01424 0.766 0.0
H516 H 0.15962 0.97672 0.72494 0.0
C517 C 0.21135 0.98578 0.73057 0.0
C518 C 0.00439 0.22193 0.7542 0.0
C519 C 0.01434 0.21013 0.73286 0.0
H520 H 0.97586 0.2208 0.79448 0.0
C521 C 0.00277 0.18745 0.73756 0.0
H522 H 0.01296 0.23944 0.7515 0.0
C523 C 0.98154 0.17676 0.76295 0.0
C524 C 0.97155 0.1886 0.78361 0.0
H525 H 0.01013 0.17798 0.72193 0.0
H526 H 0.97287 0.15925 0.76544 0.0
C527 C 0.98318 0.21127 0.77914 0.0
C528 C 0.87704 0.56061 0.56122 0.0
C529 C 0.85486 0.54902 0.54558 0.0
H530 H 0.90493 0.55918 0.59459 0.0
C531 C 0.84359 0.52638 0.55235 0.0
H532 H 0.88613 0.57808 0.55674 0.0
C533 C 0.85433 0.51555 0.57487 0.0
C534 C 0.87652 0.52719 0.59046 0.0
H535 H 0.82644 0.51706 0.54109 0.0
H536 H 0.8453 0.49809 0.57956 0.0
C537 C 0.88779 0.5498 0.5832 0.0
C538 C 0.46668 0.31481 0.57578 0.0
C539 C 0.44402 0.30333 0.57016 0.0
H540 H 0.49494 0.34514 0.59927 0.0
C541 C 0.43232 0.31392 0.58497 0.0
H542 H 0.47607 0.30698 0.565 0.0
C543 C 0.44304 0.33559 0.60469 0.0
C544 C 0.46569 0.34713 0.61019 0.0
H545 H 0.41483 0.30546 0.58134 0.0
H546 H 0.43356 0.34333 0.6153 0.0
C547 C 0.47745 0.33657 0.59575 0.0
C548 C 0.66779 0.11037 0.57375 0.0
C549 C 0.67889 0.13281 0.56225 0.0
H550 H 0.63868 0.0827 0.60906 0.0
C551 C 0.66861 0.14475 0.5781 0.0
H552 H 0.67535 0.10077 0.56231 0.0
C553 C 0.64763 0.1344 0.60552 0.0
C554 C 0.6366 0.11196 0.61732 0.0
H555 H 0.67686 0.1621 0.57016 0.0
H556 H 0.64003 0.14396 0.6172 0.0
C557 C 0.64684 0.10004 0.60093 0.0
C558 C 0.44028 0.09362 0.11017 0.0
C559 C 0.46243 0.10503 0.12635 0.0
H560 H 0.41278 0.09535 0.07421 0.0
C561 C 0.47404 0.12761 0.11781 0.0
H562 H 0.43097 0.07619 0.11593 0.0
C563 C 0.46368 0.13856 0.09308 0.0
C564 C 0.44152 0.12712 0.07694 0.0
H565 H 0.49118 0.13679 0.12939 0.0
H566 H 0.47297 0.15598 0.08715 0.0
C567 C 0.42991 0.10457 0.08592 0.0
C568 C 0.87482 0.3189 0.05821 0.0
C569 C 0.85221 0.30779 0.05098 0.0
H570 H 0.90325 0.34861 0.08384 0.0
C571 C 0.84077 0.31872 0.06473 0.0
H572 H 0.88407 0.31087 0.0482 0.0
C573 C 0.85179 0.3404 0.08569 0.0
C574 C 0.87442 0.35144 0.09301 0.0
H575 H 0.82331 0.3105 0.0599 0.0
H576 H 0.84264 0.34851 0.09585 0.0
C577 C 0.8858 0.34049 0.07893 0.0
C578 C 0.64875 0.51075 0.09805 0.0
C579 C 0.6368 0.52151 0.09359 0.0
H580 H 0.67893 0.51205 0.07724 0.0
C581 C 0.64622 0.54205 0.06229 0.0
H582 H 0.6418 0.49483 0.12154 0.0
C583 C 0.66726 0.55172 0.03613 0.0
C584 C 0.67933 0.54111 0.04123 0.0
H585 H 0.63731 0.55064 0.0576 0.0
H586 H 0.67416 0.56767 0.01288 0.0
C587 C 0.66991 0.52052 0.07231 0.0
C588 C 0.53938 0.882 0.8193 0.0
C589 C 0.52342 0.8817 0.8629 0.0
H590 H 0.56453 0.87408 0.80828 0.0
C591 C 0.52069 0.87318 0.93069 0.0
H592 H 0.54179 0.88857 0.76693 0.0
C593 C 0.53329 0.86439 0.9537 0.0
C594 C 0.54923 0.86465 0.91 0.0
H595 H 0.5084 0.87274 0.96508 0.0
H596 H 0.53057 0.85737 0.0055 0.0
C597 C 0.55242 0.87383 0.84308 0.0
C598 C 0.13359 0.65207 0.90258 0.0
C599 C 0.11108 0.64134 0.8923 0.0
H600 H 0.16194 0.68159 0.93224 0.0
C601 C 0.09978 0.65246 0.90475 0.0
H602 H 0.14267 0.64381 0.89374 0.0
C603 C 0.11073 0.67392 0.9269 0.0
C604 C 0.13321 0.68469 0.93726 0.0
H605 H 0.08241 0.64459 0.89756 0.0
H606 H 0.10154 0.68208 0.93568 0.0
C607 C 0.14458 0.6736 0.92502 0.0
C608 C 0.31498 0.4354 0.90755 0.0
C609 C 0.305 0.44728 0.92774 0.0
H610 H 0.34357 0.43638 0.86871 0.0
C611 C 0.31661 0.46995 0.92251 0.0
H612 H 0.30637 0.4179 0.91071 0.0
C613 C 0.3379 0.48054 0.89767 0.0
C614 C 0.3479 0.46862 0.87813 0.0
H615 H 0.30924 0.47948 0.93726 0.0
H616 H 0.3466 0.49805 0.89469 0.0
C617 C 0.33624 0.44597 0.88318 0.0
C618 C 0.13159 0.47837 0.40773 0.0
C619 C 0.10951 0.46656 0.39068 0.0
H620 H 0.15953 0.47709 0.44241 0.0
C621 C 0.09854 0.44391 0.39562 0.0
H622 H 0.14039 0.49587 0.40478 0.0
C623 C 0.10945 0.43321 0.41703 0.0
C624 C 0.13149 0.44497 0.43443 0.0
H625 H 0.08149 0.4344 0.38301 0.0
H626 H 0.10058 0.4157 0.41995 0.0
C627 C 0.14249 0.46765 0.42972 0.0
C628 C 0.54295 0.65546 0.3708 0.0
C629 C 0.52025 0.64392 0.36852 0.0
H630 H 0.57145 0.68547 0.39269 0.0
C631 C 0.5087 0.65445 0.38659 0.0
H632 H 0.55228 0.64776 0.35726 0.0
C633 C 0.51974 0.67614 0.40746 0.0
C634 C 0.54246 0.68757 0.41027 0.0
H635 H 0.49118 0.64586 0.38557 0.0
H636 H 0.51053 0.68392 0.42143 0.0
C637 C 0.55393 0.67705 0.39134 0.0
C638 C 0.33594 0.84716 0.36905 0.0
C639 C 0.35012 0.86961 0.36856 0.0
H640 H 0.30476 0.82116 0.39846 0.0
C641 C 0.34366 0.88325 0.40022 0.0
H642 H 0.34061 0.83627 0.34556 0.0
C643 C 0.32312 0.87463 0.43014 0.0
C644 C 0.30882 0.8522 0.42981 0.0
H645 H 0.35433 0.90063 0.40084 0.0
H646 H 0.31833 0.88555 0.45276 0.0
C647 C 0.31552 0.83852 0.39984 0.0
C648 C 0.11237 0.22423 0.87687 0.0
C649 C 0.10167 0.2362 0.86952 0.0
H650 H 0.12998 0.21471 0.94537 0.0
C651 C 0.09896 0.24641 0.928 0.0
H652 H 0.1146 0.21617 0.83238 0.0
C653 C 0.1073 0.2452 0.99247 0.0
C654 C 0.11886 0.23408 -0.0006 0.0
H655 H 0.09059 0.25556 0.92379 0.0
H656 H 0.10538 0.25369 0.0363 0.0
C657 C 0.1211 0.22335 0.94134 0.0
C658 C 0.73626 0.85249 0.01597 0.0
C659 C 0.75143 0.87442 0.02656 0.0
H660 H 0.72179 0.82621 0.94383 0.0
C661 C 0.76496 0.8865 0.97082 0.0
H662 H 0.72553 0.84274 0.05767 0.0
C663 C 0.76285 0.87694 0.90518 0.0
C664 C 0.74699 0.85524 0.89409 0.0
H665 H 0.77674 0.90348 0.97734 0.0
H666 H 0.77318 0.88668 0.86272 0.0
C667 C 0.73399 0.84305 0.95047 0.0
C668 C 0.13071 0.8809 0.98841 0.0
C669 C 0.10813 0.87088 0.99573 0.0
H670 H 0.15786 0.8958 0.91927 0.0
C671 C 0.09554 0.86943 0.93733 0.0
H672 H 0.14084 0.8822 0.03237 0.0
C673 C 0.10533 0.87726 0.87231 0.0
C674 C 0.12784 0.88649 0.86461 0.0
H675 H 0.07809 0.8617 0.9414 0.0
H676 H 0.09525 0.8756 0.82782 0.0
C677 C 0.14045 0.88855 0.92348 0.0
C678 C 0.24839 0.10459 0.56524 0.0
C679 C 0.23656 0.10565 0.62225 0.0
H680 H 0.25664 0.11187 0.45751 0.0
C681 C 0.22254 0.11395 0.61217 0.0
H682 H 0.25914 0.09805 0.57128 0.0
C683 C 0.22113 0.12195 0.54679 0.0
C684 C 0.23355 0.12154 0.49037 0.0
H685 H 0.21313 0.11483 0.6552 0.0
H686 H 0.21083 0.12902 0.54098 0.0
C687 C 0.24682 0.11235 0.4999 0.0
C688 C 0.86698 0.09527 0.56328 0.0
C689 C 0.86821 0.10797 0.50537 0.0
H690 H 0.87336 0.09473 0.67245 0.0
C691 C 0.87821 0.13052 0.51303 0.0
H692 H 0.85929 0.07784 0.55894 0.0
C693 C 0.886 0.14011 0.57793 0.0
C694 C 0.88408 0.12738 0.63643 0.0
H695 H 0.87936 0.14073 0.46942 0.0
H696 H 0.89319 0.1575 0.58248 0.0
C697 C 0.87492 0.10491 0.62828 0.0
C698 C 0.87898 0.78305 0.63864 0.0
C699 C 0.88078 0.77046 0.69182 0.0
H700 H 0.88603 0.79339 0.53182 0.0
C701 C 0.8942 0.76152 0.68175 0.0
H702 H 0.86857 0.78997 0.64522 0.0
C703 C 0.90463 0.76397 0.61791 0.0
C704 C 0.90123 0.77482 0.56234 0.0
H705 H 0.89582 0.75177 0.72218 0.0
H706 H 0.91396 0.7559 0.61049 0.0
C707 C 0.88891 0.78497 0.57387 0.0
C708 C 0.86894 0.77346 0.09157 0.0
C709 C 0.86902 0.75977 0.03896 0.0
H710 H 0.87647 0.78369 0.1984 0.0
C711 C 0.87745 0.74611 0.0539 0.0
H712 H 0.86243 0.78407 0.0815 0.0
C713 C 0.88509 0.74566 0.12032 0.0
C714 C 0.88468 0.75899 0.17345 0.0
H715 H 0.87773 0.73533 0.0146 0.0
H716 H 0.89126 0.73474 0.13003 0.0
C717 C 0.87683 0.77315 0.15839 0.0
C718 C 0.2465 0.13406 -0.00135 0.0
C719 C 0.2334 0.1116 0.99015 0.0
H720 H 0.25892 0.16087 0.069 0.0
C721 C 0.22141 0.09894 0.04741 0.0
H722 H 0.25598 0.14424 0.95557 0.0
C723 C 0.22312 0.1085 0.1126 0.0
C724 C 0.23695 0.13084 0.12163 0.0
H725 H 0.21125 0.08157 0.04244 0.0
H726 H 0.21406 0.09832 0.15625 0.0
C727 C 0.24831 0.14357 0.06377 0.0
C728 C 0.88214 0.11206 0.12829 0.0
C729 C 0.85957 0.10184 0.13636 0.0
H730 H 0.90917 0.12897 0.0591 0.0
C731 C 0.84667 0.09933 0.07783 0.0
H732 H 0.89247 0.11411 0.17249 0.0
C733 C 0.85617 0.10759 0.01301 0.0
C734 C 0.87878 0.11865 0.00545 0.0
H735 H 0.82921 0.09134 0.08232 0.0
H736 H 0.8458 0.10596 0.96939 0.0
C737 C 0.89169 0.12047 0.06337 0.0
C738 C 0.76231 0.87458 0.41157 0.0
C739 C 0.74622 0.8798 0.39539 0.0
H740 H 0.77505 0.86187 0.48796 0.0
C741 C 0.73123 0.87744 0.44723 0.0
H742 H 0.77416 0.87636 0.37277 0.0
C743 C 0.73194 0.86949 0.51329 0.0
C744 C 0.74754 0.86355 0.52884 0.0
H745 H 0.71875 0.88152 0.43658 0.0
H746 H 0.71979 0.86735 0.55143 0.0
C747 C 0.7629 0.86642 0.47762 0.0
C748 C 0.11312 0.88539 0.37436 0.0
C749 C 0.1037 0.86294 0.36522 0.0
H750 H 0.12932 0.91219 0.4445 0.0
C751 C 0.10201 0.84995 0.42273 0.0
H752 H 0.1145 0.89576 0.33095 0.0
C753 C 0.11023 0.85927 0.48762 0.0
C754 C 0.12042 0.88179 0.49627 0.0
H755 H 0.09463 0.83256 0.41743 0.0
H756 H 0.10919 0.84885 0.53045 0.0
C757 C 0.12148 0.89476 0.43936 0.0
C758 C 0.12356 0.23539 0.49514 0.0
C759 C 0.10124 0.22799 0.49746 0.0
H760 H 0.15131 0.24429 0.43093 0.0
C761 C 0.08921 0.2216 0.43533 0.0
H762 H 0.13327 0.24048 0.54218 0.0
C763 C 0.09958 0.22353 0.37151 0.0
C764 C 0.12213 0.2323 0.36912 0.0
H765 H 0.07199 0.21589 0.43577 0.0
H766 H 0.09015 0.21914 0.3239 0.0
C767 C 0.13394 0.23774 0.43147 0.0
C768 C 0.79089 0.56167 0.26232 0.0
C769 C 0.78895 0.57317 0.31865 0.0
H770 H 0.78394 0.55309 0.15436 0.0
C771 C 0.77807 0.58487 0.30905 0.0
H772 H 0.79926 0.55258 0.2684 0.0
C773 C 0.76973 0.5855 0.24392 0.0
C774 C 0.7718 0.57417 0.18741 0.0
H775 H 0.77644 0.594 0.35149 0.0
H776 H 0.76163 0.59486 0.23787 0.0
C777 C 0.7822 0.56202 0.19722 0.0
C778 C 0.40425 0.17678 0.27863 0.0
C779 C 0.41624 0.18944 0.22147 0.0
H780 H 0.39606 0.17611 0.38632 0.0
C781 C 0.43063 0.21163 0.23131 0.0
H782 H 0.39319 0.15958 0.2728 0.0
C783 C 0.43228 0.22114 0.29657 0.0
C784 C 0.4197 0.20857 0.35312 0.0
H785 H 0.44017 0.22174 0.1882 0.0
H786 H 0.4429 0.23843 0.30215 0.0
C787 C 0.40602 0.18622 0.34383 0.0
C788 C 0.76788 0.20916 0.21284 0.0
C789 C 0.79045 0.21934 0.20476 0.0
H790 H 0.74083 0.19217 0.28197 0.0
C791 C 0.80333 0.2217 0.26322 0.0
H792 H 0.75757 0.20721 0.16868 0.0
C793 C 0.79381 0.21336 0.32795 0.0
C794 C 0.7712 0.20234 0.33553 0.0
H795 H 0.82079 0.22966 0.25873 0.0
H796 H 0.80418 0.21491 0.37149 0.0
C797 C 0.75832 0.20064 0.27768 0.0
C798 C 0.88745 0.45708 0.86864 0.0
C799 C 0.89971 0.45656 0.81191 0.0
H800 H 0.87944 0.44982 0.97701 0.0
C801 C 0.91272 0.44705 0.82099 0.0
H802 H 0.87735 0.46438 0.86324 0.0
C803 C 0.91414 0.43903 0.88607 0.0
C804 C 0.90245 0.44017 0.94338 0.0
H805 H 0.92242 0.44647 0.77838 0.0
H806 H 0.92468 0.43223 0.8917 0.0
C807 C 0.88873 0.44885 0.93379 0.0
C808 C 0.54125 0.43822 0.94627 0.0
C809 C 0.55021 0.46066 0.95427 0.0
H810 H 0.52595 0.41112 0.87684 0.0
C811 C 0.55231 0.47336 0.89552 0.0
H812 H 0.53959 0.42807 0.99068 0.0
C813 C 0.54484 0.46376 0.83049 0.0
C814 C 0.53494 0.44122 0.82295 0.0
H815 H 0.5594 0.49074 0.89994 0.0
H816 H 0.5461 0.47396 0.78669 0.0
C817 C 0.53358 0.42855 0.88112 0.0
C818 C 0.56334 0.09863 0.92162 0.0
C819 C 0.55238 0.09604 0.85828 0.0
H820 H 0.56101 0.09705 0.03332 0.0
C821 C 0.531 0.09208 0.85944 0.0
H822 H 0.57983 0.10169 0.92211 0.0
C823 C 0.52016 0.08896 0.92264 0.0
C824 C 0.53065 0.09017 0.98576 0.0
H825 H 0.52215 0.09004 0.81144 0.0
H826 H 0.50334 0.08488 0.92198 0.0
C827 C 0.55257 0.0959 0.98509 0.0
C828 C 0.54374 0.0752 0.36045 0.0
C829 C 0.53013 0.08409 0.35352 0.0
H830 H 0.56288 0.06788 0.42896 0.0
C831 C 0.52655 0.09397 0.41142 0.0
H832 H 0.5468 0.06747 0.31668 0.0
C833 C 0.53598 0.09438 0.4758 0.0
C834 C 0.54883 0.08464 0.48317 0.0
H835 H 0.51612 0.10095 0.40734 0.0
H836 H 0.53265 0.10168 0.5202 0.0
C837 C 0.55289 0.07535 0.42477 0.0
C838 C 0.91317 0.46856 0.32071 0.0
C839 C 0.8997 0.44615 0.31192 0.0
H840 H 0.92585 0.49535 0.39117 0.0
C841 C 0.88738 0.43361 0.36891 0.0
H842 H 0.92294 0.47865 0.27789 0.0
C843 C 0.88906 0.44322 0.43403 0.0
C844 C 0.9032 0.46549 0.44332 0.0
H845 H 0.87693 0.41629 0.36375 0.0
H846 H 0.87969 0.43312 0.47743 0.0
C847 C 0.91497 0.4781 0.38577 0.0
C848 C 0.51294 0.43333 0.39582 0.0
C849 C 0.52595 0.43578 0.454 0.0
H850 H 0.51187 0.44023 0.28772 0.0
C851 C 0.54852 0.44623 0.44565 0.0
H852 H 0.49547 0.42519 0.40055 0.0
C853 C 0.55794 0.45489 0.38083 0.0
C854 C 0.54493 0.4531 0.32327 0.0
H855 H 0.55892 0.44825 0.48959 0.0
H856 H 0.57542 0.46352 0.37634 0.0
C857 C 0.52233 0.44184 0.33108 0.0
C858 C 0.43073 0.20601 0.73039 0.0
C859 C 0.41715 0.21487 0.721 0.0
H860 H 0.44204 0.1904 0.80088 0.0
C861 C 0.40573 0.21632 0.77856 0.0
H862 H 0.43981 0.20481 0.68694 0.0
C863 C 0.40726 0.20842 0.84373 0.0
C864 C 0.42008 0.1987 0.85261 0.0
H865 H 0.39531 0.22327 0.77308 0.0
H866 H 0.39775 0.20923 0.88654 0.0
C867 C 0.43209 0.19788 0.79562 0.0
C868 C 0.77563 0.21669 0.71254 0.0
C869 C 0.76638 0.19421 0.7046 0.0
H870 H 0.79134 0.24382 0.78172 0.0
C871 C 0.76435 0.1815 0.76328 0.0
H872 H 0.77726 0.22686 0.66822 0.0
C873 C 0.77212 0.19113 0.82815 0.0
C874 C 0.78221 0.21369 0.83565 0.0
H875 H 0.75708 0.1641 0.75891 0.0
H876 H 0.77087 0.18092 0.8719 0.0
C877 C 0.78357 0.22637 0.77752 0.0
C878 C 0.75364 0.55385 0.75506 0.0
C879 C 0.76501 0.55772 0.81819 0.0
H880 H 0.75555 0.55451 0.64321 0.0
C881 C 0.78678 0.56287 0.8167 0.0
H882 H 0.73685 0.54985 0.75477 0.0
C883 C 0.79751 0.566 0.75331 0.0
C884 C 0.78657 0.5636 0.69027 0.0
H885 H 0.79597 0.56588 0.86449 0.0
H886 H 0.81459 0.57104 0.75369 0.0
C887 C 0.76434 0.55661 0.69137 0.0
C888 C 0.46475 0.90078 0.46827 0.0
C889 C 0.44299 0.88592 0.45393 0.0
H890 H 0.49003 0.91343 0.54423 0.0
C891 C 0.4304 0.87055 0.50493 0.0
H892 H 0.47484 0.91272 0.42973 0.0
C893 C 0.439 0.87113 0.57109 0.0
C894 C 0.46041 0.88688 0.58671 0.0
H895 H 0.41355 0.85891 0.49517 0.0
H896 H 0.42863 0.85991 0.61081 0.0
C897 C 0.47344 0.90114 0.53384 0.0
C898 C 0.09793 0.55945 0.61492 0.0
C899 C 0.08585 0.54686 0.67218 0.0
H900 H 0.10538 0.55997 0.5062 0.0
C901 C 0.07262 0.52441 0.66369 0.0
H902 H 0.1082 0.5768 0.61987 0.0
C903 C 0.0708 0.51485 0.59864 0.0
C904 C 0.08229 0.52751 0.54081 0.0
H905 H 0.06305 0.51428 0.70675 0.0
H906 H 0.0601 0.49756 0.59344 0.0
C907 C 0.09622 0.54984 0.54982 0.0
C908 C 0.42774 0.53696 0.59964 0.0
C909 C 0.44071 0.53838 0.65688 0.0
H910 H 0.42678 0.54375 0.491 0.0
C911 C 0.4633 0.54917 0.64869 0.0
H912 H 0.41027 0.52868 0.60441 0.0
C913 C 0.47269 0.55756 0.58385 0.0
C914 C 0.4597 0.55545 0.52595 0.0
H915 H 0.47373 0.5505 0.69179 0.0
H916 H 0.49012 0.56534 0.57882 0.0
C917 C 0.43717 0.54549 0.53471 0.0
C918 C 0.58789 0.78739 0.14832 0.0
C919 C 0.57282 0.79414 0.13404 0.0
H920 H 0.60072 0.77468 0.22389 0.0
C921 C 0.55803 0.79202 0.18635 0.0
H922 H 0.59959 0.78894 0.10929 0.0
C923 C 0.55866 0.78378 0.25221 0.0
C924 C 0.57425 0.77776 0.2671 0.0
H925 H 0.5463 0.79719 0.17697 0.0
H926 H 0.54726 0.78259 0.29186 0.0
C927 C 0.58866 0.77939 0.2142 0.0
C928 C 0.20994 0.77474 0.28105 0.0
C929 C 0.21984 0.79727 0.28937 0.0
H930 H 0.19348 0.74779 0.21169 0.0
C931 C 0.22194 0.81018 0.23114 0.0
H932 H 0.20823 0.76441 0.32497 0.0
C933 C 0.21372 0.80071 0.16633 0.0
C934 C 0.20314 0.77813 0.15845 0.0
H935 H 0.22966 0.82761 0.2358 0.0
H936 H 0.21509 0.81108 0.12291 0.0
C937 C 0.20162 0.76524 0.21615 0.0
C938 C 0.22993 0.43609 0.22355 0.0
C939 C 0.21788 0.4296 0.16149 0.0
H940 H 0.22904 0.43865 0.33495 0.0
C941 C 0.19554 0.42212 0.16388 0.0
H942 H 0.24716 0.44187 0.22307 0.0
C943 C 0.18517 0.4198 0.22757 0.0
C944 C 0.19702 0.42535 0.28987 0.0
H945 H 0.18581 0.41696 0.11688 0.0
H946 H 0.1678 0.4132 0.22817 0.0
C947 C 0.21957 0.43419 0.28738 0.0
C948 C 0.2072 0.43361 0.78196 0.0
C949 C 0.21784 0.4216 0.78936 0.0
H950 H 0.18961 0.44315 0.71348 0.0
C951 C 0.22048 0.41132 0.73093 0.0
H952 H 0.20503 0.44173 0.8264 0.0
C953 C 0.21211 0.4125 0.66648 0.0
C954 C 0.20059 0.42366 0.65954 0.0
H955 H 0.2288 0.40212 0.73518 0.0
H956 H 0.21397 0.40394 0.6227 0.0
C957 C 0.19844 0.43447 0.71753 0.0
C958 C 0.55788 0.78052 0.75672 0.0
C959 C 0.57368 0.80225 0.76768 0.0
H960 H 0.54405 0.75395 0.68471 0.0
C961 C 0.58662 0.81446 0.71123 0.0
H962 H 0.5476 0.77078 0.79923 0.0
C963 C 0.58437 0.805 0.64578 0.0
C964 C 0.56927 0.78304 0.63534 0.0
H965 H 0.59877 0.83132 0.7178 0.0
H966 H 0.59506 0.81476 0.60401 0.0
C967 C 0.55578 0.77095 0.69113 0.0
C968 C 0.18316 0.77172 0.73137 0.0
C969 C 0.19571 0.77302 0.78959 0.0
H970 H 0.1828 0.77884 0.62314 0.0
C971 C 0.21813 0.7817 0.78124 0.0
H972 H 0.16581 0.76492 0.73606 0.0
C973 C 0.22791 0.78973 0.7163 0.0
C974 C 0.21539 0.78904 0.65862 0.0
H975 H 0.22817 0.78278 0.82521 0.0
H976 H 0.24532 0.79702 0.71178 0.0
C977 C 0.19288 0.77956 0.66653 0.0
C978 C 0.07101 0.55396 0.09774 0.0
C979 C 0.0828 0.55288 0.04061 0.0
H980 H 0.06267 0.54652 0.20539 0.0
C981 C 0.09664 0.54435 0.05047 0.0
H982 H 0.06038 0.56065 0.09189 0.0
C983 C 0.09795 0.53622 0.11571 0.0
C984 C 0.08558 0.53665 0.17223 0.0
H985 H 0.10602 0.54345 0.00739 0.0
H986 H 0.10815 0.52903 0.12133 0.0
C987 C 0.07246 0.54601 0.16292 0.0
C988 C 0.43319 0.51706 0.08449 0.0
C989 C 0.43516 0.52973 0.02577 0.0
H990 H 0.4396 0.51654 0.19325 0.0
C991 C 0.44414 0.55218 0.03378 0.0
H992 H 0.42613 0.49968 0.08005 0.0
C993 C 0.45186 0.56188 0.09885 0.0
C994 C 0.45059 0.54925 0.157 0.0
H995 H 0.44572 0.56232 0.98945 0.0
H996 H 0.45944 0.57931 0.10306 0.0
C997 C 0.44076 0.5267 0.14947 0.0
C998 C 0.42418 0.89247 0.96266 0.0
C999 C 0.43594 0.88193 0.94847 0.0
H1000 H 0.40665 0.89959 0.03868 0.0
C1001 C 0.43655 0.86786 -0.00125 0.0
H1002 H 0.4234 0.90332 0.92462 0.0
C1003 C 0.42733 0.86604 0.06469 0.0
C1004 C 0.41696 0.87788 0.08064 0.0
H1005 H 0.44558 0.85959 0.98912 0.0
H1006 H 0.42939 0.85636 0.10433 0.0
C1007 C 0.41454 0.89025 0.02793 0.0
C1008 C 0.18974 0.34188 0.08016 0.0
C1009 C 0.21126 0.35139 0.05715 0.0
H1010 H 0.16303 0.31445 0.12813 0.0
C1011 C 0.22263 0.34014 0.06558 0.0
H1012 H 0.18071 0.35035 0.07488 0.0
C1013 C 0.21236 0.31938 0.09493 0.0
C1014 C 0.19084 0.30995 0.11819 0.0
H1015 H 0.23928 0.34722 0.0484 0.0
H1016 H 0.22123 0.31075 0.09957 0.0
C1017 C 0.17971 0.32146 0.11123 0.0
C1018 C 0.68317 0.89051 0.0378 0.0
C1019 C 0.68443 0.89074 0.11101 0.0
H1020 H 0.66242 0.88081 0.94823 0.0
C1021 C 0.66546 0.88342 0.1506 0.0
H1022 H 0.69758 0.89599 0.00611 0.0
C1023 C 0.64544 0.87531 0.11743 0.0
C1024 C 0.64407 0.87384 0.04428 0.0
H1025 H 0.66606 0.88349 0.20712 0.0
H1026 H 0.63095 0.86905 0.14912 0.0
C1027 C 0.66311 0.88184 0.00469 0.0
C1028 C 0.1144 0.78025 0.00543 0.0
C1029 C 0.12366 0.77179 0.05135 0.0
H1030 H 0.09659 0.79703 0.99504 0.0
C1031 C 0.12102 0.77286 0.12366 0.0
H1032 H 0.11619 0.77957 0.94946 0.0
C1033 C 0.11025 0.78324 0.14972 0.0
C1034 C 0.10145 0.79217 0.10384 0.0
H1035 H 0.1281 0.76652 0.16016 0.0
H1036 H 0.10916 0.78463 0.20571 0.0
C1037 C 0.10313 0.79012 0.03148 0.0
C1038 C 0.30961 0.20066 0.46397 0.0
C1039 C 0.30684 0.19916 0.39116 0.0
H1040 H 0.33202 0.2101 0.54913 0.0
C1041 C 0.32513 0.20784 0.3477 0.0
H1042 H 0.29574 0.19394 0.49863 0.0
C1043 C 0.34586 0.21749 0.37663 0.0
C1044 C 0.34858 0.21808 0.44941 0.0
H1045 H 0.32338 0.20685 0.29143 0.0
H1046 H 0.35972 0.22368 0.34199 0.0
C1047 C 0.33032 0.2098 0.49287 0.0
C1048 C 0.76894 0.12091 0.37375 0.0
C1049 C 0.7676 0.12377 0.44579 0.0
H1050 H 0.78137 0.10919 0.29322 0.0
C1051 C 0.77655 0.11527 0.49281 0.0
H1052 H 0.76226 0.12743 0.33641 0.0
C1053 C 0.78703 0.10444 0.46815 0.0
C1054 C 0.78922 0.10243 0.39605 0.0
H1055 H 0.7757 0.11725 0.54859 0.0
H1056 H 0.79417 0.0984 0.5055 0.0
C1057 C 0.77991 0.11056 0.34903 0.0
C1058 C 0.85889 0.68292 0.45998 0.0
C1059 C 0.87908 0.6921 0.42641 0.0
H1060 H 0.83284 0.65458 0.50676 0.0
C1061 C 0.8888 0.67937 0.41539 0.0
H1062 H 0.85112 0.69243 0.46956 0.0
C1063 C 0.87827 0.65769 0.43606 0.0
C1064 C 0.85801 0.64846 0.4692 0.0
H1065 H 0.90439 0.68607 0.38975 0.0
H1066 H 0.88592 0.64811 0.42568 0.0
C1067 C 0.84852 0.66133 0.4817 0.0
C1068 C 0.79582 0.66813 0.84943 0.0
C1069 C 0.7928 0.68335 0.88674 0.0
H1070 H 0.78875 0.63531 0.84231 0.0
C1071 C 0.77868 0.67644 0.94438 0.0
H1072 H 0.80666 0.67299 0.80495 0.0
C1073 C 0.76833 0.65479 0.96569 0.0
C1074 C 0.77214 0.63979 0.93015 0.0
H1075 H 0.77608 0.68786 0.97413 0.0
H1076 H 0.75787 0.64994 0.01112 0.0
C1077 C 0.78568 0.64658 0.87115 0.0
C1078 C 0.32823 0.11264 0.99513 0.0
C1079 C 0.3465 0.12131 0.9516 0.0
H1080 H 0.29365 0.09679 0.00095 0.0
C1081 C 0.34372 0.11979 0.87881 0.0
H1082 H 0.32999 0.11364 0.05139 0.0
C1083 C 0.32302 0.11065 0.84998 0.0
C1084 C 0.30477 0.10238 0.89351 0.0
H1085 H 0.35759 0.1265 0.84413 0.0
H1086 H 0.32129 0.11033 0.79373 0.0
C1087 C 0.3075 0.10298 0.96627 0.0
C1088 C 0.88076 0.19991 0.96743 0.0
C1089 C 0.88231 0.19724 0.89537 0.0
H1090 H 0.86821 0.21151 0.04789 0.0
C1091 C 0.87354 0.20591 0.84829 0.0
H1092 H 0.8873 0.19326 0.00481 0.0
C1093 C 0.86306 0.21675 0.87292 0.0
C1094 C 0.8607 0.21859 0.94501 0.0
H1095 H 0.87455 0.20408 0.7925 0.0
H1096 H 0.85607 0.22294 0.83555 0.0
C1097 C 0.8698 0.21026 0.99208 0.0
C1098 C 0.67511 0.78193 0.54428 0.0
C1099 C 0.67646 0.78322 0.61747 0.0
H1100 H 0.65453 0.77394 0.45456 0.0
C1101 C 0.65739 0.77508 0.657 0.0
H1102 H 0.68962 0.7883 0.51263 0.0
C1103 C 0.63733 0.76645 0.62384 0.0
C1104 C 0.63611 0.76641 0.55063 0.0
H1105 H 0.65805 0.77596 0.71349 0.0
H1106 H 0.62291 0.76087 0.65552 0.0
C1107 C 0.6551 0.77386 0.51108 0.0
C1108 C 0.20355 0.88786 0.53056 0.0
C1109 C 0.20054 0.88852 0.60284 0.0
H1110 H 0.21585 0.87658 0.44835 0.0
C1111 C 0.20965 0.87987 0.64864 0.0
H1112 H 0.1966 0.89435 0.49413 0.0
C1113 C 0.2211 0.8702 0.6225 0.0
C1114 C 0.22313 0.86853 0.55011 0.0
H1115 H 0.20759 0.88025 0.70457 0.0
H1116 H 0.22747 0.86312 0.65889 0.0
C1117 C 0.21451 0.87768 0.50436 0.0
C1118 C 0.1069 0.33831 0.56436 0.0
C1119 C 0.1284 0.34772 0.54086 0.0
H1120 H 0.08 0.31049 0.61103 0.0
C1121 C 0.1395 0.33616 0.54749 0.0
H1122 H 0.09806 0.34698 0.55997 0.0
C1123 C 0.12946 0.31573 0.57849 0.0
C1124 C 0.10796 0.30624 0.60177 0.0
H1125 H 0.15616 0.34315 0.53039 0.0
H1126 H 0.13847 0.30723 0.58352 0.0
C1127 C 0.09663 0.31754 0.59364 0.0
C1128 C -0.0038 0.54679 0.81398 0.0
C1129 C 0.01444 0.55545 0.77033 0.0
H1130 H 0.96159 0.53 0.82011 0.0
C1131 C 0.01162 0.55458 0.69757 0.0
H1132 H -0.00202 0.54727 0.87023 0.0
C1133 C 0.99084 0.54429 0.66888 0.0
C1134 C 0.97259 0.53521 0.71253 0.0
H1135 H 0.02545 0.56104 0.66277 0.0
H1136 H 0.98904 0.54312 0.61263 0.0
C1137 C 0.97543 0.537 0.7853 0.0
C1138 C 0.44501 0.45031 0.81278 0.0
C1139 C 0.43615 0.45898 0.76606 0.0
H1140 H 0.46213 0.4329 0.82482 0.0
C1141 C 0.4371 0.45588 0.69399 0.0
H1142 H 0.44445 0.45247 0.86857 0.0
C1143 C 0.44759 0.4451 0.66891 0.0
C1144 C 0.45681 0.43679 0.71557 0.0
H1145 H 0.43047 0.4625 0.65687 0.0
H1146 H 0.44876 0.44354 0.61304 0.0
C1147 C 0.45503 0.43906 0.78775 0.0
C1148 C 0.53747 0.98275 0.78718 0.0
C1149 C 0.51518 0.97041 0.77329 0.0
H1150 H 0.56627 0.01376 0.77914 0.0
C1151 C 0.50462 0.98046 0.74214 0.0
H1152 H 0.54603 0.9754 0.81103 0.0
C1153 C 0.5162 0.00226 0.7234 0.0
C1154 C 0.53856 0.0145 0.7357 0.0
H1155 H 0.48747 0.97136 0.73069 0.0
H1156 H 0.50763 0.00946 0.69857 0.0
C1157 C 0.54906 0.00465 0.76869 0.0
C1158 C 0.46863 0.99229 0.17643 0.0
C1159 C 0.46041 0.00512 0.20294 0.0
H1160 H 0.46581 0.96098 0.1733 0.0
C1161 C 0.4421 -0.00443 0.24652 0.0
H1162 H 0.48278 -0.00077 0.14296 0.0
C1163 C 0.43229 0.97359 0.26361 0.0
C1164 C 0.44079 0.96088 0.23809 0.0
H1165 H 0.43544 0.0051 0.26778 0.0
H1166 H 0.41822 0.96662 0.29746 0.0
C1167 C 0.45899 0.97042 0.19414 0.0
C1168 C 0.00993 0.45599 0.19883 0.0
C1169 C 0.01277 0.4578 0.2716 0.0
H1170 H 0.9874 0.44565 0.11386 0.0
C1171 C -0.00549 0.44872 0.31523 0.0
H1172 H 0.02377 0.46298 0.16403 0.0
C1173 C 0.97373 0.43838 0.2865 0.0
C1174 C 0.97092 0.43749 0.21373 0.0
H1175 H -0.0037 0.44991 0.37148 0.0
H1176 H 0.9599 0.43192 0.32127 0.0
C1177 C 0.98917 0.44616 0.17011 0.0
C1178 C 0.5403 0.54051 0.16709 0.0
C1179 C 0.54973 0.5324 0.21363 0.0
H1180 H 0.52273 0.55746 0.15524 0.0
C1181 C 0.5494 0.53606 0.28555 0.0
H1182 H 0.54039 0.5379 0.11141 0.0
C1183 C 0.53887 0.5468 0.31078 0.0
C1184 C 0.52906 0.55453 0.26428 0.0
H1185 H 0.55648 0.52984 0.32249 0.0
H1186 H 0.53813 0.54878 0.36661 0.0
C1187 C 0.53029 0.55175 0.19216 0.0
loop_
_geom_bond_atom_site_label_1
_geom_bond_atom_site_label_2
_geom_bond_distance
_geom_bond_site_symmetry_2
_ccdc_geom_bond_type
In0 O1 2.294 . S
In0 O2 2.326 . S
In0 O6 2.266 . S
In0 O7 2.326 . S
In0 O8 2.266 . S
In0 O9 2.326 . S
In0 O11 2.294 . S
In0 O12 2.326 . S
O1 In0 2.294 . S
O1 C10 1.240 . S
O2 In0 2.326 . S
O2 C10 1.252 . S
C3 O6 1.252 . S
C3 O7 1.260 . S
C4 O11 1.240 . S
C4 O12 1.252 . S
C5 O8 1.252 . S
C5 O9 1.260 . S
O6 In0 2.266 . S
O6 C3 1.252 . S
O7 In0 2.326 . S
O7 C3 1.260 . S
O8 In0 2.266 . S
O8 C5 1.252 . S
O9 In0 2.326 . S
O9 C5 1.260 . S
C10 O1 1.240 . S
C10 O2 1.252 . S
O11 In0 2.294 . S
O11 C4 1.240 . S
O12 In0 2.326 . S
O12 C4 1.252 . S
In13 O14 2.294 . S
In13 O15 2.326 . S
In13 O19 2.266 . S
In13 O20 2.326 . S
In13 O21 2.266 . S
In13 O22 2.326 . S
In13 O24 2.294 . S
In13 O25 2.326 . S
O14 In13 2.294 . S
O14 C23 1.240 . S
O15 In13 2.326 . S
O15 C23 1.252 . S
C16 O19 1.252 . S
C16 O20 1.260 . S
C17 O24 1.240 . S
C17 O25 1.252 . S
C18 O21 1.252 . S
C18 O22 1.260 . S
O19 In13 2.266 . S
O19 C16 1.252 . S
O20 In13 2.326 . S
O20 C16 1.260 . S
O21 In13 2.266 . S
O21 C18 1.252 . S
O22 In13 2.326 . S
O22 C18 1.260 . S
C23 O14 1.240 . S
C23 O15 1.252 . S
O24 In13 2.294 . S
O24 C17 1.240 . S
O25 In13 2.326 . S
O25 C17 1.252 . S
In26 O27 2.294 . S
In26 O28 2.326 . S
In26 O32 2.266 . S
In26 O33 2.326 . S
In26 O34 2.266 . S
In26 O35 2.326 . S
In26 O37 2.294 . S
In26 O38 2.326 . S
O27 In26 2.294 . S
O27 C36 1.240 . S
O28 In26 2.326 . S
O28 C36 1.252 . S
C29 O32 1.252 . S
C29 O33 1.260 . S
C30 O37 1.240 . S
C30 O38 1.252 . S
C31 O34 1.252 . S
C31 O35 1.260 . S
O32 In26 2.266 . S
O32 C29 1.252 . S
O33 In26 2.326 . S
O33 C29 1.260 . S
O34 In26 2.266 . S
O34 C31 1.252 . S
O35 In26 2.326 . S
O35 C31 1.260 . S
C36 O27 1.240 . S
C36 O28 1.252 . S
O37 In26 2.294 . S
O37 C30 1.240 . S
O38 In26 2.326 . S
O38 C30 1.252 . S
In39 O40 2.294 . S
In39 O41 2.326 . S
In39 O45 2.266 . S
In39 O46 2.326 . S
In39 O47 2.266 . S
In39 O48 2.326 . S
In39 O50 2.294 . S
In39 O51 2.326 . S
O40 In39 2.294 . S
O40 C49 1.240 . S
O41 In39 2.326 . S
O41 C49 1.252 . S
C42 O45 1.252 . S
C42 O46 1.260 . S
C43 O50 1.240 . S
C43 O51 1.252 . S
C44 O47 1.252 . S
C44 O48 1.260 . S
O45 In39 2.266 . S
O45 C42 1.252 . S
O46 In39 2.326 . S
O46 C42 1.260 . S
O47 In39 2.266 . S
O47 C44 1.252 . S
O48 In39 2.326 . S
O48 C44 1.260 . S
C49 O40 1.240 . S
C49 O41 1.252 . S
O50 In39 2.294 . S
O50 C43 1.240 . S
O51 In39 2.326 . S
O51 C43 1.252 . S
In52 O53 2.294 . S
In52 O54 2.326 . S
In52 O58 2.266 . S
In52 O59 2.326 . S
In52 O60 2.266 . S
In52 O61 2.326 . S
In52 O63 2.294 . S
In52 O64 2.326 . S
O53 In52 2.294 . S
O53 C62 1.240 . S
O54 In52 2.326 . S
O54 C62 1.252 . S
C55 O58 1.252 . S
C55 O59 1.260 . S
C56 O63 1.240 . S
C56 O64 1.252 . S
C57 O60 1.252 . S
C57 O61 1.260 . S
O58 In52 2.266 . S
O58 C55 1.252 . S
O59 In52 2.326 . S
O59 C55 1.260 . S
O60 In52 2.266 . S
O60 C57 1.252 . S
O61 In52 2.326 . S
O61 C57 1.260 . S
C62 O53 1.240 . S
C62 O54 1.252 . S
O63 In52 2.294 . S
O63 C56 1.240 . S
O64 In52 2.326 . S
O64 C56 1.252 . S
In65 O66 2.294 . S
In65 O67 2.326 . S
In65 O71 2.266 . S
In65 O72 2.326 . S
In65 O73 2.266 . S
In65 O74 2.326 . S
In65 O76 2.294 . S
In65 O77 2.326 . S
O66 In65 2.294 . S
O66 C75 1.240 . S
O67 In65 2.326 . S
O67 C75 1.252 . S
C68 O71 1.252 . S
C68 O72 1.260 . S
C69 O76 1.240 . S
C69 O77 1.252 . S
C70 O73 1.252 . S
C70 O74 1.260 . S
O71 In65 2.266 . S
O71 C68 1.252 . S
O72 In65 2.326 . S
O72 C68 1.260 . S
O73 In65 2.266 . S
O73 C70 1.252 . S
O74 In65 2.326 . S
O74 C70 1.260 . S
C75 O66 1.240 . S
C75 O67 1.252 . S
O76 In65 2.294 . S
O76 C69 1.240 . S
O77 In65 2.326 . S
O77 C69 1.252 . S
In78 O79 2.294 . S
In78 O80 2.326 . S
In78 O84 2.266 . S
In78 O85 2.326 . S
In78 O86 2.266 . S
In78 O87 2.326 . S
In78 O89 2.294 . S
In78 O90 2.326 . S
O79 In78 2.294 . S
O79 C88 1.240 . S
O80 In78 2.326 . S
O80 C88 1.252 . S
C81 O84 1.252 . S
C81 O85 1.260 . S
C82 O89 1.240 . S
C82 O90 1.252 . S
C83 O86 1.252 . S
C83 O87 1.260 . S
O84 In78 2.266 . S
O84 C81 1.252 . S
O85 In78 2.326 . S
O85 C81 1.260 . S
O86 In78 2.266 . S
O86 C83 1.252 . S
O87 In78 2.326 . S
O87 C83 1.260 . S
C88 O79 1.240 . S
C88 O80 1.252 . S
O89 In78 2.294 . S
O89 C82 1.240 . S
O90 In78 2.326 . S
O90 C82 1.252 . S
In91 O92 2.294 . S
In91 O93 2.326 . S
In91 O97 2.266 . S
In91 O98 2.326 . S
In91 O99 2.266 . S
In91 O100 2.326 . S
In91 O102 2.294 . S
In91 O103 2.326 . S
O92 In91 2.294 . S
O92 C101 1.240 . S
O93 In91 2.326 . S
O93 C101 1.252 . S
C94 O97 1.252 . S
C94 O98 1.260 . S
C95 O102 1.240 . S
C95 O103 1.252 . S
C96 O99 1.252 . S
C96 O100 1.260 . S
O97 In91 2.266 . S
O97 C94 1.252 . S
O98 In91 2.326 . S
O98 C94 1.260 . S
O99 In91 2.266 . S
O99 C96 1.252 . S
O100 In91 2.326 . S
O100 C96 1.260 . S
C101 O92 1.240 . S
C101 O93 1.252 . S
O102 In91 2.294 . S
O102 C95 1.240 . S
O103 In91 2.326 . S
O103 C95 1.252 . S
In104 O105 2.294 . S
In104 O106 2.326 . S
In104 O110 2.266 . S
In104 O111 2.326 . S
In104 O112 2.266 . S
In104 O113 2.326 . S
In104 O115 2.294 . S
In104 O116 2.326 . S
O105 In104 2.294 . S
O105 C114 1.240 . S
O106 In104 2.326 . S
O106 C114 1.252 . S
C107 O110 1.252 . S
C107 O111 1.260 . S
C108 O115 1.240 . S
C108 O116 1.252 . S
C109 O112 1.252 . S
C109 O113 1.260 . S
O110 In104 2.266 . S
O110 C107 1.252 . S
O111 In104 2.326 . S
O111 C107 1.260 . S
O112 In104 2.266 . S
O112 C109 1.252 . S
O113 In104 2.326 . S
O113 C109 1.260 . S
C114 O105 1.240 . S
C114 O106 1.252 . S
O115 In104 2.294 . S
O115 C108 1.240 . S
O116 In104 2.326 . S
O116 C108 1.252 . S
In117 O118 2.294 . S
In117 O119 2.326 . S
In117 O123 2.266 . S
In117 O124 2.326 . S
In117 O125 2.266 . S
In117 O126 2.326 . S
In117 O128 2.294 . S
In117 O129 2.326 . S
O118 In117 2.294 . S
O118 C127 1.240 . S
O119 In117 2.326 . S
O119 C127 1.252 . S
C120 O123 1.252 . S
C120 O124 1.260 . S
C121 O128 1.240 . S
C121 O129 1.252 . S
C122 O125 1.252 . S
C122 O126 1.260 . S
O123 In117 2.266 . S
O123 C120 1.252 . S
O124 In117 2.326 . S
O124 C120 1.260 . S
O125 In117 2.266 . S
O125 C122 1.252 . S
O126 In117 2.326 . S
O126 C122 1.260 . S
C127 O118 1.240 . S
C127 O119 1.252 . S
O128 In117 2.294 . S
O128 C121 1.240 . S
O129 In117 2.326 . S
O129 C121 1.252 . S
In130 O131 2.294 . S
In130 O132 2.326 . S
In130 O136 2.266 . S
In130 O137 2.326 . S
In130 O138 2.266 . S
In130 O139 2.326 . S
In130 O141 2.294 . S
In130 O142 2.326 . S
O131 In130 2.294 . S
O131 C140 1.240 . S
O132 In130 2.326 . S
O132 C140 1.252 . S
C133 O136 1.252 . S
C133 O137 1.260 . S
C134 O141 1.240 . S
C134 O142 1.252 . S
C135 O138 1.252 . S
C135 O139 1.260 . S
O136 In130 2.266 . S
O136 C133 1.252 . S
O137 In130 2.326 . S
O137 C133 1.260 . S
O138 In130 2.266 . S
O138 C135 1.252 . S
O139 In130 2.326 . S
O139 C135 1.260 . S
C140 O131 1.240 . S
C140 O132 1.252 . S
O141 In130 2.294 . S
O141 C134 1.240 . S
O142 In130 2.326 . S
O142 C134 1.252 . S
In143 O144 2.294 . S
In143 O145 2.326 . S
In143 O149 2.266 . S
In143 O150 2.326 . S
In143 O151 2.266 . S
In143 O152 2.326 . S
In143 O154 2.294 . S
In143 O155 2.326 . S
O144 In143 2.294 . S
O144 C153 1.240 . S
O145 In143 2.326 . S
O145 C153 1.252 . S
C146 O149 1.252 . S
C146 O150 1.260 . S
C147 O154 1.240 . S
C147 O155 1.252 . S
C148 O151 1.252 . S
C148 O152 1.260 . S
O149 In143 2.266 . S
O149 C146 1.252 . S
O150 In143 2.326 . S
O150 C146 1.260 . S
O151 In143 2.266 . S
O151 C148 1.252 . S
O152 In143 2.326 . S
O152 C148 1.260 . S
C153 O144 1.240 . S
C153 O145 1.252 . S
O154 In143 2.294 . S
O154 C147 1.240 . S
O155 In143 2.326 . S
O155 C147 1.252 . S
In156 O157 2.294 . S
In156 O158 2.326 . S
In156 O162 2.266 . S
In156 O163 2.326 . S
In156 O164 2.266 . S
In156 O165 2.326 . S
In156 O167 2.294 . S
In156 O168 2.326 . S
O157 In156 2.294 . S
O157 C166 1.240 . S
O158 In156 2.326 . S
O158 C166 1.252 . S
C159 O162 1.252 . S
C159 O163 1.260 . S
C160 O167 1.240 . S
C160 O168 1.252 . S
C161 O164 1.252 . S
C161 O165 1.260 . S
O162 In156 2.266 . S
O162 C159 1.252 . S
O163 In156 2.326 . S
O163 C159 1.260 . S
O164 In156 2.266 . S
O164 C161 1.252 . S
O165 In156 2.326 . S
O165 C161 1.260 . S
C166 O157 1.240 . S
C166 O158 1.252 . S
O167 In156 2.294 . S
O167 C160 1.240 . S
O168 In156 2.326 . S
O168 C160 1.252 . S
In169 O170 2.294 . S
In169 O171 2.326 . S
In169 O175 2.266 . S
In169 O176 2.326 . S
In169 O177 2.266 . S
In169 O178 2.326 . S
In169 O180 2.294 . S
In169 O181 2.326 . S
O170 In169 2.294 . S
O170 C179 1.240 . S
O171 In169 2.326 . S
O171 C179 1.252 . S
C172 O175 1.252 . S
C172 O176 1.260 . S
C173 O180 1.240 . S
C173 O181 1.252 . S
C174 O177 1.252 . S
C174 O178 1.260 . S
O175 In169 2.266 . S
O175 C172 1.252 . S
O176 In169 2.326 . S
O176 C172 1.260 . S
O177 In169 2.266 . S
O177 C174 1.252 . S
O178 In169 2.326 . S
O178 C174 1.260 . S
C179 O170 1.240 . S
C179 O171 1.252 . S
O180 In169 2.294 . S
O180 C173 1.240 . S
O181 In169 2.326 . S
O181 C173 1.252 . S
In182 O183 2.294 . S
In182 O184 2.326 . S
In182 O188 2.266 . S
In182 O189 2.326 . S
In182 O190 2.266 . S
In182 O191 2.326 . S
In182 O193 2.294 . S
In182 O194 2.326 . S
O183 In182 2.294 . S
O183 C192 1.240 . S
O184 In182 2.326 . S
O184 C192 1.252 . S
C185 O188 1.252 . S
C185 O189 1.260 . S
C186 O193 1.240 . S
C186 O194 1.252 . S
C187 O190 1.252 . S
C187 O191 1.260 . S
O188 In182 2.266 . S
O188 C185 1.252 . S
O189 In182 2.326 . S
O189 C185 1.260 . S
O190 In182 2.266 . S
O190 C187 1.252 . S
O191 In182 2.326 . S
O191 C187 1.260 . S
C192 O183 1.240 . S
C192 O184 1.252 . S
O193 In182 2.294 . S
O193 C186 1.240 . S
O194 In182 2.326 . S
O194 C186 1.252 . S
In195 O196 2.294 . S
In195 O197 2.326 . S
In195 O201 2.266 . S
In195 O202 2.326 . S
In195 O203 2.266 . S
In195 O204 2.326 . S
In195 O206 2.294 . S
In195 O207 2.326 . S
O196 In195 2.294 . S
O196 C205 1.240 . S
O197 In195 2.326 . S
O197 C205 1.252 . S
C198 O201 1.252 . S
C198 O202 1.260 . S
C199 O206 1.240 . S
C199 O207 1.252 . S
C200 O203 1.252 . S
C200 O204 1.260 . S
O201 In195 2.266 . S
O201 C198 1.252 . S
O202 In195 2.326 . S
O202 C198 1.260 . S
O203 In195 2.266 . S
O203 C200 1.252 . S
O204 In195 2.326 . S
O204 C200 1.260 . S
C205 O196 1.240 . S
C205 O197 1.252 . S
O206 In195 2.294 . S
O206 C199 1.240 . S
O207 In195 2.326 . S
O207 C199 1.252 . S
In208 O209 2.294 . S
In208 O210 2.326 . S
In208 O214 2.266 . S
In208 O215 2.326 . S
In208 O216 2.266 . S
In208 O217 2.326 . S
In208 O219 2.294 . S
In208 O220 2.326 . S
O209 In208 2.294 . S
O209 C218 1.240 . S
O210 In208 2.326 . S
O210 C218 1.252 . S
C211 O214 1.252 . S
C211 O215 1.260 . S
C212 O219 1.240 . S
C212 O220 1.252 . S
C213 O216 1.252 . S
C213 O217 1.260 . S
O214 In208 2.266 . S
O214 C211 1.252 . S
O215 In208 2.326 . S
O215 C211 1.260 . S
O216 In208 2.266 . S
O216 C213 1.252 . S
O217 In208 2.326 . S
O217 C213 1.260 . S
C218 O209 1.240 . S
C218 O210 1.252 . S
O219 In208 2.294 . S
O219 C212 1.240 . S
O220 In208 2.326 . S
O220 C212 1.252 . S
In221 O222 2.294 . S
In221 O223 2.326 . S
In221 O227 2.266 . S
In221 O228 2.326 . S
In221 O229 2.266 . S
In221 O230 2.326 . S
In221 O232 2.294 . S
In221 O233 2.326 . S
O222 In221 2.294 . S
O222 C231 1.240 . S
O223 In221 2.326 . S
O223 C231 1.252 . S
C224 O227 1.252 . S
C224 O228 1.260 . S
C225 O232 1.240 . S
C225 O233 1.252 . S
C226 O229 1.252 . S
C226 O230 1.260 . S
O227 In221 2.266 . S
O227 C224 1.252 . S
O228 In221 2.326 . S
O228 C224 1.260 . S
O229 In221 2.266 . S
O229 C226 1.252 . S
O230 In221 2.326 . S
O230 C226 1.260 . S
C231 O222 1.240 . S
C231 O223 1.252 . S
O232 In221 2.294 . S
O232 C225 1.240 . S
O233 In221 2.326 . S
O233 C225 1.252 . S
In234 O235 2.294 . S
In234 O236 2.326 . S
In234 O240 2.266 . S
In234 O241 2.326 . S
In234 O242 2.266 . S
In234 O243 2.326 . S
In234 O245 2.294 . S
In234 O246 2.326 . S
O235 In234 2.294 . S
O235 C244 1.240 . S
O236 In234 2.326 . S
O236 C244 1.252 . S
C237 O240 1.252 . S
C237 O241 1.260 . S
C238 O245 1.240 . S
C238 O246 1.252 . S
C239 O242 1.252 . S
C239 O243 1.260 . S
O240 In234 2.266 . S
O240 C237 1.252 . S
O241 In234 2.326 . S
O241 C237 1.260 . S
O242 In234 2.266 . S
O242 C239 1.252 . S
O243 In234 2.326 . S
O243 C239 1.260 . S
C244 O235 1.240 . S
C244 O236 1.252 . S
O245 In234 2.294 . S
O245 C238 1.240 . S
O246 In234 2.326 . S
O246 C238 1.252 . S
In247 O248 2.294 . S
In247 O249 2.326 . S
In247 O253 2.266 . S
In247 O254 2.326 . S
In247 O255 2.266 . S
In247 O256 2.326 . S
In247 O258 2.294 . S
In247 O259 2.326 . S
O248 In247 2.294 . S
O248 C257 1.240 . S
O249 In247 2.326 . S
O249 C257 1.252 . S
C250 O253 1.252 . S
C250 O254 1.260 . S
C251 O258 1.240 . S
C251 O259 1.252 . S
C252 O255 1.252 . S
C252 O256 1.260 . S
O253 In247 2.266 . S
O253 C250 1.252 . S
O254 In247 2.326 . S
O254 C250 1.260 . S
O255 In247 2.266 . S
O255 C252 1.252 . S
O256 In247 2.326 . S
O256 C252 1.260 . S
C257 O248 1.240 . S
C257 O249 1.252 . S
O258 In247 2.294 . S
O258 C251 1.240 . S
O259 In247 2.326 . S
O259 C251 1.252 . S
In260 O261 2.294 . S
In260 O262 2.326 . S
In260 O266 2.266 . S
In260 O267 2.326 . S
In260 O268 2.266 . S
In260 O269 2.326 . S
In260 O271 2.294 . S
In260 O272 2.326 . S
O261 In260 2.294 . S
O261 C270 1.240 . S
O262 In260 2.326 . S
O262 C270 1.252 . S
C263 O266 1.252 . S
C263 O267 1.260 . S
C264 O271 1.240 . S
C264 O272 1.252 . S
C265 O268 1.252 . S
C265 O269 1.260 . S
O266 In260 2.266 . S
O266 C263 1.252 . S
O267 In260 2.326 . S
O267 C263 1.260 . S
O268 In260 2.266 . S
O268 C265 1.252 . S
O269 In260 2.326 . S
O269 C265 1.260 . S
C270 O261 1.240 . S
C270 O262 1.252 . S
O271 In260 2.294 . S
O271 C264 1.240 . S
O272 In260 2.326 . S
O272 C264 1.252 . S
In273 O274 2.297 . S
In273 O275 2.328 . S
In273 O279 2.266 1_554 S
In273 O280 2.323 1_554 S
In273 O281 2.263 1_554 S
In273 O282 2.324 1_554 S
In273 O284 2.294 . S
In273 O285 2.329 . S
O274 In273 2.297 . S
O274 C283 1.240 . S
O275 In273 2.328 . S
O275 C283 1.252 . S
C276 O279 1.252 . S
C276 O280 1.260 . S
C277 O284 1.240 . S
C277 O285 1.252 . S
C278 O281 1.252 . S
C278 O282 1.260 . S
O279 In273 2.266 1_556 S
O279 C276 1.252 . S
O280 In273 2.323 1_556 S
O280 C276 1.260 . S
O281 In273 2.263 1_556 S
O281 C278 1.252 . S
O282 In273 2.324 1_556 S
O282 C278 1.260 . S
C283 O274 1.240 . S
C283 O275 1.252 . S
O284 In273 2.294 . S
O284 C277 1.240 . S
O285 In273 2.329 . S
O285 C277 1.252 . S
In286 O287 2.294 . S
In286 O288 2.329 . S
In286 O292 2.263 1_554 S
In286 O293 2.324 1_554 S
In286 O294 2.266 1_554 S
In286 O295 2.323 1_554 S
In286 O297 2.297 . S
In286 O298 2.328 . S
O287 In286 2.294 . S
O287 C296 1.240 . S
O288 In286 2.329 . S
O288 C296 1.252 . S
C289 O292 1.252 . S
C289 O293 1.260 . S
C290 O297 1.240 . S
C290 O298 1.252 . S
C291 O294 1.252 . S
C291 O295 1.260 . S
O292 In286 2.263 1_556 S
O292 C289 1.252 . S
O293 In286 2.324 1_556 S
O293 C289 1.260 . S
O294 In286 2.266 1_556 S
O294 C291 1.252 . S
O295 In286 2.323 1_556 S
O295 C291 1.260 . S
C296 O287 1.240 . S
C296 O288 1.252 . S
O297 In286 2.297 . S
O297 C290 1.240 . S
O298 In286 2.328 . S
O298 C290 1.252 . S
In299 O300 2.294 . S
In299 O301 2.329 . S
In299 O305 2.263 1_554 S
In299 O306 2.324 1_554 S
In299 O307 2.266 1_554 S
In299 O308 2.323 1_554 S
In299 O310 2.297 . S
In299 O311 2.328 . S
O300 In299 2.294 . S
O300 C309 1.240 . S
O301 In299 2.329 . S
O301 C309 1.252 . S
C302 O305 1.252 . S
C302 O306 1.260 . S
C303 O310 1.240 . S
C303 O311 1.252 . S
C304 O307 1.252 . S
C304 O308 1.260 . S
O305 In299 2.263 1_556 S
O305 C302 1.252 . S
O306 In299 2.324 1_556 S
O306 C302 1.260 . S
O307 In299 2.266 1_556 S
O307 C304 1.252 . S
O308 In299 2.323 1_556 S
O308 C304 1.260 . S
C309 O300 1.240 . S
C309 O301 1.252 . S
O310 In299 2.297 . S
O310 C303 1.240 . S
O311 In299 2.328 . S
O311 C303 1.252 . S
In312 O313 2.294 . S
In312 O314 2.326 . S
In312 O318 2.266 . S
In312 O319 2.326 . S
In312 O320 2.266 . S
In312 O321 2.326 . S
In312 O323 2.294 . S
In312 O324 2.326 . S
O313 In312 2.294 . S
O313 C322 1.240 . S
O314 In312 2.326 . S
O314 C322 1.252 . S
C315 O318 1.252 . S
C315 O319 1.260 . S
C316 O323 1.240 . S
C316 O324 1.252 . S
C317 O320 1.252 . S
C317 O321 1.260 . S
O318 In312 2.266 . S
O318 C315 1.252 . S
O319 In312 2.326 . S
O319 C315 1.260 . S
O320 In312 2.266 . S
O320 C317 1.252 . S
O321 In312 2.326 . S
O321 C317 1.260 . S
C322 O313 1.240 . S
C322 O314 1.252 . S
O323 In312 2.294 . S
O323 C316 1.240 . S
O324 In312 2.326 . S
O324 C316 1.252 . S
In325 O326 2.294 . S
In325 O327 2.326 . S
In325 O331 2.266 . S
In325 O332 2.326 . S
In325 O333 2.266 . S
In325 O334 2.326 . S
In325 O336 2.294 . S
In325 O337 2.326 . S
O326 In325 2.294 . S
O326 C335 1.240 . S
O327 In325 2.326 . S
O327 C335 1.252 . S
C328 O331 1.252 . S
C328 O332 1.260 . S
C329 O336 1.240 . S
C329 O337 1.252 . S
C330 O333 1.252 . S
C330 O334 1.260 . S
O331 In325 2.266 . S
O331 C328 1.252 . S
O332 In325 2.326 . S
O332 C328 1.260 . S
O333 In325 2.266 . S
O333 C330 1.252 . S
O334 In325 2.326 . S
O334 C330 1.260 . S
C335 O326 1.240 . S
C335 O327 1.252 . S
O336 In325 2.294 . S
O336 C329 1.240 . S
O337 In325 2.326 . S
O337 C329 1.252 . S
In338 O339 2.294 . S
In338 O340 2.326 . S
In338 O344 2.266 . S
In338 O345 2.326 . S
In338 O346 2.266 . S
In338 O347 2.326 . S
In338 O349 2.294 . S
In338 O350 2.326 . S
O339 In338 2.294 . S
O339 C348 1.240 . S
O340 In338 2.326 . S
O340 C348 1.252 . S
C341 O344 1.252 . S
C341 O345 1.260 . S
C342 O349 1.240 . S
C342 O350 1.252 . S
C343 O346 1.252 . S
C343 O347 1.260 . S
O344 In338 2.266 . S
O344 C341 1.252 . S
O345 In338 2.326 . S
O345 C341 1.260 . S
O346 In338 2.266 . S
O346 C343 1.252 . S
O347 In338 2.326 . S
O347 C343 1.260 . S
C348 O339 1.240 . S
C348 O340 1.252 . S
O349 In338 2.294 . S
O349 C342 1.240 . S
O350 In338 2.326 . S
O350 C342 1.252 . S
In351 O352 2.294 . S
In351 O353 2.329 . S
In351 O357 2.263 1_556 S
In351 O358 2.324 1_556 S
In351 O359 2.266 1_556 S
In351 O360 2.323 1_556 S
In351 O362 2.297 . S
In351 O363 2.328 . S
O352 In351 2.294 . S
O352 C361 1.240 . S
O353 In351 2.329 . S
O353 C361 1.252 . S
C354 O357 1.252 . S
C354 O358 1.260 . S
C355 O362 1.240 . S
C355 O363 1.252 . S
C356 O359 1.252 . S
C356 O360 1.260 . S
O357 In351 2.263 1_554 S
O357 C354 1.252 . S
O358 In351 2.324 1_554 S
O358 C354 1.260 . S
O359 In351 2.266 1_554 S
O359 C356 1.252 . S
O360 In351 2.323 1_554 S
O360 C356 1.260 . S
C361 O352 1.240 . S
C361 O353 1.252 . S
O362 In351 2.297 . S
O362 C355 1.240 . S
O363 In351 2.328 . S
O363 C355 1.252 . S
In364 O365 2.297 . S
In364 O366 2.328 . S
In364 O370 2.266 1_556 S
In364 O371 2.323 1_556 S
In364 O372 2.263 1_556 S
In364 O373 2.324 1_556 S
In364 O375 2.294 . S
In364 O376 2.329 . S
O365 In364 2.297 . S
O365 C374 1.240 . S
O366 In364 2.328 . S
O366 C374 1.252 . S
C367 O370 1.252 . S
C367 O371 1.260 . S
C368 O375 1.240 . S
C368 O376 1.252 . S
C369 O372 1.252 . S
C369 O373 1.260 . S
O370 In364 2.266 1_554 S
O370 C367 1.252 . S
O371 In364 2.323 1_554 S
O371 C367 1.260 . S
O372 In364 2.263 1_554 S
O372 C369 1.252 . S
O373 In364 2.324 1_554 S
O373 C369 1.260 . S
C374 O365 1.240 . S
C374 O366 1.252 . S
O375 In364 2.294 . S
O375 C368 1.240 . S
O376 In364 2.329 . S
O376 C368 1.252 . S
In377 O378 2.297 . S
In377 O379 2.328 . S
In377 O383 2.266 1_556 S
In377 O384 2.323 1_556 S
In377 O385 2.263 1_556 S
In377 O386 2.324 1_556 S
In377 O388 2.294 . S
In377 O389 2.329 . S
O378 In377 2.297 . S
O378 C387 1.240 . S
O379 In377 2.328 . S
O379 C387 1.252 . S
C380 O383 1.252 . S
C380 O384 1.260 . S
C381 O388 1.240 . S
C381 O389 1.252 . S
C382 O385 1.252 . S
C382 O386 1.260 . S
O383 In377 2.266 1_554 S
O383 C380 1.252 . S
O384 In377 2.323 1_554 S
O384 C380 1.260 . S
O385 In377 2.263 1_554 S
O385 C382 1.252 . S
O386 In377 2.324 1_554 S
O386 C382 1.260 . S
C387 O378 1.240 . S
C387 O379 1.252 . S
O388 In377 2.294 . S
O388 C381 1.240 . S
O389 In377 2.329 . S
O389 C381 1.252 . S
In390 O391 2.294 . S
In390 O392 2.326 . S
In390 O396 2.266 . S
In390 O397 2.326 . S
In390 O398 2.266 . S
In390 O399 2.326 . S
In390 O401 2.294 . S
In390 O402 2.326 . S
O391 In390 2.294 . S
O391 C400 1.240 . S
O392 In390 2.326 . S
O392 C400 1.252 . S
C393 O396 1.252 . S
C393 O397 1.260 . S
C394 O401 1.240 . S
C394 O402 1.252 . S
C395 O398 1.252 . S
C395 O399 1.260 . S
O396 In390 2.266 . S
O396 C393 1.252 . S
O397 In390 2.326 . S
O397 C393 1.260 . S
O398 In390 2.266 . S
O398 C395 1.252 . S
O399 In390 2.326 . S
O399 C395 1.260 . S
C400 O391 1.240 . S
C400 O392 1.252 . S
O401 In390 2.294 . S
O401 C394 1.240 . S
O402 In390 2.326 . S
O402 C394 1.252 . S
In403 O404 2.294 . S
In403 O405 2.326 . S
In403 O409 2.266 . S
In403 O410 2.326 . S
In403 O411 2.266 . S
In403 O412 2.326 . S
In403 O414 2.294 . S
In403 O415 2.326 . S
O404 In403 2.294 . S
O404 C413 1.240 . S
O405 In403 2.326 . S
O405 C413 1.252 . S
C406 O409 1.252 . S
C406 O410 1.260 . S
C407 O414 1.240 . S
C407 O415 1.252 . S
C408 O411 1.252 . S
C408 O412 1.260 . S
O409 In403 2.266 . S
O409 C406 1.252 . S
O410 In403 2.326 . S
O410 C406 1.260 . S
O411 In403 2.266 . S
O411 C408 1.252 . S
O412 In403 2.326 . S
O412 C408 1.260 . S
C413 O404 1.240 . S
C413 O405 1.252 . S
O414 In403 2.294 . S
O414 C407 1.240 . S
O415 In403 2.326 . S
O415 C407 1.252 . S
In416 O417 2.294 . S
In416 O418 2.326 . S
In416 O422 2.266 . S
In416 O423 2.326 . S
In416 O424 2.266 . S
In416 O425 2.326 . S
In416 O427 2.294 . S
In416 O428 2.326 . S
O417 In416 2.294 . S
O417 C426 1.240 . S
O418 In416 2.326 . S
O418 C426 1.252 . S
C419 O422 1.252 . S
C419 O423 1.260 . S
C420 O427 1.240 . S
C420 O428 1.252 . S
C421 O424 1.252 . S
C421 O425 1.260 . S
O422 In416 2.266 . S
O422 C419 1.252 . S
O423 In416 2.326 . S
O423 C419 1.260 . S
O424 In416 2.266 . S
O424 C421 1.252 . S
O425 In416 2.326 . S
O425 C421 1.260 . S
C426 O417 1.240 . S
C426 O418 1.252 . S
O427 In416 2.294 . S
O427 C420 1.240 . S
O428 In416 2.326 . S
O428 C420 1.252 . S
In429 O430 2.294 . S
In429 O431 2.326 . S
In429 O435 2.266 . S
In429 O436 2.326 . S
In429 O437 2.266 . S
In429 O438 2.326 . S
In429 O440 2.294 . S
In429 O441 2.326 . S
O430 In429 2.294 . S
O430 C439 1.240 . S
O431 In429 2.326 . S
O431 C439 1.252 . S
C432 O435 1.252 . S
C432 O436 1.260 . S
C433 O440 1.240 . S
C433 O441 1.252 . S
C434 O437 1.252 . S
C434 O438 1.260 . S
O435 In429 2.266 . S
O435 C432 1.252 . S
O436 In429 2.326 . S
O436 C432 1.260 . S
O437 In429 2.266 . S
O437 C434 1.252 . S
O438 In429 2.326 . S
O438 C434 1.260 . S
C439 O430 1.240 . S
C439 O431 1.252 . S
O440 In429 2.294 . S
O440 C433 1.240 . S
O441 In429 2.326 . S
O441 C433 1.252 . S
In442 O443 2.294 . S
In442 O444 2.326 . S
In442 O448 2.266 . S
In442 O449 2.326 . S
In442 O450 2.266 . S
In442 O451 2.326 . S
In442 O453 2.294 . S
In442 O454 2.326 . S
O443 In442 2.294 . S
O443 C452 1.240 . S
O444 In442 2.326 . S
O444 C452 1.252 . S
C445 O448 1.252 . S
C445 O449 1.260 . S
C446 O453 1.240 . S
C446 O454 1.252 . S
C447 O450 1.252 . S
C447 O451 1.260 . S
O448 In442 2.266 . S
O448 C445 1.252 . S
O449 In442 2.326 . S
O449 C445 1.260 . S
O450 In442 2.266 . S
O450 C447 1.252 . S
O451 In442 2.326 . S
O451 C447 1.260 . S
C452 O443 1.240 . S
C452 O444 1.252 . S
O453 In442 2.294 . S
O453 C446 1.240 . S
O454 In442 2.326 . S
O454 C446 1.252 . S
In455 O456 2.294 . S
In455 O457 2.326 . S
In455 O461 2.266 . S
In455 O462 2.326 . S
In455 O463 2.266 . S
In455 O464 2.326 . S
In455 O466 2.294 . S
In455 O467 2.326 . S
O456 In455 2.294 . S
O456 C465 1.240 . S
O457 In455 2.326 . S
O457 C465 1.252 . S
C458 O461 1.252 . S
C458 O462 1.260 . S
C459 O466 1.240 . S
C459 O467 1.252 . S
C460 O463 1.252 . S
C460 O464 1.260 . S
O461 In455 2.266 . S
O461 C458 1.252 . S
O462 In455 2.326 . S
O462 C458 1.260 . S
O463 In455 2.266 . S
O463 C460 1.252 . S
O464 In455 2.326 . S
O464 C460 1.260 . S
C465 O456 1.240 . S
C465 O457 1.252 . S
O466 In455 2.294 . S
O466 C459 1.240 . S
O467 In455 2.326 . S
O467 C459 1.252 . S
C468 C469 1.387 . S
C468 H472 0.950 . S
C468 C477 1.390 . S
C469 C468 1.387 . S
C469 C471 1.387 . S
H470 C477 0.950 . S
C471 C469 1.387 . S
C471 C473 1.390 . S
C471 H475 0.950 . S
H472 C468 0.950 . S
C473 C471 1.390 . S
C473 C474 1.387 . S
C473 H476 0.950 . S
C474 C473 1.387 . S
C474 C477 1.387 . S
H475 C471 0.950 . S
H476 C473 0.950 . S
C477 C468 1.390 . S
C477 H470 0.950 . S
C477 C474 1.387 . S
C478 C479 1.387 . S
C478 H482 0.950 . S
C478 C487 1.390 1_545 S
C479 C478 1.387 . S
C479 C481 1.387 . S
H480 C487 0.950 . S
C481 C479 1.387 . S
C481 C483 1.390 1_545 S
C481 H485 0.950 . S
H482 C478 0.950 . S
C483 C481 1.390 1_565 S
C483 C484 1.387 . S
C483 H486 0.950 . S
C484 C483 1.387 . S
C484 C487 1.387 . S
H485 C481 0.950 . S
H486 C483 0.950 . S
C487 C478 1.390 1_565 S
C487 H480 0.950 . S
C487 C484 1.387 . S
C488 C489 1.387 . S
C488 H492 0.950 . S
C488 C497 1.390 1_655 S
C489 C488 1.387 . S
C489 C491 1.387 . S
H490 C497 0.950 . S
C491 C489 1.387 . S
C491 C493 1.390 1_655 S
C491 H495 0.950 . S
H492 C488 0.950 . S
C493 C491 1.390 1_455 S
C493 C494 1.387 . S
C493 H496 0.950 . S
C494 C493 1.387 . S
C494 C497 1.387 . S
H495 C491 0.950 . S
H496 C493 0.950 . S
C497 C488 1.390 1_455 S
C497 H490 0.950 . S
C497 C494 1.387 . S
C498 C499 1.387 . S
C498 H502 0.950 . S
C498 C507 1.390 . S
C499 C498 1.387 . S
C499 C501 1.387 . S
H500 C507 0.950 . S
C501 C499 1.387 . S
C501 C503 1.390 . S
C501 H505 0.950 . S
H502 C498 0.950 . S
C503 C501 1.390 . S
C503 C504 1.387 . S
C503 H506 0.950 . S
C504 C503 1.387 . S
C504 C507 1.387 . S
H505 C501 0.950 . S
H506 C503 0.950 . S
C507 C498 1.390 . S
C507 H500 0.950 . S
C507 C504 1.387 . S
C508 C509 1.387 . S
C508 H512 0.950 . S
C508 C517 1.390 1_545 S
C509 C508 1.387 . S
C509 C511 1.387 . S
H510 C517 0.950 . S
C511 C509 1.387 . S
C511 C513 1.390 1_545 S
C511 H515 0.950 . S
H512 C508 0.950 . S
C513 C511 1.390 1_565 S
C513 C514 1.387 . S
C513 H516 0.950 . S
C514 C513 1.387 . S
C514 C517 1.387 . S
H515 C511 0.950 . S
H516 C513 0.950 . S
C517 C508 1.390 1_565 S
C517 H510 0.950 . S
C517 C514 1.387 . S
C518 C519 1.387 . S
C518 H522 0.950 . S
C518 C527 1.390 1_455 S
C519 C518 1.387 . S
C519 C521 1.387 . S
H520 C527 0.950 . S
C521 C519 1.387 . S
C521 C523 1.390 1_455 S
C521 H525 0.950 . S
H522 C518 0.950 . S
C523 C521 1.390 1_655 S
C523 C524 1.387 . S
C523 H526 0.950 . S
C524 C523 1.387 . S
C524 C527 1.387 . S
H525 C521 0.950 . S
H526 C523 0.950 . S
C527 C518 1.390 1_655 S
C527 H520 0.950 . S
C527 C524 1.387 . S
C528 C529 1.387 . S
C528 H532 0.950 . S
C528 C537 1.390 . S
C529 C528 1.387 . S
C529 C531 1.387 . S
H530 C537 0.950 . S
C531 C529 1.387 . S
C531 C533 1.390 . S
C531 H535 0.950 . S
H532 C528 0.950 . S
C533 C531 1.390 . S
C533 C534 1.387 . S
C533 H536 0.950 . S
C534 C533 1.387 . S
C534 C537 1.387 . S
H535 C531 0.950 . S
H536 C533 0.950 . S
C537 C528 1.390 . S
C537 H530 0.950 . S
C537 C534 1.387 . S
C538 C539 1.387 . S
C538 H542 0.950 . S
C538 C547 1.390 . S
C539 C538 1.387 . S
C539 C541 1.387 . S
H540 C547 0.950 . S
C541 C539 1.387 . S
C541 C543 1.390 . S
C541 H545 0.950 . S
H542 C538 0.950 . S
C543 C541 1.390 . S
C543 C544 1.387 . S
C543 H546 0.950 . S
C544 C543 1.387 . S
C544 C547 1.387 . S
H545 C541 0.950 . S
H546 C543 0.950 . S
C547 C538 1.390 . S
C547 H540 0.950 . S
C547 C544 1.387 . S
C548 C549 1.387 . S
C548 H552 0.950 . S
C548 C557 1.390 . S
C549 C548 1.387 . S
C549 C551 1.387 . S
H550 C557 0.950 . S
C551 C549 1.387 . S
C551 C553 1.390 . S
C551 H555 0.950 . S
H552 C548 0.950 . S
C553 C551 1.390 . S
C553 C554 1.387 . S
C553 H556 0.950 . S
C554 C553 1.387 . S
C554 C557 1.387 . S
H555 C551 0.950 . S
H556 C553 0.950 . S
C557 C548 1.390 . S
C557 H550 0.950 . S
C557 C554 1.387 . S
C558 C559 1.387 . S
C558 H562 0.950 1_554 S
C558 C567 1.390 . S
C559 C558 1.387 . S
C559 C561 1.387 . S
H560 C567 0.950 1_556 S
C561 C559 1.387 . S
C561 C563 1.390 . S
C561 H565 0.950 . S
H562 C558 0.950 1_556 S
C563 C561 1.390 . S
C563 C564 1.387 . S
C563 H566 0.950 . S
C564 C563 1.387 . S
C564 C567 1.387 . S
H565 C561 0.950 . S
H566 C563 0.950 . S
C567 C558 1.390 . S
C567 H560 0.950 1_554 S
C567 C564 1.387 . S
C568 C569 1.387 . S
C568 H572 0.950 . S
C568 C577 1.390 . S
C569 C568 1.387 . S
C569 C571 1.387 . S
H570 C577 0.950 . S
C571 C569 1.387 . S
C571 C573 1.390 . S
C571 H575 0.950 . S
H572 C568 0.950 . S
C573 C571 1.390 . S
C573 C574 1.387 . S
C573 H576 0.950 . S
C574 C573 1.387 . S
C574 C577 1.387 . S
H575 C571 0.950 . S
H576 C573 0.950 . S
C577 C568 1.390 . S
C577 H570 0.950 . S
C577 C574 1.387 . S
C578 C579 1.387 . S
C578 H582 0.950 . S
C578 C587 1.390 . S
C579 C578 1.387 . S
C579 C581 1.387 . S
H580 C587 0.950 . S
C581 C579 1.387 . S
C581 C583 1.390 . S
C581 H585 0.950 1_554 S
H582 C578 0.950 . S
C583 C581 1.390 . S
C583 C584 1.387 . S
C583 H586 0.950 1_554 S
C584 C583 1.387 . S
C584 C587 1.387 . S
H585 C581 0.950 1_556 S
H586 C583 0.950 1_556 S
C587 C578 1.390 . S
C587 H580 0.950 . S
C587 C584 1.387 . S
C588 C589 1.387 . S
C588 H592 0.950 . S
C588 C597 1.390 . S
C589 C588 1.387 . S
C589 C591 1.387 . S
H590 C597 0.950 . S
C591 C589 1.387 . S
C591 C593 1.390 . S
C591 H595 0.950 . S
H592 C588 0.950 . S
C593 C591 1.390 . S
C593 C594 1.387 . S
C593 H596 0.950 1_556 S
C594 C593 1.387 . S
C594 C597 1.387 . S
H595 C591 0.950 . S
H596 C593 0.950 1_554 S
C597 C588 1.390 . S
C597 H590 0.950 . S
C597 C594 1.387 . S
C598 C599 1.387 . S
C598 H602 0.950 . S
C598 C607 1.390 . S
C599 C598 1.387 . S
C599 C601 1.387 . S
H600 C607 0.950 . S
C601 C599 1.387 . S
C601 C603 1.390 . S
C601 H605 0.950 . S
H602 C598 0.950 . S
C603 C601 1.390 . S
C603 C604 1.387 . S
C603 H606 0.950 . S
C604 C603 1.387 . S
C604 C607 1.387 . S
H605 C601 0.950 . S
H606 C603 0.950 . S
C607 C598 1.390 . S
C607 H600 0.950 . S
C607 C604 1.387 . S
C608 C609 1.387 . S
C608 H612 0.950 . S
C608 C617 1.390 . S
C609 C608 1.387 . S
C609 C611 1.387 . S
H610 C617 0.950 . S
C611 C609 1.387 . S
C611 C613 1.390 . S
C611 H615 0.950 1_556 S
H612 C608 0.950 . S
C613 C611 1.390 . S
C613 C614 1.387 . S
C613 H616 0.950 . S
C614 C613 1.387 . S
C614 C617 1.387 . S
H615 C611 0.950 1_554 S
H616 C613 0.950 . S
C617 C608 1.390 . S
C617 H610 0.950 . S
C617 C614 1.387 . S
C618 C619 1.387 . S
C618 H622 0.950 . S
C618 C627 1.390 . S
C619 C618 1.387 . S
C619 C621 1.387 . S
H620 C627 0.950 . S
C621 C619 1.387 . S
C621 C623 1.390 . S
C621 H625 0.950 . S
H622 C618 0.950 . S
C623 C621 1.390 . S
C623 C624 1.387 . S
C623 H626 0.950 . S
C624 C623 1.387 . S
C624 C627 1.387 . S
H625 C621 0.950 . S
H626 C623 0.950 . S
C627 C618 1.390 . S
C627 H620 0.950 . S
C627 C624 1.387 . S
C628 C629 1.387 . S
C628 H632 0.950 . S
C628 C637 1.390 . S
C629 C628 1.387 . S
C629 C631 1.387 . S
H630 C637 0.950 . S
C631 C629 1.387 . S
C631 C633 1.390 . S
C631 H635 0.950 . S
H632 C628 0.950 . S
C633 C631 1.390 . S
C633 C634 1.387 . S
C633 H636 0.950 . S
C634 C633 1.387 . S
C634 C637 1.387 . S
H635 C631 0.950 . S
H636 C633 0.950 . S
C637 C628 1.390 . S
C637 H630 0.950 . S
C637 C634 1.387 . S
C638 C639 1.387 . S
C638 H642 0.950 . S
C638 C647 1.390 . S
C639 C638 1.387 . S
C639 C641 1.387 . S
H640 C647 0.950 . S
C641 C639 1.387 . S
C641 C643 1.390 . S
C641 H645 0.950 . S
H642 C638 0.950 . S
C643 C641 1.390 . S
C643 C644 1.387 . S
C643 H646 0.950 . S
C644 C643 1.387 . S
C644 C647 1.387 . S
H645 C641 0.950 . S
H646 C643 0.950 . S
C647 C638 1.390 . S
C647 H640 0.950 . S
C647 C644 1.387 . S
C648 C649 1.387 . S
C648 H652 0.950 . S
C648 C657 1.390 . S
C649 C648 1.387 . S
C649 C651 1.387 . S
H650 C657 0.950 . S
C651 C649 1.387 . S
C651 C653 1.390 . S
C651 H655 0.950 . S
H652 C648 0.950 . S
C653 C651 1.390 . S
C653 C654 1.387 . S
C653 H656 0.950 . S
C654 C653 1.387 . S
C654 C657 1.387 . S
H655 C651 0.950 . S
H656 C653 0.950 . S
C657 C648 1.390 . S
C657 H650 0.950 . S
C657 C654 1.387 . S
C658 C659 1.387 . S
C658 H662 0.950 1_556 S
C658 C667 1.390 . S
C659 C658 1.387 . S
C659 C661 1.387 . S
H660 C667 0.950 . S
C661 C659 1.387 . S
C661 C663 1.390 . S
C661 H665 0.950 . S
H662 C658 0.950 1_554 S
C663 C661 1.390 . S
C663 C664 1.387 . S
C663 H666 0.950 . S
C664 C663 1.387 . S
C664 C667 1.387 . S
H665 C661 0.950 . S
H666 C663 0.950 . S
C667 C658 1.390 . S
C667 H660 0.950 . S
C667 C664 1.387 . S
C668 C669 1.387 . S
C668 H672 0.950 . S
C668 C677 1.390 . S
C669 C668 1.387 . S
C669 C671 1.387 . S
H670 C677 0.950 . S
C671 C669 1.387 . S
C671 C673 1.390 . S
C671 H675 0.950 . S
H672 C668 0.950 . S
C673 C671 1.390 . S
C673 C674 1.387 . S
C673 H676 0.950 . S
C674 C673 1.387 . S
C674 C677 1.387 . S
H675 C671 0.950 . S
H676 C673 0.950 . S
C677 C668 1.390 . S
C677 H670 0.950 . S
C677 C674 1.387 . S
C678 C679 1.387 . S
C678 H682 0.950 . S
C678 C687 1.390 . S
C679 C678 1.387 . S
C679 C681 1.387 . S
H680 C687 0.950 . S
C681 C679 1.387 . S
C681 C683 1.390 . S
C681 H685 0.950 . S
H682 C678 0.950 . S
C683 C681 1.390 . S
C683 C684 1.387 . S
C683 H686 0.950 . S
C684 C683 1.387 . S
C684 C687 1.387 . S
H685 C681 0.950 . S
H686 C683 0.950 . S
C687 C678 1.390 . S
C687 H680 0.950 . S
C687 C684 1.387 . S
C688 C689 1.387 . S
C688 H692 0.950 . S
C688 C697 1.390 . S
C689 C688 1.387 . S
C689 C691 1.387 . S
H690 C697 0.950 . S
C691 C689 1.387 . S
C691 C693 1.390 . S
C691 H695 0.950 . S
H692 C688 0.950 . S
C693 C691 1.390 . S
C693 C694 1.387 . S
C693 H696 0.950 . S
C694 C693 1.387 . S
C694 C697 1.387 . S
H695 C691 0.950 . S
H696 C693 0.950 . S
C697 C688 1.390 . S
C697 H690 0.950 . S
C697 C694 1.387 . S
C698 C699 1.387 . S
C698 H702 0.950 . S
C698 C707 1.390 . S
C699 C698 1.387 . S
C699 C701 1.387 . S
H700 C707 0.950 . S
C701 C699 1.387 . S
C701 C703 1.390 . S
C701 H705 0.950 . S
H702 C698 0.950 . S
C703 C701 1.390 . S
C703 C704 1.387 . S
C703 H706 0.950 . S
C704 C703 1.387 . S
C704 C707 1.387 . S
H705 C701 0.950 . S
H706 C703 0.950 . S
C707 C698 1.390 . S
C707 H700 0.950 . S
C707 C704 1.387 . S
C708 C709 1.387 . S
C708 H712 0.950 . S
C708 C717 1.390 . S
C709 C708 1.387 . S
C709 C711 1.387 . S
H710 C717 0.950 . S
C711 C709 1.387 . S
C711 C713 1.390 . S
C711 H715 0.950 . S
H712 C708 0.950 . S
C713 C711 1.390 . S
C713 C714 1.387 . S
C713 H716 0.950 . S
C714 C713 1.387 . S
C714 C717 1.387 . S
H715 C711 0.950 . S
H716 C713 0.950 . S
C717 C708 1.390 . S
C717 H710 0.950 . S
C717 C714 1.387 . S
C718 C719 1.387 . S
C718 H722 0.950 1_554 S
C718 C727 1.390 . S
C719 C718 1.387 . S
C719 C721 1.387 . S
H720 C727 0.950 . S
C721 C719 1.387 . S
C721 C723 1.390 . S
C721 H725 0.950 . S
H722 C718 0.950 1_556 S
C723 C721 1.390 . S
C723 C724 1.387 . S
C723 H726 0.950 . S
C724 C723 1.387 . S
C724 C727 1.387 . S
H725 C721 0.950 . S
H726 C723 0.950 . S
C727 C718 1.390 . S
C727 H720 0.950 . S
C727 C724 1.387 . S
C728 C729 1.387 . S
C728 H732 0.950 . S
C728 C737 1.390 . S
C729 C728 1.387 . S
C729 C731 1.387 . S
H730 C737 0.950 . S
C731 C729 1.387 . S
C731 C733 1.390 . S
C731 H735 0.950 . S
H732 C728 0.950 . S
C733 C731 1.390 . S
C733 C734 1.387 . S
C733 H736 0.950 1_554 S
C734 C733 1.387 . S
C734 C737 1.387 . S
H735 C731 0.950 . S
H736 C733 0.950 1_556 S
C737 C728 1.390 . S
C737 H730 0.950 . S
C737 C734 1.387 . S
C738 C739 1.387 . S
C738 H742 0.950 . S
C738 C747 1.390 . S
C739 C738 1.387 . S
C739 C741 1.387 . S
H740 C747 0.950 . S
C741 C739 1.387 . S
C741 C743 1.390 . S
C741 H745 0.950 . S
H742 C738 0.950 . S
C743 C741 1.390 . S
C743 C744 1.387 . S
C743 H746 0.950 . S
C744 C743 1.387 . S
C744 C747 1.387 . S
H745 C741 0.950 . S
H746 C743 0.950 . S
C747 C738 1.390 . S
C747 H740 0.950 . S
C747 C744 1.387 . S
C748 C749 1.387 . S
C748 H752 0.950 . S
C748 C757 1.390 . S
C749 C748 1.387 . S
C749 C751 1.387 . S
H750 C757 0.950 . S
C751 C749 1.387 . S
C751 C753 1.390 . S
C751 H755 0.950 . S
H752 C748 0.950 . S
C753 C751 1.390 . S
C753 C754 1.387 . S
C753 H756 0.950 . S
C754 C753 1.387 . S
C754 C757 1.387 . S
H755 C751 0.950 . S
H756 C753 0.950 . S
C757 C748 1.390 . S
C757 H750 0.950 . S
C757 C754 1.387 . S
C758 C759 1.387 . S
C758 H762 0.950 . S
C758 C767 1.390 . S
C759 C758 1.387 . S
C759 C761 1.387 . S
H760 C767 0.950 . S
C761 C759 1.387 . S
C761 C763 1.390 . S
C761 H765 0.950 . S
H762 C758 0.950 . S
C763 C761 1.390 . S
C763 C764 1.387 . S
C763 H766 0.950 . S
C764 C763 1.387 . S
C764 C767 1.387 . S
H765 C761 0.950 . S
H766 C763 0.950 . S
C767 C758 1.390 . S
C767 H760 0.950 . S
C767 C764 1.387 . S
C768 C769 1.387 . S
C768 H772 0.950 . S
C768 C777 1.390 . S
C769 C768 1.387 . S
C769 C771 1.387 . S
H770 C777 0.950 . S
C771 C769 1.387 . S
C771 C773 1.390 . S
C771 H775 0.950 . S
H772 C768 0.950 . S
C773 C771 1.390 . S
C773 C774 1.387 . S
C773 H776 0.950 . S
C774 C773 1.387 . S
C774 C777 1.387 . S
H775 C771 0.950 . S
H776 C773 0.950 . S
C777 C768 1.390 . S
C777 H770 0.950 . S
C777 C774 1.387 . S
C778 C779 1.387 . S
C778 H782 0.950 . S
C778 C787 1.390 . S
C779 C778 1.387 . S
C779 C781 1.387 . S
H780 C787 0.950 . S
C781 C779 1.387 . S
C781 C783 1.390 . S
C781 H785 0.950 . S
H782 C778 0.950 . S
C783 C781 1.390 . S
C783 C784 1.387 . S
C783 H786 0.950 . S
C784 C783 1.387 . S
C784 C787 1.387 . S
H785 C781 0.950 . S
H786 C783 0.950 . S
C787 C778 1.390 . S
C787 H780 0.950 . S
C787 C784 1.387 . S
C788 C789 1.387 . S
C788 H792 0.950 . S
C788 C797 1.390 . S
C789 C788 1.387 . S
C789 C791 1.387 . S
H790 C797 0.950 . S
C791 C789 1.387 . S
C791 C793 1.390 . S
C791 H795 0.950 . S
H792 C788 0.950 . S
C793 C791 1.390 . S
C793 C794 1.387 . S
C793 H796 0.950 . S
C794 C793 1.387 . S
C794 C797 1.387 . S
H795 C791 0.950 . S
H796 C793 0.950 . S
C797 C788 1.390 . S
C797 H790 0.950 . S
C797 C794 1.387 . S
C798 C799 1.387 . S
C798 H802 0.950 . S
C798 C807 1.390 . S
C799 C798 1.387 . S
C799 C801 1.387 . S
H800 C807 0.950 . S
C801 C799 1.387 . S
C801 C803 1.390 . S
C801 H805 0.950 . S
H802 C798 0.950 . S
C803 C801 1.390 . S
C803 C804 1.387 . S
C803 H806 0.950 . S
C804 C803 1.387 . S
C804 C807 1.387 . S
H805 C801 0.950 . S
H806 C803 0.950 . S
C807 C798 1.390 . S
C807 H800 0.950 . S
C807 C804 1.387 . S
C808 C809 1.387 . S
C808 H812 0.950 1_556 S
C808 C817 1.390 . S
C809 C808 1.387 . S
C809 C811 1.387 . S
H810 C817 0.950 . S
C811 C809 1.387 . S
C811 C813 1.390 . S
C811 H815 0.950 . S
H812 C808 0.950 1_554 S
C813 C811 1.390 . S
C813 C814 1.387 . S
C813 H816 0.950 . S
C814 C813 1.387 . S
C814 C817 1.387 . S
H815 C811 0.950 . S
H816 C813 0.950 . S
C817 C808 1.390 . S
C817 H810 0.950 . S
C817 C814 1.387 . S
C818 C819 1.387 . S
C818 H822 0.950 . S
C818 C827 1.390 . S
C819 C818 1.387 . S
C819 C821 1.387 . S
H820 C827 0.950 . S
C821 C819 1.387 . S
C821 C823 1.390 . S
C821 H825 0.950 . S
H822 C818 0.950 . S
C823 C821 1.390 . S
C823 C824 1.387 . S
C823 H826 0.950 . S
C824 C823 1.387 . S
C824 C827 1.387 . S
H825 C821 0.950 . S
H826 C823 0.950 . S
C827 C818 1.390 . S
C827 H820 0.950 . S
C827 C824 1.387 . S
C828 C829 1.387 . S
C828 H832 0.950 . S
C828 C837 1.390 . S
C829 C828 1.387 . S
C829 C831 1.387 . S
H830 C837 0.950 . S
C831 C829 1.387 . S
C831 C833 1.390 . S
C831 H835 0.950 . S
H832 C828 0.950 . S
C833 C831 1.390 . S
C833 C834 1.387 . S
C833 H836 0.950 . S
C834 C833 1.387 . S
C834 C837 1.387 . S
H835 C831 0.950 . S
H836 C833 0.950 . S
C837 C828 1.390 . S
C837 H830 0.950 . S
C837 C834 1.387 . S
C838 C839 1.387 . S
C838 H842 0.950 . S
C838 C847 1.390 . S
C839 C838 1.387 . S
C839 C841 1.387 . S
H840 C847 0.950 . S
C841 C839 1.387 . S
C841 C843 1.390 . S
C841 H845 0.950 . S
H842 C838 0.950 . S
C843 C841 1.390 . S
C843 C844 1.387 . S
C843 H846 0.950 . S
C844 C843 1.387 . S
C844 C847 1.387 . S
H845 C841 0.950 . S
H846 C843 0.950 . S
C847 C838 1.390 . S
C847 H840 0.950 . S
C847 C844 1.387 . S
C848 C849 1.387 . S
C848 H852 0.950 . S
C848 C857 1.390 . S
C849 C848 1.387 . S
C849 C851 1.387 . S
H850 C857 0.950 . S
C851 C849 1.387 . S
C851 C853 1.390 . S
C851 H855 0.950 . S
H852 C848 0.950 . S
C853 C851 1.390 . S
C853 C854 1.387 . S
C853 H856 0.950 . S
C854 C853 1.387 . S
C854 C857 1.387 . S
H855 C851 0.950 . S
H856 C853 0.950 . S
C857 C848 1.390 . S
C857 H850 0.950 . S
C857 C854 1.387 . S
C858 C859 1.387 . S
C858 H862 0.950 . S
C858 C867 1.390 . S
C859 C858 1.387 . S
C859 C861 1.387 . S
H860 C867 0.950 . S
C861 C859 1.387 . S
C861 C863 1.390 . S
C861 H865 0.950 . S
H862 C858 0.950 . S
C863 C861 1.390 . S
C863 C864 1.387 . S
C863 H866 0.950 . S
C864 C863 1.387 . S
C864 C867 1.387 . S
H865 C861 0.950 . S
H866 C863 0.950 . S
C867 C858 1.390 . S
C867 H860 0.950 . S
C867 C864 1.387 . S
C868 C869 1.387 . S
C868 H872 0.950 . S
C868 C877 1.390 . S
C869 C868 1.387 . S
C869 C871 1.387 . S
H870 C877 0.950 . S
C871 C869 1.387 . S
C871 C873 1.390 . S
C871 H875 0.950 . S
H872 C868 0.950 . S
C873 C871 1.390 . S
C873 C874 1.387 . S
C873 H876 0.950 . S
C874 C873 1.387 . S
C874 C877 1.387 . S
H875 C871 0.950 . S
H876 C873 0.950 . S
C877 C868 1.390 . S
C877 H870 0.950 . S
C877 C874 1.387 . S
C878 C879 1.387 . S
C878 H882 0.950 . S
C878 C887 1.390 . S
C879 C878 1.387 . S
C879 C881 1.387 . S
H880 C887 0.950 . S
C881 C879 1.387 . S
C881 C883 1.390 . S
C881 H885 0.950 . S
H882 C878 0.950 . S
C883 C881 1.390 . S
C883 C884 1.387 . S
C883 H886 0.950 . S
C884 C883 1.387 . S
C884 C887 1.387 . S
H885 C881 0.950 . S
H886 C883 0.950 . S
C887 C878 1.390 . S
C887 H880 0.950 . S
C887 C884 1.387 . S
C888 C889 1.387 . S
C888 H892 0.950 . S
C888 C897 1.390 . S
C889 C888 1.387 . S
C889 C891 1.387 . S
H890 C897 0.950 . S
C891 C889 1.387 . S
C891 C893 1.390 . S
C891 H895 0.950 . S
H892 C888 0.950 . S
C893 C891 1.390 . S
C893 C894 1.387 . S
C893 H896 0.950 . S
C894 C893 1.387 . S
C894 C897 1.387 . S
H895 C891 0.950 . S
H896 C893 0.950 . S
C897 C888 1.390 . S
C897 H890 0.950 . S
C897 C894 1.387 . S
C898 C899 1.387 . S
C898 H902 0.950 . S
C898 C907 1.390 . S
C899 C898 1.387 . S
C899 C901 1.387 . S
H900 C907 0.950 . S
C901 C899 1.387 . S
C901 C903 1.390 . S
C901 H905 0.950 . S
H902 C898 0.950 . S
C903 C901 1.390 . S
C903 C904 1.387 . S
C903 H906 0.950 . S
C904 C903 1.387 . S
C904 C907 1.387 . S
H905 C901 0.950 . S
H906 C903 0.950 . S
C907 C898 1.390 . S
C907 H900 0.950 . S
C907 C904 1.387 . S
C908 C909 1.387 . S
C908 H912 0.950 . S
C908 C917 1.390 . S
C909 C908 1.387 . S
C909 C911 1.387 . S
H910 C917 0.950 . S
C911 C909 1.387 . S
C911 C913 1.390 . S
C911 H915 0.950 . S
H912 C908 0.950 . S
C913 C911 1.390 . S
C913 C914 1.387 . S
C913 H916 0.950 . S
C914 C913 1.387 . S
C914 C917 1.387 . S
H915 C911 0.950 . S
H916 C913 0.950 . S
C917 C908 1.390 . S
C917 H910 0.950 . S
C917 C914 1.387 . S
C918 C919 1.387 . S
C918 H922 0.950 . S
C918 C927 1.390 . S
C919 C918 1.387 . S
C919 C921 1.387 . S
H920 C927 0.950 . S
C921 C919 1.387 . S
C921 C923 1.390 . S
C921 H925 0.950 . S
H922 C918 0.950 . S
C923 C921 1.390 . S
C923 C924 1.387 . S
C923 H926 0.950 . S
C924 C923 1.387 . S
C924 C927 1.387 . S
H925 C921 0.950 . S
H926 C923 0.950 . S
C927 C918 1.390 . S
C927 H920 0.950 . S
C927 C924 1.387 . S
C928 C929 1.387 . S
C928 H932 0.950 . S
C928 C937 1.390 . S
C929 C928 1.387 . S
C929 C931 1.387 . S
H930 C937 0.950 . S
C931 C929 1.387 . S
C931 C933 1.390 . S
C931 H935 0.950 . S
H932 C928 0.950 . S
C933 C931 1.390 . S
C933 C934 1.387 . S
C933 H936 0.950 . S
C934 C933 1.387 . S
C934 C937 1.387 . S
H935 C931 0.950 . S
H936 C933 0.950 . S
C937 C928 1.390 . S
C937 H930 0.950 . S
C937 C934 1.387 . S
C938 C939 1.387 . S
C938 H942 0.950 . S
C938 C947 1.390 . S
C939 C938 1.387 . S
C939 C941 1.387 . S
H940 C947 0.950 . S
C941 C939 1.387 . S
C941 C943 1.390 . S
C941 H945 0.950 . S
H942 C938 0.950 . S
C943 C941 1.390 . S
C943 C944 1.387 . S
C943 H946 0.950 . S
C944 C943 1.387 . S
C944 C947 1.387 . S
H945 C941 0.950 . S
H946 C943 0.950 . S
C947 C938 1.390 . S
C947 H940 0.950 . S
C947 C944 1.387 . S
C948 C949 1.387 . S
C948 H952 0.950 . S
C948 C957 1.390 . S
C949 C948 1.387 . S
C949 C951 1.387 . S
H950 C957 0.950 . S
C951 C949 1.387 . S
C951 C953 1.390 . S
C951 H955 0.950 . S
H952 C948 0.950 . S
C953 C951 1.390 . S
C953 C954 1.387 . S
C953 H956 0.950 . S
C954 C953 1.387 . S
C954 C957 1.387 . S
H955 C951 0.950 . S
H956 C953 0.950 . S
C957 C948 1.390 . S
C957 H950 0.950 . S
C957 C954 1.387 . S
C958 C959 1.387 . S
C958 H962 0.950 . S
C958 C967 1.390 . S
C959 C958 1.387 . S
C959 C961 1.387 . S
H960 C967 0.950 . S
C961 C959 1.387 . S
C961 C963 1.390 . S
C961 H965 0.950 . S
H962 C958 0.950 . S
C963 C961 1.390 . S
C963 C964 1.387 . S
C963 H966 0.950 . S
C964 C963 1.387 . S
C964 C967 1.387 . S
H965 C961 0.950 . S
H966 C963 0.950 . S
C967 C958 1.390 . S
C967 H960 0.950 . S
C967 C964 1.387 . S
C968 C969 1.387 . S
C968 H972 0.950 . S
C968 C977 1.390 . S
C969 C968 1.387 . S
C969 C971 1.387 . S
H970 C977 0.950 . S
C971 C969 1.387 . S
C971 C973 1.390 . S
C971 H975 0.950 . S
H972 C968 0.950 . S
C973 C971 1.390 . S
C973 C974 1.387 . S
C973 H976 0.950 . S
C974 C973 1.387 . S
C974 C977 1.387 . S
H975 C971 0.950 . S
H976 C973 0.950 . S
C977 C968 1.390 . S
C977 H970 0.950 . S
C977 C974 1.387 . S
C978 C979 1.387 . S
C978 H982 0.950 . S
C978 C987 1.390 . S
C979 C978 1.387 . S
C979 C981 1.387 . S
H980 C987 0.950 . S
C981 C979 1.387 . S
C981 C983 1.390 . S
C981 H985 0.946 1_554 S
H982 C978 0.950 . S
C983 C981 1.390 . S
C983 C984 1.387 . S
C983 H986 0.950 . S
C984 C983 1.387 . S
C984 C987 1.387 . S
H985 C981 0.946 1_556 S
H986 C983 0.950 . S
C987 C978 1.390 . S
C987 H980 0.950 . S
C987 C984 1.387 . S
C988 C989 1.387 . S
C988 H992 0.950 . S
C988 C997 1.390 . S
C989 C988 1.387 . S
C989 C991 1.387 . S
H990 C997 0.950 . S
C991 C989 1.387 . S
C991 C993 1.390 . S
C991 H995 0.950 1_554 S
H992 C988 0.950 . S
C993 C991 1.390 . S
C993 C994 1.387 . S
C993 H996 0.950 . S
C994 C993 1.387 . S
C994 C997 1.387 . S
H995 C991 0.950 1_556 S
H996 C993 0.950 . S
C997 C988 1.390 . S
C997 H990 0.950 . S
C997 C994 1.387 . S
C998 C999 1.387 . S
C998 H1002 0.950 1_554 S
C998 C1007 1.390 . S
C999 C998 1.387 . S
C999 C1001 1.387 . S
H1000 C1007 0.950 . S
C1001 C999 1.387 . S
C1001 C1003 1.390 . S
C1001 H1005 0.950 . S
H1002 C998 0.950 1_556 S
C1003 C1001 1.390 . S
C1003 C1004 1.387 . S
C1003 H1006 0.950 . S
C1004 C1003 1.387 . S
C1004 C1007 1.387 . S
H1005 C1001 0.950 . S
H1006 C1003 0.950 . S
C1007 C998 1.390 . S
C1007 H1000 0.950 . S
C1007 C1004 1.387 . S
C1008 C1009 1.387 . S
C1008 H1012 0.950 . S
C1008 C1017 1.390 . S
C1009 C1008 1.387 . S
C1009 C1011 1.387 . S
H1010 C1017 0.950 . S
C1011 C1009 1.387 . S
C1011 C1013 1.390 . S
C1011 H1015 0.950 . S
H1012 C1008 0.950 . S
C1013 C1011 1.390 . S
C1013 C1014 1.387 . S
C1013 H1016 0.950 . S
C1014 C1013 1.387 . S
C1014 C1017 1.387 . S
H1015 C1011 0.950 . S
H1016 C1013 0.950 . S
C1017 C1008 1.390 . S
C1017 H1010 0.950 . S
C1017 C1014 1.387 . S
C1018 C1019 1.387 . S
C1018 H1022 0.950 1_554 S
C1018 C1027 1.390 . S
C1019 C1018 1.387 . S
C1019 C1021 1.387 . S
H1020 C1027 0.950 1_556 S
C1021 C1019 1.387 . S
C1021 C1023 1.390 . S
C1021 H1025 0.950 . S
H1022 C1018 0.950 1_556 S
C1023 C1021 1.390 . S
C1023 C1024 1.387 . S
C1023 H1026 0.950 . S
C1024 C1023 1.387 . S
C1024 C1027 1.387 . S
H1025 C1021 0.950 . S
H1026 C1023 0.950 . S
C1027 C1018 1.390 . S
C1027 H1020 0.950 1_554 S
C1027 C1024 1.387 . S
C1028 C1029 1.387 . S
C1028 H1032 0.950 1_554 S
C1028 C1037 1.390 . S
C1029 C1028 1.387 . S
C1029 C1031 1.387 . S
H1030 C1037 0.950 1_556 S
C1031 C1029 1.387 . S
C1031 C1033 1.390 . S
C1031 H1035 0.950 . S
H1032 C1028 0.950 1_556 S
C1033 C1031 1.390 . S
C1033 C1034 1.387 . S
C1033 H1036 0.950 . S
C1034 C1033 1.387 . S
C1034 C1037 1.387 . S
H1035 C1031 0.950 . S
H1036 C1033 0.950 . S
C1037 C1028 1.390 . S
C1037 H1030 0.950 1_554 S
C1037 C1034 1.387 . S
C1038 C1039 1.387 . S
C1038 H1042 0.950 . S
C1038 C1047 1.390 . S
C1039 C1038 1.387 . S
C1039 C1041 1.387 . S
H1040 C1047 0.950 . S
C1041 C1039 1.387 . S
C1041 C1043 1.390 . S
C1041 H1045 0.950 . S
H1042 C1038 0.950 . S
C1043 C1041 1.390 . S
C1043 C1044 1.387 . S
C1043 H1046 0.950 . S
C1044 C1043 1.387 . S
C1044 C1047 1.387 . S
H1045 C1041 0.950 . S
H1046 C1043 0.950 . S
C1047 C1038 1.390 . S
C1047 H1040 0.950 . S
C1047 C1044 1.387 . S
C1048 C1049 1.387 . S
C1048 H1052 0.950 . S
C1048 C1057 1.390 . S
C1049 C1048 1.387 . S
C1049 C1051 1.387 . S
H1050 C1057 0.950 . S
C1051 C1049 1.387 . S
C1051 C1053 1.390 . S
C1051 H1055 0.950 . S
H1052 C1048 0.950 . S
C1053 C1051 1.390 . S
C1053 C1054 1.387 . S
C1053 H1056 0.950 . S
C1054 C1053 1.387 . S
C1054 C1057 1.387 . S
H1055 C1051 0.950 . S
H1056 C1053 0.950 . S
C1057 C1048 1.390 . S
C1057 H1050 0.950 . S
C1057 C1054 1.387 . S
C1058 C1059 1.387 . S
C1058 H1062 0.950 . S
C1058 C1067 1.390 . S
C1059 C1058 1.387 . S
C1059 C1061 1.387 . S
H1060 C1067 0.950 . S
C1061 C1059 1.387 . S
C1061 C1063 1.390 . S
C1061 H1065 0.950 . S
H1062 C1058 0.950 . S
C1063 C1061 1.390 . S
C1063 C1064 1.387 . S
C1063 H1066 0.950 . S
C1064 C1063 1.387 . S
C1064 C1067 1.387 . S
H1065 C1061 0.950 . S
H1066 C1063 0.950 . S
C1067 C1058 1.390 . S
C1067 H1060 0.950 . S
C1067 C1064 1.387 . S
C1068 C1069 1.387 . S
C1068 H1072 0.950 . S
C1068 C1077 1.390 . S
C1069 C1068 1.387 . S
C1069 C1071 1.387 . S
H1070 C1077 0.950 . S
C1071 C1069 1.387 . S
C1071 C1073 1.390 . S
C1071 H1075 0.950 . S
H1072 C1068 0.950 . S
C1073 C1071 1.390 . S
C1073 C1074 1.387 . S
C1073 H1076 0.950 . S
C1074 C1073 1.387 . S
C1074 C1077 1.387 . S
H1075 C1071 0.950 . S
H1076 C1073 0.950 . S
C1077 C1068 1.390 . S
C1077 H1070 0.950 . S
C1077 C1074 1.387 . S
C1078 C1079 1.387 . S
C1078 H1082 0.950 1_556 S
C1078 C1087 1.390 . S
C1079 C1078 1.387 . S
C1079 C1081 1.387 . S
H1080 C1087 0.950 1_554 S
C1081 C1079 1.387 . S
C1081 C1083 1.390 . S
C1081 H1085 0.950 . S
H1082 C1078 0.950 1_554 S
C1083 C1081 1.390 . S
C1083 C1084 1.387 . S
C1083 H1086 0.950 . S
C1084 C1083 1.387 . S
C1084 C1087 1.387 . S
H1085 C1081 0.950 . S
H1086 C1083 0.950 . S
C1087 C1078 1.390 . S
C1087 H1080 0.950 1_556 S
C1087 C1084 1.387 . S
C1088 C1089 1.387 . S
C1088 H1092 0.950 1_556 S
C1088 C1097 1.390 . S
C1089 C1088 1.387 . S
C1089 C1091 1.387 . S
H1090 C1097 0.950 1_554 S
C1091 C1089 1.387 . S
C1091 C1093 1.390 . S
C1091 H1095 0.950 . S
H1092 C1088 0.950 1_554 S
C1093 C1091 1.390 . S
C1093 C1094 1.387 . S
C1093 H1096 0.950 . S
C1094 C1093 1.387 . S
C1094 C1097 1.387 . S
H1095 C1091 0.950 . S
H1096 C1093 0.950 . S
C1097 C1088 1.390 . S
C1097 H1090 0.950 1_556 S
C1097 C1094 1.387 . S
C1098 C1099 1.387 . S
C1098 H1102 0.950 . S
C1098 C1107 1.390 . S
C1099 C1098 1.387 . S
C1099 C1101 1.387 . S
H1100 C1107 0.950 . S
C1101 C1099 1.387 . S
C1101 C1103 1.390 . S
C1101 H1105 0.950 . S
H1102 C1098 0.950 . S
C1103 C1101 1.390 . S
C1103 C1104 1.387 . S
C1103 H1106 0.950 . S
C1104 C1103 1.387 . S
C1104 C1107 1.387 . S
H1105 C1101 0.950 . S
H1106 C1103 0.950 . S
C1107 C1098 1.390 . S
C1107 H1100 0.950 . S
C1107 C1104 1.387 . S
C1108 C1109 1.387 . S
C1108 H1112 0.950 . S
C1108 C1117 1.390 . S
C1109 C1108 1.387 . S
C1109 C1111 1.387 . S
H1110 C1117 0.950 . S
C1111 C1109 1.387 . S
C1111 C1113 1.390 . S
C1111 H1115 0.950 . S
H1112 C1108 0.950 . S
C1113 C1111 1.390 . S
C1113 C1114 1.387 . S
C1113 H1116 0.950 . S
C1114 C1113 1.387 . S
C1114 C1117 1.387 . S
H1115 C1111 0.950 . S
H1116 C1113 0.950 . S
C1117 C1108 1.390 . S
C1117 H1110 0.950 . S
C1117 C1114 1.387 . S
C1118 C1119 1.387 . S
C1118 H1122 0.950 . S
C1118 C1127 1.390 . S
C1119 C1118 1.387 . S
C1119 C1121 1.387 . S
H1120 C1127 0.950 . S
C1121 C1119 1.387 . S
C1121 C1123 1.390 . S
C1121 H1125 0.950 . S
H1122 C1118 0.950 . S
C1123 C1121 1.390 . S
C1123 C1124 1.387 . S
C1123 H1126 0.950 . S
C1124 C1123 1.387 . S
C1124 C1127 1.387 . S
H1125 C1121 0.950 . S
H1126 C1123 0.950 . S
C1127 C1118 1.390 . S
C1127 H1120 0.950 . S
C1127 C1124 1.387 . S
C1128 C1129 1.387 . S
C1128 H1132 0.950 . S
C1128 C1137 1.390 1_455 S
C1129 C1128 1.387 . S
C1129 C1131 1.387 . S
H1130 C1137 0.950 . S
C1131 C1129 1.387 . S
C1131 C1133 1.390 1_455 S
C1131 H1135 0.950 . S
H1132 C1128 0.950 . S
C1133 C1131 1.390 1_655 S
C1133 C1134 1.387 . S
C1133 H1136 0.950 . S
C1134 C1133 1.387 . S
C1134 C1137 1.387 . S
H1135 C1131 0.950 . S
H1136 C1133 0.950 . S
C1137 C1128 1.390 1_655 S
C1137 H1130 0.950 . S
C1137 C1134 1.387 . S
C1138 C1139 1.387 . S
C1138 H1142 0.950 . S
C1138 C1147 1.390 . S
C1139 C1138 1.387 . S
C1139 C1141 1.387 . S
H1140 C1147 0.950 . S
C1141 C1139 1.387 . S
C1141 C1143 1.390 . S
C1141 H1145 0.950 . S
H1142 C1138 0.950 . S
C1143 C1141 1.390 . S
C1143 C1144 1.387 . S
C1143 H1146 0.950 . S
C1144 C1143 1.387 . S
C1144 C1147 1.387 . S
H1145 C1141 0.950 . S
H1146 C1143 0.950 . S
C1147 C1138 1.390 . S
C1147 H1140 0.950 . S
C1147 C1144 1.387 . S
C1148 C1149 1.387 . S
C1148 H1152 0.950 . S
C1148 C1157 1.390 1_565 S
C1149 C1148 1.387 . S
C1149 C1151 1.387 . S
H1150 C1157 0.950 . S
C1151 C1149 1.387 . S
C1151 C1153 1.390 1_565 S
C1151 H1155 0.950 . S
H1152 C1148 0.950 . S
C1153 C1151 1.390 1_545 S
C1153 C1154 1.387 . S
C1153 H1156 0.950 . S
C1154 C1153 1.387 . S
C1154 C1157 1.387 . S
H1155 C1151 0.950 . S
H1156 C1153 0.950 . S
C1157 C1148 1.390 1_545 S
C1157 H1150 0.950 . S
C1157 C1154 1.387 . S
C1158 C1159 1.387 . S
C1158 H1162 0.950 . S
C1158 C1167 1.390 1_545 S
C1159 C1158 1.387 . S
C1159 C1161 1.387 . S
H1160 C1167 0.950 . S
C1161 C1159 1.387 . S
C1161 C1163 1.390 1_545 S
C1161 H1165 0.950 . S
H1162 C1158 0.950 . S
C1163 C1161 1.390 1_565 S
C1163 C1164 1.387 . S
C1163 H1166 0.950 . S
C1164 C1163 1.387 . S
C1164 C1167 1.387 . S
H1165 C1161 0.950 . S
H1166 C1163 0.950 . S
C1167 C1158 1.390 1_565 S
C1167 H1160 0.950 . S
C1167 C1164 1.387 . S
C1168 C1169 1.387 . S
C1168 H1172 0.950 . S
C1168 C1177 1.390 1_455 S
C1169 C1168 1.387 . S
C1169 C1171 1.387 . S
H1170 C1177 0.950 . S
C1171 C1169 1.387 . S
C1171 C1173 1.390 1_455 S
C1171 H1175 0.950 . S
H1172 C1168 0.950 . S
C1173 C1171 1.390 1_655 S
C1173 C1174 1.387 . S
C1173 H1176 0.950 . S
C1174 C1173 1.387 . S
C1174 C1177 1.387 . S
H1175 C1171 0.950 . S
H1176 C1173 0.950 . S
C1177 C1168 1.390 1_655 S
C1177 H1170 0.950 . S
C1177 C1174 1.387 . S
C1178 C1179 1.387 . S
C1178 H1182 0.950 . S
C1178 C1187 1.390 . S
C1179 C1178 1.387 . S
C1179 C1181 1.387 . S
H1180 C1187 0.950 . S
C1181 C1179 1.387 . S
C1181 C1183 1.390 . S
C1181 H1185 0.950 . S
H1182 C1178 0.950 . S
C1183 C1181 1.390 . S
C1183 C1184 1.387 . S
C1183 H1186 0.950 . S
C1184 C1183 1.387 . S
C1184 C1187 1.387 . S
H1185 C1181 0.950 . S
H1186 C1183 0.950 . S
C1187 C1178 1.390 . S
C1187 H1180 0.950 . S
C1187 C1184 1.387 . S
C469 C43 1.274 . S
C474 C10 1.273 . S
C479 C56 1.273 . S
C484 C17 1.273 . S
C489 C69 1.273 . S
C494 C36 1.273 . S
C499 C88 1.273 . S
C504 C121 1.274 . S
C509 C95 1.273 . S
C514 C140 1.273 . S
C519 C153 1.273 . S
C524 C114 1.273 . S
C529 C160 1.273 . S
C534 C205 1.273 . S
C539 C179 1.273 . S
C544 C212 1.273 . S
C549 C186 1.272 . S
C554 C225 1.273 . S
C559 C244 1.273 . S
C564 C277 1.273 . S
C569 C296 1.273 . S
C574 C251 1.273 . S
C579 C270 1.273 . S
C584 C309 1.272 . S
C589 C322 1.274 . S
C594 C361 1.273 . S
C599 C335 1.273 . S
C604 C368 1.273 . S
C609 C381 1.273 . S
C614 C342 1.272 . S
C619 C433 1.273 . S
C624 C400 1.273 . S
C629 C452 1.273 . S
C634 C407 1.273 . S
C639 C465 1.273 . S
C644 C420 1.273 . S
C649 C147 1.636 . S
C654 C3 1.671 1_556 S
C659 C18 1.672 1_556 S
C664 C127 1.635 . S
C669 C29 1.672 1_556 S
C674 C134 1.636 . S
C679 C101 1.637 . S
C684 C44 1.673 . S
C689 C57 1.673 . S
C694 C108 1.638 . S
C699 C82 1.637 . S
C704 C70 1.673 . S
C709 C81 1.672 1_554 S
C714 C75 1.636 . S
C719 C96 1.672 1_554 S
C724 C49 1.637 . S
C729 C62 1.635 . S
C734 C107 1.672 1_554 S
C739 C23 1.636 . S
C744 C122 1.673 . S
C749 C30 1.638 . S
C754 C133 1.673 . S
C759 C146 1.672 . S
C764 C4 1.637 . S
C769 C161 1.668 . S
C774 C303 1.631 . S
C779 C283 1.631 . S
C784 C172 1.667 . S
C789 C290 1.634 . S
C794 C187 1.666 . S
C799 C198 1.673 . S
C804 C257 1.637 1_556 S
C809 C264 1.637 1_556 S
C814 C213 1.673 . S
C819 C226 1.673 . S
C824 C238 1.636 1_556 S
C829 C237 1.672 . S
C834 C231 1.636 . S
C839 C252 1.672 . S
C844 C199 1.636 . S
C849 C218 1.637 . S
C854 C263 1.672 . S
C859 C173 1.640 . S
C864 C278 1.678 . S
C869 C192 1.639 . S
C874 C289 1.677 . S
C879 C302 1.676 . S
C884 C166 1.642 . S
C889 C459 1.637 . S
C894 C315 1.673 . S
C899 C328 1.672 . S
C904 C439 1.637 . S
C909 C343 1.672 . S
C914 C446 1.637 . S
C919 C354 1.676 . S
C924 C413 1.642 . S
C929 C426 1.641 . S
C934 C369 1.677 . S
C939 C382 1.675 . S
C944 C394 1.641 . S
C949 C387 1.633 . S
C954 C393 1.667 . S
C959 C355 1.632 . S
C964 C408 1.667 . S
C969 C374 1.633 . S
C974 C421 1.666 . S
C979 C329 1.638 1_554 S
C984 C434 1.673 . S
C989 C348 1.638 1_554 S
C994 C445 1.673 . S
C999 C316 1.636 1_554 S
C1004 C458 1.673 . S
C1009 C380 1.520 . S
C1014 C5 1.520 . S
C1019 C16 1.520 . S
C1024 C356 1.519 . S
C1029 C367 1.519 . S
C1034 C31 1.520 . S
C1039 C42 1.520 . S
C1044 C174 1.519 . S
C1049 C185 1.520 . S
C1054 C55 1.519 . S
C1059 C68 1.520 . S
C1064 C159 1.520 . S
C1069 C83 1.518 . S
C1074 C304 1.519 . S
C1079 C276 1.520 . S
C1084 C94 1.519 . S
C1089 C109 1.518 . S
C1094 C291 1.520 . S
C1099 C120 1.519 . S
C1104 C406 1.520 . S
C1109 C135 1.519 . S
C1114 C419 1.520 . S
C1119 C395 1.520 . S
C1124 C148 1.520 . S
C1129 C330 1.520 . S
C1134 C200 1.521 . S
C1139 C341 1.519 . S
C1144 C211 1.521 . S
C1149 C317 1.519 . S
C1154 C224 1.519 . S
C1159 C239 1.520 . S
C1164 C460 1.520 . S
C1169 C432 1.519 . S
C1174 C250 1.521 . S
C1179 C265 1.521 . S
C1184 C447 1.520 . S
