# Generated by pormake.
# Topology sra, (4)-cn, num edge types: 1
# Building blocks:
#     Node 0, Type 0, BuildingBlock: KUFVIS_clean_sbu_0, # of connection points: 4
#     Node 1, Type 0, BuildingBlock: KUFVIS_clean_sbu_0, # of connection points: 4
#     Node 2, Type 0, BuildingBlock: KUFVIS_clean_sbu_0, # of connection points: 4
#     Node 3, Type 0, BuildingBlock: KUFVIS_clean_sbu_0, # of connection points: 4
#     Node 4, Type 0, BuildingBlock: KUFVIS_clean_sbu_0, # of connection points: 4
#     Node 5, Type 0, BuildingBlock: KUFVIS_clean_sbu_0, # of connection points: 4
#     Node 6, Type 0, BuildingBlock: KUFVIS_clean_sbu_0, # of connection points: 4
#     Node 7, Type 0, BuildingBlock: KUFVIS_clean_sbu_0, # of connection points: 4
#     Edge 8, Type (0, 0), BuildingBlock: XUDNAN_clean_linker_2, # of connection points: 2
#     Edge 9, Type (0, 0), BuildingBlock: XUDNAN_clean_linker_2, # of connection points: 2
#     Edge 10, Type (0, 0), BuildingBlock: XUDNAN_clean_linker_2, # of connection points: 2
#     Edge 11, Type (0, 0), BuildingBlock: XUDNAN_clean_linker_2, # of connection points: 2
#     Edge 12, Type (0, 0), BuildingBlock: XUDNAN_clean_linker_2, # of connection points: 2
#     Edge 13, Type (0, 0), BuildingBlock: XUDNAN_clean_linker_2, # of connection points: 2
#     Edge 14, Type (0, 0), BuildingBlock: XUDNAN_clean_linker_2, # of connection points: 2
#     Edge 15, Type (0, 0), BuildingBlock: XUDNAN_clean_linker_2, # of connection points: 2
#     Edge 16, Type (0, 0), BuildingBlock: XUDNAN_clean_linker_2, # of connection points: 2
#     Edge 17, Type (0, 0), BuildingBlock: XUDNAN_clean_linker_2, # of connection points: 2
#     Edge 18, Type (0, 0), BuildingBlock: XUDNAN_clean_linker_2, # of connection points: 2
#     Edge 19, Type (0, 0), BuildingBlock: XUDNAN_clean_linker_2, # of connection points: 2
#     Edge 20, Type (0, 0), BuildingBlock: XUDNAN_clean_linker_2, # of connection points: 2
#     Edge 21, Type (0, 0), BuildingBlock: XUDNAN_clean_linker_2, # of connection points: 2
#     Edge 22, Type (0, 0), BuildingBlock: XUDNAN_clean_linker_2, # of connection points: 2
#     Edge 23, Type (0, 0), BuildingBlock: XUDNAN_clean_linker_2, # of connection points: 2
# Relax obj value: 0.055
# Max RMSD: 0.085
# Mean RMSD: 0.085
data_MOF--net-sra--node1-KUFVIS_clean_sbu_0--edge1-XUDNAN_clean_linker_2
_symmetry_space_group_name_H-M    P1
_symmetry_Int_Tables_number       1
_symmetry_cell_setting            triclinic
loop_
_symmetry_equiv_pos_as_xyz
'x, y, z'
_cell_length_a     26.546015
_cell_length_b     51.722898
_cell_length_c     33.194902
_cell_angle_alpha  89.935086
_cell_angle_beta   90.050828
_cell_angle_gamma 89.570043
loop_
_atom_site_label
_atom_site_type_symbol
_atom_site_fract_x
_atom_site_fract_y
_atom_site_fract_z
_atom_type_partial_charge
Mn0 Mn 0.98882 0.12445 0.16665 0.0
Mn1 Mn -0.00098 0.06678 0.21367 0.0
C2 C 0.91754 0.10541 0.19261 0.0
C3 C 0.98968 0.16957 0.173 0.0
C4 C 0.00885 0.07373 0.12287 0.0
O5 O 0.06307 0.12177 0.18062 0.0
O6 O 0.0644 0.08522 0.2181 0.0
C7 C 0.01522 0.0813 0.29888 0.0
N8 N 0.98767 0.06879 0.27039 0.0
C9 C 0.93177 0.05164 0.32065 0.0
C10 C 0.95959 0.06432 0.35053 0.0
C11 C 0.00147 0.07921 0.33959 0.0
C12 C 0.9478 0.05403 0.28064 0.0
H13 H 0.04736 0.09281 0.29058 0.0
C14 C 0.08531 0.10554 0.20372 0.0
O15 O -0.0018 0.15864 0.13835 0.0
O16 O 0.98184 0.15434 0.20317 0.0
N17 N 0.93734 0.04789 0.21171 0.0
C18 C 0.91125 0.03954 0.17891 0.0
C19 C 0.86615 0.02597 0.18441 0.0
C20 C 0.84839 0.02112 0.22353 0.0
C21 C 0.87583 0.02998 0.25682 0.0
C22 C 0.92066 0.04328 0.24949 0.0
H23 H 0.9245 0.04342 0.14878 0.0
O24 O 0.91407 0.12219 0.1636 0.0
O25 O 0.96303 0.09953 0.20432 0.0
O26 O 0.99742 0.09776 0.1205 0.0
O27 O 0.01148 0.06146 0.1561 0.0
C28 C 0.85963 0.02682 0.29692 0.0
C29 C 0.88771 0.03755 0.32883 0.0
H30 H 0.94869 0.06306 0.38191 0.0
H31 H 0.02298 0.08914 0.36247 0.0
H32 H 0.84499 0.01937 0.15856 0.0
H33 H 0.81332 1.01088 0.22763 0.0
H34 H 0.82512 0.01662 0.30351 0.0
H35 H 0.87433 0.03542 0.35947 0.0
Mn36 Mn 0.00868 0.40304 0.16407 0.0
Mn37 Mn 0.02983 0.46243 0.20248 0.0
C38 C 0.08779 0.41368 0.18794 0.0
C39 C 0.98716 0.35972 0.17283 0.0
C40 C 0.01513 0.45239 0.11326 0.0
O41 O 0.938 0.41587 0.17811 0.0
O42 O 0.95724 0.45412 0.2072 0.0
C43 C 0.00585 0.45447 0.28869 0.0
N44 N 0.03922 0.46137 0.25953 0.0
C45 C 0.10204 0.47206 0.309 0.0
C46 C 0.0683 0.46512 0.33957 0.0
C47 C 0.02002 0.45628 0.32936 0.0
C48 C 0.08557 0.4702 0.26902 0.0
H49 H 0.96873 0.44765 0.28095 0.0
C50 C 0.92578 0.43658 0.19691 0.0
O51 O 0.98316 0.37081 0.13783 0.0
O52 O 0.00185 0.37399 0.2026 0.0
N53 N 0.09922 0.47177 0.19985 0.0
C54 C 0.12885 0.47476 0.16671 0.0
C55 C 0.17949 0.48163 0.17163 0.0
C56 C 0.19892 0.48543 0.21048 0.0
C57 C 0.16773 0.48228 0.24414 0.0
C58 C 0.11755 0.47543 0.23738 0.0
H59 H 0.11413 0.47161 0.13681 0.0
O60 O 0.08292 0.3957 0.16101 0.0
O61 O 0.04663 0.42558 0.19844 0.0
O62 O 0.01135 0.42784 0.11554 0.0
O63 O 0.02145 0.46673 0.14397 0.0
C64 C 0.18487 0.4848 0.28413 0.0
C65 C 0.15196 0.47983 0.31654 0.0
H66 H 0.07929 0.46618 0.37096 0.0
H67 H 0.99386 0.45078 0.35278 0.0
H68 H 0.2036 0.4838 0.14559 0.0
H69 H 0.23805 0.49028 0.21403 0.0
H70 H 0.22353 0.49001 0.29031 0.0
H71 H 0.16584 0.48134 0.34714 0.0
Mn72 Mn 0.99659 0.90466 0.84783 0.0
Mn73 Mn 0.9741 0.96143 0.80001 0.0
C74 C 0.91487 0.91765 0.8322 0.0
C75 C 0.01212 0.85985 0.85265 0.0
C76 C 0.99673 0.95854 0.88837 0.0
O77 O 0.06581 0.91233 0.82402 0.0
O78 O 0.04599 0.95125 0.79774 0.0
C79 C 0.99768 0.94408 0.71712 0.0
N80 N 0.96544 0.95547 0.74372 0.0
C81 C 0.91295 0.97156 0.69009 0.0
C82 C 0.94538 0.95989 0.66204 0.0
C83 C 0.98758 0.94581 0.67565 0.0
C84 C 0.92366 0.96812 0.73103 0.0
H85 H 0.03119 0.93413 0.72746 0.0
C86 C 0.07765 0.93324 0.80598 0.0
O87 O 0.02382 0.87582 0.88113 0.0
O88 O 0.99328 0.86999 0.82003 0.0
N89 N 0.90659 0.97437 0.79905 0.0
C90 C 0.87886 0.98408 0.83014 0.0
C91 C 0.83499 0.99842 0.82185 0.0
C92 C 0.82122 1.00347 0.78173 0.0
C93 C 0.85032 0.99324 0.7502 0.0
C94 C 0.89268 0.97835 0.76035 0.0
H95 H 0.89069 0.98126 0.86098 0.0
O96 O 0.92388 0.90181 0.86173 0.0
O97 O 0.95381 0.92572 0.81221 0.0
O98 O 0.00563 0.93427 0.88867 0.0
O99 O 0.98184 0.97064 0.85715 0.0
C100 C 0.84005 0.99795 0.70914 0.0
C101 C 0.87097 0.98686 0.6791 0.0
H102 H 0.93842 0.96176 0.63 0.0
H103 H 0.01293 0.93686 0.6542 0.0
H104 H 0.81276 1.00631 0.8463 0.0
H105 H 0.78872 0.01559 0.7756 0.0
H106 H 0.80822 1.00987 0.70026 0.0
H107 H 0.86215 0.99023 0.64766 0.0
Mn108 Mn 0.01588 0.62341 0.84746 0.0
Mn109 Mn 0.01357 0.57081 0.78677 0.0
C110 C 0.09036 0.60552 0.82437 0.0
C111 C 0.01216 0.66855 0.85618 0.0
C112 C -0.00142 0.56786 0.8772 0.0
O113 O 0.94324 0.62252 0.8284 0.0
O114 O 0.94706 0.58854 0.786 0.0
C115 C -0.00062 0.59562 0.70718 0.0
N116 N 0.02634 0.57973 0.73196 0.0
C117 C 0.07568 0.56362 0.67655 0.0
C118 C 0.04859 0.57988 0.65038 0.0
C119 C 0.01064 0.59616 0.66584 0.0
C120 C 0.0639 0.56457 0.71759 0.0
H121 H 0.96908 0.6075 0.7188 0.0
C122 C 0.92349 0.60735 0.8027 0.0
O123 O 0.00105 0.65263 0.88507 0.0
O124 O 0.02474 0.6583 0.82196 0.0
N125 N 0.07518 0.55152 0.78406 0.0
C126 C 0.09918 0.53792 0.81367 0.0
C127 C 0.14057 0.52212 0.80372 0.0
C128 C 0.15559 0.5197 0.76331 0.0
C129 C 0.12957 0.53347 0.73329 0.0
C130 C 0.08994 0.54972 0.74523 0.0
H131 H 0.08681 0.53916 0.8446 0.0
O132 O 0.08958 0.62035 0.85588 0.0
O133 O 0.04755 0.60215 0.80598 0.0
O134 O 0.00445 0.59187 0.88503 0.0
O135 O 0.00046 0.55872 0.84164 0.0
C136 C 0.14091 0.53147 0.69195 0.0
C137 C 0.11385 0.54646 0.66356 0.0
H138 H 0.05659 0.58002 0.61839 0.0
H139 H 0.98947 0.6087 0.64583 0.0
H140 H 0.16026 0.51145 0.82704 0.0
H141 H 0.18694 0.50712 0.75565 0.0
H142 H 0.17087 0.51876 0.68171 0.0
H143 H 0.12346 0.54507 0.63193 0.0
Mn144 Mn 0.48343 0.62771 0.66262 0.0
Mn145 Mn 0.49463 0.5674 0.70108 0.0
C146 C 0.41347 0.60761 0.68846 0.0
C147 C 0.48584 0.67247 0.67257 0.0
C148 C 0.49514 0.57887 0.61132 0.0
O149 O 0.55813 0.62406 0.67289 0.0
O150 O 0.56157 0.58478 0.70261 0.0
C151 C 0.52106 0.5786 0.78593 0.0
N152 N 0.49009 0.56725 0.75851 0.0
C153 C 0.43966 0.54856 0.8111 0.0
C154 C 0.47118 0.55994 0.83988 0.0
C155 C 0.51201 0.57504 0.82723 0.0
C156 C 0.45106 0.55239 0.77035 0.0
H157 H 0.5524 0.59028 0.77636 0.0
C158 C 0.5819 0.60601 0.69115 0.0
O159 O 0.49214 0.66259 0.6369 0.0
O160 O 0.47942 0.65637 0.70196 0.0
N161 N 0.43215 0.54917 0.70207 0.0
C162 C 0.402 0.54228 0.67069 0.0
C163 C 0.3574 0.5287 0.67831 0.0
C164 C 0.34432 0.5223 0.71807 0.0
C165 C 0.37592 0.52963 0.74988 0.0
C166 C 0.42004 0.54302 0.74044 0.0
H167 H 0.41163 0.54734 0.6401 0.0
O168 O 0.40883 0.62599 0.66201 0.0
O169 O 0.45935 0.60097 0.6982 0.0
O170 O 0.4882 0.6033 0.61372 0.0
O171 O 0.49922 0.56429 0.64213 0.0
C172 C 0.36446 0.52496 0.79067 0.0
C173 C 0.39639 0.53435 0.82125 0.0
H174 H 0.46394 0.55754 0.87177 0.0
H175 H 0.53633 0.584 0.84927 0.0
H176 H 0.33302 0.52329 0.65363 0.0
H177 H 0.30959 0.51209 0.72386 0.0
H178 H 0.3306 0.51466 0.79888 0.0
H179 H 0.38662 0.53109 0.85251 0.0
Mn180 Mn 0.50857 0.90612 0.67153 0.0
Mn181 Mn 0.52656 0.96531 0.71161 0.0
C182 C 0.58658 0.91724 0.69707 0.0
C183 C 0.48777 0.86257 0.67901 0.0
C184 C 0.51663 0.95603 0.6218 0.0
O185 O 0.43701 0.9182 0.68398 0.0
O186 O 0.45387 0.95668 0.71314 0.0
C187 C 0.49746 0.95556 0.79634 0.0
N188 N 0.53235 0.96333 0.76891 0.0
C189 C 0.59196 0.97305 0.82131 0.0
C190 C 0.55658 0.96526 0.85014 0.0
C191 C 0.50915 0.95646 0.83758 0.0
C192 C 0.57794 0.97206 0.78067 0.0
H193 H 0.46101 0.94871 0.78681 0.0
C194 C 0.42335 0.93893 0.702 0.0
O195 O 0.48482 0.87392 0.64413 0.0
O196 O 0.50118 0.87669 0.70933 0.0
N197 N 0.59575 0.97519 0.71221 0.0
C198 C 0.6272 0.97929 0.68047 0.0
C199 C 0.67719 0.98653 0.68776 0.0
C200 C 0.69411 0.98956 0.72753 0.0
C201 C 0.66111 0.98526 0.75971 0.0
C202 C 0.61165 0.97817 0.7506 0.0
H203 H 0.61438 0.97675 0.64986 0.0
O204 O 0.58298 0.89937 0.66984 0.0
O205 O 0.54474 0.92865 0.7072 0.0
O206 O 0.51243 0.93146 0.62371 0.0
O207 O 0.52182 0.97022 0.65286 0.0
C208 C 0.67576 0.98693 0.80044 0.0
C209 C 0.64115 0.98092 0.83122 0.0
H210 H 0.56565 0.96564 0.88195 0.0
H211 H 0.48174 0.95029 0.85964 0.0
H212 H 0.70273 0.9896 0.66284 0.0
H213 H 0.73273 0.99477 0.73296 0.0
H214 H 0.71383 0.99227 0.80843 0.0
H215 H 0.65314 0.9818 0.86239 0.0
Mn216 Mn 0.49595 0.40809 0.34555 0.0
Mn217 Mn 0.47781 0.45915 0.28309 0.0
C218 C 0.41542 0.41895 0.32355 0.0
C219 C 0.5124 0.36386 0.35699 0.0
C220 C 0.49522 0.46507 0.37275 0.0
O221 O 0.5671 0.41467 0.32461 0.0
O222 O 0.54902 0.44801 0.28312 0.0
C223 C 0.49966 0.4342 0.20485 0.0
N224 N 0.46821 0.44826 0.22882 0.0
C225 C 0.41711 0.46096 0.17224 0.0
C226 C 0.44864 0.44642 0.14687 0.0
C227 C 0.48972 0.43271 0.16334 0.0
C228 C 0.42746 0.46064 0.21355 0.0
H229 H 0.53251 0.42464 0.21728 0.0
C230 C 0.57988 0.43202 0.29931 0.0
O231 O 0.52069 0.38123 0.38436 0.0
O232 O 0.49628 0.37224 0.32243 0.0
N233 N 0.41108 0.47289 0.27964 0.0
C234 C 0.38424 0.48564 0.30849 0.0
C235 C 0.34155 0.50011 0.29731 0.0
C236 C 0.32811 0.50209 0.25649 0.0
C237 C 0.35621 0.48868 0.22734 0.0
C238 C 0.39736 0.47387 0.24047 0.0
H239 H 0.39604 0.48524 0.33963 0.0
O240 O 0.42247 0.40532 0.35592 0.0
O241 O 0.45573 0.42554 0.30391 0.0
O242 O 0.49951 0.44102 0.38137 0.0
O243 O 0.48686 0.47322 0.33719 0.0
C244 C 0.34621 0.49015 0.18567 0.0
C245 C 0.37636 0.47611 0.15816 0.0
H246 H 0.44189 0.4458 0.1147 0.0
H247 H 0.51443 0.4216 0.14393 0.0
H248 H 0.32009 0.51046 0.31992 0.0
H249 H 0.2967 0.51437 0.24794 0.0
H250 H 0.31514 0.50178 0.17444 0.0
H251 H 0.36779 0.47705 0.12628 0.0
Mn252 Mn 0.52094 0.12776 0.35612 0.0
Mn253 Mn 0.51682 0.07577 0.29413 0.0
C254 C 0.59481 0.11019 0.33104 0.0
C255 C 0.51747 0.17284 0.36586 0.0
C256 C 0.50644 0.07161 0.38486 0.0
O257 O 0.4476 0.12714 0.33885 0.0
O258 O 0.44995 0.09298 0.29691 0.0
C259 C 0.49656 0.102 0.21647 0.0
N260 N 0.5253 0.08565 0.23918 0.0
C261 C 0.56896 0.06987 0.18061 0.0
C262 C 0.53999 0.0866 0.15652 0.0
C263 C 0.50405 0.10297 0.1746 0.0
C264 C 0.56113 0.0705 0.22228 0.0
H265 H 0.46763 0.11387 0.23014 0.0
C266 C 0.42681 0.1117 0.31414 0.0
O267 O 0.50739 0.15671 0.39472 0.0
O268 O 0.52895 0.16282 0.33124 0.0
N269 N 0.57825 0.05674 0.28763 0.0
C270 C 0.60437 0.04257 0.31539 0.0
C271 C 0.64412 0.0265 0.30261 0.0
C272 C 0.65506 0.02428 0.26133 0.0
C273 C 0.62678 0.03858 0.23328 0.0
C274 C 0.58923 0.05518 0.24796 0.0
H275 H 0.59481 0.04351 0.34698 0.0
O276 O 0.59477 0.12469 0.36292 0.0
O277 O 0.55151 0.10696 0.31326 0.0
O278 O 0.51077 0.09568 0.39314 0.0
O279 O 0.50805 0.06285 0.34905 0.0
C280 C 0.63379 0.03674 0.19128 0.0
C281 C 0.6049 0.05238 0.16495 0.0
H282 H 0.54492 0.087 0.12414 0.0
H283 H 0.48141 0.11586 0.15621 0.0
H284 H 0.66553 0.01538 0.32443 0.0
H285 H 0.68501 1.01143 0.25151 0.0
H286 H 0.66196 0.02373 0.17895 0.0
H287 H 0.61131 0.05116 0.13278 0.0
H288 H 0.98915 0.32088 0.11579 0.0
H289 H 0.96899 0.33532 0.2436 0.0
H290 H 0.96538 0.28847 0.25618 0.0
H291 H 0.90774 0.26323 0.11013 0.0
H292 H 0.94859 0.24675 0.07504 0.0
H293 H 0.94523 0.28157 0.07518 0.0
H294 H 0.04192 0.28352 0.08492 0.0
H295 H 0.04553 0.24873 0.08527 0.0
H296 H 0.0705 0.26689 0.12699 0.0
H297 H 0.96943 0.24104 0.2563 0.0
H298 H 0.97728 0.19448 0.24404 0.0
H299 H 0.99598 0.20894 0.11593 0.0
C300 C 0.98286 0.31412 0.14624 0.0
C301 C 0.97902 0.33173 0.17874 0.0
C302 C 0.97191 0.32219 0.21829 0.0
C303 C 0.96982 0.29561 0.22574 0.0
C304 C 0.97502 0.27875 0.19334 0.0
C305 C 0.98108 0.28747 0.15432 0.0
C306 C 0.98802 0.26491 0.12545 0.0
C307 C 0.94481 0.26407 0.09463 0.0
C308 C 0.03956 0.26609 0.10443 0.0
C309 C 0.98552 0.24225 0.15453 0.0
C310 C 0.97781 0.25087 0.19345 0.0
C311 C 0.97507 0.234 0.22594 0.0
C312 C 0.97973 0.20751 0.21857 0.0
C313 C 0.98716 0.19795 0.17897 0.0
C314 C 0.99032 0.21564 0.1465 0.0
H315 H 0.00547 0.8198 0.7968 0.0
H316 H 0.0271 0.83543 0.92413 0.0
H317 H 0.02846 0.78877 0.93821 0.0
H318 H 0.92556 0.76454 0.80807 0.0
H319 H 0.95316 0.74648 0.76715 0.0
H320 H 0.95386 0.7813 0.76627 0.0
H321 H 0.05086 0.78056 0.75818 0.0
H322 H 0.05042 0.74572 0.75879 0.0
H323 H 0.08891 0.76309 0.79423 0.0
H324 H 0.0225 0.74077 0.93989 0.0
H325 H 0.01854 0.69377 0.92791 0.0
H326 H 0.00667 0.70768 0.79928 0.0
C327 C 0.01079 0.81335 0.82756 0.0
C328 C 0.01609 0.83142 0.85936 0.0
C329 C 0.02314 0.82212 0.89918 0.0
C330 C 0.02377 0.79557 0.90759 0.0
C331 C 0.01799 0.77831 0.87583 0.0
C332 C 0.01241 0.7867 0.83651 0.0
C333 C 0.00816 0.76375 0.80807 0.0
C334 C 0.95715 0.76404 0.7861 0.0
C335 C 0.05222 0.76326 0.77804 0.0
C336 C 0.01172 0.74131 0.83767 0.0
C337 C 0.01682 0.75028 0.87663 0.0
C338 C 0.01903 0.73349 0.90947 0.0
C339 C 0.01653 0.70679 0.90238 0.0
C340 C 0.01259 0.69699 0.8627 0.0
C341 C 0.01015 0.71457 0.82993 0.0
H342 H 0.49296 0.71265 0.61749 0.0
H343 H 0.47412 0.69617 0.74494 0.0
H344 H 0.46788 0.74269 0.75908 0.0
H345 H 0.56953 0.7693 0.63065 0.0
H346 H 0.54175 0.78676 0.58908 0.0
H347 H 0.54377 0.75196 0.5884 0.0
H348 H 0.44705 0.75099 0.57816 0.0
H349 H 0.4447 0.78581 0.57914 0.0
H350 H 0.40665 0.76743 0.61363 0.0
H351 H 0.46532 0.79039 0.76051 0.0
H352 H 0.46984 0.83738 0.74926 0.0
H353 H 0.48928 0.82434 0.62101 0.0
C354 C 0.48758 0.71888 0.64833 0.0
C355 C 0.484 0.7007 0.68009 0.0
C356 C 0.47696 0.70964 0.72005 0.0
C357 C 0.47321 0.73607 0.72845 0.0
C358 C 0.47647 0.75345 0.6966 0.0
C359 C 0.48369 0.74536 0.65735 0.0
C360 C 0.48696 0.76839 0.62903 0.0
C361 C 0.53857 0.76914 0.60806 0.0
C362 C 0.44376 0.76813 0.59816 0.0
C363 C 0.48084 0.79056 0.65865 0.0
C364 C 0.47464 0.78137 0.69741 0.0
C365 C 0.4699 0.79788 0.73029 0.0
C366 C 0.4725 0.82454 0.72358 0.0
C367 C 0.47962 0.83452 0.68428 0.0
C368 C 0.48306 0.81727 0.6513 0.0
H369 H 0.51097 0.32298 0.30346 0.0
H370 H 0.52473 0.34098 0.43064 0.0
H371 H 0.52716 0.29436 0.44658 0.0
H372 H 0.43192 0.26783 0.31388 0.0
H373 H 0.46189 0.24949 0.27434 0.0
H374 H 0.46198 0.2843 0.27259 0.0
H375 H 0.55936 0.284 0.26766 0.0
H376 H 0.55954 0.24918 0.26912 0.0
H377 H 0.59588 0.2671 0.30533 0.0
H378 H 0.52299 0.24566 0.44921 0.0
H379 H 0.52045 0.19848 0.4378 0.0
H380 H 0.51406 0.21162 0.30877 0.0
C381 C 0.51487 0.31711 0.33464 0.0
C382 C 0.5176 0.33573 0.36582 0.0
C383 C 0.52277 0.32717 0.4062 0.0
C384 C 0.52399 0.30068 0.41559 0.0
C385 C 0.5206 0.28285 0.38426 0.0
C386 C 0.51685 0.29067 0.34453 0.0
C387 C 0.51448 0.26748 0.31656 0.0
C388 C 0.4646 0.26727 0.29296 0.0
C389 C 0.56003 0.26691 0.28798 0.0
C390 C 0.51696 0.24543 0.34677 0.0
C391 C 0.52005 0.25475 0.38569 0.0
C392 C 0.52107 0.23816 0.41884 0.0
C393 C 0.5194 0.21136 0.41206 0.0
C394 C 0.51734 0.20129 0.37243 0.0
C395 C 0.51608 0.21867 0.33943 0.0
H396 H 0.35788 0.07545 0.29306 0.0
H397 H 0.37739 0.15811 0.30761 0.0
H398 H 0.29218 0.1657 0.27928 0.0
H399 H 0.29246 0.07703 0.20072 0.0
H400 H 0.25 0.0512 0.21322 0.0
H401 H 0.31164 0.05221 0.23582 0.0
H402 H 0.27188 0.05115 0.30711 0.0
H403 H 0.21013 0.04972 0.28474 0.0
H404 H 0.22462 0.07486 0.32038 0.0
H405 H 0.20805 0.16411 0.24393 0.0
H406 H 0.12571 0.15346 0.21365 0.0
H407 H 0.1598 0.07166 0.22635 0.0
C408 C 0.34394 0.09513 0.2907 0.0
C409 C 0.374 0.11623 0.30237 0.0
C410 C 0.3546 0.14171 0.2991 0.0
C411 C 0.30652 0.14618 0.28279 0.0
C412 C 0.2783 0.12493 0.27064 0.0
C413 C 0.29587 0.09989 0.27525 0.0
C414 C 0.25788 0.08039 0.26053 0.0
C415 C 0.27929 0.06426 0.22549 0.0
C416 C 0.24007 0.06301 0.29526 0.0
C417 C 0.21636 0.09837 0.24636 0.0
C418 C 0.2291 0.12399 0.25196 0.0
C419 C 0.19743 0.14413 0.23981 0.0
C420 C 0.151 0.13788 0.22233 0.0
C421 C 0.1365 0.11174 0.21776 0.0
C422 C 0.16985 0.0918 0.22971 0.0
H423 H 0.65232 0.3959 0.27733 0.0
H424 H 0.62652 0.47775 0.29819 0.0
H425 H 0.71168 0.48737 0.27354 0.0
H426 H 0.78757 0.39552 0.30456 0.0
H427 H 0.80432 0.37284 0.26553 0.0
H428 H 0.74253 0.3719 0.28789 0.0
H429 H 0.70254 0.37641 0.217 0.0
H430 H 0.76419 0.3778 0.1945 0.0
H431 H 0.71925 0.40348 0.18559 0.0
H432 H 0.79583 0.48898 0.24403 0.0
H433 H 0.87972 0.48223 0.21449 0.0
H434 H 0.85344 0.39943 0.21039 0.0
C435 C 0.66532 0.4157 0.2775 0.0
C436 C 0.63326 0.43613 0.28977 0.0
C437 C 0.65076 0.4619 0.28886 0.0
C438 C 0.69894 0.46757 0.27489 0.0
C439 C 0.72917 0.44724 0.26175 0.0
C440 C 0.71358 0.4218 0.26314 0.0
C441 C 0.75362 0.40393 0.24569 0.0
C442 C 0.77317 0.38493 0.27784 0.0
C443 C 0.73369 0.38956 0.20848 0.0
C444 C 0.79363 0.42342 0.23414 0.0
C445 C 0.77845 0.44824 0.24382 0.0
C446 C 0.80843 0.46964 0.23644 0.0
C447 C 0.85597 0.4656 0.21955 0.0
C448 C 0.87312 0.44033 0.21006 0.0
C449 C 0.84112 0.41899 0.2169 0.0
H450 H 0.15144 0.89757 0.78416 0.0
H451 H 0.12198 0.97979 0.79859 0.0
H452 H 0.20532 0.98958 0.77095 0.0
H453 H 0.28549 0.90014 0.80996 0.0
H454 H 0.30363 0.87626 0.77311 0.0
H455 H 0.24181 0.87531 0.79538 0.0
H456 H 0.20194 0.87665 0.72414 0.0
H457 H 0.26365 0.87799 0.70169 0.0
H458 H 0.21751 0.90269 0.69033 0.0
H459 H 0.28927 0.99128 0.74105 0.0
H460 H 0.37449 0.98453 0.71387 0.0
H461 H 0.35236 0.90141 0.71698 0.0
C462 C 0.163 0.91756 0.78201 0.0
C463 C 0.13014 0.93792 0.7934 0.0
C464 C 0.14632 0.96388 0.78975 0.0
C465 C 0.1936 0.96969 0.77406 0.0
C466 C 0.2245 0.94935 0.76204 0.0
C467 C 0.21039 0.9238 0.76604 0.0
C468 C 0.25146 0.90587 0.75035 0.0
C469 C 0.27181 0.88837 0.78422 0.0
C470 C 0.23249 0.88986 0.71449 0.0
C471 C 0.29051 0.92544 0.7371 0.0
C472 C 0.2738 0.95037 0.74413 0.0
C473 C 0.30297 0.97187 0.73536 0.0
C474 C 0.35128 0.96783 0.71988 0.0
C475 C 0.36996 0.94248 0.71319 0.0
C476 C 0.33876 0.92101 0.72124 0.0
H477 H 0.65576 0.5708 0.7114 0.0
H478 H 0.62547 0.65318 0.70108 0.0
H479 H 0.70865 0.66245 0.73045 0.0
H480 H 0.72065 0.57245 0.80459 0.0
H481 H 0.76685 0.54826 0.79108 0.0
H482 H 0.70526 0.54783 0.7683 0.0
H483 H 0.74538 0.54944 0.69717 0.0
H484 H 0.80711 0.54948 0.71972 0.0
H485 H 0.78908 0.57483 0.68517 0.0
H486 H 0.79215 0.66283 0.76586 0.0
H487 H 0.87618 0.65419 0.79553 0.0
H488 H 0.85416 0.57185 0.77883 0.0
C489 C 0.66689 0.59077 0.71488 0.0
C490 C 0.63414 0.61124 0.70393 0.0
C491 C 0.6501 0.63715 0.70889 0.0
C492 C 0.69712 0.64264 0.72586 0.0
C493 C 0.72802 0.62203 0.73715 0.0
C494 C 0.71407 0.59663 0.73112 0.0
C495 C 0.75485 0.57809 0.74511 0.0
C496 C 0.73574 0.56063 0.7793 0.0
C497 C 0.77532 0.56202 0.70968 0.0
C498 C 0.79361 0.59706 0.76028 0.0
C499 C 0.77712 0.6223 0.75596 0.0
C500 C 0.80576 0.64316 0.76904 0.0
C501 C 0.85315 0.63808 0.78612 0.0
C502 C 0.87149 0.6124 0.78926 0.0
C503 C 0.84108 0.59169 0.77649 0.0
H504 H 0.6863 0.91476 0.67517 0.0
H505 H 0.58704 0.91738 0.7785 0.0
H506 H 0.66039 0.92073 0.82389 0.0
H507 H 0.77903 0.87286 0.73008 0.0
H508 H 0.83166 0.88625 0.70311 0.0
H509 H 0.77084 0.88435 0.67919 0.0
H510 H 0.77378 0.93316 0.66459 0.0
H511 H 0.83378 0.93548 0.68945 0.0
H512 H 0.78127 0.95543 0.70563 0.0
H513 H 0.74353 0.9264 0.85747 0.0
H514 H 0.8328 0.92585 0.87895 0.0
H515 H 0.87945 0.91642 0.75469 0.0
C516 C 0.68028 0.9163 0.70734 0.0
C517 C 0.63121 0.91794 0.72339 0.0
C518 C 0.62446 0.91811 0.76564 0.0
C519 C 0.66584 0.91966 0.79163 0.0
C520 C 0.7138 0.91981 0.77484 0.0
C521 C 0.72137 0.91701 0.73388 0.0
C522 C 0.777 0.91513 0.72422 0.0
C523 C 0.79041 0.88804 0.70821 0.0
C524 C 0.79244 0.93611 0.69419 0.0
C525 C 0.79952 0.91943 0.76573 0.0
C526 C 0.76218 0.92171 0.79452 0.0
C527 C 0.7732 0.92461 0.83529 0.0
C528 C 0.82384 0.92439 0.84719 0.0
C529 C 0.86268 0.9217 0.81839 0.0
C530 C 0.85038 0.91939 0.77711 0.0
H531 H 0.31472 0.60867 0.66648 0.0
H532 H 0.41264 0.59971 0.76944 0.0
H533 H 0.33974 0.58926 0.81236 0.0
H534 H 0.23035 0.64681 0.73005 0.0
H535 H 0.17561 0.63872 0.70063 0.0
H536 H 0.23659 0.63996 0.67706 0.0
H537 H 0.22534 0.59347 0.65166 0.0
H538 H 0.16494 0.59187 0.67574 0.0
H539 H 0.21339 0.56793 0.68704 0.0
H540 H 0.25637 0.58088 0.84378 0.0
H541 H 0.16842 0.58601 0.86685 0.0
H542 H 0.12334 0.60905 0.74648 0.0
C543 C 0.32076 0.60351 0.69776 0.0
C544 C 0.36979 0.60137 0.71379 0.0
C545 C 0.376 0.59772 0.75568 0.0
C546 C 0.33462 0.59251 0.78041 0.0
C547 C 0.28683 0.59324 0.76319 0.0
C548 C 0.27963 0.60021 0.72343 0.0
C549 C 0.22469 0.60564 0.7147 0.0
C550 C 0.21634 0.63449 0.70506 0.0
C551 C 0.20586 0.58862 0.68026 0.0
C552 C 0.20148 0.59858 0.75494 0.0
C553 C 0.23827 0.59153 0.78247 0.0
C554 C 0.2271 0.58619 0.82256 0.0
C555 C 0.17719 0.58907 0.83534 0.0
C556 C 0.13924 0.59716 0.80812 0.0
C557 C 0.15137 0.60167 0.76733 0.0
H558 H 0.62695 0.11173 0.25232 0.0
H559 H 0.67324 0.09166 0.37373 0.0
H560 H 0.76088 0.08608 0.3505 0.0
H561 H 0.71535 0.06783 0.19666 0.0
H562 H 0.72741 0.09161 0.15836 0.0
H563 H 0.66742 0.09162 0.1833 0.0
H564 H 0.67904 0.13912 0.203 0.0
H565 H 0.7397 0.13925 0.17876 0.0
H566 H 0.7343 0.1483 0.23099 0.0
H567 H 0.84356 0.09461 0.31843 0.0
H568 H 0.91614 0.10285 0.27423 0.0
H569 H 0.81817 0.10659 0.17068 0.0
C570 C 0.65518 0.10493 0.27344 0.0
C571 C 0.64343 0.10147 0.3146 0.0
C572 C 0.68166 0.09401 0.34201 0.0
C573 C 0.73143 0.09089 0.32915 0.0
C574 C 0.74221 0.09519 0.28872 0.0
C575 C 0.7052 0.10134 0.2609 0.0
C576 C 0.72822 0.10661 0.21985 0.0
C577 C 0.7083 0.08821 0.18764 0.0
C578 C 0.71981 0.135 0.20744 0.0
C579 C 0.78318 0.10126 0.2287 0.0
C580 C 0.79056 0.09604 0.26906 0.0
C581 C 0.83834 0.09616 0.28618 0.0
C582 C 0.87957 0.10003 0.26078 0.0
C583 C 0.87337 0.10125 0.21856 0.0
C584 C 0.82426 0.103 0.20247 0.0
H585 H 0.18753 0.40873 0.16604 0.0
H586 H 0.08862 0.41509 0.26921 0.0
H587 H 0.16204 0.41979 0.31409 0.0
H588 H 0.28001 0.36823 0.22704 0.0
H589 H 0.33284 0.37986 0.19836 0.0
H590 H 0.27202 0.37676 0.17474 0.0
H591 H 0.27523 0.42462 0.1534 0.0
H592 H 0.33541 0.42779 0.17757 0.0
H593 H 0.28367 0.44906 0.19122 0.0
H594 H 0.24436 0.4294 0.34602 0.0
H595 H 0.33333 0.43089 0.36761 0.0
H596 H 0.38108 0.41298 0.24584 0.0
C597 C 0.18164 0.4113 0.19807 0.0
C598 C 0.13265 0.41399 0.21402 0.0
C599 C 0.12601 0.41526 0.25623 0.0
C600 C 0.16741 0.41757 0.28197 0.0
C601 C 0.21526 0.41715 0.26507 0.0
C602 C 0.22279 0.41254 0.22454 0.0
C603 C 0.27846 0.40999 0.21524 0.0
C604 C 0.2916 0.38205 0.20314 0.0
C605 C 0.29417 0.42908 0.1824 0.0
C606 C 0.30097 0.41661 0.25604 0.0
C607 C 0.26351 0.42035 0.28435 0.0
C608 C 0.27419 0.42621 0.32434 0.0
C609 C 0.32468 0.42721 0.33624 0.0
C610 C 0.36379 0.4226 0.30823 0.0
C611 C 0.35183 0.41746 0.2675 0.0
H612 H 0.9624 0.07449 0.04756 0.0
H613 H 0.08051 0.0369 0.11718 0.0
H614 H 0.09163 1.00448 0.06386 0.0
H615 H 0.90664 0.01806 0.01154 0.0
H616 H 0.89287 0.02965 0.96147 0.0
H617 H 0.89711 0.05215 1.00267 0.0
H618 H 0.9653 0.07801 0.96454 0.0
H619 H 0.96066 0.05582 0.92287 0.0
H620 H 0.02082 0.0615 0.94634 0.0
H621 H 0.08311 0.97295 0.00862 0.0
H622 H 0.06282 0.94682 0.94874 0.0
H623 H 0.95302 1.00477 0.91155 0.0
C624 C 0.99167 0.05994 0.0508 0.0
C625 C 0.02069 0.05826 0.0865 0.0
C626 C 0.0578 0.03853 0.09013 0.0
C627 C 0.06442 0.01997 0.06003 0.0
C628 C 0.03395 0.02139 0.02606 0.0
C629 C -0.00103 0.04108 0.02068 0.0
C630 C 0.96995 0.03717 0.98167 0.0
C631 C 0.91329 0.03407 0.98985 0.0
C632 C 0.97978 0.05945 0.9521 0.0
C633 C 0.99339 1.01201 0.96679 0.0
C634 C 0.03005 1.00327 0.99307 0.0
C635 C 0.05507 0.97977 0.98737 0.0
C636 C 0.04299 0.96494 0.95344 0.0
C637 C 0.00657 0.97375 0.92535 0.0
C638 C 0.98146 0.99764 0.93226 0.0
H639 H 0.02513 0.57142 0.95808 0.0
H640 H 0.95687 0.52027 0.8702 0.0
H641 H 0.95429 0.4855 0.92051 0.0
H642 H 0.10362 0.52403 0.00398 0.0
H643 H 0.09601 0.53583 0.05469 0.0
H644 H 0.09005 0.55776 0.01274 0.0
H645 H 0.00105 0.5715 0.03694 0.0
H646 H 0.00703 0.54987 0.07929 0.0
H647 H 0.95409 0.5471 0.04557 0.0
H648 H 0.96403 0.45502 0.9783 0.0
H649 H 0.97861 0.4321 0.04265 0.0
H650 H 0.0392 0.50256 0.09406 0.0
C651 C 0.0087 0.55309 0.94973 0.0
C652 C 0.9913 0.54868 0.91004 0.0
C653 C 0.97074 0.5242 0.90026 0.0
C654 C 0.96908 0.50422 0.92864 0.0
C655 C 0.9879 0.50887 0.967 0.0
C656 C 0.00673 0.53274 0.97788 0.0
C657 C 0.02535 0.53224 0.02112 0.0
C658 C 0.08213 0.53779 0.02323 0.0
C659 C 0.99506 0.55131 0.04727 0.0
C660 C 0.01429 0.50439 0.03247 0.0
C661 C 0.99291 0.49124 1.00072 0.0
C662 C 0.98041 0.46515 0.00357 0.0
C663 C 0.98912 0.45223 0.04018 0.0
C664 C 0.00987 0.46545 0.07356 0.0
C665 C 0.02295 0.49186 0.06928 0.0
H666 H 0.49414 0.45967 0.45645 0.0
H667 H 0.50594 0.51681 0.36081 0.0
H668 H 0.50846 0.55147 0.41089 0.0
H669 H 0.41365 0.49749 0.52026 0.0
H670 H 0.44289 0.48725 0.56669 0.0
H671 H 0.44381 0.46621 0.52351 0.0
H672 H 0.54117 0.46331 0.5275 0.0
H673 H 0.54049 0.48426 0.57083 0.0
H674 H 0.57754 0.4926 0.5273 0.0
H675 H 0.50632 0.58066 0.47047 0.0
H676 H 0.50241 0.60207 0.53691 0.0
H677 H 0.49306 0.5268 0.59463 0.0
C678 C 0.49777 0.47943 0.4461 0.0
C679 C 0.49967 0.48529 0.40447 0.0
C680 C 0.50407 0.51157 0.39237 0.0
C681 C 0.50564 0.53156 0.42063 0.0
C682 C 0.50295 0.52522 0.4612 0.0
C683 C 0.49936 0.49985 0.4741 0.0
C684 C 0.49623 0.49866 0.51972 0.0
C685 C 0.44616 0.48669 0.53333 0.0
C686 C 0.54156 0.48383 0.53737 0.0
C687 C 0.49838 0.52724 0.53008 0.0
C688 C 0.5022 0.54221 0.49585 0.0
C689 C 0.50364 0.56915 0.49762 0.0
C690 C 0.50128 0.58116 0.53549 0.0
C691 C 0.4977 0.56624 0.57114 0.0
C692 C 0.49626 0.53888 0.5681 0.0
H693 H 0.53634 1.00709 0.60415 0.0
H694 H 0.48914 0.935 0.54917 0.0
H695 H 0.47875 0.9575 0.48408 0.0
H696 H 0.45146 0.04893 0.55013 0.0
H697 H 0.49609 0.07479 0.54464 0.0
H698 H 0.50041 0.0532 0.58716 0.0
H699 H 0.59278 0.04206 0.56857 0.0
H700 H 0.58892 0.0638 0.52623 0.0
H701 H 0.60712 0.03052 0.51863 0.0
H702 H 0.47138 0.98752 0.42589 0.0
H703 H 0.47348 0.02233 0.37586 0.0
H704 H 0.5269 0.07574 0.46715 0.0
C705 C 0.52392 0.99596 0.57844 0.0
C706 C 0.51341 0.96917 0.58197 0.0
C707 C 0.49756 0.95543 0.54738 0.0
C708 C 0.49131 0.96809 0.51028 0.0
C709 C 0.50127 0.99449 0.50811 0.0
C710 C 0.5177 1.00826 0.54108 0.0
C711 C 0.52653 0.03645 0.53023 0.0
C712 C 0.49153 0.0544 0.55449 0.0
C713 C 0.58215 0.04362 0.53627 0.0
C714 C 0.5124 0.03637 0.4859 0.0
C715 C 0.49769 1.01193 0.47405 0.0
C716 C 0.48304 1.00669 0.43476 0.0
C717 C 0.48441 0.02674 0.40652 0.0
C718 C 0.50059 0.05194 0.41732 0.0
C719 C 0.51406 0.05684 0.45788 0.0
loop_
_geom_bond_atom_site_label_1
_geom_bond_atom_site_label_2
_geom_bond_distance
_geom_bond_site_symmetry_2
_ccdc_geom_bond_type
Mn0 O5 2.095 . S
Mn0 O15 2.162 . S
Mn0 O16 2.297 . S
Mn0 O24 2.385 1_455 S
Mn0 O25 2.209 1_455 S
Mn0 O26 2.094 . S
Mn1 O6 2.105 1_655 S
Mn1 N8 2.262 . S
Mn1 N17 2.299 . S
Mn1 O25 2.223 . S
Mn1 O27 2.117 . S
C2 O24 1.234 . S
C2 O25 1.283 . S
C3 O15 1.281 . S
C3 O16 1.237 . S
C4 O26 1.240 . S
C4 O27 1.264 1_455 S
O5 Mn0 2.095 . S
O5 C14 1.250 . S
O6 Mn1 2.105 1_455 S
O6 C14 1.258 . S
C7 N8 1.326 1_455 S
C7 C11 1.460 1_455 S
C7 H13 0.929 . S
N8 Mn1 2.262 . S
N8 C7 1.326 1_655 S
N8 C12 1.362 . S
C9 C10 1.258 . S
C9 C12 1.431 . S
C9 C29 1.449 . S
C10 C9 1.258 . S
C10 C11 1.477 . S
C10 H30 0.931 . S
C11 C7 1.460 1_655 S
C11 C10 1.477 . S
C11 H31 0.930 1_655 S
C12 N8 1.362 . S
C12 C9 1.431 . S
C12 C22 1.476 . S
H13 C7 0.929 . S
C14 O5 1.250 . S
C14 O6 1.258 . S
O15 Mn0 2.162 . S
O15 C3 1.281 . S
O16 Mn0 2.297 . S
O16 C3 1.237 . S
N17 Mn1 2.299 . S
N17 C18 1.328 . S
N17 C22 1.318 . S
C18 N17 1.328 . S
C18 C19 1.457 . S
C18 H23 0.929 . S
C19 C18 1.457 . S
C19 C20 1.291 . S
C19 H32 0.931 . S
C20 C19 1.291 . S
C20 C21 1.373 . S
C20 H33 0.929 . S
C21 C20 1.373 . S
C21 C22 1.396 . S
C21 C28 1.403 . S
C22 C12 1.476 . S
C22 N17 1.318 . S
C22 C21 1.396 . S
H23 C18 0.929 . S
O24 Mn0 2.385 1_655 S
O24 C2 1.234 . S
O25 Mn0 2.209 1_655 S
O25 Mn1 2.223 . S
O25 C2 1.283 . S
O26 Mn0 2.094 . S
O26 C4 1.240 . S
O27 Mn1 2.117 . S
O27 C4 1.264 1_655 S
C28 C21 1.403 . S
C28 C29 1.399 . S
C28 H34 0.929 . S
C29 C9 1.449 . S
C29 C28 1.399 . S
C29 H35 0.930 . S
H30 C10 0.931 . S
H31 C11 0.930 1_455 S
H32 C19 0.931 . S
H33 C20 0.929 . S
H34 C28 0.929 . S
H35 C29 0.930 . S
Mn36 O41 2.095 1_455 S
Mn36 O51 2.162 . S
Mn36 O52 2.297 . S
Mn36 O60 2.385 . S
Mn36 O61 2.209 . S
Mn36 O62 2.094 . S
Mn37 O42 2.121 1_455 S
Mn37 N44 2.257 . S
Mn37 N53 2.282 . S
Mn37 O61 2.215 . S
Mn37 O63 2.117 . S
C38 O60 1.234 . S
C38 O61 1.283 . S
C39 O51 1.281 . S
C39 O52 1.236 . S
C40 O62 1.240 . S
C40 O63 1.264 . S
O41 Mn36 2.095 1_655 S
O41 C50 1.250 . S
O42 Mn37 2.121 1_655 S
O42 C50 1.258 . S
C43 N44 1.333 . S
C43 C47 1.463 . S
C43 H49 0.919 1_455 S
N44 Mn37 2.257 . S
N44 C43 1.333 . S
N44 C48 1.362 . S
C45 C46 1.258 . S
C45 C48 1.431 . S
C45 C65 1.449 . S
C46 C45 1.258 . S
C46 C47 1.477 . S
C46 H66 0.931 . S
C47 C43 1.463 . S
C47 C46 1.477 . S
C47 H67 0.930 1_455 S
C48 N44 1.362 . S
C48 C45 1.431 . S
C48 C58 1.476 . S
H49 C43 0.919 1_655 S
C50 O41 1.250 . S
C50 O42 1.258 . S
O51 Mn36 2.162 . S
O51 C39 1.281 . S
O52 Mn36 2.297 . S
O52 C39 1.236 . S
N53 Mn37 2.282 . S
N53 C54 1.328 . S
N53 C58 1.318 . S
C54 N53 1.328 . S
C54 C55 1.457 . S
C54 H59 0.929 . S
C55 C54 1.457 . S
C55 C56 1.291 . S
C55 H68 0.931 . S
C56 C55 1.291 . S
C56 C57 1.373 . S
C56 H69 0.929 . S
C57 C56 1.373 . S
C57 C58 1.396 . S
C57 C64 1.403 . S
C58 C48 1.476 . S
C58 N53 1.318 . S
C58 C57 1.396 . S
H59 C54 0.929 . S
O60 Mn36 2.385 . S
O60 C38 1.234 . S
O61 Mn36 2.209 . S
O61 Mn37 2.215 . S
O61 C38 1.283 . S
O62 Mn36 2.094 . S
O62 C40 1.240 . S
O63 Mn37 2.117 . S
O63 C40 1.264 . S
C64 C57 1.403 . S
C64 C65 1.399 . S
C64 H70 0.929 . S
C65 C45 1.449 . S
C65 C64 1.399 . S
C65 H71 0.930 . S
H66 C46 0.931 . S
H67 C47 0.930 1_655 S
H68 C55 0.931 . S
H69 C56 0.929 . S
H70 C64 0.929 . S
H71 C65 0.930 . S
Mn72 O77 2.095 . S
Mn72 O87 2.162 . S
Mn72 O88 2.297 . S
Mn72 O96 2.385 1_455 S
Mn72 O97 2.209 1_455 S
Mn72 O98 2.094 . S
Mn73 O78 2.105 1_655 S
Mn73 N80 2.262 . S
Mn73 N89 2.299 . S
Mn73 O97 2.223 . S
Mn73 O99 2.117 . S
C74 O96 1.234 . S
C74 O97 1.283 . S
C75 O87 1.281 . S
C75 O88 1.237 . S
C76 O98 1.240 . S
C76 O99 1.264 1_455 S
O77 Mn72 2.095 . S
O77 C86 1.250 . S
O78 Mn73 2.105 1_455 S
O78 C86 1.258 . S
C79 N80 1.326 1_455 S
C79 C83 1.460 1_455 S
C79 H85 0.929 . S
N80 Mn73 2.262 . S
N80 C79 1.326 1_655 S
N80 C84 1.362 . S
C81 C82 1.258 . S
C81 C84 1.431 . S
C81 C101 1.449 . S
C82 C81 1.258 . S
C82 C83 1.477 . S
C82 H102 0.931 . S
C83 C79 1.460 1_655 S
C83 C82 1.477 . S
C83 H103 0.930 1_655 S
C84 N80 1.362 . S
C84 C81 1.431 . S
C84 C94 1.476 . S
H85 C79 0.929 . S
C86 O77 1.250 . S
C86 O78 1.258 . S
O87 Mn72 2.162 . S
O87 C75 1.281 . S
O88 Mn72 2.297 . S
O88 C75 1.237 . S
N89 Mn73 2.299 . S
N89 C90 1.328 . S
N89 C94 1.318 . S
C90 N89 1.328 . S
C90 C91 1.457 . S
C90 H95 0.929 . S
C91 C90 1.457 . S
C91 C92 1.291 . S
C91 H104 0.931 . S
C92 C91 1.291 . S
C92 C93 1.373 . S
C92 H105 0.929 . S
C93 C92 1.373 . S
C93 C94 1.396 . S
C93 C100 1.403 . S
C94 C84 1.476 . S
C94 N89 1.318 . S
C94 C93 1.396 . S
H95 C90 0.929 . S
O96 Mn72 2.385 1_655 S
O96 C74 1.234 . S
O97 Mn72 2.209 1_655 S
O97 Mn73 2.223 . S
O97 C74 1.283 . S
O98 Mn72 2.094 . S
O98 C76 1.240 . S
O99 Mn73 2.117 . S
O99 C76 1.264 1_655 S
C100 C93 1.403 . S
C100 C101 1.399 . S
C100 H106 0.929 . S
C101 C81 1.449 . S
C101 C100 1.399 . S
C101 H107 0.930 . S
H102 C82 0.931 . S
H103 C83 0.930 1_455 S
H104 C91 0.931 . S
H105 C92 0.929 . S
H106 C100 0.929 . S
H107 C101 0.930 . S
Mn108 O113 2.095 1_455 S
Mn108 O123 2.162 . S
Mn108 O124 2.297 . S
Mn108 O132 2.385 . S
Mn108 O133 2.209 . S
Mn108 O134 2.094 . S
Mn109 O114 2.121 1_455 S
Mn109 N116 2.257 . S
Mn109 N125 2.282 . S
Mn109 O133 2.215 . S
Mn109 O135 2.117 . S
C110 O132 1.234 . S
C110 O133 1.283 . S
C111 O123 1.281 . S
C111 O124 1.236 . S
C112 O134 1.240 . S
C112 O135 1.264 . S
O113 Mn108 2.095 1_655 S
O113 C122 1.250 . S
O114 Mn109 2.121 1_655 S
O114 C122 1.258 . S
C115 N116 1.333 . S
C115 C119 1.463 . S
C115 H121 0.919 1_455 S
N116 Mn109 2.257 . S
N116 C115 1.333 . S
N116 C120 1.362 . S
C117 C118 1.258 . S
C117 C120 1.431 . S
C117 C137 1.449 . S
C118 C117 1.258 . S
C118 C119 1.477 . S
C118 H138 0.931 . S
C119 C115 1.463 . S
C119 C118 1.477 . S
C119 H139 0.930 1_455 S
C120 N116 1.362 . S
C120 C117 1.431 . S
C120 C130 1.476 . S
H121 C115 0.919 1_655 S
C122 O113 1.250 . S
C122 O114 1.258 . S
O123 Mn108 2.162 . S
O123 C111 1.281 . S
O124 Mn108 2.297 . S
O124 C111 1.236 . S
N125 Mn109 2.282 . S
N125 C126 1.328 . S
N125 C130 1.318 . S
C126 N125 1.328 . S
C126 C127 1.457 . S
C126 H131 0.929 . S
C127 C126 1.457 . S
C127 C128 1.291 . S
C127 H140 0.931 . S
C128 C127 1.291 . S
C128 C129 1.373 . S
C128 H141 0.929 . S
C129 C128 1.373 . S
C129 C130 1.396 . S
C129 C136 1.403 . S
C130 C120 1.476 . S
C130 N125 1.318 . S
C130 C129 1.396 . S
H131 C126 0.929 . S
O132 Mn108 2.385 . S
O132 C110 1.234 . S
O133 Mn108 2.209 . S
O133 Mn109 2.215 . S
O133 C110 1.283 . S
O134 Mn108 2.094 . S
O134 C112 1.240 . S
O135 Mn109 2.117 . S
O135 C112 1.264 . S
C136 C129 1.403 . S
C136 C137 1.399 . S
C136 H142 0.929 . S
C137 C117 1.449 . S
C137 C136 1.399 . S
C137 H143 0.930 . S
H138 C118 0.931 . S
H139 C119 0.930 1_655 S
H140 C127 0.931 . S
H141 C128 0.929 . S
H142 C136 0.929 . S
H143 C137 0.930 . S
Mn144 O149 2.095 . S
Mn144 O159 2.162 . S
Mn144 O160 2.297 . S
Mn144 O168 2.385 . S
Mn144 O169 2.209 . S
Mn144 O170 2.094 . S
Mn145 O150 2.121 . S
Mn145 N152 2.257 . S
Mn145 N161 2.282 . S
Mn145 O169 2.215 . S
Mn145 O171 2.117 . S
C146 O168 1.234 . S
C146 O169 1.283 . S
C147 O159 1.281 . S
C147 O160 1.236 . S
C148 O170 1.240 . S
C148 O171 1.264 . S
O149 Mn144 2.095 . S
O149 C158 1.250 . S
O150 Mn145 2.121 . S
O150 C158 1.258 . S
C151 N152 1.326 . S
C151 C155 1.460 . S
C151 H157 0.929 . S
N152 Mn145 2.257 . S
N152 C151 1.326 . S
N152 C156 1.362 . S
C153 C154 1.258 . S
C153 C156 1.431 . S
C153 C173 1.449 . S
C154 C153 1.258 . S
C154 C155 1.477 . S
C154 H174 0.931 . S
C155 C151 1.460 . S
C155 C154 1.477 . S
C155 H175 0.930 . S
C156 N152 1.362 . S
C156 C153 1.431 . S
C156 C166 1.476 . S
H157 C151 0.929 . S
C158 O149 1.250 . S
C158 O150 1.258 . S
O159 Mn144 2.162 . S
O159 C147 1.281 . S
O160 Mn144 2.297 . S
O160 C147 1.236 . S
N161 Mn145 2.282 . S
N161 C162 1.328 . S
N161 C166 1.318 . S
C162 N161 1.328 . S
C162 C163 1.457 . S
C162 H167 0.929 . S
C163 C162 1.457 . S
C163 C164 1.291 . S
C163 H176 0.931 . S
C164 C163 1.291 . S
C164 C165 1.373 . S
C164 H177 0.929 . S
C165 C164 1.373 . S
C165 C166 1.396 . S
C165 C172 1.403 . S
C166 C156 1.476 . S
C166 N161 1.318 . S
C166 C165 1.396 . S
H167 C162 0.929 . S
O168 Mn144 2.385 . S
O168 C146 1.234 . S
O169 Mn144 2.209 . S
O169 Mn145 2.215 . S
O169 C146 1.283 . S
O170 Mn144 2.094 . S
O170 C148 1.240 . S
O171 Mn145 2.117 . S
O171 C148 1.264 . S
C172 C165 1.403 . S
C172 C173 1.399 . S
C172 H178 0.929 . S
C173 C153 1.449 . S
C173 C172 1.399 . S
C173 H179 0.930 . S
H174 C154 0.931 . S
H175 C155 0.930 . S
H176 C163 0.931 . S
H177 C164 0.929 . S
H178 C172 0.929 . S
H179 C173 0.930 . S
Mn180 O185 2.095 . S
Mn180 O195 2.162 . S
Mn180 O196 2.297 . S
Mn180 O204 2.385 . S
Mn180 O205 2.209 . S
Mn180 O206 2.094 . S
Mn181 O186 2.121 . S
Mn181 N188 2.257 . S
Mn181 N197 2.282 . S
Mn181 O205 2.215 . S
Mn181 O207 2.117 . S
C182 O204 1.234 . S
C182 O205 1.283 . S
C183 O195 1.281 . S
C183 O196 1.236 . S
C184 O206 1.240 . S
C184 O207 1.264 . S
O185 Mn180 2.095 . S
O185 C194 1.250 . S
O186 Mn181 2.121 . S
O186 C194 1.258 . S
C187 N188 1.326 . S
C187 C191 1.460 . S
C187 H193 0.929 . S
N188 Mn181 2.257 . S
N188 C187 1.326 . S
N188 C192 1.362 . S
C189 C190 1.258 . S
C189 C192 1.431 . S
C189 C209 1.449 . S
C190 C189 1.258 . S
C190 C191 1.477 . S
C190 H210 0.931 . S
C191 C187 1.460 . S
C191 C190 1.477 . S
C191 H211 0.930 . S
C192 N188 1.362 . S
C192 C189 1.431 . S
C192 C202 1.476 . S
H193 C187 0.929 . S
C194 O185 1.250 . S
C194 O186 1.258 . S
O195 Mn180 2.162 . S
O195 C183 1.281 . S
O196 Mn180 2.297 . S
O196 C183 1.236 . S
N197 Mn181 2.282 . S
N197 C198 1.328 . S
N197 C202 1.318 . S
C198 N197 1.328 . S
C198 C199 1.457 . S
C198 H203 0.929 . S
C199 C198 1.457 . S
C199 C200 1.291 . S
C199 H212 0.931 . S
C200 C199 1.291 . S
C200 C201 1.373 . S
C200 H213 0.929 . S
C201 C200 1.373 . S
C201 C202 1.396 . S
C201 C208 1.403 . S
C202 C192 1.476 . S
C202 N197 1.318 . S
C202 C201 1.396 . S
H203 C198 0.929 . S
O204 Mn180 2.385 . S
O204 C182 1.234 . S
O205 Mn180 2.209 . S
O205 Mn181 2.215 . S
O205 C182 1.283 . S
O206 Mn180 2.094 . S
O206 C184 1.240 . S
O207 Mn181 2.117 . S
O207 C184 1.264 . S
C208 C201 1.403 . S
C208 C209 1.399 . S
C208 H214 0.929 . S
C209 C189 1.449 . S
C209 C208 1.399 . S
C209 H215 0.930 . S
H210 C190 0.931 . S
H211 C191 0.930 . S
H212 C199 0.931 . S
H213 C200 0.929 . S
H214 C208 0.929 . S
H215 C209 0.930 . S
Mn216 O221 2.095 . S
Mn216 O231 2.162 . S
Mn216 O232 2.297 . S
Mn216 O240 2.385 . S
Mn216 O241 2.209 . S
Mn216 O242 2.094 . S
Mn217 O222 2.121 . S
Mn217 N224 2.257 . S
Mn217 N233 2.282 . S
Mn217 O241 2.215 . S
Mn217 O243 2.117 . S
C218 O240 1.234 . S
C218 O241 1.283 . S
C219 O231 1.281 . S
C219 O232 1.236 . S
C220 O242 1.240 . S
C220 O243 1.264 . S
O221 Mn216 2.095 . S
O221 C230 1.250 . S
O222 Mn217 2.121 . S
O222 C230 1.258 . S
C223 N224 1.326 . S
C223 C227 1.460 . S
C223 H229 0.929 . S
N224 Mn217 2.257 . S
N224 C223 1.326 . S
N224 C228 1.362 . S
C225 C226 1.258 . S
C225 C228 1.431 . S
C225 C245 1.449 . S
C226 C225 1.258 . S
C226 C227 1.477 . S
C226 H246 0.931 . S
C227 C223 1.460 . S
C227 C226 1.477 . S
C227 H247 0.930 . S
C228 N224 1.362 . S
C228 C225 1.431 . S
C228 C238 1.476 . S
H229 C223 0.929 . S
C230 O221 1.250 . S
C230 O222 1.258 . S
O231 Mn216 2.162 . S
O231 C219 1.281 . S
O232 Mn216 2.297 . S
O232 C219 1.236 . S
N233 Mn217 2.282 . S
N233 C234 1.328 . S
N233 C238 1.318 . S
C234 N233 1.328 . S
C234 C235 1.457 . S
C234 H239 0.929 . S
C235 C234 1.457 . S
C235 C236 1.291 . S
C235 H248 0.931 . S
C236 C235 1.291 . S
C236 C237 1.373 . S
C236 H249 0.929 . S
C237 C236 1.373 . S
C237 C238 1.396 . S
C237 C244 1.403 . S
C238 C228 1.476 . S
C238 N233 1.318 . S
C238 C237 1.396 . S
H239 C234 0.929 . S
O240 Mn216 2.385 . S
O240 C218 1.234 . S
O241 Mn216 2.209 . S
O241 Mn217 2.215 . S
O241 C218 1.283 . S
O242 Mn216 2.094 . S
O242 C220 1.240 . S
O243 Mn217 2.117 . S
O243 C220 1.264 . S
C244 C237 1.403 . S
C244 C245 1.399 . S
C244 H250 0.929 . S
C245 C225 1.449 . S
C245 C244 1.399 . S
C245 H251 0.930 . S
H246 C226 0.931 . S
H247 C227 0.930 . S
H248 C235 0.931 . S
H249 C236 0.929 . S
H250 C244 0.929 . S
H251 C245 0.930 . S
Mn252 O257 2.095 . S
Mn252 O267 2.162 . S
Mn252 O268 2.297 . S
Mn252 O276 2.385 . S
Mn252 O277 2.209 . S
Mn252 O278 2.094 . S
Mn253 O258 2.121 . S
Mn253 N260 2.257 . S
Mn253 N269 2.282 . S
Mn253 O277 2.215 . S
Mn253 O279 2.117 . S
C254 O276 1.234 . S
C254 O277 1.283 . S
C255 O267 1.281 . S
C255 O268 1.236 . S
C256 O278 1.240 . S
C256 O279 1.264 . S
O257 Mn252 2.095 . S
O257 C266 1.250 . S
O258 Mn253 2.121 . S
O258 C266 1.258 . S
C259 N260 1.326 . S
C259 C263 1.460 . S
C259 H265 0.929 . S
N260 Mn253 2.257 . S
N260 C259 1.326 . S
N260 C264 1.362 . S
C261 C262 1.258 . S
C261 C264 1.431 . S
C261 C281 1.449 . S
C262 C261 1.258 . S
C262 C263 1.477 . S
C262 H282 0.931 . S
C263 C259 1.460 . S
C263 C262 1.477 . S
C263 H283 0.930 . S
C264 N260 1.362 . S
C264 C261 1.431 . S
C264 C274 1.476 . S
H265 C259 0.929 . S
C266 O257 1.250 . S
C266 O258 1.258 . S
O267 Mn252 2.162 . S
O267 C255 1.281 . S
O268 Mn252 2.297 . S
O268 C255 1.236 . S
N269 Mn253 2.282 . S
N269 C270 1.328 . S
N269 C274 1.318 . S
C270 N269 1.328 . S
C270 C271 1.457 . S
C270 H275 0.929 . S
C271 C270 1.457 . S
C271 C272 1.291 . S
C271 H284 0.931 . S
C272 C271 1.291 . S
C272 C273 1.373 . S
C272 H285 0.929 . S
C273 C272 1.373 . S
C273 C274 1.396 . S
C273 C280 1.403 . S
C274 C264 1.476 . S
C274 N269 1.318 . S
C274 C273 1.396 . S
H275 C270 0.929 . S
O276 Mn252 2.385 . S
O276 C254 1.234 . S
O277 Mn252 2.209 . S
O277 Mn253 2.215 . S
O277 C254 1.283 . S
O278 Mn252 2.094 . S
O278 C256 1.240 . S
O279 Mn253 2.117 . S
O279 C256 1.264 . S
C280 C273 1.403 . S
C280 C281 1.399 . S
C280 H286 0.929 . S
C281 C261 1.449 . S
C281 C280 1.399 . S
C281 H287 0.930 . S
H282 C262 0.931 . S
H283 C263 0.930 . S
H284 C271 0.931 . S
H285 C272 0.929 . S
H286 C280 0.929 . S
H287 C281 0.930 . S
H288 C300 0.929 . S
H289 C302 0.930 . S
H290 C303 0.930 . S
H291 C307 0.959 . S
H292 C307 0.959 . S
H293 C307 0.961 . S
H294 C308 0.960 . S
H295 C308 0.961 . S
H296 C308 0.959 . S
H297 C311 0.929 . S
H298 C312 0.931 . S
H299 C314 0.930 . S
C300 H288 0.929 . S
C300 C301 1.400 1_655 S
C300 C305 1.399 1_655 S
C301 C300 1.400 1_455 S
C301 C302 1.376 . S
C302 H289 0.930 . S
C302 C301 1.376 . S
C302 C303 1.388 . S
C303 H290 0.930 . S
C303 C302 1.388 . S
C303 C304 1.390 . S
C304 C303 1.390 . S
C304 C305 1.394 . S
C304 C310 1.465 . S
C305 C300 1.399 1_455 S
C305 C304 1.394 . S
C305 C306 1.516 1_455 S
C306 C305 1.516 1_655 S
C306 C307 1.502 . S
C306 C308 1.561 1_655 S
C306 C309 1.526 1_655 S
C307 H291 0.959 . S
C307 H292 0.959 . S
C307 H293 0.961 . S
C307 C306 1.502 . S
C308 H294 0.960 . S
C308 H295 0.961 . S
C308 H296 0.959 . S
C308 C306 1.561 1_455 S
C309 C306 1.526 1_455 S
C309 C310 1.396 . S
C309 C314 1.390 1_455 S
C310 C304 1.465 . S
C310 C309 1.396 . S
C310 C311 1.399 . S
C311 H297 0.929 . S
C311 C310 1.399 . S
C311 C312 1.385 . S
C312 H298 0.931 . S
C312 C311 1.385 . S
C312 C313 1.389 . S
C313 C312 1.389 . S
C313 C314 1.387 1_455 S
C314 H299 0.930 . S
C314 C309 1.390 1_655 S
C314 C313 1.387 1_655 S
H315 C327 0.930 . S
H316 C329 0.930 . S
H317 C330 0.930 . S
H318 C334 0.959 . S
H319 C334 0.959 . S
H320 C334 0.961 . S
H321 C335 0.960 . S
H322 C335 0.961 . S
H323 C335 0.959 . S
H324 C338 0.929 . S
H325 C339 0.931 . S
H326 C341 0.930 . S
C327 H315 0.930 . S
C327 C328 1.399 1_655 S
C327 C332 1.399 . S
C328 C327 1.399 1_455 S
C328 C329 1.376 . S
C329 H316 0.930 . S
C329 C328 1.376 . S
C329 C330 1.388 . S
C330 H317 0.930 . S
C330 C329 1.388 . S
C330 C331 1.390 . S
C331 C330 1.390 . S
C331 C332 1.394 1_455 S
C331 C337 1.465 . S
C332 C327 1.399 . S
C332 C331 1.394 1_655 S
C332 C333 1.516 . S
C333 C332 1.516 . S
C333 C334 1.502 . S
C333 C335 1.561 1_655 S
C333 C336 1.522 1_655 S
C334 H318 0.959 . S
C334 H319 0.959 . S
C334 H320 0.961 . S
C334 C333 1.502 . S
C335 H321 0.960 . S
C335 H322 0.961 . S
C335 H323 0.959 . S
C335 C333 1.561 1_455 S
C336 C333 1.522 1_455 S
C336 C337 1.403 . S
C336 C341 1.388 1_455 S
C337 C331 1.465 . S
C337 C336 1.403 . S
C337 C338 1.399 . S
C338 H324 0.929 . S
C338 C337 1.399 . S
C338 C339 1.385 . S
C339 H325 0.931 . S
C339 C338 1.385 . S
C339 C340 1.389 . S
C340 C339 1.389 . S
C340 C341 1.387 1_455 S
C341 H326 0.930 . S
C341 C336 1.388 1_655 S
C341 C340 1.387 1_655 S
H342 C354 0.930 . S
H343 C356 0.930 . S
H344 C357 0.930 . S
H345 C361 0.959 . S
H346 C361 0.959 . S
H347 C361 0.961 . S
H348 C362 0.960 . S
H349 C362 0.961 . S
H350 C362 0.959 . S
H351 C365 0.929 . S
H352 C366 0.931 . S
H353 C368 0.930 . S
C354 H342 0.930 . S
C354 C355 1.399 . S
C354 C359 1.399 . S
C355 C354 1.399 . S
C355 C356 1.376 . S
C356 H343 0.930 . S
C356 C355 1.376 . S
C356 C357 1.388 . S
C357 H344 0.930 . S
C357 C356 1.388 . S
C357 C358 1.390 . S
C358 C357 1.390 . S
C358 C359 1.394 . S
C358 C364 1.465 . S
C359 C354 1.399 . S
C359 C358 1.394 . S
C359 C360 1.516 . S
C360 C359 1.516 . S
C360 C361 1.502 . S
C360 C362 1.561 . S
C360 C363 1.526 . S
C361 H345 0.959 . S
C361 H346 0.959 . S
C361 H347 0.961 . S
C361 C360 1.502 . S
C362 H348 0.960 . S
C362 H349 0.961 . S
C362 H350 0.959 . S
C362 C360 1.561 . S
C363 C360 1.526 . S
C363 C364 1.396 . S
C363 C368 1.390 . S
C364 C358 1.465 . S
C364 C363 1.396 . S
C364 C365 1.399 . S
C365 H351 0.929 . S
C365 C364 1.399 . S
C365 C366 1.385 . S
C366 H352 0.931 . S
C366 C365 1.385 . S
C366 C367 1.389 . S
C367 C366 1.389 . S
C367 C368 1.387 . S
C368 H353 0.930 . S
C368 C363 1.390 . S
C368 C367 1.387 . S
H369 C381 0.930 . S
H370 C383 0.930 . S
H371 C384 0.930 . S
H372 C388 0.959 . S
H373 C388 0.959 . S
H374 C388 0.961 . S
H375 C389 0.960 . S
H376 C389 0.961 . S
H377 C389 0.959 . S
H378 C392 0.929 . S
H379 C393 0.931 . S
H380 C395 0.930 . S
C381 H369 0.930 . S
C381 C382 1.399 . S
C381 C386 1.399 . S
C382 C381 1.399 . S
C382 C383 1.376 . S
C383 H370 0.930 . S
C383 C382 1.376 . S
C383 C384 1.388 . S
C384 H371 0.930 . S
C384 C383 1.388 . S
C384 C385 1.390 . S
C385 C384 1.390 . S
C385 C386 1.394 . S
C385 C391 1.465 . S
C386 C381 1.399 . S
C386 C385 1.394 . S
C386 C387 1.516 . S
C387 C386 1.516 . S
C387 C388 1.502 . S
C387 C389 1.561 . S
C387 C390 1.526 . S
C388 H372 0.959 . S
C388 H373 0.959 . S
C388 H374 0.961 . S
C388 C387 1.502 . S
C389 H375 0.960 . S
C389 H376 0.961 . S
C389 H377 0.959 . S
C389 C387 1.561 . S
C390 C387 1.526 . S
C390 C391 1.396 . S
C390 C395 1.390 . S
C391 C385 1.465 . S
C391 C390 1.396 . S
C391 C392 1.399 . S
C392 H378 0.929 . S
C392 C391 1.399 . S
C392 C393 1.385 . S
C393 H379 0.931 . S
C393 C392 1.385 . S
C393 C394 1.389 . S
C394 C393 1.389 . S
C394 C395 1.387 . S
C395 H380 0.930 . S
C395 C390 1.390 . S
C395 C394 1.387 . S
H396 C408 0.930 . S
H397 C410 0.930 . S
H398 C411 0.930 . S
H399 C415 0.959 . S
H400 C415 0.959 . S
H401 C415 0.961 . S
H402 C416 0.960 . S
H403 C416 0.961 . S
H404 C416 0.959 . S
H405 C419 0.929 . S
H406 C420 0.931 . S
H407 C422 0.930 . S
C408 H396 0.930 . S
C408 C409 1.399 . S
C408 C413 1.399 . S
C409 C408 1.399 . S
C409 C410 1.376 . S
C410 H397 0.930 . S
C410 C409 1.376 . S
C410 C411 1.388 . S
C411 H398 0.930 . S
C411 C410 1.388 . S
C411 C412 1.390 . S
C412 C411 1.390 . S
C412 C413 1.394 . S
C412 C418 1.465 . S
C413 C408 1.399 . S
C413 C412 1.394 . S
C413 C414 1.516 . S
C414 C413 1.516 . S
C414 C415 1.502 . S
C414 C416 1.561 . S
C414 C417 1.526 . S
C415 H399 0.959 . S
C415 H400 0.959 . S
C415 H401 0.961 . S
C415 C414 1.502 . S
C416 H402 0.960 . S
C416 H403 0.961 . S
C416 H404 0.959 . S
C416 C414 1.561 . S
C417 C414 1.526 . S
C417 C418 1.396 . S
C417 C422 1.390 . S
C418 C412 1.465 . S
C418 C417 1.396 . S
C418 C419 1.399 . S
C419 H405 0.929 . S
C419 C418 1.399 . S
C419 C420 1.385 . S
C420 H406 0.931 . S
C420 C419 1.385 . S
C420 C421 1.389 . S
C421 C420 1.389 . S
C421 C422 1.387 . S
C422 H407 0.930 . S
C422 C417 1.390 . S
C422 C421 1.387 . S
H423 C435 0.930 . S
H424 C437 0.930 . S
H425 C438 0.930 . S
H426 C442 0.959 . S
H427 C442 0.959 . S
H428 C442 0.961 . S
H429 C443 0.960 . S
H430 C443 0.961 . S
H431 C443 0.959 . S
H432 C446 0.929 . S
H433 C447 0.931 . S
H434 C449 0.930 . S
C435 H423 0.930 . S
C435 C436 1.399 . S
C435 C440 1.399 . S
C436 C435 1.399 . S
C436 C437 1.376 . S
C437 H424 0.930 . S
C437 C436 1.376 . S
C437 C438 1.388 . S
C438 H425 0.930 . S
C438 C437 1.388 . S
C438 C439 1.390 . S
C439 C438 1.390 . S
C439 C440 1.394 . S
C439 C445 1.465 . S
C440 C435 1.399 . S
C440 C439 1.394 . S
C440 C441 1.516 . S
C441 C440 1.516 . S
C441 C442 1.502 . S
C441 C443 1.561 . S
C441 C444 1.526 . S
C442 H426 0.959 . S
C442 H427 0.959 . S
C442 H428 0.961 . S
C442 C441 1.502 . S
C443 H429 0.960 . S
C443 H430 0.961 . S
C443 H431 0.959 . S
C443 C441 1.561 . S
C444 C441 1.526 . S
C444 C445 1.396 . S
C444 C449 1.390 . S
C445 C439 1.465 . S
C445 C444 1.396 . S
C445 C446 1.399 . S
C446 H432 0.929 . S
C446 C445 1.399 . S
C446 C447 1.385 . S
C447 H433 0.931 . S
C447 C446 1.385 . S
C447 C448 1.389 . S
C448 C447 1.389 . S
C448 C449 1.387 . S
C449 H434 0.930 . S
C449 C444 1.390 . S
C449 C448 1.387 . S
H450 C462 0.930 . S
H451 C464 0.930 . S
H452 C465 0.930 . S
H453 C469 0.959 . S
H454 C469 0.959 . S
H455 C469 0.961 . S
H456 C470 0.960 . S
H457 C470 0.961 . S
H458 C470 0.959 . S
H459 C473 0.929 . S
H460 C474 0.931 . S
H461 C476 0.930 . S
C462 H450 0.930 . S
C462 C463 1.399 . S
C462 C467 1.399 . S
C463 C462 1.399 . S
C463 C464 1.376 . S
C464 H451 0.930 . S
C464 C463 1.376 . S
C464 C465 1.388 . S
C465 H452 0.930 . S
C465 C464 1.388 . S
C465 C466 1.390 . S
C466 C465 1.390 . S
C466 C467 1.394 . S
C466 C472 1.465 . S
C467 C462 1.399 . S
C467 C466 1.394 . S
C467 C468 1.516 . S
C468 C467 1.516 . S
C468 C469 1.502 . S
C468 C470 1.561 . S
C468 C471 1.526 . S
C469 H453 0.959 . S
C469 H454 0.959 . S
C469 H455 0.961 . S
C469 C468 1.502 . S
C470 H456 0.960 . S
C470 H457 0.961 . S
C470 H458 0.959 . S
C470 C468 1.561 . S
C471 C468 1.526 . S
C471 C472 1.396 . S
C471 C476 1.390 . S
C472 C466 1.465 . S
C472 C471 1.396 . S
C472 C473 1.399 . S
C473 H459 0.929 . S
C473 C472 1.399 . S
C473 C474 1.385 . S
C474 H460 0.931 . S
C474 C473 1.385 . S
C474 C475 1.389 . S
C475 C474 1.389 . S
C475 C476 1.387 . S
C476 H461 0.930 . S
C476 C471 1.390 . S
C476 C475 1.387 . S
H477 C489 0.930 . S
H478 C491 0.930 . S
H479 C492 0.930 . S
H480 C496 0.959 . S
H481 C496 0.959 . S
H482 C496 0.961 . S
H483 C497 0.960 . S
H484 C497 0.961 . S
H485 C497 0.959 . S
H486 C500 0.929 . S
H487 C501 0.931 . S
H488 C503 0.930 . S
C489 H477 0.930 . S
C489 C490 1.399 . S
C489 C494 1.399 . S
C490 C489 1.399 . S
C490 C491 1.376 . S
C491 H478 0.930 . S
C491 C490 1.376 . S
C491 C492 1.388 . S
C492 H479 0.930 . S
C492 C491 1.388 . S
C492 C493 1.390 . S
C493 C492 1.390 . S
C493 C494 1.394 . S
C493 C499 1.465 . S
C494 C489 1.399 . S
C494 C493 1.394 . S
C494 C495 1.516 . S
C495 C494 1.516 . S
C495 C496 1.502 . S
C495 C497 1.561 . S
C495 C498 1.526 . S
C496 H480 0.959 . S
C496 H481 0.959 . S
C496 H482 0.961 . S
C496 C495 1.502 . S
C497 H483 0.960 . S
C497 H484 0.961 . S
C497 H485 0.959 . S
C497 C495 1.561 . S
C498 C495 1.526 . S
C498 C499 1.396 . S
C498 C503 1.390 . S
C499 C493 1.465 . S
C499 C498 1.396 . S
C499 C500 1.399 . S
C500 H486 0.929 . S
C500 C499 1.399 . S
C500 C501 1.385 . S
C501 H487 0.931 . S
C501 C500 1.385 . S
C501 C502 1.389 . S
C502 C501 1.389 . S
C502 C503 1.387 . S
C503 H488 0.930 . S
C503 C498 1.390 . S
C503 C502 1.387 . S
H504 C516 0.930 . S
H505 C518 0.930 . S
H506 C519 0.930 . S
H507 C523 0.959 . S
H508 C523 0.959 . S
H509 C523 0.961 . S
H510 C524 0.960 . S
H511 C524 0.961 . S
H512 C524 0.959 . S
H513 C527 0.929 . S
H514 C528 0.931 . S
H515 C530 0.930 . S
C516 H504 0.930 . S
C516 C517 1.399 . S
C516 C521 1.399 . S
C517 C516 1.399 . S
C517 C518 1.376 . S
C518 H505 0.930 . S
C518 C517 1.376 . S
C518 C519 1.388 . S
C519 H506 0.930 . S
C519 C518 1.388 . S
C519 C520 1.390 . S
C520 C519 1.390 . S
C520 C521 1.394 . S
C520 C526 1.465 . S
C521 C516 1.399 . S
C521 C520 1.394 . S
C521 C522 1.516 . S
C522 C521 1.516 . S
C522 C523 1.502 . S
C522 C524 1.561 . S
C522 C525 1.526 . S
C523 H507 0.959 . S
C523 H508 0.959 . S
C523 H509 0.961 . S
C523 C522 1.502 . S
C524 H510 0.960 . S
C524 H511 0.961 . S
C524 H512 0.959 . S
C524 C522 1.561 . S
C525 C522 1.526 . S
C525 C526 1.396 . S
C525 C530 1.390 . S
C526 C520 1.465 . S
C526 C525 1.396 . S
C526 C527 1.399 . S
C527 H513 0.929 . S
C527 C526 1.399 . S
C527 C528 1.385 . S
C528 H514 0.931 . S
C528 C527 1.385 . S
C528 C529 1.389 . S
C529 C528 1.389 . S
C529 C530 1.387 . S
C530 H515 0.930 . S
C530 C525 1.390 . S
C530 C529 1.387 . S
H531 C543 0.930 . S
H532 C545 0.930 . S
H533 C546 0.930 . S
H534 C550 0.959 . S
H535 C550 0.959 . S
H536 C550 0.961 . S
H537 C551 0.960 . S
H538 C551 0.961 . S
H539 C551 0.959 . S
H540 C554 0.929 . S
H541 C555 0.931 . S
H542 C557 0.930 . S
C543 H531 0.930 . S
C543 C544 1.399 . S
C543 C548 1.399 . S
C544 C543 1.399 . S
C544 C545 1.376 . S
C545 H532 0.930 . S
C545 C544 1.376 . S
C545 C546 1.388 . S
C546 H533 0.930 . S
C546 C545 1.388 . S
C546 C547 1.390 . S
C547 C546 1.390 . S
C547 C548 1.394 . S
C547 C553 1.465 . S
C548 C543 1.399 . S
C548 C547 1.394 . S
C548 C549 1.516 . S
C549 C548 1.516 . S
C549 C550 1.502 . S
C549 C551 1.561 . S
C549 C552 1.526 . S
C550 H534 0.959 . S
C550 H535 0.959 . S
C550 H536 0.961 . S
C550 C549 1.502 . S
C551 H537 0.960 . S
C551 H538 0.961 . S
C551 H539 0.959 . S
C551 C549 1.561 . S
C552 C549 1.526 . S
C552 C553 1.396 . S
C552 C557 1.390 . S
C553 C547 1.465 . S
C553 C552 1.396 . S
C553 C554 1.399 . S
C554 H540 0.929 . S
C554 C553 1.399 . S
C554 C555 1.385 . S
C555 H541 0.931 . S
C555 C554 1.385 . S
C555 C556 1.389 . S
C556 C555 1.389 . S
C556 C557 1.387 . S
C557 H542 0.930 . S
C557 C552 1.390 . S
C557 C556 1.387 . S
H558 C570 0.930 . S
H559 C572 0.930 . S
H560 C573 0.930 . S
H561 C577 0.959 . S
H562 C577 0.959 . S
H563 C577 0.961 . S
H564 C578 0.960 . S
H565 C578 0.961 . S
H566 C578 0.959 . S
H567 C581 0.929 . S
H568 C582 0.931 . S
H569 C584 0.930 . S
C570 H558 0.930 . S
C570 C571 1.399 . S
C570 C575 1.399 . S
C571 C570 1.399 . S
C571 C572 1.376 . S
C572 H559 0.930 . S
C572 C571 1.376 . S
C572 C573 1.388 . S
C573 H560 0.930 . S
C573 C572 1.388 . S
C573 C574 1.390 . S
C574 C573 1.390 . S
C574 C575 1.394 . S
C574 C580 1.465 . S
C575 C570 1.399 . S
C575 C574 1.394 . S
C575 C576 1.516 . S
C576 C575 1.516 . S
C576 C577 1.502 . S
C576 C578 1.561 . S
C576 C579 1.526 . S
C577 H561 0.959 . S
C577 H562 0.959 . S
C577 H563 0.961 . S
C577 C576 1.502 . S
C578 H564 0.960 . S
C578 H565 0.961 . S
C578 H566 0.959 . S
C578 C576 1.561 . S
C579 C576 1.526 . S
C579 C580 1.396 . S
C579 C584 1.390 . S
C580 C574 1.465 . S
C580 C579 1.396 . S
C580 C581 1.399 . S
C581 H567 0.929 . S
C581 C580 1.399 . S
C581 C582 1.385 . S
C582 H568 0.931 . S
C582 C581 1.385 . S
C582 C583 1.389 . S
C583 C582 1.389 . S
C583 C584 1.387 . S
C584 H569 0.930 . S
C584 C579 1.390 . S
C584 C583 1.387 . S
H585 C597 0.930 . S
H586 C599 0.930 . S
H587 C600 0.930 . S
H588 C604 0.959 . S
H589 C604 0.959 . S
H590 C604 0.961 . S
H591 C605 0.960 . S
H592 C605 0.961 . S
H593 C605 0.959 . S
H594 C608 0.929 . S
H595 C609 0.931 . S
H596 C611 0.930 . S
C597 H585 0.930 . S
C597 C598 1.399 . S
C597 C602 1.399 . S
C598 C597 1.399 . S
C598 C599 1.376 . S
C599 H586 0.930 . S
C599 C598 1.376 . S
C599 C600 1.388 . S
C600 H587 0.930 . S
C600 C599 1.388 . S
C600 C601 1.390 . S
C601 C600 1.390 . S
C601 C602 1.394 . S
C601 C607 1.465 . S
C602 C597 1.399 . S
C602 C601 1.394 . S
C602 C603 1.516 . S
C603 C602 1.516 . S
C603 C604 1.502 . S
C603 C605 1.561 . S
C603 C606 1.526 . S
C604 H588 0.959 . S
C604 H589 0.959 . S
C604 H590 0.961 . S
C604 C603 1.502 . S
C605 H591 0.960 . S
C605 H592 0.961 . S
C605 H593 0.959 . S
C605 C603 1.561 . S
C606 C603 1.526 . S
C606 C607 1.396 . S
C606 C611 1.390 . S
C607 C601 1.465 . S
C607 C606 1.396 . S
C607 C608 1.399 . S
C608 H594 0.929 . S
C608 C607 1.399 . S
C608 C609 1.385 . S
C609 H595 0.931 . S
C609 C608 1.385 . S
C609 C610 1.389 . S
C610 C609 1.389 . S
C610 C611 1.387 . S
C611 H596 0.930 . S
C611 C606 1.390 . S
C611 C610 1.387 . S
H612 C624 0.930 . S
H613 C626 0.930 . S
H614 C627 0.930 1_565 S
H615 C631 0.959 . S
H616 C631 0.959 . S
H617 C631 0.961 . S
H618 C632 0.960 . S
H619 C632 0.961 . S
H620 C632 0.959 . S
H621 C635 0.929 . S
H622 C636 0.931 . S
H623 C638 0.930 . S
C624 H612 0.930 . S
C624 C625 1.399 1_655 S
C624 C629 1.400 . S
C625 C624 1.399 1_455 S
C625 C626 1.376 . S
C626 H613 0.930 . S
C626 C625 1.376 . S
C626 C627 1.388 . S
C627 H614 0.930 1_545 S
C627 C626 1.388 . S
C627 C628 1.390 . S
C628 C627 1.390 . S
C628 C629 1.392 1_455 S
C628 C634 1.465 1_544 S
C629 C624 1.400 . S
C629 C628 1.392 1_655 S
C629 C630 1.517 1_554 S
C630 C629 1.517 1_556 S
C630 C631 1.502 . S
C630 C632 1.561 1_655 S
C630 C633 1.527 1_545 S
C631 H615 0.959 . S
C631 H616 0.959 . S
C631 H617 0.961 . S
C631 C630 1.502 . S
C632 H618 0.960 . S
C632 H619 0.961 . S
C632 H620 0.959 . S
C632 C630 1.561 1_455 S
C633 C630 1.527 1_565 S
C633 C634 1.394 1_655 S
C633 C638 1.390 . S
C634 C628 1.465 1_566 S
C634 C633 1.394 1_455 S
C634 C635 1.399 1_556 S
C635 H621 0.929 . S
C635 C634 1.399 1_554 S
C635 C636 1.385 1_554 S
C636 H622 0.931 . S
C636 C635 1.385 1_556 S
C636 C637 1.389 . S
C637 C636 1.389 . S
C637 C638 1.387 1_455 S
C638 H623 0.930 . S
C638 C633 1.390 . S
C638 C637 1.387 1_655 S
H639 C651 0.930 . S
H640 C653 0.930 . S
H641 C654 0.930 . S
H642 C658 0.959 . S
H643 C658 0.959 . S
H644 C658 0.961 . S
H645 C659 0.960 . S
H646 C659 0.961 . S
H647 C659 0.959 . S
H648 C662 0.918 1_556 S
H649 C663 0.931 . S
H650 C665 0.930 . S
C651 H639 0.930 . S
C651 C652 1.399 . S
C651 C656 1.399 . S
C652 C651 1.399 . S
C652 C653 1.376 1_455 S
C653 H640 0.930 . S
C653 C652 1.376 1_655 S
C653 C654 1.388 . S
C654 H641 0.930 . S
C654 C653 1.388 . S
C654 C655 1.390 . S
C655 C654 1.390 . S
C655 C656 1.394 1_655 S
C655 C661 1.465 1_556 S
C656 C651 1.399 . S
C656 C655 1.394 1_455 S
C656 C657 1.516 1_556 S
C657 C656 1.516 1_554 S
C657 C658 1.502 . S
C657 C659 1.561 1_455 S
C657 C660 1.526 . S
C658 H642 0.959 . S
C658 H643 0.959 . S
C658 H644 0.961 . S
C658 C657 1.502 . S
C659 H645 0.960 . S
C659 H646 0.961 . S
C659 H647 0.959 . S
C659 C657 1.561 1_655 S
C660 C657 1.526 . S
C660 C661 1.396 1_455 S
C660 C665 1.390 . S
C661 C655 1.465 1_554 S
C661 C660 1.396 1_655 S
C661 C662 1.399 . S
C662 H648 0.918 1_554 S
C662 C661 1.399 . S
C662 C663 1.396 . S
C663 H649 0.931 . S
C663 C662 1.396 . S
C663 C664 1.389 1_655 S
C664 C663 1.389 1_455 S
C664 C665 1.387 . S
C665 H650 0.930 . S
C665 C660 1.390 . S
C665 C664 1.387 . S
H666 C678 0.930 . S
H667 C680 0.930 . S
H668 C681 0.930 . S
H669 C685 0.959 . S
H670 C685 0.959 . S
H671 C685 0.961 . S
H672 C686 0.960 . S
H673 C686 0.961 . S
H674 C686 0.959 . S
H675 C689 0.929 . S
H676 C690 0.931 . S
H677 C692 0.930 . S
C678 H666 0.930 . S
C678 C679 1.399 . S
C678 C683 1.399 . S
C679 C678 1.399 . S
C679 C680 1.376 . S
C680 H667 0.930 . S
C680 C679 1.376 . S
C680 C681 1.388 . S
C681 H668 0.930 . S
C681 C680 1.388 . S
C681 C682 1.390 . S
C682 C681 1.390 . S
C682 C683 1.394 . S
C682 C688 1.465 . S
C683 C678 1.399 . S
C683 C682 1.394 . S
C683 C684 1.516 . S
C684 C683 1.516 . S
C684 C685 1.502 . S
C684 C686 1.561 . S
C684 C687 1.526 . S
C685 H669 0.959 . S
C685 H670 0.959 . S
C685 H671 0.961 . S
C685 C684 1.502 . S
C686 H672 0.960 . S
C686 H673 0.961 . S
C686 H674 0.959 . S
C686 C684 1.561 . S
C687 C684 1.526 . S
C687 C688 1.396 . S
C687 C692 1.390 . S
C688 C682 1.465 . S
C688 C687 1.396 . S
C688 C689 1.399 . S
C689 H675 0.929 . S
C689 C688 1.399 . S
C689 C690 1.385 . S
C690 H676 0.931 . S
C690 C689 1.385 . S
C690 C691 1.389 . S
C691 C690 1.389 . S
C691 C692 1.387 . S
C692 H677 0.930 . S
C692 C687 1.390 . S
C692 C691 1.387 . S
H693 C705 0.930 . S
H694 C707 0.930 . S
H695 C708 0.930 . S
H696 C712 0.959 . S
H697 C712 0.959 . S
H698 C712 0.961 . S
H699 C713 0.960 . S
H700 C713 0.961 . S
H701 C713 0.959 . S
H702 C716 0.929 1_565 S
H703 C717 0.931 . S
H704 C719 0.930 . S
C705 H693 0.930 . S
C705 C706 1.399 . S
C705 C710 1.399 . S
C706 C705 1.399 . S
C706 C707 1.376 . S
C707 H694 0.930 . S
C707 C706 1.376 . S
C707 C708 1.388 . S
C708 H695 0.930 . S
C708 C707 1.388 . S
C708 C709 1.390 . S
C709 C708 1.390 . S
C709 C710 1.394 . S
C709 C715 1.465 1_565 S
C710 C705 1.399 . S
C710 C709 1.394 . S
C710 C711 1.516 1_565 S
C711 C710 1.516 1_545 S
C711 C712 1.502 . S
C711 C713 1.561 . S
C711 C714 1.526 . S
C712 H696 0.959 . S
C712 H697 0.959 . S
C712 H698 0.961 . S
C712 C711 1.502 . S
C713 H699 0.960 . S
C713 H700 0.961 . S
C713 H701 0.959 . S
C713 C711 1.561 . S
C714 C711 1.526 . S
C714 C715 1.396 . S
C714 C719 1.390 . S
C715 C709 1.465 1_545 S
C715 C714 1.396 . S
C715 C716 1.399 . S
C716 H702 0.929 1_545 S
C716 C715 1.399 . S
C716 C717 1.385 . S
C717 H703 0.931 . S
C717 C716 1.385 . S
C717 C718 1.389 . S
C718 C717 1.389 . S
C718 C719 1.387 . S
C719 H704 0.930 . S
C719 C714 1.390 . S
C719 C718 1.387 . S
C301 C39 1.428 . S
C313 C3 1.420 . S
C328 C75 1.426 . S
C340 C111 1.436 . S
C355 C147 1.432 . S
C367 C183 1.418 . S
C382 C219 1.425 . S
C394 C255 1.436 . S
C409 C266 1.331 . S
C421 C14 1.335 . S
C436 C230 1.298 . S
C448 C50 1.295 . S
C463 C86 1.294 . S
C475 C194 1.292 . S
C490 C158 1.334 . S
C502 C122 1.337 . S
C517 C182 1.460 . S
C529 C74 1.429 . S
C544 C146 1.458 . S
C556 C110 1.430 . S
C571 C254 1.441 . S
C583 C2 1.476 . S
C598 C38 1.470 . S
C610 C218 1.428 . S
C625 C4 1.306 . S
C637 C76 1.331 . S
C652 C112 1.308 . S
C664 C40 1.330 . S
C679 C220 1.298 . S
C691 C148 1.329 . S
C706 C184 1.320 . S
C718 C256 1.298 . S
