# Generated by pormake.
# Topology unv, (4)-cn, num edge types: 1
# Building blocks:
#     Node 0, Type 0, BuildingBlock: KUFVIS_clean_sbu_0, # of connection points: 4
#     Node 1, Type 0, BuildingBlock: KUFVIS_clean_sbu_0, # of connection points: 4
#     Node 2, Type 0, BuildingBlock: KUFVIS_clean_sbu_0, # of connection points: 4
#     Node 3, Type 0, BuildingBlock: KUFVIS_clean_sbu_0, # of connection points: 4
#     Node 4, Type 0, BuildingBlock: KUFVIS_clean_sbu_0, # of connection points: 4
#     Node 5, Type 0, BuildingBlock: KUFVIS_clean_sbu_0, # of connection points: 4
#     Node 6, Type 0, BuildingBlock: KUFVIS_clean_sbu_0, # of connection points: 4
#     Node 7, Type 0, BuildingBlock: KUFVIS_clean_sbu_0, # of connection points: 4
#     Node 8, Type 0, BuildingBlock: KUFVIS_clean_sbu_0, # of connection points: 4
#     Node 9, Type 0, BuildingBlock: KUFVIS_clean_sbu_0, # of connection points: 4
#     Node 10, Type 0, BuildingBlock: KUFVIS_clean_sbu_0, # of connection points: 4
#     Node 11, Type 0, BuildingBlock: KUFVIS_clean_sbu_0, # of connection points: 4
#     Node 12, Type 0, BuildingBlock: KUFVIS_clean_sbu_0, # of connection points: 4
#     Node 13, Type 0, BuildingBlock: KUFVIS_clean_sbu_0, # of connection points: 4
#     Node 14, Type 0, BuildingBlock: KUFVIS_clean_sbu_0, # of connection points: 4
#     Node 15, Type 0, BuildingBlock: KUFVIS_clean_sbu_0, # of connection points: 4
#     Node 16, Type 0, BuildingBlock: KUFVIS_clean_sbu_0, # of connection points: 4
#     Node 17, Type 0, BuildingBlock: KUFVIS_clean_sbu_0, # of connection points: 4
#     Node 18, Type 0, BuildingBlock: KUFVIS_clean_sbu_0, # of connection points: 4
#     Node 19, Type 0, BuildingBlock: KUFVIS_clean_sbu_0, # of connection points: 4
#     Node 20, Type 0, BuildingBlock: KUFVIS_clean_sbu_0, # of connection points: 4
#     Node 21, Type 0, BuildingBlock: KUFVIS_clean_sbu_0, # of connection points: 4
#     Node 22, Type 0, BuildingBlock: KUFVIS_clean_sbu_0, # of connection points: 4
#     Node 23, Type 0, BuildingBlock: KUFVIS_clean_sbu_0, # of connection points: 4
#     Edge 24, Type (0, 0), BuildingBlock: AJUNOK_clean_linker_0, # of connection points: 2
#     Edge 25, Type (0, 0), BuildingBlock: AJUNOK_clean_linker_0, # of connection points: 2
#     Edge 26, Type (0, 0), BuildingBlock: AJUNOK_clean_linker_0, # of connection points: 2
#     Edge 27, Type (0, 0), BuildingBlock: AJUNOK_clean_linker_0, # of connection points: 2
#     Edge 28, Type (0, 0), BuildingBlock: AJUNOK_clean_linker_0, # of connection points: 2
#     Edge 29, Type (0, 0), BuildingBlock: AJUNOK_clean_linker_0, # of connection points: 2
#     Edge 30, Type (0, 0), BuildingBlock: AJUNOK_clean_linker_0, # of connection points: 2
#     Edge 31, Type (0, 0), BuildingBlock: AJUNOK_clean_linker_0, # of connection points: 2
#     Edge 32, Type (0, 0), BuildingBlock: AJUNOK_clean_linker_0, # of connection points: 2
#     Edge 33, Type (0, 0), BuildingBlock: AJUNOK_clean_linker_0, # of connection points: 2
#     Edge 34, Type (0, 0), BuildingBlock: AJUNOK_clean_linker_0, # of connection points: 2
#     Edge 35, Type (0, 0), BuildingBlock: AJUNOK_clean_linker_0, # of connection points: 2
#     Edge 36, Type (0, 0), BuildingBlock: AJUNOK_clean_linker_0, # of connection points: 2
#     Edge 37, Type (0, 0), BuildingBlock: AJUNOK_clean_linker_0, # of connection points: 2
#     Edge 38, Type (0, 0), BuildingBlock: AJUNOK_clean_linker_0, # of connection points: 2
#     Edge 39, Type (0, 0), BuildingBlock: AJUNOK_clean_linker_0, # of connection points: 2
#     Edge 40, Type (0, 0), BuildingBlock: AJUNOK_clean_linker_0, # of connection points: 2
#     Edge 41, Type (0, 0), BuildingBlock: AJUNOK_clean_linker_0, # of connection points: 2
#     Edge 42, Type (0, 0), BuildingBlock: AJUNOK_clean_linker_0, # of connection points: 2
#     Edge 43, Type (0, 0), BuildingBlock: AJUNOK_clean_linker_0, # of connection points: 2
#     Edge 44, Type (0, 0), BuildingBlock: AJUNOK_clean_linker_0, # of connection points: 2
#     Edge 45, Type (0, 0), BuildingBlock: AJUNOK_clean_linker_0, # of connection points: 2
#     Edge 46, Type (0, 0), BuildingBlock: AJUNOK_clean_linker_0, # of connection points: 2
#     Edge 47, Type (0, 0), BuildingBlock: AJUNOK_clean_linker_0, # of connection points: 2
#     Edge 48, Type (0, 0), BuildingBlock: AJUNOK_clean_linker_0, # of connection points: 2
#     Edge 49, Type (0, 0), BuildingBlock: AJUNOK_clean_linker_0, # of connection points: 2
#     Edge 50, Type (0, 0), BuildingBlock: AJUNOK_clean_linker_0, # of connection points: 2
#     Edge 51, Type (0, 0), BuildingBlock: AJUNOK_clean_linker_0, # of connection points: 2
#     Edge 52, Type (0, 0), BuildingBlock: AJUNOK_clean_linker_0, # of connection points: 2
#     Edge 53, Type (0, 0), BuildingBlock: AJUNOK_clean_linker_0, # of connection points: 2
#     Edge 54, Type (0, 0), BuildingBlock: AJUNOK_clean_linker_0, # of connection points: 2
#     Edge 55, Type (0, 0), BuildingBlock: AJUNOK_clean_linker_0, # of connection points: 2
#     Edge 56, Type (0, 0), BuildingBlock: AJUNOK_clean_linker_0, # of connection points: 2
#     Edge 57, Type (0, 0), BuildingBlock: AJUNOK_clean_linker_0, # of connection points: 2
#     Edge 58, Type (0, 0), BuildingBlock: AJUNOK_clean_linker_0, # of connection points: 2
#     Edge 59, Type (0, 0), BuildingBlock: AJUNOK_clean_linker_0, # of connection points: 2
#     Edge 60, Type (0, 0), BuildingBlock: AJUNOK_clean_linker_0, # of connection points: 2
#     Edge 61, Type (0, 0), BuildingBlock: AJUNOK_clean_linker_0, # of connection points: 2
#     Edge 62, Type (0, 0), BuildingBlock: AJUNOK_clean_linker_0, # of connection points: 2
#     Edge 63, Type (0, 0), BuildingBlock: AJUNOK_clean_linker_0, # of connection points: 2
#     Edge 64, Type (0, 0), BuildingBlock: AJUNOK_clean_linker_0, # of connection points: 2
#     Edge 65, Type (0, 0), BuildingBlock: AJUNOK_clean_linker_0, # of connection points: 2
#     Edge 66, Type (0, 0), BuildingBlock: AJUNOK_clean_linker_0, # of connection points: 2
#     Edge 67, Type (0, 0), BuildingBlock: AJUNOK_clean_linker_0, # of connection points: 2
#     Edge 68, Type (0, 0), BuildingBlock: AJUNOK_clean_linker_0, # of connection points: 2
#     Edge 69, Type (0, 0), BuildingBlock: AJUNOK_clean_linker_0, # of connection points: 2
#     Edge 70, Type (0, 0), BuildingBlock: AJUNOK_clean_linker_0, # of connection points: 2
#     Edge 71, Type (0, 0), BuildingBlock: AJUNOK_clean_linker_0, # of connection points: 2
# Relax obj value: 0.323
# Max RMSD: 0.270
# Mean RMSD: 0.241
data_MOF--net-unv--node1-KUFVIS_clean_sbu_0--edge1-AJUNOK_clean_linker_0
_symmetry_space_group_name_H-M    P1
_symmetry_Int_Tables_number       1
_symmetry_cell_setting            triclinic
loop_
_symmetry_equiv_pos_as_xyz
'x, y, z'
_cell_length_a     35.489858
_cell_length_b     35.472413
_cell_length_c     35.464176
_cell_angle_alpha  89.898627
_cell_angle_beta   89.936922
_cell_angle_gamma 90.105998
loop_
_atom_site_label
_atom_site_type_symbol
_atom_site_fract_x
_atom_site_fract_y
_atom_site_fract_z
_atom_type_partial_charge
Mn0 Mn 0.00392 0.0957 0.37547 0.0
Mn1 Mn 0.08899 0.12426 0.34681 0.0
C2 C 0.04935 0.11043 0.42043 0.0
C3 C 0.96663 0.0427 0.3878 0.0
C4 C 0.01836 0.17329 0.34317 0.0
O5 O 0.00614 0.08048 0.32028 0.0
O6 O 0.06798 0.08784 0.30895 0.0
C7 C 0.13235 0.0529 0.34901 0.0
N8 N 0.12727 0.08899 0.36103 0.0
C9 C 0.18165 0.0849 0.40133 0.0
C10 C 0.18819 0.04828 0.38816 0.0
C11 C 0.16322 0.03206 0.36219 0.0
C12 C 0.15085 0.10463 0.38654 0.0
H13 H 0.1128 0.03986 0.32991 0.0
C14 C 0.03572 0.07322 0.30122 0.0
O15 O 0.95104 0.07498 0.37993 0.0
O16 O 1.00295 0.04213 0.38926 0.0
N17 N 0.11204 0.15733 0.38297 0.0
C18 C 0.10204 0.19301 0.39299 0.0
C19 C 0.12274 0.21216 0.4207 0.0
C20 C 0.15399 0.19472 0.43748 0.0
C21 C 0.16438 0.15837 0.42617 0.0
C22 C 0.14253 0.14059 0.3985 0.0
H23 H 0.07869 0.20699 0.37978 0.0
O24 O 0.01389 0.10964 0.42943 0.0
O25 O 0.05624 0.10307 0.38532 0.0
O26 O 0.99681 0.15133 0.36197 0.0
O27 O 0.05148 0.16389 0.3321 0.0
C28 C 0.19548 0.13902 0.44144 0.0
C29 C 0.20422 0.10237 0.4289 0.0
H30 H 0.21217 0.0323 0.3979 0.0
H31 H 0.16767 0.00351 0.35246 0.0
H32 H 0.11473 0.24038 0.42897 0.0
H33 H 0.16991 0.20959 0.45886 0.0
H34 H 0.21285 0.15206 0.46289 0.0
H35 H 0.22812 0.0877 0.44094 0.0
Mn36 Mn 1.00184 0.41288 0.36883 0.0
Mn37 Mn 0.91585 0.38431 0.34287 0.0
C38 C 0.95703 0.40042 0.41519 0.0
C39 C 0.04036 0.46557 0.37811 0.0
C40 C 0.98595 0.33445 0.33994 0.0
O41 O 0.99862 0.42596 0.31313 0.0
O42 O 0.93639 0.41989 0.30391 0.0
C43 C 0.87061 0.45457 0.34106 0.0
N44 N 0.87778 0.4201 0.35651 0.0
C45 C 0.82532 0.42641 0.39911 0.0
C46 C 0.81737 0.4618 0.38343 0.0
C47 C 0.84006 0.47588 0.35422 0.0
C48 C 0.85566 0.40603 0.38422 0.0
H49 H 0.88816 0.46598 0.3191 0.0
C50 C 0.96851 0.43452 0.29554 0.0
O51 O 0.05512 0.4327 0.37132 0.0
O52 O 0.00406 0.46705 0.38022 0.0
N53 N 0.89348 0.35256 0.38078 0.0
C54 C 0.90302 0.31687 0.39128 0.0
C55 C 0.88333 0.29903 0.42067 0.0
C56 C 0.85349 0.31775 0.43859 0.0
C57 C 0.84335 0.35401 0.42665 0.0
C58 C 0.86421 0.37049 0.39735 0.0
H59 H 0.92516 0.30187 0.37716 0.0
O60 O 0.99263 0.40126 0.42352 0.0
O61 O 0.94961 0.40642 0.37991 0.0
O62 O 0.00795 0.35672 0.35768 0.0
O63 O 0.95294 0.34403 0.32871 0.0
C64 C 0.81329 0.37438 0.44265 0.0
C65 C 0.80415 0.41049 0.42876 0.0
H66 H 0.79382 0.47833 0.39339 0.0
H67 H 0.8342 0.50325 0.34206 0.0
H68 H 0.89101 0.2708 0.42932 0.0
H69 H 0.8383 0.30385 0.46121 0.0
H70 H 0.79679 0.3624 0.46543 0.0
H71 H 0.78075 0.42575 0.44103 0.0
Mn72 Mn 0.99888 0.91411 0.13321 0.0
Mn73 Mn 0.08464 0.88584 0.15946 0.0
C74 C 0.04285 0.8986 0.08699 0.0
C75 C 0.96186 0.9674 0.12168 0.0
C76 C 0.01374 0.83721 0.16683 0.0
O77 O 1.00311 0.93004 0.18809 0.0
O78 O 0.06541 0.92364 0.19683 0.0
C79 C 0.12845 0.95696 0.1528 0.0
N80 N 0.12265 0.92043 0.14238 0.0
C81 C 0.17398 0.92357 0.09797 0.0
C82 C 0.18082 0.96092 0.10879 0.0
C83 C 0.15787 0.97772 0.13624 0.0
C84 C 0.14457 0.90404 0.11586 0.0
H85 H 0.11035 0.97048 0.17301 0.0
C86 C 0.03346 0.9384 0.2054 0.0
O87 O 0.9461 0.93533 0.13031 0.0
O88 O 0.9981 0.96758 0.11885 0.0
N89 N 0.10584 0.85148 0.12338 0.0
C90 C 0.09504 0.81559 0.11493 0.0
C91 C 0.11412 0.79557 0.08667 0.0
C92 C 0.14437 0.81245 0.06752 0.0
C93 C 0.15549 0.84913 0.07704 0.0
C94 C 0.13551 0.86769 0.10561 0.0
H95 H 0.07223 0.80212 0.12967 0.0
O96 O 0.00717 0.89954 0.07899 0.0
O97 O 0.05061 0.9061 0.12184 0.0
O98 O 0.99194 0.85867 0.14781 0.0
O99 O 0.04714 0.84694 0.17692 0.0
C100 C 0.18535 0.86814 0.05894 0.0
C101 C 0.19462 0.90532 0.06943 0.0
H102 H 0.20328 0.97707 0.09582 0.0
H103 H 0.16259 0.00675 0.14433 0.0
H104 H 0.1055 0.76714 0.07969 0.0
H105 H 0.15889 0.79698 0.04558 0.0
H106 H 0.20121 0.85451 0.03671 0.0
H107 H 0.21739 0.9198 0.05503 0.0
Mn108 Mn 0.99902 0.60012 0.13328 0.0
Mn109 Mn 0.91202 0.62482 0.15901 0.0
C110 C 0.95495 0.61509 0.08696 0.0
C111 C 0.03724 0.54817 0.12009 0.0
C112 C 0.98122 0.67584 0.16776 0.0
O113 O 0.99486 0.58258 0.18786 0.0
O114 O 0.93222 0.58694 0.19608 0.0
C115 C 0.87237 0.55166 0.14886 0.0
N116 N 0.87592 0.58898 0.14034 0.0
C117 C 0.82634 0.58445 0.09415 0.0
C118 C 0.82154 0.54632 0.10337 0.0
C119 C 0.84479 0.52982 0.13073 0.0
C120 C 0.85396 0.60499 0.1136 0.0
H121 H 0.89127 0.53829 0.16829 0.0
C122 C 0.96459 0.57329 0.20501 0.0
O123 O 0.05235 0.58022 0.12976 0.0
O124 O 1.00103 0.54729 0.11761 0.0
N125 N 0.88979 0.65914 0.12344 0.0
C126 C 0.89835 0.69603 0.11682 0.0
C127 C 0.87892 0.71601 0.08875 0.0
C128 C 0.85041 0.69809 0.06805 0.0
C129 C 0.84123 0.66048 0.07602 0.0
C130 C 0.86146 0.64203 0.10451 0.0
H131 H 0.91946 0.71036 0.13307 0.0
O132 O 0.9907 0.61577 0.07925 0.0
O133 O 0.94734 0.60693 0.12168 0.0
O134 O 0.00412 0.65529 0.14905 0.0
O135 O 0.94794 0.6649 0.17735 0.0
C136 C 0.81301 0.64051 0.05651 0.0
C137 C 0.80559 0.60251 0.06555 0.0
H138 H 0.80069 0.52924 0.089 0.0
H139 H 0.84196 0.50015 0.13733 0.0
H140 H 0.88584 0.74522 0.08318 0.0
H141 H 0.8356 0.71354 0.04627 0.0
H142 H 0.79704 0.65403 0.03427 0.0
H143 H 0.78418 0.58728 0.04999 0.0
Mn144 Mn 0.37046 0.00424 0.09675 0.0
Mn145 Mn 0.3428 0.09096 0.12193 0.0
C146 C 0.41518 0.05007 0.11009 0.0
C147 C 0.38675 0.96624 0.04532 0.0
C148 C 0.337 0.02205 0.17408 0.0
O149 O 0.31703 0.00666 0.07748 0.0
O150 O 0.30274 0.06753 0.08935 0.0
C151 C 0.33763 0.13126 0.04867 0.0
N152 N 0.35432 0.12683 0.08303 0.0
C153 C 0.39611 0.17907 0.07109 0.0
C154 C 0.37974 0.18377 0.03544 0.0
C155 C 0.35016 0.15994 0.02433 0.0
C156 C 0.38195 0.15046 0.09449 0.0
H157 H 0.31505 0.11298 0.03968 0.0
C158 C 0.29656 0.03577 0.07296 0.0
O159 O 0.37657 0.95081 0.07712 0.0
O160 O 0.38781 1.00246 0.04452 0.0
N161 N 0.38153 0.11585 0.1504 0.0
C162 C 0.39625 0.10619 0.18454 0.0
C163 C 0.42627 0.12716 0.19952 0.0
C164 C 0.44147 0.1574 0.17893 0.0
C165 C 0.42671 0.1662 0.14336 0.0
C166 C 0.39647 0.14455 0.13004 0.0
H167 H 0.3859 0.08209 0.19981 0.0
O168 O 0.42348 0.01458 0.11338 0.0
O169 O 0.38024 0.05673 0.10189 0.0
O170 O 0.3525 0.99834 0.15172 0.0
O171 O 0.33075 0.05646 0.16487 0.0
C172 C 0.4415 0.195 0.12023 0.0
C173 C 0.42613 0.20152 0.08417 0.0
H174 H 0.38969 0.20552 0.01637 0.0
H175 H 0.33729 0.16344 0.9969 0.0
H176 H 0.43806 0.11965 0.22664 0.0
H177 H 0.46493 0.17323 0.19039 0.0
H178 H 0.46491 0.21212 0.1298 0.0
H179 H 0.43781 0.22367 0.06659 0.0
Mn180 Mn 0.63189 0.50171 0.09837 0.0
Mn181 Mn 0.66093 0.41543 0.12337 0.0
C182 C 0.58759 0.45585 0.11372 0.0
C183 C 0.61681 0.53979 0.04662 0.0
C184 C 0.66564 0.48394 0.17579 0.0
O185 O 0.6854 0.50017 0.07899 0.0
O186 O 0.70046 0.43957 0.09027 0.0
C187 C 0.66431 0.37704 0.04923 0.0
N188 N 0.64982 0.37941 0.08477 0.0
C189 C 0.61228 0.32367 0.07514 0.0
C190 C 0.62715 0.32048 0.03864 0.0
C191 C 0.65318 0.34734 0.02562 0.0
C192 C 0.62494 0.35351 0.09769 0.0
H193 H 0.68425 0.39759 0.03884 0.0
C194 C 0.70634 0.47154 0.07409 0.0
O195 O 0.62631 0.55507 0.07863 0.0
O196 O 0.61466 0.50356 0.04595 0.0
N197 N 0.62355 0.38933 0.15265 0.0
C198 C 0.60819 0.39908 0.18648 0.0
C199 C 0.57996 0.37638 0.20252 0.0
C200 C 0.56723 0.34424 0.18333 0.0
C201 C 0.58245 0.33541 0.14796 0.0
C202 C 0.61078 0.35893 0.13349 0.0
H203 H 0.61656 0.42455 0.2006 0.0
O204 O 0.57903 0.49137 0.11555 0.0
O205 O 0.6222 0.44895 0.10399 0.0
O206 O 0.64981 0.50765 0.15354 0.0
O207 O 0.67268 0.44985 0.1662 0.0
C208 C 0.56976 0.30487 0.12601 0.0
C209 C 0.58483 0.29887 0.08972 0.0
H210 H 0.61864 0.2977 0.02025 0.0
H211 H 0.66461 0.34519 0.9974 0.0
H212 H 0.56764 0.38397 0.22938 0.0
H213 H 0.54513 0.32704 0.1956 0.0
H214 H 0.54801 0.28614 0.13654 0.0
H215 H 0.5746 0.27546 0.07304 0.0
Mn216 Mn 0.37068 0.99242 0.4088 0.0
Mn217 Mn 0.34155 0.90653 0.38294 0.0
C218 C 0.4151 0.94647 0.3944 0.0
C219 C 0.38742 0.02987 0.46024 0.0
C220 C 0.33546 0.97682 0.33254 0.0
O221 O 0.31682 0.99049 0.42775 0.0
O222 O 0.30455 0.92853 0.42003 0.0
C223 C 0.33618 0.85821 0.45087 0.0
N224 N 0.35429 0.86767 0.41825 0.0
C225 C 0.3952 0.8139 0.4238 0.0
C226 C 0.37828 0.80489 0.4584 0.0
C227 C 0.34834 0.8269 0.47177 0.0
C228 C 0.3815 0.84523 0.40399 0.0
H229 H 0.31198 0.87379 0.46043 0.0
C230 C 0.2982 0.96074 0.4355 0.0
O231 O 0.37733 0.04551 0.42857 0.0
O232 O 0.3878 0.99359 0.46106 0.0
N233 N 0.37867 0.88369 0.35074 0.0
C234 C 0.39198 0.89579 0.31673 0.0
C235 C 0.42126 0.87605 0.29896 0.0
C236 C 0.4372 0.84446 0.31661 0.0
C237 C 0.42398 0.83313 0.3521 0.0
C238 C 0.39466 0.8539 0.36845 0.0
H239 H 0.38114 0.92085 0.30358 0.0
O240 O 0.42356 0.982 0.39194 0.0
O241 O 0.38019 0.9397 0.40297 0.0
O242 O 0.35347 0.99946 0.354 0.0
O243 O 0.32702 0.94315 0.34263 0.0
C244 C 0.43909 0.80231 0.37209 0.0
C245 C 0.4245 0.79251 0.40779 0.0
H246 H 0.38721 0.78048 0.47438 0.0
H247 H 0.33431 0.81946 0.49787 0.0
H248 H 0.43184 0.88548 0.2719 0.0
H249 H 0.45993 0.82943 0.30289 0.0
H250 H 0.46179 0.78578 0.36015 0.0
H251 H 0.43592 0.76838 0.42263 0.0
Mn252 Mn 0.6336 0.50561 0.41307 0.0
Mn253 Mn 0.65658 0.59352 0.38714 0.0
C254 C 0.58614 0.54912 0.40073 0.0
C255 C 0.62184 0.46723 0.46586 0.0
C256 C 0.66565 0.52429 0.33591 0.0
O257 O 0.68825 0.51063 0.42881 0.0
O258 O 0.69517 0.57373 0.42388 0.0
C259 C 0.6586 0.64192 0.45511 0.0
N260 N 0.64109 0.63113 0.42269 0.0
C261 C 0.59489 0.68026 0.42967 0.0
C262 C 0.61071 0.68982 0.46457 0.0
C263 C 0.64319 0.67105 0.47699 0.0
C264 C 0.61172 0.6511 0.40903 0.0
H265 H 0.68466 0.62906 0.46375 0.0
C266 C 0.7044 0.54143 0.43779 0.0
O267 O 0.6309 0.45215 0.43364 0.0
O268 O 0.61938 0.50341 0.46648 0.0
N269 N 0.61761 0.61383 0.35531 0.0
C270 C 0.60517 0.6012 0.32122 0.0
C271 C 0.57417 0.61856 0.30392 0.0
C272 C 0.55552 0.64822 0.32215 0.0
C273 C 0.56789 0.66005 0.35771 0.0
C274 C 0.59921 0.64188 0.37346 0.0
H275 H 0.61802 0.57743 0.30763 0.0
O276 O 0.57917 0.51323 0.39929 0.0
O277 O 0.62096 0.5575 0.4075 0.0
O278 O 0.64867 0.50045 0.35719 0.0
O279 O 0.67327 0.55796 0.34669 0.0
C280 C 0.54985 0.68869 0.37843 0.0
C281 C 0.56345 0.69891 0.41432 0.0
H282 H 0.59877 0.71219 0.48156 0.0
H283 H 0.65652 0.67921 0.50317 0.0
H284 H 0.5643 0.60868 0.2768 0.0
H285 H 0.53137 0.66129 0.30886 0.0
H286 H 0.52551 0.7031 0.36698 0.0
H287 H 0.54962 0.72127 0.42982 0.0
Mn288 Mn 0.09584 0.37514 0.00407 0.0
Mn289 Mn 0.1195 0.34789 0.09134 0.0
C290 C 0.10748 0.42056 0.05002 0.0
C291 C 0.04555 0.38848 0.96389 0.0
C292 C 0.17208 0.34156 0.0228 0.0
O293 O 0.0792 0.32047 0.00617 0.0
O294 O 0.08359 0.31014 0.0688 0.0
C295 C 0.04987 0.3431 0.13727 0.0
N296 N 0.08291 0.36093 0.12887 0.0
C297 C 0.07538 0.40275 0.18169 0.0
C298 C 0.04025 0.38635 0.18939 0.0
C299 C 0.0277 0.35598 0.16741 0.0
C300 C 0.09637 0.38848 0.15144 0.0
H301 H 0.04079 0.31873 0.12164 0.0
C302 C 0.06995 0.30268 0.036 0.0
O303 O 0.0784 0.37973 0.9501 0.0
O304 O 0.04271 0.38991 1.00014 0.0
N305 N 0.15059 0.38579 0.11449 0.0
C306 C 0.1846 0.39957 0.10298 0.0
C307 C 0.20152 0.42933 0.12279 0.0
C308 C 0.18298 0.44532 0.15382 0.0
C309 C 0.14746 0.43169 0.16445 0.0
C310 C 0.13203 0.40183 0.1437 0.0
H311 H 0.19833 0.3888 0.07826 0.0
O312 O 0.11007 0.42902 0.01448 0.0
O313 O 0.09979 0.38547 0.05681 0.0
O314 O 0.15144 0.3597 0.99949 0.0
O315 O 0.16104 0.33319 0.05621 0.0
C316 C 0.12648 0.44705 0.19444 0.0
C317 C 0.09061 0.43233 0.20322 0.0
H318 H 0.02305 0.39634 0.21256 0.0
H319 H 1.00114 0.34235 0.17382 0.0
H320 H 0.22856 0.44029 0.1138 0.0
H321 H 0.196 0.46848 0.16886 0.0
H322 H 0.13769 0.4701 0.21101 0.0
H323 H 0.07499 0.44382 0.22667 0.0
Mn324 Mn 0.09357 0.63287 0.49775 0.0
Mn325 Mn 0.12385 0.66928 0.41605 0.0
C326 C 0.10812 0.59201 0.44857 0.0
C327 C 0.04094 0.61742 0.5344 0.0
C328 C 0.17068 0.66697 0.48819 0.0
O329 O 0.07876 0.68812 0.50012 0.0
O330 O 0.08541 0.7036 0.43886 0.0
C331 C 0.05852 0.67715 0.36476 0.0
N332 N 0.09131 0.65946 0.37411 0.0
C333 C 0.09098 0.62503 0.31567 0.0
C334 C 0.05618 0.64126 0.30656 0.0
C335 C 0.04006 0.66772 0.33107 0.0
C336 C 0.10785 0.63517 0.34991 0.0
H337 H 0.04683 0.69884 0.38245 0.0
C338 C 0.07051 0.70825 0.47155 0.0
O339 O 0.07338 0.62411 0.55013 0.0
O340 O 0.03981 0.61916 0.49801 0.0
N341 N 0.15829 0.63522 0.3919 0.0
C342 C 0.19326 0.62406 0.40312 0.0
C343 C 0.21363 0.59831 0.38112 0.0
C344 C 0.19817 0.58465 0.34741 0.0
C345 C 0.16244 0.5969 0.33602 0.0
C346 C 0.1431 0.62206 0.35949 0.0
H347 H 0.20579 0.63477 0.4285 0.0
O348 O 0.1073 0.58022 0.48326 0.0
O349 O 0.1011 0.62769 0.44435 0.0
O350 O 0.14902 0.64509 0.50678 0.0
O351 O 0.16144 0.68141 0.45642 0.0
C352 C 0.1456 0.58566 0.30189 0.0
C353 C 0.11015 0.60014 0.29151 0.0
H354 H 0.04205 0.63431 0.2804 0.0
H355 H 0.01373 0.68123 0.32378 0.0
H356 H 0.24136 0.58927 0.38998 0.0
H357 H 0.21415 0.56511 0.33029 0.0
H358 H 0.16003 0.5665 0.28303 0.0
H359 H 0.09817 0.59251 0.26452 0.0
Mn360 Mn 0.90881 0.87082 0.50337 0.0
Mn361 Mn 0.88538 0.83928 0.41753 0.0
C362 C 0.89643 0.91379 0.4555 0.0
C363 C 0.96015 0.8869 0.54176 0.0
C364 C 0.83164 0.83745 0.48517 0.0
O365 O 0.92664 0.81684 0.50409 0.0
O366 O 0.91738 0.80054 0.44341 0.0
C367 C 0.95865 0.83119 0.37813 0.0
N368 N 0.92447 0.84844 0.38139 0.0
C369 C 0.93539 0.88425 0.32473 0.0
C370 C 0.97082 0.86722 0.32106 0.0
C371 C 0.98242 0.84045 0.34781 0.0
C372 C 0.91267 0.87354 0.35525 0.0
H373 H 0.96783 0.81046 0.39842 0.0
C374 C 0.93239 0.79534 0.47598 0.0
O375 O 0.92774 0.87846 0.55691 0.0
O376 O 0.9615 0.88703 0.50551 0.0
N377 N 0.85718 0.87648 0.39026 0.0
C378 C 0.82326 0.8922 0.39897 0.0
C379 C 0.80809 0.92014 0.37541 0.0
C380 C 0.82818 0.93212 0.34343 0.0
C381 C 0.86353 0.91642 0.33562 0.0
C382 C 0.87723 0.88863 0.36012 0.0
H383 H 0.80827 0.8842 0.42417 0.0
O384 O 0.89337 0.9236 0.49061 0.0
O385 O 0.90493 0.87861 0.45019 0.0
O386 O 0.85321 0.85429 0.50876 0.0
O387 O 0.84225 0.82892 0.45177 0.0
C388 C 0.88596 0.92768 0.30478 0.0
C389 C 0.92173 0.91136 0.29919 0.0
H390 H 0.98932 0.87447 0.29782 0.0
H391 H 0.00964 0.82702 0.34509 0.0
H392 H 0.78113 0.93269 0.38211 0.0
H393 H 0.81646 0.95382 0.32542 0.0
H394 H 0.87597 0.94889 0.28521 0.0
H395 H 0.9386 0.91986 0.27524 0.0
Mn396 Mn 0.40671 0.63158 0.51083 0.0
Mn397 Mn 0.3795 0.66302 0.59539 0.0
C398 C 0.39084 0.58806 0.55726 0.0
C399 C 0.45838 0.61662 0.47333 0.0
C400 C 0.33074 0.66668 0.52442 0.0
O401 O 0.42405 0.6862 0.51151 0.0
O402 O 0.4183 0.69821 0.57357 0.0
C403 C 0.44694 0.66532 0.64441 0.0
N404 N 0.41338 0.64917 0.63506 0.0
C405 C 0.41652 0.60769 0.68875 0.0
C406 C 0.45195 0.62268 0.69775 0.0
C407 C 0.46707 0.65186 0.67567 0.0
C408 C 0.39767 0.62248 0.65734 0.0
H409 H 0.45773 0.68913 0.62892 0.0
C410 C 0.43308 0.70448 0.54102 0.0
O411 O 0.42628 0.62536 0.45787 0.0
O412 O 0.45951 0.61592 0.5097 0.0
N413 N 0.34508 0.62798 0.61853 0.0
C414 C 0.30924 0.6188 0.60828 0.0
C415 C 0.28965 0.59069 0.62821 0.0
C416 C 0.30688 0.57254 0.65884 0.0
C417 C 0.34345 0.58294 0.66949 0.0
C418 C 0.36171 0.61097 0.64837 0.0
H419 H 0.2955 0.63284 0.58525 0.0
O420 O 0.39074 0.57865 0.5219 0.0
O421 O 0.3997 0.62298 0.56371 0.0
O422 O 0.35178 0.64647 0.50351 0.0
O423 O 0.34077 0.67837 0.55711 0.0
C424 C 0.36242 0.56667 0.70037 0.0
C425 C 0.39885 0.57922 0.71015 0.0
H426 H 0.46727 0.61292 0.72223 0.0
H427 H 0.49385 0.66444 0.68312 0.0
H428 H 0.26126 0.58312 0.62003 0.0
H429 H 0.29165 0.55091 0.67419 0.0
H430 H 0.34905 0.54484 0.71711 0.0
H431 H 0.4129 0.56698 0.73435 0.0
Mn432 Mn 0.50249 0.59398 0.87368 0.0
Mn433 Mn 0.58728 0.62035 0.84149 0.0
C434 C 0.54978 0.60777 0.91692 0.0
C435 C 0.46374 0.54322 0.88893 0.0
C436 C 0.51736 0.67056 0.84001 0.0
O437 O 0.50228 0.57775 0.81873 0.0
O438 O 0.56434 0.58246 0.80618 0.0
C439 C 0.6362 0.55303 0.83628 0.0
N440 N 0.62657 0.58561 0.85414 0.0
C441 C 0.67964 0.58015 0.896 0.0
C442 C 0.68857 0.54535 0.87961 0.0
C443 C 0.66709 0.53202 0.8492 0.0
C444 C 0.64862 0.59992 0.88168 0.0
H445 H 0.62103 0.5436 0.81173 0.0
C446 C 0.53151 0.56824 0.80018 0.0
O447 O 0.44921 0.57585 0.88061 0.0
O448 O 0.50006 0.54071 0.88846 0.0
N449 N 0.61133 0.65363 0.87682 0.0
C450 C 0.60262 0.6899 0.88582 0.0
C451 C 0.62278 0.70843 0.91436 0.0
C452 C 0.65229 0.68978 0.93291 0.0
C453 C 0.66173 0.65295 0.92233 0.0
C454 C 0.64033 0.63576 0.89396 0.0
H455 H 0.58077 0.70481 0.87115 0.0
O456 O 0.51456 0.60855 0.92677 0.0
O457 O 0.5556 0.5998 0.88165 0.0
O458 O 0.49624 0.64939 0.85998 0.0
O459 O 0.54954 0.66006 0.82738 0.0
C460 C 0.69187 0.63281 0.93851 0.0
C461 C 0.70096 0.5965 0.9252 0.0
H462 H 0.71259 0.52925 0.88925 0.0
H463 H 0.67461 0.50587 0.83545 0.0
H464 H 0.61572 0.73713 0.92186 0.0
H465 H 0.66791 0.70424 0.95478 0.0
H466 H 0.70874 0.64529 0.96066 0.0
H467 H 0.72478 0.58165 0.93717 0.0
Mn468 Mn 0.5053 0.9097 0.87148 0.0
Mn469 Mn 0.41854 0.88227 0.84713 0.0
C470 C 0.46111 0.89781 0.91871 0.0
C471 C 0.54541 0.96118 0.8804 0.0
C472 C 0.48811 0.83226 0.84131 0.0
O473 O 0.50074 0.92311 0.81588 0.0
O474 O 0.43799 0.919 0.80862 0.0
C475 C 0.3727 0.95217 0.84917 0.0
N476 N 0.38073 0.91733 0.86326 0.0
C477 C 0.3299 0.92193 0.90807 0.0
C478 C 0.32113 0.95769 0.89384 0.0
C479 C 0.34253 0.97284 0.86418 0.0
C480 C 0.35979 0.90227 0.8914 0.0
H481 H 0.38938 0.96437 0.827 0.0
C482 C 0.47032 0.93259 0.79923 0.0
O483 O 0.55899 0.92798 0.87289 0.0
O484 O 0.50917 0.96393 0.88303 0.0
N485 N 0.39764 0.84917 0.88476 0.0
C486 C 0.40742 0.81307 0.89347 0.0
C487 C 0.38887 0.79412 0.9229 0.0
C488 C 0.35979 0.81214 0.94268 0.0
C489 C 0.34922 0.84879 0.93247 0.0
C490 C 0.36898 0.86639 0.90304 0.0
H491 H 0.4288 0.7985 0.87784 0.0
O492 O 0.49687 0.89806 0.92643 0.0
O493 O 0.45332 0.90377 0.88354 0.0
O494 O 0.51028 0.85363 0.85987 0.0
O495 O 0.45528 0.84266 0.83035 0.0
C496 C 0.31969 0.86844 0.95025 0.0
C497 C 0.30993 0.90494 0.93794 0.0
H498 H 0.29783 0.97361 0.90528 0.0
H499 H 0.33602 1.00052 0.85313 0.0
H500 H 0.39679 0.76556 0.93012 0.0
H501 H 0.34544 0.79739 0.9653 0.0
H502 H 0.30406 0.8556 0.97318 0.0
H503 H 0.28691 0.91964 0.95155 0.0
Mn504 Mn 0.49993 0.40934 0.6358 0.0
Mn505 Mn 0.58504 0.38364 0.66739 0.0
C506 C 0.54809 0.39917 0.59257 0.0
C507 C 0.45952 0.4597 0.62349 0.0
C508 C 0.5169 0.33089 0.66552 0.0
O509 O 0.49887 0.42312 0.6913 0.0
O510 O 0.56012 0.41613 0.70624 0.0
C511 C 0.62685 0.45564 0.6758 0.0
N512 N 0.62226 0.42178 0.65819 0.0
C513 C 0.67719 0.43261 0.61974 0.0
C514 C 0.68217 0.46773 0.63711 0.0
C515 C 0.65704 0.47915 0.66547 0.0
C516 C 0.64701 0.41002 0.63172 0.0
H517 H 0.60765 0.46476 0.69756 0.0
C518 C 0.52723 0.42999 0.71224 0.0
O519 O 0.44612 0.42608 0.62973 0.0
O520 O 0.49576 0.46338 0.62367 0.0
N521 N 0.61136 0.35482 0.62997 0.0
C522 C 0.60311 0.31994 0.61614 0.0
C523 C 0.62555 0.30456 0.58743 0.0
C524 C 0.65628 0.32511 0.57319 0.0
C525 C 0.66439 0.36086 0.5879 0.0
C526 C 0.64106 0.37475 0.61656 0.0
H527 H 0.57954 0.30394 0.62674 0.0
O528 O 0.51306 0.39792 0.58209 0.0
O529 O 0.55319 0.40567 0.62826 0.0
O530 O 0.49513 0.35281 0.64709 0.0
O531 O 0.54934 0.34106 0.67767 0.0
C532 C 0.69452 0.38337 0.57497 0.0
C533 C 0.70101 0.41915 0.59099 0.0
H534 H 0.70517 0.48615 0.62892 0.0
H535 H 0.66079 0.50614 0.67917 0.0
H536 H 0.61909 0.27694 0.57621 0.0
H537 H 0.67343 0.31319 0.55093 0.0
H538 H 0.71294 0.37339 0.55276 0.0
H539 H 0.72438 0.43613 0.58093 0.0
Mn540 Mn 0.50528 0.09209 0.63299 0.0
Mn541 Mn 0.4172 0.11662 0.65569 0.0
C542 C 0.46145 0.1023 0.58517 0.0
C543 C 0.546 0.04111 0.6241 0.0
C544 C 0.48529 0.16937 0.66232 0.0
O545 O 0.50042 0.0785 0.68857 0.0
O546 O 0.43753 0.08182 0.69535 0.0
C547 C 0.37608 0.04357 0.6531 0.0
N548 N 0.38157 0.07914 0.63955 0.0
C549 C 0.33259 0.07053 0.59333 0.0
C550 C 0.32645 0.03394 0.60696 0.0
C551 C 0.34815 0.0205 0.63715 0.0
C552 C 0.36034 0.09254 0.61088 0.0
H553 H 0.39339 0.03246 0.67529 0.0
C554 C 0.46997 0.06917 0.70541 0.0
O555 O 0.55935 0.07445 0.6317 0.0
O556 O 0.50985 0.03804 0.62154 0.0
N557 N 0.39528 0.14781 0.61718 0.0
C558 C 0.40369 0.1841 0.60772 0.0
C559 C 0.38462 0.20154 0.57776 0.0
C560 C 0.35669 0.18168 0.55803 0.0
C561 C 0.34778 0.14469 0.56875 0.0
C562 C 0.36771 0.12879 0.59893 0.0
H563 H 0.4245 0.19985 0.62306 0.0
O564 O 0.49728 0.10331 0.57786 0.0
O565 O 0.45347 0.09647 0.62028 0.0
O566 O 0.50873 0.14845 0.64478 0.0
O567 O 0.45208 0.15835 0.67185 0.0
C568 C 0.32001 0.12294 0.55051 0.0
C569 C 0.3124 0.0859 0.56281 0.0
H570 H 0.30533 0.01585 0.59433 0.0
H571 H 0.34384 0.99215 0.64765 0.0
H572 H 0.39137 0.23029 0.56998 0.0
H573 H 0.34211 0.1952 0.53486 0.0
H574 H 0.30431 0.13446 0.52699 0.0
H575 H 0.29098 0.06943 0.54857 0.0
Mn576 Mn 0.86969 0.50248 0.59627 0.0
Mn577 Mn 0.84068 0.58778 0.62398 0.0
C578 C 0.91419 0.54881 0.60913 0.0
C579 C 0.88381 0.46555 0.54353 0.0
C580 C 0.83777 0.51758 0.67428 0.0
O581 O 0.81501 0.50405 0.57987 0.0
O582 O 0.80161 0.56532 0.58997 0.0
C583 C 0.83684 0.63085 0.55226 0.0
N584 N 0.85285 0.62511 0.58674 0.0
C585 C 0.89606 0.67662 0.57694 0.0
C586 C 0.88043 0.68265 0.54115 0.0
C587 C 0.85046 0.65987 0.52892 0.0
C588 C 0.88092 0.64765 0.59924 0.0
H589 H 0.81405 0.61326 0.54241 0.0
C590 C 0.79499 0.53335 0.5743 0.0
O591 O 0.87565 0.44955 0.57562 0.0
O592 O 0.88416 0.50182 0.54309 0.0
N593 N 0.87842 0.61184 0.65432 0.0
C594 C 0.89013 0.60293 0.68981 0.0
C595 C 0.91979 0.62332 0.70624 0.0
C596 C 0.9371 0.65274 0.6861 0.0
C597 C 0.92437 0.66173 0.64979 0.0
C598 C 0.89455 0.64055 0.63492 0.0
H599 H 0.87701 0.58046 0.7055 0.0
O600 O 0.92329 0.51341 0.61043 0.0
O601 O 0.8788 0.55499 0.60245 0.0
O602 O 0.85549 0.4955 0.65202 0.0
O603 O 0.82811 0.55124 0.66526 0.0
C604 C 0.94035 0.69068 0.62766 0.0
C605 C 0.92617 0.69816 0.59128 0.0
H606 H 0.89118 0.70469 0.52286 0.0
H607 H 0.83814 0.66441 0.50138 0.0
H608 H 0.92936 0.61628 0.73434 0.0
H609 H 0.96012 0.66826 0.69881 0.0
H610 H 0.96356 0.70739 0.63836 0.0
H611 H 0.93864 0.72053 0.57455 0.0
Mn612 Mn 0.13543 1.0015 0.59676 0.0
Mn613 Mn 0.1625 0.91452 0.62253 0.0
C614 C 0.09016 0.95579 0.60964 0.0
C615 C 0.12109 0.04208 0.5468 0.0
C616 C 0.1674 0.98313 0.6746 0.0
O617 O 0.18943 0.99881 0.57853 0.0
O618 O 0.20272 0.93761 0.58982 0.0
C619 C 0.16959 0.87219 0.55082 0.0
N620 N 0.15191 0.87763 0.58455 0.0
C621 C 0.11383 0.82212 0.57551 0.0
C622 C 0.13136 0.81624 0.54057 0.0
C623 C 0.15946 0.84131 0.52826 0.0
C624 C 0.12553 0.85306 0.59708 0.0
H625 H 0.19142 0.8911 0.54115 0.0
C626 C 0.20939 0.96938 0.57352 0.0
O627 O 0.13084 0.05551 0.57949 0.0
O628 O 0.11932 0.00582 0.54379 0.0
N629 N 0.1237 0.88997 0.65129 0.0
C630 C 0.10815 0.90045 0.68482 0.0
C631 C 0.07898 0.87878 0.70058 0.0
C632 C 0.06566 0.84679 0.68151 0.0
C633 C 0.0813 0.83709 0.64656 0.0
C634 C 0.11031 0.85982 0.63219 0.0
H635 H 0.11726 0.92562 0.69905 0.0
O636 O 0.08203 0.99137 0.6123 0.0
O637 O 0.12507 0.94865 0.60129 0.0
O638 O 0.15184 0.0067 0.65222 0.0
O639 O 0.17433 0.94904 0.66516 0.0
C640 C 0.06887 0.80604 0.6252 0.0
C641 C 0.08538 0.79834 0.58988 0.0
H642 H 0.12361 0.79251 0.52302 0.0
H643 H 0.1733 0.83683 0.50143 0.0
H644 H 0.06654 0.88691 0.72722 0.0
H645 H 0.04305 0.83021 0.6937 0.0
H646 H 0.04664 0.78786 0.63569 0.0
H647 H 0.0759 0.77408 0.57402 0.0
Mn648 Mn 0.87139 0.50185 0.9114 0.0
Mn649 Mn 0.84384 0.41501 0.88667 0.0
C650 C 0.91673 0.45692 0.89685 0.0
C651 C 0.88546 0.54214 0.96122 0.0
C652 C 0.83712 0.48415 0.83549 0.0
O653 O 0.81693 0.49878 0.92938 0.0
O654 O 0.80742 0.43611 0.92459 0.0
C655 C 0.84608 0.36973 0.9571 0.0
N656 N 0.85998 0.37741 0.92208 0.0
C657 C 0.90506 0.32702 0.92739 0.0
C658 C 0.89234 0.31981 0.96413 0.0
C659 C 0.86243 0.34102 0.9789 0.0
C660 C 0.88753 0.35594 0.90694 0.0
H661 H 0.82228 0.38493 0.96812 0.0
C662 C 0.79965 0.46859 0.93864 0.0
O663 O 0.87552 0.55573 0.92861 0.0
O664 O 0.88731 0.50586 0.96422 0.0
N665 N 0.87985 0.39259 0.85294 0.0
C666 C 0.88856 0.40231 0.81676 0.0
C667 C 0.91755 0.38328 0.79776 0.0
C668 C 0.93722 0.35423 0.81599 0.0
C669 C 0.92746 0.3442 0.85296 0.0
C670 C 0.89822 0.36412 0.87047 0.0
H671 H 0.87358 0.42431 0.80232 0.0
O672 O 0.92485 0.4926 0.89562 0.0
O673 O 0.88211 0.44936 0.9059 0.0
O674 O 0.85603 0.50661 0.85618 0.0
O675 O 0.82672 0.45123 0.84648 0.0
C676 C 0.94584 0.3154 0.8732 0.0
C677 C 0.93459 0.30675 0.91036 0.0
H678 H 0.90497 0.29774 0.98103 0.0
H679 H 0.85185 0.3351 0.00693 0.0
H680 H 0.92474 0.39105 0.76912 0.0
H681 H 0.9597 0.33975 0.80129 0.0
H682 H 0.96866 0.29968 0.86042 0.0
H683 H 0.94887 0.28448 0.92562 0.0
Mn684 Mn 0.13282 0.00601 0.91069 0.0
Mn685 Mn 0.1607 0.09319 0.88658 0.0
C686 C 0.0882 0.05161 0.89629 0.0
C687 C 0.11666 0.96578 0.96036 0.0
C688 C 0.16734 0.02495 0.83412 0.0
O689 O 0.18637 0.00854 0.93039 0.0
O690 O 0.19899 0.07029 0.9213 0.0
C691 C 0.16355 0.13498 0.95879 0.0
N692 N 0.14798 0.12984 0.92404 0.0
C693 C 0.10929 0.18499 0.93147 0.0
C694 C 0.12481 0.1906 0.96736 0.0
C695 C 0.15199 0.16545 0.98109 0.0
C696 C 0.12239 0.15441 0.91023 0.0
H697 H 0.18519 0.11648 0.96925 0.0
C698 C 0.20565 0.03819 0.93676 0.0
O699 O 0.12732 0.95202 0.92806 0.0
O700 O 0.11514 1.00204 0.96303 0.0
N701 N 0.12335 0.11757 0.85594 0.0
C702 C 0.10928 0.10688 0.82184 0.0
C703 C 0.08074 0.12831 0.80484 0.0
C704 C 0.06646 0.16021 0.82328 0.0
C705 C 0.0805 0.1701 0.85884 0.0
C706 C 0.10903 0.14769 0.87438 0.0
H707 H 0.11902 0.08169 0.80807 0.0
O708 O 0.07994 0.01604 0.8936 0.0
O709 O 0.12267 0.05878 0.90602 0.0
O710 O 0.15073 1.00116 0.85564 0.0
O711 O 0.17471 0.05869 0.84457 0.0
C712 C 0.06673 0.20086 0.87979 0.0
C713 C 0.08136 0.2085 0.91594 0.0
H714 H 0.11654 0.21436 0.98449 0.0
H715 H 0.16433 0.16978 0.00864 0.0
H716 H 0.06948 0.11999 0.77775 0.0
H717 H 0.04424 0.17652 0.81019 0.0
H718 H 0.04477 0.21874 0.86843 0.0
H719 H 0.07063 0.23232 0.93169 0.0
Mn720 Mn 0.59492 0.86916 0.50772 0.0
Mn721 Mn 0.6189 0.83805 0.59372 0.0
C722 C 0.60975 0.91232 0.55463 0.0
C723 C 0.5444 0.8845 0.46848 0.0
C724 C 0.67198 0.83548 0.52573 0.0
O725 O 0.57591 0.81549 0.5079 0.0
O726 O 0.58631 0.79926 0.56835 0.0
C727 C 0.54431 0.83338 0.63128 0.0
N728 N 0.57995 0.84774 0.62976 0.0
C729 C 0.57082 0.88094 0.68813 0.0
C730 C 0.53417 0.86633 0.69043 0.0
C731 C 0.52081 0.84257 0.66177 0.0
C732 C 0.59304 0.8707 0.65717 0.0
H733 H 0.53379 0.81498 0.60948 0.0
C734 C 0.57061 0.79399 0.53614 0.0
O735 O 0.5769 0.87544 0.45402 0.0
O736 O 0.54251 0.88622 0.50477 0.0
N737 N 0.64782 0.87452 0.62118 0.0
C738 C 0.68161 0.89048 0.6122 0.0
C739 C 0.69788 0.91693 0.6367 0.0
C740 C 0.67903 0.92711 0.66997 0.0
C741 C 0.64368 0.91133 0.67801 0.0
C742 C 0.62885 0.88511 0.6525 0.0
H743 H 0.69557 0.88387 0.5861 0.0
O744 O 0.61178 0.92175 0.51928 0.0
O745 O 0.59967 0.87764 0.56091 0.0
O746 O 0.64999 0.85179 0.50224 0.0
O747 O 0.66213 0.82746 0.55955 0.0
C748 C 0.62223 0.92119 0.70993 0.0
C749 C 0.58598 0.90568 0.71514 0.0
H750 H 0.51592 0.87347 0.71386 0.0
H751 H 0.49248 0.8313 0.66321 0.0
H752 H 0.72473 0.9297 0.62977 0.0
H753 H 0.69158 0.94767 0.68872 0.0
H754 H 0.63319 0.94094 0.73045 0.0
H755 H 0.56979 0.91318 0.73981 0.0
Mn756 Mn 0.59465 0.131 0.99689 0.0
Mn757 Mn 0.6228 0.16492 0.91342 0.0
C758 C 0.61082 0.08883 0.9494 0.0
C759 C 0.54281 0.11563 0.03429 0.0
C760 C 0.67092 0.1662 0.98472 0.0
O761 O 0.57793 0.18575 0.9974 0.0
O762 O 0.58378 0.19929 0.93561 0.0
C763 C 0.55537 0.16721 0.8642 0.0
N764 N 0.58955 0.15204 0.87284 0.0
C765 C 0.58875 0.11459 0.81631 0.0
C766 C 0.55276 0.12843 0.8079 0.0
C767 C 0.53612 0.1551 0.83184 0.0
C768 C 0.6064 0.1274 0.84922 0.0
H769 H 0.54327 0.18915 0.88125 0.0
C770 C 0.56917 0.20488 0.9683 0.0
O771 O 0.57509 0.12377 0.04971 0.0
O772 O 0.54157 0.11562 0.99788 0.0
N773 N 0.65784 0.13107 0.88977 0.0
C774 C 0.69353 0.12176 0.90041 0.0
C775 C 0.71415 0.09557 0.87917 0.0
C776 C 0.69823 0.07969 0.84668 0.0
C777 C 0.66186 0.09026 0.83567 0.0
C778 C 0.64236 0.11603 0.85835 0.0
H779 H 0.70647 0.13433 0.92466 0.0
O780 O 0.61019 0.07829 0.98448 0.0
O781 O 0.60208 0.1239 0.94376 0.0
O782 O 0.64964 0.14532 0.00484 0.0
O783 O 0.66093 0.17942 0.95259 0.0
C784 C 0.64442 0.07663 0.80274 0.0
C785 C 0.60811 0.0892 0.79285 0.0
H786 H 0.53799 0.11937 0.78276 0.0
H787 H 0.50881 0.16679 0.82503 0.0
H788 H 0.7424 0.08791 0.88768 0.0
H789 H 0.71436 0.05974 0.83016 0.0
H790 H 0.65894 0.05698 0.78448 0.0
H791 H 0.59555 0.07967 0.76679 0.0
Mn792 Mn 0.40943 0.37027 0.00721 0.0
Mn793 Mn 0.38778 0.34409 0.91894 0.0
C794 C 0.39683 0.41565 0.96184 0.0
C795 C 0.45898 0.38485 0.0483 0.0
C796 C 0.3325 0.33794 0.98512 0.0
O797 O 0.42804 0.31649 0.00476 0.0
O798 O 0.41932 0.30381 0.94307 0.0
C799 C 0.46357 0.34211 0.88359 0.0
N800 N 0.42797 0.35645 0.88492 0.0
C801 C 0.44078 0.39727 0.83209 0.0
C802 C 0.47744 0.3828 0.83012 0.0
C803 C 0.48886 0.35508 0.85596 0.0
C804 C 0.41652 0.38278 0.85981 0.0
H805 H 0.47278 0.32103 0.90351 0.0
C806 C 0.43386 0.29658 0.97548 0.0
O807 O 0.42621 0.37489 0.0616 0.0
O808 O 0.4621 0.38683 0.01213 0.0
N809 N 0.35987 0.38257 0.89307 0.0
C810 C 0.32554 0.39737 0.9018 0.0
C811 C 0.31073 0.42667 0.87972 0.0
C812 C 0.33167 0.44112 0.84937 0.0
C813 C 0.36746 0.42639 0.84161 0.0
C814 C 0.38055 0.39674 0.86423 0.0
H815 H 0.31 0.38769 0.92604 0.0
O816 O 0.39361 0.42367 0.9974 0.0
O817 O 0.40622 0.38113 0.95463 0.0
O818 O 0.35383 0.35305 0.01009 0.0
O819 O 0.34365 0.33134 0.95138 0.0
C820 C 0.39115 0.44091 0.81314 0.0
C821 C 0.42775 0.4263 0.80832 0.0
H822 H 0.49716 0.39304 0.80913 0.0
H823 H 0.51719 0.3439 0.85474 0.0
H824 H 0.28348 0.43854 0.88651 0.0
H825 H 0.32039 0.46415 0.83279 0.0
H826 H 0.38175 0.46382 0.79525 0.0
H827 H 0.44594 0.43812 0.78675 0.0
Mn828 Mn 0.90985 0.13803 1.00287 0.0
Mn829 Mn 0.88271 0.17234 0.08667 0.0
C830 C 0.89666 0.09639 0.05168 0.0
C831 C 0.96023 0.12219 0.9638 0.0
C832 C 0.83178 0.16975 0.01749 0.0
O833 O 0.92633 0.19277 1.00093 0.0
O834 O 0.91607 0.21016 0.06115 0.0
C835 C 0.95412 0.18127 0.12909 0.0
N836 N 0.92 0.16405 0.12476 0.0
C837 C 0.92851 0.12876 0.18212 0.0
C838 C 0.96386 0.14578 0.18692 0.0
C839 C 0.97664 0.17226 0.16035 0.0
C840 C 0.90713 0.13909 0.1506 0.0
H841 H 0.9642 0.20175 0.1089 0.0
C842 C 0.93174 0.21476 0.0288 0.0
O843 O 0.92734 0.12983 0.94957 0.0
O844 O 0.96323 0.12334 1.00012 0.0
N845 N 0.85284 0.13623 0.11386 0.0
C846 C 0.81779 0.12276 0.10576 0.0
C847 C 0.80128 0.09553 0.12934 0.0
C848 C 0.82077 0.08265 0.16128 0.0
C849 C 0.8566 0.09719 0.16935 0.0
C850 C 0.87178 0.12408 0.14463 0.0
H851 H 0.80244 0.1327 0.08157 0.0
O852 O 0.89551 0.08538 0.01681 0.0
O853 O 0.90466 0.13188 0.05638 0.0
O854 O 0.85417 0.15136 0.99626 0.0
O855 O 0.84098 0.18182 0.05019 0.0
C856 C 0.87781 0.08609 0.20103 0.0
C857 C 0.9136 0.10211 0.20754 0.0
H858 H 0.98139 0.13875 0.21091 0.0
H859 H 0.00383 0.18564 0.1639 0.0
H860 H 0.77353 0.08457 0.12297 0.0
H861 H 0.80789 0.06171 0.17947 0.0
H862 H 0.86674 0.06547 0.22072 0.0
H863 H 0.9294 0.09391 0.23228 0.0
C864 C 0.11279 0.04915 0.4779 0.0
C865 C 0.11101 0.06569 0.51387 0.0
C866 C 0.09564 0.06601 0.4468 0.0
C867 C 0.07671 0.10055 0.45007 0.0
H868 H 0.12541 0.02161 0.4741 0.0
H869 H 0.09453 0.05018 0.42076 0.0
S870 S 0.06822 0.15816 0.53662 0.0
N871 N 0.09205 0.12053 0.55027 0.0
N872 N 0.05994 0.15254 0.49111 0.0
C873 C 0.07719 0.11895 0.4851 0.0
C874 C 0.09464 0.10161 0.51712 0.0
C875 C 0.92646 0.39183 0.47848 0.0
C876 C 0.93037 0.4123 0.44467 0.0
C877 C 0.90847 0.40784 0.51009 0.0
C878 C 0.89452 0.44496 0.50877 0.0
H879 H 0.939 0.36413 0.48105 0.0
H880 H 0.90775 0.39206 0.53625 0.0
S881 S 0.89766 0.50985 0.42638 0.0
N882 N 0.91918 0.47134 0.41196 0.0
N883 N 0.88355 0.50047 0.46966 0.0
C884 C 0.89639 0.46462 0.47421 0.0
C885 C 0.915 0.44861 0.44262 0.0
C886 C 0.08759 0.94399 0.05973 0.0
C887 C 0.06956 0.9089 0.0569 0.0
C888 C 0.10565 0.96025 0.02886 0.0
C889 C 0.10544 0.94273 0.99332 0.0
H890 H 0.0855 0.96041 0.08535 0.0
H891 H 0.11785 0.98804 0.03245 0.0
S892 S 0.06459 0.84899 0.97167 0.0
N893 N 0.05473 0.8556 0.01675 0.0
N894 N 0.0883 0.88671 0.95774 0.0
C895 C 0.08949 0.90652 0.99043 0.0
C896 C 0.07123 0.88968 0.02236 0.0
C897 C 0.91507 0.56559 0.05994 0.0
C898 C 0.92941 0.60234 0.05698 0.0
C899 C 0.89812 0.54786 0.02938 0.0
C900 C 0.89593 0.56563 0.99399 0.0
H901 H 0.91917 0.54929 0.08543 0.0
H902 H 0.88863 0.51904 0.03314 0.0
S903 S 0.92698 0.66316 0.97215 0.0
N904 N 0.93832 0.65715 0.01696 0.0
N905 N 0.90687 0.6234 0.95843 0.0
C906 C 0.90832 0.60324 0.99097 0.0
C907 C 0.9254 0.62154 0.02262 0.0
C908 C 0.47958 0.07909 0.11318 0.0
C909 C 0.44489 0.07475 0.09456 0.0
C910 C 0.51098 0.09467 0.09441 0.0
C911 C 0.50867 0.10562 0.05628 0.0
H912 H 0.48289 0.06882 0.14176 0.0
H913 H 0.53763 0.09614 0.10918 0.0
S914 S 0.4238 0.10048 0.99525 0.0
N915 N 0.41018 0.0828 0.03605 0.0
N916 N 0.46799 0.11326 1.00154 0.0
C917 C 0.47348 0.10317 0.03816 0.0
C918 C 0.4419 0.08728 0.05707 0.0
C919 C 0.55952 0.40892 0.07071 0.0
C920 C 0.55699 0.42904 0.10465 0.0
C921 C 0.52798 0.39162 0.05487 0.0
C922 C 0.49216 0.3946 0.07166 0.0
H923 H 0.58536 0.40909 0.05447 0.0
H924 H 0.53132 0.37801 0.02773 0.0
S925 S 0.471 0.44101 0.16274 0.0
N926 N 0.51662 0.44822 0.15646 0.0
N927 N 0.45659 0.41617 0.12606 0.0
C928 C 0.48953 0.41229 0.10698 0.0
C929 C 0.52206 0.42974 0.12341 0.0
C930 C 0.51248 0.90567 0.4085 0.0
C931 C 0.51018 0.89254 0.44591 0.0
C932 C 0.48045 0.92018 0.39007 0.0
C933 C 0.44519 0.92134 0.40829 0.0
H934 H 0.53949 0.90705 0.39433 0.0
H935 H 0.4837 0.93256 0.36232 0.0
S936 S 0.42393 0.88769 0.50525 0.0
N937 N 0.46898 0.87838 0.49907 0.0
N938 N 0.41 0.90722 0.46545 0.0
C939 C 0.44228 0.90615 0.4448 0.0
C940 C 0.47449 0.89125 0.4633 0.0
C941 C 0.49005 0.59345 0.41416 0.0
C942 C 0.49247 0.60635 0.45162 0.0
C943 C 0.52138 0.57692 0.39631 0.0
C944 C 0.55602 0.57359 0.41521 0.0
H945 H 0.46336 0.59407 0.39939 0.0
H946 H 0.51812 0.56531 0.36827 0.0
S947 S 0.57736 0.60448 0.51284 0.0
N948 N 0.53322 0.61699 0.50583 0.0
N949 N 0.59085 0.58453 0.47314 0.0
C950 C 0.55909 0.5879 0.45196 0.0
C951 C 0.52764 0.60486 0.46988 0.0
C952 C 0.11341 0.48463 0.07955 0.0
C953 C 0.09396 0.45023 0.07578 0.0
C954 C 0.09624 0.516 0.09683 0.0
C955 C 0.05894 0.51386 0.11026 0.0
H956 H 0.14128 0.48781 0.06745 0.0
H957 H 0.11129 0.54258 0.0974 0.0
S958 S 0.99644 0.42977 0.10782 0.0
N959 N 0.03556 0.41613 0.08685 0.0
N960 N 0.00443 0.47349 0.12128 0.0
C961 C 0.04028 0.47881 0.10866 0.0
C962 C 0.05741 0.44743 0.09072 0.0
C963 C 0.0993 0.4977 0.40097 0.0
C964 C 0.0628 0.50002 0.38573 0.0
C965 C 0.11633 0.52936 0.41778 0.0
C966 C 0.09756 0.56426 0.41944 0.0
H967 H 0.11344 0.47072 0.40278 0.0
H968 H 0.143 0.52579 0.43219 0.0
S969 S 0.0033 0.58572 0.37967 0.0
N970 N 0.01065 0.54114 0.36891 0.0
N971 N 0.04133 0.59939 0.40258 0.0
C972 C 0.06244 0.56748 0.4015 0.0
C973 C 0.04544 0.53563 0.38401 0.0
C974 C 0.8901 0.97737 0.42533 0.0
C975 C 0.90963 0.94305 0.42893 0.0
C976 C 0.9075 0.00929 0.40915 0.0
C977 C 0.94514 0.00785 0.39665 0.0
H978 H 0.86207 0.98015 0.4371 0.0
H979 H 0.89231 0.03573 0.40882 0.0
S980 S 0.00787 0.92414 0.39842 0.0
N981 N 0.96834 0.90966 0.41818 0.0
N982 N 1.00002 0.96817 0.38585 0.0
C983 C 0.96386 0.97288 0.39773 0.0
C984 C 0.94642 0.94084 0.4145 0.0
C985 C 0.43477 0.56086 0.60362 0.0
C986 C 0.40028 0.55812 0.58448 0.0
C987 C 0.452 0.52902 0.619 0.0
C988 C 0.43579 0.49298 0.61523 0.0
H989 H 0.45037 0.58713 0.60384 0.0
H990 H 0.47955 0.53243 0.63169 0.0
S991 S 0.34308 0.47161 0.57218 0.0
N992 N 0.34836 0.51753 0.56619 0.0
N993 N 0.38099 0.45711 0.59499 0.0
C994 C 0.39972 0.49026 0.59911 0.0
C995 C 0.38204 0.52296 0.58352 0.0
C996 C 0.5948 0.59853 0.01294 0.0
C997 C 0.60818 0.56124 0.01172 0.0
C998 C 0.57894 0.61547 0.98068 0.0
C999 C 0.57665 0.59585 0.94626 0.0
H1000 H 0.59409 0.61366 0.03943 0.0
H1001 H 0.56625 0.64311 0.98325 0.0
S1002 S 0.6104 0.49869 0.92774 0.0
N1003 N 0.62136 0.50672 0.97214 0.0
N1004 N 0.59 0.53767 0.91288 0.0
C1005 C 0.59214 0.55955 0.94427 0.0
C1006 C 0.60844 0.54253 0.97667 0.0
C1007 C 0.41146 0.9077 0.01312 0.0
C1008 C 0.39854 0.94518 0.01118 0.0
C1009 C 0.42985 0.89095 0.98209 0.0
C1010 C 0.43516 0.91106 0.94825 0.0
H1011 H 0.40941 0.89208 0.03931 0.0
H1012 H 0.44132 0.86283 0.98506 0.0
S1013 S 0.40602 0.00949 0.92853 0.0
N1014 N 0.39052 1.00081 0.97148 0.0
N1015 N 0.42671 0.97024 0.91494 0.0
C1016 C 0.4211 0.94787 0.94566 0.0
C1017 C 0.40215 0.96461 0.97662 0.0
C1018 C 0.58039 0.39169 0.53005 0.0
C1019 C 0.57591 0.41155 0.56411 0.0
C1020 C 0.59843 0.4084 0.49871 0.0
C1021 C 0.61199 0.44568 0.50049 0.0
H1022 H 0.56795 0.36396 0.52694 0.0
H1023 H 0.59928 0.3931 0.47233 0.0
S1024 S 0.60809 0.50911 0.58368 0.0
N1025 N 0.58668 0.47019 0.59756 0.0
N1026 N 0.62252 0.50055 0.54036 0.0
C1027 C 0.60993 0.46465 0.53535 0.0
C1028 C 0.59121 0.44794 0.56671 0.0
C1029 C 0.42888 0.10703 0.52239 0.0
C1030 C 0.43649 0.0871 0.55581 0.0
C1031 C 0.41058 0.08928 0.49191 0.0
C1032 C 0.40012 0.05098 0.49397 0.0
H1033 H 0.43816 0.13598 0.51939 0.0
H1034 H 0.40638 0.10503 0.46608 0.0
S1035 S 0.41483 0.98665 0.57559 0.0
N1036 N 0.43307 0.02725 0.58889 0.0
N1037 N 0.3975 0.99446 0.53323 0.0
C1038 C 0.40643 0.03146 0.52806 0.0
C1039 C 0.42515 0.04931 0.55851 0.0
C1040 C 0.00892 0.59569 0.59418 0.0
C1041 C 0.00668 0.60666 0.55603 0.0
C1042 C 0.97769 0.57957 0.61277 0.0
C1043 C 0.94313 0.57468 0.59403 0.0
H1044 H 0.03544 0.59759 0.60913 0.0
H1045 H 0.98108 0.56922 0.64132 0.0
S1046 S 0.92211 0.60009 0.49467 0.0
N1047 N 0.96613 0.61347 0.50107 0.0
N1048 N 0.90852 0.58232 0.53547 0.0
C1049 C 0.94012 0.58724 0.55656 0.0
C1050 C 0.9716 0.60359 0.53774 0.0
C1051 C 0.99312 0.91157 0.59998 0.0
C1052 C 0.99472 0.89688 0.56316 0.0
C1053 C 0.02518 0.92823 0.61663 0.0
C1054 C 0.05976 0.93016 0.59715 0.0
H1055 H 0.96656 0.91239 0.615 0.0
H1056 H 0.02244 0.94138 0.64404 0.0
S1057 S 0.0789 0.89439 0.50073 0.0
N1058 N 0.03473 0.88274 0.50913 0.0
N1059 N 0.09331 0.91609 0.53916 0.0
C1060 C 0.06195 0.91395 0.56115 0.0
C1061 C 0.02986 0.89663 0.54455 0.0
C1062 C 0.97664 0.39617 0.95852 0.0
C1063 C 0.01213 0.39785 0.94088 0.0
C1064 C 0.94508 0.41283 0.94223 0.0
C1065 C 0.94728 0.43083 0.90705 0.0
H1066 H 0.97355 0.38399 0.98641 0.0
H1067 H 0.91937 0.41388 0.95869 0.0
S1068 S 0.03212 0.43864 0.84666 0.0
N1069 N 0.04695 0.41586 0.88454 0.0
N1070 N 0.98675 0.44671 0.85339 0.0
C1071 C 0.9818 0.43028 0.88764 0.0
C1072 C 0.01437 0.4135 0.9045 0.0
C1073 C 0.06049 0.09667 0.94126 0.0
C1074 C 0.05767 0.07772 0.90666 0.0
C1075 C 0.02914 0.11352 0.95783 0.0
C1076 C 0.99337 0.11138 0.94095 0.0
H1077 H 0.08648 0.09611 0.95721 0.0
H1078 H 0.03268 0.1264 0.98529 0.0
S1079 S 0.97174 0.06824 0.84829 0.0
N1080 N 0.01723 0.06041 0.85432 0.0
N1081 N 0.95759 0.09192 0.88582 0.0
C1082 C 0.99051 0.09478 0.90508 0.0
C1083 C 0.02279 0.07767 0.88802 0.0
C1084 C 0.55277 0.97187 0.62024 0.0
C1085 C 0.56949 0.00764 0.61614 0.0
C1086 C 0.56835 0.94004 0.60324 0.0
C1087 C 0.60182 0.94241 0.58224 0.0
H1088 H 0.52572 0.96886 0.63416 0.0
H1089 H 0.55199 0.91427 0.60358 0.0
S1090 S 0.66013 0.02806 0.56829 0.0
N1091 N 0.62379 0.04283 0.59341 0.0
N1092 N 0.65363 0.98236 0.5619 0.0
C1093 C 0.62082 0.97721 0.58097 0.0
C1094 C 0.60469 0.00995 0.59812 0.0
C1095 C 0.56904 0.0624 0.90057 0.0
C1096 C 0.60289 0.05973 0.92086 0.0
C1097 C 0.55258 0.03057 0.88425 0.0
C1098 C 0.56903 0.99471 0.88807 0.0
H1099 H 0.55311 0.08841 0.90043 0.0
H1100 H 0.52523 0.03368 0.87105 0.0
S1101 S 0.66077 0.97387 0.93331 0.0
N1102 N 0.65481 0.01959 0.93983 0.0
N1103 N 0.62369 0.95928 0.90919 0.0
C1104 C 0.60475 0.99224 0.90497 0.0
C1105 C 0.62161 0.02488 0.92159 0.0
C1106 C 0.45942 0.47472 0.90068 0.0
C1107 C 0.44134 0.50996 0.9004 0.0
C1108 C 0.44327 0.4437 0.91859 0.0
C1109 C 0.40782 0.44614 0.9359 0.0
H1110 H 0.48741 0.47144 0.88888 0.0
H1111 H 0.45991 0.41825 0.92089 0.0
S1112 S 0.34654 0.5304 0.93928 0.0
N1113 N 0.38449 0.54478 0.91627 0.0
N1114 N 0.35368 0.48551 0.94955 0.0
C1115 C 0.38817 0.48037 0.9338 0.0
C1116 C 0.40485 0.51242 0.91572 0.0
C1117 C 0.88746 0.03356 0.0825 0.0
C1118 C 0.90756 0.06774 0.07988 0.0
C1119 C 0.90368 1.0014 0.09926 0.0
C1120 C 0.94069 1.0025 0.11343 0.0
H1121 H 0.86012 0.03096 0.06916 0.0
H1122 H 0.88834 0.975 0.09843 0.0
S1123 S 0.00408 0.08581 0.11575 0.0
N1124 N 0.96587 0.10071 0.09397 0.0
N1125 N 0.99515 0.04175 0.12762 0.0
C1126 C 0.95965 0.03741 0.11381 0.0
C1127 C 0.94346 0.06968 0.09636 0.0
C1128 C 0.00547 0.23355 0.30686 0.0
C1129 C 0.00823 0.21388 0.34132 0.0
C1130 C 0.99816 0.27274 0.30606 0.0
C1131 C 0.9955 0.29368 0.3397 0.0
H1132 H 0.00855 0.2185 0.28048 0.0
H1133 H 0.99514 0.2868 0.27911 0.0
S1134 S 1.00197 0.25558 0.43695 0.0
N1135 N 0.00714 0.21831 0.40961 0.0
N1136 N 0.99672 0.29179 0.40813 0.0
C1137 C 0.99913 0.27432 0.37411 0.0
C1138 C 0.0046 0.23449 0.37492 0.0
C1139 C 0.99169 0.73744 0.13619 0.0
C1140 C 0.98994 0.7168 0.17005 0.0
C1141 C 0.99745 0.77654 0.13605 0.0
C1142 C 0.00348 0.79661 0.16968 0.0
H1143 H 0.98774 0.72325 0.10943 0.0
H1144 H 0.99851 0.79105 0.10915 0.0
S1145 S 1.00299 0.75585 0.26606 0.0
N1146 N 0.99421 0.7194 0.23836 0.0
N1147 N 0.00809 0.79278 0.23794 0.0
C1148 C 1.00262 0.77633 0.20384 0.0
C1149 C 0.9951 0.73647 0.20408 0.0
C1150 C 0.33189 0.03731 0.24337 0.0
C1151 C 0.32961 0.0105 0.21409 0.0
C1152 C 0.33199 0.02645 0.28155 0.0
C1153 C 0.32818 0.98841 0.29241 0.0
H1154 H 0.33541 0.06692 0.23694 0.0
H1155 H 0.33617 0.04806 0.30268 0.0
S1156 S 0.3118 0.90818 0.2268 0.0
N1157 N 0.31806 0.94485 0.19875 0.0
N1158 N 0.31516 0.92464 0.27018 0.0
C1159 C 0.32168 0.96181 0.26342 0.0
C1160 C 0.32316 0.97275 0.22446 0.0
C1161 C 0.67056 0.46688 0.24479 0.0
C1162 C 0.67222 0.49464 0.21621 0.0
C1163 C 0.67002 0.47647 0.2833 0.0
C1164 C 0.67286 0.51419 0.29529 0.0
H1165 H 0.66795 0.43739 0.23755 0.0
H1166 H 0.66642 0.45407 0.30379 0.0
S1167 S 0.68704 0.59693 0.23191 0.0
N1168 N 0.6818 0.56104 0.2028 0.0
N1169 N 0.68415 0.57899 0.2748 0.0
C1170 C 0.67863 0.54189 0.267 0.0
C1171 C 0.67747 0.53219 0.22769 0.0
C1172 C 0.27897 0.33269 0.03193 0.0
C1173 C 0.29157 0.33163 0.99426 0.0
C1174 C 0.24032 0.33284 0.04092 0.0
C1175 C 0.21234 0.33375 0.01264 0.0
H1176 H 0.29913 0.33435 0.05478 0.0
H1177 H 0.23254 0.33411 0.07039 0.0
S1178 S 0.22949 0.32395 0.90995 0.0
N1179 N 0.27205 0.32455 0.92867 0.0
N1180 N 0.19991 0.32815 0.94564 0.0
C1181 C 0.22435 0.33014 0.97504 0.0
C1182 C 0.26371 0.3283 0.96588 0.0
C1183 C 0.23081 0.63534 0.50464 0.0
C1184 C 0.21087 0.66919 0.49961 0.0
C1185 C 0.26974 0.63527 0.5111 0.0
C1186 C 0.29024 0.66907 0.51438 0.0
H1187 H 0.21637 0.6085 0.50226 0.0
H1188 H 0.28386 0.6084 0.51447 0.0
S1189 S 0.25139 0.7655 0.5046 0.0
N1190 N 0.21464 0.73759 0.49776 0.0
N1191 N 0.28766 0.73748 0.51288 0.0
C1192 C 0.27066 0.70326 0.51031 0.0
C1193 C 0.23104 0.70331 0.50214 0.0
C1194 C 0.74079 0.83133 0.54283 0.0
C1195 C 0.71233 0.82958 0.51507 0.0
C1196 C 0.77922 0.83269 0.53314 0.0
C1197 C 0.79112 0.83066 0.49533 0.0
H1198 H 0.73347 0.83333 0.57237 0.0
H1199 H 0.7997 0.83609 0.5555 0.0
S1200 S 0.72804 0.81711 0.41249 0.0
N1201 N 0.69894 0.82104 0.44858 0.0
N1202 N 0.77083 0.82048 0.43035 0.0
C1203 C 0.76298 0.82508 0.46758 0.0
C1204 C 0.72379 0.82528 0.47741 0.0
C1205 C 0.49779 0.77112 0.80561 0.0
C1206 C 0.49721 0.79143 0.83974 0.0
C1207 C 0.50441 0.73179 0.80528 0.0
C1208 C 0.50853 0.71146 0.83919 0.0
H1209 H 0.49359 0.78575 0.77912 0.0
H1210 H 0.50576 0.71718 0.77852 0.0
S1211 S 0.50784 0.75135 0.93581 0.0
N1212 N 0.50182 0.78819 0.90798 0.0
N1213 N 0.51099 0.71457 0.90754 0.0
C1214 C 0.50705 0.73148 0.87332 0.0
C1215 C 0.50229 0.77137 0.87355 0.0
C1216 C 0.50115 0.27094 0.63267 0.0
C1217 C 0.50739 0.29005 0.66682 0.0
C1218 C 0.49533 0.2318 0.63178 0.0
C1219 C 0.49404 0.21026 0.6651 0.0
H1220 H 0.50183 0.28626 0.60621 0.0
H1221 H 0.49109 0.21831 0.60471 0.0
S1222 S 0.50881 0.24643 0.76195 0.0
N1223 N 0.5132 0.2842 0.73485 0.0
N1224 N 0.49964 0.21082 0.73332 0.0
C1225 C 0.49982 0.22892 0.69956 0.0
C1226 C 0.50718 0.26876 0.70037 0.0
C1227 C 0.86866 0.49998 0.77488 0.0
C1228 C 0.83484 0.49317 0.79454 0.0
C1229 C 0.86904 0.50614 0.73581 0.0
C1230 C 0.83551 0.5071 0.7148 0.0
H1231 H 0.89531 0.49967 0.78978 0.0
H1232 H 0.89586 0.51114 0.72201 0.0
S1233 S 0.73921 0.49175 0.75255 0.0
N1234 N 0.76681 0.48703 0.78982 0.0
N1235 N 0.76732 0.50123 0.7165 0.0
C1236 C 0.80133 0.50087 0.734 0.0
C1237 C 0.80105 0.49319 0.77382 0.0
C1238 C 0.17235 0.96665 0.74368 0.0
C1239 C 0.17388 0.99416 0.71487 0.0
C1240 C 0.17185 0.97664 0.78207 0.0
C1241 C 0.17439 0.01453 0.79364 0.0
H1242 H 0.16974 0.93709 0.73668 0.0
H1243 H 0.16846 0.95443 0.80279 0.0
S1244 S 0.1874 0.09681 0.72949 0.0
N1245 N 0.18275 0.06055 0.70077 0.0
N1246 N 0.18465 0.07927 0.77255 0.0
C1247 C 0.17972 0.04202 0.76511 0.0
C1248 C 0.17876 0.03189 0.72595 0.0
C1249 C 0.7705 0.20343 1.00353 0.0
C1250 C 0.79116 0.1698 0.00772 0.0
C1251 C 0.73135 0.2026 0.9962 0.0
C1252 C 0.71147 0.16819 0.99491 0.0
H1253 H 0.78475 0.23039 0.00541 0.0
H1254 H 0.71651 0.22892 0.99197 0.0
S1255 S 0.75264 0.07262 0.00497 0.0
N1256 N 0.78893 0.10144 0.00949 0.0
N1257 N 0.71559 0.09991 0.99843 0.0
C1258 C 0.73188 0.13461 0.99991 0.0
C1259 C 0.77164 0.13541 0.00562 0.0
C1260 C 0.06684 0.98877 0.24264 0.0
C1261 C 0.03279 0.97153 0.23161 0.0
C1262 C 0.06741 0.02307 0.26232 0.0
C1263 C 0.03397 0.04104 0.27391 0.0
H1264 H 0.09361 0.97612 0.23552 0.0
H1265 H 0.09459 0.03505 0.26911 0.0
S1266 S 0.93683 0.00829 0.2521 0.0
N1267 N 0.96435 0.97647 0.23243 0.0
N1268 N 0.96545 0.03894 0.27219 0.0
C1269 C 0.99958 0.02409 0.26328 0.0
C1270 C 0.99899 0.98984 0.24185 0.0
C1271 C 0.93544 0.4825 0.25496 0.0
C1272 C 0.96929 0.46845 0.27015 0.0
C1273 C 0.93373 0.51774 0.23696 0.0
C1274 C 0.96619 0.53992 0.231 0.0
H1275 H 0.90954 0.46657 0.25759 0.0
H1276 H 0.90656 0.52719 0.2272 0.0
S1277 S 0.062 0.51747 0.2665 0.0
N1278 N 0.03601 0.48131 0.28003 0.0
N1279 N 0.0333 0.5458 0.24336 0.0
C1280 C 1.00039 0.52632 0.24591 0.0
C1281 C 1.00188 0.49102 0.2657 0.0
C1282 C 0.26726 0.02927 0.97039 0.0
C1283 C 0.2288 0.03787 0.97136 0.0
C1284 C 0.28838 0.02772 0.00385 0.0
C1285 C 0.27198 0.03557 0.03929 0.0
H1286 H 0.28105 0.0239 0.94375 0.0
H1287 H 0.31812 0.02116 1.00189 0.0
S1288 S 0.17207 0.05934 0.05669 0.0
N1289 N 0.17467 0.05309 0.0106 0.0
N1290 N 0.21513 0.05261 0.07306 0.0
C1291 C 0.23368 0.04472 0.04052 0.0
C1292 C 0.2119 0.04517 0.00663 0.0
C1293 C 0.7193 0.48868 0.00692 0.0
C1294 C 0.73238 0.47309 0.04121 0.0
C1295 C 0.74081 0.48701 0.97362 0.0
C1296 C 0.77638 0.46992 0.97341 0.0
H1297 H 0.69161 0.50134 0.00551 0.0
H1298 H 0.72937 0.49875 0.9479 0.0
S1299 S 0.82657 0.4314 0.05684 0.0
N1300 N 0.78469 0.44329 0.07337 0.0
N1301 N 0.82619 0.44239 0.01154 0.0
C1302 C 0.79075 0.4563 0.00791 0.0
C1303 C 0.76847 0.45717 0.0416 0.0
C1304 C 0.24184 0.98264 0.47222 0.0
C1305 C 0.27539 0.96197 0.47054 0.0
C1306 C 0.22183 0.98634 0.50624 0.0
C1307 C 0.23462 0.96944 0.54001 0.0
H1308 H 0.23086 0.99577 0.44707 0.0
H1309 H 0.19541 1.00158 0.50575 0.0
S1310 S 0.32426 0.91759 0.5518 0.0
N1311 N 0.32335 0.92893 0.50661 0.0
N1312 N 0.2846 0.93384 0.56998 0.0
C1313 C 0.26878 0.94968 0.53892 0.0
C1314 C 0.2895 0.94659 0.50439 0.0
C1315 C 0.78123 0.51509 0.50767 0.0
C1316 C 0.76931 0.5328 0.54128 0.0
C1317 C 0.76077 0.51872 0.47394 0.0
C1318 C 0.72773 0.54031 0.47244 0.0
H1319 H 0.80728 0.49924 0.50706 0.0
H1320 H 0.77096 0.50475 0.44889 0.0
S1321 S 0.68068 0.58609 0.55396 0.0
N1322 N 0.7204 0.5695 0.57161 0.0
N1323 N 0.68072 0.57419 0.50896 0.0
C1324 C 0.71434 0.5562 0.50631 0.0
C1325 C 0.7355 0.55312 0.54048 0.0
C1326 C 0.033 0.24615 0.01454 0.0
C1327 C 0.03459 0.28052 0.03389 0.0
C1328 C 0.99889 0.22626 0.01105 0.0
C1329 C 0.96505 0.24005 0.02683 0.0
H1330 H 0.05827 0.23434 1.0025 0.0
H1331 H 0.99942 0.19907 0.99718 0.0
S1332 S 0.95299 0.33229 0.07387 0.0
N1333 N 0.99836 0.33046 0.06358 0.0
N1334 N 0.93481 0.292 0.05921 0.0
C1335 C 0.96601 0.2752 0.04478 0.0
C1336 C 1.00059 0.29576 0.04763 0.0
C1337 C 0.0323 0.7628 0.49496 0.0
C1338 C 0.03496 0.72971 0.47369 0.0
C1339 C 0.99806 0.78244 0.49747 0.0
C1340 C 0.96535 0.76981 0.47852 0.0
H1341 H 0.05692 0.77398 0.50899 0.0
H1342 H 0.99775 0.80868 0.51304 0.0
S1343 S 0.95667 0.68143 0.42386 0.0
N1344 N 1.00113 0.68232 0.43756 0.0
N1345 N 0.93741 0.72042 0.44043 0.0
C1346 C 0.96745 0.73594 0.45837 0.0
C1347 C 1.00209 0.71558 0.45648 0.0
C1348 C 0.50487 0.77996 0.51497 0.0
C1349 C 0.53773 0.76804 0.5341 0.0
C1350 C 0.4709 0.75967 0.51748 0.0
C1351 C 0.46847 0.72667 0.53913 0.0
H1352 H 0.50493 0.80603 0.49905 0.0
H1353 H 0.44633 0.77022 0.50292 0.0
S1354 S 0.54785 0.67925 0.58806 0.0
N1355 N 0.56641 0.71885 0.57189 0.0
N1356 N 0.50332 0.67947 0.57454 0.0
C1357 C 0.50166 0.71304 0.55616 0.0
C1358 C 0.53605 0.73407 0.55427 0.0
C1359 C 0.50667 0.52936 0.74627 0.0
C1360 C 0.52914 0.53251 0.77862 0.0
C1361 C 0.50432 0.49516 0.72638 0.0
C1362 C 0.52435 0.46279 0.73813 0.0
H1363 H 0.49145 0.55357 0.73585 0.0
H1364 H 0.48796 0.49464 0.70062 0.0
S1365 S 0.58031 0.45433 0.82575 0.0
N1366 N 0.56602 0.49862 0.82537 0.0
N1367 N 0.56372 0.43522 0.78669 0.0
C1368 C 0.54518 0.46512 0.77161 0.0
C1369 C 0.54692 0.49969 0.79222 0.0
C1370 C 0.43779 0.98339 0.76178 0.0
C1371 C 0.47156 0.96603 0.77329 0.0
C1372 C 0.43764 0.01822 0.74296 0.0
C1373 C 0.47131 0.03652 0.73232 0.0
H1374 H 0.41089 0.97037 0.76774 0.0
H1375 H 0.4106 0.03035 0.73609 0.0
S1376 S 0.56794 1.00301 0.75481 0.0
N1377 N 0.53996 0.97097 0.77367 0.0
N1378 N 0.53981 0.03423 0.73495 0.0
C1379 C 0.50547 0.01932 0.74317 0.0
C1380 C 0.50556 0.9846 0.76398 0.0
C1381 C 0.49977 0.28185 0.99497 0.0
C1382 C 0.46623 0.27022 0.9769 0.0
C1383 C 0.53322 0.26093 0.9919 0.0
C1384 C 0.53434 0.22762 0.97076 0.0
H1385 H 0.50064 0.30818 0.01039 0.0
H1386 H 0.55843 0.27117 0.00556 0.0
S1387 S 0.453 0.18148 0.92382 0.0
N1388 N 0.43563 0.22144 0.94014 0.0
N1389 N 0.49782 0.18094 0.93636 0.0
C1390 C 0.50054 0.2145 0.95455 0.0
C1391 C 0.46669 0.23615 0.957 0.0
loop_
_geom_bond_atom_site_label_1
_geom_bond_atom_site_label_2
_geom_bond_distance
_geom_bond_site_symmetry_2
_ccdc_geom_bond_type
Mn0 O5 2.095 . S
Mn0 O15 2.162 . S
Mn0 O16 2.297 . S
Mn0 O24 2.385 1_655 S
Mn0 O25 2.209 1_655 S
Mn0 O26 2.094 . S
Mn1 O6 2.121 . S
Mn1 N8 2.257 . S
Mn1 N17 2.282 . S
Mn1 O25 2.215 . S
Mn1 O27 2.117 . S
C2 O24 1.234 . S
C2 O25 1.283 . S
C3 O15 1.281 . S
C3 O16 1.236 . S
C4 O26 1.240 . S
C4 O27 1.264 1_655 S
O5 Mn0 2.095 . S
O5 C14 1.250 1_655 S
O6 Mn1 2.121 . S
O6 C14 1.258 . S
C7 N8 1.326 . S
C7 C11 1.460 . S
C7 H13 0.929 . S
N8 Mn1 2.257 . S
N8 C7 1.326 . S
N8 C12 1.362 . S
C9 C10 1.258 . S
C9 C12 1.431 . S
C9 C29 1.449 . S
C10 C9 1.258 . S
C10 C11 1.477 . S
C10 H30 0.931 . S
C11 C7 1.460 . S
C11 C10 1.477 . S
C11 H31 0.930 . S
C12 N8 1.362 . S
C12 C9 1.431 . S
C12 C22 1.476 . S
H13 C7 0.929 . S
C14 O5 1.250 1_455 S
C14 O6 1.258 . S
O15 Mn0 2.162 . S
O15 C3 1.281 . S
O16 Mn0 2.297 . S
O16 C3 1.236 . S
N17 Mn1 2.282 . S
N17 C18 1.328 . S
N17 C22 1.318 . S
C18 N17 1.328 . S
C18 C19 1.457 . S
C18 H23 0.929 . S
C19 C18 1.457 . S
C19 C20 1.291 . S
C19 H32 0.931 . S
C20 C19 1.291 . S
C20 C21 1.373 . S
C20 H33 0.929 . S
C21 C20 1.373 . S
C21 C22 1.396 . S
C21 C28 1.403 . S
C22 C12 1.476 . S
C22 N17 1.318 . S
C22 C21 1.396 . S
H23 C18 0.929 . S
O24 Mn0 2.385 1_455 S
O24 C2 1.234 . S
O25 Mn0 2.209 1_455 S
O25 Mn1 2.215 . S
O25 C2 1.283 . S
O26 Mn0 2.094 . S
O26 C4 1.240 . S
O27 Mn1 2.117 . S
O27 C4 1.264 1_455 S
C28 C21 1.403 . S
C28 C29 1.399 . S
C28 H34 0.929 . S
C29 C9 1.449 . S
C29 C28 1.399 . S
C29 H35 0.930 . S
H30 C10 0.931 . S
H31 C11 0.930 . S
H32 C19 0.931 . S
H33 C20 0.929 . S
H34 C28 0.929 . S
H35 C29 0.930 . S
Mn36 O41 2.095 . S
Mn36 O51 2.162 . S
Mn36 O52 2.297 . S
Mn36 O60 2.385 1_455 S
Mn36 O61 2.209 1_455 S
Mn36 O62 2.094 . S
Mn37 O42 2.121 . S
Mn37 N44 2.257 . S
Mn37 N53 2.282 . S
Mn37 O61 2.215 . S
Mn37 O63 2.117 . S
C38 O60 1.234 . S
C38 O61 1.283 . S
C39 O51 1.281 . S
C39 O52 1.236 . S
C40 O62 1.240 . S
C40 O63 1.264 1_455 S
O41 Mn36 2.095 . S
O41 C50 1.250 1_455 S
O42 Mn37 2.121 . S
O42 C50 1.258 . S
C43 N44 1.326 . S
C43 C47 1.460 . S
C43 H49 0.929 . S
N44 Mn37 2.257 . S
N44 C43 1.326 . S
N44 C48 1.362 . S
C45 C46 1.258 . S
C45 C48 1.431 . S
C45 C65 1.449 . S
C46 C45 1.258 . S
C46 C47 1.477 . S
C46 H66 0.931 . S
C47 C43 1.460 . S
C47 C46 1.477 . S
C47 H67 0.930 . S
C48 N44 1.362 . S
C48 C45 1.431 . S
C48 C58 1.476 . S
H49 C43 0.929 . S
C50 O41 1.250 1_655 S
C50 O42 1.258 . S
O51 Mn36 2.162 . S
O51 C39 1.281 . S
O52 Mn36 2.297 . S
O52 C39 1.236 . S
N53 Mn37 2.282 . S
N53 C54 1.328 . S
N53 C58 1.318 . S
C54 N53 1.328 . S
C54 C55 1.457 . S
C54 H59 0.929 . S
C55 C54 1.457 . S
C55 C56 1.291 . S
C55 H68 0.931 . S
C56 C55 1.291 . S
C56 C57 1.373 . S
C56 H69 0.929 . S
C57 C56 1.373 . S
C57 C58 1.396 . S
C57 C64 1.403 . S
C58 C48 1.476 . S
C58 N53 1.318 . S
C58 C57 1.396 . S
H59 C54 0.929 . S
O60 Mn36 2.385 1_655 S
O60 C38 1.234 . S
O61 Mn36 2.209 1_655 S
O61 Mn37 2.215 . S
O61 C38 1.283 . S
O62 Mn36 2.094 . S
O62 C40 1.240 . S
O63 Mn37 2.117 . S
O63 C40 1.264 1_655 S
C64 C57 1.403 . S
C64 C65 1.399 . S
C64 H70 0.929 . S
C65 C45 1.449 . S
C65 C64 1.399 . S
C65 H71 0.930 . S
H66 C46 0.931 . S
H67 C47 0.930 . S
H68 C55 0.931 . S
H69 C56 0.929 . S
H70 C64 0.929 . S
H71 C65 0.930 . S
Mn72 O77 2.095 . S
Mn72 O87 2.162 . S
Mn72 O88 2.297 . S
Mn72 O96 2.385 1_655 S
Mn72 O97 2.209 1_655 S
Mn72 O98 2.094 . S
Mn73 O78 2.121 . S
Mn73 N80 2.257 . S
Mn73 N89 2.282 . S
Mn73 O97 2.215 . S
Mn73 O99 2.117 . S
C74 O96 1.234 . S
C74 O97 1.283 . S
C75 O87 1.281 . S
C75 O88 1.236 . S
C76 O98 1.240 . S
C76 O99 1.264 1_655 S
O77 Mn72 2.095 . S
O77 C86 1.250 1_655 S
O78 Mn73 2.121 . S
O78 C86 1.258 . S
C79 N80 1.326 . S
C79 C83 1.460 . S
C79 H85 0.929 . S
N80 Mn73 2.257 . S
N80 C79 1.326 . S
N80 C84 1.362 . S
C81 C82 1.258 . S
C81 C84 1.431 . S
C81 C101 1.449 . S
C82 C81 1.258 . S
C82 C83 1.477 . S
C82 H102 0.931 . S
C83 C79 1.460 . S
C83 C82 1.477 . S
C83 H103 0.930 . S
C84 N80 1.362 . S
C84 C81 1.431 . S
C84 C94 1.476 . S
H85 C79 0.929 . S
C86 O77 1.250 1_455 S
C86 O78 1.258 . S
O87 Mn72 2.162 . S
O87 C75 1.281 . S
O88 Mn72 2.297 . S
O88 C75 1.236 . S
N89 Mn73 2.282 . S
N89 C90 1.328 . S
N89 C94 1.318 . S
C90 N89 1.328 . S
C90 C91 1.457 . S
C90 H95 0.929 . S
C91 C90 1.457 . S
C91 C92 1.291 . S
C91 H104 0.931 . S
C92 C91 1.291 . S
C92 C93 1.373 . S
C92 H105 0.929 . S
C93 C92 1.373 . S
C93 C94 1.396 . S
C93 C100 1.403 . S
C94 C84 1.476 . S
C94 N89 1.318 . S
C94 C93 1.396 . S
H95 C90 0.929 . S
O96 Mn72 2.385 1_455 S
O96 C74 1.234 . S
O97 Mn72 2.209 1_455 S
O97 Mn73 2.215 . S
O97 C74 1.283 . S
O98 Mn72 2.094 . S
O98 C76 1.240 . S
O99 Mn73 2.117 . S
O99 C76 1.264 1_455 S
C100 C93 1.403 . S
C100 C101 1.399 . S
C100 H106 0.929 . S
C101 C81 1.449 . S
C101 C100 1.399 . S
C101 H107 0.930 . S
H102 C82 0.931 . S
H103 C83 0.930 . S
H104 C91 0.931 . S
H105 C92 0.929 . S
H106 C100 0.929 . S
H107 C101 0.930 . S
Mn108 O113 2.095 . S
Mn108 O123 2.162 . S
Mn108 O124 2.297 . S
Mn108 O132 2.385 1_455 S
Mn108 O133 2.209 1_455 S
Mn108 O134 2.094 . S
Mn109 O114 2.121 . S
Mn109 N116 2.257 . S
Mn109 N125 2.282 . S
Mn109 O133 2.215 . S
Mn109 O135 2.117 . S
C110 O132 1.234 . S
C110 O133 1.283 . S
C111 O123 1.281 . S
C111 O124 1.236 . S
C112 O134 1.240 . S
C112 O135 1.264 1_455 S
O113 Mn108 2.095 . S
O113 C122 1.250 1_455 S
O114 Mn109 2.121 . S
O114 C122 1.258 . S
C115 N116 1.326 . S
C115 C119 1.460 . S
C115 H121 0.929 . S
N116 Mn109 2.257 . S
N116 C115 1.326 . S
N116 C120 1.362 . S
C117 C118 1.258 . S
C117 C120 1.431 . S
C117 C137 1.449 . S
C118 C117 1.258 . S
C118 C119 1.477 . S
C118 H138 0.931 . S
C119 C115 1.460 . S
C119 C118 1.477 . S
C119 H139 0.930 . S
C120 N116 1.362 . S
C120 C117 1.431 . S
C120 C130 1.476 . S
H121 C115 0.929 . S
C122 O113 1.250 1_655 S
C122 O114 1.258 . S
O123 Mn108 2.162 . S
O123 C111 1.281 . S
O124 Mn108 2.297 . S
O124 C111 1.236 . S
N125 Mn109 2.282 . S
N125 C126 1.328 . S
N125 C130 1.318 . S
C126 N125 1.328 . S
C126 C127 1.457 . S
C126 H131 0.929 . S
C127 C126 1.457 . S
C127 C128 1.291 . S
C127 H140 0.931 . S
C128 C127 1.291 . S
C128 C129 1.373 . S
C128 H141 0.929 . S
C129 C128 1.373 . S
C129 C130 1.396 . S
C129 C136 1.403 . S
C130 C120 1.476 . S
C130 N125 1.318 . S
C130 C129 1.396 . S
H131 C126 0.929 . S
O132 Mn108 2.385 1_655 S
O132 C110 1.234 . S
O133 Mn108 2.209 1_655 S
O133 Mn109 2.215 . S
O133 C110 1.283 . S
O134 Mn108 2.094 . S
O134 C112 1.240 . S
O135 Mn109 2.117 . S
O135 C112 1.264 1_655 S
C136 C129 1.403 . S
C136 C137 1.399 . S
C136 H142 0.929 . S
C137 C117 1.449 . S
C137 C136 1.399 . S
C137 H143 0.930 . S
H138 C118 0.931 . S
H139 C119 0.930 . S
H140 C127 0.931 . S
H141 C128 0.929 . S
H142 C136 0.929 . S
H143 C137 0.930 . S
Mn144 O149 2.095 . S
Mn144 O159 2.162 . S
Mn144 O160 2.297 . S
Mn144 O168 2.385 1_565 S
Mn144 O169 2.209 1_565 S
Mn144 O170 2.094 . S
Mn145 O150 2.121 . S
Mn145 N152 2.257 . S
Mn145 N161 2.282 . S
Mn145 O169 2.215 . S
Mn145 O171 2.117 . S
C146 O168 1.234 . S
C146 O169 1.283 . S
C147 O159 1.281 . S
C147 O160 1.236 . S
C148 O170 1.240 . S
C148 O171 1.264 1_565 S
O149 Mn144 2.095 . S
O149 C158 1.250 1_565 S
O150 Mn145 2.121 . S
O150 C158 1.258 . S
C151 N152 1.326 . S
C151 C155 1.460 . S
C151 H157 0.929 . S
N152 Mn145 2.257 . S
N152 C151 1.326 . S
N152 C156 1.362 . S
C153 C154 1.258 . S
C153 C156 1.431 . S
C153 C173 1.449 . S
C154 C153 1.258 . S
C154 C155 1.477 . S
C154 H174 0.931 . S
C155 C151 1.460 . S
C155 C154 1.477 . S
C155 H175 0.930 . S
C156 N152 1.362 . S
C156 C153 1.431 . S
C156 C166 1.476 . S
H157 C151 0.929 . S
C158 O149 1.250 1_545 S
C158 O150 1.258 . S
O159 Mn144 2.162 . S
O159 C147 1.281 . S
O160 Mn144 2.297 . S
O160 C147 1.236 . S
N161 Mn145 2.282 . S
N161 C162 1.328 . S
N161 C166 1.318 . S
C162 N161 1.328 . S
C162 C163 1.457 . S
C162 H167 0.929 . S
C163 C162 1.457 . S
C163 C164 1.291 . S
C163 H176 0.931 . S
C164 C163 1.291 . S
C164 C165 1.373 . S
C164 H177 0.929 . S
C165 C164 1.373 . S
C165 C166 1.396 . S
C165 C172 1.403 . S
C166 C156 1.476 . S
C166 N161 1.318 . S
C166 C165 1.396 . S
H167 C162 0.929 . S
O168 Mn144 2.385 1_545 S
O168 C146 1.234 . S
O169 Mn144 2.209 1_545 S
O169 Mn145 2.215 . S
O169 C146 1.283 . S
O170 Mn144 2.094 . S
O170 C148 1.240 . S
O171 Mn145 2.117 . S
O171 C148 1.264 1_545 S
C172 C165 1.403 . S
C172 C173 1.399 . S
C172 H178 0.929 . S
C173 C153 1.449 . S
C173 C172 1.399 . S
C173 H179 0.930 . S
H174 C154 0.931 . S
H175 C155 0.930 . S
H176 C163 0.931 . S
H177 C164 0.929 . S
H178 C172 0.929 . S
H179 C173 0.930 . S
Mn180 O185 2.095 . S
Mn180 O195 2.162 . S
Mn180 O196 2.297 . S
Mn180 O204 2.385 . S
Mn180 O205 2.209 . S
Mn180 O206 2.094 . S
Mn181 O186 2.121 . S
Mn181 N188 2.257 . S
Mn181 N197 2.282 . S
Mn181 O205 2.215 . S
Mn181 O207 2.117 . S
C182 O204 1.234 . S
C182 O205 1.283 . S
C183 O195 1.281 . S
C183 O196 1.236 . S
C184 O206 1.240 . S
C184 O207 1.264 . S
O185 Mn180 2.095 . S
O185 C194 1.250 . S
O186 Mn181 2.121 . S
O186 C194 1.258 . S
C187 N188 1.326 . S
C187 C191 1.460 . S
C187 H193 0.929 . S
N188 Mn181 2.257 . S
N188 C187 1.326 . S
N188 C192 1.362 . S
C189 C190 1.258 . S
C189 C192 1.431 . S
C189 C209 1.449 . S
C190 C189 1.258 . S
C190 C191 1.477 . S
C190 H210 0.931 . S
C191 C187 1.460 . S
C191 C190 1.477 . S
C191 H211 0.930 . S
C192 N188 1.362 . S
C192 C189 1.431 . S
C192 C202 1.476 . S
H193 C187 0.929 . S
C194 O185 1.250 . S
C194 O186 1.258 . S
O195 Mn180 2.162 . S
O195 C183 1.281 . S
O196 Mn180 2.297 . S
O196 C183 1.236 . S
N197 Mn181 2.282 . S
N197 C198 1.328 . S
N197 C202 1.318 . S
C198 N197 1.328 . S
C198 C199 1.457 . S
C198 H203 0.929 . S
C199 C198 1.457 . S
C199 C200 1.291 . S
C199 H212 0.931 . S
C200 C199 1.291 . S
C200 C201 1.373 . S
C200 H213 0.929 . S
C201 C200 1.373 . S
C201 C202 1.396 . S
C201 C208 1.403 . S
C202 C192 1.476 . S
C202 N197 1.318 . S
C202 C201 1.396 . S
H203 C198 0.929 . S
O204 Mn180 2.385 . S
O204 C182 1.234 . S
O205 Mn180 2.209 . S
O205 Mn181 2.215 . S
O205 C182 1.283 . S
O206 Mn180 2.094 . S
O206 C184 1.240 . S
O207 Mn181 2.117 . S
O207 C184 1.264 . S
C208 C201 1.403 . S
C208 C209 1.399 . S
C208 H214 0.929 . S
C209 C189 1.449 . S
C209 C208 1.399 . S
C209 H215 0.930 . S
H210 C190 0.931 . S
H211 C191 0.930 . S
H212 C199 0.931 . S
H213 C200 0.929 . S
H214 C208 0.929 . S
H215 C209 0.930 . S
Mn216 O221 2.095 . S
Mn216 O231 2.162 . S
Mn216 O232 2.297 . S
Mn216 O240 2.385 1_545 S
Mn216 O241 2.209 1_545 S
Mn216 O242 2.094 . S
Mn217 O222 2.121 . S
Mn217 N224 2.257 . S
Mn217 N233 2.282 . S
Mn217 O241 2.215 . S
Mn217 O243 2.117 . S
C218 O240 1.234 . S
C218 O241 1.283 . S
C219 O231 1.281 . S
C219 O232 1.236 . S
C220 O242 1.240 . S
C220 O243 1.264 1_545 S
O221 Mn216 2.095 . S
O221 C230 1.250 1_545 S
O222 Mn217 2.121 . S
O222 C230 1.258 . S
C223 N224 1.326 . S
C223 C227 1.460 . S
C223 H229 0.929 . S
N224 Mn217 2.257 . S
N224 C223 1.326 . S
N224 C228 1.362 . S
C225 C226 1.258 . S
C225 C228 1.431 . S
C225 C245 1.449 . S
C226 C225 1.258 . S
C226 C227 1.477 . S
C226 H246 0.931 . S
C227 C223 1.460 . S
C227 C226 1.477 . S
C227 H247 0.930 . S
C228 N224 1.362 . S
C228 C225 1.431 . S
C228 C238 1.476 . S
H229 C223 0.929 . S
C230 O221 1.250 1_565 S
C230 O222 1.258 . S
O231 Mn216 2.162 . S
O231 C219 1.281 . S
O232 Mn216 2.297 . S
O232 C219 1.236 . S
N233 Mn217 2.282 . S
N233 C234 1.328 . S
N233 C238 1.318 . S
C234 N233 1.328 . S
C234 C235 1.457 . S
C234 H239 0.929 . S
C235 C234 1.457 . S
C235 C236 1.291 . S
C235 H248 0.931 . S
C236 C235 1.291 . S
C236 C237 1.373 . S
C236 H249 0.929 . S
C237 C236 1.373 . S
C237 C238 1.396 . S
C237 C244 1.403 . S
C238 C228 1.476 . S
C238 N233 1.318 . S
C238 C237 1.396 . S
H239 C234 0.929 . S
O240 Mn216 2.385 1_565 S
O240 C218 1.234 . S
O241 Mn216 2.209 1_565 S
O241 Mn217 2.215 . S
O241 C218 1.283 . S
O242 Mn216 2.094 . S
O242 C220 1.240 . S
O243 Mn217 2.117 . S
O243 C220 1.264 1_565 S
C244 C237 1.403 . S
C244 C245 1.399 . S
C244 H250 0.929 . S
C245 C225 1.449 . S
C245 C244 1.399 . S
C245 H251 0.930 . S
H246 C226 0.931 . S
H247 C227 0.930 . S
H248 C235 0.931 . S
H249 C236 0.929 . S
H250 C244 0.929 . S
H251 C245 0.930 . S
Mn252 O257 2.095 . S
Mn252 O267 2.162 . S
Mn252 O268 2.297 . S
Mn252 O276 2.385 . S
Mn252 O277 2.209 . S
Mn252 O278 2.094 . S
Mn253 O258 2.121 . S
Mn253 N260 2.257 . S
Mn253 N269 2.282 . S
Mn253 O277 2.215 . S
Mn253 O279 2.117 . S
C254 O276 1.234 . S
C254 O277 1.283 . S
C255 O267 1.281 . S
C255 O268 1.236 . S
C256 O278 1.240 . S
C256 O279 1.264 . S
O257 Mn252 2.095 . S
O257 C266 1.250 . S
O258 Mn253 2.121 . S
O258 C266 1.258 . S
C259 N260 1.326 . S
C259 C263 1.460 . S
C259 H265 0.929 . S
N260 Mn253 2.257 . S
N260 C259 1.326 . S
N260 C264 1.362 . S
C261 C262 1.258 . S
C261 C264 1.431 . S
C261 C281 1.449 . S
C262 C261 1.258 . S
C262 C263 1.477 . S
C262 H282 0.931 . S
C263 C259 1.460 . S
C263 C262 1.477 . S
C263 H283 0.930 . S
C264 N260 1.362 . S
C264 C261 1.431 . S
C264 C274 1.476 . S
H265 C259 0.929 . S
C266 O257 1.250 . S
C266 O258 1.258 . S
O267 Mn252 2.162 . S
O267 C255 1.281 . S
O268 Mn252 2.297 . S
O268 C255 1.236 . S
N269 Mn253 2.282 . S
N269 C270 1.328 . S
N269 C274 1.318 . S
C270 N269 1.328 . S
C270 C271 1.457 . S
C270 H275 0.929 . S
C271 C270 1.457 . S
C271 C272 1.291 . S
C271 H284 0.931 . S
C272 C271 1.291 . S
C272 C273 1.373 . S
C272 H285 0.929 . S
C273 C272 1.373 . S
C273 C274 1.396 . S
C273 C280 1.403 . S
C274 C264 1.476 . S
C274 N269 1.318 . S
C274 C273 1.396 . S
H275 C270 0.929 . S
O276 Mn252 2.385 . S
O276 C254 1.234 . S
O277 Mn252 2.209 . S
O277 Mn253 2.215 . S
O277 C254 1.283 . S
O278 Mn252 2.094 . S
O278 C256 1.240 . S
O279 Mn253 2.117 . S
O279 C256 1.264 . S
C280 C273 1.403 . S
C280 C281 1.399 . S
C280 H286 0.929 . S
C281 C261 1.449 . S
C281 C280 1.399 . S
C281 H287 0.930 . S
H282 C262 0.931 . S
H283 C263 0.930 . S
H284 C271 0.931 . S
H285 C272 0.929 . S
H286 C280 0.929 . S
H287 C281 0.930 . S
Mn288 O293 2.095 . S
Mn288 O303 2.162 . S
Mn288 O304 2.297 . S
Mn288 O312 2.385 1_556 S
Mn288 O313 2.209 1_556 S
Mn288 O314 2.094 . S
Mn289 O294 2.121 . S
Mn289 N296 2.257 . S
Mn289 N305 2.282 . S
Mn289 O313 2.215 . S
Mn289 O315 2.117 . S
C290 O312 1.234 . S
C290 O313 1.283 . S
C291 O303 1.281 . S
C291 O304 1.236 . S
C292 O314 1.240 . S
C292 O315 1.264 1_556 S
O293 Mn288 2.095 . S
O293 C302 1.250 1_556 S
O294 Mn289 2.121 . S
O294 C302 1.258 . S
C295 N296 1.326 . S
C295 C299 1.460 . S
C295 H301 0.929 . S
N296 Mn289 2.257 . S
N296 C295 1.326 . S
N296 C300 1.362 . S
C297 C298 1.258 . S
C297 C300 1.431 . S
C297 C317 1.449 . S
C298 C297 1.258 . S
C298 C299 1.477 . S
C298 H318 0.931 . S
C299 C295 1.460 . S
C299 C298 1.477 . S
C299 H319 0.930 . S
C300 N296 1.362 . S
C300 C297 1.431 . S
C300 C310 1.476 . S
H301 C295 0.929 . S
C302 O293 1.250 1_554 S
C302 O294 1.258 . S
O303 Mn288 2.162 . S
O303 C291 1.281 . S
O304 Mn288 2.297 . S
O304 C291 1.236 . S
N305 Mn289 2.282 . S
N305 C306 1.328 . S
N305 C310 1.318 . S
C306 N305 1.328 . S
C306 C307 1.457 . S
C306 H311 0.929 . S
C307 C306 1.457 . S
C307 C308 1.291 . S
C307 H320 0.931 . S
C308 C307 1.291 . S
C308 C309 1.373 . S
C308 H321 0.929 . S
C309 C308 1.373 . S
C309 C310 1.396 . S
C309 C316 1.403 . S
C310 C300 1.476 . S
C310 N305 1.318 . S
C310 C309 1.396 . S
H311 C306 0.929 . S
O312 Mn288 2.385 1_554 S
O312 C290 1.234 . S
O313 Mn288 2.209 1_554 S
O313 Mn289 2.215 . S
O313 C290 1.283 . S
O314 Mn288 2.094 . S
O314 C292 1.240 . S
O315 Mn289 2.117 . S
O315 C292 1.264 1_554 S
C316 C309 1.403 . S
C316 C317 1.399 . S
C316 H322 0.929 . S
C317 C297 1.449 . S
C317 C316 1.399 . S
C317 H323 0.930 . S
H318 C298 0.931 . S
H319 C299 0.930 . S
H320 C307 0.931 . S
H321 C308 0.929 . S
H322 C316 0.929 . S
H323 C317 0.930 . S
Mn324 O329 2.095 . S
Mn324 O339 2.162 . S
Mn324 O340 2.297 . S
Mn324 O348 2.385 . S
Mn324 O349 2.209 . S
Mn324 O350 2.094 . S
Mn325 O330 2.121 . S
Mn325 N332 2.257 . S
Mn325 N341 2.282 . S
Mn325 O349 2.215 . S
Mn325 O351 2.117 . S
C326 O348 1.234 . S
C326 O349 1.283 . S
C327 O339 1.281 . S
C327 O340 1.236 . S
C328 O350 1.240 . S
C328 O351 1.264 . S
O329 Mn324 2.095 . S
O329 C338 1.250 . S
O330 Mn325 2.121 . S
O330 C338 1.258 . S
C331 N332 1.326 . S
C331 C335 1.460 . S
C331 H337 0.929 . S
N332 Mn325 2.257 . S
N332 C331 1.326 . S
N332 C336 1.362 . S
C333 C334 1.258 . S
C333 C336 1.431 . S
C333 C353 1.449 . S
C334 C333 1.258 . S
C334 C335 1.477 . S
C334 H354 0.931 . S
C335 C331 1.460 . S
C335 C334 1.477 . S
C335 H355 0.930 . S
C336 N332 1.362 . S
C336 C333 1.431 . S
C336 C346 1.476 . S
H337 C331 0.929 . S
C338 O329 1.250 . S
C338 O330 1.258 . S
O339 Mn324 2.162 . S
O339 C327 1.281 . S
O340 Mn324 2.297 . S
O340 C327 1.236 . S
N341 Mn325 2.282 . S
N341 C342 1.328 . S
N341 C346 1.318 . S
C342 N341 1.328 . S
C342 C343 1.457 . S
C342 H347 0.929 . S
C343 C342 1.457 . S
C343 C344 1.291 . S
C343 H356 0.931 . S
C344 C343 1.291 . S
C344 C345 1.373 . S
C344 H357 0.929 . S
C345 C344 1.373 . S
C345 C346 1.396 . S
C345 C352 1.403 . S
C346 C336 1.476 . S
C346 N341 1.318 . S
C346 C345 1.396 . S
H347 C342 0.929 . S
O348 Mn324 2.385 . S
O348 C326 1.234 . S
O349 Mn324 2.209 . S
O349 Mn325 2.215 . S
O349 C326 1.283 . S
O350 Mn324 2.094 . S
O350 C328 1.240 . S
O351 Mn325 2.117 . S
O351 C328 1.264 . S
C352 C345 1.403 . S
C352 C353 1.399 . S
C352 H358 0.929 . S
C353 C333 1.449 . S
C353 C352 1.399 . S
C353 H359 0.930 . S
H354 C334 0.931 . S
H355 C335 0.930 . S
H356 C343 0.931 . S
H357 C344 0.929 . S
H358 C352 0.929 . S
H359 C353 0.930 . S
Mn360 O365 2.095 . S
Mn360 O375 2.162 . S
Mn360 O376 2.297 . S
Mn360 O384 2.385 . S
Mn360 O385 2.209 . S
Mn360 O386 2.094 . S
Mn361 O366 2.121 . S
Mn361 N368 2.257 . S
Mn361 N377 2.282 . S
Mn361 O385 2.215 . S
Mn361 O387 2.117 . S
C362 O384 1.234 . S
C362 O385 1.283 . S
C363 O375 1.281 . S
C363 O376 1.236 . S
C364 O386 1.240 . S
C364 O387 1.264 . S
O365 Mn360 2.095 . S
O365 C374 1.250 . S
O366 Mn361 2.121 . S
O366 C374 1.258 . S
C367 N368 1.326 . S
C367 C371 1.460 . S
C367 H373 0.929 . S
N368 Mn361 2.257 . S
N368 C367 1.326 . S
N368 C372 1.362 . S
C369 C370 1.258 . S
C369 C372 1.431 . S
C369 C389 1.449 . S
C370 C369 1.258 . S
C370 C371 1.477 . S
C370 H390 0.931 . S
C371 C367 1.460 . S
C371 C370 1.477 . S
C371 H391 0.930 . S
C372 N368 1.362 . S
C372 C369 1.431 . S
C372 C382 1.476 . S
H373 C367 0.929 . S
C374 O365 1.250 . S
C374 O366 1.258 . S
O375 Mn360 2.162 . S
O375 C363 1.281 . S
O376 Mn360 2.297 . S
O376 C363 1.236 . S
N377 Mn361 2.282 . S
N377 C378 1.328 . S
N377 C382 1.318 . S
C378 N377 1.328 . S
C378 C379 1.457 . S
C378 H383 0.929 . S
C379 C378 1.457 . S
C379 C380 1.291 . S
C379 H392 0.931 . S
C380 C379 1.291 . S
C380 C381 1.373 . S
C380 H393 0.929 . S
C381 C380 1.373 . S
C381 C382 1.396 . S
C381 C388 1.403 . S
C382 C372 1.476 . S
C382 N377 1.318 . S
C382 C381 1.396 . S
H383 C378 0.929 . S
O384 Mn360 2.385 . S
O384 C362 1.234 . S
O385 Mn360 2.209 . S
O385 Mn361 2.215 . S
O385 C362 1.283 . S
O386 Mn360 2.094 . S
O386 C364 1.240 . S
O387 Mn361 2.117 . S
O387 C364 1.264 . S
C388 C381 1.403 . S
C388 C389 1.399 . S
C388 H394 0.929 . S
C389 C369 1.449 . S
C389 C388 1.399 . S
C389 H395 0.930 . S
H390 C370 0.931 . S
H391 C371 0.930 . S
H392 C379 0.931 . S
H393 C380 0.929 . S
H394 C388 0.929 . S
H395 C389 0.930 . S
Mn396 O401 2.095 . S
Mn396 O411 2.162 . S
Mn396 O412 2.297 . S
Mn396 O420 2.385 . S
Mn396 O421 2.209 . S
Mn396 O422 2.094 . S
Mn397 O402 2.121 . S
Mn397 N404 2.257 . S
Mn397 N413 2.282 . S
Mn397 O421 2.215 . S
Mn397 O423 2.117 . S
C398 O420 1.234 . S
C398 O421 1.283 . S
C399 O411 1.281 . S
C399 O412 1.236 . S
C400 O422 1.240 . S
C400 O423 1.264 . S
O401 Mn396 2.095 . S
O401 C410 1.250 . S
O402 Mn397 2.121 . S
O402 C410 1.258 . S
C403 N404 1.326 . S
C403 C407 1.460 . S
C403 H409 0.929 . S
N404 Mn397 2.257 . S
N404 C403 1.326 . S
N404 C408 1.362 . S
C405 C406 1.258 . S
C405 C408 1.431 . S
C405 C425 1.449 . S
C406 C405 1.258 . S
C406 C407 1.477 . S
C406 H426 0.931 . S
C407 C403 1.460 . S
C407 C406 1.477 . S
C407 H427 0.930 . S
C408 N404 1.362 . S
C408 C405 1.431 . S
C408 C418 1.476 . S
H409 C403 0.929 . S
C410 O401 1.250 . S
C410 O402 1.258 . S
O411 Mn396 2.162 . S
O411 C399 1.281 . S
O412 Mn396 2.297 . S
O412 C399 1.236 . S
N413 Mn397 2.282 . S
N413 C414 1.328 . S
N413 C418 1.318 . S
C414 N413 1.328 . S
C414 C415 1.457 . S
C414 H419 0.929 . S
C415 C414 1.457 . S
C415 C416 1.291 . S
C415 H428 0.931 . S
C416 C415 1.291 . S
C416 C417 1.373 . S
C416 H429 0.929 . S
C417 C416 1.373 . S
C417 C418 1.396 . S
C417 C424 1.403 . S
C418 C408 1.476 . S
C418 N413 1.318 . S
C418 C417 1.396 . S
H419 C414 0.929 . S
O420 Mn396 2.385 . S
O420 C398 1.234 . S
O421 Mn396 2.209 . S
O421 Mn397 2.215 . S
O421 C398 1.283 . S
O422 Mn396 2.094 . S
O422 C400 1.240 . S
O423 Mn397 2.117 . S
O423 C400 1.264 . S
C424 C417 1.403 . S
C424 C425 1.399 . S
C424 H430 0.929 . S
C425 C405 1.449 . S
C425 C424 1.399 . S
C425 H431 0.930 . S
H426 C406 0.931 . S
H427 C407 0.930 . S
H428 C415 0.931 . S
H429 C416 0.929 . S
H430 C424 0.929 . S
H431 C425 0.930 . S
Mn432 O437 2.095 . S
Mn432 O447 2.162 . S
Mn432 O448 2.297 . S
Mn432 O456 2.385 . S
Mn432 O457 2.209 . S
Mn432 O458 2.094 . S
Mn433 O438 2.121 . S
Mn433 N440 2.257 . S
Mn433 N449 2.282 . S
Mn433 O457 2.215 . S
Mn433 O459 2.117 . S
C434 O456 1.234 . S
C434 O457 1.283 . S
C435 O447 1.281 . S
C435 O448 1.236 . S
C436 O458 1.240 . S
C436 O459 1.264 . S
O437 Mn432 2.095 . S
O437 C446 1.250 . S
O438 Mn433 2.121 . S
O438 C446 1.258 . S
C439 N440 1.326 . S
C439 C443 1.460 . S
C439 H445 0.929 . S
N440 Mn433 2.257 . S
N440 C439 1.326 . S
N440 C444 1.362 . S
C441 C442 1.258 . S
C441 C444 1.431 . S
C441 C461 1.449 . S
C442 C441 1.258 . S
C442 C443 1.477 . S
C442 H462 0.931 . S
C443 C439 1.460 . S
C443 C442 1.477 . S
C443 H463 0.930 . S
C444 N440 1.362 . S
C444 C441 1.431 . S
C444 C454 1.476 . S
H445 C439 0.929 . S
C446 O437 1.250 . S
C446 O438 1.258 . S
O447 Mn432 2.162 . S
O447 C435 1.281 . S
O448 Mn432 2.297 . S
O448 C435 1.236 . S
N449 Mn433 2.282 . S
N449 C450 1.328 . S
N449 C454 1.318 . S
C450 N449 1.328 . S
C450 C451 1.457 . S
C450 H455 0.929 . S
C451 C450 1.457 . S
C451 C452 1.291 . S
C451 H464 0.931 . S
C452 C451 1.291 . S
C452 C453 1.373 . S
C452 H465 0.929 . S
C453 C452 1.373 . S
C453 C454 1.396 . S
C453 C460 1.403 . S
C454 C444 1.476 . S
C454 N449 1.318 . S
C454 C453 1.396 . S
H455 C450 0.929 . S
O456 Mn432 2.385 . S
O456 C434 1.234 . S
O457 Mn432 2.209 . S
O457 Mn433 2.215 . S
O457 C434 1.283 . S
O458 Mn432 2.094 . S
O458 C436 1.240 . S
O459 Mn433 2.117 . S
O459 C436 1.264 . S
C460 C453 1.403 . S
C460 C461 1.399 . S
C460 H466 0.929 . S
C461 C441 1.449 . S
C461 C460 1.399 . S
C461 H467 0.930 . S
H462 C442 0.931 . S
H463 C443 0.930 . S
H464 C451 0.931 . S
H465 C452 0.929 . S
H466 C460 0.929 . S
H467 C461 0.930 . S
Mn468 O473 2.095 . S
Mn468 O483 2.162 . S
Mn468 O484 2.297 . S
Mn468 O492 2.385 . S
Mn468 O493 2.209 . S
Mn468 O494 2.094 . S
Mn469 O474 2.121 . S
Mn469 N476 2.257 . S
Mn469 N485 2.282 . S
Mn469 O493 2.215 . S
Mn469 O495 2.117 . S
C470 O492 1.234 . S
C470 O493 1.283 . S
C471 O483 1.281 . S
C471 O484 1.236 . S
C472 O494 1.240 . S
C472 O495 1.264 . S
O473 Mn468 2.095 . S
O473 C482 1.250 . S
O474 Mn469 2.121 . S
O474 C482 1.258 . S
C475 N476 1.326 . S
C475 C479 1.460 . S
C475 H481 0.929 . S
N476 Mn469 2.257 . S
N476 C475 1.326 . S
N476 C480 1.362 . S
C477 C478 1.258 . S
C477 C480 1.431 . S
C477 C497 1.449 . S
C478 C477 1.258 . S
C478 C479 1.477 . S
C478 H498 0.931 . S
C479 C475 1.460 . S
C479 C478 1.477 . S
C479 H499 0.930 . S
C480 N476 1.362 . S
C480 C477 1.431 . S
C480 C490 1.476 . S
H481 C475 0.929 . S
C482 O473 1.250 . S
C482 O474 1.258 . S
O483 Mn468 2.162 . S
O483 C471 1.281 . S
O484 Mn468 2.297 . S
O484 C471 1.236 . S
N485 Mn469 2.282 . S
N485 C486 1.328 . S
N485 C490 1.318 . S
C486 N485 1.328 . S
C486 C487 1.457 . S
C486 H491 0.929 . S
C487 C486 1.457 . S
C487 C488 1.291 . S
C487 H500 0.931 . S
C488 C487 1.291 . S
C488 C489 1.373 . S
C488 H501 0.929 . S
C489 C488 1.373 . S
C489 C490 1.396 . S
C489 C496 1.403 . S
C490 C480 1.476 . S
C490 N485 1.318 . S
C490 C489 1.396 . S
H491 C486 0.929 . S
O492 Mn468 2.385 . S
O492 C470 1.234 . S
O493 Mn468 2.209 . S
O493 Mn469 2.215 . S
O493 C470 1.283 . S
O494 Mn468 2.094 . S
O494 C472 1.240 . S
O495 Mn469 2.117 . S
O495 C472 1.264 . S
C496 C489 1.403 . S
C496 C497 1.399 . S
C496 H502 0.929 . S
C497 C477 1.449 . S
C497 C496 1.399 . S
C497 H503 0.930 . S
H498 C478 0.931 . S
H499 C479 0.930 . S
H500 C487 0.931 . S
H501 C488 0.929 . S
H502 C496 0.929 . S
H503 C497 0.930 . S
Mn504 O509 2.095 . S
Mn504 O519 2.162 . S
Mn504 O520 2.297 . S
Mn504 O528 2.385 . S
Mn504 O529 2.209 . S
Mn504 O530 2.094 . S
Mn505 O510 2.121 . S
Mn505 N512 2.257 . S
Mn505 N521 2.282 . S
Mn505 O529 2.215 . S
Mn505 O531 2.117 . S
C506 O528 1.234 . S
C506 O529 1.283 . S
C507 O519 1.281 . S
C507 O520 1.236 . S
C508 O530 1.240 . S
C508 O531 1.264 . S
O509 Mn504 2.095 . S
O509 C518 1.250 . S
O510 Mn505 2.121 . S
O510 C518 1.258 . S
C511 N512 1.326 . S
C511 C515 1.460 . S
C511 H517 0.929 . S
N512 Mn505 2.257 . S
N512 C511 1.326 . S
N512 C516 1.362 . S
C513 C514 1.258 . S
C513 C516 1.431 . S
C513 C533 1.449 . S
C514 C513 1.258 . S
C514 C515 1.477 . S
C514 H534 0.931 . S
C515 C511 1.460 . S
C515 C514 1.477 . S
C515 H535 0.930 . S
C516 N512 1.362 . S
C516 C513 1.431 . S
C516 C526 1.476 . S
H517 C511 0.929 . S
C518 O509 1.250 . S
C518 O510 1.258 . S
O519 Mn504 2.162 . S
O519 C507 1.281 . S
O520 Mn504 2.297 . S
O520 C507 1.236 . S
N521 Mn505 2.282 . S
N521 C522 1.328 . S
N521 C526 1.318 . S
C522 N521 1.328 . S
C522 C523 1.457 . S
C522 H527 0.929 . S
C523 C522 1.457 . S
C523 C524 1.291 . S
C523 H536 0.931 . S
C524 C523 1.291 . S
C524 C525 1.373 . S
C524 H537 0.929 . S
C525 C524 1.373 . S
C525 C526 1.396 . S
C525 C532 1.403 . S
C526 C516 1.476 . S
C526 N521 1.318 . S
C526 C525 1.396 . S
H527 C522 0.929 . S
O528 Mn504 2.385 . S
O528 C506 1.234 . S
O529 Mn504 2.209 . S
O529 Mn505 2.215 . S
O529 C506 1.283 . S
O530 Mn504 2.094 . S
O530 C508 1.240 . S
O531 Mn505 2.117 . S
O531 C508 1.264 . S
C532 C525 1.403 . S
C532 C533 1.399 . S
C532 H538 0.929 . S
C533 C513 1.449 . S
C533 C532 1.399 . S
C533 H539 0.930 . S
H534 C514 0.931 . S
H535 C515 0.930 . S
H536 C523 0.931 . S
H537 C524 0.929 . S
H538 C532 0.929 . S
H539 C533 0.930 . S
Mn540 O545 2.095 . S
Mn540 O555 2.162 . S
Mn540 O556 2.297 . S
Mn540 O564 2.385 . S
Mn540 O565 2.209 . S
Mn540 O566 2.094 . S
Mn541 O546 2.121 . S
Mn541 N548 2.257 . S
Mn541 N557 2.282 . S
Mn541 O565 2.215 . S
Mn541 O567 2.117 . S
C542 O564 1.234 . S
C542 O565 1.283 . S
C543 O555 1.281 . S
C543 O556 1.236 . S
C544 O566 1.240 . S
C544 O567 1.264 . S
O545 Mn540 2.095 . S
O545 C554 1.250 . S
O546 Mn541 2.121 . S
O546 C554 1.258 . S
C547 N548 1.326 . S
C547 C551 1.460 . S
C547 H553 0.929 . S
N548 Mn541 2.257 . S
N548 C547 1.326 . S
N548 C552 1.362 . S
C549 C550 1.258 . S
C549 C552 1.431 . S
C549 C569 1.449 . S
C550 C549 1.258 . S
C550 C551 1.477 . S
C550 H570 0.931 . S
C551 C547 1.460 . S
C551 C550 1.477 . S
C551 H571 0.930 . S
C552 N548 1.362 . S
C552 C549 1.431 . S
C552 C562 1.476 . S
H553 C547 0.929 . S
C554 O545 1.250 . S
C554 O546 1.258 . S
O555 Mn540 2.162 . S
O555 C543 1.281 . S
O556 Mn540 2.297 . S
O556 C543 1.236 . S
N557 Mn541 2.282 . S
N557 C558 1.328 . S
N557 C562 1.318 . S
C558 N557 1.328 . S
C558 C559 1.457 . S
C558 H563 0.929 . S
C559 C558 1.457 . S
C559 C560 1.291 . S
C559 H572 0.931 . S
C560 C559 1.291 . S
C560 C561 1.373 . S
C560 H573 0.929 . S
C561 C560 1.373 . S
C561 C562 1.396 . S
C561 C568 1.403 . S
C562 C552 1.476 . S
C562 N557 1.318 . S
C562 C561 1.396 . S
H563 C558 0.929 . S
O564 Mn540 2.385 . S
O564 C542 1.234 . S
O565 Mn540 2.209 . S
O565 Mn541 2.215 . S
O565 C542 1.283 . S
O566 Mn540 2.094 . S
O566 C544 1.240 . S
O567 Mn541 2.117 . S
O567 C544 1.264 . S
C568 C561 1.403 . S
C568 C569 1.399 . S
C568 H574 0.929 . S
C569 C549 1.449 . S
C569 C568 1.399 . S
C569 H575 0.930 . S
H570 C550 0.931 . S
H571 C551 0.930 . S
H572 C559 0.931 . S
H573 C560 0.929 . S
H574 C568 0.929 . S
H575 C569 0.930 . S
Mn576 O581 2.095 . S
Mn576 O591 2.162 . S
Mn576 O592 2.297 . S
Mn576 O600 2.385 . S
Mn576 O601 2.209 . S
Mn576 O602 2.094 . S
Mn577 O582 2.121 . S
Mn577 N584 2.257 . S
Mn577 N593 2.282 . S
Mn577 O601 2.215 . S
Mn577 O603 2.117 . S
C578 O600 1.234 . S
C578 O601 1.283 . S
C579 O591 1.281 . S
C579 O592 1.236 . S
C580 O602 1.240 . S
C580 O603 1.264 . S
O581 Mn576 2.095 . S
O581 C590 1.250 . S
O582 Mn577 2.121 . S
O582 C590 1.258 . S
C583 N584 1.326 . S
C583 C587 1.460 . S
C583 H589 0.929 . S
N584 Mn577 2.257 . S
N584 C583 1.326 . S
N584 C588 1.362 . S
C585 C586 1.258 . S
C585 C588 1.431 . S
C585 C605 1.449 . S
C586 C585 1.258 . S
C586 C587 1.477 . S
C586 H606 0.931 . S
C587 C583 1.460 . S
C587 C586 1.477 . S
C587 H607 0.930 . S
C588 N584 1.362 . S
C588 C585 1.431 . S
C588 C598 1.476 . S
H589 C583 0.929 . S
C590 O581 1.250 . S
C590 O582 1.258 . S
O591 Mn576 2.162 . S
O591 C579 1.281 . S
O592 Mn576 2.297 . S
O592 C579 1.236 . S
N593 Mn577 2.282 . S
N593 C594 1.328 . S
N593 C598 1.318 . S
C594 N593 1.328 . S
C594 C595 1.457 . S
C594 H599 0.929 . S
C595 C594 1.457 . S
C595 C596 1.291 . S
C595 H608 0.931 . S
C596 C595 1.291 . S
C596 C597 1.373 . S
C596 H609 0.929 . S
C597 C596 1.373 . S
C597 C598 1.396 . S
C597 C604 1.403 . S
C598 C588 1.476 . S
C598 N593 1.318 . S
C598 C597 1.396 . S
H599 C594 0.929 . S
O600 Mn576 2.385 . S
O600 C578 1.234 . S
O601 Mn576 2.209 . S
O601 Mn577 2.215 . S
O601 C578 1.283 . S
O602 Mn576 2.094 . S
O602 C580 1.240 . S
O603 Mn577 2.117 . S
O603 C580 1.264 . S
C604 C597 1.403 . S
C604 C605 1.399 . S
C604 H610 0.929 . S
C605 C585 1.449 . S
C605 C604 1.399 . S
C605 H611 0.930 . S
H606 C586 0.931 . S
H607 C587 0.930 . S
H608 C595 0.931 . S
H609 C596 0.929 . S
H610 C604 0.929 . S
H611 C605 0.930 . S
Mn612 O617 2.095 . S
Mn612 O627 2.162 . S
Mn612 O628 2.297 . S
Mn612 O636 2.385 1_545 S
Mn612 O637 2.209 1_545 S
Mn612 O638 2.094 . S
Mn613 O618 2.121 . S
Mn613 N620 2.257 . S
Mn613 N629 2.282 . S
Mn613 O637 2.215 . S
Mn613 O639 2.117 . S
C614 O636 1.234 . S
C614 O637 1.283 . S
C615 O627 1.281 . S
C615 O628 1.236 . S
C616 O638 1.240 . S
C616 O639 1.264 1_545 S
O617 Mn612 2.095 . S
O617 C626 1.250 1_545 S
O618 Mn613 2.121 . S
O618 C626 1.258 . S
C619 N620 1.326 . S
C619 C623 1.460 . S
C619 H625 0.929 . S
N620 Mn613 2.257 . S
N620 C619 1.326 . S
N620 C624 1.362 . S
C621 C622 1.258 . S
C621 C624 1.431 . S
C621 C641 1.449 . S
C622 C621 1.258 . S
C622 C623 1.477 . S
C622 H642 0.931 . S
C623 C619 1.460 . S
C623 C622 1.477 . S
C623 H643 0.930 . S
C624 N620 1.362 . S
C624 C621 1.431 . S
C624 C634 1.476 . S
H625 C619 0.929 . S
C626 O617 1.250 1_565 S
C626 O618 1.258 . S
O627 Mn612 2.162 . S
O627 C615 1.281 . S
O628 Mn612 2.297 . S
O628 C615 1.236 . S
N629 Mn613 2.282 . S
N629 C630 1.328 . S
N629 C634 1.318 . S
C630 N629 1.328 . S
C630 C631 1.457 . S
C630 H635 0.929 . S
C631 C630 1.457 . S
C631 C632 1.291 . S
C631 H644 0.931 . S
C632 C631 1.291 . S
C632 C633 1.373 . S
C632 H645 0.929 . S
C633 C632 1.373 . S
C633 C634 1.396 . S
C633 C640 1.403 . S
C634 C624 1.476 . S
C634 N629 1.318 . S
C634 C633 1.396 . S
H635 C630 0.929 . S
O636 Mn612 2.385 1_565 S
O636 C614 1.234 . S
O637 Mn612 2.209 1_565 S
O637 Mn613 2.215 . S
O637 C614 1.283 . S
O638 Mn612 2.094 . S
O638 C616 1.240 . S
O639 Mn613 2.117 . S
O639 C616 1.264 1_565 S
C640 C633 1.403 . S
C640 C641 1.399 . S
C640 H646 0.929 . S
C641 C621 1.449 . S
C641 C640 1.399 . S
C641 H647 0.930 . S
H642 C622 0.931 . S
H643 C623 0.930 . S
H644 C631 0.931 . S
H645 C632 0.929 . S
H646 C640 0.929 . S
H647 C641 0.930 . S
Mn648 O653 2.095 . S
Mn648 O663 2.162 . S
Mn648 O664 2.297 . S
Mn648 O672 2.385 . S
Mn648 O673 2.209 . S
Mn648 O674 2.094 . S
Mn649 O654 2.121 . S
Mn649 N656 2.257 . S
Mn649 N665 2.282 . S
Mn649 O673 2.215 . S
Mn649 O675 2.117 . S
C650 O672 1.234 . S
C650 O673 1.283 . S
C651 O663 1.281 . S
C651 O664 1.236 . S
C652 O674 1.240 . S
C652 O675 1.264 . S
O653 Mn648 2.095 . S
O653 C662 1.250 . S
O654 Mn649 2.121 . S
O654 C662 1.258 . S
C655 N656 1.326 . S
C655 C659 1.460 . S
C655 H661 0.929 . S
N656 Mn649 2.257 . S
N656 C655 1.326 . S
N656 C660 1.362 . S
C657 C658 1.258 . S
C657 C660 1.431 . S
C657 C677 1.449 . S
C658 C657 1.258 . S
C658 C659 1.477 . S
C658 H678 0.931 . S
C659 C655 1.460 . S
C659 C658 1.477 . S
C659 H679 0.930 . S
C660 N656 1.362 . S
C660 C657 1.431 . S
C660 C670 1.476 . S
H661 C655 0.929 . S
C662 O653 1.250 . S
C662 O654 1.258 . S
O663 Mn648 2.162 . S
O663 C651 1.281 . S
O664 Mn648 2.297 . S
O664 C651 1.236 . S
N665 Mn649 2.282 . S
N665 C666 1.328 . S
N665 C670 1.318 . S
C666 N665 1.328 . S
C666 C667 1.457 . S
C666 H671 0.929 . S
C667 C666 1.457 . S
C667 C668 1.291 . S
C667 H680 0.931 . S
C668 C667 1.291 . S
C668 C669 1.373 . S
C668 H681 0.929 . S
C669 C668 1.373 . S
C669 C670 1.396 . S
C669 C676 1.403 . S
C670 C660 1.476 . S
C670 N665 1.318 . S
C670 C669 1.396 . S
H671 C666 0.929 . S
O672 Mn648 2.385 . S
O672 C650 1.234 . S
O673 Mn648 2.209 . S
O673 Mn649 2.215 . S
O673 C650 1.283 . S
O674 Mn648 2.094 . S
O674 C652 1.240 . S
O675 Mn649 2.117 . S
O675 C652 1.264 . S
C676 C669 1.403 . S
C676 C677 1.399 . S
C676 H682 0.929 . S
C677 C657 1.449 . S
C677 C676 1.399 . S
C677 H683 0.930 . S
H678 C658 0.931 . S
H679 C659 0.930 . S
H680 C667 0.931 . S
H681 C668 0.929 . S
H682 C676 0.929 . S
H683 C677 0.930 . S
Mn684 O689 2.095 . S
Mn684 O699 2.162 . S
Mn684 O700 2.297 . S
Mn684 O708 2.385 1_565 S
Mn684 O709 2.209 1_565 S
Mn684 O710 2.094 . S
Mn685 O690 2.121 . S
Mn685 N692 2.257 . S
Mn685 N701 2.282 . S
Mn685 O709 2.215 . S
Mn685 O711 2.117 . S
C686 O708 1.234 . S
C686 O709 1.283 . S
C687 O699 1.281 . S
C687 O700 1.236 . S
C688 O710 1.240 . S
C688 O711 1.264 1_565 S
O689 Mn684 2.095 . S
O689 C698 1.250 1_565 S
O690 Mn685 2.121 . S
O690 C698 1.258 . S
C691 N692 1.326 . S
C691 C695 1.460 . S
C691 H697 0.929 . S
N692 Mn685 2.257 . S
N692 C691 1.326 . S
N692 C696 1.362 . S
C693 C694 1.258 . S
C693 C696 1.431 . S
C693 C713 1.449 . S
C694 C693 1.258 . S
C694 C695 1.477 . S
C694 H714 0.931 . S
C695 C691 1.460 . S
C695 C694 1.477 . S
C695 H715 0.930 . S
C696 N692 1.362 . S
C696 C693 1.431 . S
C696 C706 1.476 . S
H697 C691 0.929 . S
C698 O689 1.250 1_545 S
C698 O690 1.258 . S
O699 Mn684 2.162 . S
O699 C687 1.281 . S
O700 Mn684 2.297 . S
O700 C687 1.236 . S
N701 Mn685 2.282 . S
N701 C702 1.328 . S
N701 C706 1.318 . S
C702 N701 1.328 . S
C702 C703 1.457 . S
C702 H707 0.929 . S
C703 C702 1.457 . S
C703 C704 1.291 . S
C703 H716 0.931 . S
C704 C703 1.291 . S
C704 C705 1.373 . S
C704 H717 0.929 . S
C705 C704 1.373 . S
C705 C706 1.396 . S
C705 C712 1.403 . S
C706 C696 1.476 . S
C706 N701 1.318 . S
C706 C705 1.396 . S
H707 C702 0.929 . S
O708 Mn684 2.385 1_545 S
O708 C686 1.234 . S
O709 Mn684 2.209 1_545 S
O709 Mn685 2.215 . S
O709 C686 1.283 . S
O710 Mn684 2.094 . S
O710 C688 1.240 . S
O711 Mn685 2.117 . S
O711 C688 1.264 1_545 S
C712 C705 1.403 . S
C712 C713 1.399 . S
C712 H718 0.929 . S
C713 C693 1.449 . S
C713 C712 1.399 . S
C713 H719 0.930 . S
H714 C694 0.931 . S
H715 C695 0.930 . S
H716 C703 0.931 . S
H717 C704 0.929 . S
H718 C712 0.929 . S
H719 C713 0.930 . S
Mn720 O725 2.095 . S
Mn720 O735 2.162 . S
Mn720 O736 2.297 . S
Mn720 O744 2.385 . S
Mn720 O745 2.209 . S
Mn720 O746 2.094 . S
Mn721 O726 2.121 . S
Mn721 N728 2.257 . S
Mn721 N737 2.282 . S
Mn721 O745 2.215 . S
Mn721 O747 2.117 . S
C722 O744 1.234 . S
C722 O745 1.283 . S
C723 O735 1.281 . S
C723 O736 1.236 . S
C724 O746 1.240 . S
C724 O747 1.264 . S
O725 Mn720 2.095 . S
O725 C734 1.250 . S
O726 Mn721 2.121 . S
O726 C734 1.258 . S
C727 N728 1.326 . S
C727 C731 1.460 . S
C727 H733 0.929 . S
N728 Mn721 2.257 . S
N728 C727 1.326 . S
N728 C732 1.362 . S
C729 C730 1.258 . S
C729 C732 1.431 . S
C729 C749 1.449 . S
C730 C729 1.258 . S
C730 C731 1.477 . S
C730 H750 0.931 . S
C731 C727 1.460 . S
C731 C730 1.477 . S
C731 H751 0.930 . S
C732 N728 1.362 . S
C732 C729 1.431 . S
C732 C742 1.476 . S
H733 C727 0.929 . S
C734 O725 1.250 . S
C734 O726 1.258 . S
O735 Mn720 2.162 . S
O735 C723 1.281 . S
O736 Mn720 2.297 . S
O736 C723 1.236 . S
N737 Mn721 2.282 . S
N737 C738 1.328 . S
N737 C742 1.318 . S
C738 N737 1.328 . S
C738 C739 1.457 . S
C738 H743 0.929 . S
C739 C738 1.457 . S
C739 C740 1.291 . S
C739 H752 0.931 . S
C740 C739 1.291 . S
C740 C741 1.373 . S
C740 H753 0.929 . S
C741 C740 1.373 . S
C741 C742 1.396 . S
C741 C748 1.403 . S
C742 C732 1.476 . S
C742 N737 1.318 . S
C742 C741 1.396 . S
H743 C738 0.929 . S
O744 Mn720 2.385 . S
O744 C722 1.234 . S
O745 Mn720 2.209 . S
O745 Mn721 2.215 . S
O745 C722 1.283 . S
O746 Mn720 2.094 . S
O746 C724 1.240 . S
O747 Mn721 2.117 . S
O747 C724 1.264 . S
C748 C741 1.403 . S
C748 C749 1.399 . S
C748 H754 0.929 . S
C749 C729 1.449 . S
C749 C748 1.399 . S
C749 H755 0.930 . S
H750 C730 0.931 . S
H751 C731 0.930 . S
H752 C739 0.931 . S
H753 C740 0.929 . S
H754 C748 0.929 . S
H755 C749 0.930 . S
Mn756 O761 2.095 . S
Mn756 O771 2.162 . S
Mn756 O772 2.297 . S
Mn756 O780 2.385 1_554 S
Mn756 O781 2.209 1_554 S
Mn756 O782 2.094 . S
Mn757 O762 2.121 . S
Mn757 N764 2.257 . S
Mn757 N773 2.282 . S
Mn757 O781 2.215 . S
Mn757 O783 2.117 . S
C758 O780 1.234 . S
C758 O781 1.283 . S
C759 O771 1.281 . S
C759 O772 1.236 . S
C760 O782 1.240 . S
C760 O783 1.264 1_554 S
O761 Mn756 2.095 . S
O761 C770 1.250 1_554 S
O762 Mn757 2.121 . S
O762 C770 1.258 . S
C763 N764 1.326 . S
C763 C767 1.460 . S
C763 H769 0.929 . S
N764 Mn757 2.257 . S
N764 C763 1.326 . S
N764 C768 1.362 . S
C765 C766 1.258 . S
C765 C768 1.431 . S
C765 C785 1.449 . S
C766 C765 1.258 . S
C766 C767 1.477 . S
C766 H786 0.931 . S
C767 C763 1.460 . S
C767 C766 1.477 . S
C767 H787 0.930 . S
C768 N764 1.362 . S
C768 C765 1.431 . S
C768 C778 1.476 . S
H769 C763 0.929 . S
C770 O761 1.250 1_556 S
C770 O762 1.258 . S
O771 Mn756 2.162 . S
O771 C759 1.281 . S
O772 Mn756 2.297 . S
O772 C759 1.236 . S
N773 Mn757 2.282 . S
N773 C774 1.328 . S
N773 C778 1.318 . S
C774 N773 1.328 . S
C774 C775 1.457 . S
C774 H779 0.929 . S
C775 C774 1.457 . S
C775 C776 1.291 . S
C775 H788 0.931 . S
C776 C775 1.291 . S
C776 C777 1.373 . S
C776 H789 0.929 . S
C777 C776 1.373 . S
C777 C778 1.396 . S
C777 C784 1.403 . S
C778 C768 1.476 . S
C778 N773 1.318 . S
C778 C777 1.396 . S
H779 C774 0.929 . S
O780 Mn756 2.385 1_556 S
O780 C758 1.234 . S
O781 Mn756 2.209 1_556 S
O781 Mn757 2.215 . S
O781 C758 1.283 . S
O782 Mn756 2.094 . S
O782 C760 1.240 . S
O783 Mn757 2.117 . S
O783 C760 1.264 1_556 S
C784 C777 1.403 . S
C784 C785 1.399 . S
C784 H790 0.929 . S
C785 C765 1.449 . S
C785 C784 1.399 . S
C785 H791 0.930 . S
H786 C766 0.931 . S
H787 C767 0.930 . S
H788 C775 0.931 . S
H789 C776 0.929 . S
H790 C784 0.929 . S
H791 C785 0.930 . S
Mn792 O797 2.095 . S
Mn792 O807 2.162 . S
Mn792 O808 2.297 . S
Mn792 O816 2.385 1_554 S
Mn792 O817 2.209 1_554 S
Mn792 O818 2.094 . S
Mn793 O798 2.121 . S
Mn793 N800 2.257 . S
Mn793 N809 2.282 . S
Mn793 O817 2.215 . S
Mn793 O819 2.117 . S
C794 O816 1.234 . S
C794 O817 1.283 . S
C795 O807 1.281 . S
C795 O808 1.236 . S
C796 O818 1.240 . S
C796 O819 1.264 1_554 S
O797 Mn792 2.095 . S
O797 C806 1.250 1_554 S
O798 Mn793 2.121 . S
O798 C806 1.258 . S
C799 N800 1.326 . S
C799 C803 1.460 . S
C799 H805 0.929 . S
N800 Mn793 2.257 . S
N800 C799 1.326 . S
N800 C804 1.362 . S
C801 C802 1.258 . S
C801 C804 1.431 . S
C801 C821 1.449 . S
C802 C801 1.258 . S
C802 C803 1.477 . S
C802 H822 0.931 . S
C803 C799 1.460 . S
C803 C802 1.477 . S
C803 H823 0.930 . S
C804 N800 1.362 . S
C804 C801 1.431 . S
C804 C814 1.476 . S
H805 C799 0.929 . S
C806 O797 1.250 1_556 S
C806 O798 1.258 . S
O807 Mn792 2.162 . S
O807 C795 1.281 . S
O808 Mn792 2.297 . S
O808 C795 1.236 . S
N809 Mn793 2.282 . S
N809 C810 1.328 . S
N809 C814 1.318 . S
C810 N809 1.328 . S
C810 C811 1.457 . S
C810 H815 0.929 . S
C811 C810 1.457 . S
C811 C812 1.291 . S
C811 H824 0.931 . S
C812 C811 1.291 . S
C812 C813 1.373 . S
C812 H825 0.929 . S
C813 C812 1.373 . S
C813 C814 1.396 . S
C813 C820 1.403 . S
C814 C804 1.476 . S
C814 N809 1.318 . S
C814 C813 1.396 . S
H815 C810 0.929 . S
O816 Mn792 2.385 1_556 S
O816 C794 1.234 . S
O817 Mn792 2.209 1_556 S
O817 Mn793 2.215 . S
O817 C794 1.283 . S
O818 Mn792 2.094 . S
O818 C796 1.240 . S
O819 Mn793 2.117 . S
O819 C796 1.264 1_556 S
C820 C813 1.403 . S
C820 C821 1.399 . S
C820 H826 0.929 . S
C821 C801 1.449 . S
C821 C820 1.399 . S
C821 H827 0.930 . S
H822 C802 0.931 . S
H823 C803 0.930 . S
H824 C811 0.931 . S
H825 C812 0.929 . S
H826 C820 0.929 . S
H827 C821 0.930 . S
Mn828 O833 2.095 . S
Mn828 O843 2.162 . S
Mn828 O844 2.297 . S
Mn828 O852 2.385 1_556 S
Mn828 O853 2.209 1_556 S
Mn828 O854 2.094 . S
Mn829 O834 2.121 . S
Mn829 N836 2.257 . S
Mn829 N845 2.282 . S
Mn829 O853 2.215 . S
Mn829 O855 2.117 . S
C830 O852 1.234 . S
C830 O853 1.283 . S
C831 O843 1.281 . S
C831 O844 1.236 . S
C832 O854 1.240 . S
C832 O855 1.264 1_556 S
O833 Mn828 2.095 . S
O833 C842 1.250 1_556 S
O834 Mn829 2.121 . S
O834 C842 1.258 . S
C835 N836 1.326 . S
C835 C839 1.460 . S
C835 H841 0.929 . S
N836 Mn829 2.257 . S
N836 C835 1.326 . S
N836 C840 1.362 . S
C837 C838 1.258 . S
C837 C840 1.431 . S
C837 C857 1.449 . S
C838 C837 1.258 . S
C838 C839 1.477 . S
C838 H858 0.931 . S
C839 C835 1.460 . S
C839 C838 1.477 . S
C839 H859 0.930 . S
C840 N836 1.362 . S
C840 C837 1.431 . S
C840 C850 1.476 . S
H841 C835 0.929 . S
C842 O833 1.250 1_554 S
C842 O834 1.258 . S
O843 Mn828 2.162 . S
O843 C831 1.281 . S
O844 Mn828 2.297 . S
O844 C831 1.236 . S
N845 Mn829 2.282 . S
N845 C846 1.328 . S
N845 C850 1.318 . S
C846 N845 1.328 . S
C846 C847 1.457 . S
C846 H851 0.929 . S
C847 C846 1.457 . S
C847 C848 1.291 . S
C847 H860 0.931 . S
C848 C847 1.291 . S
C848 C849 1.373 . S
C848 H861 0.929 . S
C849 C848 1.373 . S
C849 C850 1.396 . S
C849 C856 1.403 . S
C850 C840 1.476 . S
C850 N845 1.318 . S
C850 C849 1.396 . S
H851 C846 0.929 . S
O852 Mn828 2.385 1_554 S
O852 C830 1.234 . S
O853 Mn828 2.209 1_554 S
O853 Mn829 2.215 . S
O853 C830 1.283 . S
O854 Mn828 2.094 . S
O854 C832 1.240 . S
O855 Mn829 2.117 . S
O855 C832 1.264 1_554 S
C856 C849 1.403 . S
C856 C857 1.399 . S
C856 H862 0.929 . S
C857 C837 1.449 . S
C857 C856 1.399 . S
C857 H863 0.930 . S
H858 C838 0.931 . S
H859 C839 0.930 . S
H860 C847 0.931 . S
H861 C848 0.929 . S
H862 C856 0.929 . S
H863 C857 0.930 . S
C864 C865 1.369 . S
C864 C866 1.419 . S
C864 H868 0.930 . S
C865 C864 1.369 . S
C865 C874 1.429 . S
C866 C864 1.419 . S
C866 C867 1.363 . S
C866 H869 0.929 . S
C867 C866 1.363 . S
C867 C873 1.428 . S
H868 C864 0.930 . S
H869 C866 0.929 . S
S870 N871 1.613 1_655 S
S870 N872 1.610 1_655 S
N871 S870 1.613 1_455 S
N871 C874 1.350 . S
N872 S870 1.610 1_455 S
N872 C873 1.351 . S
C873 C867 1.428 . S
C873 N872 1.351 . S
C873 C874 1.434 . S
C874 C865 1.429 . S
C874 N871 1.350 . S
C874 C873 1.434 . S
C875 C876 1.369 . S
C875 C877 1.419 . S
C875 H879 0.930 . S
C876 C875 1.369 . S
C876 C885 1.429 . S
C877 C875 1.419 . S
C877 C878 1.363 . S
C877 H880 0.929 . S
C878 C877 1.363 . S
C878 C884 1.428 . S
H879 C875 0.930 . S
H880 C877 0.929 . S
S881 N882 1.613 . S
S881 N883 1.610 . S
N882 S881 1.613 . S
N882 C885 1.350 . S
N883 S881 1.610 . S
N883 C884 1.351 . S
C884 C878 1.428 . S
C884 N883 1.351 . S
C884 C885 1.434 . S
C885 C876 1.429 . S
C885 N882 1.350 . S
C885 C884 1.434 . S
C886 C887 1.369 . S
C886 C888 1.419 . S
C886 H890 0.930 . S
C887 C886 1.369 . S
C887 C896 1.429 . S
C888 C886 1.419 . S
C888 C889 1.363 1_554 S
C888 H891 0.929 . S
C889 C888 1.363 1_556 S
C889 C895 1.428 1_556 S
H890 C886 0.930 . S
H891 C888 0.929 . S
S892 N893 1.613 1_655 S
S892 N894 1.610 1_654 S
N893 S892 1.613 1_455 S
N893 C896 1.350 . S
N894 S892 1.610 1_456 S
N894 C895 1.351 1_556 S
C895 C889 1.428 1_554 S
C895 N894 1.351 1_554 S
C895 C896 1.434 . S
C896 C887 1.429 . S
C896 N893 1.350 . S
C896 C895 1.434 . S
C897 C898 1.369 . S
C897 C899 1.419 . S
C897 H901 0.930 . S
C898 C897 1.369 . S
C898 C907 1.429 . S
C899 C897 1.419 . S
C899 C900 1.363 1_554 S
C899 H902 0.928 1_554 S
C900 C899 1.363 1_556 S
C900 C906 1.428 1_556 S
H901 C897 0.930 . S
H902 C899 0.928 1_556 S
S903 N904 1.613 . S
S903 N905 1.610 1_554 S
N904 S903 1.613 . S
N904 C907 1.350 . S
N905 S903 1.610 1_556 S
N905 C906 1.351 1_556 S
C906 C900 1.428 1_554 S
C906 N905 1.351 1_554 S
C906 C907 1.434 . S
C907 C898 1.429 . S
C907 N904 1.350 . S
C907 C906 1.434 . S
C908 C909 1.369 . S
C908 C910 1.419 . S
C908 H912 0.930 . S
C909 C908 1.369 . S
C909 C918 1.429 . S
C910 C908 1.419 . S
C910 C911 1.363 . S
C910 H913 0.929 . S
C911 C910 1.363 . S
C911 C917 1.428 . S
H912 C908 0.930 . S
H913 C910 0.929 . S
S914 N915 1.613 . S
S914 N916 1.610 . S
N915 S914 1.613 . S
N915 C918 1.350 . S
N916 S914 1.610 . S
N916 C917 1.351 . S
C917 C911 1.428 . S
C917 N916 1.351 . S
C917 C918 1.434 . S
C918 C909 1.429 . S
C918 N915 1.350 . S
C918 C917 1.434 . S
C919 C920 1.369 . S
C919 C921 1.419 . S
C919 H923 0.930 . S
C920 C919 1.369 . S
C920 C929 1.429 . S
C921 C919 1.419 . S
C921 C922 1.363 . S
C921 H924 0.929 . S
C922 C921 1.363 . S
C922 C928 1.428 . S
H923 C919 0.930 . S
H924 C921 0.929 . S
S925 N926 1.613 . S
S925 N927 1.610 . S
N926 S925 1.613 . S
N926 C929 1.350 . S
N927 S925 1.610 . S
N927 C928 1.351 . S
C928 C922 1.428 . S
C928 N927 1.351 . S
C928 C929 1.434 . S
C929 C920 1.429 . S
C929 N926 1.350 . S
C929 C928 1.434 . S
C930 C931 1.369 . S
C930 C932 1.419 . S
C930 H934 0.930 . S
C931 C930 1.369 . S
C931 C940 1.429 . S
C932 C930 1.419 . S
C932 C933 1.363 . S
C932 H935 0.929 . S
C933 C932 1.363 . S
C933 C939 1.428 . S
H934 C930 0.930 . S
H935 C932 0.929 . S
S936 N937 1.613 . S
S936 N938 1.610 . S
N937 S936 1.613 . S
N937 C940 1.350 . S
N938 S936 1.610 . S
N938 C939 1.351 . S
C939 C933 1.428 . S
C939 N938 1.351 . S
C939 C940 1.434 . S
C940 C931 1.429 . S
C940 N937 1.350 . S
C940 C939 1.434 . S
C941 C942 1.369 . S
C941 C943 1.419 . S
C941 H945 0.930 . S
C942 C941 1.369 . S
C942 C951 1.429 . S
C943 C941 1.419 . S
C943 C944 1.363 . S
C943 H946 0.929 . S
C944 C943 1.363 . S
C944 C950 1.428 . S
H945 C941 0.930 . S
H946 C943 0.929 . S
S947 N948 1.613 . S
S947 N949 1.610 . S
N948 S947 1.613 . S
N948 C951 1.350 . S
N949 S947 1.610 . S
N949 C950 1.351 . S
C950 C944 1.428 . S
C950 N949 1.351 . S
C950 C951 1.434 . S
C951 C942 1.429 . S
C951 N948 1.350 . S
C951 C950 1.434 . S
C952 C953 1.369 . S
C952 C954 1.419 . S
C952 H956 0.930 . S
C953 C952 1.369 . S
C953 C962 1.429 . S
C954 C952 1.419 . S
C954 C955 1.363 . S
C954 H957 0.929 . S
C955 C954 1.363 . S
C955 C961 1.428 . S
H956 C952 0.930 . S
H957 C954 0.929 . S
S958 N959 1.613 . S
S958 N960 1.610 . S
N959 S958 1.613 . S
N959 C962 1.350 . S
N960 S958 1.610 . S
N960 C961 1.351 . S
C961 C955 1.428 . S
C961 N960 1.351 . S
C961 C962 1.434 . S
C962 C953 1.429 . S
C962 N959 1.350 . S
C962 C961 1.434 . S
C963 C964 1.369 . S
C963 C965 1.419 . S
C963 H967 0.930 . S
C964 C963 1.369 . S
C964 C973 1.429 . S
C965 C963 1.419 . S
C965 C966 1.363 . S
C965 H968 0.929 . S
C966 C965 1.363 . S
C966 C972 1.428 . S
H967 C963 0.930 . S
H968 C965 0.929 . S
S969 N970 1.604 1_655 S
S969 N971 1.598 1_655 S
N970 S969 1.604 1_455 S
N970 C973 1.350 . S
N971 S969 1.598 1_455 S
N971 C972 1.351 . S
C972 C966 1.428 . S
C972 N971 1.351 . S
C972 C973 1.434 . S
C973 C964 1.429 . S
C973 N970 1.350 . S
C973 C972 1.434 . S
C974 C975 1.369 . S
C974 C976 1.419 . S
C974 H978 0.930 . S
C975 C974 1.369 . S
C975 C984 1.429 . S
C976 C974 1.419 . S
C976 C977 1.363 1_565 S
C976 H979 0.929 1_565 S
C977 C976 1.363 1_545 S
C977 C983 1.428 1_545 S
H978 C974 0.930 . S
H979 C976 0.929 1_545 S
S980 N981 1.613 . S
S980 N982 1.610 . S
N981 S980 1.613 . S
N981 C984 1.350 . S
N982 S980 1.610 . S
N982 C983 1.351 . S
C983 C977 1.428 1_565 S
C983 N982 1.351 . S
C983 C984 1.434 . S
C984 C975 1.429 . S
C984 N981 1.350 . S
C984 C983 1.434 . S
C985 C986 1.369 . S
C985 C987 1.419 . S
C985 H989 0.930 . S
C986 C985 1.369 . S
C986 C995 1.429 . S
C987 C985 1.419 . S
C987 C988 1.363 . S
C987 H990 0.929 . S
C988 C987 1.363 . S
C988 C994 1.428 . S
H989 C985 0.930 . S
H990 C987 0.929 . S
S991 N992 1.613 . S
S991 N993 1.610 . S
N992 S991 1.613 . S
N992 C995 1.350 . S
N993 S991 1.610 . S
N993 C994 1.351 . S
C994 C988 1.428 . S
C994 N993 1.351 . S
C994 C995 1.434 . S
C995 C986 1.429 . S
C995 N992 1.350 . S
C995 C994 1.434 . S
C996 C997 1.369 1_556 S
C996 C998 1.419 . S
C996 H1000 0.930 . S
C997 C996 1.369 1_554 S
C997 C1006 1.433 . S
C998 C996 1.419 . S
C998 C999 1.363 . S
C998 H1001 0.929 . S
C999 C998 1.363 . S
C999 C1005 1.428 . S
H1000 C996 0.930 . S
H1001 C998 0.929 . S
S1002 N1003 1.613 . S
S1002 N1004 1.610 1_554 S
N1003 S1002 1.613 . S
N1003 C1006 1.370 . S
N1004 S1002 1.610 1_556 S
N1004 C1005 1.351 . S
C1005 C999 1.428 . S
C1005 N1004 1.351 . S
C1005 C1006 1.408 1_556 S
C1006 C997 1.433 . S
C1006 N1003 1.370 . S
C1006 C1005 1.408 1_554 S
C1007 C1008 1.369 1_556 S
C1007 C1009 1.419 . S
C1007 H1011 0.930 . S
C1008 C1007 1.369 1_554 S
C1008 C1017 1.429 1_554 S
C1009 C1007 1.419 . S
C1009 C1010 1.363 . S
C1009 H1012 0.929 . S
C1010 C1009 1.363 . S
C1010 C1016 1.428 . S
H1011 C1007 0.930 . S
H1012 C1009 0.929 . S
S1013 N1014 1.601 1_556 S
S1013 N1015 1.610 1_545 S
N1014 S1013 1.601 1_554 S
N1014 C1017 1.335 1_544 S
N1015 S1013 1.610 1_565 S
N1015 C1016 1.351 . S
C1016 C1010 1.428 . S
C1016 N1015 1.351 . S
C1016 C1017 1.434 . S
C1017 C1008 1.429 1_556 S
C1017 N1014 1.335 1_566 S
C1017 C1016 1.434 . S
C1018 C1019 1.369 . S
C1018 C1020 1.419 . S
C1018 H1022 0.930 . S
C1019 C1018 1.369 . S
C1019 C1028 1.429 . S
C1020 C1018 1.419 . S
C1020 C1021 1.363 . S
C1020 H1023 0.929 . S
C1021 C1020 1.363 . S
C1021 C1027 1.428 . S
H1022 C1018 0.930 . S
H1023 C1020 0.929 . S
S1024 N1025 1.613 . S
S1024 N1026 1.610 . S
N1025 S1024 1.613 . S
N1025 C1028 1.350 . S
N1026 S1024 1.610 . S
N1026 C1027 1.351 . S
C1027 C1021 1.428 . S
C1027 N1026 1.351 . S
C1027 C1028 1.434 . S
C1028 C1019 1.429 . S
C1028 N1025 1.350 . S
C1028 C1027 1.434 . S
C1029 C1030 1.369 . S
C1029 C1031 1.419 . S
C1029 H1033 0.930 . S
C1030 C1029 1.369 . S
C1030 C1039 1.429 . S
C1031 C1029 1.419 . S
C1031 C1032 1.363 . S
C1031 H1034 0.929 . S
C1032 C1031 1.363 . S
C1032 C1038 1.428 . S
H1033 C1029 0.930 . S
H1034 C1031 0.929 . S
S1035 N1036 1.613 . S
S1035 N1037 1.610 . S
N1036 S1035 1.613 . S
N1036 C1039 1.350 . S
N1037 S1035 1.610 . S
N1037 C1038 1.351 . S
C1038 C1032 1.428 . S
C1038 N1037 1.351 . S
C1038 C1039 1.434 . S
C1039 C1030 1.429 . S
C1039 N1036 1.350 . S
C1039 C1038 1.434 . S
C1040 C1041 1.369 . S
C1040 C1042 1.419 1_455 S
C1040 H1044 0.930 . S
C1041 C1040 1.369 . S
C1041 C1050 1.429 1_455 S
C1042 C1040 1.419 1_655 S
C1042 C1043 1.363 . S
C1042 H1045 0.929 . S
C1043 C1042 1.363 . S
C1043 C1049 1.428 . S
H1044 C1040 0.930 . S
H1045 C1042 0.929 . S
S1046 N1047 1.613 . S
S1046 N1048 1.610 . S
N1047 S1046 1.613 . S
N1047 C1050 1.350 . S
N1048 S1046 1.610 . S
N1048 C1049 1.351 . S
C1049 C1043 1.428 . S
C1049 N1048 1.351 . S
C1049 C1050 1.434 . S
C1050 C1041 1.429 1_655 S
C1050 N1047 1.350 . S
C1050 C1049 1.434 . S
C1051 C1052 1.369 1_455 S
C1051 C1053 1.419 . S
C1051 H1055 0.930 1_455 S
C1052 C1051 1.369 1_655 S
C1052 C1061 1.429 1_655 S
C1053 C1051 1.419 . S
C1053 C1054 1.363 . S
C1053 H1056 0.929 . S
C1054 C1053 1.363 . S
C1054 C1060 1.428 . S
H1055 C1051 0.930 1_655 S
H1056 C1053 0.929 . S
S1057 N1058 1.613 . S
S1057 N1059 1.610 . S
N1058 S1057 1.613 . S
N1058 C1061 1.350 . S
N1059 S1057 1.610 . S
N1059 C1060 1.351 . S
C1060 C1054 1.428 . S
C1060 N1059 1.351 . S
C1060 C1061 1.434 . S
C1061 C1052 1.429 1_455 S
C1061 N1058 1.350 . S
C1061 C1060 1.434 . S
C1062 C1063 1.369 1_655 S
C1062 C1064 1.419 . S
C1062 H1066 0.930 . S
C1063 C1062 1.369 1_455 S
C1063 C1072 1.429 1_455 S
C1064 C1062 1.419 . S
C1064 C1065 1.363 . S
C1064 H1067 0.929 . S
C1065 C1064 1.363 . S
C1065 C1071 1.428 . S
H1066 C1062 0.930 . S
H1067 C1064 0.929 . S
S1068 N1069 1.613 . S
S1068 N1070 1.610 1_455 S
N1069 S1068 1.613 . S
N1069 C1072 1.350 1_455 S
N1070 S1068 1.610 1_655 S
N1070 C1071 1.351 . S
C1071 C1065 1.428 . S
C1071 N1070 1.351 . S
C1071 C1072 1.434 . S
C1072 C1063 1.429 1_655 S
C1072 N1069 1.350 1_655 S
C1072 C1071 1.434 . S
C1073 C1074 1.369 . S
C1073 C1075 1.419 . S
C1073 H1077 0.930 . S
C1074 C1073 1.369 . S
C1074 C1083 1.429 . S
C1075 C1073 1.419 . S
C1075 C1076 1.363 1_455 S
C1075 H1078 0.929 . S
C1076 C1075 1.363 1_655 S
C1076 C1082 1.428 1_655 S
H1077 C1073 0.930 . S
H1078 C1075 0.929 . S
S1079 N1080 1.613 1_565 S
S1079 N1081 1.610 1_465 S
N1080 S1079 1.613 1_545 S
N1080 C1083 1.350 . S
N1081 S1079 1.610 1_645 S
N1081 C1082 1.351 1_655 S
C1082 C1076 1.428 1_455 S
C1082 N1081 1.351 1_455 S
C1082 C1083 1.434 . S
C1083 C1074 1.429 . S
C1083 N1080 1.350 . S
C1083 C1082 1.434 . S
C1084 C1085 1.369 1_565 S
C1084 C1086 1.419 . S
C1084 H1088 0.930 . S
C1085 C1084 1.369 1_545 S
C1085 C1094 1.429 1_545 S
C1086 C1084 1.419 . S
C1086 C1087 1.363 . S
C1086 H1089 0.929 . S
C1087 C1086 1.363 . S
C1087 C1093 1.428 . S
H1088 C1084 0.930 . S
H1089 C1086 0.929 . S
S1090 N1091 1.625 . S
S1090 N1092 1.589 1_545 S
N1091 S1090 1.625 . S
N1091 C1094 1.350 1_545 S
N1092 S1090 1.589 1_565 S
N1092 C1093 1.351 . S
C1093 C1087 1.428 . S
C1093 N1092 1.351 . S
C1093 C1094 1.434 . S
C1094 C1085 1.429 1_565 S
C1094 N1091 1.350 1_565 S
C1094 C1093 1.434 . S
C1095 C1096 1.369 . S
C1095 C1097 1.419 . S
C1095 H1099 0.930 . S
C1096 C1095 1.369 . S
C1096 C1105 1.429 . S
C1097 C1095 1.419 . S
C1097 C1098 1.363 1_545 S
C1097 H1100 0.929 1_545 S
C1098 C1097 1.363 1_565 S
C1098 C1104 1.428 1_565 S
H1099 C1095 0.930 . S
H1100 C1097 0.929 1_565 S
S1101 N1102 1.613 . S
S1101 N1103 1.610 . S
N1102 S1101 1.613 . S
N1102 C1105 1.350 . S
N1103 S1101 1.610 . S
N1103 C1104 1.351 . S
C1104 C1098 1.428 1_545 S
C1104 N1103 1.351 . S
C1104 C1105 1.434 . S
C1105 C1096 1.429 . S
C1105 N1102 1.350 . S
C1105 C1104 1.434 . S
C1106 C1107 1.369 . S
C1106 C1108 1.419 . S
C1106 H1110 0.930 . S
C1107 C1106 1.369 . S
C1107 C1116 1.429 . S
C1108 C1106 1.419 . S
C1108 C1109 1.363 . S
C1108 H1111 0.929 . S
C1109 C1108 1.363 . S
C1109 C1115 1.428 . S
H1110 C1106 0.930 . S
H1111 C1108 0.929 . S
S1112 N1113 1.613 . S
S1112 N1114 1.610 . S
N1113 S1112 1.613 . S
N1113 C1116 1.350 . S
N1114 S1112 1.610 . S
N1114 C1115 1.351 . S
C1115 C1109 1.428 . S
C1115 N1114 1.351 . S
C1115 C1116 1.434 . S
C1116 C1107 1.429 . S
C1116 N1113 1.350 . S
C1116 C1115 1.434 . S
C1117 C1118 1.369 . S
C1117 C1119 1.419 . S
C1117 H1121 0.930 . S
C1118 C1117 1.369 . S
C1118 C1127 1.429 . S
C1119 C1117 1.419 . S
C1119 C1120 1.363 1_545 S
C1119 H1122 0.929 1_545 S
C1120 C1119 1.363 1_565 S
C1120 C1126 1.428 1_565 S
H1121 C1117 0.930 . S
H1122 C1119 0.929 1_565 S
S1123 N1124 1.613 1_455 S
S1123 N1125 1.610 1_455 S
N1124 S1123 1.613 1_655 S
N1124 C1127 1.350 . S
N1125 S1123 1.610 1_655 S
N1125 C1126 1.351 . S
C1126 C1120 1.428 1_545 S
C1126 N1125 1.351 . S
C1126 C1127 1.434 . S
C1127 C1118 1.429 . S
C1127 N1124 1.350 . S
C1127 C1126 1.434 . S
C1128 C1129 1.369 . S
C1128 C1130 1.419 . S
C1128 H1132 0.930 . S
C1129 C1128 1.369 . S
C1129 C1138 1.429 1_655 S
C1130 C1128 1.419 . S
C1130 C1131 1.363 1_655 S
C1130 H1133 0.929 . S
C1131 C1130 1.363 1_455 S
C1131 C1137 1.428 . S
H1132 C1128 0.930 . S
H1133 C1130 0.929 . S
S1134 N1135 1.613 . S
S1134 N1136 1.610 . S
N1135 S1134 1.613 . S
N1135 C1138 1.350 . S
N1136 S1134 1.610 . S
N1136 C1137 1.351 . S
C1137 C1131 1.428 . S
C1137 N1136 1.351 . S
C1137 C1138 1.434 . S
C1138 C1129 1.429 1_455 S
C1138 N1135 1.350 . S
C1138 C1137 1.434 . S
C1139 C1140 1.369 1_655 S
C1139 C1141 1.419 . S
C1139 H1143 0.930 . S
C1140 C1139 1.369 1_455 S
C1140 C1149 1.429 . S
C1141 C1139 1.419 . S
C1141 C1142 1.363 . S
C1141 H1144 0.929 . S
C1142 C1141 1.363 . S
C1142 C1148 1.428 1_655 S
H1143 C1139 0.930 . S
H1144 C1141 0.929 . S
S1145 N1146 1.613 . S
S1145 N1147 1.610 . S
N1146 S1145 1.613 . S
N1146 C1149 1.350 . S
N1147 S1145 1.610 . S
N1147 C1148 1.351 . S
C1148 C1142 1.428 1_455 S
C1148 N1147 1.351 . S
C1148 C1149 1.434 . S
C1149 C1140 1.429 . S
C1149 N1146 1.350 . S
C1149 C1148 1.434 . S
C1150 C1151 1.369 1_545 S
C1150 C1152 1.419 . S
C1150 H1154 0.930 . S
C1151 C1150 1.369 1_565 S
C1151 C1160 1.429 . S
C1152 C1150 1.419 . S
C1152 C1153 1.363 . S
C1152 H1155 0.929 . S
C1153 C1152 1.363 . S
C1153 C1159 1.428 1_545 S
H1154 C1150 0.930 . S
H1155 C1152 0.929 . S
S1156 N1157 1.613 . S
S1156 N1158 1.610 . S
N1157 S1156 1.613 . S
N1157 C1160 1.350 . S
N1158 S1156 1.610 . S
N1158 C1159 1.351 . S
C1159 C1153 1.428 1_565 S
C1159 N1158 1.351 . S
C1159 C1160 1.434 . S
C1160 C1151 1.429 . S
C1160 N1157 1.350 . S
C1160 C1159 1.434 . S
C1161 C1162 1.369 . S
C1161 C1163 1.419 . S
C1161 H1165 0.930 . S
C1162 C1161 1.369 . S
C1162 C1171 1.429 . S
C1163 C1161 1.419 . S
C1163 C1164 1.363 . S
C1163 H1166 0.929 . S
C1164 C1163 1.363 . S
C1164 C1170 1.428 . S
H1165 C1161 0.930 . S
H1166 C1163 0.929 . S
S1167 N1168 1.613 . S
S1167 N1169 1.610 . S
N1168 S1167 1.613 . S
N1168 C1171 1.350 . S
N1169 S1167 1.610 . S
N1169 C1170 1.351 . S
C1170 C1164 1.428 . S
C1170 N1169 1.351 . S
C1170 C1171 1.434 . S
C1171 C1162 1.429 . S
C1171 N1168 1.350 . S
C1171 C1170 1.434 . S
C1172 C1173 1.369 . S
C1172 C1174 1.419 . S
C1172 H1176 0.930 . S
C1173 C1172 1.369 . S
C1173 C1182 1.429 1_554 S
C1174 C1172 1.419 . S
C1174 C1175 1.363 1_554 S
C1174 H1177 0.929 . S
C1175 C1174 1.363 1_556 S
C1175 C1181 1.428 . S
H1176 C1172 0.930 . S
H1177 C1174 0.929 . S
S1178 N1179 1.613 . S
S1178 N1180 1.610 . S
N1179 S1178 1.613 . S
N1179 C1182 1.350 . S
N1180 S1178 1.610 . S
N1180 C1181 1.351 . S
C1181 C1175 1.428 . S
C1181 N1180 1.351 . S
C1181 C1182 1.434 . S
C1182 C1173 1.429 1_556 S
C1182 N1179 1.350 . S
C1182 C1181 1.434 . S
C1183 C1184 1.369 . S
C1183 C1185 1.419 . S
C1183 H1187 0.930 . S
C1184 C1183 1.369 . S
C1184 C1193 1.429 . S
C1185 C1183 1.419 . S
C1185 C1186 1.363 . S
C1185 H1188 0.929 . S
C1186 C1185 1.363 . S
C1186 C1192 1.428 . S
H1187 C1183 0.930 . S
H1188 C1185 0.929 . S
S1189 N1190 1.613 . S
S1189 N1191 1.610 . S
N1190 S1189 1.613 . S
N1190 C1193 1.350 . S
N1191 S1189 1.610 . S
N1191 C1192 1.351 . S
C1192 C1186 1.428 . S
C1192 N1191 1.351 . S
C1192 C1193 1.434 . S
C1193 C1184 1.429 . S
C1193 N1190 1.350 . S
C1193 C1192 1.434 . S
C1194 C1195 1.369 . S
C1194 C1196 1.419 . S
C1194 H1198 0.930 . S
C1195 C1194 1.369 . S
C1195 C1204 1.429 . S
C1196 C1194 1.419 . S
C1196 C1197 1.363 . S
C1196 H1199 0.929 . S
C1197 C1196 1.363 . S
C1197 C1203 1.428 . S
H1198 C1194 0.930 . S
H1199 C1196 0.929 . S
S1200 N1201 1.613 . S
S1200 N1202 1.610 . S
N1201 S1200 1.613 . S
N1201 C1204 1.350 . S
N1202 S1200 1.610 . S
N1202 C1203 1.351 . S
C1203 C1197 1.428 . S
C1203 N1202 1.351 . S
C1203 C1204 1.434 . S
C1204 C1195 1.429 . S
C1204 N1201 1.350 . S
C1204 C1203 1.434 . S
C1205 C1206 1.369 . S
C1205 C1207 1.419 . S
C1205 H1209 0.930 . S
C1206 C1205 1.369 . S
C1206 C1215 1.429 . S
C1207 C1205 1.419 . S
C1207 C1208 1.363 . S
C1207 H1210 0.929 . S
C1208 C1207 1.363 . S
C1208 C1214 1.428 . S
H1209 C1205 0.930 . S
H1210 C1207 0.929 . S
S1211 N1212 1.613 . S
S1211 N1213 1.610 . S
N1212 S1211 1.613 . S
N1212 C1215 1.350 . S
N1213 S1211 1.610 . S
N1213 C1214 1.351 . S
C1214 C1208 1.428 . S
C1214 N1213 1.351 . S
C1214 C1215 1.434 . S
C1215 C1206 1.429 . S
C1215 N1212 1.350 . S
C1215 C1214 1.434 . S
C1216 C1217 1.369 . S
C1216 C1218 1.419 . S
C1216 H1220 0.930 . S
C1217 C1216 1.369 . S
C1217 C1226 1.429 . S
C1218 C1216 1.419 . S
C1218 C1219 1.363 . S
C1218 H1221 0.929 . S
C1219 C1218 1.363 . S
C1219 C1225 1.428 . S
H1220 C1216 0.930 . S
H1221 C1218 0.929 . S
S1222 N1223 1.613 . S
S1222 N1224 1.610 . S
N1223 S1222 1.613 . S
N1223 C1226 1.350 . S
N1224 S1222 1.610 . S
N1224 C1225 1.351 . S
C1225 C1219 1.428 . S
C1225 N1224 1.351 . S
C1225 C1226 1.434 . S
C1226 C1217 1.429 . S
C1226 N1223 1.350 . S
C1226 C1225 1.434 . S
C1227 C1228 1.369 . S
C1227 C1229 1.419 . S
C1227 H1231 0.930 . S
C1228 C1227 1.369 . S
C1228 C1237 1.429 . S
C1229 C1227 1.419 . S
C1229 C1230 1.363 . S
C1229 H1232 0.929 . S
C1230 C1229 1.363 . S
C1230 C1236 1.428 . S
H1231 C1227 0.930 . S
H1232 C1229 0.929 . S
S1233 N1234 1.613 . S
S1233 N1235 1.610 . S
N1234 S1233 1.613 . S
N1234 C1237 1.350 . S
N1235 S1233 1.610 . S
N1235 C1236 1.351 . S
C1236 C1230 1.428 . S
C1236 N1235 1.351 . S
C1236 C1237 1.434 . S
C1237 C1228 1.429 . S
C1237 N1234 1.350 . S
C1237 C1236 1.434 . S
C1238 C1239 1.369 1_565 S
C1238 C1240 1.419 . S
C1238 H1242 0.930 . S
C1239 C1238 1.369 1_545 S
C1239 C1248 1.429 . S
C1240 C1238 1.419 . S
C1240 C1241 1.363 . S
C1240 H1243 0.929 . S
C1241 C1240 1.363 . S
C1241 C1247 1.428 1_565 S
H1242 C1238 0.930 . S
H1243 C1240 0.929 . S
S1244 N1245 1.613 . S
S1244 N1246 1.610 . S
N1245 S1244 1.613 . S
N1245 C1248 1.350 . S
N1246 S1244 1.610 . S
N1246 C1247 1.351 . S
C1247 C1241 1.428 1_545 S
C1247 N1246 1.351 . S
C1247 C1248 1.434 . S
C1248 C1239 1.429 . S
C1248 N1245 1.350 . S
C1248 C1247 1.434 . S
C1249 C1250 1.369 1_554 S
C1249 C1251 1.419 . S
C1249 H1253 0.930 . S
C1250 C1249 1.369 1_556 S
C1250 C1259 1.429 . S
C1251 C1249 1.419 . S
C1251 C1252 1.363 . S
C1251 H1254 0.929 . S
C1252 C1251 1.363 . S
C1252 C1258 1.428 1_554 S
H1253 C1249 0.930 . S
H1254 C1251 0.929 . S
S1255 N1256 1.613 . S
S1255 N1257 1.610 . S
N1256 S1255 1.613 . S
N1256 C1259 1.350 . S
N1257 S1255 1.610 . S
N1257 C1258 1.351 . S
C1258 C1252 1.428 1_556 S
C1258 N1257 1.351 . S
C1258 C1259 1.434 . S
C1259 C1250 1.429 . S
C1259 N1256 1.350 . S
C1259 C1258 1.434 . S
C1260 C1261 1.369 . S
C1260 C1262 1.419 1_565 S
C1260 H1264 0.930 . S
C1261 C1260 1.369 . S
C1261 C1270 1.429 1_455 S
C1262 C1260 1.419 1_545 S
C1262 C1263 1.363 . S
C1262 H1265 0.929 . S
C1263 C1262 1.363 . S
C1263 C1269 1.428 1_455 S
H1264 C1260 0.930 . S
H1265 C1262 0.929 . S
S1266 N1267 1.613 1_545 S
S1266 N1268 1.610 . S
N1267 S1266 1.613 1_565 S
N1267 C1270 1.350 . S
N1268 S1266 1.610 . S
N1268 C1269 1.351 . S
C1269 C1263 1.428 1_655 S
C1269 N1268 1.351 . S
C1269 C1270 1.434 1_545 S
C1270 C1261 1.429 1_655 S
C1270 N1267 1.350 . S
C1270 C1269 1.434 1_565 S
C1271 C1272 1.369 . S
C1271 C1273 1.419 . S
C1271 H1275 0.930 . S
C1272 C1271 1.369 . S
C1272 C1281 1.423 1_655 S
C1273 C1271 1.419 . S
C1273 C1274 1.363 . S
C1273 H1276 0.929 . S
C1274 C1273 1.363 . S
C1274 C1280 1.429 1_655 S
H1275 C1271 0.930 . S
H1276 C1273 0.929 . S
S1277 N1278 1.613 . S
S1277 N1279 1.610 . S
N1278 S1277 1.613 . S
N1278 C1281 1.355 . S
N1279 S1277 1.610 . S
N1279 C1280 1.350 . S
C1280 C1274 1.429 1_455 S
C1280 N1279 1.350 . S
C1280 C1281 1.434 . S
C1281 C1272 1.423 1_455 S
C1281 N1278 1.355 . S
C1281 C1280 1.434 . S
C1282 C1283 1.369 . S
C1282 C1284 1.419 . S
C1282 H1286 0.930 . S
C1283 C1282 1.369 . S
C1283 C1292 1.433 . S
C1284 C1282 1.419 . S
C1284 C1285 1.363 1_556 S
C1284 H1287 0.929 . S
C1285 C1284 1.363 1_554 S
C1285 C1291 1.428 . S
H1286 C1282 0.930 . S
H1287 C1284 0.929 . S
S1288 N1289 1.613 . S
S1288 N1290 1.610 . S
N1289 S1288 1.613 . S
N1289 C1292 1.349 1_554 S
N1290 S1288 1.610 . S
N1290 C1291 1.351 . S
C1291 C1285 1.428 . S
C1291 N1290 1.351 . S
C1291 C1292 1.430 1_554 S
C1292 C1283 1.433 . S
C1292 N1289 1.349 1_556 S
C1292 C1291 1.430 1_556 S
C1293 C1294 1.369 1_556 S
C1293 C1295 1.419 . S
C1293 H1297 0.930 . S
C1294 C1293 1.369 1_554 S
C1294 C1303 1.429 . S
C1295 C1293 1.419 . S
C1295 C1296 1.363 . S
C1295 H1298 0.929 . S
C1296 C1295 1.363 . S
C1296 C1302 1.439 . S
H1297 C1293 0.930 . S
H1298 C1295 0.929 . S
S1299 N1300 1.613 . S
S1299 N1301 1.610 . S
N1300 S1299 1.613 . S
N1300 C1303 1.350 . S
N1301 S1299 1.610 . S
N1301 C1302 1.349 1_554 S
C1302 C1296 1.439 . S
C1302 N1301 1.349 1_556 S
C1302 C1303 1.424 1_556 S
C1303 C1294 1.429 . S
C1303 N1300 1.350 . S
C1303 C1302 1.424 1_554 S
C1304 C1305 1.369 . S
C1304 C1306 1.419 . S
C1304 H1308 0.930 1_565 S
C1305 C1304 1.369 . S
C1305 C1314 1.429 . S
C1306 C1304 1.419 . S
C1306 C1307 1.363 . S
C1306 H1309 0.929 1_565 S
C1307 C1306 1.363 . S
C1307 C1313 1.428 . S
H1308 C1304 0.930 1_545 S
H1309 C1306 0.929 1_545 S
S1310 N1311 1.613 . S
S1310 N1312 1.610 . S
N1311 S1310 1.613 . S
N1311 C1314 1.350 . S
N1312 S1310 1.610 . S
N1312 C1313 1.351 . S
C1313 C1307 1.428 . S
C1313 N1312 1.351 . S
C1313 C1314 1.434 . S
C1314 C1305 1.429 . S
C1314 N1311 1.350 . S
C1314 C1313 1.434 . S
C1315 C1316 1.369 . S
C1315 C1317 1.419 . S
C1315 H1319 0.930 . S
C1316 C1315 1.369 . S
C1316 C1325 1.429 . S
C1317 C1315 1.419 . S
C1317 C1318 1.363 . S
C1317 H1320 0.929 . S
C1318 C1317 1.363 . S
C1318 C1324 1.428 . S
H1319 C1315 0.930 . S
H1320 C1317 0.929 . S
S1321 N1322 1.613 . S
S1321 N1323 1.610 . S
N1322 S1321 1.613 . S
N1322 C1325 1.350 . S
N1323 S1321 1.610 . S
N1323 C1324 1.351 . S
C1324 C1318 1.428 . S
C1324 N1323 1.351 . S
C1324 C1325 1.434 . S
C1325 C1316 1.429 . S
C1325 N1322 1.350 . S
C1325 C1324 1.434 . S
C1326 C1327 1.369 1_556 S
C1326 C1328 1.419 1_455 S
C1326 H1330 0.930 . S
C1327 C1326 1.369 1_554 S
C1327 C1336 1.429 . S
C1328 C1326 1.419 1_655 S
C1328 C1329 1.363 1_556 S
C1328 H1331 0.929 . S
C1329 C1328 1.363 1_554 S
C1329 C1335 1.428 . S
H1330 C1326 0.930 . S
H1331 C1328 0.929 . S
S1332 N1333 1.613 1_655 S
S1332 N1334 1.610 . S
N1333 S1332 1.613 1_455 S
N1333 C1336 1.350 . S
N1334 S1332 1.610 . S
N1334 C1335 1.351 . S
C1335 C1329 1.428 . S
C1335 N1334 1.351 . S
C1335 C1336 1.434 1_655 S
C1336 C1327 1.429 . S
C1336 N1333 1.350 . S
C1336 C1335 1.434 1_455 S
C1337 C1338 1.369 . S
C1337 C1339 1.419 1_455 S
C1337 H1341 0.930 . S
C1338 C1337 1.369 . S
C1338 C1347 1.429 1_455 S
C1339 C1337 1.419 1_655 S
C1339 C1340 1.363 . S
C1339 H1342 0.929 . S
C1340 C1339 1.363 . S
C1340 C1346 1.428 . S
H1341 C1337 0.930 . S
H1342 C1339 0.929 . S
S1343 N1344 1.613 . S
S1343 N1345 1.610 . S
N1344 S1343 1.613 . S
N1344 C1347 1.350 . S
N1345 S1343 1.610 . S
N1345 C1346 1.351 . S
C1346 C1340 1.428 . S
C1346 N1345 1.351 . S
C1346 C1347 1.434 . S
C1347 C1338 1.429 1_655 S
C1347 N1344 1.350 . S
C1347 C1346 1.434 . S
C1348 C1349 1.369 . S
C1348 C1350 1.419 . S
C1348 H1352 0.930 . S
C1349 C1348 1.369 . S
C1349 C1358 1.429 . S
C1350 C1348 1.419 . S
C1350 C1351 1.363 . S
C1350 H1353 0.929 . S
C1351 C1350 1.363 . S
C1351 C1357 1.428 . S
H1352 C1348 0.930 . S
H1353 C1350 0.929 . S
S1354 N1355 1.613 . S
S1354 N1356 1.610 . S
N1355 S1354 1.613 . S
N1355 C1358 1.350 . S
N1356 S1354 1.610 . S
N1356 C1357 1.351 . S
C1357 C1351 1.428 . S
C1357 N1356 1.351 . S
C1357 C1358 1.434 . S
C1358 C1349 1.429 . S
C1358 N1355 1.350 . S
C1358 C1357 1.434 . S
C1359 C1360 1.369 . S
C1359 C1361 1.419 . S
C1359 H1363 0.930 . S
C1360 C1359 1.369 . S
C1360 C1369 1.429 . S
C1361 C1359 1.419 . S
C1361 C1362 1.363 . S
C1361 H1364 0.929 . S
C1362 C1361 1.363 . S
C1362 C1368 1.428 . S
H1363 C1359 0.930 . S
H1364 C1361 0.929 . S
S1365 N1366 1.613 . S
S1365 N1367 1.610 . S
N1366 S1365 1.613 . S
N1366 C1369 1.350 . S
N1367 S1365 1.610 . S
N1367 C1368 1.351 . S
C1368 C1362 1.428 . S
C1368 N1367 1.351 . S
C1368 C1369 1.434 . S
C1369 C1360 1.429 . S
C1369 N1366 1.350 . S
C1369 C1368 1.434 . S
C1370 C1371 1.369 . S
C1370 C1372 1.419 1_565 S
C1370 H1374 0.932 . S
C1371 C1370 1.369 . S
C1371 C1380 1.429 . S
C1372 C1370 1.419 1_545 S
C1372 C1373 1.363 . S
C1372 H1375 0.929 . S
C1373 C1372 1.363 . S
C1373 C1379 1.428 1_545 S
H1374 C1370 0.932 . S
H1375 C1372 0.929 . S
S1376 N1377 1.613 . S
S1376 N1378 1.610 . S
N1377 S1376 1.613 . S
N1377 C1380 1.350 . S
N1378 S1376 1.610 . S
N1378 C1379 1.351 . S
C1379 C1373 1.428 1_565 S
C1379 N1378 1.351 . S
C1379 C1380 1.434 . S
C1380 C1371 1.429 . S
C1380 N1377 1.350 . S
C1380 C1379 1.434 . S
C1381 C1382 1.369 . S
C1381 C1383 1.419 . S
C1381 H1385 0.930 . S
C1382 C1381 1.369 . S
C1382 C1391 1.429 . S
C1383 C1381 1.419 . S
C1383 C1384 1.363 . S
C1383 H1386 0.929 . S
C1384 C1383 1.363 . S
C1384 C1390 1.428 . S
H1385 C1381 0.930 . S
H1386 C1383 0.929 . S
S1387 N1388 1.614 . S
S1387 N1389 1.610 1_554 S
N1388 S1387 1.614 . S
N1388 C1391 1.348 1_554 S
N1389 S1387 1.610 1_556 S
N1389 C1390 1.351 . S
C1390 C1384 1.428 . S
C1390 N1389 1.351 . S
C1390 C1391 1.434 . S
C1391 C1382 1.429 . S
C1391 N1388 1.348 1_556 S
C1391 C1390 1.434 . S
C865 C615 0.883 . S
C867 C2 0.859 . S
C876 C38 1.015 . S
C878 C579 0.985 . S
C887 C74 0.982 . S
C889 C687 1.014 . S
C898 C110 1.126 . S
C900 C651 1.113 . S
C909 C146 0.877 . S
C911 C759 0.877 . S
C920 C182 0.953 . S
C922 C795 0.970 . S
C931 C723 1.000 . S
C933 C218 1.012 . S
C942 C399 1.052 . S
C944 C254 1.096 . S
C953 C290 0.859 . S
C955 C111 0.882 . S
C964 C39 0.964 . S
C966 C326 0.967 . S
C975 C362 1.097 . S
C977 C3 1.100 . S
C986 C398 1.086 . S
C988 C507 1.069 . S
C997 C183 1.173 . S
C999 C434 1.216 . S
C1008 C147 1.093 . S
C1010 C470 1.093 . S
C1019 C506 1.098 . S
C1021 C255 1.061 . S
C1030 C542 0.967 . S
C1032 C219 0.965 . S
C1041 C327 1.181 . S
C1043 C578 1.220 . S
C1052 C363 1.104 . S
C1054 C614 1.134 . S
C1063 C291 1.100 . S
C1065 C650 1.086 . S
C1074 C686 0.982 . S
C1076 C831 1.014 . S
C1085 C543 1.182 . S
C1087 C722 1.211 . S
C1096 C758 1.136 . S
C1098 C471 1.107 . S
C1107 C435 0.987 . S
C1109 C794 1.008 . S
C1118 C830 0.993 . S
C1120 C75 1.005 . S
C1129 C4 1.677 . S
C1131 C40 1.662 . S
C1140 C112 1.598 . S
C1142 C76 1.607 . S
C1151 C148 1.679 . S
C1153 C220 1.662 . S
C1162 C184 1.862 . S
C1164 C256 1.834 . S
C1173 C796 1.660 . S
C1175 C292 1.679 . S
C1184 C328 1.859 . S
C1186 C400 1.836 . S
C1195 C724 1.796 . S
C1197 C364 1.805 . S
C1206 C472 1.807 . S
C1208 C436 1.792 . S
C1217 C508 1.840 . S
C1219 C544 1.856 . S
C1228 C652 1.804 . S
C1230 C580 1.795 . S
C1239 C616 1.599 . S
C1241 C688 1.606 . S
C1250 C832 1.611 . S
C1252 C760 1.592 . S
C1261 C86 1.397 . S
C1263 C14 1.395 . S
C1272 C50 1.579 . S
C1274 C122 1.589 . S
C1283 C698 1.395 . S
C1285 C158 1.394 . S
C1294 C194 1.505 . S
C1296 C662 1.509 . S
C1305 C230 1.578 . S
C1307 C626 1.588 . S
C1316 C590 1.700 . S
C1318 C266 1.690 . S
C1327 C302 1.389 . S
C1329 C842 1.398 . S
C1338 C338 1.499 . S
C1340 C374 1.511 . S
C1349 C734 1.697 . S
C1351 C410 1.688 . S
C1360 C446 1.695 . S
C1362 C518 1.692 . S
C1371 C482 1.515 . S
C1373 C554 1.503 . S
C1382 C806 1.585 . S
C1384 C770 1.585 . S
