# Generated by pormake.
# Topology wjd, (6)-cn, num edge types: 1
# Building blocks:
#     Node 0, Type 0, BuildingBlock: VOLQOD_clean_sbu_1, # of connection points: 6
#     Node 1, Type 0, BuildingBlock: VOLQOD_clean_sbu_1, # of connection points: 6
#     Node 2, Type 0, BuildingBlock: VOLQOD_clean_sbu_1, # of connection points: 6
#     Node 3, Type 0, BuildingBlock: VOLQOD_clean_sbu_1, # of connection points: 6
#     Node 4, Type 0, BuildingBlock: VOLQOD_clean_sbu_1, # of connection points: 6
#     Node 5, Type 0, BuildingBlock: VOLQOD_clean_sbu_1, # of connection points: 6
#     Node 6, Type 0, BuildingBlock: VOLQOD_clean_sbu_1, # of connection points: 6
#     Node 7, Type 0, BuildingBlock: VOLQOD_clean_sbu_1, # of connection points: 6
#     Node 8, Type 0, BuildingBlock: VOLQOD_clean_sbu_1, # of connection points: 6
#     Node 9, Type 0, BuildingBlock: VOLQOD_clean_sbu_1, # of connection points: 6
#     Node 10, Type 0, BuildingBlock: VOLQOD_clean_sbu_1, # of connection points: 6
#     Node 11, Type 0, BuildingBlock: VOLQOD_clean_sbu_1, # of connection points: 6
#     Edge 12, Type (0, 0), None
#     Edge 13, Type (0, 0), None
#     Edge 14, Type (0, 0), None
#     Edge 15, Type (0, 0), None
#     Edge 16, Type (0, 0), None
#     Edge 17, Type (0, 0), None
#     Edge 18, Type (0, 0), None
#     Edge 19, Type (0, 0), None
#     Edge 20, Type (0, 0), None
#     Edge 21, Type (0, 0), None
#     Edge 22, Type (0, 0), None
#     Edge 23, Type (0, 0), None
#     Edge 24, Type (0, 0), None
#     Edge 25, Type (0, 0), None
#     Edge 26, Type (0, 0), None
#     Edge 27, Type (0, 0), None
#     Edge 28, Type (0, 0), None
#     Edge 29, Type (0, 0), None
#     Edge 30, Type (0, 0), None
#     Edge 31, Type (0, 0), None
#     Edge 32, Type (0, 0), None
#     Edge 33, Type (0, 0), None
#     Edge 34, Type (0, 0), None
#     Edge 35, Type (0, 0), None
#     Edge 36, Type (0, 0), None
#     Edge 37, Type (0, 0), None
#     Edge 38, Type (0, 0), None
#     Edge 39, Type (0, 0), None
#     Edge 40, Type (0, 0), None
#     Edge 41, Type (0, 0), None
#     Edge 42, Type (0, 0), None
#     Edge 43, Type (0, 0), None
#     Edge 44, Type (0, 0), None
#     Edge 45, Type (0, 0), None
#     Edge 46, Type (0, 0), None
#     Edge 47, Type (0, 0), None
# Relax obj value: 0.311
# Max RMSD: 0.232
# Mean RMSD: 0.231
data_MOF--net-wjd--node1-VOLQOD_clean_sbu_1--edge1-none
_symmetry_space_group_name_H-M    P1
_symmetry_Int_Tables_number       1
_symmetry_cell_setting            triclinic
loop_
_symmetry_equiv_pos_as_xyz
'x, y, z'
_cell_length_a     16.517815
_cell_length_b     16.517945
_cell_length_c     33.107757
_cell_angle_alpha  90.00057
_cell_angle_beta   89.99935
_cell_angle_gamma 120.00202
loop_
_atom_site_label
_atom_site_type_symbol
_atom_site_fract_x
_atom_site_fract_y
_atom_site_fract_z
_atom_type_partial_charge
O0 O 0.39593 0.29613 0.07368 0.0
Zn1 Zn 0.27386 0.16325 0.074 0.0
O2 O 0.28506 0.08872 0.11718 0.0
Zn3 Zn 0.28083 -0.02545 0.09923 0.0
Zn4 Zn 0.39342 0.16351 0.14663 0.0
Zn5 Zn 0.19502 0.06002 0.15715 0.0
O6 O 0.16175 0.85991 0.12075 0.0
O7 O 0.0925 0.9382 0.14277 0.0
O8 O 0.23563 0.07626 0.02134 0.0
O9 O 0.24103 0.95101 0.04272 0.0
O10 O 0.41685 -0.00571 0.10015 0.0
O11 O 0.48968 0.14094 0.12322 0.0
O12 O 0.38635 0.14285 0.20714 0.0
O13 O 0.17239 0.19432 0.09099 0.0
O14 O 0.23349 0.05415 0.21356 0.0
O15 O 0.1514 0.15116 0.15547 0.0
C16 C 0.437 0.33917 0.10637 0.0
C17 C 0.08849 0.86353 0.13052 0.0
C18 C 0.49207 0.07235 0.10691 0.0
C19 C 0.22144 -0.00741 0.01577 0.0
C20 C 0.31464 0.09451 0.22885 0.0
C21 C 0.14049 0.19446 0.12621 0.0
O22 O 0.42736 0.29419 0.13873 0.0
O23 O 0.85599 0.51616 0.36464 0.0
Zn24 Zn 0.84159 0.62059 0.34441 0.0
O25 O 0.75939 0.63516 0.38051 0.0
Zn26 Zn 0.65094 0.62692 0.35441 0.0
Zn27 Zn 0.72829 0.56212 0.4286 0.0
Zn28 Zn 0.82622 0.75989 0.39637 0.0
O29 O 0.64803 0.74781 0.3665 0.0
O30 O 0.79961 0.82826 0.35521 0.0
O31 O 0.78743 0.59703 0.28847 0.0
O32 O 0.66564 0.62004 0.29375 0.0
O33 O 0.53839 0.50552 0.37355 0.0
O34 O 0.59657 0.45883 0.42332 0.0
O35 O 0.72546 0.63963 0.47696 0.0
O36 O -0.02899 0.73493 0.34229 0.0
O37 O 0.77786 0.77951 0.44883 0.0
O38 O -0.03693 0.80971 0.39632 0.0
C39 C 0.84409 0.47719 0.39899 0.0
C40 C 0.72207 0.82546 0.35917 0.0
C41 C 0.52915 0.44615 0.40065 0.0
C42 C 0.72034 0.60327 0.27273 0.0
C43 C 0.73977 0.72333 0.4781 0.0
C44 C 0.01017 0.79953 0.36841 0.0
O45 O 0.8048 0.49468 0.4286 0.0
O46 O 0.62892 0.08475 0.0737 0.0
Zn47 Zn 0.76182 0.09562 0.07401 0.0
O48 O 0.83635 0.18137 0.11719 0.0
Zn49 Zn 0.95053 0.2913 0.09924 0.0
Zn50 Zn 0.76158 0.21497 0.14664 0.0
Zn51 Zn 0.865 0.12001 0.15718 0.0
O52 O 0.06517 0.28683 0.12074 0.0
O53 O -0.01316 0.13933 0.14283 0.0
O54 O 0.8488 0.14439 0.02135 0.0
O55 O -0.02595 0.27504 0.04273 0.0
O56 O 0.93082 0.40759 0.10016 0.0
O57 O 0.78415 0.33379 0.12321 0.0
O58 O 0.78223 0.2286 0.20715 0.0
O59 O 0.7308 0.9631 0.09099 0.0
O60 O 0.87081 0.16431 0.21359 0.0
O61 O 0.77389 -0.01476 0.15548 0.0
C62 C 0.58591 0.0828 0.1064 0.0
C63 C 0.06151 0.20995 0.13055 0.0
C64 C 0.85276 0.40476 0.1069 0.0
C65 C 0.93248 0.21388 0.01577 0.0
C66 C 0.8305 0.20515 0.22887 0.0
C67 C 0.73064 0.93104 0.12621 0.0
O68 O 0.63091 0.11824 0.13874 0.0
O69 O 0.40876 0.32483 0.36463 0.0
Zn70 Zn 0.30435 0.20599 0.3444 0.0
O71 O 0.28983 0.10924 0.38051 0.0
Zn72 Zn 0.29805 0.00902 0.35441 0.0
Zn73 Zn 0.36285 0.15119 0.4286 0.0
Zn74 Zn 0.1651 0.05133 0.39636 0.0
O75 O 0.17713 0.88522 0.36648 0.0
O76 O 0.09675 0.95644 0.35518 0.0
O77 O 0.32792 0.1754 0.28847 0.0
O78 O 0.30498 0.03061 0.29375 0.0
O79 O 0.41943 0.01785 0.37356 0.0
O80 O 0.46613 0.12275 0.42333 0.0
O81 O 0.28532 0.07085 0.47696 0.0
O82 O 0.18998 0.22102 0.34229 0.0
O83 O 0.14548 -0.0167 0.44881 0.0
O84 O 0.11531 0.13839 0.39635 0.0
C85 C 0.44773 0.3519 0.39898 0.0
C86 C 0.09953 0.88169 0.35911 0.0
C87 C 0.47879 0.06798 0.40066 0.0
C88 C 0.32176 0.10209 0.27274 0.0
C89 C 0.20165 0.00142 0.47808 0.0
C90 C 0.12543 0.19562 0.36844 0.0
O91 O 0.43029 0.29513 0.42859 0.0
O92 O 0.8403 0.52916 0.07368 0.0
Zn93 Zn 0.82947 0.65121 0.07399 0.0
O94 O 0.74375 0.64001 0.11718 0.0
Zn95 Zn 0.63381 0.64425 0.09924 0.0
Zn96 Zn 0.71018 0.53165 0.14663 0.0
Zn97 Zn 0.80512 0.73003 0.15716 0.0
O98 O 0.63829 0.76334 0.12076 0.0
O99 O 0.78584 0.83256 0.14279 0.0
O100 O 0.78068 0.68941 0.02133 0.0
O101 O 0.65005 0.68404 0.04273 0.0
O102 O 0.51754 0.50822 0.10017 0.0
O103 O 0.59139 0.43537 0.12318 0.0
O104 O 0.6965 0.53867 0.20713 0.0
O105 O -0.038 0.7527 0.09096 0.0
O106 O 0.76075 0.69155 0.21356 0.0
O107 O 0.93988 0.77359 0.15547 0.0
C108 C 0.84235 0.48818 0.10639 0.0
C109 C 0.71519 0.83658 0.13054 0.0
C110 C 0.52042 0.43301 0.10688 0.0
C111 C 0.7112 0.70361 0.01577 0.0
C112 C 0.71989 0.61039 0.22884 0.0
C113 C -0.00595 0.7845 0.1262 0.0
O114 O 0.80699 0.4978 0.13875 0.0
O115 O 0.60012 0.06894 0.36464 0.0
Zn116 Zn 0.71897 0.08337 0.34441 0.0
O117 O 0.81571 0.16557 0.38053 0.0
Zn118 Zn 0.91595 0.27403 0.35444 0.0
Zn119 Zn 0.77375 0.19666 0.42862 0.0
Zn120 Zn 0.87356 0.09871 0.3964 0.0
O121 O 0.03972 0.27687 0.3665 0.0
O122 O -0.0315 0.12524 0.35524 0.0
O123 O 0.74958 0.13755 0.28848 0.0
O124 O 0.89437 0.25938 0.29378 0.0
O125 O 0.90712 0.38659 0.37359 0.0
O126 O 0.80218 0.32838 0.42334 0.0
O127 O 0.85406 0.19948 0.47699 0.0
O128 O 0.7039 0.95395 0.34229 0.0
O129 O 0.94156 0.14711 0.44885 0.0
O130 O 0.78645 0.96186 0.39638 0.0
C131 C 0.57304 0.08082 0.39899 0.0
C132 C 0.04325 0.20279 0.35916 0.0
C133 C 0.85698 0.39581 0.40068 0.0
C134 C 0.82289 0.2047 0.27276 0.0
C135 C 0.92346 0.18519 0.47812 0.0
C136 C 0.72921 0.91478 0.36847 0.0
O137 O 0.62981 0.12015 0.4286 0.0
O138 O 0.30981 0.42381 0.62671 0.0
Zn139 Zn 0.19098 0.31937 0.64694 0.0
O140 O 0.09422 0.30484 0.61084 0.0
Zn141 Zn -0.006 0.31307 0.63694 0.0
Zn142 Zn 0.13616 0.37786 0.56275 0.0
Zn143 Zn 0.03628 0.18011 0.59499 0.0
O144 O 0.8702 0.19217 0.62486 0.0
O145 O 0.94136 0.11177 0.63617 0.0
O146 O 0.16038 0.34291 0.70288 0.0
O147 O 0.01559 0.31995 0.6976 0.0
O148 O 0.00286 0.43446 0.6178 0.0
O149 O 0.10772 0.48114 0.56802 0.0
O150 O 0.05582 0.30034 0.51439 0.0
O151 O 0.20604 0.20502 0.64904 0.0
O152 O -0.03173 0.16049 0.54254 0.0
O153 O 0.1233 0.13028 0.59501 0.0
C154 C 0.33688 0.4628 0.59236 0.0
C155 C 0.86661 0.11454 0.6322 0.0
C156 C 0.05298 0.49382 0.5907 0.0
C157 C 0.08706 0.3367 0.71862 0.0
C158 C -0.0136 0.21666 0.51326 0.0
C159 C 0.18059 0.14043 0.62291 0.0
O160 O 0.2801 0.44531 0.56275 0.0
O161 O 0.06982 0.64393 0.91764 0.0
Zn162 Zn 0.08065 0.77682 0.91733 0.0
O163 O 0.1664 0.85136 0.87415 0.0
Zn164 Zn 0.27634 0.96554 0.8921 0.0
Zn165 Zn 0.19998 0.77658 0.84469 0.0
Zn166 Zn 0.10506 0.88006 0.83417 0.0
O167 O 0.27191 0.08019 0.87059 0.0
O168 O 0.12438 0.00189 0.84855 0.0
O169 O 0.12941 0.8638 0.96999 0.0
O170 O 0.26006 -0.01094 0.94861 0.0
O171 O 0.39263 0.94582 0.89119 0.0
O172 O 0.31883 0.79919 0.8681 0.0
O173 O 0.21355 0.79722 0.78419 0.0
O174 O 0.94812 0.74578 0.90034 0.0
O175 O 0.14939 0.88591 0.77776 0.0
O176 O -0.02971 0.78895 0.83586 0.0
C177 C 0.06789 0.6009 0.88496 0.0
C178 C 0.19502 0.07656 0.86081 0.0
C179 C 0.38979 0.86777 0.88442 0.0
C180 C 0.19889 0.94749 0.97556 0.0
C181 C 0.19016 0.84554 0.76247 0.0
C182 C 0.91608 0.74566 0.86512 0.0
O183 O 0.10329 0.6459 0.8526 0.0
O184 O 0.50113 0.871 0.6267 0.0
Zn185 Zn 0.60557 0.85661 0.64693 0.0
O186 O 0.62014 0.77442 0.61082 0.0
Zn187 Zn 0.6119 0.66596 0.63692 0.0
Zn188 Zn 0.5471 0.74332 0.56273 0.0
Zn189 Zn 0.74488 0.84125 0.59496 0.0
O190 O 0.7328 0.66307 0.62483 0.0
O191 O 0.81326 0.81466 0.63611 0.0
O192 O 0.58203 0.80245 0.70287 0.0
O193 O 0.60502 0.68065 0.69758 0.0
O194 O 0.4905 0.55341 0.61778 0.0
O195 O 0.44381 0.6116 0.56801 0.0
O196 O 0.62461 0.74049 0.51437 0.0
O197 O 0.7199 -0.01396 0.64905 0.0
O198 O 0.76449 0.79289 0.5425 0.0
O199 O 0.79466 -0.0219 0.595 0.0
C200 C 0.46217 0.85911 0.59235 0.0
C201 C 0.81045 0.73711 0.63216 0.0
C202 C 0.43116 0.54418 0.59067 0.0
C203 C 0.58826 0.73535 0.7186 0.0
C204 C 0.7083 0.7548 0.51323 0.0
C205 C 0.78444 0.0252 0.62289 0.0
O206 O 0.47967 0.81983 0.56273 0.0
O207 O 0.28116 0.41093 0.91767 0.0
Zn208 Zn 0.14829 0.28885 0.91735 0.0
O209 O 0.07377 0.30005 0.87417 0.0
Zn210 Zn -0.04041 0.29582 0.8921 0.0
Zn211 Zn 0.14858 0.40839 0.84471 0.0
Zn212 Zn 0.04509 0.21 0.8342 0.0
O213 O 0.84497 0.17675 0.87057 0.0
O214 O 0.92328 0.10746 0.84859 0.0
O215 O 0.06128 0.25063 0.97001 0.0
O216 O 0.93603 0.25601 0.94861 0.0
O217 O -0.02064 0.43185 0.89118 0.0
O218 O 0.12604 0.50468 0.86814 0.0
O219 O 0.12788 0.40132 0.78421 0.0
O220 O 0.17936 0.18738 0.90037 0.0
O221 O 0.03915 0.24845 0.77779 0.0
O222 O 0.13629 0.16646 0.83587 0.0
C223 C 0.32422 0.45196 0.88497 0.0
C224 C 0.84861 0.10347 0.86083 0.0
C225 C 0.05745 0.50705 0.88445 0.0
C226 C -0.02241 0.23642 0.97557 0.0
C227 C 0.07949 0.3296 0.76251 0.0
C228 C 0.17959 0.15557 0.86514 0.0
O229 O 0.27925 0.44228 0.85261 0.0
O230 O 0.05393 0.61515 0.62671 0.0
Zn231 Zn 0.06836 0.734 0.64693 0.0
O232 O 0.15057 0.83073 0.61081 0.0
Zn233 Zn 0.25902 0.93098 0.6369 0.0
Zn234 Zn 0.18164 0.78877 0.56273 0.0
Zn235 Zn 0.08372 0.88859 0.59494 0.0
O236 O 0.26186 0.05475 0.62483 0.0
O237 O 0.11024 -0.01649 0.63611 0.0
O238 O 0.12254 0.76462 0.70286 0.0
O239 O 0.24437 0.90941 0.69756 0.0
O240 O 0.37158 0.92215 0.61775 0.0
O241 O 0.31337 0.81721 0.568 0.0
O242 O 0.18445 0.86908 0.51435 0.0
O243 O 0.93894 0.71894 0.64905 0.0
O244 O 0.13212 0.9566 0.54249 0.0
O245 O 0.94687 0.80149 0.59495 0.0
C246 C 0.06581 0.58807 0.59236 0.0
C247 C 0.18778 0.05827 0.63219 0.0
C248 C 0.3808 0.87201 0.59065 0.0
C249 C 0.18969 0.83794 0.71858 0.0
C250 C 0.17017 0.93849 0.51322 0.0
C251 C 0.89978 0.74425 0.62287 0.0
O252 O 0.10513 0.64483 0.56274 0.0
O253 O 0.5142 0.85532 0.91765 0.0
Zn254 Zn 0.63624 0.84446 0.91735 0.0
O255 O 0.62503 0.75874 0.87415 0.0
Zn256 Zn 0.62929 0.6488 0.89209 0.0
Zn257 Zn 0.51666 0.72514 0.84471 0.0
Zn258 Zn 0.71505 0.82012 0.83417 0.0
O259 O 0.74838 0.65329 0.87057 0.0
O260 O 0.81758 0.80082 0.84853 0.0
O261 O 0.67443 0.79565 0.97 0.0
O262 O 0.66908 0.66504 0.9486 0.0
O263 O 0.49327 0.53252 0.89117 0.0
O264 O 0.42039 0.60635 0.86816 0.0
O265 O 0.52367 0.71146 0.7842 0.0
O266 O 0.73776 -0.02302 0.90038 0.0
O267 O 0.67655 0.77577 0.77776 0.0
O268 O 0.75863 0.95488 0.83586 0.0
C269 C 0.4732 0.85733 0.88494 0.0
C270 C 0.82162 0.73018 0.86078 0.0
C271 C 0.41805 0.53539 0.88446 0.0
C272 C 0.68865 0.72619 0.97556 0.0
C273 C 0.59539 0.73489 0.76249 0.0
C274 C 0.76955 0.00904 0.86514 0.0
O275 O 0.48279 0.82193 0.85259 0.0
loop_
_geom_bond_atom_site_label_1
_geom_bond_atom_site_label_2
_geom_bond_distance
_geom_bond_site_symmetry_2
_ccdc_geom_bond_type
O0 Zn1 1.953 . S
O0 C16 1.225 . S
Zn1 O0 1.953 . S
Zn1 O2 1.949 . S
Zn1 O8 1.919 . S
Zn1 O13 1.924 . S
O2 Zn1 1.949 . S
O2 Zn3 1.923 1_545 S
O2 Zn4 1.950 . S
O2 Zn5 1.945 . S
Zn3 O2 1.923 1_565 S
Zn3 O6 1.933 . S
Zn3 O9 1.941 1_565 S
Zn3 O10 1.965 1_565 S
Zn4 O2 1.950 . S
Zn4 O11 1.938 . S
Zn4 O12 1.906 . S
Zn4 O22 1.953 . S
Zn5 O2 1.945 . S
Zn5 O7 1.932 1_545 S
Zn5 O14 1.977 . S
Zn5 O15 1.910 . S
O6 Zn3 1.933 . S
O6 C17 1.226 . S
O7 Zn5 1.932 1_565 S
O7 C17 1.307 . S
O8 Zn1 1.919 . S
O8 C19 1.253 . S
O9 Zn3 1.941 1_545 S
O9 C19 1.283 . S
O10 Zn3 1.965 1_545 S
O10 C18 1.303 . S
O11 Zn4 1.938 . S
O11 C18 1.247 . S
O12 Zn4 1.906 . S
O12 C20 1.304 . S
O13 Zn1 1.924 . S
O13 C21 1.311 . S
O14 Zn5 1.977 . S
O14 C20 1.272 . S
O15 Zn5 1.910 . S
O15 C21 1.231 . S
C16 O0 1.225 . S
C16 O22 1.298 . S
C17 O6 1.226 . S
C17 O7 1.307 . S
C18 O10 1.303 . S
C18 O11 1.247 . S
C19 O8 1.253 . S
C19 O9 1.283 . S
C20 O12 1.304 . S
C20 O14 1.272 . S
C21 O13 1.311 . S
C21 O15 1.231 . S
O22 Zn4 1.953 . S
O22 C16 1.298 . S
O23 Zn24 1.953 . S
O23 C39 1.225 . S
Zn24 O23 1.953 . S
Zn24 O25 1.949 . S
Zn24 O31 1.919 . S
Zn24 O36 1.924 1_655 S
O25 Zn24 1.949 . S
O25 Zn26 1.923 . S
O25 Zn27 1.950 . S
O25 Zn28 1.945 . S
Zn26 O25 1.923 . S
Zn26 O29 1.933 . S
Zn26 O32 1.941 . S
Zn26 O33 1.965 . S
Zn27 O25 1.950 . S
Zn27 O34 1.938 . S
Zn27 O35 1.906 . S
Zn27 O45 1.953 . S
Zn28 O25 1.945 . S
Zn28 O30 1.932 . S
Zn28 O37 1.977 . S
Zn28 O38 1.899 1_655 S
O29 Zn26 1.933 . S
O29 C40 1.226 . S
O30 Zn28 1.932 . S
O30 C40 1.307 . S
O31 Zn24 1.919 . S
O31 C42 1.253 . S
O32 Zn26 1.941 . S
O32 C42 1.283 . S
O33 Zn26 1.965 . S
O33 C41 1.303 . S
O34 Zn27 1.938 . S
O34 C41 1.247 . S
O35 Zn27 1.906 . S
O35 C43 1.304 . S
O36 Zn24 1.924 1_455 S
O36 C44 1.311 . S
O37 Zn28 1.977 . S
O37 C43 1.272 . S
O38 Zn28 1.899 1_455 S
O38 C44 1.241 . S
C39 O23 1.225 . S
C39 O45 1.298 . S
C40 O29 1.226 . S
C40 O30 1.307 . S
C41 O33 1.303 . S
C41 O34 1.247 . S
C42 O31 1.253 . S
C42 O32 1.283 . S
C43 O35 1.304 . S
C43 O37 1.272 . S
C44 O36 1.311 . S
C44 O38 1.241 . S
O45 Zn27 1.953 . S
O45 C39 1.298 . S
O46 Zn47 1.953 . S
O46 C62 1.225 . S
Zn47 O46 1.953 . S
Zn47 O48 1.949 . S
Zn47 O54 1.919 . S
Zn47 O59 1.919 1_545 S
O48 Zn47 1.949 . S
O48 Zn49 1.923 1_655 S
O48 Zn50 1.950 . S
O48 Zn51 1.945 . S
Zn49 O48 1.923 1_455 S
Zn49 O52 1.933 . S
Zn49 O55 1.941 1_455 S
Zn49 O56 1.965 1_455 S
Zn50 O48 1.950 . S
Zn50 O57 1.938 . S
Zn50 O58 1.906 . S
Zn50 O68 1.953 . S
Zn51 O48 1.945 . S
Zn51 O53 1.932 1_655 S
Zn51 O60 1.977 . S
Zn51 O61 1.910 1_545 S
O52 Zn49 1.933 . S
O52 C63 1.226 . S
O53 Zn51 1.932 1_455 S
O53 C63 1.307 . S
O54 Zn47 1.919 . S
O54 C65 1.253 . S
O55 Zn49 1.941 1_655 S
O55 C65 1.283 . S
O56 Zn49 1.965 1_655 S
O56 C64 1.303 . S
O57 Zn50 1.938 . S
O57 C64 1.247 . S
O58 Zn50 1.906 . S
O58 C66 1.304 . S
O59 Zn47 1.919 1_565 S
O59 C67 1.315 . S
O60 Zn51 1.977 . S
O60 C66 1.272 . S
O61 Zn51 1.910 1_565 S
O61 C67 1.231 . S
C62 O46 1.225 . S
C62 O68 1.298 . S
C63 O52 1.226 . S
C63 O53 1.307 . S
C64 O56 1.303 . S
C64 O57 1.247 . S
C65 O54 1.253 . S
C65 O55 1.283 . S
C66 O58 1.304 . S
C66 O60 1.272 . S
C67 O59 1.315 . S
C67 O61 1.231 . S
O68 Zn50 1.953 . S
O68 C62 1.298 . S
O69 Zn70 1.953 . S
O69 C85 1.225 . S
Zn70 O69 1.953 . S
Zn70 O71 1.949 . S
Zn70 O77 1.919 . S
Zn70 O82 1.924 . S
O71 Zn70 1.949 . S
O71 Zn72 1.923 . S
O71 Zn73 1.950 . S
O71 Zn74 1.945 . S
Zn72 O71 1.923 . S
Zn72 O75 1.933 1_545 S
Zn72 O78 1.941 . S
Zn72 O79 1.965 . S
Zn73 O71 1.950 . S
Zn73 O80 1.938 . S
Zn73 O81 1.906 . S
Zn73 O91 1.953 . S
Zn74 O71 1.945 . S
Zn74 O76 1.932 1_545 S
Zn74 O83 1.977 . S
Zn74 O84 1.910 . S
O75 Zn72 1.933 1_565 S
O75 C86 1.226 . S
O76 Zn74 1.932 1_565 S
O76 C86 1.307 . S
O77 Zn70 1.919 . S
O77 C88 1.253 . S
O78 Zn72 1.941 . S
O78 C88 1.283 . S
O79 Zn72 1.965 . S
O79 C87 1.303 . S
O80 Zn73 1.938 . S
O80 C87 1.247 . S
O81 Zn73 1.906 . S
O81 C89 1.304 . S
O82 Zn70 1.924 . S
O82 C90 1.311 . S
O83 Zn74 1.977 . S
O83 C89 1.272 . S
O84 Zn74 1.910 . S
O84 C90 1.231 . S
C85 O69 1.225 . S
C85 O91 1.298 . S
C86 O75 1.226 . S
C86 O76 1.307 . S
C87 O79 1.303 . S
C87 O80 1.247 . S
C88 O77 1.253 . S
C88 O78 1.283 . S
C89 O81 1.304 . S
C89 O83 1.272 . S
C90 O82 1.311 . S
C90 O84 1.231 . S
O91 Zn73 1.953 . S
O91 C85 1.298 . S
O92 Zn93 1.953 . S
O92 C108 1.225 . S
Zn93 O92 1.953 . S
Zn93 O94 1.949 . S
Zn93 O100 1.919 . S
Zn93 O105 1.921 1_655 S
O94 Zn93 1.949 . S
O94 Zn95 1.923 . S
O94 Zn96 1.950 . S
O94 Zn97 1.945 . S
Zn95 O94 1.923 . S
Zn95 O98 1.933 . S
Zn95 O101 1.941 . S
Zn95 O102 1.965 . S
Zn96 O94 1.950 . S
Zn96 O103 1.938 . S
Zn96 O104 1.906 . S
Zn96 O114 1.953 . S
Zn97 O94 1.945 . S
Zn97 O99 1.932 . S
Zn97 O106 1.977 . S
Zn97 O107 1.910 1_655 S
O98 Zn95 1.933 . S
O98 C109 1.226 . S
O99 Zn97 1.932 . S
O99 C109 1.307 . S
O100 Zn93 1.919 . S
O100 C111 1.253 . S
O101 Zn95 1.941 . S
O101 C111 1.283 . S
O102 Zn95 1.965 . S
O102 C110 1.303 . S
O103 Zn96 1.938 . S
O103 C110 1.247 . S
O104 Zn96 1.906 . S
O104 C112 1.304 . S
O105 Zn93 1.921 1_455 S
O105 C113 1.312 . S
O106 Zn97 1.977 . S
O106 C112 1.272 . S
O107 Zn97 1.910 1_455 S
O107 C113 1.231 . S
C108 O92 1.225 . S
C108 O114 1.298 . S
C109 O98 1.226 . S
C109 O99 1.307 . S
C110 O102 1.303 . S
C110 O103 1.247 . S
C111 O100 1.253 . S
C111 O101 1.283 . S
C112 O104 1.304 . S
C112 O106 1.272 . S
C113 O105 1.312 . S
C113 O107 1.231 . S
O114 Zn96 1.953 . S
O114 C108 1.298 . S
O115 Zn116 1.953 . S
O115 C131 1.225 . S
Zn116 O115 1.953 . S
Zn116 O117 1.949 . S
Zn116 O123 1.919 . S
Zn116 O128 1.924 1_545 S
O117 Zn116 1.949 . S
O117 Zn118 1.923 . S
O117 Zn119 1.950 . S
O117 Zn120 1.945 . S
Zn118 O117 1.923 . S
Zn118 O121 1.933 1_655 S
Zn118 O124 1.941 . S
Zn118 O125 1.965 . S
Zn119 O117 1.950 . S
Zn119 O126 1.938 . S
Zn119 O127 1.906 . S
Zn119 O137 1.953 . S
Zn120 O117 1.945 . S
Zn120 O122 1.932 1_655 S
Zn120 O129 1.977 . S
Zn120 O130 1.900 1_545 S
O121 Zn118 1.933 1_455 S
O121 C132 1.226 . S
O122 Zn120 1.932 1_455 S
O122 C132 1.307 . S
O123 Zn116 1.919 . S
O123 C134 1.253 . S
O124 Zn118 1.941 . S
O124 C134 1.283 . S
O125 Zn118 1.965 . S
O125 C133 1.303 . S
O126 Zn119 1.938 . S
O126 C133 1.247 . S
O127 Zn119 1.906 . S
O127 C135 1.304 . S
O128 Zn116 1.924 1_565 S
O128 C136 1.311 . S
O129 Zn120 1.977 . S
O129 C135 1.272 . S
O130 Zn120 1.900 1_565 S
O130 C136 1.232 . S
C131 O115 1.225 . S
C131 O137 1.298 . S
C132 O121 1.226 . S
C132 O122 1.307 . S
C133 O125 1.303 . S
C133 O126 1.247 . S
C134 O123 1.253 . S
C134 O124 1.283 . S
C135 O127 1.304 . S
C135 O129 1.272 . S
C136 O128 1.311 . S
C136 O130 1.232 . S
O137 Zn119 1.953 . S
O137 C131 1.298 . S
O138 Zn139 1.953 . S
O138 C154 1.225 . S
Zn139 O138 1.953 . S
Zn139 O140 1.949 . S
Zn139 O146 1.919 . S
Zn139 O151 1.924 . S
O140 Zn139 1.949 . S
O140 Zn141 1.923 . S
O140 Zn142 1.950 . S
O140 Zn143 1.945 . S
Zn141 O140 1.923 . S
Zn141 O144 1.933 1_455 S
Zn141 O147 1.941 . S
Zn141 O148 1.965 . S
Zn142 O140 1.950 . S
Zn142 O149 1.938 . S
Zn142 O150 1.906 . S
Zn142 O160 1.953 . S
Zn143 O140 1.945 . S
Zn143 O145 1.932 1_455 S
Zn143 O152 1.977 . S
Zn143 O153 1.910 . S
O144 Zn141 1.933 1_655 S
O144 C155 1.226 . S
O145 Zn143 1.932 1_655 S
O145 C155 1.307 . S
O146 Zn139 1.919 . S
O146 C157 1.253 . S
O147 Zn141 1.941 . S
O147 C157 1.283 . S
O148 Zn141 1.965 . S
O148 C156 1.303 . S
O149 Zn142 1.938 . S
O149 C156 1.247 . S
O150 Zn142 1.906 . S
O150 C158 1.304 . S
O151 Zn139 1.924 . S
O151 C159 1.311 . S
O152 Zn143 1.977 . S
O152 C158 1.272 . S
O153 Zn143 1.910 . S
O153 C159 1.231 . S
C154 O138 1.225 . S
C154 O160 1.298 . S
C155 O144 1.226 . S
C155 O145 1.307 . S
C156 O148 1.303 . S
C156 O149 1.247 . S
C157 O146 1.253 . S
C157 O147 1.283 . S
C158 O150 1.304 . S
C158 O152 1.272 . S
C159 O151 1.311 . S
C159 O153 1.231 . S
O160 Zn142 1.953 . S
O160 C154 1.298 . S
O161 Zn162 1.953 . S
O161 C177 1.225 . S
Zn162 O161 1.953 . S
Zn162 O163 1.949 . S
Zn162 O169 1.919 . S
Zn162 O174 1.919 1_455 S
O163 Zn162 1.949 . S
O163 Zn164 1.923 1_565 S
O163 Zn165 1.950 . S
O163 Zn166 1.945 . S
Zn164 O163 1.923 1_545 S
Zn164 O167 1.933 . S
Zn164 O170 1.941 1_545 S
Zn164 O171 1.965 1_545 S
Zn165 O163 1.950 . S
Zn165 O172 1.938 . S
Zn165 O173 1.906 . S
Zn165 O183 1.953 . S
Zn166 O163 1.945 . S
Zn166 O168 1.932 1_565 S
Zn166 O175 1.977 . S
Zn166 O176 1.910 1_455 S
O167 Zn164 1.933 . S
O167 C178 1.226 . S
O168 Zn166 1.932 1_545 S
O168 C178 1.307 . S
O169 Zn162 1.919 . S
O169 C180 1.253 . S
O170 Zn164 1.941 1_565 S
O170 C180 1.283 . S
O171 Zn164 1.965 1_565 S
O171 C179 1.303 . S
O172 Zn165 1.938 . S
O172 C179 1.247 . S
O173 Zn165 1.906 . S
O173 C181 1.304 . S
O174 Zn162 1.919 1_655 S
O174 C182 1.315 . S
O175 Zn166 1.977 . S
O175 C181 1.272 . S
O176 Zn166 1.910 1_655 S
O176 C182 1.231 . S
C177 O161 1.225 . S
C177 O183 1.298 . S
C178 O167 1.226 . S
C178 O168 1.307 . S
C179 O171 1.303 . S
C179 O172 1.247 . S
C180 O169 1.253 . S
C180 O170 1.283 . S
C181 O173 1.304 . S
C181 O175 1.272 . S
C182 O174 1.315 . S
C182 O176 1.231 . S
O183 Zn165 1.953 . S
O183 C177 1.298 . S
O184 Zn185 1.953 . S
O184 C200 1.225 . S
Zn185 O184 1.953 . S
Zn185 O186 1.949 . S
Zn185 O192 1.919 . S
Zn185 O197 1.924 1_565 S
O186 Zn185 1.949 . S
O186 Zn187 1.923 . S
O186 Zn188 1.950 . S
O186 Zn189 1.945 . S
Zn187 O186 1.923 . S
Zn187 O190 1.933 . S
Zn187 O193 1.941 . S
Zn187 O194 1.965 . S
Zn188 O186 1.950 . S
Zn188 O195 1.938 . S
Zn188 O196 1.906 . S
Zn188 O206 1.953 . S
Zn189 O186 1.945 . S
Zn189 O191 1.932 . S
Zn189 O198 1.977 . S
Zn189 O199 1.899 1_565 S
O190 Zn187 1.933 . S
O190 C201 1.226 . S
O191 Zn189 1.932 . S
O191 C201 1.307 . S
O192 Zn185 1.919 . S
O192 C203 1.253 . S
O193 Zn187 1.941 . S
O193 C203 1.283 . S
O194 Zn187 1.965 . S
O194 C202 1.303 . S
O195 Zn188 1.938 . S
O195 C202 1.247 . S
O196 Zn188 1.906 . S
O196 C204 1.304 . S
O197 Zn185 1.924 1_545 S
O197 C205 1.311 . S
O198 Zn189 1.977 . S
O198 C204 1.272 . S
O199 Zn189 1.899 1_545 S
O199 C205 1.241 . S
C200 O184 1.225 . S
C200 O206 1.298 . S
C201 O190 1.226 . S
C201 O191 1.307 . S
C202 O194 1.303 . S
C202 O195 1.247 . S
C203 O192 1.253 . S
C203 O193 1.283 . S
C204 O196 1.304 . S
C204 O198 1.272 . S
C205 O197 1.311 . S
C205 O199 1.241 . S
O206 Zn188 1.953 . S
O206 C200 1.298 . S
O207 Zn208 1.953 . S
O207 C223 1.225 . S
Zn208 O207 1.953 . S
Zn208 O209 1.949 . S
Zn208 O215 1.919 . S
Zn208 O220 1.924 . S
O209 Zn208 1.949 . S
O209 Zn210 1.923 1_455 S
O209 Zn211 1.950 . S
O209 Zn212 1.945 . S
Zn210 O209 1.923 1_655 S
Zn210 O213 1.933 . S
Zn210 O216 1.941 1_655 S
Zn210 O217 1.965 1_655 S
Zn211 O209 1.950 . S
Zn211 O218 1.938 . S
Zn211 O219 1.906 . S
Zn211 O229 1.953 . S
Zn212 O209 1.945 . S
Zn212 O214 1.932 1_455 S
Zn212 O221 1.977 . S
Zn212 O222 1.910 . S
O213 Zn210 1.933 . S
O213 C224 1.226 . S
O214 Zn212 1.932 1_655 S
O214 C224 1.307 . S
O215 Zn208 1.919 . S
O215 C226 1.253 . S
O216 Zn210 1.941 1_455 S
O216 C226 1.283 . S
O217 Zn210 1.965 1_455 S
O217 C225 1.303 . S
O218 Zn211 1.938 . S
O218 C225 1.247 . S
O219 Zn211 1.906 . S
O219 C227 1.304 . S
O220 Zn208 1.924 . S
O220 C228 1.311 . S
O221 Zn212 1.977 . S
O221 C227 1.272 . S
O222 Zn212 1.910 . S
O222 C228 1.231 . S
C223 O207 1.225 . S
C223 O229 1.298 . S
C224 O213 1.226 . S
C224 O214 1.307 . S
C225 O217 1.303 . S
C225 O218 1.247 . S
C226 O215 1.253 . S
C226 O216 1.283 . S
C227 O219 1.304 . S
C227 O221 1.272 . S
C228 O220 1.311 . S
C228 O222 1.231 . S
O229 Zn211 1.953 . S
O229 C223 1.298 . S
O230 Zn231 1.953 . S
O230 C246 1.225 . S
Zn231 O230 1.953 . S
Zn231 O232 1.949 . S
Zn231 O238 1.919 . S
Zn231 O243 1.924 1_455 S
O232 Zn231 1.949 . S
O232 Zn233 1.923 . S
O232 Zn234 1.950 . S
O232 Zn235 1.945 . S
Zn233 O232 1.923 . S
Zn233 O236 1.933 1_565 S
Zn233 O239 1.941 . S
Zn233 O240 1.965 . S
Zn234 O232 1.950 . S
Zn234 O241 1.938 . S
Zn234 O242 1.906 . S
Zn234 O252 1.953 . S
Zn235 O232 1.945 . S
Zn235 O237 1.932 1_565 S
Zn235 O244 1.977 . S
Zn235 O245 1.900 1_455 S
O236 Zn233 1.933 1_545 S
O236 C247 1.226 . S
O237 Zn235 1.932 1_545 S
O237 C247 1.307 . S
O238 Zn231 1.919 . S
O238 C249 1.253 . S
O239 Zn233 1.941 . S
O239 C249 1.283 . S
O240 Zn233 1.965 . S
O240 C248 1.303 . S
O241 Zn234 1.938 . S
O241 C248 1.247 . S
O242 Zn234 1.906 . S
O242 C250 1.304 . S
O243 Zn231 1.924 1_655 S
O243 C251 1.311 . S
O244 Zn235 1.977 . S
O244 C250 1.272 . S
O245 Zn235 1.900 1_655 S
O245 C251 1.232 . S
C246 O230 1.225 . S
C246 O252 1.298 . S
C247 O236 1.226 . S
C247 O237 1.307 . S
C248 O240 1.303 . S
C248 O241 1.247 . S
C249 O238 1.253 . S
C249 O239 1.283 . S
C250 O242 1.304 . S
C250 O244 1.272 . S
C251 O243 1.311 . S
C251 O245 1.232 . S
O252 Zn234 1.953 . S
O252 C246 1.298 . S
O253 Zn254 1.953 . S
O253 C269 1.225 . S
Zn254 O253 1.953 . S
Zn254 O255 1.949 . S
Zn254 O261 1.919 . S
Zn254 O266 1.921 1_565 S
O255 Zn254 1.949 . S
O255 Zn256 1.923 . S
O255 Zn257 1.950 . S
O255 Zn258 1.945 . S
Zn256 O255 1.923 . S
Zn256 O259 1.933 . S
Zn256 O262 1.941 . S
Zn256 O263 1.965 . S
Zn257 O255 1.950 . S
Zn257 O264 1.938 . S
Zn257 O265 1.906 . S
Zn257 O275 1.953 . S
Zn258 O255 1.945 . S
Zn258 O260 1.932 . S
Zn258 O267 1.977 . S
Zn258 O268 1.910 1_565 S
O259 Zn256 1.933 . S
O259 C270 1.226 . S
O260 Zn258 1.932 . S
O260 C270 1.307 . S
O261 Zn254 1.919 . S
O261 C272 1.253 . S
O262 Zn256 1.941 . S
O262 C272 1.283 . S
O263 Zn256 1.965 . S
O263 C271 1.303 . S
O264 Zn257 1.938 . S
O264 C271 1.247 . S
O265 Zn257 1.906 . S
O265 C273 1.304 . S
O266 Zn254 1.921 1_545 S
O266 C274 1.312 . S
O267 Zn258 1.977 . S
O267 C273 1.272 . S
O268 Zn258 1.910 1_545 S
O268 C274 1.231 . S
C269 O253 1.225 . S
C269 O275 1.298 . S
C270 O259 1.226 . S
C270 O260 1.307 . S
C271 O263 1.303 . S
C271 O264 1.247 . S
C272 O261 1.253 . S
C272 O262 1.283 . S
C273 O265 1.304 . S
C273 O267 1.272 . S
C274 O266 1.312 . S
C274 O268 1.231 . S
O275 Zn257 1.953 . S
O275 C269 1.298 . S
C63 C21 1.460 . S
C86 C44 1.337 . S
C67 C109 1.460 . S
C90 C132 1.337 . S
C17 C113 1.460 . S
C40 C136 1.337 . S
C247 C159 1.337 . S
C182 C270 1.460 . S
C205 C155 1.337 . S
C228 C178 1.460 . S
C251 C201 1.337 . S
C224 C274 1.460 . S
C88 C20 1.480 . S
C42 C112 1.480 . S
C66 C134 1.480 . S
C157 C227 1.480 . S
C181 C249 1.480 . S
C203 C273 1.480 . S
C180 C19 1.787 1_566 S
C43 C204 1.834 . S
C226 C65 1.787 1_456 S
C89 C250 1.834 1_545 S
C111 C272 1.788 1_554 S
C158 C135 1.834 1_455 S
C62 C18 1.505 . S
C41 C85 1.391 . S
C64 C108 1.505 . S
C87 C131 1.391 . S
C16 C110 1.505 . S
C39 C133 1.391 . S
C246 C156 1.391 . S
C179 C269 1.505 . S
C202 C154 1.391 . S
C177 C225 1.505 . S
C248 C200 1.391 . S
C271 C223 1.505 . S
