# Generated by pormake.
# Topology som, (6)-cn, num edge types: 1
# Building blocks:
#     Node 0, Type 0, BuildingBlock: BETDEL_clean_sbu_0, # of connection points: 6
#     Node 1, Type 0, BuildingBlock: BETDEL_clean_sbu_0, # of connection points: 6
#     Node 2, Type 0, BuildingBlock: BETDEL_clean_sbu_0, # of connection points: 6
#     Node 3, Type 0, BuildingBlock: BETDEL_clean_sbu_0, # of connection points: 6
#     Node 4, Type 0, BuildingBlock: BETDEL_clean_sbu_0, # of connection points: 6
#     Node 5, Type 0, BuildingBlock: BETDEL_clean_sbu_0, # of connection points: 6
#     Node 6, Type 0, BuildingBlock: BETDEL_clean_sbu_0, # of connection points: 6
#     Node 7, Type 0, BuildingBlock: BETDEL_clean_sbu_0, # of connection points: 6
#     Node 8, Type 0, BuildingBlock: BETDEL_clean_sbu_0, # of connection points: 6
#     Node 9, Type 0, BuildingBlock: BETDEL_clean_sbu_0, # of connection points: 6
#     Node 10, Type 0, BuildingBlock: BETDEL_clean_sbu_0, # of connection points: 6
#     Node 11, Type 0, BuildingBlock: BETDEL_clean_sbu_0, # of connection points: 6
#     Node 12, Type 0, BuildingBlock: BETDEL_clean_sbu_0, # of connection points: 6
#     Node 13, Type 0, BuildingBlock: BETDEL_clean_sbu_0, # of connection points: 6
#     Node 14, Type 0, BuildingBlock: BETDEL_clean_sbu_0, # of connection points: 6
#     Node 15, Type 0, BuildingBlock: BETDEL_clean_sbu_0, # of connection points: 6
#     Node 16, Type 0, BuildingBlock: BETDEL_clean_sbu_0, # of connection points: 6
#     Node 17, Type 0, BuildingBlock: BETDEL_clean_sbu_0, # of connection points: 6
#     Node 18, Type 0, BuildingBlock: BETDEL_clean_sbu_0, # of connection points: 6
#     Node 19, Type 0, BuildingBlock: BETDEL_clean_sbu_0, # of connection points: 6
#     Node 20, Type 0, BuildingBlock: BETDEL_clean_sbu_0, # of connection points: 6
#     Node 21, Type 0, BuildingBlock: BETDEL_clean_sbu_0, # of connection points: 6
#     Node 22, Type 0, BuildingBlock: BETDEL_clean_sbu_0, # of connection points: 6
#     Node 23, Type 0, BuildingBlock: BETDEL_clean_sbu_0, # of connection points: 6
#     Node 24, Type 0, BuildingBlock: BETDEL_clean_sbu_0, # of connection points: 6
#     Node 25, Type 0, BuildingBlock: BETDEL_clean_sbu_0, # of connection points: 6
#     Node 26, Type 0, BuildingBlock: BETDEL_clean_sbu_0, # of connection points: 6
#     Node 27, Type 0, BuildingBlock: BETDEL_clean_sbu_0, # of connection points: 6
#     Node 28, Type 0, BuildingBlock: BETDEL_clean_sbu_0, # of connection points: 6
#     Node 29, Type 0, BuildingBlock: BETDEL_clean_sbu_0, # of connection points: 6
#     Node 30, Type 0, BuildingBlock: BETDEL_clean_sbu_0, # of connection points: 6
#     Node 31, Type 0, BuildingBlock: BETDEL_clean_sbu_0, # of connection points: 6
#     Edge 32, Type (0, 0), BuildingBlock: KIFKEQ_clean_linker_1, # of connection points: 2
#     Edge 33, Type (0, 0), BuildingBlock: KIFKEQ_clean_linker_1, # of connection points: 2
#     Edge 34, Type (0, 0), BuildingBlock: KIFKEQ_clean_linker_1, # of connection points: 2
#     Edge 35, Type (0, 0), BuildingBlock: KIFKEQ_clean_linker_1, # of connection points: 2
#     Edge 36, Type (0, 0), BuildingBlock: KIFKEQ_clean_linker_1, # of connection points: 2
#     Edge 37, Type (0, 0), BuildingBlock: KIFKEQ_clean_linker_1, # of connection points: 2
#     Edge 38, Type (0, 0), BuildingBlock: KIFKEQ_clean_linker_1, # of connection points: 2
#     Edge 39, Type (0, 0), BuildingBlock: KIFKEQ_clean_linker_1, # of connection points: 2
#     Edge 40, Type (0, 0), BuildingBlock: KIFKEQ_clean_linker_1, # of connection points: 2
#     Edge 41, Type (0, 0), BuildingBlock: KIFKEQ_clean_linker_1, # of connection points: 2
#     Edge 42, Type (0, 0), BuildingBlock: KIFKEQ_clean_linker_1, # of connection points: 2
#     Edge 43, Type (0, 0), BuildingBlock: KIFKEQ_clean_linker_1, # of connection points: 2
#     Edge 44, Type (0, 0), BuildingBlock: KIFKEQ_clean_linker_1, # of connection points: 2
#     Edge 45, Type (0, 0), BuildingBlock: KIFKEQ_clean_linker_1, # of connection points: 2
#     Edge 46, Type (0, 0), BuildingBlock: KIFKEQ_clean_linker_1, # of connection points: 2
#     Edge 47, Type (0, 0), BuildingBlock: KIFKEQ_clean_linker_1, # of connection points: 2
#     Edge 48, Type (0, 0), BuildingBlock: KIFKEQ_clean_linker_1, # of connection points: 2
#     Edge 49, Type (0, 0), BuildingBlock: KIFKEQ_clean_linker_1, # of connection points: 2
#     Edge 50, Type (0, 0), BuildingBlock: KIFKEQ_clean_linker_1, # of connection points: 2
#     Edge 51, Type (0, 0), BuildingBlock: KIFKEQ_clean_linker_1, # of connection points: 2
#     Edge 52, Type (0, 0), BuildingBlock: KIFKEQ_clean_linker_1, # of connection points: 2
#     Edge 53, Type (0, 0), BuildingBlock: KIFKEQ_clean_linker_1, # of connection points: 2
#     Edge 54, Type (0, 0), BuildingBlock: KIFKEQ_clean_linker_1, # of connection points: 2
#     Edge 55, Type (0, 0), BuildingBlock: KIFKEQ_clean_linker_1, # of connection points: 2
#     Edge 56, Type (0, 0), BuildingBlock: KIFKEQ_clean_linker_1, # of connection points: 2
#     Edge 57, Type (0, 0), BuildingBlock: KIFKEQ_clean_linker_1, # of connection points: 2
#     Edge 58, Type (0, 0), BuildingBlock: KIFKEQ_clean_linker_1, # of connection points: 2
#     Edge 59, Type (0, 0), BuildingBlock: KIFKEQ_clean_linker_1, # of connection points: 2
#     Edge 60, Type (0, 0), BuildingBlock: KIFKEQ_clean_linker_1, # of connection points: 2
#     Edge 61, Type (0, 0), BuildingBlock: KIFKEQ_clean_linker_1, # of connection points: 2
#     Edge 62, Type (0, 0), BuildingBlock: KIFKEQ_clean_linker_1, # of connection points: 2
#     Edge 63, Type (0, 0), BuildingBlock: KIFKEQ_clean_linker_1, # of connection points: 2
#     Edge 64, Type (0, 0), BuildingBlock: KIFKEQ_clean_linker_1, # of connection points: 2
#     Edge 65, Type (0, 0), BuildingBlock: KIFKEQ_clean_linker_1, # of connection points: 2
#     Edge 66, Type (0, 0), BuildingBlock: KIFKEQ_clean_linker_1, # of connection points: 2
#     Edge 67, Type (0, 0), BuildingBlock: KIFKEQ_clean_linker_1, # of connection points: 2
#     Edge 68, Type (0, 0), BuildingBlock: KIFKEQ_clean_linker_1, # of connection points: 2
#     Edge 69, Type (0, 0), BuildingBlock: KIFKEQ_clean_linker_1, # of connection points: 2
#     Edge 70, Type (0, 0), BuildingBlock: KIFKEQ_clean_linker_1, # of connection points: 2
#     Edge 71, Type (0, 0), BuildingBlock: KIFKEQ_clean_linker_1, # of connection points: 2
#     Edge 72, Type (0, 0), BuildingBlock: KIFKEQ_clean_linker_1, # of connection points: 2
#     Edge 73, Type (0, 0), BuildingBlock: KIFKEQ_clean_linker_1, # of connection points: 2
#     Edge 74, Type (0, 0), BuildingBlock: KIFKEQ_clean_linker_1, # of connection points: 2
#     Edge 75, Type (0, 0), BuildingBlock: KIFKEQ_clean_linker_1, # of connection points: 2
#     Edge 76, Type (0, 0), BuildingBlock: KIFKEQ_clean_linker_1, # of connection points: 2
#     Edge 77, Type (0, 0), BuildingBlock: KIFKEQ_clean_linker_1, # of connection points: 2
#     Edge 78, Type (0, 0), BuildingBlock: KIFKEQ_clean_linker_1, # of connection points: 2
#     Edge 79, Type (0, 0), BuildingBlock: KIFKEQ_clean_linker_1, # of connection points: 2
#     Edge 80, Type (0, 0), BuildingBlock: KIFKEQ_clean_linker_1, # of connection points: 2
#     Edge 81, Type (0, 0), BuildingBlock: KIFKEQ_clean_linker_1, # of connection points: 2
#     Edge 82, Type (0, 0), BuildingBlock: KIFKEQ_clean_linker_1, # of connection points: 2
#     Edge 83, Type (0, 0), BuildingBlock: KIFKEQ_clean_linker_1, # of connection points: 2
#     Edge 84, Type (0, 0), BuildingBlock: KIFKEQ_clean_linker_1, # of connection points: 2
#     Edge 85, Type (0, 0), BuildingBlock: KIFKEQ_clean_linker_1, # of connection points: 2
#     Edge 86, Type (0, 0), BuildingBlock: KIFKEQ_clean_linker_1, # of connection points: 2
#     Edge 87, Type (0, 0), BuildingBlock: KIFKEQ_clean_linker_1, # of connection points: 2
#     Edge 88, Type (0, 0), BuildingBlock: KIFKEQ_clean_linker_1, # of connection points: 2
#     Edge 89, Type (0, 0), BuildingBlock: KIFKEQ_clean_linker_1, # of connection points: 2
#     Edge 90, Type (0, 0), BuildingBlock: KIFKEQ_clean_linker_1, # of connection points: 2
#     Edge 91, Type (0, 0), BuildingBlock: KIFKEQ_clean_linker_1, # of connection points: 2
#     Edge 92, Type (0, 0), BuildingBlock: KIFKEQ_clean_linker_1, # of connection points: 2
#     Edge 93, Type (0, 0), BuildingBlock: KIFKEQ_clean_linker_1, # of connection points: 2
#     Edge 94, Type (0, 0), BuildingBlock: KIFKEQ_clean_linker_1, # of connection points: 2
#     Edge 95, Type (0, 0), BuildingBlock: KIFKEQ_clean_linker_1, # of connection points: 2
#     Edge 96, Type (0, 0), BuildingBlock: KIFKEQ_clean_linker_1, # of connection points: 2
#     Edge 97, Type (0, 0), BuildingBlock: KIFKEQ_clean_linker_1, # of connection points: 2
#     Edge 98, Type (0, 0), BuildingBlock: KIFKEQ_clean_linker_1, # of connection points: 2
#     Edge 99, Type (0, 0), BuildingBlock: KIFKEQ_clean_linker_1, # of connection points: 2
#     Edge 100, Type (0, 0), BuildingBlock: KIFKEQ_clean_linker_1, # of connection points: 2
#     Edge 101, Type (0, 0), BuildingBlock: KIFKEQ_clean_linker_1, # of connection points: 2
#     Edge 102, Type (0, 0), BuildingBlock: KIFKEQ_clean_linker_1, # of connection points: 2
#     Edge 103, Type (0, 0), BuildingBlock: KIFKEQ_clean_linker_1, # of connection points: 2
#     Edge 104, Type (0, 0), BuildingBlock: KIFKEQ_clean_linker_1, # of connection points: 2
#     Edge 105, Type (0, 0), BuildingBlock: KIFKEQ_clean_linker_1, # of connection points: 2
#     Edge 106, Type (0, 0), BuildingBlock: KIFKEQ_clean_linker_1, # of connection points: 2
#     Edge 107, Type (0, 0), BuildingBlock: KIFKEQ_clean_linker_1, # of connection points: 2
#     Edge 108, Type (0, 0), BuildingBlock: KIFKEQ_clean_linker_1, # of connection points: 2
#     Edge 109, Type (0, 0), BuildingBlock: KIFKEQ_clean_linker_1, # of connection points: 2
#     Edge 110, Type (0, 0), BuildingBlock: KIFKEQ_clean_linker_1, # of connection points: 2
#     Edge 111, Type (0, 0), BuildingBlock: KIFKEQ_clean_linker_1, # of connection points: 2
#     Edge 112, Type (0, 0), BuildingBlock: KIFKEQ_clean_linker_1, # of connection points: 2
#     Edge 113, Type (0, 0), BuildingBlock: KIFKEQ_clean_linker_1, # of connection points: 2
#     Edge 114, Type (0, 0), BuildingBlock: KIFKEQ_clean_linker_1, # of connection points: 2
#     Edge 115, Type (0, 0), BuildingBlock: KIFKEQ_clean_linker_1, # of connection points: 2
#     Edge 116, Type (0, 0), BuildingBlock: KIFKEQ_clean_linker_1, # of connection points: 2
#     Edge 117, Type (0, 0), BuildingBlock: KIFKEQ_clean_linker_1, # of connection points: 2
#     Edge 118, Type (0, 0), BuildingBlock: KIFKEQ_clean_linker_1, # of connection points: 2
#     Edge 119, Type (0, 0), BuildingBlock: KIFKEQ_clean_linker_1, # of connection points: 2
#     Edge 120, Type (0, 0), BuildingBlock: KIFKEQ_clean_linker_1, # of connection points: 2
#     Edge 121, Type (0, 0), BuildingBlock: KIFKEQ_clean_linker_1, # of connection points: 2
#     Edge 122, Type (0, 0), BuildingBlock: KIFKEQ_clean_linker_1, # of connection points: 2
#     Edge 123, Type (0, 0), BuildingBlock: KIFKEQ_clean_linker_1, # of connection points: 2
#     Edge 124, Type (0, 0), BuildingBlock: KIFKEQ_clean_linker_1, # of connection points: 2
#     Edge 125, Type (0, 0), BuildingBlock: KIFKEQ_clean_linker_1, # of connection points: 2
#     Edge 126, Type (0, 0), BuildingBlock: KIFKEQ_clean_linker_1, # of connection points: 2
#     Edge 127, Type (0, 0), BuildingBlock: KIFKEQ_clean_linker_1, # of connection points: 2
# Relax obj value: 0.061
# Max RMSD: 0.112
# Mean RMSD: 0.112
data_MOF--net-som--node1-BETDEL_clean_sbu_0--edge1-KIFKEQ_clean_linker_1
_symmetry_space_group_name_H-M    P1
_symmetry_Int_Tables_number       1
_symmetry_cell_setting            triclinic
loop_
_symmetry_equiv_pos_as_xyz
'x, y, z'
_cell_length_a     18.331777
_cell_length_b     59.483936
_cell_length_c     114.97554
_cell_angle_alpha  90.047523
_cell_angle_beta   90.065343
_cell_angle_gamma 90.010279
loop_
_atom_site_label
_atom_site_type_symbol
_atom_site_fract_x
_atom_site_fract_y
_atom_site_fract_z
_atom_type_partial_charge
Dy0 Dy 0.98172 0.49629 0.08051 0.0
C1 C 0.2848 0.48269 0.08353 0.0
C2 C 0.83242 0.49498 0.08045 0.0
Dy3 Dy 0.13727 0.48456 0.0799 0.0
O4 O 0.87141 0.50873 0.07423 0.0
O5 O 0.87488 0.48232 0.08659 0.0
O6 O 0.99963 0.51366 0.09768 0.0
O7 O 0.05866 0.48448 0.0939 0.0
C8 C 0.05007 0.50002 0.10119 0.0
C9 C 0.07693 0.48142 0.05864 0.0
O10 O 0.0876 0.45199 0.08575 0.0
O11 O 0.98305 0.46009 0.07572 0.0
O12 O 0.24757 0.46853 0.07732 0.0
O13 O 0.24113 0.49745 0.08804 0.0
O14 O 0.12931 0.4688 0.06244 0.0
O15 O 0.06191 0.49635 0.06614 0.0
O16 O 1.01871 0.5303 0.07541 0.0
O17 O 0.13957 0.52254 0.07961 0.0
C18 C 1.02528 0.44542 0.08102 0.0
C19 C 0.08683 0.53692 0.07693 0.0
Dy20 Dy 0.33416 0.73777 0.08129 0.0
C21 C 0.02719 0.75841 0.0869 0.0
C22 C 0.48311 0.7353 0.08199 0.0
Dy23 Dy 0.17081 0.75395 0.08111 0.0
O24 O 0.44065 0.73874 0.0908 0.0
O25 O 0.44405 0.73261 0.07259 0.0
O26 O 0.30663 0.71909 0.09769 0.0
O27 O 0.25521 0.74988 0.09418 0.0
C28 C 0.25867 0.73365 0.10119 0.0
C29 C 0.21773 0.7512 0.05904 0.0
O30 O 0.22735 0.78663 0.08524 0.0
O31 O 0.34338 0.77484 0.07968 0.0
O32 O 0.06313 0.77199 0.08013 0.0
O33 O 0.07097 0.74313 0.091 0.0
O34 O 0.15285 0.75772 0.06197 0.0
O35 O 0.25395 0.74702 0.06816 0.0
O36 O 0.28454 0.70679 0.07423 0.0
O37 O 0.16697 0.71593 0.08039 0.0
C38 C 0.29732 0.79072 0.08297 0.0
C39 C 0.21571 0.70132 0.0763 0.0
Dy40 Dy 0.96982 0.73772 0.20216 0.0
C41 C 0.27548 0.75585 0.19534 0.0
C42 C 0.82115 0.73975 0.20141 0.0
Dy43 Dy 0.13306 0.7522 0.20189 0.0
O44 O 0.85788 0.72606 0.20808 0.0
O45 O 0.8656 0.7518 0.19528 0.0
O46 O 0.99006 0.72018 0.18513 0.0
O47 O 0.04713 0.74974 0.18896 0.0
C48 C 0.04001 0.73407 0.18169 0.0
C49 C 0.09137 0.74877 0.22418 0.0
O50 O 0.07668 0.7853 0.19885 0.0
O51 O 0.96888 0.7736 0.2074 0.0
O52 O 0.2397 0.77096 0.20122 0.0
O53 O 0.23214 0.73942 0.19253 0.0
O54 O 0.15609 0.75489 0.22094 0.0
O55 O 0.05235 0.74526 0.21528 0.0
O56 O 1.01658 0.70582 0.20863 0.0
O57 O 0.13319 0.71424 0.2019 0.0
C58 C 1.0107 0.78962 0.20308 0.0
C59 C 0.08436 0.69985 0.20612 0.0
Dy60 Dy 0.35027 0.5001 0.20149 0.0
C61 C 0.04599 0.48009 0.20126 0.0
C62 C 0.49888 0.50286 0.20409 0.0
Dy63 Dy 0.19513 0.48394 0.20255 0.0
O64 O 0.46112 0.51326 0.19619 0.0
O65 O 0.45504 0.49175 0.21083 0.0
O66 O 0.32814 0.51649 0.18426 0.0
O67 O 0.27398 0.48656 0.18855 0.0
C68 C 0.27853 0.50212 0.18116 0.0
C69 C 0.26594 0.48195 0.22301 0.0
O70 O 0.24494 0.45119 0.19698 0.0
O71 O 0.36251 0.46275 0.20132 0.0
O72 O 0.08538 0.47683 0.21046 0.0
O73 O 0.08843 0.4847 0.19252 0.0
O74 O 0.22081 0.46673 0.2193 0.0
O75 O 0.27038 0.49769 0.21565 0.0
O76 O 0.30188 0.53168 0.2082 0.0
O77 O 0.18579 0.52189 0.20212 0.0
C78 C 0.31534 0.44683 0.19851 0.0
C79 C 0.2335 0.53711 0.20583 0.0
Dy80 Dy 0.94452 0.50212 0.95169 0.0
C81 C 0.24942 0.48247 0.95086 0.0
C82 C 0.79617 0.50493 0.94895 0.0
Dy83 Dy 0.10038 0.48631 0.95009 0.0
O84 O 0.83322 0.51424 0.95729 0.0
O85 O 0.84051 0.49479 0.94189 0.0
O86 O 0.9669 0.51837 0.9688 0.0
O87 O 1.02193 0.48859 0.96448 0.0
C88 C 1.01599 0.50396 0.97204 0.0
C89 C 1.02368 0.48362 0.93027 0.0
O90 O 0.05484 0.45362 0.95589 0.0
O91 O 0.93509 0.46419 0.95228 0.0
O92 O 0.20934 0.48068 0.94162 0.0
O93 O 0.20778 0.48563 0.95987 0.0
O94 O 0.07203 0.46885 0.93338 0.0
O95 O 1.02165 0.49956 0.93749 0.0
O96 O 0.9944 0.53452 0.94571 0.0
O97 O 0.11161 0.52372 0.95078 0.0
C98 C 0.98482 0.44864 0.95473 0.0
C99 C 0.06423 0.53926 0.94753 0.0
Dy100 Dy 0.86415 0.23359 0.94989 0.0
C101 C 0.56081 0.25198 0.95223 0.0
C102 C 1.01332 0.22981 0.94836 0.0
Dy103 Dy 0.70951 0.24928 0.94957 0.0
O104 O 0.97423 0.22561 0.95747 0.0
O105 O 0.97053 0.23535 0.9398 0.0
O106 O 0.84315 0.21563 0.96643 0.0
O107 O 0.79085 0.24659 0.9636 0.0
C108 C 0.79862 0.23042 0.97069 0.0
C109 C 0.77749 0.25158 0.92887 0.0
O110 O 0.75813 0.28089 0.95634 0.0
O111 O 0.87293 0.27148 0.94964 0.0
O112 O 0.59871 0.26305 0.94461 0.0
O113 O 0.60458 0.24022 0.95869 0.0
O114 O 0.72897 0.26597 0.9323 0.0
O115 O 0.78313 0.23596 0.93619 0.0
O116 O 0.81413 0.2009 0.94417 0.0
O117 O 0.69771 0.2119 0.94944 0.0
C118 C 0.82587 0.28652 0.95368 0.0
C119 C 0.74444 0.1962 0.94617 0.0
Dy120 Dy 0.91458 0.23242 0.82701 0.0
C121 C 0.21983 0.24977 0.82788 0.0
C122 C 0.76653 0.22968 0.82989 0.0
Dy123 Dy 0.07068 0.24676 0.82818 0.0
O124 O 0.8035 0.2195 0.82184 0.0
O125 O 0.81078 0.24075 0.8366 0.0
O126 O 0.93201 0.21636 0.8097 0.0
O127 O 0.99081 0.24551 0.81391 0.0
C128 C 0.98176 0.23039 0.8063 0.0
C129 C 0.99709 0.2499 0.84831 0.0
O130 O 0.0282 0.27987 0.82265 0.0
O131 O 0.90806 0.27041 0.82664 0.0
O132 O 0.17945 0.24882 0.83709 0.0
O133 O 0.17858 0.24964 0.81867 0.0
O134 O 0.04506 0.26452 0.84491 0.0
O135 O 0.99294 0.23395 0.84111 0.0
O136 O 0.9644 0.20015 0.83322 0.0
O137 O 0.07767 0.20959 0.82603 0.0
C138 C 0.95901 0.2855 0.82405 0.0
C139 C 0.03178 0.19453 0.83021 0.0
Dy140 Dy 0.86558 0.50143 0.83019 0.0
C141 C 0.56135 0.48449 0.82852 0.0
C142 C 1.01452 0.50468 0.83153 0.0
Dy143 Dy 0.70977 0.48683 0.83102 0.0
O144 O 0.9754 0.50828 0.82234 0.0
O145 O 0.97203 0.49989 0.84023 0.0
O146 O 0.84349 0.51978 0.81376 0.0
O147 O 0.78907 0.48925 0.81675 0.0
C148 C 0.79681 0.50541 0.80967 0.0
C149 C 0.78108 0.48354 0.8514 0.0
O150 O 0.75528 0.45527 0.82382 0.0
O151 O 0.87169 0.4635 0.83026 0.0
O152 O 0.59922 0.47328 0.83609 0.0
O153 O 0.60486 0.49633 0.82207 0.0
O154 O 0.73073 0.46958 0.84813 0.0
O155 O 0.78654 0.49925 0.84413 0.0
O156 O 0.81917 0.5343 0.8362 0.0
O157 O 0.70048 0.52424 0.83167 0.0
C158 C 0.82272 0.449 0.82625 0.0
C159 C 0.74936 0.53948 0.83473 0.0
Dy160 Dy 0.96089 -0.00226 0.58094 0.0
C161 C 0.26807 0.9772 0.58667 0.0
C162 C 0.81193 0.00086 0.58131 0.0
Dy163 Dy 0.12424 0.98093 0.58079 0.0
O164 O 0.85412 -0.0002 0.59033 0.0
O165 O 0.85132 0.00087 0.57187 0.0
O166 O 0.99004 0.01697 0.59714 0.0
O167 O 0.04033 0.98591 0.59382 0.0
C168 C 0.03792 0.0024 0.60068 0.0
C169 C 0.07518 0.98254 0.55881 0.0
O170 O 0.06786 0.94846 0.5852 0.0
O171 O 0.9505 0.9605 0.58038 0.0
O172 O 0.23245 0.96307 0.58013 0.0
O173 O 0.22386 -0.00737 0.59049 0.0
O174 O 0.13995 0.97577 0.5617 0.0
O175 O 0.04028 0.98748 0.56793 0.0
O176 O 1.01125 0.02808 0.57329 0.0
O177 O 0.12905 0.01882 0.57934 0.0
C178 C 0.99731 0.94454 0.58333 0.0
C179 C 0.08058 0.03335 0.57509 0.0
Dy180 Dy 0.34083 0.23406 0.57831 0.0
C181 C 0.03739 0.25168 0.5806 0.0
C182 C 0.49022 0.2309 0.57793 0.0
Dy183 Dy 0.18563 0.2489 0.57766 0.0
O184 O 0.4497 0.23085 0.58714 0.0
O185 O 0.44893 0.23207 0.56874 0.0
O186 O 0.31524 0.2156 0.59488 0.0
O187 O 0.26469 0.24656 0.59153 0.0
C188 C 0.26859 0.23038 0.59855 0.0
C189 C 0.25136 0.25288 0.55693 0.0
O190 O 0.23629 0.28089 0.58416 0.0
O191 O 0.34941 0.27135 0.57692 0.0
O192 O 0.07434 0.26166 0.57249 0.0
O193 O 0.08182 0.24083 0.58737 0.0
O194 O 0.20325 0.26678 0.56101 0.0
O195 O 0.26057 0.23679 0.56402 0.0
O196 O 0.2975 0.20139 0.57222 0.0
O197 O 0.17799 0.21098 0.57652 0.0
C198 C 0.30396 0.2864 0.58123 0.0
C199 C 0.22815 0.1959 0.57356 0.0
Dy200 Dy 0.96605 0.23864 0.69844 0.0
C201 C 0.27184 0.25598 0.69208 0.0
C202 C 0.81742 0.24 0.69741 0.0
Dy203 Dy 0.12907 0.2533 0.6985 0.0
O204 O 0.85426 0.22735 0.70459 0.0
O205 O 0.86172 0.25138 0.69092 0.0
O206 O 0.98937 0.21976 0.68185 0.0
O207 O 0.0452 0.24966 0.68535 0.0
C208 C 0.03977 0.23347 0.67837 0.0
C209 C 0.08379 0.2519 0.72069 0.0
O210 O 0.07361 0.2859 0.69424 0.0
O211 O 0.96368 0.2752 0.70247 0.0
O212 O 0.23637 0.27167 0.6976 0.0
O213 O 0.22818 0.23944 0.68961 0.0
O214 O 0.14866 0.25807 0.71752 0.0
O215 O 0.04617 0.24749 0.71173 0.0
O216 O 1.01224 0.20747 0.70589 0.0
O217 O 0.12982 0.21546 0.69948 0.0
C218 C 1.00708 0.29074 0.69807 0.0
C219 C 0.08052 0.20142 0.70384 0.0
Dy220 Dy 0.34061 0.00102 0.70062 0.0
C221 C 0.0365 0.98309 0.69879 0.0
C222 C 0.48977 0.00448 0.7013 0.0
Dy223 Dy 0.18472 0.98583 0.70164 0.0
O224 O 0.44958 0.00586 0.69206 0.0
O225 O 0.44823 0.00187 0.71036 0.0
O226 O 0.31492 0.01888 0.68394 0.0
O227 O 0.26325 0.98816 0.68763 0.0
C228 C 0.26715 0.00421 0.6805 0.0
C229 C 0.25361 0.98355 0.72225 0.0
O230 O 0.23476 0.95381 0.69524 0.0
O231 O 0.34932 0.96364 0.7019 0.0
O232 O 0.07365 0.97291 0.70682 0.0
O233 O 0.08069 -0.0059 0.69206 0.0
O234 O 0.20515 0.96917 0.71872 0.0
O235 O 0.26046 -0.00102 0.71478 0.0
O236 O 0.29603 0.03362 0.70663 0.0
O237 O 0.17652 0.02375 0.70238 0.0
C238 C 0.30293 0.94845 0.69793 0.0
C239 C 0.22651 0.03896 0.70525 0.0
Dy240 Dy 0.90815 0.00326 0.45216 0.0
C241 C 0.21347 0.99227 0.45205 0.0
C242 C 0.76066 0.00543 0.44858 0.0
Dy243 Dy 0.06433 0.99092 0.45174 0.0
O244 O 0.79833 0.01964 0.4547 0.0
O245 O 0.80392 0.99052 0.44411 0.0
O246 O 0.91652 0.01801 0.46998 0.0
O247 O 0.98236 0.99046 0.46572 0.0
C248 C 0.96833 0.00486 0.47349 0.0
C249 C 0.99718 0.98736 0.43102 0.0
O250 O 1.025 0.95676 0.45618 0.0
O251 O 0.90489 0.96533 0.45174 0.0
O252 O 0.17415 0.9789 0.45845 0.0
O253 O 0.17141 0.00444 0.44558 0.0
O254 O 0.04771 0.97378 0.43456 0.0
O255 O 0.98826 0.003 0.43828 0.0
O256 O 0.95921 0.03557 0.4463 0.0
O257 O 0.06274 0.02718 0.45655 0.0
C258 C 0.95672 0.95056 0.4543 0.0
C259 C 1.02164 0.04194 0.45108 0.0
Dy260 Dy 0.87231 0.734 0.45295 0.0
C261 C 0.5634 0.75025 0.4577 0.0
C262 C 1.02009 0.73537 0.45341 0.0
Dy263 Dy 0.70644 0.74738 0.45204 0.0
O264 O 0.97716 0.74546 0.46066 0.0
O265 O 0.98242 0.72399 0.44578 0.0
O266 O 0.85057 0.71559 0.4695 0.0
O267 O 0.78986 0.74446 0.46569 0.0
C268 C 0.79812 0.72866 0.47292 0.0
C269 C 0.76422 0.7468 0.43041 0.0
O270 O 0.75521 0.78024 0.45688 0.0
O271 O 0.87146 0.77147 0.45019 0.0
O272 O 0.60659 0.73396 0.46073 0.0
O273 O 0.5991 0.76548 0.4519 0.0
O274 O 0.69644 0.75189 0.43241 0.0
O275 O 0.79373 0.74253 0.43998 0.0
O276 O 0.82629 0.70169 0.44611 0.0
O277 O 0.70555 0.70996 0.45096 0.0
C278 C 0.82211 0.78622 0.45384 0.0
C279 C 0.75661 0.69592 0.44727 0.0
Dy280 Dy 0.91189 0.73148 0.331 0.0
C281 C 0.22529 0.7492 0.33194 0.0
C282 C 0.76854 0.72757 0.33681 0.0
Dy283 Dy 0.07667 0.74677 0.33143 0.0
O284 O 0.80429 0.71342 0.33033 0.0
O285 O 0.81217 0.74323 0.34055 0.0
O286 O 0.89642 0.7267 0.31182 0.0
O287 O 0.99648 0.73768 0.3183 0.0
C288 C 0.96186 0.73307 0.3091 0.0
C289 C 1.00047 0.75063 0.35132 0.0
O290 O 0.02882 0.77812 0.32447 0.0
O291 O 0.90989 0.76952 0.33017 0.0
O292 O 0.18328 0.74637 0.34086 0.0
O293 O 0.18603 0.75116 0.32253 0.0
O294 O 0.05048 0.76482 0.34815 0.0
O295 O 0.99631 0.73485 0.34405 0.0
O296 O 0.96668 0.69876 0.3355 0.0
O297 O 0.08375 0.70949 0.32987 0.0
C298 C 0.96 0.78392 0.3263 0.0
C299 C 0.03601 0.69399 0.33308 0.0
Dy300 Dy 0.88604 0.00076 0.32946 0.0
C301 C 0.57326 0.99008 0.32973 0.0
C302 C 0.02825 0.00436 0.33606 0.0
Dy303 Dy 0.72167 0.98769 0.32913 0.0
O304 O 0.98526 0.98777 0.33872 0.0
O305 O 0.99236 0.01955 0.33026 0.0
O306 O 0.90852 0.00394 0.3104 0.0
O307 O 0.80461 -0.00527 0.31607 0.0
C308 C 0.84327 -0.0017 0.30717 0.0
C309 C 0.7917 0.98404 0.34967 0.0
O310 O 0.76599 0.95534 0.32278 0.0
O311 O 0.88341 0.96275 0.32951 0.0
O312 O 0.61775 0.00213 0.33586 0.0
O313 O 0.60976 0.97628 0.32309 0.0
O314 O 0.74083 0.97038 0.3463 0.0
O315 O 0.79962 -0.00061 0.34228 0.0
O316 O 0.83197 0.03409 0.3328 0.0
O317 O 0.72348 0.02371 0.32396 0.0
C318 C 0.83309 0.94875 0.32535 0.0
C319 C 0.7672 0.03924 0.32833 0.0
Dy320 Dy 0.46203 0.49681 0.58134 0.0
C321 C 0.76608 0.47954 0.58241 0.0
C322 C 0.31291 0.50014 0.58067 0.0
Dy323 Dy 0.61785 0.4823 0.5797 0.0
O324 O 0.35296 0.50127 0.58993 0.0
O325 O 0.35452 0.49782 0.5716 0.0
O326 O 0.48683 0.51279 0.59859 0.0
O327 O 0.54058 0.48298 0.59389 0.0
C328 C 0.53607 0.49817 0.60151 0.0
C329 C 0.54821 0.48146 0.55912 0.0
O330 O 0.56862 0.44953 0.58538 0.0
O331 O 0.45337 0.45965 0.57922 0.0
O332 O 0.72882 0.46964 0.57428 0.0
O333 O 0.72207 0.49031 0.58926 0.0
O334 O 0.59718 0.46697 0.5623 0.0
O335 O 0.54111 0.49631 0.56693 0.0
O336 O 0.50487 0.53004 0.57607 0.0
O337 O 0.62514 0.52033 0.57977 0.0
C338 C 0.50023 0.44425 0.58275 0.0
C339 C 0.57422 0.53557 0.5774 0.0
Dy340 Dy 0.81947 0.73855 0.5805 0.0
C341 C 0.51328 0.75523 0.58749 0.0
C342 C 0.96797 0.7409 0.58105 0.0
Dy343 Dy 0.65547 0.75163 0.5809 0.0
O344 O 0.93123 0.72708 0.57444 0.0
O345 O 0.92366 0.753 0.58717 0.0
O346 O 0.8011 0.72119 0.59766 0.0
O347 O 0.742 0.75024 0.59369 0.0
C348 C 0.75035 0.73485 0.60105 0.0
C349 C 0.69615 0.74839 0.55855 0.0
O350 O 0.70938 0.78491 0.58422 0.0
O351 O 0.81754 0.77459 0.57534 0.0
O352 O 0.54917 0.77044 0.58171 0.0
O353 O 0.5563 0.73864 0.59014 0.0
O354 O 0.63142 0.7542 0.56192 0.0
O355 O 0.73621 0.74523 0.56736 0.0
O356 O 0.77466 0.70619 0.57426 0.0
O357 O 0.65814 0.71373 0.58127 0.0
C358 C 0.774 0.79008 0.57976 0.0
C359 C 0.70781 0.69967 0.57701 0.0
Dy360 Dy 0.45294 0.73707 0.70125 0.0
C361 C 0.75781 0.75567 0.70097 0.0
C362 C 0.30461 0.73434 0.70392 0.0
Dy363 Dy 0.60869 0.75221 0.70194 0.0
O364 O 0.34202 0.72413 0.69594 0.0
O365 O 0.34861 0.74534 0.71071 0.0
O366 O 0.47245 0.72007 0.68409 0.0
O367 O 0.5287 0.7498 0.68808 0.0
C368 C 0.52248 0.73409 0.6808 0.0
C369 C 0.53991 0.75558 0.72248 0.0
O370 O 0.56148 0.78499 0.69612 0.0
O371 O 0.44311 0.77456 0.70065 0.0
O372 O 0.71828 0.75754 0.71023 0.0
O373 O 0.71562 0.75256 0.692 0.0
O374 O 0.58546 0.77031 0.71843 0.0
O375 O 0.53333 0.73944 0.71536 0.0
O376 O 0.50079 0.70513 0.70767 0.0
O377 O 0.61585 0.71448 0.70105 0.0
C378 C 0.49161 0.78997 0.69764 0.0
C379 C 0.56829 0.69944 0.70489 0.0
Dy380 Dy 0.84421 0.49967 0.70145 0.0
C381 C 0.53191 0.48483 0.70356 0.0
C382 C 0.98832 0.50257 0.7066 0.0
Dy383 Dy 0.68 0.48455 0.70297 0.0
O384 O 0.9451 0.48656 0.70996 0.0
O385 O 0.95207 0.51768 0.70077 0.0
O386 O 0.8512 0.50271 0.68167 0.0
O387 O 0.75645 0.49283 0.68971 0.0
C388 C 0.78392 0.49667 0.67996 0.0
C389 C 0.75696 0.48165 0.72288 0.0
O390 O 0.72952 0.45224 0.69673 0.0
O391 O 0.84771 0.46232 0.70201 0.0
O392 O 0.5745 0.49482 0.71091 0.0
O393 O 0.57015 0.47397 0.69582 0.0
O394 O 0.70675 0.46746 0.71975 0.0
O395 O 0.76197 0.49701 0.71533 0.0
O396 O 0.79332 0.53218 0.70619 0.0
O397 O 0.67716 0.52197 0.69994 0.0
C398 C 0.79942 0.44727 0.69847 0.0
C399 C 0.72528 0.53733 0.70337 0.0
Dy400 Dy 0.43463 0.50232 0.45227 0.0
C401 C 0.73872 0.48448 0.45316 0.0
C402 C 0.28561 0.5057 0.45125 0.0
Dy403 Dy 0.59028 0.48698 0.45071 0.0
O404 O 0.32505 0.50758 0.46055 0.0
O405 O 0.32783 0.50262 0.44231 0.0
O406 O 0.46066 0.52086 0.4685 0.0
O407 O 0.51346 0.49009 0.4653 0.0
C408 C 0.50773 0.50638 0.47238 0.0
C409 C 0.51455 0.48308 0.43082 0.0
O410 O 0.54498 0.45491 0.45734 0.0
O411 O 0.42624 0.46447 0.45248 0.0
O412 O 0.70118 0.4747 0.44502 0.0
O413 O 0.69486 0.49494 0.46018 0.0
O414 O 0.56578 0.46922 0.43388 0.0
O415 O 0.51088 0.4991 0.43796 0.0
O416 O 0.48109 0.53525 0.44637 0.0
O417 O 0.60142 0.52429 0.44908 0.0
C418 C 0.47586 0.44944 0.45567 0.0
C419 C 0.55191 0.53983 0.44676 0.0
Dy420 Dy 0.35156 0.23488 0.44942 0.0
C421 C 0.04687 0.25381 0.44812 0.0
C422 C 0.49984 0.23192 0.44664 0.0
Dy423 Dy 0.19617 0.2505 0.44788 0.0
O424 O 0.46296 0.22295 0.45508 0.0
O425 O 0.45532 0.2418 0.4395 0.0
O426 O 0.32954 0.21809 0.46634 0.0
O427 O 0.27456 0.2481 0.46236 0.0
C428 C 0.28113 0.23253 0.46981 0.0
C429 C 0.27215 0.25341 0.428 0.0
O430 O 0.24026 0.28354 0.45327 0.0
O431 O 0.36111 0.27276 0.45076 0.0
O432 O 0.08734 0.2524 0.43892 0.0
O433 O 0.0882 0.2541 0.45732 0.0
O434 O 0.22422 0.26819 0.43126 0.0
O435 O 0.27455 0.23738 0.43517 0.0
O436 O 0.30104 0.20248 0.44352 0.0
O437 O 0.18604 0.21329 0.44954 0.0
C438 C 0.31064 0.28833 0.45277 0.0
C439 C 0.232 0.19769 0.44592 0.0
Dy440 Dy 0.41484 0.23007 0.32814 0.0
C441 C 0.72729 0.2502 0.3288 0.0
C442 C 0.27102 0.22625 0.33392 0.0
Dy443 Dy 0.57841 0.24704 0.32845 0.0
O444 O 0.30656 0.21226 0.32732 0.0
O445 O 0.31526 0.24158 0.33785 0.0
O446 O 0.40019 0.22494 0.30894 0.0
O447 O 0.49885 0.23694 0.31544 0.0
C448 C 0.46498 0.23193 0.30622 0.0
C449 C 0.50119 0.25125 0.34819 0.0
O450 O 0.52777 0.27771 0.3212 0.0
O451 O 0.40992 0.26804 0.32702 0.0
O452 O 0.68536 0.24882 0.33782 0.0
O453 O 0.68767 0.2505 0.31937 0.0
O454 O 0.5494 0.26582 0.34478 0.0
O455 O 0.49891 0.23491 0.34122 0.0
O456 O 0.47174 0.19764 0.33258 0.0
O457 O 0.58897 0.20979 0.32777 0.0
C458 C 0.45846 0.28287 0.32308 0.0
C459 C 0.54235 0.19377 0.33072 0.0
Dy460 Dy 0.35497 0.49852 0.33073 0.0
C461 C 0.05115 0.48101 0.32911 0.0
C462 C 0.50398 0.50195 0.3322 0.0
Dy463 Dy 0.19982 0.48341 0.33151 0.0
O464 O 0.46503 0.50561 0.32299 0.0
O465 O 0.46122 0.49706 0.34085 0.0
O466 O 0.33269 0.51706 0.31441 0.0
O467 O 0.27904 0.48628 0.3172 0.0
C468 C 0.28657 0.50262 0.31021 0.0
C469 C 0.27132 0.48056 0.35193 0.0
O470 O 0.24569 0.45195 0.32424 0.0
O471 O 0.36221 0.46051 0.33051 0.0
O472 O 0.08928 0.46985 0.33667 0.0
O473 O 0.09457 0.49278 0.32261 0.0
O474 O 0.22186 0.4663 0.34865 0.0
O475 O 0.27594 0.49623 0.34464 0.0
O476 O 0.30697 0.53146 0.3365 0.0
O477 O 0.18891 0.52077 0.33197 0.0
C478 C 0.31355 0.44587 0.32651 0.0
C479 C 0.23693 0.53633 0.33493 0.0
Dy480 Dy 0.4759 -0.00273 0.07754 0.0
C481 C 0.7918 0.97986 0.08499 0.0
C482 C 0.33095 0.00283 0.0732 0.0
Dy483 Dy 0.64876 0.9823 0.0787 0.0
O484 O 0.37135 0.98706 0.06872 0.0
O485 O 0.37097 0.01625 0.07946 0.0
O486 O 0.46355 -0.00063 0.09736 0.0
O487 O 0.5595 0.98972 0.08998 0.0
C488 C 0.52997 -0.00679 0.09958 0.0
C489 C 0.602 0.98605 0.05656 0.0
O490 O 0.58953 0.95001 0.08307 0.0
O491 O 0.4735 0.96014 0.07615 0.0
O492 O 0.74774 -0.00375 0.08754 0.0
O493 O 0.75631 0.96401 0.07956 0.0
O494 O 0.66734 0.97974 0.05945 0.0
O495 O 0.56594 0.98934 0.06575 0.0
O496 O 0.53002 0.02918 0.07247 0.0
O497 O 0.64919 0.02015 0.07842 0.0
C498 C 0.52106 0.94505 0.07996 0.0
C499 C 0.59873 0.03465 0.07479 0.0
Dy500 Dy 0.86652 0.23481 0.0797 0.0
C501 C 0.56195 0.25357 0.07929 0.0
C502 C 1.01493 0.23234 0.0772 0.0
Dy503 Dy 0.71091 0.24997 0.07814 0.0
O504 O 0.9776 0.2225 0.08533 0.0
O505 O 0.97088 0.24284 0.07023 0.0
O506 O 0.84432 0.21819 0.09684 0.0
O507 O 0.78807 0.24772 0.09244 0.0
C508 C 0.79319 0.23212 0.09982 0.0
C509 C 0.78354 0.25239 0.05789 0.0
O510 O 0.7576 0.283 0.08384 0.0
O511 O 0.877 0.27224 0.08033 0.0
O512 O 0.60128 0.25663 0.07007 0.0
O513 O 0.60426 0.24919 0.08808 0.0
O514 O 0.73748 0.26741 0.06151 0.0
O515 O 0.78822 0.23668 0.06527 0.0
O516 O 0.82129 0.20248 0.07346 0.0
O517 O 0.70245 0.21205 0.07823 0.0
C518 C 0.828 0.2878 0.08285 0.0
C519 C 0.75236 0.19697 0.07522 0.0
Dy520 Dy 0.48394 0.23735 0.19921 0.0
C521 C 0.79122 0.25679 0.19365 0.0
C522 C 0.33512 0.23509 0.19853 0.0
Dy523 Dy 0.64788 0.25241 0.19951 0.0
O524 O 0.37745 0.23897 0.18975 0.0
O525 O 0.37417 0.23198 0.20788 0.0
O526 O 0.51028 0.21913 0.1826 0.0
O527 O 0.56331 0.24952 0.18642 0.0
C528 C 0.55884 0.23359 0.17923 0.0
C529 C 0.60134 0.24932 0.22159 0.0
O530 O 0.59325 0.2855 0.19575 0.0
O531 O 0.47698 0.27439 0.20149 0.0
O532 O 0.75552 0.27044 0.20042 0.0
O533 O 0.74741 0.24143 0.18962 0.0
O534 O 0.66662 0.25547 0.21867 0.0
O535 O 0.56462 0.24557 0.21247 0.0
O536 O 0.53159 0.20575 0.20586 0.0
O537 O 0.64961 0.21436 0.19976 0.0
C538 C 0.52419 0.2901 0.1984 0.0
C539 C 0.59992 0.19989 0.20369 0.0
Dy540 Dy 0.83207 -0.00501 0.19969 0.0
C541 C 0.52509 0.97848 0.19357 0.0
C542 C 0.98028 0.99221 0.19932 0.0
Dy543 Dy 0.66722 0.98292 0.20001 0.0
O544 O 0.94395 0.00753 0.20501 0.0
O545 O 0.93573 0.97879 0.194 0.0
O546 O 0.81518 0.00971 0.18185 0.0
O547 O 0.75257 0.98217 0.18703 0.0
C548 C 0.76216 -0.00366 0.17908 0.0
C549 C 0.71028 0.98838 0.22211 0.0
O550 O 0.71979 0.94886 0.19816 0.0
O551 O 0.82897 0.96011 0.20642 0.0
O552 O 0.56112 0.96403 0.19983 0.0
O553 O 0.56778 -0.00518 0.19043 0.0
O554 O 0.64433 0.98307 0.2191 0.0
O555 O 0.74941 0.99032 0.21311 0.0
O556 O 0.78973 0.0281 0.20521 0.0
O557 O 0.67179 0.02081 0.19871 0.0
C558 C 0.78462 0.94414 0.20274 0.0
C559 C 0.72299 0.03485 0.20255 0.0
Dy560 Dy 0.41505 0.00177 0.95006 0.0
C561 C 0.72821 0.98348 0.94936 0.0
C562 C 0.27163 0.00526 0.94411 0.0
Dy563 Dy 0.57954 0.9862 0.94987 0.0
O564 O 0.30713 0.01967 0.95049 0.0
O565 O 0.31559 0.98955 0.94054 0.0
O566 O 0.39999 0.00792 0.96914 0.0
O567 O 0.49986 -0.00357 0.96283 0.0
C568 C 0.46544 0.00165 0.97195 0.0
C569 C 0.5017 0.98069 0.93023 0.0
O570 O 0.53209 0.95581 0.95782 0.0
O571 O 0.41296 0.96377 0.95194 0.0
O572 O 0.68588 0.98503 0.94037 0.0
O573 O 0.6892 0.98293 0.95883 0.0
O574 O 0.55071 0.96647 0.93375 0.0
O575 O 0.49894 -0.0028 0.93705 0.0
O576 O 0.47001 0.03426 0.9451 0.0
O577 O 0.58764 0.02351 0.95047 0.0
C578 C 0.46329 0.9498 0.95619 0.0
C579 C 0.53988 0.03896 0.94718 0.0
Dy580 Dy 0.3965 0.73332 0.95199 0.0
C581 C 0.08369 0.7492 0.955 0.0
C582 C 0.54025 0.72835 0.94655 0.0
Dy583 Dy 0.23154 0.74793 0.95212 0.0
O584 O 0.50261 0.71474 0.95303 0.0
O585 O 0.49822 0.74421 0.94255 0.0
O586 O 0.41434 0.72884 0.97118 0.0
O587 O 0.31324 0.73927 0.96503 0.0
C588 C 0.34908 0.7349 0.97413 0.0
C589 C 0.30311 0.75261 0.93183 0.0
O590 O 0.2818 0.77764 0.96059 0.0
O591 O 0.39699 0.77127 0.9528 0.0
O592 O 0.12116 0.76359 0.94897 0.0
O593 O 0.12739 0.73479 0.95983 0.0
O594 O 0.25 0.76562 0.93505 0.0
O595 O 0.31062 0.73691 0.93905 0.0
O596 O 0.3445 0.70008 0.94752 0.0
O597 O 0.22249 0.7109 0.9494 0.0
C598 C 0.34808 0.78467 0.95781 0.0
C599 C 0.27342 0.69549 0.9476 0.0
Dy600 Dy 0.43655 0.73428 0.83002 0.0
C601 C 0.74142 0.75337 0.83043 0.0
C602 C 0.28831 0.7314 0.83291 0.0
Dy603 Dy 0.59215 0.74987 0.83098 0.0
O604 O 0.3254 0.72126 0.82485 0.0
O605 O 0.33262 0.74239 0.83965 0.0
O606 O 0.45641 0.71769 0.81289 0.0
O607 O 0.51171 0.74756 0.81685 0.0
C608 C 0.50449 0.73215 0.80935 0.0
C609 C 0.51865 0.75314 0.85108 0.0
O610 O 0.54664 0.78239 0.82497 0.0
O611 O 0.4275 0.77215 0.82924 0.0
O612 O 0.70118 0.75404 0.83967 0.0
O613 O 0.69986 0.7515 0.8213 0.0
O614 O 0.56575 0.76793 0.84758 0.0
O615 O 0.51547 0.73695 0.84401 0.0
O616 O 0.48781 0.70246 0.83642 0.0
O617 O 0.60137 0.71254 0.8295 0.0
C618 C 0.47692 0.7875 0.82635 0.0
C619 C 0.55584 0.69727 0.8336 0.0
Dy620 Dy 0.35597 0.00169 0.82992 0.0
C621 C 0.0511 0.98204 0.82947 0.0
C622 C 0.50424 0.00439 0.83304 0.0
Dy623 Dy 0.20039 0.98577 0.83025 0.0
O624 O 0.46726 0.01513 0.82518 0.0
O625 O 0.45976 -0.00711 0.83949 0.0
O626 O 0.33822 0.01956 0.81324 0.0
O627 O 0.2814 0.98948 0.81624 0.0
C628 C 0.29009 0.00562 0.80918 0.0
C629 C 0.27306 0.9815 0.85042 0.0
O630 O 0.24682 0.95378 0.82371 0.0
O631 O 0.36532 0.96394 0.82847 0.0
O632 O 0.09146 0.97964 0.83863 0.0
O633 O 0.0926 0.98577 0.8205 0.0
O634 O 0.22637 0.96681 0.84664 0.0
O635 O 0.27605 -0.00197 0.8436 0.0
O636 O 0.30407 0.03323 0.83666 0.0
O637 O 0.18999 0.02311 0.82985 0.0
C638 C 0.31646 0.94869 0.82521 0.0
C639 C 0.23541 0.03829 0.8341 0.0
H640 H 0.08206 0.41088 0.0941 0.0
H641 H 0.90651 0.42731 0.07045 0.0
H642 H 0.03135 0.37305 0.0964 0.0
H643 H 0.85724 0.38979 0.07257 0.0
H644 H 0.74862 0.32681 0.08528 0.0
H645 H 0.79642 0.36518 0.08629 0.0
H646 H 1.01648 0.33932 0.08484 0.0
H647 H 0.96947 0.30135 0.08414 0.0
C648 C 0.03316 0.40639 0.08934 0.0
C649 C 0.99855 0.42207 0.08208 0.0
C650 C 1.00398 0.38478 0.09067 0.0
C651 C 0.93978 0.37849 0.08475 0.0
C652 C 0.90569 0.39421 0.07746 0.0
C653 C 0.93462 0.41569 0.07615 0.0
C654 C 0.80712 0.32935 0.08533 0.0
C655 C 0.85502 0.31103 0.08449 0.0
C656 C 0.83456 0.3513 0.08585 0.0
C657 C 0.91033 0.35529 0.08556 0.0
C658 C 0.95798 0.33688 0.0852 0.0
C659 C 0.93072 0.31505 0.08468 0.0
H660 H 0.57423 0.90972 0.09303 0.0
H661 H 0.40199 0.92798 0.06911 0.0
H662 H 0.51744 0.87267 0.09553 0.0
H663 H 0.3466 0.89144 0.07152 0.0
H664 H 0.22539 0.83128 0.08507 0.0
H665 H 0.2809 0.86877 0.0857 0.0
H666 H 0.49532 0.83878 0.08419 0.0
H667 H 0.44089 0.80179 0.08384 0.0
C668 C 0.52492 0.90579 0.08825 0.0
C669 C 0.49264 0.92184 0.08093 0.0
C670 C 0.49215 0.88466 0.08971 0.0
C671 C 0.42672 0.87928 0.08387 0.0
C672 C 0.39564 0.89523 0.07641 0.0
C673 C 0.4281 0.91617 0.07495 0.0
C674 C 0.28427 0.83276 0.08501 0.0
C675 C 0.32842 0.81356 0.08422 0.0
C676 C 0.31614 0.85418 0.08532 0.0
C677 C 0.39263 0.85673 0.08491 0.0
C678 C 0.43645 0.83746 0.08462 0.0
C679 C 0.40485 0.8162 0.08428 0.0
H680 H 0.72469 0.90563 0.19338 0.0
H681 H 0.9111 0.93008 0.21273 0.0
H682 H 0.78085 0.86824 0.19262 0.0
H683 H 0.96617 0.89315 0.21194 0.0
H684 H 0.07833 0.82991 0.19803 0.0
H685 H 1.02134 0.86722 0.1974 0.0
H686 H 0.81356 0.83774 0.20635 0.0
H687 H 0.86923 0.8009 0.20688 0.0
C688 C 0.777 0.90302 0.19755 0.0
C689 C 0.81317 0.92087 0.20309 0.0
C690 C 0.80931 0.88168 0.19708 0.0
C691 C 0.87844 0.8779 0.20209 0.0
C692 C 0.91373 0.89565 0.20778 0.0
C693 C 0.8815 0.91681 0.20832 0.0
C694 C 1.02058 0.83146 0.19985 0.0
C695 C 0.97877 0.81246 0.20263 0.0
C696 C 0.98794 0.85277 0.19951 0.0
C697 C 0.91288 0.85535 0.20182 0.0
C698 C 0.87117 0.83628 0.2044 0.0
C699 C 0.90364 0.81516 0.20483 0.0
H700 H 0.2429 0.40797 0.19226 0.0
H701 H 0.45592 0.43356 0.20163 0.0
H702 H 0.29453 0.37009 0.19081 0.0
H703 H 0.50616 0.39612 0.2005 0.0
H704 H 0.59096 0.32785 0.18943 0.0
H705 H 0.53891 0.36562 0.18781 0.0
H706 H 0.34075 0.34234 0.20417 0.0
H707 H 0.39134 0.30495 0.20558 0.0
C708 C 0.30046 0.40557 0.19399 0.0
C709 C 0.3449 0.42381 0.19713 0.0
C710 C 0.33009 0.38389 0.19319 0.0
C711 C 0.4046 0.38008 0.19555 0.0
C712 C 0.44899 0.39844 0.19843 0.0
C713 C 0.41965 0.41997 0.19919 0.0
C714 C 0.53639 0.33085 0.19268 0.0
C715 C 0.49564 0.31335 0.19765 0.0
C716 C 0.50647 0.35246 0.19175 0.0
C717 C 0.43535 0.35696 0.19579 0.0
C718 C 0.39492 0.33941 0.20074 0.0
C719 C 0.42455 0.31794 0.20165 0.0
H720 H 0.20199 0.55079 0.94151 0.0
H721 H 0.9916 0.57941 0.94957 0.0
H722 H 0.25411 0.58816 0.93996 0.0
H723 H 0.04449 0.61707 0.94857 0.0
H724 H 0.14419 0.68288 0.93812 0.0
H725 H 0.09364 0.64524 0.93666 0.0
H726 H 0.29118 0.61815 0.95175 0.0
H727 H 0.34291 0.65593 0.95269 0.0
C728 C 0.16684 0.56515 0.94299 0.0
C729 C 0.09274 0.56221 0.94574 0.0
C730 C 0.19695 0.58662 0.94218 0.0
C731 C 0.15402 0.60574 0.94427 0.0
C732 C 0.07921 0.60278 0.94675 0.0
C733 C 0.04874 0.58121 0.94737 0.0
C734 C 0.17718 0.66882 0.941 0.0
C735 C 0.24747 0.67232 0.94557 0.0
C736 C 0.14787 0.64723 0.94026 0.0
C737 C 0.18765 0.62857 0.94423 0.0
C738 C 0.25907 0.63204 0.94847 0.0
C739 C 0.28889 0.65369 0.94904 0.0
H740 H 0.60686 0.18199 0.95102 0.0
H741 H 0.81473 0.15811 0.93825 0.0
H742 H 0.55753 0.14445 0.9498 0.0
H743 H 0.76387 0.12014 0.93671 0.0
H744 H 0.67787 0.05357 0.95163 0.0
H745 H 0.72674 0.09107 0.94984 0.0
H746 H 0.5183 0.11471 0.93723 0.0
H747 H 0.46797 0.07681 0.93933 0.0
C748 C 0.6421 0.16876 0.94781 0.0
C749 C 0.71526 0.17311 0.94481 0.0
C750 C 0.61323 0.14717 0.947 0.0
C751 C 0.65644 0.12923 0.94313 0.0
C752 C 0.72926 0.13357 0.93986 0.0
C753 C 0.75846 0.15531 0.94071 0.0
C754 C 0.64199 0.06664 0.94844 0.0
C755 C 0.56845 0.06212 0.94571 0.0
C756 C 0.67061 0.08821 0.94729 0.0
C757 C 0.62676 0.10595 0.94335 0.0
C758 C 0.55345 0.10144 0.94041 0.0
C759 C 0.52454 0.07974 0.94159 0.0
H760 H 0.16008 0.17758 0.82236 0.0
H761 H 0.96792 0.15946 0.84202 0.0
H762 H 0.20999 0.14041 0.82537 0.0
H763 H 1.01925 0.12196 0.84525 0.0
H764 H 0.09352 0.05121 0.83317 0.0
H765 H 0.04456 0.08892 0.83373 0.0
H766 H 0.26084 0.11536 0.83985 0.0
H767 H 0.31086 0.07722 0.83896 0.0
C768 C 0.12849 0.16568 0.82741 0.0
C769 C 0.05967 0.17147 0.83192 0.0
C770 C 0.15773 0.14439 0.82924 0.0
C771 C 0.11909 0.12828 0.83565 0.0
C772 C 0.05022 0.13401 0.84021 0.0
C773 C 1.0207 0.15543 0.83835 0.0
C774 C 0.13096 0.06499 0.83471 0.0
C775 C 0.20648 0.06124 0.83582 0.0
C776 C 0.1025 0.08665 0.83516 0.0
C777 C 0.14872 0.10517 0.83676 0.0
C778 C 0.22394 0.1014 0.83843 0.0
C779 C 0.2526 0.0796 0.83798 0.0
H780 H 0.6858 0.68088 0.82606 0.0
H781 H 0.49086 0.66157 0.84469 0.0
H782 H 0.73391 0.64325 0.82818 0.0
H783 H 0.54047 0.62368 0.84711 0.0
H784 H 0.60896 0.55395 0.83353 0.0
H785 H 0.5637 0.59197 0.83479 0.0
H786 H 0.78214 0.616 0.84162 0.0
H787 H 0.82855 0.57754 0.83999 0.0
C788 C 0.65333 0.66864 0.83072 0.0
C789 C 0.58407 0.6742 0.83514 0.0
C790 C 0.68149 0.64707 0.83205 0.0
C791 C 0.64135 0.63047 0.83787 0.0
C792 C 0.57249 0.63607 0.84247 0.0
C793 C 0.54399 0.65774 0.84109 0.0
C794 C 0.64774 0.56723 0.83537 0.0
C795 C 0.72278 0.56269 0.83652 0.0
C796 C 0.62136 0.58909 0.83622 0.0
C797 C 0.66916 0.60705 0.83829 0.0
C798 C 0.744 0.60251 0.83986 0.0
C799 C 0.77061 0.5805 0.83898 0.0
H800 H 0.07023 0.904 0.5843 0.0
H801 H 0.85423 0.93321 0.58485 0.0
H802 H 1.01549 0.8664 0.58436 0.0
H803 H 0.80045 0.89615 0.58457 0.0
H804 H 0.72381 0.82531 0.59296 0.0
H805 H 0.78113 0.86214 0.59539 0.0
H806 H 0.94729 0.84369 0.57052 0.0
H807 H 0.8913 0.807 0.56827 0.0
C808 C 1.01139 0.90243 0.58452 0.0
C809 C 0.96681 0.9216 0.58443 0.0
C810 C 0.97996 0.88094 0.58447 0.0
C811 C 0.9035 0.87829 0.58438 0.0
C812 C 0.85936 0.89751 0.58475 0.0
C813 C 0.89053 0.91883 0.58479 0.0
C814 C 0.7721 0.82925 0.58794 0.0
C815 C 0.8028 0.81326 0.58041 0.0
C816 C 0.80518 0.85029 0.58936 0.0
C817 C 0.86935 0.85575 0.58324 0.0
C818 C 0.89904 0.83986 0.57557 0.0
C819 C 0.86626 0.81889 0.57418 0.0
H820 H 0.4394 0.30177 0.57586 0.0
H821 H 0.2333 0.32328 0.59037 0.0
H822 H 0.48702 0.33947 0.57779 0.0
H823 H 0.28232 0.36135 0.59256 0.0
H824 H 0.36261 0.42946 0.57837 0.0
H825 H 0.3157 0.39158 0.57956 0.0
H826 H 0.52618 0.36811 0.59137 0.0
H827 H 0.5744 0.4064 0.58991 0.0
C828 C 0.4042 0.31451 0.57957 0.0
C829 C 0.33204 0.30951 0.58286 0.0
C830 C 0.43208 0.33615 0.58079 0.0
C831 C 0.38872 0.35342 0.58536 0.0
C832 C 0.31692 0.34841 0.58889 0.0
C833 C 0.2888 0.32663 0.58766 0.0
C834 C 0.39928 0.41632 0.58127 0.0
C835 C 0.47273 0.42098 0.58395 0.0
C836 C 0.37185 0.39457 0.58207 0.0
C837 C 0.41697 0.37681 0.58559 0.0
C838 C 0.49016 0.38144 0.58852 0.0
C839 C 0.51782 0.40334 0.5877 0.0
H840 H 0.87528 0.30551 0.70583 0.0
H841 H 0.06963 0.32797 0.68797 0.0
H842 H 0.82326 0.34275 0.70421 0.0
H843 H 1.01615 0.36546 0.68612 0.0
H844 H 0.94013 0.43348 0.7004 0.0
H845 H 0.98839 0.39595 0.69901 0.0
H846 H 0.77333 0.37052 0.69097 0.0
H847 H 0.72346 0.40864 0.6927 0.0
C848 C 0.90704 0.31838 0.7015 0.0
C849 C 0.97725 0.31378 0.69714 0.0
C850 C 0.87651 0.33972 0.70045 0.0
C851 C 0.91524 0.35707 0.69499 0.0
C852 C 0.98514 0.35247 0.69047 0.0
C853 C 1.0159 0.33103 0.69155 0.0
C854 C 0.90252 0.42003 0.69828 0.0
C855 C 0.82737 0.42413 0.69678 0.0
C856 C 0.93077 0.39843 0.69736 0.0
C857 C 0.88495 0.38022 0.69486 0.0
C858 C 0.80997 0.38424 0.69304 0.0
C859 C 0.78138 0.40604 0.69398 0.0
H860 H 0.35291 0.80508 0.7007 0.0
H861 H 0.56863 0.82739 0.69078 0.0
H862 H 0.308 0.84317 0.6992 0.0
H863 H 0.52252 0.86581 0.68895 0.0
H864 H 0.43643 0.9324 0.70401 0.0
H865 H 0.48222 0.89445 0.70226 0.0
H866 H 0.27925 0.87378 0.68635 0.0
H867 H 0.23204 0.91205 0.6884 0.0
C868 C 0.3908 0.81808 0.69805 0.0
C869 C 0.46477 0.81319 0.69597 0.0
C870 C 0.36461 0.83996 0.69708 0.0
C871 C 0.41154 0.85755 0.69396 0.0
C872 C 0.48514 0.85263 0.69152 0.0
C873 C 0.51157 0.83064 0.69254 0.0
C874 C 0.40131 0.91986 0.70009 0.0
C875 C 0.33015 0.92525 0.69643 0.0
C876 C 0.42811 0.89808 0.69897 0.0
C877 C 0.38463 0.88108 0.69413 0.0
C878 C 0.31386 0.88649 0.69023 0.0
C879 C 0.2868 0.90839 0.69139 0.0
H880 H 0.96612 0.0763 0.43776 0.0
H881 H 0.14371 0.05954 0.46097 0.0
H882 H 1.02003 0.11346 0.43468 0.0
H883 H 0.19634 0.09648 0.45805 0.0
H884 H 0.30808 0.15798 0.44364 0.0
H885 H 0.25704 0.11989 0.44356 0.0
H886 H 0.03958 0.14756 0.4458 0.0
H887 H 0.08973 0.18518 0.44561 0.0
C888 C 1.01615 0.08058 0.44227 0.0
C889 C 0.05032 0.065 0.44964 0.0
C890 C 0.04718 0.10182 0.44048 0.0
C891 C 0.11289 0.10783 0.44604 0.0
C892 C 0.14664 0.09223 0.45344 0.0
C893 C 0.11579 0.07111 0.45521 0.0
C894 C 0.24944 0.15586 0.44395 0.0
C895 C 0.20317 0.17458 0.44477 0.0
C896 C 0.22017 0.13409 0.44397 0.0
C897 C 0.14419 0.13072 0.44475 0.0
C898 C 0.09815 0.14951 0.44508 0.0
C899 C 0.12721 0.17113 0.44509 0.0
H900 H 0.62642 0.68376 0.43827 0.0
H901 H 0.83034 0.65629 0.45053 0.0
H902 H 0.5765 0.64612 0.43631 0.0
H903 H 0.77946 0.61837 0.44906 0.0
H904 H 0.68564 0.55156 0.43875 0.0
H905 H 0.73706 0.58903 0.43697 0.0
H906 H 0.53278 0.61752 0.44863 0.0
H907 H 0.48046 0.57985 0.44995 0.0
C908 C 0.66072 0.66956 0.44049 0.0
C909 C 0.7321 0.67288 0.44462 0.0
C910 C 0.63184 0.64798 0.43947 0.0
C911 C 0.67327 0.62915 0.44271 0.0
C912 C 0.74604 0.63245 0.44638 0.0
C913 C 0.77538 0.65414 0.44724 0.0
C914 C 0.65141 0.56586 0.44082 0.0
C915 C 0.57905 0.5628 0.44456 0.0
C916 C 0.68116 0.58736 0.43987 0.0
C917 C 0.6396 0.60636 0.44278 0.0
C918 C 0.56629 0.60331 0.44617 0.0
C919 C 0.53615 0.58173 0.44697 0.0
H920 H 0.31313 0.57514 0.3401 0.0
H921 H 0.09613 0.55013 0.33292 0.0
H922 H 0.26415 0.6134 0.34116 0.0
H923 H 0.04846 0.58789 0.33361 0.0
H924 H 0.96968 0.65736 0.34323 0.0
H925 H 1.02039 0.61959 0.34552 0.0
H926 H 0.21638 0.64052 0.3277 0.0
H927 H 0.16709 0.67802 0.32568 0.0
C928 C 0.25523 0.57775 0.3388 0.0
C929 C 0.20893 0.55955 0.33634 0.0
C930 C 0.22712 0.59965 0.33934 0.0
C931 C 0.15225 0.60375 0.33743 0.0
C932 C 0.10602 0.58542 0.33531 0.0
C933 C 0.13386 0.56367 0.3348 0.0
C934 C 1.02349 0.65385 0.3398 0.0
C935 C 0.06402 0.67073 0.33425 0.0
C936 C 0.05268 0.63222 0.34112 0.0
C937 C 0.12277 0.62703 0.33684 0.0
C938 C 0.16304 0.64398 0.33132 0.0
C939 C 0.13417 0.66551 0.33006 0.0
H940 H 0.65015 0.05588 0.31664 0.0
H941 H 0.8174 0.07494 0.34128 0.0
H942 H 0.59411 0.09259 0.31856 0.0
H943 H 0.76004 0.11188 0.34335 0.0
H944 H 0.68571 0.18265 0.33225 0.0
H945 H 0.7401 0.14566 0.33226 0.0
H946 H 0.52554 0.11558 0.3322 0.0
H947 H 0.47019 0.15309 0.33186 0.0
C948 C 0.67514 0.06793 0.32248 0.0
C949 C 0.73851 0.06247 0.3288 0.0
C950 C 0.64232 0.08894 0.32367 0.0
C951 C 0.67185 0.10508 0.33122 0.0
C952 C 0.73605 0.09982 0.33742 0.0
C953 C 0.76915 0.07872 0.3362 0.0
C954 C 0.64964 0.16822 0.33227 0.0
C955 C 0.57329 0.17087 0.33189 0.0
C956 C 0.68117 0.14694 0.3324 0.0
C957 C 0.63737 0.12763 0.33217 0.0
C958 C 0.56085 0.13017 0.33221 0.0
C959 C 0.52905 0.15162 0.3321 0.0
H960 H 0.13374 0.46762 0.11142 0.0
H961 H 0.04192 0.53346 0.11734 0.0
H962 H 0.18698 0.46813 0.13096 0.0
H963 H 0.09553 0.53405 0.13684 0.0
H964 H 0.19839 0.46834 0.17129 0.0
H965 H 0.14268 0.46785 0.15191 0.0
H966 H 0.22153 0.5352 0.14575 0.0
H967 H 0.27751 0.53562 0.16507 0.0
C968 C 0.12502 0.4822 0.1169 0.0
C969 C 0.08355 0.50048 0.11289 0.0
C970 C 0.15513 0.48244 0.1281 0.0
C971 C 0.14524 0.5011 0.13545 0.0
C972 C 0.10444 0.51949 0.13136 0.0
C973 C 0.07356 0.51913 0.12022 0.0
C974 C 0.20363 0.48303 0.16579 0.0
C975 C 0.24247 0.50199 0.16965 0.0
C976 C 0.1721 0.48272 0.15469 0.0
C977 C 0.17792 0.50147 0.1473 0.0
C978 C 0.21571 0.52056 0.15127 0.0
C979 C 0.24799 0.52076 0.1623 0.0
H980 H 0.17937 0.76692 0.11157 0.0
H981 H 0.25839 0.69931 0.11682 0.0
H982 H 0.12737 0.76683 0.13118 0.0
H983 H 0.20624 0.69918 0.13639 0.0
H984 H 0.03211 0.70057 0.16563 0.0
H985 H 0.08327 0.7002 0.146 0.0
H986 H 0.17556 0.76606 0.15184 0.0
H987 H 0.1245 0.76637 0.17151 0.0
C988 C 0.18525 0.75201 0.1169 0.0
C989 C 0.22309 0.73314 0.11271 0.0
C990 C 0.15594 0.75202 0.12814 0.0
C991 C 0.16313 0.73305 0.13535 0.0
C992 C 0.19951 0.714 0.13102 0.0
C993 C 0.2295 0.71409 0.11984 0.0
C994 C 0.06363 0.71491 0.16273 0.0
C995 C 0.07419 0.73352 0.17006 0.0
C996 C 0.09307 0.71467 0.15151 0.0
C997 C 0.13308 0.73315 0.14735 0.0
C998 C 0.14417 0.7517 0.15475 0.0
C999 C 0.11539 0.75182 0.16602 0.0
H1000 H 0.86571 0.51631 0.86112 0.0
H1001 H 0.77658 0.45036 0.86769 0.0
H1002 H 0.92225 0.51629 0.88041 0.0
H1003 H 0.83321 0.45029 0.88697 0.0
H1004 H 1.0186 0.44953 0.91452 0.0
H1005 H 0.95925 0.44941 0.89547 0.0
H1006 H 0.88273 0.51709 0.90144 0.0
H1007 H 0.94209 0.51717 0.92054 0.0
C1008 C 0.85828 0.50181 0.86669 0.0
C1009 C 0.81666 0.48335 0.86294 0.0
C1010 C 0.89025 0.50186 0.87776 0.0
C1011 C 0.88196 0.48332 0.88523 0.0
C1012 C 0.84096 0.46476 0.88139 0.0
C1013 C 0.80835 0.46482 0.87037 0.0
C1014 C 0.98885 0.46434 0.91177 0.0
C1015 C 0.98514 0.48339 0.91897 0.0
C1016 C 0.95463 0.46424 0.90089 0.0
C1017 C 0.91654 0.48327 0.89694 0.0
C1018 C 0.91238 0.50227 0.9042 0.0
C1019 C 0.94597 0.50228 0.91514 0.0
H1020 H 0.99791 0.28394 0.86408 0.0
H1021 H 0.91788 0.21648 0.85869 0.0
H1022 H 0.94477 0.28424 0.88355 0.0
H1023 H 0.86458 0.21673 0.87823 0.0
H1024 H 0.77098 0.2845 0.91249 0.0
H1025 H 0.82208 0.28397 0.89287 0.0
H1026 H 0.90849 0.21751 0.89904 0.0
H1027 H 0.85729 0.21807 0.91871 0.0
C1028 C 0.9687 0.2692 0.86706 0.0
C1029 C 0.96215 0.25017 0.85989 0.0
C1030 C 0.93802 0.2694 0.87819 0.0
C1031 C 0.90063 0.25049 0.88245 0.0
C1032 C 0.89376 0.23147 0.87524 0.0
C1033 C 0.92384 0.23137 0.86404 0.0
C1034 C 0.801 0.2698 0.90966 0.0
C1035 C 0.8101 0.25132 0.91711 0.0
C1036 C 0.83047 0.26952 0.89844 0.0
C1037 C 0.86918 0.25068 0.89439 0.0
C1038 C 0.87824 0.23217 0.90186 0.0
C1039 C 0.84935 0.23254 0.91314 0.0
H1040 H 0.03829 0.03694 0.61624 0.0
H1041 H 0.12135 0.96985 0.6108 0.0
H1042 H 0.0936 0.03762 0.63561 0.0
H1043 H 0.17676 0.97051 0.63017 0.0
H1044 H 0.18639 0.97094 0.67037 0.0
H1045 H 0.13302 0.97081 0.65085 0.0
H1046 H 0.21653 0.03773 0.64497 0.0
H1047 H 0.26977 0.03784 0.66448 0.0
C1048 C 0.06879 0.02241 0.61917 0.0
C1049 C 0.07533 0.00332 0.61206 0.0
C1050 C 0.10062 0.02282 0.63023 0.0
C1051 C 0.13914 0.00406 0.63444 0.0
C1052 C 0.14655 0.98509 0.62723 0.0
C1053 C 0.11527 0.98477 0.61612 0.0
C1054 C 0.19313 0.98562 0.6649 0.0
C1055 C 0.23236 0.00438 0.66891 0.0
C1056 C 0.16302 0.98549 0.65371 0.0
C1057 C 0.17089 0.00422 0.64635 0.0
C1058 C 0.20915 0.02311 0.65046 0.0
C1059 C 0.23983 0.02315 0.66161 0.0
H1060 H 0.2686 0.19631 0.61443 0.0
H1061 H 0.19125 0.26401 0.6089 0.0
H1062 H 0.21525 0.1965 0.63396 0.0
H1063 H 0.13822 0.26425 0.6284 0.0
H1064 H 0.12804 0.26492 0.6684 0.0
H1065 H 0.18372 0.26372 0.64908 0.0
H1066 H 0.09094 0.19791 0.64333 0.0
H1067 H 0.03504 0.19916 0.66264 0.0
C1068 C 0.24005 0.21119 0.61739 0.0
C1069 C 0.23425 0.23016 0.61018 0.0
C1070 C 0.20934 0.21128 0.62854 0.0
C1071 C 0.17293 0.23045 0.63274 0.0
C1072 C 0.16679 0.24935 0.62547 0.0
C1073 C 0.19675 0.24916 0.61429 0.0
C1074 C 0.1198 0.25017 0.66302 0.0
C1075 C 0.0769 0.23218 0.66698 0.0
C1076 C 0.15132 0.24954 0.65194 0.0
C1077 C 0.14132 0.23078 0.64465 0.0
C1078 C 0.09994 0.21254 0.64876 0.0
C1079 C 0.06774 0.21328 0.65979 0.0
H1080 H 1.00615 0.95342 0.4153 0.0
H1081 H 0.91696 0.01994 0.42014 0.0
H1082 H 0.9574 0.95249 0.39552 0.0
H1083 H 0.86856 0.01909 0.40025 0.0
H1084 H 0.78313 0.95126 0.36609 0.0
H1085 H 0.83221 0.95207 0.38589 0.0
H1086 H 0.9221 0.01803 0.37955 0.0
H1087 H 0.87358 0.01712 0.3597 0.0
C1088 C 0.97599 0.96782 0.41213 0.0
C1089 C 0.96543 0.98677 0.41922 0.0
C1090 C 0.94792 0.96726 0.40083 0.0
C1091 C 0.90943 0.98574 0.39634 0.0
C1092 C 0.89867 0.0047 0.40345 0.0
C1093 C 0.92596 0.00514 0.41483 0.0
C1094 C 0.81373 0.96586 0.36892 0.0
C1095 C 0.82449 0.98413 0.3614 0.0
C1096 C 0.8419 0.96631 0.38022 0.0
C1097 C 0.8806 0.98516 0.38427 0.0
C1098 C 0.89175 0.00339 0.3767 0.0
C1099 C 0.86443 0.00281 0.36534 0.0
H1100 H 0.8912 0.72302 0.35864 0.0
H1101 H 0.02905 0.77775 0.36991 0.0
H1102 H 0.83417 0.72194 0.37787 0.0
H1103 H 0.97306 0.77631 0.38923 0.0
H1104 H 0.91015 0.74598 0.42552 0.0
H1105 H 0.96745 0.74725 0.40623 0.0
H1106 H 0.75452 0.74881 0.39017 0.0
H1107 H 0.69754 0.74791 0.40939 0.0
C1108 C 0.90899 0.73488 0.36521 0.0
C1109 C 0.96418 0.75056 0.36278 0.0
C1110 C 0.87645 0.73424 0.37621 0.0
C1111 C 0.89947 0.74898 0.38504 0.0
C1112 C 0.9548 0.76463 0.3826 0.0
C1113 C 0.98642 0.76554 0.37154 0.0
C1114 C 0.87584 0.74654 0.41785 0.0
C1115 C 0.79956 0.74683 0.4189 0.0
C1116 C 0.90849 0.74739 0.40685 0.0
C1117 C 0.86533 0.74813 0.39673 0.0
C1118 C 0.78904 0.7481 0.39782 0.0
C1119 C 0.75651 0.74766 0.4088 0.0
H1120 H 0.5063 0.52383 0.62056 0.0
H1121 H 0.64706 0.47059 0.60843 0.0
H1122 H 0.56476 0.52228 0.63969 0.0
H1123 H 0.70655 0.46934 0.62752 0.0
H1124 H 0.84671 0.49699 0.6586 0.0
H1125 H 0.78615 0.49643 0.63962 0.0
H1126 H 0.5765 0.4939 0.65664 0.0
H1127 H 0.6374 0.49413 0.67566 0.0
C1128 C 0.54986 0.51184 0.62198 0.0
C1129 C 0.57228 0.49736 0.61301 0.0
C1130 C 0.58298 0.51086 0.63294 0.0
C1131 C 0.64008 0.49566 0.6351 0.0
C1132 C 0.66291 0.4813 0.62609 0.0
C1133 C 0.62887 0.482 0.61518 0.0
C1134 C 0.78771 0.49617 0.65827 0.0
C1135 C 0.74666 0.49558 0.66857 0.0
C1136 C 0.75311 0.49576 0.64742 0.0
C1137 C 0.67664 0.49514 0.64665 0.0
C1138 C 0.63552 0.49451 0.65698 0.0
C1139 C 0.67027 0.49452 0.66784 0.0
H1140 H 0.7571 0.70141 0.61717 0.0
H1141 H 0.66328 0.76683 0.61082 0.0
H1142 H 0.70208 0.70096 0.63656 0.0
H1143 H 0.60876 0.76647 0.63024 0.0
H1144 H 0.52073 0.7002 0.6649 0.0
H1145 H 0.57502 0.70005 0.64547 0.0
H1146 H 0.65625 0.76731 0.65114 0.0
H1147 H 0.6024 0.7674 0.67062 0.0
C1148 C 0.72454 0.71565 0.61992 0.0
C1149 C 0.71462 0.73418 0.61254 0.0
C1150 C 0.69292 0.71536 0.63099 0.0
C1151 C 0.65151 0.73374 0.63492 0.0
C1152 C 0.64114 0.7522 0.62748 0.0
C1153 C 0.67197 0.75235 0.61636 0.0
C1154 C 0.55038 0.71491 0.662 0.0
C1155 C 0.55722 0.73384 0.66923 0.0
C1156 C 0.58163 0.71479 0.65091 0.0
C1157 C 0.61954 0.7337 0.64678 0.0
C1158 C 0.62662 0.7526 0.65405 0.0
C1159 C 0.59619 0.75261 0.66521 0.0
H1160 H 0.27006 0.44732 0.36825 0.0
H1161 H 0.35349 0.51394 0.36161 0.0
H1162 H 0.32733 0.44772 0.38749 0.0
H1163 H 0.41048 0.5144 0.38086 0.0
H1164 H 0.5133 0.44884 0.41509 0.0
H1165 H 0.45392 0.44801 0.39603 0.0
H1166 H 0.37058 0.51495 0.40188 0.0
H1167 H 0.42982 0.51573 0.42098 0.0
C1168 C 0.3007 0.46202 0.37091 0.0
C1169 C 0.3072 0.48061 0.36346 0.0
C1170 C 0.33368 0.46223 0.3819 0.0
C1171 C 0.37317 0.48113 0.38571 0.0
C1172 C 0.37969 0.4997 0.37823 0.0
C1173 C 0.34743 0.49939 0.36719 0.0
C1174 C 0.48206 0.46334 0.41231 0.0
C1175 C 0.47636 0.48238 0.41948 0.0
C1176 C 0.44783 0.46282 0.40143 0.0
C1177 C 0.4078 0.48145 0.39743 0.0
C1178 C 0.40172 0.50045 0.40466 0.0
C1179 C 0.43527 0.50085 0.41561 0.0
H1180 H 0.35207 0.21975 0.41799 0.0
H1181 H 0.271 0.28686 0.41191 0.0
H1182 H 0.4056 0.21931 0.39848 0.0
H1183 H 0.3242 0.28643 0.39244 0.0
H1184 H 0.50117 0.28557 0.36383 0.0
H1185 H 0.44647 0.28612 0.3832 0.0
H1186 H 0.36329 0.21901 0.3777 0.0
H1187 H 0.41828 0.21847 0.3583 0.0
C1188 C 0.34588 0.23441 0.41249 0.0
C1189 C 0.30729 0.25332 0.41644 0.0
C1190 C 0.37605 0.2341 0.4013 0.0
C1191 C 0.36886 0.2528 0.3939 0.0
C1192 C 0.33114 0.27183 0.39796 0.0
C1193 C 0.30048 0.27205 0.40909 0.0
C1194 C 0.47083 0.27099 0.36674 0.0
C1195 C 0.4641 0.25196 0.35959 0.0
C1196 C 0.43934 0.27133 0.37781 0.0
C1197 C 0.40086 0.25256 0.38201 0.0
C1198 C 0.39342 0.23361 0.37478 0.0
C1199 C 0.42442 0.23335 0.36365 0.0
H1200 H 0.64305 0.97178 0.17258 0.0
H1201 H 0.80288 0.01864 0.15947 0.0
H1202 H 0.58615 0.97004 0.15329 0.0
H1203 H 0.74719 0.01644 0.14014 0.0
H1204 H 0.67228 0.98427 0.10503 0.0
H1205 H 0.72881 0.9848 0.12437 0.0
H1206 H 0.5192 -0.00099 0.13976 0.0
H1207 H 0.4634 -0.00079 0.12042 0.0
C1208 C 0.66589 0.98171 0.16558 0.0
C1209 C 0.72709 -0.00457 0.16751 0.0
C1210 C 0.63342 0.9807 0.15456 0.0
C1211 C 0.66257 -0.00697 0.14523 0.0
C1212 C 0.72409 0.00661 0.14716 0.0
C1213 C 0.75563 0.00796 0.15822 0.0
C1214 C 0.63863 0.98768 0.11253 0.0
C1215 C 0.56389 0.99205 0.11122 0.0
C1216 C 0.6708 0.98793 0.12359 0.0
C1217 C 0.62834 0.99205 0.13354 0.0
C1218 C 0.55311 -0.00428 0.13224 0.0
C1219 C 0.52131 -0.00411 0.12118 0.0
H1220 H 0.79608 0.19893 0.11605 0.0
H1221 H 0.70996 0.2653 0.10956 0.0
H1222 H 0.74083 0.19914 0.13539 0.0
H1223 H 0.65478 0.26555 0.12896 0.0
H1224 H 0.55924 0.19941 0.16348 0.0
H1225 H 0.61544 0.19897 0.1442 0.0
H1226 H 0.69785 0.26609 0.14993 0.0
H1227 H 0.64181 0.26647 0.16926 0.0
C1228 C 0.76517 0.21354 0.11876 0.0
C1229 C 0.75744 0.23212 0.11133 0.0
C1230 C 0.73335 0.21362 0.12981 0.0
C1231 C 0.69372 0.23239 0.13371 0.0
C1232 C 0.68573 0.25096 0.12624 0.0
C1233 C 0.71689 0.25076 0.11513 0.0
C1234 C 0.5897 0.21401 0.16063 0.0
C1235 C 0.59605 0.23299 0.16784 0.0
C1236 C 0.62202 0.21374 0.14962 0.0
C1237 C 0.66074 0.23254 0.14553 0.0
C1238 C 0.66759 0.25146 0.15279 0.0
C1239 C 0.63595 0.25163 0.16387 0.0
H1240 H 0.27263 0.94674 0.86583 0.0
H1241 H 0.35247 0.01439 0.86106 0.0
H1242 H 0.32618 0.94589 0.88533 0.0
H1243 H 0.40602 0.01357 0.88055 0.0
H1244 H 0.50434 0.94663 0.91433 0.0
H1245 H 0.44929 0.94631 0.89491 0.0
H1246 H 0.3604 0.01248 0.90109 0.0
H1247 H 0.41537 0.01278 0.92046 0.0
C1248 C 0.30187 0.96139 0.86895 0.0
C1249 C 0.30815 0.98067 0.86198 0.0
C1250 C 0.33272 0.96087 0.88008 0.0
C1251 C 0.36989 0.97971 0.8845 0.0
C1252 C 0.3768 -0.0011 0.87745 0.0
C1253 C 0.34656 -0.00066 0.86628 0.0
C1254 C 0.47259 0.96101 0.91155 0.0
C1255 C 0.46437 0.97976 0.91885 0.0
C1256 C 0.44095 0.96081 0.90046 0.0
C1257 C 0.40104 0.97945 0.89644 0.0
C1258 C 0.39178 -0.00198 0.90387 0.0
C1259 C 0.42283 -0.00187 0.91498 0.0
H1260 H 0.51671 0.78759 0.86662 0.0
H1261 H 0.44465 0.7191 0.86185 0.0
H1262 H 0.46577 0.78767 0.88626 0.0
H1263 H 0.39382 0.71914 0.88155 0.0
H1264 H 0.39102 0.72089 0.9219 0.0
H1265 H 0.44193 0.72106 0.90222 0.0
H1266 H 0.34301 0.78579 0.89589 0.0
H1267 H 0.29196 0.78556 0.91553 0.0
C1268 C 0.48973 0.77258 0.86977 0.0
C1269 C 0.48476 0.75333 0.86274 0.0
C1270 C 0.46038 0.77266 0.88099 0.0
C1271 C 0.4261 0.75338 0.88547 0.0
C1272 C 0.4207 0.73415 0.87839 0.0
C1273 C 0.44933 0.73417 0.8671 0.0
C1274 C 0.38045 0.73517 0.9163 0.0
C1275 C 0.33742 0.7532 0.92021 0.0
C1276 C 0.40915 0.7352 0.90502 0.0
C1277 C 0.39615 0.75338 0.89749 0.0
C1278 C 0.35431 0.7716 0.90151 0.0
C1279 C 0.32495 0.77145 0.91273 0.0
H1280 H 0.08617 0.68182 0.08243 0.0
H1281 H 0.29532 0.66699 0.06684 0.0
H1282 H 0.05434 0.64213 0.08162 0.0
H1283 H 0.26262 0.62739 0.0658 0.0
H1284 H 0.21828 0.55721 0.0808 0.0
H1285 H 0.24712 0.59701 0.07954 0.0
H1286 H 0.02597 0.61105 0.06871 0.0
H1287 H 0.99644 0.5712 0.07023 0.0
C1288 C 0.12499 0.67017 0.07868 0.0
C1289 C 0.19359 0.67758 0.0748 0.0
C1290 C 0.10654 0.64741 0.07816 0.0
C1291 C 0.15616 0.63158 0.07372 0.0
C1292 C 0.22372 0.63911 0.06947 0.0
C1293 C 0.24228 0.66185 0.07001 0.0
C1294 C 0.1758 0.56873 0.0781 0.0
C1295 C 0.10496 0.56101 0.07566 0.0
C1296 C 0.19251 0.59157 0.0773 0.0
C1297 C 0.13886 0.60721 0.07401 0.0
C1298 C 0.06827 0.59945 0.07141 0.0
C1299 C 0.05147 0.5766 0.07223 0.0
H1300 H 1.00108 0.66456 0.21381 0.0
H1301 H 0.217 0.68118 0.20136 0.0
H1302 H 0.03629 0.62507 0.21504 0.0
H1303 H 0.25129 0.64182 0.20236 0.0
H1304 H 0.31237 0.57235 0.21451 0.0
H1305 H 0.2752 0.61156 0.21594 0.0
H1306 H 0.06436 0.59455 0.20158 0.0
H1307 H 0.10081 0.55526 0.20037 0.0
C1308 C 0.05603 0.65984 0.21137 0.0
C1309 C 0.10608 0.67604 0.20744 0.0
C1310 C 0.07604 0.6372 0.21202 0.0
C1311 C 0.14652 0.63031 0.20878 0.0
C1312 C 0.19689 0.64659 0.20507 0.0
C1313 C 0.17696 0.66918 0.20442 0.0
C1314 C 0.25791 0.57693 0.21172 0.0
C1315 C 0.20974 0.56069 0.20725 0.0
C1316 C 0.23673 0.59942 0.2125 0.0
C1317 C 0.16699 0.60618 0.20881 0.0
C1318 C 0.11818 0.58985 0.20461 0.0
C1319 C 0.13929 0.56734 0.20385 0.0
H1320 H 0.74921 0.32182 0.9629 0.0
H1321 H 0.95717 0.30466 0.94758 0.0
H1322 H 0.78803 0.36092 0.96449 0.0
H1323 H 0.99503 0.34372 0.94889 0.0
H1324 H 0.06687 0.41229 0.96128 0.0
H1325 H 0.0285 0.37311 0.96231 0.0
H1326 H 0.81099 0.39227 0.95171 0.0
H1327 H 0.84865 0.43141 0.95097 0.0
C1328 C 0.80317 0.32636 0.95988 0.0
C1329 C 0.84996 0.31011 0.95508 0.0
C1330 C 0.82529 0.3488 0.96074 0.0
C1331 C 0.89459 0.35548 0.95679 0.0
C1332 C 0.94172 0.33913 0.95218 0.0
C1333 C 0.91974 0.31672 0.95135 0.0
C1334 C 1.01072 0.40817 0.95925 0.0
C1335 C 0.96096 0.425 0.956 0.0
C1336 C 0.98882 0.38568 0.95979 0.0
C1337 C 0.91675 0.37952 0.95704 0.0
C1338 C 0.86665 0.39643 0.95403 0.0
C1339 C 0.88844 0.4189 0.95354 0.0
H1340 H 0.7409 0.41509 0.81687 0.0
H1341 H 0.95224 0.42921 0.83196 0.0
H1342 H 0.77401 0.37559 0.81499 0.0
H1343 H 0.98451 0.38968 0.83032 0.0
H1344 H 0.04449 0.32066 0.81711 0.0
H1345 H 1.01157 0.36029 0.81635 0.0
H1346 H 0.79377 0.34396 0.82794 0.0
H1347 H 0.82597 0.30431 0.82846 0.0
C1348 C 0.79443 0.40979 0.81978 0.0
C1349 C 0.84384 0.42527 0.82461 0.0
C1350 C 0.81323 0.38714 0.81874 0.0
C1351 C 0.88175 0.37951 0.82254 0.0
C1352 C 0.93165 0.39508 0.82717 0.0
C1353 C 0.91295 0.41773 0.82817 0.0
C1354 C 0.98941 0.3255 0.81942 0.0
C1355 C 0.93795 0.30934 0.8229 0.0
C1356 C 0.97069 0.34822 0.81903 0.0
C1357 C 0.90022 0.35527 0.82214 0.0
C1358 C 0.84827 0.33905 0.82535 0.0
C1359 C 0.8669 0.31632 0.82571 0.0
H1360 H 1.00166 0.06769 0.56543 0.0
H1361 H 0.21295 0.05214 0.58013 0.0
H1362 H 0.03791 0.10689 0.56339 0.0
H1363 H 0.24827 0.09135 0.57836 0.0
H1364 H 0.31203 0.1606 0.5662 0.0
H1365 H 0.27693 0.12116 0.56485 0.0
H1366 H 0.05955 0.1381 0.57642 0.0
H1367 H 0.0939 0.17751 0.57749 0.0
C1368 C 0.05589 0.07258 0.56819 0.0
C1369 C 0.10418 0.05678 0.57303 0.0
C1370 C 0.07652 0.09508 0.56707 0.0
C1371 C 0.14579 0.10228 0.57078 0.0
C1372 C 0.19482 0.08633 0.57528 0.0
C1373 C 0.17433 0.06384 0.57637 0.0
C1374 C 0.25656 0.15594 0.56836 0.0
C1375 C 0.2059 0.1722 0.57201 0.0
C1376 C 0.23657 0.13332 0.56764 0.0
C1377 C 0.16557 0.12647 0.57058 0.0
C1378 C 0.11442 0.14283 0.57394 0.0
C1379 C 0.13431 0.16544 0.57463 0.0
H1380 H 0.21261 0.18228 0.69928 0.0
H1381 H 0.99822 0.16712 0.71286 0.0
H1382 H 0.24658 0.14306 0.70111 0.0
H1383 H 0.03323 0.12776 0.71496 0.0
H1384 H 0.09278 0.0572 0.70075 0.0
H1385 H 0.05755 0.09653 0.70195 0.0
H1386 H 0.2723 0.11342 0.71482 0.0
H1387 H 0.30832 0.07411 0.71334 0.0
C1388 C 0.17292 0.17065 0.7028 0.0
C1389 C 0.10241 0.17783 0.70583 0.0
C1390 C 0.19269 0.14814 0.70393 0.0
C1391 C 0.14259 0.13228 0.70817 0.0
C1392 C 0.07272 0.13954 0.71152 0.0
C1393 C 0.05279 0.16211 0.71036 0.0
C1394 C 0.13238 0.06925 0.70393 0.0
C1395 C 0.20361 0.06256 0.70684 0.0
C1396 C 0.11196 0.0918 0.70469 0.0
C1397 C 0.16223 0.10811 0.70843 0.0
C1398 C 0.2327 0.10129 0.71173 0.0
C1399 C 0.25324 0.07875 0.71091 0.0
H1400 H 0.74044 0.82125 0.46208 0.0
H1401 H 0.95019 0.8056 0.44691 0.0
H1402 H 0.77393 0.86081 0.46289 0.0
H1403 H 0.9828 0.84525 0.44747 0.0
H1404 H 0.04428 0.91519 0.46045 0.0
H1405 H 1.01204 0.87542 0.46093 0.0
H1406 H 0.79346 0.89173 0.44963 0.0
H1407 H 0.82492 0.9314 0.44941 0.0
C1408 C 0.79357 0.82623 0.45887 0.0
C1409 C 0.84251 0.81025 0.45439 0.0
C1410 C 0.81263 0.84894 0.4593 0.0
C1411 C 0.88095 0.85619 0.45522 0.0
C1412 C 0.93012 0.84018 0.45083 0.0
C1413 C 0.91116 0.81746 0.45043 0.0
C1414 C 0.98926 0.91029 0.45812 0.0
C1415 C 0.93721 0.92648 0.4549 0.0
C1416 C 0.97092 0.8875 0.45833 0.0
C1417 C 0.9002 0.88042 0.45531 0.0
C1418 C 0.84809 0.89664 0.45218 0.0
C1419 C 0.86633 0.9194 0.45199 0.0
H1420 H 0.82879 0.80383 0.33117 0.0
H1421 H 0.04408 0.81813 0.31774 0.0
H1422 H 0.79808 0.84358 0.32992 0.0
H1423 H 1.01266 0.85778 0.31628 0.0
H1424 H 0.96281 0.92838 0.33052 0.0
H1425 H 0.99171 0.88854 0.3297 0.0
H1426 H 0.77564 0.87449 0.31652 0.0
H1427 H 0.74594 0.9144 0.31756 0.0
C1428 C 0.86932 0.81537 0.32782 0.0
C1429 C 0.93915 0.80777 0.32465 0.0
C1430 C 0.85151 0.83817 0.32704 0.0
C1431 C 0.90307 0.85388 0.32306 0.0
C1432 C 0.97212 0.84617 0.31957 0.0
C1433 C 0.98997 0.8234 0.32035 0.0
C1434 C 0.92145 0.91686 0.32738 0.0
C1435 C 0.85189 0.92463 0.32415 0.0
C1436 C 0.93825 0.89399 0.32684 0.0
C1437 C 0.88598 0.87831 0.32305 0.0
C1438 C 0.81683 0.8861 0.31962 0.0
C1439 C 0.79997 0.90901 0.32016 0.0
H1440 H 0.48938 0.57053 0.57007 0.0
H1441 H 0.70738 0.55452 0.58184 0.0
H1442 H 0.52271 0.61003 0.56879 0.0
H1443 H 0.74011 0.59418 0.58081 0.0
H1444 H 0.79189 0.66525 0.56852 0.0
H1445 H 0.76039 0.62544 0.5675 0.0
H1446 H 0.54909 0.63997 0.58233 0.0
H1447 H 0.57956 0.67964 0.58311 0.0
C1448 C 0.54443 0.57542 0.5724 0.0
C1449 C 0.59559 0.55939 0.57614 0.0
C1450 C 0.56342 0.59809 0.5717 0.0
C1451 C 0.63389 0.60526 0.57478 0.0
C1452 C 0.6856 0.58916 0.57826 0.0
C1453 C 0.66668 0.56645 0.57892 0.0
C1454 C 0.73855 0.65996 0.57149 0.0
C1455 C 0.68833 0.67564 0.57591 0.0
C1456 C 0.72068 0.63713 0.57097 0.0
C1457 C 0.65228 0.62955 0.57484 0.0
C1458 C 0.60183 0.64529 0.57911 0.0
C1459 C 0.61957 0.66806 0.57962 0.0
H1460 H 0.80396 0.57321 0.71133 0.0
H1461 H 0.59291 0.55506 0.69732 0.0
H1462 H 0.76497 0.61221 0.71271 0.0
H1463 H 0.5547 0.5942 0.69846 0.0
H1464 H 0.48764 0.66321 0.71207 0.0
H1465 H 0.52534 0.62385 0.71244 0.0
H1466 H 0.73785 0.64276 0.69949 0.0
H1467 H 0.70113 0.68194 0.69936 0.0
C1468 C 0.74938 0.57753 0.70849 0.0
C1469 C 0.70171 0.56103 0.70415 0.0
C1470 C 0.72714 0.59991 0.70925 0.0
C1471 C 0.65684 0.60628 0.70566 0.0
C1472 C 0.6089 0.58976 0.70143 0.0
C1473 C 0.63107 0.56735 0.70069 0.0
C1474 C 0.54255 0.65896 0.70938 0.0
C1475 C 0.59132 0.67571 0.70568 0.0
C1476 C 0.56397 0.63642 0.70953 0.0
C1477 C 0.63452 0.63021 0.70597 0.0
C1478 C 0.68347 0.64702 0.70243 0.0
C1479 C 0.66217 0.6695 0.7023 0.0
H1480 H 0.34147 0.43363 0.46146 0.0
H1481 H 0.55919 0.41206 0.45258 0.0
H1482 H 0.30179 0.39462 0.46231 0.0
H1483 H 0.51901 0.37309 0.45266 0.0
H1484 H 0.44189 0.30322 0.46085 0.0
H1485 H 0.48176 0.34202 0.46321 0.0
H1486 H 0.27325 0.36501 0.45012 0.0
H1487 H 0.23242 0.32628 0.4485 0.0
C1488 C 0.38076 0.42048 0.45966 0.0
C1489 C 0.4533 0.42581 0.45694 0.0
C1490 C 0.35796 0.3981 0.46004 0.0
C1491 C 0.40681 0.38055 0.45742 0.0
C1492 C 0.47992 0.386 0.45492 0.0
C1493 C 0.50304 0.40838 0.4548 0.0
C1494 C 0.40457 0.31664 0.45857 0.0
C1495 C 0.33412 0.31179 0.45449 0.0
C1496 C 0.42751 0.33891 0.45984 0.0
C1497 C 0.38102 0.35681 0.45681 0.0
C1498 C 0.31025 0.3518 0.45279 0.0
C1499 C 0.28684 0.32956 0.45177 0.0
H1500 H 0.53998 0.31851 0.31539 0.0
H1501 H 0.32468 0.30105 0.3278 0.0
H1502 H 0.50485 0.358 0.31487 0.0
H1503 H 0.29037 0.3405 0.32751 0.0
H1504 H 0.23143 0.41168 0.31743 0.0
H1505 H 0.26613 0.37242 0.31503 0.0
H1506 H 0.47949 0.38715 0.32911 0.0
H1507 H 0.44549 0.42649 0.33129 0.0
C1508 C 0.48505 0.32303 0.31794 0.0
C1509 C 0.43533 0.30658 0.3217 0.0
C1510 C 0.4651 0.3457 0.31771 0.0
C1511 C 0.39501 0.35243 0.32123 0.0
C1512 C 0.34456 0.33589 0.32462 0.0
C1513 C 0.36444 0.31323 0.32484 0.0
C1514 C 0.28591 0.40659 0.31996 0.0
C1515 C 0.33557 0.42222 0.32461 0.0
C1516 C 0.30567 0.38406 0.31862 0.0
C1517 C 0.37548 0.37663 0.32191 0.0
C1518 C 0.4256 0.39236 0.32635 0.0
C1519 C 0.4059 0.4149 0.32767 0.0
H1520 H 0.51435 0.07152 0.07848 0.0
H1521 H 0.73137 0.05111 0.06851 0.0
H1522 H 0.55174 0.11071 0.07796 0.0
H1523 H 0.76807 0.09035 0.06715 0.0
H1524 H 0.83547 0.16 0.07916 0.0
H1525 H 0.79771 0.12088 0.07843 0.0
H1526 H 0.58282 0.14152 0.06698 0.0
H1527 H 0.61986 0.18073 0.06855 0.0
C1528 C 0.56977 0.07552 0.07594 0.0
C1529 C 0.62014 0.05837 0.0736 0.0
C1530 C 0.59125 0.09802 0.07556 0.0
C1531 C 0.6632 0.10389 0.07253 0.0
C1532 C 0.71278 0.08659 0.0698 0.0
C1533 C 0.69172 0.06407 0.07049 0.0
C1534 C 0.78029 0.15609 0.07644 0.0
C1535 C 0.73044 0.1733 0.07396 0.0
C1536 C 0.7586 0.13363 0.07593 0.0
C1537 C 0.68698 0.12785 0.07264 0.0
C1538 C 0.63785 0.14522 0.06982 0.0
C1539 C 0.65911 0.16772 0.07062 0.0
H1540 H 0.73019 0.18011 0.19817 0.0
H1541 H 0.51576 0.16534 0.21183 0.0
H1542 H 0.76006 0.14025 0.19862 0.0
H1543 H 0.54638 0.12554 0.21248 0.0
H1544 H 0.59422 0.05567 0.19722 0.0
H1545 H 0.56616 0.09558 0.1984 0.0
H1546 H 0.78264 0.10873 0.21166 0.0
H1547 H 0.81146 0.06884 0.21027 0.0
C1548 C 0.6897 0.16843 0.2014 0.0
C1549 C 0.62036 0.17594 0.20489 0.0
C1550 C 0.707 0.14557 0.20171 0.0
C1551 C 0.65542 0.12972 0.20552 0.0
C1552 C 0.58687 0.1373 0.20931 0.0
C1553 C 0.56951 0.16015 0.209 0.0
C1554 C 0.63588 0.06703 0.20042 0.0
C1555 C 0.70522 0.05903 0.2036 0.0
C1556 C 0.61957 0.08991 0.20117 0.0
C1557 C 0.67217 0.10532 0.20514 0.0
C1558 C 0.74125 0.09731 0.20844 0.0
C1559 C 0.7576 0.07442 0.20768 0.0
H1560 H 0.47694 0.8059 0.95301 0.0
H1561 H 0.26 0.818 0.96636 0.0
H1562 H 0.50278 0.84597 0.95405 0.0
H1563 H 0.28651 0.8581 0.96755 0.0
H1564 H 0.33294 0.92882 0.95176 0.0
H1565 H 0.3053 0.88889 0.95363 0.0
H1566 H 0.52071 0.87711 0.96761 0.0
H1567 H 0.54892 0.91687 0.9656 0.0
C1568 C 0.43504 0.81704 0.95631 0.0
C1569 C 0.36624 0.80871 0.95953 0.0
C1570 C 0.45003 0.84003 0.95697 0.0
C1571 C 0.39657 0.85523 0.96084 0.0
C1572 C 0.32848 0.84684 0.96438 0.0
C1573 C 0.31352 0.82383 0.96376 0.0
C1574 C 0.37417 0.91777 0.95535 0.0
C1575 C 0.4434 0.92605 0.95842 0.0
C1576 C 0.35818 0.89488 0.95647 0.0
C1577 C 0.41106 0.8798 0.96068 0.0
C1578 C 0.47926 0.88823 0.96415 0.0
C1579 C 0.49524 0.91108 0.96304 0.0
H1580 H 0.55607 0.82275 0.81774 0.0
H1581 H 0.34291 0.80521 0.83101 0.0
H1582 H 0.51694 0.8617 0.81566 0.0
H1583 H 0.30468 0.84414 0.82924 0.0
H1584 H 0.23702 0.91292 0.81712 0.0
H1585 H 0.27612 0.87383 0.81571 0.0
H1586 H 0.48951 0.89244 0.82854 0.0
H1587 H 0.45139 0.93143 0.82963 0.0
C1588 C 0.50092 0.82719 0.82021 0.0
C1589 C 0.45277 0.81092 0.82461 0.0
C1590 C 0.47857 0.84951 0.81905 0.0
C1591 C 0.40778 0.85603 0.82232 0.0
C1592 C 0.35921 0.83963 0.82647 0.0
C1593 C 0.38138 0.81732 0.82757 0.0
C1594 C 0.29248 0.90869 0.81953 0.0
C1595 C 0.34092 0.92527 0.82355 0.0
C1596 C 0.31477 0.88628 0.81877 0.0
C1597 C 0.3858 0.88001 0.82207 0.0
C1598 C 0.43474 0.89672 0.82577 0.0
C1599 C 0.41263 0.9191 0.82648 0.0
H1600 H 0.7321 0.52516 0.07209 0.0
H1601 H 0.75203 0.46104 0.08938 0.0
H1602 H 0.59851 0.52219 0.07321 0.0
H1603 H 0.61947 0.45795 0.09034 0.0
H1604 H 0.38163 0.45079 0.07648 0.0
H1605 H 0.51465 0.45402 0.07556 0.0
H1606 H 0.50176 0.52099 0.08991 0.0
H1607 H 0.36873 0.51763 0.091 0.0
C1608 C 0.7079 0.51044 0.07607 0.0
C1609 C 0.75214 0.49335 0.08065 0.0
C1610 C 0.63173 0.50879 0.07677 0.0
C1611 C 0.59883 0.48983 0.08187 0.0
C1612 C 0.64335 0.47266 0.0863 0.0
C1613 C 0.71916 0.47449 0.08578 0.0
C1614 C 0.40736 0.46608 0.07956 0.0
C1615 C 0.36513 0.4839 0.08387 0.0
C1616 C 0.48333 0.46795 0.07902 0.0
C1617 C 0.51833 0.48781 0.0826 0.0
C1618 C 0.47605 0.50559 0.08699 0.0
C1619 C 0.40013 0.50358 0.08771 0.0
H1620 H 0.58208 0.7378 0.06411 0.0
H1621 H 0.56501 0.73734 0.10155 0.0
H1622 H 0.71404 0.7442 0.06577 0.0
H1623 H 0.69586 0.74377 0.10321 0.0
H1624 H 0.94479 0.73097 0.10057 0.0
H1625 H 0.8133 0.72448 0.09929 0.0
H1626 H 0.79696 0.77532 0.07261 0.0
H1627 H 0.92847 0.78181 0.07393 0.0
C1628 C 0.60665 0.73883 0.07267 0.0
C1629 C 0.56345 0.73701 0.08269 0.0
C1630 C 0.68192 0.74271 0.07363 0.0
C1631 C 0.71531 0.7446 0.08463 0.0
C1632 C 0.67203 0.74222 0.09462 0.0
C1633 C 0.59701 0.73857 0.09366 0.0
C1634 C 0.91285 0.74101 0.09458 0.0
C1635 C 0.94675 0.75696 0.0874 0.0
C1636 C 0.83762 0.73726 0.09382 0.0
C1637 C 0.79483 0.74922 0.08575 0.0
C1638 C 0.8286 0.76559 0.07878 0.0
C1639 C 0.90372 0.76952 0.07964 0.0
H1640 H 0.71522 0.71119 0.20969 0.0
H1641 H 0.74678 0.77373 0.19134 0.0
H1642 H 0.58244 0.7154 0.20749 0.0
H1643 H 0.61527 0.77799 0.18924 0.0
H1644 H 0.37411 0.78857 0.20079 0.0
H1645 H 0.50664 0.78452 0.20238 0.0
H1646 H 0.49015 0.71577 0.1906 0.0
H1647 H 0.35781 0.71989 0.18889 0.0
C1648 C 0.69377 0.72582 0.20525 0.0
C1649 C 0.74109 0.74209 0.20067 0.0
C1650 C 0.61804 0.72818 0.20393 0.0
C1651 C 0.58862 0.74702 0.19817 0.0
C1652 C 0.63624 0.76339 0.19377 0.0
C1653 C 0.71156 0.76088 0.19494 0.0
C1654 C 0.39902 0.77275 0.19834 0.0
C1655 C 0.35582 0.7546 0.19465 0.0
C1656 C 0.47474 0.77039 0.19929 0.0
C1657 C 0.50857 0.74974 0.19673 0.0
C1658 C 0.46543 0.73177 0.19278 0.0
C1659 C 0.38985 0.73423 0.19167 0.0
H1660 H 0.95372 0.4882 0.18292 0.0
H1661 H 0.95664 0.47662 0.21995 0.0
H1662 H 0.82148 0.4938 0.18365 0.0
H1663 H 0.82591 0.48308 0.22084 0.0
H1664 H 0.5808 0.47476 0.2174 0.0
H1665 H 0.71155 0.46807 0.21629 0.0
H1666 H 0.73009 0.51944 0.18987 0.0
H1667 H 0.5982 0.52537 0.1907 0.0
C1668 C 0.92598 0.48676 0.1912 0.0
C1669 C 0.96539 0.48183 0.20136 0.0
C1670 C 0.85029 0.49022 0.19166 0.0
C1671 C 0.81247 0.489 0.20232 0.0
C1672 C 0.85239 0.48381 0.21244 0.0
C1673 C 0.92766 0.48018 0.21194 0.0
C1674 C 0.61295 0.48477 0.21144 0.0
C1675 C 0.57935 0.50068 0.20419 0.0
C1676 C 0.68817 0.48098 0.2108 0.0
C1677 C 0.73202 0.49317 0.20298 0.0
C1678 C 0.69823 0.50942 0.19586 0.0
C1679 C 0.62272 0.51304 0.19642 0.0
H1680 H 0.69688 0.52542 0.96312 0.0
H1681 H 0.71444 0.47922 0.93431 0.0
H1682 H 0.56502 0.51955 0.9636 0.0
H1683 H 0.58338 0.47258 0.93503 0.0
H1684 H 0.33771 0.48221 0.93193 0.0
H1685 H 0.46866 0.48857 0.93121 0.0
H1686 H 0.47474 0.49264 0.96875 0.0
H1687 H 0.34253 0.48713 0.96937 0.0
C1688 C 0.67238 0.51408 0.95686 0.0
C1689 C 0.71578 0.50289 0.94863 0.0
C1690 C 0.59688 0.51048 0.95722 0.0
C1691 C 0.56313 0.49544 0.94941 0.0
C1692 C 0.60691 0.48451 0.94108 0.0
C1693 C 0.68221 0.48827 0.94067 0.0
C1694 C 0.36713 0.48428 0.94004 0.0
C1695 C 0.32995 0.48412 0.95071 0.0
C1696 C 0.44245 0.48786 0.93964 0.0
C1697 C 0.48279 0.4912 0.94992 0.0
C1698 C 0.44551 0.49055 0.96064 0.0
C1699 C 0.36986 0.48714 0.96102 0.0
H1700 H 0.46185 0.27592 0.93942 0.0
H1701 H 0.47841 0.2225 0.96463 0.0
H1702 H 0.32997 0.27013 0.93828 0.0
H1703 H 0.34766 0.21597 0.96319 0.0
H1704 H 0.10273 0.22413 0.96691 0.0
H1705 H 0.23341 0.2304 0.96806 0.0
H1706 H 0.2381 0.24544 0.93128 0.0
H1707 H 0.10575 0.24003 0.93032 0.0
C1708 C 0.43714 0.263 0.94475 0.0
C1709 C 0.48029 0.24981 0.95219 0.0
C1710 C 0.36162 0.25946 0.944 0.0
C1711 C 0.32756 0.24249 0.9506 0.0
C1712 C 0.37121 0.22945 0.95811 0.0
C1713 C 0.44643 0.23315 0.95893 0.0
C1714 C 0.13172 0.2286 0.95904 0.0
C1715 C 0.09398 0.23151 0.94851 0.0
C1716 C 0.207 0.23212 0.95968 0.0
C1717 C 0.24704 0.23845 0.94977 0.0
C1718 C 0.20923 0.24095 0.93915 0.0
C1719 C 0.13347 0.2376 0.93854 0.0
H1720 H 0.68378 0.25455 0.84475 0.0
H1721 H 0.66842 0.20934 0.81548 0.0
H1722 H 0.55219 0.26053 0.84405 0.0
H1723 H 0.53636 0.21482 0.81491 0.0
H1724 H 0.31384 0.24815 0.80938 0.0
H1725 H 0.44642 0.24314 0.81003 0.0
H1726 H 0.43842 0.24205 0.8476 0.0
H1727 H 0.30701 0.24762 0.8469 0.0
C1728 C 0.652 0.24563 0.83828 0.0
C1729 C 0.68619 0.23143 0.8302 0.0
C1730 C 0.57654 0.24903 0.83787 0.0
C1731 C 0.53352 0.23825 0.82938 0.0
C1732 C 0.56787 0.2237 0.82143 0.0
C1733 C 0.6434 0.22034 0.82184 0.0
C1734 C 0.34078 0.24708 0.81775 0.0
C1735 C 0.30028 0.24835 0.82808 0.0
C1736 C 0.41655 0.24399 0.81814 0.0
C1737 C 0.45321 0.24209 0.82888 0.0
C1738 C 0.41237 0.24373 0.83919 0.0
C1739 C 0.3369 0.24684 0.83878 0.0
H1740 H 0.10661 0.49614 0.84982 0.0
H1741 H 0.10355 0.50915 0.81291 0.0
H1742 H 0.23917 0.49121 0.84906 0.0
H1743 H 0.23457 0.5034 0.812 0.0
H1744 H 0.47868 0.51335 0.8158 0.0
H1745 H 0.34757 0.51935 0.817 0.0
H1746 H 0.33115 0.46589 0.84233 0.0
H1747 H 0.46327 0.46057 0.84141 0.0
C1748 C 0.13438 0.49802 0.84157 0.0
C1749 C 0.09496 0.50316 0.83145 0.0
C1750 C 0.21018 0.49496 0.84109 0.0
C1751 C 0.24791 0.49683 0.83045 0.0
C1752 C 0.20796 0.50219 0.82038 0.0
C1753 C 0.1326 0.50541 0.82088 0.0
C1754 C 0.4469 0.50276 0.82155 0.0
C1755 C 0.48102 0.48643 0.82847 0.0
C1756 C 0.37159 0.50615 0.82223 0.0
C1757 C 0.32835 0.49313 0.82978 0.0
C1758 C 0.36266 0.4765 0.83657 0.0
C1759 C 0.43824 0.47325 0.83595 0.0
H1760 H 0.34921 0.00739 0.59895 0.0
H1761 H 0.36808 0.95154 0.57515 0.0
H1762 H 0.48036 0.01401 0.59749 0.0
H1763 H 0.49954 0.95803 0.57374 0.0
H1764 H 0.71436 -0.00667 0.5636 0.0
H1765 H 0.58267 0.98684 0.56541 0.0
H1766 H 0.59801 -0.00283 0.60253 0.0
H1767 H 0.72861 0.00379 0.60068 0.0
C1768 C 0.38167 -0.00373 0.59357 0.0
C1769 C 0.34849 0.9789 0.5872 0.0
C1770 C 0.4568 9e-05 0.59271 0.0
C1771 C 0.50038 0.98669 0.58539 0.0
C1772 C 0.46735 0.96888 0.57929 0.0
C1773 C 0.39224 0.96498 0.58022 0.0
C1774 C 0.6892 -0.00552 0.5721 0.0
C1775 C 0.73157 -0.00086 0.58199 0.0
C1776 C 0.61405 0.99053 0.57317 0.0
C1777 C 0.57986 0.99135 0.58414 0.0
C1778 C 0.62233 -0.00343 0.59395 0.0
C1779 C 0.69725 0.00034 0.59289 0.0
H1780 H 0.57718 0.2318 0.59701 0.0
H1781 H 0.58479 0.23391 0.55952 0.0
H1782 H 0.70845 0.23752 0.5979 0.0
H1783 H 0.7173 0.23899 0.56035 0.0
H1784 H 0.93926 0.27228 0.56631 0.0
H1785 H 0.80734 0.26664 0.56559 0.0
H1786 H 0.8229 0.22003 0.59431 0.0
H1787 H 0.95436 0.22624 0.59519 0.0
C1788 C 0.60723 0.23317 0.58894 0.0
C1789 C 0.57077 0.23238 0.57819 0.0
C1790 C 0.68269 0.23637 0.58945 0.0
C1791 C 0.72383 0.23878 0.57921 0.0
C1792 C 0.68732 0.23757 0.56842 0.0
C1793 C 0.61154 0.23443 0.56792 0.0
C1794 C 0.9142 0.26105 0.57255 0.0
C1795 C 0.95695 0.2498 0.58085 0.0
C1796 C 0.8387 0.2576 0.57205 0.0
C1797 C 0.80422 0.24274 0.57983 0.0
C1798 C 0.84721 0.23178 0.58826 0.0
C1799 C 0.92265 0.23531 0.58877 0.0
H1800 H 0.74253 0.27245 0.68615 0.0
H1801 H 0.71212 0.21265 0.70685 0.0
H1802 H 0.61083 0.27663 0.68426 0.0
H1803 H 0.57919 0.21674 0.70484 0.0
H1804 H 0.35304 0.21933 0.68644 0.0
H1805 H 0.48545 0.21521 0.68792 0.0
H1806 H 0.50398 0.28498 0.69786 0.0
H1807 H 0.37127 0.28905 0.69653 0.0
C1808 C 0.70753 0.26017 0.6903 0.0
C1809 C 0.73739 0.24219 0.69665 0.0
C1810 C 0.63216 0.26264 0.68925 0.0
C1811 C 0.58487 0.24701 0.69438 0.0
C1812 C 0.6146 0.22894 0.70072 0.0
C1813 C 0.69038 0.22665 0.70193 0.0
C1814 C 0.38551 0.23387 0.68878 0.0
C1815 C 0.35205 0.25455 0.69133 0.0
C1816 C 0.46112 0.23142 0.68976 0.0
C1817 C 0.5048 0.2497 0.69311 0.0
C1818 C 0.47155 0.27062 0.69523 0.0
C1819 C 0.39576 0.27297 0.69444 0.0
H1820 H 0.95416 0.00962 0.68466 0.0
H1821 H 0.93787 0.96154 0.71261 0.0
H1822 H 0.82294 0.01597 0.68555 0.0
H1823 H 0.80594 0.96724 0.7133 0.0
H1824 H 0.58338 -0.00053 0.71973 0.0
H1825 H 0.71575 -0.0058 0.71897 0.0
H1826 H 0.70859 -0.00062 0.68148 0.0
H1827 H 0.5775 0.00538 0.68233 0.0
C1828 C 0.9222 0.00012 0.69087 0.0
C1829 C 0.95612 0.98503 0.69854 0.0
C1830 C 0.84686 0.00372 0.69138 0.0
C1831 C 0.80349 0.99219 0.69954 0.0
C1832 C 0.83758 0.97673 0.70705 0.0
C1833 C 0.91307 0.97325 0.70658 0.0
C1834 C 0.6105 -0.00026 0.71136 0.0
C1835 C 0.57027 0.00293 0.7011 0.0
C1836 C 0.6862 -0.00352 0.7109 0.0
C1837 C 0.72316 -0.00376 0.70015 0.0
C1838 C 0.68252 -0.00024 0.68992 0.0
C1839 C 0.60716 0.00313 0.69041 0.0
H1840 H 0.664 0.03727 0.45582 0.0
H1841 H 0.67657 0.97043 0.44129 0.0
H1842 H 0.53107 0.03387 0.45701 0.0
H1843 H 0.54374 0.96691 0.44265 0.0
H1844 H 0.31425 0.9624 0.46061 0.0
H1845 H 0.44784 0.96565 0.45953 0.0
H1846 H 0.42567 0.02975 0.4423 0.0
H1847 H 0.29322 0.02638 0.44322 0.0
C1848 C 0.63822 0.02195 0.4528 0.0
C1849 C 0.68032 0.00418 0.44839 0.0
C1850 C 0.56233 0.01998 0.4535 0.0
C1851 C 0.52732 5e-05 0.45 0.0
C1852 C 0.56948 0.98234 0.44553 0.0
C1853 C 0.64527 0.98445 0.44464 0.0
C1854 C 0.33821 0.97716 0.45664 0.0
C1855 C 0.29369 -0.0059 0.45198 0.0
C1856 C 0.41436 0.97898 0.45596 0.0
C1857 C 0.4469 -0.00204 0.45082 0.0
C1858 C 0.40208 0.01503 0.44637 0.0
C1859 C 0.32633 0.01303 0.44686 0.0
H1860 H 0.46577 0.78354 0.45308 0.0
H1861 H 0.48178 0.71395 0.46351 0.0
H1862 H 0.33286 0.77987 0.45187 0.0
H1863 H 0.34924 0.71023 0.46209 0.0
H1864 H 0.12307 0.7092 0.4427 0.0
H1865 H 0.25627 0.71311 0.44433 0.0
H1866 H 0.2279 0.77085 0.46665 0.0
H1867 H 0.09593 0.76678 0.4652 0.0
C1868 C 0.44072 0.76759 0.45525 0.0
C1869 C 0.4836 0.74907 0.45844 0.0
C1870 C 0.36502 0.76547 0.45451 0.0
C1871 C 0.33144 0.7447 0.45676 0.0
C1872 C 0.37423 0.72631 0.46017 0.0
C1873 C 0.44974 0.72854 0.4611 0.0
C1874 C 0.14563 0.72269 0.44791 0.0
C1875 C 0.09973 0.73763 0.45385 0.0
C1876 C 0.22139 0.72487 0.44889 0.0
C1877 C 0.25176 0.74227 0.45563 0.0
C1878 C 0.20563 0.75739 0.46137 0.0
C1879 C 0.1303 0.75498 0.46057 0.0
H1880 H 0.32297 0.74426 0.31408 0.0
H1881 H 0.30791 0.7503 0.35142 0.0
H1882 H 0.45502 0.73822 0.31579 0.0
H1883 H 0.43889 0.74424 0.35314 0.0
H1884 H 0.68714 0.75683 0.34954 0.0
H1885 H 0.55562 0.76301 0.34823 0.0
H1886 H 0.53781 0.70812 0.32377 0.0
H1887 H 0.6695 0.702 0.32507 0.0
C1888 C 0.34804 0.74455 0.32261 0.0
C1889 C 0.30548 0.74778 0.3326 0.0
C1890 C 0.4233 0.74087 0.32361 0.0
C1891 C 0.45716 0.74062 0.33462 0.0
C1892 C 0.41454 0.74447 0.34455 0.0
C1893 C 0.33952 0.74791 0.34356 0.0
C1894 C 0.65488 0.74586 0.34404 0.0
C1895 C 0.68833 0.7289 0.33744 0.0
C1896 C 0.57967 0.74942 0.34327 0.0
C1897 C 0.53656 0.73621 0.33579 0.0
C1898 C 0.56984 0.7188 0.32945 0.0
C1899 C 0.645 0.71512 0.33031 0.0
H1900 H 0.12548 0.03751 0.33089 0.0
H1901 H 0.1116 0.9686 0.34246 0.0
H1902 H 0.25802 0.03393 0.32929 0.0
H1903 H 0.24409 0.96497 0.34077 0.0
H1904 H 0.46795 0.96139 0.3214 0.0
H1905 H 0.33525 0.96514 0.32378 0.0
H1906 H 0.36719 0.02754 0.34232 0.0
H1907 H 0.49868 0.02374 0.34002 0.0
C1908 C 0.15095 0.02174 0.33327 0.0
C1909 C 0.10847 0.00337 0.33684 0.0
C1910 C 0.22667 0.01965 0.33232 0.0
C1911 C 0.26115 -0.00092 0.33478 0.0
C1912 C 0.21877 0.9809 0.33866 0.0
C1913 C 0.14315 0.98308 0.33976 0.0
C1914 C 0.4463 0.97589 0.32593 0.0
C1915 C 0.49332 0.99225 0.33053 0.0
C1916 C 0.37066 0.97798 0.32736 0.0
C1917 C 0.34108 -0.00337 0.33326 0.0
C1918 C 0.38837 0.01309 0.33768 0.0
C1919 C 0.46363 0.01085 0.33639 0.0
H1920 H 0.21991 0.49624 0.56211 0.0
H1921 H 0.22478 0.49995 0.59959 0.0
H1922 H 0.08748 0.49111 0.56268 0.0
H1923 H 0.09356 0.49406 0.60025 0.0
H1924 H 0.84846 0.50513 0.59699 0.0
H1925 H 0.97984 0.51121 0.59632 0.0
H1926 H 0.99668 0.46395 0.56786 0.0
H1927 H 0.86458 0.45854 0.56832 0.0
C1928 C 0.19255 0.49604 0.57046 0.0
C1929 C 0.23247 0.4986 0.5808 0.0
C1930 C 0.11682 0.49286 0.57081 0.0
C1931 C 0.07957 0.49205 0.58152 0.0
C1932 C 0.11991 0.49491 0.59184 0.0
C1933 C 0.19532 0.49821 0.59147 0.0
C1934 C 0.88041 0.4959 0.59067 0.0
C1935 C 0.84643 0.48132 0.58273 0.0
C1936 C 0.95583 0.49934 0.59028 0.0
C1937 C 0.99919 0.48815 0.582 0.0
C1938 C 0.96503 0.47318 0.57421 0.0
C1939 C 0.88945 0.46986 0.57456 0.0
H1940 H 0.42998 0.71937 0.59374 0.0
H1941 H 0.41592 0.78838 0.58234 0.0
H1942 H 0.29749 0.7157 0.592 0.0
H1943 H 0.28338 0.78476 0.58069 0.0
H1944 H 0.04288 0.7745 0.59138 0.0
H1945 H 0.1744 0.77827 0.59367 0.0
H1946 H 0.20591 0.71598 0.57504 0.0
H1947 H 0.07314 0.71224 0.57267 0.0
C1948 C 0.39839 0.73386 0.59106 0.0
C1949 C 0.43304 0.7542 0.58822 0.0
C1950 C 0.32276 0.73166 0.58993 0.0
C1951 C 0.28031 0.74986 0.58609 0.0
C1952 C 0.31476 0.77047 0.58369 0.0
C1953 C 0.3905 0.77257 0.58467 0.0
C1954 C 0.07783 0.76162 0.58773 0.0
C1955 C 0.04797 0.74305 0.58184 0.0
C1956 C 0.15312 0.76385 0.58902 0.0
C1957 C 0.20033 0.74741 0.58457 0.0
C1958 C 0.17059 0.7288 0.57865 0.0
C1959 C 0.0949 0.72672 0.57722 0.0
H1960 H 0.8509 0.74965 0.68254 0.0
H1961 H 0.84609 0.75759 0.71984 0.0
H1962 H 0.98339 0.74447 0.68333 0.0
H1963 H 0.97706 0.75164 0.72074 0.0
H1964 H 0.22203 0.76156 0.71764 0.0
H1965 H 0.09097 0.76796 0.71652 0.0
H1966 H 0.07436 0.71805 0.68929 0.0
H1967 H 0.20626 0.71233 0.69017 0.0
C1968 C 0.87826 0.75039 0.69089 0.0
C1969 C 0.83832 0.75414 0.70111 0.0
C1970 C 0.95403 0.74718 0.69138 0.0
C1971 C 0.99127 0.74754 0.70212 0.0
C1972 C 0.95085 0.75158 0.7123 0.0
C1973 C 0.87551 0.75492 0.71179 0.0
C1974 C 0.1902 0.75181 0.7115 0.0
C1975 C 0.22423 0.73637 0.70404 0.0
C1976 C 0.11492 0.75544 0.71085 0.0
C1977 C 0.07165 0.74358 0.70279 0.0
C1978 C 0.10587 0.7278 0.69546 0.0
C1979 C 0.18136 0.7243 0.69606 0.0
H1980 H 0.08787 0.53522 0.70147 0.0
H1981 H 0.06842 0.46607 0.7125 0.0
H1982 H 0.22084 0.53088 0.70042 0.0
H1983 H 0.20065 0.46166 0.71118 0.0
H1984 H 0.42886 0.45917 0.69244 0.0
H1985 H 0.29565 0.46391 0.69344 0.0
H1986 H 0.32399 0.5214 0.71593 0.0
H1987 H 0.45589 0.51645 0.71516 0.0
C1988 C 0.11212 0.51922 0.70377 0.0
C1989 C 0.06826 0.50104 0.70713 0.0
C1990 C 0.18783 0.51671 0.70312 0.0
C1991 C 0.22037 0.49586 0.7056 0.0
C1992 C 0.17653 0.47779 0.70909 0.0
C1993 C 0.10114 0.48042 0.70996 0.0
C1994 C 0.40631 0.47276 0.69757 0.0
C1995 C 0.4522 0.48736 0.70376 0.0
C1996 C 0.33052 0.47544 0.69818 0.0
C1997 C 0.30013 0.49305 0.70476 0.0
C1998 C 0.34627 0.50782 0.71076 0.0
C1999 C 0.42157 0.50487 0.71035 0.0
H2000 H 0.83728 0.46328 0.43913 0.0
H2001 H 0.82103 0.51079 0.46738 0.0
H2002 H 0.96933 0.46886 0.43855 0.0
H2003 H 0.95216 0.51711 0.46656 0.0
H2004 H 0.19669 0.50655 0.47006 0.0
H2005 H 0.06565 0.50054 0.47069 0.0
H2006 H 0.06087 0.49542 0.43318 0.0
H2007 H 0.19333 0.5006 0.43265 0.0
C2008 C 0.8621 0.47485 0.44524 0.0
C2009 C 0.81907 0.48648 0.45336 0.0
C2010 C 0.93767 0.47828 0.44483 0.0
C2011 C 0.97177 0.49354 0.45247 0.0
C2012 C 0.92831 0.50498 0.46065 0.0
C2013 C 0.85298 0.5014 0.46112 0.0
C2014 C 0.16757 0.50431 0.46193 0.0
C2015 C 0.20515 0.5041 0.4513 0.0
C2016 C 0.09221 0.50094 0.46228 0.0
C2017 C 0.05221 0.49746 0.45199 0.0
C2018 C 0.08988 0.49767 0.4413 0.0
C2019 C 0.16564 0.50088 0.44097 0.0
H2020 H 0.95941 0.24999 0.42917 0.0
H2021 H 0.9528 0.25338 0.46665 0.0
H2022 H 0.82819 0.24393 0.42861 0.0
H2023 H 0.8204 0.24794 0.46613 0.0
H2024 H 0.59867 0.21359 0.46166 0.0
H2025 H 0.73057 0.21947 0.46206 0.0
H2026 H 0.71357 0.26172 0.43161 0.0
H2027 H 0.58221 0.25525 0.43106 0.0
C2028 C 0.92959 0.24976 0.4373 0.0
C2029 C 0.96631 0.2522 0.44796 0.0
C2030 C 0.85417 0.24635 0.43698 0.0
C2031 C 0.81334 0.24538 0.44732 0.0
C2032 C 0.85012 0.24823 0.45799 0.0
C2033 C 0.92585 0.25158 0.45831 0.0
C2034 C 0.62341 0.22391 0.45498 0.0
C2035 C 0.58028 0.23386 0.44629 0.0
C2036 C 0.6989 0.22751 0.45528 0.0
C2037 C 0.73298 0.24122 0.44692 0.0
C2038 C 0.68959 0.25086 0.43812 0.0
C2039 C 0.61419 0.24719 0.4378 0.0
H2040 H 0.17075 0.20092 0.32222 0.0
H2041 H 0.19025 0.25613 0.34641 0.0
H2042 H 0.03929 0.20749 0.32086 0.0
H2043 H 0.05914 0.26285 0.345 0.0
H2044 H 0.81103 0.2526 0.34817 0.0
H2045 H 0.94162 0.24588 0.34994 0.0
H2046 H 0.95613 0.23658 0.31275 0.0
H2047 H 0.82443 0.24316 0.31101 0.0
C2048 C 0.14673 0.21424 0.32738 0.0
C2049 C 0.19063 0.22795 0.33446 0.0
C2050 C 0.07162 0.21819 0.32648 0.0
C2051 C 0.0388 0.23585 0.33272 0.0
C2052 C 0.08255 0.24904 0.34012 0.0
C2053 C 0.15765 0.24517 0.34096 0.0
C2054 C 0.84221 0.24936 0.34034 0.0
C2055 C 0.80765 0.24847 0.32944 0.0
C2056 C 0.91711 0.24554 0.34136 0.0
C2057 C 0.95933 0.24057 0.3315 0.0
C2058 C 0.92493 0.24007 0.32054 0.0
C2059 C 0.84978 0.24407 0.31951 0.0
H2060 H 0.96854 0.51002 0.31648 0.0
H2061 H 0.95276 0.45722 0.34206 0.0
H2062 H 0.8376 0.51622 0.31773 0.0
H2063 H 0.82068 0.46272 0.34302 0.0
H2064 H 0.59588 0.49298 0.35048 0.0
H2065 H 0.72839 0.48785 0.34974 0.0
H2066 H 0.72439 0.50069 0.31274 0.0
H2067 H 0.59348 0.50663 0.31363 0.0
C2068 C 0.93671 0.49946 0.32223 0.0
C2069 C 0.97075 0.48306 0.32912 0.0
C2070 C 0.86144 0.50296 0.32294 0.0
C2071 C 0.81803 0.48999 0.33049 0.0
C2072 C 0.85226 0.4733 0.33726 0.0
C2073 C 0.92784 0.46995 0.33661 0.0
C2074 C 0.62378 0.49496 0.34225 0.0
C2075 C 0.5845 0.50034 0.33214 0.0
C2076 C 0.69958 0.49179 0.34178 0.0
C2077 C 0.73752 0.49378 0.33116 0.0
C2078 C 0.69771 0.49937 0.3211 0.0
C2079 C 0.62237 0.50271 0.3216 0.0
H2080 H 0.89445 0.94812 0.07958 0.0
H2081 H 0.86927 0.01745 0.08989 0.0
H2082 H 1.02496 0.95429 0.07668 0.0
H2083 H 0.99766 0.02412 0.08632 0.0
H2084 H 0.24404 0.02561 0.08819 0.0
H2085 H 0.11595 0.01897 0.09217 0.0
H2086 H 0.10762 0.97096 0.0639 0.0
H2087 H 0.23774 0.97671 0.06047 0.0
C2088 C 0.91708 0.9646 0.08134 0.0
C2089 C 0.87192 0.98225 0.08503 0.0
C2090 C 0.99166 0.96829 0.07949 0.0
C2091 C 1.02232 0.98982 0.08109 0.0
C2092 C 0.97693 0.00723 0.08513 0.0
C2093 C 0.90293 0.00343 0.08719 0.0
C2094 C 0.21453 0.01389 0.08271 0.0
C2095 C 0.25071 0.00174 0.07399 0.0
C2096 C 0.14077 0.01005 0.08499 0.0
C2097 C 0.1008 -0.00573 0.07843 0.0
C2098 C 0.13667 0.98282 0.06934 0.0
C2099 C 0.211 0.98637 0.06722 0.0
H2100 H 0.11399 0.21043 0.09086 0.0
H2101 H 0.09673 0.2594 0.06334 0.0
H2102 H 0.24602 0.21599 0.09146 0.0
H2103 H 0.22783 0.26574 0.0642 0.0
H2104 H 0.47249 0.2559 0.06054 0.0
H2105 H 0.34145 0.24987 0.05982 0.0
H2106 H 0.33776 0.24194 0.0972 0.0
H2107 H 0.47016 0.24707 0.09778 0.0
C2108 C 0.1386 0.22233 0.08491 0.0
C2109 C 0.09528 0.23436 0.077 0.0
C2110 C 0.21417 0.22574 0.08534 0.0
C2111 C 0.24802 0.24142 0.07792 0.0
C2112 C 0.20425 0.25327 0.06993 0.0
C2113 C 0.12891 0.24969 0.06944 0.0
C2114 C 0.44359 0.25304 0.06861 0.0
C2115 C 0.48147 0.25201 0.07922 0.0
C2116 C 0.36821 0.24965 0.06822 0.0
C2117 C 0.32848 0.24537 0.07845 0.0
C2118 C 0.36648 0.24479 0.08911 0.0
C2119 C 0.44224 0.24798 0.08948 0.0
H2120 H 0.89008 0.28143 0.20595 0.0
H2121 H 0.87318 0.22833 0.18047 0.0
H2122 H 1.0217 0.27519 0.20725 0.0
H2123 H 1.00477 0.22209 0.18176 0.0
H2124 H 0.25296 0.23549 0.17898 0.0
H2125 H 0.12185 0.24143 0.17729 0.0
H2126 H 0.10454 0.24447 0.21472 0.0
H2127 H 0.23666 0.23847 0.21641 0.0
C2128 C 0.91472 0.26867 0.20049 0.0
C2129 C 0.87155 0.25542 0.19307 0.0
C2130 C 0.98987 0.26492 0.20135 0.0
C2131 C 1.02344 0.24798 0.19471 0.0
C2132 C 0.98052 0.2353 0.18696 0.0
C2133 C 0.90527 0.23892 0.18619 0.0
C2134 C 0.22107 0.23719 0.18686 0.0
C2135 C 0.25483 0.23649 0.19783 0.0
C2136 C 0.14596 0.24056 0.18588 0.0
C2137 C 0.10293 0.24355 0.19586 0.0
C2138 C 0.13653 0.24248 0.20687 0.0
C2139 C 0.21186 0.23884 0.20785 0.0
H2140 H 0.42881 0.9459 0.19992 0.0
H2141 H 0.4411 0.01294 0.18567 0.0
H2142 H 0.2962 0.94932 0.20128 0.0
H2143 H 0.30844 0.01641 0.18708 0.0
H2144 H 0.08483 0.02247 0.20618 0.0
H2145 H 0.21747 0.0187 0.20386 0.0
H2146 H 0.1869 0.95331 0.18824 0.0
H2147 H 0.0554 0.95707 0.19052 0.0
C2148 C 0.40296 0.9612 0.19689 0.0
C2149 C 0.44499 0.97912 0.19266 0.0
C2150 C 0.32719 0.96319 0.1977 0.0
C2151 C 0.29223 0.98324 0.1944 0.0
C2152 C 0.33416 0.00091 0.18984 0.0
C2153 C 0.40986 -0.00119 0.18891 0.0
C2154 C 0.10677 0.00731 0.2023 0.0
C2155 C 0.06016 0.99008 0.19853 0.0
C2156 C 0.18237 0.0052 0.2009 0.0
C2157 C 0.21231 0.98572 0.19584 0.0
C2158 C 0.16543 0.96842 0.19223 0.0
C2159 C 0.09017 0.97063 0.19351 0.0
H2160 H 0.81082 0.98046 0.92994 0.0
H2161 H 0.82601 0.99044 0.96705 0.0
H2162 H 0.94173 0.98654 0.92807 0.0
H2163 H 0.9579 -0.00354 0.96521 0.0
H2164 H 0.17225 0.03165 0.95524 0.0
H2165 H 0.04061 0.02557 0.9566 0.0
H2166 H 0.05887 0.96872 0.93338 0.0
H2167 H 0.19036 0.97489 0.932 0.0
C2168 C 0.84244 0.98371 0.93772 0.0
C2169 C 0.80842 0.98495 0.94865 0.0
C2170 C 0.91745 0.98716 0.93665 0.0
C2171 C 0.9601 0.99211 0.94647 0.0
C2172 C 0.92623 -0.00704 0.95746 0.0
C2173 C 0.85102 0.9893 0.95854 0.0
C2174 C 0.14787 0.0181 0.95028 0.0
C2175 C 0.19137 0.00378 0.94348 0.0
C2176 C 0.07271 0.01444 0.95117 0.0
C2177 C 0.03951 -0.0035 0.94521 0.0
C2178 C 0.08279 0.98273 0.93805 0.0
C2179 C 0.15801 0.98628 0.93723 0.0
H2180 H 1.00614 0.71155 0.95964 0.0
H2181 H 0.98213 0.78028 0.94836 0.0
H2182 H 0.87718 0.70502 0.95634 0.0
H2183 H 0.8512 0.77443 0.94582 0.0
H2184 H 0.62919 0.75365 0.93264 0.0
H2185 H 0.7612 0.75823 0.93442 0.0
H2186 H 0.76212 0.71098 0.96304 0.0
H2187 H 0.63215 0.7054 0.96063 0.0
C2188 C 0.97262 0.72545 0.95673 0.0
C2189 C 1.00385 0.74646 0.95434 0.0
C2190 C 0.89832 0.72175 0.95485 0.0
C2191 C 0.85282 0.73916 0.9508 0.0
C2192 C 0.88427 0.76041 0.94869 0.0
C2193 C 0.95915 0.76393 0.95031 0.0
C2194 C 0.65832 0.74392 0.93911 0.0
C2195 C 0.62068 0.72906 0.94643 0.0
C2196 C 0.73385 0.74677 0.94028 0.0
C2197 C 0.77305 0.73518 0.94897 0.0
C2198 C 0.73488 0.71994 0.95609 0.0
C2199 C 0.65993 0.71675 0.95475 0.0
H2200 H 0.18948 0.71057 0.81875 0.0
H2201 H 0.20595 0.75728 0.84736 0.0
H2202 H 0.05759 0.71641 0.81807 0.0
H2203 H 0.07475 0.76374 0.84649 0.0
H2204 H 0.8291 0.75309 0.84944 0.0
H2205 H 0.96014 0.74692 0.85028 0.0
H2206 H 0.96758 0.74383 0.81273 0.0
H2207 H 0.83525 0.74931 0.81198 0.0
C2208 C 0.16474 0.72199 0.82494 0.0
C2209 C 0.20787 0.73336 0.83316 0.0
C2210 C 0.08925 0.72556 0.82446 0.0
C2211 C 0.0552 0.74068 0.83217 0.0
C2212 C 0.09863 0.75177 0.84051 0.0
C2213 C 0.17397 0.74811 0.84101 0.0
C2214 C 0.8588 0.75127 0.84136 0.0
C2215 C 0.82197 0.75173 0.83064 0.0
C2216 C 0.93415 0.74781 0.84183 0.0
C2217 C 0.97486 0.74482 0.83158 0.0
C2218 C 0.93798 0.7457 0.82082 0.0
C2219 C 0.86228 0.74907 0.82036 0.0
H2220 H 0.58655 0.9764 0.84645 0.0
H2221 H 0.60322 0.02703 0.81974 0.0
H2222 H 0.71757 0.9698 0.84526 0.0
H2223 H 0.73494 0.02109 0.81879 0.0
H2224 H 0.95683 0.98936 0.8113 0.0
H2225 H 0.82462 -0.00517 0.81234 0.0
H2226 H 0.83283 0.98526 0.84959 0.0
H2227 H 0.96371 0.97904 0.84843 0.0
C2228 C 0.61856 0.98641 0.84047 0.0
C2229 C 0.58472 0.00229 0.83322 0.0
C2230 C 0.69384 0.98267 0.83978 0.0
C2231 C 0.73731 -0.00517 0.83188 0.0
C2232 C 0.70331 0.01109 0.82481 0.0
C2233 C 0.62788 0.01471 0.82545 0.0
C2234 C 0.92998 0.98816 0.81966 0.0
C2235 C 0.9705 0.98367 0.82976 0.0
C2236 C 0.85432 0.99153 0.8203 0.0
C2237 C 0.81763 0.99062 0.83107 0.0
C2238 C 0.85856 0.98579 0.84112 0.0
C2239 C 0.93386 0.98229 0.84046 0.0
H2240 H 0.98389 0.5105 0.04743 0.0
H2241 H 0.14157 0.45795 0.04126 0.0
H2242 H 0.97029 0.51565 0.02642 0.0
H2243 H 0.13162 0.46383 0.0205 0.0
H2244 H 0.05147 0.4649 0.98318 0.0
H2245 H 0.06101 0.45888 1.00407 0.0
H2246 H 0.02891 0.53005 1.00992 0.0
H2247 H 1.01543 0.53567 0.98903 0.0
C2248 C 1.01554 0.50008 0.04158 0.0
C2249 C 0.06372 0.48386 0.046 0.0
C2250 C 1.00852 0.50316 0.02953 0.0
C2251 C 0.05024 0.49027 0.02166 0.0
C2252 C 0.09758 0.47386 0.02618 0.0
C2253 C 0.10369 0.47057 0.03815 0.0
C2254 C 0.04737 0.47926 0.98895 0.0
C2255 C 0.03281 0.50075 0.9845 0.0
C2256 C 0.05287 0.47586 1.00096 0.0
C2257 C 0.04527 0.49395 1.00881 0.0
C2258 C 0.03328 0.51559 1.00424 0.0
C2259 C 0.02658 0.51891 0.99225 0.0
H2260 H 0.41229 0.71464 0.99246 0.0
H2261 H 0.23336 0.75835 0.98338 0.0
H2262 H 0.38196 0.71811 1.01292 0.0
H2263 H 0.20454 0.7629 1.00404 0.0
H2264 H 0.12742 0.74947 0.04067 0.0
H2265 H 0.15684 0.74493 0.02031 0.0
H2266 H 0.3863 0.7422 0.02903 0.0
H2267 H 0.35561 0.74567 0.04972 0.0
C2268 C 0.36627 0.72507 0.99488 0.0
C2269 C 0.32487 0.73617 0.98635 0.0
C2270 C 0.34942 0.72728 1.00666 0.0
C2271 C 0.29125 0.74096 1.01025 0.0
C2272 C 0.24921 0.75194 1.00164 0.0
C2273 C 0.26554 0.74942 0.98979 0.0
C2274 C 0.18431 0.74785 0.03826 0.0
C2275 C 0.23936 0.74795 0.04679 0.0
C2276 C 0.20123 0.74545 0.02652 0.0
C2277 C 0.27399 0.74342 0.02289 0.0
C2278 C 0.32944 0.74345 0.03147 0.0
C2279 C 0.31219 0.74553 0.04333 0.0
H2280 H 0.07545 0.75771 0.29997 0.0
H2281 H 0.90398 0.71123 0.29083 0.0
H2282 H 0.10489 0.76221 0.2793 0.0
H2283 H 0.93479 0.71478 0.27041 0.0
H2284 H 0.95495 0.74267 0.23377 0.0
H2285 H 0.92575 0.73936 0.2545 0.0
H2286 H 0.15519 0.74451 0.26292 0.0
H2287 H 0.1832 0.74879 0.24245 0.0
C2288 C 0.04518 0.74816 0.29356 0.0
C2289 C 0.98755 0.73417 0.29696 0.0
C2290 C 0.06179 0.75068 0.28171 0.0
C2291 C 1.02163 0.73903 0.2731 0.0
C2292 C 0.96563 0.72451 0.27668 0.0
C2293 C 0.94855 0.72226 0.28843 0.0
C2294 C 0.99873 0.74311 0.2401 0.0
C2295 C 0.07112 0.74603 0.23652 0.0
C2296 C 0.98233 0.74111 0.25198 0.0
C2297 C 0.0382 0.7417 0.26046 0.0
C2298 C 0.11054 0.74445 0.25675 0.0
C2299 C 0.12664 0.7467 0.24496 0.0
H2300 H 0.27302 0.4498 0.23973 0.0
H2301 H 0.27967 0.52163 0.23475 0.0
H2302 H 0.27539 0.45512 0.26076 0.0
H2303 H 0.27737 0.52721 0.2557 0.0
H2304 H 0.34096 0.53038 0.29366 0.0
H2305 H 0.34074 0.52516 0.27282 0.0
H2306 H 0.20626 0.46588 0.2768 0.0
H2307 H 0.21089 0.47046 0.29794 0.0
C2308 C 0.2754 0.46675 0.24317 0.0
C2309 C 0.27684 0.48528 0.23563 0.0
C2310 C 0.27557 0.46985 0.25524 0.0
C2311 C 0.27574 0.49163 0.26007 0.0
C2312 C 0.27843 0.51015 0.25242 0.0
C2313 C 0.27976 0.50701 0.24036 0.0
C2314 C 0.31084 0.51628 0.29011 0.0
C2315 C 0.27623 0.50074 0.29747 0.0
C2316 C 0.31032 0.51335 0.27807 0.0
C2317 C 0.27378 0.49502 0.27297 0.0
C2318 C 0.23653 0.47992 0.28035 0.0
C2319 C 0.23821 0.48267 0.29248 0.0
H2320 H 0.85605 0.20328 0.98728 0.0
H2321 H 0.72443 0.26287 0.98299 0.0
H2322 H 0.85796 0.20892 1.00809 0.0
H2323 H 0.72196 0.26786 1.00411 0.0
H2324 H 0.78956 0.28443 0.04109 0.0
H2325 H 0.79148 0.27894 0.02007 0.0
H2326 H 0.79593 0.20691 0.02529 0.0
H2327 H 0.79868 0.21267 0.04622 0.0
C2328 C 0.82609 0.2174 0.99083 0.0
C2329 C 0.79028 0.23269 0.98346 0.0
C2330 C 0.82681 0.22058 1.00285 0.0
C2331 C 0.79034 0.23891 1.00794 0.0
C2332 C 0.75216 0.25382 1.00056 0.0
C2333 C 0.75262 0.25083 0.98845 0.0
C2334 C 0.79246 0.26747 0.03768 0.0
C2335 C 0.79466 0.24901 0.04527 0.0
C2336 C 0.79236 0.26426 0.02562 0.0
C2337 C 0.79302 0.24244 0.02084 0.0
C2338 C 0.79661 0.224 0.02853 0.0
C2339 C 0.79819 0.22726 0.04058 0.0
H2340 H 0.95159 0.20165 0.78848 0.0
H2341 H 0.04754 0.26638 0.79589 0.0
H2342 H 0.9705 0.20769 0.7677 0.0
H2343 H 0.06479 0.27275 0.77511 0.0
H2344 H 0.16393 0.26457 0.73913 0.0
H2345 H 0.1385 0.25945 0.75959 0.0
H2346 H 0.93 0.22979 0.75101 0.0
H2347 H 0.95697 0.2345 0.73018 0.0
C2348 C 0.97688 0.21717 0.78566 0.0
C2349 C 0.9985 0.23349 0.79382 0.0
C2350 C 0.98689 0.22075 0.77373 0.0
C2351 C 1.01879 0.24075 0.76968 0.0
C2352 C 0.04079 0.25702 0.7779 0.0
C2353 C 0.03101 0.25339 0.78982 0.0
C2354 C 0.11228 0.25708 0.74156 0.0
C2355 C 0.06236 0.24994 0.73304 0.0
C2356 C 0.09749 0.25428 0.75335 0.0
C2357 C 0.0321 0.24429 0.75701 0.0
C2358 C 0.98129 0.23737 0.74848 0.0
C2359 C 0.99627 0.24021 0.73658 0.0
H2360 H 0.8569 0.53111 0.79269 0.0
H2361 H 0.71396 0.47435 0.79792 0.0
H2362 H 0.85381 0.52496 0.77189 0.0
H2363 H 0.70663 0.46892 0.77687 0.0
H2364 H 0.76226 0.45 0.73986 0.0
H2365 H 0.77116 0.45603 0.7608 0.0
H2366 H 0.78887 0.52768 0.75492 0.0
H2367 H 0.78457 0.52128 0.73403 0.0
C2368 C 0.82343 0.51754 0.78936 0.0
C2369 C 0.78584 0.50314 0.79696 0.0
C2370 C 0.82132 0.51406 0.77735 0.0
C2371 C 0.78026 0.49634 0.77255 0.0
C2372 C 0.74036 0.48241 0.78019 0.0
C2373 C 0.74362 0.48567 0.79227 0.0
C2374 C 0.76965 0.46696 0.74309 0.0
C2375 C 0.77326 0.48513 0.73534 0.0
C2376 C 0.77355 0.47051 0.75511 0.0
C2377 C 0.77972 0.4924 0.75969 0.0
C2378 C 0.78519 0.51052 0.75183 0.0
C2379 C 0.78275 0.5069 0.7398 0.0
H2380 H 0.1531 0.97035 0.54013 0.0
H2381 H 0.94684 2e-05 0.54976 0.0
H2382 H 0.12526 0.97568 0.51981 0.0
H2383 H 0.91707 0.00479 0.52901 0.0
H2384 H 0.9345 0.03297 0.49138 0.0
H2385 H 0.95366 0.02676 0.51216 0.0
H2386 H 0.05138 0.96228 0.50455 0.0
H2387 H 0.03449 0.96892 0.4838 0.0
C2388 C 0.101 0.97778 0.53788 0.0
C2389 C 0.05203 0.98476 0.54655 0.0
C2390 C 0.08479 0.98068 0.52616 0.0
C2391 C 1.0187 0.99051 0.5227 0.0
C2392 C 0.96883 -0.00269 0.53138 0.0
C2393 C 0.98539 -0.00556 0.54324 0.0
C2394 C 0.96054 0.01754 0.49418 0.0
C2395 C 0.98363 0.00151 0.48598 0.0
C2396 C 0.9707 0.01386 0.50609 0.0
C2397 C 1.00395 -0.00599 0.51007 0.0
C2398 C 0.02659 0.97793 0.50182 0.0
C2399 C 1.01699 0.9817 0.48991 0.0
H2400 H 0.26227 0.27207 0.48151 0.0
H2401 H 0.27479 0.20031 0.48645 0.0
H2402 H 0.26204 0.27758 0.50248 0.0
H2403 H 0.26993 0.20552 0.50747 0.0
H2404 H 0.33049 0.22129 0.54481 0.0
H2405 H 0.33697 0.2168 0.52367 0.0
H2406 H 0.19738 0.27488 0.51943 0.0
H2407 H 0.19526 0.28005 0.54027 0.0
C2408 C 0.26285 0.25743 0.48711 0.0
C2409 C 0.26819 0.23576 0.48237 0.0
C2410 C 0.26276 0.26054 0.49918 0.0
C2411 C 0.26645 0.24201 0.50681 0.0
C2412 C 0.26894 0.22026 0.50197 0.0
C2413 C 0.27051 0.21721 0.4899 0.0
C2414 C 0.30239 0.23325 0.5393 0.0
C2415 C 0.26239 0.25098 0.54421 0.0
C2416 C 0.30516 0.23056 0.52717 0.0
C2417 C 0.26708 0.24535 0.51972 0.0
C2418 C 0.22847 0.26331 0.52474 0.0
C2419 C 0.22684 0.26621 0.53678 0.0
H2420 H 0.34917 0.0317 0.7923 0.0
H2421 H 0.20647 0.97482 0.79735 0.0
H2422 H 0.34515 0.02605 0.77148 0.0
H2423 H 0.19817 0.96989 0.77627 0.0
H2424 H 0.25603 0.95167 0.73912 0.0
H2425 H 0.26284 0.95735 0.7601 0.0
H2426 H 0.2795 0.02914 0.7546 0.0
H2427 H 0.27733 0.02311 0.73368 0.0
C2428 C 0.31555 0.01821 0.78892 0.0
C2429 C 0.27838 0.00362 0.79648 0.0
C2430 C 0.31286 0.01503 0.77691 0.0
C2431 C 0.27158 -0.00257 0.77205 0.0
C2432 C 0.232 0.98332 0.77964 0.0
C2433 C 0.23584 0.98628 0.79173 0.0
C2434 C 0.26252 0.9686 0.74245 0.0
C2435 C 0.26673 0.98692 0.7348 0.0
C2436 C 0.26529 0.97193 0.75449 0.0
C2437 C 0.2709 -0.00625 0.75918 0.0
C2438 C 0.27635 0.01204 0.75142 0.0
C2439 C 0.27508 0.00863 0.73938 0.0
H2440 H 0.83316 0.6998 0.49043 0.0
H2441 H 0.72079 0.76215 0.48347 0.0
H2442 H 0.81251 0.70484 0.51126 0.0
H2443 H 0.70145 0.76748 0.50428 0.0
H2444 H 0.60857 0.75703 0.54036 0.0
H2445 H 0.63208 0.75165 0.51986 0.0
H2446 H 0.85001 0.72856 0.52781 0.0
H2447 H 0.8253 0.73356 0.54871 0.0
C2448 C 0.80362 0.71452 0.49336 0.0
C2449 C 0.77833 0.73055 0.48533 0.0
C2450 C 0.79263 0.71754 0.5053 0.0
C2451 C 0.75588 0.73664 0.50947 0.0
C2452 C 0.72944 0.75246 0.50138 0.0
C2453 C 0.74036 0.74942 0.48945 0.0
C2454 C 0.6618 0.75088 0.53779 0.0
C2455 C 0.71527 0.74576 0.54615 0.0
C2456 C 0.67537 0.74793 0.52598 0.0
C2457 C 0.74301 0.73981 0.52215 0.0
C2458 C 0.79703 0.7347 0.5305 0.0
C2459 C 0.78328 0.73769 0.54243 0.0
H2460 H 0.62071 -0.00519 0.2403 0.0
H2461 H 0.84848 0.98801 0.23155 0.0
H2462 H 0.65139 -0.00247 0.26077 0.0
H2463 H 0.87981 0.98971 0.25227 0.0
H2464 H 0.91683 0.01542 0.28897 0.0
H2465 H 0.88604 0.01368 0.26848 0.0
H2466 H 0.69032 0.97645 0.27686 0.0
H2467 H 0.72022 0.97921 0.2976 0.0
C2468 C 0.67763 -0.00619 0.2428 0.0
C2469 C 0.73235 0.99122 0.23436 0.0
C2470 C 0.69516 -0.00487 0.25457 0.0
C2471 C 0.76799 -0.00641 0.25827 0.0
C2472 C 0.82309 0.99122 0.24976 0.0
C2473 C 0.80542 0.9902 0.23789 0.0
C2474 C 0.86693 0.00695 0.28644 0.0
C2475 C 0.82069 -0.00252 0.29486 0.0
C2476 C 0.84965 0.00575 0.27465 0.0
C2477 C 0.78599 -0.00522 0.27092 0.0
C2478 C 0.7394 0.98532 0.27939 0.0
C2479 C 0.75638 0.9868 0.29127 0.0
H2480 H 0.52668 0.52172 0.54819 0.0
H2481 H 0.54215 0.45041 0.54189 0.0
H2482 H 0.52394 0.52861 0.52731 0.0
H2483 H 0.53477 0.45695 0.521 0.0
H2484 H 0.58981 0.47479 0.48388 0.0
H2485 H 0.59933 0.46939 0.50491 0.0
H2486 H 0.45862 0.52684 0.51034 0.0
H2487 H 0.45344 0.53291 0.48955 0.0
C2488 C 0.52749 0.50748 0.54231 0.0
C2489 C 0.53438 0.48553 0.54664 0.0
C2490 C 0.52593 0.51137 0.5303 0.0
C2491 C 0.52973 0.49337 0.52232 0.0
C2492 C 0.53375 0.47134 0.52676 0.0
C2493 C 0.5368 0.46751 0.53876 0.0
C2494 C 0.56212 0.48644 0.48963 0.0
C2495 C 0.52089 0.50423 0.48505 0.0
C2496 C 0.56662 0.48321 0.5017 0.0
C2497 C 0.52898 0.4975 0.50946 0.0
C2498 C 0.48933 0.51561 0.50478 0.0
C2499 C 0.48599 0.51905 0.49278 0.0
H2500 H 0.50593 0.70044 0.79234 0.0
H2501 H 0.52822 0.77179 0.79805 0.0
H2502 H 0.5128 0.70635 0.77138 0.0
H2503 H 0.53032 0.77806 0.77717 0.0
H2504 H 0.59934 0.78131 0.73953 0.0
H2505 H 0.59561 0.77525 0.76031 0.0
H2506 H 0.4491 0.71905 0.75518 0.0
H2507 H 0.45721 0.72438 0.73412 0.0
C2508 C 0.51261 0.7174 0.78907 0.0
C2509 C 0.51715 0.73562 0.7968 0.0
C2510 C 0.51542 0.72087 0.77704 0.0
C2511 C 0.52138 0.74274 0.77244 0.0
C2512 C 0.52699 0.76092 0.78027 0.0
C2513 C 0.52572 0.75737 0.7923 0.0
C2514 C 0.56588 0.76772 0.74282 0.0
C2515 C 0.52873 0.75325 0.73517 0.0
C2516 C 0.56336 0.76429 0.75482 0.0
C2517 C 0.52221 0.74659 0.75957 0.0
C2518 C 0.48281 0.73256 0.75189 0.0
C2519 C 0.48654 0.73575 0.73982 0.0
H2520 H 0.4074 0.21066 0.28772 0.0
H2521 H 0.57781 0.25717 0.29731 0.0
H2522 H 0.43891 0.21474 0.26735 0.0
H2523 H 0.60791 0.2622 0.27671 0.0
H2524 H 0.69037 0.24926 0.24016 0.0
H2525 H 0.65991 0.24472 0.26049 0.0
H2526 H 0.43165 0.23921 0.25135 0.0
H2527 H 0.46343 0.24279 0.2307 0.0
C2528 C 0.45184 0.22182 0.28543 0.0
C2529 C 0.49048 0.23354 0.29408 0.0
C2530 C 0.46932 0.22437 0.27371 0.0
C2531 C 0.52541 0.23899 0.27027 0.0
C2532 C 0.56487 0.25056 0.279 0.0
C2533 C 0.54785 0.24774 0.29081 0.0
C2534 C 0.63352 0.24705 0.24247 0.0
C2535 C 0.57915 0.24637 0.23384 0.0
C2536 C 0.61599 0.24465 0.25419 0.0
C2537 C 0.54328 0.24176 0.25768 0.0
C2538 C 0.48849 0.24111 0.24901 0.0
C2539 C 0.50636 0.24326 0.23718 0.0
H2540 H 0.46338 0.99134 0.04743 0.0
H2541 H 0.69113 0.98781 0.03812 0.0
H2542 H 0.43149 -0.00526 0.02676 0.0
H2543 H 0.66044 0.99216 0.01779 0.0
H2544 H 0.58043 0.97774 0.98107 0.0
H2545 H 0.61051 0.9734 1.00171 0.0
H2546 H 0.43668 0.01941 1.01069 0.0
H2547 H 0.40531 0.02283 0.99025 0.0
C2548 C 0.50641 0.9915 0.04099 0.0
C2549 C 0.57948 0.98919 0.04435 0.0
C2550 C 0.48848 -0.00647 0.02915 0.0
C2551 C 0.54349 -0.00643 0.02054 0.0
C2552 C 0.61646 0.99163 0.02407 0.0
C2553 C 0.63408 0.98934 0.03578 0.0
C2554 C 0.54943 0.98702 0.98749 0.0
C2555 C 0.49079 0.00061 0.9841 0.0
C2556 C 0.56641 0.98459 0.99932 0.0
C2557 C 0.52561 -0.00405 1.00794 0.0
C2558 C 0.46819 0.00997 1.00439 0.0
C2559 C 0.45079 0.01215 0.99264 0.0
loop_
_geom_bond_atom_site_label_1
_geom_bond_atom_site_label_2
_geom_bond_distance
_geom_bond_site_symmetry_2
_ccdc_geom_bond_type
Dy0 O4 2.398 . S
Dy0 O5 2.491 . S
Dy0 O6 2.403 . S
Dy0 O7 2.664 1_655 S
Dy0 O11 2.326 . S
Dy0 O15 2.310 1_655 S
Dy0 O16 2.351 1_655 S
C1 O12 1.185 . S
C1 O13 1.355 . S
C2 O4 1.185 . S
C2 O5 1.355 . S
Dy3 O7 2.310 . S
Dy3 O10 2.351 . S
Dy3 O12 2.398 . S
Dy3 O13 2.491 . S
Dy3 O14 2.403 . S
Dy3 O15 2.664 . S
Dy3 O17 2.326 . S
O4 Dy0 2.398 . S
O4 C2 1.185 . S
O5 Dy0 2.491 . S
O5 C2 1.355 . S
O6 Dy0 2.403 . S
O6 C8 1.254 1_655 S
O7 Dy0 2.664 1_455 S
O7 Dy3 2.310 . S
O7 C8 1.268 . S
C8 O6 1.254 1_455 S
C8 O7 1.268 . S
C9 O14 1.254 . S
C9 O15 1.268 . S
O10 Dy3 2.351 . S
O10 C18 1.249 1_455 S
O11 Dy0 2.326 . S
O11 C18 1.267 . S
O12 C1 1.185 . S
O12 Dy3 2.398 . S
O13 C1 1.355 . S
O13 Dy3 2.491 . S
O14 Dy3 2.403 . S
O14 C9 1.254 . S
O15 Dy0 2.310 1_455 S
O15 Dy3 2.664 . S
O15 C9 1.268 . S
O16 Dy0 2.351 1_455 S
O16 C19 1.249 . S
O17 Dy3 2.326 . S
O17 C19 1.267 . S
C18 O10 1.249 1_655 S
C18 O11 1.267 . S
C19 O16 1.249 . S
C19 O17 1.267 . S
Dy20 O24 2.398 . S
Dy20 O25 2.491 . S
Dy20 O26 2.403 . S
Dy20 O27 2.664 . S
Dy20 O31 2.326 . S
Dy20 O35 2.310 . S
Dy20 O36 2.351 . S
C21 O32 1.185 1_655 S
C21 O33 1.355 1_655 S
C22 O24 1.185 . S
C22 O25 1.355 . S
Dy23 O27 2.310 . S
Dy23 O30 2.351 . S
Dy23 O32 2.398 . S
Dy23 O33 2.491 . S
Dy23 O34 2.403 . S
Dy23 O35 2.664 . S
Dy23 O37 2.326 . S
O24 Dy20 2.398 . S
O24 C22 1.185 . S
O25 Dy20 2.491 . S
O25 C22 1.355 . S
O26 Dy20 2.403 . S
O26 C28 1.254 . S
O27 Dy20 2.664 . S
O27 Dy23 2.310 . S
O27 C28 1.268 . S
C28 O26 1.254 . S
C28 O27 1.268 . S
C29 O34 1.254 . S
C29 O35 1.268 . S
O30 Dy23 2.351 . S
O30 C38 1.249 . S
O31 Dy20 2.326 . S
O31 C38 1.267 . S
O32 C21 1.185 1_455 S
O32 Dy23 2.398 . S
O33 C21 1.355 1_455 S
O33 Dy23 2.491 . S
O34 Dy23 2.403 . S
O34 C29 1.254 . S
O35 Dy20 2.310 . S
O35 Dy23 2.664 . S
O35 C29 1.268 . S
O36 Dy20 2.351 . S
O36 C39 1.249 . S
O37 Dy23 2.326 . S
O37 C39 1.267 . S
C38 O30 1.249 . S
C38 O31 1.267 . S
C39 O36 1.249 . S
C39 O37 1.267 . S
Dy40 O44 2.398 . S
Dy40 O45 2.491 . S
Dy40 O46 2.403 . S
Dy40 O47 2.664 1_655 S
Dy40 O51 2.326 . S
Dy40 O55 2.310 1_655 S
Dy40 O56 2.351 1_655 S
C41 O52 1.185 . S
C41 O53 1.355 . S
C42 O44 1.185 . S
C42 O45 1.355 . S
Dy43 O47 2.310 . S
Dy43 O50 2.351 . S
Dy43 O52 2.398 . S
Dy43 O53 2.491 . S
Dy43 O54 2.403 . S
Dy43 O55 2.664 . S
Dy43 O57 2.326 . S
O44 Dy40 2.398 . S
O44 C42 1.185 . S
O45 Dy40 2.491 . S
O45 C42 1.355 . S
O46 Dy40 2.403 . S
O46 C48 1.254 1_655 S
O47 Dy40 2.664 1_455 S
O47 Dy43 2.310 . S
O47 C48 1.268 . S
C48 O46 1.254 1_455 S
C48 O47 1.268 . S
C49 O54 1.254 . S
C49 O55 1.268 . S
O50 Dy43 2.351 . S
O50 C58 1.249 1_455 S
O51 Dy40 2.326 . S
O51 C58 1.267 . S
O52 C41 1.185 . S
O52 Dy43 2.398 . S
O53 C41 1.355 . S
O53 Dy43 2.491 . S
O54 Dy43 2.403 . S
O54 C49 1.254 . S
O55 Dy40 2.310 1_455 S
O55 Dy43 2.664 . S
O55 C49 1.268 . S
O56 Dy40 2.351 1_455 S
O56 C59 1.249 . S
O57 Dy43 2.326 . S
O57 C59 1.267 . S
C58 O50 1.249 1_655 S
C58 O51 1.267 . S
C59 O56 1.249 . S
C59 O57 1.267 . S
Dy60 O64 2.398 . S
Dy60 O65 2.491 . S
Dy60 O66 2.403 . S
Dy60 O67 2.664 . S
Dy60 O71 2.326 . S
Dy60 O75 2.310 . S
Dy60 O76 2.351 . S
C61 O72 1.185 1_655 S
C61 O73 1.355 1_655 S
C62 O64 1.185 . S
C62 O65 1.355 . S
Dy63 O67 2.310 . S
Dy63 O70 2.351 . S
Dy63 O72 2.398 . S
Dy63 O73 2.491 . S
Dy63 O74 2.403 . S
Dy63 O75 2.664 . S
Dy63 O77 2.326 . S
O64 Dy60 2.398 . S
O64 C62 1.185 . S
O65 Dy60 2.491 . S
O65 C62 1.355 . S
O66 Dy60 2.403 . S
O66 C68 1.254 . S
O67 Dy60 2.664 . S
O67 Dy63 2.310 . S
O67 C68 1.268 . S
C68 O66 1.254 . S
C68 O67 1.268 . S
C69 O74 1.254 . S
C69 O75 1.268 . S
O70 Dy63 2.351 . S
O70 C78 1.249 . S
O71 Dy60 2.326 . S
O71 C78 1.267 . S
O72 C61 1.185 1_455 S
O72 Dy63 2.398 . S
O73 C61 1.355 1_455 S
O73 Dy63 2.491 . S
O74 Dy63 2.403 . S
O74 C69 1.254 . S
O75 Dy60 2.310 . S
O75 Dy63 2.664 . S
O75 C69 1.268 . S
O76 Dy60 2.351 . S
O76 C79 1.249 . S
O77 Dy63 2.326 . S
O77 C79 1.267 . S
C78 O70 1.249 . S
C78 O71 1.267 . S
C79 O76 1.249 . S
C79 O77 1.267 . S
Dy80 O84 2.398 . S
Dy80 O85 2.491 . S
Dy80 O86 2.403 . S
Dy80 O87 2.664 . S
Dy80 O91 2.326 . S
Dy80 O95 2.310 . S
Dy80 O96 2.351 . S
C81 O92 1.185 . S
C81 O93 1.355 . S
C82 O84 1.185 . S
C82 O85 1.355 . S
Dy83 O87 2.310 1_455 S
Dy83 O90 2.351 1_455 S
Dy83 O92 2.398 . S
Dy83 O93 2.491 . S
Dy83 O94 2.403 . S
Dy83 O95 2.664 1_455 S
Dy83 O97 2.326 . S
O84 Dy80 2.398 . S
O84 C82 1.185 . S
O85 Dy80 2.491 . S
O85 C82 1.355 . S
O86 Dy80 2.403 . S
O86 C88 1.254 . S
O87 Dy80 2.664 . S
O87 Dy83 2.310 1_655 S
O87 C88 1.268 . S
C88 O86 1.254 . S
C88 O87 1.268 . S
C89 O94 1.254 1_655 S
C89 O95 1.268 . S
O90 Dy83 2.351 1_655 S
O90 C98 1.249 . S
O91 Dy80 2.326 . S
O91 C98 1.267 . S
O92 C81 1.185 . S
O92 Dy83 2.398 . S
O93 C81 1.355 . S
O93 Dy83 2.491 . S
O94 Dy83 2.403 . S
O94 C89 1.254 1_455 S
O95 Dy80 2.310 . S
O95 Dy83 2.664 1_655 S
O95 C89 1.268 . S
O96 Dy80 2.351 . S
O96 C99 1.249 1_655 S
O97 Dy83 2.326 . S
O97 C99 1.267 . S
C98 O90 1.249 . S
C98 O91 1.267 . S
C99 O96 1.249 1_455 S
C99 O97 1.267 . S
Dy100 O104 2.398 . S
Dy100 O105 2.491 . S
Dy100 O106 2.403 . S
Dy100 O107 2.664 . S
Dy100 O111 2.326 . S
Dy100 O115 2.310 . S
Dy100 O116 2.351 . S
C101 O112 1.185 . S
C101 O113 1.355 . S
C102 O104 1.185 1_455 S
C102 O105 1.355 1_455 S
Dy103 O107 2.310 . S
Dy103 O110 2.351 . S
Dy103 O112 2.398 . S
Dy103 O113 2.491 . S
Dy103 O114 2.403 . S
Dy103 O115 2.664 . S
Dy103 O117 2.326 . S
O104 Dy100 2.398 . S
O104 C102 1.185 1_655 S
O105 Dy100 2.491 . S
O105 C102 1.355 1_655 S
O106 Dy100 2.403 . S
O106 C108 1.254 . S
O107 Dy100 2.664 . S
O107 Dy103 2.310 . S
O107 C108 1.268 . S
C108 O106 1.254 . S
C108 O107 1.268 . S
C109 O114 1.254 . S
C109 O115 1.268 . S
O110 Dy103 2.351 . S
O110 C118 1.249 . S
O111 Dy100 2.326 . S
O111 C118 1.267 . S
O112 C101 1.185 . S
O112 Dy103 2.398 . S
O113 C101 1.355 . S
O113 Dy103 2.491 . S
O114 Dy103 2.403 . S
O114 C109 1.254 . S
O115 Dy100 2.310 . S
O115 Dy103 2.664 . S
O115 C109 1.268 . S
O116 Dy100 2.351 . S
O116 C119 1.249 . S
O117 Dy103 2.326 . S
O117 C119 1.267 . S
C118 O110 1.249 . S
C118 O111 1.267 . S
C119 O116 1.249 . S
C119 O117 1.267 . S
Dy120 O124 2.398 . S
Dy120 O125 2.491 . S
Dy120 O126 2.403 . S
Dy120 O127 2.664 . S
Dy120 O131 2.326 . S
Dy120 O135 2.310 . S
Dy120 O136 2.351 . S
C121 O132 1.185 . S
C121 O133 1.355 . S
C122 O124 1.185 . S
C122 O125 1.355 . S
Dy123 O127 2.310 1_455 S
Dy123 O130 2.351 1_455 S
Dy123 O132 2.398 . S
Dy123 O133 2.491 . S
Dy123 O134 2.403 . S
Dy123 O135 2.664 1_455 S
Dy123 O137 2.326 . S
O124 Dy120 2.398 . S
O124 C122 1.185 . S
O125 Dy120 2.491 . S
O125 C122 1.355 . S
O126 Dy120 2.403 . S
O126 C128 1.254 . S
O127 Dy120 2.664 . S
O127 Dy123 2.310 1_655 S
O127 C128 1.268 . S
C128 O126 1.254 . S
C128 O127 1.268 . S
C129 O134 1.254 1_655 S
C129 O135 1.268 . S
O130 Dy123 2.351 1_655 S
O130 C138 1.249 . S
O131 Dy120 2.326 . S
O131 C138 1.267 . S
O132 C121 1.185 . S
O132 Dy123 2.398 . S
O133 C121 1.355 . S
O133 Dy123 2.491 . S
O134 Dy123 2.403 . S
O134 C129 1.254 1_455 S
O135 Dy120 2.310 . S
O135 Dy123 2.664 1_655 S
O135 C129 1.268 . S
O136 Dy120 2.351 . S
O136 C139 1.249 1_655 S
O137 Dy123 2.326 . S
O137 C139 1.267 . S
C138 O130 1.249 . S
C138 O131 1.267 . S
C139 O136 1.249 1_455 S
C139 O137 1.267 . S
Dy140 O144 2.398 . S
Dy140 O145 2.491 . S
Dy140 O146 2.403 . S
Dy140 O147 2.664 . S
Dy140 O151 2.326 . S
Dy140 O155 2.310 . S
Dy140 O156 2.351 . S
C141 O152 1.185 . S
C141 O153 1.355 . S
C142 O144 1.185 1_455 S
C142 O145 1.355 1_455 S
Dy143 O147 2.310 . S
Dy143 O150 2.351 . S
Dy143 O152 2.398 . S
Dy143 O153 2.491 . S
Dy143 O154 2.403 . S
Dy143 O155 2.664 . S
Dy143 O157 2.326 . S
O144 Dy140 2.398 . S
O144 C142 1.185 1_655 S
O145 Dy140 2.491 . S
O145 C142 1.355 1_655 S
O146 Dy140 2.403 . S
O146 C148 1.254 . S
O147 Dy140 2.664 . S
O147 Dy143 2.310 . S
O147 C148 1.268 . S
C148 O146 1.254 . S
C148 O147 1.268 . S
C149 O154 1.254 . S
C149 O155 1.268 . S
O150 Dy143 2.351 . S
O150 C158 1.249 . S
O151 Dy140 2.326 . S
O151 C158 1.267 . S
O152 C141 1.185 . S
O152 Dy143 2.398 . S
O153 C141 1.355 . S
O153 Dy143 2.491 . S
O154 Dy143 2.403 . S
O154 C149 1.254 . S
O155 Dy140 2.310 . S
O155 Dy143 2.664 . S
O155 C149 1.268 . S
O156 Dy140 2.351 . S
O156 C159 1.249 . S
O157 Dy143 2.326 . S
O157 C159 1.267 . S
C158 O150 1.249 . S
C158 O151 1.267 . S
C159 O156 1.249 . S
C159 O157 1.267 . S
Dy160 O164 2.398 . S
Dy160 O165 2.491 1_545 S
Dy160 O166 2.403 . S
Dy160 O167 2.664 1_645 S
Dy160 O171 2.326 1_545 S
Dy160 O175 2.310 1_645 S
Dy160 O176 2.351 1_655 S
C161 O172 1.185 1_545 S
C161 O173 1.355 . S
C162 O164 1.185 1_565 S
C162 O165 1.355 . S
Dy163 O167 2.310 . S
Dy163 O170 2.351 . S
Dy163 O172 2.398 . S
Dy163 O173 2.491 1_565 S
Dy163 O174 2.403 . S
Dy163 O175 2.664 . S
Dy163 O177 2.326 1_565 S
O164 Dy160 2.398 . S
O164 C162 1.185 1_545 S
O165 Dy160 2.491 1_565 S
O165 C162 1.355 . S
O166 Dy160 2.403 . S
O166 C168 1.263 1_655 S
O167 Dy160 2.664 1_465 S
O167 Dy163 2.310 . S
O167 C168 1.265 1_565 S
C168 O166 1.263 1_455 S
C168 O167 1.265 1_545 S
C169 O174 1.254 . S
C169 O175 1.268 . S
O170 Dy163 2.351 . S
O170 C178 1.249 1_455 S
O171 Dy160 2.326 1_565 S
O171 C178 1.267 . S
O172 C161 1.185 1_565 S
O172 Dy163 2.398 . S
O173 C161 1.355 . S
O173 Dy163 2.491 1_545 S
O174 Dy163 2.403 . S
O174 C169 1.254 . S
O175 Dy160 2.310 1_465 S
O175 Dy163 2.664 . S
O175 C169 1.268 . S
O176 Dy160 2.351 1_455 S
O176 C179 1.249 . S
O177 Dy163 2.326 1_545 S
O177 C179 1.267 . S
C178 O170 1.249 1_655 S
C178 O171 1.267 . S
C179 O176 1.249 . S
C179 O177 1.267 . S
Dy180 O184 2.398 . S
Dy180 O185 2.491 . S
Dy180 O186 2.403 . S
Dy180 O187 2.664 . S
Dy180 O191 2.326 . S
Dy180 O195 2.310 . S
Dy180 O196 2.351 . S
C181 O192 1.185 1_655 S
C181 O193 1.355 1_655 S
C182 O184 1.185 . S
C182 O185 1.355 . S
Dy183 O187 2.310 . S
Dy183 O190 2.351 . S
Dy183 O192 2.398 . S
Dy183 O193 2.491 . S
Dy183 O194 2.403 . S
Dy183 O195 2.664 . S
Dy183 O197 2.326 . S
O184 Dy180 2.398 . S
O184 C182 1.185 . S
O185 Dy180 2.491 . S
O185 C182 1.355 . S
O186 Dy180 2.403 . S
O186 C188 1.254 . S
O187 Dy180 2.664 . S
O187 Dy183 2.310 . S
O187 C188 1.268 . S
C188 O186 1.254 . S
C188 O187 1.268 . S
C189 O194 1.254 . S
C189 O195 1.268 . S
O190 Dy183 2.351 . S
O190 C198 1.249 . S
O191 Dy180 2.326 . S
O191 C198 1.267 . S
O192 C181 1.185 1_455 S
O192 Dy183 2.398 . S
O193 C181 1.355 1_455 S
O193 Dy183 2.491 . S
O194 Dy183 2.403 . S
O194 C189 1.254 . S
O195 Dy180 2.310 . S
O195 Dy183 2.664 . S
O195 C189 1.268 . S
O196 Dy180 2.351 . S
O196 C199 1.249 . S
O197 Dy183 2.326 . S
O197 C199 1.267 . S
C198 O190 1.249 . S
C198 O191 1.267 . S
C199 O196 1.249 . S
C199 O197 1.267 . S
Dy200 O204 2.398 . S
Dy200 O205 2.491 . S
Dy200 O206 2.403 . S
Dy200 O207 2.664 1_655 S
Dy200 O211 2.326 . S
Dy200 O215 2.310 1_655 S
Dy200 O216 2.351 1_655 S
C201 O212 1.185 . S
C201 O213 1.355 . S
C202 O204 1.185 . S
C202 O205 1.355 . S
Dy203 O207 2.310 . S
Dy203 O210 2.351 . S
Dy203 O212 2.398 . S
Dy203 O213 2.491 . S
Dy203 O214 2.403 . S
Dy203 O215 2.664 . S
Dy203 O217 2.326 . S
O204 Dy200 2.398 . S
O204 C202 1.185 . S
O205 Dy200 2.491 . S
O205 C202 1.355 . S
O206 Dy200 2.403 . S
O206 C208 1.254 1_655 S
O207 Dy200 2.664 1_455 S
O207 Dy203 2.310 . S
O207 C208 1.268 . S
C208 O206 1.254 1_455 S
C208 O207 1.268 . S
C209 O214 1.254 . S
C209 O215 1.268 . S
O210 Dy203 2.351 . S
O210 C218 1.249 1_455 S
O211 Dy200 2.326 . S
O211 C218 1.267 . S
O212 C201 1.185 . S
O212 Dy203 2.398 . S
O213 C201 1.355 . S
O213 Dy203 2.491 . S
O214 Dy203 2.403 . S
O214 C209 1.254 . S
O215 Dy200 2.310 1_455 S
O215 Dy203 2.664 . S
O215 C209 1.268 . S
O216 Dy200 2.351 1_455 S
O216 C219 1.249 . S
O217 Dy203 2.326 . S
O217 C219 1.267 . S
C218 O210 1.249 1_655 S
C218 O211 1.267 . S
C219 O216 1.249 . S
C219 O217 1.267 . S
Dy220 O224 2.398 . S
Dy220 O225 2.491 1_545 S
Dy220 O226 2.403 . S
Dy220 O227 2.664 1_545 S
Dy220 O231 2.326 1_545 S
Dy220 O235 2.310 1_545 S
Dy220 O236 2.351 . S
C221 O232 1.185 1_645 S
C221 O233 1.355 1_655 S
C222 O224 1.185 1_565 S
C222 O225 1.355 . S
Dy223 O227 2.310 . S
Dy223 O230 2.351 . S
Dy223 O232 2.398 . S
Dy223 O233 2.491 1_565 S
Dy223 O234 2.403 . S
Dy223 O235 2.664 . S
Dy223 O237 2.326 1_565 S
O224 Dy220 2.398 . S
O224 C222 1.185 1_545 S
O225 Dy220 2.491 1_565 S
O225 C222 1.355 . S
O226 Dy220 2.403 . S
O226 C228 1.263 . S
O227 Dy220 2.664 1_565 S
O227 Dy223 2.310 . S
O227 C228 1.265 1_565 S
C228 O226 1.263 . S
C228 O227 1.265 1_545 S
C229 O234 1.254 . S
C229 O235 1.268 . S
O230 Dy223 2.351 . S
O230 C238 1.249 . S
O231 Dy220 2.326 1_565 S
O231 C238 1.267 . S
O232 C221 1.185 1_465 S
O232 Dy223 2.398 . S
O233 C221 1.355 1_455 S
O233 Dy223 2.491 1_545 S
O234 Dy223 2.403 . S
O234 C229 1.254 . S
O235 Dy220 2.310 1_565 S
O235 Dy223 2.664 . S
O235 C229 1.268 . S
O236 Dy220 2.351 . S
O236 C239 1.249 . S
O237 Dy223 2.326 1_545 S
O237 C239 1.267 . S
C238 O230 1.249 . S
C238 O231 1.267 . S
C239 O236 1.249 . S
C239 O237 1.267 . S
Dy240 O244 2.398 . S
Dy240 O245 2.491 1_545 S
Dy240 O246 2.403 . S
Dy240 O247 2.664 . S
Dy240 O251 2.326 1_545 S
Dy240 O255 2.310 . S
Dy240 O256 2.351 . S
C241 O252 1.185 1_545 S
C241 O253 1.355 . S
C242 O244 1.185 1_565 S
C242 O245 1.355 . S
Dy243 O247 2.310 1_465 S
Dy243 O250 2.351 1_455 S
Dy243 O252 2.398 . S
Dy243 O253 2.491 1_565 S
Dy243 O254 2.403 . S
Dy243 O255 2.664 1_465 S
Dy243 O257 2.326 1_565 S
O244 Dy240 2.398 . S
O244 C242 1.185 1_545 S
O245 Dy240 2.491 1_565 S
O245 C242 1.355 . S
O246 Dy240 2.403 . S
O246 C248 1.254 . S
O247 Dy240 2.664 . S
O247 Dy243 2.310 1_645 S
O247 C248 1.268 . S
C248 O246 1.254 . S
C248 O247 1.268 . S
C249 O254 1.263 1_655 S
C249 O255 1.265 1_565 S
O250 Dy243 2.351 1_655 S
O250 C258 1.249 . S
O251 Dy240 2.326 1_565 S
O251 C258 1.267 . S
O252 C241 1.185 1_565 S
O252 Dy243 2.398 . S
O253 C241 1.355 . S
O253 Dy243 2.491 1_545 S
O254 Dy243 2.403 . S
O254 C249 1.263 1_455 S
O255 Dy240 2.310 . S
O255 Dy243 2.664 1_645 S
O255 C249 1.265 1_545 S
O256 Dy240 2.351 . S
O256 C259 1.249 1_655 S
O257 Dy243 2.326 1_545 S
O257 C259 1.267 . S
C258 O250 1.249 . S
C258 O251 1.267 . S
C259 O256 1.249 1_455 S
C259 O257 1.267 . S
Dy260 O264 2.398 . S
Dy260 O265 2.491 . S
Dy260 O266 2.403 . S
Dy260 O267 2.664 . S
Dy260 O271 2.326 . S
Dy260 O275 2.310 . S
Dy260 O276 2.351 . S
C261 O272 1.185 . S
C261 O273 1.355 . S
C262 O264 1.185 1_455 S
C262 O265 1.355 1_455 S
Dy263 O267 2.310 . S
Dy263 O270 2.351 . S
Dy263 O272 2.398 . S
Dy263 O273 2.491 . S
Dy263 O274 2.403 . S
Dy263 O275 2.664 . S
Dy263 O277 2.326 . S
O264 Dy260 2.398 . S
O264 C262 1.185 1_655 S
O265 Dy260 2.491 . S
O265 C262 1.355 1_655 S
O266 Dy260 2.403 . S
O266 C268 1.254 . S
O267 Dy260 2.664 . S
O267 Dy263 2.310 . S
O267 C268 1.268 . S
C268 O266 1.254 . S
C268 O267 1.268 . S
C269 O274 1.254 . S
C269 O275 1.268 . S
O270 Dy263 2.351 . S
O270 C278 1.249 . S
O271 Dy260 2.326 . S
O271 C278 1.267 . S
O272 C261 1.185 . S
O272 Dy263 2.398 . S
O273 C261 1.355 . S
O273 Dy263 2.491 . S
O274 Dy263 2.403 . S
O274 C269 1.254 . S
O275 Dy260 2.310 . S
O275 Dy263 2.664 . S
O275 C269 1.268 . S
O276 Dy260 2.351 . S
O276 C279 1.249 . S
O277 Dy263 2.326 . S
O277 C279 1.267 . S
C278 O270 1.249 . S
C278 O271 1.267 . S
C279 O276 1.249 . S
C279 O277 1.267 . S
Dy280 O284 2.398 . S
Dy280 O285 2.491 . S
Dy280 O286 2.403 . S
Dy280 O287 2.664 . S
Dy280 O291 2.326 . S
Dy280 O295 2.310 . S
Dy280 O296 2.351 . S
C281 O292 1.185 . S
C281 O293 1.355 . S
C282 O284 1.185 . S
C282 O285 1.355 . S
Dy283 O287 2.310 1_455 S
Dy283 O290 2.351 1_455 S
Dy283 O292 2.398 . S
Dy283 O293 2.491 . S
Dy283 O294 2.403 . S
Dy283 O295 2.664 1_455 S
Dy283 O297 2.326 . S
O284 Dy280 2.398 . S
O284 C282 1.185 . S
O285 Dy280 2.491 . S
O285 C282 1.355 . S
O286 Dy280 2.403 . S
O286 C288 1.254 . S
O287 Dy280 2.664 . S
O287 Dy283 2.310 1_655 S
O287 C288 1.268 . S
C288 O286 1.254 . S
C288 O287 1.268 . S
C289 O294 1.254 1_655 S
C289 O295 1.268 . S
O290 Dy283 2.351 1_655 S
O290 C298 1.249 . S
O291 Dy280 2.326 . S
O291 C298 1.267 . S
O292 C281 1.185 . S
O292 Dy283 2.398 . S
O293 C281 1.355 . S
O293 Dy283 2.491 . S
O294 Dy283 2.403 . S
O294 C289 1.254 1_455 S
O295 Dy280 2.310 . S
O295 Dy283 2.664 1_655 S
O295 C289 1.268 . S
O296 Dy280 2.351 . S
O296 C299 1.249 1_655 S
O297 Dy283 2.326 . S
O297 C299 1.267 . S
C298 O290 1.249 . S
C298 O291 1.267 . S
C299 O296 1.249 1_455 S
C299 O297 1.267 . S
Dy300 O304 2.398 . S
Dy300 O305 2.491 1_545 S
Dy300 O306 2.403 . S
Dy300 O307 2.664 . S
Dy300 O311 2.326 1_545 S
Dy300 O315 2.310 . S
Dy300 O316 2.351 . S
C301 O312 1.185 1_545 S
C301 O313 1.355 . S
C302 O304 1.185 1_465 S
C302 O305 1.355 1_455 S
Dy303 O307 2.310 1_565 S
Dy303 O310 2.351 . S
Dy303 O312 2.398 . S
Dy303 O313 2.491 1_565 S
Dy303 O314 2.403 . S
Dy303 O315 2.664 1_565 S
Dy303 O317 2.326 1_565 S
O304 Dy300 2.398 . S
O304 C302 1.185 1_645 S
O305 Dy300 2.491 1_565 S
O305 C302 1.355 1_655 S
O306 Dy300 2.403 . S
O306 C308 1.254 . S
O307 Dy300 2.664 . S
O307 Dy303 2.310 1_545 S
O307 C308 1.268 . S
C308 O306 1.254 . S
C308 O307 1.268 . S
C309 O314 1.263 . S
C309 O315 1.265 1_565 S
O310 Dy303 2.351 . S
O310 C318 1.249 . S
O311 Dy300 2.326 1_565 S
O311 C318 1.267 . S
O312 C301 1.185 1_565 S
O312 Dy303 2.398 . S
O313 C301 1.355 . S
O313 Dy303 2.491 1_545 S
O314 Dy303 2.403 . S
O314 C309 1.263 . S
O315 Dy300 2.310 . S
O315 Dy303 2.664 1_545 S
O315 C309 1.265 1_545 S
O316 Dy300 2.351 . S
O316 C319 1.249 . S
O317 Dy303 2.326 1_545 S
O317 C319 1.267 . S
C318 O310 1.249 . S
C318 O311 1.267 . S
C319 O316 1.249 . S
C319 O317 1.267 . S
Dy320 O324 2.398 . S
Dy320 O325 2.491 . S
Dy320 O326 2.403 . S
Dy320 O327 2.664 . S
Dy320 O331 2.326 . S
Dy320 O335 2.310 . S
Dy320 O336 2.351 . S
C321 O332 1.185 . S
C321 O333 1.355 . S
C322 O324 1.185 . S
C322 O325 1.355 . S
Dy323 O327 2.310 . S
Dy323 O330 2.351 . S
Dy323 O332 2.398 . S
Dy323 O333 2.491 . S
Dy323 O334 2.403 . S
Dy323 O335 2.664 . S
Dy323 O337 2.326 . S
O324 Dy320 2.398 . S
O324 C322 1.185 . S
O325 Dy320 2.491 . S
O325 C322 1.355 . S
O326 Dy320 2.403 . S
O326 C328 1.254 . S
O327 Dy320 2.664 . S
O327 Dy323 2.310 . S
O327 C328 1.268 . S
C328 O326 1.254 . S
C328 O327 1.268 . S
C329 O334 1.254 . S
C329 O335 1.268 . S
O330 Dy323 2.351 . S
O330 C338 1.249 . S
O331 Dy320 2.326 . S
O331 C338 1.267 . S
O332 C321 1.185 . S
O332 Dy323 2.398 . S
O333 C321 1.355 . S
O333 Dy323 2.491 . S
O334 Dy323 2.403 . S
O334 C329 1.254 . S
O335 Dy320 2.310 . S
O335 Dy323 2.664 . S
O335 C329 1.268 . S
O336 Dy320 2.351 . S
O336 C339 1.249 . S
O337 Dy323 2.326 . S
O337 C339 1.267 . S
C338 O330 1.249 . S
C338 O331 1.267 . S
C339 O336 1.249 . S
C339 O337 1.267 . S
Dy340 O344 2.398 . S
Dy340 O345 2.491 . S
Dy340 O346 2.403 . S
Dy340 O347 2.664 . S
Dy340 O351 2.326 . S
Dy340 O355 2.310 . S
Dy340 O356 2.351 . S
C341 O352 1.185 . S
C341 O353 1.355 . S
C342 O344 1.185 . S
C342 O345 1.355 . S
Dy343 O347 2.310 . S
Dy343 O350 2.351 . S
Dy343 O352 2.398 . S
Dy343 O353 2.491 . S
Dy343 O354 2.403 . S
Dy343 O355 2.664 . S
Dy343 O357 2.326 . S
O344 Dy340 2.398 . S
O344 C342 1.185 . S
O345 Dy340 2.491 . S
O345 C342 1.355 . S
O346 Dy340 2.403 . S
O346 C348 1.254 . S
O347 Dy340 2.664 . S
O347 Dy343 2.310 . S
O347 C348 1.268 . S
C348 O346 1.254 . S
C348 O347 1.268 . S
C349 O354 1.254 . S
C349 O355 1.268 . S
O350 Dy343 2.351 . S
O350 C358 1.249 . S
O351 Dy340 2.326 . S
O351 C358 1.267 . S
O352 C341 1.185 . S
O352 Dy343 2.398 . S
O353 C341 1.355 . S
O353 Dy343 2.491 . S
O354 Dy343 2.403 . S
O354 C349 1.254 . S
O355 Dy340 2.310 . S
O355 Dy343 2.664 . S
O355 C349 1.268 . S
O356 Dy340 2.351 . S
O356 C359 1.249 . S
O357 Dy343 2.326 . S
O357 C359 1.267 . S
C358 O350 1.249 . S
C358 O351 1.267 . S
C359 O356 1.249 . S
C359 O357 1.267 . S
Dy360 O364 2.398 . S
Dy360 O365 2.491 . S
Dy360 O366 2.403 . S
Dy360 O367 2.664 . S
Dy360 O371 2.326 . S
Dy360 O375 2.310 . S
Dy360 O376 2.351 . S
C361 O372 1.185 . S
C361 O373 1.355 . S
C362 O364 1.185 . S
C362 O365 1.355 . S
Dy363 O367 2.310 . S
Dy363 O370 2.351 . S
Dy363 O372 2.398 . S
Dy363 O373 2.491 . S
Dy363 O374 2.403 . S
Dy363 O375 2.664 . S
Dy363 O377 2.326 . S
O364 Dy360 2.398 . S
O364 C362 1.185 . S
O365 Dy360 2.491 . S
O365 C362 1.355 . S
O366 Dy360 2.403 . S
O366 C368 1.254 . S
O367 Dy360 2.664 . S
O367 Dy363 2.310 . S
O367 C368 1.268 . S
C368 O366 1.254 . S
C368 O367 1.268 . S
C369 O374 1.254 . S
C369 O375 1.268 . S
O370 Dy363 2.351 . S
O370 C378 1.249 . S
O371 Dy360 2.326 . S
O371 C378 1.267 . S
O372 C361 1.185 . S
O372 Dy363 2.398 . S
O373 C361 1.355 . S
O373 Dy363 2.491 . S
O374 Dy363 2.403 . S
O374 C369 1.254 . S
O375 Dy360 2.310 . S
O375 Dy363 2.664 . S
O375 C369 1.268 . S
O376 Dy360 2.351 . S
O376 C379 1.249 . S
O377 Dy363 2.326 . S
O377 C379 1.267 . S
C378 O370 1.249 . S
C378 O371 1.267 . S
C379 O376 1.249 . S
C379 O377 1.267 . S
Dy380 O384 2.398 . S
Dy380 O385 2.491 . S
Dy380 O386 2.403 . S
Dy380 O387 2.664 . S
Dy380 O391 2.326 . S
Dy380 O395 2.310 . S
Dy380 O396 2.351 . S
C381 O392 1.185 . S
C381 O393 1.355 . S
C382 O384 1.185 . S
C382 O385 1.355 . S
Dy383 O387 2.310 . S
Dy383 O390 2.351 . S
Dy383 O392 2.398 . S
Dy383 O393 2.491 . S
Dy383 O394 2.403 . S
Dy383 O395 2.664 . S
Dy383 O397 2.326 . S
O384 Dy380 2.398 . S
O384 C382 1.185 . S
O385 Dy380 2.491 . S
O385 C382 1.355 . S
O386 Dy380 2.403 . S
O386 C388 1.254 . S
O387 Dy380 2.664 . S
O387 Dy383 2.310 . S
O387 C388 1.268 . S
C388 O386 1.254 . S
C388 O387 1.268 . S
C389 O394 1.254 . S
C389 O395 1.268 . S
O390 Dy383 2.351 . S
O390 C398 1.249 . S
O391 Dy380 2.326 . S
O391 C398 1.267 . S
O392 C381 1.185 . S
O392 Dy383 2.398 . S
O393 C381 1.355 . S
O393 Dy383 2.491 . S
O394 Dy383 2.403 . S
O394 C389 1.254 . S
O395 Dy380 2.310 . S
O395 Dy383 2.664 . S
O395 C389 1.268 . S
O396 Dy380 2.351 . S
O396 C399 1.249 . S
O397 Dy383 2.326 . S
O397 C399 1.267 . S
C398 O390 1.249 . S
C398 O391 1.267 . S
C399 O396 1.249 . S
C399 O397 1.267 . S
Dy400 O404 2.398 . S
Dy400 O405 2.491 . S
Dy400 O406 2.403 . S
Dy400 O407 2.664 . S
Dy400 O411 2.326 . S
Dy400 O415 2.310 . S
Dy400 O416 2.351 . S
C401 O412 1.185 . S
C401 O413 1.355 . S
C402 O404 1.185 . S
C402 O405 1.355 . S
Dy403 O407 2.310 . S
Dy403 O410 2.351 . S
Dy403 O412 2.398 . S
Dy403 O413 2.491 . S
Dy403 O414 2.403 . S
Dy403 O415 2.664 . S
Dy403 O417 2.326 . S
O404 Dy400 2.398 . S
O404 C402 1.185 . S
O405 Dy400 2.491 . S
O405 C402 1.355 . S
O406 Dy400 2.403 . S
O406 C408 1.254 . S
O407 Dy400 2.664 . S
O407 Dy403 2.310 . S
O407 C408 1.268 . S
C408 O406 1.254 . S
C408 O407 1.268 . S
C409 O414 1.254 . S
C409 O415 1.268 . S
O410 Dy403 2.351 . S
O410 C418 1.249 . S
O411 Dy400 2.326 . S
O411 C418 1.267 . S
O412 C401 1.185 . S
O412 Dy403 2.398 . S
O413 C401 1.355 . S
O413 Dy403 2.491 . S
O414 Dy403 2.403 . S
O414 C409 1.254 . S
O415 Dy400 2.310 . S
O415 Dy403 2.664 . S
O415 C409 1.268 . S
O416 Dy400 2.351 . S
O416 C419 1.249 . S
O417 Dy403 2.326 . S
O417 C419 1.267 . S
C418 O410 1.249 . S
C418 O411 1.267 . S
C419 O416 1.249 . S
C419 O417 1.267 . S
Dy420 O424 2.398 . S
Dy420 O425 2.491 . S
Dy420 O426 2.403 . S
Dy420 O427 2.664 . S
Dy420 O431 2.326 . S
Dy420 O435 2.310 . S
Dy420 O436 2.351 . S
C421 O432 1.185 . S
C421 O433 1.355 . S
C422 O424 1.185 . S
C422 O425 1.355 . S
Dy423 O427 2.310 . S
Dy423 O430 2.351 . S
Dy423 O432 2.398 . S
Dy423 O433 2.491 . S
Dy423 O434 2.403 . S
Dy423 O435 2.664 . S
Dy423 O437 2.326 . S
O424 Dy420 2.398 . S
O424 C422 1.185 . S
O425 Dy420 2.491 . S
O425 C422 1.355 . S
O426 Dy420 2.403 . S
O426 C428 1.254 . S
O427 Dy420 2.664 . S
O427 Dy423 2.310 . S
O427 C428 1.268 . S
C428 O426 1.254 . S
C428 O427 1.268 . S
C429 O434 1.254 . S
C429 O435 1.268 . S
O430 Dy423 2.351 . S
O430 C438 1.249 . S
O431 Dy420 2.326 . S
O431 C438 1.267 . S
O432 C421 1.185 . S
O432 Dy423 2.398 . S
O433 C421 1.355 . S
O433 Dy423 2.491 . S
O434 Dy423 2.403 . S
O434 C429 1.254 . S
O435 Dy420 2.310 . S
O435 Dy423 2.664 . S
O435 C429 1.268 . S
O436 Dy420 2.351 . S
O436 C439 1.249 . S
O437 Dy423 2.326 . S
O437 C439 1.267 . S
C438 O430 1.249 . S
C438 O431 1.267 . S
C439 O436 1.249 . S
C439 O437 1.267 . S
Dy440 O444 2.398 . S
Dy440 O445 2.491 . S
Dy440 O446 2.403 . S
Dy440 O447 2.664 . S
Dy440 O451 2.326 . S
Dy440 O455 2.310 . S
Dy440 O456 2.351 . S
C441 O452 1.185 . S
C441 O453 1.355 . S
C442 O444 1.185 . S
C442 O445 1.355 . S
Dy443 O447 2.310 . S
Dy443 O450 2.351 . S
Dy443 O452 2.398 . S
Dy443 O453 2.491 . S
Dy443 O454 2.403 . S
Dy443 O455 2.664 . S
Dy443 O457 2.326 . S
O444 Dy440 2.398 . S
O444 C442 1.185 . S
O445 Dy440 2.491 . S
O445 C442 1.355 . S
O446 Dy440 2.403 . S
O446 C448 1.254 . S
O447 Dy440 2.664 . S
O447 Dy443 2.310 . S
O447 C448 1.268 . S
C448 O446 1.254 . S
C448 O447 1.268 . S
C449 O454 1.254 . S
C449 O455 1.268 . S
O450 Dy443 2.351 . S
O450 C458 1.249 . S
O451 Dy440 2.326 . S
O451 C458 1.267 . S
O452 C441 1.185 . S
O452 Dy443 2.398 . S
O453 C441 1.355 . S
O453 Dy443 2.491 . S
O454 Dy443 2.403 . S
O454 C449 1.254 . S
O455 Dy440 2.310 . S
O455 Dy443 2.664 . S
O455 C449 1.268 . S
O456 Dy440 2.351 . S
O456 C459 1.249 . S
O457 Dy443 2.326 . S
O457 C459 1.267 . S
C458 O450 1.249 . S
C458 O451 1.267 . S
C459 O456 1.249 . S
C459 O457 1.267 . S
Dy460 O464 2.398 . S
Dy460 O465 2.491 . S
Dy460 O466 2.403 . S
Dy460 O467 2.664 . S
Dy460 O471 2.326 . S
Dy460 O475 2.310 . S
Dy460 O476 2.351 . S
C461 O472 1.185 . S
C461 O473 1.355 . S
C462 O464 1.185 . S
C462 O465 1.355 . S
Dy463 O467 2.310 . S
Dy463 O470 2.351 . S
Dy463 O472 2.398 . S
Dy463 O473 2.491 . S
Dy463 O474 2.403 . S
Dy463 O475 2.664 . S
Dy463 O477 2.326 . S
O464 Dy460 2.398 . S
O464 C462 1.185 . S
O465 Dy460 2.491 . S
O465 C462 1.355 . S
O466 Dy460 2.403 . S
O466 C468 1.254 . S
O467 Dy460 2.664 . S
O467 Dy463 2.310 . S
O467 C468 1.268 . S
C468 O466 1.254 . S
C468 O467 1.268 . S
C469 O474 1.254 . S
C469 O475 1.268 . S
O470 Dy463 2.351 . S
O470 C478 1.249 . S
O471 Dy460 2.326 . S
O471 C478 1.267 . S
O472 C461 1.185 . S
O472 Dy463 2.398 . S
O473 C461 1.355 . S
O473 Dy463 2.491 . S
O474 Dy463 2.403 . S
O474 C469 1.254 . S
O475 Dy460 2.310 . S
O475 Dy463 2.664 . S
O475 C469 1.268 . S
O476 Dy460 2.351 . S
O476 C479 1.249 . S
O477 Dy463 2.326 . S
O477 C479 1.267 . S
C478 O470 1.249 . S
C478 O471 1.267 . S
C479 O476 1.249 . S
C479 O477 1.267 . S
Dy480 O484 2.398 . S
Dy480 O485 2.491 1_545 S
Dy480 O486 2.403 . S
Dy480 O487 2.664 1_545 S
Dy480 O491 2.326 1_545 S
Dy480 O495 2.310 1_545 S
Dy480 O496 2.351 . S
C481 O492 1.185 1_545 S
C481 O493 1.355 . S
C482 O484 1.185 1_565 S
C482 O485 1.355 . S
Dy483 O487 2.310 . S
Dy483 O490 2.351 . S
Dy483 O492 2.398 . S
Dy483 O493 2.491 1_565 S
Dy483 O494 2.403 . S
Dy483 O495 2.664 . S
Dy483 O497 2.326 1_565 S
O484 Dy480 2.398 . S
O484 C482 1.185 1_545 S
O485 Dy480 2.491 1_565 S
O485 C482 1.355 . S
O486 Dy480 2.403 . S
O486 C488 1.263 . S
O487 Dy480 2.664 1_565 S
O487 Dy483 2.310 . S
O487 C488 1.265 1_565 S
C488 O486 1.263 . S
C488 O487 1.265 1_545 S
C489 O494 1.254 . S
C489 O495 1.268 . S
O490 Dy483 2.351 . S
O490 C498 1.249 . S
O491 Dy480 2.326 1_565 S
O491 C498 1.267 . S
O492 C481 1.185 1_565 S
O492 Dy483 2.398 . S
O493 C481 1.355 . S
O493 Dy483 2.491 1_545 S
O494 Dy483 2.403 . S
O494 C489 1.254 . S
O495 Dy480 2.310 1_565 S
O495 Dy483 2.664 . S
O495 C489 1.268 . S
O496 Dy480 2.351 . S
O496 C499 1.249 . S
O497 Dy483 2.326 1_545 S
O497 C499 1.267 . S
C498 O490 1.249 . S
C498 O491 1.267 . S
C499 O496 1.249 . S
C499 O497 1.267 . S
Dy500 O504 2.398 . S
Dy500 O505 2.491 . S
Dy500 O506 2.403 . S
Dy500 O507 2.664 . S
Dy500 O511 2.326 . S
Dy500 O515 2.310 . S
Dy500 O516 2.351 . S
C501 O512 1.185 . S
C501 O513 1.355 . S
C502 O504 1.185 . S
C502 O505 1.355 . S
Dy503 O507 2.310 . S
Dy503 O510 2.351 . S
Dy503 O512 2.398 . S
Dy503 O513 2.491 . S
Dy503 O514 2.403 . S
Dy503 O515 2.664 . S
Dy503 O517 2.326 . S
O504 Dy500 2.398 . S
O504 C502 1.185 . S
O505 Dy500 2.491 . S
O505 C502 1.355 . S
O506 Dy500 2.403 . S
O506 C508 1.254 . S
O507 Dy500 2.664 . S
O507 Dy503 2.310 . S
O507 C508 1.268 . S
C508 O506 1.254 . S
C508 O507 1.268 . S
C509 O514 1.254 . S
C509 O515 1.268 . S
O510 Dy503 2.351 . S
O510 C518 1.249 . S
O511 Dy500 2.326 . S
O511 C518 1.267 . S
O512 C501 1.185 . S
O512 Dy503 2.398 . S
O513 C501 1.355 . S
O513 Dy503 2.491 . S
O514 Dy503 2.403 . S
O514 C509 1.254 . S
O515 Dy500 2.310 . S
O515 Dy503 2.664 . S
O515 C509 1.268 . S
O516 Dy500 2.351 . S
O516 C519 1.249 . S
O517 Dy503 2.326 . S
O517 C519 1.267 . S
C518 O510 1.249 . S
C518 O511 1.267 . S
C519 O516 1.249 . S
C519 O517 1.267 . S
Dy520 O524 2.398 . S
Dy520 O525 2.491 . S
Dy520 O526 2.403 . S
Dy520 O527 2.664 . S
Dy520 O531 2.326 . S
Dy520 O535 2.310 . S
Dy520 O536 2.351 . S
C521 O532 1.185 . S
C521 O533 1.355 . S
C522 O524 1.185 . S
C522 O525 1.355 . S
Dy523 O527 2.310 . S
Dy523 O530 2.351 . S
Dy523 O532 2.398 . S
Dy523 O533 2.491 . S
Dy523 O534 2.403 . S
Dy523 O535 2.664 . S
Dy523 O537 2.326 . S
O524 Dy520 2.398 . S
O524 C522 1.185 . S
O525 Dy520 2.491 . S
O525 C522 1.355 . S
O526 Dy520 2.403 . S
O526 C528 1.254 . S
O527 Dy520 2.664 . S
O527 Dy523 2.310 . S
O527 C528 1.268 . S
C528 O526 1.254 . S
C528 O527 1.268 . S
C529 O534 1.254 . S
C529 O535 1.268 . S
O530 Dy523 2.351 . S
O530 C538 1.249 . S
O531 Dy520 2.326 . S
O531 C538 1.267 . S
O532 C521 1.185 . S
O532 Dy523 2.398 . S
O533 C521 1.355 . S
O533 Dy523 2.491 . S
O534 Dy523 2.403 . S
O534 C529 1.254 . S
O535 Dy520 2.310 . S
O535 Dy523 2.664 . S
O535 C529 1.268 . S
O536 Dy520 2.351 . S
O536 C539 1.249 . S
O537 Dy523 2.326 . S
O537 C539 1.267 . S
C538 O530 1.249 . S
C538 O531 1.267 . S
C539 O536 1.249 . S
C539 O537 1.267 . S
Dy540 O544 2.398 . S
Dy540 O545 2.491 1_545 S
Dy540 O546 2.403 . S
Dy540 O547 2.664 1_545 S
Dy540 O551 2.326 1_545 S
Dy540 O555 2.310 1_545 S
Dy540 O556 2.351 . S
C541 O552 1.185 1_545 S
C541 O553 1.355 . S
C542 O544 1.185 1_565 S
C542 O545 1.355 . S
Dy543 O547 2.310 . S
Dy543 O550 2.351 . S
Dy543 O552 2.398 . S
Dy543 O553 2.491 1_565 S
Dy543 O554 2.403 . S
Dy543 O555 2.664 . S
Dy543 O557 2.326 1_565 S
O544 Dy540 2.398 . S
O544 C542 1.185 1_545 S
O545 Dy540 2.491 1_565 S
O545 C542 1.355 . S
O546 Dy540 2.403 . S
O546 C548 1.263 . S
O547 Dy540 2.664 1_565 S
O547 Dy543 2.310 . S
O547 C548 1.265 1_565 S
C548 O546 1.263 . S
C548 O547 1.265 1_545 S
C549 O554 1.254 . S
C549 O555 1.268 . S
O550 Dy543 2.351 . S
O550 C558 1.249 . S
O551 Dy540 2.326 1_565 S
O551 C558 1.267 . S
O552 C541 1.185 1_565 S
O552 Dy543 2.398 . S
O553 C541 1.355 . S
O553 Dy543 2.491 1_545 S
O554 Dy543 2.403 . S
O554 C549 1.254 . S
O555 Dy540 2.310 1_565 S
O555 Dy543 2.664 . S
O555 C549 1.268 . S
O556 Dy540 2.351 . S
O556 C559 1.249 . S
O557 Dy543 2.326 1_545 S
O557 C559 1.267 . S
C558 O550 1.249 . S
C558 O551 1.267 . S
C559 O556 1.249 . S
C559 O557 1.267 . S
Dy560 O564 2.398 . S
Dy560 O565 2.491 1_545 S
Dy560 O566 2.403 . S
Dy560 O567 2.664 . S
Dy560 O571 2.326 1_545 S
Dy560 O575 2.310 . S
Dy560 O576 2.351 . S
C561 O572 1.185 1_545 S
C561 O573 1.355 . S
C562 O564 1.185 1_565 S
C562 O565 1.355 . S
Dy563 O567 2.310 1_565 S
Dy563 O570 2.351 . S
Dy563 O572 2.398 . S
Dy563 O573 2.491 1_565 S
Dy563 O574 2.403 . S
Dy563 O575 2.664 1_565 S
Dy563 O577 2.326 1_565 S
O564 Dy560 2.398 . S
O564 C562 1.185 1_545 S
O565 Dy560 2.491 1_565 S
O565 C562 1.355 . S
O566 Dy560 2.403 . S
O566 C568 1.254 . S
O567 Dy560 2.664 . S
O567 Dy563 2.310 1_545 S
O567 C568 1.268 . S
C568 O566 1.254 . S
C568 O567 1.268 . S
C569 O574 1.263 . S
C569 O575 1.265 1_565 S
O570 Dy563 2.351 . S
O570 C578 1.249 . S
O571 Dy560 2.326 1_565 S
O571 C578 1.267 . S
O572 C561 1.185 1_565 S
O572 Dy563 2.398 . S
O573 C561 1.355 . S
O573 Dy563 2.491 1_545 S
O574 Dy563 2.403 . S
O574 C569 1.263 . S
O575 Dy560 2.310 . S
O575 Dy563 2.664 1_545 S
O575 C569 1.265 1_545 S
O576 Dy560 2.351 . S
O576 C579 1.249 . S
O577 Dy563 2.326 1_545 S
O577 C579 1.267 . S
C578 O570 1.249 . S
C578 O571 1.267 . S
C579 O576 1.249 . S
C579 O577 1.267 . S
Dy580 O584 2.398 . S
Dy580 O585 2.491 . S
Dy580 O586 2.403 . S
Dy580 O587 2.664 . S
Dy580 O591 2.326 . S
Dy580 O595 2.310 . S
Dy580 O596 2.351 . S
C581 O592 1.185 . S
C581 O593 1.355 . S
C582 O584 1.185 . S
C582 O585 1.355 . S
Dy583 O587 2.310 . S
Dy583 O590 2.351 . S
Dy583 O592 2.398 . S
Dy583 O593 2.491 . S
Dy583 O594 2.403 . S
Dy583 O595 2.664 . S
Dy583 O597 2.326 . S
O584 Dy580 2.398 . S
O584 C582 1.185 . S
O585 Dy580 2.491 . S
O585 C582 1.355 . S
O586 Dy580 2.403 . S
O586 C588 1.254 . S
O587 Dy580 2.664 . S
O587 Dy583 2.310 . S
O587 C588 1.268 . S
C588 O586 1.254 . S
C588 O587 1.268 . S
C589 O594 1.254 . S
C589 O595 1.268 . S
O590 Dy583 2.351 . S
O590 C598 1.249 . S
O591 Dy580 2.326 . S
O591 C598 1.267 . S
O592 C581 1.185 . S
O592 Dy583 2.398 . S
O593 C581 1.355 . S
O593 Dy583 2.491 . S
O594 Dy583 2.403 . S
O594 C589 1.254 . S
O595 Dy580 2.310 . S
O595 Dy583 2.664 . S
O595 C589 1.268 . S
O596 Dy580 2.351 . S
O596 C599 1.249 . S
O597 Dy583 2.326 . S
O597 C599 1.267 . S
C598 O590 1.249 . S
C598 O591 1.267 . S
C599 O596 1.249 . S
C599 O597 1.267 . S
Dy600 O604 2.398 . S
Dy600 O605 2.491 . S
Dy600 O606 2.403 . S
Dy600 O607 2.664 . S
Dy600 O611 2.326 . S
Dy600 O615 2.310 . S
Dy600 O616 2.351 . S
C601 O612 1.185 . S
C601 O613 1.355 . S
C602 O604 1.185 . S
C602 O605 1.355 . S
Dy603 O607 2.310 . S
Dy603 O610 2.351 . S
Dy603 O612 2.398 . S
Dy603 O613 2.491 . S
Dy603 O614 2.403 . S
Dy603 O615 2.664 . S
Dy603 O617 2.326 . S
O604 Dy600 2.398 . S
O604 C602 1.185 . S
O605 Dy600 2.491 . S
O605 C602 1.355 . S
O606 Dy600 2.403 . S
O606 C608 1.254 . S
O607 Dy600 2.664 . S
O607 Dy603 2.310 . S
O607 C608 1.268 . S
C608 O606 1.254 . S
C608 O607 1.268 . S
C609 O614 1.254 . S
C609 O615 1.268 . S
O610 Dy603 2.351 . S
O610 C618 1.249 . S
O611 Dy600 2.326 . S
O611 C618 1.267 . S
O612 C601 1.185 . S
O612 Dy603 2.398 . S
O613 C601 1.355 . S
O613 Dy603 2.491 . S
O614 Dy603 2.403 . S
O614 C609 1.254 . S
O615 Dy600 2.310 . S
O615 Dy603 2.664 . S
O615 C609 1.268 . S
O616 Dy600 2.351 . S
O616 C619 1.249 . S
O617 Dy603 2.326 . S
O617 C619 1.267 . S
C618 O610 1.249 . S
C618 O611 1.267 . S
C619 O616 1.249 . S
C619 O617 1.267 . S
Dy620 O624 2.398 . S
Dy620 O625 2.491 1_545 S
Dy620 O626 2.403 . S
Dy620 O627 2.664 . S
Dy620 O631 2.326 1_545 S
Dy620 O635 2.310 . S
Dy620 O636 2.351 . S
C621 O632 1.185 1_545 S
C621 O633 1.355 . S
C622 O624 1.185 1_565 S
C622 O625 1.355 . S
Dy623 O627 2.310 1_565 S
Dy623 O630 2.351 . S
Dy623 O632 2.398 . S
Dy623 O633 2.491 1_565 S
Dy623 O634 2.403 . S
Dy623 O635 2.664 1_565 S
Dy623 O637 2.326 1_565 S
O624 Dy620 2.398 . S
O624 C622 1.185 1_545 S
O625 Dy620 2.491 1_565 S
O625 C622 1.355 . S
O626 Dy620 2.403 . S
O626 C628 1.254 . S
O627 Dy620 2.664 . S
O627 Dy623 2.310 1_545 S
O627 C628 1.268 . S
C628 O626 1.254 . S
C628 O627 1.268 . S
C629 O634 1.263 . S
C629 O635 1.265 1_565 S
O630 Dy623 2.351 . S
O630 C638 1.249 . S
O631 Dy620 2.326 1_565 S
O631 C638 1.267 . S
O632 C621 1.185 1_565 S
O632 Dy623 2.398 . S
O633 C621 1.355 . S
O633 Dy623 2.491 1_545 S
O634 Dy623 2.403 . S
O634 C629 1.263 . S
O635 Dy620 2.310 . S
O635 Dy623 2.664 1_545 S
O635 C629 1.265 1_545 S
O636 Dy620 2.351 . S
O636 C639 1.249 . S
O637 Dy623 2.326 1_545 S
O637 C639 1.267 . S
C638 O630 1.249 . S
C638 O631 1.267 . S
C639 O636 1.249 . S
C639 O637 1.267 . S
H640 C648 0.950 . S
H641 C653 0.950 . S
H642 C650 0.950 . S
H643 C652 0.950 . S
H644 C654 0.950 . S
H645 C656 0.950 . S
H646 C658 0.950 . S
H647 C659 0.950 . S
C648 H640 0.950 . S
C648 C649 1.386 . S
C648 C650 1.391 . S
C649 C648 1.386 . S
C649 C653 1.393 . S
C650 H642 0.950 . S
C650 C648 1.391 . S
C650 C651 1.400 . S
C651 C650 1.400 . S
C651 C652 1.398 . S
C651 C657 1.491 . S
C652 H643 0.950 . S
C652 C651 1.398 . S
C652 C653 1.391 . S
C653 H641 0.950 . S
C653 C649 1.393 . S
C653 C652 1.391 . S
C654 H644 0.950 . S
C654 C655 1.386 . S
C654 C656 1.391 . S
C655 C654 1.386 . S
C655 C659 1.393 . S
C656 H645 0.950 . S
C656 C654 1.391 . S
C656 C657 1.400 . S
C657 C651 1.491 . S
C657 C656 1.400 . S
C657 C658 1.398 . S
C658 H646 0.950 . S
C658 C657 1.398 . S
C658 C659 1.391 . S
C659 H647 0.950 . S
C659 C655 1.393 . S
C659 C658 1.391 . S
H660 C668 0.950 . S
H661 C673 0.950 . S
H662 C670 0.950 . S
H663 C672 0.950 . S
H664 C674 0.950 . S
H665 C676 0.950 . S
H666 C678 0.950 . S
H667 C679 0.950 . S
C668 H660 0.950 . S
C668 C669 1.386 . S
C668 C670 1.391 . S
C669 C668 1.386 . S
C669 C673 1.393 . S
C670 H662 0.950 . S
C670 C668 1.391 . S
C670 C671 1.400 . S
C671 C670 1.400 . S
C671 C672 1.398 . S
C671 C677 1.491 . S
C672 H663 0.950 . S
C672 C671 1.398 . S
C672 C673 1.391 . S
C673 H661 0.950 . S
C673 C669 1.393 . S
C673 C672 1.391 . S
C674 H664 0.950 . S
C674 C675 1.386 . S
C674 C676 1.391 . S
C675 C674 1.386 . S
C675 C679 1.393 . S
C676 H665 0.950 . S
C676 C674 1.391 . S
C676 C677 1.400 . S
C677 C671 1.491 . S
C677 C676 1.400 . S
C677 C678 1.398 . S
C678 H666 0.950 . S
C678 C677 1.398 . S
C678 C679 1.391 . S
C679 H667 0.950 . S
C679 C675 1.393 . S
C679 C678 1.391 . S
H680 C688 0.950 . S
H681 C693 0.950 . S
H682 C690 0.950 . S
H683 C692 0.950 . S
H684 C694 0.950 1_455 S
H685 C696 0.950 . S
H686 C698 0.950 . S
H687 C699 0.950 . S
C688 H680 0.950 . S
C688 C689 1.386 . S
C688 C690 1.391 . S
C689 C688 1.386 . S
C689 C693 1.393 . S
C690 H682 0.950 . S
C690 C688 1.391 . S
C690 C691 1.400 . S
C691 C690 1.400 . S
C691 C692 1.398 . S
C691 C697 1.491 . S
C692 H683 0.950 . S
C692 C691 1.398 . S
C692 C693 1.391 . S
C693 H681 0.950 . S
C693 C689 1.393 . S
C693 C692 1.391 . S
C694 H684 0.950 1_655 S
C694 C695 1.386 . S
C694 C696 1.391 . S
C695 C694 1.386 . S
C695 C699 1.393 . S
C696 H685 0.950 . S
C696 C694 1.391 . S
C696 C697 1.400 . S
C697 C691 1.491 . S
C697 C696 1.400 . S
C697 C698 1.398 . S
C698 H686 0.950 . S
C698 C697 1.398 . S
C698 C699 1.391 . S
C699 H687 0.950 . S
C699 C695 1.393 . S
C699 C698 1.391 . S
H700 C708 0.950 . S
H701 C713 0.950 . S
H702 C710 0.950 . S
H703 C712 0.950 . S
H704 C714 0.950 . S
H705 C716 0.950 . S
H706 C718 0.950 . S
H707 C719 0.950 . S
C708 H700 0.950 . S
C708 C709 1.386 . S
C708 C710 1.391 . S
C709 C708 1.386 . S
C709 C713 1.393 . S
C710 H702 0.950 . S
C710 C708 1.391 . S
C710 C711 1.400 . S
C711 C710 1.400 . S
C711 C712 1.398 . S
C711 C717 1.491 . S
C712 H703 0.950 . S
C712 C711 1.398 . S
C712 C713 1.391 . S
C713 H701 0.950 . S
C713 C709 1.393 . S
C713 C712 1.391 . S
C714 H704 0.950 . S
C714 C715 1.386 . S
C714 C716 1.391 . S
C715 C714 1.386 . S
C715 C719 1.393 . S
C716 H705 0.950 . S
C716 C714 1.391 . S
C716 C717 1.400 . S
C717 C711 1.491 . S
C717 C716 1.400 . S
C717 C718 1.398 . S
C718 H706 0.950 . S
C718 C717 1.398 . S
C718 C719 1.391 . S
C719 H707 0.950 . S
C719 C715 1.393 . S
C719 C718 1.391 . S
H720 C728 0.950 . S
H721 C733 0.950 1_655 S
H722 C730 0.950 . S
H723 C732 0.950 . S
H724 C734 0.950 . S
H725 C736 0.950 . S
H726 C738 0.950 . S
H727 C739 0.950 . S
C728 H720 0.950 . S
C728 C729 1.386 . S
C728 C730 1.391 . S
C729 C728 1.386 . S
C729 C733 1.393 . S
C730 H722 0.950 . S
C730 C728 1.391 . S
C730 C731 1.400 . S
C731 C730 1.400 . S
C731 C732 1.398 . S
C731 C737 1.491 . S
C732 H723 0.950 . S
C732 C731 1.398 . S
C732 C733 1.391 . S
C733 H721 0.950 1_455 S
C733 C729 1.393 . S
C733 C732 1.391 . S
C734 H724 0.950 . S
C734 C735 1.386 . S
C734 C736 1.391 . S
C735 C734 1.386 . S
C735 C739 1.393 . S
C736 H725 0.950 . S
C736 C734 1.391 . S
C736 C737 1.400 . S
C737 C731 1.491 . S
C737 C736 1.400 . S
C737 C738 1.398 . S
C738 H726 0.950 . S
C738 C737 1.398 . S
C738 C739 1.391 . S
C739 H727 0.950 . S
C739 C735 1.393 . S
C739 C738 1.391 . S
H740 C748 0.950 . S
H741 C753 0.950 . S
H742 C750 0.950 . S
H743 C752 0.950 . S
H744 C754 0.950 . S
H745 C756 0.950 . S
H746 C758 0.950 . S
H747 C759 0.950 . S
C748 H740 0.950 . S
C748 C749 1.386 . S
C748 C750 1.391 . S
C749 C748 1.386 . S
C749 C753 1.393 . S
C750 H742 0.950 . S
C750 C748 1.391 . S
C750 C751 1.400 . S
C751 C750 1.400 . S
C751 C752 1.398 . S
C751 C757 1.491 . S
C752 H743 0.950 . S
C752 C751 1.398 . S
C752 C753 1.391 . S
C753 H741 0.950 . S
C753 C749 1.393 . S
C753 C752 1.391 . S
C754 H744 0.950 . S
C754 C755 1.386 . S
C754 C756 1.391 . S
C755 C754 1.386 . S
C755 C759 1.393 . S
C756 H745 0.950 . S
C756 C754 1.391 . S
C756 C757 1.400 . S
C757 C751 1.491 . S
C757 C756 1.400 . S
C757 C758 1.398 . S
C758 H746 0.950 . S
C758 C757 1.398 . S
C758 C759 1.391 . S
C759 H747 0.950 . S
C759 C755 1.393 . S
C759 C758 1.391 . S
H760 C768 0.950 . S
H761 C773 0.950 1_655 S
H762 C770 0.950 . S
H763 C772 0.950 . S
H764 C774 0.950 . S
H765 C776 0.950 . S
H766 C778 0.950 . S
H767 C779 0.950 . S
C768 H760 0.950 . S
C768 C769 1.386 . S
C768 C770 1.391 . S
C769 C768 1.386 . S
C769 C773 1.393 . S
C770 H762 0.950 . S
C770 C768 1.391 . S
C770 C771 1.400 . S
C771 C770 1.400 . S
C771 C772 1.398 . S
C771 C777 1.491 . S
C772 H763 0.950 . S
C772 C771 1.398 . S
C772 C773 1.391 . S
C773 H761 0.950 1_455 S
C773 C769 1.393 . S
C773 C772 1.391 . S
C774 H764 0.950 . S
C774 C775 1.386 . S
C774 C776 1.391 . S
C775 C774 1.386 . S
C775 C779 1.393 . S
C776 H765 0.950 . S
C776 C774 1.391 . S
C776 C777 1.400 . S
C777 C771 1.491 . S
C777 C776 1.400 . S
C777 C778 1.398 . S
C778 H766 0.950 . S
C778 C777 1.398 . S
C778 C779 1.391 . S
C779 H767 0.950 . S
C779 C775 1.393 . S
C779 C778 1.391 . S
H780 C788 0.950 . S
H781 C793 0.950 . S
H782 C790 0.950 . S
H783 C792 0.950 . S
H784 C794 0.950 . S
H785 C796 0.950 . S
H786 C798 0.950 . S
H787 C799 0.950 . S
C788 H780 0.950 . S
C788 C789 1.386 . S
C788 C790 1.391 . S
C789 C788 1.386 . S
C789 C793 1.393 . S
C790 H782 0.950 . S
C790 C788 1.391 . S
C790 C791 1.400 . S
C791 C790 1.400 . S
C791 C792 1.398 . S
C791 C797 1.491 . S
C792 H783 0.950 . S
C792 C791 1.398 . S
C792 C793 1.391 . S
C793 H781 0.950 . S
C793 C789 1.393 . S
C793 C792 1.391 . S
C794 H784 0.950 . S
C794 C795 1.386 . S
C794 C796 1.391 . S
C795 C794 1.386 . S
C795 C799 1.393 . S
C796 H785 0.950 . S
C796 C794 1.391 . S
C796 C797 1.400 . S
C797 C791 1.491 . S
C797 C796 1.400 . S
C797 C798 1.398 . S
C798 H786 0.950 . S
C798 C797 1.398 . S
C798 C799 1.391 . S
C799 H787 0.950 . S
C799 C795 1.393 . S
C799 C798 1.391 . S
H800 C808 0.950 . S
H801 C813 0.950 . S
H802 C810 0.950 . S
H803 C812 0.950 . S
H804 C814 0.950 . S
H805 C816 0.950 . S
H806 C818 0.950 . S
H807 C819 0.950 . S
C808 H800 0.950 . S
C808 C809 1.386 . S
C808 C810 1.391 . S
C809 C808 1.386 . S
C809 C813 1.393 . S
C810 H802 0.950 . S
C810 C808 1.391 . S
C810 C811 1.400 . S
C811 C810 1.400 . S
C811 C812 1.398 . S
C811 C817 1.491 . S
C812 H803 0.950 . S
C812 C811 1.398 . S
C812 C813 1.391 . S
C813 H801 0.950 . S
C813 C809 1.393 . S
C813 C812 1.391 . S
C814 H804 0.950 . S
C814 C815 1.386 . S
C814 C816 1.391 . S
C815 C814 1.386 . S
C815 C819 1.393 . S
C816 H805 0.950 . S
C816 C814 1.391 . S
C816 C817 1.400 . S
C817 C811 1.491 . S
C817 C816 1.400 . S
C817 C818 1.398 . S
C818 H806 0.950 . S
C818 C817 1.398 . S
C818 C819 1.391 . S
C819 H807 0.950 . S
C819 C815 1.393 . S
C819 C818 1.391 . S
H820 C828 0.950 . S
H821 C833 0.950 . S
H822 C830 0.950 . S
H823 C832 0.950 . S
H824 C834 0.950 . S
H825 C836 0.950 . S
H826 C838 0.950 . S
H827 C839 0.950 . S
C828 H820 0.950 . S
C828 C829 1.386 . S
C828 C830 1.391 . S
C829 C828 1.386 . S
C829 C833 1.393 . S
C830 H822 0.950 . S
C830 C828 1.391 . S
C830 C831 1.400 . S
C831 C830 1.400 . S
C831 C832 1.398 . S
C831 C837 1.491 . S
C832 H823 0.950 . S
C832 C831 1.398 . S
C832 C833 1.391 . S
C833 H821 0.950 . S
C833 C829 1.393 . S
C833 C832 1.391 . S
C834 H824 0.950 . S
C834 C835 1.386 . S
C834 C836 1.391 . S
C835 C834 1.386 . S
C835 C839 1.393 . S
C836 H825 0.950 . S
C836 C834 1.391 . S
C836 C837 1.400 . S
C837 C831 1.491 . S
C837 C836 1.400 . S
C837 C838 1.398 . S
C838 H826 0.950 . S
C838 C837 1.398 . S
C838 C839 1.391 . S
C839 H827 0.950 . S
C839 C835 1.393 . S
C839 C838 1.391 . S
H840 C848 0.950 . S
H841 C853 0.950 1_455 S
H842 C850 0.950 . S
H843 C852 0.950 . S
H844 C854 0.950 . S
H845 C856 0.950 . S
H846 C858 0.950 . S
H847 C859 0.950 . S
C848 H840 0.950 . S
C848 C849 1.386 . S
C848 C850 1.391 . S
C849 C848 1.386 . S
C849 C853 1.393 . S
C850 H842 0.950 . S
C850 C848 1.391 . S
C850 C851 1.400 . S
C851 C850 1.400 . S
C851 C852 1.398 . S
C851 C857 1.491 . S
C852 H843 0.950 . S
C852 C851 1.398 . S
C852 C853 1.391 . S
C853 H841 0.950 1_655 S
C853 C849 1.393 . S
C853 C852 1.391 . S
C854 H844 0.950 . S
C854 C855 1.386 . S
C854 C856 1.391 . S
C855 C854 1.386 . S
C855 C859 1.393 . S
C856 H845 0.950 . S
C856 C854 1.391 . S
C856 C857 1.400 . S
C857 C851 1.491 . S
C857 C856 1.400 . S
C857 C858 1.398 . S
C858 H846 0.950 . S
C858 C857 1.398 . S
C858 C859 1.391 . S
C859 H847 0.950 . S
C859 C855 1.393 . S
C859 C858 1.391 . S
H860 C868 0.950 . S
H861 C873 0.950 . S
H862 C870 0.950 . S
H863 C872 0.950 . S
H864 C874 0.950 . S
H865 C876 0.950 . S
H866 C878 0.950 . S
H867 C879 0.950 . S
C868 H860 0.950 . S
C868 C869 1.386 . S
C868 C870 1.391 . S
C869 C868 1.386 . S
C869 C873 1.393 . S
C870 H862 0.950 . S
C870 C868 1.391 . S
C870 C871 1.400 . S
C871 C870 1.400 . S
C871 C872 1.398 . S
C871 C877 1.491 . S
C872 H863 0.950 . S
C872 C871 1.398 . S
C872 C873 1.391 . S
C873 H861 0.950 . S
C873 C869 1.393 . S
C873 C872 1.391 . S
C874 H864 0.950 . S
C874 C875 1.386 . S
C874 C876 1.391 . S
C875 C874 1.386 . S
C875 C879 1.393 . S
C876 H865 0.950 . S
C876 C874 1.391 . S
C876 C877 1.400 . S
C877 C871 1.491 . S
C877 C876 1.400 . S
C877 C878 1.398 . S
C878 H866 0.950 . S
C878 C877 1.398 . S
C878 C879 1.391 . S
C879 H867 0.950 . S
C879 C875 1.393 . S
C879 C878 1.391 . S
H880 C888 0.950 1_655 S
H881 C893 0.950 . S
H882 C890 0.950 . S
H883 C892 0.950 . S
H884 C894 0.950 . S
H885 C896 0.950 . S
H886 C898 0.950 . S
H887 C899 0.950 . S
C888 H880 0.950 1_455 S
C888 C889 1.386 . S
C888 C890 1.391 . S
C889 C888 1.386 . S
C889 C893 1.393 . S
C890 H882 0.950 . S
C890 C888 1.391 . S
C890 C891 1.400 . S
C891 C890 1.400 . S
C891 C892 1.398 . S
C891 C897 1.491 . S
C892 H883 0.950 . S
C892 C891 1.398 . S
C892 C893 1.391 . S
C893 H881 0.950 . S
C893 C889 1.393 . S
C893 C892 1.391 . S
C894 H884 0.950 . S
C894 C895 1.386 . S
C894 C896 1.391 . S
C895 C894 1.386 . S
C895 C899 1.393 . S
C896 H885 0.950 . S
C896 C894 1.391 . S
C896 C897 1.400 . S
C897 C891 1.491 . S
C897 C896 1.400 . S
C897 C898 1.398 . S
C898 H886 0.950 . S
C898 C897 1.398 . S
C898 C899 1.391 . S
C899 H887 0.950 . S
C899 C895 1.393 . S
C899 C898 1.391 . S
H900 C908 0.950 . S
H901 C913 0.950 . S
H902 C910 0.950 . S
H903 C912 0.950 . S
H904 C914 0.950 . S
H905 C916 0.950 . S
H906 C918 0.950 . S
H907 C919 0.950 . S
C908 H900 0.950 . S
C908 C909 1.386 . S
C908 C910 1.391 . S
C909 C908 1.386 . S
C909 C913 1.393 . S
C910 H902 0.950 . S
C910 C908 1.391 . S
C910 C911 1.400 . S
C911 C910 1.400 . S
C911 C912 1.398 . S
C911 C917 1.491 . S
C912 H903 0.950 . S
C912 C911 1.398 . S
C912 C913 1.391 . S
C913 H901 0.950 . S
C913 C909 1.393 . S
C913 C912 1.391 . S
C914 H904 0.950 . S
C914 C915 1.386 . S
C914 C916 1.391 . S
C915 C914 1.386 . S
C915 C919 1.393 . S
C916 H905 0.950 . S
C916 C914 1.391 . S
C916 C917 1.400 . S
C917 C911 1.491 . S
C917 C916 1.400 . S
C917 C918 1.398 . S
C918 H906 0.950 . S
C918 C917 1.398 . S
C918 C919 1.391 . S
C919 H907 0.950 . S
C919 C915 1.393 . S
C919 C918 1.391 . S
H920 C928 0.950 . S
H921 C933 0.950 . S
H922 C930 0.950 . S
H923 C932 0.950 . S
H924 C934 0.953 . S
H925 C936 0.950 . S
H926 C938 0.950 . S
H927 C939 0.950 . S
C928 H920 0.950 . S
C928 C929 1.386 . S
C928 C930 1.391 . S
C929 C928 1.386 . S
C929 C933 1.393 . S
C930 H922 0.950 . S
C930 C928 1.391 . S
C930 C931 1.400 . S
C931 C930 1.400 . S
C931 C932 1.398 . S
C931 C937 1.491 . S
C932 H923 0.950 . S
C932 C931 1.398 . S
C932 C933 1.391 . S
C933 H921 0.950 . S
C933 C929 1.393 . S
C933 C932 1.391 . S
C934 H924 0.953 . S
C934 C935 1.386 . S
C934 C936 1.391 . S
C935 C934 1.386 . S
C935 C939 1.393 . S
C936 H925 0.950 . S
C936 C934 1.391 . S
C936 C937 1.400 . S
C937 C931 1.491 . S
C937 C936 1.400 . S
C937 C938 1.398 . S
C938 H926 0.950 . S
C938 C937 1.398 . S
C938 C939 1.391 . S
C939 H927 0.950 . S
C939 C935 1.393 . S
C939 C938 1.391 . S
H940 C948 0.950 . S
H941 C953 0.950 . S
H942 C950 0.950 . S
H943 C952 0.950 . S
H944 C954 0.950 . S
H945 C956 0.950 . S
H946 C958 0.950 . S
H947 C959 0.950 . S
C948 H940 0.950 . S
C948 C949 1.386 . S
C948 C950 1.391 . S
C949 C948 1.386 . S
C949 C953 1.393 . S
C950 H942 0.950 . S
C950 C948 1.391 . S
C950 C951 1.400 . S
C951 C950 1.400 . S
C951 C952 1.398 . S
C951 C957 1.491 . S
C952 H943 0.950 . S
C952 C951 1.398 . S
C952 C953 1.391 . S
C953 H941 0.950 . S
C953 C949 1.393 . S
C953 C952 1.391 . S
C954 H944 0.950 . S
C954 C955 1.386 . S
C954 C956 1.391 . S
C955 C954 1.386 . S
C955 C959 1.393 . S
C956 H945 0.950 . S
C956 C954 1.391 . S
C956 C957 1.400 . S
C957 C951 1.491 . S
C957 C956 1.400 . S
C957 C958 1.398 . S
C958 H946 0.950 . S
C958 C957 1.398 . S
C958 C959 1.391 . S
C959 H947 0.950 . S
C959 C955 1.393 . S
C959 C958 1.391 . S
H960 C968 0.950 . S
H961 C973 0.950 1_655 S
H962 C970 0.950 . S
H963 C972 0.950 . S
H964 C974 0.950 . S
H965 C976 0.950 . S
H966 C978 0.950 . S
H967 C979 0.950 . S
C968 H960 0.950 . S
C968 C969 1.386 . S
C968 C970 1.391 . S
C969 C968 1.386 . S
C969 C973 1.393 . S
C970 H962 0.950 . S
C970 C968 1.391 . S
C970 C971 1.400 . S
C971 C970 1.400 . S
C971 C972 1.398 . S
C971 C977 1.491 . S
C972 H963 0.950 . S
C972 C971 1.398 . S
C972 C973 1.391 . S
C973 H961 0.950 1_455 S
C973 C969 1.393 . S
C973 C972 1.391 . S
C974 H964 0.950 . S
C974 C975 1.386 . S
C974 C976 1.391 . S
C975 C974 1.386 . S
C975 C979 1.393 . S
C976 H965 0.950 . S
C976 C974 1.391 . S
C976 C977 1.400 . S
C977 C971 1.491 . S
C977 C976 1.400 . S
C977 C978 1.398 . S
C978 H966 0.950 . S
C978 C977 1.398 . S
C978 C979 1.391 . S
C979 H967 0.950 . S
C979 C975 1.393 . S
C979 C978 1.391 . S
H980 C988 0.950 . S
H981 C993 0.950 . S
H982 C990 0.950 . S
H983 C992 0.950 . S
H984 C994 0.950 . S
H985 C996 0.950 . S
H986 C998 0.950 . S
H987 C999 0.950 . S
C988 H980 0.950 . S
C988 C989 1.386 . S
C988 C990 1.391 . S
C989 C988 1.386 . S
C989 C993 1.393 . S
C990 H982 0.950 . S
C990 C988 1.391 . S
C990 C991 1.400 . S
C991 C990 1.400 . S
C991 C992 1.398 . S
C991 C997 1.491 . S
C992 H983 0.950 . S
C992 C991 1.398 . S
C992 C993 1.391 . S
C993 H981 0.950 . S
C993 C989 1.393 . S
C993 C992 1.391 . S
C994 H984 0.950 . S
C994 C995 1.386 . S
C994 C996 1.391 . S
C995 C994 1.386 . S
C995 C999 1.393 . S
C996 H985 0.950 . S
C996 C994 1.391 . S
C996 C997 1.400 . S
C997 C991 1.491 . S
C997 C996 1.400 . S
C997 C998 1.398 . S
C998 H986 0.950 . S
C998 C997 1.398 . S
C998 C999 1.391 . S
C999 H987 0.950 . S
C999 C995 1.393 . S
C999 C998 1.391 . S
H1000 C1008 0.950 . S
H1001 C1013 0.950 . S
H1002 C1010 0.950 . S
H1003 C1012 0.950 . S
H1004 C1014 0.950 . S
H1005 C1016 0.950 . S
H1006 C1018 0.950 . S
H1007 C1019 0.950 . S
C1008 H1000 0.950 . S
C1008 C1009 1.386 . S
C1008 C1010 1.391 . S
C1009 C1008 1.386 . S
C1009 C1013 1.393 . S
C1010 H1002 0.950 . S
C1010 C1008 1.391 . S
C1010 C1011 1.400 . S
C1011 C1010 1.400 . S
C1011 C1012 1.398 . S
C1011 C1017 1.491 . S
C1012 H1003 0.950 . S
C1012 C1011 1.398 . S
C1012 C1013 1.391 . S
C1013 H1001 0.950 . S
C1013 C1009 1.393 . S
C1013 C1012 1.391 . S
C1014 H1004 0.950 . S
C1014 C1015 1.386 . S
C1014 C1016 1.391 . S
C1015 C1014 1.386 . S
C1015 C1019 1.393 . S
C1016 H1005 0.950 . S
C1016 C1014 1.391 . S
C1016 C1017 1.400 . S
C1017 C1011 1.491 . S
C1017 C1016 1.400 . S
C1017 C1018 1.398 . S
C1018 H1006 0.950 . S
C1018 C1017 1.398 . S
C1018 C1019 1.391 . S
C1019 H1007 0.950 . S
C1019 C1015 1.393 . S
C1019 C1018 1.391 . S
H1020 C1028 0.950 1_455 S
H1021 C1033 0.950 . S
H1022 C1030 0.950 . S
H1023 C1032 0.950 . S
H1024 C1034 0.950 . S
H1025 C1036 0.950 . S
H1026 C1038 0.950 . S
H1027 C1039 0.950 . S
C1028 H1020 0.950 1_655 S
C1028 C1029 1.386 . S
C1028 C1030 1.391 . S
C1029 C1028 1.386 . S
C1029 C1033 1.393 . S
C1030 H1022 0.950 . S
C1030 C1028 1.391 . S
C1030 C1031 1.400 . S
C1031 C1030 1.400 . S
C1031 C1032 1.398 . S
C1031 C1037 1.491 . S
C1032 H1023 0.950 . S
C1032 C1031 1.398 . S
C1032 C1033 1.391 . S
C1033 H1021 0.950 . S
C1033 C1029 1.393 . S
C1033 C1032 1.391 . S
C1034 H1024 0.950 . S
C1034 C1035 1.386 . S
C1034 C1036 1.391 . S
C1035 C1034 1.386 . S
C1035 C1039 1.393 . S
C1036 H1025 0.950 . S
C1036 C1034 1.391 . S
C1036 C1037 1.400 . S
C1037 C1031 1.491 . S
C1037 C1036 1.400 . S
C1037 C1038 1.398 . S
C1038 H1026 0.950 . S
C1038 C1037 1.398 . S
C1038 C1039 1.391 . S
C1039 H1027 0.950 . S
C1039 C1035 1.393 . S
C1039 C1038 1.391 . S
H1040 C1048 0.950 . S
H1041 C1053 0.950 . S
H1042 C1050 0.950 . S
H1043 C1052 0.950 . S
H1044 C1054 0.950 . S
H1045 C1056 0.950 . S
H1046 C1058 0.950 . S
H1047 C1059 0.950 . S
C1048 H1040 0.950 . S
C1048 C1049 1.386 1_545 S
C1048 C1050 1.391 . S
C1049 C1048 1.386 1_565 S
C1049 C1053 1.393 . S
C1050 H1042 0.950 . S
C1050 C1048 1.391 . S
C1050 C1051 1.400 1_545 S
C1051 C1050 1.400 1_565 S
C1051 C1052 1.398 . S
C1051 C1057 1.491 . S
C1052 H1043 0.950 . S
C1052 C1051 1.398 . S
C1052 C1053 1.391 . S
C1053 H1041 0.950 . S
C1053 C1049 1.393 . S
C1053 C1052 1.391 . S
C1054 H1044 0.950 . S
C1054 C1055 1.386 . S
C1054 C1056 1.391 . S
C1055 C1054 1.386 . S
C1055 C1059 1.393 1_565 S
C1056 H1045 0.950 . S
C1056 C1054 1.391 . S
C1056 C1057 1.400 . S
C1057 C1051 1.491 . S
C1057 C1056 1.400 . S
C1057 C1058 1.398 1_565 S
C1058 H1046 0.950 . S
C1058 C1057 1.398 1_545 S
C1058 C1059 1.391 . S
C1059 H1047 0.950 . S
C1059 C1055 1.393 1_545 S
C1059 C1058 1.391 . S
H1060 C1068 0.950 . S
H1061 C1073 0.950 . S
H1062 C1070 0.950 . S
H1063 C1072 0.950 . S
H1064 C1074 0.950 . S
H1065 C1076 0.950 . S
H1066 C1078 0.950 . S
H1067 C1079 0.950 . S
C1068 H1060 0.950 . S
C1068 C1069 1.386 . S
C1068 C1070 1.391 . S
C1069 C1068 1.386 . S
C1069 C1073 1.393 . S
C1070 H1062 0.950 . S
C1070 C1068 1.391 . S
C1070 C1071 1.400 . S
C1071 C1070 1.400 . S
C1071 C1072 1.398 . S
C1071 C1077 1.491 . S
C1072 H1063 0.950 . S
C1072 C1071 1.398 . S
C1072 C1073 1.391 . S
C1073 H1061 0.950 . S
C1073 C1069 1.393 . S
C1073 C1072 1.391 . S
C1074 H1064 0.950 . S
C1074 C1075 1.386 . S
C1074 C1076 1.391 . S
C1075 C1074 1.386 . S
C1075 C1079 1.393 . S
C1076 H1065 0.950 . S
C1076 C1074 1.391 . S
C1076 C1077 1.400 . S
C1077 C1071 1.491 . S
C1077 C1076 1.400 . S
C1077 C1078 1.398 . S
C1078 H1066 0.950 . S
C1078 C1077 1.398 . S
C1078 C1079 1.391 . S
C1079 H1067 0.950 . S
C1079 C1075 1.393 . S
C1079 C1078 1.391 . S
H1080 C1088 0.950 1_455 S
H1081 C1093 0.950 . S
H1082 C1090 0.950 . S
H1083 C1092 0.950 . S
H1084 C1094 0.950 . S
H1085 C1096 0.950 . S
H1086 C1098 0.950 . S
H1087 C1099 0.950 . S
C1088 H1080 0.950 1_655 S
C1088 C1089 1.386 . S
C1088 C1090 1.391 . S
C1089 C1088 1.386 . S
C1089 C1093 1.393 1_545 S
C1090 H1082 0.950 . S
C1090 C1088 1.391 . S
C1090 C1091 1.400 . S
C1091 C1090 1.400 . S
C1091 C1092 1.398 1_545 S
C1091 C1097 1.491 . S
C1092 H1083 0.950 . S
C1092 C1091 1.398 1_565 S
C1092 C1093 1.391 . S
C1093 H1081 0.950 . S
C1093 C1089 1.393 1_565 S
C1093 C1092 1.391 . S
C1094 H1084 0.950 . S
C1094 C1095 1.386 1_565 S
C1094 C1096 1.391 . S
C1095 C1094 1.386 1_545 S
C1095 C1099 1.393 . S
C1096 H1085 0.950 . S
C1096 C1094 1.391 . S
C1096 C1097 1.400 1_565 S
C1097 C1091 1.491 . S
C1097 C1096 1.400 1_545 S
C1097 C1098 1.398 . S
C1098 H1086 0.950 . S
C1098 C1097 1.398 . S
C1098 C1099 1.391 . S
C1099 H1087 0.950 . S
C1099 C1095 1.393 . S
C1099 C1098 1.391 . S
H1100 C1108 0.950 . S
H1101 C1113 0.945 1_455 S
H1102 C1110 0.950 . S
H1103 C1112 0.950 . S
H1104 C1114 0.950 . S
H1105 C1116 0.950 . S
H1106 C1118 0.950 . S
H1107 C1119 0.950 . S
C1108 H1100 0.950 . S
C1108 C1109 1.386 . S
C1108 C1110 1.391 . S
C1109 C1108 1.386 . S
C1109 C1113 1.393 . S
C1110 H1102 0.950 . S
C1110 C1108 1.391 . S
C1110 C1111 1.400 . S
C1111 C1110 1.400 . S
C1111 C1112 1.398 . S
C1111 C1117 1.491 . S
C1112 H1103 0.950 . S
C1112 C1111 1.398 . S
C1112 C1113 1.391 . S
C1113 H1101 0.945 1_655 S
C1113 C1109 1.393 . S
C1113 C1112 1.391 . S
C1114 H1104 0.950 . S
C1114 C1115 1.386 . S
C1114 C1116 1.391 . S
C1115 C1114 1.386 . S
C1115 C1119 1.393 . S
C1116 H1105 0.950 . S
C1116 C1114 1.391 . S
C1116 C1117 1.400 . S
C1117 C1111 1.491 . S
C1117 C1116 1.400 . S
C1117 C1118 1.398 . S
C1118 H1106 0.950 . S
C1118 C1117 1.398 . S
C1118 C1119 1.391 . S
C1119 H1107 0.950 . S
C1119 C1115 1.393 . S
C1119 C1118 1.391 . S
H1120 C1128 0.950 . S
H1121 C1133 0.950 . S
H1122 C1130 0.950 . S
H1123 C1132 0.950 . S
H1124 C1134 0.950 . S
H1125 C1136 0.950 . S
H1126 C1138 0.950 . S
H1127 C1139 0.950 . S
C1128 H1120 0.950 . S
C1128 C1129 1.386 . S
C1128 C1130 1.391 . S
C1129 C1128 1.386 . S
C1129 C1133 1.393 . S
C1130 H1122 0.950 . S
C1130 C1128 1.391 . S
C1130 C1131 1.400 . S
C1131 C1130 1.400 . S
C1131 C1132 1.398 . S
C1131 C1137 1.491 . S
C1132 H1123 0.950 . S
C1132 C1131 1.398 . S
C1132 C1133 1.391 . S
C1133 H1121 0.950 . S
C1133 C1129 1.393 . S
C1133 C1132 1.391 . S
C1134 H1124 0.950 . S
C1134 C1135 1.386 . S
C1134 C1136 1.391 . S
C1135 C1134 1.386 . S
C1135 C1139 1.393 . S
C1136 H1125 0.950 . S
C1136 C1134 1.391 . S
C1136 C1137 1.400 . S
C1137 C1131 1.491 . S
C1137 C1136 1.400 . S
C1137 C1138 1.398 . S
C1138 H1126 0.950 . S
C1138 C1137 1.398 . S
C1138 C1139 1.391 . S
C1139 H1127 0.950 . S
C1139 C1135 1.393 . S
C1139 C1138 1.391 . S
H1140 C1148 0.950 . S
H1141 C1153 0.950 . S
H1142 C1150 0.950 . S
H1143 C1152 0.950 . S
H1144 C1154 0.950 . S
H1145 C1156 0.950 . S
H1146 C1158 0.950 . S
H1147 C1159 0.950 . S
C1148 H1140 0.950 . S
C1148 C1149 1.386 . S
C1148 C1150 1.391 . S
C1149 C1148 1.386 . S
C1149 C1153 1.393 . S
C1150 H1142 0.950 . S
C1150 C1148 1.391 . S
C1150 C1151 1.400 . S
C1151 C1150 1.400 . S
C1151 C1152 1.398 . S
C1151 C1157 1.491 . S
C1152 H1143 0.950 . S
C1152 C1151 1.398 . S
C1152 C1153 1.391 . S
C1153 H1141 0.950 . S
C1153 C1149 1.393 . S
C1153 C1152 1.391 . S
C1154 H1144 0.950 . S
C1154 C1155 1.386 . S
C1154 C1156 1.391 . S
C1155 C1154 1.386 . S
C1155 C1159 1.393 . S
C1156 H1145 0.950 . S
C1156 C1154 1.391 . S
C1156 C1157 1.400 . S
C1157 C1151 1.491 . S
C1157 C1156 1.400 . S
C1157 C1158 1.398 . S
C1158 H1146 0.950 . S
C1158 C1157 1.398 . S
C1158 C1159 1.391 . S
C1159 H1147 0.950 . S
C1159 C1155 1.393 . S
C1159 C1158 1.391 . S
H1160 C1168 0.950 . S
H1161 C1173 0.950 . S
H1162 C1170 0.950 . S
H1163 C1172 0.950 . S
H1164 C1174 0.950 . S
H1165 C1176 0.950 . S
H1166 C1178 0.950 . S
H1167 C1179 0.950 . S
C1168 H1160 0.950 . S
C1168 C1169 1.386 . S
C1168 C1170 1.391 . S
C1169 C1168 1.386 . S
C1169 C1173 1.393 . S
C1170 H1162 0.950 . S
C1170 C1168 1.391 . S
C1170 C1171 1.400 . S
C1171 C1170 1.400 . S
C1171 C1172 1.398 . S
C1171 C1177 1.491 . S
C1172 H1163 0.950 . S
C1172 C1171 1.398 . S
C1172 C1173 1.391 . S
C1173 H1161 0.950 . S
C1173 C1169 1.393 . S
C1173 C1172 1.391 . S
C1174 H1164 0.950 . S
C1174 C1175 1.386 . S
C1174 C1176 1.391 . S
C1175 C1174 1.386 . S
C1175 C1179 1.393 . S
C1176 H1165 0.950 . S
C1176 C1174 1.391 . S
C1176 C1177 1.400 . S
C1177 C1171 1.491 . S
C1177 C1176 1.400 . S
C1177 C1178 1.398 . S
C1178 H1166 0.950 . S
C1178 C1177 1.398 . S
C1178 C1179 1.391 . S
C1179 H1167 0.950 . S
C1179 C1175 1.393 . S
C1179 C1178 1.391 . S
H1180 C1188 0.950 . S
H1181 C1193 0.950 . S
H1182 C1190 0.950 . S
H1183 C1192 0.950 . S
H1184 C1194 0.950 . S
H1185 C1196 0.950 . S
H1186 C1198 0.950 . S
H1187 C1199 0.950 . S
C1188 H1180 0.950 . S
C1188 C1189 1.386 . S
C1188 C1190 1.391 . S
C1189 C1188 1.386 . S
C1189 C1193 1.393 . S
C1190 H1182 0.950 . S
C1190 C1188 1.391 . S
C1190 C1191 1.400 . S
C1191 C1190 1.400 . S
C1191 C1192 1.398 . S
C1191 C1197 1.491 . S
C1192 H1183 0.950 . S
C1192 C1191 1.398 . S
C1192 C1193 1.391 . S
C1193 H1181 0.950 . S
C1193 C1189 1.393 . S
C1193 C1192 1.391 . S
C1194 H1184 0.950 . S
C1194 C1195 1.386 . S
C1194 C1196 1.391 . S
C1195 C1194 1.386 . S
C1195 C1199 1.393 . S
C1196 H1185 0.950 . S
C1196 C1194 1.391 . S
C1196 C1197 1.400 . S
C1197 C1191 1.491 . S
C1197 C1196 1.400 . S
C1197 C1198 1.398 . S
C1198 H1186 0.950 . S
C1198 C1197 1.398 . S
C1198 C1199 1.391 . S
C1199 H1187 0.950 . S
C1199 C1195 1.393 . S
C1199 C1198 1.391 . S
H1200 C1208 0.950 . S
H1201 C1213 0.950 . S
H1202 C1210 0.950 . S
H1203 C1212 0.950 . S
H1204 C1214 0.950 . S
H1205 C1216 0.950 . S
H1206 C1218 0.950 . S
H1207 C1219 0.950 . S
C1208 H1200 0.950 . S
C1208 C1209 1.386 . S
C1208 C1210 1.391 . S
C1209 C1208 1.386 . S
C1209 C1213 1.393 1_565 S
C1210 H1202 0.950 . S
C1210 C1208 1.391 . S
C1210 C1211 1.400 . S
C1211 C1210 1.400 . S
C1211 C1212 1.398 1_565 S
C1211 C1217 1.491 . S
C1212 H1203 0.950 . S
C1212 C1211 1.398 1_545 S
C1212 C1213 1.391 . S
C1213 H1201 0.950 . S
C1213 C1209 1.393 1_545 S
C1213 C1212 1.391 . S
C1214 H1204 0.950 . S
C1214 C1215 1.386 1_545 S
C1214 C1216 1.391 . S
C1215 C1214 1.386 1_565 S
C1215 C1219 1.393 . S
C1216 H1205 0.950 . S
C1216 C1214 1.391 . S
C1216 C1217 1.400 1_545 S
C1217 C1211 1.491 . S
C1217 C1216 1.400 1_565 S
C1217 C1218 1.398 . S
C1218 H1206 0.950 . S
C1218 C1217 1.398 . S
C1218 C1219 1.391 . S
C1219 H1207 0.950 . S
C1219 C1215 1.393 . S
C1219 C1218 1.391 . S
H1220 C1228 0.950 . S
H1221 C1233 0.950 . S
H1222 C1230 0.950 . S
H1223 C1232 0.950 . S
H1224 C1234 0.950 . S
H1225 C1236 0.950 . S
H1226 C1238 0.950 . S
H1227 C1239 0.950 . S
C1228 H1220 0.950 . S
C1228 C1229 1.386 . S
C1228 C1230 1.391 . S
C1229 C1228 1.386 . S
C1229 C1233 1.393 . S
C1230 H1222 0.950 . S
C1230 C1228 1.391 . S
C1230 C1231 1.400 . S
C1231 C1230 1.400 . S
C1231 C1232 1.398 . S
C1231 C1237 1.491 . S
C1232 H1223 0.950 . S
C1232 C1231 1.398 . S
C1232 C1233 1.391 . S
C1233 H1221 0.950 . S
C1233 C1229 1.393 . S
C1233 C1232 1.391 . S
C1234 H1224 0.950 . S
C1234 C1235 1.386 . S
C1234 C1236 1.391 . S
C1235 C1234 1.386 . S
C1235 C1239 1.393 . S
C1236 H1225 0.950 . S
C1236 C1234 1.391 . S
C1236 C1237 1.400 . S
C1237 C1231 1.491 . S
C1237 C1236 1.400 . S
C1237 C1238 1.398 . S
C1238 H1226 0.950 . S
C1238 C1237 1.398 . S
C1238 C1239 1.391 . S
C1239 H1227 0.950 . S
C1239 C1235 1.393 . S
C1239 C1238 1.391 . S
H1240 C1248 0.950 . S
H1241 C1253 0.950 . S
H1242 C1250 0.950 . S
H1243 C1252 0.950 . S
H1244 C1254 0.950 . S
H1245 C1256 0.950 . S
H1246 C1258 0.950 . S
H1247 C1259 0.950 . S
C1248 H1240 0.950 . S
C1248 C1249 1.386 . S
C1248 C1250 1.391 . S
C1249 C1248 1.386 . S
C1249 C1253 1.393 1_545 S
C1250 H1242 0.950 . S
C1250 C1248 1.391 . S
C1250 C1251 1.400 . S
C1251 C1250 1.400 . S
C1251 C1252 1.398 1_545 S
C1251 C1257 1.491 . S
C1252 H1243 0.950 . S
C1252 C1251 1.398 1_565 S
C1252 C1253 1.391 . S
C1253 H1241 0.950 . S
C1253 C1249 1.393 1_565 S
C1253 C1252 1.391 . S
C1254 H1244 0.950 . S
C1254 C1255 1.386 1_565 S
C1254 C1256 1.391 . S
C1255 C1254 1.386 1_545 S
C1255 C1259 1.393 . S
C1256 H1245 0.950 . S
C1256 C1254 1.391 . S
C1256 C1257 1.400 1_565 S
C1257 C1251 1.491 . S
C1257 C1256 1.400 1_545 S
C1257 C1258 1.398 . S
C1258 H1246 0.950 . S
C1258 C1257 1.398 . S
C1258 C1259 1.391 . S
C1259 H1247 0.950 . S
C1259 C1255 1.393 . S
C1259 C1258 1.391 . S
H1260 C1268 0.950 . S
H1261 C1273 0.950 . S
H1262 C1270 0.950 . S
H1263 C1272 0.950 . S
H1264 C1274 0.950 . S
H1265 C1276 0.950 . S
H1266 C1278 0.950 . S
H1267 C1279 0.950 . S
C1268 H1260 0.950 . S
C1268 C1269 1.386 . S
C1268 C1270 1.391 . S
C1269 C1268 1.386 . S
C1269 C1273 1.393 . S
C1270 H1262 0.950 . S
C1270 C1268 1.391 . S
C1270 C1271 1.400 . S
C1271 C1270 1.400 . S
C1271 C1272 1.398 . S
C1271 C1277 1.491 . S
C1272 H1263 0.950 . S
C1272 C1271 1.398 . S
C1272 C1273 1.391 . S
C1273 H1261 0.950 . S
C1273 C1269 1.393 . S
C1273 C1272 1.391 . S
C1274 H1264 0.950 . S
C1274 C1275 1.386 . S
C1274 C1276 1.391 . S
C1275 C1274 1.386 . S
C1275 C1279 1.393 . S
C1276 H1265 0.950 . S
C1276 C1274 1.391 . S
C1276 C1277 1.400 . S
C1277 C1271 1.491 . S
C1277 C1276 1.400 . S
C1277 C1278 1.398 . S
C1278 H1266 0.950 . S
C1278 C1277 1.398 . S
C1278 C1279 1.391 . S
C1279 H1267 0.950 . S
C1279 C1275 1.393 . S
C1279 C1278 1.391 . S
H1280 C1288 0.950 . S
H1281 C1293 0.950 . S
H1282 C1290 0.950 . S
H1283 C1292 0.950 . S
H1284 C1294 0.950 . S
H1285 C1296 0.950 . S
H1286 C1298 0.950 . S
H1287 C1299 0.950 . S
C1288 H1280 0.950 . S
C1288 C1289 1.386 . S
C1288 C1290 1.391 . S
C1289 C1288 1.386 . S
C1289 C1293 1.393 . S
C1290 H1282 0.950 . S
C1290 C1288 1.391 . S
C1290 C1291 1.400 . S
C1291 C1290 1.400 . S
C1291 C1292 1.398 . S
C1291 C1297 1.491 . S
C1292 H1283 0.950 . S
C1292 C1291 1.398 . S
C1292 C1293 1.391 . S
C1293 H1281 0.950 . S
C1293 C1289 1.393 . S
C1293 C1292 1.391 . S
C1294 H1284 0.950 . S
C1294 C1295 1.386 . S
C1294 C1296 1.391 . S
C1295 C1294 1.386 . S
C1295 C1299 1.393 . S
C1296 H1285 0.950 . S
C1296 C1294 1.391 . S
C1296 C1297 1.400 . S
C1297 C1291 1.491 . S
C1297 C1296 1.400 . S
C1297 C1298 1.398 . S
C1298 H1286 0.950 . S
C1298 C1297 1.398 . S
C1298 C1299 1.391 . S
C1299 H1287 0.950 . S
C1299 C1295 1.393 . S
C1299 C1298 1.391 . S
H1300 C1308 0.950 . S
H1301 C1313 0.950 . S
H1302 C1310 0.950 . S
H1303 C1312 0.950 . S
H1304 C1314 0.950 . S
H1305 C1316 0.950 . S
H1306 C1318 0.950 . S
H1307 C1319 0.950 . S
C1308 H1300 0.950 . S
C1308 C1309 1.386 . S
C1308 C1310 1.391 . S
C1309 C1308 1.386 . S
C1309 C1313 1.393 . S
C1310 H1302 0.950 . S
C1310 C1308 1.391 . S
C1310 C1311 1.400 . S
C1311 C1310 1.400 . S
C1311 C1312 1.398 . S
C1311 C1317 1.491 . S
C1312 H1303 0.950 . S
C1312 C1311 1.398 . S
C1312 C1313 1.391 . S
C1313 H1301 0.950 . S
C1313 C1309 1.393 . S
C1313 C1312 1.391 . S
C1314 H1304 0.950 . S
C1314 C1315 1.386 . S
C1314 C1316 1.391 . S
C1315 C1314 1.386 . S
C1315 C1319 1.393 . S
C1316 H1305 0.950 . S
C1316 C1314 1.391 . S
C1316 C1317 1.400 . S
C1317 C1311 1.491 . S
C1317 C1316 1.400 . S
C1317 C1318 1.398 . S
C1318 H1306 0.950 . S
C1318 C1317 1.398 . S
C1318 C1319 1.391 . S
C1319 H1307 0.950 . S
C1319 C1315 1.393 . S
C1319 C1318 1.391 . S
H1320 C1328 0.950 . S
H1321 C1333 0.950 . S
H1322 C1330 0.950 . S
H1323 C1332 0.950 . S
H1324 C1334 0.950 . S
H1325 C1336 0.950 . S
H1326 C1338 0.950 . S
H1327 C1339 0.950 . S
C1328 H1320 0.950 . S
C1328 C1329 1.386 . S
C1328 C1330 1.391 . S
C1329 C1328 1.386 . S
C1329 C1333 1.393 . S
C1330 H1322 0.950 . S
C1330 C1328 1.391 . S
C1330 C1331 1.400 . S
C1331 C1330 1.400 . S
C1331 C1332 1.398 . S
C1331 C1337 1.491 . S
C1332 H1323 0.950 . S
C1332 C1331 1.398 . S
C1332 C1333 1.391 . S
C1333 H1321 0.950 . S
C1333 C1329 1.393 . S
C1333 C1332 1.391 . S
C1334 H1324 0.950 . S
C1334 C1335 1.386 . S
C1334 C1336 1.391 . S
C1335 C1334 1.386 . S
C1335 C1339 1.393 . S
C1336 H1325 0.950 . S
C1336 C1334 1.391 . S
C1336 C1337 1.400 . S
C1337 C1331 1.491 . S
C1337 C1336 1.400 . S
C1337 C1338 1.398 . S
C1338 H1326 0.950 . S
C1338 C1337 1.398 . S
C1338 C1339 1.391 . S
C1339 H1327 0.950 . S
C1339 C1335 1.393 . S
C1339 C1338 1.391 . S
H1340 C1348 0.950 . S
H1341 C1353 0.950 . S
H1342 C1350 0.950 . S
H1343 C1352 0.950 . S
H1344 C1354 0.950 . S
H1345 C1356 0.950 . S
H1346 C1358 0.950 . S
H1347 C1359 0.950 . S
C1348 H1340 0.950 . S
C1348 C1349 1.386 . S
C1348 C1350 1.391 . S
C1349 C1348 1.386 . S
C1349 C1353 1.393 . S
C1350 H1342 0.950 . S
C1350 C1348 1.391 . S
C1350 C1351 1.400 . S
C1351 C1350 1.400 . S
C1351 C1352 1.398 . S
C1351 C1357 1.491 . S
C1352 H1343 0.950 . S
C1352 C1351 1.398 . S
C1352 C1353 1.391 . S
C1353 H1341 0.950 . S
C1353 C1349 1.393 . S
C1353 C1352 1.391 . S
C1354 H1344 0.950 . S
C1354 C1355 1.386 . S
C1354 C1356 1.391 . S
C1355 C1354 1.386 . S
C1355 C1359 1.393 . S
C1356 H1345 0.950 . S
C1356 C1354 1.391 . S
C1356 C1357 1.400 . S
C1357 C1351 1.491 . S
C1357 C1356 1.400 . S
C1357 C1358 1.398 . S
C1358 H1346 0.950 . S
C1358 C1357 1.398 . S
C1358 C1359 1.391 . S
C1359 H1347 0.950 . S
C1359 C1355 1.393 . S
C1359 C1358 1.391 . S
H1360 C1368 0.950 . S
H1361 C1373 0.950 . S
H1362 C1370 0.950 . S
H1363 C1372 0.950 . S
H1364 C1374 0.950 . S
H1365 C1376 0.950 . S
H1366 C1378 0.950 . S
H1367 C1379 0.950 . S
C1368 H1360 0.950 . S
C1368 C1369 1.386 . S
C1368 C1370 1.391 . S
C1369 C1368 1.386 . S
C1369 C1373 1.393 . S
C1370 H1362 0.950 . S
C1370 C1368 1.391 . S
C1370 C1371 1.400 . S
C1371 C1370 1.400 . S
C1371 C1372 1.398 . S
C1371 C1377 1.491 . S
C1372 H1363 0.950 . S
C1372 C1371 1.398 . S
C1372 C1373 1.391 . S
C1373 H1361 0.950 . S
C1373 C1369 1.393 . S
C1373 C1372 1.391 . S
C1374 H1364 0.950 . S
C1374 C1375 1.386 . S
C1374 C1376 1.391 . S
C1375 C1374 1.386 . S
C1375 C1379 1.393 . S
C1376 H1365 0.950 . S
C1376 C1374 1.391 . S
C1376 C1377 1.400 . S
C1377 C1371 1.491 . S
C1377 C1376 1.400 . S
C1377 C1378 1.398 . S
C1378 H1366 0.950 . S
C1378 C1377 1.398 . S
C1378 C1379 1.391 . S
C1379 H1367 0.950 . S
C1379 C1375 1.393 . S
C1379 C1378 1.391 . S
H1380 C1388 0.950 . S
H1381 C1393 0.950 . S
H1382 C1390 0.950 . S
H1383 C1392 0.950 . S
H1384 C1394 0.950 . S
H1385 C1396 0.950 . S
H1386 C1398 0.950 . S
H1387 C1399 0.950 . S
C1388 H1380 0.950 . S
C1388 C1389 1.386 . S
C1388 C1390 1.391 . S
C1389 C1388 1.386 . S
C1389 C1393 1.393 . S
C1390 H1382 0.950 . S
C1390 C1388 1.391 . S
C1390 C1391 1.400 . S
C1391 C1390 1.400 . S
C1391 C1392 1.398 . S
C1391 C1397 1.491 . S
C1392 H1383 0.950 . S
C1392 C1391 1.398 . S
C1392 C1393 1.391 . S
C1393 H1381 0.950 . S
C1393 C1389 1.393 . S
C1393 C1392 1.391 . S
C1394 H1384 0.950 . S
C1394 C1395 1.386 . S
C1394 C1396 1.391 . S
C1395 C1394 1.386 . S
C1395 C1399 1.393 . S
C1396 H1385 0.950 . S
C1396 C1394 1.391 . S
C1396 C1397 1.400 . S
C1397 C1391 1.491 . S
C1397 C1396 1.400 . S
C1397 C1398 1.398 . S
C1398 H1386 0.950 . S
C1398 C1397 1.398 . S
C1398 C1399 1.391 . S
C1399 H1387 0.950 . S
C1399 C1395 1.393 . S
C1399 C1398 1.391 . S
H1400 C1408 0.950 . S
H1401 C1413 0.950 . S
H1402 C1410 0.950 . S
H1403 C1412 0.950 . S
H1404 C1414 0.950 . S
H1405 C1416 0.950 . S
H1406 C1418 0.950 . S
H1407 C1419 0.950 . S
C1408 H1400 0.950 . S
C1408 C1409 1.386 . S
C1408 C1410 1.391 . S
C1409 C1408 1.386 . S
C1409 C1413 1.393 . S
C1410 H1402 0.950 . S
C1410 C1408 1.391 . S
C1410 C1411 1.400 . S
C1411 C1410 1.400 . S
C1411 C1412 1.398 . S
C1411 C1417 1.491 . S
C1412 H1403 0.950 . S
C1412 C1411 1.398 . S
C1412 C1413 1.391 . S
C1413 H1401 0.950 . S
C1413 C1409 1.393 . S
C1413 C1412 1.391 . S
C1414 H1404 0.950 . S
C1414 C1415 1.386 . S
C1414 C1416 1.391 . S
C1415 C1414 1.386 . S
C1415 C1419 1.393 . S
C1416 H1405 0.950 . S
C1416 C1414 1.391 . S
C1416 C1417 1.400 . S
C1417 C1411 1.491 . S
C1417 C1416 1.400 . S
C1417 C1418 1.398 . S
C1418 H1406 0.950 . S
C1418 C1417 1.398 . S
C1418 C1419 1.391 . S
C1419 H1407 0.950 . S
C1419 C1415 1.393 . S
C1419 C1418 1.391 . S
H1420 C1428 0.950 . S
H1421 C1433 0.950 . S
H1422 C1430 0.950 . S
H1423 C1432 0.950 . S
H1424 C1434 0.950 . S
H1425 C1436 0.950 . S
H1426 C1438 0.950 . S
H1427 C1439 0.950 . S
C1428 H1420 0.950 . S
C1428 C1429 1.386 . S
C1428 C1430 1.391 . S
C1429 C1428 1.386 . S
C1429 C1433 1.393 . S
C1430 H1422 0.950 . S
C1430 C1428 1.391 . S
C1430 C1431 1.400 . S
C1431 C1430 1.400 . S
C1431 C1432 1.398 . S
C1431 C1437 1.491 . S
C1432 H1423 0.950 . S
C1432 C1431 1.398 . S
C1432 C1433 1.391 . S
C1433 H1421 0.950 . S
C1433 C1429 1.393 . S
C1433 C1432 1.391 . S
C1434 H1424 0.950 . S
C1434 C1435 1.386 . S
C1434 C1436 1.391 . S
C1435 C1434 1.386 . S
C1435 C1439 1.393 . S
C1436 H1425 0.950 . S
C1436 C1434 1.391 . S
C1436 C1437 1.400 . S
C1437 C1431 1.491 . S
C1437 C1436 1.400 . S
C1437 C1438 1.398 . S
C1438 H1426 0.950 . S
C1438 C1437 1.398 . S
C1438 C1439 1.391 . S
C1439 H1427 0.950 . S
C1439 C1435 1.393 . S
C1439 C1438 1.391 . S
H1440 C1448 0.950 . S
H1441 C1453 0.950 . S
H1442 C1450 0.950 . S
H1443 C1452 0.950 . S
H1444 C1454 0.950 . S
H1445 C1456 0.950 . S
H1446 C1458 0.950 . S
H1447 C1459 0.950 . S
C1448 H1440 0.950 . S
C1448 C1449 1.386 . S
C1448 C1450 1.391 . S
C1449 C1448 1.386 . S
C1449 C1453 1.393 . S
C1450 H1442 0.950 . S
C1450 C1448 1.391 . S
C1450 C1451 1.400 . S
C1451 C1450 1.400 . S
C1451 C1452 1.398 . S
C1451 C1457 1.491 . S
C1452 H1443 0.950 . S
C1452 C1451 1.398 . S
C1452 C1453 1.391 . S
C1453 H1441 0.950 . S
C1453 C1449 1.393 . S
C1453 C1452 1.391 . S
C1454 H1444 0.950 . S
C1454 C1455 1.386 . S
C1454 C1456 1.391 . S
C1455 C1454 1.386 . S
C1455 C1459 1.393 . S
C1456 H1445 0.950 . S
C1456 C1454 1.391 . S
C1456 C1457 1.400 . S
C1457 C1451 1.491 . S
C1457 C1456 1.400 . S
C1457 C1458 1.398 . S
C1458 H1446 0.950 . S
C1458 C1457 1.398 . S
C1458 C1459 1.391 . S
C1459 H1447 0.950 . S
C1459 C1455 1.393 . S
C1459 C1458 1.391 . S
H1460 C1468 0.950 . S
H1461 C1473 0.950 . S
H1462 C1470 0.950 . S
H1463 C1472 0.950 . S
H1464 C1474 0.950 . S
H1465 C1476 0.950 . S
H1466 C1478 0.950 . S
H1467 C1479 0.950 . S
C1468 H1460 0.950 . S
C1468 C1469 1.386 . S
C1468 C1470 1.391 . S
C1469 C1468 1.386 . S
C1469 C1473 1.393 . S
C1470 H1462 0.950 . S
C1470 C1468 1.391 . S
C1470 C1471 1.400 . S
C1471 C1470 1.400 . S
C1471 C1472 1.398 . S
C1471 C1477 1.491 . S
C1472 H1463 0.950 . S
C1472 C1471 1.398 . S
C1472 C1473 1.391 . S
C1473 H1461 0.950 . S
C1473 C1469 1.393 . S
C1473 C1472 1.391 . S
C1474 H1464 0.950 . S
C1474 C1475 1.386 . S
C1474 C1476 1.391 . S
C1475 C1474 1.386 . S
C1475 C1479 1.393 . S
C1476 H1465 0.950 . S
C1476 C1474 1.391 . S
C1476 C1477 1.400 . S
C1477 C1471 1.491 . S
C1477 C1476 1.400 . S
C1477 C1478 1.398 . S
C1478 H1466 0.950 . S
C1478 C1477 1.398 . S
C1478 C1479 1.391 . S
C1479 H1467 0.950 . S
C1479 C1475 1.393 . S
C1479 C1478 1.391 . S
H1480 C1488 0.950 . S
H1481 C1493 0.950 . S
H1482 C1490 0.950 . S
H1483 C1492 0.950 . S
H1484 C1494 0.950 . S
H1485 C1496 0.950 . S
H1486 C1498 0.950 . S
H1487 C1499 0.950 . S
C1488 H1480 0.950 . S
C1488 C1489 1.386 . S
C1488 C1490 1.391 . S
C1489 C1488 1.386 . S
C1489 C1493 1.393 . S
C1490 H1482 0.950 . S
C1490 C1488 1.391 . S
C1490 C1491 1.400 . S
C1491 C1490 1.400 . S
C1491 C1492 1.398 . S
C1491 C1497 1.491 . S
C1492 H1483 0.950 . S
C1492 C1491 1.398 . S
C1492 C1493 1.391 . S
C1493 H1481 0.950 . S
C1493 C1489 1.393 . S
C1493 C1492 1.391 . S
C1494 H1484 0.950 . S
C1494 C1495 1.386 . S
C1494 C1496 1.391 . S
C1495 C1494 1.386 . S
C1495 C1499 1.393 . S
C1496 H1485 0.950 . S
C1496 C1494 1.391 . S
C1496 C1497 1.400 . S
C1497 C1491 1.491 . S
C1497 C1496 1.400 . S
C1497 C1498 1.398 . S
C1498 H1486 0.950 . S
C1498 C1497 1.398 . S
C1498 C1499 1.391 . S
C1499 H1487 0.950 . S
C1499 C1495 1.393 . S
C1499 C1498 1.391 . S
H1500 C1508 0.950 . S
H1501 C1513 0.950 . S
H1502 C1510 0.950 . S
H1503 C1512 0.950 . S
H1504 C1514 0.950 . S
H1505 C1516 0.950 . S
H1506 C1518 0.950 . S
H1507 C1519 0.950 . S
C1508 H1500 0.950 . S
C1508 C1509 1.386 . S
C1508 C1510 1.391 . S
C1509 C1508 1.386 . S
C1509 C1513 1.393 . S
C1510 H1502 0.950 . S
C1510 C1508 1.391 . S
C1510 C1511 1.400 . S
C1511 C1510 1.400 . S
C1511 C1512 1.398 . S
C1511 C1517 1.491 . S
C1512 H1503 0.950 . S
C1512 C1511 1.398 . S
C1512 C1513 1.391 . S
C1513 H1501 0.950 . S
C1513 C1509 1.393 . S
C1513 C1512 1.391 . S
C1514 H1504 0.950 . S
C1514 C1515 1.386 . S
C1514 C1516 1.391 . S
C1515 C1514 1.386 . S
C1515 C1519 1.393 . S
C1516 H1505 0.950 . S
C1516 C1514 1.391 . S
C1516 C1517 1.400 . S
C1517 C1511 1.491 . S
C1517 C1516 1.400 . S
C1517 C1518 1.398 . S
C1518 H1506 0.950 . S
C1518 C1517 1.398 . S
C1518 C1519 1.391 . S
C1519 H1507 0.950 . S
C1519 C1515 1.393 . S
C1519 C1518 1.391 . S
H1520 C1528 0.950 . S
H1521 C1533 0.950 . S
H1522 C1530 0.950 . S
H1523 C1532 0.950 . S
H1524 C1534 0.950 . S
H1525 C1536 0.950 . S
H1526 C1538 0.950 . S
H1527 C1539 0.950 . S
C1528 H1520 0.950 . S
C1528 C1529 1.386 . S
C1528 C1530 1.391 . S
C1529 C1528 1.386 . S
C1529 C1533 1.393 . S
C1530 H1522 0.950 . S
C1530 C1528 1.391 . S
C1530 C1531 1.400 . S
C1531 C1530 1.400 . S
C1531 C1532 1.398 . S
C1531 C1537 1.491 . S
C1532 H1523 0.950 . S
C1532 C1531 1.398 . S
C1532 C1533 1.391 . S
C1533 H1521 0.950 . S
C1533 C1529 1.393 . S
C1533 C1532 1.391 . S
C1534 H1524 0.950 . S
C1534 C1535 1.386 . S
C1534 C1536 1.391 . S
C1535 C1534 1.386 . S
C1535 C1539 1.393 . S
C1536 H1525 0.950 . S
C1536 C1534 1.391 . S
C1536 C1537 1.400 . S
C1537 C1531 1.491 . S
C1537 C1536 1.400 . S
C1537 C1538 1.398 . S
C1538 H1526 0.950 . S
C1538 C1537 1.398 . S
C1538 C1539 1.391 . S
C1539 H1527 0.950 . S
C1539 C1535 1.393 . S
C1539 C1538 1.391 . S
H1540 C1548 0.950 . S
H1541 C1553 0.950 . S
H1542 C1550 0.950 . S
H1543 C1552 0.950 . S
H1544 C1554 0.950 . S
H1545 C1556 0.950 . S
H1546 C1558 0.950 . S
H1547 C1559 0.950 . S
C1548 H1540 0.950 . S
C1548 C1549 1.386 . S
C1548 C1550 1.391 . S
C1549 C1548 1.386 . S
C1549 C1553 1.393 . S
C1550 H1542 0.950 . S
C1550 C1548 1.391 . S
C1550 C1551 1.400 . S
C1551 C1550 1.400 . S
C1551 C1552 1.398 . S
C1551 C1557 1.491 . S
C1552 H1543 0.950 . S
C1552 C1551 1.398 . S
C1552 C1553 1.391 . S
C1553 H1541 0.950 . S
C1553 C1549 1.393 . S
C1553 C1552 1.391 . S
C1554 H1544 0.950 . S
C1554 C1555 1.386 . S
C1554 C1556 1.391 . S
C1555 C1554 1.386 . S
C1555 C1559 1.393 . S
C1556 H1545 0.950 . S
C1556 C1554 1.391 . S
C1556 C1557 1.400 . S
C1557 C1551 1.491 . S
C1557 C1556 1.400 . S
C1557 C1558 1.398 . S
C1558 H1546 0.950 . S
C1558 C1557 1.398 . S
C1558 C1559 1.391 . S
C1559 H1547 0.950 . S
C1559 C1555 1.393 . S
C1559 C1558 1.391 . S
H1560 C1568 0.950 . S
H1561 C1573 0.950 . S
H1562 C1570 0.950 . S
H1563 C1572 0.950 . S
H1564 C1574 0.950 . S
H1565 C1576 0.950 . S
H1566 C1578 0.950 . S
H1567 C1579 0.950 . S
C1568 H1560 0.950 . S
C1568 C1569 1.386 . S
C1568 C1570 1.391 . S
C1569 C1568 1.386 . S
C1569 C1573 1.393 . S
C1570 H1562 0.950 . S
C1570 C1568 1.391 . S
C1570 C1571 1.400 . S
C1571 C1570 1.400 . S
C1571 C1572 1.398 . S
C1571 C1577 1.491 . S
C1572 H1563 0.950 . S
C1572 C1571 1.398 . S
C1572 C1573 1.391 . S
C1573 H1561 0.950 . S
C1573 C1569 1.393 . S
C1573 C1572 1.391 . S
C1574 H1564 0.950 . S
C1574 C1575 1.386 . S
C1574 C1576 1.391 . S
C1575 C1574 1.386 . S
C1575 C1579 1.393 . S
C1576 H1565 0.950 . S
C1576 C1574 1.391 . S
C1576 C1577 1.400 . S
C1577 C1571 1.491 . S
C1577 C1576 1.400 . S
C1577 C1578 1.398 . S
C1578 H1566 0.950 . S
C1578 C1577 1.398 . S
C1578 C1579 1.391 . S
C1579 H1567 0.950 . S
C1579 C1575 1.393 . S
C1579 C1578 1.391 . S
H1580 C1588 0.950 . S
H1581 C1593 0.950 . S
H1582 C1590 0.950 . S
H1583 C1592 0.950 . S
H1584 C1594 0.950 . S
H1585 C1596 0.950 . S
H1586 C1598 0.950 . S
H1587 C1599 0.950 . S
C1588 H1580 0.950 . S
C1588 C1589 1.386 . S
C1588 C1590 1.391 . S
C1589 C1588 1.386 . S
C1589 C1593 1.393 . S
C1590 H1582 0.950 . S
C1590 C1588 1.391 . S
C1590 C1591 1.400 . S
C1591 C1590 1.400 . S
C1591 C1592 1.398 . S
C1591 C1597 1.491 . S
C1592 H1583 0.950 . S
C1592 C1591 1.398 . S
C1592 C1593 1.391 . S
C1593 H1581 0.950 . S
C1593 C1589 1.393 . S
C1593 C1592 1.391 . S
C1594 H1584 0.950 . S
C1594 C1595 1.386 . S
C1594 C1596 1.391 . S
C1595 C1594 1.386 . S
C1595 C1599 1.393 . S
C1596 H1585 0.950 . S
C1596 C1594 1.391 . S
C1596 C1597 1.400 . S
C1597 C1591 1.491 . S
C1597 C1596 1.400 . S
C1597 C1598 1.398 . S
C1598 H1586 0.950 . S
C1598 C1597 1.398 . S
C1598 C1599 1.391 . S
C1599 H1587 0.950 . S
C1599 C1595 1.393 . S
C1599 C1598 1.391 . S
H1600 C1608 0.950 . S
H1601 C1613 0.950 . S
H1602 C1610 0.950 . S
H1603 C1612 0.950 . S
H1604 C1614 0.950 . S
H1605 C1616 0.950 . S
H1606 C1618 0.950 . S
H1607 C1619 0.950 . S
C1608 H1600 0.950 . S
C1608 C1609 1.386 . S
C1608 C1610 1.391 . S
C1609 C1608 1.386 . S
C1609 C1613 1.393 . S
C1610 H1602 0.950 . S
C1610 C1608 1.391 . S
C1610 C1611 1.400 . S
C1611 C1610 1.400 . S
C1611 C1612 1.398 . S
C1611 C1617 1.491 . S
C1612 H1603 0.950 . S
C1612 C1611 1.398 . S
C1612 C1613 1.391 . S
C1613 H1601 0.950 . S
C1613 C1609 1.393 . S
C1613 C1612 1.391 . S
C1614 H1604 0.950 . S
C1614 C1615 1.386 . S
C1614 C1616 1.391 . S
C1615 C1614 1.386 . S
C1615 C1619 1.393 . S
C1616 H1605 0.950 . S
C1616 C1614 1.391 . S
C1616 C1617 1.400 . S
C1617 C1611 1.491 . S
C1617 C1616 1.400 . S
C1617 C1618 1.398 . S
C1618 H1606 0.950 . S
C1618 C1617 1.398 . S
C1618 C1619 1.391 . S
C1619 H1607 0.950 . S
C1619 C1615 1.393 . S
C1619 C1618 1.391 . S
H1620 C1628 0.950 . S
H1621 C1633 0.950 . S
H1622 C1630 0.950 . S
H1623 C1632 0.950 . S
H1624 C1634 0.950 . S
H1625 C1636 0.950 . S
H1626 C1638 0.950 . S
H1627 C1639 0.950 . S
C1628 H1620 0.950 . S
C1628 C1629 1.386 . S
C1628 C1630 1.391 . S
C1629 C1628 1.386 . S
C1629 C1633 1.393 . S
C1630 H1622 0.950 . S
C1630 C1628 1.391 . S
C1630 C1631 1.400 . S
C1631 C1630 1.400 . S
C1631 C1632 1.398 . S
C1631 C1637 1.491 . S
C1632 H1623 0.950 . S
C1632 C1631 1.398 . S
C1632 C1633 1.391 . S
C1633 H1621 0.950 . S
C1633 C1629 1.393 . S
C1633 C1632 1.391 . S
C1634 H1624 0.950 . S
C1634 C1635 1.386 . S
C1634 C1636 1.391 . S
C1635 C1634 1.386 . S
C1635 C1639 1.393 . S
C1636 H1625 0.950 . S
C1636 C1634 1.391 . S
C1636 C1637 1.400 . S
C1637 C1631 1.491 . S
C1637 C1636 1.400 . S
C1637 C1638 1.398 . S
C1638 H1626 0.950 . S
C1638 C1637 1.398 . S
C1638 C1639 1.391 . S
C1639 H1627 0.950 . S
C1639 C1635 1.393 . S
C1639 C1638 1.391 . S
H1640 C1648 0.950 . S
H1641 C1653 0.950 . S
H1642 C1650 0.950 . S
H1643 C1652 0.950 . S
H1644 C1654 0.950 . S
H1645 C1656 0.950 . S
H1646 C1658 0.950 . S
H1647 C1659 0.950 . S
C1648 H1640 0.950 . S
C1648 C1649 1.386 . S
C1648 C1650 1.391 . S
C1649 C1648 1.386 . S
C1649 C1653 1.393 . S
C1650 H1642 0.950 . S
C1650 C1648 1.391 . S
C1650 C1651 1.400 . S
C1651 C1650 1.400 . S
C1651 C1652 1.398 . S
C1651 C1657 1.491 . S
C1652 H1643 0.950 . S
C1652 C1651 1.398 . S
C1652 C1653 1.391 . S
C1653 H1641 0.950 . S
C1653 C1649 1.393 . S
C1653 C1652 1.391 . S
C1654 H1644 0.950 . S
C1654 C1655 1.386 . S
C1654 C1656 1.391 . S
C1655 C1654 1.386 . S
C1655 C1659 1.393 . S
C1656 H1645 0.950 . S
C1656 C1654 1.391 . S
C1656 C1657 1.400 . S
C1657 C1651 1.491 . S
C1657 C1656 1.400 . S
C1657 C1658 1.398 . S
C1658 H1646 0.950 . S
C1658 C1657 1.398 . S
C1658 C1659 1.391 . S
C1659 H1647 0.950 . S
C1659 C1655 1.393 . S
C1659 C1658 1.391 . S
H1660 C1668 0.950 . S
H1661 C1673 0.950 . S
H1662 C1670 0.950 . S
H1663 C1672 0.950 . S
H1664 C1674 0.950 . S
H1665 C1676 0.950 . S
H1666 C1678 0.950 . S
H1667 C1679 0.950 . S
C1668 H1660 0.950 . S
C1668 C1669 1.386 . S
C1668 C1670 1.391 . S
C1669 C1668 1.386 . S
C1669 C1673 1.393 . S
C1670 H1662 0.950 . S
C1670 C1668 1.391 . S
C1670 C1671 1.400 . S
C1671 C1670 1.400 . S
C1671 C1672 1.398 . S
C1671 C1677 1.491 . S
C1672 H1663 0.950 . S
C1672 C1671 1.398 . S
C1672 C1673 1.391 . S
C1673 H1661 0.950 . S
C1673 C1669 1.393 . S
C1673 C1672 1.391 . S
C1674 H1664 0.950 . S
C1674 C1675 1.386 . S
C1674 C1676 1.391 . S
C1675 C1674 1.386 . S
C1675 C1679 1.393 . S
C1676 H1665 0.950 . S
C1676 C1674 1.391 . S
C1676 C1677 1.400 . S
C1677 C1671 1.491 . S
C1677 C1676 1.400 . S
C1677 C1678 1.398 . S
C1678 H1666 0.950 . S
C1678 C1677 1.398 . S
C1678 C1679 1.391 . S
C1679 H1667 0.950 . S
C1679 C1675 1.393 . S
C1679 C1678 1.391 . S
H1680 C1688 0.950 . S
H1681 C1693 0.950 . S
H1682 C1690 0.950 . S
H1683 C1692 0.950 . S
H1684 C1694 0.950 . S
H1685 C1696 0.950 . S
H1686 C1698 0.950 . S
H1687 C1699 0.950 . S
C1688 H1680 0.950 . S
C1688 C1689 1.386 . S
C1688 C1690 1.391 . S
C1689 C1688 1.386 . S
C1689 C1693 1.393 . S
C1690 H1682 0.950 . S
C1690 C1688 1.391 . S
C1690 C1691 1.400 . S
C1691 C1690 1.400 . S
C1691 C1692 1.398 . S
C1691 C1697 1.491 . S
C1692 H1683 0.950 . S
C1692 C1691 1.398 . S
C1692 C1693 1.391 . S
C1693 H1681 0.950 . S
C1693 C1689 1.393 . S
C1693 C1692 1.391 . S
C1694 H1684 0.950 . S
C1694 C1695 1.386 . S
C1694 C1696 1.391 . S
C1695 C1694 1.386 . S
C1695 C1699 1.393 . S
C1696 H1685 0.950 . S
C1696 C1694 1.391 . S
C1696 C1697 1.400 . S
C1697 C1691 1.491 . S
C1697 C1696 1.400 . S
C1697 C1698 1.398 . S
C1698 H1686 0.950 . S
C1698 C1697 1.398 . S
C1698 C1699 1.391 . S
C1699 H1687 0.950 . S
C1699 C1695 1.393 . S
C1699 C1698 1.391 . S
H1700 C1708 0.950 . S
H1701 C1713 0.950 . S
H1702 C1710 0.950 . S
H1703 C1712 0.950 . S
H1704 C1714 0.950 . S
H1705 C1716 0.950 . S
H1706 C1718 0.950 . S
H1707 C1719 0.950 . S
C1708 H1700 0.950 . S
C1708 C1709 1.386 . S
C1708 C1710 1.391 . S
C1709 C1708 1.386 . S
C1709 C1713 1.393 . S
C1710 H1702 0.950 . S
C1710 C1708 1.391 . S
C1710 C1711 1.400 . S
C1711 C1710 1.400 . S
C1711 C1712 1.398 . S
C1711 C1717 1.491 . S
C1712 H1703 0.950 . S
C1712 C1711 1.398 . S
C1712 C1713 1.391 . S
C1713 H1701 0.950 . S
C1713 C1709 1.393 . S
C1713 C1712 1.391 . S
C1714 H1704 0.950 . S
C1714 C1715 1.386 . S
C1714 C1716 1.391 . S
C1715 C1714 1.386 . S
C1715 C1719 1.393 . S
C1716 H1705 0.950 . S
C1716 C1714 1.391 . S
C1716 C1717 1.400 . S
C1717 C1711 1.491 . S
C1717 C1716 1.400 . S
C1717 C1718 1.398 . S
C1718 H1706 0.950 . S
C1718 C1717 1.398 . S
C1718 C1719 1.391 . S
C1719 H1707 0.950 . S
C1719 C1715 1.393 . S
C1719 C1718 1.391 . S
H1720 C1728 0.950 . S
H1721 C1733 0.950 . S
H1722 C1730 0.950 . S
H1723 C1732 0.950 . S
H1724 C1734 0.950 . S
H1725 C1736 0.950 . S
H1726 C1738 0.950 . S
H1727 C1739 0.950 . S
C1728 H1720 0.950 . S
C1728 C1729 1.386 . S
C1728 C1730 1.391 . S
C1729 C1728 1.386 . S
C1729 C1733 1.393 . S
C1730 H1722 0.950 . S
C1730 C1728 1.391 . S
C1730 C1731 1.400 . S
C1731 C1730 1.400 . S
C1731 C1732 1.398 . S
C1731 C1737 1.491 . S
C1732 H1723 0.950 . S
C1732 C1731 1.398 . S
C1732 C1733 1.391 . S
C1733 H1721 0.950 . S
C1733 C1729 1.393 . S
C1733 C1732 1.391 . S
C1734 H1724 0.950 . S
C1734 C1735 1.386 . S
C1734 C1736 1.391 . S
C1735 C1734 1.386 . S
C1735 C1739 1.393 . S
C1736 H1725 0.950 . S
C1736 C1734 1.391 . S
C1736 C1737 1.400 . S
C1737 C1731 1.491 . S
C1737 C1736 1.400 . S
C1737 C1738 1.398 . S
C1738 H1726 0.950 . S
C1738 C1737 1.398 . S
C1738 C1739 1.391 . S
C1739 H1727 0.950 . S
C1739 C1735 1.393 . S
C1739 C1738 1.391 . S
H1740 C1748 0.950 . S
H1741 C1753 0.950 . S
H1742 C1750 0.950 . S
H1743 C1752 0.950 . S
H1744 C1754 0.950 . S
H1745 C1756 0.950 . S
H1746 C1758 0.950 . S
H1747 C1759 0.950 . S
C1748 H1740 0.950 . S
C1748 C1749 1.386 . S
C1748 C1750 1.391 . S
C1749 C1748 1.386 . S
C1749 C1753 1.393 . S
C1750 H1742 0.950 . S
C1750 C1748 1.391 . S
C1750 C1751 1.400 . S
C1751 C1750 1.400 . S
C1751 C1752 1.398 . S
C1751 C1757 1.491 . S
C1752 H1743 0.950 . S
C1752 C1751 1.398 . S
C1752 C1753 1.391 . S
C1753 H1741 0.950 . S
C1753 C1749 1.393 . S
C1753 C1752 1.391 . S
C1754 H1744 0.950 . S
C1754 C1755 1.386 . S
C1754 C1756 1.391 . S
C1755 C1754 1.386 . S
C1755 C1759 1.393 . S
C1756 H1745 0.950 . S
C1756 C1754 1.391 . S
C1756 C1757 1.400 . S
C1757 C1751 1.491 . S
C1757 C1756 1.400 . S
C1757 C1758 1.398 . S
C1758 H1746 0.950 . S
C1758 C1757 1.398 . S
C1758 C1759 1.391 . S
C1759 H1747 0.950 . S
C1759 C1755 1.393 . S
C1759 C1758 1.391 . S
H1760 C1768 0.950 . S
H1761 C1773 0.950 . S
H1762 C1770 0.950 . S
H1763 C1772 0.950 . S
H1764 C1774 0.944 1_545 S
H1765 C1776 0.958 . S
H1766 C1778 0.950 . S
H1767 C1779 0.950 . S
C1768 H1760 0.950 . S
C1768 C1769 1.386 1_565 S
C1768 C1770 1.391 . S
C1769 C1768 1.386 1_545 S
C1769 C1773 1.393 . S
C1770 H1762 0.950 . S
C1770 C1768 1.391 . S
C1770 C1771 1.408 . S
C1771 C1770 1.408 . S
C1771 C1772 1.389 1_565 S
C1771 C1777 1.495 . S
C1772 H1763 0.950 . S
C1772 C1771 1.389 1_545 S
C1772 C1773 1.391 . S
C1773 H1761 0.950 . S
C1773 C1769 1.393 . S
C1773 C1772 1.391 . S
C1774 H1764 0.944 1_565 S
C1774 C1775 1.386 . S
C1774 C1776 1.388 1_565 S
C1775 C1774 1.386 . S
C1775 C1779 1.393 . S
C1776 H1765 0.958 . S
C1776 C1774 1.388 1_545 S
C1776 C1777 1.396 1_545 S
C1777 C1771 1.495 . S
C1777 C1776 1.396 1_565 S
C1777 C1778 1.398 . S
C1778 H1766 0.950 . S
C1778 C1777 1.398 . S
C1778 C1779 1.391 . S
C1779 H1767 0.950 . S
C1779 C1775 1.393 . S
C1779 C1778 1.391 . S
H1780 C1788 0.950 . S
H1781 C1793 0.950 . S
H1782 C1790 0.950 . S
H1783 C1792 0.950 . S
H1784 C1794 0.950 . S
H1785 C1796 0.950 . S
H1786 C1798 0.950 . S
H1787 C1799 0.950 . S
C1788 H1780 0.950 . S
C1788 C1789 1.386 . S
C1788 C1790 1.391 . S
C1789 C1788 1.386 . S
C1789 C1793 1.393 . S
C1790 H1782 0.950 . S
C1790 C1788 1.391 . S
C1790 C1791 1.400 . S
C1791 C1790 1.400 . S
C1791 C1792 1.398 . S
C1791 C1797 1.491 . S
C1792 H1783 0.950 . S
C1792 C1791 1.398 . S
C1792 C1793 1.391 . S
C1793 H1781 0.950 . S
C1793 C1789 1.393 . S
C1793 C1792 1.391 . S
C1794 H1784 0.950 . S
C1794 C1795 1.386 . S
C1794 C1796 1.391 . S
C1795 C1794 1.386 . S
C1795 C1799 1.393 . S
C1796 H1785 0.950 . S
C1796 C1794 1.391 . S
C1796 C1797 1.400 . S
C1797 C1791 1.491 . S
C1797 C1796 1.400 . S
C1797 C1798 1.398 . S
C1798 H1786 0.950 . S
C1798 C1797 1.398 . S
C1798 C1799 1.391 . S
C1799 H1787 0.950 . S
C1799 C1795 1.393 . S
C1799 C1798 1.391 . S
H1800 C1808 0.950 . S
H1801 C1813 0.950 . S
H1802 C1810 0.950 . S
H1803 C1812 0.950 . S
H1804 C1814 0.950 . S
H1805 C1816 0.950 . S
H1806 C1818 0.950 . S
H1807 C1819 0.950 . S
C1808 H1800 0.950 . S
C1808 C1809 1.386 . S
C1808 C1810 1.391 . S
C1809 C1808 1.386 . S
C1809 C1813 1.393 . S
C1810 H1802 0.950 . S
C1810 C1808 1.391 . S
C1810 C1811 1.400 . S
C1811 C1810 1.400 . S
C1811 C1812 1.398 . S
C1811 C1817 1.491 . S
C1812 H1803 0.950 . S
C1812 C1811 1.398 . S
C1812 C1813 1.391 . S
C1813 H1801 0.950 . S
C1813 C1809 1.393 . S
C1813 C1812 1.391 . S
C1814 H1804 0.950 . S
C1814 C1815 1.386 . S
C1814 C1816 1.391 . S
C1815 C1814 1.386 . S
C1815 C1819 1.393 . S
C1816 H1805 0.950 . S
C1816 C1814 1.391 . S
C1816 C1817 1.400 . S
C1817 C1811 1.491 . S
C1817 C1816 1.400 . S
C1817 C1818 1.398 . S
C1818 H1806 0.950 . S
C1818 C1817 1.398 . S
C1818 C1819 1.391 . S
C1819 H1807 0.950 . S
C1819 C1815 1.393 . S
C1819 C1818 1.391 . S
H1820 C1828 0.950 . S
H1821 C1833 0.950 . S
H1822 C1830 0.950 . S
H1823 C1832 0.950 . S
H1824 C1834 0.950 . S
H1825 C1836 0.950 . S
H1826 C1838 0.950 . S
H1827 C1839 0.950 . S
C1828 H1820 0.950 . S
C1828 C1829 1.386 1_565 S
C1828 C1830 1.391 . S
C1829 C1828 1.386 1_545 S
C1829 C1833 1.393 . S
C1830 H1822 0.950 . S
C1830 C1828 1.391 . S
C1830 C1831 1.416 . S
C1831 C1830 1.416 . S
C1831 C1832 1.379 1_565 S
C1831 C1837 1.495 . S
C1832 H1823 0.950 . S
C1832 C1831 1.379 1_545 S
C1832 C1833 1.391 . S
C1833 H1821 0.950 . S
C1833 C1829 1.393 . S
C1833 C1832 1.391 . S
C1834 H1824 0.950 . S
C1834 C1835 1.386 1_545 S
C1834 C1836 1.391 . S
C1835 C1834 1.386 1_565 S
C1835 C1839 1.393 . S
C1836 H1825 0.950 . S
C1836 C1834 1.391 . S
C1836 C1837 1.400 1_545 S
C1837 C1831 1.495 . S
C1837 C1836 1.400 1_565 S
C1837 C1838 1.398 . S
C1838 H1826 0.950 . S
C1838 C1837 1.398 . S
C1838 C1839 1.391 . S
C1839 H1827 0.950 . S
C1839 C1835 1.393 . S
C1839 C1838 1.391 . S
H1840 C1848 0.950 . S
H1841 C1853 0.950 . S
H1842 C1850 0.950 . S
H1843 C1852 0.950 . S
H1844 C1854 0.950 . S
H1845 C1856 0.950 . S
H1846 C1858 0.950 . S
H1847 C1859 0.950 . S
C1848 H1840 0.950 . S
C1848 C1849 1.386 1_545 S
C1848 C1850 1.391 . S
C1849 C1848 1.386 1_565 S
C1849 C1853 1.393 . S
C1850 H1842 0.950 . S
C1850 C1848 1.391 . S
C1850 C1851 1.417 . S
C1851 C1850 1.417 . S
C1851 C1852 1.379 1_545 S
C1851 C1857 1.493 . S
C1852 H1843 0.950 . S
C1852 C1851 1.379 1_565 S
C1852 C1853 1.391 . S
C1853 H1841 0.950 . S
C1853 C1849 1.393 . S
C1853 C1852 1.391 . S
C1854 H1844 0.950 . S
C1854 C1855 1.386 1_565 S
C1854 C1856 1.391 . S
C1855 C1854 1.386 1_545 S
C1855 C1859 1.393 . S
C1856 H1845 0.950 . S
C1856 C1854 1.391 . S
C1856 C1857 1.400 1_565 S
C1857 C1851 1.493 . S
C1857 C1856 1.400 1_545 S
C1857 C1858 1.398 . S
C1858 H1846 0.950 . S
C1858 C1857 1.398 . S
C1858 C1859 1.391 . S
C1859 H1847 0.950 . S
C1859 C1855 1.393 . S
C1859 C1858 1.391 . S
H1860 C1868 0.950 . S
H1861 C1873 0.950 . S
H1862 C1870 0.950 . S
H1863 C1872 0.950 . S
H1864 C1874 0.950 . S
H1865 C1876 0.950 . S
H1866 C1878 0.950 . S
H1867 C1879 0.950 . S
C1868 H1860 0.950 . S
C1868 C1869 1.386 . S
C1868 C1870 1.391 . S
C1869 C1868 1.386 . S
C1869 C1873 1.393 . S
C1870 H1862 0.950 . S
C1870 C1868 1.391 . S
C1870 C1871 1.400 . S
C1871 C1870 1.400 . S
C1871 C1872 1.398 . S
C1871 C1877 1.491 . S
C1872 H1863 0.950 . S
C1872 C1871 1.398 . S
C1872 C1873 1.391 . S
C1873 H1861 0.950 . S
C1873 C1869 1.393 . S
C1873 C1872 1.391 . S
C1874 H1864 0.950 . S
C1874 C1875 1.386 . S
C1874 C1876 1.391 . S
C1875 C1874 1.386 . S
C1875 C1879 1.393 . S
C1876 H1865 0.950 . S
C1876 C1874 1.391 . S
C1876 C1877 1.400 . S
C1877 C1871 1.491 . S
C1877 C1876 1.400 . S
C1877 C1878 1.398 . S
C1878 H1866 0.950 . S
C1878 C1877 1.398 . S
C1878 C1879 1.391 . S
C1879 H1867 0.950 . S
C1879 C1875 1.393 . S
C1879 C1878 1.391 . S
H1880 C1888 0.950 . S
H1881 C1893 0.950 . S
H1882 C1890 0.950 . S
H1883 C1892 0.950 . S
H1884 C1894 0.950 . S
H1885 C1896 0.950 . S
H1886 C1898 0.950 . S
H1887 C1899 0.950 . S
C1888 H1880 0.950 . S
C1888 C1889 1.386 . S
C1888 C1890 1.391 . S
C1889 C1888 1.386 . S
C1889 C1893 1.393 . S
C1890 H1882 0.950 . S
C1890 C1888 1.391 . S
C1890 C1891 1.400 . S
C1891 C1890 1.400 . S
C1891 C1892 1.398 . S
C1891 C1897 1.491 . S
C1892 H1883 0.950 . S
C1892 C1891 1.398 . S
C1892 C1893 1.391 . S
C1893 H1881 0.950 . S
C1893 C1889 1.393 . S
C1893 C1892 1.391 . S
C1894 H1884 0.950 . S
C1894 C1895 1.386 . S
C1894 C1896 1.391 . S
C1895 C1894 1.386 . S
C1895 C1899 1.393 . S
C1896 H1885 0.950 . S
C1896 C1894 1.391 . S
C1896 C1897 1.400 . S
C1897 C1891 1.491 . S
C1897 C1896 1.400 . S
C1897 C1898 1.398 . S
C1898 H1886 0.950 . S
C1898 C1897 1.398 . S
C1898 C1899 1.391 . S
C1899 H1887 0.950 . S
C1899 C1895 1.393 . S
C1899 C1898 1.391 . S
H1900 C1908 0.950 . S
H1901 C1913 0.950 . S
H1902 C1910 0.950 . S
H1903 C1912 0.950 . S
H1904 C1914 0.950 . S
H1905 C1916 0.950 . S
H1906 C1918 0.950 . S
H1907 C1919 0.950 . S
C1908 H1900 0.950 . S
C1908 C1909 1.386 1_545 S
C1908 C1910 1.391 . S
C1909 C1908 1.386 1_565 S
C1909 C1913 1.393 . S
C1910 H1902 0.950 . S
C1910 C1908 1.391 . S
C1910 C1911 1.400 . S
C1911 C1910 1.400 . S
C1911 C1912 1.398 1_545 S
C1911 C1917 1.491 . S
C1912 H1903 0.950 . S
C1912 C1911 1.398 1_565 S
C1912 C1913 1.391 . S
C1913 H1901 0.950 . S
C1913 C1909 1.393 . S
C1913 C1912 1.391 . S
C1914 H1904 0.950 . S
C1914 C1915 1.386 1_565 S
C1914 C1916 1.391 . S
C1915 C1914 1.386 1_545 S
C1915 C1919 1.393 . S
C1916 H1905 0.950 . S
C1916 C1914 1.391 . S
C1916 C1917 1.400 1_565 S
C1917 C1911 1.491 . S
C1917 C1916 1.400 1_545 S
C1917 C1918 1.398 . S
C1918 H1906 0.950 . S
C1918 C1917 1.398 . S
C1918 C1919 1.391 . S
C1919 H1907 0.950 . S
C1919 C1915 1.393 . S
C1919 C1918 1.391 . S
H1920 C1928 0.950 . S
H1921 C1933 0.950 . S
H1922 C1930 0.950 . S
H1923 C1932 0.950 . S
H1924 C1934 0.950 . S
H1925 C1936 0.950 . S
H1926 C1938 0.950 . S
H1927 C1939 0.950 . S
C1928 H1920 0.950 . S
C1928 C1929 1.386 . S
C1928 C1930 1.391 . S
C1929 C1928 1.386 . S
C1929 C1933 1.393 . S
C1930 H1922 0.950 . S
C1930 C1928 1.391 . S
C1930 C1931 1.400 . S
C1931 C1930 1.400 . S
C1931 C1932 1.398 . S
C1931 C1937 1.491 1_455 S
C1932 H1923 0.950 . S
C1932 C1931 1.398 . S
C1932 C1933 1.391 . S
C1933 H1921 0.950 . S
C1933 C1929 1.393 . S
C1933 C1932 1.391 . S
C1934 H1924 0.950 . S
C1934 C1935 1.386 . S
C1934 C1936 1.391 . S
C1935 C1934 1.386 . S
C1935 C1939 1.393 . S
C1936 H1925 0.950 . S
C1936 C1934 1.391 . S
C1936 C1937 1.400 . S
C1937 C1931 1.491 1_655 S
C1937 C1936 1.400 . S
C1937 C1938 1.398 . S
C1938 H1926 0.950 . S
C1938 C1937 1.398 . S
C1938 C1939 1.391 . S
C1939 H1927 0.950 . S
C1939 C1935 1.393 . S
C1939 C1938 1.391 . S
H1940 C1948 0.950 . S
H1941 C1953 0.950 . S
H1942 C1950 0.950 . S
H1943 C1952 0.950 . S
H1944 C1954 0.950 . S
H1945 C1956 0.950 . S
H1946 C1958 0.950 . S
H1947 C1959 0.950 . S
C1948 H1940 0.950 . S
C1948 C1949 1.386 . S
C1948 C1950 1.391 . S
C1949 C1948 1.386 . S
C1949 C1953 1.393 . S
C1950 H1942 0.950 . S
C1950 C1948 1.391 . S
C1950 C1951 1.400 . S
C1951 C1950 1.400 . S
C1951 C1952 1.398 . S
C1951 C1957 1.491 . S
C1952 H1943 0.950 . S
C1952 C1951 1.398 . S
C1952 C1953 1.391 . S
C1953 H1941 0.950 . S
C1953 C1949 1.393 . S
C1953 C1952 1.391 . S
C1954 H1944 0.950 . S
C1954 C1955 1.386 . S
C1954 C1956 1.391 . S
C1955 C1954 1.386 . S
C1955 C1959 1.393 . S
C1956 H1945 0.950 . S
C1956 C1954 1.391 . S
C1956 C1957 1.400 . S
C1957 C1951 1.491 . S
C1957 C1956 1.400 . S
C1957 C1958 1.398 . S
C1958 H1946 0.950 . S
C1958 C1957 1.398 . S
C1958 C1959 1.391 . S
C1959 H1947 0.950 . S
C1959 C1955 1.393 . S
C1959 C1958 1.391 . S
H1960 C1968 0.950 . S
H1961 C1973 0.950 . S
H1962 C1970 0.950 . S
H1963 C1972 0.950 . S
H1964 C1974 0.950 . S
H1965 C1976 0.950 . S
H1966 C1978 0.950 . S
H1967 C1979 0.950 . S
C1968 H1960 0.950 . S
C1968 C1969 1.386 . S
C1968 C1970 1.391 . S
C1969 C1968 1.386 . S
C1969 C1973 1.393 . S
C1970 H1962 0.950 . S
C1970 C1968 1.391 . S
C1970 C1971 1.400 . S
C1971 C1970 1.400 . S
C1971 C1972 1.398 . S
C1971 C1977 1.491 1_655 S
C1972 H1963 0.950 . S
C1972 C1971 1.398 . S
C1972 C1973 1.391 . S
C1973 H1961 0.950 . S
C1973 C1969 1.393 . S
C1973 C1972 1.391 . S
C1974 H1964 0.950 . S
C1974 C1975 1.386 . S
C1974 C1976 1.391 . S
C1975 C1974 1.386 . S
C1975 C1979 1.393 . S
C1976 H1965 0.950 . S
C1976 C1974 1.391 . S
C1976 C1977 1.400 . S
C1977 C1971 1.491 1_455 S
C1977 C1976 1.400 . S
C1977 C1978 1.398 . S
C1978 H1966 0.950 . S
C1978 C1977 1.398 . S
C1978 C1979 1.391 . S
C1979 H1967 0.950 . S
C1979 C1975 1.393 . S
C1979 C1978 1.391 . S
H1980 C1988 0.950 . S
H1981 C1993 0.950 . S
H1982 C1990 0.950 . S
H1983 C1992 0.950 . S
H1984 C1994 0.950 . S
H1985 C1996 0.950 . S
H1986 C1998 0.950 . S
H1987 C1999 0.950 . S
C1988 H1980 0.950 . S
C1988 C1989 1.386 . S
C1988 C1990 1.391 . S
C1989 C1988 1.386 . S
C1989 C1993 1.393 . S
C1990 H1982 0.950 . S
C1990 C1988 1.391 . S
C1990 C1991 1.400 . S
C1991 C1990 1.400 . S
C1991 C1992 1.398 . S
C1991 C1997 1.491 . S
C1992 H1983 0.950 . S
C1992 C1991 1.398 . S
C1992 C1993 1.391 . S
C1993 H1981 0.950 . S
C1993 C1989 1.393 . S
C1993 C1992 1.391 . S
C1994 H1984 0.950 . S
C1994 C1995 1.386 . S
C1994 C1996 1.391 . S
C1995 C1994 1.386 . S
C1995 C1999 1.393 . S
C1996 H1985 0.950 . S
C1996 C1994 1.391 . S
C1996 C1997 1.400 . S
C1997 C1991 1.491 . S
C1997 C1996 1.400 . S
C1997 C1998 1.398 . S
C1998 H1986 0.950 . S
C1998 C1997 1.398 . S
C1998 C1999 1.391 . S
C1999 H1987 0.950 . S
C1999 C1995 1.393 . S
C1999 C1998 1.391 . S
H2000 C2008 0.950 . S
H2001 C2013 0.950 . S
H2002 C2010 0.950 . S
H2003 C2012 0.950 . S
H2004 C2014 0.950 . S
H2005 C2016 0.950 . S
H2006 C2018 0.950 . S
H2007 C2019 0.950 . S
C2008 H2000 0.950 . S
C2008 C2009 1.386 . S
C2008 C2010 1.391 . S
C2009 C2008 1.386 . S
C2009 C2013 1.393 . S
C2010 H2002 0.950 . S
C2010 C2008 1.391 . S
C2010 C2011 1.400 . S
C2011 C2010 1.400 . S
C2011 C2012 1.398 . S
C2011 C2017 1.491 1_655 S
C2012 H2003 0.950 . S
C2012 C2011 1.398 . S
C2012 C2013 1.391 . S
C2013 H2001 0.950 . S
C2013 C2009 1.393 . S
C2013 C2012 1.391 . S
C2014 H2004 0.950 . S
C2014 C2015 1.386 . S
C2014 C2016 1.391 . S
C2015 C2014 1.386 . S
C2015 C2019 1.393 . S
C2016 H2005 0.950 . S
C2016 C2014 1.391 . S
C2016 C2017 1.400 . S
C2017 C2011 1.491 1_455 S
C2017 C2016 1.400 . S
C2017 C2018 1.398 . S
C2018 H2006 0.950 . S
C2018 C2017 1.398 . S
C2018 C2019 1.391 . S
C2019 H2007 0.950 . S
C2019 C2015 1.393 . S
C2019 C2018 1.391 . S
H2020 C2028 0.950 . S
H2021 C2033 0.950 . S
H2022 C2030 0.950 . S
H2023 C2032 0.950 . S
H2024 C2034 0.950 . S
H2025 C2036 0.950 . S
H2026 C2038 0.950 . S
H2027 C2039 0.950 . S
C2028 H2020 0.950 . S
C2028 C2029 1.386 . S
C2028 C2030 1.391 . S
C2029 C2028 1.386 . S
C2029 C2033 1.393 . S
C2030 H2022 0.950 . S
C2030 C2028 1.391 . S
C2030 C2031 1.400 . S
C2031 C2030 1.400 . S
C2031 C2032 1.398 . S
C2031 C2037 1.491 . S
C2032 H2023 0.950 . S
C2032 C2031 1.398 . S
C2032 C2033 1.391 . S
C2033 H2021 0.950 . S
C2033 C2029 1.393 . S
C2033 C2032 1.391 . S
C2034 H2024 0.950 . S
C2034 C2035 1.386 . S
C2034 C2036 1.391 . S
C2035 C2034 1.386 . S
C2035 C2039 1.393 . S
C2036 H2025 0.950 . S
C2036 C2034 1.391 . S
C2036 C2037 1.400 . S
C2037 C2031 1.491 . S
C2037 C2036 1.400 . S
C2037 C2038 1.398 . S
C2038 H2026 0.950 . S
C2038 C2037 1.398 . S
C2038 C2039 1.391 . S
C2039 H2027 0.950 . S
C2039 C2035 1.393 . S
C2039 C2038 1.391 . S
H2040 C2048 0.950 . S
H2041 C2053 0.950 . S
H2042 C2050 0.950 . S
H2043 C2052 0.950 . S
H2044 C2054 0.950 . S
H2045 C2056 0.950 . S
H2046 C2058 0.950 . S
H2047 C2059 0.950 . S
C2048 H2040 0.950 . S
C2048 C2049 1.386 . S
C2048 C2050 1.391 . S
C2049 C2048 1.386 . S
C2049 C2053 1.393 . S
C2050 H2042 0.950 . S
C2050 C2048 1.391 . S
C2050 C2051 1.400 . S
C2051 C2050 1.400 . S
C2051 C2052 1.398 . S
C2051 C2057 1.491 1_455 S
C2052 H2043 0.950 . S
C2052 C2051 1.398 . S
C2052 C2053 1.391 . S
C2053 H2041 0.950 . S
C2053 C2049 1.393 . S
C2053 C2052 1.391 . S
C2054 H2044 0.950 . S
C2054 C2055 1.386 . S
C2054 C2056 1.391 . S
C2055 C2054 1.386 . S
C2055 C2059 1.393 . S
C2056 H2045 0.950 . S
C2056 C2054 1.391 . S
C2056 C2057 1.400 . S
C2057 C2051 1.491 1_655 S
C2057 C2056 1.400 . S
C2057 C2058 1.398 . S
C2058 H2046 0.950 . S
C2058 C2057 1.398 . S
C2058 C2059 1.391 . S
C2059 H2047 0.950 . S
C2059 C2055 1.393 . S
C2059 C2058 1.391 . S
H2060 C2068 0.950 . S
H2061 C2073 0.950 . S
H2062 C2070 0.950 . S
H2063 C2072 0.950 . S
H2064 C2074 0.950 . S
H2065 C2076 0.950 . S
H2066 C2078 0.950 . S
H2067 C2079 0.950 . S
C2068 H2060 0.950 . S
C2068 C2069 1.386 . S
C2068 C2070 1.391 . S
C2069 C2068 1.386 . S
C2069 C2073 1.393 . S
C2070 H2062 0.950 . S
C2070 C2068 1.391 . S
C2070 C2071 1.400 . S
C2071 C2070 1.400 . S
C2071 C2072 1.398 . S
C2071 C2077 1.491 . S
C2072 H2063 0.950 . S
C2072 C2071 1.398 . S
C2072 C2073 1.391 . S
C2073 H2061 0.950 . S
C2073 C2069 1.393 . S
C2073 C2072 1.391 . S
C2074 H2064 0.950 . S
C2074 C2075 1.386 . S
C2074 C2076 1.391 . S
C2075 C2074 1.386 . S
C2075 C2079 1.393 . S
C2076 H2065 0.950 . S
C2076 C2074 1.391 . S
C2076 C2077 1.400 . S
C2077 C2071 1.491 . S
C2077 C2076 1.400 . S
C2077 C2078 1.398 . S
C2078 H2066 0.950 . S
C2078 C2077 1.398 . S
C2078 C2079 1.391 . S
C2079 H2067 0.950 . S
C2079 C2075 1.393 . S
C2079 C2078 1.391 . S
H2080 C2088 0.950 . S
H2081 C2093 0.950 . S
H2082 C2090 0.950 . S
H2083 C2092 0.950 . S
H2084 C2094 0.950 . S
H2085 C2096 0.950 . S
H2086 C2098 0.950 . S
H2087 C2099 0.950 . S
C2088 H2080 0.950 . S
C2088 C2089 1.386 1_565 S
C2088 C2090 1.391 . S
C2089 C2088 1.386 1_545 S
C2089 C2093 1.393 . S
C2090 H2082 0.950 . S
C2090 C2088 1.391 . S
C2090 C2091 1.421 . S
C2091 C2090 1.421 . S
C2091 C2092 1.375 1_565 S
C2091 C2097 1.494 1_655 S
C2092 H2083 0.950 . S
C2092 C2091 1.375 1_545 S
C2092 C2093 1.391 . S
C2093 H2081 0.950 . S
C2093 C2089 1.393 . S
C2093 C2092 1.391 . S
C2094 H2084 0.950 . S
C2094 C2095 1.386 1_545 S
C2094 C2096 1.391 . S
C2095 C2094 1.386 1_565 S
C2095 C2099 1.393 . S
C2096 H2085 0.950 . S
C2096 C2094 1.391 . S
C2096 C2097 1.400 1_545 S
C2097 C2091 1.494 1_455 S
C2097 C2096 1.400 1_565 S
C2097 C2098 1.398 . S
C2098 H2086 0.950 . S
C2098 C2097 1.398 . S
C2098 C2099 1.391 . S
C2099 H2087 0.950 . S
C2099 C2095 1.393 . S
C2099 C2098 1.391 . S
H2100 C2108 0.950 . S
H2101 C2113 0.950 . S
H2102 C2110 0.950 . S
H2103 C2112 0.950 . S
H2104 C2114 0.950 . S
H2105 C2116 0.950 . S
H2106 C2118 0.950 . S
H2107 C2119 0.950 . S
C2108 H2100 0.950 . S
C2108 C2109 1.386 . S
C2108 C2110 1.391 . S
C2109 C2108 1.386 . S
C2109 C2113 1.393 . S
C2110 H2102 0.950 . S
C2110 C2108 1.391 . S
C2110 C2111 1.400 . S
C2111 C2110 1.400 . S
C2111 C2112 1.398 . S
C2111 C2117 1.491 . S
C2112 H2103 0.950 . S
C2112 C2111 1.398 . S
C2112 C2113 1.391 . S
C2113 H2101 0.950 . S
C2113 C2109 1.393 . S
C2113 C2112 1.391 . S
C2114 H2104 0.950 . S
C2114 C2115 1.386 . S
C2114 C2116 1.391 . S
C2115 C2114 1.386 . S
C2115 C2119 1.393 . S
C2116 H2105 0.950 . S
C2116 C2114 1.391 . S
C2116 C2117 1.400 . S
C2117 C2111 1.491 . S
C2117 C2116 1.400 . S
C2117 C2118 1.398 . S
C2118 H2106 0.950 . S
C2118 C2117 1.398 . S
C2118 C2119 1.391 . S
C2119 H2107 0.950 . S
C2119 C2115 1.393 . S
C2119 C2118 1.391 . S
H2120 C2128 0.950 . S
H2121 C2133 0.950 . S
H2122 C2130 0.950 . S
H2123 C2132 0.950 . S
H2124 C2134 0.950 . S
H2125 C2136 0.950 . S
H2126 C2138 0.950 . S
H2127 C2139 0.950 . S
C2128 H2120 0.950 . S
C2128 C2129 1.386 . S
C2128 C2130 1.391 . S
C2129 C2128 1.386 . S
C2129 C2133 1.393 . S
C2130 H2122 0.950 . S
C2130 C2128 1.391 . S
C2130 C2131 1.400 . S
C2131 C2130 1.400 . S
C2131 C2132 1.398 . S
C2131 C2137 1.491 1_655 S
C2132 H2123 0.950 . S
C2132 C2131 1.398 . S
C2132 C2133 1.391 . S
C2133 H2121 0.950 . S
C2133 C2129 1.393 . S
C2133 C2132 1.391 . S
C2134 H2124 0.950 . S
C2134 C2135 1.386 . S
C2134 C2136 1.391 . S
C2135 C2134 1.386 . S
C2135 C2139 1.393 . S
C2136 H2125 0.950 . S
C2136 C2134 1.391 . S
C2136 C2137 1.400 . S
C2137 C2131 1.491 1_455 S
C2137 C2136 1.400 . S
C2137 C2138 1.398 . S
C2138 H2126 0.950 . S
C2138 C2137 1.398 . S
C2138 C2139 1.391 . S
C2139 H2127 0.950 . S
C2139 C2135 1.393 . S
C2139 C2138 1.391 . S
H2140 C2148 0.950 . S
H2141 C2153 0.950 . S
H2142 C2150 0.950 . S
H2143 C2152 0.950 . S
H2144 C2154 0.950 . S
H2145 C2156 0.950 . S
H2146 C2158 0.950 . S
H2147 C2159 0.950 . S
C2148 H2140 0.950 . S
C2148 C2149 1.386 1_565 S
C2148 C2150 1.391 . S
C2149 C2148 1.386 1_545 S
C2149 C2153 1.393 . S
C2150 H2142 0.950 . S
C2150 C2148 1.391 . S
C2150 C2151 1.416 . S
C2151 C2150 1.416 . S
C2151 C2152 1.380 1_565 S
C2151 C2157 1.493 . S
C2152 H2143 0.950 . S
C2152 C2151 1.380 1_545 S
C2152 C2153 1.391 . S
C2153 H2141 0.950 . S
C2153 C2149 1.393 . S
C2153 C2152 1.391 . S
C2154 H2144 0.950 . S
C2154 C2155 1.386 1_545 S
C2154 C2156 1.391 . S
C2155 C2154 1.386 1_565 S
C2155 C2159 1.393 . S
C2156 H2145 0.950 . S
C2156 C2154 1.391 . S
C2156 C2157 1.400 1_545 S
C2157 C2151 1.493 . S
C2157 C2156 1.400 1_565 S
C2157 C2158 1.398 . S
C2158 H2146 0.950 . S
C2158 C2157 1.398 . S
C2158 C2159 1.391 . S
C2159 H2147 0.950 . S
C2159 C2155 1.393 . S
C2159 C2158 1.391 . S
H2160 C2168 0.950 . S
H2161 C2173 0.950 . S
H2162 C2170 0.950 . S
H2163 C2172 0.950 1_565 S
H2164 C2174 0.950 . S
H2165 C2176 0.950 . S
H2166 C2178 0.950 . S
H2167 C2179 0.950 . S
C2168 H2160 0.950 . S
C2168 C2169 1.386 . S
C2168 C2170 1.391 . S
C2169 C2168 1.386 . S
C2169 C2173 1.393 . S
C2170 H2162 0.950 . S
C2170 C2168 1.391 . S
C2170 C2171 1.400 . S
C2171 C2170 1.400 . S
C2171 C2172 1.398 . S
C2171 C2177 1.490 1_655 S
C2172 H2163 0.950 1_545 S
C2172 C2171 1.398 . S
C2172 C2173 1.391 . S
C2173 H2161 0.950 . S
C2173 C2169 1.393 . S
C2173 C2172 1.391 . S
C2174 H2164 0.950 . S
C2174 C2175 1.386 . S
C2174 C2176 1.391 . S
C2175 C2174 1.386 . S
C2175 C2179 1.393 1_565 S
C2176 H2165 0.950 . S
C2176 C2174 1.391 . S
C2176 C2177 1.401 1_565 S
C2177 C2171 1.490 1_455 S
C2177 C2176 1.401 1_545 S
C2177 C2178 1.398 . S
C2178 H2166 0.950 . S
C2178 C2177 1.398 . S
C2178 C2179 1.391 . S
C2179 H2167 0.950 . S
C2179 C2175 1.393 1_545 S
C2179 C2178 1.391 . S
H2180 C2188 0.950 . S
H2181 C2193 0.950 . S
H2182 C2190 0.950 . S
H2183 C2192 0.950 . S
H2184 C2194 0.950 . S
H2185 C2196 0.950 . S
H2186 C2198 0.950 . S
H2187 C2199 0.950 . S
C2188 H2180 0.950 . S
C2188 C2189 1.386 . S
C2188 C2190 1.391 . S
C2189 C2188 1.386 . S
C2189 C2193 1.393 . S
C2190 H2182 0.950 . S
C2190 C2188 1.391 . S
C2190 C2191 1.400 . S
C2191 C2190 1.400 . S
C2191 C2192 1.398 . S
C2191 C2197 1.491 . S
C2192 H2183 0.950 . S
C2192 C2191 1.398 . S
C2192 C2193 1.391 . S
C2193 H2181 0.950 . S
C2193 C2189 1.393 . S
C2193 C2192 1.391 . S
C2194 H2184 0.950 . S
C2194 C2195 1.386 . S
C2194 C2196 1.391 . S
C2195 C2194 1.386 . S
C2195 C2199 1.393 . S
C2196 H2185 0.950 . S
C2196 C2194 1.391 . S
C2196 C2197 1.400 . S
C2197 C2191 1.491 . S
C2197 C2196 1.400 . S
C2197 C2198 1.398 . S
C2198 H2186 0.950 . S
C2198 C2197 1.398 . S
C2198 C2199 1.391 . S
C2199 H2187 0.950 . S
C2199 C2195 1.393 . S
C2199 C2198 1.391 . S
H2200 C2208 0.950 . S
H2201 C2213 0.950 . S
H2202 C2210 0.950 . S
H2203 C2212 0.950 . S
H2204 C2214 0.950 . S
H2205 C2216 0.950 . S
H2206 C2218 0.950 . S
H2207 C2219 0.950 . S
C2208 H2200 0.950 . S
C2208 C2209 1.386 . S
C2208 C2210 1.391 . S
C2209 C2208 1.386 . S
C2209 C2213 1.393 . S
C2210 H2202 0.950 . S
C2210 C2208 1.391 . S
C2210 C2211 1.400 . S
C2211 C2210 1.400 . S
C2211 C2212 1.398 . S
C2211 C2217 1.491 1_455 S
C2212 H2203 0.950 . S
C2212 C2211 1.398 . S
C2212 C2213 1.391 . S
C2213 H2201 0.950 . S
C2213 C2209 1.393 . S
C2213 C2212 1.391 . S
C2214 H2204 0.950 . S
C2214 C2215 1.386 . S
C2214 C2216 1.391 . S
C2215 C2214 1.386 . S
C2215 C2219 1.393 . S
C2216 H2205 0.950 . S
C2216 C2214 1.391 . S
C2216 C2217 1.400 . S
C2217 C2211 1.491 1_655 S
C2217 C2216 1.400 . S
C2217 C2218 1.398 . S
C2218 H2206 0.950 . S
C2218 C2217 1.398 . S
C2218 C2219 1.391 . S
C2219 H2207 0.950 . S
C2219 C2215 1.393 . S
C2219 C2218 1.391 . S
H2220 C2228 0.949 1_545 S
H2221 C2233 0.950 . S
H2222 C2230 0.950 . S
H2223 C2232 0.950 . S
H2224 C2234 0.950 . S
H2225 C2236 0.938 1_565 S
H2226 C2238 0.950 . S
H2227 C2239 0.950 . S
C2228 H2220 0.949 1_565 S
C2228 C2229 1.386 . S
C2228 C2230 1.391 1_565 S
C2229 C2228 1.386 . S
C2229 C2233 1.393 . S
C2230 H2222 0.950 . S
C2230 C2228 1.391 1_545 S
C2230 C2231 1.400 . S
C2231 C2230 1.400 . S
C2231 C2232 1.400 1_545 S
C2231 C2237 1.490 . S
C2232 H2223 0.950 . S
C2232 C2231 1.400 1_565 S
C2232 C2233 1.391 . S
C2233 H2221 0.950 . S
C2233 C2229 1.393 . S
C2233 C2232 1.391 . S
C2234 H2224 0.950 . S
C2234 C2235 1.386 . S
C2234 C2236 1.399 . S
C2235 C2234 1.386 . S
C2235 C2239 1.393 . S
C2236 H2225 0.938 1_545 S
C2236 C2234 1.399 . S
C2236 C2237 1.407 . S
C2237 C2231 1.490 . S
C2237 C2236 1.407 . S
C2237 C2238 1.398 . S
C2238 H2226 0.950 . S
C2238 C2237 1.398 . S
C2238 C2239 1.391 . S
C2239 H2227 0.950 . S
C2239 C2235 1.393 . S
C2239 C2238 1.391 . S
H2240 C2248 0.950 . S
H2241 C2253 0.950 . S
H2242 C2250 0.950 . S
H2243 C2252 0.950 . S
H2244 C2254 0.950 . S
H2245 C2256 0.950 . S
H2246 C2258 0.950 . S
H2247 C2259 0.950 . S
C2248 H2240 0.950 . S
C2248 C2249 1.386 . S
C2248 C2250 1.391 . S
C2249 C2248 1.386 . S
C2249 C2253 1.393 1_455 S
C2250 H2242 0.950 . S
C2250 C2248 1.391 . S
C2250 C2251 1.400 . S
C2251 C2250 1.400 . S
C2251 C2252 1.398 1_455 S
C2251 C2257 1.491 1_454 S
C2252 H2243 0.950 . S
C2252 C2251 1.398 1_655 S
C2252 C2253 1.391 . S
C2253 H2241 0.950 . S
C2253 C2249 1.393 1_655 S
C2253 C2252 1.391 . S
C2254 H2244 0.950 . S
C2254 C2255 1.386 . S
C2254 C2256 1.391 . S
C2255 C2254 1.386 . S
C2255 C2259 1.393 1_655 S
C2256 H2245 0.950 . S
C2256 C2254 1.391 . S
C2256 C2257 1.400 . S
C2257 C2251 1.491 1_656 S
C2257 C2256 1.400 . S
C2257 C2258 1.398 1_655 S
C2258 H2246 0.950 . S
C2258 C2257 1.398 1_455 S
C2258 C2259 1.391 . S
C2259 H2247 0.950 . S
C2259 C2255 1.393 1_455 S
C2259 C2258 1.391 . S
H2260 C2268 0.950 . S
H2261 C2273 0.950 . S
H2262 C2270 0.950 . S
H2263 C2272 0.950 . S
H2264 C2274 0.950 . S
H2265 C2276 0.950 . S
H2266 C2278 0.950 . S
H2267 C2279 0.950 . S
C2268 H2260 0.950 . S
C2268 C2269 1.386 . S
C2268 C2270 1.391 . S
C2269 C2268 1.386 . S
C2269 C2273 1.393 . S
C2270 H2262 0.950 . S
C2270 C2268 1.391 . S
C2270 C2271 1.400 . S
C2271 C2270 1.400 . S
C2271 C2272 1.398 . S
C2271 C2277 1.491 1_556 S
C2272 H2263 0.950 . S
C2272 C2271 1.398 . S
C2272 C2273 1.391 . S
C2273 H2261 0.950 . S
C2273 C2269 1.393 . S
C2273 C2272 1.391 . S
C2274 H2264 0.950 . S
C2274 C2275 1.386 . S
C2274 C2276 1.391 . S
C2275 C2274 1.386 . S
C2275 C2279 1.393 . S
C2276 H2265 0.950 . S
C2276 C2274 1.391 . S
C2276 C2277 1.400 . S
C2277 C2271 1.491 1_554 S
C2277 C2276 1.400 . S
C2277 C2278 1.398 . S
C2278 H2266 0.950 . S
C2278 C2277 1.398 . S
C2278 C2279 1.391 . S
C2279 H2267 0.950 . S
C2279 C2275 1.393 . S
C2279 C2278 1.391 . S
H2280 C2288 0.950 . S
H2281 C2293 0.950 . S
H2282 C2290 0.950 . S
H2283 C2292 0.950 . S
H2284 C2294 0.950 . S
H2285 C2296 0.950 . S
H2286 C2298 0.950 . S
H2287 C2299 0.950 . S
C2288 H2280 0.950 . S
C2288 C2289 1.386 1_455 S
C2288 C2290 1.391 . S
C2289 C2288 1.386 1_655 S
C2289 C2293 1.393 . S
C2290 H2282 0.950 . S
C2290 C2288 1.391 . S
C2290 C2291 1.400 1_455 S
C2291 C2290 1.400 1_655 S
C2291 C2292 1.398 . S
C2291 C2297 1.491 1_655 S
C2292 H2283 0.950 . S
C2292 C2291 1.398 . S
C2292 C2293 1.391 . S
C2293 H2281 0.950 . S
C2293 C2289 1.393 . S
C2293 C2292 1.391 . S
C2294 H2284 0.950 . S
C2294 C2295 1.386 1_655 S
C2294 C2296 1.391 . S
C2295 C2294 1.386 1_455 S
C2295 C2299 1.393 . S
C2296 H2285 0.950 . S
C2296 C2294 1.391 . S
C2296 C2297 1.400 1_655 S
C2297 C2291 1.491 1_455 S
C2297 C2296 1.400 1_455 S
C2297 C2298 1.398 . S
C2298 H2286 0.950 . S
C2298 C2297 1.398 . S
C2298 C2299 1.391 . S
C2299 H2287 0.950 . S
C2299 C2295 1.393 . S
C2299 C2298 1.391 . S
H2300 C2308 0.950 . S
H2301 C2313 0.950 . S
H2302 C2310 0.950 . S
H2303 C2312 0.950 . S
H2304 C2314 0.950 . S
H2305 C2316 0.950 . S
H2306 C2318 0.950 . S
H2307 C2319 0.950 . S
C2308 H2300 0.950 . S
C2308 C2309 1.386 . S
C2308 C2310 1.391 . S
C2309 C2308 1.386 . S
C2309 C2313 1.393 . S
C2310 H2302 0.950 . S
C2310 C2308 1.391 . S
C2310 C2311 1.400 . S
C2311 C2310 1.400 . S
C2311 C2312 1.398 . S
C2311 C2317 1.491 . S
C2312 H2303 0.950 . S
C2312 C2311 1.398 . S
C2312 C2313 1.391 . S
C2313 H2301 0.950 . S
C2313 C2309 1.393 . S
C2313 C2312 1.391 . S
C2314 H2304 0.950 . S
C2314 C2315 1.386 . S
C2314 C2316 1.391 . S
C2315 C2314 1.386 . S
C2315 C2319 1.393 . S
C2316 H2305 0.950 . S
C2316 C2314 1.391 . S
C2316 C2317 1.400 . S
C2317 C2311 1.491 . S
C2317 C2316 1.400 . S
C2317 C2318 1.398 . S
C2318 H2306 0.950 . S
C2318 C2317 1.398 . S
C2318 C2319 1.391 . S
C2319 H2307 0.950 . S
C2319 C2315 1.393 . S
C2319 C2318 1.391 . S
H2320 C2328 0.950 . S
H2321 C2333 0.950 . S
H2322 C2330 0.950 . S
H2323 C2332 0.950 . S
H2324 C2334 0.950 . S
H2325 C2336 0.950 . S
H2326 C2338 0.950 . S
H2327 C2339 0.950 . S
C2328 H2320 0.950 . S
C2328 C2329 1.386 . S
C2328 C2330 1.391 . S
C2329 C2328 1.386 . S
C2329 C2333 1.393 . S
C2330 H2322 0.950 . S
C2330 C2328 1.391 . S
C2330 C2331 1.400 . S
C2331 C2330 1.400 . S
C2331 C2332 1.398 . S
C2331 C2337 1.491 1_556 S
C2332 H2323 0.950 . S
C2332 C2331 1.398 . S
C2332 C2333 1.391 . S
C2333 H2321 0.950 . S
C2333 C2329 1.393 . S
C2333 C2332 1.391 . S
C2334 H2324 0.950 . S
C2334 C2335 1.386 . S
C2334 C2336 1.391 . S
C2335 C2334 1.386 . S
C2335 C2339 1.393 . S
C2336 H2325 0.950 . S
C2336 C2334 1.391 . S
C2336 C2337 1.400 . S
C2337 C2331 1.491 1_554 S
C2337 C2336 1.400 . S
C2337 C2338 1.398 . S
C2338 H2326 0.950 . S
C2338 C2337 1.398 . S
C2338 C2339 1.391 . S
C2339 H2327 0.950 . S
C2339 C2335 1.393 . S
C2339 C2338 1.391 . S
H2340 C2348 0.950 . S
H2341 C2353 0.950 . S
H2342 C2350 0.950 . S
H2343 C2352 0.950 . S
H2344 C2354 0.950 . S
H2345 C2356 0.950 . S
H2346 C2358 0.950 . S
H2347 C2359 0.950 . S
C2348 H2340 0.950 . S
C2348 C2349 1.386 . S
C2348 C2350 1.391 . S
C2349 C2348 1.386 . S
C2349 C2353 1.393 1_655 S
C2350 H2342 0.950 . S
C2350 C2348 1.391 . S
C2350 C2351 1.400 . S
C2351 C2350 1.400 . S
C2351 C2352 1.398 1_655 S
C2351 C2357 1.491 1_655 S
C2352 H2343 0.950 . S
C2352 C2351 1.398 1_455 S
C2352 C2353 1.391 . S
C2353 H2341 0.950 . S
C2353 C2349 1.393 1_455 S
C2353 C2352 1.391 . S
C2354 H2344 0.950 . S
C2354 C2355 1.386 . S
C2354 C2356 1.391 . S
C2355 C2354 1.386 . S
C2355 C2359 1.393 1_455 S
C2356 H2345 0.950 . S
C2356 C2354 1.391 . S
C2356 C2357 1.400 . S
C2357 C2351 1.491 1_455 S
C2357 C2356 1.400 . S
C2357 C2358 1.398 1_455 S
C2358 H2346 0.950 . S
C2358 C2357 1.398 1_655 S
C2358 C2359 1.391 . S
C2359 H2347 0.950 . S
C2359 C2355 1.393 1_655 S
C2359 C2358 1.391 . S
H2360 C2368 0.950 . S
H2361 C2373 0.950 . S
H2362 C2370 0.950 . S
H2363 C2372 0.950 . S
H2364 C2374 0.950 . S
H2365 C2376 0.950 . S
H2366 C2378 0.950 . S
H2367 C2379 0.950 . S
C2368 H2360 0.950 . S
C2368 C2369 1.386 . S
C2368 C2370 1.391 . S
C2369 C2368 1.386 . S
C2369 C2373 1.393 . S
C2370 H2362 0.950 . S
C2370 C2368 1.391 . S
C2370 C2371 1.400 . S
C2371 C2370 1.400 . S
C2371 C2372 1.398 . S
C2371 C2377 1.491 . S
C2372 H2363 0.950 . S
C2372 C2371 1.398 . S
C2372 C2373 1.391 . S
C2373 H2361 0.950 . S
C2373 C2369 1.393 . S
C2373 C2372 1.391 . S
C2374 H2364 0.950 . S
C2374 C2375 1.386 . S
C2374 C2376 1.391 . S
C2375 C2374 1.386 . S
C2375 C2379 1.393 . S
C2376 H2365 0.950 . S
C2376 C2374 1.391 . S
C2376 C2377 1.400 . S
C2377 C2371 1.491 . S
C2377 C2376 1.400 . S
C2377 C2378 1.398 . S
C2378 H2366 0.950 . S
C2378 C2377 1.398 . S
C2378 C2379 1.391 . S
C2379 H2367 0.950 . S
C2379 C2375 1.393 . S
C2379 C2378 1.391 . S
H2380 C2388 0.950 . S
H2381 C2393 0.949 1_545 S
H2382 C2390 0.950 . S
H2383 C2392 0.950 . S
H2384 C2394 0.950 . S
H2385 C2396 0.950 . S
H2386 C2398 0.950 . S
H2387 C2399 0.949 1_565 S
C2388 H2380 0.950 . S
C2388 C2389 1.386 . S
C2388 C2390 1.391 . S
C2389 C2388 1.386 . S
C2389 C2393 1.393 1_455 S
C2390 H2382 0.950 . S
C2390 C2388 1.391 . S
C2390 C2391 1.405 . S
C2391 C2390 1.405 . S
C2391 C2392 1.397 1_465 S
C2391 C2397 1.488 1_465 S
C2392 H2383 0.950 . S
C2392 C2391 1.397 1_645 S
C2392 C2393 1.390 1_545 S
C2393 H2381 0.949 1_565 S
C2393 C2389 1.393 1_655 S
C2393 C2392 1.390 1_565 S
C2394 H2384 0.950 . S
C2394 C2395 1.386 . S
C2394 C2396 1.391 . S
C2395 C2394 1.386 . S
C2395 C2399 1.393 1_655 S
C2396 H2385 0.950 . S
C2396 C2394 1.391 . S
C2396 C2397 1.405 . S
C2397 C2391 1.488 1_645 S
C2397 C2396 1.405 . S
C2397 C2398 1.397 1_645 S
C2398 H2386 0.950 . S
C2398 C2397 1.397 1_465 S
C2398 C2399 1.390 1_565 S
C2399 H2387 0.949 1_545 S
C2399 C2395 1.393 1_455 S
C2399 C2398 1.390 1_545 S
H2400 C2408 0.950 . S
H2401 C2413 0.950 . S
H2402 C2410 0.950 . S
H2403 C2412 0.950 . S
H2404 C2414 0.950 . S
H2405 C2416 0.950 . S
H2406 C2418 0.950 . S
H2407 C2419 0.950 . S
C2408 H2400 0.950 . S
C2408 C2409 1.386 . S
C2408 C2410 1.391 . S
C2409 C2408 1.386 . S
C2409 C2413 1.393 . S
C2410 H2402 0.950 . S
C2410 C2408 1.391 . S
C2410 C2411 1.400 . S
C2411 C2410 1.400 . S
C2411 C2412 1.398 . S
C2411 C2417 1.491 . S
C2412 H2403 0.950 . S
C2412 C2411 1.398 . S
C2412 C2413 1.391 . S
C2413 H2401 0.950 . S
C2413 C2409 1.393 . S
C2413 C2412 1.391 . S
C2414 H2404 0.950 . S
C2414 C2415 1.386 . S
C2414 C2416 1.391 . S
C2415 C2414 1.386 . S
C2415 C2419 1.393 . S
C2416 H2405 0.950 . S
C2416 C2414 1.391 . S
C2416 C2417 1.400 . S
C2417 C2411 1.491 . S
C2417 C2416 1.400 . S
C2417 C2418 1.398 . S
C2418 H2406 0.950 . S
C2418 C2417 1.398 . S
C2418 C2419 1.391 . S
C2419 H2407 0.950 . S
C2419 C2415 1.393 . S
C2419 C2418 1.391 . S
H2420 C2428 0.951 . S
H2421 C2433 0.950 . S
H2422 C2430 0.950 . S
H2423 C2432 0.950 . S
H2424 C2434 0.951 . S
H2425 C2436 0.950 . S
H2426 C2438 0.950 . S
H2427 C2439 0.950 . S
C2428 H2420 0.951 . S
C2428 C2429 1.386 . S
C2428 C2430 1.391 . S
C2429 C2428 1.386 . S
C2429 C2433 1.391 1_545 S
C2430 H2422 0.950 . S
C2430 C2428 1.391 . S
C2430 C2431 1.400 1_545 S
C2431 C2430 1.400 1_565 S
C2431 C2432 1.398 . S
C2431 C2437 1.491 1_565 S
C2432 H2423 0.950 . S
C2432 C2431 1.398 . S
C2432 C2433 1.391 . S
C2433 H2421 0.950 . S
C2433 C2429 1.391 1_565 S
C2433 C2432 1.391 . S
C2434 H2424 0.951 . S
C2434 C2435 1.386 . S
C2434 C2436 1.391 . S
C2435 C2434 1.386 . S
C2435 C2439 1.391 1_565 S
C2436 H2425 0.950 . S
C2436 C2434 1.391 . S
C2436 C2437 1.400 1_565 S
C2437 C2431 1.491 1_545 S
C2437 C2436 1.400 1_545 S
C2437 C2438 1.398 . S
C2438 H2426 0.950 . S
C2438 C2437 1.398 . S
C2438 C2439 1.391 . S
C2439 H2427 0.950 . S
C2439 C2435 1.391 1_545 S
C2439 C2438 1.391 . S
H2440 C2448 0.950 . S
H2441 C2453 0.950 . S
H2442 C2450 0.950 . S
H2443 C2452 0.950 . S
H2444 C2454 0.950 . S
H2445 C2456 0.950 . S
H2446 C2458 0.950 . S
H2447 C2459 0.950 . S
C2448 H2440 0.950 . S
C2448 C2449 1.386 . S
C2448 C2450 1.391 . S
C2449 C2448 1.386 . S
C2449 C2453 1.393 . S
C2450 H2442 0.950 . S
C2450 C2448 1.391 . S
C2450 C2451 1.400 . S
C2451 C2450 1.400 . S
C2451 C2452 1.398 . S
C2451 C2457 1.491 . S
C2452 H2443 0.950 . S
C2452 C2451 1.398 . S
C2452 C2453 1.391 . S
C2453 H2441 0.950 . S
C2453 C2449 1.393 . S
C2453 C2452 1.391 . S
C2454 H2444 0.950 . S
C2454 C2455 1.386 . S
C2454 C2456 1.391 . S
C2455 C2454 1.386 . S
C2455 C2459 1.393 . S
C2456 H2445 0.950 . S
C2456 C2454 1.391 . S
C2456 C2457 1.400 . S
C2457 C2451 1.491 . S
C2457 C2456 1.400 . S
C2457 C2458 1.398 . S
C2458 H2446 0.950 . S
C2458 C2457 1.398 . S
C2458 C2459 1.391 . S
C2459 H2447 0.950 . S
C2459 C2455 1.393 . S
C2459 C2458 1.391 . S
H2460 C2468 0.950 . S
H2461 C2473 0.950 . S
H2462 C2470 0.950 . S
H2463 C2472 0.950 . S
H2464 C2474 0.950 . S
H2465 C2476 0.950 . S
H2466 C2478 0.950 . S
H2467 C2479 0.950 . S
C2468 H2460 0.950 . S
C2468 C2469 1.386 . S
C2468 C2470 1.391 . S
C2469 C2468 1.386 . S
C2469 C2473 1.393 1_565 S
C2470 H2462 0.950 . S
C2470 C2468 1.391 . S
C2470 C2471 1.411 . S
C2471 C2470 1.411 . S
C2471 C2472 1.391 1_565 S
C2471 C2477 1.488 1_565 S
C2472 H2463 0.950 . S
C2472 C2471 1.391 1_545 S
C2472 C2473 1.391 . S
C2473 H2461 0.950 . S
C2473 C2469 1.393 1_545 S
C2473 C2472 1.391 . S
C2474 H2464 0.950 . S
C2474 C2475 1.386 . S
C2474 C2476 1.391 . S
C2475 C2474 1.386 . S
C2475 C2479 1.393 1_545 S
C2476 H2465 0.950 . S
C2476 C2474 1.391 . S
C2476 C2477 1.411 . S
C2477 C2471 1.488 1_545 S
C2477 C2476 1.411 . S
C2477 C2478 1.391 1_545 S
C2478 H2466 0.950 . S
C2478 C2477 1.391 1_565 S
C2478 C2479 1.391 . S
C2479 H2467 0.950 . S
C2479 C2475 1.393 1_565 S
C2479 C2478 1.391 . S
H2480 C2488 0.950 . S
H2481 C2493 0.950 . S
H2482 C2490 0.950 . S
H2483 C2492 0.950 . S
H2484 C2494 0.950 . S
H2485 C2496 0.950 . S
H2486 C2498 0.950 . S
H2487 C2499 0.950 . S
C2488 H2480 0.950 . S
C2488 C2489 1.386 . S
C2488 C2490 1.391 . S
C2489 C2488 1.386 . S
C2489 C2493 1.393 . S
C2490 H2482 0.950 . S
C2490 C2488 1.391 . S
C2490 C2491 1.400 . S
C2491 C2490 1.400 . S
C2491 C2492 1.398 . S
C2491 C2497 1.491 . S
C2492 H2483 0.950 . S
C2492 C2491 1.398 . S
C2492 C2493 1.391 . S
C2493 H2481 0.950 . S
C2493 C2489 1.393 . S
C2493 C2492 1.391 . S
C2494 H2484 0.950 . S
C2494 C2495 1.386 . S
C2494 C2496 1.391 . S
C2495 C2494 1.386 . S
C2495 C2499 1.393 . S
C2496 H2485 0.950 . S
C2496 C2494 1.391 . S
C2496 C2497 1.400 . S
C2497 C2491 1.491 . S
C2497 C2496 1.400 . S
C2497 C2498 1.398 . S
C2498 H2486 0.950 . S
C2498 C2497 1.398 . S
C2498 C2499 1.391 . S
C2499 H2487 0.950 . S
C2499 C2495 1.393 . S
C2499 C2498 1.391 . S
H2500 C2508 0.950 . S
H2501 C2513 0.950 . S
H2502 C2510 0.950 . S
H2503 C2512 0.950 . S
H2504 C2514 0.950 . S
H2505 C2516 0.950 . S
H2506 C2518 0.950 . S
H2507 C2519 0.950 . S
C2508 H2500 0.950 . S
C2508 C2509 1.386 . S
C2508 C2510 1.391 . S
C2509 C2508 1.386 . S
C2509 C2513 1.393 . S
C2510 H2502 0.950 . S
C2510 C2508 1.391 . S
C2510 C2511 1.400 . S
C2511 C2510 1.400 . S
C2511 C2512 1.398 . S
C2511 C2517 1.491 . S
C2512 H2503 0.950 . S
C2512 C2511 1.398 . S
C2512 C2513 1.391 . S
C2513 H2501 0.950 . S
C2513 C2509 1.393 . S
C2513 C2512 1.391 . S
C2514 H2504 0.950 . S
C2514 C2515 1.386 . S
C2514 C2516 1.391 . S
C2515 C2514 1.386 . S
C2515 C2519 1.393 . S
C2516 H2505 0.950 . S
C2516 C2514 1.391 . S
C2516 C2517 1.400 . S
C2517 C2511 1.491 . S
C2517 C2516 1.400 . S
C2517 C2518 1.398 . S
C2518 H2506 0.950 . S
C2518 C2517 1.398 . S
C2518 C2519 1.391 . S
C2519 H2507 0.950 . S
C2519 C2515 1.393 . S
C2519 C2518 1.391 . S
H2520 C2528 0.950 . S
H2521 C2533 0.950 . S
H2522 C2530 0.950 . S
H2523 C2532 0.950 . S
H2524 C2534 0.950 . S
H2525 C2536 0.950 . S
H2526 C2538 0.950 . S
H2527 C2539 0.950 . S
C2528 H2520 0.950 . S
C2528 C2529 1.386 . S
C2528 C2530 1.391 . S
C2529 C2528 1.386 . S
C2529 C2533 1.393 . S
C2530 H2522 0.950 . S
C2530 C2528 1.391 . S
C2530 C2531 1.400 . S
C2531 C2530 1.400 . S
C2531 C2532 1.398 . S
C2531 C2537 1.491 . S
C2532 H2523 0.950 . S
C2532 C2531 1.398 . S
C2532 C2533 1.391 . S
C2533 H2521 0.950 . S
C2533 C2529 1.393 . S
C2533 C2532 1.391 . S
C2534 H2524 0.950 . S
C2534 C2535 1.386 . S
C2534 C2536 1.391 . S
C2535 C2534 1.386 . S
C2535 C2539 1.393 . S
C2536 H2525 0.950 . S
C2536 C2534 1.391 . S
C2536 C2537 1.400 . S
C2537 C2531 1.491 . S
C2537 C2536 1.400 . S
C2537 C2538 1.398 . S
C2538 H2526 0.950 . S
C2538 C2537 1.398 . S
C2538 C2539 1.391 . S
C2539 H2527 0.950 . S
C2539 C2535 1.393 . S
C2539 C2538 1.391 . S
H2540 C2548 0.950 . S
H2541 C2553 0.950 . S
H2542 C2550 0.950 . S
H2543 C2552 0.950 . S
H2544 C2554 0.950 . S
H2545 C2556 0.950 . S
H2546 C2558 0.950 . S
H2547 C2559 0.950 . S
C2548 H2540 0.950 . S
C2548 C2549 1.381 1_545 S
C2548 C2550 1.391 . S
C2549 C2548 1.381 1_565 S
C2549 C2553 1.397 . S
C2550 H2542 0.950 . S
C2550 C2548 1.391 . S
C2550 C2551 1.400 . S
C2551 C2550 1.400 . S
C2551 C2552 1.398 1_545 S
C2551 C2557 1.491 1_544 S
C2552 H2543 0.950 . S
C2552 C2551 1.398 1_565 S
C2552 C2553 1.391 . S
C2553 H2541 0.950 . S
C2553 C2549 1.397 . S
C2553 C2552 1.391 . S
C2554 H2544 0.950 . S
C2554 C2555 1.381 1_565 S
C2554 C2556 1.391 . S
C2555 C2554 1.381 1_545 S
C2555 C2559 1.397 . S
C2556 H2545 0.950 . S
C2556 C2554 1.391 . S
C2556 C2557 1.400 . S
C2557 C2551 1.491 1_566 S
C2557 C2556 1.400 . S
C2557 C2558 1.398 1_565 S
C2558 H2546 0.950 . S
C2558 C2557 1.398 1_545 S
C2558 C2559 1.391 . S
C2559 H2547 0.950 . S
C2559 C2555 1.397 . S
C2559 C2558 1.391 . S
C649 C18 1.586 . S
C655 C518 1.590 . S
C669 C498 1.584 . S
C675 C38 1.590 . S
C689 C558 1.585 . S
C695 C58 1.590 . S
C709 C78 1.583 . S
C715 C538 1.591 . S
C729 C99 1.580 . S
C735 C599 1.590 . S
C749 C119 1.585 . S
C755 C579 1.590 . S
C769 C139 1.581 . S
C775 C639 1.590 . S
C789 C619 1.583 . S
C795 C159 1.591 . S
C809 C178 1.580 . S
C815 C358 1.584 . S
C829 C198 1.583 . S
C835 C338 1.581 . S
C849 C218 1.591 . S
C855 C398 1.583 . S
C869 C378 1.587 . S
C875 C238 1.579 . S
C889 C259 1.588 . S
C895 C439 1.579 . S
C909 C279 1.579 . S
C915 C419 1.588 . S
C929 C479 1.586 . S
C935 C299 1.579 . S
C949 C319 1.588 . S
C955 C459 1.588 . S
C969 C8 1.533 . S
C975 C68 1.541 . S
C989 C28 1.543 . S
C995 C48 1.546 . S
C1009 C149 1.533 . S
C1015 C89 1.537 . S
C1029 C129 1.539 . S
C1035 C109 1.547 . S
C1049 C168 1.530 1_565 S
C1055 C228 1.533 1_565 S
C1069 C188 1.538 . S
C1075 C208 1.532 . S
C1089 C249 1.530 1_545 S
C1095 C309 1.538 1_545 S
C1109 C289 1.538 . S
C1115 C269 1.532 . S
C1129 C328 1.544 . S
C1135 C388 1.533 . S
C1149 C348 1.543 . S
C1155 C368 1.533 . S
C1169 C469 1.537 . S
C1175 C409 1.546 . S
C1189 C429 1.536 . S
C1195 C449 1.533 . S
C1209 C548 1.533 1_565 S
C1215 C488 1.541 1_565 S
C1229 C508 1.541 . S
C1235 C528 1.532 . S
C1249 C629 1.530 1_545 S
C1255 C569 1.537 1_545 S
C1269 C609 1.542 . S
C1275 C589 1.546 . S
C1289 C39 1.491 . S
C1295 C19 1.501 . S
C1309 C59 1.505 . S
C1315 C79 1.498 . S
C1329 C118 1.486 . S
C1335 C98 1.495 . S
C1349 C158 1.487 . S
C1355 C138 1.497 . S
C1369 C179 1.491 . S
C1375 C199 1.484 . S
C1389 C219 1.500 . S
C1395 C239 1.506 . S
C1409 C278 1.484 . S
C1415 C258 1.490 . S
C1429 C298 1.503 . S
C1435 C318 1.494 . S
C1449 C339 1.504 . S
C1455 C359 1.495 . S
C1469 C399 1.491 . S
C1475 C379 1.485 . S
C1489 C418 1.498 . S
C1495 C438 1.488 . S
C1509 C458 1.499 . S
C1515 C478 1.506 . S
C1529 C499 1.504 . S
C1535 C519 1.496 . S
C1549 C539 1.496 . S
C1555 C559 1.505 . S
C1569 C598 1.488 . S
C1575 C578 1.484 . S
C1589 C618 1.503 . S
C1595 C638 1.506 . S
C1609 C2 1.643 . S
C1615 C1 1.643 . S
C1629 C22 1.652 . S
C1635 C21 1.652 . S
C1649 C42 1.644 . S
C1655 C41 1.644 . S
C1669 C61 1.635 . S
C1675 C62 1.635 . S
C1689 C82 1.630 . S
C1695 C81 1.630 . S
C1709 C101 1.651 . S
C1715 C102 1.651 . S
C1729 C122 1.650 . S
C1735 C121 1.650 . S
C1749 C142 1.642 . S
C1755 C141 1.642 . S
C1769 C161 1.631 . S
C1775 C162 1.631 . S
C1789 C182 1.636 . S
C1795 C181 1.636 . S
C1809 C202 1.640 . S
C1815 C201 1.640 . S
C1829 C221 1.633 . S
C1835 C222 1.633 . S
C1849 C242 1.641 . S
C1855 C241 1.641 . S
C1869 C261 1.636 . S
C1875 C262 1.636 . S
C1889 C281 1.631 . S
C1895 C282 1.631 . S
C1909 C302 1.650 . S
C1915 C301 1.650 . S
C1929 C322 1.652 . S
C1935 C321 1.652 . S
C1949 C341 1.642 . S
C1955 C342 1.642 1_455 S
C1969 C361 1.633 . S
C1975 C362 1.633 . S
C1989 C382 1.653 1_455 S
C1995 C381 1.653 . S
C2009 C401 1.651 . S
C2015 C402 1.651 . S
C2029 C421 1.647 1_655 S
C2035 C422 1.647 . S
C2049 C442 1.634 . S
C2055 C441 1.634 . S
C2069 C461 1.634 1_655 S
C2075 C462 1.634 . S
C2089 C481 1.638 . S
C2095 C482 1.638 . S
C2109 C502 1.631 1_455 S
C2115 C501 1.631 . S
C2129 C521 1.647 . S
C2135 C522 1.647 . S
C2149 C541 1.641 . S
C2155 C542 1.641 1_455 S
C2169 C561 1.652 . S
C2175 C562 1.652 . S
C2189 C581 1.636 1_655 S
C2195 C582 1.636 . S
C2209 C602 1.634 . S
C2215 C601 1.634 . S
C2229 C622 1.653 . S
C2235 C621 1.653 1_655 S
C2249 C9 1.457 . S
C2255 C88 1.457 . S
C2269 C588 1.470 . S
C2275 C29 1.470 . S
C2289 C288 1.465 . S
C2295 C49 1.465 . S
C2309 C69 1.465 . S
C2315 C468 1.465 . S
C2329 C108 1.473 . S
C2335 C509 1.473 . S
C2349 C128 1.466 . S
C2355 C209 1.466 . S
C2369 C148 1.454 . S
C2375 C389 1.454 . S
C2389 C169 1.465 . S
C2395 C248 1.465 . S
C2409 C428 1.462 . S
C2415 C189 1.462 . S
C2429 C628 1.479 . S
C2435 C229 1.479 . S
C2449 C268 1.465 . S
C2455 C349 1.465 . S
C2469 C549 1.468 . S
C2475 C308 1.468 . S
C2489 C329 1.475 . S
C2495 C408 1.475 . S
C2509 C608 1.456 . S
C2515 C369 1.456 . S
C2529 C448 1.465 . S
C2535 C529 1.465 . S
C2549 C489 1.475 . S
C2555 C568 1.475 . S
