# Generated by pormake.
# Topology mon, (4)-cn, num edge types: 1
# Building blocks:
#     Node 0, Type 0, BuildingBlock: QUQFOY_clean_sbu_1, # of connection points: 4
#     Node 1, Type 0, BuildingBlock: QUQFOY_clean_sbu_1, # of connection points: 4
#     Node 2, Type 0, BuildingBlock: QUQFOY_clean_sbu_1, # of connection points: 4
#     Node 3, Type 0, BuildingBlock: QUQFOY_clean_sbu_1, # of connection points: 4
#     Node 4, Type 0, BuildingBlock: QUQFOY_clean_sbu_1, # of connection points: 4
#     Node 5, Type 0, BuildingBlock: QUQFOY_clean_sbu_1, # of connection points: 4
#     Node 6, Type 0, BuildingBlock: QUQFOY_clean_sbu_1, # of connection points: 4
#     Node 7, Type 0, BuildingBlock: QUQFOY_clean_sbu_1, # of connection points: 4
#     Node 8, Type 0, BuildingBlock: QUQFOY_clean_sbu_1, # of connection points: 4
#     Node 9, Type 0, BuildingBlock: QUQFOY_clean_sbu_1, # of connection points: 4
#     Node 10, Type 0, BuildingBlock: QUQFOY_clean_sbu_1, # of connection points: 4
#     Node 11, Type 0, BuildingBlock: QUQFOY_clean_sbu_1, # of connection points: 4
#     Node 12, Type 0, BuildingBlock: QUQFOY_clean_sbu_1, # of connection points: 4
#     Node 13, Type 0, BuildingBlock: QUQFOY_clean_sbu_1, # of connection points: 4
#     Node 14, Type 0, BuildingBlock: QUQFOY_clean_sbu_1, # of connection points: 4
#     Node 15, Type 0, BuildingBlock: QUQFOY_clean_sbu_1, # of connection points: 4
#     Edge 16, Type (0, 0), BuildingBlock: ZUJKAS_clean_linker_0, # of connection points: 2
#     Edge 17, Type (0, 0), BuildingBlock: ZUJKAS_clean_linker_0, # of connection points: 2
#     Edge 18, Type (0, 0), BuildingBlock: ZUJKAS_clean_linker_0, # of connection points: 2
#     Edge 19, Type (0, 0), BuildingBlock: ZUJKAS_clean_linker_0, # of connection points: 2
#     Edge 20, Type (0, 0), BuildingBlock: ZUJKAS_clean_linker_0, # of connection points: 2
#     Edge 21, Type (0, 0), BuildingBlock: ZUJKAS_clean_linker_0, # of connection points: 2
#     Edge 22, Type (0, 0), BuildingBlock: ZUJKAS_clean_linker_0, # of connection points: 2
#     Edge 23, Type (0, 0), BuildingBlock: ZUJKAS_clean_linker_0, # of connection points: 2
#     Edge 24, Type (0, 0), BuildingBlock: ZUJKAS_clean_linker_0, # of connection points: 2
#     Edge 25, Type (0, 0), BuildingBlock: ZUJKAS_clean_linker_0, # of connection points: 2
#     Edge 26, Type (0, 0), BuildingBlock: ZUJKAS_clean_linker_0, # of connection points: 2
#     Edge 27, Type (0, 0), BuildingBlock: ZUJKAS_clean_linker_0, # of connection points: 2
#     Edge 28, Type (0, 0), BuildingBlock: ZUJKAS_clean_linker_0, # of connection points: 2
#     Edge 29, Type (0, 0), BuildingBlock: ZUJKAS_clean_linker_0, # of connection points: 2
#     Edge 30, Type (0, 0), BuildingBlock: ZUJKAS_clean_linker_0, # of connection points: 2
#     Edge 31, Type (0, 0), BuildingBlock: ZUJKAS_clean_linker_0, # of connection points: 2
#     Edge 32, Type (0, 0), BuildingBlock: ZUJKAS_clean_linker_0, # of connection points: 2
#     Edge 33, Type (0, 0), BuildingBlock: ZUJKAS_clean_linker_0, # of connection points: 2
#     Edge 34, Type (0, 0), BuildingBlock: ZUJKAS_clean_linker_0, # of connection points: 2
#     Edge 35, Type (0, 0), BuildingBlock: ZUJKAS_clean_linker_0, # of connection points: 2
#     Edge 36, Type (0, 0), BuildingBlock: ZUJKAS_clean_linker_0, # of connection points: 2
#     Edge 37, Type (0, 0), BuildingBlock: ZUJKAS_clean_linker_0, # of connection points: 2
#     Edge 38, Type (0, 0), BuildingBlock: ZUJKAS_clean_linker_0, # of connection points: 2
#     Edge 39, Type (0, 0), BuildingBlock: ZUJKAS_clean_linker_0, # of connection points: 2
#     Edge 40, Type (0, 0), BuildingBlock: ZUJKAS_clean_linker_0, # of connection points: 2
#     Edge 41, Type (0, 0), BuildingBlock: ZUJKAS_clean_linker_0, # of connection points: 2
#     Edge 42, Type (0, 0), BuildingBlock: ZUJKAS_clean_linker_0, # of connection points: 2
#     Edge 43, Type (0, 0), BuildingBlock: ZUJKAS_clean_linker_0, # of connection points: 2
#     Edge 44, Type (0, 0), BuildingBlock: ZUJKAS_clean_linker_0, # of connection points: 2
#     Edge 45, Type (0, 0), BuildingBlock: ZUJKAS_clean_linker_0, # of connection points: 2
#     Edge 46, Type (0, 0), BuildingBlock: ZUJKAS_clean_linker_0, # of connection points: 2
#     Edge 47, Type (0, 0), BuildingBlock: ZUJKAS_clean_linker_0, # of connection points: 2
# Relax obj value: 0.206
# Max RMSD: 0.222
# Mean RMSD: 0.222
data_MOF--net-mon--node1-QUQFOY_clean_sbu_1--edge1-ZUJKAS_clean_linker_0
_symmetry_space_group_name_H-M    P1
_symmetry_Int_Tables_number       1
_symmetry_cell_setting            triclinic
loop_
_symmetry_equiv_pos_as_xyz
'x, y, z'
_cell_length_a     46.579251
_cell_length_b     46.546088
_cell_length_c     108.84699
_cell_angle_alpha  90.00269
_cell_angle_beta   90.013976
_cell_angle_gamma 90.038992
loop_
_atom_site_label
_atom_site_type_symbol
_atom_site_fract_x
_atom_site_fract_y
_atom_site_fract_z
_atom_type_partial_charge
O0 O 0.02619 0.04327 0.56688 0.0
Cd1 Cd 0.02547 0.04901 0.58575 0.0
Cd2 Cd 0.06543 0.00541 0.5853 0.0
O3 O 0.06281 0.01331 0.56684 0.0
O4 O 0.00856 0.08759 0.58866 0.0
O5 O 0.05355 0.0766 0.59327 0.0
C6 C 0.03323 0.09549 0.59286 0.0
C7 C 0.11076 0.9921 0.59262 0.0
C8 C 0.04438 0.02814 0.56107 0.0
C9 C 0.00838 0.99387 0.59751 0.0
O10 O 0.03165 0.98376 0.59324 0.0
O11 O 0.00235 0.02033 0.5963 0.0
O12 O 0.09604 0.97576 0.58547 0.0
O13 O 0.09988 0.0166 0.59563 0.0
O14 O 0.25564 0.72818 0.8156 0.0
Cd15 Cd 0.24479 0.72136 0.83369 0.0
Cd16 Cd 0.28956 0.75968 0.83793 0.0
O17 O 0.29045 0.75925 0.81903 0.0
O18 O 0.20529 0.70551 0.83301 0.0
O19 O 0.21613 0.74634 0.84243 0.0
C20 C 0.19703 0.7277 0.83916 0.0
C21 C 0.30335 0.80382 0.84651 0.0
C22 C 0.27522 0.74472 0.81161 0.0
C23 C 0.29395 0.6987 0.84807 0.0
O24 O 0.30457 0.72374 0.84702 0.0
O25 O 0.26963 0.69285 0.84342 0.0
O26 O 0.3214 0.78691 0.84128 0.0
O27 O 0.27689 0.79566 0.84702 0.0
O28 O 0.57174 0.95738 0.06788 0.0
Cd29 Cd 0.57336 0.95175 0.08675 0.0
Cd30 Cd 0.53249 0.99427 0.08645 0.0
O31 O 0.53442 0.98648 0.06799 0.0
O32 O 0.59242 0.91408 0.08946 0.0
O33 O 0.54717 0.92258 0.09451 0.0
C34 C 0.56846 0.90482 0.09388 0.0
C35 C 0.48713 0.00539 0.09436 0.0
C36 C 0.55307 0.9721 0.06214 0.0
C37 C 0.58969 0.00778 0.098 0.0
O38 O 0.56605 0.01725 0.09385 0.0
O39 O 0.59614 0.98137 0.09701 0.0
O40 O 0.50051 0.02244 0.08704 0.0
O41 O 0.49942 0.98147 0.09724 0.0
O42 O 0.3442 0.27952 0.31542 0.0
Cd43 Cd 0.3518 0.28122 0.33404 0.0
Cd44 Cd 0.31002 0.23883 0.33515 0.0
O45 O 0.3151 0.24224 0.31643 0.0
O46 O 0.38984 0.29973 0.33631 0.0
O47 O 0.38081 0.25459 0.34152 0.0
C48 C 0.39884 0.27566 0.34074 0.0
C49 C 0.29745 0.19288 0.34215 0.0
C50 C 0.3286 0.26084 0.31015 0.0
C51 C 0.29782 0.29649 0.34712 0.0
O52 O 0.28875 0.27177 0.34403 0.0
O53 O 0.3232 0.30428 0.34446 0.0
O54 O 0.28051 0.20802 0.33547 0.0
O55 O 0.32214 0.20367 0.34493 0.0
O56 O 0.02386 0.95603 0.42699 0.0
Cd57 Cd 0.02076 0.94596 0.4086 0.0
Cd58 Cd 0.05795 0.99204 0.40537 0.0
O59 O 0.05362 0.99228 0.42416 0.0
O60 O 0.00574 0.90612 0.40759 0.0
O61 O 0.04903 0.91863 0.40105 0.0
C62 C 0.02988 0.89887 0.40269 0.0
C63 C 0.1033 0.00683 0.39851 0.0
C64 C 0.03879 0.97657 0.43127 0.0
C65 C -0.00072 0.99528 0.39354 0.0
O66 O 0.02363 0.00691 0.39528 0.0
O67 O 0.99374 0.97069 0.39801 0.0
O68 O 0.08576 0.02417 0.40378 0.0
O69 O 0.09512 0.98061 0.39689 0.0
O70 O 0.35131 0.72046 0.67765 0.0
Cd71 Cd 0.35576 0.71592 0.65894 0.0
Cd72 Cd 0.31425 0.75835 0.65762 0.0
O73 O 0.32291 0.75814 0.67617 0.0
O74 O 0.39434 0.6995 0.65573 0.0
O75 O 0.38139 0.74329 0.64992 0.0
C76 C 0.4009 0.72358 0.65056 0.0
C77 C 0.30046 0.80345 0.65012 0.0
C78 C 0.3372 0.7406 0.68268 0.0
C79 C 0.30042 0.69893 0.64747 0.0
O80 O 0.29192 0.72418 0.65005 0.0
O81 O 0.32597 0.69126 0.64989 0.0
O82 O 0.28455 0.78893 0.6575 0.0
O83 O 0.32463 0.79237 0.6468 0.0
O84 O 0.57367 0.03815 0.927 0.0
Cd85 Cd 0.57551 0.04777 0.90842 0.0
Cd86 Cd 0.53432 0.00484 0.90685 0.0
O87 O 0.53824 0.00684 0.92554 0.0
O88 O 0.59407 0.08609 0.90708 0.0
O89 O 0.54901 0.07784 0.9016 0.0
C90 C 0.57008 0.09572 0.90284 0.0
C91 C 0.48836 0.99276 0.89966 0.0
C92 C 0.5562 0.0207 0.93199 0.0
C93 C 0.59173 0.995 0.89459 0.0
O94 O 0.56756 0.98498 0.89785 0.0
O95 O 0.59887 0.02061 0.89722 0.0
O96 O 0.50428 0.97477 0.90546 0.0
O97 O 0.49844 0.01825 0.89788 0.0
O98 O 0.25078 0.28087 0.17576 0.0
Cd99 Cd 0.24475 0.28046 0.15693 0.0
Cd100 Cd 0.28602 0.23901 0.15753 0.0
O101 O 0.27667 0.24132 0.17589 0.0
O102 O 0.20626 0.29722 0.15375 0.0
O103 O 0.21734 0.25193 0.14964 0.0
C104 C 0.19845 0.27229 0.14978 0.0
C105 C 0.29797 0.19306 0.1505 0.0
C106 C 0.26375 0.26119 0.18163 0.0
C107 C 0.30036 0.29561 0.14544 0.0
O108 O 0.30962 0.27228 0.15003 0.0
O109 O 0.27398 0.30222 0.14622 0.0
O110 O 0.31422 0.20704 0.15794 0.0
O111 O 0.27455 0.20516 0.14685 0.0
O112 O 0.84628 0.22632 0.17497 0.0
Cd113 Cd 0.85044 0.22666 0.15604 0.0
Cd114 Cd 0.80873 0.26788 0.15784 0.0
O115 O 0.82193 0.26681 0.1758 0.0
O116 O 0.88762 0.2076 0.15243 0.0
O117 O 0.87918 0.25349 0.14843 0.0
C118 C 0.89676 0.232 0.14839 0.0
C119 C 0.79422 0.31296 0.15061 0.0
C120 C 0.83509 0.24654 0.18118 0.0
C121 C 0.79328 0.21109 0.14627 0.0
O122 O 0.78441 0.23378 0.15151 0.0
O123 O 0.8199 0.20536 0.14584 0.0
O124 O 0.77983 0.29918 0.15878 0.0
O125 O 0.81735 0.30123 0.14644 0.0
O126 O 0.75032 0.78015 0.67461 0.0
Cd127 Cd 0.74628 0.77834 0.65569 0.0
Cd128 Cd 0.78653 0.73767 0.6581 0.0
O129 O 0.77239 0.73846 0.67592 0.0
O130 O 0.70879 0.79608 0.65154 0.0
O131 O 0.71854 0.75005 0.64843 0.0
C132 C 0.70043 0.77106 0.64791 0.0
C133 C 0.79982 0.69287 0.6502 0.0
C134 C 0.76021 0.75967 0.68106 0.0
C135 C 0.80342 0.79389 0.64655 0.0
O136 O 0.81178 0.77166 0.65229 0.0
O137 O 0.77684 0.79921 0.64541 0.0
O138 O 0.81447 0.70549 0.65864 0.0
O139 O 0.77698 0.70555 0.64624 0.0
O140 O 0.75611 0.22234 0.31446 0.0
Cd141 Cd 0.74609 0.2182 0.3328 0.0
Cd142 Cd 0.79072 0.25609 0.33617 0.0
O143 O 0.79039 0.25435 0.31728 0.0
O144 O 0.70592 0.20422 0.33383 0.0
O145 O 0.71985 0.24672 0.34083 0.0
C146 C 0.6995 0.22826 0.33905 0.0
C147 C 0.80449 0.30067 0.34435 0.0
C148 C 0.77532 0.23888 0.31015 0.0
C149 C 0.7957 0.19613 0.34706 0.0
O150 O 0.80671 0.22081 0.34539 0.0
O151 O 0.77084 0.19044 0.34294 0.0
O152 O 0.82237 0.28394 0.33892 0.0
O153 O 0.77818 0.29218 0.34522 0.0
O154 O 0.84026 0.77526 0.81451 0.0
Cd155 Cd 0.84746 0.77542 0.83325 0.0
Cd156 Cd 0.80549 0.73465 0.83261 0.0
O157 O 0.81543 0.73503 0.81426 0.0
O158 O 0.88578 0.79358 0.83508 0.0
O159 O 0.87639 0.74894 0.84095 0.0
C160 C 0.89465 0.76965 0.83968 0.0
C161 C 0.79158 0.68992 0.84048 0.0
C162 C 0.82779 0.75535 0.80858 0.0
C163 C 0.79229 0.79247 0.84405 0.0
O164 O 0.78268 0.76944 0.8393 0.0
O165 O 0.81894 0.79813 0.84385 0.0
O166 O 0.77612 0.70367 0.83267 0.0
O167 O 0.8154 0.70152 0.84397 0.0
O168 O 0.51771 0.55108 0.06712 0.0
Cd169 Cd 0.51794 0.55648 0.08601 0.0
Cd170 Cd 0.55827 0.51472 0.08485 0.0
O171 O 0.55752 0.52563 0.06662 0.0
O172 O 0.50158 0.59513 0.08931 0.0
O173 O 0.54666 0.58349 0.09347 0.0
C174 C 0.52656 0.60264 0.09332 0.0
C175 C 0.60289 0.50098 0.09282 0.0
C176 C 0.53749 0.53874 0.06106 0.0
C177 C 0.50098 0.50045 0.09629 0.0
O178 O 0.5239 0.4912 0.09137 0.0
O179 O 0.49535 0.52713 0.09638 0.0
O180 O 0.5894 0.48557 0.0849 0.0
O181 O 0.59119 0.52482 0.09624 0.0
O182 O 0.07593 0.45239 0.56707 0.0
Cd183 Cd 0.07824 0.44537 0.58573 0.0
Cd184 Cd 0.0364 0.48882 0.58675 0.0
O185 O 0.03921 0.48215 0.56809 0.0
O186 O 0.09698 0.4074 0.58791 0.0
O187 O 0.05198 0.4161 0.59334 0.0
C188 C 0.07308 0.3982 0.59242 0.0
C189 C 0.99085 0.50341 0.59342 0.0
C190 C 0.05718 0.46787 0.5618 0.0
C191 C 0.09451 0.49956 0.59869 0.0
O192 O 0.07004 0.50921 0.59557 0.0
O193 O 0.10169 0.47398 0.59604 0.0
O194 O 0.0068 0.51952 0.58669 0.0
O195 O 0.00066 0.47851 0.5965 0.0
O196 O 0.51725 0.45579 0.92779 0.0
Cd197 Cd 0.51575 0.44566 0.90937 0.0
Cd198 Cd 0.55461 0.49056 0.90711 0.0
O199 O 0.5514 0.48833 0.92594 0.0
O200 O 0.50071 0.40584 0.90806 0.0
O201 O 0.54463 0.41826 0.90231 0.0
C202 C 0.52532 0.39852 0.90362 0.0
C203 C 0.59958 0.50523 0.89971 0.0
C204 C 0.53427 0.4739 0.9326 0.0
C205 C 0.49612 0.49622 0.89492 0.0
O206 O 0.52019 0.50747 0.89759 0.0
O207 O 0.49016 0.47087 0.89841 0.0
O208 O 0.58298 0.52228 0.90569 0.0
O209 O 0.59081 0.47927 0.8979 0.0
O210 O 0.072 0.53956 0.42698 0.0
Cd211 Cd 0.0747 0.54842 0.40849 0.0
Cd212 Cd 0.03324 0.50485 0.40669 0.0
O213 O 0.03666 0.50816 0.42551 0.0
O214 O 0.09377 0.58645 0.4071 0.0
O215 O 0.04897 0.57851 0.40116 0.0
C216 C 0.07018 0.59616 0.4025 0.0
C217 C 0.9877 0.49127 0.3995 0.0
C218 C 0.0542 0.52253 0.432 0.0
C219 C 0.09144 0.49594 0.39454 0.0
O220 O 0.06678 0.48609 0.39723 0.0
O221 O 0.09873 0.52103 0.39788 0.0
O222 O 0.00408 0.47387 0.4054 0.0
O223 O 0.997 0.51704 0.39768 0.0
H224 H 0.08446 0.12167 0.59811 0.0
H225 H 0.09285 0.17305 0.60154 0.0
H226 H 0.00192 0.18905 0.59875 0.0
H227 H 0.99332 0.13792 0.59533 0.0
H228 H 0.07607 0.21498 0.58375 0.0
H229 H 0.02654 0.23643 0.62922 0.0
H230 H 0.03717 0.20086 0.62436 0.0
H231 H 0.00443 0.21642 0.61873 0.0
C232 C 0.06621 0.13605 0.59846 0.0
C233 C 0.03824 0.12576 0.5964 0.0
C234 C 0.07104 0.16537 0.60042 0.0
C235 C 0.04797 0.18476 0.60053 0.0
C236 C 0.01996 0.17438 0.59893 0.0
H237 H 0.02332 0.36831 0.59655 0.0
H238 H 0.01831 0.31633 0.59955 0.0
C239 C 0.01513 0.14516 0.59688 0.0
C240 C 0.05329 0.21609 0.60094 0.0
H241 H 0.03797 0.2773 0.61694 0.0
C242 C 0.06808 0.22861 0.59108 0.0
C243 C 0.04246 0.23374 0.61043 0.0
C244 C 0.02695 0.22123 0.62135 0.0
C245 C 0.07168 0.25845 0.59026 0.0
C246 C 0.06087 0.2762 0.59976 0.0
C247 C 0.04631 0.26365 0.6097 0.0
C248 C 0.064 0.30789 0.59931 0.0
C249 C 0.08606 0.2707 0.57898 0.0
C250 C 0.09133 0.32044 0.59862 0.0
C251 C 0.09423 0.34997 0.59676 0.0
C252 C 0.06984 0.36759 0.59578 0.0
C253 C 0.0425 0.35525 0.59723 0.0
C254 C 0.03961 0.32559 0.59895 0.0
H255 H 0.08596 0.2552 0.57122 0.0
H256 H 0.07531 0.29076 0.57594 0.0
H257 H 0.10876 0.27581 0.58117 0.0
H258 H 0.11045 0.30727 0.5992 0.0
H259 H 0.11561 0.3589 0.59585 0.0
H260 H 0.93972 0.79749 0.82946 0.0
H261 H 0.99064 0.78939 0.8331 0.0
H262 H 0.96992 0.72665 0.86095 0.0
H263 H 0.91863 0.73335 0.85666 0.0
H264 H 0.02462 0.79657 0.85123 0.0
H265 H 0.0225 0.67971 0.84096 0.0
H266 H 0.99173 0.70238 0.83855 0.0
H267 H 0.00042 0.68971 0.85374 0.0
C268 C 0.94601 0.78194 0.83636 0.0
C269 C 0.92529 0.76582 0.84269 0.0
C270 C 0.97516 0.77737 0.83847 0.0
C271 C 0.9843 0.75698 0.84714 0.0
C272 C 0.96353 0.74178 0.85391 0.0
H273 H 0.17287 0.75627 0.85859 0.0
H274 H 0.12149 0.76233 0.86287 0.0
C275 C 0.93424 0.74577 0.85154 0.0
C276 C 0.01557 0.75157 0.84869 0.0
H277 H 0.06693 0.69955 0.84654 0.0
C278 C 0.03389 0.77532 0.85022 0.0
C279 C 0.0277 0.72385 0.84737 0.0
C280 C 0.00963 0.6975 0.84495 0.0
C281 C 0.06387 0.77243 0.84977 0.0
C282 C 0.07599 0.74472 0.84839 0.0
C283 C 0.05767 0.72079 0.84758 0.0
C284 C 0.10728 0.74014 0.84645 0.0
C285 C 0.082 0.79933 0.85001 0.0
C286 C 0.11648 0.72457 0.83612 0.0
C287 C 0.14563 0.72024 0.83393 0.0
C288 C 0.16631 0.73189 0.84187 0.0
C289 C 0.15729 0.7474 0.85224 0.0
C290 C 0.12796 0.75104 0.85464 0.0
H291 H 0.0692 0.81879 0.84779 0.0
H292 H 0.09104 0.80226 0.85936 0.0
H293 H 0.10003 0.7979 0.84338 0.0
H294 H 0.10107 0.71598 0.82963 0.0
H295 H 0.152 0.70828 0.82584 0.0
H296 H 0.48769 0.64622 0.09524 0.0
H297 H 0.49749 0.69714 0.09872 0.0
H298 H 0.58762 0.67855 0.10292 0.0
H299 H 0.57807 0.6274 0.09937 0.0
H300 H 0.52662 0.72796 0.1186 0.0
H301 H 0.582 0.73544 0.07338 0.0
H302 H 0.55937 0.70542 0.07744 0.0
H303 H 0.59487 0.70827 0.08374 0.0
C304 C 0.50958 0.65285 0.09704 0.0
C305 C 0.53217 0.6328 0.0969 0.0
C306 C 0.5151 0.68196 0.09907 0.0
C307 C 0.54328 0.69159 0.10092 0.0
C308 C 0.56574 0.67151 0.10137 0.0
H309 H 0.61101 0.86521 0.09667 0.0
H310 H 0.60583 0.81372 0.10032 0.0
C311 C 0.56024 0.64232 0.09937 0.0
C312 C 0.54921 0.72281 0.10149 0.0
H313 H 0.57883 0.7777 0.08505 0.0
C314 C 0.5382 0.73889 0.11132 0.0
C315 C 0.56423 0.73692 0.09195 0.0
C316 C 0.57567 0.72077 0.08096 0.0
C317 C 0.5419 0.76884 0.11188 0.0
C318 C 0.55642 0.78303 0.1022 0.0
C319 C 0.56777 0.7668 0.09248 0.0
C320 C 0.55949 0.81476 0.10166 0.0
C321 C 0.53048 0.78492 0.12287 0.0
C322 C 0.53517 0.83259 0.10139 0.0
C323 C 0.53808 0.86216 0.0994 0.0
C324 C 0.56535 0.87431 0.09745 0.0
C325 C 0.58969 0.85652 0.09809 0.0
C326 C 0.58678 0.82707 0.10018 0.0
H327 H 0.52819 0.77059 0.13098 0.0
H328 H 0.54471 0.80315 0.12537 0.0
H329 H 0.50892 0.79362 0.12065 0.0
H330 H 0.51385 0.82352 0.10222 0.0
H331 H 0.51892 0.87528 0.09888 0.0
H332 H 0.654 0.19146 0.33869 0.0
H333 H 0.60357 0.20267 0.34252 0.0
H334 H 0.62619 0.29036 0.35083 0.0
H335 H 0.67693 0.27938 0.34701 0.0
H336 H 0.57501 0.22943 0.36432 0.0
H337 H 0.56834 0.29281 0.32097 0.0
H338 H 0.59697 0.26755 0.32384 0.0
H339 H 0.59676 0.30164 0.33152 0.0
C340 C 0.64835 0.2131 0.34144 0.0
C341 C 0.66943 0.23462 0.34244 0.0
C342 C 0.61953 0.2194 0.34367 0.0
C343 C 0.61123 0.24734 0.34685 0.0
C344 C 0.63225 0.26869 0.3483 0.0
H345 H 0.43853 0.31791 0.34415 0.0
H346 H 0.48995 0.31232 0.34778 0.0
C347 C 0.66118 0.26237 0.34613 0.0
C348 C 0.58037 0.25433 0.34781 0.0
H349 H 0.52601 0.2874 0.33235 0.0
C350 C 0.56424 0.24232 0.35741 0.0
C351 C 0.56653 0.27114 0.33878 0.0
C352 C 0.58287 0.28396 0.32813 0.0
C353 C 0.53443 0.24657 0.35817 0.0
C354 C 0.52041 0.26261 0.3489 0.0
C355 C 0.53676 0.27513 0.33946 0.0
C356 C 0.48874 0.26586 0.34839 0.0
C357 C 0.51834 0.234 0.36893 0.0
C358 C 0.47084 0.2416 0.34771 0.0
C359 C 0.44132 0.24475 0.34575 0.0
C360 C 0.42931 0.2722 0.34422 0.0
C361 C 0.44716 0.29645 0.34523 0.0
C362 C 0.47656 0.2933 0.34732 0.0
H363 H 0.53267 0.23099 0.37699 0.0
H364 H 0.50007 0.24789 0.37168 0.0
H365 H 0.50978 0.2126 0.36633 0.0
H366 H 0.47981 0.22017 0.34819 0.0
H367 H 0.42814 0.22566 0.34493 0.0
H368 H 0.08137 0.87386 0.3969 0.0
H369 H 0.09074 0.82258 0.39353 0.0
H370 H 0.00059 0.80428 0.39797 0.0
H371 H 0.99105 0.85523 0.40141 0.0
H372 H 0.07516 0.77955 0.41189 0.0
H373 H 0.02477 0.75866 0.36651 0.0
H374 H 0.03597 0.79409 0.37136 0.0
H375 H 0.00323 0.77886 0.37715 0.0
C376 C 0.06351 0.85895 0.39697 0.0
C377 C 0.0355 0.86854 0.39947 0.0
C378 C 0.06889 0.82972 0.39504 0.0
C379 C 0.04629 0.80978 0.39536 0.0
C380 C 0.01823 0.81942 0.39748 0.0
H381 H 0.02096 0.62685 0.39842 0.0
H382 H 0.01676 0.67894 0.39566 0.0
C383 C 0.01287 0.84852 0.39953 0.0
C384 C 0.05217 0.7786 0.39476 0.0
H385 H 0.03683 0.71768 0.37857 0.0
C386 C 0.06716 0.76601 0.40454 0.0
C387 C 0.04133 0.76111 0.38522 0.0
C388 C 0.0256 0.77381 0.3744 0.0
C389 C 0.07079 0.73616 0.40526 0.0
C390 C 0.05983 0.71852 0.39574 0.0
C391 C 0.04525 0.73122 0.38584 0.0
C392 C 0.06256 0.68681 0.39616 0.0
C393 C 0.08523 0.72376 0.4165 0.0
C394 C 0.08969 0.6739 0.39693 0.0
C395 C 0.09213 0.64429 0.39867 0.0
C396 C 0.06746 0.62695 0.39942 0.0
C397 C 0.04034 0.63968 0.39791 0.0
C398 C 0.03791 0.66941 0.39633 0.0
H399 H 0.08527 0.73919 0.42429 0.0
H400 H 0.07444 0.7037 0.41953 0.0
H401 H 0.1079 0.71862 0.41427 0.0
H402 H 0.10901 0.68682 0.39648 0.0
H403 H 0.11335 0.63505 0.39962 0.0
H404 H 0.42436 0.77425 0.64261 0.0
H405 H 0.47491 0.78367 0.63785 0.0
H406 H 0.49486 0.69442 0.64413 0.0
H407 H 0.44455 0.68478 0.64884 0.0
H408 H 0.51828 0.77349 0.65538 0.0
H409 H 0.53961 0.71297 0.61245 0.0
H410 H 0.50383 0.72285 0.61728 0.0
H411 H 0.52154 0.69251 0.62412 0.0
C412 C 0.43941 0.75652 0.64273 0.0
C413 C 0.43049 0.7288 0.64616 0.0
C414 C 0.46825 0.76194 0.64 0.0
C415 C 0.48853 0.73967 0.6405 0.0
C416 C 0.47947 0.71178 0.64345 0.0
H417 H 0.67144 0.72012 0.6458 0.0
H418 H 0.61978 0.71372 0.64249 0.0
C419 C 0.45072 0.70638 0.64624 0.0
C420 C 0.51956 0.74608 0.63947 0.0
H421 H 0.5807 0.72803 0.62398 0.0
C422 C 0.5319 0.76393 0.64841 0.0
C423 C 0.53723 0.73324 0.63046 0.0
C424 C 0.52489 0.71451 0.62046 0.0
C425 C 0.56162 0.76853 0.64885 0.0
C426 C 0.57941 0.75552 0.63989 0.0
C427 C 0.56701 0.73804 0.63081 0.0
C428 C 0.61102 0.75906 0.64018 0.0
C429 C 0.57376 0.78627 0.65925 0.0
C430 C 0.62332 0.78652 0.63948 0.0
C431 C 0.65267 0.79026 0.64152 0.0
C432 C 0.67034 0.76653 0.64407 0.0
C433 C 0.65834 0.73882 0.6439 0.0
C434 C 0.62885 0.73513 0.642 0.0
H435 H 0.55829 0.7884 0.66697 0.0
H436 H 0.59389 0.77666 0.66284 0.0
H437 H 0.57872 0.80819 0.65584 0.0
H438 H 0.61004 0.8052 0.63778 0.0
H439 H 0.66137 0.81185 0.64142 0.0
H440 H 0.57722 0.37369 0.89837 0.0
H441 H 0.58704 0.32244 0.89518 0.0
H442 H 0.49683 0.30362 0.89895 0.0
H443 H 0.48682 0.35455 0.90218 0.0
H444 H 0.57158 0.27925 0.91326 0.0
H445 H 0.52201 0.2582 0.86773 0.0
H446 H 0.5325 0.29375 0.8727 0.0
H447 H 0.49994 0.27785 0.87835 0.0
C448 C 0.55944 0.35868 0.89833 0.0
C449 C 0.53126 0.36814 0.90057 0.0
C450 C 0.56509 0.32945 0.89651 0.0
C451 C 0.54261 0.30936 0.89669 0.0
C452 C 0.5144 0.31886 0.89857 0.0
H453 H 0.52025 0.12566 0.89907 0.0
H454 H 0.515 0.17776 0.89669 0.0
C455 C 0.50877 0.34796 0.9005 0.0
C456 C 0.54873 0.27821 0.89609 0.0
H457 H 0.5344 0.21725 0.87974 0.0
C458 C 0.56381 0.26569 0.90586 0.0
C459 C 0.53821 0.26066 0.88649 0.0
C460 C 0.52244 0.27325 0.87566 0.0
C461 C 0.56789 0.23588 0.90652 0.0
C462 C 0.55728 0.21821 0.89694 0.0
C463 C 0.54256 0.23082 0.88706 0.0
C464 C 0.56063 0.18653 0.89725 0.0
C465 C 0.58249 0.22355 0.91773 0.0
C466 C 0.58802 0.17413 0.89794 0.0
C467 C 0.59105 0.1445 0.89945 0.0
C468 C 0.56674 0.12663 0.90006 0.0
C469 C 0.53936 0.13889 0.89867 0.0
C470 C 0.53634 0.16863 0.8973 0.0
H471 H 0.5822 0.23884 0.92556 0.0
H472 H 0.57206 0.20324 0.92068 0.0
H473 H 0.60526 0.21887 0.91551 0.0
H474 H 0.60708 0.18745 0.89758 0.0
H475 H 0.61246 0.13565 0.90032 0.0
H476 H 0.155 0.31143 0.1485 0.0
H477 H 0.10415 0.30213 0.14472 0.0
H478 H 0.1225 0.21233 0.13905 0.0
H479 H 0.17356 0.22135 0.14293 0.0
H480 H 0.07363 0.27586 0.12445 0.0
H481 H 0.06503 0.2144 0.16817 0.0
H482 H 0.09542 0.23705 0.1647 0.0
H483 H 0.09209 0.2024 0.15758 0.0
C484 C 0.14832 0.28972 0.14633 0.0
C485 C 0.16828 0.26705 0.14616 0.0
C486 C 0.11926 0.28449 0.14413 0.0
C487 C 0.10958 0.25652 0.14177 0.0
C488 C 0.12956 0.23402 0.14102 0.0
H489 H 0.93564 0.18952 0.14403 0.0
H490 H 0.98705 0.19473 0.14031 0.0
C491 C 0.15871 0.23923 0.14321 0.0
C492 C 0.07838 0.25079 0.14095 0.0
H493 H 0.0231 0.21915 0.15641 0.0
C494 C 0.06253 0.2633 0.13137 0.0
C495 C 0.06404 0.2345 0.15003 0.0
C496 C 0.07988 0.22145 0.16077 0.0
C497 C 0.03259 0.25988 0.13063 0.0
C498 C 0.01819 0.24404 0.13986 0.0
C499 C 0.03418 0.23119 0.14931 0.0
C500 C 0.98648 0.24121 0.14027 0.0
C501 C 0.01675 0.27305 0.11994 0.0
C502 C 0.96893 0.26564 0.14127 0.0
C503 C 0.9394 0.26273 0.14332 0.0
C504 C 0.92705 0.23533 0.14459 0.0
C505 C 0.94452 0.21094 0.14316 0.0
C506 C 0.97392 0.21386 0.14102 0.0
H507 H 0.03118 0.27644 0.11195 0.0
H508 H 0.99845 0.25934 0.11702 0.0
H509 H 0.00818 0.29431 0.12273 0.0
H510 H 0.97821 0.28696 0.14102 0.0
H511 H 0.92653 0.28191 0.14445 0.0
H512 H 0.01907 0.94294 0.45019 0.0
H513 H 0.01839 0.95493 0.4721 0.0
H514 H 0.05536 0.03786 0.46407 0.0
H515 H 0.05706 0.02572 0.44232 0.0
H516 H 0.08197 0.01385 0.48264 0.0
H517 H 0.96477 0.0068 0.49064 0.0
H518 H 0.97926 0.97419 0.48444 0.0
H519 H 0.98018 0.00662 0.47543 0.0
C520 C 0.02698 0.96374 0.45311 0.0
C521 C 0.03816 0.98334 0.44453 0.0
C522 C 0.02633 0.97068 0.46561 0.0
C523 C 0.0363 0.99753 0.46969 0.0
C524 C 0.04744 0.01707 0.46113 0.0
H525 H 0.01146 0.05967 0.54501 0.0
H526 H 0.00968 0.055 0.52257 0.0
C527 C 0.04845 0.01004 0.44869 0.0
C528 C 0.03657 0.00487 0.48294 0.0
H529 H 0.99453 0.00887 0.50856 0.0
C530 C 0.06278 0.013 0.48828 0.0
C531 C 0.01144 0.00433 0.49024 0.0
C532 C 0.98228 0.99782 0.48487 0.0
C533 C 0.06473 0.01978 0.50079 0.0
C534 C 0.03997 0.01751 0.50824 0.0
C535 C 0.01355 0.01029 0.50285 0.0
C536 C 0.0414 0.02109 0.52173 0.0
C537 C 0.09331 0.02946 0.50586 0.0
C538 C 0.05958 0.00341 0.52866 0.0
C539 C 0.06085 0.0062 0.54138 0.0
C540 C 0.04359 0.02643 0.5475 0.0
C541 C 0.02511 0.04398 0.54057 0.0
C542 C 0.02403 0.0413 0.52777 0.0
H543 H 0.10693 0.03919 0.49858 0.0
H544 H 0.09054 0.04538 0.51336 0.0
H545 H 0.10497 0.01059 0.50958 0.0
H546 H 0.07257 0.98713 0.52423 0.0
H547 H 0.07507 0.99207 0.54643 0.0
H548 H 0.31189 0.78125 0.79975 0.0
H549 H 0.32364 0.7821 0.77788 0.0
H550 H 0.26523 0.71169 0.77155 0.0
H551 H 0.25284 0.71105 0.79336 0.0
H552 H 0.34757 0.73963 0.76385 0.0
H553 H 0.24033 0.76943 0.74575 0.0
H554 H 0.24943 0.7723 0.76182 0.0
H555 H 0.23973 0.73808 0.75534 0.0
C556 C 0.30132 0.7661 0.7937 0.0
C557 C 0.2813 0.74617 0.79829 0.0
C558 C 0.30813 0.76658 0.78121 0.0
C559 C 0.29506 0.74719 0.77308 0.0
C560 C 0.2751 0.72725 0.77762 0.0
H561 H 0.35242 0.70028 0.69983 0.0
H562 H 0.34429 0.70251 0.72203 0.0
C563 C 0.26813 0.72686 0.7901 0.0
C564 C 0.3029 0.74736 0.75991 0.0
H565 H 0.27495 0.75412 0.73111 0.0
C566 C 0.33175 0.74294 0.75667 0.0
C567 C 0.28226 0.75203 0.7506 0.0
C568 C 0.25126 0.75851 0.75353 0.0
C569 C 0.34046 0.74268 0.74433 0.0
C570 C 0.31963 0.74634 0.73501 0.0
C571 C 0.29086 0.75111 0.73828 0.0
C572 C 0.32702 0.7457 0.72179 0.0
C573 C 0.3719 0.73898 0.74141 0.0
C574 C 0.31992 0.76915 0.7143 0.0
C575 C 0.32417 0.76779 0.70164 0.0
C576 C 0.33568 0.74293 0.6962 0.0
C577 C 0.34371 0.7198 0.70376 0.0
C578 C 0.33919 0.72109 0.71645 0.0
H579 H 0.38568 0.74459 0.74939 0.0
H580 H 0.37605 0.71618 0.73902 0.0
H581 H 0.37832 0.7525 0.73346 0.0
H582 H 0.31051 0.78834 0.71824 0.0
H583 H 0.31788 0.78604 0.69609 0.0
H584 H 0.52326 0.00941 0.04776 0.0
H585 H 0.52568 0.01496 0.02559 0.0
H586 H 0.58654 0.94533 0.02344 0.0
H587 H 0.58494 0.94013 0.04587 0.0
H588 H 0.60269 0.99064 0.00939 0.0
H589 H 0.4889 0.96474 5e-05 0.0
H590 H 0.49222 0.99333 0.01099 0.0
H591 H 0.50543 0.95803 0.01476 0.0
C592 C 0.537 0.99503 0.04261 0.0
C593 C 0.55374 0.97413 0.04858 0.0
C594 C 0.53825 0.99818 0.0299 0.0
C595 C 0.5558 0.98017 0.02284 0.0
C596 C 0.57268 0.95931 0.02873 0.0
H597 H 0.536 0.97362 0.94387 0.0
H598 H 0.53847 0.96283 0.96571 0.0
C599 C 0.57168 0.95631 0.04152 0.0
C600 C 0.55694 0.98386 0.00934 0.0
H601 H 0.51431 0.98895 0.98398 0.0
C602 C 0.58344 0.98995 0.00378 0.0
C603 C 0.53186 0.98257 0.00203 0.0
C604 C 0.50307 0.974 0.00725 0.0
C605 C 0.58543 0.99556 0.99113 0.0
C606 C 0.56007 0.99589 0.98396 0.0
C607 C 0.5337 0.98911 0.9895 0.0
C608 C 0.56022 0.00232 0.97062 0.0
C609 C 0.61469 0.0006 0.98559 0.0
C610 C 0.57161 0.02819 0.96607 0.0
C611 C 0.57062 0.03427 0.95348 0.0
C612 C 0.55757 0.01487 0.94531 0.0
C613 C 0.54597 0.98916 0.94994 0.0
C614 C 0.54743 0.9829 0.96243 0.0
H615 H 0.63195 0.99107 0.99134 0.0
H616 H 0.61614 0.99136 0.9762 0.0
H617 H 0.61871 0.02405 0.98498 0.0
H618 H 0.58088 0.04388 0.97226 0.0
H619 H 0.57958 0.05431 0.95017 0.0
H620 H 0.28469 0.2196 0.19674 0.0
H621 H 0.29425 0.22303 0.21868 0.0
H622 H 0.25894 0.30864 0.21923 0.0
H623 H 0.24896 0.30536 0.19714 0.0
H624 H 0.33051 0.26495 0.22934 0.0
H625 H 0.21985 0.26765 0.24862 0.0
H626 H 0.22733 0.25532 0.23321 0.0
H627 H 0.22764 0.29305 0.23661 0.0
C628 C 0.27857 0.23907 0.20151 0.0
C629 C 0.26614 0.26227 0.19517 0.0
C630 C 0.28413 0.24098 0.21406 0.0
C631 C 0.2773 0.26605 0.22055 0.0
C632 C 0.26407 0.28898 0.21438 0.0
H633 H 0.34763 0.30157 0.29383 0.0
H634 H 0.33609 0.30501 0.27192 0.0
C635 C 0.25841 0.28707 0.20178 0.0
C636 C 0.28551 0.26836 0.23362 0.0
H637 H 0.25821 0.27159 0.26266 0.0
C638 C 0.31476 0.26659 0.23665 0.0
C639 C 0.26482 0.27036 0.24307 0.0
C640 C 0.23311 0.27151 0.24029 0.0
C641 C 0.3239 0.26619 0.24892 0.0
C642 C 0.30321 0.268 0.25837 0.0
C643 C 0.27399 0.27032 0.25535 0.0
C644 C 0.31122 0.26574 0.27147 0.0
C645 C 0.35546 0.26278 0.25168 0.0
C646 C 0.30103 0.24256 0.27843 0.0
C647 C 0.30748 0.24055 0.29091 0.0
C648 C 0.3242 0.26178 0.29669 0.0
C649 C 0.33487 0.28476 0.28963 0.0
C650 C 0.32832 0.28677 0.27712 0.0
H651 H 0.36781 0.25589 0.24345 0.0
H652 H 0.36429 0.28366 0.25483 0.0
H653 H 0.35884 0.24681 0.25912 0.0
H654 H 0.28786 0.22608 0.27421 0.0
H655 H 0.29892 0.22256 0.29605 0.0
H656 H 0.82133 0.28994 0.19685 0.0
H657 H 0.81431 0.28693 0.219 0.0
H658 H 0.83997 0.19792 0.21842 0.0
H659 H 0.84756 0.20085 0.19617 0.0
H660 H 0.77487 0.25074 0.22983 0.0
H661 H 0.88474 0.23033 0.24773 0.0
H662 H 0.87821 0.24371 0.23241 0.0
H663 H 0.87307 0.20629 0.23581 0.0
C664 C 0.82598 0.26982 0.20144 0.0
C665 C 0.83489 0.24558 0.19475 0.0
C666 C 0.82191 0.26815 0.2141 0.0
C667 C 0.82667 0.24225 0.22034 0.0
C668 C 0.8366 0.21824 0.21379 0.0
H669 H 0.75179 0.20482 0.29222 0.0
H670 H 0.76394 0.20417 0.27034 0.0
C671 C 0.84086 0.21994 0.20109 0.0
C672 C 0.81904 0.24006 0.23349 0.0
H673 H 0.84654 0.22776 0.26206 0.0
C674 C 0.79052 0.24569 0.23689 0.0
C675 C 0.83956 0.2336 0.24264 0.0
C676 C 0.87068 0.22836 0.23953 0.0
C677 C 0.78197 0.24531 0.24923 0.0
C678 C 0.8024 0.23856 0.25838 0.0
C679 C 0.8309 0.23274 0.25499 0.0
C680 C 0.79493 0.23872 0.27158 0.0
C681 C 0.75135 0.25294 0.25239 0.0
C682 C 0.80862 0.25808 0.27952 0.0
C683 C 0.80185 0.25843 0.292 0.0
C684 C 0.78129 0.23933 0.2968 0.0
C685 C 0.76754 0.21997 0.2888 0.0
C686 C 0.77441 0.21959 0.2763 0.0
H687 H 0.74036 0.26403 0.24467 0.0
H688 H 0.73924 0.23298 0.25446 0.0
H689 H 0.7505 0.26699 0.26063 0.0
H690 H 0.82451 0.27301 0.27603 0.0
H691 H 0.81291 0.27358 0.29789 0.0
H692 H 0.76594 0.71565 0.6973 0.0
H693 H 0.77435 0.71918 0.71941 0.0
H694 H 0.76517 0.81122 0.71752 0.0
H695 H 0.75631 0.80791 0.69532 0.0
H696 H 0.82093 0.78363 0.7282 0.0
H697 H 0.71796 0.74637 0.74864 0.0
H698 H 0.73117 0.72683 0.73553 0.0
H699 H 0.71988 0.76342 0.73373 0.0
C700 C 0.76512 0.7366 0.70162 0.0
C701 C 0.76054 0.76152 0.69459 0.0
C702 C 0.76989 0.73856 0.71423 0.0
C703 C 0.77034 0.76543 0.72001 0.0
C704 C 0.76475 0.7903 0.71316 0.0
H705 H 0.83438 0.80277 0.79401 0.0
H706 H 0.82145 0.80729 0.77232 0.0
C707 C 0.75958 0.78835 0.70052 0.0
C708 C 0.77915 0.76738 0.73299 0.0
H709 H 0.75807 0.74942 0.76194 0.0
C710 C 0.80716 0.77654 0.73564 0.0
C711 C 0.76111 0.75783 0.74255 0.0
C712 C 0.73075 0.74819 0.74006 0.0
C713 C 0.81808 0.77532 0.74765 0.0
C714 C 0.80016 0.7653 0.75723 0.0
C715 C 0.77183 0.75695 0.75457 0.0
C716 C 0.81043 0.7624 0.77005 0.0
C717 C 0.849 0.78353 0.74985 0.0
C718 C 0.80854 0.7357 0.77597 0.0
C719 C 0.81551 0.73314 0.78838 0.0
C720 C 0.82466 0.75724 0.7951 0.0
C721 C 0.8277 0.78374 0.78904 0.0
C722 C 0.82037 0.78636 0.77664 0.0
H723 H 0.86171 0.7832 0.74121 0.0
H724 H 0.84989 0.80566 0.75361 0.0
H725 H 0.85928 0.76884 0.75657 0.0
H726 H 0.80099 0.71692 0.77105 0.0
H727 H 0.813 0.71242 0.79279 0.0
H728 H 0.49567 0.45323 0.94947 0.0
H729 H 0.49198 0.4663 0.97121 0.0
H730 H 0.56653 0.52065 0.96764 0.0
H731 H 0.57018 0.50816 0.94595 0.0
H732 H 0.53066 0.45923 0.99003 0.0
H733 H 0.50788 0.57481 0.98295 0.0
H734 H 0.50553 0.54874 0.9707 0.0
H735 H 0.5398 0.56324 0.97517 0.0
C736 C 0.51133 0.4679 0.95332 0.0
C737 C 0.5331 0.4798 0.94595 0.0
C738 C 0.50912 0.47541 0.96572 0.0
C739 C 0.52855 0.49498 0.97093 0.0
C740 C 0.55081 0.50616 0.9637 0.0
H741 H 0.57879 0.51889 0.04552 0.0
H742 H 0.57429 0.50948 0.02357 0.0
C743 C 0.553 0.49877 0.95132 0.0
C744 C 0.52628 0.5031 0.98403 0.0
H745 H 0.52237 0.56096 0.00326 0.0
C746 C 0.52853 0.48143 0.99292 0.0
C747 C 0.52299 0.53204 0.98778 0.0
C748 C 0.51861 0.55601 0.97865 0.0
C749 C 0.52889 0.48806 0.00548 0.0
C750 C 0.52749 0.51715 0.0092 0.0
C751 C 0.52389 0.53872 0.00035 0.0
C752 C 0.53082 0.52549 0.02222 0.0
C753 C 0.53095 0.46386 0.01467 0.0
C754 C 0.50835 0.53899 0.02856 0.0
C755 C 0.51091 0.54466 0.04114 0.0
C756 C 0.53603 0.53692 0.04751 0.0
C757 C 0.55903 0.52483 0.04093 0.0
C758 C 0.55646 0.51927 0.0284 0.0
H759 H 0.52376 0.44312 0.01065 0.0
H760 H 0.55365 0.46134 0.01758 0.0
H761 H 0.51784 0.46844 0.02296 0.0
H762 H 0.4885 0.5442 0.02388 0.0
H763 H 0.49284 0.55403 0.04594 0.0
H764 H 0.01605 0.49322 0.54767 0.0
H765 H 0.01681 0.50105 0.52553 0.0
H766 H 0.09855 0.45792 0.52312 0.0
H767 H 0.09774 0.44942 0.54532 0.0
H768 H 0.05655 0.53197 0.51262 0.0
H769 H 0.05239 0.41922 0.49598 0.0
H770 H 0.04441 0.42891 0.51166 0.0
H771 H 0.08104 0.42658 0.50657 0.0
C772 C 0.03409 0.48509 0.54244 0.0
C773 C 0.05685 0.47066 0.54826 0.0
C774 C 0.03449 0.48965 0.52978 0.0
C775 C 0.05761 0.47989 0.52268 0.0
C776 C 0.08024 0.46517 0.52841 0.0
H777 H 0.09368 0.5426 0.44859 0.0
H778 H 0.09558 0.53277 0.47066 0.0
C779 C 0.07979 0.46041 0.5411 0.0
C780 C 0.05839 0.48635 0.50937 0.0
H781 H 0.05973 0.45537 0.48098 0.0
C782 C 0.05725 0.51524 0.50568 0.0
C783 C 0.05908 0.46445 0.50038 0.0
C784 C 0.05904 0.43303 0.5038 0.0
C785 C 0.05662 0.52285 0.49322 0.0
C786 C 0.05777 0.50097 0.48423 0.0
C787 C 0.05904 0.47209 0.48791 0.0
C788 C 0.05658 0.50747 0.47093 0.0
C789 C 0.05388 0.55416 0.48982 0.0
C790 C 0.03428 0.49614 0.46376 0.0
C791 C 0.03326 0.50148 0.45116 0.0
C792 C 0.05457 0.51827 0.44547 0.0
C793 C 0.0768 0.5298 0.4527 0.0
C794 C 0.07788 0.52429 0.46532 0.0
H795 H 0.04596 0.56729 0.49764 0.0
H796 H 0.07527 0.56256 0.48712 0.0
H797 H 0.03905 0.55703 0.48193 0.0
H798 H 0.01764 0.48309 0.46792 0.0
H799 H 0.01585 0.49225 0.44586 0.0
H800 H 0.31378 0.82956 0.62826 0.0
H801 H 0.28913 0.87097 0.61912 0.0
H802 H 0.23959 0.88142 0.65231 0.0
H803 H 0.26333 0.83972 0.66125 0.0
H804 H 0.20628 0.87439 0.6327 0.0
H805 H 0.28771 0.95799 0.62249 0.0
H806 H 0.29686 0.92312 0.61663 0.0
H807 H 0.29445 0.92862 0.63295 0.0
C808 C 0.29816 0.84121 0.63368 0.0
C809 C 0.29017 0.83129 0.64538 0.0
C810 C 0.28422 0.86498 0.6285 0.0
C811 C 0.26259 0.8794 0.63506 0.0
C812 C 0.25618 0.87063 0.64708 0.0
H813 H 0.13994 0.01191 0.61285 0.0
H814 H 0.18062 0.98823 0.62308 0.0
C815 C 0.2697 0.84674 0.65216 0.0
C816 C 0.24352 0.90042 0.62889 0.0
H817 H 0.2418 0.96331 0.61265 0.0
C818 C 0.21409 0.89401 0.62847 0.0
C819 C 0.25369 0.926 0.62335 0.0
C820 C 0.28488 0.93454 0.62396 0.0
C821 C 0.19463 0.91208 0.62249 0.0
C822 C 0.20487 0.93707 0.61659 0.0
C823 C 0.23416 0.944 0.61717 0.0
C824 C 0.1851 0.95505 0.60931 0.0
C825 C 0.1632 0.9041 0.62234 0.0
C826 C 0.17496 0.94465 0.59804 0.0
C827 C 0.15172 0.95782 0.59229 0.0
C828 C 0.1383 0.98176 0.59767 0.0
C829 C 0.14987 0.99348 0.6085 0.0
C830 C 0.17311 0.98008 0.61433 0.0
H831 H 0.1581 0.88696 0.6291 0.0
H832 H 0.14968 0.92317 0.62436 0.0
H833 H 0.15732 0.89621 0.61305 0.0
H834 H 0.18398 0.92531 0.59407 0.0
H835 H 0.14349 0.94847 0.58388 0.0
H836 H 0.35838 0.82195 0.84862 0.0
H837 H 0.37598 0.86675 0.85716 0.0
H838 H 0.28909 0.894 0.86438 0.0
H839 H 0.27107 0.84829 0.85599 0.0
H840 H 0.36573 0.92283 0.84997 0.0
H841 H 0.32807 0.903 0.89786 0.0
H842 H 0.32827 0.87479 0.8865 0.0
H843 H 0.302 0.9029 0.88567 0.0
C844 C 0.34287 0.83736 0.85201 0.0
C845 C 0.3133 0.83147 0.85169 0.0
C846 C 0.35301 0.86309 0.85685 0.0
C847 C 0.3339 0.88371 0.86145 0.0
C848 C 0.30424 0.87823 0.86101 0.0
H849 H 0.44905 0.0239 0.88615 0.0
H850 H 0.40391 0.00604 0.87722 0.0
C851 C 0.29399 0.85217 0.85621 0.0
C852 C 0.34603 0.91015 0.867 0.0
H853 H 0.36282 0.93851 0.89498 0.0
C854 C 0.36458 0.9269 0.85977 0.0
C855 C 0.34421 0.91547 0.87976 0.0
C856 C 0.3247 0.89812 0.88797 0.0
C857 C 0.38369 0.94657 0.86513 0.0
C858 C 0.38364 0.95006 0.87804 0.0
C859 C 0.36286 0.93566 0.88509 0.0
C860 C 0.40847 0.96302 0.88454 0.0
C861 C 0.4056 0.96125 0.85705 0.0
C862 C 0.42536 0.94517 0.89197 0.0
C863 C 0.45075 0.95529 0.89712 0.0
C864 C 0.46002 0.98356 0.89494 0.0
C865 C 0.44257 0.00193 0.8879 0.0
C866 C 0.41686 0.99174 0.88276 0.0
H867 H 0.40467 0.9536 0.84739 0.0
H868 H 0.40165 0.98474 0.85707 0.0
H869 H 0.42761 0.95748 0.86063 0.0
H870 H 0.4194 0.92292 0.89345 0.0
H871 H 0.4635 0.94057 0.90257 0.0
H872 H 0.45101 0.0464 0.08574 0.0
H873 H 0.40991 0.06748 0.09632 0.0
H874 H 0.4198 0.00665 0.12586 0.0
H875 H 0.46105 0.98503 0.11523 0.0
H876 H 0.35431 0.03416 0.11211 0.0
H877 H 0.4383 0.10112 0.13489 0.0
H878 H 0.44348 0.08907 0.1193 0.0
H879 H 0.44443 0.06361 0.13163 0.0
C880 C 0.44407 0.03702 0.09435 0.0
C881 C 0.45944 0.0143 0.09974 0.0
C882 C 0.42046 0.04896 0.10032 0.0
C883 C 0.41192 0.03854 0.11182 0.0
C884 C 0.42602 0.01472 0.11691 0.0
H885 H 0.32904 0.15358 0.16294 0.0
H886 H 0.35168 0.11044 0.1547 0.0
C887 C 0.44958 0.0025 0.11086 0.0
C888 C 0.39169 0.05571 0.1192 0.0
H889 H 0.39044 0.11447 0.13779 0.0
C890 C 0.36203 0.05147 0.11791 0.0
C891 C 0.40201 0.07817 0.1267 0.0
C892 C 0.43378 0.08346 0.1283 0.0
C893 C 0.34228 0.06968 0.12383 0.0
C894 C 0.35265 0.093 0.13092 0.0
C895 C 0.3824 0.09657 0.13242 0.0
C896 C 0.3336 0.11503 0.13648 0.0
C897 C 0.31063 0.06372 0.12244 0.0
C898 C 0.31492 0.13142 0.12913 0.0
C899 C 0.30143 0.15586 0.13393 0.0
C900 C 0.30709 0.16461 0.14604 0.0
C901 C 0.32452 0.14739 0.15354 0.0
C902 C 0.33743 0.12271 0.14885 0.0
H903 H 0.30657 0.04062 0.12054 0.0
H904 H 0.29854 0.07002 0.13081 0.0
H905 H 0.30219 0.07623 0.11455 0.0
H906 H 0.31213 0.12641 0.11949 0.0
H907 H 0.28825 0.16896 0.12795 0.0
H908 H 0.13585 0.98753 0.37917 0.0
H909 H 0.17789 0.01168 0.37025 0.0
H910 H 0.17605 0.07403 0.39958 0.0
H911 H 0.13375 0.05073 0.4082 0.0
H912 H 0.17236 0.09857 0.37751 0.0
H913 H 0.26326 0.02155 0.37765 0.0
H914 H 0.23078 0.00767 0.371 0.0
H915 H 0.23166 0.01667 0.38705 0.0
C916 C 0.14493 0.00597 0.38384 0.0
C917 C 0.13141 0.01753 0.39426 0.0
C918 C 0.16904 0.01964 0.3788 0.0
C919 C 0.1802 0.04462 0.38428 0.0
C920 C 0.1678 0.05483 0.39518 0.0
H921 H 0.31417 0.16562 0.36332 0.0
H922 H 0.28916 0.12533 0.37331 0.0
C923 C 0.14357 0.04155 0.40007 0.0
C924 C 0.20163 0.06275 0.37784 0.0
H925 H 0.26925 0.06421 0.3656 0.0
C926 C 0.19361 0.09104 0.37502 0.0
C927 C 0.22937 0.05295 0.37459 0.0
C928 C 0.23946 0.02313 0.37782 0.0
C929 C 0.21236 0.10975 0.36898 0.0
C930 C 0.23974 0.09977 0.36537 0.0
C931 C 0.24812 0.07163 0.36831 0.0
C932 C 0.25926 0.1187 0.35836 0.0
C933 C 0.20269 0.14018 0.3665 0.0
C934 C 0.25144 0.1273 0.34649 0.0
C935 C 0.26529 0.1504 0.3409 0.0
C936 C 0.28748 0.16503 0.34702 0.0
C937 C 0.29712 0.15469 0.35843 0.0
C938 C 0.28293 0.13169 0.36411 0.0
H939 H 0.1839 0.14626 0.37222 0.0
H940 H 0.22035 0.15568 0.36829 0.0
H941 H 0.1964 0.1422 0.3567 0.0
H942 H 0.23332 0.11739 0.3419 0.0
H943 H 0.25765 0.1577 0.33203 0.0
H944 H 0.00322 0.04904 0.38365 0.0
H945 H 0.96454 0.07811 0.37512 0.0
H946 H 0.90522 0.00791 0.38016 0.0
H947 H 0.94378 0.97865 0.38894 0.0
H948 H 0.92821 0.06937 0.3551 0.0
H949 H 0.86737 0.07404 0.39909 0.0
H950 H 0.90396 0.06146 0.39828 0.0
H951 H 0.87505 0.03869 0.39332 0.0
C952 C 0.98203 0.03962 0.38288 0.0
C953 C 0.97655 0.01159 0.3871 0.0
C954 C 0.95994 0.05629 0.37799 0.0
C955 C 0.93196 0.04533 0.37724 0.0
C956 C 0.92658 0.01695 0.38092 0.0
H957 H 0.78015 0.14032 0.3518 0.0
H958 H 0.81126 0.10145 0.35914 0.0
C959 C 0.94869 0.00022 0.38585 0.0
C960 C 0.90851 0.06412 0.37286 0.0
H961 H 0.84815 0.0995 0.38229 0.0
C962 C 0.91056 0.07576 0.36101 0.0
C963 C 0.88553 0.07238 0.3806 0.0
C964 C 0.88281 0.06123 0.39357 0.0
C965 C 0.89059 0.09597 0.35678 0.0
C966 C 0.86821 0.10488 0.36465 0.0
C967 C 0.86544 0.09252 0.37633 0.0
C968 C 0.84873 0.12848 0.36116 0.0
C969 C 0.89379 0.10804 0.34398 0.0
C970 C 0.85942 0.15654 0.36027 0.0
C971 C 0.84179 0.17875 0.35617 0.0
C972 C 0.81311 0.17326 0.35285 0.0
C973 C 0.80215 0.14525 0.35424 0.0
C974 C 0.81984 0.12302 0.35841 0.0
H975 H 0.90801 0.0945 0.33818 0.0
H976 H 0.87254 0.10996 0.33943 0.0
H977 H 0.90334 0.12985 0.34455 0.0
H978 H 0.88162 0.16112 0.36251 0.0
H979 H 0.85093 0.20004 0.35526 0.0
H980 H 0.59873 0.06286 0.09101 0.0
H981 H 0.63446 0.09643 0.09891 0.0
H982 H 0.66191 0.03304 0.1254 0.0
H983 H 0.62748 0.99861 0.11682 0.0
H984 H 0.64063 0.12139 0.11912 0.0
H985 H 0.73779 0.05485 0.11274 0.0
H986 H 0.70334 0.04431 0.10672 0.0
H987 H 0.71237 0.03735 0.12255 0.0
C988 C 0.61252 0.05607 0.09848 0.0
C989 C 0.61053 0.02815 0.10328 0.0
C990 C 0.63294 0.07526 0.103 0.0
C991 C 0.65138 0.06719 0.11262 0.0
C992 C 0.64874 0.03952 0.11769 0.0
H993 H 0.74051 0.19819 0.15525 0.0
H994 H 0.7064 0.1629 0.14732 0.0
C995 C 0.62887 0.01995 0.11289 0.0
C996 C 0.67264 0.08818 0.11746 0.0
H997 H 0.74321 0.09684 0.12508 0.0
C998 C 0.66312 0.11604 0.12031 0.0
C999 C 0.70214 0.0815 0.11884 0.0
C1000 C 0.71456 0.05298 0.11492 0.0
C1001 C 0.68211 0.13731 0.12446 0.0
C1002 C 0.71126 0.13014 0.12653 0.0
C1003 C 0.72083 0.10232 0.12365 0.0
C1004 C 0.73226 0.15116 0.13155 0.0
C1005 C 0.67072 0.16743 0.12615 0.0
C1006 C 0.7589 0.15533 0.12573 0.0
C1007 C 0.7789 0.17469 0.13055 0.0
C1008 C 0.77235 0.19067 0.14111 0.0
C1009 C 0.7458 0.18651 0.14694 0.0
C1010 C 0.7262 0.16651 0.14235 0.0
H1011 H 0.6518 0.17143 0.12016 0.0
H1012 H 0.66362 0.17025 0.1358 0.0
H1013 H 0.6873 0.18384 0.12403 0.0
H1014 H 0.7642 0.14367 0.11742 0.0
H1015 H 0.7993 0.17749 0.12591 0.0
H1016 H 0.79937 0.82604 0.86436 0.0
H1017 H 0.76511 0.86071 0.87286 0.0
H1018 H 0.70693 0.84297 0.8429 0.0
H1019 H 0.74009 0.80681 0.83501 0.0
H1020 H 0.74465 0.90804 0.86545 0.0
H1021 H 0.6524 0.83421 0.86999 0.0
H1022 H 0.68773 0.82156 0.86606 0.0
H1023 H 0.66419 0.83572 0.85436 0.0
C1024 C 0.77906 0.82938 0.85972 0.0
C1025 C 0.77204 0.81351 0.84918 0.0
C1026 C 0.75955 0.84922 0.86453 0.0
C1027 C 0.73302 0.85399 0.85871 0.0
C1028 C 0.72663 0.83888 0.84787 0.0
H1029 H 0.62933 0.00661 0.87589 0.0
H1030 H 0.66365 0.97313 0.86651 0.0
C1031 C 0.74567 0.81838 0.84331 0.0
C1032 C 0.71231 0.87511 0.86383 0.0
H1033 H 0.64187 0.88421 0.87139 0.0
C1034 C 0.72222 0.90273 0.86688 0.0
C1035 C 0.6831 0.86815 0.86587 0.0
C1036 C 0.67134 0.8382 0.86402 0.0
C1037 C 0.70381 0.92351 0.87191 0.0
C1038 C 0.67428 0.91701 0.87332 0.0
C1039 C 0.66441 0.88943 0.8702 0.0
C1040 C 0.65336 0.93765 0.87866 0.0
C1041 C 0.71658 0.95172 0.87605 0.0
C1042 C 0.63518 0.92859 0.8882 0.0
C1043 C 0.61481 0.9472 0.89312 0.0
C1044 C 0.61264 0.97554 0.88884 0.0
C1045 C 0.63084 0.98487 0.87938 0.0
C1046 C 0.65065 0.96585 0.87414 0.0
H1047 H 0.7399 0.94963 0.87801 0.0
H1048 H 0.71412 0.96783 0.86861 0.0
H1049 H 0.70579 0.95992 0.88443 0.0
H1050 H 0.63679 0.90705 0.89191 0.0
H1051 H 0.60115 0.9396 0.9005 0.0
H1052 H 0.85446 0.80797 0.65693 0.0
H1053 H 0.8887 0.84429 0.64999 0.0
H1054 H 0.83555 0.86116 0.61828 0.0
H1055 H 0.80023 0.82635 0.62575 0.0
H1056 H 0.92109 0.84818 0.6318 0.0
H1057 H 0.84769 0.94091 0.62871 0.0
H1058 H 0.83682 0.90735 0.63552 0.0
H1059 H 0.83519 0.91233 0.61909 0.0
C1060 C 0.85009 0.81957 0.64851 0.0
C1061 C 0.82471 0.81456 0.64189 0.0
C1062 C 0.86962 0.84035 0.64455 0.0
C1063 C 0.86448 0.85606 0.63374 0.0
C1064 C 0.83954 0.85025 0.62689 0.0
H1065 H -9e-05 0.9375 0.5924 0.0
H1066 H 0.96512 0.90495 0.60168 0.0
C1067 C 0.81953 0.8301 0.63107 0.0
C1068 C 0.88579 0.87764 0.62945 0.0
H1069 H 0.8926 0.94562 0.61806 0.0
C1070 C 0.91483 0.86961 0.62895 0.0
C1071 C 0.87792 0.90591 0.62599 0.0
C1072 C 0.84775 0.91721 0.6275 0.0
C1073 C 0.93603 0.88869 0.62482 0.0
C1074 C 0.92782 0.91611 0.62041 0.0
C1075 C 0.89891 0.92446 0.62123 0.0
C1076 C 0.9487 0.93617 0.61467 0.0
C1077 C 0.96702 0.87932 0.62552 0.0
C1078 C 0.95011 0.96507 0.61839 0.0
C1079 C 0.96934 0.98404 0.61276 0.0
C1080 C 0.98781 0.97426 0.60347 0.0
C1081 C 0.98629 0.94544 0.59971 0.0
C1082 C 0.96656 0.92675 0.60509 0.0
H1083 H 0.97033 0.86358 0.63307 0.0
H1084 H 0.97305 0.86853 0.6168 0.0
H1085 H 0.98165 0.89782 0.62704 0.0
H1086 H 0.93641 0.97294 0.62569 0.0
H1087 H 0.97007 0.00619 0.61579 0.0
H1088 H 0.80543 0.3384 0.1284 0.0
H1089 H 0.77996 0.37943 0.11941 0.0
H1090 H 0.73293 0.39068 0.15321 0.0
H1091 H 0.75756 0.34936 0.16205 0.0
H1092 H 0.69808 0.38375 0.13406 0.0
H1093 H 0.77947 0.46637 0.12251 0.0
H1094 H 0.788 0.43138 0.11662 0.0
H1095 H 0.78673 0.43708 0.13295 0.0
C1096 C 0.79018 0.35012 0.13399 0.0
C1097 C 0.78322 0.34054 0.14586 0.0
C1098 C 0.77577 0.37368 0.12888 0.0
C1099 C 0.75464 0.38826 0.13567 0.0
C1100 C 0.74913 0.37977 0.14781 0.0
H1101 H 0.63036 0.5199 0.11365 0.0
H1102 H 0.67062 0.49622 0.12419 0.0
C1103 C 0.76317 0.3561 0.15283 0.0
C1104 C 0.73529 0.40932 0.12967 0.0
H1105 H 0.73311 0.4716 0.11302 0.0
C1106 C 0.70578 0.40315 0.12963 0.0
C1107 C 0.74531 0.43462 0.12386 0.0
C1108 C 0.77659 0.44296 0.12407 0.0
C1109 C 0.68612 0.42115 0.12371 0.0
C1110 C 0.69621 0.44583 0.11754 0.0
C1111 C 0.72557 0.45254 0.11776 0.0
C1112 C 0.67625 0.46358 0.11026 0.0
C1113 C 0.65465 0.41338 0.12385 0.0
C1114 C 0.66682 0.4534 0.09885 0.0
C1115 C 0.64385 0.46661 0.0929 0.0
C1116 C 0.62994 0.49031 0.09825 0.0
C1117 C 0.64066 0.50167 0.10932 0.0
C1118 C 0.66366 0.48827 0.11532 0.0
H1119 H 0.64984 0.39591 0.1305 0.0
H1120 H 0.64146 0.43245 0.12622 0.0
H1121 H 0.64809 0.40609 0.11455 0.0
H1122 H 0.67627 0.4343 0.09485 0.0
H1123 H 0.63627 0.4575 0.08433 0.0
H1124 H 0.85933 0.31996 0.34536 0.0
H1125 H 0.87715 0.36415 0.35439 0.0
H1126 H 0.79072 0.38911 0.36381 0.0
H1127 H 0.77253 0.34397 0.35496 0.0
H1128 H 0.86638 0.42056 0.34895 0.0
H1129 H 0.83192 0.39443 0.39672 0.0
H1130 H 0.83117 0.36792 0.38464 0.0
H1131 H 0.80477 0.39598 0.385 0.0
C1132 C 0.84397 0.33476 0.34932 0.0
C1133 C 0.8145 0.32832 0.34953 0.0
C1134 C 0.85422 0.36016 0.35444 0.0
C1135 C 0.83534 0.37989 0.35985 0.0
C1136 C 0.80574 0.37399 0.35984 0.0
H1137 H 0.94713 0.5214 0.38627 0.0
H1138 H 0.90281 0.50216 0.37712 0.0
C1139 C 0.79538 0.34826 0.35476 0.0
C1140 C 0.84765 0.40572 0.36586 0.0
H1141 H 0.86499 0.43164 0.39423 0.0
C1142 C 0.8656 0.42355 0.35883 0.0
C1143 C 0.84637 0.40962 0.37873 0.0
C1144 C 0.82767 0.39098 0.38678 0.0
C1145 C 0.8845 0.4431 0.36441 0.0
C1146 C 0.88481 0.4454 0.37737 0.0
C1147 C 0.86474 0.42971 0.3843 0.0
C1148 C 0.90923 0.45893 0.38395 0.0
C1149 C 0.90573 0.45907 0.35646 0.0
C1150 C 0.92687 0.44139 0.39121 0.0
C1151 C 0.95177 0.4523 0.39651 0.0
C1152 C 0.95981 0.48108 0.39465 0.0
C1153 C 0.94161 0.49907 0.38777 0.0
C1154 C 0.91638 0.48809 0.38251 0.0
H1155 H 0.90498 0.45194 0.34672 0.0
H1156 H 0.90083 0.48239 0.35671 0.0
H1157 H 0.92791 0.456 0.35995 0.0
H1158 H 0.92187 0.41882 0.39244 0.0
H1159 H 0.96514 0.43784 0.4018 0.0
H1160 H 0.96152 0.48849 0.61432 0.0
H1161 H 0.91998 0.51365 0.62307 0.0
H1162 H 0.91568 0.56767 0.59091 0.0
H1163 H 0.95751 0.54337 0.58238 0.0
H1164 H 0.92118 0.59823 0.61147 0.0
H1165 H 0.8337 0.51862 0.61762 0.0
H1166 H 0.8674 0.50755 0.62409 0.0
H1167 H 0.8642 0.51217 0.60774 0.0
C1168 C 0.95119 0.50524 0.60901 0.0
C1169 C 0.96287 0.51425 0.59775 0.0
C1170 C 0.92735 0.51948 0.61398 0.0
C1171 C 0.91462 0.54247 0.60761 0.0
C1172 C 0.92516 0.55002 0.59598 0.0
H1173 H 0.78335 0.66724 0.62859 0.0
H1174 H 0.80759 0.62711 0.61821 0.0
C1175 C 0.94912 0.53617 0.59113 0.0
C1176 C 0.89345 0.56151 0.61371 0.0
H1177 H 0.82836 0.56354 0.62823 0.0
C1178 C 0.90075 0.59062 0.61499 0.0
C1179 C 0.86681 0.5516 0.61833 0.0
C1180 C 0.85738 0.52082 0.61679 0.0
C1181 C 0.88246 0.60999 0.62091 0.0
C1182 C 0.8563 0.59996 0.62585 0.0
C1183 C 0.84856 0.57102 0.62444 0.0
C1184 C 0.83776 0.61955 0.63296 0.0
C1185 C 0.89139 0.64108 0.622 0.0
C1186 C 0.84625 0.62781 0.64479 0.0
C1187 C 0.83274 0.65073 0.65065 0.0
C1188 C 0.81039 0.66573 0.6448 0.0
C1189 C 0.80052 0.65609 0.63331 0.0
C1190 C 0.81424 0.63315 0.62739 0.0
H1191 H 0.90998 0.64628 0.616 0.0
H1192 H 0.87325 0.65547 0.61957 0.0
H1193 H 0.89753 0.64568 0.63166 0.0
H1194 H 0.86442 0.61755 0.64919 0.0
H1195 H 0.84065 0.65745 0.65956 0.0
H1196 H 0.80299 0.66633 0.86303 0.0
H1197 H 0.77777 0.62575 0.87256 0.0
H1198 H 0.73165 0.61103 0.83875 0.0
H1199 H 0.75589 0.65202 0.82941 0.0
H1200 H 0.69623 0.61925 0.85726 0.0
H1201 H 0.77746 0.53885 0.87135 0.0
H1202 H 0.7855 0.57441 0.87674 0.0
H1203 H 0.78523 0.56718 0.8605 0.0
C1204 C 0.78802 0.65391 0.85757 0.0
C1205 C 0.78111 0.66245 0.84555 0.0
C1206 C 0.77375 0.63061 0.86298 0.0
C1207 C 0.75289 0.61521 0.85635 0.0
C1208 C 0.74761 0.62258 0.84405 0.0
H1209 H 0.63259 0.48209 0.88126 0.0
H1210 H 0.67325 0.50543 0.87082 0.0
C1211 C 0.76143 0.64605 0.83874 0.0
C1212 C 0.7334 0.59467 0.86262 0.0
H1213 H 0.73073 0.5346 0.88068 0.0
C1214 C 0.70385 0.60053 0.86222 0.0
C1215 C 0.74326 0.57021 0.86909 0.0
C1216 C 0.77458 0.56209 0.86936 0.0
C1217 C 0.68399 0.58311 0.86833 0.0
C1218 C 0.69391 0.55944 0.87524 0.0
C1219 C 0.72331 0.55294 0.87542 0.0
C1220 C 0.67367 0.54253 0.88278 0.0
C1221 C 0.65247 0.59044 0.86752 0.0
C1222 C 0.66125 0.55532 0.89314 0.0
C1223 C 0.63804 0.54232 0.89899 0.0
C1224 C 0.62692 0.51614 0.89464 0.0
C1225 C 0.6407 0.50229 0.88479 0.0
C1226 C 0.66393 0.51551 0.87885 0.0
H1227 H 0.64786 0.60545 0.85983 0.0
H1228 H 0.63936 0.57071 0.86627 0.0
H1229 H 0.64562 0.60086 0.87621 0.0
H1230 H 0.66858 0.57615 0.89631 0.0
H1231 H 0.62811 0.55336 0.90665 0.0
H1232 H 0.44156 0.48028 0.88829 0.0
H1233 H 0.4044 0.51063 0.87909 0.0
H1234 H 0.46362 0.58186 0.87817 0.0
H1235 H 0.50093 0.55176 0.88712 0.0
H1236 H 0.38183 0.56027 0.88899 0.0
H1237 H 0.43069 0.58304 0.84367 0.0
H1238 H 0.44319 0.55441 0.8535 0.0
H1239 H 0.45468 0.59083 0.85613 0.0
C1240 C 0.44681 0.50229 0.88595 0.0
C1241 C 0.47426 0.51357 0.88842 0.0
C1242 C 0.42553 0.51959 0.88073 0.0
C1243 C 0.43139 0.54835 0.8778 0.0
C1244 C 0.45884 0.55953 0.8801 0.0
H1245 H 0.34742 0.70355 0.85812 0.0
H1246 H 0.37823 0.66496 0.8656 0.0
C1247 C 0.48011 0.54229 0.88528 0.0
C1248 C 0.40845 0.56738 0.87309 0.0
H1249 H 0.39321 0.61502 0.85019 0.0
C1250 C 0.38404 0.57192 0.88041 0.0
C1251 C 0.4114 0.58244 0.86188 0.0
C1252 C 0.43627 0.57723 0.85328 0.0
C1253 C 0.36316 0.59223 0.87709 0.0
C1254 C 0.36682 0.60814 0.86616 0.0
C1255 C 0.39067 0.60288 0.85863 0.0
C1256 C 0.34692 0.63137 0.8626 0.0
C1257 C 0.33796 0.59743 0.8855 0.0
C1258 C 0.31897 0.62519 0.85861 0.0
C1259 C 0.30122 0.64723 0.8543 0.0
C1260 C 0.31124 0.67575 0.85389 0.0
C1261 C 0.33899 0.68186 0.85828 0.0
C1262 C 0.35668 0.65985 0.86254 0.0
H1263 H 0.34037 0.58619 0.89444 0.0
H1264 H 0.33532 0.62079 0.88723 0.0
H1265 H 0.31804 0.58958 0.88101 0.0
H1266 H 0.31122 0.60325 0.85849 0.0
H1267 H 0.28 0.64178 0.85096 0.0
H1268 H 0.1495 0.48716 0.60585 0.0
H1269 H 0.18466 0.51997 0.61491 0.0
H1270 H 0.12217 0.58825 0.61434 0.0
H1271 H 0.08676 0.55565 0.60542 0.0
H1272 H 0.2046 0.57121 0.60428 0.0
H1273 H 0.1535 0.59147 0.64952 0.0
H1274 H 0.14336 0.56171 0.63979 0.0
H1275 H 0.13019 0.59723 0.63661 0.0
C1276 C 0.1431 0.50907 0.60778 0.0
C1277 C 0.11528 0.51876 0.60492 0.0
C1278 C 0.16324 0.52777 0.61293 0.0
C1279 C 0.15589 0.55641 0.61541 0.0
C1280 C 0.12809 0.56608 0.61271 0.0
H1281 H 0.24446 0.70808 0.64093 0.0
H1282 H 0.21029 0.67306 0.63279 0.0
C1283 C 0.10793 0.54742 0.60755 0.0
C1284 C 0.17773 0.5766 0.62021 0.0
H1285 H 0.1925 0.62189 0.64404 0.0
C1286 C 0.20212 0.58214 0.61302 0.0
C1287 C 0.17429 0.59086 0.63158 0.0
C1288 C 0.14906 0.58488 0.63989 0.0
C1289 C 0.2229 0.60214 0.61677 0.0
C1290 C 0.21936 0.61655 0.6281 0.0
C1291 C 0.19507 0.61084 0.63533 0.0
C1292 C 0.24051 0.6378 0.63262 0.0
C1293 C 0.24804 0.60824 0.60842 0.0
C1294 C 0.26881 0.62951 0.63523 0.0
C1295 C 0.28846 0.64948 0.63985 0.0
C1296 C 0.28006 0.67807 0.64202 0.0
C1297 C 0.25168 0.68627 0.63935 0.0
C1298 C 0.23209 0.66629 0.63472 0.0
H1299 H 0.24389 0.60095 0.59886 0.0
H1300 H 0.25312 0.63155 0.60827 0.0
H1301 H 0.2672 0.59662 0.61188 0.0
H1302 H 0.27559 0.60748 0.63388 0.0
H1303 H 0.31008 0.64239 0.64188 0.0
H1304 H 0.14711 0.50847 0.38843 0.0
H1305 H 0.18285 0.4759 0.37967 0.0
H1306 H 0.11949 0.40842 0.378 0.0
H1307 H 0.08354 0.44079 0.38659 0.0
H1308 H 0.20071 0.42409 0.39026 0.0
H1309 H 0.15543 0.40629 0.34372 0.0
H1310 H 0.14428 0.43568 0.35344 0.0
H1311 H 0.13026 0.40015 0.35594 0.0
C1312 C 0.14064 0.48683 0.38603 0.0
C1313 C 0.11244 0.47725 0.38821 0.0
C1314 C 0.16112 0.46825 0.38106 0.0
C1315 C 0.15371 0.43989 0.37809 0.0
C1316 C 0.12549 0.4304 0.38002 0.0
H1317 H 0.24183 0.28753 0.35362 0.0
H1318 H 0.20791 0.3227 0.36177 0.0
C1319 C 0.10501 0.44893 0.38499 0.0
C1320 C 0.17587 0.41963 0.37367 0.0
H1321 H 0.19276 0.37462 0.35003 0.0
C1322 C 0.19916 0.41344 0.38142 0.0
C1323 C 0.17364 0.40575 0.36216 0.0
C1324 C 0.1497 0.41246 0.35327 0.0
C1325 C 0.21998 0.39312 0.37808 0.0
C1326 C 0.21756 0.379 0.36663 0.0
C1327 C 0.19443 0.38541 0.35883 0.0
C1328 C 0.23875 0.35742 0.36252 0.0
C1329 C 0.24392 0.38634 0.38695 0.0
C1330 C 0.26736 0.36532 0.36034 0.0
C1331 C 0.28686 0.34526 0.3557 0.0
C1332 C 0.27799 0.31701 0.35309 0.0
C1333 C 0.2494 0.30908 0.35553 0.0
C1334 C 0.22995 0.32915 0.36016 0.0
H1335 H 0.2389 0.39378 0.39641 0.0
H1336 H 0.24826 0.36289 0.38721 0.0
H1337 H 0.26381 0.39736 0.3839 0.0
H1338 H 0.27443 0.38718 0.36192 0.0
H1339 H 0.30866 0.35213 0.35388 0.0
H1340 H 0.48863 0.44765 0.08729 0.0
H1341 H 0.45286 0.41359 0.09481 0.0
H1342 H 0.43202 0.47151 0.1245 0.0
H1343 H 0.46635 0.50659 0.11637 0.0
H1344 H 0.44909 0.38434 0.11396 0.0
H1345 H 0.35354 0.45459 0.1136 0.0
H1346 H 0.38717 0.46557 0.10691 0.0
H1347 H 0.38105 0.46935 0.1232 0.0
C1348 C 0.47623 0.45315 0.09538 0.0
C1349 C 0.48006 0.47973 0.10124 0.0
C1350 C 0.45579 0.43368 0.09968 0.0
C1351 C 0.43921 0.44011 0.1101 0.0
C1352 C 0.44368 0.46641 0.11618 0.0
H1353 H 0.35574 0.30513 0.15202 0.0
H1354 H 0.38902 0.34019 0.14335 0.0
C1355 C 0.46352 0.48632 0.11163 0.0
C1356 C 0.41813 0.41872 0.11478 0.0
H1357 H 0.3492 0.41067 0.12485 0.0
C1358 C 0.42715 0.39011 0.11621 0.0
C1359 C 0.38928 0.42594 0.11751 0.0
C1360 C 0.37712 0.45546 0.11509 0.0
C1361 C 0.40836 0.36867 0.12036 0.0
C1362 C 0.3801 0.37629 0.12389 0.0
C1363 C 0.37094 0.40481 0.12232 0.0
C1364 C 0.35973 0.35513 0.12926 0.0
C1365 C 0.41893 0.33801 0.12055 0.0
C1366 C 0.33162 0.35273 0.12465 0.0
C1367 C 0.31219 0.33343 0.12993 0.0
C1368 C 0.32074 0.31578 0.13972 0.0
C1369 C 0.34881 0.31811 0.14431 0.0
C1370 C 0.36792 0.338 0.13929 0.0
H1371 H 0.43603 0.33454 0.11358 0.0
H1372 H 0.42835 0.33324 0.12968 0.0
H1373 H 0.40128 0.32253 0.11873 0.0
H1374 H 0.32468 0.36579 0.11697 0.0
H1375 H 0.2906 0.33205 0.12626 0.0
loop_
_geom_bond_atom_site_label_1
_geom_bond_atom_site_label_2
_geom_bond_distance
_geom_bond_site_symmetry_2
_ccdc_geom_bond_type
O0 Cd1 2.227 . S
O0 C8 1.315 1_655 S
Cd1 O0 2.227 . S
Cd1 O4 2.294 1_655 S
Cd1 O5 2.425 1_655 S
Cd1 O11 2.239 1_655 S
Cd2 O3 2.240 1_565 S
Cd2 O10 2.223 . S
Cd2 O12 2.297 . S
Cd2 O13 2.439 1_565 S
O3 Cd2 2.240 1_545 S
O3 C8 1.279 . S
O4 Cd1 2.294 1_455 S
O4 C6 1.247 . S
O5 Cd1 2.425 1_455 S
O5 C6 1.208 . S
C6 O4 1.247 . S
C6 O5 1.208 . S
C7 O12 1.247 . S
C7 O13 1.208 1_565 S
C8 O0 1.315 1_455 S
C8 O3 1.279 . S
C9 O10 1.315 1_655 S
C9 O11 1.279 1_665 S
O10 Cd2 2.223 . S
O10 C9 1.315 1_455 S
O11 Cd1 2.239 1_455 S
O11 C9 1.279 1_445 S
O12 Cd2 2.297 . S
O12 C7 1.247 . S
O13 Cd2 2.439 1_545 S
O13 C7 1.208 1_545 S
O14 Cd15 2.223 . S
O14 C22 1.315 . S
Cd15 O14 2.223 . S
Cd15 O18 2.297 . S
Cd15 O19 2.439 . S
Cd15 O25 2.240 . S
Cd16 O17 2.240 . S
Cd16 O24 2.223 . S
Cd16 O26 2.297 . S
Cd16 O27 2.439 . S
O17 Cd16 2.240 . S
O17 C22 1.279 . S
O18 Cd15 2.297 . S
O18 C20 1.247 . S
O19 Cd15 2.439 . S
O19 C20 1.208 . S
C20 O18 1.247 . S
C20 O19 1.208 . S
C21 O26 1.247 . S
C21 O27 1.208 . S
C22 O14 1.315 . S
C22 O17 1.279 . S
C23 O24 1.315 . S
C23 O25 1.279 . S
O24 Cd16 2.223 . S
O24 C23 1.315 . S
O25 Cd15 2.240 . S
O25 C23 1.279 . S
O26 Cd16 2.297 . S
O26 C21 1.247 . S
O27 Cd16 2.439 . S
O27 C21 1.208 . S
O28 Cd29 2.223 . S
O28 C36 1.315 . S
Cd29 O28 2.223 . S
Cd29 O32 2.297 . S
Cd29 O33 2.439 . S
Cd29 O39 2.240 . S
Cd30 O31 2.240 1_545 S
Cd30 O38 2.223 . S
Cd30 O40 2.297 . S
Cd30 O41 2.439 1_545 S
O31 Cd30 2.240 1_565 S
O31 C36 1.279 . S
O32 Cd29 2.297 . S
O32 C34 1.247 . S
O33 Cd29 2.439 . S
O33 C34 1.208 . S
C34 O32 1.247 . S
C34 O33 1.208 . S
C35 O40 1.247 . S
C35 O41 1.208 1_545 S
C36 O28 1.315 . S
C36 O31 1.279 . S
C37 O38 1.315 . S
C37 O39 1.279 1_545 S
O38 Cd30 2.223 . S
O38 C37 1.315 . S
O39 Cd29 2.240 . S
O39 C37 1.279 1_565 S
O40 Cd30 2.297 . S
O40 C35 1.247 . S
O41 Cd30 2.439 1_565 S
O41 C35 1.208 1_565 S
O42 Cd43 2.223 . S
O42 C50 1.315 . S
Cd43 O42 2.223 . S
Cd43 O46 2.297 . S
Cd43 O47 2.439 . S
Cd43 O53 2.240 . S
Cd44 O45 2.240 . S
Cd44 O52 2.223 . S
Cd44 O54 2.297 . S
Cd44 O55 2.439 . S
O45 Cd44 2.240 . S
O45 C50 1.279 . S
O46 Cd43 2.297 . S
O46 C48 1.247 . S
O47 Cd43 2.439 . S
O47 C48 1.208 . S
C48 O46 1.247 . S
C48 O47 1.208 . S
C49 O54 1.247 . S
C49 O55 1.208 . S
C50 O42 1.315 . S
C50 O45 1.279 . S
C51 O52 1.315 . S
C51 O53 1.279 . S
O52 Cd44 2.223 . S
O52 C51 1.315 . S
O53 Cd43 2.240 . S
O53 C51 1.279 . S
O54 Cd44 2.297 . S
O54 C49 1.247 . S
O55 Cd44 2.439 . S
O55 C49 1.208 . S
O56 Cd57 2.227 . S
O56 C64 1.315 1_655 S
Cd57 O56 2.227 . S
Cd57 O60 2.294 1_655 S
Cd57 O61 2.425 1_655 S
Cd57 O67 2.239 1_655 S
Cd58 O59 2.240 1_545 S
Cd58 O66 2.223 . S
Cd58 O68 2.297 . S
Cd58 O69 2.439 1_545 S
O59 Cd58 2.240 1_565 S
O59 C64 1.279 . S
O60 Cd57 2.294 1_455 S
O60 C62 1.247 . S
O61 Cd57 2.425 1_455 S
O61 C62 1.208 . S
C62 O60 1.247 . S
C62 O61 1.208 . S
C63 O68 1.247 . S
C63 O69 1.208 1_545 S
C64 O56 1.315 1_455 S
C64 O59 1.279 . S
C65 O66 1.315 1_655 S
C65 O67 1.279 1_645 S
O66 Cd58 2.223 . S
O66 C65 1.315 1_455 S
O67 Cd57 2.239 1_455 S
O67 C65 1.279 1_465 S
O68 Cd58 2.297 . S
O68 C63 1.247 . S
O69 Cd58 2.439 1_565 S
O69 C63 1.208 1_565 S
O70 Cd71 2.223 . S
O70 C78 1.315 . S
Cd71 O70 2.223 . S
Cd71 O74 2.297 . S
Cd71 O75 2.439 . S
Cd71 O81 2.240 . S
Cd72 O73 2.240 . S
Cd72 O80 2.223 . S
Cd72 O82 2.297 . S
Cd72 O83 2.439 . S
O73 Cd72 2.240 . S
O73 C78 1.279 . S
O74 Cd71 2.297 . S
O74 C76 1.247 . S
O75 Cd71 2.439 . S
O75 C76 1.208 . S
C76 O74 1.247 . S
C76 O75 1.208 . S
C77 O82 1.247 . S
C77 O83 1.208 . S
C78 O70 1.315 . S
C78 O73 1.279 . S
C79 O80 1.315 . S
C79 O81 1.279 . S
O80 Cd72 2.223 . S
O80 C79 1.315 . S
O81 Cd71 2.240 . S
O81 C79 1.279 . S
O82 Cd72 2.297 . S
O82 C77 1.247 . S
O83 Cd72 2.439 . S
O83 C77 1.208 . S
O84 Cd85 2.223 . S
O84 C92 1.315 . S
Cd85 O84 2.223 . S
Cd85 O88 2.297 . S
Cd85 O89 2.439 . S
Cd85 O95 2.240 . S
Cd86 O87 2.240 1_565 S
Cd86 O94 2.223 . S
Cd86 O96 2.297 . S
Cd86 O97 2.439 1_565 S
O87 Cd86 2.240 1_545 S
O87 C92 1.279 . S
O88 Cd85 2.297 . S
O88 C90 1.247 . S
O89 Cd85 2.439 . S
O89 C90 1.208 . S
C90 O88 1.247 . S
C90 O89 1.208 . S
C91 O96 1.247 . S
C91 O97 1.208 1_565 S
C92 O84 1.315 . S
C92 O87 1.279 . S
C93 O94 1.315 . S
C93 O95 1.279 1_565 S
O94 Cd86 2.223 . S
O94 C93 1.315 . S
O95 Cd85 2.240 . S
O95 C93 1.279 1_545 S
O96 Cd86 2.297 . S
O96 C91 1.247 . S
O97 Cd86 2.439 1_545 S
O97 C91 1.208 1_545 S
O98 Cd99 2.223 . S
O98 C106 1.315 . S
Cd99 O98 2.223 . S
Cd99 O102 2.297 . S
Cd99 O103 2.439 . S
Cd99 O109 2.240 . S
Cd100 O101 2.240 . S
Cd100 O108 2.223 . S
Cd100 O110 2.297 . S
Cd100 O111 2.439 . S
O101 Cd100 2.240 . S
O101 C106 1.279 . S
O102 Cd99 2.297 . S
O102 C104 1.247 . S
O103 Cd99 2.439 . S
O103 C104 1.208 . S
C104 O102 1.247 . S
C104 O103 1.208 . S
C105 O110 1.247 . S
C105 O111 1.208 . S
C106 O98 1.315 . S
C106 O101 1.279 . S
C107 O108 1.315 . S
C107 O109 1.279 . S
O108 Cd100 2.223 . S
O108 C107 1.315 . S
O109 Cd99 2.240 . S
O109 C107 1.279 . S
O110 Cd100 2.297 . S
O110 C105 1.247 . S
O111 Cd100 2.439 . S
O111 C105 1.208 . S
O112 Cd113 2.223 . S
O112 C120 1.315 . S
Cd113 O112 2.223 . S
Cd113 O116 2.297 . S
Cd113 O117 2.439 . S
Cd113 O123 2.240 . S
Cd114 O115 2.240 . S
Cd114 O122 2.223 . S
Cd114 O124 2.297 . S
Cd114 O125 2.439 . S
O115 Cd114 2.240 . S
O115 C120 1.279 . S
O116 Cd113 2.297 . S
O116 C118 1.247 . S
O117 Cd113 2.439 . S
O117 C118 1.208 . S
C118 O116 1.247 . S
C118 O117 1.208 . S
C119 O124 1.247 . S
C119 O125 1.208 . S
C120 O112 1.315 . S
C120 O115 1.279 . S
C121 O122 1.315 . S
C121 O123 1.279 . S
O122 Cd114 2.223 . S
O122 C121 1.315 . S
O123 Cd113 2.240 . S
O123 C121 1.279 . S
O124 Cd114 2.297 . S
O124 C119 1.247 . S
O125 Cd114 2.439 . S
O125 C119 1.208 . S
O126 Cd127 2.223 . S
O126 C134 1.315 . S
Cd127 O126 2.223 . S
Cd127 O130 2.297 . S
Cd127 O131 2.439 . S
Cd127 O137 2.240 . S
Cd128 O129 2.240 . S
Cd128 O136 2.223 . S
Cd128 O138 2.297 . S
Cd128 O139 2.439 . S
O129 Cd128 2.240 . S
O129 C134 1.279 . S
O130 Cd127 2.297 . S
O130 C132 1.247 . S
O131 Cd127 2.439 . S
O131 C132 1.208 . S
C132 O130 1.247 . S
C132 O131 1.208 . S
C133 O138 1.247 . S
C133 O139 1.208 . S
C134 O126 1.315 . S
C134 O129 1.279 . S
C135 O136 1.315 . S
C135 O137 1.279 . S
O136 Cd128 2.223 . S
O136 C135 1.315 . S
O137 Cd127 2.240 . S
O137 C135 1.279 . S
O138 Cd128 2.297 . S
O138 C133 1.247 . S
O139 Cd128 2.439 . S
O139 C133 1.208 . S
O140 Cd141 2.223 . S
O140 C148 1.315 . S
Cd141 O140 2.223 . S
Cd141 O144 2.297 . S
Cd141 O145 2.439 . S
Cd141 O151 2.240 . S
Cd142 O143 2.240 . S
Cd142 O150 2.223 . S
Cd142 O152 2.297 . S
Cd142 O153 2.439 . S
O143 Cd142 2.240 . S
O143 C148 1.279 . S
O144 Cd141 2.297 . S
O144 C146 1.247 . S
O145 Cd141 2.439 . S
O145 C146 1.208 . S
C146 O144 1.247 . S
C146 O145 1.208 . S
C147 O152 1.247 . S
C147 O153 1.208 . S
C148 O140 1.315 . S
C148 O143 1.279 . S
C149 O150 1.315 . S
C149 O151 1.279 . S
O150 Cd142 2.223 . S
O150 C149 1.315 . S
O151 Cd141 2.240 . S
O151 C149 1.279 . S
O152 Cd142 2.297 . S
O152 C147 1.247 . S
O153 Cd142 2.439 . S
O153 C147 1.208 . S
O154 Cd155 2.223 . S
O154 C162 1.315 . S
Cd155 O154 2.223 . S
Cd155 O158 2.297 . S
Cd155 O159 2.439 . S
Cd155 O165 2.240 . S
Cd156 O157 2.240 . S
Cd156 O164 2.223 . S
Cd156 O166 2.297 . S
Cd156 O167 2.439 . S
O157 Cd156 2.240 . S
O157 C162 1.279 . S
O158 Cd155 2.297 . S
O158 C160 1.247 . S
O159 Cd155 2.439 . S
O159 C160 1.208 . S
C160 O158 1.247 . S
C160 O159 1.208 . S
C161 O166 1.247 . S
C161 O167 1.208 . S
C162 O154 1.315 . S
C162 O157 1.279 . S
C163 O164 1.315 . S
C163 O165 1.279 . S
O164 Cd156 2.223 . S
O164 C163 1.315 . S
O165 Cd155 2.240 . S
O165 C163 1.279 . S
O166 Cd156 2.297 . S
O166 C161 1.247 . S
O167 Cd156 2.439 . S
O167 C161 1.208 . S
O168 Cd169 2.223 . S
O168 C176 1.315 . S
Cd169 O168 2.223 . S
Cd169 O172 2.297 . S
Cd169 O173 2.439 . S
Cd169 O179 2.240 . S
Cd170 O171 2.240 . S
Cd170 O178 2.223 . S
Cd170 O180 2.297 . S
Cd170 O181 2.439 . S
O171 Cd170 2.240 . S
O171 C176 1.279 . S
O172 Cd169 2.297 . S
O172 C174 1.247 . S
O173 Cd169 2.439 . S
O173 C174 1.208 . S
C174 O172 1.247 . S
C174 O173 1.208 . S
C175 O180 1.247 . S
C175 O181 1.208 . S
C176 O168 1.315 . S
C176 O171 1.279 . S
C177 O178 1.315 . S
C177 O179 1.279 . S
O178 Cd170 2.223 . S
O178 C177 1.315 . S
O179 Cd169 2.240 . S
O179 C177 1.279 . S
O180 Cd170 2.297 . S
O180 C175 1.247 . S
O181 Cd170 2.439 . S
O181 C175 1.208 . S
O182 Cd183 2.223 . S
O182 C190 1.315 . S
Cd183 O182 2.223 . S
Cd183 O186 2.297 . S
Cd183 O187 2.439 . S
Cd183 O193 2.240 . S
Cd184 O185 2.240 . S
Cd184 O192 2.223 . S
Cd184 O194 2.297 . S
Cd184 O195 2.439 . S
O185 Cd184 2.240 . S
O185 C190 1.279 . S
O186 Cd183 2.297 . S
O186 C188 1.247 . S
O187 Cd183 2.439 . S
O187 C188 1.208 . S
C188 O186 1.247 . S
C188 O187 1.208 . S
C189 O194 1.247 . S
C189 O195 1.208 . S
C190 O182 1.315 . S
C190 O185 1.279 . S
C191 O192 1.315 . S
C191 O193 1.279 . S
O192 Cd184 2.223 . S
O192 C191 1.315 . S
O193 Cd183 2.240 . S
O193 C191 1.279 . S
O194 Cd184 2.297 . S
O194 C189 1.247 . S
O195 Cd184 2.439 . S
O195 C189 1.208 . S
O196 Cd197 2.223 . S
O196 C204 1.315 . S
Cd197 O196 2.223 . S
Cd197 O200 2.297 . S
Cd197 O201 2.439 . S
Cd197 O207 2.240 . S
Cd198 O199 2.240 . S
Cd198 O206 2.223 . S
Cd198 O208 2.297 . S
Cd198 O209 2.439 . S
O199 Cd198 2.240 . S
O199 C204 1.279 . S
O200 Cd197 2.297 . S
O200 C202 1.247 . S
O201 Cd197 2.439 . S
O201 C202 1.208 . S
C202 O200 1.247 . S
C202 O201 1.208 . S
C203 O208 1.247 . S
C203 O209 1.208 . S
C204 O196 1.315 . S
C204 O199 1.279 . S
C205 O206 1.315 . S
C205 O207 1.279 . S
O206 Cd198 2.223 . S
O206 C205 1.315 . S
O207 Cd197 2.240 . S
O207 C205 1.279 . S
O208 Cd198 2.297 . S
O208 C203 1.247 . S
O209 Cd198 2.439 . S
O209 C203 1.208 . S
O210 Cd211 2.223 . S
O210 C218 1.315 . S
Cd211 O210 2.223 . S
Cd211 O214 2.297 . S
Cd211 O215 2.439 . S
Cd211 O221 2.240 . S
Cd212 O213 2.240 . S
Cd212 O220 2.223 . S
Cd212 O222 2.297 . S
Cd212 O223 2.439 . S
O213 Cd212 2.240 . S
O213 C218 1.279 . S
O214 Cd211 2.297 . S
O214 C216 1.247 . S
O215 Cd211 2.439 . S
O215 C216 1.208 . S
C216 O214 1.247 . S
C216 O215 1.208 . S
C217 O222 1.247 . S
C217 O223 1.208 . S
C218 O210 1.315 . S
C218 O213 1.279 . S
C219 O220 1.315 . S
C219 O221 1.279 . S
O220 Cd212 2.223 . S
O220 C219 1.315 . S
O221 Cd211 2.240 . S
O221 C219 1.279 . S
O222 Cd212 2.297 . S
O222 C217 1.247 . S
O223 Cd212 2.439 . S
O223 C217 1.208 . S
H224 C232 0.929 . S
H225 C234 0.930 . S
H226 C236 0.930 . S
H227 C239 0.929 . S
H228 C242 0.930 . S
H229 C244 0.960 . S
H230 C244 0.960 1_455 S
H231 C244 0.960 . S
C232 H224 0.929 . S
C232 C233 1.377 . S
C232 C234 1.384 . S
C233 C232 1.377 . S
C233 C239 1.390 . S
C234 H225 0.930 . S
C234 C232 1.384 . S
C234 C235 1.372 . S
C235 C234 1.372 . S
C235 C236 1.400 . S
C235 C240 1.490 . S
C236 H226 0.930 . S
C236 C235 1.400 . S
C236 C239 1.386 . S
H237 C253 0.930 . S
H238 C254 0.931 . S
C239 H227 0.929 . S
C239 C233 1.390 . S
C239 C236 1.386 . S
C240 C235 1.490 . S
C240 C242 1.395 . S
C240 C243 1.403 . S
H241 C247 0.930 . S
C242 H228 0.930 . S
C242 C240 1.395 . S
C242 C245 1.403 . S
C243 C240 1.403 . S
C243 C244 1.524 1_455 S
C243 C247 1.400 . S
C244 H229 0.960 . S
C244 H230 0.960 1_655 S
C244 H231 0.960 . S
C244 C243 1.524 1_655 S
C245 C242 1.403 . S
C245 C246 1.392 . S
C245 C249 1.495 . S
C246 C245 1.392 . S
C246 C247 1.385 . S
C246 C248 1.478 . S
C247 H241 0.930 . S
C247 C243 1.400 . S
C247 C246 1.385 . S
C248 C246 1.478 . S
C248 C250 1.381 . S
C248 C254 1.383 . S
C249 C245 1.495 . S
C249 H255 0.959 . S
C249 H256 0.961 . S
C249 H257 0.960 . S
C250 C248 1.381 . S
C250 C251 1.394 . S
C250 H258 0.930 . S
C251 C250 1.394 . S
C251 C252 1.383 . S
C251 H259 0.929 . S
C252 C251 1.383 . S
C252 C253 1.377 . S
C253 H237 0.930 . S
C253 C252 1.377 . S
C253 C254 1.379 . S
C254 H238 0.931 . S
C254 C248 1.383 . S
C254 C253 1.379 . S
H255 C249 0.959 . S
H256 C249 0.961 . S
H257 C249 0.960 . S
H258 C250 0.930 . S
H259 C251 0.929 . S
H260 C268 0.929 . S
H261 C270 0.930 . S
H262 C272 0.930 . S
H263 C275 0.929 . S
H264 C278 0.930 . S
H265 C280 0.960 . S
H266 C280 0.960 . S
H267 C280 0.960 . S
C268 H260 0.929 . S
C268 C269 1.377 . S
C268 C270 1.384 . S
C269 C268 1.377 . S
C269 C275 1.390 . S
C270 H261 0.930 . S
C270 C268 1.384 . S
C270 C271 1.372 . S
C271 C270 1.372 . S
C271 C272 1.400 . S
C271 C276 1.490 1_655 S
C272 H262 0.930 . S
C272 C271 1.400 . S
C272 C275 1.386 . S
H273 C289 0.930 . S
H274 C290 0.931 . S
C275 H263 0.929 . S
C275 C269 1.390 . S
C275 C272 1.386 . S
C276 C271 1.490 1_455 S
C276 C278 1.395 . S
C276 C279 1.403 . S
H277 C283 0.930 . S
C278 H264 0.930 . S
C278 C276 1.395 . S
C278 C281 1.403 . S
C279 C276 1.403 . S
C279 C280 1.524 . S
C279 C283 1.400 . S
C280 H265 0.960 . S
C280 H266 0.960 . S
C280 H267 0.960 . S
C280 C279 1.524 . S
C281 C278 1.403 . S
C281 C282 1.392 . S
C281 C285 1.495 . S
C282 C281 1.392 . S
C282 C283 1.385 . S
C282 C284 1.478 . S
C283 H277 0.930 . S
C283 C279 1.400 . S
C283 C282 1.385 . S
C284 C282 1.478 . S
C284 C286 1.381 . S
C284 C290 1.383 . S
C285 C281 1.495 . S
C285 H291 0.959 . S
C285 H292 0.961 . S
C285 H293 0.960 . S
C286 C284 1.381 . S
C286 C287 1.394 . S
C286 H294 0.930 . S
C287 C286 1.394 . S
C287 C288 1.383 . S
C287 H295 0.929 . S
C288 C287 1.383 . S
C288 C289 1.377 . S
C289 H273 0.930 . S
C289 C288 1.377 . S
C289 C290 1.379 . S
C290 H274 0.931 . S
C290 C284 1.383 . S
C290 C289 1.379 . S
H291 C285 0.959 . S
H292 C285 0.961 . S
H293 C285 0.960 . S
H294 C286 0.930 . S
H295 C287 0.929 . S
H296 C304 0.929 . S
H297 C306 0.930 . S
H298 C308 0.930 . S
H299 C311 0.929 . S
H300 C314 0.930 . S
H301 C316 0.960 . S
H302 C316 0.960 . S
H303 C316 0.960 . S
C304 H296 0.929 . S
C304 C305 1.377 . S
C304 C306 1.384 . S
C305 C304 1.377 . S
C305 C311 1.390 . S
C306 H297 0.930 . S
C306 C304 1.384 . S
C306 C307 1.372 . S
C307 C306 1.372 . S
C307 C308 1.400 . S
C307 C312 1.490 . S
C308 H298 0.930 . S
C308 C307 1.400 . S
C308 C311 1.386 . S
H309 C325 0.930 . S
H310 C326 0.931 . S
C311 H299 0.929 . S
C311 C305 1.390 . S
C311 C308 1.386 . S
C312 C307 1.490 . S
C312 C314 1.395 . S
C312 C315 1.403 . S
H313 C319 0.930 . S
C314 H300 0.930 . S
C314 C312 1.395 . S
C314 C317 1.403 . S
C315 C312 1.403 . S
C315 C316 1.524 . S
C315 C319 1.400 . S
C316 H301 0.960 . S
C316 H302 0.960 . S
C316 H303 0.960 . S
C316 C315 1.524 . S
C317 C314 1.403 . S
C317 C318 1.392 . S
C317 C321 1.495 . S
C318 C317 1.392 . S
C318 C319 1.385 . S
C318 C320 1.478 . S
C319 H313 0.930 . S
C319 C315 1.400 . S
C319 C318 1.385 . S
C320 C318 1.478 . S
C320 C322 1.381 . S
C320 C326 1.383 . S
C321 C317 1.495 . S
C321 H327 0.959 . S
C321 H328 0.961 . S
C321 H329 0.960 . S
C322 C320 1.381 . S
C322 C323 1.394 . S
C322 H330 0.930 . S
C323 C322 1.394 . S
C323 C324 1.383 . S
C323 H331 0.929 . S
C324 C323 1.383 . S
C324 C325 1.377 . S
C325 H309 0.930 . S
C325 C324 1.377 . S
C325 C326 1.379 . S
C326 H310 0.931 . S
C326 C320 1.383 . S
C326 C325 1.379 . S
H327 C321 0.959 . S
H328 C321 0.961 . S
H329 C321 0.960 . S
H330 C322 0.930 . S
H331 C323 0.929 . S
H332 C340 0.929 . S
H333 C342 0.930 . S
H334 C344 0.930 . S
H335 C347 0.929 . S
H336 C350 0.930 . S
H337 C352 0.960 . S
H338 C352 0.960 . S
H339 C352 0.960 . S
C340 H332 0.929 . S
C340 C341 1.377 . S
C340 C342 1.384 . S
C341 C340 1.377 . S
C341 C347 1.390 . S
C342 H333 0.930 . S
C342 C340 1.384 . S
C342 C343 1.372 . S
C343 C342 1.372 . S
C343 C344 1.400 . S
C343 C348 1.490 . S
C344 H334 0.930 . S
C344 C343 1.400 . S
C344 C347 1.386 . S
H345 C361 0.930 . S
H346 C362 0.931 . S
C347 H335 0.929 . S
C347 C341 1.390 . S
C347 C344 1.386 . S
C348 C343 1.490 . S
C348 C350 1.395 . S
C348 C351 1.403 . S
H349 C355 0.930 . S
C350 H336 0.930 . S
C350 C348 1.395 . S
C350 C353 1.403 . S
C351 C348 1.403 . S
C351 C352 1.524 . S
C351 C355 1.400 . S
C352 H337 0.960 . S
C352 H338 0.960 . S
C352 H339 0.960 . S
C352 C351 1.524 . S
C353 C350 1.403 . S
C353 C354 1.392 . S
C353 C357 1.495 . S
C354 C353 1.392 . S
C354 C355 1.385 . S
C354 C356 1.478 . S
C355 H349 0.930 . S
C355 C351 1.400 . S
C355 C354 1.385 . S
C356 C354 1.478 . S
C356 C358 1.381 . S
C356 C362 1.383 . S
C357 C353 1.495 . S
C357 H363 0.959 . S
C357 H364 0.961 . S
C357 H365 0.960 . S
C358 C356 1.381 . S
C358 C359 1.394 . S
C358 H366 0.930 . S
C359 C358 1.394 . S
C359 C360 1.383 . S
C359 H367 0.929 . S
C360 C359 1.383 . S
C360 C361 1.377 . S
C361 H345 0.930 . S
C361 C360 1.377 . S
C361 C362 1.379 . S
C362 H346 0.931 . S
C362 C356 1.383 . S
C362 C361 1.379 . S
H363 C357 0.959 . S
H364 C357 0.961 . S
H365 C357 0.960 . S
H366 C358 0.930 . S
H367 C359 0.929 . S
H368 C376 0.929 . S
H369 C378 0.930 . S
H370 C380 0.930 . S
H371 C383 0.929 . S
H372 C386 0.930 . S
H373 C388 0.960 . S
H374 C388 0.960 . S
H375 C388 0.960 . S
C376 H368 0.929 . S
C376 C377 1.377 . S
C376 C378 1.384 . S
C377 C376 1.377 . S
C377 C383 1.390 . S
C378 H369 0.930 . S
C378 C376 1.384 . S
C378 C379 1.372 . S
C379 C378 1.372 . S
C379 C380 1.400 . S
C379 C384 1.490 . S
C380 H370 0.930 . S
C380 C379 1.400 . S
C380 C383 1.386 . S
H381 C397 0.930 . S
H382 C398 0.931 . S
C383 H371 0.929 . S
C383 C377 1.390 . S
C383 C380 1.386 . S
C384 C379 1.490 . S
C384 C386 1.395 . S
C384 C387 1.403 . S
H385 C391 0.930 . S
C386 H372 0.930 . S
C386 C384 1.395 . S
C386 C389 1.403 . S
C387 C384 1.403 . S
C387 C388 1.524 . S
C387 C391 1.400 . S
C388 H373 0.960 . S
C388 H374 0.960 . S
C388 H375 0.960 . S
C388 C387 1.524 . S
C389 C386 1.403 . S
C389 C390 1.392 . S
C389 C393 1.495 . S
C390 C389 1.392 . S
C390 C391 1.385 . S
C390 C392 1.478 . S
C391 H385 0.930 . S
C391 C387 1.400 . S
C391 C390 1.385 . S
C392 C390 1.478 . S
C392 C394 1.381 . S
C392 C398 1.383 . S
C393 C389 1.495 . S
C393 H399 0.959 . S
C393 H400 0.961 . S
C393 H401 0.960 . S
C394 C392 1.381 . S
C394 C395 1.394 . S
C394 H402 0.930 . S
C395 C394 1.394 . S
C395 C396 1.383 . S
C395 H403 0.929 . S
C396 C395 1.383 . S
C396 C397 1.377 . S
C397 H381 0.930 . S
C397 C396 1.377 . S
C397 C398 1.379 . S
C398 H382 0.931 . S
C398 C392 1.383 . S
C398 C397 1.379 . S
H399 C393 0.959 . S
H400 C393 0.961 . S
H401 C393 0.960 . S
H402 C394 0.930 . S
H403 C395 0.929 . S
H404 C412 0.929 . S
H405 C414 0.930 . S
H406 C416 0.930 . S
H407 C419 0.929 . S
H408 C422 0.930 . S
H409 C424 0.960 . S
H410 C424 0.960 . S
H411 C424 0.960 . S
C412 H404 0.929 . S
C412 C413 1.377 . S
C412 C414 1.384 . S
C413 C412 1.377 . S
C413 C419 1.390 . S
C414 H405 0.930 . S
C414 C412 1.384 . S
C414 C415 1.372 . S
C415 C414 1.372 . S
C415 C416 1.400 . S
C415 C420 1.490 . S
C416 H406 0.930 . S
C416 C415 1.400 . S
C416 C419 1.386 . S
H417 C433 0.930 . S
H418 C434 0.931 . S
C419 H407 0.929 . S
C419 C413 1.390 . S
C419 C416 1.386 . S
C420 C415 1.490 . S
C420 C422 1.395 . S
C420 C423 1.403 . S
H421 C427 0.930 . S
C422 H408 0.930 . S
C422 C420 1.395 . S
C422 C425 1.403 . S
C423 C420 1.403 . S
C423 C424 1.524 . S
C423 C427 1.400 . S
C424 H409 0.960 . S
C424 H410 0.960 . S
C424 H411 0.960 . S
C424 C423 1.524 . S
C425 C422 1.403 . S
C425 C426 1.392 . S
C425 C429 1.495 . S
C426 C425 1.392 . S
C426 C427 1.385 . S
C426 C428 1.478 . S
C427 H421 0.930 . S
C427 C423 1.400 . S
C427 C426 1.385 . S
C428 C426 1.478 . S
C428 C430 1.381 . S
C428 C434 1.383 . S
C429 C425 1.495 . S
C429 H435 0.959 . S
C429 H436 0.961 . S
C429 H437 0.960 . S
C430 C428 1.381 . S
C430 C431 1.394 . S
C430 H438 0.930 . S
C431 C430 1.394 . S
C431 C432 1.383 . S
C431 H439 0.929 . S
C432 C431 1.383 . S
C432 C433 1.377 . S
C433 H417 0.930 . S
C433 C432 1.377 . S
C433 C434 1.379 . S
C434 H418 0.931 . S
C434 C428 1.383 . S
C434 C433 1.379 . S
H435 C429 0.959 . S
H436 C429 0.961 . S
H437 C429 0.960 . S
H438 C430 0.930 . S
H439 C431 0.929 . S
H440 C448 0.929 . S
H441 C450 0.930 . S
H442 C452 0.930 . S
H443 C455 0.929 . S
H444 C458 0.930 . S
H445 C460 0.960 . S
H446 C460 0.960 . S
H447 C460 0.960 . S
C448 H440 0.929 . S
C448 C449 1.377 . S
C448 C450 1.384 . S
C449 C448 1.377 . S
C449 C455 1.390 . S
C450 H441 0.930 . S
C450 C448 1.384 . S
C450 C451 1.372 . S
C451 C450 1.372 . S
C451 C452 1.400 . S
C451 C456 1.490 . S
C452 H442 0.930 . S
C452 C451 1.400 . S
C452 C455 1.386 . S
H453 C469 0.930 . S
H454 C470 0.931 . S
C455 H443 0.929 . S
C455 C449 1.390 . S
C455 C452 1.386 . S
C456 C451 1.490 . S
C456 C458 1.395 . S
C456 C459 1.403 . S
H457 C463 0.930 . S
C458 H444 0.930 . S
C458 C456 1.395 . S
C458 C461 1.403 . S
C459 C456 1.403 . S
C459 C460 1.524 . S
C459 C463 1.400 . S
C460 H445 0.960 . S
C460 H446 0.960 . S
C460 H447 0.960 . S
C460 C459 1.524 . S
C461 C458 1.403 . S
C461 C462 1.392 . S
C461 C465 1.495 . S
C462 C461 1.392 . S
C462 C463 1.385 . S
C462 C464 1.478 . S
C463 H457 0.930 . S
C463 C459 1.400 . S
C463 C462 1.385 . S
C464 C462 1.478 . S
C464 C466 1.381 . S
C464 C470 1.383 . S
C465 C461 1.495 . S
C465 H471 0.959 . S
C465 H472 0.961 . S
C465 H473 0.960 . S
C466 C464 1.381 . S
C466 C467 1.394 . S
C466 H474 0.930 . S
C467 C466 1.394 . S
C467 C468 1.383 . S
C467 H475 0.929 . S
C468 C467 1.383 . S
C468 C469 1.377 . S
C469 H453 0.930 . S
C469 C468 1.377 . S
C469 C470 1.379 . S
C470 H454 0.931 . S
C470 C464 1.383 . S
C470 C469 1.379 . S
H471 C465 0.959 . S
H472 C465 0.961 . S
H473 C465 0.960 . S
H474 C466 0.930 . S
H475 C467 0.929 . S
H476 C484 0.929 . S
H477 C486 0.930 . S
H478 C488 0.930 . S
H479 C491 0.929 . S
H480 C494 0.930 . S
H481 C496 0.960 . S
H482 C496 0.960 . S
H483 C496 0.960 . S
C484 H476 0.929 . S
C484 C485 1.377 . S
C484 C486 1.384 . S
C485 C484 1.377 . S
C485 C491 1.390 . S
C486 H477 0.930 . S
C486 C484 1.384 . S
C486 C487 1.372 . S
C487 C486 1.372 . S
C487 C488 1.400 . S
C487 C492 1.490 . S
C488 H478 0.930 . S
C488 C487 1.400 . S
C488 C491 1.386 . S
H489 C505 0.930 . S
H490 C506 0.931 . S
C491 H479 0.929 . S
C491 C485 1.390 . S
C491 C488 1.386 . S
C492 C487 1.490 . S
C492 C494 1.395 . S
C492 C495 1.403 . S
H493 C499 0.930 . S
C494 H480 0.930 . S
C494 C492 1.395 . S
C494 C497 1.403 . S
C495 C492 1.403 . S
C495 C496 1.524 . S
C495 C499 1.400 . S
C496 H481 0.960 . S
C496 H482 0.960 . S
C496 H483 0.960 . S
C496 C495 1.524 . S
C497 C494 1.403 . S
C497 C498 1.392 . S
C497 C501 1.495 . S
C498 C497 1.392 . S
C498 C499 1.385 . S
C498 C500 1.478 1_455 S
C499 H493 0.930 . S
C499 C495 1.400 . S
C499 C498 1.385 . S
C500 C498 1.478 1_655 S
C500 C502 1.381 . S
C500 C506 1.383 . S
C501 C497 1.495 . S
C501 H507 0.959 . S
C501 H508 0.961 . S
C501 H509 0.960 . S
C502 C500 1.381 . S
C502 C503 1.394 . S
C502 H510 0.930 . S
C503 C502 1.394 . S
C503 C504 1.383 . S
C503 H511 0.929 . S
C504 C503 1.383 . S
C504 C505 1.377 . S
C505 H489 0.930 . S
C505 C504 1.377 . S
C505 C506 1.379 . S
C506 H490 0.931 . S
C506 C500 1.383 . S
C506 C505 1.379 . S
H507 C501 0.959 . S
H508 C501 0.961 . S
H509 C501 0.960 . S
H510 C502 0.930 . S
H511 C503 0.929 . S
H512 C520 0.929 . S
H513 C522 0.930 . S
H514 C524 0.930 1_655 S
H515 C527 0.929 1_655 S
H516 C530 0.930 . S
H517 C532 0.960 . S
H518 C532 0.960 1_565 S
H519 C532 0.960 . S
C520 H512 0.929 . S
C520 C521 1.377 . S
C520 C522 1.384 . S
C521 C520 1.377 . S
C521 C527 1.390 1_565 S
C522 H513 0.930 . S
C522 C520 1.384 . S
C522 C523 1.372 . S
C523 C522 1.372 . S
C523 C524 1.400 1_565 S
C523 C528 1.490 . S
C524 H514 0.930 1_455 S
C524 C523 1.400 1_545 S
C524 C527 1.386 . S
H525 C541 0.930 . S
H526 C542 0.931 . S
C527 H515 0.929 1_455 S
C527 C521 1.390 1_545 S
C527 C524 1.386 . S
C528 C523 1.490 . S
C528 C530 1.395 . S
C528 C531 1.403 1_465 S
H529 C535 0.930 . S
C530 H516 0.930 . S
C530 C528 1.395 . S
C530 C533 1.403 . S
C531 C528 1.403 1_645 S
C531 C532 1.524 . S
C531 C535 1.400 . S
C532 H517 0.960 . S
C532 H518 0.960 1_545 S
C532 H519 0.960 . S
C532 C531 1.524 . S
C533 C530 1.403 . S
C533 C534 1.392 1_565 S
C533 C537 1.495 . S
C534 C533 1.392 1_545 S
C534 C535 1.385 1_455 S
C534 C536 1.478 . S
C535 H529 0.930 . S
C535 C531 1.400 . S
C535 C534 1.385 1_655 S
C536 C534 1.478 . S
C536 C538 1.381 1_545 S
C536 C542 1.383 . S
C537 C533 1.495 . S
C537 H543 0.959 . S
C537 H544 0.961 1_565 S
C537 H545 0.960 . S
C538 C536 1.381 1_565 S
C538 C539 1.394 . S
C538 H546 0.930 . S
C539 C538 1.394 . S
C539 C540 1.383 1_565 S
C539 H547 0.929 . S
C540 C539 1.383 1_545 S
C540 C541 1.377 . S
C541 H525 0.930 . S
C541 C540 1.377 . S
C541 C542 1.379 . S
C542 H526 0.931 . S
C542 C536 1.383 . S
C542 C541 1.379 . S
H543 C537 0.959 . S
H544 C537 0.961 1_545 S
H545 C537 0.960 . S
H546 C538 0.930 . S
H547 C539 0.929 . S
H548 C556 0.929 . S
H549 C558 0.930 . S
H550 C560 0.930 . S
H551 C563 0.929 . S
H552 C566 0.930 . S
H553 C568 0.960 . S
H554 C568 0.960 . S
H555 C568 0.960 . S
C556 H548 0.929 . S
C556 C557 1.377 . S
C556 C558 1.384 . S
C557 C556 1.377 . S
C557 C563 1.390 . S
C558 H549 0.930 . S
C558 C556 1.384 . S
C558 C559 1.372 . S
C559 C558 1.372 . S
C559 C560 1.400 . S
C559 C564 1.490 . S
C560 H550 0.930 . S
C560 C559 1.400 . S
C560 C563 1.386 . S
H561 C577 0.930 . S
H562 C578 0.931 . S
C563 H551 0.929 . S
C563 C557 1.390 . S
C563 C560 1.386 . S
C564 C559 1.490 . S
C564 C566 1.395 . S
C564 C567 1.403 . S
H565 C571 0.930 . S
C566 H552 0.930 . S
C566 C564 1.395 . S
C566 C569 1.403 . S
C567 C564 1.403 . S
C567 C568 1.524 . S
C567 C571 1.400 . S
C568 H553 0.960 . S
C568 H554 0.960 . S
C568 H555 0.960 . S
C568 C567 1.524 . S
C569 C566 1.403 . S
C569 C570 1.392 . S
C569 C573 1.495 . S
C570 C569 1.392 . S
C570 C571 1.385 . S
C570 C572 1.478 . S
C571 H565 0.930 . S
C571 C567 1.400 . S
C571 C570 1.385 . S
C572 C570 1.478 . S
C572 C574 1.381 . S
C572 C578 1.383 . S
C573 C569 1.495 . S
C573 H579 0.959 . S
C573 H580 0.961 . S
C573 H581 0.960 . S
C574 C572 1.381 . S
C574 C575 1.394 . S
C574 H582 0.930 . S
C575 C574 1.394 . S
C575 C576 1.383 . S
C575 H583 0.929 . S
C576 C575 1.383 . S
C576 C577 1.377 . S
C577 H561 0.930 . S
C577 C576 1.377 . S
C577 C578 1.379 . S
C578 H562 0.931 . S
C578 C572 1.383 . S
C578 C577 1.379 . S
H579 C573 0.959 . S
H580 C573 0.961 . S
H581 C573 0.960 . S
H582 C574 0.930 . S
H583 C575 0.929 . S
H584 C592 0.929 . S
H585 C594 0.930 . S
H586 C596 0.930 . S
H587 C599 0.929 . S
H588 C602 0.930 . S
H589 C604 0.960 . S
H590 C604 0.960 . S
H591 C604 0.960 . S
C592 H584 0.929 . S
C592 C593 1.377 1_545 S
C592 C594 1.384 . S
C593 C592 1.377 1_565 S
C593 C599 1.390 . S
C594 H585 0.930 . S
C594 C592 1.384 . S
C594 C595 1.372 1_545 S
C595 C594 1.372 1_565 S
C595 C596 1.400 . S
C595 C600 1.490 . S
C596 H586 0.930 . S
C596 C595 1.400 . S
C596 C599 1.386 . S
H597 C613 0.930 . S
H598 C614 0.931 . S
C599 H587 0.929 . S
C599 C593 1.390 . S
C599 C596 1.386 . S
C600 C595 1.490 . S
C600 C602 1.395 1_565 S
C600 C603 1.403 . S
H601 C607 0.930 . S
C602 H588 0.930 . S
C602 C600 1.395 1_545 S
C602 C605 1.403 1_554 S
C603 C600 1.403 . S
C603 C604 1.524 . S
C603 C607 1.400 1_554 S
C604 H589 0.960 . S
C604 H590 0.960 . S
C604 H591 0.960 . S
C604 C603 1.524 . S
C605 C602 1.403 1_556 S
C605 C606 1.392 . S
C605 C609 1.495 . S
C606 C605 1.392 . S
C606 C607 1.385 1_545 S
C606 C608 1.478 . S
C607 H601 0.930 . S
C607 C603 1.400 1_556 S
C607 C606 1.385 1_565 S
C608 C606 1.478 . S
C608 C610 1.381 . S
C608 C614 1.383 1_545 S
C609 C605 1.495 . S
C609 H615 0.959 . S
C609 H616 0.961 . S
C609 H617 0.960 . S
C610 C608 1.381 . S
C610 C611 1.394 . S
C610 H618 0.930 . S
C611 C610 1.394 . S
C611 C612 1.383 . S
C611 H619 0.929 . S
C612 C611 1.383 . S
C612 C613 1.377 1_545 S
C613 H597 0.930 . S
C613 C612 1.377 1_565 S
C613 C614 1.379 . S
C614 H598 0.931 . S
C614 C608 1.383 1_565 S
C614 C613 1.379 . S
H615 C609 0.959 . S
H616 C609 0.961 . S
H617 C609 0.960 . S
H618 C610 0.930 . S
H619 C611 0.929 . S
H620 C628 0.929 . S
H621 C630 0.930 . S
H622 C632 0.930 . S
H623 C635 0.929 . S
H624 C638 0.930 . S
H625 C640 0.960 . S
H626 C640 0.960 . S
H627 C640 0.960 . S
C628 H620 0.929 . S
C628 C629 1.377 . S
C628 C630 1.384 . S
C629 C628 1.377 . S
C629 C635 1.390 . S
C630 H621 0.930 . S
C630 C628 1.384 . S
C630 C631 1.372 . S
C631 C630 1.372 . S
C631 C632 1.400 . S
C631 C636 1.490 . S
C632 H622 0.930 . S
C632 C631 1.400 . S
C632 C635 1.386 . S
H633 C649 0.930 . S
H634 C650 0.931 . S
C635 H623 0.929 . S
C635 C629 1.390 . S
C635 C632 1.386 . S
C636 C631 1.490 . S
C636 C638 1.395 . S
C636 C639 1.403 . S
H637 C643 0.930 . S
C638 H624 0.930 . S
C638 C636 1.395 . S
C638 C641 1.403 . S
C639 C636 1.403 . S
C639 C640 1.524 . S
C639 C643 1.400 . S
C640 H625 0.960 . S
C640 H626 0.960 . S
C640 H627 0.960 . S
C640 C639 1.524 . S
C641 C638 1.403 . S
C641 C642 1.392 . S
C641 C645 1.495 . S
C642 C641 1.392 . S
C642 C643 1.385 . S
C642 C644 1.478 . S
C643 H637 0.930 . S
C643 C639 1.400 . S
C643 C642 1.385 . S
C644 C642 1.478 . S
C644 C646 1.381 . S
C644 C650 1.383 . S
C645 C641 1.495 . S
C645 H651 0.959 . S
C645 H652 0.961 . S
C645 H653 0.960 . S
C646 C644 1.381 . S
C646 C647 1.394 . S
C646 H654 0.930 . S
C647 C646 1.394 . S
C647 C648 1.383 . S
C647 H655 0.929 . S
C648 C647 1.383 . S
C648 C649 1.377 . S
C649 H633 0.930 . S
C649 C648 1.377 . S
C649 C650 1.379 . S
C650 H634 0.931 . S
C650 C644 1.383 . S
C650 C649 1.379 . S
H651 C645 0.959 . S
H652 C645 0.961 . S
H653 C645 0.960 . S
H654 C646 0.930 . S
H655 C647 0.929 . S
H656 C664 0.929 . S
H657 C666 0.930 . S
H658 C668 0.930 . S
H659 C671 0.929 . S
H660 C674 0.930 . S
H661 C676 0.960 . S
H662 C676 0.960 . S
H663 C676 0.960 . S
C664 H656 0.929 . S
C664 C665 1.377 . S
C664 C666 1.384 . S
C665 C664 1.377 . S
C665 C671 1.390 . S
C666 H657 0.930 . S
C666 C664 1.384 . S
C666 C667 1.372 . S
C667 C666 1.372 . S
C667 C668 1.400 . S
C667 C672 1.490 . S
C668 H658 0.930 . S
C668 C667 1.400 . S
C668 C671 1.386 . S
H669 C685 0.930 . S
H670 C686 0.931 . S
C671 H659 0.929 . S
C671 C665 1.390 . S
C671 C668 1.386 . S
C672 C667 1.490 . S
C672 C674 1.395 . S
C672 C675 1.403 . S
H673 C679 0.930 . S
C674 H660 0.930 . S
C674 C672 1.395 . S
C674 C677 1.403 . S
C675 C672 1.403 . S
C675 C676 1.524 . S
C675 C679 1.400 . S
C676 H661 0.960 . S
C676 H662 0.960 . S
C676 H663 0.960 . S
C676 C675 1.524 . S
C677 C674 1.403 . S
C677 C678 1.392 . S
C677 C681 1.495 . S
C678 C677 1.392 . S
C678 C679 1.385 . S
C678 C680 1.478 . S
C679 H673 0.930 . S
C679 C675 1.400 . S
C679 C678 1.385 . S
C680 C678 1.478 . S
C680 C682 1.381 . S
C680 C686 1.383 . S
C681 C677 1.495 . S
C681 H687 0.959 . S
C681 H688 0.961 . S
C681 H689 0.960 . S
C682 C680 1.381 . S
C682 C683 1.394 . S
C682 H690 0.930 . S
C683 C682 1.394 . S
C683 C684 1.383 . S
C683 H691 0.929 . S
C684 C683 1.383 . S
C684 C685 1.377 . S
C685 H669 0.930 . S
C685 C684 1.377 . S
C685 C686 1.379 . S
C686 H670 0.931 . S
C686 C680 1.383 . S
C686 C685 1.379 . S
H687 C681 0.959 . S
H688 C681 0.961 . S
H689 C681 0.960 . S
H690 C682 0.930 . S
H691 C683 0.929 . S
H692 C700 0.929 . S
H693 C702 0.930 . S
H694 C704 0.930 . S
H695 C707 0.929 . S
H696 C710 0.930 . S
H697 C712 0.960 . S
H698 C712 0.960 . S
H699 C712 0.960 . S
C700 H692 0.929 . S
C700 C701 1.377 . S
C700 C702 1.384 . S
C701 C700 1.377 . S
C701 C707 1.390 . S
C702 H693 0.930 . S
C702 C700 1.384 . S
C702 C703 1.372 . S
C703 C702 1.372 . S
C703 C704 1.400 . S
C703 C708 1.490 . S
C704 H694 0.930 . S
C704 C703 1.400 . S
C704 C707 1.386 . S
H705 C721 0.930 . S
H706 C722 0.931 . S
C707 H695 0.929 . S
C707 C701 1.390 . S
C707 C704 1.386 . S
C708 C703 1.490 . S
C708 C710 1.395 . S
C708 C711 1.403 . S
H709 C715 0.930 . S
C710 H696 0.930 . S
C710 C708 1.395 . S
C710 C713 1.403 . S
C711 C708 1.403 . S
C711 C712 1.524 . S
C711 C715 1.400 . S
C712 H697 0.960 . S
C712 H698 0.960 . S
C712 H699 0.960 . S
C712 C711 1.524 . S
C713 C710 1.403 . S
C713 C714 1.392 . S
C713 C717 1.495 . S
C714 C713 1.392 . S
C714 C715 1.385 . S
C714 C716 1.478 . S
C715 H709 0.930 . S
C715 C711 1.400 . S
C715 C714 1.385 . S
C716 C714 1.478 . S
C716 C718 1.381 . S
C716 C722 1.383 . S
C717 C713 1.495 . S
C717 H723 0.959 . S
C717 H724 0.961 . S
C717 H725 0.960 . S
C718 C716 1.381 . S
C718 C719 1.394 . S
C718 H726 0.930 . S
C719 C718 1.394 . S
C719 C720 1.383 . S
C719 H727 0.929 . S
C720 C719 1.383 . S
C720 C721 1.377 . S
C721 H705 0.930 . S
C721 C720 1.377 . S
C721 C722 1.379 . S
C722 H706 0.931 . S
C722 C716 1.383 . S
C722 C721 1.379 . S
H723 C717 0.959 . S
H724 C717 0.961 . S
H725 C717 0.960 . S
H726 C718 0.930 . S
H727 C719 0.929 . S
H728 C736 0.929 . S
H729 C738 0.930 . S
H730 C740 0.930 . S
H731 C743 0.929 . S
H732 C746 0.930 . S
H733 C748 0.960 . S
H734 C748 0.960 . S
H735 C748 0.960 . S
C736 H728 0.929 . S
C736 C737 1.377 . S
C736 C738 1.384 . S
C737 C736 1.377 . S
C737 C743 1.390 . S
C738 H729 0.930 . S
C738 C736 1.384 . S
C738 C739 1.372 . S
C739 C738 1.372 . S
C739 C740 1.400 . S
C739 C744 1.490 . S
C740 H730 0.930 . S
C740 C739 1.400 . S
C740 C743 1.386 . S
H741 C757 0.930 . S
H742 C758 0.931 . S
C743 H731 0.929 . S
C743 C737 1.390 . S
C743 C740 1.386 . S
C744 C739 1.490 . S
C744 C746 1.395 . S
C744 C747 1.403 . S
H745 C751 0.930 . S
C746 H732 0.930 . S
C746 C744 1.395 . S
C746 C749 1.403 1_556 S
C747 C744 1.403 . S
C747 C748 1.524 . S
C747 C751 1.400 1_556 S
C748 H733 0.960 . S
C748 H734 0.960 . S
C748 H735 0.960 . S
C748 C747 1.524 . S
C749 C746 1.403 1_554 S
C749 C750 1.392 . S
C749 C753 1.495 . S
C750 C749 1.392 . S
C750 C751 1.385 . S
C750 C752 1.478 . S
C751 H745 0.930 . S
C751 C747 1.400 1_554 S
C751 C750 1.385 . S
C752 C750 1.478 . S
C752 C754 1.381 . S
C752 C758 1.383 . S
C753 C749 1.495 . S
C753 H759 0.959 . S
C753 H760 0.961 . S
C753 H761 0.960 . S
C754 C752 1.381 . S
C754 C755 1.394 . S
C754 H762 0.930 . S
C755 C754 1.394 . S
C755 C756 1.383 . S
C755 H763 0.929 . S
C756 C755 1.383 . S
C756 C757 1.377 . S
C757 H741 0.930 . S
C757 C756 1.377 . S
C757 C758 1.379 . S
C758 H742 0.931 . S
C758 C752 1.383 . S
C758 C757 1.379 . S
H759 C753 0.959 . S
H760 C753 0.961 . S
H761 C753 0.960 . S
H762 C754 0.930 . S
H763 C755 0.929 . S
H764 C772 0.929 . S
H765 C774 0.930 . S
H766 C776 0.930 . S
H767 C779 0.929 . S
H768 C782 0.930 . S
H769 C784 0.960 . S
H770 C784 0.960 . S
H771 C784 0.960 . S
C772 H764 0.929 . S
C772 C773 1.377 . S
C772 C774 1.384 . S
C773 C772 1.377 . S
C773 C779 1.390 . S
C774 H765 0.930 . S
C774 C772 1.384 . S
C774 C775 1.372 . S
C775 C774 1.372 . S
C775 C776 1.400 . S
C775 C780 1.490 . S
C776 H766 0.930 . S
C776 C775 1.400 . S
C776 C779 1.386 . S
H777 C793 0.930 . S
H778 C794 0.931 . S
C779 H767 0.929 . S
C779 C773 1.390 . S
C779 C776 1.386 . S
C780 C775 1.490 . S
C780 C782 1.395 . S
C780 C783 1.403 . S
H781 C787 0.930 . S
C782 H768 0.930 . S
C782 C780 1.395 . S
C782 C785 1.403 . S
C783 C780 1.403 . S
C783 C784 1.524 . S
C783 C787 1.400 . S
C784 H769 0.960 . S
C784 H770 0.960 . S
C784 H771 0.960 . S
C784 C783 1.524 . S
C785 C782 1.403 . S
C785 C786 1.392 . S
C785 C789 1.495 . S
C786 C785 1.392 . S
C786 C787 1.385 . S
C786 C788 1.478 . S
C787 H781 0.930 . S
C787 C783 1.400 . S
C787 C786 1.385 . S
C788 C786 1.478 . S
C788 C790 1.381 . S
C788 C794 1.383 . S
C789 C785 1.495 . S
C789 H795 0.959 . S
C789 H796 0.961 . S
C789 H797 0.960 . S
C790 C788 1.381 . S
C790 C791 1.394 . S
C790 H798 0.930 . S
C791 C790 1.394 . S
C791 C792 1.383 . S
C791 H799 0.929 . S
C792 C791 1.383 . S
C792 C793 1.377 . S
C793 H777 0.930 . S
C793 C792 1.377 . S
C793 C794 1.379 . S
C794 H778 0.931 . S
C794 C788 1.383 . S
C794 C793 1.379 . S
H795 C789 0.959 . S
H796 C789 0.961 . S
H797 C789 0.960 . S
H798 C790 0.930 . S
H799 C791 0.929 . S
H800 C808 0.929 . S
H801 C810 0.930 . S
H802 C812 0.930 . S
H803 C815 0.929 . S
H804 C818 0.930 . S
H805 C820 0.960 . S
H806 C820 0.960 . S
H807 C820 0.960 . S
C808 H800 0.929 . S
C808 C809 1.377 . S
C808 C810 1.384 . S
C809 C808 1.377 . S
C809 C815 1.390 . S
C810 H801 0.930 . S
C810 C808 1.384 . S
C810 C811 1.372 . S
C811 C810 1.372 . S
C811 C812 1.400 . S
C811 C816 1.490 . S
C812 H802 0.930 . S
C812 C811 1.400 . S
C812 C815 1.386 . S
H813 C829 0.930 . S
H814 C830 0.931 . S
C815 H803 0.929 . S
C815 C809 1.390 . S
C815 C812 1.386 . S
C816 C811 1.490 . S
C816 C818 1.395 . S
C816 C819 1.403 . S
H817 C823 0.930 . S
C818 H804 0.930 . S
C818 C816 1.395 . S
C818 C821 1.403 . S
C819 C816 1.403 . S
C819 C820 1.524 . S
C819 C823 1.400 . S
C820 H805 0.960 . S
C820 H806 0.960 . S
C820 H807 0.960 . S
C820 C819 1.524 . S
C821 C818 1.403 . S
C821 C822 1.392 . S
C821 C825 1.495 . S
C822 C821 1.392 . S
C822 C823 1.385 . S
C822 C824 1.478 . S
C823 H817 0.930 . S
C823 C819 1.400 . S
C823 C822 1.385 . S
C824 C822 1.478 . S
C824 C826 1.381 . S
C824 C830 1.383 . S
C825 C821 1.495 . S
C825 H831 0.959 . S
C825 H832 0.961 . S
C825 H833 0.960 . S
C826 C824 1.381 . S
C826 C827 1.394 . S
C826 H834 0.930 . S
C827 C826 1.394 . S
C827 C828 1.383 . S
C827 H835 0.929 . S
C828 C827 1.383 . S
C828 C829 1.377 . S
C829 H813 0.930 . S
C829 C828 1.377 . S
C829 C830 1.379 . S
C830 H814 0.931 . S
C830 C824 1.383 . S
C830 C829 1.379 . S
H831 C825 0.959 . S
H832 C825 0.961 . S
H833 C825 0.960 . S
H834 C826 0.930 . S
H835 C827 0.929 . S
H836 C844 0.929 . S
H837 C846 0.930 . S
H838 C848 0.930 . S
H839 C851 0.929 . S
H840 C854 0.930 . S
H841 C856 0.960 . S
H842 C856 0.960 . S
H843 C856 0.960 . S
C844 H836 0.929 . S
C844 C845 1.377 . S
C844 C846 1.384 . S
C845 C844 1.377 . S
C845 C851 1.390 . S
C846 H837 0.930 . S
C846 C844 1.384 . S
C846 C847 1.372 . S
C847 C846 1.372 . S
C847 C848 1.400 . S
C847 C852 1.490 . S
C848 H838 0.930 . S
C848 C847 1.400 . S
C848 C851 1.386 . S
H849 C865 0.930 . S
H850 C866 0.931 . S
C851 H839 0.929 . S
C851 C845 1.390 . S
C851 C848 1.386 . S
C852 C847 1.490 . S
C852 C854 1.395 . S
C852 C855 1.403 . S
H853 C859 0.930 . S
C854 H840 0.930 . S
C854 C852 1.395 . S
C854 C857 1.403 . S
C855 C852 1.403 . S
C855 C856 1.524 . S
C855 C859 1.400 . S
C856 H841 0.960 . S
C856 H842 0.960 . S
C856 H843 0.960 . S
C856 C855 1.524 . S
C857 C854 1.403 . S
C857 C858 1.392 . S
C857 C861 1.495 . S
C858 C857 1.392 . S
C858 C859 1.385 . S
C858 C860 1.478 . S
C859 H853 0.930 . S
C859 C855 1.400 . S
C859 C858 1.385 . S
C860 C858 1.478 . S
C860 C862 1.381 . S
C860 C866 1.383 . S
C861 C857 1.495 . S
C861 H867 0.959 . S
C861 H868 0.961 . S
C861 H869 0.960 . S
C862 C860 1.381 . S
C862 C863 1.394 . S
C862 H870 0.930 . S
C863 C862 1.394 . S
C863 C864 1.383 . S
C863 H871 0.929 . S
C864 C863 1.383 . S
C864 C865 1.377 . S
C865 H849 0.930 . S
C865 C864 1.377 . S
C865 C866 1.379 . S
C866 H850 0.931 . S
C866 C860 1.383 . S
C866 C865 1.379 . S
H867 C861 0.959 . S
H868 C861 0.961 . S
H869 C861 0.960 . S
H870 C862 0.930 . S
H871 C863 0.929 . S
H872 C880 0.929 . S
H873 C882 0.930 . S
H874 C884 0.930 . S
H875 C887 0.929 . S
H876 C890 0.930 . S
H877 C892 0.960 . S
H878 C892 0.960 . S
H879 C892 0.960 . S
C880 H872 0.929 . S
C880 C881 1.377 . S
C880 C882 1.384 . S
C881 C880 1.377 . S
C881 C887 1.390 . S
C882 H873 0.930 . S
C882 C880 1.384 . S
C882 C883 1.372 . S
C883 C882 1.372 . S
C883 C884 1.400 . S
C883 C888 1.490 . S
C884 H874 0.930 . S
C884 C883 1.400 . S
C884 C887 1.386 . S
H885 C901 0.930 . S
H886 C902 0.931 . S
C887 H875 0.929 . S
C887 C881 1.390 . S
C887 C884 1.386 . S
C888 C883 1.490 . S
C888 C890 1.395 . S
C888 C891 1.403 . S
H889 C895 0.930 . S
C890 H876 0.930 . S
C890 C888 1.395 . S
C890 C893 1.403 . S
C891 C888 1.403 . S
C891 C892 1.524 . S
C891 C895 1.400 . S
C892 H877 0.960 . S
C892 H878 0.960 . S
C892 H879 0.960 . S
C892 C891 1.524 . S
C893 C890 1.403 . S
C893 C894 1.392 . S
C893 C897 1.495 . S
C894 C893 1.392 . S
C894 C895 1.385 . S
C894 C896 1.478 . S
C895 H889 0.930 . S
C895 C891 1.400 . S
C895 C894 1.385 . S
C896 C894 1.478 . S
C896 C898 1.381 . S
C896 C902 1.383 . S
C897 C893 1.495 . S
C897 H903 0.959 . S
C897 H904 0.961 . S
C897 H905 0.960 . S
C898 C896 1.381 . S
C898 C899 1.394 . S
C898 H906 0.930 . S
C899 C898 1.394 . S
C899 C900 1.383 . S
C899 H907 0.929 . S
C900 C899 1.383 . S
C900 C901 1.377 . S
C901 H885 0.930 . S
C901 C900 1.377 . S
C901 C902 1.379 . S
C902 H886 0.931 . S
C902 C896 1.383 . S
C902 C901 1.379 . S
H903 C897 0.959 . S
H904 C897 0.961 . S
H905 C897 0.960 . S
H906 C898 0.930 . S
H907 C899 0.929 . S
H908 C916 0.929 . S
H909 C918 0.930 . S
H910 C920 0.930 . S
H911 C923 0.929 . S
H912 C926 0.930 . S
H913 C928 0.960 . S
H914 C928 0.960 . S
H915 C928 0.960 . S
C916 H908 0.929 . S
C916 C917 1.377 . S
C916 C918 1.384 . S
C917 C916 1.377 . S
C917 C923 1.390 . S
C918 H909 0.930 . S
C918 C916 1.384 . S
C918 C919 1.372 . S
C919 C918 1.372 . S
C919 C920 1.400 . S
C919 C924 1.490 . S
C920 H910 0.930 . S
C920 C919 1.400 . S
C920 C923 1.386 . S
H921 C937 0.930 . S
H922 C938 0.931 . S
C923 H911 0.929 . S
C923 C917 1.390 . S
C923 C920 1.386 . S
C924 C919 1.490 . S
C924 C926 1.395 . S
C924 C927 1.403 . S
H925 C931 0.930 . S
C926 H912 0.930 . S
C926 C924 1.395 . S
C926 C929 1.403 . S
C927 C924 1.403 . S
C927 C928 1.524 . S
C927 C931 1.400 . S
C928 H913 0.960 . S
C928 H914 0.960 . S
C928 H915 0.960 . S
C928 C927 1.524 . S
C929 C926 1.403 . S
C929 C930 1.392 . S
C929 C933 1.495 . S
C930 C929 1.392 . S
C930 C931 1.385 . S
C930 C932 1.478 . S
C931 H925 0.930 . S
C931 C927 1.400 . S
C931 C930 1.385 . S
C932 C930 1.478 . S
C932 C934 1.381 . S
C932 C938 1.383 . S
C933 C929 1.495 . S
C933 H939 0.959 . S
C933 H940 0.961 . S
C933 H941 0.960 . S
C934 C932 1.381 . S
C934 C935 1.394 . S
C934 H942 0.930 . S
C935 C934 1.394 . S
C935 C936 1.383 . S
C935 H943 0.929 . S
C936 C935 1.383 . S
C936 C937 1.377 . S
C937 H921 0.930 . S
C937 C936 1.377 . S
C937 C938 1.379 . S
C938 H922 0.931 . S
C938 C932 1.383 . S
C938 C937 1.379 . S
H939 C933 0.959 . S
H940 C933 0.961 . S
H941 C933 0.960 . S
H942 C934 0.930 . S
H943 C935 0.929 . S
H944 C952 0.929 1_455 S
H945 C954 0.930 . S
H946 C956 0.930 . S
H947 C959 0.929 . S
H948 C962 0.930 . S
H949 C964 0.960 . S
H950 C964 0.960 . S
H951 C964 0.960 . S
C952 H944 0.929 1_655 S
C952 C953 1.377 . S
C952 C954 1.384 . S
C953 C952 1.377 . S
C953 C959 1.390 . S
C954 H945 0.930 . S
C954 C952 1.384 . S
C954 C955 1.372 . S
C955 C954 1.372 . S
C955 C956 1.400 . S
C955 C960 1.490 . S
C956 H946 0.930 . S
C956 C955 1.400 . S
C956 C959 1.386 . S
H957 C973 0.930 . S
H958 C974 0.931 . S
C959 H947 0.929 . S
C959 C953 1.390 . S
C959 C956 1.386 . S
C960 C955 1.490 . S
C960 C962 1.395 . S
C960 C963 1.403 . S
H961 C967 0.930 . S
C962 H948 0.930 . S
C962 C960 1.395 . S
C962 C965 1.403 . S
C963 C960 1.403 . S
C963 C964 1.524 . S
C963 C967 1.400 . S
C964 H949 0.960 . S
C964 H950 0.960 . S
C964 H951 0.960 . S
C964 C963 1.524 . S
C965 C962 1.403 . S
C965 C966 1.392 . S
C965 C969 1.495 . S
C966 C965 1.392 . S
C966 C967 1.385 . S
C966 C968 1.478 . S
C967 H961 0.930 . S
C967 C963 1.400 . S
C967 C966 1.385 . S
C968 C966 1.478 . S
C968 C970 1.381 . S
C968 C974 1.383 . S
C969 C965 1.495 . S
C969 H975 0.959 . S
C969 H976 0.961 . S
C969 H977 0.960 . S
C970 C968 1.381 . S
C970 C971 1.394 . S
C970 H978 0.930 . S
C971 C970 1.394 . S
C971 C972 1.383 . S
C971 H979 0.929 . S
C972 C971 1.383 . S
C972 C973 1.377 . S
C973 H957 0.930 . S
C973 C972 1.377 . S
C973 C974 1.379 . S
C974 H958 0.931 . S
C974 C968 1.383 . S
C974 C973 1.379 . S
H975 C969 0.959 . S
H976 C969 0.961 . S
H977 C969 0.960 . S
H978 C970 0.930 . S
H979 C971 0.929 . S
H980 C988 0.929 . S
H981 C990 0.930 . S
H982 C992 0.930 . S
H983 C995 0.895 1_565 S
H984 C998 0.930 . S
H985 C1000 0.960 . S
H986 C1000 0.960 . S
H987 C1000 0.960 . S
C988 H980 0.929 . S
C988 C989 1.377 . S
C988 C990 1.384 . S
C989 C988 1.377 . S
C989 C995 1.390 . S
C990 H981 0.930 . S
C990 C988 1.384 . S
C990 C991 1.372 . S
C991 C990 1.372 . S
C991 C992 1.400 . S
C991 C996 1.490 . S
C992 H982 0.930 . S
C992 C991 1.400 . S
C992 C995 1.386 . S
H993 C1009 0.930 . S
H994 C1010 0.931 . S
C995 H983 0.895 1_545 S
C995 C989 1.390 . S
C995 C992 1.386 . S
C996 C991 1.490 . S
C996 C998 1.395 . S
C996 C999 1.403 . S
H997 C1003 0.930 . S
C998 H984 0.930 . S
C998 C996 1.395 . S
C998 C1001 1.403 . S
C999 C996 1.403 . S
C999 C1000 1.524 . S
C999 C1003 1.400 . S
C1000 H985 0.960 . S
C1000 H986 0.960 . S
C1000 H987 0.960 . S
C1000 C999 1.524 . S
C1001 C998 1.403 . S
C1001 C1002 1.392 . S
C1001 C1005 1.495 . S
C1002 C1001 1.392 . S
C1002 C1003 1.385 . S
C1002 C1004 1.478 . S
C1003 H997 0.930 . S
C1003 C999 1.400 . S
C1003 C1002 1.385 . S
C1004 C1002 1.478 . S
C1004 C1006 1.381 . S
C1004 C1010 1.383 . S
C1005 C1001 1.495 . S
C1005 H1011 0.959 . S
C1005 H1012 0.961 . S
C1005 H1013 0.960 . S
C1006 C1004 1.381 . S
C1006 C1007 1.394 . S
C1006 H1014 0.930 . S
C1007 C1006 1.394 . S
C1007 C1008 1.383 . S
C1007 H1015 0.929 . S
C1008 C1007 1.383 . S
C1008 C1009 1.377 . S
C1009 H993 0.930 . S
C1009 C1008 1.377 . S
C1009 C1010 1.379 . S
C1010 H994 0.931 . S
C1010 C1004 1.383 . S
C1010 C1009 1.379 . S
H1011 C1005 0.959 . S
H1012 C1005 0.961 . S
H1013 C1005 0.960 . S
H1014 C1006 0.930 . S
H1015 C1007 0.929 . S
H1016 C1024 0.929 . S
H1017 C1026 0.930 . S
H1018 C1028 0.930 . S
H1019 C1031 0.929 . S
H1020 C1034 0.930 . S
H1021 C1036 0.960 . S
H1022 C1036 0.960 . S
H1023 C1036 0.960 . S
C1024 H1016 0.929 . S
C1024 C1025 1.377 . S
C1024 C1026 1.384 . S
C1025 C1024 1.377 . S
C1025 C1031 1.390 . S
C1026 H1017 0.930 . S
C1026 C1024 1.384 . S
C1026 C1027 1.372 . S
C1027 C1026 1.372 . S
C1027 C1028 1.400 . S
C1027 C1032 1.490 . S
C1028 H1018 0.930 . S
C1028 C1027 1.400 . S
C1028 C1031 1.386 . S
H1029 C1045 0.930 . S
H1030 C1046 0.931 . S
C1031 H1019 0.929 . S
C1031 C1025 1.390 . S
C1031 C1028 1.386 . S
C1032 C1027 1.490 . S
C1032 C1034 1.395 . S
C1032 C1035 1.403 . S
H1033 C1039 0.930 . S
C1034 H1020 0.930 . S
C1034 C1032 1.395 . S
C1034 C1037 1.403 . S
C1035 C1032 1.403 . S
C1035 C1036 1.524 . S
C1035 C1039 1.400 . S
C1036 H1021 0.960 . S
C1036 H1022 0.960 . S
C1036 H1023 0.960 . S
C1036 C1035 1.524 . S
C1037 C1034 1.403 . S
C1037 C1038 1.392 . S
C1037 C1041 1.495 . S
C1038 C1037 1.392 . S
C1038 C1039 1.385 . S
C1038 C1040 1.478 . S
C1039 H1033 0.930 . S
C1039 C1035 1.400 . S
C1039 C1038 1.385 . S
C1040 C1038 1.478 . S
C1040 C1042 1.381 . S
C1040 C1046 1.383 . S
C1041 C1037 1.495 . S
C1041 H1047 0.959 . S
C1041 H1048 0.961 . S
C1041 H1049 0.960 . S
C1042 C1040 1.381 . S
C1042 C1043 1.394 . S
C1042 H1050 0.930 . S
C1043 C1042 1.394 . S
C1043 C1044 1.383 . S
C1043 H1051 0.929 . S
C1044 C1043 1.383 . S
C1044 C1045 1.377 . S
C1045 H1029 0.930 . S
C1045 C1044 1.377 . S
C1045 C1046 1.379 . S
C1046 H1030 0.931 . S
C1046 C1040 1.383 . S
C1046 C1045 1.379 . S
H1047 C1041 0.959 . S
H1048 C1041 0.961 . S
H1049 C1041 0.960 . S
H1050 C1042 0.930 . S
H1051 C1043 0.929 . S
H1052 C1060 0.929 . S
H1053 C1062 0.930 . S
H1054 C1064 0.930 . S
H1055 C1067 0.929 . S
H1056 C1070 0.930 . S
H1057 C1072 0.960 . S
H1058 C1072 0.960 . S
H1059 C1072 0.960 . S
C1060 H1052 0.929 . S
C1060 C1061 1.377 . S
C1060 C1062 1.384 . S
C1061 C1060 1.377 . S
C1061 C1067 1.390 . S
C1062 H1053 0.930 . S
C1062 C1060 1.384 . S
C1062 C1063 1.372 . S
C1063 C1062 1.372 . S
C1063 C1064 1.400 . S
C1063 C1068 1.490 . S
C1064 H1054 0.930 . S
C1064 C1063 1.400 . S
C1064 C1067 1.386 . S
H1065 C1081 0.930 . S
H1066 C1082 0.931 . S
C1067 H1055 0.929 . S
C1067 C1061 1.390 . S
C1067 C1064 1.386 . S
C1068 C1063 1.490 . S
C1068 C1070 1.395 . S
C1068 C1071 1.403 . S
H1069 C1075 0.930 . S
C1070 H1056 0.930 . S
C1070 C1068 1.395 . S
C1070 C1073 1.403 . S
C1071 C1068 1.403 . S
C1071 C1072 1.524 . S
C1071 C1075 1.400 . S
C1072 H1057 0.960 . S
C1072 H1058 0.960 . S
C1072 H1059 0.960 . S
C1072 C1071 1.524 . S
C1073 C1070 1.403 . S
C1073 C1074 1.392 . S
C1073 C1077 1.495 . S
C1074 C1073 1.392 . S
C1074 C1075 1.385 . S
C1074 C1076 1.478 . S
C1075 H1069 0.930 . S
C1075 C1071 1.400 . S
C1075 C1074 1.385 . S
C1076 C1074 1.478 . S
C1076 C1078 1.381 . S
C1076 C1082 1.383 . S
C1077 C1073 1.495 . S
C1077 H1083 0.959 . S
C1077 H1084 0.961 . S
C1077 H1085 0.960 . S
C1078 C1076 1.381 . S
C1078 C1079 1.394 . S
C1078 H1086 0.930 . S
C1079 C1078 1.394 . S
C1079 C1080 1.383 . S
C1079 H1087 0.929 . S
C1080 C1079 1.383 . S
C1080 C1081 1.377 . S
C1081 H1065 0.930 . S
C1081 C1080 1.377 . S
C1081 C1082 1.379 . S
C1082 H1066 0.931 . S
C1082 C1076 1.383 . S
C1082 C1081 1.379 . S
H1083 C1077 0.959 . S
H1084 C1077 0.961 . S
H1085 C1077 0.960 . S
H1086 C1078 0.930 . S
H1087 C1079 0.929 . S
H1088 C1096 0.929 . S
H1089 C1098 0.930 . S
H1090 C1100 0.930 . S
H1091 C1103 0.929 . S
H1092 C1106 0.930 . S
H1093 C1108 0.960 . S
H1094 C1108 0.960 . S
H1095 C1108 0.960 . S
C1096 H1088 0.929 . S
C1096 C1097 1.377 . S
C1096 C1098 1.384 . S
C1097 C1096 1.377 . S
C1097 C1103 1.390 . S
C1098 H1089 0.930 . S
C1098 C1096 1.384 . S
C1098 C1099 1.372 . S
C1099 C1098 1.372 . S
C1099 C1100 1.400 . S
C1099 C1104 1.490 . S
C1100 H1090 0.930 . S
C1100 C1099 1.400 . S
C1100 C1103 1.386 . S
H1101 C1117 0.930 . S
H1102 C1118 0.931 . S
C1103 H1091 0.929 . S
C1103 C1097 1.390 . S
C1103 C1100 1.386 . S
C1104 C1099 1.490 . S
C1104 C1106 1.395 . S
C1104 C1107 1.403 . S
H1105 C1111 0.930 . S
C1106 H1092 0.930 . S
C1106 C1104 1.395 . S
C1106 C1109 1.403 . S
C1107 C1104 1.403 . S
C1107 C1108 1.524 . S
C1107 C1111 1.400 . S
C1108 H1093 0.960 . S
C1108 H1094 0.960 . S
C1108 H1095 0.960 . S
C1108 C1107 1.524 . S
C1109 C1106 1.403 . S
C1109 C1110 1.392 . S
C1109 C1113 1.495 . S
C1110 C1109 1.392 . S
C1110 C1111 1.385 . S
C1110 C1112 1.478 . S
C1111 H1105 0.930 . S
C1111 C1107 1.400 . S
C1111 C1110 1.385 . S
C1112 C1110 1.478 . S
C1112 C1114 1.381 . S
C1112 C1118 1.383 . S
C1113 C1109 1.495 . S
C1113 H1119 0.959 . S
C1113 H1120 0.961 . S
C1113 H1121 0.960 . S
C1114 C1112 1.381 . S
C1114 C1115 1.394 . S
C1114 H1122 0.930 . S
C1115 C1114 1.394 . S
C1115 C1116 1.383 . S
C1115 H1123 0.929 . S
C1116 C1115 1.383 . S
C1116 C1117 1.377 . S
C1117 H1101 0.930 . S
C1117 C1116 1.377 . S
C1117 C1118 1.379 . S
C1118 H1102 0.931 . S
C1118 C1112 1.383 . S
C1118 C1117 1.379 . S
H1119 C1113 0.959 . S
H1120 C1113 0.961 . S
H1121 C1113 0.960 . S
H1122 C1114 0.930 . S
H1123 C1115 0.929 . S
H1124 C1132 0.929 . S
H1125 C1134 0.930 . S
H1126 C1136 0.930 . S
H1127 C1139 0.929 . S
H1128 C1142 0.930 . S
H1129 C1144 0.960 . S
H1130 C1144 0.960 . S
H1131 C1144 0.960 . S
C1132 H1124 0.929 . S
C1132 C1133 1.377 . S
C1132 C1134 1.384 . S
C1133 C1132 1.377 . S
C1133 C1139 1.390 . S
C1134 H1125 0.930 . S
C1134 C1132 1.384 . S
C1134 C1135 1.372 . S
C1135 C1134 1.372 . S
C1135 C1136 1.400 . S
C1135 C1140 1.490 . S
C1136 H1126 0.930 . S
C1136 C1135 1.400 . S
C1136 C1139 1.386 . S
H1137 C1153 0.930 . S
H1138 C1154 0.931 . S
C1139 H1127 0.929 . S
C1139 C1133 1.390 . S
C1139 C1136 1.386 . S
C1140 C1135 1.490 . S
C1140 C1142 1.395 . S
C1140 C1143 1.403 . S
H1141 C1147 0.930 . S
C1142 H1128 0.930 . S
C1142 C1140 1.395 . S
C1142 C1145 1.403 . S
C1143 C1140 1.403 . S
C1143 C1144 1.524 . S
C1143 C1147 1.400 . S
C1144 H1129 0.960 . S
C1144 H1130 0.960 . S
C1144 H1131 0.960 . S
C1144 C1143 1.524 . S
C1145 C1142 1.403 . S
C1145 C1146 1.392 . S
C1145 C1149 1.495 . S
C1146 C1145 1.392 . S
C1146 C1147 1.385 . S
C1146 C1148 1.478 . S
C1147 H1141 0.930 . S
C1147 C1143 1.400 . S
C1147 C1146 1.385 . S
C1148 C1146 1.478 . S
C1148 C1150 1.381 . S
C1148 C1154 1.383 . S
C1149 C1145 1.495 . S
C1149 H1155 0.959 . S
C1149 H1156 0.961 . S
C1149 H1157 0.960 . S
C1150 C1148 1.381 . S
C1150 C1151 1.420 . S
C1150 H1158 0.930 . S
C1151 C1150 1.420 . S
C1151 C1152 1.387 . S
C1151 H1159 0.900 1_655 S
C1152 C1151 1.387 . S
C1152 C1153 1.377 . S
C1153 H1137 0.930 . S
C1153 C1152 1.377 . S
C1153 C1154 1.379 . S
C1154 H1138 0.931 . S
C1154 C1148 1.383 . S
C1154 C1153 1.379 . S
H1155 C1149 0.959 . S
H1156 C1149 0.961 . S
H1157 C1149 0.960 . S
H1158 C1150 0.930 . S
H1159 C1151 0.900 1_455 S
H1160 C1168 0.929 . S
H1161 C1170 0.930 . S
H1162 C1172 0.930 . S
H1163 C1175 0.929 . S
H1164 C1178 0.930 . S
H1165 C1180 0.960 . S
H1166 C1180 0.960 . S
H1167 C1180 0.960 . S
C1168 H1160 0.929 . S
C1168 C1169 1.377 1_455 S
C1168 C1170 1.384 1_455 S
C1169 C1168 1.377 1_655 S
C1169 C1175 1.390 . S
C1170 H1161 0.930 . S
C1170 C1168 1.384 1_655 S
C1170 C1171 1.372 . S
C1171 C1170 1.372 . S
C1171 C1172 1.400 . S
C1171 C1176 1.490 . S
C1172 H1162 0.930 . S
C1172 C1171 1.400 . S
C1172 C1175 1.386 . S
H1173 C1189 0.930 . S
H1174 C1190 0.931 . S
C1175 H1163 0.929 . S
C1175 C1169 1.390 . S
C1175 C1172 1.386 . S
C1176 C1171 1.490 . S
C1176 C1178 1.395 . S
C1176 C1179 1.403 . S
H1177 C1183 0.930 . S
C1178 H1164 0.930 . S
C1178 C1176 1.395 . S
C1178 C1181 1.403 . S
C1179 C1176 1.403 . S
C1179 C1180 1.524 . S
C1179 C1183 1.400 . S
C1180 H1165 0.960 . S
C1180 H1166 0.960 . S
C1180 H1167 0.960 . S
C1180 C1179 1.524 . S
C1181 C1178 1.403 . S
C1181 C1182 1.392 . S
C1181 C1185 1.495 . S
C1182 C1181 1.392 . S
C1182 C1183 1.385 . S
C1182 C1184 1.478 . S
C1183 H1177 0.930 . S
C1183 C1179 1.400 . S
C1183 C1182 1.385 . S
C1184 C1182 1.478 . S
C1184 C1186 1.381 . S
C1184 C1190 1.383 . S
C1185 C1181 1.495 . S
C1185 H1191 0.959 . S
C1185 H1192 0.961 . S
C1185 H1193 0.960 . S
C1186 C1184 1.381 . S
C1186 C1187 1.394 . S
C1186 H1194 0.930 . S
C1187 C1186 1.394 . S
C1187 C1188 1.383 . S
C1187 H1195 0.929 . S
C1188 C1187 1.383 . S
C1188 C1189 1.377 . S
C1189 H1173 0.930 . S
C1189 C1188 1.377 . S
C1189 C1190 1.379 . S
C1190 H1174 0.931 . S
C1190 C1184 1.383 . S
C1190 C1189 1.379 . S
H1191 C1185 0.959 . S
H1192 C1185 0.961 . S
H1193 C1185 0.960 . S
H1194 C1186 0.930 . S
H1195 C1187 0.929 . S
H1196 C1204 0.929 . S
H1197 C1206 0.930 . S
H1198 C1208 0.930 . S
H1199 C1211 0.929 . S
H1200 C1214 0.930 . S
H1201 C1216 0.960 . S
H1202 C1216 0.960 . S
H1203 C1216 0.960 . S
C1204 H1196 0.929 . S
C1204 C1205 1.377 . S
C1204 C1206 1.384 . S
C1205 C1204 1.377 . S
C1205 C1211 1.390 . S
C1206 H1197 0.930 . S
C1206 C1204 1.384 . S
C1206 C1207 1.372 . S
C1207 C1206 1.372 . S
C1207 C1208 1.400 . S
C1207 C1212 1.490 . S
C1208 H1198 0.930 . S
C1208 C1207 1.400 . S
C1208 C1211 1.386 . S
H1209 C1225 0.930 . S
H1210 C1226 0.931 . S
C1211 H1199 0.929 . S
C1211 C1205 1.390 . S
C1211 C1208 1.386 . S
C1212 C1207 1.490 . S
C1212 C1214 1.395 . S
C1212 C1215 1.403 . S
H1213 C1219 0.930 . S
C1214 H1200 0.930 . S
C1214 C1212 1.395 . S
C1214 C1217 1.403 . S
C1215 C1212 1.403 . S
C1215 C1216 1.524 . S
C1215 C1219 1.400 . S
C1216 H1201 0.960 . S
C1216 H1202 0.960 . S
C1216 H1203 0.960 . S
C1216 C1215 1.524 . S
C1217 C1214 1.403 . S
C1217 C1218 1.392 . S
C1217 C1221 1.495 . S
C1218 C1217 1.392 . S
C1218 C1219 1.385 . S
C1218 C1220 1.478 . S
C1219 H1213 0.930 . S
C1219 C1215 1.400 . S
C1219 C1218 1.385 . S
C1220 C1218 1.478 . S
C1220 C1222 1.381 . S
C1220 C1226 1.383 . S
C1221 C1217 1.495 . S
C1221 H1227 0.959 . S
C1221 H1228 0.961 . S
C1221 H1229 0.960 . S
C1222 C1220 1.381 . S
C1222 C1223 1.394 . S
C1222 H1230 0.930 . S
C1223 C1222 1.394 . S
C1223 C1224 1.383 . S
C1223 H1231 0.929 . S
C1224 C1223 1.383 . S
C1224 C1225 1.377 . S
C1225 H1209 0.930 . S
C1225 C1224 1.377 . S
C1225 C1226 1.379 . S
C1226 H1210 0.931 . S
C1226 C1220 1.383 . S
C1226 C1225 1.379 . S
H1227 C1221 0.959 . S
H1228 C1221 0.961 . S
H1229 C1221 0.960 . S
H1230 C1222 0.930 . S
H1231 C1223 0.929 . S
H1232 C1240 0.929 . S
H1233 C1242 0.930 . S
H1234 C1244 0.930 . S
H1235 C1247 0.929 . S
H1236 C1250 0.930 . S
H1237 C1252 0.960 . S
H1238 C1252 0.960 . S
H1239 C1252 0.960 . S
C1240 H1232 0.929 . S
C1240 C1241 1.377 . S
C1240 C1242 1.384 . S
C1241 C1240 1.377 . S
C1241 C1247 1.390 . S
C1242 H1233 0.930 . S
C1242 C1240 1.384 . S
C1242 C1243 1.372 . S
C1243 C1242 1.372 . S
C1243 C1244 1.400 . S
C1243 C1248 1.490 . S
C1244 H1234 0.930 . S
C1244 C1243 1.400 . S
C1244 C1247 1.386 . S
H1245 C1261 0.930 . S
H1246 C1262 0.931 . S
C1247 H1235 0.929 . S
C1247 C1241 1.390 . S
C1247 C1244 1.386 . S
C1248 C1243 1.490 . S
C1248 C1250 1.395 . S
C1248 C1251 1.403 . S
H1249 C1255 0.930 . S
C1250 H1236 0.930 . S
C1250 C1248 1.395 . S
C1250 C1253 1.403 . S
C1251 C1248 1.403 . S
C1251 C1252 1.524 . S
C1251 C1255 1.400 . S
C1252 H1237 0.960 . S
C1252 H1238 0.960 . S
C1252 H1239 0.960 . S
C1252 C1251 1.524 . S
C1253 C1250 1.403 . S
C1253 C1254 1.392 . S
C1253 C1257 1.495 . S
C1254 C1253 1.392 . S
C1254 C1255 1.385 . S
C1254 C1256 1.478 . S
C1255 H1249 0.930 . S
C1255 C1251 1.400 . S
C1255 C1254 1.385 . S
C1256 C1254 1.478 . S
C1256 C1258 1.381 . S
C1256 C1262 1.383 . S
C1257 C1253 1.495 . S
C1257 H1263 0.959 . S
C1257 H1264 0.961 . S
C1257 H1265 0.960 . S
C1258 C1256 1.381 . S
C1258 C1259 1.394 . S
C1258 H1266 0.930 . S
C1259 C1258 1.394 . S
C1259 C1260 1.383 . S
C1259 H1267 0.929 . S
C1260 C1259 1.383 . S
C1260 C1261 1.377 . S
C1261 H1245 0.930 . S
C1261 C1260 1.377 . S
C1261 C1262 1.379 . S
C1262 H1246 0.931 . S
C1262 C1256 1.383 . S
C1262 C1261 1.379 . S
H1263 C1257 0.959 . S
H1264 C1257 0.961 . S
H1265 C1257 0.960 . S
H1266 C1258 0.930 . S
H1267 C1259 0.929 . S
H1268 C1276 0.929 . S
H1269 C1278 0.930 . S
H1270 C1280 0.930 . S
H1271 C1283 0.929 . S
H1272 C1286 0.930 . S
H1273 C1288 0.960 . S
H1274 C1288 0.960 . S
H1275 C1288 0.960 . S
C1276 H1268 0.929 . S
C1276 C1277 1.377 . S
C1276 C1278 1.384 . S
C1277 C1276 1.377 . S
C1277 C1283 1.390 . S
C1278 H1269 0.930 . S
C1278 C1276 1.384 . S
C1278 C1279 1.372 . S
C1279 C1278 1.372 . S
C1279 C1280 1.400 . S
C1279 C1284 1.490 . S
C1280 H1270 0.930 . S
C1280 C1279 1.400 . S
C1280 C1283 1.386 . S
H1281 C1297 0.930 . S
H1282 C1298 0.931 . S
C1283 H1271 0.929 . S
C1283 C1277 1.390 . S
C1283 C1280 1.386 . S
C1284 C1279 1.490 . S
C1284 C1286 1.395 . S
C1284 C1287 1.403 . S
H1285 C1291 0.930 . S
C1286 H1272 0.930 . S
C1286 C1284 1.395 . S
C1286 C1289 1.403 . S
C1287 C1284 1.403 . S
C1287 C1288 1.524 . S
C1287 C1291 1.400 . S
C1288 H1273 0.960 . S
C1288 H1274 0.960 . S
C1288 H1275 0.960 . S
C1288 C1287 1.524 . S
C1289 C1286 1.403 . S
C1289 C1290 1.392 . S
C1289 C1293 1.495 . S
C1290 C1289 1.392 . S
C1290 C1291 1.385 . S
C1290 C1292 1.478 . S
C1291 H1285 0.930 . S
C1291 C1287 1.400 . S
C1291 C1290 1.385 . S
C1292 C1290 1.478 . S
C1292 C1294 1.381 . S
C1292 C1298 1.383 . S
C1293 C1289 1.495 . S
C1293 H1299 0.959 . S
C1293 H1300 0.961 . S
C1293 H1301 0.960 . S
C1294 C1292 1.381 . S
C1294 C1295 1.394 . S
C1294 H1302 0.930 . S
C1295 C1294 1.394 . S
C1295 C1296 1.383 . S
C1295 H1303 0.929 . S
C1296 C1295 1.383 . S
C1296 C1297 1.377 . S
C1297 H1281 0.930 . S
C1297 C1296 1.377 . S
C1297 C1298 1.379 . S
C1298 H1282 0.931 . S
C1298 C1292 1.383 . S
C1298 C1297 1.379 . S
H1299 C1293 0.959 . S
H1300 C1293 0.961 . S
H1301 C1293 0.960 . S
H1302 C1294 0.930 . S
H1303 C1295 0.929 . S
H1304 C1312 0.929 . S
H1305 C1314 0.930 . S
H1306 C1316 0.930 . S
H1307 C1319 0.929 . S
H1308 C1322 0.930 . S
H1309 C1324 0.960 . S
H1310 C1324 0.960 . S
H1311 C1324 0.960 . S
C1312 H1304 0.929 . S
C1312 C1313 1.377 . S
C1312 C1314 1.384 . S
C1313 C1312 1.377 . S
C1313 C1319 1.390 . S
C1314 H1305 0.930 . S
C1314 C1312 1.384 . S
C1314 C1315 1.372 . S
C1315 C1314 1.372 . S
C1315 C1316 1.400 . S
C1315 C1320 1.490 . S
C1316 H1306 0.930 . S
C1316 C1315 1.400 . S
C1316 C1319 1.386 . S
H1317 C1333 0.930 . S
H1318 C1334 0.931 . S
C1319 H1307 0.929 . S
C1319 C1313 1.390 . S
C1319 C1316 1.386 . S
C1320 C1315 1.490 . S
C1320 C1322 1.395 . S
C1320 C1323 1.403 . S
H1321 C1327 0.930 . S
C1322 H1308 0.930 . S
C1322 C1320 1.395 . S
C1322 C1325 1.403 . S
C1323 C1320 1.403 . S
C1323 C1324 1.524 . S
C1323 C1327 1.400 . S
C1324 H1309 0.960 . S
C1324 H1310 0.960 . S
C1324 H1311 0.960 . S
C1324 C1323 1.524 . S
C1325 C1322 1.403 . S
C1325 C1326 1.392 . S
C1325 C1329 1.495 . S
C1326 C1325 1.392 . S
C1326 C1327 1.385 . S
C1326 C1328 1.478 . S
C1327 H1321 0.930 . S
C1327 C1323 1.400 . S
C1327 C1326 1.385 . S
C1328 C1326 1.478 . S
C1328 C1330 1.381 . S
C1328 C1334 1.383 . S
C1329 C1325 1.495 . S
C1329 H1335 0.959 . S
C1329 H1336 0.961 . S
C1329 H1337 0.960 . S
C1330 C1328 1.381 . S
C1330 C1331 1.394 . S
C1330 H1338 0.930 . S
C1331 C1330 1.394 . S
C1331 C1332 1.383 . S
C1331 H1339 0.929 . S
C1332 C1331 1.383 . S
C1332 C1333 1.377 . S
C1333 H1317 0.930 . S
C1333 C1332 1.377 . S
C1333 C1334 1.379 . S
C1334 H1318 0.931 . S
C1334 C1328 1.383 . S
C1334 C1333 1.379 . S
H1335 C1329 0.959 . S
H1336 C1329 0.961 . S
H1337 C1329 0.960 . S
H1338 C1330 0.930 . S
H1339 C1331 0.929 . S
H1340 C1348 0.929 . S
H1341 C1350 0.930 . S
H1342 C1352 0.930 . S
H1343 C1355 0.929 . S
H1344 C1358 0.930 . S
H1345 C1360 0.960 . S
H1346 C1360 0.960 . S
H1347 C1360 0.960 . S
C1348 H1340 0.929 . S
C1348 C1349 1.377 . S
C1348 C1350 1.384 . S
C1349 C1348 1.377 . S
C1349 C1355 1.390 . S
C1350 H1341 0.930 . S
C1350 C1348 1.384 . S
C1350 C1351 1.372 . S
C1351 C1350 1.372 . S
C1351 C1352 1.400 . S
C1351 C1356 1.490 . S
C1352 H1342 0.930 . S
C1352 C1351 1.400 . S
C1352 C1355 1.386 . S
H1353 C1369 0.930 . S
H1354 C1370 0.931 . S
C1355 H1343 0.929 . S
C1355 C1349 1.390 . S
C1355 C1352 1.386 . S
C1356 C1351 1.490 . S
C1356 C1358 1.395 . S
C1356 C1359 1.403 . S
H1357 C1363 0.930 . S
C1358 H1344 0.930 . S
C1358 C1356 1.395 . S
C1358 C1361 1.403 . S
C1359 C1356 1.403 . S
C1359 C1360 1.524 . S
C1359 C1363 1.400 . S
C1360 H1345 0.960 . S
C1360 H1346 0.960 . S
C1360 H1347 0.960 . S
C1360 C1359 1.524 . S
C1361 C1358 1.403 . S
C1361 C1362 1.392 . S
C1361 C1365 1.495 . S
C1362 C1361 1.392 . S
C1362 C1363 1.385 . S
C1362 C1364 1.478 . S
C1363 H1357 0.930 . S
C1363 C1359 1.400 . S
C1363 C1362 1.385 . S
C1364 C1362 1.478 . S
C1364 C1366 1.381 . S
C1364 C1370 1.383 . S
C1365 C1361 1.495 . S
C1365 H1371 0.959 . S
C1365 H1372 0.961 . S
C1365 H1373 0.960 . S
C1366 C1364 1.381 . S
C1366 C1367 1.394 . S
C1366 H1374 0.930 . S
C1367 C1366 1.394 . S
C1367 C1368 1.383 . S
C1367 H1375 0.929 . S
C1368 C1367 1.383 . S
C1368 C1369 1.377 . S
C1369 H1353 0.930 . S
C1369 C1368 1.377 . S
C1369 C1370 1.379 . S
C1370 H1354 0.931 . S
C1370 C1364 1.383 . S
C1370 C1369 1.379 . S
H1371 C1365 0.959 . S
H1372 C1365 0.961 . S
H1373 C1365 0.960 . S
H1374 C1366 0.930 . S
H1375 C1367 0.929 . S
C233 C6 1.366 . S
C252 C188 1.340 . S
C269 C160 1.370 . S
C288 C20 1.389 . S
C305 C174 1.363 . S
C324 C34 1.370 . S
C341 C146 1.363 . S
C360 C48 1.375 . S
C377 C62 1.372 . S
C396 C216 1.367 . S
C413 C76 1.364 . S
C432 C132 1.337 . S
C449 C202 1.366 . S
C468 C90 1.340 . S
C485 C104 1.369 . S
C504 C118 1.390 . S
C521 C64 1.766 . S
C540 C8 1.761 . S
C557 C22 1.765 . S
C576 C78 1.755 . S
C593 C36 1.767 . S
C612 C92 1.762 . S
C629 C106 1.766 . S
C648 C50 1.757 . S
C665 C120 1.765 . S
C684 C148 1.756 . S
C701 C134 1.766 . S
C720 C162 1.760 . S
C737 C204 1.769 . S
C756 C176 1.770 . S
C773 C190 1.766 . S
C792 C218 1.758 . S
C809 C77 1.366 . S
C828 C7 1.331 . S
C845 C21 1.366 . S
C864 C91 1.350 . S
C881 C35 1.351 . S
C900 C105 1.385 . S
C917 C63 1.365 . S
C936 C49 1.322 . S
C953 C65 1.250 . S
C972 C149 1.272 . S
C989 C37 1.259 . S
C1008 C121 1.229 . S
C1025 C163 1.250 . S
C1044 C93 1.277 . S
C1061 C135 1.261 . S
C1080 C9 1.223 . S
C1097 C119 1.366 . S
C1116 C175 1.340 . S
C1133 C147 1.365 . S
C1152 C217 1.361 1_655 S
C1169 C189 1.365 1_655 S
C1188 C133 1.354 . S
C1205 C161 1.366 . S
C1224 C203 1.340 . S
C1241 C205 1.251 . S
C1260 C23 1.271 . S
C1277 C191 1.251 . S
C1296 C79 1.269 . S
C1313 C219 1.252 . S
C1332 C51 1.265 . S
C1349 C177 1.260 . S
C1368 C107 1.225 . S
