# Generated by pormake.
# Topology smm, (6)-cn, num edge types: 1
# Building blocks:
#     Node 0, Type 0, BuildingBlock: GEDQOX_clean_sbu_0, # of connection points: 6
#     Node 1, Type 0, BuildingBlock: GEDQOX_clean_sbu_0, # of connection points: 6
#     Node 2, Type 0, BuildingBlock: GEDQOX_clean_sbu_0, # of connection points: 6
#     Node 3, Type 0, BuildingBlock: GEDQOX_clean_sbu_0, # of connection points: 6
#     Node 4, Type 0, BuildingBlock: GEDQOX_clean_sbu_0, # of connection points: 6
#     Node 5, Type 0, BuildingBlock: GEDQOX_clean_sbu_0, # of connection points: 6
#     Node 6, Type 0, BuildingBlock: GEDQOX_clean_sbu_0, # of connection points: 6
#     Node 7, Type 0, BuildingBlock: GEDQOX_clean_sbu_0, # of connection points: 6
#     Node 8, Type 0, BuildingBlock: GEDQOX_clean_sbu_0, # of connection points: 6
#     Edge 9, Type (0, 0), None
#     Edge 10, Type (0, 0), None
#     Edge 11, Type (0, 0), None
#     Edge 12, Type (0, 0), None
#     Edge 13, Type (0, 0), None
#     Edge 14, Type (0, 0), None
#     Edge 15, Type (0, 0), None
#     Edge 16, Type (0, 0), None
#     Edge 17, Type (0, 0), None
#     Edge 18, Type (0, 0), None
#     Edge 19, Type (0, 0), None
#     Edge 20, Type (0, 0), None
#     Edge 21, Type (0, 0), None
#     Edge 22, Type (0, 0), None
#     Edge 23, Type (0, 0), None
#     Edge 24, Type (0, 0), None
#     Edge 25, Type (0, 0), None
#     Edge 26, Type (0, 0), None
#     Edge 27, Type (0, 0), None
#     Edge 28, Type (0, 0), None
#     Edge 29, Type (0, 0), None
#     Edge 30, Type (0, 0), None
#     Edge 31, Type (0, 0), None
#     Edge 32, Type (0, 0), None
#     Edge 33, Type (0, 0), None
#     Edge 34, Type (0, 0), None
#     Edge 35, Type (0, 0), None
# Relax obj value: 0.029
# Max RMSD: 0.107
# Mean RMSD: 0.107
data_MOF--net-smm--node1-GEDQOX_clean_sbu_0--edge1-none
_symmetry_space_group_name_H-M    P1
_symmetry_Int_Tables_number       1
_symmetry_cell_setting            triclinic
loop_
_symmetry_equiv_pos_as_xyz
'x, y, z'
_cell_length_a     42.415403
_cell_length_b     42.41567
_cell_length_c     6.156055
_cell_angle_alpha  90.002398
_cell_angle_beta   89.996449
_cell_angle_gamma 120.00083
loop_
_atom_site_label
_atom_site_type_symbol
_atom_site_fract_x
_atom_site_fract_y
_atom_site_fract_z
_atom_type_partial_charge
Nd0 Nd 0.08532 0.24259 0.02544 0.0
Nd1 Nd 1.01814 0.16679 0.04122 0.0
C2 C 0.13781 0.31132 0.06443 0.0
C3 C 0.14866 0.34752 0.97152 0.0
C4 C 0.12564 0.36247 0.97986 0.0
C5 C 0.13753 0.39762 0.90063 0.0
C6 C 0.1726 0.41849 0.811 0.0
C7 C 0.19505 0.40294 0.79679 0.0
C8 C 0.18323 0.36791 0.87676 0.0
C9 C 0.05792 0.21269 0.62807 0.0
C10 C 1.00424 0.23407 0.08373 0.0
C11 C 0.96521 0.09932 0.96643 0.0
C12 C 0.95375 0.06048 -0.00523 0.0
C13 C 0.97583 0.04598 0.93258 0.0
C14 C 0.96276 1.00846 0.94968 0.0
C15 C 0.92744 0.98488 0.029 0.0
C16 C 0.90589 0.99978 0.09509 0.0
C17 C 0.91891 0.0371 0.07787 0.0
C18 C 1.04442 0.19687 0.43954 0.0
C19 C 0.09974 0.1752 0.03674 0.0
O20 O 0.10921 0.29614 0.1913 0.0
O21 O 0.13987 0.28803 0.93483 0.0
O22 O 0.0923 0.23262 0.66598 0.0
O23 O 1.03902 0.21083 0.78979 0.0
O24 O 1.03948 0.25408 0.12392 0.0
O25 O 0.99012 0.20067 0.00641 0.0
O26 O 0.99103 0.11846 0.82605 0.0
O27 O 0.96694 0.1176 0.14127 0.0
O28 O 1.01001 0.17625 0.40064 0.0
O29 O 0.06371 0.19886 0.27951 0.0
O30 O 0.06513 0.15469 0.98084 0.0
O31 O 0.11259 0.2091 0.10284 0.0
H32 H 0.09871 0.34731 0.05057 0.0
H33 H 0.11947 0.40869 0.91419 0.0
H34 H 0.22222 0.41817 0.72939 0.0
H35 H 0.20143 0.35696 0.86799 0.0
H36 H 1.00289 0.06349 0.86832 0.0
H37 H 0.9801 0.9979 0.89767 0.0
H38 H 0.87864 0.98257 0.15751 0.0
H39 H 0.9014 0.04767 0.12646 0.0
Nd40 Nd 0.84495 0.86307 0.02552 0.0
Nd41 Nd 0.92076 0.8717 0.04126 0.0
C42 C 0.77623 0.84683 0.06452 0.0
C43 C 0.74002 0.82147 0.97159 0.0
C44 C 0.72507 0.78351 0.97991 0.0
C45 C 0.68993 0.76025 0.90065 0.0
C46 C 0.66906 0.77445 0.81102 0.0
C47 C 0.68461 0.81245 0.79683 0.0
C48 C 0.71963 0.83565 0.87682 0.0
C49 C 0.87485 0.86557 0.62813 0.0
C50 C 0.85348 0.79052 0.08376 0.0
C51 C 0.98823 0.88625 0.96643 0.0
C52 C 1.02707 0.91363 -0.00526 0.0
C53 C 1.04157 0.9502 0.93246 0.0
C54 C 0.07909 0.97466 0.94952 0.0
C55 C 0.10267 0.96292 0.02889 0.0
C56 C 0.08777 0.92648 0.09508 0.0
C57 C 0.05045 0.90218 0.0779 0.0
C58 C 0.89068 0.86789 0.4396 0.0
C59 C 0.91234 0.94489 0.03683 0.0
O60 O 0.7914 0.8334 0.19137 0.0
O61 O 0.79952 0.87218 0.93495 0.0
O62 O 0.85492 0.88002 0.66607 0.0
O63 O 0.87672 0.84854 0.78984 0.0
O64 O 0.83346 0.80574 0.12398 0.0
O65 O 0.88688 0.8098 0.00644 0.0
O66 O 0.96908 0.89292 0.82607 0.0
O67 O 0.96995 0.86969 0.14128 0.0
O68 O 0.91129 0.85411 0.40068 0.0
O69 O 0.88868 0.8852 0.27958 0.0
O70 O 0.93285 0.93079 0.98092 0.0
O71 O 0.87844 0.92384 0.10293 0.0
H72 H 0.74023 0.77174 0.05062 0.0
H73 H 0.67885 0.73112 0.9142 0.0
H74 H 0.66938 0.82439 0.72943 0.0
H75 H 0.73059 0.86482 0.86807 0.0
H76 H 1.02406 0.95976 0.86815 0.0
H77 H 0.08965 1.00255 0.89743 0.0
H78 H 0.10497 0.91643 0.15754 0.0
H79 H 1.03988 0.8741 0.12656 0.0
Nd80 Nd 0.22448 1.00224 0.02532 0.0
Nd81 Nd 0.21586 0.06941 0.04112 0.0
C82 C 0.24071 0.94974 0.0643 0.0
C83 C 0.26607 0.9389 0.97143 0.0
C84 C 0.30404 0.9619 0.97984 0.0
C85 C 0.3273 0.95002 0.90064 0.0
C86 C 0.3131 0.91495 0.81099 0.0
C87 C 0.2751 0.8925 0.7967 0.0
C88 C 0.2519 0.90433 0.87663 0.0
C89 C 0.22198 1.02964 0.62795 0.0
C90 C 0.29704 0.08331 0.08359 0.0
C91 C 0.20131 0.12234 0.96632 0.0
C92 C 0.17393 0.13379 -0.00533 0.0
C93 C 0.13736 0.11172 0.93239 0.0
C94 C 0.1129 0.12479 0.94949 0.0
C95 C 0.12464 0.1601 0.02889 0.0
C96 C 0.16108 0.18164 0.09509 0.0
C97 C 0.18538 0.16863 0.07786 0.0
C98 C 0.21966 0.04314 0.43943 0.0
C99 C 0.14266 0.98781 0.03669 0.0
O100 O 0.25413 0.97834 0.19119 0.0
O101 O 0.21537 0.94769 0.93468 0.0
O102 O 0.20753 0.99526 0.66588 0.0
O103 O 0.23901 0.04853 0.78967 0.0
O104 O 0.28181 0.04808 0.12376 0.0
O105 O 0.27776 0.09743 0.0063 0.0
O106 O 0.19464 0.09652 0.82595 0.0
O107 O 0.21787 0.12062 0.14117 0.0
O108 O 0.23344 0.07754 0.40053 0.0
O109 O 0.20236 1.02384 0.27941 0.0
O110 O 0.15676 1.02242 0.98079 0.0
O111 O 0.16371 0.97496 0.10275 0.0
H112 H 0.31581 0.98884 0.05058 0.0
H113 H 0.35642 0.96807 0.91426 0.0
H114 H 0.26316 0.86533 0.72928 0.0
H115 H 0.22273 0.88613 0.86781 0.0
H116 H 0.1278 0.08466 0.86805 0.0
H117 H 0.08501 0.10745 0.89741 0.0
H118 H 0.17112 0.20889 0.15758 0.0
H119 H 0.21345 0.18613 0.12653 0.0
Nd120 Nd 0.75199 0.57593 0.35874 0.0
Nd121 Nd 0.68481 0.50012 0.37453 0.0
C122 C 0.80448 0.64465 0.39774 0.0
C123 C 0.81532 0.68086 0.30486 0.0
C124 C 0.79231 0.69581 0.31328 0.0
C125 C 0.80419 0.73096 0.23408 0.0
C126 C 0.83927 0.75183 0.14442 0.0
C127 C 0.86171 0.73628 0.13012 0.0
C128 C 0.84989 0.70125 0.21005 0.0
C129 C 0.72459 0.54602 0.96137 0.0
C130 C 0.67091 0.5674 0.41703 0.0
C131 C 0.63189 0.43265 0.29972 0.0
C132 C 0.62043 0.39381 0.32805 0.0
C133 C 0.6425 0.37931 0.26579 0.0
C134 C 0.62943 0.34178 0.28286 0.0
C135 C 0.59412 0.31821 0.36223 0.0
C136 C 0.57257 0.33311 0.4284 0.0
C137 C 0.58559 0.37042 0.4112 0.0
C138 C 0.71109 0.5302 0.77284 0.0
C139 C 0.76642 0.50853 0.37007 0.0
O140 O 0.77588 0.62948 0.52463 0.0
O141 O 0.80654 0.62136 0.26812 0.0
O142 O 0.75897 0.56595 -0.00071 0.0
O143 O 0.7057 0.54416 0.1231 0.0
O144 O 0.70615 0.58741 0.45721 0.0
O145 O 0.65679 0.534 0.33973 0.0
O146 O 0.65771 0.45179 0.15935 0.0
O147 O 0.63361 0.45093 0.47456 0.0
O148 O 0.67669 0.50958 0.73395 0.0
O149 O 0.73039 0.5322 0.61281 0.0
O150 O 0.73181 0.48802 0.31417 0.0
O151 O 0.77926 0.54243 0.43614 0.0
H152 H 0.76538 0.68065 0.38403 0.0
H153 H 0.78615 0.74203 0.24771 0.0
H154 H 0.88888 0.75151 0.06268 0.0
H155 H 0.86809 0.69029 0.20122 0.0
H156 H 0.66957 0.39681 0.20148 0.0
H157 H 0.64677 0.33123 0.23079 0.0
H158 H 0.54532 0.3159 0.49086 0.0
H159 H 0.56809 0.381 0.45985 0.0
Nd160 Nd 0.51162 0.1964 0.35871 0.0
Nd161 Nd 0.58743 0.20502 0.37446 0.0
C162 C 0.4429 0.18017 0.39771 0.0
C163 C 0.40669 0.15481 0.30478 0.0
C164 C 0.39174 0.11684 0.31308 0.0
C165 C 0.3566 0.09358 0.23385 0.0
C166 C 0.33573 0.10779 0.14426 0.0
C167 C 0.35128 0.14579 0.13007 0.0
C168 C 0.3863 0.16899 0.21004 0.0
C169 C 0.54152 0.1989 0.96133 0.0
C170 C 0.52014 0.12384 0.41697 0.0
C171 C 0.6549 0.21957 0.29965 0.0
C172 C 0.69374 0.24695 0.32802 0.0
C173 C 0.70824 0.28352 0.26579 0.0
C174 C 0.74576 0.30798 0.28292 0.0
C175 C 0.76933 0.29624 0.3623 0.0
C176 C 0.75444 0.2598 0.42844 0.0
C177 C 0.71712 0.2355 0.41119 0.0
C178 C 0.55735 0.20122 0.77279 0.0
C179 C 0.57902 0.27822 0.37005 0.0
O180 O 0.45807 0.16673 0.52456 0.0
O181 O 0.46619 0.20551 0.26813 0.0
O182 O 0.5216 0.21335 -0.00073 0.0
O183 O 0.54339 0.18187 0.12304 0.0
O184 O 0.50013 0.13906 0.45718 0.0
O185 O 0.55355 0.14313 0.33964 0.0
O186 O 0.63576 0.22625 0.1593 0.0
O187 O 0.63661 0.20301 0.47447 0.0
O188 O 0.57797 0.18744 0.73387 0.0
O189 O 0.55535 0.21852 0.61278 0.0
O190 O 0.59953 0.26411 0.31413 0.0
O191 O 0.54512 0.25716 0.43614 0.0
H192 H 0.4069 0.10507 0.38377 0.0
H193 H 0.34552 0.06446 0.24739 0.0
H194 H 0.33605 0.15773 0.06269 0.0
H195 H 0.39727 0.19815 0.2013 0.0
H196 H 0.69073 0.29308 0.20147 0.0
H197 H 0.75632 0.33588 0.23086 0.0
H198 H 0.77164 0.24975 0.49091 0.0
H199 H 0.70654 0.20742 0.45982 0.0
Nd200 Nd 0.89115 0.33556 0.35881 0.0
Nd201 Nd 0.88252 0.40274 0.37461 0.0
C202 C 0.90737 0.28307 0.39779 0.0
C203 C 0.93274 0.27223 0.30489 0.0
C204 C 0.9707 0.29524 0.31328 0.0
C205 C 0.99397 0.28335 0.23406 0.0
C206 C 0.97976 0.24828 0.14441 0.0
C207 C 0.94176 0.22583 0.13013 0.0
C208 C 0.91856 0.23766 0.21009 0.0
C209 C 0.88865 0.36296 0.96145 0.0
C210 C 0.9637 0.41664 0.41708 0.0
C211 C 0.86798 0.45567 0.29981 0.0
C212 C 0.8406 0.46713 0.32811 0.0
C213 C 0.80403 0.44505 0.2659 0.0
C214 C 0.77957 0.45812 0.28296 0.0
C215 C 0.79131 0.49344 0.36225 0.0
C216 C 0.82776 0.51499 0.42836 0.0
C217 C 0.85206 0.50197 0.41118 0.0
C218 C 0.88633 0.37646 0.77292 0.0
C219 C 0.80933 0.32114 0.37015 0.0
O220 O 0.9208 0.31167 0.52468 0.0
O221 O 0.88203 0.28102 0.26819 0.0
O222 O 0.87419 0.32858 -0.00063 0.0
O223 O 0.90568 0.38186 0.12316 0.0
O224 O 0.94848 0.3814 0.45727 0.0
O225 O 0.94442 0.43076 0.33979 0.0
O226 O 0.86131 0.42985 0.15942 0.0
O227 O 0.88453 0.45394 0.47467 0.0
O228 O 0.90011 0.41087 0.73401 0.0
O229 O 0.86902 0.35717 0.6129 0.0
O230 O 0.82343 0.35575 0.31425 0.0
O231 O 0.83038 0.30829 0.43623 0.0
H232 H 0.98247 0.32217 0.38403 0.0
H233 H 1.02309 0.3014 0.24767 0.0
H234 H 0.92982 0.19867 0.06269 0.0
H235 H 0.8894 0.21946 0.20128 0.0
H236 H 0.79447 0.41798 0.20166 0.0
H237 H 0.75168 0.44078 0.23094 0.0
H238 H 0.8378 0.54224 0.49077 0.0
H239 H 0.88013 0.51948 0.45979 0.0
Nd240 Nd 0.41865 0.90926 0.69208 0.0
Nd241 Nd 0.35147 0.83345 0.70787 0.0
C242 C 0.47115 0.97798 0.73106 0.0
C243 C 0.48199 1.01419 0.63815 0.0
C244 C 0.45898 1.02914 0.64653 0.0
C245 C 0.47086 0.06429 0.5673 0.0
C246 C 0.50593 0.08516 0.47765 0.0
C247 C 0.52838 0.06961 0.46339 0.0
C248 C 0.51656 0.03458 0.54335 0.0
C249 C 0.39125 0.87936 0.29471 0.0
C250 C 0.33758 0.90074 0.75034 0.0
C251 C 0.29855 0.76598 0.63307 0.0
C252 C 0.2871 0.72714 0.66141 0.0
C253 C 0.30917 0.71264 0.59913 0.0
C254 C 0.2961 0.67512 0.61622 0.0
C255 C 0.26079 0.65155 0.69561 0.0
C256 C 0.23924 0.66644 0.7618 0.0
C257 C 0.25226 0.70376 0.74459 0.0
C258 C 0.37775 0.86353 0.10618 0.0
C259 C 0.43308 0.84186 0.7034 0.0
O260 O 0.44255 0.96281 0.85794 0.0
O261 O 0.4732 0.95469 0.60146 0.0
O262 O 0.42563 0.89928 0.33263 0.0
O263 O 0.37236 0.87749 0.45644 0.0
O264 O 0.37281 0.92075 0.79054 0.0
O265 O 0.32345 0.86733 0.67306 0.0
O266 O 0.32437 0.78513 0.4927 0.0
O267 O 0.30027 0.78426 0.80791 0.0
O268 O 0.34335 0.84292 0.06728 0.0
O269 O 0.39705 0.86553 0.94615 0.0
O270 O 0.39847 0.82135 0.6475 0.0
O271 O 0.44592 0.87576 0.76948 0.0
H272 H 0.43205 1.01398 0.71727 0.0
H273 H 0.45281 0.07536 0.5809 0.0
H274 H 0.55555 0.08483 0.39596 0.0
H275 H 0.53476 1.02362 0.53455 0.0
H276 H 0.33623 0.73015 0.5348 0.0
H277 H 0.31344 0.66456 0.56413 0.0
H278 H 0.21199 0.64924 0.82428 0.0
H279 H 0.23476 0.71433 0.79325 0.0
Nd280 Nd 0.17829 0.52973 0.6921 0.0
Nd281 Nd 0.2541 0.53836 0.70785 0.0
C282 C 0.10957 0.5135 0.73112 0.0
C283 C 0.07336 0.48814 0.63822 0.0
C284 C 0.05841 0.45018 0.64661 0.0
C285 C 1.02326 0.42691 0.56739 0.0
C286 C 1.00239 0.44112 0.47775 0.0
C287 C 1.01794 0.47912 0.46347 0.0
C288 C 0.05297 0.50232 0.54342 0.0
C289 C 0.20819 0.53223 0.29472 0.0
C290 C 0.18681 0.45718 0.75033 0.0
C291 C 0.32157 0.5529 0.63302 0.0
C292 C 0.3604 0.58028 0.66136 0.0
C293 C 0.3749 0.61686 0.59918 0.0
C294 C 0.41243 0.64132 0.61627 0.0
C295 C 0.436 0.62957 0.69558 0.0
C296 C 0.42111 0.59313 0.76167 0.0
C297 C 0.38379 0.56883 0.74445 0.0
C298 C 0.22402 0.53455 0.10618 0.0
C299 C 0.24569 0.61155 0.70343 0.0
O300 O 0.12474 0.50007 0.85799 0.0
O301 O 0.13286 0.53885 0.60151 0.0
O302 O 0.18827 0.54669 0.33266 0.0
O303 O 0.21006 0.5152 0.45643 0.0
O304 O 0.1668 0.4724 0.79055 0.0
O305 O 0.22022 0.47646 0.67303 0.0
O306 O 0.30242 0.55958 0.49267 0.0
O307 O 0.30328 0.53634 0.80787 0.0
O308 O 0.24463 0.52077 0.06726 0.0
O309 O 0.22202 0.55186 0.94617 0.0
O310 O 0.2662 0.59745 0.64751 0.0
O311 O 0.21179 0.5905 0.76953 0.0
H312 H 0.07357 0.4384 0.71735 0.0
H313 H 1.01218 0.39779 0.581 0.0
H314 H 1.00272 0.49106 0.39604 0.0
H315 H 0.06394 0.53148 0.53462 0.0
H316 H 0.3574 0.62642 0.53492 0.0
H317 H 0.42298 0.66921 0.56426 0.0
H318 H 0.43831 0.58308 0.82407 0.0
H319 H 0.37322 0.54075 0.79303 0.0
Nd320 Nd 0.55782 0.6689 0.69206 0.0
Nd321 Nd 0.54919 0.73607 0.70786 0.0
C322 C 0.57405 0.6164 0.73105 0.0
C323 C 0.59941 0.60556 0.63815 0.0
C324 C 0.63737 0.62857 0.64649 0.0
C325 C 0.66063 0.61669 0.56728 0.0
C326 C 0.64643 0.58161 0.47769 0.0
C327 C 0.60843 0.55916 0.46345 0.0
C328 C 0.58523 0.57099 0.5434 0.0
C329 C 0.55532 0.6963 0.2947 0.0
C330 C 0.63037 0.74997 0.75033 0.0
C331 C 0.53464 0.789 0.63307 0.0
C332 C 0.50726 0.80045 0.66139 0.0
C333 C 0.47069 0.77838 0.59916 0.0
C334 C 0.44623 0.79145 0.61623 0.0
C335 C 0.45798 0.82677 0.69557 0.0
C336 C 0.49442 0.84831 0.76173 0.0
C337 C 0.51872 0.83529 0.74453 0.0
C338 C 0.55299 0.7098 0.10617 0.0
C339 C 0.47599 0.65447 0.70341 0.0
O340 O 0.58747 0.645 0.85793 0.0
O341 O 0.5487 0.61435 0.60144 0.0
O342 O 0.54086 0.66192 0.33262 0.0
O343 O 0.57234 0.71519 0.45642 0.0
O344 O 0.61515 0.71474 0.79052 0.0
O345 O 0.61109 0.76409 0.67305 0.0
O346 O 0.52797 0.76318 0.49269 0.0
O347 O 0.5512 0.78727 0.80792 0.0
O348 O 0.56677 0.7442 0.06727 0.0
O349 O 0.53569 0.6905 0.94615 0.0
O350 O 0.4901 0.68908 0.64752 0.0
O351 O 0.49705 0.64162 0.76949 0.0
H352 H 0.64914 0.6555 0.71719 0.0
H353 H 0.68976 0.63474 0.58085 0.0
H354 H 0.59649 0.53199 0.39606 0.0
H355 H 0.55606 0.55278 0.53463 0.0
H356 H 0.46113 0.75132 0.53486 0.0
H357 H 0.41834 0.77411 0.56418 0.0
H358 H 0.50446 0.87556 0.82417 0.0
H359 H 0.54679 0.8528 0.79316 0.0
loop_
_geom_bond_atom_site_label_1
_geom_bond_atom_site_label_2
_geom_bond_distance
_geom_bond_site_symmetry_2
_ccdc_geom_bond_type
Nd0 C2 2.836 . S
Nd0 O20 2.500 1_556 S
Nd0 O21 2.492 . S
Nd0 O22 2.487 . S
Nd0 O23 2.682 1_455 S
Nd0 O24 2.410 1_455 S
Nd0 O29 2.414 1_556 S
Nd0 O31 2.424 . S
Nd1 C11 2.836 . S
Nd1 O23 2.414 1_554 S
Nd1 O25 2.424 . S
Nd1 O26 2.500 1_554 S
Nd1 O27 2.492 . S
Nd1 O28 2.487 . S
Nd1 O29 2.682 1_655 S
Nd1 O30 2.410 1_655 S
C2 Nd0 2.836 . S
C2 C3 1.498 . S
C2 O20 1.258 1_556 S
C2 O21 1.239 . S
C3 C2 1.498 . S
C3 C4 1.366 1_556 S
C3 C8 1.407 . S
C4 C3 1.366 1_554 S
C4 C5 1.392 . S
C4 H32 0.930 . S
C5 C4 1.392 . S
C5 C6 1.398 . S
C5 H33 0.929 . S
C6 C5 1.398 . S
C6 C7 1.352 1_554 S
C7 C6 1.352 1_556 S
C7 C8 1.384 . S
C7 H34 0.930 . S
C8 C3 1.407 . S
C8 C7 1.384 . S
C8 H35 0.929 . S
C9 O22 1.241 . S
C9 O23 1.273 1_455 S
C10 O24 1.251 1_554 S
C10 O25 1.268 . S
C11 Nd1 2.836 . S
C11 C12 1.498 . S
C11 O26 1.258 1_554 S
C11 O27 1.239 . S
C12 C11 1.498 . S
C12 C13 1.366 1_554 S
C12 C17 1.407 1_545 S
C13 C12 1.366 1_556 S
C13 C14 1.392 1_545 S
C13 H36 0.930 . S
C14 C13 1.392 1_565 S
C14 C15 1.398 . S
C14 H37 0.929 . S
C15 C14 1.398 . S
C15 C16 1.352 1_556 S
C16 C15 1.352 1_554 S
C16 C17 1.384 . S
C16 H38 0.930 . S
C17 C12 1.407 1_565 S
C17 C16 1.384 . S
C17 H39 0.929 1_565 S
C18 O28 1.241 . S
C18 O29 1.273 1_655 S
C19 O30 1.251 1_556 S
C19 O31 1.268 . S
O20 Nd0 2.500 1_554 S
O20 C2 1.258 1_554 S
O21 Nd0 2.492 . S
O21 C2 1.239 . S
O22 Nd0 2.487 . S
O22 C9 1.241 . S
O23 Nd0 2.682 1_655 S
O23 Nd1 2.414 1_556 S
O23 C9 1.273 1_655 S
O24 Nd0 2.410 1_655 S
O24 C10 1.251 1_556 S
O25 Nd1 2.424 . S
O25 C10 1.268 . S
O26 Nd1 2.500 1_556 S
O26 C11 1.258 1_556 S
O27 Nd1 2.492 . S
O27 C11 1.239 . S
O28 Nd1 2.487 . S
O28 C18 1.241 . S
O29 Nd0 2.414 1_554 S
O29 Nd1 2.682 1_455 S
O29 C18 1.273 1_455 S
O30 Nd1 2.410 1_455 S
O30 C19 1.251 1_554 S
O31 Nd0 2.424 . S
O31 C19 1.268 . S
H32 C4 0.930 . S
H33 C5 0.929 . S
H34 C7 0.930 . S
H35 C8 0.929 . S
H36 C13 0.930 . S
H37 C14 0.929 . S
H38 C16 0.930 . S
H39 C17 0.929 1_545 S
Nd40 C42 2.836 . S
Nd40 O60 2.500 1_556 S
Nd40 O61 2.492 . S
Nd40 O62 2.487 . S
Nd40 O63 2.682 . S
Nd40 O64 2.410 . S
Nd40 O69 2.414 1_556 S
Nd40 O71 2.424 . S
Nd41 C51 2.836 . S
Nd41 O63 2.414 1_554 S
Nd41 O65 2.424 . S
Nd41 O66 2.500 1_554 S
Nd41 O67 2.492 . S
Nd41 O68 2.487 . S
Nd41 O69 2.682 . S
Nd41 O70 2.410 . S
C42 Nd40 2.836 . S
C42 C43 1.498 . S
C42 O60 1.258 1_556 S
C42 O61 1.239 . S
C43 C42 1.498 . S
C43 C44 1.366 1_556 S
C43 C48 1.407 . S
C44 C43 1.366 1_554 S
C44 C45 1.392 . S
C44 H72 0.930 . S
C45 C44 1.392 . S
C45 C46 1.398 . S
C45 H73 0.929 . S
C46 C45 1.398 . S
C46 C47 1.352 1_554 S
C47 C46 1.352 1_556 S
C47 C48 1.384 . S
C47 H74 0.930 . S
C48 C43 1.407 . S
C48 C47 1.384 . S
C48 H75 0.929 . S
C49 O62 1.241 . S
C49 O63 1.273 . S
C50 O64 1.251 1_554 S
C50 O65 1.268 . S
C51 Nd41 2.836 . S
C51 C52 1.498 . S
C51 O66 1.258 1_554 S
C51 O67 1.239 . S
C52 C51 1.498 . S
C52 C53 1.366 1_654 S
C52 C57 1.407 1_655 S
C53 C52 1.366 1_456 S
C53 C54 1.392 . S
C53 H76 0.930 1_455 S
C54 C53 1.392 . S
C54 C55 1.398 . S
C54 H77 0.929 . S
C55 C54 1.398 . S
C55 C56 1.352 1_556 S
C56 C55 1.352 1_554 S
C56 C57 1.384 . S
C56 H78 0.930 . S
C57 C52 1.407 1_455 S
C57 C56 1.384 . S
C57 H79 0.926 1_455 S
C58 O68 1.241 . S
C58 O69 1.273 . S
C59 O70 1.251 1_556 S
C59 O71 1.268 . S
O60 Nd40 2.500 1_554 S
O60 C42 1.258 1_554 S
O61 Nd40 2.492 . S
O61 C42 1.239 . S
O62 Nd40 2.487 . S
O62 C49 1.241 . S
O63 Nd40 2.682 . S
O63 Nd41 2.414 1_556 S
O63 C49 1.273 . S
O64 Nd40 2.410 . S
O64 C50 1.251 1_556 S
O65 Nd41 2.424 . S
O65 C50 1.268 . S
O66 Nd41 2.500 1_556 S
O66 C51 1.258 1_556 S
O67 Nd41 2.492 . S
O67 C51 1.239 . S
O68 Nd41 2.487 . S
O68 C58 1.241 . S
O69 Nd40 2.414 1_554 S
O69 Nd41 2.682 . S
O69 C58 1.273 . S
O70 Nd41 2.410 . S
O70 C59 1.251 1_554 S
O71 Nd40 2.424 . S
O71 C59 1.268 . S
H72 C44 0.930 . S
H73 C45 0.929 . S
H74 C47 0.930 . S
H75 C48 0.929 . S
H76 C53 0.930 1_655 S
H77 C54 0.929 . S
H78 C56 0.930 . S
H79 C57 0.926 1_655 S
Nd80 C82 2.836 . S
Nd80 O100 2.500 1_556 S
Nd80 O101 2.492 . S
Nd80 O102 2.487 . S
Nd80 O103 2.682 1_565 S
Nd80 O104 2.410 1_565 S
Nd80 O109 2.414 1_556 S
Nd80 O111 2.424 . S
Nd81 C91 2.836 . S
Nd81 O103 2.414 1_554 S
Nd81 O105 2.424 . S
Nd81 O106 2.500 1_554 S
Nd81 O107 2.492 . S
Nd81 O108 2.487 . S
Nd81 O109 2.682 1_545 S
Nd81 O110 2.410 1_545 S
C82 Nd80 2.836 . S
C82 C83 1.498 . S
C82 O100 1.258 1_556 S
C82 O101 1.239 . S
C83 C82 1.498 . S
C83 C84 1.366 1_556 S
C83 C88 1.407 . S
C84 C83 1.366 1_554 S
C84 C85 1.392 . S
C84 H112 0.930 . S
C85 C84 1.392 . S
C85 C86 1.398 . S
C85 H113 0.929 . S
C86 C85 1.398 . S
C86 C87 1.352 1_554 S
C87 C86 1.352 1_556 S
C87 C88 1.384 . S
C87 H114 0.930 . S
C88 C83 1.407 . S
C88 C87 1.384 . S
C88 H115 0.929 . S
C89 O102 1.241 . S
C89 O103 1.273 1_565 S
C90 O104 1.251 1_554 S
C90 O105 1.268 . S
C91 Nd81 2.836 . S
C91 C92 1.498 . S
C91 O106 1.258 1_554 S
C91 O107 1.239 . S
C92 C91 1.498 . S
C92 C93 1.366 1_554 S
C92 C97 1.407 . S
C93 C92 1.366 1_556 S
C93 C94 1.392 . S
C93 H116 0.930 . S
C94 C93 1.392 . S
C94 C95 1.398 . S
C94 H117 0.929 . S
C95 C94 1.398 . S
C95 C96 1.352 1_556 S
C96 C95 1.352 1_554 S
C96 C97 1.384 . S
C96 H118 0.930 . S
C97 C92 1.407 . S
C97 C96 1.384 . S
C97 H119 0.929 . S
C98 O108 1.241 . S
C98 O109 1.273 1_545 S
C99 O110 1.251 1_556 S
C99 O111 1.268 . S
O100 Nd80 2.500 1_554 S
O100 C82 1.258 1_554 S
O101 Nd80 2.492 . S
O101 C82 1.239 . S
O102 Nd80 2.487 . S
O102 C89 1.241 . S
O103 Nd80 2.682 1_545 S
O103 Nd81 2.414 1_556 S
O103 C89 1.273 1_545 S
O104 Nd80 2.410 1_545 S
O104 C90 1.251 1_556 S
O105 Nd81 2.424 . S
O105 C90 1.268 . S
O106 Nd81 2.500 1_556 S
O106 C91 1.258 1_556 S
O107 Nd81 2.492 . S
O107 C91 1.239 . S
O108 Nd81 2.487 . S
O108 C98 1.241 . S
O109 Nd80 2.414 1_554 S
O109 Nd81 2.682 1_565 S
O109 C98 1.273 1_565 S
O110 Nd81 2.410 1_565 S
O110 C99 1.251 1_554 S
O111 Nd80 2.424 . S
O111 C99 1.268 . S
H112 C84 0.930 . S
H113 C85 0.929 . S
H114 C87 0.930 . S
H115 C88 0.929 . S
H116 C93 0.930 . S
H117 C94 0.929 . S
H118 C96 0.930 . S
H119 C97 0.929 . S
Nd120 C122 2.836 . S
Nd120 O140 2.500 . S
Nd120 O141 2.492 . S
Nd120 O142 2.487 1_554 S
Nd120 O143 2.682 . S
Nd120 O144 2.410 . S
Nd120 O149 2.414 . S
Nd120 O151 2.424 . S
Nd121 C131 2.836 . S
Nd121 O143 2.414 . S
Nd121 O145 2.424 . S
Nd121 O146 2.500 . S
Nd121 O147 2.492 . S
Nd121 O148 2.487 . S
Nd121 O149 2.682 . S
Nd121 O150 2.410 . S
C122 Nd120 2.836 . S
C122 C123 1.498 . S
C122 O140 1.258 . S
C122 O141 1.239 . S
C123 C122 1.498 . S
C123 C124 1.366 . S
C123 C128 1.407 . S
C124 C123 1.366 . S
C124 C125 1.392 . S
C124 H152 0.930 . S
C125 C124 1.392 . S
C125 C126 1.398 . S
C125 H153 0.929 . S
C126 C125 1.398 . S
C126 C127 1.352 . S
C127 C126 1.352 . S
C127 C128 1.384 . S
C127 H154 0.930 . S
C128 C123 1.407 . S
C128 C127 1.384 . S
C128 H155 0.929 . S
C129 O142 1.241 . S
C129 O143 1.273 1_556 S
C130 O144 1.251 . S
C130 O145 1.268 . S
C131 Nd121 2.836 . S
C131 C132 1.498 . S
C131 O146 1.258 . S
C131 O147 1.239 . S
C132 C131 1.498 . S
C132 C133 1.366 . S
C132 C137 1.407 . S
C133 C132 1.366 . S
C133 C134 1.392 . S
C133 H156 0.930 . S
C134 C133 1.392 . S
C134 C135 1.398 . S
C134 H157 0.929 . S
C135 C134 1.398 . S
C135 C136 1.352 . S
C136 C135 1.352 . S
C136 C137 1.384 . S
C136 H158 0.930 . S
C137 C132 1.407 . S
C137 C136 1.384 . S
C137 H159 0.929 . S
C138 O148 1.241 . S
C138 O149 1.273 . S
C139 O150 1.251 . S
C139 O151 1.268 . S
O140 Nd120 2.500 . S
O140 C122 1.258 . S
O141 Nd120 2.492 . S
O141 C122 1.239 . S
O142 Nd120 2.487 1_556 S
O142 C129 1.241 . S
O143 Nd120 2.682 . S
O143 Nd121 2.414 . S
O143 C129 1.273 1_554 S
O144 Nd120 2.410 . S
O144 C130 1.251 . S
O145 Nd121 2.424 . S
O145 C130 1.268 . S
O146 Nd121 2.500 . S
O146 C131 1.258 . S
O147 Nd121 2.492 . S
O147 C131 1.239 . S
O148 Nd121 2.487 . S
O148 C138 1.241 . S
O149 Nd120 2.414 . S
O149 Nd121 2.682 . S
O149 C138 1.273 . S
O150 Nd121 2.410 . S
O150 C139 1.251 . S
O151 Nd120 2.424 . S
O151 C139 1.268 . S
H152 C124 0.930 . S
H153 C125 0.929 . S
H154 C127 0.930 . S
H155 C128 0.929 . S
H156 C133 0.930 . S
H157 C134 0.929 . S
H158 C136 0.930 . S
H159 C137 0.929 . S
Nd160 C162 2.836 . S
Nd160 O180 2.500 . S
Nd160 O181 2.492 . S
Nd160 O182 2.487 1_554 S
Nd160 O183 2.682 . S
Nd160 O184 2.410 . S
Nd160 O189 2.414 . S
Nd160 O191 2.424 . S
Nd161 C171 2.836 . S
Nd161 O183 2.414 . S
Nd161 O185 2.424 . S
Nd161 O186 2.500 . S
Nd161 O187 2.492 . S
Nd161 O188 2.487 . S
Nd161 O189 2.682 . S
Nd161 O190 2.410 . S
C162 Nd160 2.836 . S
C162 C163 1.498 . S
C162 O180 1.258 . S
C162 O181 1.239 . S
C163 C162 1.498 . S
C163 C164 1.366 . S
C163 C168 1.407 . S
C164 C163 1.366 . S
C164 C165 1.392 . S
C164 H192 0.930 . S
C165 C164 1.392 . S
C165 C166 1.398 . S
C165 H193 0.929 . S
C166 C165 1.398 . S
C166 C167 1.352 . S
C167 C166 1.352 . S
C167 C168 1.384 . S
C167 H194 0.930 . S
C168 C163 1.407 . S
C168 C167 1.384 . S
C168 H195 0.929 . S
C169 O182 1.241 . S
C169 O183 1.273 1_556 S
C170 O184 1.251 . S
C170 O185 1.268 . S
C171 Nd161 2.836 . S
C171 C172 1.498 . S
C171 O186 1.258 . S
C171 O187 1.239 . S
C172 C171 1.498 . S
C172 C173 1.366 . S
C172 C177 1.407 . S
C173 C172 1.366 . S
C173 C174 1.392 . S
C173 H196 0.930 . S
C174 C173 1.392 . S
C174 C175 1.398 . S
C174 H197 0.929 . S
C175 C174 1.398 . S
C175 C176 1.352 . S
C176 C175 1.352 . S
C176 C177 1.384 . S
C176 H198 0.930 . S
C177 C172 1.407 . S
C177 C176 1.384 . S
C177 H199 0.929 . S
C178 O188 1.241 . S
C178 O189 1.273 . S
C179 O190 1.251 . S
C179 O191 1.268 . S
O180 Nd160 2.500 . S
O180 C162 1.258 . S
O181 Nd160 2.492 . S
O181 C162 1.239 . S
O182 Nd160 2.487 1_556 S
O182 C169 1.241 . S
O183 Nd160 2.682 . S
O183 Nd161 2.414 . S
O183 C169 1.273 1_554 S
O184 Nd160 2.410 . S
O184 C170 1.251 . S
O185 Nd161 2.424 . S
O185 C170 1.268 . S
O186 Nd161 2.500 . S
O186 C171 1.258 . S
O187 Nd161 2.492 . S
O187 C171 1.239 . S
O188 Nd161 2.487 . S
O188 C178 1.241 . S
O189 Nd160 2.414 . S
O189 Nd161 2.682 . S
O189 C178 1.273 . S
O190 Nd161 2.410 . S
O190 C179 1.251 . S
O191 Nd160 2.424 . S
O191 C179 1.268 . S
H192 C164 0.930 . S
H193 C165 0.929 . S
H194 C167 0.930 . S
H195 C168 0.929 . S
H196 C173 0.930 . S
H197 C174 0.929 . S
H198 C176 0.930 . S
H199 C177 0.929 . S
Nd200 C202 2.836 . S
Nd200 O220 2.500 . S
Nd200 O221 2.492 . S
Nd200 O222 2.487 1_554 S
Nd200 O223 2.682 . S
Nd200 O224 2.410 . S
Nd200 O229 2.414 . S
Nd200 O231 2.424 . S
Nd201 C211 2.836 . S
Nd201 O223 2.414 . S
Nd201 O225 2.424 . S
Nd201 O226 2.500 . S
Nd201 O227 2.492 . S
Nd201 O228 2.487 . S
Nd201 O229 2.682 . S
Nd201 O230 2.410 . S
C202 Nd200 2.836 . S
C202 C203 1.498 . S
C202 O220 1.258 . S
C202 O221 1.239 . S
C203 C202 1.498 . S
C203 C204 1.366 . S
C203 C208 1.407 . S
C204 C203 1.366 . S
C204 C205 1.392 . S
C204 H232 0.930 . S
C205 C204 1.392 . S
C205 C206 1.398 . S
C205 H233 0.929 . S
C206 C205 1.398 . S
C206 C207 1.352 . S
C207 C206 1.352 . S
C207 C208 1.384 . S
C207 H234 0.930 . S
C208 C203 1.407 . S
C208 C207 1.384 . S
C208 H235 0.929 . S
C209 O222 1.241 . S
C209 O223 1.273 1_556 S
C210 O224 1.251 . S
C210 O225 1.268 . S
C211 Nd201 2.836 . S
C211 C212 1.498 . S
C211 O226 1.258 . S
C211 O227 1.239 . S
C212 C211 1.498 . S
C212 C213 1.366 . S
C212 C217 1.407 . S
C213 C212 1.366 . S
C213 C214 1.392 . S
C213 H236 0.930 . S
C214 C213 1.392 . S
C214 C215 1.398 . S
C214 H237 0.929 . S
C215 C214 1.398 . S
C215 C216 1.352 . S
C216 C215 1.352 . S
C216 C217 1.384 . S
C216 H238 0.930 . S
C217 C212 1.407 . S
C217 C216 1.384 . S
C217 H239 0.929 . S
C218 O228 1.241 . S
C218 O229 1.273 . S
C219 O230 1.251 . S
C219 O231 1.268 . S
O220 Nd200 2.500 . S
O220 C202 1.258 . S
O221 Nd200 2.492 . S
O221 C202 1.239 . S
O222 Nd200 2.487 1_556 S
O222 C209 1.241 . S
O223 Nd200 2.682 . S
O223 Nd201 2.414 . S
O223 C209 1.273 1_554 S
O224 Nd200 2.410 . S
O224 C210 1.251 . S
O225 Nd201 2.424 . S
O225 C210 1.268 . S
O226 Nd201 2.500 . S
O226 C211 1.258 . S
O227 Nd201 2.492 . S
O227 C211 1.239 . S
O228 Nd201 2.487 . S
O228 C218 1.241 . S
O229 Nd200 2.414 . S
O229 Nd201 2.682 . S
O229 C218 1.273 . S
O230 Nd201 2.410 . S
O230 C219 1.251 . S
O231 Nd200 2.424 . S
O231 C219 1.268 . S
H232 C204 0.930 . S
H233 C205 0.929 . S
H234 C207 0.930 . S
H235 C208 0.929 . S
H236 C213 0.930 . S
H237 C214 0.929 . S
H238 C216 0.930 . S
H239 C217 0.929 . S
Nd240 C242 2.836 . S
Nd240 O260 2.500 . S
Nd240 O261 2.492 . S
Nd240 O262 2.487 . S
Nd240 O263 2.682 . S
Nd240 O264 2.410 . S
Nd240 O269 2.414 . S
Nd240 O271 2.424 . S
Nd241 C251 2.836 . S
Nd241 O263 2.414 . S
Nd241 O265 2.424 . S
Nd241 O266 2.500 . S
Nd241 O267 2.492 . S
Nd241 O268 2.487 1_556 S
Nd241 O269 2.682 . S
Nd241 O270 2.410 . S
C242 Nd240 2.836 . S
C242 C243 1.498 . S
C242 O260 1.258 . S
C242 O261 1.239 . S
C243 C242 1.498 . S
C243 C244 1.366 1_565 S
C243 C248 1.407 1_565 S
C244 C243 1.366 1_545 S
C244 C245 1.392 . S
C244 H272 0.930 1_545 S
C245 C244 1.392 . S
C245 C246 1.398 . S
C245 H273 0.929 . S
C246 C245 1.398 . S
C246 C247 1.352 . S
C247 C246 1.352 . S
C247 C248 1.384 . S
C247 H274 0.930 . S
C248 C243 1.407 1_545 S
C248 C247 1.384 . S
C248 H275 0.929 . S
C249 O262 1.241 . S
C249 O263 1.273 . S
C250 O264 1.251 . S
C250 O265 1.268 . S
C251 Nd241 2.836 . S
C251 C252 1.498 . S
C251 O266 1.258 . S
C251 O267 1.239 . S
C252 C251 1.498 . S
C252 C253 1.366 . S
C252 C257 1.407 . S
C253 C252 1.366 . S
C253 C254 1.392 . S
C253 H276 0.930 . S
C254 C253 1.392 . S
C254 C255 1.398 . S
C254 H277 0.929 . S
C255 C254 1.398 . S
C255 C256 1.352 . S
C256 C255 1.352 . S
C256 C257 1.384 . S
C256 H278 0.930 . S
C257 C252 1.407 . S
C257 C256 1.384 . S
C257 H279 0.929 . S
C258 O268 1.241 . S
C258 O269 1.273 1_554 S
C259 O270 1.251 . S
C259 O271 1.268 . S
O260 Nd240 2.500 . S
O260 C242 1.258 . S
O261 Nd240 2.492 . S
O261 C242 1.239 . S
O262 Nd240 2.487 . S
O262 C249 1.241 . S
O263 Nd240 2.682 . S
O263 Nd241 2.414 . S
O263 C249 1.273 . S
O264 Nd240 2.410 . S
O264 C250 1.251 . S
O265 Nd241 2.424 . S
O265 C250 1.268 . S
O266 Nd241 2.500 . S
O266 C251 1.258 . S
O267 Nd241 2.492 . S
O267 C251 1.239 . S
O268 Nd241 2.487 1_554 S
O268 C258 1.241 . S
O269 Nd240 2.414 . S
O269 Nd241 2.682 . S
O269 C258 1.273 1_556 S
O270 Nd241 2.410 . S
O270 C259 1.251 . S
O271 Nd240 2.424 . S
O271 C259 1.268 . S
H272 C244 0.930 1_565 S
H273 C245 0.929 . S
H274 C247 0.930 . S
H275 C248 0.929 . S
H276 C253 0.930 . S
H277 C254 0.929 . S
H278 C256 0.930 . S
H279 C257 0.929 . S
Nd280 C282 2.836 . S
Nd280 O300 2.500 . S
Nd280 O301 2.492 . S
Nd280 O302 2.487 . S
Nd280 O303 2.682 . S
Nd280 O304 2.410 . S
Nd280 O309 2.414 . S
Nd280 O311 2.424 . S
Nd281 C291 2.836 . S
Nd281 O303 2.414 . S
Nd281 O305 2.424 . S
Nd281 O306 2.500 . S
Nd281 O307 2.492 . S
Nd281 O308 2.487 1_556 S
Nd281 O309 2.682 . S
Nd281 O310 2.410 . S
C282 Nd280 2.836 . S
C282 C283 1.498 . S
C282 O300 1.258 . S
C282 O301 1.239 . S
C283 C282 1.498 . S
C283 C284 1.366 . S
C283 C288 1.407 1_455 S
C284 C283 1.366 . S
C284 C285 1.392 1_455 S
C284 H312 0.930 . S
C285 C284 1.392 1_655 S
C285 C286 1.398 . S
C285 H313 0.929 . S
C286 C285 1.398 . S
C286 C287 1.352 . S
C287 C286 1.352 . S
C287 C288 1.384 . S
C287 H314 0.930 . S
C288 C283 1.407 1_655 S
C288 C287 1.384 . S
C288 H315 0.929 1_655 S
C289 O302 1.241 . S
C289 O303 1.273 . S
C290 O304 1.251 . S
C290 O305 1.268 . S
C291 Nd281 2.836 . S
C291 C292 1.498 . S
C291 O306 1.258 . S
C291 O307 1.239 . S
C292 C291 1.498 . S
C292 C293 1.366 . S
C292 C297 1.407 . S
C293 C292 1.366 . S
C293 C294 1.392 . S
C293 H316 0.930 . S
C294 C293 1.392 . S
C294 C295 1.398 . S
C294 H317 0.929 . S
C295 C294 1.398 . S
C295 C296 1.352 . S
C296 C295 1.352 . S
C296 C297 1.384 . S
C296 H318 0.930 . S
C297 C292 1.407 . S
C297 C296 1.384 . S
C297 H319 0.929 . S
C298 O308 1.241 . S
C298 O309 1.273 1_554 S
C299 O310 1.251 . S
C299 O311 1.268 . S
O300 Nd280 2.500 . S
O300 C282 1.258 . S
O301 Nd280 2.492 . S
O301 C282 1.239 . S
O302 Nd280 2.487 . S
O302 C289 1.241 . S
O303 Nd280 2.682 . S
O303 Nd281 2.414 . S
O303 C289 1.273 . S
O304 Nd280 2.410 . S
O304 C290 1.251 . S
O305 Nd281 2.424 . S
O305 C290 1.268 . S
O306 Nd281 2.500 . S
O306 C291 1.258 . S
O307 Nd281 2.492 . S
O307 C291 1.239 . S
O308 Nd281 2.487 1_554 S
O308 C298 1.241 . S
O309 Nd280 2.414 . S
O309 Nd281 2.682 . S
O309 C298 1.273 1_556 S
O310 Nd281 2.410 . S
O310 C299 1.251 . S
O311 Nd280 2.424 . S
O311 C299 1.268 . S
H312 C284 0.930 . S
H313 C285 0.929 . S
H314 C287 0.930 . S
H315 C288 0.929 1_455 S
H316 C293 0.930 . S
H317 C294 0.929 . S
H318 C296 0.930 . S
H319 C297 0.929 . S
Nd320 C322 2.836 . S
Nd320 O340 2.500 . S
Nd320 O341 2.492 . S
Nd320 O342 2.487 . S
Nd320 O343 2.682 . S
Nd320 O344 2.410 . S
Nd320 O349 2.414 . S
Nd320 O351 2.424 . S
Nd321 C331 2.836 . S
Nd321 O343 2.414 . S
Nd321 O345 2.424 . S
Nd321 O346 2.500 . S
Nd321 O347 2.492 . S
Nd321 O348 2.487 1_556 S
Nd321 O349 2.682 . S
Nd321 O350 2.410 . S
C322 Nd320 2.836 . S
C322 C323 1.498 . S
C322 O340 1.258 . S
C322 O341 1.239 . S
C323 C322 1.498 . S
C323 C324 1.366 . S
C323 C328 1.407 . S
C324 C323 1.366 . S
C324 C325 1.392 . S
C324 H352 0.930 . S
C325 C324 1.392 . S
C325 C326 1.398 . S
C325 H353 0.929 . S
C326 C325 1.398 . S
C326 C327 1.352 . S
C327 C326 1.352 . S
C327 C328 1.384 . S
C327 H354 0.930 . S
C328 C323 1.407 . S
C328 C327 1.384 . S
C328 H355 0.929 . S
C329 O342 1.241 . S
C329 O343 1.273 . S
C330 O344 1.251 . S
C330 O345 1.268 . S
C331 Nd321 2.836 . S
C331 C332 1.498 . S
C331 O346 1.258 . S
C331 O347 1.239 . S
C332 C331 1.498 . S
C332 C333 1.366 . S
C332 C337 1.407 . S
C333 C332 1.366 . S
C333 C334 1.392 . S
C333 H356 0.930 . S
C334 C333 1.392 . S
C334 C335 1.398 . S
C334 H357 0.929 . S
C335 C334 1.398 . S
C335 C336 1.352 . S
C336 C335 1.352 . S
C336 C337 1.384 . S
C336 H358 0.930 . S
C337 C332 1.407 . S
C337 C336 1.384 . S
C337 H359 0.929 . S
C338 O348 1.241 . S
C338 O349 1.273 1_554 S
C339 O350 1.251 . S
C339 O351 1.268 . S
O340 Nd320 2.500 . S
O340 C322 1.258 . S
O341 Nd320 2.492 . S
O341 C322 1.239 . S
O342 Nd320 2.487 . S
O342 C329 1.241 . S
O343 Nd320 2.682 . S
O343 Nd321 2.414 . S
O343 C329 1.273 . S
O344 Nd320 2.410 . S
O344 C330 1.251 . S
O345 Nd321 2.424 . S
O345 C330 1.268 . S
O346 Nd321 2.500 . S
O346 C331 1.258 . S
O347 Nd321 2.492 . S
O347 C331 1.239 . S
O348 Nd321 2.487 1_554 S
O348 C338 1.241 . S
O349 Nd320 2.414 . S
O349 Nd321 2.682 . S
O349 C338 1.273 1_556 S
O350 Nd321 2.410 . S
O350 C339 1.251 . S
O351 Nd320 2.424 . S
O351 C339 1.268 . S
H352 C324 0.930 . S
H353 C325 0.929 . S
H354 C327 0.930 . S
H355 C328 0.929 . S
H356 C333 0.930 . S
H357 C334 0.929 . S
H358 C336 0.930 . S
H359 C337 0.929 . S
C6 C290 2.609 1_554 S
C46 C330 2.609 1_554 S
C86 C250 2.604 1_554 S
C166 C90 2.608 . S
C206 C10 2.603 . S
C50 C126 2.607 . S
C286 C210 2.609 . S
C326 C130 2.604 . S
C170 C246 2.608 . S
C95 C19 1.723 . S
C59 C15 1.723 . S
C55 C99 1.723 . S
C139 C215 1.723 . S
C135 C179 1.723 . S
C175 C219 1.723 . S
C335 C259 1.723 . S
C299 C255 1.723 . S
C339 C295 1.723 . S
C9 C18 0.879 1_455 S
C49 C58 0.879 . S
C89 C98 0.879 1_565 S
C138 C129 0.879 . S
C178 C169 0.879 . S
C218 C209 0.879 . S
C249 C258 0.879 . S
C298 C289 0.879 . S
C329 C338 0.879 . S
