# Generated by pormake.
# Topology npo, (4)-cn, num edge types: 1
# Building blocks:
#     Node 0, Type 0, BuildingBlock: AZAVOO_clean_sbu_0, # of connection points: 4
#     Node 1, Type 0, BuildingBlock: AZAVOO_clean_sbu_0, # of connection points: 4
#     Node 2, Type 0, BuildingBlock: AZAVOO_clean_sbu_0, # of connection points: 4
#     Node 3, Type 0, BuildingBlock: AZAVOO_clean_sbu_0, # of connection points: 4
#     Node 4, Type 0, BuildingBlock: AZAVOO_clean_sbu_0, # of connection points: 4
#     Node 5, Type 0, BuildingBlock: AZAVOO_clean_sbu_0, # of connection points: 4
#     Edge 6, Type (0, 0), BuildingBlock: ZUJKAS_clean_linker_0, # of connection points: 2
#     Edge 7, Type (0, 0), BuildingBlock: ZUJKAS_clean_linker_0, # of connection points: 2
#     Edge 8, Type (0, 0), BuildingBlock: ZUJKAS_clean_linker_0, # of connection points: 2
#     Edge 9, Type (0, 0), BuildingBlock: ZUJKAS_clean_linker_0, # of connection points: 2
#     Edge 10, Type (0, 0), BuildingBlock: ZUJKAS_clean_linker_0, # of connection points: 2
#     Edge 11, Type (0, 0), BuildingBlock: ZUJKAS_clean_linker_0, # of connection points: 2
#     Edge 12, Type (0, 0), BuildingBlock: ZUJKAS_clean_linker_0, # of connection points: 2
#     Edge 13, Type (0, 0), BuildingBlock: ZUJKAS_clean_linker_0, # of connection points: 2
#     Edge 14, Type (0, 0), BuildingBlock: ZUJKAS_clean_linker_0, # of connection points: 2
#     Edge 15, Type (0, 0), BuildingBlock: ZUJKAS_clean_linker_0, # of connection points: 2
#     Edge 16, Type (0, 0), BuildingBlock: ZUJKAS_clean_linker_0, # of connection points: 2
#     Edge 17, Type (0, 0), BuildingBlock: ZUJKAS_clean_linker_0, # of connection points: 2
# Relax obj value: 0.263
# Max RMSD: 0.243
# Mean RMSD: 0.230
data_MOF--net-npo--node1-AZAVOO_clean_sbu_0--edge1-ZUJKAS_clean_linker_0
_symmetry_space_group_name_H-M    P1
_symmetry_Int_Tables_number       1
_symmetry_cell_setting            triclinic
loop_
_symmetry_equiv_pos_as_xyz
'x, y, z'
_cell_length_a     57.441238
_cell_length_b     52.52772
_cell_length_c     33.090444
_cell_angle_alpha  90.331989
_cell_angle_beta   89.633229
_cell_angle_gamma 130.04172
loop_
_atom_site_label
_atom_site_type_symbol
_atom_site_fract_x
_atom_site_fract_y
_atom_site_fract_z
_atom_type_partial_charge
Mg0 Mg 0.53033 0.11716 0.23777 0.0
O1 O 0.57939 0.14671 0.25853 0.0
O2 O 0.58964 0.11291 0.26906 0.0
Mg3 Mg 0.5462 0.06046 0.25392 0.0
C4 C 0.59766 0.14189 0.26871 0.0
C5 C 0.52607 0.17276 0.23965 0.0
O6 O 0.50368 0.15038 0.26379 0.0
O7 O 0.54332 0.11183 0.1749 0.0
O8 O 0.55155 0.0764 0.18804 0.0
O9 O 0.51449 0.10711 0.30216 0.0
O10 O 0.5181 0.07462 0.26519 0.0
C11 C 0.55038 0.09425 0.16352 0.0
C12 C 0.51219 0.08095 0.29947 0.0
O13 O 0.54153 0.16628 0.22229 0.0
Mg14 Mg 0.40196 0.45962 0.73187 0.0
O15 O 0.42677 0.51526 0.73723 0.0
O16 O 0.47266 0.54116 0.76418 0.0
Mg17 Mg 0.47716 0.50163 0.7768 0.0
C18 C 0.45244 0.54166 0.74946 0.0
C19 C 0.33806 0.42697 0.7028 0.0
O20 O 0.33424 0.40396 0.72525 0.0
O21 O 0.43209 0.47059 0.67687 0.0
O22 O 0.47559 0.49292 0.70905 0.0
O23 O 0.38339 0.45104 0.79456 0.0
O24 O 0.42751 0.46399 0.78029 0.0
C25 C 0.45986 0.48275 0.67676 0.0
C26 C 0.4086 0.45901 0.80707 0.0
O27 O 0.36504 0.45324 0.69512 0.0
Mg28 Mg 0.92501 0.53173 0.24501 0.0
O29 O 0.89366 0.47606 0.25693 0.0
O30 O 0.92062 0.45903 0.26052 0.0
Mg31 Mg 0.97063 0.50517 0.24989 0.0
C32 C 0.89532 0.45321 0.26201 0.0
C33 C 0.86159 0.51229 0.2401 0.0
O34 O 0.86 0.49342 0.21205 0.0
O35 O 0.93999 0.54057 0.31116 0.0
O36 O 0.97 0.52727 0.30885 0.0
O37 O 0.92129 0.52269 0.17799 0.0
O38 O 0.95537 0.52803 0.21666 0.0
C39 C 0.9586 0.53826 0.32766 0.0
C40 C 0.94278 0.52119 0.1818 0.0
O41 O 0.886 0.53169 0.26034 0.0
Mg42 Mg 0.48988 0.89357 0.7358 0.0
O43 O 0.43938 0.8562 0.75202 0.0
O44 O 0.42153 0.8828 0.76317 0.0
Mg45 Mg 0.46139 0.93824 0.75451 0.0
C46 C 0.41762 0.85602 0.76076 0.0
C47 C 0.50812 0.84985 0.73042 0.0
O48 O 0.53103 0.87574 0.75062 0.0
O49 O 0.4775 0.89884 0.67273 0.0
O50 O 0.46193 0.92748 0.68766 0.0
O51 O 0.50295 0.90241 0.80123 0.0
O52 O 0.49456 0.9313 0.76587 0.0
C53 C 0.46741 0.91354 0.66215 0.0
C54 C 0.50127 0.92582 0.79984 0.0
O55 O 0.48738 0.85002 0.7178 0.0
Mg56 Mg 0.61234 0.55618 0.22698 0.0
O57 O 0.59856 0.50451 0.23309 0.0
O58 O 0.55629 0.47378 0.27078 0.0
Mg59 Mg 0.5429 0.505 0.28867 0.0
C60 C 0.57714 0.47719 0.25048 0.0
C61 C 0.66072 0.56348 0.16073 0.0
O62 O 0.67249 0.57349 0.1243 0.0
O63 O 0.57344 0.53509 0.18309 0.0
O64 O 0.53188 0.50549 0.22222 0.0
O65 O 0.63844 0.57225 0.28587 0.0
O66 O 0.59035 0.54987 0.28011 0.0
C67 C 0.54469 0.5168 0.18771 0.0
C68 C 0.6131 0.56114 0.30284 0.0
O69 O 0.64328 0.56898 0.17299 0.0
Mg70 Mg 0.06282 0.46594 0.73931 0.0
O71 O 0.10417 0.52162 0.73717 0.0
O72 O 0.08885 0.55135 0.73868 0.0
Mg73 Mg 0.03719 0.51458 0.74438 0.0
C74 C 0.10992 0.54948 0.73709 0.0
C75 C 0.09378 0.43601 0.72137 0.0
O76 O 0.07183 0.42084 0.69455 0.0
O77 O 0.05856 0.47034 0.80765 0.0
O78 O 0.04325 0.50027 0.80583 0.0
O79 O 0.05716 0.46533 0.67219 0.0
O80 O 0.03499 0.47509 0.71673 0.0
C81 C 0.05061 0.48546 0.82526 0.0
C82 C 0.04032 0.47319 0.67958 0.0
O83 O 0.09563 0.45559 0.74664 0.0
H84 H 0.57384 0.22688 0.19715 0.0
H85 H 0.58753 0.28164 0.19162 0.0
H86 H 0.5104 0.24764 0.2659 0.0
H87 H 0.49641 0.193 0.27131 0.0
H88 H 0.51706 0.28157 0.19414 0.0
H89 H 0.62445 0.35247 0.28269 0.0
H90 H 0.62042 0.32763 0.2412 0.0
H91 H 0.59614 0.30767 0.28463 0.0
C92 C 0.55976 0.23106 0.21222 0.0
C93 C 0.53405 0.20558 0.23476 0.0
C94 C 0.56774 0.26241 0.20924 0.0
C95 C 0.55019 0.26877 0.2288 0.0
C96 C 0.52431 0.24325 0.25072 0.0
H97 H 0.53403 0.41469 0.28084 0.0
H98 H 0.53034 0.36617 0.27153 0.0
C99 C 0.51635 0.21202 0.25378 0.0
C100 C 0.55818 0.30173 0.22629 0.0
H101 H 0.60913 0.38202 0.25973 0.0
C102 C 0.53733 0.3036 0.20815 0.0
C103 C 0.58481 0.33051 0.24424 0.0
C104 C 0.60775 0.32968 0.26456 0.0
C105 C 0.54186 0.3332 0.20858 0.0
C106 C 0.56764 0.36149 0.22839 0.0
C107 C 0.58929 0.36017 0.24483 0.0
C108 C 0.57107 0.39166 0.235 0.0
C109 C 0.51878 0.33381 0.18824 0.0
C110 C 0.59585 0.42243 0.21874 0.0
C111 C 0.59815 0.45043 0.22416 0.0
C112 C 0.57579 0.44813 0.24616 0.0
C113 C 0.55154 0.41741 0.26341 0.0
C114 C 0.54928 0.38954 0.25796 0.0
H115 H 0.50595 0.31424 0.16462 0.0
H116 H 0.50219 0.32909 0.21113 0.0
H117 H 0.52985 0.35838 0.17418 0.0
H118 H 0.61308 0.42462 0.20125 0.0
H119 H 0.61721 0.47372 0.21076 0.0
H120 H 0.33878 0.47691 0.67646 0.0
H121 H 0.29597 0.47659 0.67595 0.0
H122 H 0.23513 0.37326 0.71041 0.0
H123 H 0.27779 0.37346 0.71171 0.0
H124 H 0.24005 0.43949 0.63661 0.0
H125 H 0.22479 0.41775 0.80215 0.0
H126 H 0.25775 0.42899 0.77555 0.0
H127 H 0.22255 0.38681 0.7743 0.0
C128 C 0.31621 0.45394 0.68322 0.0
C129 C 0.31177 0.42531 0.69464 0.0
C130 C 0.29178 0.45384 0.68303 0.0
C131 C 0.26252 0.42514 0.69418 0.0
C132 C 0.25767 0.39591 0.70275 0.0
H133 H 0.09487 0.39439 0.67312 0.0
H134 H 0.13552 0.39151 0.66645 0.0
C135 C 0.28206 0.39603 0.70318 0.0
C136 C 0.23745 0.42624 0.69887 0.0
H137 H 0.18774 0.41621 0.76812 0.0
C138 C 0.22859 0.4344 0.66532 0.0
C139 C 0.22292 0.4202 0.73659 0.0
C140 C 0.23262 0.41326 0.77433 0.0
C141 C 0.20523 0.43617 0.66832 0.0
C142 C 0.19 0.42901 0.70573 0.0
C143 C 0.1992 0.42134 0.73938 0.0
C144 C 0.16481 0.42988 0.7108 0.0
C145 C 0.19754 0.44637 0.63162 0.0
C146 C 0.16719 0.45144 0.73917 0.0
C147 C 0.1438 0.45289 0.74344 0.0
C148 C 0.11754 0.43271 0.71943 0.0
C149 C 0.11488 0.41046 0.69187 0.0
C150 C 0.13821 0.40896 0.68776 0.0
H151 H 0.21639 0.45959 0.60918 0.0
H152 H 0.17715 0.42383 0.61678 0.0
H153 H 0.19238 0.46277 0.64016 0.0
H154 H 0.18742 0.46763 0.75752 0.0
H155 H 0.1466 0.47029 0.76494 0.0
H156 H 0.62234 0.20687 0.27421 0.0
H157 H 0.67573 0.25562 0.28287 0.0
H158 H 0.69895 0.19252 0.29308 0.0
H159 H 0.64543 0.14332 0.28402 0.0
H160 H 0.7181 0.27366 0.3462 0.0
H161 H 0.75095 0.25521 0.19693 0.0
H162 H 0.71184 0.23391 0.21043 0.0
H163 H 0.73136 0.22092 0.23171 0.0
C164 C 0.63867 0.20321 0.27858 0.0
C165 C 0.62959 0.17114 0.27798 0.0
C166 C 0.66919 0.23114 0.28364 0.0
C167 C 0.69124 0.22762 0.28805 0.0
C168 C 0.68224 0.19569 0.28912 0.0
H169 H 0.88769 0.3962 0.27078 0.0
H170 H 0.83993 0.3397 0.28273 0.0
C171 C 0.65165 0.16764 0.28411 0.0
C172 C 0.7237 0.2577 0.28959 0.0
H173 H 0.78867 0.30372 0.23287 0.0
C174 C 0.73369 0.28008 0.32172 0.0
C175 C 0.74395 0.26584 0.25768 0.0
C176 C 0.73411 0.24291 0.22202 0.0
C177 C 0.76318 0.31098 0.32212 0.0
C178 C 0.78289 0.31985 0.28915 0.0
C179 C 0.77343 0.29679 0.25805 0.0
C180 C 0.81207 0.35403 0.28426 0.0
C181 C 0.77278 0.3341 0.35745 0.0
C182 C 0.81207 0.3806 0.28065 0.0
C183 C 0.83913 0.41273 0.27372 0.0
C184 C 0.86683 0.41899 0.26998 0.0
C185 C 0.86678 0.39227 0.27361 0.0
C186 C 0.83957 0.36001 0.28049 0.0
H187 H 0.75961 0.32012 0.38514 0.0
H188 H 0.7974 0.34914 0.36389 0.0
H189 H 0.76843 0.35131 0.35027 0.0
H190 H 0.79098 0.37639 0.28245 0.0
H191 H 0.8382 0.4326 0.27096 0.0
H192 H 0.46029 0.78951 0.69848 0.0
H193 H 0.4527 0.73802 0.69906 0.0
H194 H 0.54066 0.79004 0.75399 0.0
H195 H 0.54832 0.84152 0.75408 0.0
H196 H 0.48705 0.72159 0.66584 0.0
H197 H 0.4823 0.71412 0.83348 0.0
H198 H 0.47963 0.74176 0.80608 0.0
H199 H 0.51599 0.75247 0.81345 0.0
C200 C 0.47815 0.79009 0.71039 0.0
C201 C 0.50479 0.81955 0.72663 0.0
C202 C 0.47376 0.76064 0.71069 0.0
C203 C 0.49586 0.76013 0.7273 0.0
C204 C 0.52304 0.78978 0.74185 0.0
H205 H 0.50392 0.60334 0.77298 0.0
H206 H 0.51494 0.65648 0.7659 0.0
C207 C 0.52744 0.81921 0.74165 0.0
C208 C 0.49013 0.7284 0.73038 0.0
H209 H 0.48174 0.67435 0.79841 0.0
C210 C 0.48582 0.71119 0.69479 0.0
C211 C 0.48849 0.71492 0.76823 0.0
C212 C 0.49156 0.73156 0.80755 0.0
C213 C 0.48037 0.68103 0.69602 0.0
C214 C 0.47874 0.66758 0.73389 0.0
C215 C 0.48312 0.68483 0.76944 0.0
C216 C 0.47212 0.63538 0.7374 0.0
C217 C 0.47692 0.66409 0.65682 0.0
C218 C 0.4442 0.60589 0.72422 0.0
C219 C 0.43777 0.57545 0.72826 0.0
C220 C 0.45912 0.57392 0.74575 0.0
C221 C 0.48697 0.60356 0.75928 0.0
C222 C 0.49335 0.63398 0.75526 0.0
H223 H 0.48635 0.68149 0.63082 0.0
H224 H 0.48845 0.65343 0.65835 0.0
H225 H 0.45241 0.64346 0.65104 0.0
H226 H 0.42725 0.60637 0.71113 0.0
H227 H 0.41604 0.55316 0.71765 0.0
H228 H 0.66525 0.51788 0.13566 0.0
H229 H 0.69025 0.5006 0.17078 0.0
H230 H 0.70152 0.55641 0.27599 0.0
H231 H 0.6763 0.57379 0.24053 0.0
H232 H 0.75581 0.57608 0.24139 0.0
H233 H 0.67485 0.43992 0.26398 0.0
H234 H 0.67218 0.45167 0.21452 0.0
H235 H 0.66274 0.46408 0.25815 0.0
C236 C 0.67205 0.52546 0.16682 0.0
C237 C 0.6686 0.54686 0.18566 0.0
C238 C 0.68615 0.51538 0.18698 0.0
C239 C 0.69745 0.52689 0.22619 0.0
C240 C 0.69251 0.54682 0.24597 0.0
H241 H 0.85352 0.54191 0.30085 0.0
H242 H 0.81196 0.54353 0.30794 0.0
C243 C 0.67791 0.55652 0.2259 0.0
C244 C 0.71911 0.5232 0.24252 0.0
H245 H 0.72797 0.46558 0.25677 0.0
C246 C 0.7497 0.55199 0.24594 0.0
C247 C 0.71103 0.49174 0.24811 0.0
C248 C 0.67835 0.4601 0.24639 0.0
C249 C 0.77279 0.55013 0.25139 0.0
C250 C 0.76492 0.51852 0.2547 0.0
C251 C 0.73405 0.48979 0.25407 0.0
C252 C 0.7884 0.51468 0.25387 0.0
C253 C 0.80548 0.58193 0.25035 0.0
C254 C 0.78829 0.49669 0.22224 0.0
C255 C 0.81168 0.4953 0.21848 0.0
C256 C 0.83586 0.51206 0.24616 0.0
C257 C 0.83543 0.52911 0.27871 0.0
C258 C 0.81175 0.53016 0.28272 0.0
H259 H 0.80768 0.60329 0.23914 0.0
H260 H 0.81497 0.58804 0.28135 0.0
H261 H 0.81946 0.57912 0.23072 0.0
H262 H 0.77054 0.48451 0.19962 0.0
H263 H 0.81118 0.4818 0.19316 0.0
H264 H 0.40022 0.7937 0.75851 0.0
H265 H 0.34846 0.74042 0.75716 0.0
H266 H 0.3126 0.79127 0.76917 0.0
H267 H 0.36425 0.84471 0.77117 0.0
H268 H 0.28239 0.73406 0.81714 0.0
H269 H 0.29352 0.70863 0.65802 0.0
H270 H 0.32188 0.71646 0.69176 0.0
H271 H 0.32055 0.74903 0.68115 0.0
C272 C 0.38137 0.79362 0.76125 0.0
C273 C 0.38644 0.82359 0.76455 0.0
C274 C 0.35179 0.76312 0.76019 0.0
C275 C 0.32675 0.762 0.76214 0.0
C276 C 0.33167 0.79166 0.76729 0.0
H277 H 0.13136 0.61343 0.74213 0.0
H278 H 0.18416 0.66438 0.74842 0.0
C279 C 0.36123 0.82219 0.76846 0.0
C280 C 0.2954 0.73003 0.75784 0.0
H281 H 0.24776 0.66619 0.69197 0.0
C282 C 0.27478 0.71921 0.78979 0.0
C283 C 0.2856 0.71075 0.72207 0.0
C284 C 0.30642 0.72185 0.68611 0.0
C285 C 0.24462 0.68944 0.78706 0.0
C286 C 0.23478 0.67035 0.75118 0.0
C287 C 0.25545 0.68095 0.7194 0.0
C288 C 0.20293 0.63954 0.74583 0.0
C289 C 0.22361 0.67845 0.82274 0.0
C290 C 0.19613 0.60885 0.74088 0.0
C291 C 0.16596 0.57962 0.73708 0.0
C292 C 0.14205 0.58062 0.73788 0.0
C293 C 0.14913 0.61165 0.74157 0.0
C294 C 0.17929 0.64081 0.74545 0.0
H295 H 0.2364 0.69126 0.85104 0.0
H296 H 0.20862 0.68446 0.81701 0.0
H297 H 0.20898 0.65117 0.82729 0.0
H298 H 0.21415 0.60746 0.74076 0.0
H299 H 0.16138 0.55621 0.73417 0.0
H300 H 0.50705 0.91535 0.87897 0.0
H301 H 0.51793 0.9507 0.93727 0.0
H302 H 0.51938 0.01714 0.85923 0.0
H303 H 0.50849 0.98223 0.80114 0.0
H304 H 0.57279 0.04572 0.91779 0.0
H305 H 0.45613 0.96486 0.98404 0.0
H306 H 0.47137 0.9453 0.96798 0.0
H307 H 0.46307 0.96331 0.93109 0.0
C308 C 0.50952 0.93738 0.87434 0.0
C309 C 0.50669 0.94588 0.83559 0.0
C310 C 0.51571 0.95747 0.90755 0.0
C311 C 0.51933 0.98633 0.90226 0.0
C312 C 0.51658 0.99488 0.86371 0.0
H313 H 0.524 0.09984 0.09964 0.0
H314 H 0.51979 0.08008 0.03056 0.0
C315 C 0.51018 0.97476 0.83067 0.0
C316 C 0.52633 0.00796 0.93686 0.0
H317 H 0.495 0.01231 0.02155 0.0
C318 C 0.55583 0.03861 0.94045 0.0
C319 C 0.50391 0.99865 0.96573 0.0
C320 C 0.47173 0.96634 0.96218 0.0
C321 C 0.5638 0.05983 0.97327 0.0
C322 C 0.54164 0.04998 0.00294 0.0
C323 C 0.51187 0.01982 -0.00147 0.0
C324 C 0.54935 0.06866 0.04095 0.0
C325 C 0.59584 0.09242 0.97622 0.0
C326 C 0.56812 0.06971 0.06897 0.0
C327 C 0.57038 0.08069 0.10829 0.0
C328 C 0.55392 0.09085 0.12018 0.0
C329 C 0.53706 0.09233 0.09119 0.0
C330 C 0.53453 0.08094 0.05185 0.0
H331 H 0.60748 0.1004 0.94636 0.0
H332 H 0.59603 0.11229 0.98846 0.0
H333 H 0.60904 0.0895 -0.00294 0.0
H334 H 0.57939 0.05991 0.06127 0.0
H335 H 0.58364 0.07943 0.13003 0.0
H336 H 0.59813 0.59209 0.34571 0.0
H337 H 0.57708 0.57838 0.41414 0.0
H338 H 0.59349 0.50932 0.42563 0.0
H339 H 0.61502 0.52346 0.35673 0.0
H340 H 0.53127 0.48242 0.43875 0.0
H341 H 0.61382 0.59681 0.52874 0.0
H342 H 0.60454 0.60408 0.48078 0.0
H343 H 0.62416 0.58789 0.48235 0.0
C344 C 0.59838 0.57502 0.36354 0.0
C345 C 0.60872 0.55933 0.34666 0.0
C346 C 0.58628 0.56712 0.40249 0.0
C347 C 0.58396 0.54305 0.42499 0.0
C348 C 0.5954 0.52822 0.40878 0.0
H349 H 0.51301 0.49421 0.66896 0.0
H350 H 0.5417 0.50541 0.60765 0.0
C351 C 0.60795 0.53651 0.36979 0.0
C352 C 0.56656 0.53113 0.4633 0.0
H353 H 0.5636 0.55782 0.55584 0.0
C354 C 0.53847 0.49868 0.46465 0.0
C355 C 0.57603 0.55247 0.49684 0.0
C356 C 0.60641 0.58718 0.4974 0.0
C357 C 0.51915 0.48732 0.49837 0.0
C358 C 0.52811 0.50914 0.53126 0.0
C359 C 0.55662 0.54125 0.53035 0.0
C360 C 0.50877 0.49913 0.56756 0.0
C361 C 0.48938 0.45212 0.4986 0.0
C362 C 0.48038 0.49139 0.56532 0.0
C363 C 0.46367 0.48485 0.6006 0.0
C364 C 0.47534 0.48632 0.63857 0.0
C365 C 0.5034 0.49318 0.64032 0.0
C366 C 0.5199 0.49955 0.60527 0.0
H367 H 0.4891 0.43638 0.47568 0.0
H368 H 0.4848 0.44062 0.52882 0.0
H369 H 0.47065 0.45234 0.49154 0.0
H370 H 0.47161 0.49143 0.53647 0.0
H371 H 0.44223 0.47978 0.59825 0.0
H372 H 0.02318 0.43233 0.87637 0.0
H373 H 0.00595 0.42988 0.9457 0.0
H374 H 0.05332 0.53506 0.94145 0.0
H375 H 0.07039 0.53754 0.87284 0.0
H376 H 0.05459 0.51162 0.01854 0.0
H377 H 0.93855 0.4383 0.95257 0.0
H378 H 0.95799 0.42205 0.94655 0.0
H379 H 0.9722 0.45981 0.9214 0.0
C380 C 0.03081 0.45505 0.89099 0.0
C381 C 0.04791 0.48509 0.86947 0.0
C382 C 0.02074 0.45358 0.93029 0.0
C383 C 0.02794 0.4822 0.94825 0.0
C384 C 0.04743 0.51271 0.92806 0.0
H385 H 0.94387 0.53301 0.10143 0.0
H386 H 0.96303 0.51939 0.0462 0.0
C387 C 0.05719 0.51411 0.88892 0.0
C388 C 0.01261 0.48042 0.9855 0.0
H389 H 0.94512 0.4576 0.01894 0.0
C390 C 0.03054 0.49928 0.01908 0.0
C391 C 0.98133 0.46481 0.98555 0.0
C392 C 0.96128 0.44523 0.9496 0.0
C393 C 0.01825 0.50385 0.05228 0.0
C394 C 0.98712 0.48878 0.05196 0.0
C395 C 0.96896 0.46905 0.01897 0.0
C396 C 0.97344 0.4947 0.08471 0.0
C397 C 0.03902 0.52615 0.08647 0.0
C398 C 0.97206 0.48438 0.12421 0.0
C399 C 0.9613 0.49224 0.15558 0.0
C400 C 0.95162 0.51044 0.14804 0.0
C401 C 0.95145 0.51921 0.10811 0.0
C402 C 0.96239 0.51147 0.07665 0.0
H403 H 0.0634 0.54126 0.07816 0.0
H404 H 0.03477 0.5432 0.09576 0.0
H405 H 0.0345 0.51064 0.11294 0.0
H406 H 0.97961 0.47054 0.13083 0.0
H407 H 0.9604 0.48374 0.18557 0.0
H408 H 0.4985 0.02088 0.29912 0.0
H409 H 0.48752 0.98607 0.3569 0.0
H410 H 0.49735 0.05745 0.43708 0.0
H411 H 0.5089 0.09296 0.37916 0.0
H412 H 0.5303 0.03591 0.4596 0.0
H413 H 0.40897 0.92992 0.42597 0.0
H414 H 0.43505 0.94272 0.3849 0.0
H415 H 0.42928 0.97049 0.40351 0.0
C416 C 0.49842 0.0293 0.32902 0.0
C417 C 0.50477 0.0598 0.33468 0.0
C418 C 0.49184 0.00918 0.36193 0.0
C419 C 0.49129 0.01905 0.40104 0.0
C420 C 0.49754 0.04942 0.40694 0.0
H421 H 0.43181 0.92502 0.62913 0.0
H422 H 0.43611 0.94559 0.56133 0.0
C423 C 0.50408 0.06961 0.37392 0.0
C424 C 0.48536 0.99823 0.43592 0.0
H425 H 0.43119 0.92281 0.47998 0.0
C426 C 0.50869 0.01115 0.46407 0.0
C427 C 0.4571 0.96599 0.44143 0.0
C428 C 0.43102 0.95144 0.41258 0.0
C429 C 0.50444 0.99274 0.49802 0.0
C430 C 0.47623 0.96041 0.50347 0.0
C431 C 0.45294 0.94738 0.47517 0.0
C432 C 0.46952 0.94164 0.54092 0.0
C433 C 0.52975 0.00847 0.52853 0.0
C434 C 0.48576 0.931 0.55103 0.0
C435 C 0.48332 0.91913 0.58989 0.0
C436 C 0.46474 0.91802 0.61897 0.0
C437 C 0.44662 0.92604 0.60749 0.0
C438 C 0.44895 0.93769 0.56875 0.0
H439 H 0.54809 0.03551 0.5231 0.0
H440 H 0.52081 0.00499 0.55967 0.0
H441 H 0.5399 0.99629 0.52672 0.0
H442 H 0.50146 0.93352 0.52959 0.0
H443 H 0.49749 0.91304 0.5979 0.0
H444 H 0.37061 0.42474 0.87125 0.0
H445 H 0.38477 0.43233 0.94306 0.0
H446 H 0.47813 0.51357 0.91131 0.0
H447 H 0.46409 0.50671 0.84062 0.0
H448 H 0.42765 0.42781 0.97543 0.0
H449 H 0.46212 0.55163 0.00506 0.0
H450 H 0.43862 0.52612 0.96262 0.0
H451 H 0.4793 0.55122 0.95988 0.0
C452 C 0.39406 0.44442 0.87985 0.0
C453 C 0.41642 0.46465 0.85031 0.0
C454 C 0.40209 0.44869 0.9207 0.0
C455 C 0.43243 0.47371 0.93241 0.0
C456 C 0.45452 0.4944 0.90296 0.0
H457 H 0.56343 0.54082 0.11079 0.0
H458 H 0.53169 0.52782 0.05229 0.0
C459 C 0.44657 0.49 0.86236 0.0
C460 C 0.44201 0.4771 0.97478 0.0
H461 H 0.48432 0.53535 0.04845 0.0
C462 C 0.43938 0.45099 0.99196 0.0
C463 C 0.45724 0.50737 -0.00386 0.0
C464 C 0.45922 0.53555 0.98013 0.0
C465 C 0.45354 0.45525 0.02875 0.0
C466 C 0.47043 0.48628 0.04872 0.0
C467 C 0.47155 0.5117 0.03272 0.0
C468 C 0.4891 0.49375 0.08449 0.0
C469 C 0.45192 0.42733 0.04487 0.0
C470 C 0.47551 0.4789 0.12184 0.0
C471 C 0.49357 0.4863 0.15542 0.0
C472 C 0.52551 0.50866 0.15209 0.0
C473 C 0.53895 0.52344 0.11445 0.0
C474 C 0.52087 0.51614 0.08101 0.0
H475 H 0.44075 0.40615 0.02335 0.0
H476 H 0.47513 0.43649 0.05149 0.0
H477 H 0.43882 0.4181 0.07359 0.0
H478 H 0.45099 0.46176 0.12505 0.0
H479 H 0.48246 0.47448 0.18394 0.0
H480 H 1.00135 0.48591 0.68694 0.0
H481 H 0.98417 0.50257 0.63409 0.0
H482 H 0.03577 0.49639 0.54566 0.0
H483 H 0.05389 0.48043 0.5987 0.0
H484 H 0.02844 0.5618 0.57239 0.0
H485 H 0.93948 0.43436 0.51091 0.0
H486 H 0.95246 0.44176 0.5626 0.0
H487 H 0.97604 0.44645 0.52241 0.0
C488 C 0.00944 0.48848 0.6564 0.0
C489 C 0.02937 0.4823 0.64709 0.0
C490 C 0.99945 0.49787 0.62627 0.0
C491 C 0.00882 0.50074 0.58626 0.0
C492 C 0.02839 0.49426 0.57658 0.0
H493 H 0.01369 0.57233 0.36217 0.0
H494 H 0.02348 0.56874 0.4326 0.0
C495 C 0.03865 0.48512 0.60681 0.0
C496 C 0.99794 0.5103 0.55446 0.0
H497 H 0.95061 0.47921 0.47334 0.0
C498 C 0.01117 0.54379 0.55093 0.0
C499 C 0.97505 0.48654 0.52724 0.0
C500 C 0.95967 0.45016 0.53087 0.0
C501 C 1.00317 0.55444 0.51921 0.0
C502 C 0.98152 0.53094 0.49055 0.0
C503 C 0.9671 0.49716 0.49553 0.0
C504 C 0.9768 0.54103 0.45196 0.0
C505 C 0.01847 0.5908 0.51597 0.0
C506 C 0.94749 0.5277 0.43983 0.0
C507 C 0.94193 0.53008 0.39947 0.0
C508 C 0.96553 0.54516 0.37091 0.0
C509 C 0.99522 0.56076 0.38382 0.0
C510 C 1.00084 0.55883 0.42408 0.0
H511 H 0.02655 0.6033 0.54591 0.0
H512 H 0.03855 0.60321 0.49572 0.0
H513 H 1.00285 0.59423 0.50309 0.0
H514 H 0.92863 0.51358 0.46092 0.0
H515 H 0.91879 0.51748 0.38999 0.0
loop_
_geom_bond_atom_site_label_1
_geom_bond_atom_site_label_2
_geom_bond_distance
_geom_bond_site_symmetry_2
_ccdc_geom_bond_type
Mg0 O1 2.028 . S
Mg0 O7 1.986 . S
Mg0 O9 2.114 . S
Mg0 O10 2.251 . S
Mg0 O13 2.010 . S
O1 Mg0 2.028 . S
O1 C4 1.250 . S
O2 Mg3 2.028 . S
O2 C4 1.248 . S
Mg3 O2 2.028 . S
Mg3 O8 2.032 . S
Mg3 O10 2.079 . S
C4 O1 1.250 . S
C4 O2 1.248 . S
C5 O6 1.264 . S
C5 O13 1.249 . S
O6 C5 1.264 . S
O7 Mg0 1.986 . S
O7 C11 1.246 . S
O8 Mg3 2.032 . S
O8 C11 1.259 . S
O9 Mg0 2.114 . S
O9 C12 1.252 . S
O10 Mg0 2.251 . S
O10 Mg3 2.079 . S
O10 C12 1.273 . S
C11 O7 1.246 . S
C11 O8 1.259 . S
C12 O9 1.252 . S
C12 O10 1.273 . S
O13 Mg0 2.010 . S
O13 C5 1.249 . S
Mg14 O15 2.028 . S
Mg14 O21 1.986 . S
Mg14 O23 2.114 . S
Mg14 O24 2.251 . S
Mg14 O27 2.010 . S
O15 Mg14 2.028 . S
O15 C18 1.250 . S
O16 Mg17 2.028 . S
O16 C18 1.248 . S
Mg17 O16 2.028 . S
Mg17 O22 2.032 . S
Mg17 O24 2.079 . S
C18 O15 1.250 . S
C18 O16 1.248 . S
C19 O20 1.264 . S
C19 O27 1.249 . S
O20 C19 1.264 . S
O21 Mg14 1.986 . S
O21 C25 1.246 . S
O22 Mg17 2.032 . S
O22 C25 1.259 . S
O23 Mg14 2.114 . S
O23 C26 1.252 . S
O24 Mg14 2.251 . S
O24 Mg17 2.079 . S
O24 C26 1.273 . S
C25 O21 1.246 . S
C25 O22 1.259 . S
C26 O23 1.252 . S
C26 O24 1.273 . S
O27 Mg14 2.010 . S
O27 C19 1.249 . S
Mg28 O29 2.028 . S
Mg28 O35 1.986 . S
Mg28 O37 2.114 . S
Mg28 O38 2.251 . S
Mg28 O41 2.010 . S
O29 Mg28 2.028 . S
O29 C32 1.250 . S
O30 Mg31 2.028 . S
O30 C32 1.248 . S
Mg31 O30 2.028 . S
Mg31 O36 2.032 . S
Mg31 O38 2.079 . S
C32 O29 1.250 . S
C32 O30 1.248 . S
C33 O34 1.264 . S
C33 O41 1.249 . S
O34 C33 1.264 . S
O35 Mg28 1.986 . S
O35 C39 1.246 . S
O36 Mg31 2.032 . S
O36 C39 1.259 . S
O37 Mg28 2.114 . S
O37 C40 1.252 . S
O38 Mg28 2.251 . S
O38 Mg31 2.079 . S
O38 C40 1.273 . S
C39 O35 1.246 . S
C39 O36 1.259 . S
C40 O37 1.252 . S
C40 O38 1.273 . S
O41 Mg28 2.010 . S
O41 C33 1.249 . S
Mg42 O43 2.028 . S
Mg42 O49 1.986 . S
Mg42 O51 2.114 . S
Mg42 O52 2.251 . S
Mg42 O55 2.010 . S
O43 Mg42 2.028 . S
O43 C46 1.250 . S
O44 Mg45 2.028 . S
O44 C46 1.248 . S
Mg45 O44 2.028 . S
Mg45 O50 2.032 . S
Mg45 O52 2.079 . S
C46 O43 1.250 . S
C46 O44 1.248 . S
C47 O48 1.264 . S
C47 O55 1.249 . S
O48 C47 1.264 . S
O49 Mg42 1.986 . S
O49 C53 1.246 . S
O50 Mg45 2.032 . S
O50 C53 1.259 . S
O51 Mg42 2.114 . S
O51 C54 1.252 . S
O52 Mg42 2.251 . S
O52 Mg45 2.079 . S
O52 C54 1.273 . S
C53 O49 1.246 . S
C53 O50 1.259 . S
C54 O51 1.252 . S
C54 O52 1.273 . S
O55 Mg42 2.010 . S
O55 C47 1.249 . S
Mg56 O57 2.028 . S
Mg56 O63 1.986 . S
Mg56 O65 2.114 . S
Mg56 O66 2.251 . S
Mg56 O69 2.010 . S
O57 Mg56 2.028 . S
O57 C60 1.250 . S
O58 Mg59 2.028 . S
O58 C60 1.248 . S
Mg59 O58 2.028 . S
Mg59 O64 2.032 . S
Mg59 O66 2.079 . S
C60 O57 1.250 . S
C60 O58 1.248 . S
C61 O62 1.264 . S
C61 O69 1.249 . S
O62 C61 1.264 . S
O63 Mg56 1.986 . S
O63 C67 1.246 . S
O64 Mg59 2.032 . S
O64 C67 1.259 . S
O65 Mg56 2.114 . S
O65 C68 1.252 . S
O66 Mg56 2.251 . S
O66 Mg59 2.079 . S
O66 C68 1.273 . S
C67 O63 1.246 . S
C67 O64 1.259 . S
C68 O65 1.252 . S
C68 O66 1.273 . S
O69 Mg56 2.010 . S
O69 C61 1.249 . S
Mg70 O71 2.028 . S
Mg70 O77 1.986 . S
Mg70 O79 2.114 . S
Mg70 O80 2.251 . S
Mg70 O83 2.010 . S
O71 Mg70 2.028 . S
O71 C74 1.250 . S
O72 Mg73 2.028 . S
O72 C74 1.248 . S
Mg73 O72 2.028 . S
Mg73 O78 2.032 . S
Mg73 O80 2.079 . S
C74 O71 1.250 . S
C74 O72 1.248 . S
C75 O76 1.264 . S
C75 O83 1.249 . S
O76 C75 1.264 . S
O77 Mg70 1.986 . S
O77 C81 1.246 . S
O78 Mg73 2.032 . S
O78 C81 1.259 . S
O79 Mg70 2.114 . S
O79 C82 1.252 . S
O80 Mg70 2.251 . S
O80 Mg73 2.079 . S
O80 C82 1.273 . S
C81 O77 1.246 . S
C81 O78 1.259 . S
C82 O79 1.252 . S
C82 O80 1.273 . S
O83 Mg70 2.010 . S
O83 C75 1.249 . S
H84 C92 0.929 . S
H85 C94 0.930 . S
H86 C96 0.930 . S
H87 C99 0.929 . S
H88 C102 0.930 . S
H89 C104 0.960 . S
H90 C104 0.960 . S
H91 C104 0.960 . S
C92 H84 0.929 . S
C92 C93 1.377 . S
C92 C94 1.384 . S
C93 C92 1.377 . S
C93 C99 1.390 . S
C94 H85 0.930 . S
C94 C92 1.384 . S
C94 C95 1.372 . S
C95 C94 1.372 . S
C95 C96 1.400 . S
C95 C100 1.490 . S
C96 H86 0.930 . S
C96 C95 1.400 . S
C96 C99 1.386 . S
H97 C113 0.930 . S
H98 C114 0.931 . S
C99 H87 0.929 . S
C99 C93 1.390 . S
C99 C96 1.386 . S
C100 C95 1.490 . S
C100 C102 1.395 . S
C100 C103 1.403 . S
H101 C107 0.930 . S
C102 H88 0.930 . S
C102 C100 1.395 . S
C102 C105 1.403 . S
C103 C100 1.403 . S
C103 C104 1.524 . S
C103 C107 1.400 . S
C104 H89 0.960 . S
C104 H90 0.960 . S
C104 H91 0.960 . S
C104 C103 1.524 . S
C105 C102 1.403 . S
C105 C106 1.392 . S
C105 C109 1.495 . S
C106 C105 1.392 . S
C106 C107 1.385 . S
C106 C108 1.478 . S
C107 H101 0.930 . S
C107 C103 1.400 . S
C107 C106 1.385 . S
C108 C106 1.478 . S
C108 C110 1.381 . S
C108 C114 1.383 . S
C109 C105 1.495 . S
C109 H115 0.959 . S
C109 H116 0.961 . S
C109 H117 0.960 . S
C110 C108 1.381 . S
C110 C111 1.394 . S
C110 H118 0.930 . S
C111 C110 1.394 . S
C111 C112 1.383 . S
C111 H119 0.929 . S
C112 C111 1.383 . S
C112 C113 1.377 . S
C113 H97 0.930 . S
C113 C112 1.377 . S
C113 C114 1.379 . S
C114 H98 0.931 . S
C114 C108 1.383 . S
C114 C113 1.379 . S
H115 C109 0.959 . S
H116 C109 0.961 . S
H117 C109 0.960 . S
H118 C110 0.930 . S
H119 C111 0.929 . S
H120 C128 0.929 . S
H121 C130 0.930 . S
H122 C132 0.930 . S
H123 C135 0.929 . S
H124 C138 0.930 . S
H125 C140 0.960 . S
H126 C140 0.960 . S
H127 C140 0.960 . S
C128 H120 0.929 . S
C128 C129 1.377 . S
C128 C130 1.384 . S
C129 C128 1.377 . S
C129 C135 1.390 . S
C130 H121 0.930 . S
C130 C128 1.384 . S
C130 C131 1.372 . S
C131 C130 1.372 . S
C131 C132 1.400 . S
C131 C136 1.490 . S
C132 H122 0.930 . S
C132 C131 1.400 . S
C132 C135 1.386 . S
H133 C149 0.930 . S
H134 C150 0.931 . S
C135 H123 0.929 . S
C135 C129 1.390 . S
C135 C132 1.386 . S
C136 C131 1.490 . S
C136 C138 1.395 . S
C136 C139 1.403 . S
H137 C143 0.930 . S
C138 H124 0.930 . S
C138 C136 1.395 . S
C138 C141 1.403 . S
C139 C136 1.403 . S
C139 C140 1.524 . S
C139 C143 1.400 . S
C140 H125 0.960 . S
C140 H126 0.960 . S
C140 H127 0.960 . S
C140 C139 1.524 . S
C141 C138 1.403 . S
C141 C142 1.392 . S
C141 C145 1.495 . S
C142 C141 1.392 . S
C142 C143 1.385 . S
C142 C144 1.478 . S
C143 H137 0.930 . S
C143 C139 1.400 . S
C143 C142 1.385 . S
C144 C142 1.478 . S
C144 C146 1.381 . S
C144 C150 1.383 . S
C145 C141 1.495 . S
C145 H151 0.959 . S
C145 H152 0.961 . S
C145 H153 0.960 . S
C146 C144 1.381 . S
C146 C147 1.394 . S
C146 H154 0.930 . S
C147 C146 1.394 . S
C147 C148 1.383 . S
C147 H155 0.929 . S
C148 C147 1.383 . S
C148 C149 1.377 . S
C149 H133 0.930 . S
C149 C148 1.377 . S
C149 C150 1.379 . S
C150 H134 0.931 . S
C150 C144 1.383 . S
C150 C149 1.379 . S
H151 C145 0.959 . S
H152 C145 0.961 . S
H153 C145 0.960 . S
H154 C146 0.930 . S
H155 C147 0.929 . S
H156 C164 0.929 . S
H157 C166 0.930 . S
H158 C168 0.930 . S
H159 C171 0.929 . S
H160 C174 0.930 . S
H161 C176 0.960 . S
H162 C176 0.960 . S
H163 C176 0.960 . S
C164 H156 0.929 . S
C164 C165 1.377 . S
C164 C166 1.384 . S
C165 C164 1.377 . S
C165 C171 1.390 . S
C166 H157 0.930 . S
C166 C164 1.384 . S
C166 C167 1.372 . S
C167 C166 1.372 . S
C167 C168 1.400 . S
C167 C172 1.490 . S
C168 H158 0.930 . S
C168 C167 1.400 . S
C168 C171 1.386 . S
H169 C185 0.930 . S
H170 C186 0.931 . S
C171 H159 0.929 . S
C171 C165 1.390 . S
C171 C168 1.386 . S
C172 C167 1.490 . S
C172 C174 1.395 . S
C172 C175 1.403 . S
H173 C179 0.930 . S
C174 H160 0.930 . S
C174 C172 1.395 . S
C174 C177 1.403 . S
C175 C172 1.403 . S
C175 C176 1.524 . S
C175 C179 1.400 . S
C176 H161 0.960 . S
C176 H162 0.960 . S
C176 H163 0.960 . S
C176 C175 1.524 . S
C177 C174 1.403 . S
C177 C178 1.392 . S
C177 C181 1.495 . S
C178 C177 1.392 . S
C178 C179 1.385 . S
C178 C180 1.478 . S
C179 H173 0.930 . S
C179 C175 1.400 . S
C179 C178 1.385 . S
C180 C178 1.478 . S
C180 C182 1.381 . S
C180 C186 1.383 . S
C181 C177 1.495 . S
C181 H187 0.959 . S
C181 H188 0.961 . S
C181 H189 0.960 . S
C182 C180 1.381 . S
C182 C183 1.394 . S
C182 H190 0.930 . S
C183 C182 1.394 . S
C183 C184 1.383 . S
C183 H191 0.929 . S
C184 C183 1.383 . S
C184 C185 1.377 . S
C185 H169 0.930 . S
C185 C184 1.377 . S
C185 C186 1.379 . S
C186 H170 0.931 . S
C186 C180 1.383 . S
C186 C185 1.379 . S
H187 C181 0.959 . S
H188 C181 0.961 . S
H189 C181 0.960 . S
H190 C182 0.930 . S
H191 C183 0.929 . S
H192 C200 0.929 . S
H193 C202 0.930 . S
H194 C204 0.930 . S
H195 C207 0.929 . S
H196 C210 0.930 . S
H197 C212 0.960 . S
H198 C212 0.960 . S
H199 C212 0.960 . S
C200 H192 0.929 . S
C200 C201 1.377 . S
C200 C202 1.384 . S
C201 C200 1.377 . S
C201 C207 1.390 . S
C202 H193 0.930 . S
C202 C200 1.384 . S
C202 C203 1.372 . S
C203 C202 1.372 . S
C203 C204 1.400 . S
C203 C208 1.490 . S
C204 H194 0.930 . S
C204 C203 1.400 . S
C204 C207 1.386 . S
H205 C221 0.930 . S
H206 C222 0.931 . S
C207 H195 0.929 . S
C207 C201 1.390 . S
C207 C204 1.386 . S
C208 C203 1.490 . S
C208 C210 1.395 . S
C208 C211 1.403 . S
H209 C215 0.930 . S
C210 H196 0.930 . S
C210 C208 1.395 . S
C210 C213 1.403 . S
C211 C208 1.403 . S
C211 C212 1.524 . S
C211 C215 1.400 . S
C212 H197 0.960 . S
C212 H198 0.960 . S
C212 H199 0.960 . S
C212 C211 1.524 . S
C213 C210 1.403 . S
C213 C214 1.392 . S
C213 C217 1.495 . S
C214 C213 1.392 . S
C214 C215 1.385 . S
C214 C216 1.478 . S
C215 H209 0.930 . S
C215 C211 1.400 . S
C215 C214 1.385 . S
C216 C214 1.478 . S
C216 C218 1.381 . S
C216 C222 1.383 . S
C217 C213 1.495 . S
C217 H223 0.959 . S
C217 H224 0.961 . S
C217 H225 0.960 . S
C218 C216 1.381 . S
C218 C219 1.394 . S
C218 H226 0.930 . S
C219 C218 1.394 . S
C219 C220 1.383 . S
C219 H227 0.929 . S
C220 C219 1.383 . S
C220 C221 1.377 . S
C221 H205 0.930 . S
C221 C220 1.377 . S
C221 C222 1.379 . S
C222 H206 0.931 . S
C222 C216 1.383 . S
C222 C221 1.379 . S
H223 C217 0.959 . S
H224 C217 0.961 . S
H225 C217 0.960 . S
H226 C218 0.930 . S
H227 C219 0.929 . S
H228 C236 0.929 . S
H229 C238 0.930 . S
H230 C240 0.930 . S
H231 C243 0.929 . S
H232 C246 0.930 . S
H233 C248 0.960 . S
H234 C248 0.960 . S
H235 C248 0.960 . S
C236 H228 0.929 . S
C236 C237 1.377 . S
C236 C238 1.384 . S
C237 C236 1.377 . S
C237 C243 1.390 . S
C238 H229 0.930 . S
C238 C236 1.384 . S
C238 C239 1.372 . S
C239 C238 1.372 . S
C239 C240 1.400 . S
C239 C244 1.490 . S
C240 H230 0.930 . S
C240 C239 1.400 . S
C240 C243 1.386 . S
H241 C257 0.930 . S
H242 C258 0.931 . S
C243 H231 0.929 . S
C243 C237 1.390 . S
C243 C240 1.386 . S
C244 C239 1.490 . S
C244 C246 1.395 . S
C244 C247 1.403 . S
H245 C251 0.930 . S
C246 H232 0.930 . S
C246 C244 1.395 . S
C246 C249 1.403 . S
C247 C244 1.403 . S
C247 C248 1.524 . S
C247 C251 1.400 . S
C248 H233 0.960 . S
C248 H234 0.960 . S
C248 H235 0.960 . S
C248 C247 1.524 . S
C249 C246 1.403 . S
C249 C250 1.392 . S
C249 C253 1.495 . S
C250 C249 1.392 . S
C250 C251 1.385 . S
C250 C252 1.478 . S
C251 H245 0.930 . S
C251 C247 1.400 . S
C251 C250 1.385 . S
C252 C250 1.478 . S
C252 C254 1.381 . S
C252 C258 1.383 . S
C253 C249 1.495 . S
C253 H259 0.959 . S
C253 H260 0.961 . S
C253 H261 0.960 . S
C254 C252 1.381 . S
C254 C255 1.394 . S
C254 H262 0.930 . S
C255 C254 1.394 . S
C255 C256 1.383 . S
C255 H263 0.929 . S
C256 C255 1.383 . S
C256 C257 1.377 . S
C257 H241 0.930 . S
C257 C256 1.377 . S
C257 C258 1.379 . S
C258 H242 0.931 . S
C258 C252 1.383 . S
C258 C257 1.379 . S
H259 C253 0.959 . S
H260 C253 0.961 . S
H261 C253 0.960 . S
H262 C254 0.930 . S
H263 C255 0.929 . S
H264 C272 0.929 . S
H265 C274 0.930 . S
H266 C276 0.930 . S
H267 C279 0.929 . S
H268 C282 0.930 . S
H269 C284 0.960 . S
H270 C284 0.960 . S
H271 C284 0.960 . S
C272 H264 0.929 . S
C272 C273 1.377 . S
C272 C274 1.384 . S
C273 C272 1.377 . S
C273 C279 1.390 . S
C274 H265 0.930 . S
C274 C272 1.384 . S
C274 C275 1.372 . S
C275 C274 1.372 . S
C275 C276 1.400 . S
C275 C280 1.490 . S
C276 H266 0.930 . S
C276 C275 1.400 . S
C276 C279 1.386 . S
H277 C293 0.930 . S
H278 C294 0.931 . S
C279 H267 0.929 . S
C279 C273 1.390 . S
C279 C276 1.386 . S
C280 C275 1.490 . S
C280 C282 1.395 . S
C280 C283 1.403 . S
H281 C287 0.930 . S
C282 H268 0.930 . S
C282 C280 1.395 . S
C282 C285 1.403 . S
C283 C280 1.403 . S
C283 C284 1.524 . S
C283 C287 1.400 . S
C284 H269 0.960 . S
C284 H270 0.960 . S
C284 H271 0.960 . S
C284 C283 1.524 . S
C285 C282 1.403 . S
C285 C286 1.392 . S
C285 C289 1.495 . S
C286 C285 1.392 . S
C286 C287 1.385 . S
C286 C288 1.478 . S
C287 H281 0.930 . S
C287 C283 1.400 . S
C287 C286 1.385 . S
C288 C286 1.478 . S
C288 C290 1.381 . S
C288 C294 1.383 . S
C289 C285 1.495 . S
C289 H295 0.959 . S
C289 H296 0.961 . S
C289 H297 0.960 . S
C290 C288 1.381 . S
C290 C291 1.394 . S
C290 H298 0.930 . S
C291 C290 1.394 . S
C291 C292 1.383 . S
C291 H299 0.929 . S
C292 C291 1.383 . S
C292 C293 1.377 . S
C293 H277 0.930 . S
C293 C292 1.377 . S
C293 C294 1.379 . S
C294 H278 0.931 . S
C294 C288 1.383 . S
C294 C293 1.379 . S
H295 C289 0.959 . S
H296 C289 0.961 . S
H297 C289 0.960 . S
H298 C290 0.930 . S
H299 C291 0.929 . S
H300 C308 0.929 . S
H301 C310 0.930 . S
H302 C312 0.930 . S
H303 C315 0.929 . S
H304 C318 0.930 . S
H305 C320 0.960 1_554 S
H306 C320 0.960 . S
H307 C320 0.960 . S
C308 H300 0.929 . S
C308 C309 1.377 . S
C308 C310 1.384 . S
C309 C308 1.377 . S
C309 C315 1.390 . S
C310 H301 0.930 . S
C310 C308 1.384 . S
C310 C311 1.372 . S
C311 C310 1.372 . S
C311 C312 1.400 . S
C311 C316 1.490 . S
C312 H302 0.930 . S
C312 C311 1.400 . S
C312 C315 1.386 . S
H313 C329 0.930 . S
H314 C330 0.931 . S
C315 H303 0.929 . S
C315 C309 1.390 . S
C315 C312 1.386 . S
C316 C311 1.490 . S
C316 C318 1.395 1_565 S
C316 C319 1.403 . S
H317 C323 0.930 . S
C318 H304 0.930 . S
C318 C316 1.395 1_545 S
C318 C321 1.393 1_556 S
C319 C316 1.403 . S
C319 C320 1.524 . S
C319 C323 1.400 1_556 S
C320 H305 0.960 1_556 S
C320 H306 0.960 . S
C320 H307 0.960 . S
C320 C319 1.524 . S
C321 C318 1.393 1_554 S
C321 C322 1.401 . S
C321 C325 1.497 . S
C322 C321 1.401 . S
C322 C323 1.385 1_545 S
C322 C324 1.478 . S
C323 H317 0.930 . S
C323 C319 1.400 1_554 S
C323 C322 1.385 1_565 S
C324 C322 1.478 . S
C324 C326 1.381 . S
C324 C330 1.383 . S
C325 C321 1.497 . S
C325 H331 0.959 1_554 S
C325 H332 0.961 . S
C325 H333 0.960 . S
C326 C324 1.381 . S
C326 C327 1.394 . S
C326 H334 0.930 . S
C327 C326 1.394 . S
C327 C328 1.383 . S
C327 H335 0.929 . S
C328 C327 1.383 . S
C328 C329 1.377 . S
C329 H313 0.930 . S
C329 C328 1.377 . S
C329 C330 1.379 . S
C330 H314 0.931 . S
C330 C324 1.383 . S
C330 C329 1.379 . S
H331 C325 0.959 1_556 S
H332 C325 0.961 . S
H333 C325 0.960 . S
H334 C326 0.930 . S
H335 C327 0.929 . S
H336 C344 0.929 . S
H337 C346 0.930 . S
H338 C348 0.930 . S
H339 C351 0.929 . S
H340 C354 0.930 . S
H341 C356 0.960 . S
H342 C356 0.960 . S
H343 C356 0.960 . S
C344 H336 0.929 . S
C344 C345 1.377 . S
C344 C346 1.384 . S
C345 C344 1.377 . S
C345 C351 1.390 . S
C346 H337 0.930 . S
C346 C344 1.384 . S
C346 C347 1.372 . S
C347 C346 1.372 . S
C347 C348 1.400 . S
C347 C352 1.490 . S
C348 H338 0.930 . S
C348 C347 1.400 . S
C348 C351 1.386 . S
H349 C365 0.930 . S
H350 C366 0.931 . S
C351 H339 0.929 . S
C351 C345 1.390 . S
C351 C348 1.386 . S
C352 C347 1.490 . S
C352 C354 1.395 . S
C352 C355 1.403 . S
H353 C359 0.930 . S
C354 H340 0.930 . S
C354 C352 1.395 . S
C354 C357 1.403 . S
C355 C352 1.403 . S
C355 C356 1.524 . S
C355 C359 1.400 . S
C356 H341 0.960 . S
C356 H342 0.960 . S
C356 H343 0.960 . S
C356 C355 1.524 . S
C357 C354 1.403 . S
C357 C358 1.392 . S
C357 C361 1.495 . S
C358 C357 1.392 . S
C358 C359 1.385 . S
C358 C360 1.478 . S
C359 H353 0.930 . S
C359 C355 1.400 . S
C359 C358 1.385 . S
C360 C358 1.478 . S
C360 C362 1.381 . S
C360 C366 1.383 . S
C361 C357 1.495 . S
C361 H367 0.959 . S
C361 H368 0.961 . S
C361 H369 0.960 . S
C362 C360 1.381 . S
C362 C363 1.394 . S
C362 H370 0.930 . S
C363 C362 1.394 . S
C363 C364 1.383 . S
C363 H371 0.929 . S
C364 C363 1.383 . S
C364 C365 1.377 . S
C365 H349 0.930 . S
C365 C364 1.377 . S
C365 C366 1.379 . S
C366 H350 0.931 . S
C366 C360 1.383 . S
C366 C365 1.379 . S
H367 C361 0.959 . S
H368 C361 0.961 . S
H369 C361 0.960 . S
H370 C362 0.930 . S
H371 C363 0.929 . S
H372 C380 0.929 . S
H373 C382 0.930 . S
H374 C384 0.930 . S
H375 C387 0.929 . S
H376 C390 0.930 . S
H377 C392 0.960 . S
H378 C392 0.960 . S
H379 C392 0.960 . S
C380 H372 0.929 . S
C380 C381 1.377 . S
C380 C382 1.384 . S
C381 C380 1.377 . S
C381 C387 1.390 . S
C382 H373 0.930 . S
C382 C380 1.384 . S
C382 C383 1.372 . S
C383 C382 1.372 . S
C383 C384 1.400 . S
C383 C388 1.490 . S
C384 H374 0.930 . S
C384 C383 1.400 . S
C384 C387 1.386 . S
H385 C401 0.930 . S
H386 C402 0.931 . S
C387 H375 0.929 . S
C387 C381 1.390 . S
C387 C384 1.386 . S
C388 C383 1.490 . S
C388 C390 1.395 1_556 S
C388 C391 1.403 1_455 S
H389 C395 0.930 . S
C390 H376 0.930 . S
C390 C388 1.395 1_554 S
C390 C393 1.403 . S
C391 C388 1.403 1_655 S
C391 C392 1.524 . S
C391 C395 1.400 1_556 S
C392 H377 0.960 . S
C392 H378 0.960 . S
C392 H379 0.960 . S
C392 C391 1.524 . S
C393 C390 1.403 . S
C393 C394 1.392 1_455 S
C393 C397 1.495 . S
C394 C393 1.392 1_655 S
C394 C395 1.385 . S
C394 C396 1.478 . S
C395 H389 0.930 . S
C395 C391 1.400 1_554 S
C395 C394 1.385 . S
C396 C394 1.478 . S
C396 C398 1.381 . S
C396 C402 1.383 . S
C397 C393 1.495 . S
C397 H403 0.959 . S
C397 H404 0.961 . S
C397 H405 0.960 . S
C398 C396 1.381 . S
C398 C399 1.394 . S
C398 H406 0.930 . S
C399 C398 1.394 . S
C399 C400 1.383 . S
C399 H407 0.929 . S
C400 C399 1.383 . S
C400 C401 1.377 . S
C401 H385 0.930 . S
C401 C400 1.377 . S
C401 C402 1.379 . S
C402 H386 0.931 . S
C402 C396 1.383 . S
C402 C401 1.379 . S
H403 C397 0.959 . S
H404 C397 0.961 . S
H405 C397 0.960 . S
H406 C398 0.930 . S
H407 C399 0.929 . S
H408 C416 0.929 . S
H409 C418 0.930 . S
H410 C420 0.930 . S
H411 C423 0.929 . S
H412 C426 0.930 . S
H413 C428 0.960 . S
H414 C428 0.960 . S
H415 C428 0.960 . S
C416 H408 0.929 . S
C416 C417 1.377 . S
C416 C418 1.384 . S
C417 C416 1.377 . S
C417 C423 1.390 . S
C418 H409 0.930 . S
C418 C416 1.384 . S
C418 C419 1.372 . S
C419 C418 1.372 . S
C419 C420 1.400 . S
C419 C424 1.490 . S
C420 H410 0.930 . S
C420 C419 1.400 . S
C420 C423 1.386 . S
H421 C437 0.930 . S
H422 C438 0.931 . S
C423 H411 0.929 . S
C423 C417 1.390 . S
C423 C420 1.386 . S
C424 C419 1.490 . S
C424 C426 1.395 . S
C424 C427 1.403 1_545 S
H425 C431 0.930 . S
C426 H412 0.930 . S
C426 C424 1.395 . S
C426 C429 1.403 . S
C427 C424 1.403 1_565 S
C427 C428 1.524 . S
C427 C431 1.400 . S
C428 H413 0.960 . S
C428 H414 0.960 . S
C428 H415 0.960 . S
C428 C427 1.524 . S
C429 C426 1.403 . S
C429 C430 1.392 1_545 S
C429 C433 1.495 . S
C430 C429 1.392 1_565 S
C430 C431 1.385 . S
C430 C432 1.478 . S
C431 H425 0.930 . S
C431 C427 1.400 . S
C431 C430 1.385 . S
C432 C430 1.478 . S
C432 C434 1.381 . S
C432 C438 1.383 . S
C433 C429 1.495 . S
C433 H439 0.959 . S
C433 H440 0.961 . S
C433 H441 0.960 . S
C434 C432 1.381 . S
C434 C435 1.394 . S
C434 H442 0.930 . S
C435 C434 1.394 . S
C435 C436 1.383 . S
C435 H443 0.929 . S
C436 C435 1.383 . S
C436 C437 1.377 . S
C437 H421 0.930 . S
C437 C436 1.377 . S
C437 C438 1.379 . S
C438 H422 0.931 . S
C438 C432 1.383 . S
C438 C437 1.379 . S
H439 C433 0.959 . S
H440 C433 0.961 . S
H441 C433 0.960 . S
H442 C434 0.930 . S
H443 C435 0.929 . S
H444 C452 0.929 . S
H445 C454 0.930 . S
H446 C456 0.930 . S
H447 C459 0.929 . S
H448 C462 0.930 . S
H449 C464 0.960 1_554 S
H450 C464 0.960 . S
H451 C464 0.960 . S
C452 H444 0.929 . S
C452 C453 1.377 . S
C452 C454 1.384 . S
C453 C452 1.377 . S
C453 C459 1.390 . S
C454 H445 0.930 . S
C454 C452 1.384 . S
C454 C455 1.372 . S
C455 C454 1.372 . S
C455 C456 1.400 . S
C455 C460 1.490 . S
C456 H446 0.930 . S
C456 C455 1.400 . S
C456 C459 1.386 . S
H457 C473 0.930 . S
H458 C474 0.931 . S
C459 H447 0.929 . S
C459 C453 1.390 . S
C459 C456 1.386 . S
C460 C455 1.490 . S
C460 C462 1.395 . S
C460 C463 1.403 . S
H461 C467 0.930 . S
C462 H448 0.930 . S
C462 C460 1.395 . S
C462 C465 1.403 . S
C463 C460 1.403 . S
C463 C464 1.524 . S
C463 C467 1.400 1_556 S
C464 H449 0.960 1_556 S
C464 H450 0.960 . S
C464 H451 0.960 . S
C464 C463 1.524 . S
C465 C462 1.403 . S
C465 C466 1.392 1_556 S
C465 C469 1.495 . S
C466 C465 1.392 1_554 S
C466 C467 1.385 . S
C466 C468 1.478 . S
C467 H461 0.930 . S
C467 C463 1.400 1_554 S
C467 C466 1.385 . S
C468 C466 1.478 . S
C468 C470 1.381 . S
C468 C474 1.383 . S
C469 C465 1.495 . S
C469 H475 0.959 . S
C469 H476 0.961 . S
C469 H477 0.960 1_556 S
C470 C468 1.381 . S
C470 C471 1.394 . S
C470 H478 0.930 . S
C471 C470 1.394 . S
C471 C472 1.383 . S
C471 H479 0.929 . S
C472 C471 1.383 . S
C472 C473 1.377 . S
C473 H457 0.930 . S
C473 C472 1.377 . S
C473 C474 1.379 . S
C474 H458 0.931 . S
C474 C468 1.383 . S
C474 C473 1.379 . S
H475 C469 0.959 . S
H476 C469 0.961 . S
H477 C469 0.960 1_554 S
H478 C470 0.930 . S
H479 C471 0.929 . S
H480 C488 0.929 . S
H481 C490 0.879 1_655 S
H482 C492 0.930 . S
H483 C495 0.929 . S
H484 C498 0.930 . S
H485 C500 0.960 . S
H486 C500 0.960 . S
H487 C500 0.960 1_455 S
C488 H480 0.929 . S
C488 C489 1.377 . S
C488 C490 1.384 . S
C489 C488 1.377 . S
C489 C495 1.390 . S
C490 H481 0.879 1_455 S
C490 C488 1.384 . S
C490 C491 1.372 . S
C491 C490 1.372 . S
C491 C492 1.400 . S
C491 C496 1.490 . S
C492 H482 0.930 . S
C492 C491 1.400 . S
C492 C495 1.386 . S
H493 C509 0.930 . S
H494 C510 0.931 1_455 S
C495 H483 0.929 . S
C495 C489 1.390 . S
C495 C492 1.386 . S
C496 C491 1.490 . S
C496 C498 1.395 . S
C496 C499 1.405 1_455 S
H497 C503 0.930 . S
C498 H484 0.930 . S
C498 C496 1.395 . S
C498 C501 1.403 . S
C499 C496 1.405 1_655 S
C499 C500 1.504 . S
C499 C503 1.420 . S
C500 H485 0.960 . S
C500 H486 0.960 . S
C500 H487 0.960 1_655 S
C500 C499 1.504 . S
C501 C498 1.403 . S
C501 C502 1.392 1_455 S
C501 C505 1.495 . S
C502 C501 1.392 1_655 S
C502 C503 1.385 . S
C502 C504 1.478 . S
C503 H497 0.930 . S
C503 C499 1.420 . S
C503 C502 1.385 . S
C504 C502 1.478 . S
C504 C506 1.381 . S
C504 C510 1.383 . S
C505 C501 1.495 . S
C505 H511 0.959 . S
C505 H512 0.961 . S
C505 H513 0.960 1_455 S
C506 C504 1.381 . S
C506 C507 1.394 . S
C506 H514 0.930 . S
C507 C506 1.394 . S
C507 C508 1.383 . S
C507 H515 0.929 . S
C508 C507 1.383 . S
C508 C509 1.377 . S
C509 H493 0.930 . S
C509 C508 1.377 . S
C509 C510 1.379 . S
C510 H494 0.931 1_655 S
C510 C504 1.383 . S
C510 C509 1.379 . S
H511 C505 0.959 . S
H512 C505 0.961 . S
H513 C505 0.960 1_655 S
H514 C506 0.930 . S
H515 C507 0.929 . S
C93 C5 0.805 . S
C112 C60 0.788 . S
C129 C19 0.820 . S
C148 C75 0.781 . S
C165 C4 0.843 . S
C184 C32 0.855 . S
C201 C47 0.800 . S
C220 C18 0.824 . S
C237 C61 0.820 . S
C256 C33 0.764 . S
C273 C46 0.846 . S
C292 C74 0.833 . S
C309 C54 1.382 . S
C328 C11 1.336 . S
C345 C68 1.402 . S
C364 C25 1.379 . S
C381 C81 1.362 . S
C400 C40 1.398 . S
C417 C12 1.383 . S
C436 C53 1.365 . S
C453 C26 1.401 . S
C472 C67 1.352 . S
C489 C82 1.397 . S
C508 C39 1.381 . S
