# Generated by pormake.
# Topology xfh, (7)-cn, num edge types: 1
# Building blocks:
#     Node 0, Type 0, BuildingBlock: NUHQUE_clean_sbu_2, # of connection points: 7
#     Node 1, Type 0, BuildingBlock: NUHQUE_clean_sbu_2, # of connection points: 7
#     Node 2, Type 0, BuildingBlock: NUHQUE_clean_sbu_2, # of connection points: 7
#     Node 3, Type 0, BuildingBlock: NUHQUE_clean_sbu_2, # of connection points: 7
#     Node 4, Type 0, BuildingBlock: NUHQUE_clean_sbu_2, # of connection points: 7
#     Node 5, Type 0, BuildingBlock: NUHQUE_clean_sbu_2, # of connection points: 7
#     Node 6, Type 0, BuildingBlock: NUHQUE_clean_sbu_2, # of connection points: 7
#     Node 7, Type 0, BuildingBlock: NUHQUE_clean_sbu_2, # of connection points: 7
#     Node 8, Type 0, BuildingBlock: NUHQUE_clean_sbu_2, # of connection points: 7
#     Node 9, Type 0, BuildingBlock: NUHQUE_clean_sbu_2, # of connection points: 7
#     Node 10, Type 0, BuildingBlock: NUHQUE_clean_sbu_2, # of connection points: 7
#     Node 11, Type 0, BuildingBlock: NUHQUE_clean_sbu_2, # of connection points: 7
#     Node 12, Type 0, BuildingBlock: NUHQUE_clean_sbu_2, # of connection points: 7
#     Node 13, Type 0, BuildingBlock: NUHQUE_clean_sbu_2, # of connection points: 7
#     Node 14, Type 0, BuildingBlock: NUHQUE_clean_sbu_2, # of connection points: 7
#     Node 15, Type 0, BuildingBlock: NUHQUE_clean_sbu_2, # of connection points: 7
#     Edge 16, Type (0, 0), BuildingBlock: ZUJKAS_clean_linker_0, # of connection points: 2
#     Edge 17, Type (0, 0), BuildingBlock: ZUJKAS_clean_linker_0, # of connection points: 2
#     Edge 18, Type (0, 0), BuildingBlock: ZUJKAS_clean_linker_0, # of connection points: 2
#     Edge 19, Type (0, 0), BuildingBlock: ZUJKAS_clean_linker_0, # of connection points: 2
#     Edge 20, Type (0, 0), BuildingBlock: ZUJKAS_clean_linker_0, # of connection points: 2
#     Edge 21, Type (0, 0), BuildingBlock: ZUJKAS_clean_linker_0, # of connection points: 2
#     Edge 22, Type (0, 0), BuildingBlock: ZUJKAS_clean_linker_0, # of connection points: 2
#     Edge 23, Type (0, 0), BuildingBlock: ZUJKAS_clean_linker_0, # of connection points: 2
#     Edge 24, Type (0, 0), BuildingBlock: ZUJKAS_clean_linker_0, # of connection points: 2
#     Edge 25, Type (0, 0), BuildingBlock: ZUJKAS_clean_linker_0, # of connection points: 2
#     Edge 26, Type (0, 0), BuildingBlock: ZUJKAS_clean_linker_0, # of connection points: 2
#     Edge 27, Type (0, 0), BuildingBlock: ZUJKAS_clean_linker_0, # of connection points: 2
#     Edge 28, Type (0, 0), BuildingBlock: ZUJKAS_clean_linker_0, # of connection points: 2
#     Edge 29, Type (0, 0), BuildingBlock: ZUJKAS_clean_linker_0, # of connection points: 2
#     Edge 30, Type (0, 0), BuildingBlock: ZUJKAS_clean_linker_0, # of connection points: 2
#     Edge 31, Type (0, 0), BuildingBlock: ZUJKAS_clean_linker_0, # of connection points: 2
#     Edge 32, Type (0, 0), BuildingBlock: ZUJKAS_clean_linker_0, # of connection points: 2
#     Edge 33, Type (0, 0), BuildingBlock: ZUJKAS_clean_linker_0, # of connection points: 2
#     Edge 34, Type (0, 0), BuildingBlock: ZUJKAS_clean_linker_0, # of connection points: 2
#     Edge 35, Type (0, 0), BuildingBlock: ZUJKAS_clean_linker_0, # of connection points: 2
#     Edge 36, Type (0, 0), BuildingBlock: ZUJKAS_clean_linker_0, # of connection points: 2
#     Edge 37, Type (0, 0), BuildingBlock: ZUJKAS_clean_linker_0, # of connection points: 2
#     Edge 38, Type (0, 0), BuildingBlock: ZUJKAS_clean_linker_0, # of connection points: 2
#     Edge 39, Type (0, 0), BuildingBlock: ZUJKAS_clean_linker_0, # of connection points: 2
#     Edge 40, Type (0, 0), BuildingBlock: ZUJKAS_clean_linker_0, # of connection points: 2
#     Edge 41, Type (0, 0), BuildingBlock: ZUJKAS_clean_linker_0, # of connection points: 2
#     Edge 42, Type (0, 0), BuildingBlock: ZUJKAS_clean_linker_0, # of connection points: 2
#     Edge 43, Type (0, 0), BuildingBlock: ZUJKAS_clean_linker_0, # of connection points: 2
#     Edge 44, Type (0, 0), BuildingBlock: ZUJKAS_clean_linker_0, # of connection points: 2
#     Edge 45, Type (0, 0), BuildingBlock: ZUJKAS_clean_linker_0, # of connection points: 2
#     Edge 46, Type (0, 0), BuildingBlock: ZUJKAS_clean_linker_0, # of connection points: 2
#     Edge 47, Type (0, 0), BuildingBlock: ZUJKAS_clean_linker_0, # of connection points: 2
#     Edge 48, Type (0, 0), BuildingBlock: ZUJKAS_clean_linker_0, # of connection points: 2
#     Edge 49, Type (0, 0), BuildingBlock: ZUJKAS_clean_linker_0, # of connection points: 2
#     Edge 50, Type (0, 0), BuildingBlock: ZUJKAS_clean_linker_0, # of connection points: 2
#     Edge 51, Type (0, 0), BuildingBlock: ZUJKAS_clean_linker_0, # of connection points: 2
#     Edge 52, Type (0, 0), BuildingBlock: ZUJKAS_clean_linker_0, # of connection points: 2
#     Edge 53, Type (0, 0), BuildingBlock: ZUJKAS_clean_linker_0, # of connection points: 2
#     Edge 54, Type (0, 0), BuildingBlock: ZUJKAS_clean_linker_0, # of connection points: 2
#     Edge 55, Type (0, 0), BuildingBlock: ZUJKAS_clean_linker_0, # of connection points: 2
#     Edge 56, Type (0, 0), BuildingBlock: ZUJKAS_clean_linker_0, # of connection points: 2
#     Edge 57, Type (0, 0), BuildingBlock: ZUJKAS_clean_linker_0, # of connection points: 2
#     Edge 58, Type (0, 0), BuildingBlock: ZUJKAS_clean_linker_0, # of connection points: 2
#     Edge 59, Type (0, 0), BuildingBlock: ZUJKAS_clean_linker_0, # of connection points: 2
#     Edge 60, Type (0, 0), BuildingBlock: ZUJKAS_clean_linker_0, # of connection points: 2
#     Edge 61, Type (0, 0), BuildingBlock: ZUJKAS_clean_linker_0, # of connection points: 2
#     Edge 62, Type (0, 0), BuildingBlock: ZUJKAS_clean_linker_0, # of connection points: 2
#     Edge 63, Type (0, 0), BuildingBlock: ZUJKAS_clean_linker_0, # of connection points: 2
#     Edge 64, Type (0, 0), BuildingBlock: ZUJKAS_clean_linker_0, # of connection points: 2
#     Edge 65, Type (0, 0), BuildingBlock: ZUJKAS_clean_linker_0, # of connection points: 2
#     Edge 66, Type (0, 0), BuildingBlock: ZUJKAS_clean_linker_0, # of connection points: 2
#     Edge 67, Type (0, 0), BuildingBlock: ZUJKAS_clean_linker_0, # of connection points: 2
#     Edge 68, Type (0, 0), BuildingBlock: ZUJKAS_clean_linker_0, # of connection points: 2
#     Edge 69, Type (0, 0), BuildingBlock: ZUJKAS_clean_linker_0, # of connection points: 2
#     Edge 70, Type (0, 0), BuildingBlock: ZUJKAS_clean_linker_0, # of connection points: 2
#     Edge 71, Type (0, 0), BuildingBlock: ZUJKAS_clean_linker_0, # of connection points: 2
# Relax obj value: 0.259
# Max RMSD: 0.281
# Mean RMSD: 0.264
data_MOF--net-xfh--node1-NUHQUE_clean_sbu_2--edge1-ZUJKAS_clean_linker_0
_symmetry_space_group_name_H-M    P1
_symmetry_Int_Tables_number       1
_symmetry_cell_setting            triclinic
loop_
_symmetry_equiv_pos_as_xyz
'x, y, z'
_cell_length_a     43.614636
_cell_length_b     42.598335
_cell_length_c     85.746915
_cell_angle_alpha  90.096405
_cell_angle_beta   89.936218
_cell_angle_gamma 89.895861
loop_
_atom_site_label
_atom_site_type_symbol
_atom_site_fract_x
_atom_site_fract_y
_atom_site_fract_z
_atom_type_partial_charge
O0 O 0.23348 0.0784 0.07428 0.0
Tb1 Tb 0.23057 0.06206 0.09816 0.0
Eu2 Eu 0.31221 0.0703 0.10951 0.0
C3 C 0.25855 0.074 0.06604 0.0
O4 O 0.28292 0.06229 0.07289 0.0
C5 C 0.26183 0.12398 0.10856 0.0
O6 O 0.31582 0.07353 0.13561 0.0
C7 C 0.36606 0.06816 0.09665 0.0
C8 C 0.29121 0.06816 0.14405 0.0
O9 O 0.26506 0.06304 0.1369 0.0
C10 C 0.27504 1.00528 0.1043 0.0
C11 C 0.39531 0.05065 0.09531 0.0
C12 C 0.40739 0.04484 0.08031 0.0
C13 C 0.43717 0.03269 0.07849 0.0
C14 C 0.45432 0.02544 0.09179 0.0
C15 C 0.44287 0.03123 0.10675 0.0
C16 C 0.41322 0.04357 0.10857 0.0
O17 O 0.24047 0.10353 0.11209 0.0
O18 O 0.28789 0.11483 0.10238 0.0
O19 O 0.18178 0.05941 0.09247 0.0
O20 O 0.19716 0.04099 0.11412 0.0
C21 C 0.17329 0.04564 0.1053 0.0
O22 O 0.29385 0.02134 0.11322 0.0
O23 O 0.25625 0.01885 0.09443 0.0
O24 O 0.36035 0.08258 0.10993 0.0
O25 O 0.34148 0.05627 0.08997 0.0
H26 H 0.3943 0.0514 0.07007 0.0
H27 H 0.47734 0.01604 0.09052 0.0
H28 H 0.40481 0.04888 0.12018 0.0
O29 O 0.72965 0.65247 0.37647 0.0
Tb30 Tb 0.73406 0.60138 0.37693 0.0
Eu31 Eu 0.74228 0.53278 0.35627 0.0
C32 C 0.74785 0.67063 0.36819 0.0
O33 O 0.76792 0.65769 0.35872 0.0
C34 C 0.79642 0.56993 0.37006 0.0
O35 O 0.74428 0.47949 0.35592 0.0
C36 C 0.74896 0.56018 0.32931 0.0
C37 C 0.73589 0.4642 0.36859 0.0
O38 O 0.72619 0.48061 0.38062 0.0
C39 C 0.67747 0.56087 0.36665 0.0
C40 C 0.73516 0.56887 0.31411 0.0
C41 C 0.74163 0.59867 0.30763 0.0
C42 C 0.73197 0.60628 0.2924 0.0
C43 C 0.71448 0.58421 0.28412 0.0
C44 C 0.70873 0.55419 0.29011 0.0
C45 C 0.71901 0.54661 0.30516 0.0
O46 O 0.78031 0.59556 0.36738 0.0
O47 O 0.78241 0.54293 0.37156 0.0
O48 O 0.7343 0.61404 0.40157 0.0
O49 O 0.73508 0.56572 0.39548 0.0
C50 C 0.73508 0.58566 0.40704 0.0
O51 O 0.69464 0.53553 0.36588 0.0
O52 O 0.68957 0.58932 0.36657 0.0
O53 O 0.75513 0.53035 0.33182 0.0
O54 O 0.73962 0.57516 0.34188 0.0
H55 H 0.75558 0.61517 0.31412 0.0
H56 H 0.70685 0.58972 0.27241 0.0
H57 H 0.71526 0.52316 0.30965 0.0
O58 O 0.27005 0.941 0.58047 0.0
Tb59 Tb 0.27697 0.94134 0.60557 0.0
Eu60 Eu 0.20023 0.9343 0.59751 0.0
C61 C 0.2818 0.91863 0.5717 0.0
O62 O 0.29699 0.89563 0.57837 0.0
C63 C 0.24506 0.87645 0.60375 0.0
O64 O 0.20208 0.94213 0.62347 0.0
C65 C 0.1437 0.93118 0.58779 0.0
C66 C 0.19514 0.91979 0.63342 0.0
O67 O 0.18718 0.89202 0.62813 0.0
C68 C 0.23469 0.99803 0.60214 0.0
C69 C 0.1156 0.95051 0.58533 0.0
C70 C 0.10658 0.95866 0.57004 0.0
C71 C 0.07922 0.9754 0.5674 0.0
C72 C 0.06088 0.98382 0.58016 0.0
C73 C 0.06876 0.97518 0.59539 0.0
C74 C 0.09613 0.95845 0.59795 0.0
O75 O 0.26215 0.89482 0.61252 0.0
O76 O 0.22518 0.88823 0.59374 0.0
O77 O 0.32521 0.94899 0.59927 0.0
O78 O 0.31323 0.9463 0.62317 0.0
C79 C 0.3358 0.95031 0.61344 0.0
O80 O 0.21879 0.98233 0.5917 0.0
O81 O 0.25165 0.98296 0.61234 0.0
O82 O 0.15201 0.92538 0.60224 0.0
O83 O 0.16717 0.93584 0.57841 0.0
H84 H 0.12057 0.95163 0.56018 0.0
H85 H 0.03915 0.99553 0.57811 0.0
H86 H 0.10191 0.95132 0.60971 0.0
O87 O 0.80912 0.52743 0.81397 0.0
Tb88 Tb 0.80736 0.5238 0.8392 0.0
Eu89 Eu 0.8096 0.46449 0.86612 0.0
C90 C 0.8168 0.50357 0.80504 0.0
O91 O 0.82379 0.47654 0.8115 0.0
C92 C 0.86839 0.50273 0.85528 0.0
O93 O 0.80189 0.44655 0.89051 0.0
C94 C 0.81059 0.41793 0.84643 0.0
C95 C 0.80983 0.46453 0.9023 0.0
O96 O 0.82257 0.49181 0.89935 0.0
C97 C 0.74854 0.49656 0.85459 0.0
C98 C 0.7916 0.39024 0.84233 0.0
C99 C 0.78673 0.38225 0.82652 0.0
C100 C 0.76983 0.35521 0.82255 0.0
C101 C 0.75808 0.33632 0.8345 0.0
C102 C 0.76358 0.34325 0.85021 0.0
C103 C 0.7801 0.37037 0.8541 0.0
O104 O 0.85477 0.50731 0.84174 0.0
O105 O 0.85273 0.49316 0.86746 0.0
O106 O 0.80029 0.57408 0.83621 0.0
O107 O 0.80729 0.55644 0.85911 0.0
C108 C 0.80224 0.58163 0.85086 0.0
O109 O 0.76411 0.48913 0.86714 0.0
O110 O 0.76274 0.50066 0.84118 0.0
O111 O 0.82411 0.41729 0.86014 0.0
O112 O 0.79971 0.44582 0.84282 0.0
H113 H 0.79641 0.39674 0.81738 0.0
H114 H 0.74644 0.31463 0.83151 0.0
H115 H 0.78457 0.37547 0.86627 0.0
O116 O 0.7915 0.97082 0.91942 0.0
Tb117 Tb 0.80285 0.97366 0.89482 0.0
Eu118 Eu 0.72316 0.96361 0.89918 0.0
C119 C 0.80194 0.94711 0.92768 0.0
O120 O 0.81883 0.92567 0.92073 0.0
C121 C 0.77275 0.90739 0.89311 0.0
O122 O 0.71454 0.97231 0.87355 0.0
C123 C 0.67025 0.95773 0.91285 0.0
C124 C 0.73634 0.97126 0.86296 0.0
O125 O 0.76455 0.96515 0.86723 0.0
C126 C 0.75727 0.02873 0.89556 0.0
C127 C 0.64241 0.97626 0.91663 0.0
C128 C 0.63106 0.97594 0.93203 0.0
C129 C 0.60328 0.99098 0.93569 0.0
C130 C 0.58758 1.00734 0.92405 0.0
C131 C 0.59841 1.00803 0.90869 0.0
C132 C 0.62574 0.99221 0.90493 0.0
O133 O 0.79312 0.92639 0.88688 0.0
O134 O 0.74928 0.91766 0.90143 0.0
O135 O 0.8499 0.98291 0.90271 0.0
O136 O 0.84021 0.98324 0.87848 0.0
C137 C 0.86153 0.98712 0.88888 0.0
O138 O 0.73942 0.01264 0.90494 0.0
O139 O 0.77768 0.01441 0.88685 0.0
O140 O 0.67506 0.95088 0.89811 0.0
O141 O 0.69552 0.96464 0.92046 0.0
H142 H 0.64313 0.96296 0.941 0.0
H143 H 0.56598 0.01873 0.92687 0.0
H144 H 0.63364 0.99204 0.89294 0.0
O145 O 0.29693 0.49767 0.67959 0.0
Tb146 Tb 0.29062 0.49405 0.6547 0.0
Eu147 Eu 0.29264 0.43831 0.62708 0.0
C148 C 0.30951 0.47469 0.68754 0.0
O149 O 0.31746 0.44871 0.6803 0.0
C150 C 0.34985 0.47794 0.6368 0.0
O151 O 0.28561 0.42455 0.60201 0.0
C152 C 0.30106 0.39033 0.64533 0.0
C153 C 0.27641 0.44664 0.59239 0.0
O154 O 0.27084 0.47477 0.59805 0.0
C155 C 0.23136 0.46309 0.64232 0.0
C156 C 0.28492 0.36157 0.65065 0.0
C157 C 0.28271 0.35464 0.66673 0.0
C158 C 0.26922 0.32634 0.67178 0.0
C159 C 0.2588 0.30489 0.66054 0.0
C160 C 0.26082 0.31122 0.64453 0.0
C161 C 0.27358 0.33981 0.63968 0.0
O162 O 0.33765 0.47858 0.6508 0.0
O163 O 0.33299 0.47046 0.62474 0.0
O164 O 0.28355 0.54436 0.65766 0.0
O165 O 0.28512 0.52566 0.63465 0.0
C166 C 0.28183 0.55121 0.64292 0.0
O167 O 0.24491 0.45747 0.62893 0.0
O168 O 0.24757 0.4682 0.65499 0.0
O169 O 0.30971 0.39108 0.63063 0.0
O170 O 0.29083 0.41755 0.65043 0.0
H171 H 0.29162 0.37109 0.67524 0.0
H172 H 0.25037 0.28222 0.66433 0.0
H173 H 0.2752 0.34478 0.62732 0.0
O174 O 0.7354 0.07 0.43032 0.0
Tb175 Tb 0.73915 0.06609 0.40521 0.0
Eu176 Eu 0.80761 0.06691 0.38307 0.0
C177 C 0.75829 0.08021 0.43888 0.0
O178 O 0.78435 0.08755 0.43212 0.0
C179 C 0.76629 0.12808 0.38992 0.0
O180 O 0.82462 0.05577 0.35912 0.0
C181 C 0.8545 0.06834 0.40174 0.0
C182 C 0.80443 0.05645 0.34782 0.0
O183 O 0.77615 0.06495 0.35107 0.0
C184 C 0.77153 1.0051 0.3929 0.0
C185 C 0.88226 0.04964 0.40579 0.0
C186 C 0.88755 0.04109 0.42146 0.0
C187 C 0.9145 0.02497 0.42568 0.0
C188 C 0.93616 0.01766 0.41416 0.0
C189 C 0.932 0.02672 0.39862 0.0
C190 C 0.90492 0.04264 0.39445 0.0
O191 O 0.75489 0.11473 0.40252 0.0
O192 O 0.78168 0.11197 0.37944 0.0
O193 O 0.68978 0.0614 0.40857 0.0
O194 O 0.7072 0.0611 0.38544 0.0
C195 C 0.68239 0.05917 0.39393 0.0
O196 O 0.78419 0.02022 0.38127 0.0
O197 O 0.76176 0.02011 0.4054 0.0
O198 O 0.85417 0.08143 0.38785 0.0
O199 O 0.82744 0.05761 0.40611 0.0
H200 H 0.87101 0.0474 0.43038 0.0
H201 H 0.95755 1.00658 0.41756 0.0
H202 H 0.90187 0.04996 0.38246 0.0
O203 O 0.20676 0.50141 0.19261 0.0
Tb204 Tb 0.20745 0.50382 0.16735 0.0
Eu205 Eu 0.20304 0.56655 0.14126 0.0
C206 C 0.19925 0.5259 0.20115 0.0
O207 O 0.19136 0.55218 0.19422 0.0
C208 C 0.14548 0.52462 0.1516 0.0
O209 O 0.20847 0.58128 0.11618 0.0
C210 C 0.20029 0.6144 0.16017 0.0
C211 C 0.21272 0.55872 0.10591 0.0
O212 O 0.21381 0.5296 0.11092 0.0
C213 C 0.26478 0.53482 0.1524 0.0
C214 C 0.2171 0.64314 0.16515 0.0
C215 C 0.22402 0.64797 0.1811 0.0
C216 C 0.23765 0.67624 0.18609 0.0
C217 C 0.2436 0.69974 0.17514 0.0
C218 C 0.23549 0.69616 0.15946 0.0
C219 C 0.22308 0.66751 0.15439 0.0
O220 O 0.15925 0.51752 0.16483 0.0
O221 O 0.16037 0.53728 0.13988 0.0
O222 O 0.21611 0.45379 0.17051 0.0
O223 O 0.21072 0.4713 0.14746 0.0
C224 C 0.21589 0.44625 0.15581 0.0
O225 O 0.24929 0.54365 0.14007 0.0
O226 O 0.25067 0.52954 0.16571 0.0
O227 O 0.1887 0.61431 0.146 0.0
O228 O 0.21113 0.58683 0.16443 0.0
H229 H 0.21836 0.63009 0.18961 0.0
H230 H 0.2533 0.72184 0.17904 0.0
H231 H 0.21662 0.66495 0.14226 0.0
O232 O 0.74042 0.56262 0.58212 0.0
Tb233 Tb 0.72773 0.55929 0.60662 0.0
Eu234 Eu 0.80688 0.56725 0.60455 0.0
C235 C 0.73717 0.53817 0.57287 0.0
O236 O 0.72762 0.51153 0.57884 0.0
C237 C 0.75881 0.62483 0.60931 0.0
O238 O 0.8133 0.55722 0.63028 0.0
C239 C 0.86084 0.57111 0.59189 0.0
C240 C 0.7909 0.55917 0.64052 0.0
O241 O 0.76354 0.56776 0.63588 0.0
C242 C 0.77136 0.50285 0.60809 0.0
C243 C 0.88826 0.5512 0.58928 0.0
C244 C 0.89825 0.54531 0.57392 0.0
C245 C 0.92478 0.5274 0.57113 0.0
C246 C 0.9413 0.51554 0.58381 0.0
C247 C 0.93231 0.52187 0.59919 0.0
C248 C 0.90566 0.53961 0.6019 0.0
O249 O 0.73789 0.60601 0.61509 0.0
O250 O 0.78249 0.61403 0.60135 0.0
O251 O 0.68168 0.54934 0.59765 0.0
O252 O 0.6877 0.55682 0.62192 0.0
C253 C 0.66784 0.55053 0.61109 0.0
O254 O 0.79023 0.51822 0.59892 0.0
O255 O 0.75005 0.51792 0.61587 0.0
O256 O 0.85496 0.5797 0.60632 0.0
O257 O 0.83604 0.56405 0.5839 0.0
H258 H 0.88563 0.55499 0.56415 0.0
H259 H 0.96263 0.50311 0.58168 0.0
H260 H 0.89891 0.54475 0.6138 0.0
O261 O 0.23635 0.15084 0.86589 0.0
Tb262 Tb 0.23558 0.0999 0.86878 0.0
Eu263 Eu 0.24336 0.02833 0.85086 0.0
C264 C 0.25974 0.16693 0.87144 0.0
O265 O 0.28297 0.15144 0.87744 0.0
C266 C 0.29766 0.06578 0.8643 0.0
O267 O 0.24521 0.97503 0.85138 0.0
C268 C 0.25141 0.05403 0.82362 0.0
C269 C 0.23795 0.96063 0.86449 0.0
O270 O 0.2294 0.97787 0.87645 0.0
C271 C 0.1789 0.05827 0.85996 0.0
C272 C 0.2387 0.06253 0.80817 0.0
C273 C 0.2448 0.09263 0.80201 0.0
C274 C 0.23668 0.10015 0.78655 0.0
C275 C 0.22129 0.0775 0.7776 0.0
C276 C 0.21568 0.04722 0.78335 0.0
C277 C 0.22424 0.03992 0.79872 0.0
O278 O 0.28256 0.09154 0.86055 0.0
O279 O 0.28277 0.03943 0.86638 0.0
O280 O 0.2287 0.11654 0.89254 0.0
O281 O 0.23969 0.06847 0.88897 0.0
C282 C 0.23386 0.08994 0.89941 0.0
O283 O 0.19576 0.03271 0.86025 0.0
O284 O 0.19139 0.08638 0.85847 0.0
O285 O 0.25671 0.02418 0.82654 0.0
O286 O 0.24206 0.06992 0.8359 0.0
H287 H 0.25734 0.10953 0.80897 0.0
H288 H 0.21506 0.08296 0.76568 0.0
H289 H 0.2205 0.01639 0.80311 0.0
O290 O 0.78013 0.41925 0.07422 0.0
Tb291 Tb 0.77786 0.43372 0.09851 0.0
Eu292 Eu 0.69131 0.42978 0.10398 0.0
C293 C 0.75588 0.42088 0.06516 0.0
O294 O 0.72945 0.42928 0.07123 0.0
C295 C 0.74002 0.37488 0.10587 0.0
O296 O 0.68465 0.42759 0.13004 0.0
C297 C 0.6387 0.43197 0.08969 0.0
C298 C 0.70782 0.43431 0.13925 0.0
O299 O 0.7345 0.4409 0.13295 0.0
C300 C 0.73342 0.49308 0.09981 0.0
C301 C 0.61005 0.45027 0.0871 0.0
C302 C 0.60223 0.45936 0.07177 0.0
C303 C 0.5738 0.47371 0.06862 0.0
C304 C 0.55307 0.47838 0.08088 0.0
C305 C 0.55985 0.46869 0.09608 0.0
C306 C 0.58863 0.45523 0.09927 0.0
O307 O 0.75922 0.39505 0.11204 0.0
O308 O 0.71632 0.38489 0.09785 0.0
O309 O 0.82768 0.42697 0.09796 0.0
O310 O 0.80874 0.45872 0.11448 0.0
C311 C 0.8341 0.44641 0.10922 0.0
O312 O 0.71029 0.47882 0.1067 0.0
O313 O 0.75596 0.47816 0.09272 0.0
O314 O 0.64273 0.41887 0.10342 0.0
O315 O 0.66434 0.44225 0.08337 0.0
H316 H 0.61796 0.4547 0.06224 0.0
H317 H 0.5307 0.48842 0.07845 0.0
H318 H 0.59358 0.44729 0.111 0.0
O319 O 0.30865 0.02422 0.31814 0.0
Tb320 Tb 0.30325 0.01919 0.34312 0.0
Eu321 Eu 0.30653 0.9621 0.37063 0.0
C322 C 0.29881 1.00294 0.30825 0.0
O323 O 0.28598 0.9772 0.31357 0.0
C324 C 0.36433 1.00044 0.3593 0.0
O325 O 0.30056 0.94651 0.39557 0.0
C326 C 0.30939 0.91437 0.35166 0.0
C327 C 0.29239 0.9677 0.40596 0.0
O328 O 0.28781 0.9967 0.40128 0.0
C329 C 0.24459 0.99065 0.358 0.0
C330 C 0.29056 0.88663 0.34736 0.0
C331 C 0.28645 0.87833 0.33151 0.0
C332 C 0.26948 0.85134 0.32744 0.0
C333 C 0.25699 0.83281 0.33934 0.0
C334 C 0.26174 0.84006 0.35507 0.0
C335 C 0.27827 0.8671 0.35905 0.0
O336 O 0.35062 1.00275 0.34567 0.0
O337 O 0.34866 0.99232 0.37171 0.0
O338 O 0.29248 0.06873 0.34017 0.0
O339 O 0.30482 0.0525 0.36275 0.0
C340 C 0.29671 0.07697 0.35459 0.0
O341 O 0.25984 0.98432 0.3708 0.0
O342 O 0.25921 0.99485 0.34472 0.0
O343 O 0.32127 0.91443 0.36576 0.0
O344 O 0.29929 0.94214 0.34734 0.0
H345 H 0.29665 0.89258 0.32243 0.0
H346 H 0.24525 0.81119 0.33634 0.0
H347 H 0.28208 0.8724 0.37126 0.0
O348 O 0.28951 0.46614 0.41829 0.0
Tb349 Tb 0.30008 0.47107 0.39366 0.0
Eu350 Eu 0.22402 0.46226 0.4001 0.0
C351 C 0.30064 0.44218 0.42612 0.0
O352 O 0.31795 0.42162 0.41879 0.0
C353 C 0.26974 0.4056 0.39232 0.0
O354 O 0.22487 0.47037 0.37416 0.0
C355 C 0.16807 0.45804 0.41029 0.0
C356 C 0.21054 0.49464 0.3681 0.0
O357 O 0.19603 0.51423 0.3774 0.0
C358 C 0.25685 0.5271 0.39741 0.0
C359 C 0.14195 0.47906 0.41422 0.0
C360 C 0.13338 0.4832 0.42996 0.0
C361 C 0.10839 0.50248 0.43396 0.0
C362 C 0.09203 0.51762 0.42211 0.0
C363 C 0.09942 0.51297 0.40641 0.0
C364 C 0.12433 0.49361 0.40243 0.0
O365 O 0.28771 0.42513 0.38471 0.0
O366 O 0.24884 0.41583 0.40225 0.0
O367 O 0.3473 0.4778 0.4018 0.0
O368 O 0.33778 0.48174 0.37764 0.0
C369 C 0.35914 0.48358 0.38817 0.0
O370 O 0.24083 0.51016 0.40724 0.0
O371 O 0.27529 0.51327 0.38742 0.0
O372 O 0.1755 0.45521 0.3955 0.0
O373 O 0.19206 0.45904 0.41958 0.0
H374 H 0.14592 0.47117 0.43909 0.0
H375 H 0.07193 0.53146 0.42506 0.0
H376 H 0.12958 0.48968 0.39023 0.0
O377 O 0.80513 0.99589 0.18131 0.0
Tb378 Tb 0.79862 0.99247 0.15646 0.0
Eu379 Eu 0.79818 0.93741 0.1288 0.0
C380 C 0.81789 0.97302 0.18926 0.0
O381 O 0.82606 0.94707 0.18205 0.0
C382 C 0.85716 0.97491 0.13823 0.0
O383 O 0.79011 0.92595 0.10351 0.0
C384 C 0.80616 0.88797 0.14621 0.0
C385 C 0.78033 0.9489 0.09455 0.0
O386 O 0.77481 0.97638 0.10097 0.0
C387 C 0.73814 0.96266 0.14504 0.0
C388 C 0.78982 0.85946 0.15186 0.0
C389 C 0.78619 0.8539 0.16804 0.0
C390 C 0.77245 0.82591 0.17341 0.0
C391 C 0.76299 0.8035 0.16242 0.0
C392 C 0.76684 0.80826 0.14639 0.0
C393 C 0.78007 0.83633 0.14116 0.0
O394 O 0.84528 0.97603 0.15229 0.0
O395 O 0.83974 0.96806 0.12627 0.0
O396 O 0.79333 0.04289 0.15989 0.0
O397 O 0.79168 0.02482 0.13678 0.0
C398 C 0.79004 0.05023 0.14528 0.0
O399 O 0.7508 0.95736 0.1314 0.0
O400 O 0.75526 0.96718 0.15744 0.0
O401 O 0.81299 0.88909 0.13126 0.0
O402 O 0.79782 0.9154 0.15192 0.0
H403 H 0.79427 0.87112 0.17639 0.0
H404 H 0.75404 0.78118 0.16642 0.0
H405 H 0.78322 0.83976 0.12875 0.0
O406 O 0.23973 0.56454 0.93133 0.0
Tb407 Tb 0.24156 0.56468 0.906 0.0
Eu408 Eu 0.30891 0.56455 0.88234 0.0
C409 C 0.23094 0.58953 0.93921 0.0
O410 O 0.22317 0.61504 0.93158 0.0
C411 C 0.26862 0.62553 0.88997 0.0
O412 O 0.32347 0.55278 0.858 0.0
C413 C 0.3574 0.56763 0.89991 0.0
C414 C 0.30169 0.55025 0.84754 0.0
O415 O 0.27326 0.55604 0.85177 0.0
C416 C 0.27271 0.50274 0.89312 0.0
C417 C 0.38581 0.54984 0.90392 0.0
C418 C 0.3914 0.54123 0.91957 0.0
C419 C 0.41894 0.52614 0.92376 0.0
C420 C 0.4409 0.5199 0.91223 0.0
C421 C 0.43642 0.52902 0.89672 0.0
C422 C 0.4088 0.54397 0.89259 0.0
O423 O 0.25967 0.61247 0.90315 0.0
O424 O 0.28182 0.60894 0.87894 0.0
O425 O 0.19167 0.56558 0.90869 0.0
O426 O 0.21031 0.55763 0.88614 0.0
C427 C 0.18495 0.5602 0.89414 0.0
O428 O 0.28596 0.51756 0.88155 0.0
O429 O 0.26244 0.51775 0.90556 0.0
O430 O 0.35583 0.57947 0.88576 0.0
O431 O 0.33081 0.55701 0.90505 0.0
H432 H 0.37458 0.54668 0.92849 0.0
H433 H 0.46268 0.50958 0.91557 0.0
H434 H 0.40555 0.55137 0.88062 0.0
O435 O 0.71353 1.00717 0.68949 0.0
Tb436 Tb 0.71152 1.00665 0.66422 0.0
Eu437 Eu 0.70958 0.06677 0.6374 0.0
C438 C 0.68961 0.99974 0.69805 0.0
O439 O 0.66381 0.99201 0.69116 0.0
C440 C 0.65143 0.0269 0.64731 0.0
O441 O 0.71852 0.08554 0.61334 0.0
C442 C 0.70766 0.11287 0.65732 0.0
C443 C 0.69728 0.0832 0.60255 0.0
O444 O 0.67035 0.07177 0.60636 0.0
C445 C 0.77037 0.03318 0.64855 0.0
C446 C 0.72584 0.14115 0.66142 0.0
C447 C 0.7304 0.14927 0.67723 0.0
C448 C 0.74678 0.17662 0.68124 0.0
C449 C 0.75832 0.19572 0.66933 0.0
C450 C 0.75315 0.18867 0.6536 0.0
C451 C 0.73705 0.16128 0.64966 0.0
O452 O 0.66441 0.02351 0.66107 0.0
O453 O 0.66745 0.03679 0.63534 0.0
O454 O 0.71318 0.95587 0.6676 0.0
O455 O 0.71714 0.97402 0.64459 0.0
C456 C 0.71679 0.94851 0.65297 0.0
O457 O 0.75484 0.0419 0.63621 0.0
O458 O 0.75646 0.02895 0.66202 0.0
O459 O 0.69369 0.11332 0.64373 0.0
O460 O 0.71955 0.08527 0.66072 0.0
H461 H 0.72098 0.13457 0.68636 0.0
H462 H 0.76973 0.21752 0.67234 0.0
H463 H 0.73287 0.15604 0.63747 0.0
H464 H 0.23828 0.39642 0.17181 0.0
H465 H 0.24677 0.34297 0.16241 0.0
H466 H 0.21217 0.36933 0.11714 0.0
H467 H 0.20501 0.42344 0.12639 0.0
H468 H 0.20859 0.30084 0.15302 0.0
H469 H 0.2882 0.32461 0.10411 0.0
H470 H 0.27772 0.35432 0.11814 0.0
H471 H 0.2525 0.34516 0.10216 0.0
C472 C 0.23275 0.39089 0.1598 0.0
C473 C 0.22112 0.4141 0.1498 0.0
C474 C 0.23756 0.36028 0.15444 0.0
C475 C 0.23056 0.352 0.13898 0.0
C476 C 0.2186 0.37517 0.12898 0.0
H477 H 0.20731 0.15418 0.11347 0.0
H478 H 0.19907 0.20943 0.11999 0.0
C479 C 0.21427 0.40605 0.1343 0.0
C480 C 0.23477 0.31884 0.13369 0.0
H481 H 0.26853 0.27269 0.10586 0.0
C482 C 0.22181 0.29474 0.14272 0.0
C483 C 0.25236 0.31066 0.12038 0.0
C484 C 0.26876 0.33502 0.11073 0.0
C485 C 0.22593 0.26292 0.13889 0.0
C486 C 0.2425 0.25477 0.12524 0.0
C487 C 0.25552 0.27883 0.11621 0.0
C488 C 0.2473 0.22144 0.12039 0.0
C489 C 0.2133 0.23845 0.14987 0.0
C490 C 0.27705 0.20991 0.11765 0.0
C491 C 0.28177 0.17842 0.11353 0.0
C492 C 0.25684 0.1577 0.1122 0.0
C493 C 0.22704 0.1694 0.11463 0.0
C494 C 0.22231 0.201 0.11848 0.0
H495 H 0.2101 0.24804 0.16182 0.0
H496 H 0.19055 0.23062 0.14561 0.0
H497 H 0.22867 0.2177 0.15058 0.0
H498 H 0.29673 0.22516 0.11896 0.0
H499 H 0.30501 0.17017 0.11173 0.0
H500 H 0.40679 0.48428 0.40879 0.0
H501 H 0.45954 0.50149 0.404 0.0
H502 H 0.43621 0.52294 0.3563 0.0
H503 H 0.38375 0.50475 0.36093 0.0
H504 H 0.489 0.49337 0.35734 0.0
H505 H 0.49233 0.58904 0.40095 0.0
H506 H 0.48254 0.55218 0.40968 0.0
H507 H 0.45717 0.56961 0.39555 0.0
C508 C 0.41297 0.49266 0.39729 0.0
C509 C 0.3912 0.49322 0.38524 0.0
C510 C 0.44304 0.50283 0.3946 0.0
C511 C 0.45178 0.51428 0.37988 0.0
C512 C 0.43004 0.51447 0.36779 0.0
H513 H 0.63141 0.60551 0.36522 0.0
H514 H 0.57583 0.59656 0.3672 0.0
C515 C 0.40008 0.50401 0.37043 0.0
C516 C 0.48385 0.52478 0.37689 0.0
H517 H 0.54095 0.57216 0.39073 0.0
C518 C 0.5002 0.51084 0.36456 0.0
C519 C 0.49844 0.5481 0.38606 0.0
C520 C 0.4816 0.56584 0.39868 0.0
C521 C 0.53093 0.5186 0.36155 0.0
C522 C 0.54614 0.54029 0.37139 0.0
C523 C 0.52947 0.55524 0.38331 0.0
C524 C 0.57968 0.54622 0.37006 0.0
C525 C 0.54674 0.50344 0.34779 0.0
C526 C 0.60032 0.52109 0.37129 0.0
C527 C 0.63183 0.52606 0.37005 0.0
C528 C 0.6437 0.55644 0.36777 0.0
C529 C 0.62307 0.58182 0.36687 0.0
C530 C 0.59132 0.57673 0.36802 0.0
H531 H 0.52999 0.49651 0.33867 0.0
H532 H 0.56392 0.51942 0.3425 0.0
H533 H 0.55867 0.48184 0.35173 0.0
H534 H 0.59207 0.49749 0.37335 0.0
H535 H 0.64689 0.50592 0.37105 0.0
H536 H 0.21071 0.83008 0.58987 0.0
H537 H 0.21536 0.77318 0.59355 0.0
H538 H 0.29087 0.78772 0.62512 0.0
H539 H 0.28662 0.84436 0.62148 0.0
H540 H 0.30077 0.73908 0.60273 0.0
H541 H 0.18951 0.72671 0.63393 0.0
H542 H 0.18813 0.74567 0.61522 0.0
H543 H 0.20782 0.76425 0.63112 0.0
C544 C 0.22837 0.82118 0.59756 0.0
C545 C 0.24817 0.84188 0.60545 0.0
C546 C 0.23091 0.78865 0.5997 0.0
C547 C 0.25326 0.77624 0.60974 0.0
C548 C 0.27343 0.79679 0.61734 0.0
H549 H 0.27297 0.60442 0.65973 0.0
H550 H 0.26531 0.65779 0.65008 0.0
C551 C 0.27087 0.82922 0.61527 0.0
C552 C 0.25552 0.74194 0.61266 0.0
H553 H 0.21857 0.6807 0.63016 0.0
C554 C 0.2827 0.72619 0.60859 0.0
C555 C 0.23201 0.72529 0.62044 0.0
C556 C 0.20277 0.74126 0.62557 0.0
C557 C 0.2872 0.69436 0.61229 0.0
C558 C 0.26377 0.67779 0.62017 0.0
C559 C 0.2364 0.69341 0.62402 0.0
C560 C 0.26816 0.64503 0.62569 0.0
C561 C 0.31743 0.67904 0.60832 0.0
C562 C 0.27209 0.61998 0.61517 0.0
C563 C 0.27647 0.5893 0.62068 0.0
C564 C 0.27695 0.58327 0.63679 0.0
C565 C 0.27277 0.60835 0.64725 0.0
C566 C 0.26832 0.63886 0.64175 0.0
H567 H 0.33503 0.69648 0.6048 0.0
H568 H 0.32625 0.66547 0.61841 0.0
H569 H 0.31408 0.66244 0.59848 0.0
H570 H 0.27163 0.62415 0.60272 0.0
H571 H 0.27953 0.57037 0.61238 0.0
H572 H 0.13134 0.56971 0.90974 0.0
H573 H 0.07901 0.56077 0.90043 0.0
H574 H 0.11435 0.53215 0.85563 0.0
H575 H 0.16698 0.5412 0.86491 0.0
H576 H 0.04759 0.58762 0.87361 0.0
H577 H 0.05892 0.45762 0.87037 0.0
H578 H 0.08521 0.4817 0.88138 0.0
H579 H 0.0878 0.48029 0.86051 0.0
C580 C 0.128 0.56165 0.89787 0.0
C581 C 0.1533 0.55608 0.88807 0.0
C582 C 0.09804 0.55659 0.89256 0.0
C583 C 0.09268 0.5455 0.87738 0.0
C584 C 0.11791 0.54037 0.86745 0.0
H585 H 0.90808 0.53247 0.83505 0.0
H586 H 0.9629 0.54323 0.83899 0.0
C587 C 0.14795 0.54567 0.87274 0.0
C588 C 0.06068 0.53898 0.87217 0.0
H589 H 0.01126 0.47931 0.86321 0.0
C590 C 0.03971 0.56398 0.87117 0.0
C591 C 0.0503 0.50808 0.86915 0.0
C592 C 0.07156 0.48024 0.87048 0.0
C593 C 1.00869 0.5589 0.86736 0.0
C594 C 0.99829 0.52799 0.86443 0.0
C595 C 0.0193 0.50301 0.86531 0.0
C596 C 0.96527 0.52089 0.8616 0.0
C597 C 0.98695 0.58647 0.867 0.0
C598 C 0.94846 0.50434 0.87285 0.0
C599 C 0.91721 0.49831 0.87068 0.0
C600 C 0.90197 0.50835 0.85709 0.0
C601 C 0.91902 0.52437 0.84565 0.0
C602 C 0.95034 0.53067 0.84791 0.0
H603 H 0.99756 0.60815 0.87176 0.0
H604 H 0.97994 0.59105 0.85478 0.0
H605 H 0.96592 0.58117 0.87381 0.0
H606 H 0.95945 0.49649 0.88348 0.0
H607 H 0.90499 0.4858 0.87974 0.0
H608 H 0.77937 0.63197 0.83552 0.0
H609 H 0.77538 0.68606 0.84472 0.0
H610 H 0.81525 0.65907 0.88874 0.0
H611 H 0.81797 0.60428 0.87974 0.0
H612 H 0.77004 0.69957 0.89341 0.0
H613 H 0.84422 0.74706 0.84691 0.0
H614 H 0.81204 0.72677 0.83876 0.0
H615 H 0.83997 0.70548 0.8501 0.0
C616 C 0.78727 0.63755 0.84717 0.0
C617 C 0.79926 0.61403 0.85687 0.0
C618 C 0.78521 0.66856 0.85238 0.0
C619 C 0.79587 0.67695 0.86726 0.0
C620 C 0.80716 0.65328 0.87715 0.0
H621 H 0.82603 0.87558 0.8874 0.0
H622 H 0.83268 0.81927 0.88302 0.0
C623 C 0.80874 0.62202 0.87201 0.0
C624 C 0.79496 0.71038 0.8724 0.0
H625 H 0.81375 0.78458 0.86086 0.0
C626 C 0.77988 0.71815 0.88638 0.0
C627 C 0.80837 0.73469 0.86345 0.0
C628 C 0.82735 0.72804 0.84907 0.0
C629 C 0.77699 0.74952 0.89136 0.0
C630 C 0.78857 0.77397 0.88183 0.0
C631 C 0.80444 0.76605 0.86811 0.0
C632 C 0.78457 0.8079 0.88572 0.0
C633 C 0.76201 0.75594 0.90692 0.0
C634 C 0.75534 0.82053 0.88877 0.0
C635 C 0.7516 0.8527 0.89159 0.0
C636 C 0.77688 0.87309 0.89098 0.0
C637 C 0.80607 0.86051 0.88787 0.0
C638 C 0.80989 0.82828 0.88537 0.0
H639 H 0.76434 0.73552 0.91487 0.0
H640 H 0.77209 0.77685 0.9127 0.0
H641 H 0.73716 0.76018 0.90513 0.0
H642 H 0.73525 0.80566 0.88859 0.0
H643 H 0.72876 0.86175 0.89377 0.0
H644 H 0.39188 0.49565 0.6589 0.0
H645 H 0.44582 0.5094 0.65477 0.0
H646 H 0.43602 0.49103 0.60556 0.0
H647 H 0.38219 0.47764 0.6095 0.0
H648 H 0.49322 0.47248 0.64202 0.0
H649 H 0.47303 0.57931 0.60651 0.0
H650 H 0.4432 0.56107 0.61793 0.0
H651 H 0.45392 0.54491 0.59932 0.0
C652 C 0.40118 0.4946 0.64719 0.0
C653 C 0.38265 0.48569 0.63452 0.0
C654 C 0.43199 0.50246 0.64486 0.0
C655 C 0.44475 0.50175 0.62982 0.0
C656 C 0.42646 0.49241 0.61721 0.0
H657 H 0.62446 0.53441 0.58963 0.0
H658 H 0.57026 0.52246 0.59449 0.0
C659 C 0.3957 0.48457 0.61951 0.0
C660 C 0.47738 0.51007 0.62733 0.0
H661 H 0.52431 0.56047 0.60764 0.0
C662 C 0.50005 0.49185 0.6346 0.0
C663 C 0.48619 0.5353 0.61759 0.0
C664 C 0.46284 0.55648 0.60999 0.0
C665 C 0.53135 0.49772 0.63211 0.0
C666 C 0.54016 0.52285 0.62231 0.0
C667 C 0.51748 0.54118 0.61511 0.0
C668 C 0.57281 0.53051 0.61939 0.0
C669 C 0.55471 0.47647 0.63968 0.0
C670 C 0.59201 0.53952 0.63172 0.0
C671 C 0.62288 0.54629 0.62897 0.0
C672 C 0.63501 0.54439 0.61382 0.0
C673 C 0.61566 0.53599 0.60142 0.0
C674 C 0.58476 0.52917 0.60419 0.0
H675 H 0.5444 0.45387 0.64343 0.0
H676 H 0.57401 0.47141 0.6316 0.0
H677 H 0.56414 0.48826 0.65017 0.0
H678 H 0.5831 0.54136 0.64349 0.0
H679 H 0.63728 0.55289 0.63872 0.0
H680 H 0.73739 0.17133 0.40891 0.0
H681 H 0.73148 0.22791 0.40455 0.0
H682 H 0.78105 0.21976 0.36122 0.0
H683 H 0.78678 0.16342 0.36534 0.0
H684 H 0.77675 0.27375 0.4009 0.0
H685 H 0.70438 0.26745 0.34784 0.0
H686 H 0.71058 0.23406 0.36039 0.0
H687 H 0.73941 0.24542 0.34651 0.0
C688 C 0.74692 0.18151 0.39841 0.0
C689 C 0.76246 0.16259 0.38747 0.0
C690 C 0.74353 0.21392 0.39594 0.0
C691 C 0.75535 0.22813 0.38241 0.0
C692 C 0.77109 0.20936 0.37156 0.0
H693 H 0.76143 0.42205 0.34778 0.0
H694 H 0.76676 0.36493 0.35095 0.0
C695 C 0.77452 0.17704 0.37402 0.0
C696 C 0.75214 0.26268 0.37987 0.0
H697 H 0.72371 0.31772 0.35465 0.0
C698 C 0.765 0.28334 0.39083 0.0
C699 C 0.73705 0.27531 0.36665 0.0
C700 C 0.72181 0.25446 0.35473 0.0
C701 C 0.76356 0.31612 0.38885 0.0
C702 C 0.74822 0.32879 0.37571 0.0
C703 C 0.73551 0.30812 0.3647 0.0
C704 C 0.74437 0.36338 0.37348 0.0
C705 C 0.77914 0.33685 0.40072 0.0
C706 C 0.72938 0.38151 0.38485 0.0
C707 C 0.72643 0.41403 0.3831 0.0
C708 C 0.73808 0.42935 0.36982 0.0
C709 C 0.75228 0.41108 0.35817 0.0
C710 C 0.75535 0.37841 0.35998 0.0
H711 H 0.7973 0.32394 0.40716 0.0
H712 H 0.7896 0.35773 0.39511 0.0
H713 H 0.76194 0.34506 0.40936 0.0
H714 H 0.71992 0.3705 0.39516 0.0
H715 H 0.71503 0.42718 0.39225 0.0
H716 H 0.85183 0.49451 0.12836 0.0
H717 H 0.90407 0.50793 0.13658 0.0
H718 H 0.93897 0.42736 0.11166 0.0
H719 H 0.88706 0.41479 0.10287 0.0
H720 H 0.94631 0.47988 0.15353 0.0
H721 H 0.99275 0.49348 0.09388 0.0
H722 H 0.95234 0.48893 0.0976 0.0
H723 H 0.97717 0.45509 0.09691 0.0
C724 C 0.87071 0.47975 0.12461 0.0
C725 C 0.86543 0.45381 0.11483 0.0
C726 C 0.90057 0.48739 0.12934 0.0
C727 C 0.92575 0.46911 0.12448 0.0
C728 C 0.92023 0.44249 0.11517 0.0
H729 H 0.11006 0.47991 0.16612 0.0
H730 H 0.05662 0.4663 0.16035 0.0
C731 C 0.89047 0.43516 0.11024 0.0
C732 C 0.95768 0.47791 0.1291 0.0
H733 H 0.02923 0.49204 0.11444 0.0
C734 C 0.96441 0.4827 0.14496 0.0
C735 C 0.98134 0.48216 0.11796 0.0
C736 C 0.97549 0.47998 0.10064 0.0
C737 C 0.99402 0.49125 0.14998 0.0
C738 C 0.01797 0.49417 0.13889 0.0
C739 C 0.01112 0.48956 0.12303 0.0
C740 C 0.05005 0.50307 0.14322 0.0
C741 C 0.99898 0.49794 0.16708 0.0
C742 C 0.06465 0.52785 0.13538 0.0
C743 C 0.09533 0.53511 0.13839 0.0
C744 C 0.11226 0.51805 0.14948 0.0
C745 C 0.09755 0.49376 0.15765 0.0
C746 C 0.06688 0.48608 0.15441 0.0
H747 H 0.97716 0.50424 0.17302 0.0
H748 H 1.00819 0.47658 0.1728 0.0
H749 H 0.01557 0.51738 0.16881 0.0
H750 H 0.05236 0.54144 0.12673 0.0
H751 H 0.10588 0.55406 0.13192 0.0
H752 H 0.72602 0.92952 0.62279 0.0
H753 H 0.73464 0.87574 0.61334 0.0
H754 H 0.72622 0.84099 0.66036 0.0
H755 H 0.71789 0.89455 0.66985 0.0
H756 H 0.77714 0.81676 0.64427 0.0
H757 H 0.67033 0.8055 0.60941 0.0
H758 H 0.69376 0.83897 0.60494 0.0
H759 H 0.67568 0.83615 0.62371 0.0
C760 C 0.72585 0.91035 0.63107 0.0
C761 C 0.72115 0.91617 0.64704 0.0
C762 C 0.73067 0.87964 0.62566 0.0
C763 C 0.73076 0.85428 0.63613 0.0
C764 C 0.72619 0.86016 0.65207 0.0
H765 H 0.71132 0.65543 0.62366 0.0
H766 H 0.70625 0.71143 0.62903 0.0
C767 C 0.72134 0.89077 0.65747 0.0
C768 C 0.73603 0.82157 0.63062 0.0
H769 H 0.70494 0.76285 0.60854 0.0
C770 C 0.76147 0.805 0.63639 0.0
C771 C 0.71541 0.80621 0.62043 0.0
C772 C 0.6871 0.82243 0.61433 0.0
C773 C 0.7667 0.77343 0.63236 0.0
C774 C 0.74613 0.75808 0.62214 0.0
C775 C 0.72083 0.77473 0.61627 0.0
C776 C 0.74929 0.72419 0.61824 0.0
C777 C 0.7936 0.75643 0.63952 0.0
C778 C 0.77503 0.71269 0.61017 0.0
C779 C 0.77807 0.68049 0.60706 0.0
C780 C 0.75535 0.6592 0.61193 0.0
C781 C 0.72935 0.671 0.61975 0.0
C782 C 0.72634 0.7031 0.62282 0.0
H783 H 0.80339 0.76952 0.64956 0.0
H784 H 0.78675 0.73268 0.64354 0.0
H785 H 0.81187 0.75358 0.63061 0.0
H786 H 0.79281 0.72861 0.60631 0.0
H787 H 0.79833 0.6723 0.60097 0.0
H788 H 0.14775 1.00433 0.86604 0.0
H789 H 0.09306 0.99715 0.86964 0.0
H790 H 0.07787 0.09577 0.8614 0.0
H791 H 0.1334 0.1035 0.85809 0.0
H792 H 0.04465 0.07417 0.88634 0.0
H793 H 0.02815 0.99406 0.83635 0.0
H794 H 0.05774 0.98012 0.84908 0.0
H795 H 0.06269 0.01673 0.83889 0.0
C796 C 0.13296 0.02463 0.86484 0.0
C797 C 0.14513 0.05453 0.8616 0.0
C798 C 0.10151 0.02036 0.86684 0.0
C799 C 0.08119 0.04572 0.86543 0.0
C800 C 0.09311 0.07577 0.86238 0.0
H801 H 0.88471 1.00583 0.86096 0.0
H802 H 0.93688 0.02329 0.85516 0.0
C803 C 0.12483 0.08015 0.86046 0.0
C804 C 0.04771 0.04052 0.86764 0.0
H805 H 0.98884 0.99323 0.85598 0.0
C806 C 0.0323 0.05678 0.87957 0.0
C807 C 0.03138 0.01818 0.85867 0.0
C808 C 0.04577 1.00154 0.84493 0.0
C809 C 1.00144 0.05039 0.88317 0.0
C810 C 0.98576 0.02651 0.87488 0.0
C811 C 1.00086 0.01118 0.86255 0.0
C812 C 0.95373 0.01694 0.8787 0.0
C813 C 0.98594 0.06955 0.89573 0.0
C814 C 0.94571 1.00718 0.89383 0.0
C815 C 0.91573 0.9975 0.8972 0.0
C816 C 0.89337 0.99681 0.88543 0.0
C817 C 0.9015 1.00606 0.87026 0.0
C818 C 0.93132 0.01609 0.86694 0.0
H819 H 0.99719 0.09274 0.89723 0.0
H820 H 0.96133 0.07345 0.89306 0.0
H821 H 0.98763 0.05688 0.907 0.0
H822 H 0.96272 1.00665 0.90301 0.0
H823 H 0.91012 0.9903 0.90897 0.0
H824 H 0.78257 0.07045 0.11508 0.0
H825 H 0.77314 0.12456 0.10625 0.0
H826 H 0.77631 0.15681 0.15392 0.0
H827 H 0.78542 0.10312 0.16275 0.0
H828 H 0.72608 0.18012 0.13725 0.0
H829 H 0.83528 0.19756 0.10489 0.0
H830 H 0.81328 0.16361 0.09944 0.0
H831 H 0.82989 0.16584 0.11856 0.0
C832 C 0.78135 0.08916 0.12363 0.0
C833 C 0.7848 0.0826 0.13959 0.0
C834 C 0.77611 0.12006 0.11858 0.0
C835 C 0.77431 0.14482 0.12942 0.0
C836 C 0.77764 0.13815 0.14534 0.0
H837 H 0.78722 0.34596 0.12126 0.0
H838 H 0.79438 0.28983 0.12595 0.0
C839 C 0.78291 0.10743 0.15037 0.0
C840 C 0.76843 0.17772 0.1244 0.0
H841 H 0.79971 0.23939 0.10452 0.0
C842 C 0.74207 0.19303 0.13 0.0
C843 C 0.78949 0.19464 0.11509 0.0
C844 C 0.81873 0.17977 0.10921 0.0
C845 C 0.7363 0.22479 0.12667 0.0
C846 C 0.75727 0.24169 0.1173 0.0
C847 C 0.78355 0.22635 0.1116 0.0
C848 C 0.75306 0.27569 0.11394 0.0
C849 C 0.7083 0.2403 0.13363 0.0
C850 C 0.72762 0.28645 0.10545 0.0
C851 C 0.7234 0.31861 0.10275 0.0
C852 C 0.74461 0.34068 0.10847 0.0
C853 C 0.77033 0.32972 0.11675 0.0
C854 C 0.77453 0.29759 0.11941 0.0
H855 H 0.69825 0.22614 0.14322 0.0
H856 H 0.71399 0.26397 0.13823 0.0
H857 H 0.69061 0.24312 0.12445 0.0
H858 H 0.71099 0.26995 0.1009 0.0
H859 H 0.70344 0.32615 0.09624 0.0
H860 H 0.63109 0.0522 0.41148 0.0
H861 H 0.57855 0.04349 0.40274 0.0
H862 H 0.60863 0.0471 0.35484 0.0
H863 H 0.66173 0.05522 0.36363 0.0
H864 H 0.54153 0.08058 0.38529 0.0
H865 H 0.55919 0.96643 0.35507 0.0
H866 H 0.58769 0.98333 0.36779 0.0
H867 H 0.58299 0.99797 0.34829 0.0
C868 C 0.6266 0.05104 0.39907 0.0
C869 C 0.65059 0.05431 0.38824 0.0
C870 C 0.59648 0.04608 0.39408 0.0
C871 C 0.58951 0.0442 0.37812 0.0
C872 C 0.61342 0.04777 0.36722 0.0
H873 H 0.40647 0.01398 0.33623 0.0
H874 H 0.46125 0.02588 0.33944 0.0
C875 C 0.64373 0.05264 0.37224 0.0
C876 C 0.55704 0.03918 0.37316 0.0
H877 H 0.50923 0.98786 0.35438 0.0
C878 C 0.53456 0.06036 0.37846 0.0
C879 C 0.54778 0.01287 0.36419 0.0
C880 C 0.57057 0.98865 0.35859 0.0
C881 C 0.50326 0.05573 0.3753 0.0
C882 C 0.49394 0.029 0.36673 0.0
C883 C 0.51639 0.00833 0.36096 0.0
C884 C 0.46091 0.02121 0.36456 0.0
C885 C 0.48033 0.07945 0.38126 0.0
C886 C 0.44262 0.01413 0.37755 0.0
C887 C 0.41147 1.00721 0.37576 0.0
C888 C 0.39774 1.00717 0.3609 0.0
C889 C 0.4162 0.01389 0.34784 0.0
C890 C 0.44753 0.02066 0.34965 0.0
H891 H 0.49132 0.10236 0.38391 0.0
H892 H 0.46171 0.08331 0.37265 0.0
H893 H 0.46982 0.07052 0.39218 0.0
H894 H 0.45248 0.01393 0.38914 0.0
H895 H 0.39814 1.00207 0.38611 0.0
H896 H 0.31992 0.10323 0.38134 0.0
H897 H 0.31649 0.15851 0.3894 0.0
H898 H 0.26066 0.17851 0.34906 0.0
H899 H 0.26546 0.12401 0.34066 0.0
H900 H 0.30212 0.22077 0.35142 0.0
H901 H 0.24981 0.20714 0.4099 0.0
H902 H 0.28543 0.18639 0.40802 0.0
H903 H 0.25302 0.1749 0.39634 0.0
C904 C 0.30673 0.11948 0.37433 0.0
C905 C 0.29298 0.10943 0.36039 0.0
C906 C 0.30457 0.15102 0.37898 0.0
C907 C 0.28793 0.17278 0.36997 0.0
C908 C 0.27368 0.16235 0.35623 0.0
H909 H 0.22745 0.3594 0.39734 0.0
H910 H 0.23295 0.30315 0.39215 0.0
C911 C 0.27637 0.13114 0.35144 0.0
C912 C 0.28649 0.20674 0.37421 0.0
H913 H 0.26746 0.25823 0.40329 0.0
C914 C 0.29441 0.22889 0.36276 0.0
C915 C 0.27614 0.21754 0.38894 0.0
C916 C 0.26531 0.19527 0.40145 0.0
C917 C 0.29202 0.2613 0.36552 0.0
C918 C 0.28272 0.27213 0.38043 0.0
C919 C 0.27492 0.25002 0.39192 0.0
C920 C 0.27995 0.30624 0.38413 0.0
C921 C 0.2984 0.28345 0.35217 0.0
C922 C 0.30466 0.32679 0.38166 0.0
C923 C 0.30133 0.35905 0.38428 0.0
C924 C 0.27348 0.37135 0.38988 0.0
C925 C 0.24918 0.35064 0.39299 0.0
C926 C 0.25232 0.31845 0.39006 0.0
H927 H 0.29565 0.27161 0.3407 0.0
H928 H 0.28288 0.30413 0.35251 0.0
H929 H 0.32243 0.2918 0.35295 0.0
H930 H 0.32655 0.31792 0.37762 0.0
H931 H 0.32066 0.37432 0.38204 0.0
H932 H 0.88738 0.98177 0.1105 0.0
H933 H 0.94169 0.99334 0.10638 0.0
H934 H 0.95636 0.99438 0.15607 0.0
H935 H 0.90187 0.98301 0.16038 0.0
H936 H 0.97524 0.04929 0.12118 0.0
H937 H 0.02225 0.93117 0.13562 0.0
H938 H 0.98324 0.93659 0.12906 0.0
H939 H 0.99387 0.94811 0.14842 0.0
C940 C 0.9021 0.98433 0.12058 0.0
C941 C 0.89024 0.9814 0.13578 0.0
C942 C 0.93313 0.99098 0.11819 0.0
C943 C 0.953 0.99449 0.13091 0.0
C944 C 0.94138 0.99149 0.1461 0.0
H945 H 0.15149 0.02371 0.1331 0.0
H946 H 0.09803 0.01225 0.13997 0.0
C947 C 0.91024 0.98508 0.14853 0.0
C948 C 0.98573 1.00204 0.1282 0.0
H949 H 0.05767 0.97031 0.12858 0.0
C950 C 0.99332 0.0321 0.12282 0.0
C951 C 0.00918 0.97962 0.13051 0.0
C952 C 1.00196 0.94695 0.13616 0.0
C953 C 0.02386 0.04038 0.11966 0.0
C954 C 0.04734 0.01763 0.12146 0.0
C955 C 0.03972 0.98769 0.12711 0.0
C956 C 0.07981 0.02428 0.11726 0.0
C957 C 0.03066 0.07363 0.11468 0.0
C958 C 0.08749 0.03426 0.10215 0.0
C959 C 0.11791 0.04109 0.09827 0.0
C960 C 0.14133 0.03755 0.10935 0.0
C961 C 0.13384 0.02672 0.12435 0.0
C962 C 0.10333 0.02016 0.12827 0.0
H963 H 0.01248 0.09013 0.11866 0.0
H964 H 0.05302 0.08176 0.11935 0.0
H965 H 0.03155 0.07469 0.10176 0.0
H966 H 0.06995 0.03672 0.09331 0.0
H967 H 0.12308 0.0491 0.08658 0.0
H968 H 0.28538 0.65996 0.86439 0.0
H969 H 0.27968 0.71627 0.86013 0.0
H970 H 0.23709 0.72611 0.90526 0.0
H971 H 0.24306 0.66958 0.90976 0.0
H972 H 0.22767 0.75313 0.85905 0.0
H973 H 0.30392 0.79282 0.90691 0.0
H974 H 0.303 0.75262 0.90025 0.0
H975 H 0.27356 0.76724 0.91305 0.0
C976 C 0.27489 0.67399 0.8735 0.0
C977 C 0.26487 0.66004 0.8875 0.0
C978 C 0.27159 0.7063 0.871 0.0
C979 C 0.25835 0.72567 0.88243 0.0
C980 C 0.24797 0.71185 0.89637 0.0
H981 H 0.22071 0.92539 0.88955 0.0
H982 H 0.22511 0.86879 0.8931 0.0
C983 C 0.25125 0.67943 0.8989 0.0
C984 C 0.25516 0.76015 0.87959 0.0
H985 H 0.276 0.83225 0.8936 0.0
C986 C 0.23832 0.77043 0.86658 0.0
C987 C 0.26911 0.78282 0.88937 0.0
C988 C 0.28866 0.77342 0.9031 0.0
C989 C 0.2345 0.80261 0.86329 0.0
C990 C 0.2484 0.8253 0.87309 0.0
C991 C 0.26532 0.81498 0.88606 0.0
C992 C 0.24505 0.85984 0.87041 0.0
C993 C 0.21489 0.812 0.84958 0.0
C994 C 0.25483 0.87402 0.85645 0.0
C995 C 0.25219 0.90665 0.85433 0.0
C996 C 0.23998 0.92583 0.86619 0.0
C997 C 0.23024 0.91149 0.88013 0.0
C998 C 0.23278 0.87901 0.88221 0.0
H999 H 0.1995 0.79264 0.84585 0.0
H1000 H 0.20067 0.8329 0.8524 0.0
H1001 H 0.22994 0.81797 0.83958 0.0
H1002 H 0.265 0.85994 0.84727 0.0
H1003 H 0.26013 0.91687 0.8435 0.0
H1004 H 0.38352 0.9644 0.59406 0.0
H1005 H 0.43651 0.97696 0.60129 0.0
H1006 H 0.41398 0.96399 0.64982 0.0
H1007 H 0.36091 0.95143 0.64265 0.0
H1008 H 0.45616 0.02675 0.62176 0.0
H1009 H 0.49197 0.90927 0.64333 0.0
H1010 H 0.45881 0.9148 0.63102 0.0
H1011 H 0.45694 0.92474 0.65136 0.0
C1012 C 0.38992 0.96402 0.60626 0.0
C1013 C 0.36809 0.95683 0.61779 0.0
C1014 C 0.42019 0.97125 0.61038 0.0
C1015 C 0.42936 0.9711 0.62608 0.0
C1016 C 0.4076 0.96378 0.63761 0.0
H1017 H 0.60901 1.00734 0.66912 0.0
H1018 H 0.55469 0.99501 0.66482 0.0
C1019 C 0.37726 0.95673 0.63351 0.0
C1020 C 0.4614 0.97964 0.63037 0.0
H1021 H 0.52768 0.95053 0.64605 0.0
C1022 C 0.4718 0.01008 0.62707 0.0
C1023 C 0.48173 0.958 0.63744 0.0
C1024 C 0.47202 0.92477 0.64092 0.0
C1025 C 0.50189 0.01949 0.63064 0.0
C1026 C 0.52254 0.99762 0.63735 0.0
C1027 C 0.51195 0.96731 0.64091 0.0
C1028 C 0.55547 1.00537 0.64012 0.0
C1029 C 0.5111 0.05298 0.62739 0.0
C1030 C 0.57419 0.01487 0.62767 0.0
C1031 C 0.6051 0.02207 0.6301 0.0
C1032 C 0.6183 0.01963 0.64504 0.0
C1033 C 0.59964 0.00967 0.65749 0.0
C1034 C 0.56857 1.00254 0.65504 0.0
H1035 H 0.49084 0.06882 0.62708 0.0
H1036 H 0.52737 0.06183 0.63632 0.0
H1037 H 0.52245 0.05416 0.61582 0.0
H1038 H 0.56497 0.01645 0.61598 0.0
H1039 H 0.6187 0.02931 0.62017 0.0
H1040 H 0.22239 0.13426 0.92131 0.0
H1041 H 0.22835 0.12982 0.94954 0.0
H1042 H 0.25545 0.03293 0.94435 0.0
H1043 H 0.24925 0.03718 0.91591 0.0
H1044 H 0.2125 0.04442 0.96882 0.0
H1045 H 0.31187 0.12526 0.97187 0.0
H1046 H 0.27932 0.1414 0.96187 0.0
H1047 H 0.29892 0.10792 0.95382 0.0
C1048 C 0.22949 0.11194 0.92617 0.0
C1049 C 0.23552 0.08608 0.91646 0.0
C1050 C 0.23307 0.10952 0.94229 0.0
C1051 C 0.24293 0.08126 0.94898 0.0
C1052 C 0.24807 0.05503 0.93936 0.0
H1053 H 0.30484 0.06249 0.04522 0.0
H1054 H 0.30178 0.06351 0.01673 0.0
C1055 C 0.24449 0.05745 0.92317 0.0
C1056 C 0.24768 0.07933 0.96604 0.0
H1057 H 0.28787 0.11232 0.99602 0.0
C1058 C 0.22912 0.05906 0.97478 0.0
C1059 C 0.26967 0.09819 0.97373 0.0
C1060 C 0.29131 0.11922 0.96484 0.0
C1061 C 0.23128 0.0579 0.9911 0.0
C1062 C 0.25225 0.07787 0.99885 0.0
C1063 C 0.27153 0.09736 0.99006 0.0
C1064 C 0.25449 0.07885 0.01607 0.0
C1065 C 0.2112 0.0352 0.99992 0.0
C1066 C 0.22921 0.08812 0.02512 0.0
C1067 C 0.23087 0.08763 0.04138 0.0
C1068 C 0.25793 0.07798 0.0489 0.0
C1069 C 0.28363 0.06994 0.0398 0.0
C1070 C 0.28192 0.07045 0.02352 0.0
H1071 H 0.20254 0.01615 0.99223 0.0
H1072 H 0.22386 0.02446 0.0098 0.0
H1073 H 0.19111 0.048 0.00472 0.0
H1074 H 0.20805 0.09539 0.01958 0.0
H1075 H 0.21072 0.09415 0.04804 0.0
H1076 H 0.73457 0.49785 0.2828 0.0
H1077 H 0.72522 0.46784 0.25889 0.0
H1078 H 0.64763 0.52694 0.24845 0.0
H1079 H 0.65696 0.55714 0.27231 0.0
H1080 H 0.67159 0.43764 0.24153 0.0
H1081 H 0.71838 0.54799 0.21622 0.0
H1082 H 0.72131 0.53898 0.23671 0.0
H1083 H 0.6855 0.55211 0.22873 0.0
C1084 C 0.71464 0.50349 0.2758 0.0
C1085 C 0.69666 0.53 0.27929 0.0
C1086 C 0.7094 0.48639 0.26211 0.0
C1087 C 0.68605 0.49554 0.25181 0.0
C1088 C 0.66589 0.51969 0.25621 0.0
H1089 H 0.65433 0.43004 0.15609 0.0
H1090 H 0.64718 0.44144 0.18392 0.0
C1091 C 0.6712 0.53686 0.26984 0.0
C1092 C 0.68653 0.48418 0.23548 0.0
H1093 H 0.70603 0.50757 0.19874 0.0
C1094 C 0.67888 0.45289 0.23212 0.0
C1095 C 0.69652 0.5041 0.22331 0.0
C1096 C 0.70615 0.53761 0.22634 0.0
C1097 C 0.68095 0.44104 0.21681 0.0
C1098 C 0.6909 0.46106 0.20467 0.0
C1099 C 0.69834 0.49232 0.20808 0.0
C1100 C 0.69524 0.45008 0.1884 0.0
C1101 C 0.67335 0.40708 0.21374 0.0
C1102 C 0.7246 0.451 0.18173 0.0
C1103 C 0.72874 0.44471 0.16589 0.0
C1104 C 0.70353 0.4375 0.15633 0.0
C1105 C 0.67422 0.43546 0.16314 0.0
C1106 C 0.6701 0.4418 0.17905 0.0
H1107 H 0.6711 0.39344 0.22471 0.0
H1108 H 0.6513 0.40568 0.20734 0.0
H1109 H 0.6913 0.39603 0.20634 0.0
H1110 H 0.74428 0.45746 0.18874 0.0
H1111 H 0.75164 0.44636 0.16107 0.0
H1112 H 0.25761 0.96616 0.55414 0.0
H1113 H 0.25761 0.97085 0.52571 0.0
H1114 H 0.30166 0.88051 0.52177 0.0
H1115 H 0.30176 0.87553 0.55022 0.0
H1116 H 0.31249 0.96889 0.50679 0.0
H1117 H 0.22893 0.87611 0.49033 0.0
H1118 H 0.2304 0.89289 0.50969 0.0
H1119 H 0.25871 0.86472 0.50368 0.0
C1120 C 0.267 0.9471 0.54725 0.0
C1121 C 0.27975 0.92049 0.55447 0.0
C1122 C 0.26699 0.94985 0.53099 0.0
C1123 C 0.27939 0.92592 0.52164 0.0
C1124 C 0.29157 0.89904 0.52877 0.0
H1125 H 0.30668 0.9122 0.42059 0.0
H1126 H 0.30404 0.90093 0.44864 0.0
C1127 C 0.29174 0.89632 0.54504 0.0
C1128 C 0.28132 0.93008 0.5045 0.0
H1129 H 0.25502 0.90156 0.46973 0.0
C1130 C 0.29989 0.95423 0.49868 0.0
C1131 C 0.26514 0.91064 0.49396 0.0
C1132 C 0.24446 0.88473 0.49966 0.0
C1133 C 0.30276 0.95951 0.4826 0.0
C1134 C 0.28598 0.94061 0.47204 0.0
C1135 C 0.26778 0.91608 0.47784 0.0
C1136 C 0.28638 0.94671 0.45499 0.0
C1137 C 0.32414 0.98501 0.47707 0.0
C1138 C 0.27662 0.97586 0.44922 0.0
C1139 C 0.27825 0.9824 0.43329 0.0
C1140 C 0.28936 0.95978 0.42272 0.0
C1141 C 0.29815 0.93017 0.42843 0.0
C1142 C 0.29663 0.92368 0.44444 0.0
H1143 H 0.34174 0.99069 0.486 0.0
H1144 H 0.33596 0.97809 0.46611 0.0
H1145 H 0.31072 1.00667 0.47479 0.0
H1146 H 0.2679 0.9937 0.45708 0.0
H1147 H 0.27095 1.00532 0.42929 0.0
H1148 H 0.83239 0.45976 0.78289 0.0
H1149 H 0.83275 0.46642 0.7545 0.0
H1150 H 0.80198 0.56207 0.75997 0.0
H1151 H 0.80201 0.55585 0.78825 0.0
H1152 H 0.78486 0.48114 0.73498 0.0
H1153 H 0.87505 0.57207 0.73092 0.0
H1154 H 0.8688 0.54924 0.74836 0.0
H1155 H 0.84491 0.58267 0.74419 0.0
C1156 C 0.8259 0.48228 0.77805 0.0
C1157 C 0.81732 0.50732 0.78785 0.0
C1158 C 0.82611 0.48603 0.76183 0.0
C1159 C 0.81793 0.51491 0.75512 0.0
C1160 C 0.80912 0.53982 0.76488 0.0
H1161 H 0.74899 0.55922 0.66421 0.0
H1162 H 0.75742 0.54618 0.69158 0.0
C1163 C 0.80895 0.53613 0.78107 0.0
C1164 C 0.81727 0.51877 0.73792 0.0
H1165 H 0.84345 0.56519 0.70833 0.0
C1166 C 0.79792 0.49929 0.72913 0.0
C1167 C 0.83468 0.54214 0.73024 0.0
C1168 C 0.85727 0.56251 0.73889 0.0
C1169 C 0.79454 0.50342 0.71297 0.0
C1170 C 0.81055 0.528 0.70546 0.0
C1171 C 0.83089 0.54661 0.71413 0.0
C1172 C 0.80563 0.53553 0.68876 0.0
C1173 C 0.77379 0.48146 0.70409 0.0
C1174 C 0.83013 0.53465 0.67813 0.0
C1175 C 0.82544 0.54228 0.66243 0.0
C1176 C 0.79618 0.55119 0.65713 0.0
C1177 C 0.77179 0.55234 0.66786 0.0
C1178 C 0.7765 0.54467 0.68351 0.0
H1179 H 0.77053 0.45894 0.7104 0.0
H1180 H 0.75095 0.49261 0.7027 0.0
H1181 H 0.78311 0.47633 0.6923 0.0
H1182 H 0.85286 0.52788 0.68197 0.0
H1183 H 0.84472 0.54123 0.65448 0.0
H1184 H 0.75685 0.99079 0.07379 0.0
H1185 H 0.75674 0.98717 0.0454 0.0
H1186 H 0.799 0.89573 0.04799 0.0
H1187 H 0.79878 0.89893 0.07654 0.0
H1188 H 0.80832 0.982 0.02717 0.0
H1189 H 0.73011 0.88151 0.01648 0.0
H1190 H 0.73189 0.90166 0.03501 0.0
H1191 H 0.76087 0.87346 0.02982 0.0
C1192 C 0.76578 0.96968 0.06836 0.0
C1193 C 0.77789 0.94515 0.07743 0.0
C1194 C 0.76568 0.96768 0.05212 0.0
C1195 C 0.77761 0.9411 0.04457 0.0
C1196 C 0.78914 0.91621 0.05357 0.0
H1197 H 0.81954 0.90063 0.9477 0.0
H1198 H 0.81244 0.89888 0.97598 0.0
C1199 C 0.78914 0.91814 0.06989 0.0
C1200 C 0.77993 0.94069 0.02731 0.0
H1201 H 0.75738 0.90118 0.99457 0.0
C1202 C 0.79704 0.96442 0.02004 0.0
C1203 C 0.76532 0.91764 0.01805 0.0
C1204 C 0.74578 0.89225 0.02519 0.0
C1205 C 0.8002 0.9656 0.00378 0.0
C1206 C 0.78547 0.94268 0.99451 0.0
C1207 C 0.76853 0.91879 0.00174 0.0
C1208 C 0.78793 0.94298 0.97727 0.0
C1209 C 0.8198 0.99099 0.99666 0.0
C1210 C 0.7759 0.96806 0.96861 0.0
C1211 C 0.77993 0.96918 0.95243 0.0
C1212 C 0.79603 0.94518 0.94465 0.0
C1213 C 0.80721 0.91961 0.95334 0.0
C1214 C 0.80311 0.9185 0.9695 0.0
H1215 H 0.83502 1.0022 0.00543 0.0
H1216 H 0.8342 0.98139 0.98707 0.0
H1217 H 0.80475 0.00946 0.99169 0.0
H1218 H 0.76369 0.98695 0.97439 0.0
H1219 H 0.77083 0.98907 0.94607 0.0
H1220 H 0.29714 0.52614 0.70532 0.0
H1221 H 0.30607 0.533 0.73312 0.0
H1222 H 0.34396 0.43957 0.73583 0.0
H1223 H 0.33475 0.43224 0.70785 0.0
H1224 H 0.30072 0.45192 0.75858 0.0
H1225 H 0.3861 0.54752 0.75652 0.0
H1226 H 0.35308 0.55647 0.74489 0.0
H1227 H 0.37707 0.52359 0.73973 0.0
C1228 C 0.30755 0.50705 0.71176 0.0
C1229 C 0.31528 0.47865 0.70437 0.0
C1230 C 0.31291 0.51115 0.72763 0.0
C1231 C 0.32631 0.48706 0.73643 0.0
C1232 C 0.33395 0.45857 0.72916 0.0
H1233 H 0.35747 0.53377 0.83524 0.0
H1234 H 0.36784 0.51384 0.80889 0.0
C1235 C 0.3286 0.45442 0.71321 0.0
C1236 C 0.33005 0.49122 0.75342 0.0
H1237 H 0.35664 0.54332 0.78042 0.0
C1238 C 0.31349 0.47148 0.76341 0.0
C1239 C 0.34718 0.51638 0.75971 0.0
C1240 C 0.36713 0.53698 0.74965 0.0
C1241 C 0.31169 0.47774 0.77943 0.0
C1242 C 0.32643 0.50467 0.78548 0.0
C1243 C 0.34495 0.52296 0.77569 0.0
C1244 C 0.32049 0.51593 0.80149 0.0
C1245 C 0.29328 0.45601 0.78967 0.0
C1246 C 0.29057 0.52429 0.80584 0.0
C1247 C 0.2846 0.53571 0.82077 0.0
C1248 C 0.30849 0.5392 0.8316 0.0
C1249 C 0.33858 0.53128 0.82714 0.0
C1250 C 0.34455 0.51983 0.81215 0.0
H1251 H 0.29216 0.432 0.78461 0.0
H1252 H 0.30317 0.45452 0.80157 0.0
H1253 H 0.26948 0.46505 0.79064 0.0
H1254 H 0.27183 0.52221 0.79763 0.0
H1255 H 0.2612 0.54175 0.8238 0.0
H1256 H 0.66031 0.07529 0.57717 0.0
H1257 H 0.67428 0.08076 0.54973 0.0
H1258 H 0.76467 0.11174 0.56298 0.0
H1259 H 0.75109 0.10581 0.59053 0.0
H1260 H 0.69531 0.13194 0.53235 0.0
H1261 H 0.7822 0.03625 0.53468 0.0
H1262 H 0.75473 0.04275 0.55011 0.0
H1263 H 0.78767 0.06776 0.54834 0.0
C1264 C 0.6831 0.0835 0.57429 0.0
C1265 C 0.7047 0.0898 0.58604 0.0
C1266 C 0.69104 0.08663 0.55858 0.0
C1267 C 0.72067 0.09608 0.55433 0.0
C1268 C 0.74188 0.10375 0.56602 0.0
H1269 H 0.80059 0.10021 0.46035 0.0
H1270 H 0.79301 0.10721 0.48848 0.0
C1271 C 0.734 0.10053 0.58175 0.0
C1272 C 0.72939 0.09693 0.53764 0.0
H1273 H 0.77526 0.06139 0.51052 0.0
C1274 C 0.71292 0.11667 0.52758 0.0
C1275 C 0.75244 0.07701 0.53147 0.0
C1276 C 0.77017 0.05453 0.54165 0.0
C1277 C 0.71857 0.11673 0.51147 0.0
C1278 C 0.74096 0.09615 0.50526 0.0
C1279 C 0.75812 0.07713 0.51535 0.0
C1280 C 0.74555 0.09255 0.48824 0.0
C1281 C 0.70046 0.13875 0.50123 0.0
C1282 C 0.72153 0.08149 0.47888 0.0
C1283 C 0.72577 0.0774 0.46287 0.0
C1284 C 0.75421 0.08414 0.45591 0.0
C1285 C 0.77839 0.0949 0.46535 0.0
C1286 C 0.77411 0.09893 0.4814 0.0
H1287 H 0.69107 0.15886 0.50799 0.0
H1288 H 0.71481 0.14797 0.49157 0.0
H1289 H 0.68086 0.12584 0.49606 0.0
H1290 H 0.69952 0.07574 0.48399 0.0
H1291 H 0.70671 0.06893 0.45597 0.0
H1292 H 0.18262 0.57087 0.22246 0.0
H1293 H 0.18522 0.56741 0.25096 0.0
H1294 H 0.22074 0.47318 0.2473 0.0
H1295 H 0.21831 0.47635 0.21888 0.0
H1296 H 0.15607 0.52092 0.27082 0.0
H1297 H 0.28308 0.52001 0.2757 0.0
H1298 H 0.26337 0.53333 0.25841 0.0
H1299 H 0.26737 0.49206 0.26218 0.0
C1300 C 0.19103 0.54942 0.22771 0.0
C1301 C 0.20035 0.52392 0.21839 0.0
C1302 C 0.19248 0.5475 0.24399 0.0
C1303 C 0.20355 0.52021 0.2512 0.0
C1304 C 0.2126 0.49464 0.24194 0.0
H1305 H 0.23288 0.45547 0.34547 0.0
H1306 H 0.23058 0.4627 0.3172 0.0
C1307 C 0.21103 0.49646 0.2257 0.0
C1308 C 0.20511 0.51811 0.26842 0.0
H1309 H 0.25499 0.50896 0.29873 0.0
C1310 C 0.17767 0.51854 0.27697 0.0
C1311 C 0.23334 0.51488 0.27634 0.0
C1312 C 0.26354 0.51528 0.26774 0.0
C1313 C 0.17765 0.51496 0.29325 0.0
C1314 C 0.20591 0.51162 0.3012 0.0
C1315 C 0.23336 0.51151 0.29263 0.0
C1316 C 0.2075 0.50766 0.31837 0.0
C1317 C 0.14732 0.51379 0.30172 0.0
C1318 C 0.19575 0.53079 0.32842 0.0
C1319 C 0.19688 0.52664 0.34459 0.0
C1320 C 0.21008 0.49943 0.351 0.0
C1321 C 0.22248 0.47666 0.34091 0.0
C1322 C 0.2212 0.48075 0.32475 0.0
H1323 H 0.1281 0.50823 0.29368 0.0
H1324 H 0.14775 0.49599 0.31116 0.0
H1325 H 0.1426 0.53705 0.30705 0.0
H1326 H 0.18577 0.5521 0.32377 0.0
H1327 H 0.1874 0.54479 0.35204 0.0
H1328 H 0.73602 0.52749 0.42077 0.0
H1329 H 0.73922 0.51584 0.44882 0.0
H1330 H 0.74098 0.61499 0.45903 0.0
H1331 H 0.73793 0.6267 0.43118 0.0
H1332 H 0.78666 0.57885 0.4749 0.0
H1333 H 0.66966 0.52864 0.48136 0.0
H1334 H 0.69319 0.51196 0.46622 0.0
H1335 H 0.68069 0.55201 0.46473 0.0
C1336 C 0.73699 0.54673 0.42903 0.0
C1337 C 0.73661 0.57798 0.42383 0.0
C1338 C 0.73872 0.54007 0.44503 0.0
C1339 C 0.74007 0.56458 0.45601 0.0
C1340 C 0.73992 0.59574 0.45077 0.0
H1341 H 0.7486 0.59149 0.55599 0.0
H1342 H 0.75147 0.59656 0.52762 0.0
C1343 C 0.73809 0.60238 0.43485 0.0
C1344 C 0.74186 0.5581 0.473 0.0
H1345 H 0.70084 0.52938 0.50375 0.0
C1346 C 0.76797 0.56792 0.48122 0.0
C1347 C 0.71746 0.5438 0.48119 0.0
C1348 C 0.68851 0.53365 0.47301 0.0
C1349 C 0.77036 0.56382 0.49744 0.0
C1350 C 0.74566 0.55016 0.50571 0.0
C1351 C 0.71976 0.53987 0.49742 0.0
C1352 C 0.74578 0.54693 0.52298 0.0
C1353 C 0.79949 0.57381 0.50551 0.0
C1354 C 0.7412 0.51743 0.52987 0.0
C1355 C 0.73922 0.51451 0.54609 0.0
C1356 C 0.74168 0.54107 0.55578 0.0
C1357 C 0.74681 0.57053 0.54888 0.0
C1358 C 0.74864 0.57345 0.53264 0.0
H1359 H 0.81913 0.57464 0.49725 0.0
H1360 H 0.79632 0.59772 0.5104 0.0
H1361 H 0.80536 0.55765 0.51521 0.0
H1362 H 0.73883 0.49666 0.52267 0.0
H1363 H 0.73528 0.49146 0.551 0.0
H1364 H 0.21145 0.97432 0.64794 0.0
H1365 H 0.21204 0.98537 0.67586 0.0
H1366 H 0.18104 0.89127 0.68541 0.0
H1367 H 0.18006 0.87999 0.65735 0.0
H1368 H 0.14927 0.93787 0.7024 0.0
H1369 H 0.27492 0.95272 0.70744 0.0
H1370 H 0.25865 0.97642 0.69226 0.0
H1371 H 0.25716 0.93431 0.69077 0.0
C1372 C 0.20484 0.95587 0.65594 0.0
C1373 C 0.19584 0.92621 0.6504 0.0
C1374 C 0.20534 0.9622 0.67192 0.0
C1375 C 0.19704 0.93898 0.68271 0.0
C1376 C 0.18771 0.90944 0.67726 0.0
H1377 H 0.23948 0.98848 0.77899 0.0
H1378 H 0.2311 0.95416 0.75651 0.0
C1379 C 0.18723 0.90304 0.66124 0.0
C1380 C 0.1977 0.94606 0.69964 0.0
H1381 H 0.24454 0.97437 0.72816 0.0
C1382 C 0.17016 0.94538 0.70814 0.0
C1383 C 0.22506 0.95519 0.7072 0.0
C1384 C 0.25568 0.95441 0.699 0.0
C1385 C 0.16897 0.95547 0.72375 0.0
C1386 C 0.19594 0.96695 0.73092 0.0
C1387 C 0.22377 0.96579 0.72268 0.0
C1388 C 0.19565 0.98316 0.74628 0.0
C1389 C 0.13878 0.95412 0.7323 0.0
C1390 C 0.17759 0.01015 0.74839 0.0
C1391 C 0.18206 0.02956 0.76133 0.0
C1392 C 0.20502 0.02263 0.77231 0.0
C1393 C 0.22142 0.99433 0.77083 0.0
C1394 C 0.21683 0.97482 0.75791 0.0
H1395 H 0.12414 0.93489 0.72772 0.0
H1396 H 0.14213 0.95057 0.74501 0.0
H1397 H 0.12625 0.97653 0.73053 0.0
H1398 H 0.16152 0.01749 0.73948 0.0
H1399 H 0.16894 0.05111 0.76221 0.0
H1400 H 0.77963 0.41205 0.91278 0.0
H1401 H 0.767 0.39869 0.93987 0.0
H1402 H 0.81325 0.4822 0.95572 0.0
H1403 H 0.82558 0.49592 0.92884 0.0
H1404 H 0.80453 0.38853 0.96601 0.0
H1405 H 0.72797 0.49078 0.97514 0.0
H1406 H 0.74053 0.47844 0.95602 0.0
H1407 H 0.76525 0.50176 0.96817 0.0
C1408 C 0.78714 0.42753 0.92205 0.0
C1409 C 0.80337 0.45521 0.91863 0.0
C1410 C 0.77992 0.41985 0.93751 0.0
C1411 C 0.78867 0.43977 0.94978 0.0
C1412 C 0.80565 0.46687 0.94641 0.0
H1413 H 0.80869 0.4132 0.04833 0.0
H1414 H 0.81442 0.41354 0.02001 0.0
C1415 C 0.81281 0.47459 0.93102 0.0
C1416 C 0.78016 0.43254 0.96615 0.0
H1417 H 0.74466 0.46393 0.99806 0.0
C1418 C 0.79115 0.40481 0.973 0.0
C1419 C 0.7622 0.45349 0.97517 0.0
C1420 C 0.74802 0.48262 0.96822 0.0
C1421 C 0.78581 0.39819 0.98884 0.0
C1422 C 0.76952 0.42016 0.9981 0.0
C1423 C 0.75742 0.4472 0.99104 0.0
C1424 C 0.76576 0.4165 0.01524 0.0
C1425 C 0.79765 0.36771 0.99546 0.0
C1426 C 0.73652 0.41832 0.02207 0.0
C1427 C 0.73319 0.41856 0.0383 0.0
C1428 C 0.75907 0.41705 0.04804 0.0
C1429 C 0.78826 0.4142 0.04118 0.0
C1430 C 0.79157 0.41416 0.02495 0.0
H1431 H 0.80015 0.34954 0.98623 0.0
H1432 H 0.82062 0.37169 0.00064 0.0
H1433 H 0.7822 0.35856 0.00469 0.0
H1434 H 0.71627 0.42028 0.01482 0.0
H1435 H 0.71038 0.42075 0.04319 0.0
H1436 H 0.34265 0.07061 0.16234 0.0
H1437 H 0.34607 0.06057 0.19042 0.0
H1438 H 0.24818 0.04709 0.19243 0.0
H1439 H 0.24446 0.05738 0.16449 0.0
H1440 H 0.27144 0.0846 0.21664 0.0
H1441 H 0.33635 0.97288 0.21025 0.0
H1442 H 0.35316 1.0063 0.20078 0.0
H1443 H 0.31694 0.99144 0.19412 0.0
C1444 C 0.32183 0.06573 0.16878 0.0
C1445 C 0.2933 0.06461 0.16117 0.0
C1446 C 0.32386 0.05978 0.18479 0.0
C1447 C 0.29744 0.05255 0.19342 0.0
C1448 C 0.26886 0.05242 0.18595 0.0
H1449 H 0.27751 0.96625 0.28431 0.0
H1450 H 0.27806 0.97848 0.25639 0.0
C1451 C 0.2668 0.05831 0.16997 0.0
C1452 C 0.29938 0.04493 0.21023 0.0
H1453 H 0.32786 0.9912 0.23597 0.0
C1454 C 0.28383 0.06424 0.22089 0.0
C1455 C 0.31521 0.01808 0.21567 0.0
C1456 C 0.33117 0.99576 0.20463 0.0
C1457 C 0.28383 0.05754 0.23691 0.0
C1458 C 0.30018 0.03106 0.24239 0.0
C1459 C 0.31555 0.0116 0.23172 0.0
C1460 C 0.3012 0.02302 0.25917 0.0
C1461 C 0.26578 0.07848 0.24778 0.0
C1462 C 0.31465 0.04369 0.26989 0.0
C1463 C 0.31433 0.03683 0.2858 0.0
C1464 C 0.3007 0.00904 0.29129 0.0
C1465 C 0.28808 0.98789 0.28047 0.0
C1466 C 0.28839 0.99481 0.26452 0.0
H1467 H 0.24869 0.09295 0.2414 0.0
H1468 H 0.25361 0.06442 0.25675 0.0
H1469 H 0.28174 0.09464 0.25386 0.0
H1470 H 0.32519 0.06528 0.26595 0.0
H1471 H 0.32448 0.05353 0.29381 0.0
H1472 H 0.31775 0.39382 0.44511 0.0
H1473 H 0.30934 0.38898 0.47319 0.0
H1474 H 0.26201 0.47797 0.4735 0.0
H1475 H 0.26977 0.48272 0.44535 0.0
H1476 H 0.33041 0.42797 0.49582 0.0
H1477 H 0.20357 0.42344 0.49823 0.0
H1478 H 0.22474 0.418 0.48032 0.0
H1479 H 0.21765 0.45687 0.48775 0.0
C1480 C 0.30528 0.41224 0.45112 0.0
C1481 C 0.29444 0.43868 0.443 0.0
C1482 C 0.30048 0.40941 0.46717 0.0
C1483 C 0.28467 0.43287 0.47541 0.0
C1484 C 0.27363 0.4592 0.46732 0.0
H1485 H 0.25565 0.4871 0.57019 0.0
H1486 H 0.25667 0.48022 0.54194 0.0
C1487 C 0.2783 0.462 0.45125 0.0
C1488 C 0.28152 0.4308 0.49261 0.0
H1489 H 0.22941 0.43347 0.52236 0.0
C1490 C 0.30831 0.42874 0.50162 0.0
C1491 C 0.25266 0.43178 0.50016 0.0
C1492 C 0.223 0.43233 0.49111 0.0
C1493 C 0.30711 0.42889 0.51798 0.0
C1494 C 0.2783 0.4307 0.52552 0.0
C1495 C 0.25146 0.43206 0.51653 0.0
C1496 C 0.27576 0.43337 0.5427 0.0
C1497 C 0.33672 0.42837 0.52707 0.0
C1498 C 0.28552 0.40896 0.55251 0.0
C1499 C 0.28498 0.4128 0.56873 0.0
C1500 C 0.27465 0.44113 0.57536 0.0
C1501 C 0.26392 0.46505 0.56548 0.0
C1502 C 0.2644 0.46116 0.54931 0.0
H1503 H 0.35694 0.43301 0.51953 0.0
H1504 H 0.33621 0.4461 0.53658 0.0
H1505 H 0.33974 0.40491 0.53247 0.0
H1506 H 0.29396 0.38713 0.54761 0.0
H1507 H 0.29328 0.39389 0.57603 0.0
H1508 H 0.85931 0.03245 0.33778 0.0
H1509 H 0.87126 0.01165 0.31178 0.0
H1510 H 0.77985 0.03479 0.29642 0.0
H1511 H 0.76761 0.05529 0.32225 0.0
H1512 H 0.80042 0.97169 0.28952 0.0
H1513 H 0.88292 0.06449 0.2712 0.0
H1514 H 0.8892 0.04534 0.28963 0.0
H1515 H 0.85643 0.07031 0.28715 0.0
C1516 C 0.84184 0.03328 0.32882 0.0
C1517 C 0.81252 0.04552 0.33203 0.0
C1518 C 0.84873 0.02143 0.31401 0.0
C1519 C 0.82643 0.02181 0.30226 0.0
C1520 C 0.79729 0.03424 0.30541 0.0
H1521 H 0.80482 0.02447 0.20681 0.0
H1522 H 0.81275 0.03157 0.23466 0.0
C1523 C 0.79039 0.04604 0.32015 0.0
C1524 C 0.83287 0.00922 0.28658 0.0
H1525 H 0.86831 0.02748 0.25235 0.0
C1526 C 0.81571 0.98341 0.28142 0.0
C1527 C 0.85285 0.02473 0.27618 0.0
C1528 C 0.87138 0.05287 0.28119 0.0
C1529 C 0.81661 0.97378 0.2658 0.0
C1530 C 0.83548 0.99025 0.25522 0.0
C1531 C 0.85402 0.01489 0.26059 0.0
C1532 C 0.83264 0.98559 0.23825 0.0
C1533 C 0.79586 0.94753 0.26051 0.0
C1534 C 0.8414 0.95735 0.23106 0.0
C1535 C 0.83673 0.95309 0.21506 0.0
C1536 C 0.82332 0.97708 0.2061 0.0
C1537 C 0.81509 1.00546 0.21337 0.0
C1538 C 0.81975 0.00966 0.22927 0.0
H1539 H 0.77997 0.93976 0.26987 0.0
H1540 H 0.78208 0.95508 0.25029 0.0
H1541 H 0.80998 0.9271 0.25687 0.0
H1542 H 0.85164 0.93864 0.23784 0.0
H1543 H 0.84345 0.93104 0.20975 0.0
H1544 H 0.2254 0.51686 0.08277 0.0
H1545 H 0.2284 0.52648 0.05481 0.0
H1546 H 0.20862 0.62453 0.0625 0.0
H1547 H 0.20605 0.61516 0.09072 0.0
H1548 H 0.18245 0.54881 0.03578 0.0
H1549 H 0.28384 0.62769 0.03399 0.0
H1550 H 0.27431 0.60454 0.05093 0.0
H1551 H 0.25342 0.63993 0.04679 0.0
C1552 C 0.22188 0.54057 0.07858 0.0
C1553 C 0.2155 0.56527 0.089 0.0
C1554 C 0.22359 0.546 0.06256 0.0
C1555 C 0.21903 0.57625 0.05656 0.0
C1556 C 0.21278 0.60109 0.0669 0.0
H1557 H 0.21633 0.63768 0.95912 0.0
H1558 H 0.2125 0.63579 0.98761 0.0
C1559 C 0.21116 0.59568 0.08301 0.0
C1560 C 0.21972 0.5811 0.03941 0.0
H1561 H 0.25861 0.61797 0.01008 0.0
C1562 C 0.19907 0.56399 0.03017 0.0
C1563 C 0.24133 0.60102 0.03211 0.0
C1564 C 0.26469 0.61919 0.04141 0.0
C1565 C 0.19961 0.56601 0.01384 0.0
C1566 C 0.22164 0.58534 0.00653 0.0
C1567 C 0.24181 0.60309 0.01574 0.0
C1568 C 0.2246 0.58667 0.98931 0.0
C1569 C 0.17649 0.5475 0.00453 0.0
C1570 C 0.23315 0.55979 0.98087 0.0
C1571 C 0.23542 0.56077 0.96461 0.0
C1572 C 0.22922 0.58871 0.95648 0.0
C1573 C 0.22112 0.61575 0.96501 0.0
C1574 C 0.21897 0.61475 0.98129 0.0
H1575 H 0.15658 0.54034 0.01179 0.0
H1576 H 0.168 0.56134 0.99445 0.0
H1577 H 0.18758 0.5259 0.99996 0.0
H1578 H 0.23808 0.538 0.98687 0.0
H1579 H 0.24185 0.53956 0.95843 0.0
H1580 H 0.64387 0.98999 0.7194 0.0
H1581 H 0.64846 0.98876 0.74785 0.0
H1582 H 0.74551 1.00645 0.74399 0.0
H1583 H 0.74104 0.00842 0.71565 0.0
H1584 H 0.68199 0.94918 0.76584 0.0
H1585 H 0.72037 0.07136 0.77592 0.0
H1586 H 0.70457 0.05853 0.75755 0.0
H1587 H 0.74416 0.05098 0.76215 0.0
C1588 C 0.66614 0.99387 0.72462 0.0
C1589 C 0.69207 0.99946 0.71526 0.0
C1590 C 0.66872 0.99316 0.74087 0.0
C1591 C 0.69722 0.99809 0.74806 0.0
C1592 C 0.72314 1.00344 0.73873 0.0
H1593 H 0.77672 0.97693 0.83879 0.0
H1594 H 0.76496 0.98432 0.81116 0.0
C1595 C 0.72057 1.00433 0.72251 0.0
C1596 C 0.70022 0.99613 0.76526 0.0
H1597 H 0.72723 0.03548 0.79714 0.0
C1598 C 0.6915 0.9682 0.77272 0.0
C1599 C 0.71257 0.02101 0.77423 0.0
C1600 C 0.72066 0.05227 0.76708 0.0
C1601 C 0.69587 0.96405 0.7888 0.0
C1602 C 0.7091 0.98856 0.79763 0.0
C1603 C 0.71722 0.01672 0.79028 0.0
C1604 C 0.7158 0.98488 0.81443 0.0
C1605 C 0.68729 0.93316 0.79618 0.0
C1606 C 0.69198 0.98316 0.8254 0.0
C1607 C 0.6986 0.97906 0.84123 0.0
C1608 C 0.72917 0.97651 0.84631 0.0
C1609 C 0.75294 0.97864 0.83526 0.0
C1610 C 0.7463 0.98294 0.81948 0.0
H1611 H 0.68176 0.91494 0.78733 0.0
H1612 H 0.70626 0.92443 0.80364 0.0
H1613 H 0.66687 0.93659 0.80373 0.0
H1614 H 0.6683 0.98494 0.8217 0.0
H1615 H 0.67978 0.97758 0.84944 0.0
H1616 H 0.54666 0.96893 0.94249 0.0
H1617 H 0.51888 0.97381 0.96719 0.0
H1618 H 0.59928 0.01363 0.9887 0.0
H1619 H 0.62727 0.00884 0.96384 0.0
H1620 H 0.53157 0.95194 0.99856 0.0
H1621 H 0.53062 0.08201 0.99284 0.0
H1622 H 0.53984 0.05627 0.97675 0.0
H1623 H 0.56764 0.06345 0.99176 0.0
C1624 C 0.55855 0.97821 0.95259 0.0
C1625 C 0.589 0.98871 0.95131 0.0
C1626 C 0.54268 0.98097 0.96666 0.0
C1627 C 0.55687 0.99453 0.97967 0.0
C1628 C 0.58784 1.00345 0.9787 0.0
H1629 H 0.49368 0.05325 0.07006 0.0
H1630 H 0.521 0.0435 0.0457 0.0
C1631 C 0.60387 1.00048 0.96459 0.0
C1632 C 0.53849 1.00102 0.99386 0.0
H1633 H 0.50807 0.0608 0.0155 0.0
C1634 C 0.52641 0.97571 0.00231 0.0
C1635 C 0.53154 0.03207 0.99855 0.0
C1636 C 0.54282 0.0601 0.98947 0.0
C1637 C 0.50817 0.98064 0.01562 0.0
C1638 C 0.50132 0.01173 0.02036 0.0
C1639 C 0.51324 0.037 0.01181 0.0
C1640 C 0.48356 0.01862 0.03474 0.0
C1641 C 0.49712 0.95259 0.02473 0.0
C1642 C 0.45303 0.00864 0.03652 0.0
C1643 C 0.43729 0.01412 0.05055 0.0
C1644 C 0.45193 0.0296 0.06295 0.0
C1645 C 0.482 0.04072 0.06081 0.0
C1646 C 0.49761 0.03529 0.04687 0.0
H1647 H 0.50988 0.93089 0.02158 0.0
H1648 H 0.49953 0.95668 0.03747 0.0
H1649 H 0.47248 0.94862 0.0222 0.0
H1650 H 0.44153 0.99633 0.02715 0.0
H1651 H 0.41412 1.00541 0.05187 0.0
H1652 H 0.73597 0.66727 0.30375 0.0
H1653 H 0.74899 0.71493 0.28897 0.0
H1654 H 0.76266 0.65877 0.24762 0.0
H1655 H 0.75191 0.61161 0.26237 0.0
H1656 H 0.80445 0.70136 0.24866 0.0
H1657 H 0.69268 0.76008 0.26003 0.0
H1658 H 0.71534 0.75191 0.27701 0.0
H1659 H 0.69994 0.72004 0.26569 0.0
C1660 C 0.74215 0.66515 0.29156 0.0
C1661 C 0.74205 0.63557 0.2842 0.0
C1662 C 0.7492 0.69248 0.28304 0.0
C1663 C 0.75601 0.69076 0.26698 0.0
C1664 C 0.75722 0.66105 0.25991 0.0
H1665 H 0.72284 0.80067 0.18808 0.0
H1666 H 0.72195 0.77395 0.21311 0.0
C1667 C 0.75064 0.63396 0.26837 0.0
C1668 C 0.76138 0.71926 0.25712 0.0
H1669 H 0.72611 0.78481 0.2426 0.0
C1670 C 0.78745 0.71982 0.24746 0.0
C1671 C 0.73925 0.74346 0.25549 0.0
C1672 C 0.7101 0.74388 0.26499 0.0
C1673 C 0.79102 0.7423 0.23558 0.0
C1674 C 0.76851 0.76607 0.23367 0.0
C1675 C 0.74344 0.76676 0.24402 0.0
C1676 C 0.76806 0.78724 0.21971 0.0
C1677 C 0.81776 0.73874 0.2245 0.0
C1678 C 0.79362 0.80536 0.21524 0.0
C1679 C 0.79441 0.82027 0.2006 0.0
C1680 C 0.76943 0.81778 0.19031 0.0
C1681 C 0.74276 0.80251 0.19557 0.0
C1682 C 0.74217 0.78727 0.20998 0.0
H1683 H 0.8289 0.71535 0.22552 0.0
H1684 H 0.81032 0.7419 0.21223 0.0
H1685 H 0.83526 0.75679 0.22723 0.0
H1686 H 0.81351 0.80682 0.22273 0.0
H1687 H 0.81525 0.83199 0.19698 0.0
H1688 H 0.93313 0.96918 0.43785 0.0
H1689 H 0.95914 0.96093 0.46274 0.0
H1690 H 0.94193 0.05741 0.47538 0.0
H1691 H 0.91618 0.06587 0.45026 0.0
H1692 H 1.00347 0.04058 0.47708 0.0
H1693 H 0.93244 0.95266 0.50799 0.0
H1694 H 0.94183 0.94143 0.48837 0.0
H1695 H 0.91809 0.97534 0.49178 0.0
C1696 C 0.93405 0.98836 0.44616 0.0
C1697 C 0.92255 0.01814 0.44216 0.0
C1698 C 0.94888 0.98361 0.4604 0.0
C1699 C 0.95239 0.00849 0.47099 0.0
C1700 C 0.93939 0.03784 0.4674 0.0
H1701 H 0.05687 0.03083 0.5563 0.0
H1702 H 0.02811 0.03925 0.53222 0.0
C1703 C 0.9244 0.04258 0.45314 0.0
C1704 C 0.9724 1.00464 0.48489 0.0
H1705 H 0.98321 0.96031 0.51761 0.0
C1706 C 0.99888 0.02324 0.48603 0.0
C1707 C 0.96663 0.98175 0.49646 0.0
C1708 C 0.93806 0.96184 0.49621 0.0
C1709 C 0.01999 0.01921 0.49824 0.0
C1710 C 0.01426 0.99626 0.50979 0.0
C1711 C 0.98774 0.97771 0.50868 0.0
C1712 C 0.0347 0.99201 0.5235 0.0
C1713 C 0.0486 0.03906 0.49847 0.0
C1714 C 0.04829 0.96272 0.52658 0.0
C1715 C 0.06479 0.95785 0.54039 0.0
C1716 C 0.06763 0.98209 0.55144 0.0
C1717 C 0.0551 0.01173 0.54799 0.0
C1718 C 0.03874 0.01661 0.5342 0.0
H1719 H 0.05391 0.04873 0.48675 0.0
H1720 H 0.04513 0.05912 0.50656 0.0
H1721 H 0.06866 0.02532 0.5026 0.0
H1722 H 0.04536 0.94338 0.51851 0.0
H1723 H 0.07381 0.93466 0.54283 0.0
H1724 H 0.70157 0.18519 0.70307 0.0
H1725 H 0.70554 0.21573 0.72734 0.0
H1726 H 0.80295 0.22517 0.72021 0.0
H1727 H 0.79906 0.19497 0.69599 0.0
H1728 H 0.74094 0.21071 0.75516 0.0
H1729 H 0.77264 0.31656 0.72113 0.0
H1730 H 0.75727 0.28165 0.71213 0.0
H1731 H 0.79694 0.28316 0.71774 0.0
C1732 C 0.72393 0.19301 0.70694 0.0
C1733 C 0.74998 0.18785 0.69761 0.0
C1734 C 0.72615 0.2107 0.72073 0.0
C1735 C 0.75442 0.2235 0.72536 0.0
C1736 C 0.78078 0.21626 0.71666 0.0
H1737 H 0.81491 0.3465 0.80066 0.0
H1738 H 0.81079 0.31591 0.77642 0.0
C1739 C 0.77857 0.19874 0.70291 0.0
C1740 C 0.75625 0.24558 0.73882 0.0
H1741 H 0.77532 0.32096 0.74867 0.0
C1742 C 0.7483 0.23484 0.75374 0.0
C1743 C 0.76589 0.27712 0.73695 0.0
C1744 C 0.77342 0.29048 0.72112 0.0
C1745 C 0.75035 0.25456 0.76688 0.0
C1746 C 0.76002 0.2861 0.76502 0.0
C1747 C 0.76794 0.29683 0.7501 0.0
C1748 C 0.76192 0.30817 0.77848 0.0
C1749 C 0.74283 0.2412 0.78272 0.0
C1750 C 0.73561 0.31545 0.7872 0.0
C1751 C 0.7379 0.33302 0.80093 0.0
C1752 C 0.76653 0.34391 0.8062 0.0
C1753 C 0.79252 0.33869 0.79683 0.0
C1754 C 0.79022 0.32096 0.78306 0.0
H1755 H 0.74357 0.21513 0.7827 0.0
H1756 H 0.75901 0.25001 0.7917 0.0
H1757 H 0.71933 0.24856 0.7861 0.0
H1758 H 0.71341 0.30656 0.78368 0.0
H1759 H 0.71744 0.33685 0.80787 0.0
H1760 H 0.25957 0.10806 0.75718 0.0
H1761 H 0.26996 0.15654 0.74347 0.0
H1762 H 0.24831 0.2096 0.78495 0.0
H1763 H 0.23574 0.16052 0.79864 0.0
H1764 H 0.22251 0.23658 0.76119 0.0
H1765 H 0.34113 0.21321 0.74332 0.0
H1766 H 0.31812 0.18095 0.73692 0.0
H1767 H 0.32188 0.18902 0.75752 0.0
C1768 C 0.25679 0.12996 0.76347 0.0
C1769 C 0.24624 0.13026 0.779 0.0
C1770 C 0.26341 0.15782 0.75564 0.0
C1771 C 0.26066 0.18695 0.76319 0.0
C1772 C 0.25089 0.18746 0.77886 0.0
H1773 H 0.31345 0.33073 0.69469 0.0
H1774 H 0.31273 0.30517 0.72034 0.0
C1775 C 0.24388 0.15937 0.78671 0.0
C1776 C 0.26575 0.21648 0.75413 0.0
H1777 H 0.31158 0.24687 0.72559 0.0
C1778 C 0.24235 0.23918 0.75367 0.0
C1779 C 0.29205 0.22089 0.74465 0.0
C1780 C 0.31982 0.19985 0.7458 0.0
C1781 C 0.2433 0.26438 0.74307 0.0
C1782 C 0.2677 0.26631 0.73215 0.0
C1783 C 0.29238 0.24525 0.7336 0.0
C1784 C 0.26648 0.28719 0.71812 0.0
C1785 C 0.21784 0.28835 0.74362 0.0
C1786 C 0.24052 0.28667 0.70844 0.0
C1787 C 0.24069 0.30183 0.69402 0.0
C1788 C 0.26714 0.3172 0.68857 0.0
C1789 C 0.29263 0.31929 0.69855 0.0
C1790 C 0.29231 0.30439 0.71318 0.0
H1791 H 0.21001 0.29215 0.75581 0.0
H1792 H 0.22508 0.31125 0.73868 0.0
H1793 H 0.1979 0.27947 0.73691 0.0
H1794 H 0.22057 0.27298 0.71157 0.0
H1795 H 0.22054 0.29997 0.68669 0.0
H1796 H 0.29179 0.69212 0.19957 0.0
H1797 H 0.29871 0.71983 0.22436 0.0
H1798 H 0.2023 0.70924 0.23426 0.0
H1799 H 0.19555 0.68093 0.20956 0.0
H1800 H 0.27204 0.77562 0.2305 0.0
H1801 H 0.23888 0.69112 0.27654 0.0
H1802 H 0.2473 0.67899 0.25681 0.0
H1803 H 0.21038 0.69528 0.26161 0.0
C1804 C 0.27236 0.6946 0.20737 0.0
C1805 C 0.24322 0.68399 0.20276 0.0
C1806 C 0.27624 0.71073 0.22145 0.0
C1807 C 0.25108 0.71669 0.23126 0.0
C1808 C 0.22223 0.70449 0.2271 0.0
H1809 H 0.2174 0.83312 0.31246 0.0
H1810 H 0.21369 0.80255 0.28836 0.0
C1811 C 0.21838 0.68813 0.213 0.0
C1812 C 0.25449 0.7383 0.24489 0.0
H1813 H 0.24252 0.74485 0.28417 0.0
C1814 C 0.26582 0.76876 0.24226 0.0
C1815 C 0.24629 0.72954 0.26025 0.0
C1816 C 0.23531 0.69686 0.26403 0.0
C1817 C 0.26855 0.79079 0.25444 0.0
C1818 C 0.26007 0.7821 0.26976 0.0
C1819 C 0.24892 0.75161 0.27241 0.0
C1820 C 0.26221 0.80422 0.28322 0.0
C1821 C 0.27969 0.82344 0.25073 0.0
C1822 C 0.29062 0.81631 0.28815 0.0
C1823 C 0.29276 0.83408 0.30193 0.0
C1824 C 0.26657 0.83981 0.31108 0.0
C1825 C 0.23799 0.82911 0.30565 0.0
C1826 C 0.23586 0.81146 0.29193 0.0
H1827 H 0.27799 0.82871 0.23807 0.0
H1828 H 0.26639 0.84135 0.25731 0.0
H1829 H 0.30412 0.82553 0.25417 0.0
H1830 H 0.31137 0.81071 0.28178 0.0
H1831 H 0.31515 0.84151 0.30594 0.0
H1832 H 0.93538 0.57267 0.54928 0.0
H1833 H 0.9664 0.56742 0.52551 0.0
H1834 H 0.97603 0.46813 0.53399 0.0
H1835 H 0.94482 0.47319 0.55759 0.0
H1836 H 0.02813 0.54492 0.52663 0.0
H1837 H 0.95626 0.47263 0.48706 0.0
H1838 H 0.94048 0.49401 0.50342 0.0
H1839 H 0.96017 0.45746 0.50649 0.0
C1840 C 0.94326 0.54959 0.54577 0.0
C1841 C 0.93767 0.52332 0.55524 0.0
C1842 C 0.96119 0.54666 0.53229 0.0
C1843 C 0.97342 0.51737 0.52798 0.0
C1844 C 0.96649 0.49086 0.53698 0.0
H1845 H 0.0972 0.45466 0.45441 0.0
H1846 H 0.06765 0.45782 0.47872 0.0
C1847 C 0.94875 0.49379 0.55047 0.0
C1848 C 0.9957 0.51494 0.51497 0.0
H1849 H 1.00822 0.47986 0.47972 0.0
C1850 C 0.02374 0.53085 0.51632 0.0
C1851 C 0.99005 0.49623 0.50166 0.0
C1852 C 0.96002 0.47928 0.49944 0.0
C1853 C 0.04644 0.52835 0.50476 0.0
C1854 C 0.04068 0.5099 0.49135 0.0
C1855 C 0.01269 0.49383 0.49005 0.0
C1856 C 0.06251 0.50835 0.47808 0.0
C1857 C 0.07656 0.54504 0.50714 0.0
C1858 C 0.07014 0.53576 0.46991 0.0
C1859 C 0.08721 0.53402 0.45615 0.0
C1860 C 0.09673 0.5048 0.4502 0.0
C1861 C 0.09052 0.47751 0.45882 0.0
C1862 C 0.07339 0.47927 0.47262 0.0
H1863 H 0.081 0.54963 0.5197 0.0
H1864 H 0.09597 0.5312 0.5023 0.0
H1865 H 0.07582 0.56802 0.50107 0.0
H1866 H 0.06159 0.55838 0.47373 0.0
H1867 H 0.09168 0.55542 0.44974 0.0
H1868 H 0.54843 0.52843 0.05837 0.0
H1869 H 0.52151 0.53725 0.03372 0.0
H1870 H 0.54822 0.445 0.01795 0.0
H1871 H 0.5749 0.43587 0.04276 0.0
H1872 H 0.53933 0.53496 0.00195 0.0
H1873 H 0.45349 0.44324 0.01641 0.0
H1874 H 0.4798 0.45888 0.03067 0.0
H1875 H 0.49276 0.4304 0.01665 0.0
C1876 C 0.54901 0.51024 0.04953 0.0
C1877 C 0.56362 0.48138 0.05252 0.0
C1878 C 0.53359 0.51529 0.03547 0.0
C1879 C 0.53225 0.49153 0.02415 0.0
C1880 C 0.54846 0.46343 0.02667 0.0
H1881 H 0.44104 0.47121 0.9355 0.0
H1882 H 0.46634 0.46344 0.96064 0.0
C1883 C 0.56405 0.45839 0.04074 0.0
C1884 C 0.51272 0.4958 0.0101 0.0
H1885 H 0.44904 0.46732 0.99168 0.0
C1886 C 0.51955 0.52024 0.99971 0.0
C1887 C 0.48678 0.4767 0.00726 0.0
C1888 C 0.47749 0.45098 0.01838 0.0
C1889 C 0.5016 0.5256 0.98635 0.0
C1890 C 0.47567 0.50646 0.98349 0.0
C1891 C 0.46878 0.4821 0.99393 0.0
C1892 C 0.45657 0.51018 0.96923 0.0
C1893 C 0.51114 0.55113 0.97518 0.0
C1894 C 0.44123 0.5385 0.96599 0.0
C1895 C 0.42663 0.54298 0.95159 0.0
C1896 C 0.4271 0.51915 0.94024 0.0
C1897 C 0.44046 0.49004 0.94401 0.0
C1898 C 0.45499 0.4856 0.95836 0.0
H1899 H 0.53522 0.55863 0.97713 0.0
H1900 H 0.50879 0.54317 0.9629 0.0
H1901 H 0.49612 0.5719 0.97687 0.0
H1902 H 0.44153 0.55756 0.97437 0.0
H1903 H 0.41669 0.56569 0.94899 0.0
H1904 H 0.26063 0.7004 0.12999 0.0
H1905 H 0.26764 0.74856 0.11448 0.0
H1906 H 0.222 0.80221 0.1504 0.0
H1907 H 0.21422 0.75461 0.1655 0.0
H1908 H 0.20409 0.81977 0.12128 0.0
H1909 H 0.33142 0.81527 0.12567 0.0
H1910 H 0.31292 0.78204 0.11682 0.0
H1911 H 0.30696 0.79018 0.13715 0.0
C1912 C 0.25178 0.72247 0.13439 0.0
C1913 C 0.23739 0.72391 0.14905 0.0
C1914 C 0.25603 0.74995 0.12562 0.0
C1915 C 0.24587 0.77909 0.13144 0.0
C1916 C 0.23021 0.7801 0.14571 0.0
H1917 H 0.29909 0.96911 0.12761 0.0
H1918 H 0.29309 0.91262 0.1313 0.0
C1919 C 0.22596 0.75288 0.15439 0.0
C1920 C 0.25215 0.8091 0.12327 0.0
H1921 H 0.30972 0.86069 0.11489 0.0
C1922 C 0.22718 0.82858 0.11962 0.0
C1923 C 0.28232 0.82061 0.12129 0.0
C1924 C 0.31003 0.80114 0.12551 0.0
C1925 C 0.23145 0.85976 0.11483 0.0
C1926 C 0.26163 0.87154 0.11319 0.0
C1927 C 0.28664 0.85158 0.11611 0.0
C1928 C 0.26762 0.90524 0.10995 0.0
C1929 C 0.20355 0.8803 0.11257 0.0
C1930 C 0.25605 0.91979 0.09651 0.0
C1931 C 0.25908 0.95221 0.09447 0.0
C1932 C 0.27426 0.97061 0.1057 0.0
C1933 C 0.28725 0.95569 0.11874 0.0
C1934 C 0.28387 0.92335 0.12085 0.0
H1935 H 0.18262 0.86973 0.11775 0.0
H1936 H 0.20704 0.90381 0.11788 0.0
H1937 H 0.19939 0.8835 0.09991 0.0
H1938 H 0.24412 0.90618 0.08774 0.0
H1939 H 0.24915 0.9629 0.08419 0.0
H1940 H 0.06336 0.47977 0.38668 0.0
H1941 H 0.01634 0.49882 0.37445 0.0
H1942 H 0.03895 0.59354 0.38812 0.0
H1943 H 0.08547 0.57416 0.40089 0.0
H1944 H 0.98582 0.57774 0.39939 0.0
H1945 H 0.98526 0.54463 0.33721 0.0
H1946 H 0.99457 0.51133 0.34903 0.0
H1947 H 0.01999 0.54466 0.34866 0.0
C1948 C 0.05898 0.50481 0.3864 0.0
C1949 C 0.07802 0.52556 0.39461 0.0
C1950 C 0.03206 0.51575 0.37939 0.0
C1951 C 0.02405 0.54772 0.38025 0.0
C1952 C 0.04461 0.56882 0.38726 0.0
H1953 H 0.83474 0.62123 0.36952 0.0
H1954 H 0.89112 0.62098 0.37028 0.0
C1955 C 0.07128 0.55781 0.39444 0.0
C1956 C 0.99228 0.55794 0.37646 0.0
H1957 H 0.93507 0.54984 0.34957 0.0
C1958 C 0.97498 0.5724 0.38832 0.0
C1959 C 0.97798 0.55092 0.36206 0.0
C1960 C 0.99558 0.53733 0.34848 0.0
C1961 C 0.9435 0.57822 0.38655 0.0
C1962 C 0.92891 0.5695 0.37251 0.0
C1963 C 0.94637 0.55643 0.36035 0.0
C1964 C 0.89509 0.57037 0.37101 0.0
C1965 C 0.92564 0.59188 0.40004 0.0
C1966 C 0.87883 0.54205 0.37101 0.0
C1967 C 0.84687 0.5421 0.37069 0.0
C1968 C 0.83039 0.57053 0.37025 0.0
C1969 C 0.84675 0.59896 0.36993 0.0
C1970 C 0.8789 0.59887 0.37035 0.0
H1971 H 0.93984 0.59428 0.41073 0.0
H1972 H 0.91692 0.61547 0.39681 0.0
H1973 H 0.90554 0.57688 0.40276 0.0
H1974 H 0.89091 0.51983 0.37158 0.0
H1975 H 0.8351 0.51974 0.37085 0.0
H1976 H 0.21489 0.03844 0.5793 0.0
H1977 H 0.21772 0.09605 0.57955 0.0
H1978 H 0.25534 0.09322 0.62603 0.0
H1979 H 0.25344 0.03613 0.6257 0.0
H1980 H 0.19227 0.14068 0.59791 0.0
H1981 H 0.3179 0.14618 0.60396 0.0
H1982 H 0.29826 0.11031 0.59895 0.0
H1983 H 0.30201 0.12216 0.61906 0.0
C1984 C 0.22376 0.05018 0.58955 0.0
C1985 C 0.23432 0.03274 0.6024 0.0
C1986 C 0.2254 0.08305 0.58967 0.0
C1987 C 0.23755 0.0989 0.60264 0.0
C1988 C 0.24688 0.08149 0.61568 0.0
H1989 H 0.21133 0.27191 0.6458 0.0
H1990 H 0.20417 0.22357 0.6312 0.0
C1991 C 0.24558 0.04881 0.61551 0.0
C1992 C 0.24021 0.13363 0.60291 0.0
H1993 H 0.28983 0.19166 0.61328 0.0
C1994 C 0.21372 0.15198 0.60096 0.0
C1995 C 0.26835 0.14858 0.60632 0.0
C1996 C 0.29827 0.13076 0.607 0.0
C1997 C 0.21418 0.18454 0.60364 0.0
C1998 C 0.24161 0.19887 0.60887 0.0
C1999 C 0.26858 0.18084 0.60953 0.0
C2000 C 0.24242 0.23116 0.61551 0.0
C2001 C 0.18511 0.20304 0.60106 0.0
C2002 C 0.26622 0.25195 0.6116 0.0
C2003 C 0.27104 0.27926 0.62036 0.0
C2004 C 0.25203 0.28636 0.63316 0.0
C2005 C 0.22674 0.26685 0.6362 0.0
C2006 C 0.22226 0.23937 0.62763 0.0
H2007 H 0.17172 0.19298 0.59123 0.0
H2008 H 0.17056 0.20159 0.61165 0.0
H2009 H 0.18992 0.2281 0.59851 0.0
H2010 H 0.28215 0.24617 0.60232 0.0
H2011 H 0.29085 0.29361 0.61773 0.0
H2012 H 0.7076 0.51172 0.83132 0.0
H2013 H 0.65203 0.51972 0.83381 0.0
H2014 H 0.65727 0.4975 0.88275 0.0
H2015 H 0.71249 0.48967 0.88045 0.0
H2016 H 0.60505 0.47833 0.84435 0.0
H2017 H 0.61408 0.58341 0.88218 0.0
H2018 H 0.64612 0.56835 0.87109 0.0
H2019 H 0.63564 0.55051 0.88933 0.0
C2020 C 0.69692 0.50849 0.84261 0.0
C2021 C 0.71465 0.50023 0.8557 0.0
C2022 C 0.66514 0.51306 0.844 0.0
C2023 C 0.65055 0.50974 0.85852 0.0
C2024 C 0.66809 0.50083 0.8715 0.0
H2025 H 0.46981 0.47611 0.89099 0.0
H2026 H 0.51993 0.47289 0.87838 0.0
C2027 C 0.69972 0.49619 0.87012 0.0
C2028 C 0.61702 0.51544 0.86028 0.0
H2029 H 0.56517 0.55817 0.88138 0.0
C2030 C 0.59627 0.49606 0.85228 0.0
C2031 C 0.60549 0.53895 0.8704 0.0
C2032 C 0.62646 0.56172 0.87863 0.0
C2033 C 0.56443 0.49847 0.85479 0.0
C2034 C 0.55306 0.5206 0.86572 0.0
C2035 C 0.57376 0.54106 0.87307 0.0
C2036 C 0.52034 0.52133 0.87078 0.0
C2037 C 0.54331 0.47709 0.84581 0.0
C2038 C 0.50343 0.54949 0.87055 0.0
C2039 C 0.47464 0.55137 0.87782 0.0
C2040 C 0.46244 0.52521 0.88562 0.0
C2041 C 0.47858 0.49661 0.88502 0.0
C2042 C 0.50722 0.49471 0.87773 0.0
H2043 H 0.55372 0.46983 0.83453 0.0
H2044 H 0.53911 0.45554 0.85274 0.0
H2045 H 0.52091 0.48857 0.84347 0.0
H2046 H 0.51313 0.5704 0.86534 0.0
H2047 H 0.46296 0.57382 0.87828 0.0
H2048 H 0.79332 0.06864 0.87891 0.0
H2049 H 0.78799 0.12523 0.87615 0.0
H2050 H 0.70929 0.12428 0.90662 0.0
H2051 H 0.71462 0.06721 0.90964 0.0
H2052 H 0.7361 0.15528 0.86403 0.0
H2053 H 0.76326 0.1967 0.92404 0.0
H2054 H 0.77355 0.15797 0.91718 0.0
H2055 H 0.73452 0.16665 0.92222 0.0
C2056 C 0.77494 0.08035 0.88514 0.0
C2057 C 0.75433 0.06332 0.89447 0.0
C2058 C 0.77198 0.11277 0.88356 0.0
C2059 C 0.74842 0.12899 0.89127 0.0
C2060 C 0.72794 0.11226 0.90077 0.0
H2061 H 0.70793 0.31603 0.85537 0.0
H2062 H 0.69908 0.26596 0.86866 0.0
C2063 C 0.73092 0.07964 0.9024 0.0
C2064 C 0.74461 0.16308 0.88843 0.0
H2065 H 0.75175 0.23548 0.90528 0.0
C2066 C 0.73916 0.17284 0.87307 0.0
C2067 C 0.74886 0.18583 0.90026 0.0
C2068 C 0.75558 0.17646 0.91686 0.0
C2069 C 0.73876 0.20471 0.86908 0.0
C2070 C 0.74318 0.22759 0.88087 0.0
C2071 C 0.74798 0.2179 0.89633 0.0
C2072 C 0.74575 0.26133 0.87688 0.0
C2073 C 0.73511 0.21351 0.85212 0.0
C2074 C 0.77422 0.27644 0.8782 0.0
C2075 C 0.77916 0.30527 0.87084 0.0
C2076 C 0.75572 0.31922 0.86201 0.0
C2077 C 0.72638 0.30562 0.86207 0.0
C2078 C 0.72137 0.27699 0.86957 0.0
H2079 H 0.73836 0.19303 0.84424 0.0
H2080 H 0.71166 0.22288 0.85019 0.0
H2081 H 0.75179 0.23197 0.84877 0.0
H2082 H 0.79331 0.26477 0.88384 0.0
H2083 H 0.80203 0.31515 0.87087 0.0
H2084 H 0.19481 0.4811 0.66691 0.0
H2085 H 0.13928 0.49058 0.66644 0.0
H2086 H 0.13611 0.46059 0.61843 0.0
H2087 H 0.19124 0.45119 0.61871 0.0
H2088 H 0.11132 0.52285 0.62561 0.0
H2089 H 0.06415 0.42764 0.66306 0.0
H2090 H 0.09669 0.44969 0.66994 0.0
H2091 H 0.10094 0.42406 0.65349 0.0
C2092 C 0.1822 0.47604 0.65633 0.0
C2093 C 0.1975 0.46555 0.64281 0.0
C2094 C 0.15049 0.48139 0.65611 0.0
C2095 C 0.13368 0.47616 0.64241 0.0
C2096 C 0.14874 0.46471 0.62911 0.0
H2097 H 0.95915 0.46494 0.6042 0.0
H2098 H 1.00559 0.45544 0.61939 0.0
C2099 C 0.18028 0.45938 0.62931 0.0
C2100 C 0.10095 0.48499 0.64128 0.0
H2101 H 0.02858 0.46086 0.65057 0.0
C2102 C 0.09317 0.5097 0.63126 0.0
C2103 C 0.07752 0.46763 0.64867 0.0
C2104 C 0.08498 0.44064 0.65937 0.0
C2105 C 0.06252 0.51668 0.62783 0.0
C2106 C 0.03894 0.49878 0.63487 0.0
C2107 C 0.0467 0.47477 0.64537 0.0
C2108 C 1.00675 0.50192 0.62958 0.0
C2109 C 0.05576 0.54187 0.61592 0.0
C2110 C 0.9909 0.5305 0.6311 0.0
C2111 C 0.9644 0.53606 0.62232 0.0
C2112 C 0.95345 0.51301 0.61199 0.0
C2113 C 0.96736 0.48321 0.61194 0.0
C2114 C 0.99382 0.47773 0.62066 0.0
H2115 H 0.07676 0.54977 0.60973 0.0
H2116 H 0.03909 0.53326 0.60713 0.0
H2117 H 0.04552 0.56253 0.62187 0.0
H2118 H 1.00031 0.5493 0.63813 0.0
H2119 H 0.95418 0.55924 0.62258 0.0
H2120 H 0.79719 0.96637 0.37104 0.0
H2121 H 0.79112 0.90972 0.36824 0.0
H2122 H 0.73346 0.90787 0.40907 0.0
H2123 H 0.73936 0.96491 0.41201 0.0
H2124 H 0.80572 0.86135 0.39052 0.0
H2125 H 0.6821 0.86294 0.37457 0.0
H2126 H 0.70593 0.8975 0.37344 0.0
H2127 H 0.69267 0.88374 0.39203 0.0
C2128 C 0.7832 0.95405 0.37948 0.0
C2129 C 0.76869 0.97034 0.39175 0.0
C2130 C 0.7798 0.92158 0.37784 0.0
C2131 C 0.76155 0.90458 0.38832 0.0
C2132 C 0.7473 0.92059 0.40072 0.0
H2133 H 0.71387 0.70482 0.38919 0.0
H2134 H 0.71684 0.76125 0.39451 0.0
C2135 C 0.75087 0.95317 0.40244 0.0
C2136 C 0.75789 0.8701 0.3862 0.0
H2137 H 0.70599 0.81337 0.37634 0.0
C2138 C 0.78391 0.85083 0.38746 0.0
C2139 C 0.72939 0.85639 0.38226 0.0
C2140 C 0.70088 0.87611 0.38037 0.0
C2141 C 0.78223 0.81827 0.38491 0.0
C2142 C 0.75389 0.8046 0.38057 0.0
C2143 C 0.72773 0.82381 0.37959 0.0
C2144 C 0.7511 0.77051 0.37684 0.0
C2145 C 0.8108 0.79875 0.38713 0.0
C2146 C 0.76871 0.75698 0.36485 0.0
C2147 C 0.76712 0.72472 0.36181 0.0
C2148 C 0.74764 0.70525 0.37059 0.0
C2149 C 0.72917 0.71905 0.38222 0.0
C2150 C 0.73086 0.75134 0.38528 0.0
H2151 H 0.82769 0.81081 0.39475 0.0
H2152 H 0.8053 0.77557 0.39232 0.0
H2153 H 0.82184 0.79473 0.37563 0.0
H2154 H 0.7839 0.77137 0.35789 0.0
H2155 H 0.78149 0.715 0.35268 0.0
H2156 H 0.50389 0.44199 0.09437 0.0
H2157 H 0.45913 0.45322 0.11053 0.0
H2158 H 0.51459 0.51115 0.14063 0.0
H2159 H 0.55971 0.50029 0.1241 0.0
H2160 H 0.44333 0.44649 0.14141 0.0
H2161 H 0.44981 0.57257 0.12463 0.0
H2162 H 0.47302 0.5429 0.11532 0.0
H2163 H 0.48257 0.55655 0.13453 0.0
C2164 C 0.50666 0.45666 0.10461 0.0
C2165 C 0.53511 0.47054 0.10793 0.0
C2166 C 0.48108 0.46303 0.11385 0.0
C2167 C 0.48331 0.48352 0.12663 0.0
C2168 C 0.51222 0.49574 0.13065 0.0
H2169 H 0.30555 0.51522 0.17492 0.0
H2170 H 0.36052 0.50458 0.1717 0.0
C2171 C 0.53801 0.48929 0.12133 0.0
C2172 C 0.45464 0.49367 0.13462 0.0
H2173 H 0.40595 0.55627 0.13805 0.0
C2174 C 0.43534 0.4706 0.14097 0.0
C2175 C 0.44411 0.5251 0.13385 0.0
C2176 C 0.46325 0.55077 0.12664 0.0
C2177 C 0.40533 0.47777 0.14586 0.0
C2178 C 0.39451 0.50903 0.14465 0.0
C2179 C 0.41434 0.53237 0.13903 0.0
C2180 C 0.36174 0.5173 0.14727 0.0
C2181 C 0.38485 0.45147 0.15134 0.0
C2182 C 0.34435 0.52897 0.1348 0.0
C2183 C 0.31314 0.53531 0.13663 0.0
C2184 C 0.29846 0.53019 0.15102 0.0
C2185 C 0.31607 0.51931 0.16367 0.0
C2186 C 0.34747 0.51302 0.16182 0.0
H2187 H 0.39489 0.42799 0.14887 0.0
H2188 H 0.38139 0.45351 0.16412 0.0
H2189 H 0.36203 0.45292 0.14565 0.0
H2190 H 0.35482 0.5325 0.12347 0.0
H2191 H 0.30042 0.5437 0.12662 0.0
H2192 H 0.73671 0.46496 0.62663 0.0
H2193 H 0.74043 0.40825 0.62976 0.0
H2194 H 0.81422 0.40504 0.59631 0.0
H2195 H 0.81064 0.46223 0.59299 0.0
H2196 H 0.76591 0.35642 0.59288 0.0
H2197 H 0.8135 0.36497 0.65269 0.0
H2198 H 0.77955 0.38812 0.64971 0.0
H2199 H 0.81401 0.39746 0.63918 0.0
C2200 C 0.75376 0.45234 0.61988 0.0
C2201 C 0.77354 0.46824 0.60963 0.0
C2202 C 0.75585 0.41987 0.62172 0.0
C2203 C 0.77779 0.40253 0.6134 0.0
C2204 C 0.79719 0.41808 0.60288 0.0
H2205 H 0.80945 0.21414 0.6485 0.0
H2206 H 0.82014 0.26351 0.635 0.0
C2207 C 0.79517 0.45073 0.60104 0.0
C2208 C 0.78058 0.3683 0.61612 0.0
H2209 H 0.79339 0.31529 0.64512 0.0
C2210 C 0.77236 0.34728 0.60422 0.0
C2211 C 0.78943 0.35647 0.63083 0.0
C2212 C 0.79991 0.37788 0.64381 0.0
C2213 C 0.77129 0.3147 0.60692 0.0
C2214 C 0.77827 0.30305 0.62196 0.0
C2215 C 0.78792 0.3241 0.63359 0.0
C2216 C 0.77383 0.26965 0.62645 0.0
C2217 C 0.76245 0.29317 0.5937 0.0
C2218 C 0.74463 0.25584 0.62552 0.0
C2219 C 0.73864 0.22735 0.63305 0.0
C2220 C 0.76164 0.21252 0.64182 0.0
C2221 C 0.79139 0.22509 0.64174 0.0
C2222 C 0.79745 0.25335 0.6341 0.0
H2223 H 0.76818 0.30371 0.58222 0.0
H2224 H 0.77411 0.27006 0.59466 0.0
H2225 H 0.73731 0.28926 0.59401 0.0
H2226 H 0.72583 0.2682 0.62002 0.0
H2227 H 0.7154 0.21841 0.63316 0.0
H2228 H 0.57777 0.06821 0.90772 0.0
H2229 H 0.53081 0.08574 0.89472 0.0
H2230 H 0.52493 0.99692 0.87079 0.0
H2231 H 0.57201 0.9793 0.88377 0.0
H2232 H 0.50099 0.07386 0.85727 0.0
H2233 H 0.45649 0.01411 0.91057 0.0
H2234 H 0.49297 0.03403 0.91073 0.0
H2235 H 0.48893 0.99782 0.90029 0.0
C2236 C 0.5673 0.05308 0.89907 0.0
C2237 C 0.57837 0.0224 0.89675 0.0
C2238 C 0.5405 0.06311 0.89167 0.0
C2239 C 0.52444 0.04256 0.88188 0.0
C2240 C 0.53724 0.01318 0.87822 0.0
H2241 H 0.33431 0.01426 0.86502 0.0
H2242 H 0.38966 0.0119 0.86786 0.0
C2243 C 0.56417 1.00317 0.88558 0.0
C2244 C 0.49175 0.04874 0.8785 0.0
H2245 H 0.42043 0.03484 0.89325 0.0
C2246 C 0.48327 0.06546 0.86509 0.0
C2247 C 0.46888 0.03785 0.88883 0.0
C2248 C 0.47701 0.01998 0.90346 0.0
C2249 C 0.45215 0.07091 0.86158 0.0
C2250 C 0.42926 0.05965 0.87186 0.0
C2251 C 0.438 0.04346 0.88539 0.0
C2252 C 0.39596 0.06224 0.8685 0.0
C2253 C 0.44393 0.08777 0.84671 0.0
C2254 C 0.38098 0.09146 0.86776 0.0
C2255 C 0.34898 0.09294 0.86605 0.0
C2256 C 0.33158 0.06521 0.86528 0.0
C2257 C 0.34687 0.03612 0.86574 0.0
C2258 C 0.37861 0.03469 0.86731 0.0
H2259 H 0.46378 0.08944 0.83862 0.0
H2260 H 0.42483 0.07564 0.84065 0.0
H2261 H 0.4362 0.11194 0.84956 0.0
H2262 H 0.39386 0.11303 0.86895 0.0
H2263 H 0.33785 0.11568 0.86575 0.0
H2264 H 0.80277 0.78425 0.12308 0.0
H2265 H 0.79521 0.73461 0.10912 0.0
H2266 H 0.7079 0.72273 0.13202 0.0
H2267 H 0.71498 0.77256 0.14564 0.0
H2268 H 0.79117 0.67958 0.12504 0.0
H2269 H 0.68794 0.69337 0.08828 0.0
H2270 H 0.70875 0.72653 0.09603 0.0
H2271 H 0.68147 0.70593 0.10799 0.0
C2272 C 0.78146 0.77162 0.12467 0.0
C2273 C 0.75951 0.78219 0.13549 0.0
C2274 C 0.77725 0.74317 0.11677 0.0
C2275 C 0.7509 0.72502 0.11944 0.0
C2276 C 0.72813 0.73655 0.12952 0.0
H2277 H 0.6937 0.53348 0.11455 0.0
H2278 H 0.6985 0.59039 0.11726 0.0
C2279 C 0.73233 0.76491 0.13741 0.0
C2280 C 0.74907 0.69228 0.11356 0.0
H2281 H 0.70209 0.64027 0.09491 0.0
C2282 C 0.772 0.6711 0.11819 0.0
C2283 C 0.72389 0.68119 0.10475 0.0
C2284 C 0.69928 0.70303 0.09884 0.0
C2285 C 0.76979 0.63893 0.11486 0.0
C2286 C 0.74419 0.62769 0.10643 0.0
C2287 C 0.72165 0.64895 0.10141 0.0
C2288 C 0.73985 0.5937 0.10342 0.0
C2289 C 0.79418 0.61704 0.12104 0.0
C2290 C 0.76108 0.57682 0.09439 0.0
C2291 C 0.75852 0.54426 0.09286 0.0
C2292 C 0.73452 0.52792 0.10026 0.0
C2293 C 0.71253 0.54517 0.10873 0.0
C2294 C 0.71518 0.57775 0.11028 0.0
H2295 H 0.80861 0.62844 0.13008 0.0
H2296 H 0.78371 0.59562 0.12612 0.0
H2297 H 0.80939 0.60968 0.11131 0.0
H2298 H 0.78001 0.58878 0.08879 0.0
H2299 H 0.77575 0.53187 0.08613 0.0
H2300 H 0.20761 0.9807 0.38322 0.0
H2301 H 0.15225 0.98769 0.3851 0.0
H2302 H 0.14877 0.01452 0.33668 0.0
H2303 H 0.20446 1.00722 0.33461 0.0
H2304 H 0.11996 0.04289 0.38005 0.0
H2305 H 0.08029 0.94845 0.34007 0.0
H2306 H 0.11887 0.94981 0.34765 0.0
H2307 H 0.10767 0.9756 0.33212 0.0
C2308 C 0.19516 0.98783 0.37289 0.0
C2309 C 0.2106 0.99335 0.35874 0.0
C2310 C 0.16343 0.99186 0.37401 0.0
C2311 C 0.14625 1.00139 0.36102 0.0
C2312 C 0.16145 1.00665 0.3468 0.0
H2313 H 0.95903 0.07032 0.37962 0.0
H2314 H 0.00951 0.06586 0.36708 0.0
C2315 C 0.19333 1.00258 0.34566 0.0
C2316 C 0.11271 1.00702 0.36277 0.0
H2317 H 0.04212 0.97997 0.35181 0.0
C2318 C 0.10292 0.02936 0.37376 0.0
C2319 C 0.09051 0.98921 0.35461 0.0
C2320 C 0.0997 0.96423 0.34302 0.0
C2321 C 0.07169 0.03385 0.37713 0.0
C2322 C 0.04943 0.0159 0.36907 0.0
C2323 C 0.05915 0.99399 0.35783 0.0
C2324 C 0.01642 0.01723 0.37349 0.0
C2325 C 0.06292 0.05668 0.38988 0.0
C2326 C 1.00264 0.99085 0.38029 0.0
C2327 C 0.97374 0.99325 0.38727 0.0
C2328 C 0.95797 0.0221 0.38757 0.0
C2329 C 0.97055 0.04777 0.37952 0.0
C2330 C 0.99956 0.04534 0.37252 0.0
H2331 H 0.083 0.06397 0.39696 0.0
H2332 H 0.0528 0.07805 0.38456 0.0
H2333 H 0.04554 0.04622 0.39778 0.0
H2334 H 0.01507 0.96887 0.3811 0.0
H2335 H 0.96452 0.97302 0.39329 0.0
H2336 H 0.20532 0.81448 0.35993 0.0
H2337 H 0.19458 0.76541 0.37371 0.0
H2338 H 0.28862 0.76169 0.38922 0.0
H2339 H 0.29899 0.81119 0.37594 0.0
H2340 H 0.22077 0.71431 0.36388 0.0
H2341 H 0.24739 0.72482 0.42652 0.0
H2342 H 0.24151 0.75878 0.41428 0.0
H2343 H 0.27844 0.73975 0.41504 0.0
C2344 C 0.22325 0.80382 0.36688 0.0
C2345 C 0.25295 0.81651 0.36691 0.0
C2346 C 0.21716 0.77576 0.3747 0.0
C2347 C 0.24074 0.75979 0.38256 0.0
C2348 C 0.26981 0.77382 0.3836 0.0
H2349 H 0.28697 0.56836 0.37865 0.0
H2350 H 0.27906 0.62484 0.37658 0.0
C2351 C 0.27579 0.80213 0.37596 0.0
C2352 C 0.23675 0.72631 0.38694 0.0
H2353 H 0.25333 0.67245 0.41521 0.0
C2354 C 0.22721 0.70534 0.37525 0.0
C2355 C 0.24492 0.7144 0.40177 0.0
C2356 C 0.25331 0.73573 0.41515 0.0
C2357 C 0.2274 0.67284 0.37767 0.0
C2358 C 0.238 0.66087 0.39204 0.0
C2359 C 0.24568 0.68173 0.4041 0.0
C2360 C 0.24349 0.62686 0.39415 0.0
C2361 C 0.21703 0.65152 0.36463 0.0
C2362 C 0.22667 0.60943 0.40506 0.0
C2363 C 0.23118 0.57695 0.40632 0.0
C2364 C 0.25272 0.56156 0.39674 0.0
C2365 C 0.27004 0.57937 0.38613 0.0
C2366 C 0.26552 0.61167 0.3849 0.0
H2367 H 0.20148 0.66392 0.35642 0.0
H2368 H 0.23736 0.64342 0.35793 0.0
H2369 H 0.20501 0.63054 0.36926 0.0
H2370 H 0.20966 0.62082 0.41235 0.0
H2371 H 0.21752 0.5639 0.41463 0.0
H2372 H 0.44374 0.98422 0.1284 0.0
H2373 H 0.48808 0.96942 0.1445 0.0
H2374 H 0.53571 0.05248 0.12897 0.0
H2375 H 0.49132 0.06755 0.11354 0.0
H2376 H 0.53935 0.9534 0.13212 0.0
H2377 H 0.56705 0.04995 0.17208 0.0
H2378 H 0.52999 0.04706 0.16282 0.0
H2379 H 0.56152 0.06626 0.15307 0.0
C2380 C 0.46313 1.0 0.12916 0.0
C2381 C 0.46414 0.02718 0.11996 0.0
C2382 C 0.48855 0.99146 0.13822 0.0
C2383 C 0.51529 0.00996 0.13813 0.0
C2384 C 0.51523 0.03823 0.12972 0.0
H2385 H 0.6967 0.96086 0.12128 0.0
H2386 H 0.64146 0.96805 0.12276 0.0
C2387 C 0.48986 0.04683 0.12082 0.0
C2388 C 0.54486 0.99749 0.14422 0.0
H2389 H 0.6117 0.02153 0.1611 0.0
C2390 C 0.55482 0.96799 0.13886 0.0
C2391 C 0.5651 0.01599 0.15328 0.0
C2392 C 0.55512 0.0464 0.16077 0.0
C2393 C 0.58512 0.95785 0.14108 0.0
C2394 C 0.60633 0.97811 0.14844 0.0
C2395 C 0.59571 1.00627 0.15509 0.0
C2396 C 0.6399 0.97207 0.14793 0.0
C2397 C 0.59424 0.92584 0.13509 0.0
C2398 C 0.65775 0.9728 0.16156 0.0
C2399 C 0.68966 0.96913 0.16072 0.0
C2400 C 0.70427 0.96476 0.14623 0.0
C2401 C 0.68626 0.96383 0.13265 0.0
C2402 C 0.65452 0.9677 0.13349 0.0
H2403 H 0.57455 0.90935 0.1355 0.0
H2404 H 0.60151 0.92783 0.12272 0.0
H2405 H 0.61345 0.91572 0.14193 0.0
H2406 H 0.64703 0.97646 0.17282 0.0
H2407 H 0.70287 0.97008 0.1714 0.0
H2408 H 0.29985 0.46392 0.8718 0.0
H2409 H 0.29343 0.40754 0.86864 0.0
H2410 H 0.23184 0.40579 0.90799 0.0
H2411 H 0.23868 0.4626 0.91149 0.0
H2412 H 0.27175 0.35714 0.90884 0.0
H2413 H 0.22086 0.36308 0.84992 0.0
H2414 H 0.25716 0.3827 0.85071 0.0
H2415 H 0.22544 0.39737 0.86208 0.0
C2416 C 0.28487 0.4517 0.87983 0.0
C2417 C 0.26962 0.468 0.89187 0.0
C2418 C 0.28103 0.41936 0.8779 0.0
C2419 C 0.2615 0.40242 0.88779 0.0
C2420 C 0.24679 0.41838 0.90009 0.0
H2421 H 0.21115 0.20681 0.866 0.0
H2422 H 0.20929 0.26375 0.87044 0.0
C2423 C 0.25077 0.45087 0.9021 0.0
C2424 C 0.25729 0.36796 0.88546 0.0
H2425 H 0.24018 0.31272 0.8578 0.0
C2426 C 0.26454 0.34746 0.89772 0.0
C2427 C 0.24729 0.35517 0.87106 0.0
C2428 C 0.23692 0.37575 0.85775 0.0
C2429 C 0.26334 0.31468 0.89579 0.0
C2430 C 0.25537 0.30191 0.88106 0.0
C2431 C 0.24681 0.32239 0.86901 0.0
C2432 C 0.25657 0.26748 0.87785 0.0
C2433 C 0.27051 0.29405 0.90961 0.0
C2434 C 0.28397 0.25071 0.88005 0.0
C2435 C 0.28506 0.21826 0.87757 0.0
C2436 C 0.25888 0.20177 0.87262 0.0
C2437 C 0.23174 0.21875 0.86981 0.0
C2438 C 0.23062 0.2513 0.87239 0.0
H2439 H 0.26641 0.3066 0.92079 0.0
H2440 H 0.25646 0.27234 0.90948 0.0
H2441 H 0.29507 0.28725 0.90923 0.0
H2442 H 0.30457 0.2627 0.88378 0.0
H2443 H 0.30645 0.20606 0.8797 0.0
H2444 H 0.04095 0.03066 0.60248 0.0
H2445 H 0.9946 0.03797 0.61805 0.0
H2446 H 0.9981 0.94077 0.63196 0.0
H2447 H 0.04441 0.93324 0.61607 0.0
H2448 H 0.94427 0.95574 0.61838 0.0
H2449 H 0.96959 0.045 0.66329 0.0
H2450 H 0.98181 0.05769 0.64435 0.0
H2451 H 0.99943 0.02376 0.65312 0.0
C2452 C 0.0324 0.01111 0.60928 0.0
C2453 C 0.04624 0.98137 0.60805 0.0
C2454 C 1.00597 0.01536 0.61827 0.0
C2455 C 0.9929 0.99 0.62631 0.0
C2456 C 1.00787 0.96073 0.62594 0.0
H2457 H 0.81123 0.01415 0.67116 0.0
H2458 H 0.86585 1.0016 0.66774 0.0
C2459 C 0.03445 0.95649 0.61696 0.0
C2460 C 0.96146 0.99307 0.63292 0.0
H2461 H 0.91621 0.04053 0.6555 0.0
C2462 C 0.93829 0.97386 0.62676 0.0
C2463 C 0.95352 0.01655 0.64393 0.0
C2464 C 0.97749 0.03669 0.65167 0.0
C2465 C 0.90733 0.97871 0.63057 0.0
C2466 C 0.89922 1.00367 0.64066 0.0
C2467 C 0.92244 0.02167 0.64759 0.0
C2468 C 0.86666 0.01267 0.64314 0.0
C2469 C 0.88344 0.95754 0.62342 0.0
C2470 C 0.84928 0.02375 0.63054 0.0
C2471 C 0.81828 0.03102 0.63244 0.0
C2472 C 0.80387 0.02743 0.64702 0.0
C2473 C 0.82155 0.01713 0.65977 0.0
C2474 C 0.85275 0.00994 0.65784 0.0
H2475 H 0.8935 0.93483 0.61957 0.0
H2476 H 0.8646 0.95276 0.63181 0.0
H2477 H 0.87344 0.96924 0.61305 0.0
H2478 H 0.85969 0.0265 0.61915 0.0
H2479 H 0.80552 0.03903 0.62237 0.0
loop_
_geom_bond_atom_site_label_1
_geom_bond_atom_site_label_2
_geom_bond_distance
_geom_bond_site_symmetry_2
_ccdc_geom_bond_type
O0 Tb1 2.292 . S
O0 C3 1.255 . S
Tb1 O0 2.292 . S
Tb1 O17 2.326 . S
Tb1 O19 2.500 . S
Tb1 O20 2.473 . S
Tb1 O23 2.324 . S
Eu2 O6 2.292 . S
Eu2 C7 2.852 . S
Eu2 O18 2.324 . S
Eu2 O22 2.326 . S
Eu2 O24 2.500 . S
Eu2 O25 2.473 . S
C3 O0 1.255 . S
C3 O4 1.247 . S
O4 C3 1.247 . S
C5 O17 1.242 . S
C5 O18 1.258 . S
O6 Eu2 2.292 . S
O6 C8 1.255 . S
C7 Eu2 2.852 . S
C7 C11 1.503 . S
C7 O24 1.273 . S
C7 O25 1.257 . S
C8 O6 1.255 . S
C8 O9 1.247 . S
O9 C8 1.247 . S
C10 O22 1.242 . S
C10 O23 1.258 . S
C11 C7 1.503 . S
C11 C12 1.379 . S
C11 C16 1.392 . S
C12 C11 1.379 . S
C12 C13 1.404 . S
C12 H26 0.929 . S
C13 C12 1.404 . S
C13 C14 1.389 . S
C14 C13 1.389 . S
C14 C15 1.399 . S
C14 H27 0.931 . S
C15 C14 1.399 . S
C15 C16 1.390 . S
C16 C11 1.392 . S
C16 C15 1.390 . S
C16 H28 0.929 . S
O17 Tb1 2.326 . S
O17 C5 1.242 . S
O18 Eu2 2.324 . S
O18 C5 1.258 . S
O19 Tb1 2.500 . S
O19 C21 1.273 . S
O20 Tb1 2.473 . S
O20 C21 1.257 . S
C21 O19 1.273 . S
C21 O20 1.257 . S
O22 Eu2 2.326 . S
O22 C10 1.242 . S
O23 Tb1 2.324 . S
O23 C10 1.258 . S
O24 Eu2 2.500 . S
O24 C7 1.273 . S
O25 Eu2 2.473 . S
O25 C7 1.257 . S
H26 C12 0.929 . S
H27 C14 0.931 . S
H28 C16 0.929 . S
O29 Tb30 2.292 . S
O29 C32 1.255 . S
Tb30 O29 2.292 . S
Tb30 O46 2.326 . S
Tb30 O48 2.500 . S
Tb30 O49 2.473 . S
Tb30 O52 2.324 . S
Eu31 O35 2.292 . S
Eu31 C36 2.852 . S
Eu31 O47 2.324 . S
Eu31 O51 2.326 . S
Eu31 O53 2.500 . S
Eu31 O54 2.473 . S
C32 O29 1.255 . S
C32 O33 1.247 . S
O33 C32 1.247 . S
C34 O46 1.242 . S
C34 O47 1.258 . S
O35 Eu31 2.292 . S
O35 C37 1.255 . S
C36 Eu31 2.852 . S
C36 C40 1.503 . S
C36 O53 1.273 . S
C36 O54 1.257 . S
C37 O35 1.255 . S
C37 O38 1.247 . S
O38 C37 1.247 . S
C39 O51 1.242 . S
C39 O52 1.258 . S
C40 C36 1.503 . S
C40 C41 1.379 . S
C40 C45 1.392 . S
C41 C40 1.379 . S
C41 C42 1.404 . S
C41 H55 0.929 . S
C42 C41 1.404 . S
C42 C43 1.389 . S
C43 C42 1.389 . S
C43 C44 1.399 . S
C43 H56 0.931 . S
C44 C43 1.399 . S
C44 C45 1.390 . S
C45 C40 1.392 . S
C45 C44 1.390 . S
C45 H57 0.929 . S
O46 Tb30 2.326 . S
O46 C34 1.242 . S
O47 Eu31 2.324 . S
O47 C34 1.258 . S
O48 Tb30 2.500 . S
O48 C50 1.273 . S
O49 Tb30 2.473 . S
O49 C50 1.257 . S
C50 O48 1.273 . S
C50 O49 1.257 . S
O51 Eu31 2.326 . S
O51 C39 1.242 . S
O52 Tb30 2.324 . S
O52 C39 1.258 . S
O53 Eu31 2.500 . S
O53 C36 1.273 . S
O54 Eu31 2.473 . S
O54 C36 1.257 . S
H55 C41 0.929 . S
H56 C43 0.931 . S
H57 C45 0.929 . S
O58 Tb59 2.292 . S
O58 C61 1.255 . S
Tb59 O58 2.292 . S
Tb59 O75 2.326 . S
Tb59 O77 2.500 . S
Tb59 O78 2.473 . S
Tb59 O81 2.324 . S
Eu60 O64 2.292 . S
Eu60 C65 2.852 . S
Eu60 O76 2.324 . S
Eu60 O80 2.326 . S
Eu60 O82 2.500 . S
Eu60 O83 2.473 . S
C61 O58 1.255 . S
C61 O62 1.247 . S
O62 C61 1.247 . S
C63 O75 1.242 . S
C63 O76 1.258 . S
O64 Eu60 2.292 . S
O64 C66 1.255 . S
C65 Eu60 2.852 . S
C65 C69 1.503 . S
C65 O82 1.273 . S
C65 O83 1.257 . S
C66 O64 1.255 . S
C66 O67 1.247 . S
O67 C66 1.247 . S
C68 O80 1.242 . S
C68 O81 1.258 . S
C69 C65 1.503 . S
C69 C70 1.379 . S
C69 C74 1.392 . S
C70 C69 1.379 . S
C70 C71 1.404 . S
C70 H84 0.929 . S
C71 C70 1.404 . S
C71 C72 1.389 . S
C72 C71 1.389 . S
C72 C73 1.399 . S
C72 H85 0.931 . S
C73 C72 1.399 . S
C73 C74 1.390 . S
C74 C69 1.392 . S
C74 C73 1.390 . S
C74 H86 0.929 . S
O75 Tb59 2.326 . S
O75 C63 1.242 . S
O76 Eu60 2.324 . S
O76 C63 1.258 . S
O77 Tb59 2.500 . S
O77 C79 1.273 . S
O78 Tb59 2.473 . S
O78 C79 1.257 . S
C79 O77 1.273 . S
C79 O78 1.257 . S
O80 Eu60 2.326 . S
O80 C68 1.242 . S
O81 Tb59 2.324 . S
O81 C68 1.258 . S
O82 Eu60 2.500 . S
O82 C65 1.273 . S
O83 Eu60 2.473 . S
O83 C65 1.257 . S
H84 C70 0.929 . S
H85 C72 0.931 . S
H86 C74 0.929 . S
O87 Tb88 2.292 . S
O87 C90 1.255 . S
Tb88 O87 2.292 . S
Tb88 O104 2.326 . S
Tb88 O106 2.500 . S
Tb88 O107 2.473 . S
Tb88 O110 2.324 . S
Eu89 O93 2.292 . S
Eu89 C94 2.852 . S
Eu89 O105 2.324 . S
Eu89 O109 2.326 . S
Eu89 O111 2.500 . S
Eu89 O112 2.473 . S
C90 O87 1.255 . S
C90 O91 1.247 . S
O91 C90 1.247 . S
C92 O104 1.242 . S
C92 O105 1.258 . S
O93 Eu89 2.292 . S
O93 C95 1.255 . S
C94 Eu89 2.852 . S
C94 C98 1.503 . S
C94 O111 1.273 . S
C94 O112 1.257 . S
C95 O93 1.255 . S
C95 O96 1.247 . S
O96 C95 1.247 . S
C97 O109 1.242 . S
C97 O110 1.258 . S
C98 C94 1.503 . S
C98 C99 1.379 . S
C98 C103 1.392 . S
C99 C98 1.379 . S
C99 C100 1.404 . S
C99 H113 0.929 . S
C100 C99 1.404 . S
C100 C101 1.389 . S
C101 C100 1.389 . S
C101 C102 1.399 . S
C101 H114 0.931 . S
C102 C101 1.399 . S
C102 C103 1.390 . S
C103 C98 1.392 . S
C103 C102 1.390 . S
C103 H115 0.929 . S
O104 Tb88 2.326 . S
O104 C92 1.242 . S
O105 Eu89 2.324 . S
O105 C92 1.258 . S
O106 Tb88 2.500 . S
O106 C108 1.273 . S
O107 Tb88 2.473 . S
O107 C108 1.257 . S
C108 O106 1.273 . S
C108 O107 1.257 . S
O109 Eu89 2.326 . S
O109 C97 1.242 . S
O110 Tb88 2.324 . S
O110 C97 1.258 . S
O111 Eu89 2.500 . S
O111 C94 1.273 . S
O112 Eu89 2.473 . S
O112 C94 1.257 . S
H113 C99 0.929 . S
H114 C101 0.931 . S
H115 C103 0.929 . S
O116 Tb117 2.292 . S
O116 C119 1.255 . S
Tb117 O116 2.292 . S
Tb117 O133 2.326 . S
Tb117 O135 2.500 . S
Tb117 O136 2.473 . S
Tb117 O139 2.297 1_565 S
Eu118 O122 2.292 . S
Eu118 C123 2.852 . S
Eu118 O134 2.324 . S
Eu118 O138 2.326 . S
Eu118 O140 2.500 . S
Eu118 O141 2.473 . S
C119 O116 1.255 . S
C119 O120 1.247 . S
O120 C119 1.247 . S
C121 O133 1.242 . S
C121 O134 1.258 . S
O122 Eu118 2.292 . S
O122 C124 1.255 . S
C123 Eu118 2.852 . S
C123 C127 1.503 . S
C123 O140 1.273 . S
C123 O141 1.257 . S
C124 O122 1.255 . S
C124 O125 1.247 . S
O125 C124 1.247 . S
C126 O138 1.230 1_545 S
C126 O139 1.258 . S
C127 C123 1.503 . S
C127 C128 1.379 . S
C127 C132 1.392 . S
C128 C127 1.379 . S
C128 C129 1.404 . S
C128 H142 0.929 . S
C129 C128 1.404 . S
C129 C130 1.389 . S
C130 C129 1.389 . S
C130 C131 1.399 . S
C130 H143 0.931 . S
C131 C130 1.399 . S
C131 C132 1.390 . S
C132 C127 1.392 . S
C132 C131 1.390 . S
C132 H144 0.929 . S
O133 Tb117 2.326 . S
O133 C121 1.242 . S
O134 Eu118 2.324 . S
O134 C121 1.258 . S
O135 Tb117 2.500 . S
O135 C137 1.273 . S
O136 Tb117 2.473 . S
O136 C137 1.257 . S
C137 O135 1.273 . S
C137 O136 1.257 . S
O138 Eu118 2.326 . S
O138 C126 1.230 1_565 S
O139 Tb117 2.297 1_545 S
O139 C126 1.258 . S
O140 Eu118 2.500 . S
O140 C123 1.273 . S
O141 Eu118 2.473 . S
O141 C123 1.257 . S
H142 C128 0.929 . S
H143 C130 0.931 . S
H144 C132 0.929 . S
O145 Tb146 2.292 . S
O145 C148 1.255 . S
Tb146 O145 2.292 . S
Tb146 O162 2.326 . S
Tb146 O164 2.500 . S
Tb146 O165 2.473 . S
Tb146 O168 2.324 . S
Eu147 O151 2.292 . S
Eu147 C152 2.852 . S
Eu147 O163 2.324 . S
Eu147 O167 2.326 . S
Eu147 O169 2.500 . S
Eu147 O170 2.473 . S
C148 O145 1.255 . S
C148 O149 1.247 . S
O149 C148 1.247 . S
C150 O162 1.242 . S
C150 O163 1.258 . S
O151 Eu147 2.292 . S
O151 C153 1.255 . S
C152 Eu147 2.852 . S
C152 C156 1.503 . S
C152 O169 1.273 . S
C152 O170 1.257 . S
C153 O151 1.255 . S
C153 O154 1.247 . S
O154 C153 1.247 . S
C155 O167 1.242 . S
C155 O168 1.258 . S
C156 C152 1.503 . S
C156 C157 1.379 . S
C156 C161 1.392 . S
C157 C156 1.379 . S
C157 C158 1.404 . S
C157 H171 0.929 . S
C158 C157 1.404 . S
C158 C159 1.389 . S
C159 C158 1.389 . S
C159 C160 1.399 . S
C159 H172 0.931 . S
C160 C159 1.399 . S
C160 C161 1.390 . S
C161 C156 1.392 . S
C161 C160 1.390 . S
C161 H173 0.929 . S
O162 Tb146 2.326 . S
O162 C150 1.242 . S
O163 Eu147 2.324 . S
O163 C150 1.258 . S
O164 Tb146 2.500 . S
O164 C166 1.273 . S
O165 Tb146 2.473 . S
O165 C166 1.257 . S
C166 O164 1.273 . S
C166 O165 1.257 . S
O167 Eu147 2.326 . S
O167 C155 1.242 . S
O168 Tb146 2.324 . S
O168 C155 1.258 . S
O169 Eu147 2.500 . S
O169 C152 1.273 . S
O170 Eu147 2.473 . S
O170 C152 1.257 . S
H171 C157 0.929 . S
H172 C159 0.931 . S
H173 C161 0.929 . S
O174 Tb175 2.292 . S
O174 C177 1.255 . S
Tb175 O174 2.292 . S
Tb175 O191 2.326 . S
Tb175 O193 2.500 . S
Tb175 O194 2.473 . S
Tb175 O197 2.324 . S
Eu176 O180 2.292 . S
Eu176 C181 2.852 . S
Eu176 O192 2.324 . S
Eu176 O196 2.326 . S
Eu176 O198 2.500 . S
Eu176 O199 2.473 . S
C177 O174 1.255 . S
C177 O178 1.247 . S
O178 C177 1.247 . S
C179 O191 1.242 . S
C179 O192 1.258 . S
O180 Eu176 2.292 . S
O180 C182 1.255 . S
C181 Eu176 2.852 . S
C181 C185 1.503 . S
C181 O198 1.273 . S
C181 O199 1.257 . S
C182 O180 1.255 . S
C182 O183 1.247 . S
O183 C182 1.247 . S
C184 O196 1.242 . S
C184 O197 1.258 . S
C185 C181 1.503 . S
C185 C186 1.379 . S
C185 C190 1.392 . S
C186 C185 1.379 . S
C186 C187 1.404 . S
C186 H200 0.929 . S
C187 C186 1.404 . S
C187 C188 1.389 . S
C188 C187 1.389 . S
C188 C189 1.399 . S
C188 H201 0.931 . S
C189 C188 1.399 . S
C189 C190 1.390 . S
C190 C185 1.392 . S
C190 C189 1.390 . S
C190 H202 0.929 . S
O191 Tb175 2.326 . S
O191 C179 1.242 . S
O192 Eu176 2.324 . S
O192 C179 1.258 . S
O193 Tb175 2.500 . S
O193 C195 1.273 . S
O194 Tb175 2.473 . S
O194 C195 1.257 . S
C195 O193 1.273 . S
C195 O194 1.257 . S
O196 Eu176 2.326 . S
O196 C184 1.242 . S
O197 Tb175 2.324 . S
O197 C184 1.258 . S
O198 Eu176 2.500 . S
O198 C181 1.273 . S
O199 Eu176 2.473 . S
O199 C181 1.257 . S
H200 C186 0.929 . S
H201 C188 0.931 . S
H202 C190 0.929 . S
O203 Tb204 2.292 . S
O203 C206 1.255 . S
Tb204 O203 2.292 . S
Tb204 O220 2.326 . S
Tb204 O222 2.500 . S
Tb204 O223 2.473 . S
Tb204 O226 2.324 . S
Eu205 O209 2.292 . S
Eu205 C210 2.852 . S
Eu205 O221 2.324 . S
Eu205 O225 2.326 . S
Eu205 O227 2.500 . S
Eu205 O228 2.473 . S
C206 O203 1.255 . S
C206 O207 1.247 . S
O207 C206 1.247 . S
C208 O220 1.242 . S
C208 O221 1.258 . S
O209 Eu205 2.292 . S
O209 C211 1.255 . S
C210 Eu205 2.852 . S
C210 C214 1.503 . S
C210 O227 1.273 . S
C210 O228 1.257 . S
C211 O209 1.255 . S
C211 O212 1.247 . S
O212 C211 1.247 . S
C213 O225 1.242 . S
C213 O226 1.258 . S
C214 C210 1.503 . S
C214 C215 1.379 . S
C214 C219 1.392 . S
C215 C214 1.379 . S
C215 C216 1.404 . S
C215 H229 0.929 . S
C216 C215 1.404 . S
C216 C217 1.389 . S
C217 C216 1.389 . S
C217 C218 1.399 . S
C217 H230 0.931 . S
C218 C217 1.399 . S
C218 C219 1.390 . S
C219 C214 1.392 . S
C219 C218 1.390 . S
C219 H231 0.929 . S
O220 Tb204 2.326 . S
O220 C208 1.242 . S
O221 Eu205 2.324 . S
O221 C208 1.258 . S
O222 Tb204 2.500 . S
O222 C224 1.273 . S
O223 Tb204 2.473 . S
O223 C224 1.257 . S
C224 O222 1.273 . S
C224 O223 1.257 . S
O225 Eu205 2.326 . S
O225 C213 1.242 . S
O226 Tb204 2.324 . S
O226 C213 1.258 . S
O227 Eu205 2.500 . S
O227 C210 1.273 . S
O228 Eu205 2.473 . S
O228 C210 1.257 . S
H229 C215 0.929 . S
H230 C217 0.931 . S
H231 C219 0.929 . S
O232 Tb233 2.292 . S
O232 C235 1.255 . S
Tb233 O232 2.292 . S
Tb233 O249 2.326 . S
Tb233 O251 2.500 . S
Tb233 O252 2.473 . S
Tb233 O255 2.324 . S
Eu234 O238 2.292 . S
Eu234 C239 2.852 . S
Eu234 O250 2.324 . S
Eu234 O254 2.326 . S
Eu234 O256 2.500 . S
Eu234 O257 2.473 . S
C235 O232 1.255 . S
C235 O236 1.247 . S
O236 C235 1.247 . S
C237 O249 1.242 . S
C237 O250 1.258 . S
O238 Eu234 2.292 . S
O238 C240 1.255 . S
C239 Eu234 2.852 . S
C239 C243 1.503 . S
C239 O256 1.273 . S
C239 O257 1.257 . S
C240 O238 1.255 . S
C240 O241 1.247 . S
O241 C240 1.247 . S
C242 O254 1.242 . S
C242 O255 1.258 . S
C243 C239 1.503 . S
C243 C244 1.379 . S
C243 C248 1.392 . S
C244 C243 1.379 . S
C244 C245 1.404 . S
C244 H258 0.929 . S
C245 C244 1.404 . S
C245 C246 1.389 . S
C246 C245 1.389 . S
C246 C247 1.399 . S
C246 H259 0.931 . S
C247 C246 1.399 . S
C247 C248 1.390 . S
C248 C243 1.392 . S
C248 C247 1.390 . S
C248 H260 0.929 . S
O249 Tb233 2.326 . S
O249 C237 1.242 . S
O250 Eu234 2.324 . S
O250 C237 1.258 . S
O251 Tb233 2.500 . S
O251 C253 1.273 . S
O252 Tb233 2.473 . S
O252 C253 1.257 . S
C253 O251 1.273 . S
C253 O252 1.257 . S
O254 Eu234 2.326 . S
O254 C242 1.242 . S
O255 Tb233 2.324 . S
O255 C242 1.258 . S
O256 Eu234 2.500 . S
O256 C239 1.273 . S
O257 Eu234 2.473 . S
O257 C239 1.257 . S
H258 C244 0.929 . S
H259 C246 0.931 . S
H260 C248 0.929 . S
O261 Tb262 2.292 . S
O261 C264 1.255 . S
Tb262 O261 2.292 . S
Tb262 O278 2.326 . S
Tb262 O280 2.500 . S
Tb262 O281 2.473 . S
Tb262 O284 2.324 . S
Eu263 O267 2.292 1_545 S
Eu263 C268 2.852 . S
Eu263 O279 2.324 . S
Eu263 O283 2.326 . S
Eu263 O285 2.500 . S
Eu263 O286 2.473 . S
C264 O261 1.255 . S
C264 O265 1.247 . S
O265 C264 1.247 . S
C266 O278 1.242 . S
C266 O279 1.258 . S
O267 Eu263 2.292 1_565 S
O267 C269 1.255 . S
C268 Eu263 2.852 . S
C268 C272 1.503 . S
C268 O285 1.273 . S
C268 O286 1.257 . S
C269 O267 1.255 . S
C269 O270 1.247 . S
O270 C269 1.247 . S
C271 O283 1.242 . S
C271 O284 1.258 . S
C272 C268 1.503 . S
C272 C273 1.379 . S
C272 C277 1.392 . S
C273 C272 1.379 . S
C273 C274 1.404 . S
C273 H287 0.929 . S
C274 C273 1.404 . S
C274 C275 1.389 . S
C275 C274 1.389 . S
C275 C276 1.399 . S
C275 H288 0.931 . S
C276 C275 1.399 . S
C276 C277 1.390 . S
C277 C272 1.392 . S
C277 C276 1.390 . S
C277 H289 0.929 . S
O278 Tb262 2.326 . S
O278 C266 1.242 . S
O279 Eu263 2.324 . S
O279 C266 1.258 . S
O280 Tb262 2.500 . S
O280 C282 1.273 . S
O281 Tb262 2.473 . S
O281 C282 1.257 . S
C282 O280 1.273 . S
C282 O281 1.257 . S
O283 Eu263 2.326 . S
O283 C271 1.242 . S
O284 Tb262 2.324 . S
O284 C271 1.258 . S
O285 Eu263 2.500 . S
O285 C268 1.273 . S
O286 Eu263 2.473 . S
O286 C268 1.257 . S
H287 C273 0.929 . S
H288 C275 0.931 . S
H289 C277 0.929 . S
O290 Tb291 2.292 . S
O290 C293 1.255 . S
Tb291 O290 2.292 . S
Tb291 O307 2.326 . S
Tb291 O309 2.500 . S
Tb291 O310 2.473 . S
Tb291 O313 2.324 . S
Eu292 O296 2.292 . S
Eu292 C297 2.852 . S
Eu292 O308 2.324 . S
Eu292 O312 2.326 . S
Eu292 O314 2.500 . S
Eu292 O315 2.473 . S
C293 O290 1.255 . S
C293 O294 1.247 . S
O294 C293 1.247 . S
C295 O307 1.242 . S
C295 O308 1.258 . S
O296 Eu292 2.292 . S
O296 C298 1.255 . S
C297 Eu292 2.852 . S
C297 C301 1.503 . S
C297 O314 1.273 . S
C297 O315 1.257 . S
C298 O296 1.255 . S
C298 O299 1.247 . S
O299 C298 1.247 . S
C300 O312 1.242 . S
C300 O313 1.258 . S
C301 C297 1.503 . S
C301 C302 1.379 . S
C301 C306 1.392 . S
C302 C301 1.379 . S
C302 C303 1.404 . S
C302 H316 0.929 . S
C303 C302 1.404 . S
C303 C304 1.389 . S
C304 C303 1.389 . S
C304 C305 1.399 . S
C304 H317 0.931 . S
C305 C304 1.399 . S
C305 C306 1.390 . S
C306 C301 1.392 . S
C306 C305 1.390 . S
C306 H318 0.929 . S
O307 Tb291 2.326 . S
O307 C295 1.242 . S
O308 Eu292 2.324 . S
O308 C295 1.258 . S
O309 Tb291 2.500 . S
O309 C311 1.273 . S
O310 Tb291 2.473 . S
O310 C311 1.257 . S
C311 O309 1.273 . S
C311 O310 1.257 . S
O312 Eu292 2.326 . S
O312 C300 1.242 . S
O313 Tb291 2.324 . S
O313 C300 1.258 . S
O314 Eu292 2.500 . S
O314 C297 1.273 . S
O315 Eu292 2.473 . S
O315 C297 1.257 . S
H316 C302 0.929 . S
H317 C304 0.931 . S
H318 C306 0.929 . S
O319 Tb320 2.292 . S
O319 C322 1.255 . S
Tb320 O319 2.292 . S
Tb320 O336 2.326 . S
Tb320 O338 2.500 1_565 S
Tb320 O339 2.473 1_565 S
Tb320 O342 2.324 . S
Eu321 O325 2.292 . S
Eu321 C326 2.852 . S
Eu321 O337 2.324 . S
Eu321 O341 2.326 . S
Eu321 O343 2.500 . S
Eu321 O344 2.473 . S
C322 O319 1.255 . S
C322 O323 1.247 . S
O323 C322 1.247 . S
C324 O336 1.242 . S
C324 O337 1.258 . S
O325 Eu321 2.292 . S
O325 C327 1.255 . S
C326 Eu321 2.852 . S
C326 C330 1.503 . S
C326 O343 1.273 . S
C326 O344 1.257 . S
C327 O325 1.255 . S
C327 O328 1.247 . S
O328 C327 1.247 . S
C329 O341 1.242 . S
C329 O342 1.258 . S
C330 C326 1.503 . S
C330 C331 1.379 . S
C330 C335 1.392 . S
C331 C330 1.379 . S
C331 C332 1.404 . S
C331 H345 0.929 . S
C332 C331 1.404 . S
C332 C333 1.389 . S
C333 C332 1.389 . S
C333 C334 1.399 . S
C333 H346 0.931 . S
C334 C333 1.399 . S
C334 C335 1.390 . S
C335 C330 1.392 . S
C335 C334 1.390 . S
C335 H347 0.929 . S
O336 Tb320 2.326 . S
O336 C324 1.242 . S
O337 Eu321 2.324 . S
O337 C324 1.258 . S
O338 Tb320 2.500 1_545 S
O338 C340 1.273 . S
O339 Tb320 2.473 1_545 S
O339 C340 1.257 . S
C340 O338 1.273 . S
C340 O339 1.257 . S
O341 Eu321 2.326 . S
O341 C329 1.242 . S
O342 Tb320 2.324 . S
O342 C329 1.258 . S
O343 Eu321 2.500 . S
O343 C326 1.273 . S
O344 Eu321 2.473 . S
O344 C326 1.257 . S
H345 C331 0.929 . S
H346 C333 0.931 . S
H347 C335 0.929 . S
O348 Tb349 2.292 . S
O348 C351 1.255 . S
Tb349 O348 2.292 . S
Tb349 O365 2.326 . S
Tb349 O367 2.500 . S
Tb349 O368 2.473 . S
Tb349 O371 2.324 . S
Eu350 O354 2.292 . S
Eu350 C355 2.852 . S
Eu350 O366 2.324 . S
Eu350 O370 2.326 . S
Eu350 O372 2.500 . S
Eu350 O373 2.473 . S
C351 O348 1.255 . S
C351 O352 1.247 . S
O352 C351 1.247 . S
C353 O365 1.242 . S
C353 O366 1.258 . S
O354 Eu350 2.292 . S
O354 C356 1.255 . S
C355 Eu350 2.852 . S
C355 C359 1.503 . S
C355 O372 1.273 . S
C355 O373 1.257 . S
C356 O354 1.255 . S
C356 O357 1.247 . S
O357 C356 1.247 . S
C358 O370 1.242 . S
C358 O371 1.258 . S
C359 C355 1.503 . S
C359 C360 1.379 . S
C359 C364 1.392 . S
C360 C359 1.379 . S
C360 C361 1.404 . S
C360 H374 0.929 . S
C361 C360 1.404 . S
C361 C362 1.389 . S
C362 C361 1.389 . S
C362 C363 1.399 . S
C362 H375 0.931 . S
C363 C362 1.399 . S
C363 C364 1.390 . S
C364 C359 1.392 . S
C364 C363 1.390 . S
C364 H376 0.929 . S
O365 Tb349 2.326 . S
O365 C353 1.242 . S
O366 Eu350 2.324 . S
O366 C353 1.258 . S
O367 Tb349 2.500 . S
O367 C369 1.273 . S
O368 Tb349 2.473 . S
O368 C369 1.257 . S
C369 O367 1.273 . S
C369 O368 1.257 . S
O370 Eu350 2.326 . S
O370 C358 1.242 . S
O371 Tb349 2.324 . S
O371 C358 1.258 . S
O372 Eu350 2.500 . S
O372 C355 1.273 . S
O373 Eu350 2.473 . S
O373 C355 1.257 . S
H374 C360 0.929 . S
H375 C362 0.931 . S
H376 C364 0.929 . S
O377 Tb378 2.292 . S
O377 C380 1.255 . S
Tb378 O377 2.292 . S
Tb378 O394 2.326 . S
Tb378 O396 2.500 1_565 S
Tb378 O397 2.495 . S
Tb378 O400 2.324 . S
Eu379 O383 2.292 . S
Eu379 C384 2.852 . S
Eu379 O395 2.324 . S
Eu379 O399 2.326 . S
Eu379 O401 2.500 . S
Eu379 O402 2.473 . S
C380 O377 1.255 . S
C380 O381 1.247 . S
O381 C380 1.247 . S
C382 O394 1.242 . S
C382 O395 1.258 . S
O383 Eu379 2.292 . S
O383 C385 1.255 . S
C384 Eu379 2.852 . S
C384 C388 1.503 . S
C384 O401 1.273 . S
C384 O402 1.257 . S
C385 O383 1.255 . S
C385 O386 1.247 . S
O386 C385 1.247 . S
C387 O399 1.242 . S
C387 O400 1.258 . S
C388 C384 1.503 . S
C388 C389 1.379 . S
C388 C393 1.392 . S
C389 C388 1.379 . S
C389 C390 1.404 . S
C389 H403 0.929 . S
C390 C389 1.404 . S
C390 C391 1.389 . S
C391 C390 1.389 . S
C391 C392 1.399 . S
C391 H404 0.931 . S
C392 C391 1.399 . S
C392 C393 1.390 . S
C393 C388 1.392 . S
C393 C392 1.390 . S
C393 H405 0.929 . S
O394 Tb378 2.326 . S
O394 C382 1.242 . S
O395 Eu379 2.324 . S
O395 C382 1.258 . S
O396 Tb378 2.500 1_545 S
O396 C398 1.273 . S
O397 Tb378 2.495 . S
O397 C398 1.232 1_565 S
C398 O396 1.273 . S
C398 O397 1.232 1_545 S
O399 Eu379 2.326 . S
O399 C387 1.242 . S
O400 Tb378 2.324 . S
O400 C387 1.258 . S
O401 Eu379 2.500 . S
O401 C384 1.273 . S
O402 Eu379 2.473 . S
O402 C384 1.257 . S
H403 C389 0.929 . S
H404 C391 0.931 . S
H405 C393 0.929 . S
O406 Tb407 2.292 . S
O406 C409 1.255 . S
Tb407 O406 2.292 . S
Tb407 O423 2.326 . S
Tb407 O425 2.500 . S
Tb407 O426 2.473 . S
Tb407 O429 2.324 . S
Eu408 O412 2.292 . S
Eu408 C413 2.852 . S
Eu408 O424 2.324 . S
Eu408 O428 2.326 . S
Eu408 O430 2.500 . S
Eu408 O431 2.473 . S
C409 O406 1.255 . S
C409 O410 1.247 . S
O410 C409 1.247 . S
C411 O423 1.242 . S
C411 O424 1.258 . S
O412 Eu408 2.292 . S
O412 C414 1.255 . S
C413 Eu408 2.852 . S
C413 C417 1.503 . S
C413 O430 1.273 . S
C413 O431 1.257 . S
C414 O412 1.255 . S
C414 O415 1.247 . S
O415 C414 1.247 . S
C416 O428 1.242 . S
C416 O429 1.258 . S
C417 C413 1.503 . S
C417 C418 1.379 . S
C417 C422 1.392 . S
C418 C417 1.379 . S
C418 C419 1.404 . S
C418 H432 0.929 . S
C419 C418 1.404 . S
C419 C420 1.389 . S
C420 C419 1.389 . S
C420 C421 1.399 . S
C420 H433 0.931 . S
C421 C420 1.399 . S
C421 C422 1.390 . S
C422 C417 1.392 . S
C422 C421 1.390 . S
C422 H434 0.929 . S
O423 Tb407 2.326 . S
O423 C411 1.242 . S
O424 Eu408 2.324 . S
O424 C411 1.258 . S
O425 Tb407 2.500 . S
O425 C427 1.273 . S
O426 Tb407 2.473 . S
O426 C427 1.257 . S
C427 O425 1.273 . S
C427 O426 1.257 . S
O428 Eu408 2.326 . S
O428 C416 1.242 . S
O429 Tb407 2.324 . S
O429 C416 1.258 . S
O430 Eu408 2.500 . S
O430 C413 1.273 . S
O431 Eu408 2.473 . S
O431 C413 1.257 . S
H432 C418 0.929 . S
H433 C420 0.931 . S
H434 C422 0.929 . S
O435 Tb436 2.292 . S
O435 C438 1.255 . S
Tb436 O435 2.292 . S
Tb436 O452 2.326 . S
Tb436 O454 2.500 1_545 S
Tb436 O455 2.473 1_545 S
Tb436 O458 2.324 . S
Eu437 O441 2.292 . S
Eu437 C442 2.852 . S
Eu437 O453 2.324 . S
Eu437 O457 2.326 . S
Eu437 O459 2.500 . S
Eu437 O460 2.473 . S
C438 O435 1.255 . S
C438 O439 1.247 . S
O439 C438 1.247 . S
C440 O452 1.242 . S
C440 O453 1.258 . S
O441 Eu437 2.292 . S
O441 C443 1.255 . S
C442 Eu437 2.852 . S
C442 C446 1.503 . S
C442 O459 1.273 . S
C442 O460 1.257 . S
C443 O441 1.255 . S
C443 O444 1.247 . S
O444 C443 1.247 . S
C445 O457 1.242 . S
C445 O458 1.258 . S
C446 C442 1.503 . S
C446 C447 1.379 . S
C446 C451 1.392 . S
C447 C446 1.379 . S
C447 C448 1.404 . S
C447 H461 0.929 . S
C448 C447 1.404 . S
C448 C449 1.389 . S
C449 C448 1.389 . S
C449 C450 1.399 . S
C449 H462 0.931 . S
C450 C449 1.399 . S
C450 C451 1.390 . S
C451 C446 1.392 . S
C451 C450 1.390 . S
C451 H463 0.929 . S
O452 Tb436 2.326 . S
O452 C440 1.242 . S
O453 Eu437 2.324 . S
O453 C440 1.258 . S
O454 Tb436 2.500 1_565 S
O454 C456 1.273 . S
O455 Tb436 2.473 1_565 S
O455 C456 1.257 . S
C456 O454 1.273 . S
C456 O455 1.257 . S
O457 Eu437 2.326 . S
O457 C445 1.242 . S
O458 Tb436 2.324 . S
O458 C445 1.258 . S
O459 Eu437 2.500 . S
O459 C442 1.273 . S
O460 Eu437 2.473 . S
O460 C442 1.257 . S
H461 C447 0.929 . S
H462 C449 0.931 . S
H463 C451 0.929 . S
H464 C472 0.929 . S
H465 C474 0.930 . S
H466 C476 0.930 . S
H467 C479 0.929 . S
H468 C482 0.930 . S
H469 C484 0.960 . S
H470 C484 0.960 . S
H471 C484 0.960 . S
C472 H464 0.929 . S
C472 C473 1.377 . S
C472 C474 1.384 . S
C473 C472 1.377 . S
C473 C479 1.390 . S
C474 H465 0.930 . S
C474 C472 1.384 . S
C474 C475 1.372 . S
C475 C474 1.372 . S
C475 C476 1.400 . S
C475 C480 1.490 . S
C476 H466 0.930 . S
C476 C475 1.400 . S
C476 C479 1.386 . S
H477 C493 0.930 . S
H478 C494 0.931 . S
C479 H467 0.929 . S
C479 C473 1.390 . S
C479 C476 1.386 . S
C480 C475 1.490 . S
C480 C482 1.395 . S
C480 C483 1.403 . S
H481 C487 0.930 . S
C482 H468 0.930 . S
C482 C480 1.395 . S
C482 C485 1.403 . S
C483 C480 1.403 . S
C483 C484 1.524 . S
C483 C487 1.400 . S
C484 H469 0.960 . S
C484 H470 0.960 . S
C484 H471 0.960 . S
C484 C483 1.524 . S
C485 C482 1.403 . S
C485 C486 1.392 . S
C485 C489 1.495 . S
C486 C485 1.392 . S
C486 C487 1.385 . S
C486 C488 1.478 . S
C487 H481 0.930 . S
C487 C483 1.400 . S
C487 C486 1.385 . S
C488 C486 1.478 . S
C488 C490 1.381 . S
C488 C494 1.383 . S
C489 C485 1.495 . S
C489 H495 0.959 . S
C489 H496 0.961 . S
C489 H497 0.960 . S
C490 C488 1.381 . S
C490 C491 1.394 . S
C490 H498 0.930 . S
C491 C490 1.394 . S
C491 C492 1.383 . S
C491 H499 0.929 . S
C492 C491 1.383 . S
C492 C493 1.377 . S
C493 H477 0.930 . S
C493 C492 1.377 . S
C493 C494 1.379 . S
C494 H478 0.931 . S
C494 C488 1.383 . S
C494 C493 1.379 . S
H495 C489 0.959 . S
H496 C489 0.961 . S
H497 C489 0.960 . S
H498 C490 0.930 . S
H499 C491 0.929 . S
H500 C508 0.929 . S
H501 C510 0.930 . S
H502 C512 0.930 . S
H503 C515 0.929 . S
H504 C518 0.930 . S
H505 C520 0.960 . S
H506 C520 0.960 . S
H507 C520 0.960 . S
C508 H500 0.929 . S
C508 C509 1.377 . S
C508 C510 1.384 . S
C509 C508 1.377 . S
C509 C515 1.390 . S
C510 H501 0.930 . S
C510 C508 1.384 . S
C510 C511 1.372 . S
C511 C510 1.372 . S
C511 C512 1.400 . S
C511 C516 1.490 . S
C512 H502 0.930 . S
C512 C511 1.400 . S
C512 C515 1.386 . S
H513 C529 0.930 . S
H514 C530 0.931 . S
C515 H503 0.929 . S
C515 C509 1.390 . S
C515 C512 1.386 . S
C516 C511 1.490 . S
C516 C518 1.395 . S
C516 C519 1.403 . S
H517 C523 0.930 . S
C518 H504 0.930 . S
C518 C516 1.395 . S
C518 C521 1.403 . S
C519 C516 1.403 . S
C519 C520 1.524 . S
C519 C523 1.400 . S
C520 H505 0.960 . S
C520 H506 0.960 . S
C520 H507 0.960 . S
C520 C519 1.524 . S
C521 C518 1.403 . S
C521 C522 1.392 . S
C521 C525 1.495 . S
C522 C521 1.392 . S
C522 C523 1.385 . S
C522 C524 1.478 . S
C523 H517 0.930 . S
C523 C519 1.400 . S
C523 C522 1.385 . S
C524 C522 1.478 . S
C524 C526 1.381 . S
C524 C530 1.383 . S
C525 C521 1.495 . S
C525 H531 0.959 . S
C525 H532 0.961 . S
C525 H533 0.960 . S
C526 C524 1.381 . S
C526 C527 1.394 . S
C526 H534 0.930 . S
C527 C526 1.394 . S
C527 C528 1.383 . S
C527 H535 0.929 . S
C528 C527 1.383 . S
C528 C529 1.377 . S
C529 H513 0.930 . S
C529 C528 1.377 . S
C529 C530 1.379 . S
C530 H514 0.931 . S
C530 C524 1.383 . S
C530 C529 1.379 . S
H531 C525 0.959 . S
H532 C525 0.961 . S
H533 C525 0.960 . S
H534 C526 0.930 . S
H535 C527 0.929 . S
H536 C544 0.929 . S
H537 C546 0.930 . S
H538 C548 0.930 . S
H539 C551 0.929 . S
H540 C554 0.930 . S
H541 C556 0.960 . S
H542 C556 0.960 . S
H543 C556 0.960 . S
C544 H536 0.929 . S
C544 C545 1.377 . S
C544 C546 1.384 . S
C545 C544 1.377 . S
C545 C551 1.390 . S
C546 H537 0.930 . S
C546 C544 1.384 . S
C546 C547 1.372 . S
C547 C546 1.372 . S
C547 C548 1.400 . S
C547 C552 1.490 . S
C548 H538 0.930 . S
C548 C547 1.400 . S
C548 C551 1.386 . S
H549 C565 0.930 . S
H550 C566 0.931 . S
C551 H539 0.929 . S
C551 C545 1.390 . S
C551 C548 1.386 . S
C552 C547 1.490 . S
C552 C554 1.395 . S
C552 C555 1.403 . S
H553 C559 0.930 . S
C554 H540 0.930 . S
C554 C552 1.395 . S
C554 C557 1.403 . S
C555 C552 1.403 . S
C555 C556 1.524 . S
C555 C559 1.400 . S
C556 H541 0.960 . S
C556 H542 0.960 . S
C556 H543 0.960 . S
C556 C555 1.524 . S
C557 C554 1.403 . S
C557 C558 1.392 . S
C557 C561 1.495 . S
C558 C557 1.392 . S
C558 C559 1.385 . S
C558 C560 1.478 . S
C559 H553 0.930 . S
C559 C555 1.400 . S
C559 C558 1.385 . S
C560 C558 1.478 . S
C560 C562 1.381 . S
C560 C566 1.383 . S
C561 C557 1.495 . S
C561 H567 0.959 . S
C561 H568 0.961 . S
C561 H569 0.960 . S
C562 C560 1.381 . S
C562 C563 1.394 . S
C562 H570 0.930 . S
C563 C562 1.394 . S
C563 C564 1.383 . S
C563 H571 0.929 . S
C564 C563 1.383 . S
C564 C565 1.377 . S
C565 H549 0.930 . S
C565 C564 1.377 . S
C565 C566 1.379 . S
C566 H550 0.931 . S
C566 C560 1.383 . S
C566 C565 1.379 . S
H567 C561 0.959 . S
H568 C561 0.961 . S
H569 C561 0.960 . S
H570 C562 0.930 . S
H571 C563 0.929 . S
H572 C580 0.929 . S
H573 C582 0.930 . S
H574 C584 0.930 . S
H575 C587 0.929 . S
H576 C590 0.930 . S
H577 C592 0.960 . S
H578 C592 0.960 . S
H579 C592 0.960 . S
C580 H572 0.929 . S
C580 C581 1.377 . S
C580 C582 1.384 . S
C581 C580 1.377 . S
C581 C587 1.390 . S
C582 H573 0.930 . S
C582 C580 1.384 . S
C582 C583 1.372 . S
C583 C582 1.372 . S
C583 C584 1.400 . S
C583 C588 1.490 . S
C584 H574 0.930 . S
C584 C583 1.400 . S
C584 C587 1.386 . S
H585 C601 0.930 . S
H586 C602 0.931 . S
C587 H575 0.929 . S
C587 C581 1.390 . S
C587 C584 1.386 . S
C588 C583 1.490 . S
C588 C590 1.395 . S
C588 C591 1.403 . S
H589 C595 0.930 . S
C590 H576 0.930 . S
C590 C588 1.395 . S
C590 C593 1.403 . S
C591 C588 1.403 . S
C591 C592 1.524 . S
C591 C595 1.400 . S
C592 H577 0.960 . S
C592 H578 0.960 . S
C592 H579 0.960 . S
C592 C591 1.524 . S
C593 C590 1.403 . S
C593 C594 1.392 . S
C593 C597 1.495 . S
C594 C593 1.392 . S
C594 C595 1.385 . S
C594 C596 1.478 1_455 S
C595 H589 0.930 . S
C595 C591 1.400 . S
C595 C594 1.385 . S
C596 C594 1.478 1_655 S
C596 C598 1.381 . S
C596 C602 1.383 . S
C597 C593 1.495 . S
C597 H603 0.959 . S
C597 H604 0.961 1_455 S
C597 H605 0.960 1_455 S
C598 C596 1.381 . S
C598 C599 1.394 . S
C598 H606 0.930 . S
C599 C598 1.394 . S
C599 C600 1.383 . S
C599 H607 0.929 . S
C600 C599 1.383 . S
C600 C601 1.377 . S
C601 H585 0.930 . S
C601 C600 1.377 . S
C601 C602 1.379 . S
C602 H586 0.931 . S
C602 C596 1.383 . S
C602 C601 1.379 . S
H603 C597 0.959 . S
H604 C597 0.961 1_655 S
H605 C597 0.960 1_655 S
H606 C598 0.930 . S
H607 C599 0.929 . S
H608 C616 0.929 . S
H609 C618 0.930 . S
H610 C620 0.930 . S
H611 C623 0.929 . S
H612 C626 0.930 . S
H613 C628 0.960 . S
H614 C628 0.960 . S
H615 C628 0.960 . S
C616 H608 0.929 . S
C616 C617 1.377 . S
C616 C618 1.384 . S
C617 C616 1.377 . S
C617 C623 1.390 . S
C618 H609 0.930 . S
C618 C616 1.384 . S
C618 C619 1.372 . S
C619 C618 1.372 . S
C619 C620 1.400 . S
C619 C624 1.490 . S
C620 H610 0.930 . S
C620 C619 1.400 . S
C620 C623 1.386 . S
H621 C637 0.930 . S
H622 C638 0.931 . S
C623 H611 0.929 . S
C623 C617 1.390 . S
C623 C620 1.386 . S
C624 C619 1.490 . S
C624 C626 1.395 . S
C624 C627 1.403 . S
H625 C631 0.930 . S
C626 H612 0.930 . S
C626 C624 1.395 . S
C626 C629 1.403 . S
C627 C624 1.403 . S
C627 C628 1.524 . S
C627 C631 1.400 . S
C628 H613 0.960 . S
C628 H614 0.960 . S
C628 H615 0.960 . S
C628 C627 1.524 . S
C629 C626 1.403 . S
C629 C630 1.392 . S
C629 C633 1.495 . S
C630 C629 1.392 . S
C630 C631 1.385 . S
C630 C632 1.478 . S
C631 H625 0.930 . S
C631 C627 1.400 . S
C631 C630 1.385 . S
C632 C630 1.478 . S
C632 C634 1.381 . S
C632 C638 1.383 . S
C633 C629 1.495 . S
C633 H639 0.959 . S
C633 H640 0.961 . S
C633 H641 0.960 . S
C634 C632 1.381 . S
C634 C635 1.394 . S
C634 H642 0.930 . S
C635 C634 1.394 . S
C635 C636 1.383 . S
C635 H643 0.929 . S
C636 C635 1.383 . S
C636 C637 1.377 . S
C637 H621 0.930 . S
C637 C636 1.377 . S
C637 C638 1.379 . S
C638 H622 0.931 . S
C638 C632 1.383 . S
C638 C637 1.379 . S
H639 C633 0.959 . S
H640 C633 0.961 . S
H641 C633 0.960 . S
H642 C634 0.930 . S
H643 C635 0.929 . S
H644 C652 0.929 . S
H645 C654 0.930 . S
H646 C656 0.930 . S
H647 C659 0.929 . S
H648 C662 0.930 . S
H649 C664 0.960 . S
H650 C664 0.960 . S
H651 C664 0.960 . S
C652 H644 0.929 . S
C652 C653 1.377 . S
C652 C654 1.384 . S
C653 C652 1.377 . S
C653 C659 1.390 . S
C654 H645 0.930 . S
C654 C652 1.384 . S
C654 C655 1.372 . S
C655 C654 1.372 . S
C655 C656 1.400 . S
C655 C660 1.490 . S
C656 H646 0.930 . S
C656 C655 1.400 . S
C656 C659 1.386 . S
H657 C673 0.930 . S
H658 C674 0.931 . S
C659 H647 0.929 . S
C659 C653 1.390 . S
C659 C656 1.386 . S
C660 C655 1.490 . S
C660 C662 1.395 . S
C660 C663 1.403 . S
H661 C667 0.930 . S
C662 H648 0.930 . S
C662 C660 1.395 . S
C662 C665 1.403 . S
C663 C660 1.403 . S
C663 C664 1.524 . S
C663 C667 1.400 . S
C664 H649 0.960 . S
C664 H650 0.960 . S
C664 H651 0.960 . S
C664 C663 1.524 . S
C665 C662 1.403 . S
C665 C666 1.392 . S
C665 C669 1.495 . S
C666 C665 1.392 . S
C666 C667 1.385 . S
C666 C668 1.478 . S
C667 H661 0.930 . S
C667 C663 1.400 . S
C667 C666 1.385 . S
C668 C666 1.478 . S
C668 C670 1.381 . S
C668 C674 1.383 . S
C669 C665 1.495 . S
C669 H675 0.959 . S
C669 H676 0.961 . S
C669 H677 0.960 . S
C670 C668 1.381 . S
C670 C671 1.394 . S
C670 H678 0.930 . S
C671 C670 1.394 . S
C671 C672 1.383 . S
C671 H679 0.929 . S
C672 C671 1.383 . S
C672 C673 1.377 . S
C673 H657 0.930 . S
C673 C672 1.377 . S
C673 C674 1.379 . S
C674 H658 0.931 . S
C674 C668 1.383 . S
C674 C673 1.379 . S
H675 C669 0.959 . S
H676 C669 0.961 . S
H677 C669 0.960 . S
H678 C670 0.930 . S
H679 C671 0.929 . S
H680 C688 0.929 . S
H681 C690 0.930 . S
H682 C692 0.930 . S
H683 C695 0.929 . S
H684 C698 0.930 . S
H685 C700 0.960 . S
H686 C700 0.960 . S
H687 C700 0.960 . S
C688 H680 0.929 . S
C688 C689 1.377 . S
C688 C690 1.384 . S
C689 C688 1.377 . S
C689 C695 1.390 . S
C690 H681 0.930 . S
C690 C688 1.384 . S
C690 C691 1.372 . S
C691 C690 1.372 . S
C691 C692 1.400 . S
C691 C696 1.490 . S
C692 H682 0.930 . S
C692 C691 1.400 . S
C692 C695 1.386 . S
H693 C709 0.930 . S
H694 C710 0.931 . S
C695 H683 0.929 . S
C695 C689 1.390 . S
C695 C692 1.386 . S
C696 C691 1.490 . S
C696 C698 1.395 . S
C696 C699 1.403 . S
H697 C703 0.930 . S
C698 H684 0.930 . S
C698 C696 1.395 . S
C698 C701 1.403 . S
C699 C696 1.403 . S
C699 C700 1.524 . S
C699 C703 1.400 . S
C700 H685 0.960 . S
C700 H686 0.960 . S
C700 H687 0.960 . S
C700 C699 1.524 . S
C701 C698 1.403 . S
C701 C702 1.392 . S
C701 C705 1.495 . S
C702 C701 1.392 . S
C702 C703 1.385 . S
C702 C704 1.478 . S
C703 H697 0.930 . S
C703 C699 1.400 . S
C703 C702 1.385 . S
C704 C702 1.478 . S
C704 C706 1.381 . S
C704 C710 1.383 . S
C705 C701 1.495 . S
C705 H711 0.959 . S
C705 H712 0.961 . S
C705 H713 0.960 . S
C706 C704 1.381 . S
C706 C707 1.394 . S
C706 H714 0.930 . S
C707 C706 1.394 . S
C707 C708 1.383 . S
C707 H715 0.929 . S
C708 C707 1.383 . S
C708 C709 1.377 . S
C709 H693 0.930 . S
C709 C708 1.377 . S
C709 C710 1.379 . S
C710 H694 0.931 . S
C710 C704 1.383 . S
C710 C709 1.379 . S
H711 C705 0.959 . S
H712 C705 0.961 . S
H713 C705 0.960 . S
H714 C706 0.930 . S
H715 C707 0.929 . S
H716 C724 0.929 . S
H717 C726 0.930 . S
H718 C728 0.930 . S
H719 C731 0.929 . S
H720 C734 0.930 . S
H721 C736 0.960 . S
H722 C736 0.960 . S
H723 C736 0.960 . S
C724 H716 0.929 . S
C724 C725 1.377 . S
C724 C726 1.384 . S
C725 C724 1.377 . S
C725 C731 1.390 . S
C726 H717 0.930 . S
C726 C724 1.384 . S
C726 C727 1.372 . S
C727 C726 1.372 . S
C727 C728 1.400 . S
C727 C732 1.490 . S
C728 H718 0.930 . S
C728 C727 1.400 . S
C728 C731 1.386 . S
H729 C745 0.930 . S
H730 C746 0.931 . S
C731 H719 0.929 . S
C731 C725 1.390 . S
C731 C728 1.386 . S
C732 C727 1.490 . S
C732 C734 1.395 . S
C732 C735 1.403 . S
H733 C739 0.924 1_455 S
C734 H720 0.930 . S
C734 C732 1.395 . S
C734 C737 1.403 . S
C735 C732 1.403 . S
C735 C736 1.524 . S
C735 C739 1.400 . S
C736 H721 0.960 . S
C736 H722 0.960 . S
C736 H723 0.960 . S
C736 C735 1.524 . S
C737 C734 1.403 . S
C737 C738 1.392 . S
C737 C741 1.495 . S
C738 C737 1.392 . S
C738 C739 1.385 . S
C738 C740 1.478 1_655 S
C739 H733 0.924 1_655 S
C739 C735 1.400 . S
C739 C738 1.385 . S
C740 C738 1.478 1_455 S
C740 C742 1.381 . S
C740 C746 1.383 . S
C741 C737 1.495 . S
C741 H747 0.959 . S
C741 H748 0.961 . S
C741 H749 0.960 . S
C742 C740 1.381 . S
C742 C743 1.394 . S
C742 H750 0.930 . S
C743 C742 1.394 . S
C743 C744 1.383 . S
C743 H751 0.929 . S
C744 C743 1.383 . S
C744 C745 1.377 . S
C745 H729 0.930 . S
C745 C744 1.377 . S
C745 C746 1.379 . S
C746 H730 0.931 . S
C746 C740 1.383 . S
C746 C745 1.379 . S
H747 C741 0.959 . S
H748 C741 0.961 . S
H749 C741 0.960 . S
H750 C742 0.930 . S
H751 C743 0.929 . S
H752 C760 0.929 . S
H753 C762 0.930 . S
H754 C764 0.930 . S
H755 C767 0.929 . S
H756 C770 0.930 . S
H757 C772 0.960 . S
H758 C772 0.960 . S
H759 C772 0.960 . S
C760 H752 0.929 . S
C760 C761 1.377 . S
C760 C762 1.384 . S
C761 C760 1.377 . S
C761 C767 1.390 . S
C762 H753 0.930 . S
C762 C760 1.384 . S
C762 C763 1.372 . S
C763 C762 1.372 . S
C763 C764 1.400 . S
C763 C768 1.490 . S
C764 H754 0.930 . S
C764 C763 1.400 . S
C764 C767 1.386 . S
H765 C781 0.930 . S
H766 C782 0.931 . S
C767 H755 0.929 . S
C767 C761 1.390 . S
C767 C764 1.386 . S
C768 C763 1.490 . S
C768 C770 1.395 . S
C768 C771 1.403 . S
H769 C775 0.930 . S
C770 H756 0.930 . S
C770 C768 1.395 . S
C770 C773 1.403 . S
C771 C768 1.403 . S
C771 C772 1.524 . S
C771 C775 1.400 . S
C772 H757 0.960 . S
C772 H758 0.960 . S
C772 H759 0.960 . S
C772 C771 1.524 . S
C773 C770 1.403 . S
C773 C774 1.392 . S
C773 C777 1.495 . S
C774 C773 1.392 . S
C774 C775 1.385 . S
C774 C776 1.478 . S
C775 H769 0.930 . S
C775 C771 1.400 . S
C775 C774 1.385 . S
C776 C774 1.478 . S
C776 C778 1.381 . S
C776 C782 1.383 . S
C777 C773 1.495 . S
C777 H783 0.959 . S
C777 H784 0.961 . S
C777 H785 0.960 . S
C778 C776 1.381 . S
C778 C779 1.394 . S
C778 H786 0.930 . S
C779 C778 1.394 . S
C779 C780 1.383 . S
C779 H787 0.929 . S
C780 C779 1.383 . S
C780 C781 1.377 . S
C781 H765 0.930 . S
C781 C780 1.377 . S
C781 C782 1.379 . S
C782 H766 0.931 . S
C782 C776 1.383 . S
C782 C781 1.379 . S
H783 C777 0.959 . S
H784 C777 0.961 . S
H785 C777 0.960 . S
H786 C778 0.930 . S
H787 C779 0.929 . S
H788 C796 0.929 . S
H789 C798 0.930 1_565 S
H790 C800 0.930 . S
H791 C803 0.929 . S
H792 C806 0.930 1_455 S
H793 C808 0.960 . S
H794 C808 0.960 1_455 S
H795 C808 0.960 1_545 S
C796 H788 0.929 . S
C796 C797 1.377 . S
C796 C798 1.384 . S
C797 C796 1.377 . S
C797 C803 1.390 . S
C798 H789 0.930 1_545 S
C798 C796 1.384 . S
C798 C799 1.372 . S
C799 C798 1.372 . S
C799 C800 1.400 . S
C799 C804 1.490 1_455 S
C800 H790 0.930 . S
C800 C799 1.400 . S
C800 C803 1.386 . S
H801 C817 0.930 . S
H802 C818 0.931 1_545 S
C803 H791 0.929 . S
C803 C797 1.390 . S
C803 C800 1.386 . S
C804 C799 1.490 1_655 S
C804 C806 1.395 . S
C804 C807 1.403 1_545 S
H805 C811 0.930 . S
C806 H792 0.930 1_655 S
C806 C804 1.395 . S
C806 C809 1.403 1_545 S
C807 C804 1.403 1_565 S
C807 C808 1.524 . S
C807 C811 1.400 . S
C808 H793 0.960 . S
C808 H794 0.960 1_655 S
C808 H795 0.960 1_565 S
C808 C807 1.524 . S
C809 C806 1.403 1_565 S
C809 C810 1.392 . S
C809 C813 1.495 1_565 S
C810 C809 1.392 . S
C810 C811 1.385 . S
C810 C812 1.478 . S
C811 H805 0.930 . S
C811 C807 1.400 . S
C811 C810 1.385 . S
C812 C810 1.478 . S
C812 C814 1.381 . S
C812 C818 1.383 . S
C813 C809 1.495 1_545 S
C813 H819 0.959 . S
C813 H820 0.961 . S
C813 H821 0.960 1_545 S
C814 C812 1.381 . S
C814 C815 1.394 . S
C814 H822 0.930 . S
C815 C814 1.394 . S
C815 C816 1.383 . S
C815 H823 0.929 . S
C816 C815 1.383 . S
C816 C817 1.377 . S
C817 H801 0.930 . S
C817 C816 1.377 . S
C817 C818 1.379 . S
C818 H802 0.931 1_565 S
C818 C812 1.383 . S
C818 C817 1.379 . S
H819 C813 0.959 . S
H820 C813 0.961 . S
H821 C813 0.960 1_565 S
H822 C814 0.930 . S
H823 C815 0.929 . S
H824 C832 0.929 . S
H825 C834 0.930 . S
H826 C836 0.930 . S
H827 C839 0.929 . S
H828 C842 0.930 . S
H829 C844 0.960 . S
H830 C844 0.960 . S
H831 C844 0.960 . S
C832 H824 0.929 . S
C832 C833 1.377 . S
C832 C834 1.384 . S
C833 C832 1.377 . S
C833 C839 1.390 . S
C834 H825 0.930 . S
C834 C832 1.384 . S
C834 C835 1.372 . S
C835 C834 1.372 . S
C835 C836 1.400 . S
C835 C840 1.490 . S
C836 H826 0.930 . S
C836 C835 1.400 . S
C836 C839 1.386 . S
H837 C853 0.930 . S
H838 C854 0.931 . S
C839 H827 0.929 . S
C839 C833 1.390 . S
C839 C836 1.386 . S
C840 C835 1.490 . S
C840 C842 1.395 . S
C840 C843 1.403 . S
H841 C847 0.930 . S
C842 H828 0.930 . S
C842 C840 1.395 . S
C842 C845 1.403 . S
C843 C840 1.403 . S
C843 C844 1.524 . S
C843 C847 1.400 . S
C844 H829 0.960 . S
C844 H830 0.960 . S
C844 H831 0.960 . S
C844 C843 1.524 . S
C845 C842 1.403 . S
C845 C846 1.392 . S
C845 C849 1.495 . S
C846 C845 1.392 . S
C846 C847 1.385 . S
C846 C848 1.478 . S
C847 H841 0.930 . S
C847 C843 1.400 . S
C847 C846 1.385 . S
C848 C846 1.478 . S
C848 C850 1.381 . S
C848 C854 1.383 . S
C849 C845 1.495 . S
C849 H855 0.959 . S
C849 H856 0.961 . S
C849 H857 0.960 . S
C850 C848 1.381 . S
C850 C851 1.394 . S
C850 H858 0.930 . S
C851 C850 1.394 . S
C851 C852 1.383 . S
C851 H859 0.929 . S
C852 C851 1.383 . S
C852 C853 1.377 . S
C853 H837 0.930 . S
C853 C852 1.377 . S
C853 C854 1.379 . S
C854 H838 0.931 . S
C854 C848 1.383 . S
C854 C853 1.379 . S
H855 C849 0.959 . S
H856 C849 0.961 . S
H857 C849 0.960 . S
H858 C850 0.930 . S
H859 C851 0.929 . S
H860 C868 0.929 . S
H861 C870 0.930 . S
H862 C872 0.930 . S
H863 C875 0.929 . S
H864 C878 0.930 . S
H865 C880 0.960 . S
H866 C880 0.960 . S
H867 C880 0.960 1_545 S
C868 H860 0.929 . S
C868 C869 1.377 . S
C868 C870 1.384 . S
C869 C868 1.377 . S
C869 C875 1.390 . S
C870 H861 0.930 . S
C870 C868 1.384 . S
C870 C871 1.372 . S
C871 C870 1.372 . S
C871 C872 1.400 . S
C871 C876 1.490 . S
C872 H862 0.930 . S
C872 C871 1.400 . S
C872 C875 1.386 . S
H873 C889 0.930 . S
H874 C890 0.931 . S
C875 H863 0.929 . S
C875 C869 1.390 . S
C875 C872 1.386 . S
C876 C871 1.490 . S
C876 C878 1.395 . S
C876 C879 1.403 . S
H877 C883 0.930 1_565 S
C878 H864 0.930 . S
C878 C876 1.395 . S
C878 C881 1.403 . S
C879 C876 1.403 . S
C879 C880 1.524 1_545 S
C879 C883 1.400 . S
C880 H865 0.960 . S
C880 H866 0.960 . S
C880 H867 0.960 1_565 S
C880 C879 1.524 1_565 S
C881 C878 1.403 . S
C881 C882 1.392 . S
C881 C885 1.495 . S
C882 C881 1.392 . S
C882 C883 1.385 . S
C882 C884 1.478 . S
C883 H877 0.930 1_545 S
C883 C879 1.400 . S
C883 C882 1.385 . S
C884 C882 1.478 . S
C884 C886 1.381 1_545 S
C884 C890 1.383 . S
C885 C881 1.495 . S
C885 H891 0.959 . S
C885 H892 0.961 . S
C885 H893 0.960 . S
C886 C884 1.381 1_565 S
C886 C887 1.394 . S
C886 H894 0.930 . S
C887 C886 1.394 . S
C887 C888 1.383 . S
C887 H895 0.929 . S
C888 C887 1.383 . S
C888 C889 1.377 1_565 S
C889 H873 0.930 . S
C889 C888 1.377 1_545 S
C889 C890 1.379 . S
C890 H874 0.931 . S
C890 C884 1.383 . S
C890 C889 1.379 . S
H891 C885 0.959 . S
H892 C885 0.961 . S
H893 C885 0.960 . S
H894 C886 0.930 . S
H895 C887 0.929 . S
H896 C904 0.929 . S
H897 C906 0.930 . S
H898 C908 0.930 . S
H899 C911 0.929 . S
H900 C914 0.930 . S
H901 C916 0.960 . S
H902 C916 0.960 . S
H903 C916 0.960 . S
C904 H896 0.929 . S
C904 C905 1.377 . S
C904 C906 1.384 . S
C905 C904 1.377 . S
C905 C911 1.390 . S
C906 H897 0.930 . S
C906 C904 1.384 . S
C906 C907 1.372 . S
C907 C906 1.372 . S
C907 C908 1.400 . S
C907 C912 1.490 . S
C908 H898 0.930 . S
C908 C907 1.400 . S
C908 C911 1.386 . S
H909 C925 0.930 . S
H910 C926 0.931 . S
C911 H899 0.929 . S
C911 C905 1.390 . S
C911 C908 1.386 . S
C912 C907 1.490 . S
C912 C914 1.395 . S
C912 C915 1.403 . S
H913 C919 0.930 . S
C914 H900 0.930 . S
C914 C912 1.395 . S
C914 C917 1.403 . S
C915 C912 1.403 . S
C915 C916 1.524 . S
C915 C919 1.400 . S
C916 H901 0.960 . S
C916 H902 0.960 . S
C916 H903 0.960 . S
C916 C915 1.524 . S
C917 C914 1.403 . S
C917 C918 1.392 . S
C917 C921 1.495 . S
C918 C917 1.392 . S
C918 C919 1.385 . S
C918 C920 1.478 . S
C919 H913 0.930 . S
C919 C915 1.400 . S
C919 C918 1.385 . S
C920 C918 1.478 . S
C920 C922 1.381 . S
C920 C926 1.383 . S
C921 C917 1.495 . S
C921 H927 0.959 . S
C921 H928 0.961 . S
C921 H929 0.960 . S
C922 C920 1.381 . S
C922 C923 1.394 . S
C922 H930 0.930 . S
C923 C922 1.394 . S
C923 C924 1.383 . S
C923 H931 0.929 . S
C924 C923 1.383 . S
C924 C925 1.377 . S
C925 H909 0.930 . S
C925 C924 1.377 . S
C925 C926 1.379 . S
C926 H910 0.931 . S
C926 C920 1.383 . S
C926 C925 1.379 . S
H927 C921 0.959 . S
H928 C921 0.961 . S
H929 C921 0.960 . S
H930 C922 0.930 . S
H931 C923 0.929 . S
H932 C940 0.929 . S
H933 C942 0.930 . S
H934 C944 0.930 . S
H935 C947 0.929 . S
H936 C950 0.930 1_655 S
H937 C952 0.960 . S
H938 C952 0.960 . S
H939 C952 0.960 . S
C940 H932 0.929 . S
C940 C941 1.377 . S
C940 C942 1.384 . S
C941 C940 1.377 . S
C941 C947 1.390 . S
C942 H933 0.930 . S
C942 C940 1.384 . S
C942 C943 1.372 . S
C943 C942 1.372 . S
C943 C944 1.400 . S
C943 C948 1.484 1_665 S
C944 H934 0.930 . S
C944 C943 1.400 . S
C944 C947 1.386 . S
H945 C961 0.930 . S
H946 C962 0.931 . S
C947 H935 0.929 . S
C947 C941 1.390 . S
C947 C944 1.386 . S
C948 C943 1.484 1_445 S
C948 C950 1.407 . S
C948 C951 1.397 1_545 S
H949 C955 0.930 1_565 S
C950 H936 0.930 1_455 S
C950 C948 1.407 . S
C950 C953 1.403 . S
C951 C948 1.397 1_565 S
C951 C952 1.524 . S
C951 C955 1.400 1_565 S
C952 H937 0.960 . S
C952 H938 0.960 . S
C952 H939 0.960 . S
C952 C951 1.524 . S
C953 C950 1.403 . S
C953 C954 1.392 . S
C953 C957 1.495 . S
C954 C953 1.392 . S
C954 C955 1.385 . S
C954 C956 1.478 . S
C955 H949 0.930 1_545 S
C955 C951 1.400 1_545 S
C955 C954 1.385 . S
C956 C954 1.478 . S
C956 C958 1.381 . S
C956 C962 1.383 . S
C957 C953 1.495 . S
C957 H963 0.959 . S
C957 H964 0.961 . S
C957 H965 0.960 . S
C958 C956 1.381 . S
C958 C959 1.394 . S
C958 H966 0.930 . S
C959 C958 1.394 . S
C959 C960 1.383 . S
C959 H967 0.929 . S
C960 C959 1.383 . S
C960 C961 1.377 . S
C961 H945 0.930 . S
C961 C960 1.377 . S
C961 C962 1.379 . S
C962 H946 0.931 . S
C962 C956 1.383 . S
C962 C961 1.379 . S
H963 C957 0.959 . S
H964 C957 0.961 . S
H965 C957 0.960 . S
H966 C958 0.930 . S
H967 C959 0.929 . S
H968 C976 0.929 . S
H969 C978 0.930 . S
H970 C980 0.930 . S
H971 C983 0.929 . S
H972 C986 0.930 . S
H973 C988 0.960 . S
H974 C988 0.960 . S
H975 C988 0.960 . S
C976 H968 0.929 . S
C976 C977 1.377 . S
C976 C978 1.384 . S
C977 C976 1.377 . S
C977 C983 1.390 . S
C978 H969 0.930 . S
C978 C976 1.384 . S
C978 C979 1.372 . S
C979 C978 1.372 . S
C979 C980 1.400 . S
C979 C984 1.490 . S
C980 H970 0.930 . S
C980 C979 1.400 . S
C980 C983 1.386 . S
H981 C997 0.930 . S
H982 C998 0.931 . S
C983 H971 0.929 . S
C983 C977 1.390 . S
C983 C980 1.386 . S
C984 C979 1.490 . S
C984 C986 1.395 . S
C984 C987 1.403 . S
H985 C991 0.930 . S
C986 H972 0.930 . S
C986 C984 1.395 . S
C986 C989 1.403 . S
C987 C984 1.403 . S
C987 C988 1.524 . S
C987 C991 1.400 . S
C988 H973 0.960 . S
C988 H974 0.960 . S
C988 H975 0.960 . S
C988 C987 1.524 . S
C989 C986 1.403 . S
C989 C990 1.392 . S
C989 C993 1.495 . S
C990 C989 1.392 . S
C990 C991 1.385 . S
C990 C992 1.478 . S
C991 H985 0.930 . S
C991 C987 1.400 . S
C991 C990 1.385 . S
C992 C990 1.478 . S
C992 C994 1.381 . S
C992 C998 1.383 . S
C993 C989 1.495 . S
C993 H999 0.959 . S
C993 H1000 0.961 . S
C993 H1001 0.960 . S
C994 C992 1.381 . S
C994 C995 1.394 . S
C994 H1002 0.930 . S
C995 C994 1.394 . S
C995 C996 1.383 . S
C995 H1003 0.929 . S
C996 C995 1.383 . S
C996 C997 1.377 . S
C997 H981 0.930 . S
C997 C996 1.377 . S
C997 C998 1.379 . S
C998 H982 0.931 . S
C998 C992 1.383 . S
C998 C997 1.379 . S
H999 C993 0.959 . S
H1000 C993 0.961 . S
H1001 C993 0.960 . S
H1002 C994 0.930 . S
H1003 C995 0.929 . S
H1004 C1012 0.929 . S
H1005 C1014 0.930 . S
H1006 C1016 0.930 . S
H1007 C1019 0.929 . S
H1008 C1022 0.930 . S
H1009 C1024 0.960 . S
H1010 C1024 0.960 . S
H1011 C1024 0.960 . S
C1012 H1004 0.929 . S
C1012 C1013 1.377 . S
C1012 C1014 1.384 . S
C1013 C1012 1.377 . S
C1013 C1019 1.390 . S
C1014 H1005 0.930 . S
C1014 C1012 1.384 . S
C1014 C1015 1.372 . S
C1015 C1014 1.372 . S
C1015 C1016 1.400 . S
C1015 C1020 1.490 . S
C1016 H1006 0.930 . S
C1016 C1015 1.400 . S
C1016 C1019 1.386 . S
H1017 C1033 0.930 . S
H1018 C1034 0.916 1_565 S
C1019 H1007 0.929 . S
C1019 C1013 1.390 . S
C1019 C1016 1.386 . S
C1020 C1015 1.490 . S
C1020 C1022 1.395 1_565 S
C1020 C1023 1.403 . S
H1021 C1027 0.930 . S
C1022 H1008 0.930 . S
C1022 C1020 1.395 1_545 S
C1022 C1025 1.403 . S
C1023 C1020 1.403 . S
C1023 C1024 1.524 . S
C1023 C1027 1.400 . S
C1024 H1009 0.960 . S
C1024 H1010 0.960 . S
C1024 H1011 0.960 . S
C1024 C1023 1.524 . S
C1025 C1022 1.403 . S
C1025 C1026 1.382 1_545 S
C1025 C1029 1.495 . S
C1026 C1025 1.382 1_565 S
C1026 C1027 1.402 . S
C1026 C1028 1.472 1_565 S
C1027 H1021 0.930 . S
C1027 C1023 1.400 . S
C1027 C1026 1.402 . S
C1028 C1026 1.472 1_545 S
C1028 C1030 1.381 . S
C1028 C1034 1.391 . S
C1029 C1025 1.495 . S
C1029 H1035 0.959 . S
C1029 H1036 0.961 . S
C1029 H1037 0.960 . S
C1030 C1028 1.381 . S
C1030 C1031 1.394 . S
C1030 H1038 0.930 . S
C1031 C1030 1.394 . S
C1031 C1032 1.383 . S
C1031 H1039 0.929 . S
C1032 C1031 1.383 . S
C1032 C1033 1.377 . S
C1033 H1017 0.930 . S
C1033 C1032 1.377 . S
C1033 C1034 1.386 . S
C1034 H1018 0.916 1_545 S
C1034 C1028 1.391 . S
C1034 C1033 1.386 . S
H1035 C1029 0.959 . S
H1036 C1029 0.961 . S
H1037 C1029 0.960 . S
H1038 C1030 0.930 . S
H1039 C1031 0.929 . S
H1040 C1048 0.929 . S
H1041 C1050 0.930 . S
H1042 C1052 0.930 . S
H1043 C1055 0.929 . S
H1044 C1058 0.930 . S
H1045 C1060 0.960 . S
H1046 C1060 0.960 . S
H1047 C1060 0.960 . S
C1048 H1040 0.929 . S
C1048 C1049 1.377 . S
C1048 C1050 1.384 . S
C1049 C1048 1.377 . S
C1049 C1055 1.390 . S
C1050 H1041 0.930 . S
C1050 C1048 1.384 . S
C1050 C1051 1.372 . S
C1051 C1050 1.372 . S
C1051 C1052 1.400 . S
C1051 C1056 1.490 . S
C1052 H1042 0.930 . S
C1052 C1051 1.400 . S
C1052 C1055 1.386 . S
H1053 C1069 0.930 . S
H1054 C1070 0.931 . S
C1055 H1043 0.929 . S
C1055 C1049 1.390 . S
C1055 C1052 1.386 . S
C1056 C1051 1.490 . S
C1056 C1058 1.395 . S
C1056 C1059 1.403 . S
H1057 C1063 0.930 . S
C1058 H1044 0.930 . S
C1058 C1056 1.395 . S
C1058 C1061 1.403 . S
C1059 C1056 1.403 . S
C1059 C1060 1.524 . S
C1059 C1063 1.400 . S
C1060 H1045 0.960 . S
C1060 H1046 0.960 . S
C1060 H1047 0.960 . S
C1060 C1059 1.524 . S
C1061 C1058 1.403 . S
C1061 C1062 1.392 1_556 S
C1061 C1065 1.495 1_556 S
C1062 C1061 1.392 1_554 S
C1062 C1063 1.385 1_554 S
C1062 C1064 1.478 . S
C1063 H1057 0.930 . S
C1063 C1059 1.400 . S
C1063 C1062 1.385 1_556 S
C1064 C1062 1.478 . S
C1064 C1066 1.381 . S
C1064 C1070 1.383 . S
C1065 C1061 1.495 1_554 S
C1065 H1071 0.936 1_554 S
C1065 H1072 0.961 . S
C1065 H1073 0.960 . S
C1066 C1064 1.381 . S
C1066 C1067 1.394 . S
C1066 H1074 0.930 . S
C1067 C1066 1.394 . S
C1067 C1068 1.383 . S
C1067 H1075 0.929 . S
C1068 C1067 1.383 . S
C1068 C1069 1.377 . S
C1069 H1053 0.930 . S
C1069 C1068 1.377 . S
C1069 C1070 1.379 . S
C1070 H1054 0.931 . S
C1070 C1064 1.383 . S
C1070 C1069 1.379 . S
H1071 C1065 0.936 1_556 S
H1072 C1065 0.961 . S
H1073 C1065 0.960 . S
H1074 C1066 0.930 . S
H1075 C1067 0.929 . S
H1076 C1084 0.929 . S
H1077 C1086 0.930 . S
H1078 C1088 0.930 . S
H1079 C1091 0.929 . S
H1080 C1094 0.930 . S
H1081 C1096 0.960 . S
H1082 C1096 0.960 . S
H1083 C1096 0.960 . S
C1084 H1076 0.929 . S
C1084 C1085 1.377 . S
C1084 C1086 1.384 . S
C1085 C1084 1.377 . S
C1085 C1091 1.390 . S
C1086 H1077 0.930 . S
C1086 C1084 1.384 . S
C1086 C1087 1.372 . S
C1087 C1086 1.372 . S
C1087 C1088 1.400 . S
C1087 C1092 1.490 . S
C1088 H1078 0.930 . S
C1088 C1087 1.400 . S
C1088 C1091 1.386 . S
H1089 C1105 0.930 . S
H1090 C1106 0.931 . S
C1091 H1079 0.929 . S
C1091 C1085 1.390 . S
C1091 C1088 1.386 . S
C1092 C1087 1.490 . S
C1092 C1094 1.395 . S
C1092 C1095 1.403 . S
H1093 C1099 0.930 . S
C1094 H1080 0.930 . S
C1094 C1092 1.395 . S
C1094 C1097 1.403 . S
C1095 C1092 1.403 . S
C1095 C1096 1.524 . S
C1095 C1099 1.400 . S
C1096 H1081 0.960 . S
C1096 H1082 0.960 . S
C1096 H1083 0.960 . S
C1096 C1095 1.524 . S
C1097 C1094 1.403 . S
C1097 C1098 1.392 . S
C1097 C1101 1.495 . S
C1098 C1097 1.392 . S
C1098 C1099 1.385 . S
C1098 C1100 1.478 . S
C1099 H1093 0.930 . S
C1099 C1095 1.400 . S
C1099 C1098 1.385 . S
C1100 C1098 1.478 . S
C1100 C1102 1.381 . S
C1100 C1106 1.383 . S
C1101 C1097 1.495 . S
C1101 H1107 0.959 . S
C1101 H1108 0.961 . S
C1101 H1109 0.960 . S
C1102 C1100 1.381 . S
C1102 C1103 1.394 . S
C1102 H1110 0.930 . S
C1103 C1102 1.394 . S
C1103 C1104 1.383 . S
C1103 H1111 0.929 . S
C1104 C1103 1.383 . S
C1104 C1105 1.377 . S
C1105 H1089 0.930 . S
C1105 C1104 1.377 . S
C1105 C1106 1.379 . S
C1106 H1090 0.931 . S
C1106 C1100 1.383 . S
C1106 C1105 1.379 . S
H1107 C1101 0.959 . S
H1108 C1101 0.961 . S
H1109 C1101 0.960 . S
H1110 C1102 0.930 . S
H1111 C1103 0.929 . S
H1112 C1120 0.929 . S
H1113 C1122 0.930 . S
H1114 C1124 0.930 . S
H1115 C1127 0.929 . S
H1116 C1130 0.930 . S
H1117 C1132 0.960 . S
H1118 C1132 0.960 . S
H1119 C1132 0.960 . S
C1120 H1112 0.929 . S
C1120 C1121 1.377 . S
C1120 C1122 1.384 . S
C1121 C1120 1.377 . S
C1121 C1127 1.390 . S
C1122 H1113 0.930 . S
C1122 C1120 1.384 . S
C1122 C1123 1.372 . S
C1123 C1122 1.372 . S
C1123 C1124 1.400 . S
C1123 C1128 1.490 . S
C1124 H1114 0.930 . S
C1124 C1123 1.400 . S
C1124 C1127 1.386 . S
H1125 C1141 0.930 . S
H1126 C1142 0.931 . S
C1127 H1115 0.929 . S
C1127 C1121 1.390 . S
C1127 C1124 1.386 . S
C1128 C1123 1.490 . S
C1128 C1130 1.395 . S
C1128 C1131 1.403 . S
H1129 C1135 0.930 . S
C1130 H1116 0.930 . S
C1130 C1128 1.395 . S
C1130 C1133 1.403 . S
C1131 C1128 1.403 . S
C1131 C1132 1.524 . S
C1131 C1135 1.400 . S
C1132 H1117 0.960 . S
C1132 H1118 0.960 . S
C1132 H1119 0.960 . S
C1132 C1131 1.524 . S
C1133 C1130 1.403 . S
C1133 C1134 1.392 . S
C1133 C1137 1.495 . S
C1134 C1133 1.392 . S
C1134 C1135 1.385 . S
C1134 C1136 1.478 . S
C1135 H1129 0.930 . S
C1135 C1131 1.400 . S
C1135 C1134 1.385 . S
C1136 C1134 1.478 . S
C1136 C1138 1.381 . S
C1136 C1142 1.383 . S
C1137 C1133 1.495 . S
C1137 H1143 0.959 . S
C1137 H1144 0.961 . S
C1137 H1145 0.960 . S
C1138 C1136 1.381 . S
C1138 C1139 1.394 . S
C1138 H1146 0.930 . S
C1139 C1138 1.394 . S
C1139 C1140 1.383 . S
C1139 H1147 0.929 . S
C1140 C1139 1.383 . S
C1140 C1141 1.377 . S
C1141 H1125 0.930 . S
C1141 C1140 1.377 . S
C1141 C1142 1.379 . S
C1142 H1126 0.931 . S
C1142 C1136 1.383 . S
C1142 C1141 1.379 . S
H1143 C1137 0.959 . S
H1144 C1137 0.961 . S
H1145 C1137 0.960 . S
H1146 C1138 0.930 . S
H1147 C1139 0.929 . S
H1148 C1156 0.929 . S
H1149 C1158 0.930 . S
H1150 C1160 0.930 . S
H1151 C1163 0.929 . S
H1152 C1166 0.930 . S
H1153 C1168 0.960 . S
H1154 C1168 0.960 . S
H1155 C1168 0.960 . S
C1156 H1148 0.929 . S
C1156 C1157 1.377 . S
C1156 C1158 1.384 . S
C1157 C1156 1.377 . S
C1157 C1163 1.390 . S
C1158 H1149 0.930 . S
C1158 C1156 1.384 . S
C1158 C1159 1.372 . S
C1159 C1158 1.372 . S
C1159 C1160 1.400 . S
C1159 C1164 1.490 . S
C1160 H1150 0.930 . S
C1160 C1159 1.400 . S
C1160 C1163 1.386 . S
H1161 C1177 0.930 . S
H1162 C1178 0.931 . S
C1163 H1151 0.929 . S
C1163 C1157 1.390 . S
C1163 C1160 1.386 . S
C1164 C1159 1.490 . S
C1164 C1166 1.395 . S
C1164 C1167 1.403 . S
H1165 C1171 0.930 . S
C1166 H1152 0.930 . S
C1166 C1164 1.395 . S
C1166 C1169 1.403 . S
C1167 C1164 1.403 . S
C1167 C1168 1.524 . S
C1167 C1171 1.400 . S
C1168 H1153 0.960 . S
C1168 H1154 0.960 . S
C1168 H1155 0.960 . S
C1168 C1167 1.524 . S
C1169 C1166 1.403 . S
C1169 C1170 1.392 . S
C1169 C1173 1.495 . S
C1170 C1169 1.392 . S
C1170 C1171 1.385 . S
C1170 C1172 1.478 . S
C1171 H1165 0.930 . S
C1171 C1167 1.400 . S
C1171 C1170 1.385 . S
C1172 C1170 1.478 . S
C1172 C1174 1.381 . S
C1172 C1178 1.383 . S
C1173 C1169 1.495 . S
C1173 H1179 0.959 . S
C1173 H1180 0.961 . S
C1173 H1181 0.960 . S
C1174 C1172 1.381 . S
C1174 C1175 1.394 . S
C1174 H1182 0.930 . S
C1175 C1174 1.394 . S
C1175 C1176 1.383 . S
C1175 H1183 0.929 . S
C1176 C1175 1.383 . S
C1176 C1177 1.377 . S
C1177 H1161 0.930 . S
C1177 C1176 1.377 . S
C1177 C1178 1.379 . S
C1178 H1162 0.931 . S
C1178 C1172 1.383 . S
C1178 C1177 1.379 . S
H1179 C1173 0.959 . S
H1180 C1173 0.961 . S
H1181 C1173 0.960 . S
H1182 C1174 0.930 . S
H1183 C1175 0.929 . S
H1184 C1192 0.929 . S
H1185 C1194 0.930 . S
H1186 C1196 0.930 . S
H1187 C1199 0.929 . S
H1188 C1202 0.930 . S
H1189 C1204 0.960 . S
H1190 C1204 0.960 . S
H1191 C1204 0.960 . S
C1192 H1184 0.929 . S
C1192 C1193 1.377 . S
C1192 C1194 1.384 . S
C1193 C1192 1.377 . S
C1193 C1199 1.390 . S
C1194 H1185 0.930 . S
C1194 C1192 1.384 . S
C1194 C1195 1.372 . S
C1195 C1194 1.372 . S
C1195 C1196 1.400 . S
C1195 C1200 1.490 . S
C1196 H1186 0.930 . S
C1196 C1195 1.400 . S
C1196 C1199 1.386 . S
H1197 C1213 0.930 . S
H1198 C1214 0.931 . S
C1199 H1187 0.929 . S
C1199 C1193 1.390 . S
C1199 C1196 1.386 . S
C1200 C1195 1.490 . S
C1200 C1202 1.395 . S
C1200 C1203 1.403 . S
H1201 C1207 0.930 . S
C1202 H1188 0.930 . S
C1202 C1200 1.395 . S
C1202 C1205 1.403 . S
C1203 C1200 1.403 . S
C1203 C1204 1.524 . S
C1203 C1207 1.400 . S
C1204 H1189 0.960 . S
C1204 H1190 0.960 . S
C1204 H1191 0.960 . S
C1204 C1203 1.524 . S
C1205 C1202 1.403 . S
C1205 C1206 1.393 . S
C1205 C1209 1.495 1_554 S
C1206 C1205 1.393 . S
C1206 C1207 1.386 . S
C1206 C1208 1.477 1_554 S
C1207 H1201 0.930 . S
C1207 C1203 1.400 . S
C1207 C1206 1.386 . S
C1208 C1206 1.477 1_556 S
C1208 C1210 1.381 . S
C1208 C1214 1.383 . S
C1209 C1205 1.495 1_556 S
C1209 H1215 0.959 1_556 S
C1209 H1216 0.961 . S
C1209 H1217 0.960 . S
C1210 C1208 1.381 . S
C1210 C1211 1.394 . S
C1210 H1218 0.930 . S
C1211 C1210 1.394 . S
C1211 C1212 1.383 . S
C1211 H1219 0.929 . S
C1212 C1211 1.383 . S
C1212 C1213 1.377 . S
C1213 H1197 0.930 . S
C1213 C1212 1.377 . S
C1213 C1214 1.379 . S
C1214 H1198 0.931 . S
C1214 C1208 1.383 . S
C1214 C1213 1.379 . S
H1215 C1209 0.959 1_554 S
H1216 C1209 0.961 . S
H1217 C1209 0.960 . S
H1218 C1210 0.930 . S
H1219 C1211 0.929 . S
H1220 C1228 0.929 . S
H1221 C1230 0.930 . S
H1222 C1232 0.930 . S
H1223 C1235 0.929 . S
H1224 C1238 0.930 . S
H1225 C1240 0.960 . S
H1226 C1240 0.960 . S
H1227 C1240 0.960 . S
C1228 H1220 0.929 . S
C1228 C1229 1.377 . S
C1228 C1230 1.384 . S
C1229 C1228 1.377 . S
C1229 C1235 1.390 . S
C1230 H1221 0.930 . S
C1230 C1228 1.384 . S
C1230 C1231 1.372 . S
C1231 C1230 1.372 . S
C1231 C1232 1.400 . S
C1231 C1236 1.490 . S
C1232 H1222 0.930 . S
C1232 C1231 1.400 . S
C1232 C1235 1.386 . S
H1233 C1249 0.930 . S
H1234 C1250 0.931 . S
C1235 H1223 0.929 . S
C1235 C1229 1.390 . S
C1235 C1232 1.386 . S
C1236 C1231 1.490 . S
C1236 C1238 1.395 . S
C1236 C1239 1.403 . S
H1237 C1243 0.930 . S
C1238 H1224 0.930 . S
C1238 C1236 1.395 . S
C1238 C1241 1.403 . S
C1239 C1236 1.403 . S
C1239 C1240 1.524 . S
C1239 C1243 1.400 . S
C1240 H1225 0.960 . S
C1240 H1226 0.960 . S
C1240 H1227 0.960 . S
C1240 C1239 1.524 . S
C1241 C1238 1.403 . S
C1241 C1242 1.392 . S
C1241 C1245 1.495 . S
C1242 C1241 1.392 . S
C1242 C1243 1.385 . S
C1242 C1244 1.478 . S
C1243 H1237 0.930 . S
C1243 C1239 1.400 . S
C1243 C1242 1.385 . S
C1244 C1242 1.478 . S
C1244 C1246 1.381 . S
C1244 C1250 1.383 . S
C1245 C1241 1.495 . S
C1245 H1251 0.959 . S
C1245 H1252 0.961 . S
C1245 H1253 0.960 . S
C1246 C1244 1.381 . S
C1246 C1247 1.394 . S
C1246 H1254 0.930 . S
C1247 C1246 1.394 . S
C1247 C1248 1.383 . S
C1247 H1255 0.929 . S
C1248 C1247 1.383 . S
C1248 C1249 1.377 . S
C1249 H1233 0.930 . S
C1249 C1248 1.377 . S
C1249 C1250 1.379 . S
C1250 H1234 0.931 . S
C1250 C1244 1.383 . S
C1250 C1249 1.379 . S
H1251 C1245 0.959 . S
H1252 C1245 0.961 . S
H1253 C1245 0.960 . S
H1254 C1246 0.930 . S
H1255 C1247 0.929 . S
H1256 C1264 0.929 . S
H1257 C1266 0.930 . S
H1258 C1268 0.930 . S
H1259 C1271 0.929 . S
H1260 C1274 0.930 . S
H1261 C1276 0.960 . S
H1262 C1276 0.960 . S
H1263 C1276 0.960 . S
C1264 H1256 0.929 . S
C1264 C1265 1.377 . S
C1264 C1266 1.384 . S
C1265 C1264 1.377 . S
C1265 C1271 1.390 . S
C1266 H1257 0.930 . S
C1266 C1264 1.384 . S
C1266 C1267 1.372 . S
C1267 C1266 1.372 . S
C1267 C1268 1.400 . S
C1267 C1272 1.490 . S
C1268 H1258 0.930 . S
C1268 C1267 1.400 . S
C1268 C1271 1.386 . S
H1269 C1285 0.930 . S
H1270 C1286 0.931 . S
C1271 H1259 0.929 . S
C1271 C1265 1.390 . S
C1271 C1268 1.386 . S
C1272 C1267 1.490 . S
C1272 C1274 1.395 . S
C1272 C1275 1.403 . S
H1273 C1279 0.930 . S
C1274 H1260 0.930 . S
C1274 C1272 1.395 . S
C1274 C1277 1.403 . S
C1275 C1272 1.403 . S
C1275 C1276 1.524 . S
C1275 C1279 1.400 . S
C1276 H1261 0.960 . S
C1276 H1262 0.960 . S
C1276 H1263 0.960 . S
C1276 C1275 1.524 . S
C1277 C1274 1.403 . S
C1277 C1278 1.392 . S
C1277 C1281 1.495 . S
C1278 C1277 1.392 . S
C1278 C1279 1.385 . S
C1278 C1280 1.478 . S
C1279 H1273 0.930 . S
C1279 C1275 1.400 . S
C1279 C1278 1.385 . S
C1280 C1278 1.478 . S
C1280 C1282 1.381 . S
C1280 C1286 1.383 . S
C1281 C1277 1.495 . S
C1281 H1287 0.959 . S
C1281 H1288 0.961 . S
C1281 H1289 0.960 . S
C1282 C1280 1.381 . S
C1282 C1283 1.394 . S
C1282 H1290 0.930 . S
C1283 C1282 1.394 . S
C1283 C1284 1.383 . S
C1283 H1291 0.929 . S
C1284 C1283 1.383 . S
C1284 C1285 1.377 . S
C1285 H1269 0.930 . S
C1285 C1284 1.377 . S
C1285 C1286 1.379 . S
C1286 H1270 0.931 . S
C1286 C1280 1.383 . S
C1286 C1285 1.379 . S
H1287 C1281 0.959 . S
H1288 C1281 0.961 . S
H1289 C1281 0.960 . S
H1290 C1282 0.930 . S
H1291 C1283 0.929 . S
H1292 C1300 0.929 . S
H1293 C1302 0.930 . S
H1294 C1304 0.930 . S
H1295 C1307 0.929 . S
H1296 C1310 0.930 . S
H1297 C1312 0.960 . S
H1298 C1312 0.960 . S
H1299 C1312 0.960 . S
C1300 H1292 0.929 . S
C1300 C1301 1.377 . S
C1300 C1302 1.384 . S
C1301 C1300 1.377 . S
C1301 C1307 1.390 . S
C1302 H1293 0.930 . S
C1302 C1300 1.384 . S
C1302 C1303 1.372 . S
C1303 C1302 1.372 . S
C1303 C1304 1.400 . S
C1303 C1308 1.490 . S
C1304 H1294 0.930 . S
C1304 C1303 1.400 . S
C1304 C1307 1.386 . S
H1305 C1321 0.930 . S
H1306 C1322 0.931 . S
C1307 H1295 0.929 . S
C1307 C1301 1.390 . S
C1307 C1304 1.386 . S
C1308 C1303 1.490 . S
C1308 C1310 1.395 . S
C1308 C1311 1.403 . S
H1309 C1315 0.930 . S
C1310 H1296 0.930 . S
C1310 C1308 1.395 . S
C1310 C1313 1.403 . S
C1311 C1308 1.403 . S
C1311 C1312 1.524 . S
C1311 C1315 1.400 . S
C1312 H1297 0.960 . S
C1312 H1298 0.960 . S
C1312 H1299 0.960 . S
C1312 C1311 1.524 . S
C1313 C1310 1.403 . S
C1313 C1314 1.392 . S
C1313 C1317 1.495 . S
C1314 C1313 1.392 . S
C1314 C1315 1.385 . S
C1314 C1316 1.478 . S
C1315 H1309 0.930 . S
C1315 C1311 1.400 . S
C1315 C1314 1.385 . S
C1316 C1314 1.478 . S
C1316 C1318 1.381 . S
C1316 C1322 1.383 . S
C1317 C1313 1.495 . S
C1317 H1323 0.959 . S
C1317 H1324 0.961 . S
C1317 H1325 0.960 . S
C1318 C1316 1.381 . S
C1318 C1319 1.394 . S
C1318 H1326 0.930 . S
C1319 C1318 1.394 . S
C1319 C1320 1.383 . S
C1319 H1327 0.929 . S
C1320 C1319 1.383 . S
C1320 C1321 1.377 . S
C1321 H1305 0.930 . S
C1321 C1320 1.377 . S
C1321 C1322 1.379 . S
C1322 H1306 0.931 . S
C1322 C1316 1.383 . S
C1322 C1321 1.379 . S
H1323 C1317 0.959 . S
H1324 C1317 0.961 . S
H1325 C1317 0.960 . S
H1326 C1318 0.930 . S
H1327 C1319 0.929 . S
H1328 C1336 0.929 . S
H1329 C1338 0.930 . S
H1330 C1340 0.930 . S
H1331 C1343 0.929 . S
H1332 C1346 0.930 . S
H1333 C1348 0.960 . S
H1334 C1348 0.960 . S
H1335 C1348 0.960 . S
C1336 H1328 0.929 . S
C1336 C1337 1.377 . S
C1336 C1338 1.384 . S
C1337 C1336 1.377 . S
C1337 C1343 1.390 . S
C1338 H1329 0.930 . S
C1338 C1336 1.384 . S
C1338 C1339 1.372 . S
C1339 C1338 1.372 . S
C1339 C1340 1.400 . S
C1339 C1344 1.490 . S
C1340 H1330 0.930 . S
C1340 C1339 1.400 . S
C1340 C1343 1.386 . S
H1341 C1357 0.930 . S
H1342 C1358 0.931 . S
C1343 H1331 0.929 . S
C1343 C1337 1.390 . S
C1343 C1340 1.386 . S
C1344 C1339 1.490 . S
C1344 C1346 1.395 . S
C1344 C1347 1.403 . S
H1345 C1351 0.930 . S
C1346 H1332 0.930 . S
C1346 C1344 1.395 . S
C1346 C1349 1.403 . S
C1347 C1344 1.403 . S
C1347 C1348 1.524 . S
C1347 C1351 1.400 . S
C1348 H1333 0.960 . S
C1348 H1334 0.960 . S
C1348 H1335 0.960 . S
C1348 C1347 1.524 . S
C1349 C1346 1.403 . S
C1349 C1350 1.392 . S
C1349 C1353 1.495 . S
C1350 C1349 1.392 . S
C1350 C1351 1.385 . S
C1350 C1352 1.478 . S
C1351 H1345 0.930 . S
C1351 C1347 1.400 . S
C1351 C1350 1.385 . S
C1352 C1350 1.478 . S
C1352 C1354 1.381 . S
C1352 C1358 1.383 . S
C1353 C1349 1.495 . S
C1353 H1359 0.959 . S
C1353 H1360 0.961 . S
C1353 H1361 0.960 . S
C1354 C1352 1.381 . S
C1354 C1355 1.394 . S
C1354 H1362 0.930 . S
C1355 C1354 1.394 . S
C1355 C1356 1.383 . S
C1355 H1363 0.929 . S
C1356 C1355 1.383 . S
C1356 C1357 1.377 . S
C1357 H1341 0.930 . S
C1357 C1356 1.377 . S
C1357 C1358 1.379 . S
C1358 H1342 0.931 . S
C1358 C1352 1.383 . S
C1358 C1357 1.379 . S
H1359 C1353 0.959 . S
H1360 C1353 0.961 . S
H1361 C1353 0.960 . S
H1362 C1354 0.930 . S
H1363 C1355 0.929 . S
H1364 C1372 0.929 . S
H1365 C1374 0.930 . S
H1366 C1376 0.930 . S
H1367 C1379 0.929 . S
H1368 C1382 0.930 . S
H1369 C1384 0.960 . S
H1370 C1384 0.960 . S
H1371 C1384 0.960 . S
C1372 H1364 0.929 . S
C1372 C1373 1.377 . S
C1372 C1374 1.384 1_565 S
C1373 C1372 1.377 . S
C1373 C1379 1.390 . S
C1374 H1365 0.930 . S
C1374 C1372 1.384 1_545 S
C1374 C1375 1.372 1_545 S
C1375 C1374 1.372 1_565 S
C1375 C1376 1.400 . S
C1375 C1380 1.490 1_565 S
C1376 H1366 0.930 . S
C1376 C1375 1.400 . S
C1376 C1379 1.386 . S
H1377 C1393 0.930 . S
H1378 C1394 0.931 . S
C1379 H1367 0.929 . S
C1379 C1373 1.390 . S
C1379 C1376 1.386 . S
C1380 C1375 1.490 1_545 S
C1380 C1382 1.395 1_545 S
C1380 C1383 1.403 . S
H1381 C1387 0.930 . S
C1382 H1368 0.930 . S
C1382 C1380 1.395 1_565 S
C1382 C1385 1.403 1_565 S
C1383 C1380 1.403 . S
C1383 C1384 1.524 . S
C1383 C1387 1.400 . S
C1384 H1369 0.960 . S
C1384 H1370 0.960 . S
C1384 H1371 0.960 . S
C1384 C1383 1.524 . S
C1385 C1382 1.403 1_545 S
C1385 C1386 1.392 . S
C1385 C1389 1.495 1_545 S
C1386 C1385 1.392 . S
C1386 C1387 1.385 . S
C1386 C1388 1.478 . S
C1387 H1381 0.930 . S
C1387 C1383 1.400 . S
C1387 C1386 1.385 . S
C1388 C1386 1.478 . S
C1388 C1390 1.381 . S
C1388 C1394 1.383 . S
C1389 C1385 1.495 1_565 S
C1389 H1395 0.959 . S
C1389 H1396 0.961 . S
C1389 H1397 0.960 1_565 S
C1390 C1388 1.381 . S
C1390 C1391 1.394 . S
C1390 H1398 0.930 . S
C1391 C1390 1.394 . S
C1391 C1392 1.383 . S
C1391 H1399 0.929 . S
C1392 C1391 1.383 . S
C1392 C1393 1.377 . S
C1393 H1377 0.930 . S
C1393 C1392 1.377 . S
C1393 C1394 1.379 . S
C1394 H1378 0.931 . S
C1394 C1388 1.383 . S
C1394 C1393 1.379 . S
H1395 C1389 0.959 . S
H1396 C1389 0.961 . S
H1397 C1389 0.960 1_545 S
H1398 C1390 0.930 . S
H1399 C1391 0.929 . S
H1400 C1408 0.929 . S
H1401 C1410 0.930 . S
H1402 C1412 0.930 . S
H1403 C1415 0.929 . S
H1404 C1418 0.930 . S
H1405 C1420 0.960 . S
H1406 C1420 0.960 . S
H1407 C1420 0.960 . S
C1408 H1400 0.929 . S
C1408 C1409 1.377 . S
C1408 C1410 1.384 . S
C1409 C1408 1.377 . S
C1409 C1415 1.390 . S
C1410 H1401 0.930 . S
C1410 C1408 1.384 . S
C1410 C1411 1.372 . S
C1411 C1410 1.372 . S
C1411 C1412 1.400 . S
C1411 C1416 1.490 . S
C1412 H1402 0.930 . S
C1412 C1411 1.400 . S
C1412 C1415 1.386 . S
H1413 C1429 0.930 . S
H1414 C1430 0.931 . S
C1415 H1403 0.929 . S
C1415 C1409 1.390 . S
C1415 C1412 1.386 . S
C1416 C1411 1.490 . S
C1416 C1418 1.395 . S
C1416 C1419 1.403 . S
H1417 C1423 0.930 . S
C1418 H1404 0.930 . S
C1418 C1416 1.395 . S
C1418 C1421 1.403 . S
C1419 C1416 1.403 . S
C1419 C1420 1.524 . S
C1419 C1423 1.400 . S
C1420 H1405 0.960 . S
C1420 H1406 0.960 . S
C1420 H1407 0.960 . S
C1420 C1419 1.524 . S
C1421 C1418 1.403 . S
C1421 C1422 1.392 . S
C1421 C1425 1.495 . S
C1422 C1421 1.392 . S
C1422 C1423 1.385 . S
C1422 C1424 1.478 1_556 S
C1423 H1417 0.930 . S
C1423 C1419 1.400 . S
C1423 C1422 1.385 . S
C1424 C1422 1.478 1_554 S
C1424 C1426 1.381 . S
C1424 C1430 1.383 . S
C1425 C1421 1.495 . S
C1425 H1431 0.959 . S
C1425 H1432 0.961 1_556 S
C1425 H1433 0.978 . S
C1426 C1424 1.381 . S
C1426 C1427 1.394 . S
C1426 H1434 0.930 . S
C1427 C1426 1.394 . S
C1427 C1428 1.383 . S
C1427 H1435 0.929 . S
C1428 C1427 1.383 . S
C1428 C1429 1.377 . S
C1429 H1413 0.930 . S
C1429 C1428 1.377 . S
C1429 C1430 1.379 . S
C1430 H1414 0.931 . S
C1430 C1424 1.383 . S
C1430 C1429 1.379 . S
H1431 C1425 0.959 . S
H1432 C1425 0.961 1_554 S
H1433 C1425 0.978 . S
H1434 C1426 0.930 . S
H1435 C1427 0.929 . S
H1436 C1444 0.929 . S
H1437 C1446 0.930 . S
H1438 C1448 0.930 . S
H1439 C1451 0.929 1_565 S
H1440 C1454 0.930 . S
H1441 C1456 0.960 . S
H1442 C1456 0.960 . S
H1443 C1456 0.960 . S
C1444 H1436 0.929 . S
C1444 C1445 1.377 . S
C1444 C1446 1.384 . S
C1445 C1444 1.377 . S
C1445 C1451 1.390 . S
C1446 H1437 0.930 . S
C1446 C1444 1.384 . S
C1446 C1447 1.372 . S
C1447 C1446 1.372 . S
C1447 C1448 1.400 1_545 S
C1447 C1452 1.490 . S
C1448 H1438 0.930 . S
C1448 C1447 1.400 1_565 S
C1448 C1451 1.386 1_565 S
H1449 C1465 0.930 . S
H1450 C1466 0.931 . S
C1451 H1439 0.929 1_545 S
C1451 C1445 1.390 . S
C1451 C1448 1.386 1_545 S
C1452 C1447 1.490 . S
C1452 C1454 1.395 . S
C1452 C1455 1.403 1_545 S
H1453 C1459 0.930 . S
C1454 H1440 0.930 . S
C1454 C1452 1.395 . S
C1454 C1457 1.403 . S
C1455 C1452 1.403 1_565 S
C1455 C1456 1.524 . S
C1455 C1459 1.400 . S
C1456 H1441 0.960 . S
C1456 H1442 0.960 . S
C1456 H1443 0.960 . S
C1456 C1455 1.524 . S
C1457 C1454 1.403 . S
C1457 C1458 1.392 . S
C1457 C1461 1.495 . S
C1458 C1457 1.392 . S
C1458 C1459 1.385 1_545 S
C1458 C1460 1.482 . S
C1459 H1453 0.930 . S
C1459 C1455 1.400 . S
C1459 C1458 1.385 1_565 S
C1460 C1458 1.482 . S
C1460 C1462 1.394 . S
C1460 C1466 1.365 1_545 S
C1461 C1457 1.495 . S
C1461 H1467 0.959 . S
C1461 H1468 0.961 . S
C1461 H1469 0.960 . S
C1462 C1460 1.394 . S
C1462 C1463 1.394 . S
C1462 H1470 0.930 . S
C1463 C1462 1.394 . S
C1463 C1464 1.383 1_545 S
C1463 H1471 0.929 . S
C1464 C1463 1.383 1_565 S
C1464 C1465 1.377 . S
C1465 H1449 0.930 . S
C1465 C1464 1.377 . S
C1465 C1466 1.379 . S
C1466 H1450 0.931 . S
C1466 C1460 1.365 1_565 S
C1466 C1465 1.379 . S
H1467 C1461 0.959 . S
H1468 C1461 0.961 . S
H1469 C1461 0.960 . S
H1470 C1462 0.930 . S
H1471 C1463 0.929 . S
H1472 C1480 0.929 . S
H1473 C1482 0.930 . S
H1474 C1484 0.930 . S
H1475 C1487 0.929 . S
H1476 C1490 0.930 . S
H1477 C1492 0.960 . S
H1478 C1492 0.960 . S
H1479 C1492 0.960 . S
C1480 H1472 0.929 . S
C1480 C1481 1.377 . S
C1480 C1482 1.384 . S
C1481 C1480 1.377 . S
C1481 C1487 1.390 . S
C1482 H1473 0.930 . S
C1482 C1480 1.384 . S
C1482 C1483 1.372 . S
C1483 C1482 1.372 . S
C1483 C1484 1.400 . S
C1483 C1488 1.490 . S
C1484 H1474 0.930 . S
C1484 C1483 1.400 . S
C1484 C1487 1.386 . S
H1485 C1501 0.930 . S
H1486 C1502 0.931 . S
C1487 H1475 0.929 . S
C1487 C1481 1.390 . S
C1487 C1484 1.386 . S
C1488 C1483 1.490 . S
C1488 C1490 1.395 . S
C1488 C1491 1.403 . S
H1489 C1495 0.930 . S
C1490 H1476 0.930 . S
C1490 C1488 1.395 . S
C1490 C1493 1.403 . S
C1491 C1488 1.403 . S
C1491 C1492 1.524 . S
C1491 C1495 1.400 . S
C1492 H1477 0.960 . S
C1492 H1478 0.960 . S
C1492 H1479 0.960 . S
C1492 C1491 1.524 . S
C1493 C1490 1.403 . S
C1493 C1494 1.392 . S
C1493 C1497 1.495 . S
C1494 C1493 1.392 . S
C1494 C1495 1.385 . S
C1494 C1496 1.478 . S
C1495 H1489 0.930 . S
C1495 C1491 1.400 . S
C1495 C1494 1.385 . S
C1496 C1494 1.478 . S
C1496 C1498 1.381 . S
C1496 C1502 1.383 . S
C1497 C1493 1.495 . S
C1497 H1503 0.959 . S
C1497 H1504 0.961 . S
C1497 H1505 0.960 . S
C1498 C1496 1.381 . S
C1498 C1499 1.394 . S
C1498 H1506 0.930 . S
C1499 C1498 1.394 . S
C1499 C1500 1.383 . S
C1499 H1507 0.929 . S
C1500 C1499 1.383 . S
C1500 C1501 1.377 . S
C1501 H1485 0.930 . S
C1501 C1500 1.377 . S
C1501 C1502 1.379 . S
C1502 H1486 0.931 . S
C1502 C1496 1.383 . S
C1502 C1501 1.379 . S
H1503 C1497 0.959 . S
H1504 C1497 0.961 . S
H1505 C1497 0.960 . S
H1506 C1498 0.930 . S
H1507 C1499 0.929 . S
H1508 C1516 0.929 . S
H1509 C1518 0.930 . S
H1510 C1520 0.930 . S
H1511 C1523 0.929 . S
H1512 C1526 0.930 . S
H1513 C1528 0.960 . S
H1514 C1528 0.960 . S
H1515 C1528 0.960 . S
C1516 H1508 0.929 . S
C1516 C1517 1.377 1_565 S
C1516 C1518 1.384 . S
C1517 C1516 1.377 1_545 S
C1517 C1523 1.390 . S
C1518 H1509 0.930 . S
C1518 C1516 1.384 . S
C1518 C1519 1.372 1_565 S
C1519 C1518 1.372 1_545 S
C1519 C1520 1.400 . S
C1519 C1524 1.490 1_545 S
C1520 H1510 0.930 . S
C1520 C1519 1.400 . S
C1520 C1523 1.386 . S
H1521 C1537 0.930 . S
H1522 C1538 0.931 1_545 S
C1523 H1511 0.929 . S
C1523 C1517 1.390 . S
C1523 C1520 1.386 . S
C1524 C1519 1.490 1_565 S
C1524 C1526 1.395 . S
C1524 C1527 1.403 1_565 S
H1525 C1531 0.930 . S
C1526 H1512 0.930 . S
C1526 C1524 1.395 . S
C1526 C1529 1.403 . S
C1527 C1524 1.403 1_545 S
C1527 C1528 1.524 . S
C1527 C1531 1.400 . S
C1528 H1513 0.960 . S
C1528 H1514 0.960 . S
C1528 H1515 0.960 . S
C1528 C1527 1.524 . S
C1529 C1526 1.403 . S
C1529 C1530 1.392 . S
C1529 C1533 1.495 . S
C1530 C1529 1.392 . S
C1530 C1531 1.385 1_565 S
C1530 C1532 1.478 . S
C1531 H1525 0.930 . S
C1531 C1527 1.400 . S
C1531 C1530 1.385 1_545 S
C1532 C1530 1.478 . S
C1532 C1534 1.381 . S
C1532 C1538 1.383 . S
C1533 C1529 1.495 . S
C1533 H1539 0.959 . S
C1533 H1540 0.961 . S
C1533 H1541 0.960 . S
C1534 C1532 1.381 . S
C1534 C1535 1.394 . S
C1534 H1542 0.930 . S
C1535 C1534 1.394 . S
C1535 C1536 1.383 . S
C1535 H1543 0.929 . S
C1536 C1535 1.383 . S
C1536 C1537 1.377 . S
C1537 H1521 0.930 . S
C1537 C1536 1.377 . S
C1537 C1538 1.379 . S
C1538 H1522 0.931 1_565 S
C1538 C1532 1.383 . S
C1538 C1537 1.379 . S
H1539 C1533 0.959 . S
H1540 C1533 0.961 . S
H1541 C1533 0.960 . S
H1542 C1534 0.930 . S
H1543 C1535 0.929 . S
H1544 C1552 0.929 . S
H1545 C1554 0.930 . S
H1546 C1556 0.930 . S
H1547 C1559 0.929 . S
H1548 C1562 0.930 . S
H1549 C1564 0.960 . S
H1550 C1564 0.960 . S
H1551 C1564 0.960 . S
C1552 H1544 0.929 . S
C1552 C1553 1.377 . S
C1552 C1554 1.384 . S
C1553 C1552 1.377 . S
C1553 C1559 1.390 . S
C1554 H1545 0.930 . S
C1554 C1552 1.384 . S
C1554 C1555 1.372 . S
C1555 C1554 1.372 . S
C1555 C1556 1.400 . S
C1555 C1560 1.490 . S
C1556 H1546 0.930 . S
C1556 C1555 1.400 . S
C1556 C1559 1.386 . S
H1557 C1573 0.930 . S
H1558 C1574 0.931 . S
C1559 H1547 0.929 . S
C1559 C1553 1.390 . S
C1559 C1556 1.386 . S
C1560 C1555 1.490 . S
C1560 C1562 1.395 . S
C1560 C1563 1.403 . S
H1561 C1567 0.930 . S
C1562 H1548 0.930 . S
C1562 C1560 1.395 . S
C1562 C1565 1.403 . S
C1563 C1560 1.403 . S
C1563 C1564 1.524 . S
C1563 C1567 1.400 . S
C1564 H1549 0.960 . S
C1564 H1550 0.960 . S
C1564 H1551 0.960 . S
C1564 C1563 1.524 . S
C1565 C1562 1.403 . S
C1565 C1566 1.392 . S
C1565 C1569 1.495 1_554 S
C1566 C1565 1.392 . S
C1566 C1567 1.385 . S
C1566 C1568 1.478 1_554 S
C1567 H1561 0.930 . S
C1567 C1563 1.400 . S
C1567 C1566 1.385 . S
C1568 C1566 1.478 1_556 S
C1568 C1570 1.381 . S
C1568 C1574 1.383 . S
C1569 C1565 1.495 1_556 S
C1569 H1575 0.959 1_556 S
C1569 H1576 0.961 . S
C1569 H1577 0.960 . S
C1570 C1568 1.381 . S
C1570 C1571 1.394 . S
C1570 H1578 0.930 . S
C1571 C1570 1.394 . S
C1571 C1572 1.383 . S
C1571 H1579 0.929 . S
C1572 C1571 1.383 . S
C1572 C1573 1.377 . S
C1573 H1557 0.930 . S
C1573 C1572 1.377 . S
C1573 C1574 1.379 . S
C1574 H1558 0.931 . S
C1574 C1568 1.383 . S
C1574 C1573 1.379 . S
H1575 C1569 0.959 1_554 S
H1576 C1569 0.961 . S
H1577 C1569 0.960 . S
H1578 C1570 0.930 . S
H1579 C1571 0.929 . S
H1580 C1588 0.929 . S
H1581 C1590 0.930 . S
H1582 C1592 0.930 . S
H1583 C1595 0.929 . S
H1584 C1598 0.930 . S
H1585 C1600 0.960 . S
H1586 C1600 0.960 . S
H1587 C1600 0.960 . S
C1588 H1580 0.929 . S
C1588 C1589 1.377 . S
C1588 C1590 1.384 . S
C1589 C1588 1.377 . S
C1589 C1595 1.390 . S
C1590 H1581 0.930 . S
C1590 C1588 1.384 . S
C1590 C1591 1.372 . S
C1591 C1590 1.372 . S
C1591 C1592 1.400 . S
C1591 C1596 1.490 . S
C1592 H1582 0.930 . S
C1592 C1591 1.400 . S
C1592 C1595 1.386 . S
H1593 C1609 0.930 . S
H1594 C1610 0.931 . S
C1595 H1583 0.929 . S
C1595 C1589 1.390 . S
C1595 C1592 1.386 . S
C1596 C1591 1.490 . S
C1596 C1598 1.395 1_545 S
C1596 C1599 1.403 . S
H1597 C1603 0.930 . S
C1598 H1584 0.930 . S
C1598 C1596 1.395 1_565 S
C1598 C1601 1.403 . S
C1599 C1596 1.403 . S
C1599 C1600 1.524 . S
C1599 C1603 1.400 . S
C1600 H1585 0.960 . S
C1600 H1586 0.960 . S
C1600 H1587 0.960 . S
C1600 C1599 1.524 . S
C1601 C1598 1.403 . S
C1601 C1602 1.392 . S
C1601 C1605 1.495 . S
C1602 C1601 1.392 . S
C1602 C1603 1.385 1_565 S
C1602 C1604 1.478 . S
C1603 H1597 0.930 . S
C1603 C1599 1.400 . S
C1603 C1602 1.385 1_545 S
C1604 C1602 1.478 . S
C1604 C1606 1.381 . S
C1604 C1610 1.383 . S
C1605 C1601 1.495 . S
C1605 H1611 0.959 . S
C1605 H1612 0.961 . S
C1605 H1613 0.960 . S
C1606 C1604 1.381 . S
C1606 C1607 1.394 . S
C1606 H1614 0.930 . S
C1607 C1606 1.394 . S
C1607 C1608 1.383 . S
C1607 H1615 0.929 . S
C1608 C1607 1.383 . S
C1608 C1609 1.377 . S
C1609 H1593 0.930 . S
C1609 C1608 1.377 . S
C1609 C1610 1.379 . S
C1610 H1594 0.931 . S
C1610 C1604 1.383 . S
C1610 C1609 1.379 . S
H1611 C1605 0.959 . S
H1612 C1605 0.961 . S
H1613 C1605 0.960 . S
H1614 C1606 0.930 . S
H1615 C1607 0.929 . S
H1616 C1624 0.929 . S
H1617 C1626 0.930 . S
H1618 C1628 0.930 1_545 S
H1619 C1631 0.929 . S
H1620 C1634 0.919 1_556 S
H1621 C1636 0.960 . S
H1622 C1636 0.960 . S
H1623 C1636 0.960 . S
C1624 H1616 0.929 . S
C1624 C1625 1.377 . S
C1624 C1626 1.384 . S
C1625 C1624 1.377 . S
C1625 C1631 1.390 . S
C1626 H1617 0.930 . S
C1626 C1624 1.384 . S
C1626 C1627 1.372 . S
C1627 C1626 1.372 . S
C1627 C1628 1.400 . S
C1627 C1632 1.490 . S
C1628 H1618 0.930 1_565 S
C1628 C1627 1.400 . S
C1628 C1631 1.386 . S
H1629 C1645 0.930 . S
H1630 C1646 0.931 . S
C1631 H1619 0.929 . S
C1631 C1625 1.390 . S
C1631 C1628 1.386 . S
C1632 C1627 1.490 . S
C1632 C1634 1.395 1_556 S
C1632 C1635 1.403 1_565 S
H1633 C1639 0.930 . S
C1634 H1620 0.919 1_554 S
C1634 C1632 1.395 1_554 S
C1634 C1637 1.403 . S
C1635 C1632 1.403 1_545 S
C1635 C1636 1.524 . S
C1635 C1639 1.400 1_556 S
C1636 H1621 0.960 . S
C1636 H1622 0.960 . S
C1636 H1623 0.960 . S
C1636 C1635 1.524 . S
C1637 C1634 1.403 . S
C1637 C1638 1.392 1_565 S
C1637 C1641 1.495 . S
C1638 C1637 1.392 1_545 S
C1638 C1639 1.385 . S
C1638 C1640 1.478 . S
C1639 H1633 0.930 . S
C1639 C1635 1.400 1_554 S
C1639 C1638 1.385 . S
C1640 C1638 1.478 . S
C1640 C1642 1.381 . S
C1640 C1646 1.383 . S
C1641 C1637 1.495 . S
C1641 H1647 0.959 . S
C1641 H1648 0.961 . S
C1641 H1649 0.960 . S
C1642 C1640 1.381 . S
C1642 C1643 1.394 . S
C1642 H1650 0.930 . S
C1643 C1642 1.394 . S
C1643 C1644 1.383 . S
C1643 H1651 0.929 . S
C1644 C1643 1.383 . S
C1644 C1645 1.377 . S
C1645 H1629 0.930 . S
C1645 C1644 1.377 . S
C1645 C1646 1.379 . S
C1646 H1630 0.931 . S
C1646 C1640 1.383 . S
C1646 C1645 1.379 . S
H1647 C1641 0.959 . S
H1648 C1641 0.961 . S
H1649 C1641 0.960 . S
H1650 C1642 0.930 . S
H1651 C1643 0.929 . S
H1652 C1660 0.929 . S
H1653 C1662 0.930 . S
H1654 C1664 0.930 . S
H1655 C1667 0.929 . S
H1656 C1670 0.930 . S
H1657 C1672 0.960 . S
H1658 C1672 0.960 . S
H1659 C1672 0.960 . S
C1660 H1652 0.929 . S
C1660 C1661 1.377 . S
C1660 C1662 1.384 . S
C1661 C1660 1.377 . S
C1661 C1667 1.390 . S
C1662 H1653 0.930 . S
C1662 C1660 1.384 . S
C1662 C1663 1.372 . S
C1663 C1662 1.372 . S
C1663 C1664 1.400 . S
C1663 C1668 1.490 . S
C1664 H1654 0.930 . S
C1664 C1663 1.400 . S
C1664 C1667 1.386 . S
H1665 C1681 0.930 . S
H1666 C1682 0.931 . S
C1667 H1655 0.929 . S
C1667 C1661 1.390 . S
C1667 C1664 1.386 . S
C1668 C1663 1.490 . S
C1668 C1670 1.395 . S
C1668 C1671 1.403 . S
H1669 C1675 0.930 . S
C1670 H1656 0.930 . S
C1670 C1668 1.395 . S
C1670 C1673 1.403 . S
C1671 C1668 1.403 . S
C1671 C1672 1.524 . S
C1671 C1675 1.400 . S
C1672 H1657 0.960 . S
C1672 H1658 0.960 . S
C1672 H1659 0.960 . S
C1672 C1671 1.524 . S
C1673 C1670 1.403 . S
C1673 C1674 1.392 . S
C1673 C1677 1.495 . S
C1674 C1673 1.392 . S
C1674 C1675 1.385 . S
C1674 C1676 1.478 . S
C1675 H1669 0.930 . S
C1675 C1671 1.400 . S
C1675 C1674 1.385 . S
C1676 C1674 1.478 . S
C1676 C1678 1.381 . S
C1676 C1682 1.383 . S
C1677 C1673 1.495 . S
C1677 H1683 0.959 . S
C1677 H1684 0.961 . S
C1677 H1685 0.960 . S
C1678 C1676 1.381 . S
C1678 C1679 1.394 . S
C1678 H1686 0.930 . S
C1679 C1678 1.394 . S
C1679 C1680 1.383 . S
C1679 H1687 0.929 . S
C1680 C1679 1.383 . S
C1680 C1681 1.377 . S
C1681 H1665 0.930 . S
C1681 C1680 1.377 . S
C1681 C1682 1.379 . S
C1682 H1666 0.931 . S
C1682 C1676 1.383 . S
C1682 C1681 1.379 . S
H1683 C1677 0.959 . S
H1684 C1677 0.961 . S
H1685 C1677 0.960 . S
H1686 C1678 0.930 . S
H1687 C1679 0.929 . S
H1688 C1696 0.929 . S
H1689 C1698 0.930 1_565 S
H1690 C1700 0.930 . S
H1691 C1703 0.929 . S
H1692 C1706 0.930 . S
H1693 C1708 0.960 . S
H1694 C1708 0.960 . S
H1695 C1708 0.942 1_545 S
C1696 H1688 0.929 . S
C1696 C1697 1.377 . S
C1696 C1698 1.384 . S
C1697 C1696 1.377 . S
C1697 C1703 1.390 . S
C1698 H1689 0.930 1_545 S
C1698 C1696 1.384 . S
C1698 C1699 1.372 . S
C1699 C1698 1.372 . S
C1699 C1700 1.400 . S
C1699 C1704 1.490 . S
C1700 H1690 0.930 . S
C1700 C1699 1.400 . S
C1700 C1703 1.386 . S
H1701 C1717 0.930 . S
H1702 C1718 0.931 1_545 S
C1703 H1691 0.929 . S
C1703 C1697 1.390 . S
C1703 C1700 1.386 . S
C1704 C1699 1.490 . S
C1704 C1706 1.395 1_655 S
C1704 C1707 1.403 1_545 S
H1705 C1711 0.930 . S
C1706 H1692 0.930 . S
C1706 C1704 1.395 1_455 S
C1706 C1709 1.403 . S
C1707 C1704 1.403 1_565 S
C1707 C1708 1.524 . S
C1707 C1711 1.400 . S
C1708 H1693 0.960 . S
C1708 H1694 0.960 . S
C1708 H1695 0.942 1_565 S
C1708 C1707 1.524 . S
C1709 C1706 1.403 . S
C1709 C1710 1.392 1_545 S
C1709 C1713 1.495 . S
C1710 C1709 1.392 1_565 S
C1710 C1711 1.385 1_455 S
C1710 C1712 1.478 . S
C1711 H1705 0.930 . S
C1711 C1707 1.400 . S
C1711 C1710 1.385 1_655 S
C1712 C1710 1.478 . S
C1712 C1714 1.381 . S
C1712 C1718 1.383 . S
C1713 C1709 1.495 . S
C1713 H1719 0.959 . S
C1713 H1720 0.961 . S
C1713 H1721 0.960 1_545 S
C1714 C1712 1.381 . S
C1714 C1715 1.394 . S
C1714 H1722 0.930 . S
C1715 C1714 1.394 . S
C1715 C1716 1.383 . S
C1715 H1723 0.929 . S
C1716 C1715 1.383 . S
C1716 C1717 1.377 . S
C1717 H1701 0.930 . S
C1717 C1716 1.377 . S
C1717 C1718 1.379 . S
C1718 H1702 0.931 1_565 S
C1718 C1712 1.383 . S
C1718 C1717 1.379 . S
H1719 C1713 0.959 . S
H1720 C1713 0.961 . S
H1721 C1713 0.960 1_565 S
H1722 C1714 0.930 . S
H1723 C1715 0.929 . S
H1724 C1732 0.929 . S
H1725 C1734 0.930 . S
H1726 C1736 0.930 . S
H1727 C1739 0.929 . S
H1728 C1742 0.930 . S
H1729 C1744 0.960 . S
H1730 C1744 0.960 . S
H1731 C1744 0.960 . S
C1732 H1724 0.929 . S
C1732 C1733 1.377 . S
C1732 C1734 1.384 . S
C1733 C1732 1.377 . S
C1733 C1739 1.390 . S
C1734 H1725 0.930 . S
C1734 C1732 1.384 . S
C1734 C1735 1.372 . S
C1735 C1734 1.372 . S
C1735 C1736 1.400 . S
C1735 C1740 1.490 . S
C1736 H1726 0.930 . S
C1736 C1735 1.400 . S
C1736 C1739 1.386 . S
H1737 C1753 0.930 . S
H1738 C1754 0.931 . S
C1739 H1727 0.929 . S
C1739 C1733 1.390 . S
C1739 C1736 1.386 . S
C1740 C1735 1.490 . S
C1740 C1742 1.395 . S
C1740 C1743 1.403 . S
H1741 C1747 0.930 . S
C1742 H1728 0.930 . S
C1742 C1740 1.395 . S
C1742 C1745 1.403 . S
C1743 C1740 1.403 . S
C1743 C1744 1.524 . S
C1743 C1747 1.400 . S
C1744 H1729 0.960 . S
C1744 H1730 0.960 . S
C1744 H1731 0.960 . S
C1744 C1743 1.524 . S
C1745 C1742 1.403 . S
C1745 C1746 1.392 . S
C1745 C1749 1.495 . S
C1746 C1745 1.392 . S
C1746 C1747 1.385 . S
C1746 C1748 1.478 . S
C1747 H1741 0.930 . S
C1747 C1743 1.400 . S
C1747 C1746 1.385 . S
C1748 C1746 1.478 . S
C1748 C1750 1.381 . S
C1748 C1754 1.383 . S
C1749 C1745 1.495 . S
C1749 H1755 0.959 . S
C1749 H1756 0.961 . S
C1749 H1757 0.960 . S
C1750 C1748 1.381 . S
C1750 C1751 1.394 . S
C1750 H1758 0.930 . S
C1751 C1750 1.394 . S
C1751 C1752 1.383 . S
C1751 H1759 0.929 . S
C1752 C1751 1.383 . S
C1752 C1753 1.377 . S
C1753 H1737 0.930 . S
C1753 C1752 1.377 . S
C1753 C1754 1.379 . S
C1754 H1738 0.931 . S
C1754 C1748 1.383 . S
C1754 C1753 1.379 . S
H1755 C1749 0.959 . S
H1756 C1749 0.961 . S
H1757 C1749 0.960 . S
H1758 C1750 0.930 . S
H1759 C1751 0.929 . S
H1760 C1768 0.929 . S
H1761 C1770 0.930 . S
H1762 C1772 0.930 . S
H1763 C1775 0.929 . S
H1764 C1778 0.930 . S
H1765 C1780 0.960 . S
H1766 C1780 0.960 . S
H1767 C1780 0.960 . S
C1768 H1760 0.929 . S
C1768 C1769 1.377 . S
C1768 C1770 1.384 . S
C1769 C1768 1.377 . S
C1769 C1775 1.390 . S
C1770 H1761 0.930 . S
C1770 C1768 1.384 . S
C1770 C1771 1.372 . S
C1771 C1770 1.372 . S
C1771 C1772 1.400 . S
C1771 C1776 1.490 . S
C1772 H1762 0.930 . S
C1772 C1771 1.400 . S
C1772 C1775 1.386 . S
H1773 C1789 0.930 . S
H1774 C1790 0.931 . S
C1775 H1763 0.929 . S
C1775 C1769 1.390 . S
C1775 C1772 1.386 . S
C1776 C1771 1.490 . S
C1776 C1778 1.395 . S
C1776 C1779 1.403 . S
H1777 C1783 0.930 . S
C1778 H1764 0.930 . S
C1778 C1776 1.395 . S
C1778 C1781 1.403 . S
C1779 C1776 1.403 . S
C1779 C1780 1.524 . S
C1779 C1783 1.400 . S
C1780 H1765 0.960 . S
C1780 H1766 0.960 . S
C1780 H1767 0.960 . S
C1780 C1779 1.524 . S
C1781 C1778 1.403 . S
C1781 C1782 1.392 . S
C1781 C1785 1.495 . S
C1782 C1781 1.392 . S
C1782 C1783 1.385 . S
C1782 C1784 1.478 . S
C1783 H1777 0.930 . S
C1783 C1779 1.400 . S
C1783 C1782 1.385 . S
C1784 C1782 1.478 . S
C1784 C1786 1.381 . S
C1784 C1790 1.383 . S
C1785 C1781 1.495 . S
C1785 H1791 0.959 . S
C1785 H1792 0.961 . S
C1785 H1793 0.960 . S
C1786 C1784 1.381 . S
C1786 C1787 1.394 . S
C1786 H1794 0.930 . S
C1787 C1786 1.394 . S
C1787 C1788 1.383 . S
C1787 H1795 0.929 . S
C1788 C1787 1.383 . S
C1788 C1789 1.377 . S
C1789 H1773 0.930 . S
C1789 C1788 1.377 . S
C1789 C1790 1.379 . S
C1790 H1774 0.931 . S
C1790 C1784 1.383 . S
C1790 C1789 1.379 . S
H1791 C1785 0.959 . S
H1792 C1785 0.961 . S
H1793 C1785 0.960 . S
H1794 C1786 0.930 . S
H1795 C1787 0.929 . S
H1796 C1804 0.929 . S
H1797 C1806 0.930 . S
H1798 C1808 0.930 . S
H1799 C1811 0.929 . S
H1800 C1814 0.930 . S
H1801 C1816 0.960 . S
H1802 C1816 0.960 . S
H1803 C1816 0.960 . S
C1804 H1796 0.929 . S
C1804 C1805 1.377 . S
C1804 C1806 1.384 . S
C1805 C1804 1.377 . S
C1805 C1811 1.390 . S
C1806 H1797 0.930 . S
C1806 C1804 1.384 . S
C1806 C1807 1.372 . S
C1807 C1806 1.372 . S
C1807 C1808 1.400 . S
C1807 C1812 1.490 . S
C1808 H1798 0.930 . S
C1808 C1807 1.400 . S
C1808 C1811 1.386 . S
H1809 C1825 0.930 . S
H1810 C1826 0.931 . S
C1811 H1799 0.929 . S
C1811 C1805 1.390 . S
C1811 C1808 1.386 . S
C1812 C1807 1.490 . S
C1812 C1814 1.395 . S
C1812 C1815 1.403 . S
H1813 C1819 0.930 . S
C1814 H1800 0.930 . S
C1814 C1812 1.395 . S
C1814 C1817 1.403 . S
C1815 C1812 1.403 . S
C1815 C1816 1.524 . S
C1815 C1819 1.400 . S
C1816 H1801 0.960 . S
C1816 H1802 0.960 . S
C1816 H1803 0.960 . S
C1816 C1815 1.524 . S
C1817 C1814 1.403 . S
C1817 C1818 1.392 . S
C1817 C1821 1.495 . S
C1818 C1817 1.392 . S
C1818 C1819 1.385 . S
C1818 C1820 1.478 . S
C1819 H1813 0.930 . S
C1819 C1815 1.400 . S
C1819 C1818 1.385 . S
C1820 C1818 1.478 . S
C1820 C1822 1.381 . S
C1820 C1826 1.383 . S
C1821 C1817 1.495 . S
C1821 H1827 0.959 . S
C1821 H1828 0.961 . S
C1821 H1829 0.960 . S
C1822 C1820 1.381 . S
C1822 C1823 1.394 . S
C1822 H1830 0.930 . S
C1823 C1822 1.394 . S
C1823 C1824 1.383 . S
C1823 H1831 0.929 . S
C1824 C1823 1.383 . S
C1824 C1825 1.377 . S
C1825 H1809 0.930 . S
C1825 C1824 1.377 . S
C1825 C1826 1.379 . S
C1826 H1810 0.931 . S
C1826 C1820 1.383 . S
C1826 C1825 1.379 . S
H1827 C1821 0.959 . S
H1828 C1821 0.961 . S
H1829 C1821 0.960 . S
H1830 C1822 0.930 . S
H1831 C1823 0.929 . S
H1832 C1840 0.929 . S
H1833 C1842 0.930 . S
H1834 C1844 0.930 . S
H1835 C1847 0.929 . S
H1836 C1850 0.930 . S
H1837 C1852 0.960 . S
H1838 C1852 0.960 . S
H1839 C1852 0.960 . S
C1840 H1832 0.929 . S
C1840 C1841 1.377 . S
C1840 C1842 1.384 . S
C1841 C1840 1.377 . S
C1841 C1847 1.390 . S
C1842 H1833 0.930 . S
C1842 C1840 1.384 . S
C1842 C1843 1.372 . S
C1843 C1842 1.372 . S
C1843 C1844 1.400 . S
C1843 C1848 1.490 . S
C1844 H1834 0.930 . S
C1844 C1843 1.400 . S
C1844 C1847 1.386 . S
H1845 C1861 0.930 . S
H1846 C1862 0.931 . S
C1847 H1835 0.929 . S
C1847 C1841 1.390 . S
C1847 C1844 1.386 . S
C1848 C1843 1.490 . S
C1848 C1850 1.395 1_655 S
C1848 C1851 1.403 . S
H1849 C1855 0.930 . S
C1850 H1836 0.930 . S
C1850 C1848 1.395 1_455 S
C1850 C1853 1.403 . S
C1851 C1848 1.403 . S
C1851 C1852 1.524 . S
C1851 C1855 1.400 . S
C1852 H1837 0.960 . S
C1852 H1838 0.960 . S
C1852 H1839 0.960 . S
C1852 C1851 1.524 . S
C1853 C1850 1.403 . S
C1853 C1854 1.392 . S
C1853 C1857 1.495 . S
C1854 C1853 1.392 . S
C1854 C1855 1.385 1_455 S
C1854 C1856 1.478 . S
C1855 H1849 0.930 . S
C1855 C1851 1.400 . S
C1855 C1854 1.385 1_655 S
C1856 C1854 1.478 . S
C1856 C1858 1.381 . S
C1856 C1862 1.383 . S
C1857 C1853 1.495 . S
C1857 H1863 0.959 . S
C1857 H1864 0.961 . S
C1857 H1865 0.960 . S
C1858 C1856 1.381 . S
C1858 C1859 1.394 . S
C1858 H1866 0.930 . S
C1859 C1858 1.394 . S
C1859 C1860 1.383 . S
C1859 H1867 0.929 . S
C1860 C1859 1.383 . S
C1860 C1861 1.377 . S
C1861 H1845 0.930 . S
C1861 C1860 1.377 . S
C1861 C1862 1.379 . S
C1862 H1846 0.931 . S
C1862 C1856 1.383 . S
C1862 C1861 1.379 . S
H1863 C1857 0.959 . S
H1864 C1857 0.961 . S
H1865 C1857 0.960 . S
H1866 C1858 0.930 . S
H1867 C1859 0.929 . S
H1868 C1876 0.929 . S
H1869 C1878 0.930 . S
H1870 C1880 0.930 . S
H1871 C1883 0.929 . S
H1872 C1886 0.928 1_554 S
H1873 C1888 0.960 . S
H1874 C1888 0.960 . S
H1875 C1888 0.960 . S
C1876 H1868 0.929 . S
C1876 C1877 1.377 . S
C1876 C1878 1.384 . S
C1877 C1876 1.377 . S
C1877 C1883 1.390 . S
C1878 H1869 0.930 . S
C1878 C1876 1.384 . S
C1878 C1879 1.372 . S
C1879 C1878 1.372 . S
C1879 C1880 1.400 . S
C1879 C1884 1.490 . S
C1880 H1870 0.930 . S
C1880 C1879 1.400 . S
C1880 C1883 1.386 . S
H1881 C1897 0.930 . S
H1882 C1898 0.931 . S
C1883 H1871 0.929 . S
C1883 C1877 1.390 . S
C1883 C1880 1.386 . S
C1884 C1879 1.490 . S
C1884 C1886 1.395 1_554 S
C1884 C1887 1.403 . S
H1885 C1891 0.930 . S
C1886 H1872 0.928 1_556 S
C1886 C1884 1.395 1_556 S
C1886 C1889 1.403 . S
C1887 C1884 1.403 . S
C1887 C1888 1.524 . S
C1887 C1891 1.400 1_554 S
C1888 H1873 0.960 . S
C1888 H1874 0.960 . S
C1888 H1875 0.960 . S
C1888 C1887 1.524 . S
C1889 C1886 1.403 . S
C1889 C1890 1.392 . S
C1889 C1893 1.495 . S
C1890 C1889 1.392 . S
C1890 C1891 1.385 . S
C1890 C1892 1.478 . S
C1891 H1885 0.930 . S
C1891 C1887 1.400 1_556 S
C1891 C1890 1.385 . S
C1892 C1890 1.478 . S
C1892 C1894 1.381 . S
C1892 C1898 1.383 . S
C1893 C1889 1.495 . S
C1893 H1899 0.959 . S
C1893 H1900 0.961 . S
C1893 H1901 0.960 . S
C1894 C1892 1.381 . S
C1894 C1895 1.394 . S
C1894 H1902 0.930 . S
C1895 C1894 1.394 . S
C1895 C1896 1.383 . S
C1895 H1903 0.929 . S
C1896 C1895 1.383 . S
C1896 C1897 1.377 . S
C1897 H1881 0.930 . S
C1897 C1896 1.377 . S
C1897 C1898 1.379 . S
C1898 H1882 0.931 . S
C1898 C1892 1.383 . S
C1898 C1897 1.379 . S
H1899 C1893 0.959 . S
H1900 C1893 0.961 . S
H1901 C1893 0.960 . S
H1902 C1894 0.930 . S
H1903 C1895 0.929 . S
H1904 C1912 0.929 . S
H1905 C1914 0.930 . S
H1906 C1916 0.930 . S
H1907 C1919 0.929 . S
H1908 C1922 0.930 . S
H1909 C1924 0.960 . S
H1910 C1924 0.960 . S
H1911 C1924 0.960 . S
C1912 H1904 0.929 . S
C1912 C1913 1.377 . S
C1912 C1914 1.384 . S
C1913 C1912 1.377 . S
C1913 C1919 1.390 . S
C1914 H1905 0.930 . S
C1914 C1912 1.384 . S
C1914 C1915 1.372 . S
C1915 C1914 1.372 . S
C1915 C1916 1.400 . S
C1915 C1920 1.490 . S
C1916 H1906 0.930 . S
C1916 C1915 1.400 . S
C1916 C1919 1.386 . S
H1917 C1933 0.930 . S
H1918 C1934 0.931 . S
C1919 H1907 0.929 . S
C1919 C1913 1.390 . S
C1919 C1916 1.386 . S
C1920 C1915 1.490 . S
C1920 C1922 1.395 . S
C1920 C1923 1.403 . S
H1921 C1927 0.930 . S
C1922 H1908 0.930 . S
C1922 C1920 1.395 . S
C1922 C1925 1.403 . S
C1923 C1920 1.403 . S
C1923 C1924 1.524 . S
C1923 C1927 1.400 . S
C1924 H1909 0.960 . S
C1924 H1910 0.960 . S
C1924 H1911 0.960 . S
C1924 C1923 1.524 . S
C1925 C1922 1.403 . S
C1925 C1926 1.392 . S
C1925 C1929 1.495 . S
C1926 C1925 1.392 . S
C1926 C1927 1.385 . S
C1926 C1928 1.478 . S
C1927 H1921 0.930 . S
C1927 C1923 1.400 . S
C1927 C1926 1.385 . S
C1928 C1926 1.478 . S
C1928 C1930 1.381 . S
C1928 C1934 1.383 . S
C1929 C1925 1.495 . S
C1929 H1935 0.959 . S
C1929 H1936 0.961 . S
C1929 H1937 0.960 . S
C1930 C1928 1.381 . S
C1930 C1931 1.394 . S
C1930 H1938 0.930 . S
C1931 C1930 1.394 . S
C1931 C1932 1.383 . S
C1931 H1939 0.929 . S
C1932 C1931 1.383 . S
C1932 C1933 1.377 . S
C1933 H1917 0.930 . S
C1933 C1932 1.377 . S
C1933 C1934 1.379 . S
C1934 H1918 0.931 . S
C1934 C1928 1.383 . S
C1934 C1933 1.379 . S
H1935 C1929 0.959 . S
H1936 C1929 0.961 . S
H1937 C1929 0.960 . S
H1938 C1930 0.930 . S
H1939 C1931 0.929 . S
H1940 C1948 0.929 1_455 S
H1941 C1950 0.930 . S
H1942 C1952 0.930 . S
H1943 C1955 0.929 . S
H1944 C1958 0.930 . S
H1945 C1960 0.960 . S
H1946 C1960 0.960 . S
H1947 C1960 0.960 . S
C1948 H1940 0.929 1_655 S
C1948 C1949 1.377 1_655 S
C1948 C1950 1.384 . S
C1949 C1948 1.377 1_455 S
C1949 C1955 1.390 . S
C1950 H1941 0.930 . S
C1950 C1948 1.384 . S
C1950 C1951 1.372 . S
C1951 C1950 1.372 . S
C1951 C1952 1.400 . S
C1951 C1956 1.490 . S
C1952 H1942 0.930 . S
C1952 C1951 1.400 . S
C1952 C1955 1.386 1_655 S
H1953 C1969 0.930 . S
H1954 C1970 0.931 . S
C1955 H1943 0.929 . S
C1955 C1949 1.390 . S
C1955 C1952 1.386 1_455 S
C1956 C1951 1.490 . S
C1956 C1958 1.395 . S
C1956 C1959 1.403 . S
H1957 C1963 0.930 . S
C1958 H1944 0.930 . S
C1958 C1956 1.395 . S
C1958 C1961 1.403 . S
C1959 C1956 1.403 . S
C1959 C1960 1.524 . S
C1959 C1963 1.400 . S
C1960 H1945 0.960 . S
C1960 H1946 0.960 . S
C1960 H1947 0.960 . S
C1960 C1959 1.524 . S
C1961 C1958 1.403 . S
C1961 C1962 1.392 . S
C1961 C1965 1.495 . S
C1962 C1961 1.392 . S
C1962 C1963 1.385 . S
C1962 C1964 1.478 . S
C1963 H1957 0.930 . S
C1963 C1959 1.400 . S
C1963 C1962 1.385 . S
C1964 C1962 1.478 . S
C1964 C1966 1.381 . S
C1964 C1970 1.383 . S
C1965 C1961 1.495 . S
C1965 H1971 0.959 . S
C1965 H1972 0.961 . S
C1965 H1973 0.960 . S
C1966 C1964 1.381 . S
C1966 C1967 1.394 . S
C1966 H1974 0.930 . S
C1967 C1966 1.394 . S
C1967 C1968 1.383 . S
C1967 H1975 0.929 . S
C1968 C1967 1.383 . S
C1968 C1969 1.377 . S
C1969 H1953 0.930 . S
C1969 C1968 1.377 . S
C1969 C1970 1.379 . S
C1970 H1954 0.931 . S
C1970 C1964 1.383 . S
C1970 C1969 1.379 . S
H1971 C1965 0.959 . S
H1972 C1965 0.961 . S
H1973 C1965 0.960 . S
H1974 C1966 0.930 . S
H1975 C1967 0.929 . S
H1976 C1984 0.929 . S
H1977 C1986 0.930 . S
H1978 C1988 0.930 . S
H1979 C1991 0.929 . S
H1980 C1994 0.930 . S
H1981 C1996 0.960 . S
H1982 C1996 0.960 . S
H1983 C1996 0.960 . S
C1984 H1976 0.929 . S
C1984 C1985 1.377 . S
C1984 C1986 1.384 . S
C1985 C1984 1.377 . S
C1985 C1991 1.390 . S
C1986 H1977 0.930 . S
C1986 C1984 1.384 . S
C1986 C1987 1.372 . S
C1987 C1986 1.372 . S
C1987 C1988 1.400 . S
C1987 C1992 1.490 . S
C1988 H1978 0.930 . S
C1988 C1987 1.400 . S
C1988 C1991 1.386 . S
H1989 C2005 0.930 . S
H1990 C2006 0.931 . S
C1991 H1979 0.929 . S
C1991 C1985 1.390 . S
C1991 C1988 1.386 . S
C1992 C1987 1.490 . S
C1992 C1994 1.395 . S
C1992 C1995 1.403 . S
H1993 C1999 0.930 . S
C1994 H1980 0.930 . S
C1994 C1992 1.395 . S
C1994 C1997 1.403 . S
C1995 C1992 1.403 . S
C1995 C1996 1.524 . S
C1995 C1999 1.400 . S
C1996 H1981 0.960 . S
C1996 H1982 0.960 . S
C1996 H1983 0.960 . S
C1996 C1995 1.524 . S
C1997 C1994 1.403 . S
C1997 C1998 1.392 . S
C1997 C2001 1.495 . S
C1998 C1997 1.392 . S
C1998 C1999 1.385 . S
C1998 C2000 1.478 . S
C1999 H1993 0.930 . S
C1999 C1995 1.400 . S
C1999 C1998 1.385 . S
C2000 C1998 1.478 . S
C2000 C2002 1.381 . S
C2000 C2006 1.383 . S
C2001 C1997 1.495 . S
C2001 H2007 0.959 . S
C2001 H2008 0.961 . S
C2001 H2009 0.960 . S
C2002 C2000 1.381 . S
C2002 C2003 1.394 . S
C2002 H2010 0.930 . S
C2003 C2002 1.394 . S
C2003 C2004 1.383 . S
C2003 H2011 0.929 . S
C2004 C2003 1.383 . S
C2004 C2005 1.377 . S
C2005 H1989 0.930 . S
C2005 C2004 1.377 . S
C2005 C2006 1.379 . S
C2006 H1990 0.931 . S
C2006 C2000 1.383 . S
C2006 C2005 1.379 . S
H2007 C2001 0.959 . S
H2008 C2001 0.961 . S
H2009 C2001 0.960 . S
H2010 C2002 0.930 . S
H2011 C2003 0.929 . S
H2012 C2020 0.929 . S
H2013 C2022 0.930 . S
H2014 C2024 0.930 . S
H2015 C2027 0.929 . S
H2016 C2030 0.930 . S
H2017 C2032 0.960 . S
H2018 C2032 0.960 . S
H2019 C2032 0.960 . S
C2020 H2012 0.929 . S
C2020 C2021 1.377 . S
C2020 C2022 1.384 . S
C2021 C2020 1.377 . S
C2021 C2027 1.390 . S
C2022 H2013 0.930 . S
C2022 C2020 1.384 . S
C2022 C2023 1.372 . S
C2023 C2022 1.372 . S
C2023 C2024 1.400 . S
C2023 C2028 1.490 . S
C2024 H2014 0.930 . S
C2024 C2023 1.400 . S
C2024 C2027 1.386 . S
H2025 C2041 0.930 . S
H2026 C2042 0.931 . S
C2027 H2015 0.929 . S
C2027 C2021 1.390 . S
C2027 C2024 1.386 . S
C2028 C2023 1.490 . S
C2028 C2030 1.395 . S
C2028 C2031 1.403 . S
H2029 C2035 0.930 . S
C2030 H2016 0.930 . S
C2030 C2028 1.395 . S
C2030 C2033 1.403 . S
C2031 C2028 1.403 . S
C2031 C2032 1.524 . S
C2031 C2035 1.400 . S
C2032 H2017 0.960 . S
C2032 H2018 0.960 . S
C2032 H2019 0.960 . S
C2032 C2031 1.524 . S
C2033 C2030 1.403 . S
C2033 C2034 1.392 . S
C2033 C2037 1.495 . S
C2034 C2033 1.392 . S
C2034 C2035 1.385 . S
C2034 C2036 1.478 . S
C2035 H2029 0.930 . S
C2035 C2031 1.400 . S
C2035 C2034 1.385 . S
C2036 C2034 1.478 . S
C2036 C2038 1.381 . S
C2036 C2042 1.383 . S
C2037 C2033 1.495 . S
C2037 H2043 0.959 . S
C2037 H2044 0.961 . S
C2037 H2045 0.960 . S
C2038 C2036 1.381 . S
C2038 C2039 1.394 . S
C2038 H2046 0.930 . S
C2039 C2038 1.394 . S
C2039 C2040 1.383 . S
C2039 H2047 0.929 . S
C2040 C2039 1.383 . S
C2040 C2041 1.377 . S
C2041 H2025 0.930 . S
C2041 C2040 1.377 . S
C2041 C2042 1.379 . S
C2042 H2026 0.931 . S
C2042 C2036 1.383 . S
C2042 C2041 1.379 . S
H2043 C2037 0.959 . S
H2044 C2037 0.961 . S
H2045 C2037 0.960 . S
H2046 C2038 0.930 . S
H2047 C2039 0.929 . S
H2048 C2056 0.929 . S
H2049 C2058 0.930 . S
H2050 C2060 0.930 . S
H2051 C2063 0.929 . S
H2052 C2066 0.930 . S
H2053 C2068 0.960 . S
H2054 C2068 0.960 . S
H2055 C2068 0.960 . S
C2056 H2048 0.929 . S
C2056 C2057 1.377 . S
C2056 C2058 1.384 . S
C2057 C2056 1.377 . S
C2057 C2063 1.390 . S
C2058 H2049 0.930 . S
C2058 C2056 1.384 . S
C2058 C2059 1.372 . S
C2059 C2058 1.372 . S
C2059 C2060 1.400 . S
C2059 C2064 1.490 . S
C2060 H2050 0.930 . S
C2060 C2059 1.400 . S
C2060 C2063 1.386 . S
H2061 C2077 0.930 . S
H2062 C2078 0.931 . S
C2063 H2051 0.929 . S
C2063 C2057 1.390 . S
C2063 C2060 1.386 . S
C2064 C2059 1.490 . S
C2064 C2066 1.395 . S
C2064 C2067 1.403 . S
H2065 C2071 0.930 . S
C2066 H2052 0.930 . S
C2066 C2064 1.395 . S
C2066 C2069 1.403 . S
C2067 C2064 1.403 . S
C2067 C2068 1.524 . S
C2067 C2071 1.400 . S
C2068 H2053 0.960 . S
C2068 H2054 0.960 . S
C2068 H2055 0.960 . S
C2068 C2067 1.524 . S
C2069 C2066 1.403 . S
C2069 C2070 1.392 . S
C2069 C2073 1.495 . S
C2070 C2069 1.392 . S
C2070 C2071 1.385 . S
C2070 C2072 1.478 . S
C2071 H2065 0.930 . S
C2071 C2067 1.400 . S
C2071 C2070 1.385 . S
C2072 C2070 1.478 . S
C2072 C2074 1.381 . S
C2072 C2078 1.383 . S
C2073 C2069 1.495 . S
C2073 H2079 0.959 . S
C2073 H2080 0.961 . S
C2073 H2081 0.960 . S
C2074 C2072 1.381 . S
C2074 C2075 1.394 . S
C2074 H2082 0.930 . S
C2075 C2074 1.394 . S
C2075 C2076 1.383 . S
C2075 H2083 0.929 . S
C2076 C2075 1.383 . S
C2076 C2077 1.377 . S
C2077 H2061 0.930 . S
C2077 C2076 1.377 . S
C2077 C2078 1.379 . S
C2078 H2062 0.931 . S
C2078 C2072 1.383 . S
C2078 C2077 1.379 . S
H2079 C2073 0.959 . S
H2080 C2073 0.961 . S
H2081 C2073 0.960 . S
H2082 C2074 0.930 . S
H2083 C2075 0.929 . S
H2084 C2092 0.929 . S
H2085 C2094 0.930 . S
H2086 C2096 0.930 . S
H2087 C2099 0.929 . S
H2088 C2102 0.930 . S
H2089 C2104 0.960 . S
H2090 C2104 0.960 . S
H2091 C2104 0.960 . S
C2092 H2084 0.929 . S
C2092 C2093 1.377 . S
C2092 C2094 1.384 . S
C2093 C2092 1.377 . S
C2093 C2099 1.390 . S
C2094 H2085 0.930 . S
C2094 C2092 1.384 . S
C2094 C2095 1.372 . S
C2095 C2094 1.372 . S
C2095 C2096 1.400 . S
C2095 C2100 1.490 . S
C2096 H2086 0.930 . S
C2096 C2095 1.400 . S
C2096 C2099 1.386 . S
H2097 C2113 0.930 . S
H2098 C2114 0.931 . S
C2099 H2087 0.929 . S
C2099 C2093 1.390 . S
C2099 C2096 1.386 . S
C2100 C2095 1.490 . S
C2100 C2102 1.395 . S
C2100 C2103 1.403 . S
H2101 C2107 0.930 . S
C2102 H2088 0.930 . S
C2102 C2100 1.395 . S
C2102 C2105 1.403 . S
C2103 C2100 1.403 . S
C2103 C2104 1.524 . S
C2103 C2107 1.400 . S
C2104 H2089 0.960 . S
C2104 H2090 0.960 . S
C2104 H2091 0.960 . S
C2104 C2103 1.524 . S
C2105 C2102 1.403 . S
C2105 C2106 1.392 . S
C2105 C2109 1.495 . S
C2106 C2105 1.392 . S
C2106 C2107 1.385 . S
C2106 C2108 1.478 . S
C2107 H2101 0.930 . S
C2107 C2103 1.400 . S
C2107 C2106 1.385 . S
C2108 C2106 1.478 . S
C2108 C2110 1.381 . S
C2108 C2114 1.383 . S
C2109 C2105 1.495 . S
C2109 H2115 0.959 . S
C2109 H2116 0.961 . S
C2109 H2117 0.960 . S
C2110 C2108 1.381 . S
C2110 C2111 1.394 . S
C2110 H2118 0.930 . S
C2111 C2110 1.394 . S
C2111 C2112 1.383 1_455 S
C2111 H2119 0.929 . S
C2112 C2111 1.383 1_655 S
C2112 C2113 1.377 . S
C2113 H2097 0.930 . S
C2113 C2112 1.377 . S
C2113 C2114 1.379 1_655 S
C2114 H2098 0.931 . S
C2114 C2108 1.383 . S
C2114 C2113 1.379 1_455 S
H2115 C2109 0.959 . S
H2116 C2109 0.961 . S
H2117 C2109 0.960 . S
H2118 C2110 0.930 . S
H2119 C2111 0.929 . S
H2120 C2128 0.929 . S
H2121 C2130 0.930 . S
H2122 C2132 0.930 . S
H2123 C2135 0.929 . S
H2124 C2138 0.930 . S
H2125 C2140 0.960 . S
H2126 C2140 0.960 . S
H2127 C2140 0.960 . S
C2128 H2120 0.929 . S
C2128 C2129 1.377 . S
C2128 C2130 1.384 . S
C2129 C2128 1.377 . S
C2129 C2135 1.390 . S
C2130 H2121 0.930 . S
C2130 C2128 1.384 . S
C2130 C2131 1.372 . S
C2131 C2130 1.372 . S
C2131 C2132 1.400 . S
C2131 C2136 1.490 . S
C2132 H2122 0.930 . S
C2132 C2131 1.400 . S
C2132 C2135 1.386 . S
H2133 C2149 0.930 . S
H2134 C2150 0.931 . S
C2135 H2123 0.929 . S
C2135 C2129 1.390 . S
C2135 C2132 1.386 . S
C2136 C2131 1.490 . S
C2136 C2138 1.395 . S
C2136 C2139 1.403 . S
H2137 C2143 0.930 . S
C2138 H2124 0.930 . S
C2138 C2136 1.395 . S
C2138 C2141 1.403 . S
C2139 C2136 1.403 . S
C2139 C2140 1.524 . S
C2139 C2143 1.400 . S
C2140 H2125 0.960 . S
C2140 H2126 0.960 . S
C2140 H2127 0.960 . S
C2140 C2139 1.524 . S
C2141 C2138 1.403 . S
C2141 C2142 1.392 . S
C2141 C2145 1.495 . S
C2142 C2141 1.392 . S
C2142 C2143 1.385 . S
C2142 C2144 1.478 . S
C2143 H2137 0.930 . S
C2143 C2139 1.400 . S
C2143 C2142 1.385 . S
C2144 C2142 1.478 . S
C2144 C2146 1.381 . S
C2144 C2150 1.383 . S
C2145 C2141 1.495 . S
C2145 H2151 0.959 . S
C2145 H2152 0.961 . S
C2145 H2153 0.960 . S
C2146 C2144 1.381 . S
C2146 C2147 1.394 . S
C2146 H2154 0.930 . S
C2147 C2146 1.394 . S
C2147 C2148 1.383 . S
C2147 H2155 0.929 . S
C2148 C2147 1.383 . S
C2148 C2149 1.377 . S
C2149 H2133 0.930 . S
C2149 C2148 1.377 . S
C2149 C2150 1.379 . S
C2150 H2134 0.931 . S
C2150 C2144 1.383 . S
C2150 C2149 1.379 . S
H2151 C2145 0.959 . S
H2152 C2145 0.961 . S
H2153 C2145 0.960 . S
H2154 C2146 0.930 . S
H2155 C2147 0.929 . S
H2156 C2164 0.929 . S
H2157 C2166 0.930 . S
H2158 C2168 0.930 . S
H2159 C2171 0.929 . S
H2160 C2174 0.930 . S
H2161 C2176 0.960 . S
H2162 C2176 0.960 . S
H2163 C2176 0.960 . S
C2164 H2156 0.929 . S
C2164 C2165 1.377 . S
C2164 C2166 1.384 . S
C2165 C2164 1.377 . S
C2165 C2171 1.390 . S
C2166 H2157 0.930 . S
C2166 C2164 1.384 . S
C2166 C2167 1.372 . S
C2167 C2166 1.372 . S
C2167 C2168 1.400 . S
C2167 C2172 1.490 . S
C2168 H2158 0.930 . S
C2168 C2167 1.400 . S
C2168 C2171 1.386 . S
H2169 C2185 0.930 . S
H2170 C2186 0.931 . S
C2171 H2159 0.929 . S
C2171 C2165 1.390 . S
C2171 C2168 1.386 . S
C2172 C2167 1.490 . S
C2172 C2174 1.395 . S
C2172 C2175 1.403 . S
H2173 C2179 0.930 . S
C2174 H2160 0.930 . S
C2174 C2172 1.395 . S
C2174 C2177 1.403 . S
C2175 C2172 1.403 . S
C2175 C2176 1.524 . S
C2175 C2179 1.400 . S
C2176 H2161 0.960 . S
C2176 H2162 0.960 . S
C2176 H2163 0.960 . S
C2176 C2175 1.524 . S
C2177 C2174 1.403 . S
C2177 C2178 1.392 . S
C2177 C2181 1.495 . S
C2178 C2177 1.392 . S
C2178 C2179 1.385 . S
C2178 C2180 1.478 . S
C2179 H2173 0.930 . S
C2179 C2175 1.400 . S
C2179 C2178 1.385 . S
C2180 C2178 1.478 . S
C2180 C2182 1.381 . S
C2180 C2186 1.383 . S
C2181 C2177 1.495 . S
C2181 H2187 0.959 . S
C2181 H2188 0.961 . S
C2181 H2189 0.960 . S
C2182 C2180 1.381 . S
C2182 C2183 1.394 . S
C2182 H2190 0.930 . S
C2183 C2182 1.394 . S
C2183 C2184 1.383 . S
C2183 H2191 0.929 . S
C2184 C2183 1.383 . S
C2184 C2185 1.377 . S
C2185 H2169 0.930 . S
C2185 C2184 1.377 . S
C2185 C2186 1.379 . S
C2186 H2170 0.931 . S
C2186 C2180 1.383 . S
C2186 C2185 1.379 . S
H2187 C2181 0.959 . S
H2188 C2181 0.961 . S
H2189 C2181 0.960 . S
H2190 C2182 0.930 . S
H2191 C2183 0.929 . S
H2192 C2200 0.929 . S
H2193 C2202 0.930 . S
H2194 C2204 0.930 . S
H2195 C2207 0.929 . S
H2196 C2210 0.930 . S
H2197 C2212 0.960 . S
H2198 C2212 0.960 . S
H2199 C2212 0.960 . S
C2200 H2192 0.929 . S
C2200 C2201 1.377 . S
C2200 C2202 1.384 . S
C2201 C2200 1.377 . S
C2201 C2207 1.390 . S
C2202 H2193 0.930 . S
C2202 C2200 1.384 . S
C2202 C2203 1.372 . S
C2203 C2202 1.372 . S
C2203 C2204 1.400 . S
C2203 C2208 1.490 . S
C2204 H2194 0.930 . S
C2204 C2203 1.400 . S
C2204 C2207 1.386 . S
H2205 C2221 0.930 . S
H2206 C2222 0.931 . S
C2207 H2195 0.929 . S
C2207 C2201 1.390 . S
C2207 C2204 1.386 . S
C2208 C2203 1.490 . S
C2208 C2210 1.395 . S
C2208 C2211 1.403 . S
H2209 C2215 0.930 . S
C2210 H2196 0.930 . S
C2210 C2208 1.395 . S
C2210 C2213 1.403 . S
C2211 C2208 1.403 . S
C2211 C2212 1.524 . S
C2211 C2215 1.400 . S
C2212 H2197 0.960 . S
C2212 H2198 0.960 . S
C2212 H2199 0.960 . S
C2212 C2211 1.524 . S
C2213 C2210 1.403 . S
C2213 C2214 1.392 . S
C2213 C2217 1.495 . S
C2214 C2213 1.392 . S
C2214 C2215 1.385 . S
C2214 C2216 1.478 . S
C2215 H2209 0.930 . S
C2215 C2211 1.400 . S
C2215 C2214 1.385 . S
C2216 C2214 1.478 . S
C2216 C2218 1.381 . S
C2216 C2222 1.383 . S
C2217 C2213 1.495 . S
C2217 H2223 0.959 . S
C2217 H2224 0.961 . S
C2217 H2225 0.960 . S
C2218 C2216 1.381 . S
C2218 C2219 1.394 . S
C2218 H2226 0.930 . S
C2219 C2218 1.394 . S
C2219 C2220 1.383 . S
C2219 H2227 0.929 . S
C2220 C2219 1.383 . S
C2220 C2221 1.377 . S
C2221 H2205 0.930 . S
C2221 C2220 1.377 . S
C2221 C2222 1.379 . S
C2222 H2206 0.931 . S
C2222 C2216 1.383 . S
C2222 C2221 1.379 . S
H2223 C2217 0.959 . S
H2224 C2217 0.961 . S
H2225 C2217 0.960 . S
H2226 C2218 0.930 . S
H2227 C2219 0.929 . S
H2228 C2236 0.929 . S
H2229 C2238 0.930 . S
H2230 C2240 0.930 . S
H2231 C2243 0.929 . S
H2232 C2246 0.930 . S
H2233 C2248 0.960 . S
H2234 C2248 0.960 . S
H2235 C2248 0.960 . S
C2236 H2228 0.929 . S
C2236 C2237 1.377 . S
C2236 C2238 1.384 . S
C2237 C2236 1.377 . S
C2237 C2243 1.390 1_545 S
C2238 H2229 0.930 . S
C2238 C2236 1.384 . S
C2238 C2239 1.372 . S
C2239 C2238 1.372 . S
C2239 C2240 1.400 1_545 S
C2239 C2244 1.490 . S
C2240 H2230 0.930 . S
C2240 C2239 1.400 1_565 S
C2240 C2243 1.386 . S
H2241 C2257 0.930 . S
H2242 C2258 0.931 . S
C2243 H2231 0.929 . S
C2243 C2237 1.390 1_565 S
C2243 C2240 1.386 . S
C2244 C2239 1.490 . S
C2244 C2246 1.395 . S
C2244 C2247 1.403 . S
H2245 C2251 0.930 . S
C2246 H2232 0.930 . S
C2246 C2244 1.395 . S
C2246 C2249 1.403 . S
C2247 C2244 1.403 . S
C2247 C2248 1.524 1_545 S
C2247 C2251 1.400 . S
C2248 H2233 0.960 . S
C2248 H2234 0.960 . S
C2248 H2235 0.960 . S
C2248 C2247 1.524 1_565 S
C2249 C2246 1.403 . S
C2249 C2250 1.392 . S
C2249 C2253 1.495 . S
C2250 C2249 1.392 . S
C2250 C2251 1.385 . S
C2250 C2252 1.478 . S
C2251 H2245 0.930 . S
C2251 C2247 1.400 . S
C2251 C2250 1.385 . S
C2252 C2250 1.478 . S
C2252 C2254 1.381 . S
C2252 C2258 1.383 . S
C2253 C2249 1.495 . S
C2253 H2259 0.959 . S
C2253 H2260 0.961 . S
C2253 H2261 0.960 . S
C2254 C2252 1.381 . S
C2254 C2255 1.394 . S
C2254 H2262 0.930 . S
C2255 C2254 1.394 . S
C2255 C2256 1.383 . S
C2255 H2263 0.929 . S
C2256 C2255 1.383 . S
C2256 C2257 1.377 . S
C2257 H2241 0.930 . S
C2257 C2256 1.377 . S
C2257 C2258 1.379 . S
C2258 H2242 0.931 . S
C2258 C2252 1.383 . S
C2258 C2257 1.379 . S
H2259 C2253 0.959 . S
H2260 C2253 0.961 . S
H2261 C2253 0.960 . S
H2262 C2254 0.930 . S
H2263 C2255 0.929 . S
H2264 C2272 0.929 . S
H2265 C2274 0.930 . S
H2266 C2276 0.930 . S
H2267 C2279 0.929 . S
H2268 C2282 0.930 . S
H2269 C2284 0.960 . S
H2270 C2284 0.960 . S
H2271 C2284 0.960 . S
C2272 H2264 0.929 . S
C2272 C2273 1.377 . S
C2272 C2274 1.384 . S
C2273 C2272 1.377 . S
C2273 C2279 1.390 . S
C2274 H2265 0.930 . S
C2274 C2272 1.384 . S
C2274 C2275 1.372 . S
C2275 C2274 1.372 . S
C2275 C2276 1.400 . S
C2275 C2280 1.490 . S
C2276 H2266 0.930 . S
C2276 C2275 1.400 . S
C2276 C2279 1.386 . S
H2277 C2293 0.930 . S
H2278 C2294 0.931 . S
C2279 H2267 0.929 . S
C2279 C2273 1.390 . S
C2279 C2276 1.386 . S
C2280 C2275 1.490 . S
C2280 C2282 1.395 . S
C2280 C2283 1.403 . S
H2281 C2287 0.930 . S
C2282 H2268 0.930 . S
C2282 C2280 1.395 . S
C2282 C2285 1.403 . S
C2283 C2280 1.403 . S
C2283 C2284 1.524 . S
C2283 C2287 1.400 . S
C2284 H2269 0.960 . S
C2284 H2270 0.960 . S
C2284 H2271 0.960 . S
C2284 C2283 1.524 . S
C2285 C2282 1.403 . S
C2285 C2286 1.392 . S
C2285 C2289 1.495 . S
C2286 C2285 1.392 . S
C2286 C2287 1.385 . S
C2286 C2288 1.478 . S
C2287 H2281 0.930 . S
C2287 C2283 1.400 . S
C2287 C2286 1.385 . S
C2288 C2286 1.478 . S
C2288 C2290 1.381 . S
C2288 C2294 1.383 . S
C2289 C2285 1.495 . S
C2289 H2295 0.959 . S
C2289 H2296 0.961 . S
C2289 H2297 0.960 . S
C2290 C2288 1.381 . S
C2290 C2291 1.394 . S
C2290 H2298 0.930 . S
C2291 C2290 1.394 . S
C2291 C2292 1.383 . S
C2291 H2299 0.929 . S
C2292 C2291 1.383 . S
C2292 C2293 1.377 . S
C2293 H2277 0.930 . S
C2293 C2292 1.377 . S
C2293 C2294 1.379 . S
C2294 H2278 0.931 . S
C2294 C2288 1.383 . S
C2294 C2293 1.379 . S
H2295 C2289 0.959 . S
H2296 C2289 0.961 . S
H2297 C2289 0.960 . S
H2298 C2290 0.930 . S
H2299 C2291 0.929 . S
H2300 C2308 0.929 . S
H2301 C2310 0.930 . S
H2302 C2312 0.930 . S
H2303 C2315 0.929 . S
H2304 C2318 0.930 . S
H2305 C2320 0.960 . S
H2306 C2320 0.960 . S
H2307 C2320 0.960 . S
C2308 H2300 0.929 . S
C2308 C2309 1.377 . S
C2308 C2310 1.384 . S
C2309 C2308 1.377 . S
C2309 C2315 1.390 . S
C2310 H2301 0.930 . S
C2310 C2308 1.384 . S
C2310 C2311 1.372 . S
C2311 C2310 1.372 . S
C2311 C2312 1.400 . S
C2311 C2316 1.490 . S
C2312 H2302 0.930 . S
C2312 C2311 1.400 . S
C2312 C2315 1.386 . S
H2313 C2329 0.930 1_655 S
H2314 C2330 0.931 . S
C2315 H2303 0.929 . S
C2315 C2309 1.390 . S
C2315 C2312 1.386 . S
C2316 C2311 1.490 . S
C2316 C2318 1.395 . S
C2316 C2319 1.403 . S
H2317 C2323 0.930 . S
C2318 H2304 0.930 . S
C2318 C2316 1.395 . S
C2318 C2321 1.403 . S
C2319 C2316 1.403 . S
C2319 C2320 1.524 . S
C2319 C2323 1.400 . S
C2320 H2305 0.960 . S
C2320 H2306 0.960 . S
C2320 H2307 0.960 . S
C2320 C2319 1.524 . S
C2321 C2318 1.403 . S
C2321 C2322 1.392 . S
C2321 C2325 1.495 1_565 S
C2322 C2321 1.392 . S
C2322 C2323 1.385 . S
C2322 C2324 1.478 . S
C2323 H2317 0.930 . S
C2323 C2319 1.400 . S
C2323 C2322 1.385 . S
C2324 C2322 1.478 . S
C2324 C2326 1.381 . S
C2324 C2330 1.383 1_565 S
C2325 C2321 1.495 1_545 S
C2325 H2331 0.959 . S
C2325 H2332 0.961 . S
C2325 H2333 0.960 1_545 S
C2326 C2324 1.381 . S
C2326 C2327 1.394 . S
C2326 H2334 0.930 . S
C2327 C2326 1.394 . S
C2327 C2328 1.383 1_465 S
C2327 H2335 0.929 1_455 S
C2328 C2327 1.383 1_645 S
C2328 C2329 1.377 1_655 S
C2329 H2313 0.930 1_455 S
C2329 C2328 1.377 1_455 S
C2329 C2330 1.379 . S
C2330 H2314 0.931 . S
C2330 C2324 1.383 1_545 S
C2330 C2329 1.379 . S
H2331 C2325 0.959 . S
H2332 C2325 0.961 . S
H2333 C2325 0.960 1_565 S
H2334 C2326 0.930 . S
H2335 C2327 0.929 1_655 S
H2336 C2344 0.929 . S
H2337 C2346 0.930 . S
H2338 C2348 0.930 . S
H2339 C2351 0.929 . S
H2340 C2354 0.930 . S
H2341 C2356 0.960 . S
H2342 C2356 0.960 . S
H2343 C2356 0.960 . S
C2344 H2336 0.929 . S
C2344 C2345 1.377 . S
C2344 C2346 1.384 . S
C2345 C2344 1.377 . S
C2345 C2351 1.390 . S
C2346 H2337 0.930 . S
C2346 C2344 1.384 . S
C2346 C2347 1.372 . S
C2347 C2346 1.372 . S
C2347 C2348 1.400 . S
C2347 C2352 1.490 . S
C2348 H2338 0.930 . S
C2348 C2347 1.400 . S
C2348 C2351 1.386 . S
H2349 C2365 0.930 . S
H2350 C2366 0.931 . S
C2351 H2339 0.929 . S
C2351 C2345 1.390 . S
C2351 C2348 1.386 . S
C2352 C2347 1.490 . S
C2352 C2354 1.395 . S
C2352 C2355 1.403 . S
H2353 C2359 0.930 . S
C2354 H2340 0.930 . S
C2354 C2352 1.395 . S
C2354 C2357 1.403 . S
C2355 C2352 1.403 . S
C2355 C2356 1.524 . S
C2355 C2359 1.400 . S
C2356 H2341 0.960 . S
C2356 H2342 0.960 . S
C2356 H2343 0.960 . S
C2356 C2355 1.524 . S
C2357 C2354 1.403 . S
C2357 C2358 1.392 . S
C2357 C2361 1.495 . S
C2358 C2357 1.392 . S
C2358 C2359 1.385 . S
C2358 C2360 1.478 . S
C2359 H2353 0.930 . S
C2359 C2355 1.400 . S
C2359 C2358 1.385 . S
C2360 C2358 1.478 . S
C2360 C2362 1.381 . S
C2360 C2366 1.383 . S
C2361 C2357 1.495 . S
C2361 H2367 0.959 . S
C2361 H2368 0.961 . S
C2361 H2369 0.960 . S
C2362 C2360 1.381 . S
C2362 C2363 1.394 . S
C2362 H2370 0.930 . S
C2363 C2362 1.394 . S
C2363 C2364 1.383 . S
C2363 H2371 0.929 . S
C2364 C2363 1.383 . S
C2364 C2365 1.377 . S
C2365 H2349 0.930 . S
C2365 C2364 1.377 . S
C2365 C2366 1.379 . S
C2366 H2350 0.931 . S
C2366 C2360 1.383 . S
C2366 C2365 1.379 . S
H2367 C2361 0.959 . S
H2368 C2361 0.961 . S
H2369 C2361 0.960 . S
H2370 C2362 0.930 . S
H2371 C2363 0.929 . S
H2372 C2380 0.929 . S
H2373 C2382 0.930 . S
H2374 C2384 0.930 . S
H2375 C2387 0.929 . S
H2376 C2390 0.930 . S
H2377 C2392 0.960 . S
H2378 C2392 0.960 . S
H2379 C2392 0.960 . S
C2380 H2372 0.929 . S
C2380 C2381 1.377 1_565 S
C2380 C2382 1.384 . S
C2381 C2380 1.377 1_545 S
C2381 C2387 1.390 . S
C2382 H2373 0.930 . S
C2382 C2380 1.384 . S
C2382 C2383 1.372 . S
C2383 C2382 1.372 . S
C2383 C2384 1.400 1_565 S
C2383 C2388 1.490 . S
C2384 H2374 0.930 . S
C2384 C2383 1.400 1_545 S
C2384 C2387 1.386 . S
H2385 C2401 0.930 . S
H2386 C2402 0.931 . S
C2387 H2375 0.929 . S
C2387 C2381 1.390 . S
C2387 C2384 1.386 . S
C2388 C2383 1.490 . S
C2388 C2390 1.395 . S
C2388 C2391 1.403 . S
H2389 C2395 0.930 . S
C2390 H2376 0.930 . S
C2390 C2388 1.395 . S
C2390 C2393 1.403 . S
C2391 C2388 1.403 . S
C2391 C2392 1.524 1_565 S
C2391 C2395 1.400 . S
C2392 H2377 0.960 . S
C2392 H2378 0.960 . S
C2392 H2379 0.960 . S
C2392 C2391 1.524 1_545 S
C2393 C2390 1.403 . S
C2393 C2394 1.392 . S
C2393 C2397 1.495 . S
C2394 C2393 1.392 . S
C2394 C2395 1.385 . S
C2394 C2396 1.478 . S
C2395 H2389 0.930 . S
C2395 C2391 1.400 . S
C2395 C2394 1.385 . S
C2396 C2394 1.478 . S
C2396 C2398 1.381 . S
C2396 C2402 1.383 . S
C2397 C2393 1.495 . S
C2397 H2403 0.959 . S
C2397 H2404 0.961 . S
C2397 H2405 0.960 . S
C2398 C2396 1.381 . S
C2398 C2399 1.394 . S
C2398 H2406 0.930 . S
C2399 C2398 1.394 . S
C2399 C2400 1.383 . S
C2399 H2407 0.929 . S
C2400 C2399 1.383 . S
C2400 C2401 1.377 . S
C2401 H2385 0.930 . S
C2401 C2400 1.377 . S
C2401 C2402 1.379 . S
C2402 H2386 0.931 . S
C2402 C2396 1.383 . S
C2402 C2401 1.379 . S
H2403 C2397 0.959 . S
H2404 C2397 0.961 . S
H2405 C2397 0.960 . S
H2406 C2398 0.930 . S
H2407 C2399 0.929 . S
H2408 C2416 0.929 . S
H2409 C2418 0.930 . S
H2410 C2420 0.930 . S
H2411 C2423 0.929 . S
H2412 C2426 0.930 . S
H2413 C2428 0.960 . S
H2414 C2428 0.960 . S
H2415 C2428 0.960 . S
C2416 H2408 0.929 . S
C2416 C2417 1.377 . S
C2416 C2418 1.384 . S
C2417 C2416 1.377 . S
C2417 C2423 1.390 . S
C2418 H2409 0.930 . S
C2418 C2416 1.384 . S
C2418 C2419 1.372 . S
C2419 C2418 1.372 . S
C2419 C2420 1.400 . S
C2419 C2424 1.490 . S
C2420 H2410 0.930 . S
C2420 C2419 1.400 . S
C2420 C2423 1.386 . S
H2421 C2437 0.930 . S
H2422 C2438 0.931 . S
C2423 H2411 0.929 . S
C2423 C2417 1.390 . S
C2423 C2420 1.386 . S
C2424 C2419 1.490 . S
C2424 C2426 1.395 . S
C2424 C2427 1.403 . S
H2425 C2431 0.930 . S
C2426 H2412 0.930 . S
C2426 C2424 1.395 . S
C2426 C2429 1.403 . S
C2427 C2424 1.403 . S
C2427 C2428 1.524 . S
C2427 C2431 1.400 . S
C2428 H2413 0.960 . S
C2428 H2414 0.960 . S
C2428 H2415 0.960 . S
C2428 C2427 1.524 . S
C2429 C2426 1.403 . S
C2429 C2430 1.392 . S
C2429 C2433 1.495 . S
C2430 C2429 1.392 . S
C2430 C2431 1.385 . S
C2430 C2432 1.478 . S
C2431 H2425 0.930 . S
C2431 C2427 1.400 . S
C2431 C2430 1.385 . S
C2432 C2430 1.478 . S
C2432 C2434 1.381 . S
C2432 C2438 1.383 . S
C2433 C2429 1.495 . S
C2433 H2439 0.959 . S
C2433 H2440 0.961 . S
C2433 H2441 0.960 . S
C2434 C2432 1.381 . S
C2434 C2435 1.394 . S
C2434 H2442 0.930 . S
C2435 C2434 1.394 . S
C2435 C2436 1.383 . S
C2435 H2443 0.929 . S
C2436 C2435 1.383 . S
C2436 C2437 1.377 . S
C2437 H2421 0.930 . S
C2437 C2436 1.377 . S
C2437 C2438 1.379 . S
C2438 H2422 0.931 . S
C2438 C2432 1.383 . S
C2438 C2437 1.379 . S
H2439 C2433 0.959 . S
H2440 C2433 0.961 . S
H2441 C2433 0.960 . S
H2442 C2434 0.930 . S
H2443 C2435 0.929 . S
H2444 C2452 0.929 1_455 S
H2445 C2454 0.930 . S
H2446 C2456 0.930 . S
H2447 C2459 0.929 1_455 S
H2448 C2462 0.930 . S
H2449 C2464 0.960 . S
H2450 C2464 0.960 . S
H2451 C2464 0.960 . S
C2452 H2444 0.929 1_655 S
C2452 C2453 1.377 1_645 S
C2452 C2454 1.384 . S
C2453 C2452 1.377 1_465 S
C2453 C2459 1.390 1_455 S
C2454 H2445 0.930 . S
C2454 C2452 1.384 . S
C2454 C2455 1.372 . S
C2455 C2454 1.372 . S
C2455 C2456 1.400 1_545 S
C2455 C2460 1.490 . S
C2456 H2446 0.930 . S
C2456 C2455 1.400 1_565 S
C2456 C2459 1.386 . S
H2457 C2473 0.930 . S
H2458 C2474 0.931 . S
C2459 H2447 0.929 1_655 S
C2459 C2453 1.390 1_655 S
C2459 C2456 1.386 . S
C2460 C2455 1.490 . S
C2460 C2462 1.395 . S
C2460 C2463 1.403 . S
H2461 C2467 0.930 . S
C2462 H2448 0.930 . S
C2462 C2460 1.395 . S
C2462 C2465 1.403 . S
C2463 C2460 1.403 . S
C2463 C2464 1.524 . S
C2463 C2467 1.400 . S
C2464 H2449 0.960 . S
C2464 H2450 0.960 . S
C2464 H2451 0.960 . S
C2464 C2463 1.524 . S
C2465 C2462 1.403 . S
C2465 C2466 1.392 . S
C2465 C2469 1.495 . S
C2466 C2465 1.392 . S
C2466 C2467 1.385 . S
C2466 C2468 1.478 . S
C2467 H2461 0.930 . S
C2467 C2463 1.400 . S
C2467 C2466 1.385 . S
C2468 C2466 1.478 . S
C2468 C2470 1.381 . S
C2468 C2474 1.383 . S
C2469 C2465 1.495 . S
C2469 H2475 0.959 . S
C2469 H2476 0.961 . S
C2469 H2477 0.960 . S
C2470 C2468 1.381 . S
C2470 C2471 1.394 . S
C2470 H2478 0.930 . S
C2471 C2470 1.394 . S
C2471 C2472 1.383 . S
C2471 H2479 0.929 . S
C2472 C2471 1.383 . S
C2472 C2473 1.377 . S
C2473 H2457 0.930 . S
C2473 C2472 1.377 . S
C2473 C2474 1.379 . S
C2474 H2458 0.931 . S
C2474 C2468 1.383 . S
C2474 C2473 1.379 . S
H2475 C2469 0.959 . S
H2476 C2469 0.961 . S
H2477 C2469 0.960 . S
H2478 C2470 0.930 . S
H2479 C2471 0.929 . S
C473 C224 2.282 . S
C492 C5 2.335 . S
C509 C369 2.658 . S
C528 C39 2.753 . S
C545 C63 2.763 . S
C564 C166 2.740 . S
C581 C427 2.461 . S
C600 C92 2.491 . S
C617 C108 2.555 . S
C636 C121 2.586 . S
C653 C150 2.705 . S
C672 C253 2.603 . S
C689 C179 2.591 . S
C708 C37 2.399 . S
C725 C311 2.600 . S
C744 C208 2.625 . S
C761 C456 2.289 . S
C780 C237 2.329 . S
C797 C271 2.756 . S
C816 C137 2.641 . S
C833 C398 2.729 . S
C852 C295 2.746 . S
C869 C195 2.460 . S
C888 C324 2.471 . S
C905 C340 2.560 . S
C924 C353 2.567 . S
C941 C382 2.703 . S
C960 C21 2.612 . S
C977 C411 2.597 . S
C996 C269 2.405 . S
C1013 C79 2.603 . S
C1032 C440 2.613 . S
C1049 C282 1.025 . S
C1068 C3 0.986 . S
C1085 C44 0.676 . S
C1104 C298 0.662 . S
C1121 C61 0.559 . S
C1140 C327 0.459 . S
C1157 C90 0.818 . S
C1176 C240 0.811 . S
C1193 C385 0.443 . S
C1212 C119 0.466 . S
C1229 C148 1.312 . S
C1248 C414 1.348 . S
C1265 C443 0.788 . S
C1284 C177 0.848 . S
C1301 C206 1.114 . S
C1320 C356 1.175 . S
C1337 C50 1.039 . S
C1356 C235 1.059 . S
C1373 C66 0.682 . S
C1392 C276 0.765 . S
C1409 C95 0.540 . S
C1428 C293 0.649 . S
C1445 C8 0.826 . S
C1464 C322 0.802 . S
C1481 C351 0.450 . S
C1500 C153 0.406 . S
C1517 C182 1.346 . S
C1536 C380 1.280 . S
C1553 C211 0.797 . S
C1572 C409 0.796 . S
C1589 C438 1.125 . S
C1608 C124 1.134 . S
C1625 C129 1.849 . S
C1644 C13 1.836 . S
C1661 C42 1.788 . S
C1680 C390 1.843 . S
C1697 C187 1.531 . S
C1716 C71 1.545 . S
C1733 C448 1.943 . S
C1752 C100 1.916 . S
C1769 C274 1.774 . S
C1788 C158 1.825 . S
C1805 C216 1.948 . S
C1824 C332 1.960 . S
C1841 C245 1.862 . S
C1860 C361 1.863 . S
C1877 C303 1.530 . S
C1896 C419 1.513 . S
C1913 C218 1.387 . S
C1932 C10 1.308 1_565 S
C1949 C363 1.581 . S
C1968 C34 1.502 . S
C1985 C68 0.943 1_545 S
C2004 C160 0.995 . S
C2021 C97 1.642 . S
C2040 C421 1.675 . S
C2057 C126 1.235 . S
C2076 C102 1.265 . S
C2093 C155 1.611 . S
C2112 C247 1.658 . S
C2129 C184 1.844 1_565 S
C2148 C32 1.907 . S
C2165 C305 1.821 . S
C2184 C213 1.757 . S
C2201 C242 1.342 . S
C2220 C450 1.387 . S
C2237 C131 1.579 1_545 S
C2256 C266 1.532 . S
C2273 C392 0.975 . S
C2292 C300 0.907 . S
C2309 C329 1.650 . S
C2328 C189 1.648 . S
C2345 C334 1.262 . S
C2364 C358 1.241 . S
C2381 C15 1.683 . S
C2400 C387 1.643 . S
C2417 C416 1.849 . S
C2436 C264 1.915 . S
C2453 C73 1.824 . S
C2472 C445 1.780 . S
