# Generated by pormake.
# Topology uol, (4)-cn, num edge types: 1
# Building blocks:
#     Node 0, Type 0, BuildingBlock: NAWXER_clean_sbu_0, # of connection points: 4
#     Node 1, Type 0, BuildingBlock: NAWXER_clean_sbu_0, # of connection points: 4
#     Node 2, Type 0, BuildingBlock: NAWXER_clean_sbu_0, # of connection points: 4
#     Node 3, Type 0, BuildingBlock: NAWXER_clean_sbu_0, # of connection points: 4
#     Node 4, Type 0, BuildingBlock: NAWXER_clean_sbu_0, # of connection points: 4
#     Node 5, Type 0, BuildingBlock: NAWXER_clean_sbu_0, # of connection points: 4
#     Node 6, Type 0, BuildingBlock: NAWXER_clean_sbu_0, # of connection points: 4
#     Node 7, Type 0, BuildingBlock: NAWXER_clean_sbu_0, # of connection points: 4
#     Node 8, Type 0, BuildingBlock: NAWXER_clean_sbu_0, # of connection points: 4
#     Node 9, Type 0, BuildingBlock: NAWXER_clean_sbu_0, # of connection points: 4
#     Node 10, Type 0, BuildingBlock: NAWXER_clean_sbu_0, # of connection points: 4
#     Node 11, Type 0, BuildingBlock: NAWXER_clean_sbu_0, # of connection points: 4
#     Edge 12, Type (0, 0), BuildingBlock: AJUNOK_clean_linker_0, # of connection points: 2
#     Edge 13, Type (0, 0), BuildingBlock: AJUNOK_clean_linker_0, # of connection points: 2
#     Edge 14, Type (0, 0), BuildingBlock: AJUNOK_clean_linker_0, # of connection points: 2
#     Edge 15, Type (0, 0), BuildingBlock: AJUNOK_clean_linker_0, # of connection points: 2
#     Edge 16, Type (0, 0), BuildingBlock: AJUNOK_clean_linker_0, # of connection points: 2
#     Edge 17, Type (0, 0), BuildingBlock: AJUNOK_clean_linker_0, # of connection points: 2
#     Edge 18, Type (0, 0), BuildingBlock: AJUNOK_clean_linker_0, # of connection points: 2
#     Edge 19, Type (0, 0), BuildingBlock: AJUNOK_clean_linker_0, # of connection points: 2
#     Edge 20, Type (0, 0), BuildingBlock: AJUNOK_clean_linker_0, # of connection points: 2
#     Edge 21, Type (0, 0), BuildingBlock: AJUNOK_clean_linker_0, # of connection points: 2
#     Edge 22, Type (0, 0), BuildingBlock: AJUNOK_clean_linker_0, # of connection points: 2
#     Edge 23, Type (0, 0), BuildingBlock: AJUNOK_clean_linker_0, # of connection points: 2
#     Edge 24, Type (0, 0), BuildingBlock: AJUNOK_clean_linker_0, # of connection points: 2
#     Edge 25, Type (0, 0), BuildingBlock: AJUNOK_clean_linker_0, # of connection points: 2
#     Edge 26, Type (0, 0), BuildingBlock: AJUNOK_clean_linker_0, # of connection points: 2
#     Edge 27, Type (0, 0), BuildingBlock: AJUNOK_clean_linker_0, # of connection points: 2
#     Edge 28, Type (0, 0), BuildingBlock: AJUNOK_clean_linker_0, # of connection points: 2
#     Edge 29, Type (0, 0), BuildingBlock: AJUNOK_clean_linker_0, # of connection points: 2
#     Edge 30, Type (0, 0), BuildingBlock: AJUNOK_clean_linker_0, # of connection points: 2
#     Edge 31, Type (0, 0), BuildingBlock: AJUNOK_clean_linker_0, # of connection points: 2
#     Edge 32, Type (0, 0), BuildingBlock: AJUNOK_clean_linker_0, # of connection points: 2
#     Edge 33, Type (0, 0), BuildingBlock: AJUNOK_clean_linker_0, # of connection points: 2
#     Edge 34, Type (0, 0), BuildingBlock: AJUNOK_clean_linker_0, # of connection points: 2
#     Edge 35, Type (0, 0), BuildingBlock: AJUNOK_clean_linker_0, # of connection points: 2
# Relax obj value: 0.141
# Max RMSD: 0.284
# Mean RMSD: 0.284
data_MOF--net-uol--node1-NAWXER_clean_sbu_0--edge1-AJUNOK_clean_linker_0
_symmetry_space_group_name_H-M    P1
_symmetry_Int_Tables_number       1
_symmetry_cell_setting            triclinic
loop_
_symmetry_equiv_pos_as_xyz
'x, y, z'
_cell_length_a     24.646834
_cell_length_b     24.568264
_cell_length_c     48.100574
_cell_angle_alpha  89.822015
_cell_angle_beta   90.084042
_cell_angle_gamma 119.99566
loop_
_atom_site_label
_atom_site_type_symbol
_atom_site_fract_x
_atom_site_fract_y
_atom_site_fract_z
_atom_type_partial_charge
C0 C 0.16125 0.32994 0.06966 0.0
C1 C 0.01692 0.28211 0.14637 0.0
O2 O 0.18887 0.36711 0.09018 0.0
Zn3 Zn 0.15965 0.38298 0.13093 0.0
O4 O 0.10291 0.29121 0.07101 0.0
Zn5 Zn 0.08963 0.31207 0.10741 0.0
O6 O 0.09849 0.40324 0.10096 0.0
O7 O 0.17237 0.46664 0.12989 0.0
O8 O 1.00704 0.26032 0.12189 0.0
O9 O 0.0713 0.32806 0.15261 0.0
O10 O 0.21554 0.37154 0.1543 0.0
O11 O 0.14651 0.28505 0.13272 0.0
C12 C 0.1321 0.45806 0.11149 0.0
C13 C 0.19319 0.31342 0.14942 0.0
C14 C 0.89235 0.1956 0.31687 0.0
C15 C 0.68929 0.1359 0.27783 0.0
O16 O 0.87351 0.14682 0.30135 0.0
Zn17 Zn 0.78883 0.08816 0.27656 0.0
O18 O 0.85676 0.2183 0.32084 0.0
Zn19 Zn 0.79014 0.16166 0.29779 0.0
O20 O 0.75183 0.07395 0.32123 0.0
O21 O 0.75634 1.00676 0.29255 0.0
O22 O 0.72389 0.17983 0.29427 0.0
O23 O 0.70677 0.0974 0.2696 0.0
O24 O 0.82226 0.09712 0.23996 0.0
O25 O 0.8358 0.18604 0.25721 0.0
C26 C 0.74228 0.01846 0.31625 0.0
C27 C 0.8439 0.1558 0.23744 0.0
C28 C 0.70523 0.8847 0.48448 0.0
C29 C 0.56521 0.67838 0.44652 0.0
O30 O 0.73466 0.86774 0.46774 0.0
Zn31 Zn 0.70979 0.78438 0.44234 0.0
O32 O 0.64797 0.84702 0.48998 0.0
Zn33 Zn 0.63844 0.78096 0.46632 0.0
O34 O 0.69464 0.74814 0.48743 0.0
O35 O 0.76288 0.75459 0.45634 0.0
O36 O 0.55578 0.70904 0.46512 0.0
O37 O 0.61996 0.70101 0.43583 0.0
O38 O 0.72987 0.81991 0.40603 0.0
O39 O 0.65365 0.82812 0.42595 0.0
C40 C 0.7411 0.74092 0.4808 0.0
C41 C 0.69114 0.83965 0.40537 0.0
C42 C 0.87054 0.69331 0.57012 0.0
C43 C 1.01062 0.73674 0.64831 0.0
O44 O 0.84222 0.65434 0.59008 0.0
Zn45 Zn 0.86952 0.63609 0.6309 0.0
O46 O 0.92856 0.73276 0.57225 0.0
Zn47 Zn 0.94006 0.70965 0.60863 0.0
O48 O 0.93334 0.61949 0.60134 0.0
O49 O 0.85808 0.55327 0.62916 0.0
O50 O 0.02159 0.76153 0.62434 0.0
O51 O 0.9562 0.68978 0.65359 0.0
O52 O 0.81176 0.64419 0.65405 0.0
O53 O 0.87977 0.73286 0.63351 0.0
C54 C 0.89974 0.56384 0.61122 0.0
C55 C 0.83216 0.70215 0.64954 0.0
C56 C 0.14121 0.82989 0.81773 0.0
C57 C 0.34351 0.88904 0.77819 0.0
O58 O 0.15928 0.87782 0.80163 0.0
Zn59 Zn 0.24309 0.93569 0.77614 0.0
O60 O 0.17722 0.80777 0.82212 0.0
Zn61 Zn 0.24303 0.86356 0.79849 0.0
O62 O 0.28032 0.95182 0.82076 0.0
O63 O 0.27504 0.01784 0.79136 0.0
O64 O 0.30973 0.84614 0.7953 0.0
O65 O 0.32538 0.92671 0.76935 0.0
O66 O 0.20771 0.9236 0.73961 0.0
O67 O 0.19587 0.83651 0.75852 0.0
C68 C 0.28916 1.00688 0.81527 0.0
C69 C 0.18587 0.86468 0.73835 0.0
C70 C 0.29124 0.28455 0.98028 0.0
C71 C 0.33659 0.18342 0.90464 0.0
O72 O 0.33653 0.27522 0.98688 0.0
Zn73 Zn 0.38955 0.23848 0.96562 0.0
O74 O 0.26935 0.27197 0.95582 0.0
Zn75 Zn 0.32019 0.24007 0.94188 0.0
O76 O 0.29113 0.15545 0.96733 0.0
O77 O 0.37656 0.17077 0.98919 0.0
O78 O 0.30014 0.2059 0.90514 0.0
O79 O 0.37269 0.19236 0.92547 0.0
O80 O 0.47408 0.30595 0.96364 0.0
O81 O 0.41155 0.32255 0.93668 0.0
C82 C 0.31858 0.13599 0.98409 0.0
C83 C 0.46642 0.34059 0.94642 0.0
C84 C 0.70517 0.82661 0.69617 0.0
C85 C 0.56227 0.88704 0.73513 0.0
O86 O 0.73475 0.87451 0.71218 0.0
Zn87 Zn 0.70876 0.93243 0.73747 0.0
O88 O 0.64716 0.80452 0.69166 0.0
Zn89 Zn 0.63699 0.86056 0.71512 0.0
O90 O 0.68837 0.94909 0.69273 0.0
O91 O 0.75927 0.01459 0.72218 0.0
O92 O 0.55301 0.84381 0.71826 0.0
O93 O 0.61796 0.92434 0.74394 0.0
O94 O 0.73137 0.91977 0.77408 0.0
O95 O 0.65666 0.83288 0.75513 0.0
C96 C 0.73451 1.00401 0.69824 0.0
C97 C 0.69453 0.86082 0.77533 0.0
C98 C 0.8422 0.69585 0.94488 0.0
C99 C 0.7431 0.73377 0.8658 0.0
O100 O 0.83366 0.65745 0.92507 0.0
Zn101 Zn 0.78837 0.63676 0.88449 0.0
O102 O 0.82135 0.73349 0.94239 0.0
Zn103 Zn 0.78787 0.70936 0.90573 0.0
O104 O 0.70514 0.61803 0.91268 0.0
O105 O 0.72155 0.55251 0.88783 0.0
O106 O 0.75669 0.75934 0.88956 0.0
O107 O 0.75179 0.68727 0.86097 0.0
O108 O 0.85459 0.6461 0.8615 0.0
O109 O 0.8725 0.73475 0.88099 0.0
C110 C 0.68729 0.56195 0.90439 0.0
C111 C 0.89074 0.70442 0.86543 0.0
C112 C 0.1918 0.88408 0.03097 0.0
C113 C 0.13086 0.67917 0.07025 0.0
O114 O 0.14591 0.86635 0.04806 0.0
Zn115 Zn 0.08953 0.78344 0.07395 0.0
O116 O 0.21345 0.84786 0.02583 0.0
Zn117 Zn 0.158 0.78091 0.04971 0.0
O118 O 0.06905 0.74777 0.02889 0.0
O119 O 1.00638 0.75257 0.06005 0.0
O120 O 0.16967 0.70922 0.05107 0.0
O121 O 0.09823 0.70137 0.08081 0.0
O122 O 0.10545 0.8195 0.11014 0.0
O123 O 0.18952 0.82748 0.08995 0.0
C124 C 0.01518 0.73999 0.03552 0.0
C125 C 0.16382 0.83892 0.11064 0.0
C126 C 0.29555 0.01471 0.19972 0.0
C127 C 0.33463 0.1564 0.27687 0.0
O128 O 0.34061 0.07019 0.19401 0.0
Zn129 Zn 0.39103 0.15881 0.21623 0.0
O130 O 0.27154 1.00333 0.22383 0.0
Zn131 Zn 0.32071 0.08564 0.23889 0.0
O132 O 0.29199 0.14155 0.21358 0.0
O133 O 0.37823 0.21398 0.19297 0.0
O134 O 0.29833 0.09738 0.27565 0.0
O135 O 0.37171 0.18493 0.25648 0.0
O136 O 0.47573 0.17736 0.21882 0.0
O137 O 0.4126 0.09607 0.24474 0.0
C138 C 0.31986 0.18949 0.19736 0.0
C139 C 0.46782 0.13431 0.23566 0.0
C140 C 0.34701 0.45655 0.40434 0.0
C141 C 0.14309 0.31847 0.36428 0.0
O142 O 0.32441 0.40075 0.41416 0.0
Zn143 Zn 0.24191 0.3106 0.40619 0.0
O144 O 0.31748 0.4673 0.38559 0.0
Zn145 Zn 0.24612 0.38455 0.38336 0.0
O146 O 0.19936 0.36666 0.42365 0.0
O147 O 0.20538 0.28766 0.44233 0.0
O148 O 0.18068 0.37637 0.35971 0.0
O149 O 0.15956 0.2877 0.38058 0.0
O150 O 0.27234 0.25869 0.39095 0.0
O151 O 0.27961 0.33064 0.36148 0.0
C152 C 0.18696 0.32747 0.44371 0.0
C153 C 0.28693 0.28362 0.36702 0.0
C154 C 0.89867 0.34303 0.5693 0.0
C155 C 0.83148 0.13772 0.52974 0.0
O156 O 0.93121 0.31993 0.57921 0.0
Zn157 Zn 0.93762 0.23671 0.57171 0.0
O158 O 0.85821 0.31341 0.55067 0.0
Zn159 Zn 0.86865 0.24124 0.54858 0.0
O160 O 0.83864 0.19405 0.58886 0.0
O161 O 0.92303 0.20015 0.60792 0.0
O162 O 0.81152 0.17548 0.52487 0.0
O163 O 0.87832 0.15432 0.54618 0.0
O164 O 0.01991 0.26671 0.55675 0.0
O165 O 0.95642 0.27455 0.52693 0.0
C166 C 0.86488 0.18156 0.60907 0.0
C167 C 1.01039 0.28161 0.53272 0.0
C168 C 0.12574 0.57613 0.06276 0.0
C169 C 0.12576 0.62057 0.08114 0.0
C170 C 0.12489 0.52197 0.07277 0.0
C171 C 0.12626 0.5117 0.10147 0.0
H172 H 0.12665 0.58344 0.0405 0.0
H173 H 0.12561 0.48917 0.05797 0.0
S174 S 0.12601 0.61351 0.15812 0.0
N175 N 0.12511 0.64978 0.1293 0.0
N176 N 0.12646 0.54947 0.1481 0.0
C177 C 0.12583 0.55551 0.12003 0.0
C178 C 0.12476 0.60959 0.10986 0.0
C179 C 0.63218 0.18908 0.26117 0.0
C180 C 0.63181 0.13275 0.26688 0.0
C181 C 0.57907 0.18869 0.25067 0.0
C182 C 0.52295 0.13199 0.24617 0.0
H183 H 0.67422 0.23399 0.26452 0.0
H184 H 0.58172 0.23333 0.24649 0.0
S185 S 0.49714 0.97159 0.2581 0.0
N186 N 0.571 0.01863 0.26703 0.0
N187 N 0.46989 0.01792 0.24823 0.0
C188 C 0.52155 0.07521 0.25203 0.0
C189 C 0.57639 0.07558 0.26207 0.0
C190 C 0.50439 0.60634 0.40771 0.0
C191 C 0.51255 0.61853 0.4364 0.0
C192 C 0.45103 0.55298 0.39745 0.0
C193 C 0.40533 0.50906 0.41561 0.0
H194 H 0.53811 0.63956 0.39305 0.0
H195 H 0.44517 0.54632 0.37516 0.0
S196 S 0.40678 0.51751 0.49251 0.0
N197 N 0.4715 0.58167 0.48282 0.0
N198 N 0.37264 0.47994 0.46354 0.0
C199 C 0.41426 0.51936 0.44435 0.0
C200 C 0.46755 0.57456 0.45475 0.0
C201 C 0.90655 0.50098 0.5722 0.0
C202 C 0.90682 0.51131 0.60093 0.0
C203 C 0.90499 0.44671 0.56205 0.0
C204 C 0.90578 0.40224 0.58029 0.0
H205 H 0.9047 0.53359 0.55754 0.0
H206 H 0.90249 0.43915 0.53979 0.0
S207 S 0.91049 0.40991 0.65726 0.0
N208 N 0.90957 0.47395 0.64743 0.0
N209 N 0.90956 0.3734 0.62832 0.0
C210 C 0.90887 0.41353 0.609 0.0
C211 C 0.90856 0.46773 0.61934 0.0
C212 C 0.45182 0.83414 0.75113 0.0
C213 C 0.50803 0.89039 0.746 0.0
C214 C 0.39935 0.83463 0.76181 0.0
C215 C 0.40044 0.89141 0.76706 0.0
H216 H 0.44858 0.78917 0.74728 0.0
H217 H 0.35721 0.79003 0.76562 0.0
S218 S 0.53568 0.05169 0.75664 0.0
N219 N 0.56202 1.00454 0.74704 0.0
N220 N 0.46203 1.00547 0.76617 0.0
C221 C 0.45597 0.94814 0.76166 0.0
C222 C 0.5102 0.94763 0.75145 0.0
C223 C 0.57835 0.39917 0.93243 0.0
C224 C 0.52153 0.39861 0.93618 0.0
C225 C 0.63131 0.45226 0.92195 0.0
C226 C 0.63007 0.50748 0.91553 0.0
H227 H 0.58164 0.35774 0.93711 0.0
H228 H 0.67387 0.45022 0.91912 0.0
S229 S 0.49349 0.53108 0.92232 0.0
N230 N 0.46698 0.45788 0.93273 0.0
N231 N 0.56784 0.55902 0.914 0.0
C232 C 0.57402 0.50819 0.91966 0.0
C233 C 0.51935 0.45333 0.92967 0.0
C234 C 0.31801 0.28384 0.17968 0.0
C235 C 0.28562 0.21885 0.18508 0.0
C236 C 0.28733 0.31387 0.16856 0.0
C237 C 0.22325 0.27993 0.16185 0.0
H238 H 0.36747 0.31209 0.18443 0.0
H239 H 0.31439 0.36405 0.16482 0.0
S240 S 0.11707 0.10863 0.17175 0.0
N241 N 0.18576 0.12135 0.18307 0.0
N242 N 0.12819 0.17767 0.16143 0.0
C243 C 0.19023 0.21479 0.16694 0.0
C244 C 0.22134 0.18431 0.1788 0.0
C245 C 0.98756 0.19357 0.33411 0.0
C246 C 0.95611 0.22721 0.32906 0.0
C247 C 0.04796 0.22316 0.34574 0.0
C248 C 0.07954 0.28771 0.35203 0.0
H249 H 0.96509 0.1439 0.32937 0.0
H250 H 0.07036 0.1955 0.3495 0.0
S251 S 0.018 0.39698 0.34267 0.0
N252 N 0.96128 0.32869 0.33138 0.0
N253 N 0.07469 0.38413 0.35268 0.0
C254 C 0.04877 0.32188 0.34691 0.0
C255 C 0.98709 0.29167 0.33558 0.0
C256 C 0.83178 0.04155 0.51278 0.0
C257 C 0.79895 0.07379 0.51772 0.0
C258 C 0.80135 0.98048 0.50177 0.0
C259 C 0.73673 0.94897 0.49608 0.0
H260 H 0.88146 0.06388 0.51718 0.0
H261 H 0.8284 0.95747 0.49808 0.0
S262 S 0.62943 0.01252 0.50548 0.0
N263 N 0.69831 0.06965 0.51593 0.0
N264 N 0.64106 0.95473 0.49586 0.0
C265 C 0.70335 0.98057 0.50107 0.0
C266 C 0.73449 0.04304 0.51172 0.0
C267 C 0.83131 0.79888 0.6655 0.0
C268 C 0.79958 0.73325 0.66183 0.0
C269 C 0.80082 0.829 0.67694 0.0
C270 C 0.73719 0.79466 0.68441 0.0
H271 H 0.88019 0.82715 0.65975 0.0
H272 H 0.82694 0.87954 0.67955 0.0
S273 S 0.6331 0.62191 0.67931 0.0
N274 N 0.70104 0.63492 0.66701 0.0
N275 N 0.64384 0.69156 0.68796 0.0
C276 C 0.70498 0.72912 0.68083 0.0
C277 C 0.73616 0.6984 0.66969 0.0
C278 C 0.98709 0.8015 0.84855 0.0
C279 C 0.95434 0.73608 0.85306 0.0
C280 C 0.0474 0.8318 0.83679 0.0
C281 C 0.0775 0.79787 0.82979 0.0
H282 H 0.96577 0.82941 0.85388 0.0
H283 H 0.07093 0.88216 0.83353 0.0
S284 S 1.01202 0.62578 0.83725 0.0
N285 N 0.95665 0.63843 0.84929 0.0
N286 N 0.06971 0.69533 0.82768 0.0
C287 C 0.04531 0.73255 0.83425 0.0
C288 C 0.98381 0.70167 0.84575 0.0
C289 C 0.28632 0.97869 0.01247 0.0
C290 C 0.22194 0.94773 0.01859 0.0
C291 C 0.31707 0.03985 1.0017 0.0
C292 C 0.2844 0.07199 0.99607 0.0
H293 H 0.31354 0.95593 0.01649 0.0
H294 H 0.36678 0.0618 0.99741 0.0
S295 S 0.11499 0.01131 0.00783 0.0
N296 N 0.12631 0.95356 0.01819 0.0
N297 N 0.18396 0.06821 0.99716 0.0
C298 C 0.21982 0.04135 1.00172 0.0
C299 C 0.18866 0.97936 0.01324 0.0
C300 C 0.25821 0.33734 0.04942 0.0
C301 C 0.19743 0.32771 0.04562 0.0
C302 C 0.28927 0.32539 0.02789 0.0
C303 C 0.26107 0.30437 1.00164 0.0
H304 H 0.28069 0.35114 0.06957 0.0
H305 H 0.33498 0.33105 0.03212 0.0
S306 S 0.10507 0.27923 0.98036 0.0
N307 N 0.11216 0.30087 0.01322 0.0
N308 N 0.17044 0.27955 0.97262 0.0
C309 C 0.20167 0.29821 0.9972 0.0
C310 C 0.16987 0.30952 0.01922 0.0
C311 C 0.93147 0.25211 0.21543 0.0
C312 C 0.88252 0.18954 0.21292 0.0
C313 C 0.97373 0.28238 0.19354 0.0
C314 C 0.96796 0.25161 0.16812 0.0
H315 H 0.93888 0.27706 0.23487 0.0
H316 H 1.01193 0.32985 0.19678 0.0
S317 S 0.8439 0.0893 0.15021 0.0
N318 N 0.82819 0.09913 0.18254 0.0
N319 N 0.90661 0.15599 0.14126 0.0
C320 C 0.91726 0.18998 0.16493 0.0
C321 C 0.87486 0.15896 0.18736 0.0
C322 C 0.72685 0.91632 0.33441 0.0
C323 C 0.72058 0.96972 0.33842 0.0
C324 C 0.71444 0.87303 0.35586 0.0
C325 C 0.69409 0.88052 0.38208 0.0
H326 H 0.74401 0.90899 0.31487 0.0
H327 H 0.72244 0.83414 0.35206 0.0
S328 S 0.6652 1.00909 0.40299 0.0
N329 N 0.68915 0.02557 0.3704 0.0
N330 N 0.66486 0.94333 0.41061 0.0
C331 C 0.68436 0.93171 0.38607 0.0
C332 C 0.69792 0.97655 0.36429 0.0
C333 C 0.77337 0.68439 0.54929 0.0
C334 C 0.83522 0.6968 0.54593 0.0
C335 C 0.74248 0.69697 0.52782 0.0
C336 C 0.77192 0.72143 0.50206 0.0
H337 H 0.74972 0.66775 0.56908 0.0
H338 H 0.69573 0.68886 0.53172 0.0
S339 S 0.93144 0.7553 0.48194 0.0
N340 N 0.92316 0.73032 0.51438 0.0
N341 N 0.86516 0.75291 0.47389 0.0
C342 C 0.8326 0.73065 0.498 0.0
C343 C 0.86423 0.71867 0.51998 0.0
C344 C 0.14999 0.85879 0.68929 0.0
C345 C 0.14511 0.8285 0.71477 0.0
C346 C 0.10792 0.82772 0.66754 0.0
C347 C 0.0585 0.76539 0.67056 0.0
H348 H 0.18602 0.90736 0.68624 0.0
H349 H 0.11293 0.85373 0.64858 0.0
S350 S 0.02682 0.664 0.73278 0.0
N351 N 0.08865 0.7316 0.74143 0.0
N352 N 1.00898 0.67344 0.7007 0.0
C353 C 0.05415 0.73387 0.69567 0.0
C354 C 0.09761 0.76531 0.71772 0.0
C355 C 0.31011 0.14884 0.85532 0.0
C356 C 0.33313 0.1428 0.88121 0.0
C357 C 0.29905 0.1064 0.83374 0.0
C358 C 0.30953 0.05545 0.83729 0.0
H359 H 0.29919 0.18592 0.85186 0.0
H360 H 0.27967 0.1123 0.81449 0.0
S361 S 0.37327 0.02078 0.90063 0.0
N362 N 0.36936 0.08396 0.90878 0.0
N363 N 0.34773 1.00358 0.86831 0.0
C364 C 0.33474 0.05015 0.86276 0.0
C365 C 0.34682 0.094 0.88467 0.0
C366 C 0.72216 0.85399 0.82465 0.0
C367 C 0.69912 0.82443 0.79891 0.0
C368 C 0.73344 0.82308 0.84647 0.0
C369 C 0.72326 0.76166 0.84331 0.0
H370 H 0.73266 0.90193 0.82784 0.0
H371 H 0.75256 0.84867 0.86564 0.0
S372 S 0.66064 0.66246 0.78028 0.0
N373 N 0.66389 0.72918 0.77176 0.0
N374 N 0.68606 0.67133 0.81265 0.0
C375 C 0.69846 0.7308 0.81791 0.0
C376 C 0.68609 0.76207 0.79577 0.0
C377 C 0.92822 0.68474 0.96684 0.0
C378 C 0.88055 0.70004 0.96938 0.0
C379 C 0.97039 0.69596 0.98866 0.0
C380 C 0.96582 0.72186 0.01402 0.0
H381 H 0.93478 0.66648 0.94744 0.0
H382 H 1.00768 0.68547 0.98537 0.0
S383 S 0.84518 0.76445 0.03204 0.0
N384 N 0.82853 0.73857 0.99978 0.0
N385 N 0.90685 0.75871 0.04092 0.0
C386 C 0.91629 0.73439 0.01728 0.0
C387 C 0.87397 0.7238 0.99492 0.0
C388 C 0.17412 0.87247 0.16012 0.0
C389 C 0.20204 0.87889 0.13397 0.0
C390 C 0.20613 0.91481 0.18164 0.0
C391 C 0.26703 0.96609 0.17774 0.0
H392 H 0.12645 0.83522 0.16383 0.0
H393 H 0.18165 0.90866 0.20111 0.0
S394 S 0.36252 1.00165 0.11354 0.0
N395 N 0.29549 0.93822 0.10573 0.0
N396 N 0.35549 0.01859 0.14607 0.0
C397 C 0.29649 0.97169 0.15198 0.0
C398 C 0.26409 0.92786 0.13014 0.0
C399 C 0.30374 0.16137 0.32588 0.0
C400 C 0.33023 0.1923 0.30064 0.0
C401 C 0.29268 0.19226 0.34769 0.0
C402 C 0.3067 0.25506 0.34498 0.0
H403 H 0.29023 0.11242 0.32865 0.0
H404 H 0.27065 0.16578 0.36641 0.0
S405 S 0.38021 0.35842 0.28371 0.0
N406 N 0.37334 0.29047 0.2747 0.0
N407 N 0.35181 0.34825 0.31556 0.0
C408 C 0.33521 0.28726 0.3202 0.0
C409 C 0.34723 0.25599 0.29809 0.0
C410 C 0.1506 0.29861 0.49275 0.0
C411 C 0.14682 0.32451 0.46721 0.0
C412 C 0.10809 0.28781 0.51426 0.0
C413 C 0.05931 0.3014 0.51092 0.0
H414 H 0.18591 0.28525 0.49596 0.0
H415 H 0.11208 0.26619 0.53323 0.0
S416 S 0.03109 0.37326 0.44854 0.0
N417 N 0.09253 0.36667 0.44025 0.0
N418 N 1.01197 0.34553 0.48052 0.0
C419 C 0.05634 0.32944 0.48582 0.0
C420 C 0.10029 0.34128 0.46402 0.0
C421 C 0.82436 0.10359 0.67988 0.0
C422 C 0.76299 0.05295 0.67625 0.0
C423 C 0.85602 0.14638 0.65836 0.0
C424 C 0.82727 0.1411 0.63249 0.0
H425 H 0.84939 0.10891 0.69913 0.0
H426 H 0.904 0.18311 0.66184 0.0
S427 S 0.66554 0.02024 0.61281 0.0
N428 N 0.67339 1.00219 0.64511 0.0
N429 N 0.73271 0.0834 0.6048 0.0
C430 C 0.76486 0.09272 0.62895 0.0
C431 C 0.73281 0.04843 0.65077 0.0
loop_
_geom_bond_atom_site_label_1
_geom_bond_atom_site_label_2
_geom_bond_distance
_geom_bond_site_symmetry_2
_ccdc_geom_bond_type
C0 O2 1.247 . S
C0 O4 1.258 . S
C1 O8 1.247 . S
C1 O9 1.258 . S
O2 C0 1.247 . S
O2 Zn3 2.028 . S
Zn3 O2 2.028 . S
Zn3 O7 2.035 . S
Zn3 O9 2.035 . S
Zn3 O10 2.028 . S
O4 C0 1.258 . S
O4 Zn5 2.035 . S
Zn5 O4 2.035 . S
Zn5 O6 2.028 . S
Zn5 O8 2.028 . S
Zn5 O11 2.035 . S
O6 Zn5 2.028 . S
O6 C12 1.247 . S
O7 Zn3 2.035 . S
O7 C12 1.258 . S
O8 C1 1.247 . S
O8 Zn5 2.028 . S
O9 C1 1.258 . S
O9 Zn3 2.035 . S
O10 Zn3 2.028 . S
O10 C13 1.247 . S
O11 Zn5 2.035 . S
O11 C13 1.258 . S
C12 O6 1.247 . S
C12 O7 1.258 . S
C13 O10 1.247 . S
C13 O11 1.258 . S
C14 O16 1.247 . S
C14 O18 1.258 . S
C15 O22 1.247 . S
C15 O23 1.258 . S
O16 C14 1.247 . S
O16 Zn17 2.028 . S
Zn17 O16 2.028 . S
Zn17 O21 2.035 . S
Zn17 O23 2.035 . S
Zn17 O24 2.028 . S
O18 C14 1.258 . S
O18 Zn19 2.035 . S
Zn19 O18 2.035 . S
Zn19 O20 2.028 . S
Zn19 O22 2.028 . S
Zn19 O25 2.035 . S
O20 Zn19 2.028 . S
O20 C26 1.247 . S
O21 Zn17 2.035 . S
O21 C26 1.258 . S
O22 C15 1.247 . S
O22 Zn19 2.028 . S
O23 C15 1.258 . S
O23 Zn17 2.035 . S
O24 Zn17 2.028 . S
O24 C27 1.247 . S
O25 Zn19 2.035 . S
O25 C27 1.258 . S
C26 O20 1.247 . S
C26 O21 1.258 . S
C27 O24 1.247 . S
C27 O25 1.258 . S
C28 O30 1.247 . S
C28 O32 1.258 . S
C29 O36 1.247 . S
C29 O37 1.258 . S
O30 C28 1.247 . S
O30 Zn31 2.028 . S
Zn31 O30 2.028 . S
Zn31 O35 2.035 . S
Zn31 O37 2.035 . S
Zn31 O38 2.028 . S
O32 C28 1.258 . S
O32 Zn33 2.035 . S
Zn33 O32 2.035 . S
Zn33 O34 2.028 . S
Zn33 O36 2.028 . S
Zn33 O39 2.035 . S
O34 Zn33 2.028 . S
O34 C40 1.247 . S
O35 Zn31 2.035 . S
O35 C40 1.258 . S
O36 C29 1.247 . S
O36 Zn33 2.028 . S
O37 C29 1.258 . S
O37 Zn31 2.035 . S
O38 Zn31 2.028 . S
O38 C41 1.247 . S
O39 Zn33 2.035 . S
O39 C41 1.258 . S
C40 O34 1.247 . S
C40 O35 1.258 . S
C41 O38 1.247 . S
C41 O39 1.258 . S
C42 O44 1.247 . S
C42 O46 1.258 . S
C43 O50 1.247 . S
C43 O51 1.258 . S
O44 C42 1.247 . S
O44 Zn45 2.028 . S
Zn45 O44 2.028 . S
Zn45 O49 2.035 . S
Zn45 O51 2.035 . S
Zn45 O52 2.028 . S
O46 C42 1.258 . S
O46 Zn47 2.035 . S
Zn47 O46 2.035 . S
Zn47 O48 2.028 . S
Zn47 O50 2.028 . S
Zn47 O53 2.035 . S
O48 Zn47 2.028 . S
O48 C54 1.247 . S
O49 Zn45 2.035 . S
O49 C54 1.258 . S
O50 C43 1.247 . S
O50 Zn47 2.028 . S
O51 C43 1.258 . S
O51 Zn45 2.035 . S
O52 Zn45 2.028 . S
O52 C55 1.247 . S
O53 Zn47 2.035 . S
O53 C55 1.258 . S
C54 O48 1.247 . S
C54 O49 1.258 . S
C55 O52 1.247 . S
C55 O53 1.258 . S
C56 O58 1.247 . S
C56 O60 1.258 . S
C57 O64 1.247 . S
C57 O65 1.258 . S
O58 C56 1.247 . S
O58 Zn59 2.028 . S
Zn59 O58 2.028 . S
Zn59 O63 2.035 . S
Zn59 O65 2.035 . S
Zn59 O66 2.028 . S
O60 C56 1.258 . S
O60 Zn61 2.035 . S
Zn61 O60 2.035 . S
Zn61 O62 2.028 . S
Zn61 O64 2.028 . S
Zn61 O67 2.035 . S
O62 Zn61 2.028 . S
O62 C68 1.247 . S
O63 Zn59 2.035 . S
O63 C68 1.258 . S
O64 C57 1.247 . S
O64 Zn61 2.028 . S
O65 C57 1.258 . S
O65 Zn59 2.035 . S
O66 Zn59 2.028 . S
O66 C69 1.247 . S
O67 Zn61 2.035 . S
O67 C69 1.258 . S
C68 O62 1.247 . S
C68 O63 1.258 . S
C69 O66 1.247 . S
C69 O67 1.258 . S
C70 O72 1.247 . S
C70 O74 1.258 . S
C71 O78 1.247 . S
C71 O79 1.258 . S
O72 C70 1.247 . S
O72 Zn73 2.028 . S
Zn73 O72 2.028 . S
Zn73 O77 2.035 . S
Zn73 O79 2.035 . S
Zn73 O80 2.028 . S
O74 C70 1.258 . S
O74 Zn75 2.035 . S
Zn75 O74 2.035 . S
Zn75 O76 2.028 . S
Zn75 O78 2.028 . S
Zn75 O81 2.035 . S
O76 Zn75 2.028 . S
O76 C82 1.247 . S
O77 Zn73 2.035 . S
O77 C82 1.258 . S
O78 C71 1.247 . S
O78 Zn75 2.028 . S
O79 C71 1.258 . S
O79 Zn73 2.035 . S
O80 Zn73 2.028 . S
O80 C83 1.247 . S
O81 Zn75 2.035 . S
O81 C83 1.258 . S
C82 O76 1.247 . S
C82 O77 1.258 . S
C83 O80 1.247 . S
C83 O81 1.258 . S
C84 O86 1.247 . S
C84 O88 1.258 . S
C85 O92 1.247 . S
C85 O93 1.258 . S
O86 C84 1.247 . S
O86 Zn87 2.028 . S
Zn87 O86 2.028 . S
Zn87 O91 2.035 . S
Zn87 O93 2.035 . S
Zn87 O94 2.028 . S
O88 C84 1.258 . S
O88 Zn89 2.035 . S
Zn89 O88 2.035 . S
Zn89 O90 2.028 . S
Zn89 O92 2.028 . S
Zn89 O95 2.035 . S
O90 Zn89 2.028 . S
O90 C96 1.247 . S
O91 Zn87 2.035 . S
O91 C96 1.258 . S
O92 C85 1.247 . S
O92 Zn89 2.028 . S
O93 C85 1.258 . S
O93 Zn87 2.035 . S
O94 Zn87 2.028 . S
O94 C97 1.247 . S
O95 Zn89 2.035 . S
O95 C97 1.258 . S
C96 O90 1.247 . S
C96 O91 1.258 . S
C97 O94 1.247 . S
C97 O95 1.258 . S
C98 O100 1.247 . S
C98 O102 1.258 . S
C99 O106 1.247 . S
C99 O107 1.258 . S
O100 C98 1.247 . S
O100 Zn101 2.028 . S
Zn101 O100 2.028 . S
Zn101 O105 2.035 . S
Zn101 O107 2.035 . S
Zn101 O108 2.028 . S
O102 C98 1.258 . S
O102 Zn103 2.035 . S
Zn103 O102 2.035 . S
Zn103 O104 2.028 . S
Zn103 O106 2.028 . S
Zn103 O109 2.035 . S
O104 Zn103 2.028 . S
O104 C110 1.247 . S
O105 Zn101 2.035 . S
O105 C110 1.258 . S
O106 C99 1.247 . S
O106 Zn103 2.028 . S
O107 C99 1.258 . S
O107 Zn101 2.035 . S
O108 Zn101 2.028 . S
O108 C111 1.247 . S
O109 Zn103 2.035 . S
O109 C111 1.258 . S
C110 O104 1.247 . S
C110 O105 1.258 . S
C111 O108 1.247 . S
C111 O109 1.258 . S
C112 O114 1.247 . S
C112 O116 1.258 . S
C113 O120 1.247 . S
C113 O121 1.258 . S
O114 C112 1.247 . S
O114 Zn115 2.028 . S
Zn115 O114 2.028 . S
Zn115 O119 2.035 . S
Zn115 O121 2.035 . S
Zn115 O122 2.028 . S
O116 C112 1.258 . S
O116 Zn117 2.035 . S
Zn117 O116 2.035 . S
Zn117 O118 2.028 . S
Zn117 O120 2.028 . S
Zn117 O123 2.035 . S
O118 Zn117 2.028 . S
O118 C124 1.247 . S
O119 Zn115 2.035 . S
O119 C124 1.258 . S
O120 C113 1.247 . S
O120 Zn117 2.028 . S
O121 C113 1.258 . S
O121 Zn115 2.035 . S
O122 Zn115 2.028 . S
O122 C125 1.247 . S
O123 Zn117 2.035 . S
O123 C125 1.258 . S
C124 O118 1.247 . S
C124 O119 1.258 . S
C125 O122 1.247 . S
C125 O123 1.258 . S
C126 O128 1.247 . S
C126 O130 1.258 . S
C127 O134 1.247 . S
C127 O135 1.258 . S
O128 C126 1.247 . S
O128 Zn129 2.028 . S
Zn129 O128 2.028 . S
Zn129 O133 2.035 . S
Zn129 O135 2.035 . S
Zn129 O136 2.028 . S
O130 C126 1.258 . S
O130 Zn131 2.035 . S
Zn131 O130 2.035 . S
Zn131 O132 2.028 . S
Zn131 O134 2.028 . S
Zn131 O137 2.035 . S
O132 Zn131 2.028 . S
O132 C138 1.247 . S
O133 Zn129 2.035 . S
O133 C138 1.258 . S
O134 C127 1.247 . S
O134 Zn131 2.028 . S
O135 C127 1.258 . S
O135 Zn129 2.035 . S
O136 Zn129 2.028 . S
O136 C139 1.247 . S
O137 Zn131 2.035 . S
O137 C139 1.258 . S
C138 O132 1.247 . S
C138 O133 1.258 . S
C139 O136 1.247 . S
C139 O137 1.258 . S
C140 O142 1.247 . S
C140 O144 1.258 . S
C141 O148 1.247 . S
C141 O149 1.258 . S
O142 C140 1.247 . S
O142 Zn143 2.028 . S
Zn143 O142 2.028 . S
Zn143 O147 2.035 . S
Zn143 O149 2.035 . S
Zn143 O150 2.028 . S
O144 C140 1.258 . S
O144 Zn145 2.035 . S
Zn145 O144 2.035 . S
Zn145 O146 2.028 . S
Zn145 O148 2.028 . S
Zn145 O151 2.035 . S
O146 Zn145 2.028 . S
O146 C152 1.247 . S
O147 Zn143 2.035 . S
O147 C152 1.258 . S
O148 C141 1.247 . S
O148 Zn145 2.028 . S
O149 C141 1.258 . S
O149 Zn143 2.035 . S
O150 Zn143 2.028 . S
O150 C153 1.247 . S
O151 Zn145 2.035 . S
O151 C153 1.258 . S
C152 O146 1.247 . S
C152 O147 1.258 . S
C153 O150 1.247 . S
C153 O151 1.258 . S
C154 O156 1.247 . S
C154 O158 1.258 . S
C155 O162 1.247 . S
C155 O163 1.258 . S
O156 C154 1.247 . S
O156 Zn157 2.028 . S
Zn157 O156 2.028 . S
Zn157 O161 2.035 . S
Zn157 O163 2.035 . S
Zn157 O164 2.028 . S
O158 C154 1.258 . S
O158 Zn159 2.035 . S
Zn159 O158 2.035 . S
Zn159 O160 2.028 . S
Zn159 O162 2.028 . S
Zn159 O165 2.035 . S
O160 Zn159 2.028 . S
O160 C166 1.247 . S
O161 Zn157 2.035 . S
O161 C166 1.258 . S
O162 C155 1.247 . S
O162 Zn159 2.028 . S
O163 C155 1.258 . S
O163 Zn157 2.035 . S
O164 Zn157 2.028 . S
O164 C167 1.247 . S
O165 Zn159 2.035 . S
O165 C167 1.258 . S
C166 O160 1.247 . S
C166 O161 1.258 . S
C167 O164 1.247 . S
C167 O165 1.258 . S
C168 C169 1.369 . S
C168 C170 1.419 . S
C168 H172 0.930 . S
C169 C168 1.369 . S
C169 C178 1.429 . S
C170 C168 1.419 . S
C170 C171 1.363 . S
C170 H173 0.929 . S
C171 C170 1.363 . S
C171 C177 1.428 . S
H172 C168 0.930 . S
H173 C170 0.929 . S
S174 N175 1.613 . S
S174 N176 1.610 . S
N175 S174 1.613 . S
N175 C178 1.350 . S
N176 S174 1.610 . S
N176 C177 1.351 . S
C177 C171 1.428 . S
C177 N176 1.351 . S
C177 C178 1.434 . S
C178 C169 1.429 . S
C178 N175 1.350 . S
C178 C177 1.434 . S
C179 C180 1.369 . S
C179 C181 1.419 . S
C179 H183 0.930 . S
C180 C179 1.369 . S
C180 C189 1.429 . S
C181 C179 1.419 . S
C181 C182 1.363 . S
C181 H184 0.929 . S
C182 C181 1.363 . S
C182 C188 1.428 . S
H183 C179 0.930 . S
H184 C181 0.929 . S
S185 N186 1.613 1_565 S
S185 N187 1.610 1_565 S
N186 S185 1.613 1_545 S
N186 C189 1.350 . S
N187 S185 1.610 1_545 S
N187 C188 1.351 . S
C188 C182 1.428 . S
C188 N187 1.351 . S
C188 C189 1.434 . S
C189 C180 1.429 . S
C189 N186 1.350 . S
C189 C188 1.434 . S
C190 C191 1.369 . S
C190 C192 1.419 . S
C190 H194 0.930 . S
C191 C190 1.369 . S
C191 C200 1.429 . S
C192 C190 1.419 . S
C192 C193 1.363 . S
C192 H195 0.929 . S
C193 C192 1.363 . S
C193 C199 1.428 . S
H194 C190 0.930 . S
H195 C192 0.929 . S
S196 N197 1.613 . S
S196 N198 1.610 . S
N197 S196 1.613 . S
N197 C200 1.350 . S
N198 S196 1.610 . S
N198 C199 1.351 . S
C199 C193 1.428 . S
C199 N198 1.351 . S
C199 C200 1.434 . S
C200 C191 1.429 . S
C200 N197 1.350 . S
C200 C199 1.434 . S
C201 C202 1.369 . S
C201 C203 1.419 . S
C201 H205 0.930 . S
C202 C201 1.369 . S
C202 C211 1.429 . S
C203 C201 1.419 . S
C203 C204 1.363 . S
C203 H206 0.929 . S
C204 C203 1.363 . S
C204 C210 1.428 . S
H205 C201 0.930 . S
H206 C203 0.929 . S
S207 N208 1.613 . S
S207 N209 1.610 . S
N208 S207 1.613 . S
N208 C211 1.350 . S
N209 S207 1.610 . S
N209 C210 1.351 . S
C210 C204 1.428 . S
C210 N209 1.351 . S
C210 C211 1.434 . S
C211 C202 1.429 . S
C211 N208 1.350 . S
C211 C210 1.434 . S
C212 C213 1.369 . S
C212 C214 1.419 . S
C212 H216 0.930 . S
C213 C212 1.369 . S
C213 C222 1.429 . S
C214 C212 1.419 . S
C214 C215 1.363 . S
C214 H217 0.929 . S
C215 C214 1.363 . S
C215 C221 1.428 . S
H216 C212 0.930 . S
H217 C214 0.929 . S
S218 N219 1.613 1_545 S
S218 N220 1.610 1_545 S
N219 S218 1.613 1_565 S
N219 C222 1.350 . S
N220 S218 1.610 1_565 S
N220 C221 1.351 . S
C221 C215 1.428 . S
C221 N220 1.351 . S
C221 C222 1.434 . S
C222 C213 1.429 . S
C222 N219 1.350 . S
C222 C221 1.434 . S
C223 C224 1.369 . S
C223 C225 1.419 . S
C223 H227 0.930 . S
C224 C223 1.369 . S
C224 C233 1.429 . S
C225 C223 1.419 . S
C225 C226 1.363 . S
C225 H228 0.929 . S
C226 C225 1.363 . S
C226 C232 1.428 . S
H227 C223 0.930 . S
H228 C225 0.929 . S
S229 N230 1.613 . S
S229 N231 1.610 . S
N230 S229 1.613 . S
N230 C233 1.350 . S
N231 S229 1.610 . S
N231 C232 1.351 . S
C232 C226 1.428 . S
C232 N231 1.351 . S
C232 C233 1.434 . S
C233 C224 1.429 . S
C233 N230 1.350 . S
C233 C232 1.434 . S
C234 C235 1.369 . S
C234 C236 1.419 . S
C234 H238 0.930 . S
C235 C234 1.369 . S
C235 C244 1.429 . S
C236 C234 1.419 . S
C236 C237 1.363 . S
C236 H239 0.929 . S
C237 C236 1.363 . S
C237 C243 1.428 . S
H238 C234 0.930 . S
H239 C236 0.929 . S
S240 N241 1.613 . S
S240 N242 1.610 . S
N241 S240 1.613 . S
N241 C244 1.350 . S
N242 S240 1.610 . S
N242 C243 1.351 . S
C243 C237 1.428 . S
C243 N242 1.351 . S
C243 C244 1.434 . S
C244 C235 1.429 . S
C244 N241 1.350 . S
C244 C243 1.434 . S
C245 C246 1.369 . S
C245 C247 1.419 1_655 S
C245 H249 0.930 . S
C246 C245 1.369 . S
C246 C255 1.429 . S
C247 C245 1.419 1_455 S
C247 C248 1.363 . S
C247 H250 0.929 . S
C248 C247 1.363 . S
C248 C254 1.428 . S
H249 C245 0.930 . S
H250 C247 0.929 . S
S251 N252 1.613 . S
S251 N253 1.610 1_655 S
N252 S251 1.613 . S
N252 C255 1.350 . S
N253 S251 1.610 1_455 S
N253 C254 1.351 . S
C254 C248 1.428 . S
C254 N253 1.351 . S
C254 C255 1.434 1_455 S
C255 C246 1.429 . S
C255 N252 1.350 . S
C255 C254 1.434 1_655 S
C256 C257 1.369 . S
C256 C258 1.419 1_545 S
C256 H260 0.930 . S
C257 C256 1.369 . S
C257 C266 1.429 . S
C258 C256 1.419 1_565 S
C258 C259 1.363 . S
C258 H261 0.929 . S
C259 C258 1.363 . S
C259 C265 1.428 . S
H260 C256 0.930 . S
H261 C258 0.929 . S
S262 N263 1.613 . S
S262 N264 1.610 1_545 S
N263 S262 1.613 . S
N263 C266 1.350 . S
N264 S262 1.610 1_565 S
N264 C265 1.351 . S
C265 C259 1.428 . S
C265 N264 1.351 . S
C265 C266 1.434 1_565 S
C266 C257 1.429 . S
C266 N263 1.350 . S
C266 C265 1.434 1_545 S
C267 C268 1.369 . S
C267 C269 1.419 . S
C267 H271 0.930 . S
C268 C267 1.369 . S
C268 C277 1.429 . S
C269 C267 1.419 . S
C269 C270 1.363 . S
C269 H272 0.929 . S
C270 C269 1.363 . S
C270 C276 1.428 . S
H271 C267 0.930 . S
H272 C269 0.929 . S
S273 N274 1.613 . S
S273 N275 1.610 . S
N274 S273 1.613 . S
N274 C277 1.350 . S
N275 S273 1.610 . S
N275 C276 1.351 . S
C276 C270 1.428 . S
C276 N275 1.351 . S
C276 C277 1.434 . S
C277 C268 1.429 . S
C277 N274 1.350 . S
C277 C276 1.434 . S
C278 C279 1.369 . S
C278 C280 1.419 1_655 S
C278 H282 0.930 . S
C279 C278 1.369 . S
C279 C288 1.429 . S
C280 C278 1.419 1_455 S
C280 C281 1.363 . S
C280 H283 0.929 . S
C281 C280 1.363 . S
C281 C287 1.428 . S
H282 C278 0.930 . S
H283 C280 0.929 . S
S284 N285 1.613 1_455 S
S284 N286 1.610 . S
N285 S284 1.613 1_655 S
N285 C288 1.350 . S
N286 S284 1.610 . S
N286 C287 1.351 . S
C287 C281 1.428 . S
C287 N286 1.351 . S
C287 C288 1.434 1_455 S
C288 C279 1.429 . S
C288 N285 1.350 . S
C288 C287 1.434 1_655 S
C289 C290 1.369 1_545 S
C289 C291 1.419 . S
C289 H293 0.930 . S
C290 C289 1.369 1_565 S
C290 C299 1.429 1_554 S
C291 C289 1.419 . S
C291 C292 1.363 1_554 S
C291 H294 0.929 . S
C292 C291 1.363 1_556 S
C292 C298 1.428 1_545 S
H293 C289 0.930 . S
H294 C291 0.929 . S
S295 N296 1.613 . S
S295 N297 1.610 . S
N296 S295 1.613 . S
N296 C299 1.350 . S
N297 S295 1.610 . S
N297 C298 1.351 . S
C298 C292 1.428 1_565 S
C298 N297 1.351 . S
C298 C299 1.434 . S
C299 C290 1.429 1_556 S
C299 N296 1.350 . S
C299 C298 1.434 . S
C300 C301 1.369 . S
C300 C302 1.419 . S
C300 H304 0.930 . S
C301 C300 1.369 . S
C301 C310 1.429 . S
C302 C300 1.419 . S
C302 C303 1.363 . S
C302 H305 0.929 . S
C303 C302 1.363 . S
C303 C309 1.428 . S
H304 C300 0.930 . S
H305 C302 0.929 . S
S306 N307 1.613 . S
S306 N308 1.610 . S
N307 S306 1.613 . S
N307 C310 1.350 . S
N308 S306 1.610 . S
N308 C309 1.351 . S
C309 C303 1.428 . S
C309 N308 1.351 . S
C309 C310 1.434 . S
C310 C301 1.429 . S
C310 N307 1.350 . S
C310 C309 1.434 . S
C311 C312 1.369 . S
C311 C313 1.419 1_655 S
C311 H315 0.930 . S
C312 C311 1.369 . S
C312 C321 1.429 . S
C313 C311 1.419 1_455 S
C313 C314 1.363 . S
C313 H316 0.929 . S
C314 C313 1.363 . S
C314 C320 1.428 1_455 S
H315 C311 0.930 . S
H316 C313 0.929 . S
S317 N318 1.613 . S
S317 N319 1.610 . S
N318 S317 1.613 . S
N318 C321 1.350 . S
N319 S317 1.610 . S
N319 C320 1.351 . S
C320 C314 1.428 1_655 S
C320 N319 1.351 . S
C320 C321 1.434 . S
C321 C312 1.429 . S
C321 N318 1.350 . S
C321 C320 1.434 . S
C322 C323 1.369 1_565 S
C322 C324 1.419 . S
C322 H326 0.930 . S
C323 C322 1.369 1_545 S
C323 C332 1.429 . S
C324 C322 1.419 . S
C324 C325 1.363 . S
C324 H327 0.929 . S
C325 C324 1.363 . S
C325 C331 1.428 . S
H326 C322 0.930 . S
H327 C324 0.929 . S
S328 N329 1.613 . S
S328 N330 1.610 1_545 S
N329 S328 1.613 . S
N329 C332 1.350 . S
N330 S328 1.610 1_565 S
N330 C331 1.351 . S
C331 C325 1.428 . S
C331 N330 1.351 . S
C331 C332 1.434 1_565 S
C332 C323 1.429 . S
C332 N329 1.350 . S
C332 C331 1.434 1_545 S
C333 C334 1.369 . S
C333 C335 1.419 . S
C333 H337 0.930 . S
C334 C333 1.369 . S
C334 C343 1.429 . S
C335 C333 1.419 . S
C335 C336 1.363 . S
C335 H338 0.929 . S
C336 C335 1.363 . S
C336 C342 1.428 . S
H337 C333 0.930 . S
H338 C335 0.929 . S
S339 N340 1.613 . S
S339 N341 1.610 . S
N340 S339 1.613 . S
N340 C343 1.350 . S
N341 S339 1.610 . S
N341 C342 1.351 . S
C342 C336 1.428 . S
C342 N341 1.351 . S
C342 C343 1.434 . S
C343 C334 1.429 . S
C343 N340 1.350 . S
C343 C342 1.434 . S
C344 C345 1.369 . S
C344 C346 1.419 . S
C344 H348 0.930 . S
C345 C344 1.369 . S
C345 C354 1.429 . S
C346 C344 1.419 . S
C346 C347 1.363 1_455 S
C346 H349 0.929 . S
C347 C346 1.363 1_655 S
C347 C353 1.428 . S
H348 C344 0.930 . S
H349 C346 0.929 . S
S350 N351 1.613 1_655 S
S350 N352 1.610 . S
N351 S350 1.613 1_455 S
N351 C354 1.350 . S
N352 S350 1.610 . S
N352 C353 1.351 . S
C353 C347 1.428 . S
C353 N352 1.351 . S
C353 C354 1.434 1_655 S
C354 C345 1.429 . S
C354 N351 1.350 . S
C354 C353 1.434 1_455 S
C355 C356 1.369 . S
C355 C357 1.419 . S
C355 H359 0.930 . S
C356 C355 1.369 . S
C356 C365 1.429 . S
C357 C355 1.419 . S
C357 C358 1.363 1_545 S
C357 H360 0.929 . S
C358 C357 1.363 1_565 S
C358 C364 1.428 . S
H359 C355 0.930 . S
H360 C357 0.929 . S
S361 N362 1.613 1_565 S
S361 N363 1.610 . S
N362 S361 1.613 1_545 S
N362 C365 1.350 . S
N363 S361 1.610 . S
N363 C364 1.351 . S
C364 C358 1.428 . S
C364 N363 1.351 . S
C364 C365 1.434 1_565 S
C365 C356 1.429 . S
C365 N362 1.350 . S
C365 C364 1.434 1_545 S
C366 C367 1.369 . S
C366 C368 1.419 . S
C366 H370 0.930 . S
C367 C366 1.369 . S
C367 C376 1.429 . S
C368 C366 1.419 . S
C368 C369 1.363 . S
C368 H371 0.929 . S
C369 C368 1.363 . S
C369 C375 1.428 . S
H370 C366 0.930 . S
H371 C368 0.929 . S
S372 N373 1.613 . S
S372 N374 1.610 . S
N373 S372 1.613 . S
N373 C376 1.350 . S
N374 S372 1.610 . S
N374 C375 1.351 . S
C375 C369 1.428 . S
C375 N374 1.351 . S
C375 C376 1.434 . S
C376 C367 1.429 . S
C376 N373 1.350 . S
C376 C375 1.434 . S
C377 C378 1.369 . S
C377 C379 1.419 1_655 S
C377 H381 0.930 . S
C378 C377 1.369 . S
C378 C387 1.429 . S
C379 C377 1.419 1_455 S
C379 C380 1.363 . S
C379 H382 0.929 . S
C380 C379 1.363 . S
C380 C386 1.428 1_455 S
H381 C377 0.930 . S
H382 C379 0.929 . S
S383 N384 1.613 1_554 S
S383 N385 1.610 . S
N384 S383 1.613 1_556 S
N384 C387 1.350 . S
N385 S383 1.610 . S
N385 C386 1.351 1_554 S
C386 C380 1.428 1_655 S
C386 N385 1.351 1_556 S
C386 C387 1.434 . S
C387 C378 1.429 . S
C387 N384 1.350 . S
C387 C386 1.434 . S
C388 C389 1.369 . S
C388 C390 1.419 . S
C388 H392 0.930 . S
C389 C388 1.369 . S
C389 C398 1.429 . S
C390 C388 1.419 . S
C390 C391 1.363 1_565 S
C390 H393 0.929 . S
C391 C390 1.363 1_545 S
C391 C397 1.428 . S
H392 C388 0.930 . S
H393 C390 0.929 . S
S394 N395 1.613 . S
S394 N396 1.610 1_565 S
N395 S394 1.613 . S
N395 C398 1.350 . S
N396 S394 1.610 1_545 S
N396 C397 1.351 . S
C397 C391 1.428 . S
C397 N396 1.351 . S
C397 C398 1.434 1_545 S
C398 C389 1.429 . S
C398 N395 1.350 . S
C398 C397 1.434 1_565 S
C399 C400 1.369 . S
C399 C401 1.419 . S
C399 H403 0.930 . S
C400 C399 1.369 . S
C400 C409 1.429 . S
C401 C399 1.419 . S
C401 C402 1.363 . S
C401 H404 0.929 . S
C402 C401 1.363 . S
C402 C408 1.428 . S
H403 C399 0.930 . S
H404 C401 0.929 . S
S405 N406 1.613 . S
S405 N407 1.610 . S
N406 S405 1.613 . S
N406 C409 1.350 . S
N407 S405 1.610 . S
N407 C408 1.351 . S
C408 C402 1.428 . S
C408 N407 1.351 . S
C408 C409 1.434 . S
C409 C400 1.429 . S
C409 N406 1.350 . S
C409 C408 1.434 . S
C410 C411 1.369 . S
C410 C412 1.419 1_455 S
C410 H414 0.930 . S
C411 C410 1.369 . S
C411 C420 1.429 . S
C412 C410 1.419 1_655 S
C412 C413 1.363 . S
C412 H415 0.929 . S
C413 C412 1.363 . S
C413 C419 1.428 1_655 S
H414 C410 0.930 . S
H415 C412 0.929 . S
S416 N417 1.613 . S
S416 N418 1.610 . S
N417 S416 1.613 . S
N417 C420 1.350 . S
N418 S416 1.610 . S
N418 C419 1.351 . S
C419 C413 1.428 1_455 S
C419 N418 1.351 . S
C419 C420 1.434 . S
C420 C411 1.429 . S
C420 N417 1.350 . S
C420 C419 1.434 . S
C421 C422 1.369 1_545 S
C421 C423 1.419 . S
C421 H425 0.930 . S
C422 C421 1.369 1_565 S
C422 C431 1.429 . S
C423 C421 1.419 . S
C423 C424 1.363 . S
C423 H426 0.929 . S
C424 C423 1.363 . S
C424 C430 1.428 . S
H425 C421 0.930 . S
H426 C423 0.929 . S
S427 N428 1.613 . S
S427 N429 1.610 1_565 S
N428 S427 1.613 . S
N428 C431 1.350 . S
N429 S427 1.610 1_545 S
N429 C430 1.351 . S
C430 C424 1.428 . S
C430 N429 1.351 . S
C430 C431 1.434 1_545 S
C431 C422 1.429 . S
C431 N428 1.350 . S
C431 C430 1.434 1_565 S
C169 C113 1.620 . S
C171 C12 1.619 . S
C180 C15 1.621 . S
C182 C139 1.619 . S
C191 C29 1.614 . S
C193 C140 1.620 . S
C202 C54 1.617 . S
C204 C154 1.621 . S
C213 C85 1.620 . S
C215 C57 1.620 . S
C224 C83 1.621 . S
C226 C110 1.622 . S
C235 C138 1.440 . S
C237 C13 1.441 . S
C246 C14 1.439 . S
C248 C141 1.437 . S
C257 C155 1.437 . S
C259 C28 1.439 . S
C268 C55 1.440 . S
C270 C84 1.438 . S
C279 C111 1.440 . S
C281 C56 1.437 . S
C290 C112 1.436 . S
C292 C82 1.443 . S
C301 C0 1.894 . S
C303 C70 1.856 1_554 S
C312 C27 1.893 . S
C314 C1 1.853 . S
C323 C26 1.856 . S
C325 C41 1.893 . S
C334 C42 1.894 . S
C336 C40 1.856 . S
C345 C69 1.894 . S
C347 C43 1.857 . S
C356 C71 1.896 . S
C358 C68 1.861 . S
C367 C97 1.897 . S
C369 C99 1.858 . S
C378 C98 1.895 . S
C380 C124 1.856 1_556 S
C389 C125 1.897 . S
C391 C126 1.861 . S
C400 C127 1.897 . S
C402 C153 1.857 . S
C411 C152 1.898 . S
C413 C167 1.858 . S
C422 C96 1.856 . S
C424 C166 1.894 . S
