# Generated by pormake.
# Topology lcs-e, (6)-cn, num edge types: 1
# Building blocks:
#     Node 0, Type 0, BuildingBlock: CIFDUS_clean_sbu_1, # of connection points: 6
#     Node 1, Type 0, BuildingBlock: CIFDUS_clean_sbu_1, # of connection points: 6
#     Node 2, Type 0, BuildingBlock: CIFDUS_clean_sbu_1, # of connection points: 6
#     Node 3, Type 0, BuildingBlock: CIFDUS_clean_sbu_1, # of connection points: 6
#     Node 4, Type 0, BuildingBlock: CIFDUS_clean_sbu_1, # of connection points: 6
#     Node 5, Type 0, BuildingBlock: CIFDUS_clean_sbu_1, # of connection points: 6
#     Node 6, Type 0, BuildingBlock: CIFDUS_clean_sbu_1, # of connection points: 6
#     Node 7, Type 0, BuildingBlock: CIFDUS_clean_sbu_1, # of connection points: 6
#     Node 8, Type 0, BuildingBlock: CIFDUS_clean_sbu_1, # of connection points: 6
#     Node 9, Type 0, BuildingBlock: CIFDUS_clean_sbu_1, # of connection points: 6
#     Node 10, Type 0, BuildingBlock: CIFDUS_clean_sbu_1, # of connection points: 6
#     Node 11, Type 0, BuildingBlock: CIFDUS_clean_sbu_1, # of connection points: 6
#     Node 12, Type 0, BuildingBlock: CIFDUS_clean_sbu_1, # of connection points: 6
#     Node 13, Type 0, BuildingBlock: CIFDUS_clean_sbu_1, # of connection points: 6
#     Node 14, Type 0, BuildingBlock: CIFDUS_clean_sbu_1, # of connection points: 6
#     Node 15, Type 0, BuildingBlock: CIFDUS_clean_sbu_1, # of connection points: 6
#     Node 16, Type 0, BuildingBlock: CIFDUS_clean_sbu_1, # of connection points: 6
#     Node 17, Type 0, BuildingBlock: CIFDUS_clean_sbu_1, # of connection points: 6
#     Node 18, Type 0, BuildingBlock: CIFDUS_clean_sbu_1, # of connection points: 6
#     Node 19, Type 0, BuildingBlock: CIFDUS_clean_sbu_1, # of connection points: 6
#     Node 20, Type 0, BuildingBlock: CIFDUS_clean_sbu_1, # of connection points: 6
#     Node 21, Type 0, BuildingBlock: CIFDUS_clean_sbu_1, # of connection points: 6
#     Node 22, Type 0, BuildingBlock: CIFDUS_clean_sbu_1, # of connection points: 6
#     Node 23, Type 0, BuildingBlock: CIFDUS_clean_sbu_1, # of connection points: 6
#     Node 24, Type 0, BuildingBlock: CIFDUS_clean_sbu_1, # of connection points: 6
#     Node 25, Type 0, BuildingBlock: CIFDUS_clean_sbu_1, # of connection points: 6
#     Node 26, Type 0, BuildingBlock: CIFDUS_clean_sbu_1, # of connection points: 6
#     Node 27, Type 0, BuildingBlock: CIFDUS_clean_sbu_1, # of connection points: 6
#     Node 28, Type 0, BuildingBlock: CIFDUS_clean_sbu_1, # of connection points: 6
#     Node 29, Type 0, BuildingBlock: CIFDUS_clean_sbu_1, # of connection points: 6
#     Node 30, Type 0, BuildingBlock: CIFDUS_clean_sbu_1, # of connection points: 6
#     Node 31, Type 0, BuildingBlock: CIFDUS_clean_sbu_1, # of connection points: 6
#     Node 32, Type 0, BuildingBlock: CIFDUS_clean_sbu_1, # of connection points: 6
#     Node 33, Type 0, BuildingBlock: CIFDUS_clean_sbu_1, # of connection points: 6
#     Node 34, Type 0, BuildingBlock: CIFDUS_clean_sbu_1, # of connection points: 6
#     Node 35, Type 0, BuildingBlock: CIFDUS_clean_sbu_1, # of connection points: 6
#     Node 36, Type 0, BuildingBlock: CIFDUS_clean_sbu_1, # of connection points: 6
#     Node 37, Type 0, BuildingBlock: CIFDUS_clean_sbu_1, # of connection points: 6
#     Node 38, Type 0, BuildingBlock: CIFDUS_clean_sbu_1, # of connection points: 6
#     Node 39, Type 0, BuildingBlock: CIFDUS_clean_sbu_1, # of connection points: 6
#     Node 40, Type 0, BuildingBlock: CIFDUS_clean_sbu_1, # of connection points: 6
#     Node 41, Type 0, BuildingBlock: CIFDUS_clean_sbu_1, # of connection points: 6
#     Node 42, Type 0, BuildingBlock: CIFDUS_clean_sbu_1, # of connection points: 6
#     Node 43, Type 0, BuildingBlock: CIFDUS_clean_sbu_1, # of connection points: 6
#     Node 44, Type 0, BuildingBlock: CIFDUS_clean_sbu_1, # of connection points: 6
#     Node 45, Type 0, BuildingBlock: CIFDUS_clean_sbu_1, # of connection points: 6
#     Node 46, Type 0, BuildingBlock: CIFDUS_clean_sbu_1, # of connection points: 6
#     Node 47, Type 0, BuildingBlock: CIFDUS_clean_sbu_1, # of connection points: 6
#     Edge 48, Type (0, 0), BuildingBlock: OJICUG_clean_linker_0, # of connection points: 2
#     Edge 49, Type (0, 0), BuildingBlock: OJICUG_clean_linker_0, # of connection points: 2
#     Edge 50, Type (0, 0), BuildingBlock: OJICUG_clean_linker_0, # of connection points: 2
#     Edge 51, Type (0, 0), BuildingBlock: OJICUG_clean_linker_0, # of connection points: 2
#     Edge 52, Type (0, 0), BuildingBlock: OJICUG_clean_linker_0, # of connection points: 2
#     Edge 53, Type (0, 0), BuildingBlock: OJICUG_clean_linker_0, # of connection points: 2
#     Edge 54, Type (0, 0), BuildingBlock: OJICUG_clean_linker_0, # of connection points: 2
#     Edge 55, Type (0, 0), BuildingBlock: OJICUG_clean_linker_0, # of connection points: 2
#     Edge 56, Type (0, 0), BuildingBlock: OJICUG_clean_linker_0, # of connection points: 2
#     Edge 57, Type (0, 0), BuildingBlock: OJICUG_clean_linker_0, # of connection points: 2
#     Edge 58, Type (0, 0), BuildingBlock: OJICUG_clean_linker_0, # of connection points: 2
#     Edge 59, Type (0, 0), BuildingBlock: OJICUG_clean_linker_0, # of connection points: 2
#     Edge 60, Type (0, 0), BuildingBlock: OJICUG_clean_linker_0, # of connection points: 2
#     Edge 61, Type (0, 0), BuildingBlock: OJICUG_clean_linker_0, # of connection points: 2
#     Edge 62, Type (0, 0), BuildingBlock: OJICUG_clean_linker_0, # of connection points: 2
#     Edge 63, Type (0, 0), BuildingBlock: OJICUG_clean_linker_0, # of connection points: 2
#     Edge 64, Type (0, 0), BuildingBlock: OJICUG_clean_linker_0, # of connection points: 2
#     Edge 65, Type (0, 0), BuildingBlock: OJICUG_clean_linker_0, # of connection points: 2
#     Edge 66, Type (0, 0), BuildingBlock: OJICUG_clean_linker_0, # of connection points: 2
#     Edge 67, Type (0, 0), BuildingBlock: OJICUG_clean_linker_0, # of connection points: 2
#     Edge 68, Type (0, 0), BuildingBlock: OJICUG_clean_linker_0, # of connection points: 2
#     Edge 69, Type (0, 0), BuildingBlock: OJICUG_clean_linker_0, # of connection points: 2
#     Edge 70, Type (0, 0), BuildingBlock: OJICUG_clean_linker_0, # of connection points: 2
#     Edge 71, Type (0, 0), BuildingBlock: OJICUG_clean_linker_0, # of connection points: 2
#     Edge 72, Type (0, 0), BuildingBlock: OJICUG_clean_linker_0, # of connection points: 2
#     Edge 73, Type (0, 0), BuildingBlock: OJICUG_clean_linker_0, # of connection points: 2
#     Edge 74, Type (0, 0), BuildingBlock: OJICUG_clean_linker_0, # of connection points: 2
#     Edge 75, Type (0, 0), BuildingBlock: OJICUG_clean_linker_0, # of connection points: 2
#     Edge 76, Type (0, 0), BuildingBlock: OJICUG_clean_linker_0, # of connection points: 2
#     Edge 77, Type (0, 0), BuildingBlock: OJICUG_clean_linker_0, # of connection points: 2
#     Edge 78, Type (0, 0), BuildingBlock: OJICUG_clean_linker_0, # of connection points: 2
#     Edge 79, Type (0, 0), BuildingBlock: OJICUG_clean_linker_0, # of connection points: 2
#     Edge 80, Type (0, 0), BuildingBlock: OJICUG_clean_linker_0, # of connection points: 2
#     Edge 81, Type (0, 0), BuildingBlock: OJICUG_clean_linker_0, # of connection points: 2
#     Edge 82, Type (0, 0), BuildingBlock: OJICUG_clean_linker_0, # of connection points: 2
#     Edge 83, Type (0, 0), BuildingBlock: OJICUG_clean_linker_0, # of connection points: 2
#     Edge 84, Type (0, 0), BuildingBlock: OJICUG_clean_linker_0, # of connection points: 2
#     Edge 85, Type (0, 0), BuildingBlock: OJICUG_clean_linker_0, # of connection points: 2
#     Edge 86, Type (0, 0), BuildingBlock: OJICUG_clean_linker_0, # of connection points: 2
#     Edge 87, Type (0, 0), BuildingBlock: OJICUG_clean_linker_0, # of connection points: 2
#     Edge 88, Type (0, 0), BuildingBlock: OJICUG_clean_linker_0, # of connection points: 2
#     Edge 89, Type (0, 0), BuildingBlock: OJICUG_clean_linker_0, # of connection points: 2
#     Edge 90, Type (0, 0), BuildingBlock: OJICUG_clean_linker_0, # of connection points: 2
#     Edge 91, Type (0, 0), BuildingBlock: OJICUG_clean_linker_0, # of connection points: 2
#     Edge 92, Type (0, 0), BuildingBlock: OJICUG_clean_linker_0, # of connection points: 2
#     Edge 93, Type (0, 0), BuildingBlock: OJICUG_clean_linker_0, # of connection points: 2
#     Edge 94, Type (0, 0), BuildingBlock: OJICUG_clean_linker_0, # of connection points: 2
#     Edge 95, Type (0, 0), BuildingBlock: OJICUG_clean_linker_0, # of connection points: 2
#     Edge 96, Type (0, 0), BuildingBlock: OJICUG_clean_linker_0, # of connection points: 2
#     Edge 97, Type (0, 0), BuildingBlock: OJICUG_clean_linker_0, # of connection points: 2
#     Edge 98, Type (0, 0), BuildingBlock: OJICUG_clean_linker_0, # of connection points: 2
#     Edge 99, Type (0, 0), BuildingBlock: OJICUG_clean_linker_0, # of connection points: 2
#     Edge 100, Type (0, 0), BuildingBlock: OJICUG_clean_linker_0, # of connection points: 2
#     Edge 101, Type (0, 0), BuildingBlock: OJICUG_clean_linker_0, # of connection points: 2
#     Edge 102, Type (0, 0), BuildingBlock: OJICUG_clean_linker_0, # of connection points: 2
#     Edge 103, Type (0, 0), BuildingBlock: OJICUG_clean_linker_0, # of connection points: 2
#     Edge 104, Type (0, 0), BuildingBlock: OJICUG_clean_linker_0, # of connection points: 2
#     Edge 105, Type (0, 0), BuildingBlock: OJICUG_clean_linker_0, # of connection points: 2
#     Edge 106, Type (0, 0), BuildingBlock: OJICUG_clean_linker_0, # of connection points: 2
#     Edge 107, Type (0, 0), BuildingBlock: OJICUG_clean_linker_0, # of connection points: 2
#     Edge 108, Type (0, 0), BuildingBlock: OJICUG_clean_linker_0, # of connection points: 2
#     Edge 109, Type (0, 0), BuildingBlock: OJICUG_clean_linker_0, # of connection points: 2
#     Edge 110, Type (0, 0), BuildingBlock: OJICUG_clean_linker_0, # of connection points: 2
#     Edge 111, Type (0, 0), BuildingBlock: OJICUG_clean_linker_0, # of connection points: 2
#     Edge 112, Type (0, 0), BuildingBlock: OJICUG_clean_linker_0, # of connection points: 2
#     Edge 113, Type (0, 0), BuildingBlock: OJICUG_clean_linker_0, # of connection points: 2
#     Edge 114, Type (0, 0), BuildingBlock: OJICUG_clean_linker_0, # of connection points: 2
#     Edge 115, Type (0, 0), BuildingBlock: OJICUG_clean_linker_0, # of connection points: 2
#     Edge 116, Type (0, 0), BuildingBlock: OJICUG_clean_linker_0, # of connection points: 2
#     Edge 117, Type (0, 0), BuildingBlock: OJICUG_clean_linker_0, # of connection points: 2
#     Edge 118, Type (0, 0), BuildingBlock: OJICUG_clean_linker_0, # of connection points: 2
#     Edge 119, Type (0, 0), BuildingBlock: OJICUG_clean_linker_0, # of connection points: 2
#     Edge 120, Type (0, 0), BuildingBlock: OJICUG_clean_linker_0, # of connection points: 2
#     Edge 121, Type (0, 0), BuildingBlock: OJICUG_clean_linker_0, # of connection points: 2
#     Edge 122, Type (0, 0), BuildingBlock: OJICUG_clean_linker_0, # of connection points: 2
#     Edge 123, Type (0, 0), BuildingBlock: OJICUG_clean_linker_0, # of connection points: 2
#     Edge 124, Type (0, 0), BuildingBlock: OJICUG_clean_linker_0, # of connection points: 2
#     Edge 125, Type (0, 0), BuildingBlock: OJICUG_clean_linker_0, # of connection points: 2
#     Edge 126, Type (0, 0), BuildingBlock: OJICUG_clean_linker_0, # of connection points: 2
#     Edge 127, Type (0, 0), BuildingBlock: OJICUG_clean_linker_0, # of connection points: 2
#     Edge 128, Type (0, 0), BuildingBlock: OJICUG_clean_linker_0, # of connection points: 2
#     Edge 129, Type (0, 0), BuildingBlock: OJICUG_clean_linker_0, # of connection points: 2
#     Edge 130, Type (0, 0), BuildingBlock: OJICUG_clean_linker_0, # of connection points: 2
#     Edge 131, Type (0, 0), BuildingBlock: OJICUG_clean_linker_0, # of connection points: 2
#     Edge 132, Type (0, 0), BuildingBlock: OJICUG_clean_linker_0, # of connection points: 2
#     Edge 133, Type (0, 0), BuildingBlock: OJICUG_clean_linker_0, # of connection points: 2
#     Edge 134, Type (0, 0), BuildingBlock: OJICUG_clean_linker_0, # of connection points: 2
#     Edge 135, Type (0, 0), BuildingBlock: OJICUG_clean_linker_0, # of connection points: 2
#     Edge 136, Type (0, 0), BuildingBlock: OJICUG_clean_linker_0, # of connection points: 2
#     Edge 137, Type (0, 0), BuildingBlock: OJICUG_clean_linker_0, # of connection points: 2
#     Edge 138, Type (0, 0), BuildingBlock: OJICUG_clean_linker_0, # of connection points: 2
#     Edge 139, Type (0, 0), BuildingBlock: OJICUG_clean_linker_0, # of connection points: 2
#     Edge 140, Type (0, 0), BuildingBlock: OJICUG_clean_linker_0, # of connection points: 2
#     Edge 141, Type (0, 0), BuildingBlock: OJICUG_clean_linker_0, # of connection points: 2
#     Edge 142, Type (0, 0), BuildingBlock: OJICUG_clean_linker_0, # of connection points: 2
#     Edge 143, Type (0, 0), BuildingBlock: OJICUG_clean_linker_0, # of connection points: 2
#     Edge 144, Type (0, 0), BuildingBlock: OJICUG_clean_linker_0, # of connection points: 2
#     Edge 145, Type (0, 0), BuildingBlock: OJICUG_clean_linker_0, # of connection points: 2
#     Edge 146, Type (0, 0), BuildingBlock: OJICUG_clean_linker_0, # of connection points: 2
#     Edge 147, Type (0, 0), BuildingBlock: OJICUG_clean_linker_0, # of connection points: 2
#     Edge 148, Type (0, 0), BuildingBlock: OJICUG_clean_linker_0, # of connection points: 2
#     Edge 149, Type (0, 0), BuildingBlock: OJICUG_clean_linker_0, # of connection points: 2
#     Edge 150, Type (0, 0), BuildingBlock: OJICUG_clean_linker_0, # of connection points: 2
#     Edge 151, Type (0, 0), BuildingBlock: OJICUG_clean_linker_0, # of connection points: 2
#     Edge 152, Type (0, 0), BuildingBlock: OJICUG_clean_linker_0, # of connection points: 2
#     Edge 153, Type (0, 0), BuildingBlock: OJICUG_clean_linker_0, # of connection points: 2
#     Edge 154, Type (0, 0), BuildingBlock: OJICUG_clean_linker_0, # of connection points: 2
#     Edge 155, Type (0, 0), BuildingBlock: OJICUG_clean_linker_0, # of connection points: 2
#     Edge 156, Type (0, 0), BuildingBlock: OJICUG_clean_linker_0, # of connection points: 2
#     Edge 157, Type (0, 0), BuildingBlock: OJICUG_clean_linker_0, # of connection points: 2
#     Edge 158, Type (0, 0), BuildingBlock: OJICUG_clean_linker_0, # of connection points: 2
#     Edge 159, Type (0, 0), BuildingBlock: OJICUG_clean_linker_0, # of connection points: 2
#     Edge 160, Type (0, 0), BuildingBlock: OJICUG_clean_linker_0, # of connection points: 2
#     Edge 161, Type (0, 0), BuildingBlock: OJICUG_clean_linker_0, # of connection points: 2
#     Edge 162, Type (0, 0), BuildingBlock: OJICUG_clean_linker_0, # of connection points: 2
#     Edge 163, Type (0, 0), BuildingBlock: OJICUG_clean_linker_0, # of connection points: 2
#     Edge 164, Type (0, 0), BuildingBlock: OJICUG_clean_linker_0, # of connection points: 2
#     Edge 165, Type (0, 0), BuildingBlock: OJICUG_clean_linker_0, # of connection points: 2
#     Edge 166, Type (0, 0), BuildingBlock: OJICUG_clean_linker_0, # of connection points: 2
#     Edge 167, Type (0, 0), BuildingBlock: OJICUG_clean_linker_0, # of connection points: 2
#     Edge 168, Type (0, 0), BuildingBlock: OJICUG_clean_linker_0, # of connection points: 2
#     Edge 169, Type (0, 0), BuildingBlock: OJICUG_clean_linker_0, # of connection points: 2
#     Edge 170, Type (0, 0), BuildingBlock: OJICUG_clean_linker_0, # of connection points: 2
#     Edge 171, Type (0, 0), BuildingBlock: OJICUG_clean_linker_0, # of connection points: 2
#     Edge 172, Type (0, 0), BuildingBlock: OJICUG_clean_linker_0, # of connection points: 2
#     Edge 173, Type (0, 0), BuildingBlock: OJICUG_clean_linker_0, # of connection points: 2
#     Edge 174, Type (0, 0), BuildingBlock: OJICUG_clean_linker_0, # of connection points: 2
#     Edge 175, Type (0, 0), BuildingBlock: OJICUG_clean_linker_0, # of connection points: 2
#     Edge 176, Type (0, 0), BuildingBlock: OJICUG_clean_linker_0, # of connection points: 2
#     Edge 177, Type (0, 0), BuildingBlock: OJICUG_clean_linker_0, # of connection points: 2
#     Edge 178, Type (0, 0), BuildingBlock: OJICUG_clean_linker_0, # of connection points: 2
#     Edge 179, Type (0, 0), BuildingBlock: OJICUG_clean_linker_0, # of connection points: 2
#     Edge 180, Type (0, 0), BuildingBlock: OJICUG_clean_linker_0, # of connection points: 2
#     Edge 181, Type (0, 0), BuildingBlock: OJICUG_clean_linker_0, # of connection points: 2
#     Edge 182, Type (0, 0), BuildingBlock: OJICUG_clean_linker_0, # of connection points: 2
#     Edge 183, Type (0, 0), BuildingBlock: OJICUG_clean_linker_0, # of connection points: 2
#     Edge 184, Type (0, 0), BuildingBlock: OJICUG_clean_linker_0, # of connection points: 2
#     Edge 185, Type (0, 0), BuildingBlock: OJICUG_clean_linker_0, # of connection points: 2
#     Edge 186, Type (0, 0), BuildingBlock: OJICUG_clean_linker_0, # of connection points: 2
#     Edge 187, Type (0, 0), BuildingBlock: OJICUG_clean_linker_0, # of connection points: 2
#     Edge 188, Type (0, 0), BuildingBlock: OJICUG_clean_linker_0, # of connection points: 2
#     Edge 189, Type (0, 0), BuildingBlock: OJICUG_clean_linker_0, # of connection points: 2
#     Edge 190, Type (0, 0), BuildingBlock: OJICUG_clean_linker_0, # of connection points: 2
#     Edge 191, Type (0, 0), BuildingBlock: OJICUG_clean_linker_0, # of connection points: 2
# Relax obj value: 0.371
# Max RMSD: 0.254
# Mean RMSD: 0.254
data_MOF--net-lcs-e--node1-CIFDUS_clean_sbu_1--edge1-OJICUG_clean_linker_0
_symmetry_space_group_name_H-M    P1
_symmetry_Int_Tables_number       1
_symmetry_cell_setting            triclinic
loop_
_symmetry_equiv_pos_as_xyz
'x, y, z'
_cell_length_a     42.215469
_cell_length_b     42.263733
_cell_length_c     42.222417
_cell_angle_alpha  89.974407
_cell_angle_beta   89.958773
_cell_angle_gamma 89.917355
loop_
_atom_site_label
_atom_site_type_symbol
_atom_site_fract_x
_atom_site_fract_y
_atom_site_fract_z
_atom_type_partial_charge
O0 O 0.00153 0.33589 0.26444 0.0
Mn1 Mn 0.03149 0.37303 0.28246 0.0
O2 O 0.02923 0.31948 0.22282 0.0
Mn3 Mn 0.06755 0.32091 0.24296 0.0
O4 O 0.06205 0.40537 0.30146 0.0
O5 O 2e-05 0.38509 0.31587 0.0
Mn6 Mn 0.99206 0.42581 0.31669 0.0
O7 O 0.0164 0.41136 0.25237 0.0
O8 O 0.03206 0.44492 0.32119 0.0
O9 O 0.04759 0.33899 0.31263 0.0
O10 O 0.06977 0.30075 0.28257 0.0
O11 O 0.97146 0.40851 0.35124 0.0
O12 O 0.97355 0.42815 0.27765 0.0
C13 C 0.09172 0.36529 0.23729 0.0
C14 C 0.00588 0.31615 0.24123 0.0
C15 C 0.05897 0.43262 0.31424 0.0
C16 C 0.98397 0.38235 0.34152 0.0
C17 C 0.99319 0.43129 0.25532 0.0
C18 C 0.06048 0.3118 0.30931 0.0
O19 O 0.06581 0.36118 0.25238 0.0
O20 O 0.10273 0.33979 0.22453 0.0
O21 O 0.91074 0.74754 0.51738 0.0
Mn22 Mn 0.87503 0.78042 0.53233 0.0
O23 O 0.92006 0.76834 0.47139 0.0
Mn24 Mn 0.92492 0.80946 0.48432 0.0
O25 O 0.84312 0.81324 0.54907 0.0
O26 O 0.8644 0.7527 0.56949 0.0
Mn27 Mn 0.82368 0.7447 0.57072 0.0
O28 O 0.83584 0.76259 0.50517 0.0
O29 O 0.80441 0.78457 0.57224 0.0
O30 O 0.91111 0.8 0.55838 0.0
O31 O 0.94701 0.81772 0.52258 0.0
O32 O 0.84027 0.72564 0.60609 0.0
O33 O 0.81915 0.72231 0.53405 0.0
C34 C 0.8805 0.83296 0.47749 0.0
C35 C 0.92918 0.75043 0.4932 0.0
C36 C 0.81606 0.81088 0.5627 0.0
C37 C 0.86667 0.73689 0.59542 0.0
C38 C 0.81604 0.73974 0.51004 0.0
C39 C 0.93791 0.81249 0.55126 0.0
O40 O 0.88562 0.81092 0.4975 0.0
O41 O 0.90512 0.84108 0.46129 0.0
O42 O 0.50434 0.66076 0.77602 0.0
Mn43 Mn 0.47002 0.62407 0.78582 0.0
O44 O 0.48851 0.67383 0.72839 0.0
Mn45 Mn 0.44673 0.6768 0.73922 0.0
O46 O 0.43316 0.59269 0.79693 0.0
O47 O 0.49364 0.61203 0.82624 0.0
Mn48 Mn 0.4853 0.57148 0.83166 0.0
O49 O 0.49101 0.58696 0.75911 0.0
O50 O 0.44415 0.57195 0.84442 0.0
O51 O 0.44835 0.65826 0.81167 0.0
O52 O 0.4362 0.69751 0.77755 0.0
O53 O 0.52235 0.57767 0.85182 0.0
O54 O 0.48996 0.54829 0.79579 0.0
C55 C 0.42318 0.63444 0.7255 0.0
C56 C 0.50608 0.67936 0.7517 0.0
C57 C 0.42482 0.57799 0.82217 0.0
C58 C 0.52011 0.60624 0.84084 0.0
C59 C 0.49308 0.55756 0.76755 0.0
C60 C 0.43832 0.68615 0.80572 0.0
O61 O 0.44311 0.63655 0.74839 0.0
O62 O 0.4173 0.66089 0.7113 0.0
O63 O 0.58718 0.25075 0.02528 0.0
Mn64 Mn 0.62277 0.2159 0.03656 0.0
O65 O 0.5776 0.23511 0.97722 0.0
Mn66 Mn 0.57204 0.19312 0.98656 0.0
O67 O 0.65333 0.17879 0.04865 0.0
O68 O 0.63497 0.24232 0.07445 0.0
Mn69 Mn 0.67463 0.23443 0.08374 0.0
O70 O 0.66163 0.23583 0.01106 0.0
O71 O 0.6788 0.19244 0.09295 0.0
O72 O 0.58635 0.19524 0.06138 0.0
O73 O 0.54962 0.18305 0.02407 0.0
O74 O 0.66319 0.26343 0.11296 0.0
O75 O 0.69764 0.24673 0.0495 0.0
C76 C 0.61529 0.16751 0.97845 0.0
C77 C 0.56924 0.25156 0.00053 0.0
C78 C 0.67174 0.17238 0.07183 0.0
C79 C 0.63643 0.262 0.0979 0.0
C80 C 0.68948 0.24491 0.02064 0.0
C81 C 0.5589 0.18502 0.05308 0.0
O82 O 0.61107 0.1887 -0.00042 0.0
O83 O 0.5906 0.16227 0.96127 0.0
O84 O 0.00299 0.66077 0.23498 0.0
Mn85 Mn 0.03241 0.62411 0.21534 0.0
O86 O 0.0295 0.67232 0.27816 0.0
Mn87 Mn 0.06744 0.67352 0.25733 0.0
O88 O 0.06098 0.59105 0.19429 0.0
O89 O -0.00043 0.61419 0.18166 0.0
Mn90 Mn 0.98829 0.57428 0.1844 0.0
O91 O 0.01766 0.58567 0.24535 0.0
O92 O 0.02697 0.55279 0.17861 0.0
O93 O 0.0488 0.65927 0.18613 0.0
O94 O 0.06895 0.69615 0.21918 0.0
O95 O 0.96743 0.59009 0.14968 0.0
O96 O 0.97158 0.57562 0.22429 0.0
C97 C 0.09356 0.63077 0.26186 0.0
C98 C 0.00693 0.67838 0.25971 0.0
C99 C 0.05504 0.56362 0.18289 0.0
C100 C 0.98283 0.61569 0.1561 0.0
C101 C 0.99271 0.56811 0.24385 0.0
C102 C 0.06075 0.68663 0.19153 0.0
O103 O 0.0683 0.6339 0.24516 0.0
O104 O 0.10286 0.65629 0.2759 0.0
O105 O 0.58602 0.75363 0.48177 0.0
Mn106 Mn 0.62354 0.78372 0.46498 0.0
O107 O 0.5737 0.777 0.52664 0.0
Mn108 Mn 0.57427 0.81671 0.50948 0.0
O109 O 0.65743 0.81368 0.4466 0.0
O110 O 0.6333 0.753 0.42982 0.0
Mn111 Mn 0.67367 0.74312 0.4299 0.0
O112 O 0.66174 0.76584 0.49385 0.0
O113 O 0.695 0.78176 0.42586 0.0
O114 O 0.5885 0.80342 0.43681 0.0
O115 O 0.55237 0.82299 0.47136 0.0
O116 O 0.6571 0.72192 0.39601 0.0
O117 O 0.67592 0.72285 0.46795 0.0
C118 C 0.61784 0.84125 0.51542 0.0
C119 C 0.56762 0.75624 0.50617 0.0
C120 C 0.68456 0.8092 0.43355 0.0
C121 C 0.63094 0.73473 0.40554 0.0
C122 C 0.68037 0.74169 0.49055 0.0
C123 C 0.5618 0.81677 0.44313 0.0
O124 O 0.614 0.817 0.49757 0.0
O125 O 0.59276 0.85 0.53064 0.0
O126 O 0.49769 0.33575 0.72605 0.0
Mn127 Mn 0.46685 0.37362 0.71128 0.0
O128 O 0.47565 0.32536 0.77132 0.0
Mn129 Mn 0.43647 0.32281 0.75323 0.0
O130 O 0.43687 0.40746 0.69445 0.0
O131 O 0.49719 0.38566 0.67597 0.0
Mn132 Mn 0.5071 0.42607 0.67842 0.0
O133 O 0.48456 0.40992 0.74186 0.0
O134 O 0.46768 0.44697 0.67604 0.0
O135 O 0.44827 0.34043 0.68157 0.0
O136 O 0.4328 0.30132 0.71448 0.0
O137 O 0.52619 0.41158 0.64225 0.0
O138 O 0.52754 0.42445 0.71653 0.0
C139 C 0.40812 0.3625 0.76299 0.0
C140 C 0.49581 0.318 0.75081 0.0
C141 C 0.44051 0.43511 0.68268 0.0
C142 C 0.5128 0.38511 0.64968 0.0
C143 C 0.50823 0.42905 0.73869 0.0
C144 C 0.43813 0.31235 0.68667 0.0
O145 O 0.43193 0.36299 0.74345 0.0
O146 O 0.40211 0.33543 0.77596 0.0
O147 O 0.91276 0.25104 0.9765 0.0
Mn148 Mn 0.87671 0.21843 0.96219 0.0
O149 O 0.92144 0.23151 0.02342 0.0
Mn150 Mn 0.9245 0.18981 0.01186 0.0
O151 O 0.84543 0.18513 0.94591 0.0
O152 O 0.86688 0.24479 0.92466 0.0
Mn153 Mn 0.8263 0.25144 0.91872 0.0
O154 O 0.83756 0.23865 0.98709 0.0
O155 O 0.80877 0.21077 0.91663 0.0
O156 O 0.9128 0.19698 0.93738 0.0
O157 O 0.9467 0.17834 0.97457 0.0
O158 O 0.84704 0.26902 0.88434 0.0
O159 O 0.8173 0.27475 0.95412 0.0
C160 C 0.87917 0.1688 0.02004 0.0
C161 C 0.93025 0.24943 0.00147 0.0
C162 C 0.8201 0.18571 0.92938 0.0
C163 C 0.87219 0.25852 0.89829 0.0
C164 C 0.81623 0.2596 0.97994 0.0
C165 C 0.93851 0.18298 0.94557 0.0
O166 O 0.88533 0.18922 0.99857 0.0
O167 O 0.90348 0.16046 0.0366 0.0
O168 O 0.26899 0.00241 0.33602 0.0
Mn169 Mn 0.28293 0.03497 0.37249 0.0
O170 O 0.22197 0.02145 0.32626 0.0
Mn171 Mn 0.23601 0.06217 0.32204 0.0
O172 O 0.29829 0.06714 0.40551 0.0
O173 O 0.32039 0.00741 0.38337 0.0
Mn174 Mn 0.32029 -0.00149 0.42392 0.0
O175 O 0.25509 0.01595 0.41088 0.0
O176 O 0.32006 0.03773 0.44445 0.0
O177 O 0.30979 0.05535 0.33713 0.0
O178 O 0.27407 0.06945 0.29962 0.0
O179 O 0.35615 0.97971 0.40848 0.0
O180 O 0.28404 0.97515 0.42555 0.0
C181 C 0.2304 0.09067 0.36343 0.0
C182 C 0.24379 0.00265 0.31875 0.0
C183 C 0.31041 0.06421 0.43319 0.0
C184 C 0.34584 0.99064 0.38178 0.0
C185 C 0.25997 0.99219 0.42963 0.0
C186 C 0.30267 0.06625 0.30961 0.0
O187 O 0.24812 0.06596 0.36157 0.0
O188 O 0.21405 0.09621 0.33818 0.0
O189 O 0.24666 0.01168 0.58525 0.0
Mn190 Mn 0.217 0.02937 0.62272 0.0
O191 O 0.21932 0.97042 0.5685 0.0
Mn192 Mn 0.18135 0.99106 0.57061 0.0
O193 O 0.18782 0.0487 0.65623 0.0
O194 O 0.24942 0.06252 0.63385 0.0
Mn195 Mn 0.25974 0.06191 0.67406 0.0
O196 O 0.23177 -0.00131 0.66073 0.0
O197 O 0.2202 0.06739 0.69452 0.0
O198 O 0.20046 0.06008 0.5892 0.0
O199 O 0.17817 0.03063 0.55069 0.0
O200 O 0.2819 0.09507 0.65632 0.0
O201 O 0.27637 0.02199 0.67166 0.0
C202 C 0.15698 0.98216 0.61366 0.0
C203 C 0.24262 0.98871 0.56535 0.0
C204 C 0.1925 0.06124 0.68344 0.0
C205 C 0.26825 0.08608 0.63051 0.0
C206 C 0.25566 0.00227 0.67951 0.0
C207 C 0.18707 0.05723 0.56218 0.0
O208 O 0.18171 -0.00034 0.61125 0.0
O209 O 0.14697 0.9703 0.58728 0.0
O210 O 0.24341 0.9824 0.91008 0.0
Mn211 Mn 0.2128 0.96718 0.87204 0.0
O212 O 0.2179 0.02499 0.9251 0.0
Mn213 Mn 0.18014 0.00408 0.9269 0.0
O214 O 0.18271 0.95033 0.83791 0.0
O215 O 0.24467 0.93426 0.85866 0.0
Mn216 Mn 0.25354 0.93644 0.81817 0.0
O217 O 0.22787 -0.00038 0.83589 0.0
O218 O 0.21386 0.93249 0.79826 0.0
O219 O 0.19622 0.93523 0.90359 0.0
O220 O 0.17893 0.96344 0.94557 0.0
O221 O 0.27497 0.90151 0.83352 0.0
O222 O 0.2714 0.97584 0.81935 0.0
C223 C 0.1506 0.01106 0.88651 0.0
C224 C 0.24037 0.00597 0.92941 0.0
C225 C 0.18656 0.93888 0.81007 0.0
C226 C 0.26209 0.90932 0.86015 0.0
C227 C 0.25139 0.9978 0.8163 0.0
C228 C 0.18509 0.93716 0.93162 0.0
O229 O 0.17736 0.99634 0.88608 0.0
O230 O 0.14322 0.02295 0.91373 0.0
O231 O 0.25094 0.98198 0.0863 0.0
Mn232 Mn 0.28057 0.96663 0.12522 0.0
O233 O 0.27838 0.02307 0.06863 0.0
Mn234 Mn 0.3168 0.00345 0.07142 0.0
O235 O 0.31074 0.94977 0.15935 0.0
O236 O 0.2497 0.93339 0.13853 0.0
Mn237 Mn 0.24051 0.93377 0.179 0.0
O238 O 0.26451 -0.00164 0.16162 0.0
O239 O 0.28037 0.93023 0.19878 0.0
O240 O 0.29821 0.93491 0.09374 0.0
O241 O 0.32079 0.96266 0.05399 0.0
O242 O 0.22091 0.89846 0.16194 0.0
O243 O 0.22185 0.97287 0.17752 0.0
C244 C 0.33895 0.01376 0.11572 0.0
C245 C 0.25525 0.0045 0.06575 0.0
C246 C 0.30741 0.93724 0.18678 0.0
C247 C 0.23395 0.90774 0.13589 0.0
C248 C 0.24134 0.99507 0.18146 0.0
C249 C 0.31218 0.93663 0.06699 0.0
O250 O 0.31447 0.99651 0.11214 0.0
O251 O 0.35043 0.02486 0.08963 0.0
O252 O 0.41155 0.25034 0.02322 0.0
Mn253 Mn 0.37337 0.2813 0.03729 0.0
O254 O 0.4252 0.27205 0.97807 0.0
Mn255 Mn 0.42461 0.31221 0.99399 0.0
O256 O 0.3392 0.31211 0.05387 0.0
O257 O 0.36211 0.25207 0.07298 0.0
Mn258 Mn 0.32182 0.24205 0.07283 0.0
O259 O 0.33611 0.26282 0.00795 0.0
O260 O 0.3009 0.2812 0.07481 0.0
O261 O 0.40722 0.30086 0.06597 0.0
O262 O 0.44539 0.31846 0.03282 0.0
O263 O 0.33861 0.22416 0.10893 0.0
O264 O 0.32065 0.22089 0.0351 0.0
C265 C 0.38157 0.3362 0.98361 0.0
C266 C 0.43081 0.2521 -0.00054 0.0
C267 C 0.3119 0.30832 0.0668 0.0
C268 C 0.36452 0.23745 0.09954 0.0
C269 C 0.31706 0.23912 0.01174 0.0
C270 C 0.4348 0.3124 0.06068 0.0
O271 O 0.38425 0.31354 0.00379 0.0
O272 O 0.40773 0.3444 0.97 0.0
O273 O 0.98264 0.91029 0.25049 0.0
Mn274 Mn 0.96994 0.87104 0.22003 0.0
O275 O 0.02776 0.9219 0.22853 0.0
Mn276 Mn 0.01205 0.92379 0.18822 0.0
O277 O 0.95517 0.83655 0.1892 0.0
O278 O 0.93376 0.85979 0.24868 0.0
Mn279 Mn 0.93268 0.81955 0.25839 0.0
O280 O -0.00052 0.83459 0.23959 0.0
O281 O 0.93101 0.79932 0.21894 0.0
O282 O 0.94085 0.90229 0.19937 0.0
O283 O 0.97168 0.94271 0.18269 0.0
O284 O 0.89731 0.83751 0.27688 0.0
O285 O 0.97025 0.8183 0.27994 0.0
C286 C 0.01859 0.88094 0.16157 0.0
C287 C 0.0059 0.92995 0.24703 0.0
C288 C 0.94118 0.80988 0.19233 0.0
C289 C 0.90801 0.8633 0.26446 0.0
C290 C 0.9942 0.81478 0.26243 0.0
C291 C 0.94462 0.92968 0.18757 0.0
O292 O 0.00297 0.88313 0.18759 0.0
O293 O 0.03251 0.90685 0.15341 0.0
O294 O 0.08536 0.74668 0.51912 0.0
Mn295 Mn 0.1212 0.71421 0.53386 0.0
O296 O 0.06304 0.72231 0.47798 0.0
Mn297 Mn 0.06819 0.68247 0.49386 0.0
O298 O 0.15243 0.68182 0.55058 0.0
O299 O 0.1335 0.7429 0.56918 0.0
Mn300 Mn 0.17426 0.75 0.57149 0.0
O301 O 0.16016 0.73103 0.50524 0.0
O302 O 0.19205 0.70928 0.57367 0.0
O303 O 0.08685 0.69617 0.56349 0.0
O304 O 0.04935 0.67384 0.53303 0.0
O305 O 0.15619 0.76865 0.60685 0.0
O306 O 0.17811 0.77117 0.53398 0.0
C307 C 0.11104 0.66055 0.47948 0.0
C308 C 0.06377 0.745 0.49744 0.0
C309 C 0.17923 0.68345 0.56433 0.0
C310 C 0.13011 0.75742 0.59554 0.0
C311 C 0.18064 0.75344 0.51007 0.0
C312 C 0.06038 0.68185 0.56008 0.0
O313 O 0.10916 0.68256 0.50047 0.0
O314 O 0.0842 0.65168 0.46771 0.0
O315 O 0.99564 0.65993 0.73377 0.0
Mn316 Mn 0.96268 0.62387 0.71935 0.0
O317 O 0.97458 0.67718 0.77803 0.0
Mn318 Mn 0.93531 0.67769 0.76002 0.0
O319 O 0.93102 0.59135 0.70228 0.0
O320 O 0.99274 0.61139 0.68454 0.0
Mn321 Mn 0.00124 0.57087 0.68492 0.0
O322 O 0.97833 0.58544 0.7493 0.0
O323 O 0.96111 0.55198 0.68186 0.0
O324 O 0.94544 0.65786 0.68946 0.0
O325 O 0.93074 0.69837 0.72089 0.0
O326 O 0.02216 0.5871 0.65021 0.0
O327 O 0.0209 0.56986 0.72341 0.0
C328 C 0.90429 0.63961 0.7695 0.0
C329 C 0.99578 0.67952 0.75725 0.0
C330 C 0.93423 0.56398 0.68956 0.0
C331 C 0.01004 0.61357 0.65958 0.0
C332 C 0.00167 0.56578 0.74581 0.0
C333 C 0.9353 0.68613 0.69348 0.0
O334 O 0.92916 0.6373 0.75154 0.0
O335 O 0.90051 0.66686 0.783 0.0
O336 O 0.16287 0.23431 0.49333 0.0
Mn337 Mn 0.1256 0.21569 0.46418 0.0
O338 O 0.17519 0.27834 0.46824 0.0
Mn339 Mn 0.17364 0.26013 0.42902 0.0
O340 O 0.09156 0.19499 0.43529 0.0
O341 O 0.11724 0.18163 0.49644 0.0
Mn342 Mn 0.0774 0.18202 0.50797 0.0
O343 O 0.08701 0.24441 0.4811 0.0
O344 O 0.05569 0.17533 0.46999 0.0
O345 O 0.16126 0.18783 0.44515 0.0
O346 O 0.19608 0.22227 0.42323 0.0
O347 O 0.09509 0.14908 0.52985 0.0
O348 O 0.07516 0.22115 0.52607 0.0
C349 C 0.12882 0.26512 0.40637 0.0
C350 C 0.18122 0.25856 0.48974 0.0
C351 C 0.06521 0.18107 0.44172 0.0
C352 C 0.12047 0.15774 0.51506 0.0
C353 C 0.06913 0.24214 0.50585 0.0
C354 C 0.18753 0.19417 0.43098 0.0
O355 O 0.13421 0.24746 0.43034 0.0
O356 O 0.15324 0.28043 0.39612 0.0
O357 O 0.49678 0.33435 0.22879 0.0
Mn358 Mn 0.52807 0.37325 0.21742 0.0
O359 O 0.51946 0.31473 0.27153 0.0
Mn360 Mn 0.55895 0.31856 0.25469 0.0
O361 O 0.55922 0.40749 0.20345 0.0
O362 O 0.49986 0.38627 0.18192 0.0
Mn363 Mn 0.49054 0.42657 0.18013 0.0
O364 O 0.50892 0.40941 0.24765 0.0
O365 O 0.53077 0.44594 0.17946 0.0
O366 O 0.54817 0.34306 0.18634 0.0
O367 O 0.56686 0.30176 0.21423 0.0
O368 O 0.47423 0.40787 0.14377 0.0
O369 O 0.46898 0.42504 0.21779 0.0
C370 C 0.58299 0.35886 0.27123 0.0
C371 C 0.49805 0.31317 0.25097 0.0
C372 C 0.55701 0.4343 0.18953 0.0
C373 C 0.48638 0.38229 0.15521 0.0
C374 C 0.48651 0.42953 0.2415 0.0
C375 C 0.56086 0.3159 0.18812 0.0
O376 O 0.56051 0.35996 0.25042 0.0
O377 O 0.59061 0.3309 0.28117 0.0
O378 O 0.41281 0.7526 0.97744 0.0
Mn379 Mn 0.37487 0.78416 0.96335 0.0
O380 O 0.42418 0.77208 0.02365 0.0
Mn381 Mn 0.42532 0.81211 0.00769 0.0
O382 O 0.34045 0.81512 0.94572 0.0
O383 O 0.36477 0.75465 0.92741 0.0
Mn384 Mn 0.32456 0.74461 0.92711 0.0
O385 O 0.33697 0.76556 0.99197 0.0
O386 O 0.30371 0.78338 0.92321 0.0
O387 O 0.40944 0.8042 0.93546 0.0
O388 O 0.44748 0.81921 0.96987 0.0
O389 O 0.34159 0.72467 0.8925 0.0
O390 O 0.32106 0.72378 0.96484 0.0
C391 C 0.38502 0.838 0.01968 0.0
C392 C 0.43115 0.75319 0.00191 0.0
C393 C 0.31384 0.81076 0.93131 0.0
C394 C 0.36745 0.73789 0.90211 0.0
C395 C 0.31773 0.74201 0.98821 0.0
C396 C 0.43716 0.81503 0.94165 0.0
O397 O 0.38503 0.81628 0.99801 0.0
O398 O 0.41197 0.84402 0.033 0.0
O399 O 0.98114 0.40943 0.74883 0.0
Mn400 Mn 0.96781 0.36977 0.77832 0.0
O401 O 0.02575 0.42155 0.77198 0.0
Mn402 Mn 0.00829 0.42201 0.81157 0.0
O403 O 0.95304 0.33453 0.8078 0.0
O404 O 0.93264 0.35819 0.74841 0.0
Mn405 Mn 0.93317 0.31804 0.73785 0.0
O406 O 0.9986 0.3338 0.75926 0.0
O407 O 0.93161 0.2967 0.77684 0.0
O408 O 0.93745 0.40084 0.79908 0.0
O409 O 0.96809 0.44101 0.8167 0.0
O410 O 0.898 0.3352 0.71846 0.0
O411 O 0.97135 0.31893 0.7174 0.0
C412 C 0.01628 0.37928 0.83749 0.0
C413 C 0.00495 0.42844 0.75188 0.0
C414 C 0.94091 0.30713 0.8038 0.0
C415 C 0.90762 0.36116 0.7314 0.0
C416 C 0.99415 0.31426 0.73602 0.0
C417 C 0.94106 0.42819 0.8114 0.0
O418 O -0.00044 0.3814 0.81213 0.0
O419 O 0.02939 0.4055 0.84604 0.0
O420 O 0.33712 0.23331 0.50317 0.0
Mn421 Mn 0.37597 0.21486 0.53049 0.0
O422 O 0.31843 0.27244 0.53309 0.0
Mn423 Mn 0.32455 0.25044 0.56978 0.0
O424 O 0.41136 0.19506 0.55743 0.0
O425 O 0.38627 0.18428 0.49633 0.0
Mn426 Mn 0.42597 0.18321 0.48468 0.0
O427 O 0.41269 0.24642 0.51498 0.0
O428 O 0.44744 0.17542 0.52299 0.0
O429 O 0.34372 0.18247 0.54727 0.0
O430 O 0.30566 0.21049 0.5722 0.0
O431 O 0.40517 0.1513 0.46262 0.0
O432 O 0.42675 0.22392 0.46979 0.0
C433 C 0.36861 0.2587 0.59269 0.0
C434 C 0.31674 0.25571 0.50839 0.0
C435 C 0.43803 0.18182 0.55122 0.0
C436 C 0.3806 0.16104 0.478 0.0
C437 C 0.43174 0.24439 0.49097 0.0
C438 C 0.31713 0.18444 0.56177 0.0
O439 O 0.36529 0.24302 0.56693 0.0
O440 O 0.34255 0.26969 0.60447 0.0
O441 O 0.51491 0.58509 0.25122 0.0
Mn442 Mn 0.53307 0.62211 0.28118 0.0
O443 O 0.47437 0.56783 0.27978 0.0
Mn444 Mn 0.49568 0.56899 0.31739 0.0
O445 O 0.55214 0.6542 0.31187 0.0
O446 O 0.56648 0.6349 0.24765 0.0
Mn447 Mn 0.55745 0.67562 0.2431 0.0
O448 O 0.49981 0.65936 0.26964 0.0
O449 O 0.56359 0.69627 0.2818 0.0
O450 O 0.56488 0.58833 0.29613 0.0
O451 O 0.53572 0.54973 0.31903 0.0
O452 O 0.5898 0.67063 0.21665 0.0
O453 O 0.51854 0.67665 0.22485 0.0
C454 C 0.48775 0.61256 0.3417 0.0
C455 C 0.49191 0.56525 0.25575 0.0
C456 C 0.56107 0.68287 0.30878 0.0
C457 C 0.58823 0.64159 0.22649 0.0
C458 C 0.49806 0.67876 0.24613 0.0
C459 C 0.56219 0.56119 0.3095 0.0
O460 O 0.50434 0.60934 0.31652 0.0
O461 O 0.47608 0.58645 0.35248 0.0
O462 O 0.08767 0.7509 0.02066 0.0
Mn463 Mn 0.12449 0.78252 0.03573 0.0
O464 O 0.0752 0.77241 0.97549 0.0
Mn465 Mn 0.07368 0.81168 0.99326 0.0
O466 O 0.15802 0.81305 0.05346 0.0
O467 O 0.13499 0.75245 0.07071 0.0
Mn468 Mn 0.17526 0.74278 0.07241 0.0
O469 O 0.16283 0.76462 0.00712 0.0
O470 O 0.19545 0.78209 0.07607 0.0
O471 O 0.08986 0.80161 0.0645 0.0
O472 O 0.05139 0.81771 0.03124 0.0
O473 O 0.15663 0.72323 0.10677 0.0
O474 O 0.17865 0.72262 0.0343 0.0
C475 C 0.11325 0.83842 0.98128 0.0
C476 C 0.06967 0.7518 0.99606 0.0
C477 C 0.18478 0.80917 0.06741 0.0
C478 C 0.13108 0.73627 0.09608 0.0
C479 C 0.18233 0.74121 0.01121 0.0
C480 C 0.0621 0.81283 0.05918 0.0
O481 O 0.11413 0.81597 0.00227 0.0
O482 O 0.08588 0.84458 0.96884 0.0
O483 O 0.7304 0.99578 0.66257 0.0
Mn484 Mn 0.7152 0.96604 0.62436 0.0
O485 O 0.77395 0.97095 0.67466 0.0
Mn486 Mn 0.75669 0.9313 0.67574 0.0
O487 O 0.6983 0.93645 0.59017 0.0
O488 O 0.67976 0.99689 0.61356 0.0
Mn489 Mn 0.68179 0.00687 0.57316 0.0
O490 O 0.74578 0.98332 0.58755 0.0
O491 O 0.67861 0.96787 0.55177 0.0
O492 O 0.68556 0.94672 0.65716 0.0
O493 O 0.71674 0.92581 0.69537 0.0
O494 O 0.64729 0.02821 0.58819 0.0
O495 O 0.72026 0.02645 0.57555 0.0
C496 C 0.7654 0.90802 0.63174 0.0
C497 C 0.75325 0.99082 0.68227 0.0
C498 C 0.68604 0.94055 0.56277 0.0
C499 C 0.65562 0.01567 0.61486 0.0
C500 C 0.74171 0.00711 0.56882 0.0
C501 C 0.68945 0.93299 0.6839 0.0
O502 O 0.747 0.93196 0.63527 0.0
O503 O 0.77851 0.89817 0.65754 0.0
O504 O 0.77036 0.99663 0.33762 0.0
Mn505 Mn 0.78404 0.96476 0.37485 0.0
O506 O 0.72675 0.9731 0.322 0.0
Mn507 Mn 0.74363 0.93319 0.32086 0.0
O508 O 0.79931 0.93234 0.4075 0.0
O509 O 0.81837 0.99452 0.38805 0.0
Mn510 Mn 0.82044 -0.00086 0.42913 0.0
O511 O 0.75362 0.9813 0.41219 0.0
O512 O 0.82524 0.9586 0.44591 0.0
O513 O 0.81433 0.94664 0.34163 0.0
O514 O 0.78379 0.92833 0.30174 0.0
O515 O 0.85274 0.02343 0.41316 0.0
O516 O 0.78258 0.01839 0.43653 0.0
C517 C 0.73492 0.90746 0.36387 0.0
C518 C 0.74747 0.99404 0.31748 0.0
C519 C 0.81396 0.93322 0.43395 0.0
C520 C 0.84149 0.01414 0.38623 0.0
C521 C 0.75772 0.00188 0.43465 0.0
C522 C 0.8109 0.93453 0.31404 0.0
O523 O 0.7522 0.93224 0.36148 0.0
O524 O 0.72205 0.89886 0.33754 0.0
O525 O 0.77817 0.99724 0.1618 0.0
Mn526 Mn 0.78964 0.03087 0.1249 0.0
O527 O 0.73036 0.01386 0.17177 0.0
Mn528 Mn 0.74073 0.05571 0.17505 0.0
O529 O 0.80205 0.06649 0.0932 0.0
O530 O 0.82885 0.00542 0.11485 0.0
Mn531 Mn 0.83626 0.00696 0.07413 0.0
O532 O 0.76497 0.01001 0.08574 0.0
O533 O 0.8407 0.04832 0.06157 0.0
O534 O 0.81415 0.05297 0.16028 0.0
O535 O 0.77805 0.06718 0.19715 0.0
O536 O 0.86853 0.98315 0.08912 0.0
O537 O 0.80305 0.98683 0.05601 0.0
C538 C 0.72862 0.0773 0.13114 0.0
C539 C 0.75328 0.99677 0.17968 0.0
C540 C 0.82178 0.06998 0.07046 0.0
C541 C 0.85361 0.98733 0.11567 0.0
C542 C 0.77451 0.99484 0.06064 0.0
C543 C 0.80679 0.06461 0.18732 0.0
O544 O 0.75193 0.05821 0.13518 0.0
O545 O 0.71335 0.08431 0.15673 0.0
O546 O 0.74244 0.01716 0.91084 0.0
Mn547 Mn 0.71039 0.03473 0.87523 0.0
O548 O 0.7158 0.9769 0.93006 0.0
Mn549 Mn 0.67975 0.00041 0.92961 0.0
O550 O 0.67801 0.05343 0.84401 0.0
O551 O 0.74388 0.06717 0.86209 0.0
Mn552 Mn 0.74414 0.06734 0.82041 0.0
O553 O 0.72307 0.0026 0.83781 0.0
O554 O 0.70439 0.07719 0.80462 0.0
O555 O 0.69622 0.06725 0.9083 0.0
O556 O 0.67847 0.03969 0.94988 0.0
O557 O 0.77284 0.09715 0.83028 0.0
O558 O 0.75947 0.0289 0.80958 0.0
C559 C 0.65004 0.98643 0.89351 0.0
C560 C 0.7401 0.99379 0.93051 0.0
C561 C 0.67877 0.06821 0.81767 0.0
C562 C 0.76591 0.08858 0.85898 0.0
C563 C 0.74257 0.00472 0.81413 0.0
C564 C 0.6855 0.06584 0.93654 0.0
O565 O 0.674 0.00532 0.88852 0.0
O566 O 0.64412 0.97873 0.92267 0.0
O567 O 0.58806 0.74631 0.97622 0.0
Mn568 Mn 0.62685 0.71524 0.96375 0.0
O569 O 0.57459 0.72677 0.02221 0.0
Mn570 Mn 0.57513 0.68667 0.00634 0.0
O571 O 0.66156 0.68436 0.94889 0.0
O572 O 0.6369 0.74347 0.92735 0.0
Mn573 Mn 0.67707 0.75245 0.92333 0.0
O574 O 0.66386 0.73604 0.99173 0.0
O575 O 0.69717 0.71292 0.92114 0.0
O576 O 0.595 0.69378 0.93531 0.0
O577 O 0.55504 0.67847 0.96719 0.0
O578 O 0.6566 0.77073 0.88903 0.0
O579 O 0.68174 0.77456 0.96028 0.0
C580 C 0.6153 0.65838 0.01667 0.0
C581 C 0.5693 0.74625 0.00042 0.0
C582 C 0.68752 0.68686 0.93331 0.0
C583 C 0.63148 0.75889 0.90183 0.0
C584 C 0.68406 0.75835 0.98535 0.0
C585 C 0.56754 0.68224 0.93975 0.0
O586 O 0.61586 0.68269 0.99788 0.0
O587 O 0.5885 0.65376 0.03082 0.0
O588 O 0.01777 0.0841 0.75193 0.0
Mn589 Mn 0.03168 0.12042 0.78479 0.0
O590 O 0.97035 0.07481 0.76944 0.0
Mn591 Mn 0.98464 0.07086 0.81007 0.0
O592 O 0.04758 0.15342 0.8168 0.0
O593 O 0.06958 0.13013 0.75675 0.0
Mn594 Mn 0.06905 0.1706 0.74752 0.0
O595 O 0.00426 0.15917 0.7657 0.0
O596 O 0.06929 0.19156 0.78636 0.0
O597 O 0.0581 0.08495 0.80507 0.0
O598 O 0.02197 0.04732 0.81706 0.0
O599 O 0.10491 0.15569 0.72858 0.0
O600 O 0.03271 0.1735 0.72438 0.0
C601 C 0.97728 0.10978 0.84082 0.0
C602 C 0.99255 0.06698 0.7513 0.0
C603 C 0.05975 0.18096 0.81313 0.0
C604 C 0.09523 0.12896 0.73995 0.0
C605 C 0.00889 0.17779 0.74176 0.0
C606 C 0.05068 0.05711 0.81469 0.0
O607 O 0.9966 0.11021 0.81684 0.0
O608 O 0.96092 0.08408 0.84364 0.0
O609 O 0.91312 0.25171 0.48407 0.0
Mn610 Mn 0.87594 0.28114 0.4657 0.0
O611 O 0.92784 0.27849 0.52668 0.0
Mn612 Mn 0.92528 0.31739 0.50777 0.0
O613 O 0.84358 0.31104 0.44587 0.0
O614 O 0.86649 0.24977 0.43166 0.0
Mn615 Mn 0.82606 0.24109 0.42822 0.0
O616 O 0.83705 0.26379 0.49389 0.0
O617 O 0.80663 0.28068 0.42219 0.0
O618 O 0.91071 0.29933 0.43707 0.0
O619 O 0.94671 0.32237 0.46904 0.0
O620 O 0.846 0.22122 0.39468 0.0
O621 O 0.82056 0.22186 0.46656 0.0
C622 C 0.88029 0.34036 0.51342 0.0
C623 C 0.93239 0.25596 0.50758 0.0
C624 C 0.81759 0.30754 0.43087 0.0
C625 C 0.8712 0.23434 0.40597 0.0
C626 C 0.81748 0.24042 0.48981 0.0
C627 C 0.93705 0.31363 0.44161 0.0
O628 O 0.88521 0.31529 0.49709 0.0
O629 O 0.90526 0.35106 0.52743 0.0
O630 O 0.50028 0.83602 0.76714 0.0
Mn631 Mn 0.53113 0.87336 0.78296 0.0
O632 O 0.52521 0.82426 0.72382 0.0
Mn633 Mn 0.56408 0.82085 0.74267 0.0
O634 O 0.56084 0.90648 0.80144 0.0
O635 O 0.49956 0.88613 0.81613 0.0
Mn636 Mn 0.48948 0.92633 0.81413 0.0
O637 O 0.51582 0.911 0.75179 0.0
O638 O 0.52913 0.94655 0.81763 0.0
O639 O 0.54778 0.83951 0.8137 0.0
O640 O 0.5664 0.80037 0.78226 0.0
O641 O 0.47008 0.91053 0.85002 0.0
O642 O 0.47115 0.92374 0.77506 0.0
C643 C 0.59114 0.86252 0.73501 0.0
C644 C 0.50452 0.81683 0.74377 0.0
C645 C 0.5565 0.93431 0.81256 0.0
C646 C 0.484 0.88447 0.84213 0.0
C647 C 0.49127 0.92932 0.75384 0.0
C648 C 0.55917 0.81164 0.8096 0.0
O649 O 0.56641 0.86108 0.75279 0.0
O650 O 0.59926 0.83603 0.72208 0.0
O651 O 0.99609 0.16077 0.26249 0.0
Mn652 Mn 0.96368 0.12675 0.28208 0.0
O653 O 0.96894 0.17436 0.22031 0.0
Mn654 Mn 0.93102 0.18013 0.24073 0.0
O655 O 0.93125 0.09766 0.30242 0.0
O656 O 0.99541 0.11326 0.31645 0.0
Mn657 Mn -0.00038 0.07211 0.31044 0.0
O658 O 0.97406 0.08687 0.25125 0.0
O659 O 0.95917 0.0543 0.31558 0.0
O660 O 0.95079 0.16316 0.31153 0.0
O661 O 0.93179 0.2018 0.27962 0.0
O662 O 0.02477 0.0799 0.34397 0.0
O663 O 0.01826 0.06935 0.27174 0.0
C664 C 0.90176 0.13849 0.23929 0.0
C665 C 0.99185 0.17959 0.23864 0.0
C666 C 0.93293 0.06913 0.31209 0.0
C667 C 0.01482 0.10867 0.34005 0.0
C668 C 0.99728 0.06686 0.25095 0.0
C669 C 0.94001 0.19119 0.30693 0.0
O670 O 0.92885 0.14054 0.25276 0.0
O671 O 0.89319 0.16415 0.22512 0.0
O672 O 0.49292 0.16119 0.7284 0.0
Mn673 Mn 0.52577 0.12464 0.71407 0.0
O674 O 0.51537 0.17444 0.77295 0.0
Mn675 Mn 0.55504 0.1782 0.75606 0.0
O676 O 0.55838 0.09285 0.69762 0.0
O677 O 0.49706 0.11078 0.67879 0.0
Mn678 Mn 0.4898 0.06988 0.67941 0.0
O679 O 0.51014 0.08635 0.74405 0.0
O680 O 0.53055 0.05163 0.67813 0.0
O681 O 0.54296 0.15884 0.68453 0.0
O682 O 0.5598 0.19825 0.71645 0.0
O683 O 0.47173 0.08507 0.64262 0.0
O684 O 0.46875 0.06944 0.71722 0.0
C685 C 0.58075 0.13644 0.76671 0.0
C686 C 0.4949 0.18026 0.75227 0.0
C687 C 0.55672 0.06514 0.68552 0.0
C688 C 0.48332 0.11184 0.6517 0.0
C689 C 0.48744 0.0661 0.74022 0.0
C690 C 0.55398 0.18669 0.68892 0.0
O691 O 0.55802 0.13799 0.7466 0.0
O692 O 0.58844 0.16312 0.7795 0.0
O693 O 0.08665 0.24876 0.9802 0.0
Mn694 Mn 0.12408 0.27945 0.96533 0.0
O695 O 0.07021 0.27254 0.02358 0.0
Mn696 Mn 0.0725 0.31208 0.00638 0.0
O697 O 0.15797 0.30962 0.94789 0.0
O698 O 0.13468 0.24912 0.93094 0.0
Mn699 Mn 0.17481 0.23938 0.92844 0.0
O700 O 0.16187 0.26143 0.99437 0.0
O701 O 0.19472 0.27877 0.92401 0.0
O702 O 0.09029 0.29888 0.93586 0.0
O703 O 0.05241 0.31946 0.96738 0.0
O704 O 0.15505 0.21903 0.89507 0.0
O705 O 0.17836 0.2198 0.96687 0.0
C706 C 0.11524 0.33443 0.0192 0.0
C707 C 0.06683 0.25097 0.00336 0.0
C708 C 0.18435 0.30579 0.93324 0.0
C709 C 0.12982 0.23203 0.90651 0.0
C710 C 0.18166 0.23832 0.99007 0.0
C711 C 0.0634 0.3125 0.93995 0.0
O712 O 0.11327 0.31233 0.99829 0.0
O713 O 0.08858 0.34357 0.03129 0.0
O714 O 0.41166 0.74313 0.48067 0.0
Mn715 Mn 0.3738 0.71377 0.46328 0.0
O716 O 0.42822 0.71614 0.52262 0.0
Mn717 Mn 0.42595 0.67803 0.50231 0.0
O718 O 0.33983 0.68449 0.44493 0.0
O719 O 0.36255 0.74557 0.43033 0.0
Mn720 Mn 0.3223 0.75541 0.429 0.0
O721 O 0.33599 0.73007 0.49363 0.0
O722 O 0.3018 0.71614 0.42456 0.0
O723 O 0.40721 0.69637 0.43245 0.0
O724 O 0.44601 0.6756 0.46283 0.0
O725 O 0.3415 0.77582 0.39515 0.0
O726 O 0.32096 0.77346 0.46833 0.0
C727 C 0.38248 0.65277 0.50799 0.0
C728 C 0.43125 0.73939 0.50406 0.0
C729 C 0.31259 0.68878 0.43224 0.0
C730 C 0.36691 0.76235 0.40554 0.0
C731 C 0.31656 0.7537 0.4903 0.0
C732 C 0.43461 0.68375 0.43591 0.0
O733 O 0.3855 0.67906 0.49321 0.0
O734 O 0.40832 0.64252 0.52078 0.0
O735 O 0.75733 0.51371 0.91159 0.0
Mn736 Mn 0.7849 0.53156 0.87253 0.0
O737 O 0.78894 0.47994 0.93672 0.0
Mn738 Mn 0.82324 0.50281 0.92509 0.0
O739 O 0.81033 0.55149 0.83585 0.0
O740 O 0.74925 0.56121 0.86225 0.0
Mn741 Mn 0.7355 0.559 0.82328 0.0
O742 O 0.77042 0.4982 0.83683 0.0
O743 O 0.77303 0.56808 0.80075 0.0
O744 O 0.80027 0.56668 0.90291 0.0
O745 O 0.82631 0.54292 0.94239 0.0
O746 O 0.71284 0.59111 0.84299 0.0
O747 O 0.72345 0.51754 0.82714 0.0
C748 C 0.84797 0.48527 0.88724 0.0
C749 C 0.76256 0.49351 0.93406 0.0
C750 C 0.802 0.56398 0.80933 0.0
C751 C 0.73006 0.58412 0.86722 0.0
C752 C 0.74562 0.49945 0.8189 0.0
C753 C 0.81466 0.56749 0.92949 0.0
O754 O 0.82326 0.50356 0.8832 0.0
O755 O 0.85779 0.48024 0.91595 0.0
O756 O 0.74297 0.50984 0.08578 0.0
Mn757 Mn 0.71308 0.52924 0.12179 0.0
O758 O 0.71701 0.46672 0.07288 0.0
Mn759 Mn 0.67793 0.48544 0.07345 0.0
O760 O 0.6838 0.55049 0.1542 0.0
O761 O 0.74589 0.5635 0.13035 0.0
Mn762 Mn 0.75596 0.56245 0.17075 0.0
O763 O 0.72803 0.50061 0.16131 0.0
O764 O 0.71716 0.56958 0.19142 0.0
O765 O 0.69534 0.55732 0.08556 0.0
O766 O 0.67239 0.5234 0.05104 0.0
O767 O 0.77927 0.5949 0.15459 0.0
O768 O 0.7732 0.52287 0.17114 0.0
C769 C 0.65458 0.47962 0.11773 0.0
C770 C 0.73878 0.48613 0.06697 0.0
C771 C 0.68928 0.56374 0.1809 0.0
C772 C 0.76582 0.58663 0.12837 0.0
C773 C 0.75218 0.50387 0.1797 0.0
C774 C 0.6807 0.55134 0.05952 0.0
O775 O 0.67845 0.49783 0.11306 0.0
O776 O 0.64484 0.46478 0.09283 0.0
O777 O 0.74617 0.48285 0.41039 0.0
Mn778 Mn 0.71483 0.4639 0.37513 0.0
O779 O 0.71825 0.52404 0.42676 0.0
Mn780 Mn 0.67985 0.50396 0.42764 0.0
O781 O 0.68229 0.44375 0.34568 0.0
O782 O 0.74763 0.42985 0.36259 0.0
Mn783 Mn 0.74871 0.43437 0.32082 0.0
O784 O 0.72609 0.49515 0.33633 0.0
O785 O 0.70882 0.42708 0.30303 0.0
O786 O 0.70068 0.43407 0.4107 0.0
O787 O 0.67744 0.46447 0.44813 0.0
O788 O 0.77539 0.4023 0.32704 0.0
O789 O 0.7675 0.47239 0.31456 0.0
C790 C 0.65567 0.51083 0.38352 0.0
C791 C 0.74174 0.50593 0.43013 0.0
C792 C 0.68305 0.43181 0.31802 0.0
C793 C 0.76861 0.40779 0.35653 0.0
C794 C 0.74803 0.49475 0.31502 0.0
C795 C 0.68716 0.43763 0.43766 0.0
O796 O 0.68027 0.49365 0.38761 0.0
O797 O 0.64524 0.52379 0.40918 0.0
O798 O 0.75234 0.48283 0.58567 0.0
Mn799 Mn 0.783 0.46492 0.62226 0.0
O800 O 0.77914 0.525 0.57068 0.0
Mn801 Mn 0.8177 0.50524 0.57029 0.0
O802 O 0.81373 0.44565 0.65439 0.0
O803 O 0.75147 0.43155 0.6342 0.0
Mn804 Mn 0.74378 0.43087 0.67504 0.0
O805 O 0.76853 0.49475 0.66115 0.0
O806 O 0.78381 0.42568 0.69392 0.0
O807 O 0.79905 0.43503 0.58745 0.0
O808 O 0.82064 0.46592 0.54952 0.0
O809 O 0.72196 0.39714 0.65798 0.0
O810 O 0.72565 0.46998 0.6782 0.0
C811 C 0.84171 0.51303 0.6141 0.0
C812 C 0.75638 0.50631 0.56633 0.0
C813 C 0.81069 0.43271 0.68164 0.0
C814 C 0.73421 0.40672 0.63162 0.0
C815 C 0.74561 0.49191 0.68142 0.0
C816 C 0.81187 0.43885 0.56018 0.0
O817 O 0.81745 0.49525 0.61052 0.0
O818 O 0.8519 0.52579 0.58823 0.0
O819 O 0.49762 0.1589 0.22776 0.0
Mn820 Mn 0.46323 0.12399 0.21395 0.0
O821 O 0.47992 0.16705 0.27502 0.0
Mn822 Mn 0.43907 0.17435 0.26244 0.0
O823 O 0.42998 0.09285 0.19821 0.0
O824 O 0.4895 0.11274 0.17514 0.0
Mn825 Mn 0.49854 0.07218 0.17634 0.0
O826 O 0.481 0.08421 0.24088 0.0
O827 O 0.45879 0.0525 0.17806 0.0
O828 O 0.44427 0.16045 0.18831 0.0
O829 O 0.43265 0.19792 0.22484 0.0
O830 O 0.5152 0.08619 0.13894 0.0
O831 O 0.52236 0.07165 0.21236 0.0
C832 C 0.40783 0.13509 0.26802 0.0
C833 C 0.49709 0.17645 0.2527 0.0
C834 C 0.43245 0.06489 0.1868 0.0
C835 C 0.50376 0.1131 0.14801 0.0
C836 C 0.50469 0.0655 0.23547 0.0
C837 C 0.43544 0.18847 0.19601 0.0
O838 O 0.43226 0.13536 0.24949 0.0
O839 O 0.40469 0.16034 0.28498 0.0
O840 O 0.00167 0.83458 0.73227 0.0
Mn841 Mn 0.03214 0.87123 0.71392 0.0
O842 O 0.0274 0.8245 0.7761 0.0
Mn843 Mn 0.06666 0.82164 0.75792 0.0
O844 O 0.06285 0.90303 0.69467 0.0
O845 O 0.00131 0.88224 0.67875 0.0
Mn846 Mn 0.99311 0.92312 0.67991 0.0
O847 O 0.01676 0.91024 0.74307 0.0
O848 O 0.03278 0.94303 0.67615 0.0
O849 O 0.04915 0.83573 0.68573 0.0
O850 O 0.06955 0.79931 0.71936 0.0
O851 O 0.97245 0.90814 0.64483 0.0
O852 O 0.97354 0.92589 0.71837 0.0
C853 C 0.09118 0.86593 0.76201 0.0
C854 C 0.00639 0.8165 0.75662 0.0
C855 C 0.05972 0.93063 0.6827 0.0
C856 C 0.98508 0.8814 0.65279 0.0
C857 C 0.99319 0.92968 0.74048 0.0
C858 C 0.06142 0.80857 0.6915 0.0
O859 O 0.06641 0.86107 0.74524 0.0
O860 O 0.10118 0.84111 0.77676 0.0
O861 O 0.47906 0.90963 0.25014 0.0
Mn862 Mn 0.46503 0.87218 0.28202 0.0
O863 O 0.52396 0.9254 0.27121 0.0
Mn864 Mn 0.50639 0.92519 0.31068 0.0
O865 O 0.44912 0.83825 0.31283 0.0
O866 O 0.42894 0.86067 0.25291 0.0
Mn867 Mn 0.42916 0.82063 0.24219 0.0
O868 O 0.4947 0.83445 0.26446 0.0
O869 O 0.42787 0.80012 0.2818 0.0
O870 O 0.43553 0.90531 0.30115 0.0
O871 O 0.46712 0.94572 0.31568 0.0
O872 O 0.39377 0.83814 0.22338 0.0
O873 O 0.46753 0.823 0.22217 0.0
C874 C 0.51571 0.88523 0.33973 0.0
C875 C 0.50302 0.92871 0.25029 0.0
C876 C 0.4367 0.81084 0.30888 0.0
C877 C 0.40364 0.86395 0.23637 0.0
C878 C 0.48906 0.8154 0.24118 0.0
C879 C 0.43969 0.93343 0.31148 0.0
O880 O 0.49785 0.88463 0.31485 0.0
O881 O 0.52907 0.91221 0.3452 0.0
O882 O 0.83853 0.73622 0.00629 0.0
Mn883 Mn 0.87758 0.71705 0.03289 0.0
O884 O 0.81947 0.77445 0.03714 0.0
Mn885 Mn 0.82662 0.75176 0.0732 0.0
O886 O 0.91334 0.69652 0.05901 0.0
O887 O 0.88743 0.68682 0.99738 0.0
Mn888 Mn 0.92728 0.68796 0.9858 0.0
O889 O 0.91396 0.74944 0.0186 0.0
O890 O 0.94929 0.67843 0.0236 0.0
O891 O 0.8454 0.68426 0.04913 0.0
O892 O 0.80775 0.71178 0.07526 0.0
O893 O 0.90835 0.65771 0.96073 0.0
O894 O 0.92562 0.72912 0.97241 0.0
C895 C 0.87062 0.7607 0.09581 0.0
C896 C 0.81797 0.75835 0.01202 0.0
C897 C 0.94006 0.68363 0.05216 0.0
C898 C 0.88303 0.6658 0.97592 0.0
C899 C 0.93241 0.74809 0.99425 0.0
C900 C 0.819 0.68597 0.06402 0.0
O901 O 0.86745 0.74465 0.07016 0.0
O902 O 0.84444 0.77121 0.10779 0.0
O903 O 0.58684 0.24974 0.51611 0.0
Mn904 Mn 0.62361 0.28051 0.53282 0.0
O905 O 0.57709 0.27123 0.46985 0.0
Mn906 Mn 0.57617 0.31185 0.48482 0.0
O907 O 0.65681 0.31122 0.55112 0.0
O908 O 0.63197 0.25118 0.56908 0.0
Mn909 Mn 0.67221 0.24145 0.57242 0.0
O910 O 0.6628 0.26147 0.50635 0.0
O911 O 0.69285 0.28046 0.57598 0.0
O912 O 0.58755 0.30114 0.55862 0.0
O913 O 0.55277 0.31932 0.52198 0.0
O914 O 0.65241 0.22211 0.60614 0.0
O915 O 0.678 0.22031 0.53514 0.0
C916 C 0.62033 0.33628 0.48071 0.0
C917 C 0.56931 0.25183 0.49112 0.0
C918 C 0.68312 0.30738 0.56589 0.0
C919 C 0.62723 0.23484 0.59425 0.0
C920 C 0.68219 0.23825 0.51162 0.0
C921 C 0.56104 0.31398 0.55077 0.0
O922 O 0.61529 0.31236 0.49863 0.0
O923 O 0.59622 0.34458 0.46384 0.0
O924 O 0.23052 0.49628 0.16249 0.0
Mn925 Mn 0.21382 0.46314 0.12772 0.0
O926 O 0.27363 0.47122 0.17801 0.0
Mn927 Mn 0.25532 0.43209 0.18161 0.0
O928 O 0.19631 0.42914 0.09863 0.0
O929 O 0.17724 0.49319 0.11435 0.0
Mn930 Mn 0.18568 0.49532 0.07323 0.0
O931 O 0.24525 0.47525 0.0891 0.0
O932 O 0.18339 0.4552 0.05452 0.0
O933 O 0.18435 0.4483 0.16306 0.0
O934 O 0.2157 0.42945 0.20211 0.0
O935 O 0.15105 0.51879 0.07604 0.0
O936 O 0.2223 0.51757 0.071 0.0
C937 C 0.26188 0.40528 0.13883 0.0
C938 C 0.25421 0.49356 0.1818 0.0
C939 C 0.18756 0.42952 0.06983 0.0
C940 C 0.15407 0.51222 0.10592 0.0
C941 C 0.24475 0.49842 0.06926 0.0
C942 C 0.18841 0.43683 0.19082 0.0
O943 O 0.24507 0.43033 0.14155 0.0
O944 O 0.27537 0.39669 0.16486 0.0
O945 O 0.26365 0.49473 0.8383 0.0
Mn946 Mn 0.28013 0.46291 0.87418 0.0
O947 O 0.22087 0.46926 0.82434 0.0
Mn948 Mn 0.239 0.42999 0.82088 0.0
O949 O 0.29804 0.43126 0.90601 0.0
O950 O 0.3149 0.49298 0.88575 0.0
Mn951 Mn 0.31664 0.50075 0.92635 0.0
O952 O 0.25101 0.47828 0.91343 0.0
O953 O 0.32037 0.46036 0.94486 0.0
O954 O 0.30949 0.4456 0.83989 0.0
O955 O 0.27899 0.42572 0.80078 0.0
O956 O 0.34944 0.52321 0.90847 0.0
O957 O 0.27805 0.52032 0.92701 0.0
C958 C 0.23265 0.40429 0.86424 0.0
C959 C 0.24081 0.49045 0.8184 0.0
C960 C 0.31168 0.43383 0.93292 0.0
C961 C 0.33772 0.51262 0.88226 0.0
C962 C 0.25612 0.50129 0.93305 0.0
C963 C 0.30612 0.43248 0.8128 0.0
O964 O 0.24892 0.42958 0.86132 0.0
O965 O 0.21921 0.39508 0.83841 0.0
O966 O 0.27107 0.50516 0.66252 0.0
Mn967 Mn 0.28591 0.53408 0.62339 0.0
O968 O 0.23996 0.53682 0.69216 0.0
Mn969 Mn 0.25705 0.5733 0.67779 0.0
O970 O 0.30215 0.56212 0.58744 0.0
O971 O 0.31787 0.50167 0.60988 0.0
Mn972 Mn 0.31429 0.48969 0.57039 0.0
O973 O 0.25199 0.51832 0.58883 0.0
O974 O 0.31811 0.52862 0.54875 0.0
O975 O 0.32102 0.55097 0.65304 0.0
O976 O 0.2982 0.58068 0.69078 0.0
O977 O 0.34919 0.46871 0.58668 0.0
O978 O 0.2746 0.47348 0.57693 0.0
C979 C 0.23558 0.59188 0.63737 0.0
C980 C 0.25328 0.5105 0.68707 0.0
C981 C 0.3128 0.5566 0.55953 0.0
C982 C 0.34207 0.48366 0.61236 0.0
C983 C 0.25404 0.49395 0.57046 0.0
C984 C 0.3224 0.56789 0.67809 0.0
O985 O 0.25615 0.56915 0.63652 0.0
O986 O 0.22991 0.60404 0.66499 0.0
O987 O 0.23282 0.49982 0.33789 0.0
Mn988 Mn 0.21604 0.53192 0.37374 0.0
O989 O 0.27621 0.52499 0.32439 0.0
Mn990 Mn 0.25819 0.5643 0.32097 0.0
O991 O 0.19799 0.56457 0.40447 0.0
O992 O 0.18107 0.50218 0.38611 0.0
Mn993 Mn 0.17927 0.49695 0.42729 0.0
O994 O 0.24505 0.51701 0.41306 0.0
O995 O 0.17491 0.53775 0.44439 0.0
O996 O 0.18723 0.54841 0.33882 0.0
O997 O 0.21868 0.56783 0.30015 0.0
O998 O 0.14573 0.47442 0.41108 0.0
O999 O 0.21719 0.47713 0.43301 0.0
C1000 C 0.26372 0.59021 0.36442 0.0
C1001 C 0.25652 0.50342 0.31872 0.0
C1002 C 0.18392 0.5635 0.43122 0.0
C1003 C 0.15647 0.48437 0.38419 0.0
C1004 C 0.24088 0.49522 0.43432 0.0
C1005 C 0.19132 0.56071 0.31145 0.0
O1006 O 0.24753 0.56492 0.3611 0.0
O1007 O 0.27759 0.5994 0.33879 0.0
C1008 C 0.96758 0.48218 0.24224 0.0
C1009 C 0.99599 0.46508 0.24517 0.0
H1010 H 0.94415 0.52677 0.2428 0.0
C1011 C 0.02429 0.48252 0.24921 0.0
H1012 H 0.94523 0.46978 0.24008 0.0
C1013 C 0.02378 0.51608 0.25063 0.0
C1014 C 0.99486 0.53289 0.24879 0.0
H1015 H 0.04655 0.47024 0.25274 0.0
H1016 H 0.04594 0.52876 0.25291 0.0
C1017 C 0.96694 0.51508 0.24471 0.0
C1018 C 0.76554 0.77086 0.50013 0.0
C1019 C 0.78235 0.74192 0.49948 0.0
H1020 H 0.71981 0.7939 0.49932 0.0
C1021 C 0.76467 0.71378 0.49892 0.0
H1022 H 0.77825 0.79304 0.50178 0.0
C1023 C 0.7316 0.71423 0.49966 0.0
C1024 C 0.71449 0.74288 0.50009 0.0
H1025 H 0.77662 0.69106 0.49932 0.0
H1026 H 0.71919 0.69182 0.49872 0.0
C1027 C 0.73198 0.77134 0.50016 0.0
C1028 C 0.53027 0.48373 0.74411 0.0
C1029 C 0.5037 0.46349 0.74511 0.0
H1030 H 0.54774 0.53128 0.74697 0.0
C1031 C 0.47344 0.47742 0.74446 0.0
H1032 H 0.55398 0.47392 0.74344 0.0
C1033 C 0.47001 0.51048 0.74412 0.0
C1034 C 0.49663 0.5306 0.74593 0.0
H1035 H 0.45237 0.46284 0.74409 0.0
H1036 H 0.44636 0.52031 0.74627 0.0
C1037 C 0.52678 0.51673 0.74449 0.0
C1038 C 0.76294 0.28228 0.99214 0.0
C1039 C 0.7834 0.25592 0.99183 0.0
H1040 H 0.71556 0.29936 -0.00067 0.0
C1041 C 0.76998 0.22555 0.99392 0.0
H1042 H 0.77238 0.30593 0.98923 0.0
C1043 C 0.73716 0.22179 0.99746 0.0
C1044 C 0.71693 0.24826 -0.00042 0.0
H1045 H 0.78477 0.20464 0.99222 0.0
H1046 H 0.72788 0.19818 0.00129 0.0
C1047 C 0.73022 0.27851 0.99635 0.0
C1048 C 0.25151 0.96416 0.48046 0.0
C1049 C 0.25021 0.99291 0.46366 0.0
H1050 H 0.25344 0.94068 0.5252 0.0
C1051 C 0.24987 0.02124 0.4814 0.0
H1052 H 0.25272 0.94188 0.4678 0.0
C1053 C 0.25069 0.02054 0.51493 0.0
C1054 C 0.25239 0.99151 0.53145 0.0
H1055 H 0.25003 0.04391 0.46941 0.0
H1056 H 0.24891 0.0426 0.52787 0.0
C1057 C 0.25309 0.9635 0.51348 0.0
C1058 C 0.22275 0.99747 0.73093 0.0
C1059 C 0.25203 0.00042 0.715 0.0
H1060 H 0.19865 0.99638 0.77612 0.0
C1061 C 0.27882 0.00816 0.73347 0.0
H1062 H 0.20134 0.99257 0.7177 0.0
C1063 C 0.27683 0.01258 0.7661 0.0
C1064 C 0.24835 0.00775 0.78248 0.0
H1065 H 0.30186 0.01116 0.72254 0.0
H1066 H 0.29851 0.0172 0.77905 0.0
C1067 C 0.22099 0.00084 0.76437 0.0
C1068 C 0.24719 0.97381 0.01434 0.0
C1069 C 0.24505 0.00225 0.03187 0.0
H1070 H 0.24849 0.9521 0.96789 0.0
C1071 C 0.24445 0.03081 0.01473 0.0
H1072 H 0.24909 0.95136 0.02658 0.0
C1073 C 0.2471 0.03135 0.98181 0.0
C1074 C 0.24855 0.00328 0.96392 0.0
H1075 H 0.2439 0.05326 0.02714 0.0
H1076 H 0.24661 0.05415 0.97006 0.0
C1077 C 0.24839 0.9743 0.98069 0.0
C1078 C 0.27367 0.00105 0.23238 0.0
C1079 C 0.24464 0.00336 0.21579 0.0
H1080 H 0.29678 0.99804 0.27807 0.0
C1081 C 0.21658 0.00348 0.23372 0.0
H1082 H 0.2958 -0.00013 0.21945 0.0
C1083 C 0.21703 -0.00018 0.26649 0.0
C1084 C 0.24565 0.9978 0.28351 0.0
H1085 H 0.19375 0.00444 0.22202 0.0
H1086 H 0.19449 -0.00043 0.27879 0.0
C1087 C 0.27419 -0.00131 0.26595 0.0
C1088 C 0.48356 0.24568 0.97476 0.0
C1089 C 0.46578 0.24582 0.0029 0.0
H1090 H 0.52803 0.25107 0.95207 0.0
C1091 C 0.48263 0.24925 0.03172 0.0
H1092 H 0.47182 0.24368 0.95203 0.0
C1093 C 0.51622 0.25276 0.0319 0.0
C1094 C 0.53354 0.25378 0.00319 0.0
H1095 H 0.46986 0.25035 0.05394 0.0
H1096 H 0.5285 0.25442 0.05434 0.0
C1097 C 0.51616 0.25059 0.97484 0.0
C1098 C 0.98293 0.25128 0.97071 0.0
C1099 C 0.96571 0.25108 -0.00061 0.0
H1100 H 0.02924 0.24999 0.94883 0.0
C1101 C 0.98272 0.24573 0.02765 0.0
H1102 H 0.97074 0.25442 0.94836 0.0
C1103 C 0.01516 0.24023 0.02756 0.0
C1104 C 0.03287 0.24224 -0.00047 0.0
H1105 H 0.97071 0.24514 0.05034 0.0
H1106 H 0.02696 0.2371 0.05015 0.0
C1107 C 0.01632 0.24739 0.97084 0.0
C1108 C -0.0004 0.73068 0.23035 0.0
C1109 C -0.00042 0.71307 0.25879 0.0
H1110 H 5e-05 0.77698 0.20874 0.0
C1111 C 0.00152 0.72995 0.28748 0.0
H1112 H -0.00093 0.71864 0.20772 0.0
C1113 C 0.00381 0.76291 0.28797 0.0
C1114 C 0.00347 0.78074 0.25985 0.0
H1115 H 0.00229 0.71741 0.30986 0.0
H1116 H 0.00434 0.77474 0.31074 0.0
C1117 C 0.00145 0.76413 0.23088 0.0
C1118 C 0.51453 0.7522 0.53175 0.0
C1119 C 0.53278 0.74927 0.50392 0.0
H1120 H 0.46868 0.75449 0.55308 0.0
C1121 C 0.51638 0.74724 0.47484 0.0
H1122 H 0.52597 0.75438 0.55462 0.0
C1123 C 0.48279 0.74751 0.47402 0.0
C1124 C 0.46485 0.75038 0.50218 0.0
H1125 H 0.52941 0.74591 0.45277 0.0
H1126 H 0.47092 0.74408 0.45155 0.0
C1127 C 0.48147 0.75323 0.53085 0.0
C1128 C 0.98308 0.76355 0.47213 0.0
C1129 C 0.96459 0.75166 0.49747 0.0
H1130 H 0.02888 0.77459 0.45384 0.0
C1131 C 0.98021 0.7453 0.52626 0.0
H1132 H 0.97245 0.76929 0.44949 0.0
C1133 C 0.01351 0.74855 0.52855 0.0
C1134 C 0.03175 0.75854 0.50225 0.0
H1135 H 0.96696 0.73707 0.54662 0.0
H1136 H 0.02519 0.74064 0.54996 0.0
C1137 C 0.01568 0.76769 0.47478 0.0
C1138 C 0.001 0.23074 0.27017 0.0
C1139 C -0.00112 0.2144 0.24106 0.0
H1140 H 0.00275 0.27612 0.2937 0.0
C1141 C 0.99523 0.23269 0.21337 0.0
H1142 H 0.0031 0.21769 0.29215 0.0
C1143 C 0.99325 0.26567 0.21446 0.0
C1144 C 0.99576 0.28227 0.24319 0.0
H1145 H 0.99303 0.22127 0.1905 0.0
H1146 H 0.99144 0.27849 0.19229 0.0
C1147 C -0.00045 0.26428 0.2712 0.0
C1148 C 0.49881 0.76606 0.77791 0.0
C1149 C 0.50276 0.78139 0.74835 0.0
H1150 H 0.49817 0.72144 0.80325 0.0
C1151 C 0.51195 0.76242 0.72245 0.0
H1152 H 0.49253 0.77969 0.7987 0.0
C1153 C 0.51786 0.73018 0.72569 0.0
C1154 C 0.51255 0.71423 0.75444 0.0
H1155 H 0.51543 0.77276 0.6992 0.0
H1156 H 0.52432 0.71703 0.7046 0.0
C1157 C 0.50326 0.73276 0.78082 0.0
C1158 C 0.97236 0.48007 0.7473 0.0
C1159 C 0.00165 0.46376 0.74786 0.0
H1160 H 0.94868 0.52557 0.74764 0.0
C1161 C 0.02923 0.48203 0.75224 0.0
H1162 H 0.95043 0.46701 0.74496 0.0
C1163 C 0.02798 0.51474 0.75639 0.0
C1164 C -0.00074 0.53147 0.75459 0.0
H1165 H 0.05229 0.47077 0.75328 0.0
H1166 H 0.05015 0.52741 0.75889 0.0
C1167 C 0.97123 0.51361 0.75018 0.0
C1168 C 0.23221 0.22724 0.49907 0.0
C1169 C 0.21598 0.25638 0.49679 0.0
H1170 H 0.27749 0.20373 0.5027 0.0
C1171 C 0.23431 0.28407 0.49357 0.0
H1172 H 0.2191 0.20528 0.50057 0.0
C1173 C 0.26738 0.28295 0.4928 0.0
C1174 C 0.28378 0.25421 0.49596 0.0
H1175 H 0.22293 0.30693 0.49112 0.0
H1176 H 0.28033 0.30505 0.49166 0.0
C1177 C 0.26574 0.22621 0.49888 0.0
C1178 C 0.46247 0.48293 0.24484 0.0
C1179 C 0.48977 0.46411 0.24865 0.0
H1180 H 0.44236 0.52908 0.24042 0.0
C1181 C 0.51929 0.47974 0.25011 0.0
H1182 H 0.43935 0.47198 0.24287 0.0
C1183 C 0.52101 0.51322 0.24847 0.0
C1184 C 0.49334 0.53175 0.24469 0.0
H1185 H 0.541 0.46617 0.25192 0.0
H1186 H 0.54376 0.52461 0.2516 0.0
C1187 C 0.46427 0.51579 0.24225 0.0
C1188 C 0.26698 0.71495 0.00036 0.0
C1189 C 0.28412 0.74346 -0.00058 0.0
H1190 H 0.22192 0.69208 0.00194 0.0
C1191 C 0.26669 0.77204 -0.00055 0.0
H1192 H 0.27934 0.69248 -0.00048 0.0
C1193 C 0.23313 0.77182 0.00043 0.0
C1194 C 0.21621 0.74301 0.00085 0.0
H1195 H 0.2789 0.7945 0.99759 0.0
H1196 H 0.22054 0.79413 0.0018 0.0
C1197 C 0.23387 0.71473 0.0007 0.0
C1198 C 0.73563 0.02749 0.48163 0.0
C1199 C 0.7424 -0.00103 0.46609 0.0
H1200 H 0.73365 0.05293 0.52501 0.0
C1201 C 0.74898 0.97208 0.48497 0.0
H1202 H 0.73168 0.04889 0.46801 0.0
C1203 C 0.75034 0.97429 0.5184 0.0
C1204 C 0.74564 0.00361 0.53364 0.0
H1205 H 0.75549 0.94993 0.47382 0.0
H1206 H 0.75526 0.95322 0.53217 0.0
C1207 C 0.73797 0.02994 0.51448 0.0
C1208 C 0.72454 8e-05 0.26417 0.0
C1209 C 0.75202 0.00079 0.28283 0.0
H1210 H 0.7036 0.99389 0.21905 0.0
C1211 C 0.78155 -0.00155 0.26699 0.0
H1212 H 0.70134 0.00135 0.27515 0.0
C1213 C 0.78303 0.99528 0.23341 0.0
C1214 C 0.75498 0.99318 0.21522 0.0
H1215 H 0.80334 0.99804 0.28051 0.0
H1216 H 0.80591 0.9948 0.22182 0.0
C1217 C 0.72592 0.99509 0.23167 0.0
C1218 C 0.75126 0.02376 0.98068 0.0
C1219 C 0.75321 0.99549 0.9631 0.0
H1220 H 0.75377 0.04555 0.0267 0.0
C1221 C 0.75634 0.96686 0.9799 0.0
H1222 H 0.7474 0.04614 0.96876 0.0
C1223 C 0.75767 0.96634 0.01297 0.0
C1224 C 0.75664 0.99449 0.03062 0.0
H1225 H 0.75662 0.94452 0.9673 0.0
H1226 H 0.76182 0.94393 0.02477 0.0
C1227 C 0.75307 0.02326 0.01403 0.0
C1228 C 0.71749 0.99719 0.73115 0.0
C1229 C 0.74729 0.99107 0.7174 0.0
H1230 H 0.69129 0.00338 0.7745 0.0
C1231 C 0.7717 0.98012 0.73759 0.0
H1232 H 0.69771 0.0044 0.7165 0.0
C1233 C 0.76724 0.97704 0.77019 0.0
C1234 C 0.73885 0.98668 0.78443 0.0
H1235 H 0.79495 0.97446 0.72828 0.0
H1236 H 0.78759 0.9713 0.78476 0.0
C1237 C 0.71338 0.9951 0.76434 0.0
C1238 C 0.4833 0.74754 0.96999 0.0
C1239 C 0.46656 0.74858 -0.00095 0.0
H1240 H 0.5292 0.74686 0.94693 0.0
C1241 C 0.48463 0.75248 0.02687 0.0
H1242 H 0.47047 0.74545 0.9479 0.0
C1243 C 0.51744 0.75601 0.02604 0.0
C1244 C 0.53457 0.75384 0.99756 0.0
H1245 H 0.47316 0.75377 0.04981 0.0
H1246 H 0.5298 0.75862 0.04838 0.0
C1247 C 0.51697 0.74963 0.96931 0.0
C1248 C 0.98408 0.75086 0.02633 0.0
C1249 C 0.96755 0.75245 0.99727 0.0
H1250 H 0.02979 0.7482 0.04937 0.0
C1251 C 0.9854 0.75012 0.96918 0.0
H1252 H 0.97122 0.75162 0.04852 0.0
C1253 C 0.01797 0.74525 0.96973 0.0
C1254 C 0.03498 0.74483 0.99833 0.0
H1255 H 0.97385 0.75083 0.94626 0.0
H1256 H 0.03031 0.74381 0.94724 0.0
C1257 C 0.01755 0.74754 0.02685 0.0
C1258 C 0.00127 0.23031 0.77018 0.0
C1259 C -0.00102 0.21181 0.74237 0.0
H1260 H 0.00335 0.27724 0.7904 0.0
C1261 C 0.99768 0.22787 0.71323 0.0
H1262 H 0.00343 0.2189 0.79304 0.0
C1263 C -0.00067 0.26087 0.71162 0.0
C1264 C 0.00169 0.27963 0.73912 0.0
H1265 H 0.99689 0.21463 0.69126 0.0
H1266 H 0.99787 0.27193 0.6885 0.0
C1267 C 0.00251 0.26381 0.76859 0.0
C1268 C 0.48342 0.24872 0.52225 0.0
C1269 C 0.46623 0.25232 0.49372 0.0
H1270 H 0.52953 0.24476 0.54429 0.0
C1271 C 0.4836 0.25397 0.46535 0.0
H1272 H 0.47094 0.24636 0.54454 0.0
C1273 C 0.51647 0.25078 0.46499 0.0
C1274 C 0.53402 0.24725 0.49314 0.0
H1275 H 0.47143 0.25601 0.44283 0.0
H1276 H 0.52836 0.25186 0.44226 0.0
C1277 C 0.51699 0.24655 0.52199 0.0
C1278 C 0.98347 0.24818 0.47629 0.0
C1279 C 0.96667 0.2472 0.50525 0.0
H1280 H 0.02925 0.24865 0.45331 0.0
C1281 C 0.9844 0.24738 0.53344 0.0
H1282 H 0.97072 0.24922 0.45406 0.0
C1283 C 0.0174 0.24925 0.53304 0.0
C1284 C 0.0345 0.24989 0.5044 0.0
H1285 H 0.97249 0.24748 0.5562 0.0
H1286 H 0.02978 0.24905 0.55552 0.0
C1287 C 0.01704 0.24922 0.47587 0.0
C1288 C 0.01353 0.73005 0.7807 0.0
C1289 C 0.00649 0.71306 0.75308 0.0
H1290 H 0.01637 0.77455 0.80393 0.0
C1291 C -0.0008 0.73068 0.72547 0.0
H1292 H 0.01866 0.71755 0.80253 0.0
C1293 C 0.99751 0.76425 0.72618 0.0
C1294 C 0.00293 0.78098 0.7546 0.0
H1295 H 0.99318 0.71853 0.70374 0.0
H1296 H 0.99206 0.77698 0.70459 0.0
C1297 C 0.01131 0.76301 0.78159 0.0
C1298 C 0.49727 0.26215 0.2193 0.0
C1299 C 0.48775 0.27966 0.24628 0.0
H1300 H 0.50847 0.21611 0.19963 0.0
C1301 C 0.48113 0.26262 0.27403 0.0
H1302 H 0.50353 0.27445 0.19769 0.0
C1303 C 0.48639 0.23008 0.27588 0.0
C1304 C 0.49665 0.21219 0.24948 0.0
H1305 H 0.47482 0.27509 0.29557 0.0
H1306 H 0.48227 0.2189 0.2986 0.0
C1307 C 0.50134 0.22877 0.22076 0.0
C1308 C 0.52012 0.01558 0.74821 0.0
C1309 C 0.49086 0.03197 0.74942 0.0
H1310 H 0.54382 0.97007 0.74754 0.0
C1311 C 0.46303 0.01375 0.7494 0.0
H1312 H 0.54212 0.02867 0.74709 0.0
C1313 C 0.46396 0.98085 0.74701 0.0
C1314 C 0.4928 0.96406 0.74623 0.0
H1315 H 0.44006 0.02524 0.74953 0.0
H1316 H 0.44161 0.96825 0.74706 0.0
C1317 C 0.52108 0.98196 0.74706 0.0
C1318 C 0.23231 0.2691 0.00071 0.0
C1319 C 0.21541 0.24027 0.00061 0.0
H1320 H 0.27811 0.29177 0.00284 0.0
C1321 C 0.23306 0.21199 0.00076 0.0
H1322 H 0.21969 0.29139 -0.00068 0.0
C1323 C 0.26614 0.21221 0.00056 0.0
C1324 C 0.28328 0.24071 0.00116 0.0
H1325 H 0.2211 0.18934 -0.00027 0.0
H1326 H 0.2785 0.18972 0.00125 0.0
C1327 C 0.26588 0.26931 0.00128 0.0
C1328 C 0.02156 0.0176 0.23139 0.0
C1329 C 0.99363 0.03315 0.24042 0.0
H1330 H 0.04801 0.97502 0.22907 0.0
C1331 C 0.96814 0.01403 0.251 0.0
H1332 H 0.04199 0.03125 0.22398 0.0
C1333 C 0.97141 0.98059 0.25398 0.0
C1334 C 0.0005 0.96553 0.24699 0.0
H1335 H 0.94633 0.02504 0.25879 0.0
H1336 H 0.95146 0.96676 0.2622 0.0
C1337 C 0.02516 0.98497 0.23523 0.0
C1338 C 0.26518 0.72281 0.49928 0.0
C1339 C 0.28224 0.75157 0.4994 0.0
H1340 H 0.21916 0.70038 0.5012 0.0
C1341 C 0.26461 0.77989 0.49911 0.0
H1342 H 0.27773 0.70046 0.49837 0.0
C1343 C 0.23155 0.77981 0.4982 0.0
C1344 C 0.21422 0.75142 0.49881 0.0
H1345 H 0.27661 0.80254 0.49846 0.0
H1346 H 0.21931 0.80237 0.49872 0.0
C1347 C 0.23154 0.72275 0.49941 0.0
C1348 C 0.74947 0.52161 0.98408 0.0
C1349 C 0.74568 0.4946 0.96474 0.0
H1350 H 0.75184 0.54035 0.03154 0.0
C1351 C 0.73982 0.46553 0.97962 0.0
H1352 H 0.75534 0.54421 0.97346 0.0
C1353 C 0.73976 0.46296 0.01261 0.0
C1354 C 0.74485 0.48952 0.0322 0.0
H1355 H 0.73803 0.44411 0.96563 0.0
H1356 H 0.73579 0.43981 0.0229 0.0
C1357 C 0.74897 0.51915 0.01743 0.0
C1358 C 0.71966 0.49556 0.23076 0.0
C1359 C 0.74832 0.50286 0.21522 0.0
H1360 H 0.69602 0.48922 0.27566 0.0
C1361 C 0.77355 0.51427 0.23407 0.0
H1362 H 0.69937 0.48756 0.21729 0.0
C1363 C 0.77081 0.51745 0.26683 0.0
C1364 C 0.7433 0.50792 0.28274 0.0
H1365 H 0.79606 0.52061 0.22353 0.0
H1366 H 0.79162 0.52432 0.28018 0.0
C1367 C 0.71731 0.49777 0.26419 0.0
C1368 C 0.74911 0.5324 0.51435 0.0
C1369 C 0.74793 0.50412 0.53196 0.0
H1370 H 0.75182 0.55474 0.46914 0.0
C1371 C 0.74849 0.47531 0.51499 0.0
H1372 H 0.74952 0.55507 0.52635 0.0
C1373 C 0.74988 0.47514 0.48141 0.0
C1374 C 0.75141 0.50377 0.46413 0.0
H1375 H 0.74873 0.45299 0.5276 0.0
H1376 H 0.74865 0.45275 0.46902 0.0
C1377 C 0.75154 0.5322 0.48141 0.0
C1378 C 0.77692 0.49463 0.76634 0.0
C1379 C 0.74809 0.4965 0.78331 0.0
H1380 H 0.79941 0.49302 0.72027 0.0
C1381 C 0.72019 0.50155 0.76556 0.0
H1382 H 0.79905 0.49154 0.77892 0.0
C1383 C 0.72074 0.50483 0.7327 0.0
C1384 C 0.74895 0.5016 0.71539 0.0
H1385 H 0.69739 0.50338 0.77723 0.0
H1386 H 0.69835 0.50764 0.72045 0.0
C1387 C 0.77728 0.49674 0.73271 0.0
C1388 C 0.4972 0.26555 0.77706 0.0
C1389 C 0.49992 0.28268 0.74861 0.0
H1390 H 0.48957 0.22144 0.80004 0.0
C1391 C 0.49784 0.26543 0.71995 0.0
H1392 H 0.49822 0.27765 0.79967 0.0
C1393 C 0.49313 0.2321 0.72017 0.0
C1394 C 0.48991 0.21539 0.74903 0.0
H1395 H 0.49904 0.27768 0.69746 0.0
H1396 H 0.49296 0.21941 0.6979 0.0
C1397 C 0.49133 0.23313 0.77724 0.0
C1398 C 0.52827 0.97894 0.23378 0.0
C1399 C 0.50001 0.96253 0.23992 0.0
H1400 H 0.55226 0.02315 0.23045 0.0
C1401 C 0.47256 0.98074 0.24627 0.0
H1402 H 0.55005 0.96598 0.2296 0.0
C1403 C 0.47381 0.01432 0.24702 0.0
C1404 C 0.50266 0.03047 0.24188 0.0
H1405 H 0.45047 0.96909 0.25201 0.0
H1406 H 0.4522 0.02753 0.25117 0.0
C1407 C 0.52968 0.01194 0.23522 0.0
C1408 C 0.76798 0.78546 0.99746 0.0
C1409 C 0.7851 0.75697 -0.00069 0.0
H1410 H 0.7228 0.80818 0.99431 0.0
C1411 C 0.7678 0.7284 -0.0001 0.0
H1412 H 0.78033 0.80792 0.99805 0.0
C1413 C 0.73432 0.72856 0.99864 0.0
C1414 C 0.71735 0.75731 0.99715 0.0
H1415 H 0.78004 0.70602 0.00266 0.0
H1416 H 0.72183 0.70621 0.99776 0.0
C1417 C 0.73486 0.78564 0.99658 0.0
C1418 C 0.02376 0.01473 0.74528 0.0
C1419 C 0.99484 0.0316 0.74688 0.0
H1420 H 0.04651 0.96886 0.74339 0.0
C1421 C 0.96686 0.01375 0.75063 0.0
H1422 H 0.04595 0.02738 0.74318 0.0
C1423 C 0.96743 0.9808 0.75291 0.0
C1424 C 0.99583 0.96367 0.75022 0.0
H1425 H 0.94404 0.0254 0.75232 0.0
H1426 H 0.94504 0.96842 0.75485 0.0
C1427 C 0.0242 0.98113 0.74662 0.0
C1428 C 0.73265 0.26911 0.50048 0.0
C1429 C 0.71622 0.24005 0.50189 0.0
H1430 H 0.77802 0.29244 0.49715 0.0
C1431 C 0.73431 0.21208 0.50315 0.0
H1432 H 0.71967 0.29124 0.50066 0.0
C1433 C 0.76741 0.21288 0.50319 0.0
C1434 C 0.78405 0.24166 0.50131 0.0
H1435 H 0.7227 0.1893 0.50507 0.0
H1436 H 0.78017 0.19061 0.50322 0.0
C1437 C 0.76617 0.26989 0.49994 0.0
C1438 C 0.24963 0.46768 0.01776 0.0
C1439 C 0.25604 0.49513 0.0359 0.0
H1440 H 0.24357 0.44761 0.97092 0.0
C1441 C 0.26122 0.52351 0.01949 0.0
H1442 H 0.24461 0.44548 0.02952 0.0
C1443 C 0.25779 0.52525 0.98673 0.0
C1444 C 0.25104 0.49827 0.96819 0.0
H1445 H 0.26533 0.54526 0.03245 0.0
H1446 H 0.26122 0.54814 0.97567 0.0
C1447 C 0.24761 0.46914 0.9842 0.0
C1448 C 0.22133 0.48582 0.7628 0.0
C1449 C 0.2464 0.49377 0.78349 0.0
H1450 H 0.20511 0.48052 0.71518 0.0
C1451 C 0.27653 0.49883 0.77012 0.0
H1452 H 0.19779 0.48117 0.77193 0.0
C1453 C 0.28068 0.4979 0.73694 0.0
C1454 C 0.25491 0.4918 0.71644 0.0
H1455 H 0.29668 0.50393 0.78512 0.0
H1456 H 0.30332 0.50509 0.72719 0.0
C1457 C 0.2257 0.48411 0.73009 0.0
C1458 C 0.2468 0.52557 0.5187 0.0
C1459 C 0.24898 0.49659 0.53526 0.0
H1460 H 0.24415 0.54847 0.47295 0.0
C1461 C 0.25352 0.46888 0.51717 0.0
H1462 H 0.24411 0.54756 0.53158 0.0
C1463 C 0.25628 0.46976 0.48429 0.0
C1464 C 0.25281 0.49816 0.46742 0.0
H1465 H 0.25558 0.44602 0.52866 0.0
H1466 H 0.2586 0.44753 0.4717 0.0
C1467 C 0.24827 0.52627 0.4851 0.0
C1468 C 0.28142 0.50071 0.26561 0.0
C1469 C 0.25358 0.49751 0.28374 0.0
H1470 H 0.30281 0.50591 0.22019 0.0
C1471 C 0.22441 0.49721 0.26731 0.0
H1472 H 0.30437 0.50164 0.27708 0.0
C1473 C 0.22357 0.49947 0.23374 0.0
C1474 C 0.25183 0.50271 0.21598 0.0
H1475 H 0.20233 0.49582 0.28032 0.0
H1476 H 0.20102 0.49746 0.22171 0.0
C1477 C 0.2805 0.50415 0.2328 0.0
C1478 C 0.48106 0.76088 0.21959 0.0
C1479 C 0.49166 0.77991 0.24499 0.0
H1480 H 0.47141 0.71475 0.20146 0.0
C1481 C 0.49872 0.7644 0.27378 0.0
H1482 H 0.47484 0.77141 0.19703 0.0
C1483 C 0.4966 0.73091 0.27621 0.0
C1484 C 0.48701 0.71221 0.25008 0.0
H1485 H 0.50597 0.77798 0.29426 0.0
H1486 H 0.5042 0.71962 0.29793 0.0
C1487 C 0.47814 0.72811 0.22231 0.0
C1488 C 0.07916 0.26289 0.33673 0.0
C1489 C 0.06768 0.29403 0.33835 0.0
H1490 H 0.10745 0.22772 0.35975 0.0
C1491 C 0.06742 0.30981 0.36768 0.0
H1492 H 0.07877 0.24983 0.31467 0.0
C1493 C 0.08288 0.29668 0.39356 0.0
C1494 C 0.09883 0.2679 0.3902 0.0
H1495 H 0.0586 0.33376 0.36979 0.0
H1496 H 0.08627 0.31107 0.41455 0.0
C1497 C 0.09491 0.24993 0.36266 0.0
C1498 C 0.99457 0.86222 0.59891 0.0
C1499 C 0.9845 0.8554 0.62991 0.0
H1500 H 0.9878 0.8539 0.5494 0.0
C1501 C 0.96421 0.82981 0.63507 0.0
H1502 H 0.00996 0.88225 0.59445 0.0
C1503 C 0.95105 0.81387 0.6092 0.0
C1504 C 0.958 0.82337 0.57793 0.0
H1505 H 0.95577 0.82446 0.65872 0.0
H1506 H 0.93354 0.79582 0.6137 0.0
C1507 C 0.98155 0.84624 0.57308 0.0
C1508 C 0.41375 0.73486 0.82908 0.0
C1509 C 0.42782 0.70506 0.83316 0.0
H1510 H 0.38376 0.77011 0.84981 0.0
C1511 C 0.42946 0.69195 0.86386 0.0
H1512 H 0.41284 0.74596 0.80598 0.0
C1513 C 0.41367 0.7063 0.88898 0.0
C1514 C 0.39618 0.73387 0.88376 0.0
H1515 H 0.44073 0.6693 0.86811 0.0
H1516 H 0.41201 0.69385 0.91139 0.0
C1517 C 0.39772 0.74904 0.85427 0.0
C1518 C 0.54413 0.17996 0.11047 0.0
C1519 C 0.53767 0.17331 0.0784 0.0
H1520 H 0.53587 0.16714 0.15889 0.0
C1521 C 0.51276 0.15261 0.07108 0.0
H1522 H 0.56329 0.19545 0.11709 0.0
C1523 C 0.49757 0.13593 0.09519 0.0
C1524 C 0.50652 0.14026 0.12692 0.0
H1525 H 0.50702 0.14701 0.04672 0.0
H1526 H 0.48123 0.11723 0.08881 0.0
C1527 C 0.52822 0.16393 0.13461 0.0
C1528 C 0.0647 0.69535 0.13307 0.0
C1529 C 0.06875 0.70672 0.16416 0.0
H1530 H 0.08134 0.69771 0.08517 0.0
C1531 C 0.08528 0.73511 0.16896 0.0
H1532 H 0.05142 0.67393 0.12848 0.0
C1533 C 0.1023 0.74847 0.14418 0.0
C1534 C 0.10201 0.73432 0.11424 0.0
H1535 H 0.08801 0.74508 0.19242 0.0
H1536 H 0.1184 0.76778 0.14925 0.0
C1537 C 0.08138 0.70919 0.10812 0.0
C1538 C 0.54604 0.81662 0.38569 0.0
C1539 C 0.54242 0.8287 0.41654 0.0
H1540 H 0.53878 0.82481 0.33591 0.0
C1541 C 0.52276 0.85506 0.42129 0.0
H1542 H 0.5604 0.79591 0.38158 0.0
C1543 C 0.51017 0.87116 0.39547 0.0
C1544 C 0.51672 0.86109 0.36449 0.0
H1545 H 0.51936 0.86498 0.44471 0.0
H1546 H 0.49788 0.89332 0.39963 0.0
C1547 C 0.5332 0.83274 0.35967 0.0
C1548 C 0.41718 0.26245 0.66349 0.0
C1549 C 0.42996 0.29277 0.65908 0.0
H1550 H 0.38749 0.22661 0.64387 0.0
C1551 C 0.43105 0.3057 0.62836 0.0
H1552 H 0.4169 0.25139 0.68664 0.0
C1553 C 0.41509 0.29082 0.60364 0.0
C1554 C 0.3981 0.26307 0.60957 0.0
H1555 H 0.44147 0.32871 0.624 0.0
H1556 H 0.4126 0.3031 0.58123 0.0
C1557 C 0.40094 0.24788 0.63889 0.0
C1558 C 0.9702 0.16417 0.86375 0.0
C1559 C 0.97738 0.13202 0.8676 0.0
H1560 H 0.95244 0.20619 0.88636 0.0
C1561 C 0.97721 0.11888 0.89822 0.0
H1562 H 0.96995 0.17471 0.84036 0.0
C1563 C 0.96737 0.13661 0.92421 0.0
C1564 C 0.95706 0.16781 0.92007 0.0
H1565 H 0.98239 0.09399 0.90172 0.0
H1566 H 0.96514 0.12499 0.94699 0.0
C1567 C 0.95987 0.18195 0.88993 0.0
C1568 C 0.35885 0.06502 0.29002 0.0
C1569 C 0.32866 0.07923 0.29017 0.0
H1570 H 0.40867 0.07144 0.28108 0.0
C1571 C 0.32461 0.10868 0.27552 0.0
H1572 H 0.36226 0.04198 0.30058 0.0
C1573 C 0.35083 0.12523 0.26428 0.0
C1574 C 0.38149 0.1125 0.26709 0.0
H1575 H 0.30169 0.12026 0.27546 0.0
H1576 H 0.34747 0.14932 0.2561 0.0
C1577 C 0.38524 0.08155 0.27838 0.0
C1578 C 0.17811 0.11528 0.56198 0.0
C1579 C 0.1789 0.08654 0.54525 0.0
H1580 H 0.16009 0.16243 0.56363 0.0
C1581 C 0.16798 0.08569 0.51387 0.0
H1582 H 0.18546 0.11652 0.58646 0.0
C1583 C 0.15273 0.11206 0.5011 0.0
C1584 C 0.14921 0.13959 0.51923 0.0
H1585 H 0.16869 0.06397 0.50028 0.0
H1586 H 0.14071 0.10977 0.47854 0.0
C1587 C 0.16371 0.14176 0.54886 0.0
C1588 C 0.12834 0.92891 0.80763 0.0
C1589 C 0.15789 0.92987 0.79219 0.0
H1590 H 0.08228 0.90794 0.8086 0.0
C1591 C 0.16031 0.91793 0.76121 0.0
H1592 H 0.12539 0.93841 0.83128 0.0
C1593 C 0.13524 0.90087 0.74811 0.0
C1594 C 0.10753 0.89599 0.76569 0.0
H1595 H 0.18247 0.91914 0.74832 0.0
H1596 H 0.13903 0.88826 0.7261 0.0
C1597 C 0.10335 0.91192 0.79445 0.0
C1598 C 0.34183 0.87582 0.00921 0.0
C1599 C 0.3573 0.85538 0.03015 0.0
H1600 H 0.31484 0.91873 0.00458 0.0
C1601 C 0.35319 0.85888 0.06285 0.0
H1602 H 0.34594 0.87381 0.98413 0.0
C1603 C 0.33609 0.88428 0.0746 0.0
C1604 C 0.32334 0.90677 0.05373 0.0
H1605 H 0.36572 0.84371 0.07937 0.0
H1606 H 0.33537 0.88783 0.10003 0.0
C1607 C 0.32491 0.90172 0.02095 0.0
C1608 C 0.36112 0.90179 0.24881 0.0
C1609 C 0.38725 0.89359 0.23001 0.0
H1610 H 0.31489 0.92289 0.24986 0.0
C1611 C 0.38951 0.90537 0.19913 0.0
H1612 H 0.35864 0.8921 0.27243 0.0
C1613 C 0.3643 0.92194 0.18587 0.0
C1614 C 0.33648 0.92721 0.20345 0.0
H1615 H 0.40906 0.89841 0.18396 0.0
H1616 H 0.36546 0.92764 0.1609 0.0
C1617 C 0.33585 0.91873 0.23564 0.0
C1618 C 0.34793 0.11636 0.49374 0.0
C1619 C 0.35078 0.14418 0.47602 0.0
H1620 H 0.33162 0.06862 0.49419 0.0
C1621 C 0.33261 0.14829 0.44864 0.0
H1622 H 0.36236 0.11271 0.51462 0.0
C1623 C 0.31566 0.12286 0.43634 0.0
C1624 C 0.31727 0.09316 0.45131 0.0
H1625 H 0.33486 0.16965 0.43461 0.0
H1626 H 0.30456 0.12558 0.41337 0.0
C1627 C 0.33091 0.09094 0.48158 0.0
C1628 C 0.13494 0.07433 0.6861 0.0
C1629 C 0.16419 0.07084 0.70169 0.0
H1630 H 0.08855 0.09459 0.68754 0.0
C1631 C 0.1664 0.07923 0.73381 0.0
H1632 H 0.13241 0.06833 0.6613 0.0
C1633 C 0.14095 0.09422 0.74885 0.0
C1634 C 0.11294 0.10044 0.73213 0.0
H1635 H 0.18842 0.07623 0.74663 0.0
H1636 H 0.14429 0.10374 0.77244 0.0
C1637 C 0.10952 0.08894 0.70125 0.0
C1638 C 0.15708 0.87622 0.99049 0.0
C1639 C 0.14053 0.8561 0.97006 0.0
H1640 H 0.18471 0.9188 0.99427 0.0
C1641 C 0.14318 0.86001 0.93727 0.0
H1642 H 0.15437 0.87384 0.01573 0.0
C1643 C 0.15984 0.88539 0.92503 0.0
C1644 C 0.17383 0.90752 0.94544 0.0
H1645 H 0.12988 0.84512 0.92114 0.0
H1646 H 0.15935 0.88912 0.89962 0.0
C1647 C 0.17366 0.90214 0.97823 0.0
C1648 C 0.24971 0.3592 0.10569 0.0
C1649 C 0.26677 0.38729 0.10985 0.0
H1650 H 0.25049 0.31183 0.08787 0.0
C1651 C 0.29557 0.39146 0.09402 0.0
H1652 H 0.22768 0.35542 0.11833 0.0
C1653 C 0.30914 0.36637 0.07744 0.0
C1654 C 0.2939 0.33684 0.07628 0.0
H1655 H 0.30937 0.41276 0.09765 0.0
H1656 H 0.33298 0.36924 0.06853 0.0
C1657 C 0.26309 0.33412 0.08875 0.0
C1658 C 0.76522 0.11828 0.91008 0.0
C1659 C 0.78218 0.10468 0.88495 0.0
H1660 H 0.76402 0.1561 0.94427 0.0
C1661 C 0.81354 0.11413 0.87927 0.0
H1662 H 0.74112 0.11123 0.9148 0.0
C1663 C 0.82648 0.13928 0.89584 0.0
C1664 C 0.80823 0.15537 0.91827 0.0
H1665 H 0.82705 0.10404 0.85989 0.0
H1666 H 0.84979 0.14783 0.88924 0.0
C1667 C 0.77811 0.14403 0.92654 0.0
C1668 C 0.10465 0.5306 0.17924 0.0
C1669 C 0.08045 0.54864 0.16512 0.0
H1670 H 0.14768 0.50414 0.17124 0.0
C1671 C 0.08122 0.55496 0.13279 0.0
H1672 H 0.10444 0.52608 0.2045 0.0
C1673 C 0.10554 0.54332 0.11435 0.0
C1674 C 0.12972 0.52462 0.12766 0.0
H1675 H 0.06307 0.56944 0.12177 0.0
H1676 H 0.10509 0.54912 0.08936 0.0
C1677 C 0.12925 0.5183 0.16038 0.0
C1678 C 0.73281 0.8335 0.4092 0.0
C1679 C 0.70332 0.83723 0.42425 0.0
H1680 H 0.76691 0.85446 0.37813 0.0
C1681 C 0.6901 0.86772 0.42653 0.0
H1682 H 0.74398 0.81048 0.40749 0.0
C1683 C 0.70397 0.8931 0.41062 0.0
C1684 C 0.73105 0.88821 0.39216 0.0
H1685 H 0.66749 0.87145 0.43796 0.0
H1686 H 0.69144 0.91548 0.40966 0.0
C1687 C 0.74639 0.85881 0.39294 0.0
C1688 C 0.89718 0.92525 0.15499 0.0
C1689 C 0.9161 0.94387 0.17485 0.0
H1690 H 0.85979 0.92507 0.12122 0.0
C1691 C 0.90713 0.9749 0.1821 0.0
H1692 H 0.90356 0.90096 0.14965 0.0
C1693 C 0.88118 0.98826 0.1666 0.0
C1694 C 0.86512 0.97092 0.14344 0.0
H1695 H 0.9209 0.98905 0.19843 0.0
H1696 H 0.87612 0.01295 0.1699 0.0
C1697 C 0.87173 0.93873 0.13938 0.0
C1698 C 0.23672 0.61961 0.58617 0.0
C1699 C 0.21926 0.60474 0.61003 0.0
H1700 H 0.23784 0.65815 0.55292 0.0
C1701 C 0.18702 0.6116 0.61372 0.0
H1702 H 0.2614 0.61427 0.58323 0.0
C1703 C 0.1734 0.6359 0.59641 0.0
C1704 C 0.19213 0.6538 0.57575 0.0
H1705 H 0.17327 0.60049 0.63235 0.0
H1706 H 0.14912 0.64266 0.60145 0.0
C1707 C 0.22339 0.64475 0.56935 0.0
C1708 C 0.11593 0.43146 0.32923 0.0
C1709 C 0.08817 0.44908 0.32383 0.0
H1710 H 0.16103 0.4301 0.35217 0.0
C1711 C 0.08788 0.48152 0.33098 0.0
H1712 H 0.11688 0.40637 0.32409 0.0
C1713 C 0.11352 0.49511 0.34679 0.0
C1714 C 0.13965 0.47648 0.35525 0.0
H1715 H 0.06698 0.49576 0.32656 0.0
H1716 H 0.11126 0.51903 0.35565 0.0
C1717 C 0.14147 0.44509 0.34492 0.0
C1718 C 0.39524 0.5282 0.82073 0.0
C1719 C 0.39479 0.56135 0.82296 0.0
H1720 H 0.37466 0.48514 0.8377 0.0
C1721 C 0.36821 0.57682 0.83509 0.0
H1722 H 0.41585 0.51608 0.81132 0.0
C1723 C 0.34449 0.55912 0.84957 0.0
C1724 C 0.34784 0.52617 0.85237 0.0
H1725 H 0.36776 0.60238 0.83714 0.0
H1726 H 0.32635 0.5715 0.8629 0.0
C1727 C 0.3716 0.51051 0.83544 0.0
C1728 C 0.91137 0.7035 0.60948 0.0
C1729 C 0.89547 0.73223 0.6135 0.0
H1730 H 0.93591 0.66582 0.6322 0.0
C1731 C 0.89831 0.74875 0.6421 0.0
H1732 H 0.9086 0.69002 0.58781 0.0
C1733 C 0.91403 0.73503 0.66769 0.0
C1734 C 0.92638 0.70429 0.665 0.0
H1735 H 0.88551 0.77071 0.64571 0.0
H1736 H 0.91399 0.74732 0.6902 0.0
C1737 C 0.92663 0.6895 0.63513 0.0
C1738 C 0.04454 0.17975 0.38544 0.0
C1739 C 0.04718 0.16621 0.41583 0.0
H1740 H 0.0307 0.17232 0.33675 0.0
C1741 C 0.03443 0.13615 0.42129 0.0
H1742 H 0.05355 0.20322 0.38096 0.0
C1743 C 0.02154 0.11891 0.3966 0.0
C1744 C 0.02081 0.13127 0.36575 0.0
H1745 H 0.0362 0.12497 0.44434 0.0
H1746 H 0.0137 0.09497 0.40141 0.0
C1747 C 0.03111 0.16237 0.36039 0.0
C1748 C 0.56446 0.27809 0.14296 0.0
C1749 C 0.57543 0.3048 0.15921 0.0
H1750 H 0.57486 0.24493 0.10587 0.0
C1751 C 0.60094 0.32225 0.14742 0.0
H1752 H 0.54369 0.26541 0.15102 0.0
C1753 C 0.61835 0.31057 0.12227 0.0
C1754 C 0.61033 0.28132 0.10898 0.0
H1755 H 0.60885 0.34364 0.15919 0.0
H1756 H 0.64023 0.32239 0.11586 0.0
C1757 C 0.58175 0.26673 0.11712 0.0
C1758 C 0.44904 0.81708 0.88368 0.0
C1759 C 0.45704 0.82546 0.91491 0.0
H1760 H 0.45339 0.82895 0.8345 0.0
C1761 C 0.48182 0.84696 0.92002 0.0
H1762 H 0.43052 0.80009 0.87908 0.0
C1763 C 0.49497 0.86319 0.89452 0.0
C1764 C 0.4838 0.85776 0.86376 0.0
H1765 H 0.48889 0.8536 0.94376 0.0
H1766 H 0.51118 0.8825 0.89921 0.0
C1767 C 0.4625 0.83313 0.85812 0.0
C1768 C 0.91945 0.28911 0.88772 0.0
C1769 C 0.90277 0.26098 0.8831 0.0
H1770 H 0.94464 0.32648 0.8653 0.0
C1771 C 0.90684 0.24375 0.85509 0.0
H1772 H 0.91625 0.30276 0.90923 0.0
C1773 C 0.92279 0.25734 0.82966 0.0
C1774 C 0.93448 0.28827 0.83233 0.0
H1775 H 0.89403 0.22185 0.85139 0.0
H1776 H 0.92292 0.24507 0.80714 0.0
C1777 C 0.93528 0.30285 0.8623 0.0
C1778 C 0.46151 0.16315 0.63533 0.0
C1779 C 0.48313 0.13866 0.63008 0.0
H1780 H 0.42984 0.19608 0.61381 0.0
C1781 C 0.49516 0.13358 0.59953 0.0
H1782 H 0.45171 0.16712 0.65873 0.0
C1783 C 0.48259 0.14994 0.57377 0.0
C1784 C 0.45751 0.17128 0.57835 0.0
H1785 H 0.51175 0.11447 0.59513 0.0
H1786 H 0.49043 0.14359 0.55018 0.0
C1787 C 0.44867 0.17934 0.60951 0.0
C1788 C 0.58991 0.6974 0.39158 0.0
C1789 C 0.60195 0.72804 0.38862 0.0
H1790 H 0.56862 0.65853 0.36789 0.0
C1791 C 0.59544 0.74582 0.36143 0.0
H1792 H 0.59578 0.68299 0.41201 0.0
C1793 C 0.57943 0.73203 0.33609 0.0
C1794 C 0.57077 0.69999 0.33751 0.0
H1795 H 0.60567 0.76914 0.35844 0.0
H1796 H 0.57629 0.74561 0.31455 0.0
C1797 C 0.57464 0.68333 0.36609 0.0
C1798 C 0.05167 0.81403 0.11752 0.0
C1799 C 0.04285 0.82296 0.08667 0.0
H1800 H 0.04892 0.82484 0.16705 0.0
C1801 C 0.0181 0.84483 0.08276 0.0
H1802 H 0.07031 0.79701 0.1212 0.0
C1803 C 0.00579 0.86067 0.10903 0.0
C1804 C 0.01775 0.85452 0.13943 0.0
H1805 H 0.01042 0.85203 0.05936 0.0
H1806 H 0.98962 0.88024 0.10518 0.0
C1807 C 0.03907 0.8296 0.14383 0.0
C1808 C 0.66046 0.91542 0.73288 0.0
C1809 C 0.66054 0.92244 0.70035 0.0
H1810 H 0.63606 0.89162 0.77067 0.0
C1811 C 0.63314 0.91661 0.68239 0.0
H1812 H 0.68107 0.92026 0.74734 0.0
C1813 C 0.60754 0.90094 0.69579 0.0
C1814 C 0.60877 0.89102 0.72735 0.0
H1815 H 0.63243 0.92159 0.65722 0.0
H1816 H 0.58827 0.89353 0.68053 0.0
C1817 C 0.63454 0.89973 0.74637 0.0
C1818 C 0.84568 0.87581 0.49334 0.0
C1819 C 0.85093 0.84976 0.47364 0.0
H1820 H 0.82906 0.92352 0.496 0.0
C1821 C 0.83673 0.84845 0.44376 0.0
H1822 H 0.85749 0.87743 0.51599 0.0
C1823 C 0.82156 0.87506 0.43175 0.0
C1824 C 0.82057 0.90302 0.4497 0.0
H1825 H 0.84115 0.82858 0.42811 0.0
H1826 H 0.81404 0.87476 0.40724 0.0
C1827 C 0.83034 0.90245 0.48145 0.0
C1828 C 0.82761 0.09303 0.23548 0.0
C1829 C 0.8332 0.07684 0.20695 0.0
H1830 H 0.84662 0.12557 0.26951 0.0
C1831 C 0.86449 0.07488 0.19546 0.0
H1832 H 0.80391 0.09485 0.24515 0.0
C1833 C 0.88911 0.09055 0.21065 0.0
C1834 C 0.88261 0.11003 0.23651 0.0
H1835 H 0.86971 0.06385 0.17302 0.0
H1836 H 0.91223 0.09102 0.19946 0.0
C1837 C 0.85215 0.11001 0.24987 0.0
C1838 C 0.65919 0.15 0.94532 0.0
C1839 C 0.64373 0.14856 0.97455 0.0
H1840 H 0.68506 0.12474 0.9103 0.0
C1841 C 0.64817 0.12233 0.99433 0.0
H1842 H 0.65548 0.16995 0.92959 0.0
C1843 C 0.66486 0.09601 0.98325 0.0
C1844 C 0.67693 0.09584 0.95221 0.0
H1845 H 0.63568 0.1207 0.01667 0.0
H1846 H 0.66572 0.07494 0.99783 0.0
C1847 C 0.67589 0.12389 0.93425 0.0
C1848 C 0.62027 0.09521 0.75655 0.0
C1849 C 0.59687 0.10776 0.77635 0.0
H1850 H 0.66566 0.07253 0.75466 0.0
C1851 C 0.59725 0.10114 0.80886 0.0
H1852 H 0.62039 0.10055 0.73146 0.0
C1853 C 0.623 0.08554 0.82215 0.0
C1854 C 0.64867 0.07692 0.80294 0.0
H1855 H 0.57948 0.11123 0.82445 0.0
H1856 H 0.62419 0.08318 0.84768 0.0
C1857 C 0.64634 0.07991 0.76988 0.0
C1858 C 0.67841 0.88225 0.55995 0.0
C1859 C 0.67743 0.91189 0.54479 0.0
H1860 H 0.66135 0.83473 0.56053 0.0
C1861 C 0.66432 0.91404 0.51432 0.0
H1862 H 0.68764 0.87984 0.58366 0.0
C1863 C 0.64862 0.88803 0.50135 0.0
C1864 C 0.6467 0.85959 0.51834 0.0
H1865 H 0.66355 0.93643 0.50186 0.0
H1866 H 0.63477 0.89135 0.48001 0.0
C1867 C 0.66348 0.85619 0.5466 0.0
C1868 C 0.86824 0.92081 0.31432 0.0
C1869 C 0.83998 0.92487 0.29714 0.0
H1870 H 0.91391 0.89916 0.31573 0.0
C1871 C 0.83929 0.9163 0.26498 0.0
H1872 H 0.86959 0.9268 0.33921 0.0
C1873 C 0.86505 0.90029 0.25155 0.0
C1874 C 0.89161 0.89303 0.27014 0.0
H1875 H 0.81807 0.91973 0.25098 0.0
H1876 H 0.86273 0.89054 0.22794 0.0
C1877 C 0.89392 0.90527 0.30079 0.0
C1878 C 0.83682 0.15557 0.05635 0.0
C1879 C 0.84876 0.15378 0.02537 0.0
H1880 H 0.81927 0.1291 0.09586 0.0
C1881 C 0.84206 0.12729 0.00675 0.0
H1882 H 0.84189 0.17601 0.07099 0.0
C1883 C 0.82973 0.1003 0.02106 0.0
C1884 C 0.82341 0.10022 0.05373 0.0
H1885 H 0.85117 0.12553 0.9828 0.0
H1886 H 0.82833 0.07863 0.00742 0.0
C1887 C 0.8243 0.12864 0.0707 0.0
C1888 C 0.7344 0.6589 0.91016 0.0
C1889 C 0.70516 0.65752 0.92605 0.0
H1890 H 0.76655 0.63461 0.87937 0.0
C1891 C 0.69065 0.62788 0.93056 0.0
H1892 H 0.74659 0.68121 0.90697 0.0
C1893 C 0.70244 0.6012 0.91507 0.0
C1894 C 0.72903 0.60381 0.89544 0.0
H1895 H 0.6684 0.62582 0.9432 0.0
H1896 H 0.68861 0.57961 0.91537 0.0
C1897 C 0.74625 0.6321 0.89488 0.0
C1898 C 0.202 0.89325 0.09065 0.0
C1899 C 0.23035 0.88931 0.10719 0.0
H1900 H 0.16413 0.87022 0.06711 0.0
C1901 C 0.24698 0.86069 0.10495 0.0
H1902 H 0.18852 0.91499 0.09293 0.0
C1903 C 0.23341 0.83497 0.08932 0.0
C1904 C 0.20283 0.83764 0.07638 0.0
H1905 H 0.26865 0.85715 0.11825 0.0
H1906 H 0.24562 0.81242 0.08985 0.0
C1907 C 0.18802 0.86745 0.07583 0.0
C1908 C 0.8738 0.43775 0.86723 0.0
C1909 C 0.86462 0.46916 0.86175 0.0
H1910 H 0.90574 0.40052 0.85525 0.0
C1911 C 0.87806 0.4862 0.83674 0.0
H1912 H 0.86402 0.42442 0.88688 0.0
C1913 C 0.90253 0.47268 0.81884 0.0
C1914 C 0.91306 0.442 0.82602 0.0
H1915 H 0.87175 0.51069 0.8332 0.0
H1916 H 0.91402 0.48647 0.80052 0.0
C1917 C 0.89775 0.42421 0.84938 0.0
C1918 C 0.31776 0.12656 0.57261 0.0
C1919 C 0.30053 0.15488 0.56967 0.0
H1920 H 0.31947 0.08061 0.5937 0.0
C1921 C 0.2686 0.15558 0.57898 0.0
H1922 H 0.34252 0.12541 0.56602 0.0
C1923 C 0.25559 0.1299 0.59509 0.0
C1924 C 0.2741 0.10312 0.60125 0.0
H1925 H 0.25466 0.17699 0.57658 0.0
H1926 H 0.23275 0.13273 0.60634 0.0
C1927 C 0.30452 0.10076 0.58824 0.0
C1928 C 0.10779 0.04103 0.81608 0.0
C1929 C 0.07643 0.03678 0.82666 0.0
H1930 H 0.15718 0.03441 0.82661 0.0
C1931 C 0.07059 0.0164 0.85217 0.0
H1932 H 0.11276 0.05612 0.79601 0.0
C1933 C 0.09582 0.00401 0.8694 0.0
C1934 C 0.12715 0.01145 0.86112 0.0
H1935 H 0.04672 0.0126 0.86081 0.0
H1936 H 0.09078 0.9913 0.89113 0.0
C1937 C 0.13315 0.02824 0.8332 0.0
C1938 C 0.7679 0.37856 0.40847 0.0
C1939 C 0.78334 0.38727 0.38035 0.0
H1940 H 0.76616 0.34483 0.44685 0.0
C1941 C 0.81152 0.37187 0.37167 0.0
H1942 H 0.74685 0.3909 0.41602 0.0
C1943 C 0.82249 0.34635 0.38894 0.0
C1944 C 0.80557 0.3357 0.41524 0.0
H1945 H 0.82436 0.37853 0.35045 0.0
H1946 H 0.84369 0.33413 0.38104 0.0
C1947 C 0.7788 0.35237 0.42582 0.0
C1948 C 0.87765 0.56452 0.67358 0.0
C1949 C 0.90537 0.54717 0.67984 0.0
H1950 H 0.83431 0.56608 0.64751 0.0
C1951 C 0.90658 0.51491 0.67183 0.0
H1952 H 0.87593 0.58939 0.67961 0.0
C1953 C 0.88234 0.5015 0.65388 0.0
C1954 C 0.85681 0.52022 0.64409 0.0
H1955 H 0.92744 0.50086 0.67699 0.0
H1956 H 0.88541 0.47783 0.64457 0.0
C1957 C 0.8536 0.55113 0.65554 0.0
C1958 C 0.61373 0.49442 0.15623 0.0
C1959 C 0.63887 0.47441 0.14786 0.0
H1960 H 0.56721 0.49719 0.17656 0.0
C1961 C 0.63991 0.44352 0.15967 0.0
H1962 H 0.61244 0.51823 0.14676 0.0
C1963 C 0.61405 0.43131 0.17589 0.0
C1964 C 0.5869 0.45 0.18082 0.0
H1965 H 0.65879 0.42754 0.1527 0.0
H1966 H 0.61408 0.40625 0.18128 0.0
C1967 C 0.58768 0.48221 0.17265 0.0
C1968 C 0.59394 0.74681 0.85961 0.0
C1969 C 0.60061 0.7638 0.88727 0.0
H1970 H 0.57496 0.7488 0.8127 0.0
C1971 C 0.58604 0.79316 0.89228 0.0
H1972 H 0.60512 0.72409 0.85538 0.0
C1973 C 0.56926 0.80765 0.86778 0.0
C1974 C 0.56719 0.79284 0.83801 0.0
H1975 H 0.59121 0.80674 0.91343 0.0
H1976 H 0.56107 0.83171 0.87116 0.0
C1977 C 0.57725 0.76126 0.835 0.0
C1978 C 0.48451 0.33434 0.08404 0.0
C1979 C 0.45441 0.32086 0.08829 0.0
H1980 H 0.52008 0.36409 0.10431 0.0
C1981 C 0.4418 0.31872 0.11909 0.0
H1982 H 0.49547 0.33527 0.06085 0.0
C1983 C 0.45644 0.33451 0.14406 0.0
C1984 C 0.4836 0.35254 0.1383 0.0
H1985 H 0.4191 0.30762 0.1234 0.0
H1986 H 0.44417 0.33622 0.16656 0.0
C1987 C 0.49901 0.35023 0.10903 0.0
C1988 C 0.92203 0.2105 0.39165 0.0
C1989 C 0.90003 0.23485 0.38716 0.0
H1990 H 0.95291 0.1774 0.36909 0.0
C1991 C 0.89837 0.25025 0.35782 0.0
H1992 H 0.92327 0.19811 0.4141 0.0
C1993 C 0.91503 0.23844 0.33194 0.0
C1994 C 0.93289 0.21057 0.33513 0.0
H1995 H 0.88115 0.26892 0.35393 0.0
H1996 H 0.91086 0.24896 0.30892 0.0
C1997 C 0.93854 0.19839 0.36569 0.0
C1998 C 0.05812 0.67273 0.61859 0.0
C1999 C 0.04289 0.67256 0.58894 0.0
H2000 H 0.05804 0.65472 0.66601 0.0
C2001 C 0.01202 0.66042 0.58676 0.0
H2002 H 0.08188 0.68198 0.62113 0.0
C2003 C 0.9984 0.64504 0.61262 0.0
C2004 C 0.01522 0.64209 0.64104 0.0
H2005 H -0.0006 0.66052 0.56443 0.0
H2006 H 0.97638 0.63235 0.60924 0.0
C2007 C 0.04432 0.65755 0.6445 0.0
C2008 C 0.57614 0.23532 0.66373 0.0
C2009 C 0.56311 0.20495 0.66059 0.0
H2010 H 0.60688 0.2698 0.64307 0.0
C2011 C 0.56309 0.19036 0.63059 0.0
H2012 H 0.57569 0.24761 0.68624 0.0
C2013 C 0.58015 0.20366 0.60567 0.0
C2014 C 0.59717 0.23159 0.61054 0.0
H2015 H 0.55275 0.16718 0.62715 0.0
H2016 H 0.58335 0.19008 0.58412 0.0
C2017 C 0.59347 0.24836 0.63888 0.0
C2018 C 0.04526 0.33245 0.85465 0.0
C2019 C 0.01863 0.35178 0.85814 0.0
H2020 H 0.08117 0.30616 0.87825 0.0
C2021 C 0.00333 0.35337 0.88762 0.0
H2022 H 0.05794 0.33172 0.83233 0.0
C2023 C 0.01642 0.33838 0.91407 0.0
C2024 C 0.04541 0.32219 0.91141 0.0
H2025 H 0.98315 0.36892 0.89091 0.0
H2026 H 0.00523 0.34172 0.93692 0.0
C2027 C 0.05873 0.31804 0.88114 0.0
C2028 C 0.92118 0.76131 0.16582 0.0
C2029 C 0.93319 0.79215 0.16341 0.0
H2030 H 0.89173 0.72625 0.14444 0.0
C2031 C 0.93245 0.80766 0.13389 0.0
H2032 H 0.92211 0.74848 0.18802 0.0
C2033 C 0.91582 0.79436 0.10865 0.0
C2034 C 0.90009 0.76551 0.11275 0.0
H2035 H 0.9417 0.83141 0.13121 0.0
H2036 H 0.91202 0.80835 0.08746 0.0
C2037 C 0.90429 0.7483 0.14075 0.0
C2038 C 0.45102 0.65533 0.35346 0.0
C2039 C 0.48119 0.64223 0.35763 0.0
H2040 H 0.41208 0.67864 0.37565 0.0
C2041 C 0.49853 0.64918 0.38496 0.0
H2042 H 0.43704 0.64943 0.33276 0.0
C2043 C 0.4844 0.66599 0.40958 0.0
C2044 C 0.45253 0.67526 0.40724 0.0
H2045 H 0.5214 0.63827 0.38895 0.0
H2046 H 0.49741 0.66898 0.43148 0.0
C2047 C 0.43666 0.67177 0.37819 0.0
C2048 C 0.82185 0.61111 0.78162 0.0
C2049 C 0.82683 0.57966 0.79062 0.0
H2050 H 0.84298 0.65452 0.76745 0.0
C2051 C 0.85698 0.56601 0.78629 0.0
H2052 H 0.79891 0.62225 0.78475 0.0
C2053 C 0.88261 0.58463 0.77619 0.0
C2054 C 0.87798 0.61699 0.77066 0.0
H2055 H 0.86093 0.54143 0.79191 0.0
H2056 H 0.90614 0.57442 0.77511 0.0
C2057 C 0.84718 0.6296 0.7719 0.0
C2058 C 0.64122 0.57514 0.02291 0.0
C2059 C 0.66931 0.57835 0.0403 0.0
H2060 H 0.60253 0.59887 0.00076 0.0
C2061 C 0.68354 0.60841 0.04241 0.0
H2062 H 0.62958 0.55241 0.02075 0.0
C2063 C 0.66797 0.63533 0.03063 0.0
C2064 C 0.63812 0.6322 0.01658 0.0
H2065 H 0.70565 0.61127 0.05486 0.0
H2066 H 0.67779 0.65856 0.03516 0.0
C2067 C 0.62579 0.6018 0.01125 0.0
C2068 C 0.63217 0.40474 0.32652 0.0
C2069 C 0.65327 0.41936 0.30544 0.0
H2070 H 0.59234 0.37417 0.33153 0.0
C2071 C 0.64664 0.41942 0.27286 0.0
H2072 H 0.63689 0.4042 0.35176 0.0
C2073 C 0.62038 0.40282 0.2614 0.0
C2074 C 0.60111 0.38586 0.28241 0.0
H2075 H 0.6625 0.43092 0.2563 0.0
H2076 H 0.61702 0.40061 0.23617 0.0
C2077 C 0.60648 0.38787 0.31505 0.0
C2078 C 0.83285 0.35416 0.543 0.0
C2079 C 0.85065 0.35786 0.51532 0.0
H2080 H 0.80677 0.37739 0.57936 0.0
C2081 C 0.84865 0.38628 0.49829 0.0
H2082 H 0.8345 0.3325 0.55667 0.0
C2083 C 0.83312 0.41236 0.51144 0.0
C2084 C 0.81956 0.41009 0.54176 0.0
H2085 H 0.86254 0.38956 0.47694 0.0
H2086 H 0.8344 0.43489 0.49926 0.0
C2087 C 0.81737 0.38014 0.5562 0.0
C2088 C 0.89299 0.40164 0.69355 0.0
C2089 C 0.89118 0.39062 0.72473 0.0
H2090 H 0.86842 0.42314 0.65519 0.0
C2091 C 0.86539 0.39923 0.74379 0.0
H2092 H 0.91241 0.39448 0.67831 0.0
C2093 C 0.83973 0.41541 0.73046 0.0
C2094 C 0.83988 0.42292 0.69803 0.0
H2095 H 0.8635 0.39043 0.76783 0.0
H2096 H 0.81895 0.41989 0.74487 0.0
C2097 C 0.86753 0.4177 0.68024 0.0
C2098 C 0.82691 0.60028 0.97684 0.0
C2099 C 0.82118 0.59828 0.94412 0.0
H2100 H 0.85088 0.62564 0.0135 0.0
C2101 C 0.8271 0.62462 0.92482 0.0
H2102 H 0.82188 0.58041 0.99227 0.0
C2103 C 0.84321 0.65055 0.93717 0.0
C2104 C 0.85314 0.65036 0.96885 0.0
H2105 H 0.82278 0.62372 0.89955 0.0
H2106 H 0.85144 0.66875 0.92106 0.0
C2107 C 0.84281 0.6264 0.9892 0.0
C2108 C 0.63822 0.63258 0.19816 0.0
C2109 C 0.61323 0.61965 0.216 0.0
H2110 H 0.6817 0.62467 0.17398 0.0
C2111 C 0.61346 0.58711 0.22309 0.0
H2112 H 0.63903 0.65745 0.19202 0.0
C2113 C 0.63846 0.56799 0.21205 0.0
C2114 C 0.66337 0.58173 0.19471 0.0
H2115 H 0.59442 0.57657 0.23666 0.0
H2116 H 0.63842 0.54283 0.217 0.0
C2117 C 0.66297 0.61392 0.1879 0.0
C2118 C 0.68358 0.37878 0.44154 0.0
C2119 C 0.67947 0.40868 0.45571 0.0
H2120 H 0.66893 0.33042 0.44059 0.0
C2121 C 0.66355 0.41065 0.48487 0.0
H2122 H 0.69527 0.37623 0.4189 0.0
C2123 C 0.64791 0.38417 0.49689 0.0
C2124 C 0.64882 0.35544 0.48037 0.0
H2125 H 0.66035 0.43318 0.49666 0.0
H2126 H 0.63193 0.38722 0.51676 0.0
C2127 C 0.66863 0.35226 0.45407 0.0
C2128 C 0.81535 0.86885 0.57347 0.0
C2129 C 0.79885 0.84014 0.57064 0.0
H2130 H 0.81586 0.91499 0.59417 0.0
C2131 C 0.76704 0.83868 0.58027 0.0
H2132 H 0.84008 0.87052 0.56702 0.0
C2133 C 0.75354 0.86398 0.59657 0.0
C2134 C 0.77125 0.89133 0.6023 0.0
H2135 H 0.75365 0.81694 0.57811 0.0
H2136 H 0.73104 0.86043 0.60831 0.0
C2137 C 0.80143 0.89444 0.58893 0.0
C2138 C 0.29472 0.60448 0.41057 0.0
C2139 C 0.26676 0.60848 0.39334 0.0
H2140 H 0.33173 0.62731 0.43586 0.0
C2141 C 0.25013 0.63712 0.39529 0.0
H2142 H 0.3081 0.58263 0.40883 0.0
C2143 C 0.26371 0.66302 0.41062 0.0
C2144 C 0.29413 0.66035 0.42386 0.0
H2145 H 0.22858 0.64057 0.38177 0.0
H2146 H 0.25168 0.68565 0.40961 0.0
C2147 C 0.30843 0.6303 0.42568 0.0
C2148 C 0.61178 0.06989 0.66622 0.0
C2149 C 0.58672 0.05029 0.6758 0.0
H2150 H 0.65463 0.07326 0.63968 0.0
C2151 C 0.58949 0.01735 0.6721 0.0
H2152 H 0.61023 0.09539 0.66848 0.0
C2153 C 0.61559 0.0046 0.65602 0.0
C2154 C 0.63872 0.02479 0.64347 0.0
H2155 H 0.5706 0.00178 0.6797 0.0
H2156 H 0.61587 0.9796 0.65046 0.0
C2157 C 0.63748 0.05722 0.65005 0.0
C2158 C 0.18701 0.36398 0.92446 0.0
C2159 C 0.20214 0.33433 0.92408 0.0
H2160 H 0.18707 0.41143 0.9071 0.0
C2161 C 0.2327 0.33182 0.91108 0.0
H2162 H 0.16306 0.36656 0.93311 0.0
C2163 C 0.24602 0.35757 0.89529 0.0
C2164 C 0.22916 0.38603 0.893 0.0
H2165 H 0.24507 0.30936 0.91063 0.0
H2166 H 0.26763 0.35411 0.88185 0.0
C2167 C 0.20077 0.38984 0.90952 0.0
C2168 C 0.3868 0.49684 0.64702 0.0
C2169 C 0.36002 0.47825 0.64107 0.0
H2170 H 0.434 0.49771 0.66573 0.0
C2171 C 0.35749 0.44819 0.65452 0.0
H2172 H 0.38921 0.51992 0.63612 0.0
C2173 C 0.38309 0.43517 0.67045 0.0
C2174 C 0.41154 0.45219 0.67336 0.0
H2175 H 0.33724 0.43329 0.64937 0.0
H2176 H 0.38153 0.4106 0.67745 0.0
C2177 C 0.41255 0.48389 0.66333 0.0
C2178 C 0.68732 0.08879 0.09266 0.0
C2179 C 0.71934 0.09154 0.10127 0.0
H2180 H 0.64623 0.11355 0.07601 0.0
C2181 C 0.73702 0.11732 0.0906 0.0
H2182 H 0.67335 0.06899 0.10109 0.0
C2183 C 0.72154 0.14278 0.07652 0.0
C2184 C 0.68847 0.14223 0.07296 0.0
H2185 H 0.76148 0.1201 0.09769 0.0
H2186 H 0.73474 0.16431 0.07204 0.0
C2187 C 0.67176 0.11427 0.07856 0.0
C2188 C 0.59876 0.97551 0.82077 0.0
C2189 C 0.58317 0.94755 0.8297 0.0
H2190 H 0.63389 0.00998 0.83405 0.0
C2191 C 0.59232 0.93134 0.85697 0.0
H2192 H 0.59204 0.98793 0.79934 0.0
C2193 C 0.61557 0.94357 0.87627 0.0
C2194 C 0.63027 0.97238 0.86879 0.0
H2195 H 0.58053 0.90965 0.86404 0.0
H2196 H 0.6212 0.93085 0.89785 0.0
C2197 C 0.62269 0.98785 0.84031 0.0
C2198 C 0.8558 0.05934 0.35387 0.0
C2199 C 0.85473 0.02641 0.35707 0.0
H2200 H 0.88192 0.09884 0.33667 0.0
C2201 C 0.87544 0.00735 0.33962 0.0
H2202 H 0.84019 0.07434 0.36771 0.0
C2203 C 0.90003 0.02127 0.32253 0.0
C2204 C 0.9035 0.05428 0.32268 0.0
H2205 H 0.87508 0.98196 0.34242 0.0
H2206 H 0.91758 0.00627 0.3113 0.0
C2207 C 0.87994 0.07327 0.33647 0.0
C2208 C 0.41682 0.21635 0.11354 0.0
C2209 C 0.39212 0.2374 0.12016 0.0
H2210 H 0.45051 0.18402 0.1331 0.0
C2211 C 0.38761 0.24821 0.15124 0.0
H2212 H 0.42044 0.2076 0.08968 0.0
C2213 C 0.40441 0.23459 0.17615 0.0
C2214 C 0.4256 0.20974 0.17011 0.0
H2215 H 0.36838 0.26435 0.15669 0.0
H2216 H 0.39823 0.24114 0.20018 0.0
C2217 C 0.43352 0.20248 0.13849 0.0
C2218 C 0.56997 0.63627 0.90583 0.0
C2219 C 0.55504 0.66486 0.91292 0.0
H2220 H 0.57264 0.59674 0.87513 0.0
C2221 C 0.53287 0.67782 0.8918 0.0
H2222 H 0.58811 0.62667 0.9213 0.0
C2223 C 0.52338 0.66031 0.86521 0.0
C2224 C 0.53674 0.63031 0.85956 0.0
H2225 H 0.52254 0.70087 0.89622 0.0
H2226 H 0.50451 0.66929 0.85035 0.0
C2227 C 0.56154 0.61956 0.87902 0.0
C2228 C 0.08107 0.78547 0.60787 0.0
C2229 C 0.10099 0.75967 0.61371 0.0
H2230 H 0.05238 0.82159 0.62851 0.0
C2231 C 0.10083 0.74519 0.64354 0.0
H2232 H 0.08118 0.79708 0.58497 0.0
C2233 C 0.08486 0.75934 0.66868 0.0
C2234 C 0.06921 0.78831 0.66411 0.0
H2235 H 0.11633 0.7253 0.64837 0.0
H2236 H 0.08756 0.7493 0.69214 0.0
C2237 C 0.06512 0.79978 0.63303 0.0
C2238 C 0.94217 0.3193 0.38294 0.0
C2239 C 0.95548 0.32284 0.41331 0.0
H2240 H 0.94262 0.33472 0.33467 0.0
C2241 C 0.98446 0.3388 0.41637 0.0
H2242 H 0.91981 0.30734 0.37973 0.0
C2243 C 0.99735 0.35464 0.39041 0.0
C2244 C 0.98181 0.35413 0.36108 0.0
H2245 H 0.99565 0.34149 0.43929 0.0
H2246 H 0.01743 0.37015 0.39413 0.0
C2247 C 0.95539 0.33471 0.35693 0.0
C2248 C 0.43031 0.80653 0.36749 0.0
C2249 C 0.4291 0.7922 0.33743 0.0
H2250 H 0.41144 0.80667 0.41453 0.0
C2251 C 0.41594 0.76181 0.33457 0.0
H2252 H 0.44092 0.82963 0.37071 0.0
C2253 C 0.39951 0.74857 0.35996 0.0
C2254 C 0.39653 0.7654 0.38834 0.0
H2255 H 0.41551 0.74971 0.31196 0.0
H2256 H 0.38579 0.72729 0.35603 0.0
C2257 C 0.41391 0.79319 0.39283 0.0
C2258 C 0.99332 0.63149 0.10129 0.0
C2259 C 0.98434 0.64058 0.13205 0.0
H2260 H 0.98635 0.63808 0.05149 0.0
C2261 C 0.96647 0.66812 0.13621 0.0
H2262 H 0.00684 0.60997 0.09762 0.0
C2263 C 0.95433 0.68392 0.10974 0.0
C2264 C 0.9598 0.67238 0.07894 0.0
H2265 H 0.95894 0.67533 0.15967 0.0
H2266 H 0.93864 0.70369 0.11343 0.0
C2267 C 0.98126 0.64735 0.07486 0.0
C2268 C 0.09611 0.24442 0.86191 0.0
C2269 C 0.0997 0.22838 0.89061 0.0
H2270 H 0.07888 0.24236 0.81464 0.0
C2271 C 0.08245 0.2007 0.89636 0.0
H2272 H 0.11019 0.26522 0.85678 0.0
C2273 C 0.06571 0.18654 0.87169 0.0
C2274 C 0.06637 0.20022 0.84134 0.0
H2275 H 0.08547 0.18783 0.91837 0.0
H2276 H 0.05549 0.16335 0.87553 0.0
C2277 C 0.07893 0.23074 0.83751 0.0
C2278 C 0.53066 0.33207 0.63292 0.0
C2279 C 0.51302 0.35939 0.62669 0.0
H2280 H 0.55997 0.29588 0.613 0.0
C2281 C 0.50564 0.36735 0.59527 0.0
H2282 H 0.53685 0.32579 0.65702 0.0
C2283 C 0.51907 0.35062 0.57024 0.0
C2284 C 0.54031 0.32582 0.57637 0.0
H2285 H 0.49234 0.38869 0.59006 0.0
H2286 H 0.51519 0.35913 0.54635 0.0
C2287 C 0.54434 0.31539 0.60777 0.0
C2288 C 0.13668 0.39847 0.25202 0.0
C2289 C 0.10877 0.39495 0.23446 0.0
H2290 H 0.18437 0.41548 0.25207 0.0
C2291 C 0.10467 0.41211 0.20646 0.0
H2292 H 0.14026 0.38495 0.27353 0.0
C2293 C 0.12997 0.42897 0.19375 0.0
C2294 C 0.15969 0.42851 0.20892 0.0
H2295 H 0.08341 0.40916 0.19238 0.0
H2296 H 0.12706 0.43939 0.17049 0.0
C2297 C 0.16207 0.41541 0.2394 0.0
C2298 C 0.3259 0.37683 0.93126 0.0
C2299 C 0.32055 0.40435 0.94918 0.0
H2300 H 0.34937 0.33206 0.92936 0.0
C2301 C 0.32759 0.40427 0.98167 0.0
H2302 H 0.32064 0.37614 0.90616 0.0
C2303 C 0.34366 0.37862 0.99499 0.0
C2304 C 0.35249 0.35295 0.97599 0.0
H2305 H 0.32306 0.42498 0.99609 0.0
H2306 H 0.35264 0.38068 0.01887 0.0
C2307 C 0.34197 0.35135 0.9446 0.0
C2308 C 0.38299 0.59404 0.73697 0.0
C2309 C 0.40604 0.60605 0.71641 0.0
H2310 H 0.33756 0.57186 0.7404 0.0
C2311 C 0.40478 0.59876 0.68402 0.0
H2312 H 0.38311 0.60019 0.76184 0.0
C2313 C 0.37862 0.58303 0.67167 0.0
C2314 C 0.35343 0.57496 0.69168 0.0
H2315 H 0.42222 0.60836 0.66781 0.0
H2316 H 0.3766 0.58039 0.64622 0.0
C2317 C 0.35664 0.57855 0.72459 0.0
C2318 C 0.15558 0.62416 0.48998 0.0
C2319 C 0.14002 0.64494 0.46928 0.0
H2320 H 0.18203 0.58083 0.49379 0.0
C2321 C 0.14479 0.6423 0.43657 0.0
H2322 H 0.15176 0.6257 0.5153 0.0
C2323 C 0.16186 0.61701 0.42438 0.0
C2324 C 0.17382 0.59372 0.44482 0.0
H2325 H 0.13243 0.65785 0.42027 0.0
H2326 H 0.16285 0.61401 0.39889 0.0
C2327 C 0.17226 0.59829 0.47772 0.0
C2328 C 0.13753 0.59503 0.24877 0.0
C2329 C 0.11062 0.60142 0.2672 0.0
H2330 H 0.18492 0.57652 0.24842 0.0
C2331 C 0.10817 0.58866 0.29762 0.0
H2332 H 0.13993 0.6053 0.22538 0.0
C2333 C 0.13389 0.57322 0.31107 0.0
C2334 C 0.16244 0.57 0.29413 0.0
H2335 H 0.08796 0.59422 0.3125 0.0
H2336 H 0.13232 0.56679 0.33583 0.0
C2337 C 0.16343 0.57924 0.26218 0.0
C2338 C 0.14956 0.35034 0.06246 0.0
C2339 C 0.1444 0.34908 0.02975 0.0
H2340 H 0.16768 0.37727 0.10094 0.0
C2341 C 0.1596 0.37059 0.00976 0.0
H2342 H 0.1374 0.33417 0.07827 0.0
C2343 C 0.17648 0.39584 0.02263 0.0
C2344 C 0.17814 0.39938 0.05561 0.0
H2345 H 0.1549 0.37031 0.9847 0.0
H2346 H 0.18585 0.41387 0.00698 0.0
C2347 C 0.16657 0.37526 0.07537 0.0
C2348 C 0.36095 0.41215 0.81699 0.0
C2349 C 0.33545 0.42103 0.79749 0.0
H2350 H 0.40477 0.38724 0.82054 0.0
C2351 C 0.33781 0.41615 0.76463 0.0
H2352 H 0.35976 0.41507 0.84247 0.0
C2353 C 0.36431 0.40043 0.75198 0.0
C2354 C 0.38855 0.38963 0.77204 0.0
H2355 H 0.31859 0.42299 0.74908 0.0
H2356 H 0.36437 0.39407 0.72719 0.0
C2357 C 0.38704 0.39652 0.80442 0.0
C2358 C 0.35186 0.6053 0.49599 0.0
C2359 C 0.35347 0.63476 0.51117 0.0
H2360 H 0.33642 0.55721 0.49893 0.0
C2361 C 0.33601 0.64 0.53871 0.0
H2362 H 0.36611 0.60066 0.47514 0.0
C2363 C 0.3212 0.61474 0.55364 0.0
C2364 C 0.32197 0.58425 0.5402 0.0
H2365 H 0.33789 0.66232 0.55124 0.0
H2366 H 0.31234 0.61868 0.57731 0.0
C2367 C 0.33556 0.58027 0.51009 0.0
C2368 C 0.21518 0.11051 0.41627 0.0
C2369 C 0.23192 0.11482 0.388 0.0
H2370 H 0.18809 0.13309 0.45266 0.0
C2371 C 0.23989 0.14551 0.3782 0.0
H2372 H 0.20858 0.08697 0.42401 0.0
C2373 C 0.22783 0.1717 0.39416 0.0
C2374 C 0.20735 0.16748 0.42002 0.0
H2375 H 0.25247 0.14923 0.35612 0.0
H2376 H 0.23204 0.19497 0.38427 0.0
C2377 C 0.20296 0.13683 0.43225 0.0
C2378 C 0.73192 0.33244 0.58794 0.0
C2379 C 0.70198 0.33569 0.57378 0.0
H2380 H 0.76689 0.35433 0.6172 0.0
C2381 C 0.68872 0.36609 0.57074 0.0
H2382 H 0.74316 0.30947 0.59005 0.0
C2383 C 0.70306 0.39198 0.58533 0.0
C2384 C 0.73057 0.38762 0.60326 0.0
H2385 H 0.66575 0.36941 0.55996 0.0
H2386 H 0.69048 0.41435 0.58602 0.0
C2387 C 0.74598 0.35826 0.60284 0.0
C2388 C 0.38326 0.93474 0.32802 0.0
C2389 C 0.41136 0.95121 0.32123 0.0
H2390 H 0.33873 0.93582 0.35198 0.0
C2391 C 0.41284 0.98389 0.32703 0.0
H2392 H 0.38137 0.9095 0.32397 0.0
C2393 C 0.38814 -0.00108 0.34308 0.0
C2394 C 0.36169 0.9815 0.35279 0.0
H2395 H 0.43397 0.99727 0.32135 0.0
H2396 H 0.39113 0.02322 0.35068 0.0
C2397 C 0.35856 0.94986 0.34367 0.0
C2398 C 0.80524 0.60216 0.08957 0.0
C2399 C 0.77368 0.60388 0.09971 0.0
H2400 H 0.84474 0.62746 0.07084 0.0
C2401 C 0.75546 0.63055 0.09225 0.0
H2402 H 0.81996 0.5822 0.09622 0.0
C2403 C 0.76959 0.65663 0.07773 0.0
C2404 C 0.8022 0.65633 0.07108 0.0
H2405 H 0.73142 0.63272 0.10101 0.0
H2406 H 0.75566 0.67789 0.07415 0.0
C2407 C 0.81949 0.62826 0.07538 0.0
C2408 C 0.59037 0.51197 0.3264 0.0
C2409 C 0.59142 0.54418 0.31807 0.0
H2410 H 0.61217 0.47492 0.35343 0.0
C2411 C 0.61938 0.56137 0.32337 0.0
H2412 H 0.56936 0.498 0.32188 0.0
C2413 C 0.64376 0.54806 0.34116 0.0
C2414 C 0.64062 0.51738 0.35327 0.0
H2415 H 0.62102 0.58615 0.317 0.0
H2416 H 0.66322 0.56301 0.34862 0.0
C2417 C 0.61499 0.49859 0.34397 0.0
C2418 C 0.30698 0.86945 0.92334 0.0
C2419 C 0.29504 0.83853 0.9206 0.0
H2420 H 0.30389 0.91756 0.90749 0.0
C2421 C 0.26668 0.83391 0.90363 0.0
H2422 H 0.32916 0.87387 0.93514 0.0
C2423 C 0.25274 0.85888 0.88706 0.0
C2424 C 0.26635 0.88907 0.88783 0.0
H2425 H 0.25663 0.8105 0.90087 0.0
H2426 H 0.23317 0.85392 0.87122 0.0
C2427 C 0.29247 0.89461 0.90743 0.0
C2428 C 0.3796 0.00202 0.15484 0.0
C2429 C 0.35383 0.02069 0.14569 0.0
H2430 H 0.42538 0.00162 0.17636 0.0
C2431 C 0.35058 0.05149 0.15729 0.0
H2432 H 0.38268 0.97849 0.14522 0.0
C2433 C 0.37514 0.06506 0.1744 0.0
C2434 C 0.40318 0.04786 0.17951 0.0
H2435 H 0.331 0.06631 0.14973 0.0
H2436 H 0.37355 0.08998 0.18022 0.0
C2437 C 0.40424 0.01553 0.17197 0.0
C2438 C 0.11442 0.99353 0.65129 0.0
C2439 C 0.14051 0.97483 0.64284 0.0
H2440 H 0.06767 0.994 0.67112 0.0
C2441 C 0.14239 0.94349 0.65323 0.0
H2442 H 0.11235 0.01756 0.64262 0.0
C2443 C 0.11673 0.92975 0.66854 0.0
C2444 C 0.08888 0.9473 0.67363 0.0
H2445 H 0.162 0.92852 0.64605 0.0
H2446 H 0.11771 0.90462 0.67351 0.0
C2447 C 0.08862 0.97982 0.66678 0.0
loop_
_geom_bond_atom_site_label_1
_geom_bond_atom_site_label_2
_geom_bond_distance
_geom_bond_site_symmetry_2
_ccdc_geom_bond_type
O0 Mn1 2.163 . S
O0 C14 1.244 . S
Mn1 O0 2.163 . S
Mn1 O4 2.160 . S
Mn1 O5 2.221 . S
Mn1 O7 2.163 . S
Mn1 O9 2.160 . S
Mn1 O19 2.221 . S
O2 Mn3 2.087 . S
O2 C14 1.256 . S
Mn3 O2 2.087 . S
Mn3 O10 2.089 . S
Mn3 O19 2.290 . S
Mn3 O20 2.251 . S
O4 Mn1 2.160 . S
O4 C15 1.239 . S
O5 Mn1 2.221 . S
O5 Mn6 2.290 . S
O5 C16 1.278 1_455 S
Mn6 O5 2.290 . S
Mn6 O8 2.089 . S
Mn6 O11 2.251 1_455 S
Mn6 O12 2.087 1_455 S
O7 Mn1 2.163 . S
O7 C17 1.244 . S
O8 Mn6 2.089 . S
O8 C15 1.256 . S
O9 Mn1 2.160 . S
O9 C18 1.239 . S
O10 Mn3 2.089 . S
O10 C18 1.256 . S
O11 Mn6 2.251 1_655 S
O11 C16 1.241 . S
O12 Mn6 2.087 1_655 S
O12 C17 1.256 1_655 S
C13 O19 1.278 . S
C13 O20 1.241 . S
C14 O0 1.244 . S
C14 O2 1.256 . S
C15 O4 1.239 . S
C15 O8 1.256 . S
C16 O5 1.278 1_655 S
C16 O11 1.241 . S
C17 O7 1.244 . S
C17 O12 1.256 1_455 S
C18 O9 1.239 . S
C18 O10 1.256 . S
O19 Mn1 2.221 . S
O19 Mn3 2.290 . S
O19 C13 1.278 . S
O20 Mn3 2.251 . S
O20 C13 1.241 . S
O21 Mn22 2.163 . S
O21 C35 1.244 . S
Mn22 O21 2.163 . S
Mn22 O25 2.160 . S
Mn22 O26 2.221 . S
Mn22 O28 2.163 . S
Mn22 O30 2.160 . S
Mn22 O40 2.221 . S
O23 Mn24 2.087 . S
O23 C35 1.256 . S
Mn24 O23 2.087 . S
Mn24 O31 2.089 . S
Mn24 O40 2.290 . S
Mn24 O41 2.251 . S
O25 Mn22 2.160 . S
O25 C36 1.239 . S
O26 Mn22 2.221 . S
O26 Mn27 2.290 . S
O26 C37 1.278 . S
Mn27 O26 2.290 . S
Mn27 O29 2.089 . S
Mn27 O32 2.251 . S
Mn27 O33 2.087 . S
O28 Mn22 2.163 . S
O28 C38 1.244 . S
O29 Mn27 2.089 . S
O29 C36 1.256 . S
O30 Mn22 2.160 . S
O30 C39 1.239 . S
O31 Mn24 2.089 . S
O31 C39 1.256 . S
O32 Mn27 2.251 . S
O32 C37 1.241 . S
O33 Mn27 2.087 . S
O33 C38 1.256 . S
C34 O40 1.278 . S
C34 O41 1.241 . S
C35 O21 1.244 . S
C35 O23 1.256 . S
C36 O25 1.239 . S
C36 O29 1.256 . S
C37 O26 1.278 . S
C37 O32 1.241 . S
C38 O28 1.244 . S
C38 O33 1.256 . S
C39 O30 1.239 . S
C39 O31 1.256 . S
O40 Mn22 2.221 . S
O40 Mn24 2.290 . S
O40 C34 1.278 . S
O41 Mn24 2.251 . S
O41 C34 1.241 . S
O42 Mn43 2.163 . S
O42 C56 1.244 . S
Mn43 O42 2.163 . S
Mn43 O46 2.160 . S
Mn43 O47 2.221 . S
Mn43 O49 2.163 . S
Mn43 O51 2.160 . S
Mn43 O61 2.221 . S
O44 Mn45 2.087 . S
O44 C56 1.256 . S
Mn45 O44 2.087 . S
Mn45 O52 2.089 . S
Mn45 O61 2.290 . S
Mn45 O62 2.251 . S
O46 Mn43 2.160 . S
O46 C57 1.239 . S
O47 Mn43 2.221 . S
O47 Mn48 2.290 . S
O47 C58 1.278 . S
Mn48 O47 2.290 . S
Mn48 O50 2.089 . S
Mn48 O53 2.251 . S
Mn48 O54 2.087 . S
O49 Mn43 2.163 . S
O49 C59 1.244 . S
O50 Mn48 2.089 . S
O50 C57 1.256 . S
O51 Mn43 2.160 . S
O51 C60 1.239 . S
O52 Mn45 2.089 . S
O52 C60 1.256 . S
O53 Mn48 2.251 . S
O53 C58 1.241 . S
O54 Mn48 2.087 . S
O54 C59 1.256 . S
C55 O61 1.278 . S
C55 O62 1.241 . S
C56 O42 1.244 . S
C56 O44 1.256 . S
C57 O46 1.239 . S
C57 O50 1.256 . S
C58 O47 1.278 . S
C58 O53 1.241 . S
C59 O49 1.244 . S
C59 O54 1.256 . S
C60 O51 1.239 . S
C60 O52 1.256 . S
O61 Mn43 2.221 . S
O61 Mn45 2.290 . S
O61 C55 1.278 . S
O62 Mn45 2.251 . S
O62 C55 1.241 . S
O63 Mn64 2.163 . S
O63 C77 1.244 . S
Mn64 O63 2.163 . S
Mn64 O67 2.160 . S
Mn64 O68 2.221 . S
Mn64 O70 2.163 . S
Mn64 O72 2.160 . S
Mn64 O82 2.221 . S
O65 Mn66 2.087 1_556 S
O65 C77 1.256 1_556 S
Mn66 O65 2.087 1_554 S
Mn66 O73 2.089 . S
Mn66 O82 2.290 . S
Mn66 O83 2.251 1_554 S
O67 Mn64 2.160 . S
O67 C78 1.239 . S
O68 Mn64 2.221 . S
O68 Mn69 2.290 . S
O68 C79 1.278 . S
Mn69 O68 2.290 . S
Mn69 O71 2.089 . S
Mn69 O74 2.251 . S
Mn69 O75 2.087 . S
O70 Mn64 2.163 . S
O70 C80 1.244 . S
O71 Mn69 2.089 . S
O71 C78 1.256 . S
O72 Mn64 2.160 . S
O72 C81 1.239 . S
O73 Mn66 2.089 . S
O73 C81 1.256 . S
O74 Mn69 2.251 . S
O74 C79 1.241 . S
O75 Mn69 2.087 . S
O75 C80 1.256 . S
C76 O82 1.278 1_556 S
C76 O83 1.241 . S
C77 O63 1.244 . S
C77 O65 1.256 1_554 S
C78 O67 1.239 . S
C78 O71 1.256 . S
C79 O68 1.278 . S
C79 O74 1.241 . S
C80 O70 1.244 . S
C80 O75 1.256 . S
C81 O72 1.239 . S
C81 O73 1.256 . S
O82 Mn64 2.221 . S
O82 Mn66 2.290 . S
O82 C76 1.278 1_554 S
O83 Mn66 2.251 1_556 S
O83 C76 1.241 . S
O84 Mn85 2.163 . S
O84 C98 1.244 . S
Mn85 O84 2.163 . S
Mn85 O88 2.160 . S
Mn85 O89 2.221 . S
Mn85 O91 2.163 . S
Mn85 O93 2.160 . S
Mn85 O103 2.221 . S
O86 Mn87 2.087 . S
O86 C98 1.256 . S
Mn87 O86 2.087 . S
Mn87 O94 2.089 . S
Mn87 O103 2.290 . S
Mn87 O104 2.251 . S
O88 Mn85 2.160 . S
O88 C99 1.239 . S
O89 Mn85 2.221 . S
O89 Mn90 2.290 . S
O89 C100 1.278 1_455 S
Mn90 O89 2.290 . S
Mn90 O92 2.089 . S
Mn90 O95 2.251 1_455 S
Mn90 O96 2.087 1_455 S
O91 Mn85 2.163 . S
O91 C101 1.244 . S
O92 Mn90 2.089 . S
O92 C99 1.256 . S
O93 Mn85 2.160 . S
O93 C102 1.239 . S
O94 Mn87 2.089 . S
O94 C102 1.256 . S
O95 Mn90 2.251 1_655 S
O95 C100 1.241 . S
O96 Mn90 2.087 1_655 S
O96 C101 1.256 1_655 S
C97 O103 1.278 . S
C97 O104 1.241 . S
C98 O84 1.244 . S
C98 O86 1.256 . S
C99 O88 1.239 . S
C99 O92 1.256 . S
C100 O89 1.278 1_655 S
C100 O95 1.241 . S
C101 O91 1.244 . S
C101 O96 1.256 1_455 S
C102 O93 1.239 . S
C102 O94 1.256 . S
O103 Mn85 2.221 . S
O103 Mn87 2.290 . S
O103 C97 1.278 . S
O104 Mn87 2.251 . S
O104 C97 1.241 . S
O105 Mn106 2.163 . S
O105 C119 1.244 . S
Mn106 O105 2.163 . S
Mn106 O109 2.160 . S
Mn106 O110 2.221 . S
Mn106 O112 2.163 . S
Mn106 O114 2.160 . S
Mn106 O124 2.221 . S
O107 Mn108 2.087 . S
O107 C119 1.256 . S
Mn108 O107 2.087 . S
Mn108 O115 2.089 . S
Mn108 O124 2.290 . S
Mn108 O125 2.251 . S
O109 Mn106 2.160 . S
O109 C120 1.239 . S
O110 Mn106 2.221 . S
O110 Mn111 2.290 . S
O110 C121 1.278 . S
Mn111 O110 2.290 . S
Mn111 O113 2.089 . S
Mn111 O116 2.251 . S
Mn111 O117 2.087 . S
O112 Mn106 2.163 . S
O112 C122 1.244 . S
O113 Mn111 2.089 . S
O113 C120 1.256 . S
O114 Mn106 2.160 . S
O114 C123 1.239 . S
O115 Mn108 2.089 . S
O115 C123 1.256 . S
O116 Mn111 2.251 . S
O116 C121 1.241 . S
O117 Mn111 2.087 . S
O117 C122 1.256 . S
C118 O124 1.278 . S
C118 O125 1.241 . S
C119 O105 1.244 . S
C119 O107 1.256 . S
C120 O109 1.239 . S
C120 O113 1.256 . S
C121 O110 1.278 . S
C121 O116 1.241 . S
C122 O112 1.244 . S
C122 O117 1.256 . S
C123 O114 1.239 . S
C123 O115 1.256 . S
O124 Mn106 2.221 . S
O124 Mn108 2.290 . S
O124 C118 1.278 . S
O125 Mn108 2.251 . S
O125 C118 1.241 . S
O126 Mn127 2.163 . S
O126 C140 1.244 . S
Mn127 O126 2.163 . S
Mn127 O130 2.160 . S
Mn127 O131 2.221 . S
Mn127 O133 2.163 . S
Mn127 O135 2.160 . S
Mn127 O145 2.221 . S
O128 Mn129 2.087 . S
O128 C140 1.256 . S
Mn129 O128 2.087 . S
Mn129 O136 2.089 . S
Mn129 O145 2.290 . S
Mn129 O146 2.251 . S
O130 Mn127 2.160 . S
O130 C141 1.239 . S
O131 Mn127 2.221 . S
O131 Mn132 2.290 . S
O131 C142 1.278 . S
Mn132 O131 2.290 . S
Mn132 O134 2.089 . S
Mn132 O137 2.251 . S
Mn132 O138 2.087 . S
O133 Mn127 2.163 . S
O133 C143 1.244 . S
O134 Mn132 2.089 . S
O134 C141 1.256 . S
O135 Mn127 2.160 . S
O135 C144 1.239 . S
O136 Mn129 2.089 . S
O136 C144 1.256 . S
O137 Mn132 2.251 . S
O137 C142 1.241 . S
O138 Mn132 2.087 . S
O138 C143 1.256 . S
C139 O145 1.278 . S
C139 O146 1.241 . S
C140 O126 1.244 . S
C140 O128 1.256 . S
C141 O130 1.239 . S
C141 O134 1.256 . S
C142 O131 1.278 . S
C142 O137 1.241 . S
C143 O133 1.244 . S
C143 O138 1.256 . S
C144 O135 1.239 . S
C144 O136 1.256 . S
O145 Mn127 2.221 . S
O145 Mn129 2.290 . S
O145 C139 1.278 . S
O146 Mn129 2.251 . S
O146 C139 1.241 . S
O147 Mn148 2.163 . S
O147 C161 1.244 . S
Mn148 O147 2.163 . S
Mn148 O151 2.160 . S
Mn148 O152 2.221 . S
Mn148 O154 2.163 . S
Mn148 O156 2.160 . S
Mn148 O166 2.221 . S
O149 Mn150 2.087 1_554 S
O149 C161 1.256 1_554 S
Mn150 O149 2.087 1_556 S
Mn150 O157 2.089 . S
Mn150 O166 2.290 . S
Mn150 O167 2.251 1_556 S
O151 Mn148 2.160 . S
O151 C162 1.239 . S
O152 Mn148 2.221 . S
O152 Mn153 2.290 . S
O152 C163 1.278 . S
Mn153 O152 2.290 . S
Mn153 O155 2.089 . S
Mn153 O158 2.251 . S
Mn153 O159 2.087 . S
O154 Mn148 2.163 . S
O154 C164 1.244 . S
O155 Mn153 2.089 . S
O155 C162 1.256 . S
O156 Mn148 2.160 . S
O156 C165 1.239 . S
O157 Mn150 2.089 . S
O157 C165 1.256 . S
O158 Mn153 2.251 . S
O158 C163 1.241 . S
O159 Mn153 2.087 . S
O159 C164 1.256 . S
C160 O166 1.278 1_554 S
C160 O167 1.241 . S
C161 O147 1.244 . S
C161 O149 1.256 1_556 S
C162 O151 1.239 . S
C162 O155 1.256 . S
C163 O152 1.278 . S
C163 O158 1.241 . S
C164 O154 1.244 . S
C164 O159 1.256 . S
C165 O156 1.239 . S
C165 O157 1.256 . S
O166 Mn148 2.221 . S
O166 Mn150 2.290 . S
O166 C160 1.278 1_556 S
O167 Mn150 2.251 1_554 S
O167 C160 1.241 . S
O168 Mn169 2.163 . S
O168 C182 1.244 . S
Mn169 O168 2.163 . S
Mn169 O172 2.160 . S
Mn169 O173 2.221 . S
Mn169 O175 2.163 . S
Mn169 O177 2.160 . S
Mn169 O187 2.221 . S
O170 Mn171 2.087 . S
O170 C182 1.256 . S
Mn171 O170 2.087 . S
Mn171 O178 2.089 . S
Mn171 O187 2.290 . S
Mn171 O188 2.251 . S
O172 Mn169 2.160 . S
O172 C183 1.239 . S
O173 Mn169 2.221 . S
O173 Mn174 2.290 . S
O173 C184 1.278 1_545 S
Mn174 O173 2.290 . S
Mn174 O176 2.089 . S
Mn174 O179 2.251 1_545 S
Mn174 O180 2.087 1_545 S
O175 Mn169 2.163 . S
O175 C185 1.244 . S
O176 Mn174 2.089 . S
O176 C183 1.256 . S
O177 Mn169 2.160 . S
O177 C186 1.239 . S
O178 Mn171 2.089 . S
O178 C186 1.256 . S
O179 Mn174 2.251 1_565 S
O179 C184 1.241 . S
O180 Mn174 2.087 1_565 S
O180 C185 1.256 1_565 S
C181 O187 1.278 . S
C181 O188 1.241 . S
C182 O168 1.244 . S
C182 O170 1.256 . S
C183 O172 1.239 . S
C183 O176 1.256 . S
C184 O173 1.278 1_565 S
C184 O179 1.241 . S
C185 O175 1.244 . S
C185 O180 1.256 1_545 S
C186 O177 1.239 . S
C186 O178 1.256 . S
O187 Mn169 2.221 . S
O187 Mn171 2.290 . S
O187 C181 1.278 . S
O188 Mn171 2.251 . S
O188 C181 1.241 . S
O189 Mn190 2.163 . S
O189 C203 1.244 . S
Mn190 O189 2.163 . S
Mn190 O193 2.160 . S
Mn190 O194 2.221 . S
Mn190 O196 2.163 . S
Mn190 O198 2.160 . S
Mn190 O208 2.221 . S
O191 Mn192 2.087 1_565 S
O191 C203 1.256 1_565 S
Mn192 O191 2.087 1_545 S
Mn192 O199 2.089 . S
Mn192 O208 2.290 . S
Mn192 O209 2.251 1_545 S
O193 Mn190 2.160 . S
O193 C204 1.239 . S
O194 Mn190 2.221 . S
O194 Mn195 2.290 . S
O194 C205 1.278 . S
Mn195 O194 2.290 . S
Mn195 O197 2.089 . S
Mn195 O200 2.251 . S
Mn195 O201 2.087 . S
O196 Mn190 2.163 . S
O196 C206 1.244 . S
O197 Mn195 2.089 . S
O197 C204 1.256 . S
O198 Mn190 2.160 . S
O198 C207 1.239 . S
O199 Mn192 2.089 . S
O199 C207 1.256 . S
O200 Mn195 2.251 . S
O200 C205 1.241 . S
O201 Mn195 2.087 . S
O201 C206 1.256 . S
C202 O208 1.278 1_565 S
C202 O209 1.241 . S
C203 O189 1.244 . S
C203 O191 1.256 1_545 S
C204 O193 1.239 . S
C204 O197 1.256 . S
C205 O194 1.278 . S
C205 O200 1.241 . S
C206 O196 1.244 . S
C206 O201 1.256 . S
C207 O198 1.239 . S
C207 O199 1.256 . S
O208 Mn190 2.221 . S
O208 Mn192 2.290 . S
O208 C202 1.278 1_545 S
O209 Mn192 2.251 1_565 S
O209 C202 1.241 . S
O210 Mn211 2.163 . S
O210 C224 1.244 . S
Mn211 O210 2.163 . S
Mn211 O214 2.160 . S
Mn211 O215 2.221 . S
Mn211 O217 2.163 . S
Mn211 O219 2.160 . S
Mn211 O229 2.221 . S
O212 Mn213 2.087 1_545 S
O212 C224 1.256 1_545 S
Mn213 O212 2.087 1_565 S
Mn213 O220 2.089 . S
Mn213 O229 2.290 . S
Mn213 O230 2.251 1_565 S
O214 Mn211 2.160 . S
O214 C225 1.239 . S
O215 Mn211 2.221 . S
O215 Mn216 2.290 . S
O215 C226 1.278 . S
Mn216 O215 2.290 . S
Mn216 O218 2.089 . S
Mn216 O221 2.251 . S
Mn216 O222 2.087 . S
O217 Mn211 2.163 . S
O217 C227 1.244 . S
O218 Mn216 2.089 . S
O218 C225 1.256 . S
O219 Mn211 2.160 . S
O219 C228 1.239 . S
O220 Mn213 2.089 . S
O220 C228 1.256 . S
O221 Mn216 2.251 . S
O221 C226 1.241 . S
O222 Mn216 2.087 . S
O222 C227 1.256 . S
C223 O229 1.278 1_545 S
C223 O230 1.241 . S
C224 O210 1.244 . S
C224 O212 1.256 1_565 S
C225 O214 1.239 . S
C225 O218 1.256 . S
C226 O215 1.278 . S
C226 O221 1.241 . S
C227 O217 1.244 . S
C227 O222 1.256 . S
C228 O219 1.239 . S
C228 O220 1.256 . S
O229 Mn211 2.221 . S
O229 Mn213 2.290 . S
O229 C223 1.278 1_565 S
O230 Mn213 2.251 1_545 S
O230 C223 1.241 . S
O231 Mn232 2.163 . S
O231 C245 1.244 . S
Mn232 O231 2.163 . S
Mn232 O235 2.160 . S
Mn232 O236 2.221 . S
Mn232 O238 2.163 . S
Mn232 O240 2.160 . S
Mn232 O250 2.221 . S
O233 Mn234 2.087 1_545 S
O233 C245 1.256 1_545 S
Mn234 O233 2.087 1_565 S
Mn234 O241 2.089 . S
Mn234 O250 2.290 . S
Mn234 O251 2.251 1_565 S
O235 Mn232 2.160 . S
O235 C246 1.239 . S
O236 Mn232 2.221 . S
O236 Mn237 2.290 . S
O236 C247 1.278 . S
Mn237 O236 2.290 . S
Mn237 O239 2.089 . S
Mn237 O242 2.251 . S
Mn237 O243 2.087 . S
O238 Mn232 2.163 . S
O238 C248 1.244 . S
O239 Mn237 2.089 . S
O239 C246 1.256 . S
O240 Mn232 2.160 . S
O240 C249 1.239 . S
O241 Mn234 2.089 . S
O241 C249 1.256 . S
O242 Mn237 2.251 . S
O242 C247 1.241 . S
O243 Mn237 2.087 . S
O243 C248 1.256 . S
C244 O250 1.278 1_545 S
C244 O251 1.241 . S
C245 O231 1.244 . S
C245 O233 1.256 1_565 S
C246 O235 1.239 . S
C246 O239 1.256 . S
C247 O236 1.278 . S
C247 O242 1.241 . S
C248 O238 1.244 . S
C248 O243 1.256 . S
C249 O240 1.239 . S
C249 O241 1.256 . S
O250 Mn232 2.221 . S
O250 Mn234 2.290 . S
O250 C244 1.278 1_565 S
O251 Mn234 2.251 1_545 S
O251 C244 1.241 . S
O252 Mn253 2.163 . S
O252 C266 1.244 . S
Mn253 O252 2.163 . S
Mn253 O256 2.160 . S
Mn253 O257 2.221 . S
Mn253 O259 2.163 . S
Mn253 O261 2.160 . S
Mn253 O271 2.221 . S
O254 Mn255 2.087 1_556 S
O254 C266 1.256 1_556 S
Mn255 O254 2.087 1_554 S
Mn255 O262 2.089 . S
Mn255 O271 2.290 . S
Mn255 O272 2.251 1_554 S
O256 Mn253 2.160 . S
O256 C267 1.239 . S
O257 Mn253 2.221 . S
O257 Mn258 2.290 . S
O257 C268 1.278 . S
Mn258 O257 2.290 . S
Mn258 O260 2.089 . S
Mn258 O263 2.251 . S
Mn258 O264 2.087 . S
O259 Mn253 2.163 . S
O259 C269 1.244 . S
O260 Mn258 2.089 . S
O260 C267 1.256 . S
O261 Mn253 2.160 . S
O261 C270 1.239 . S
O262 Mn255 2.089 . S
O262 C270 1.256 . S
O263 Mn258 2.251 . S
O263 C268 1.241 . S
O264 Mn258 2.087 . S
O264 C269 1.256 . S
C265 O271 1.278 1_556 S
C265 O272 1.241 . S
C266 O252 1.244 . S
C266 O254 1.256 1_554 S
C267 O256 1.239 . S
C267 O260 1.256 . S
C268 O257 1.278 . S
C268 O263 1.241 . S
C269 O259 1.244 . S
C269 O264 1.256 . S
C270 O261 1.239 . S
C270 O262 1.256 . S
O271 Mn253 2.221 . S
O271 Mn255 2.290 . S
O271 C265 1.278 1_554 S
O272 Mn255 2.251 1_556 S
O272 C265 1.241 . S
O273 Mn274 2.163 . S
O273 C287 1.244 . S
Mn274 O273 2.163 . S
Mn274 O277 2.160 . S
Mn274 O278 2.221 . S
Mn274 O280 2.163 . S
Mn274 O282 2.160 . S
Mn274 O292 2.221 . S
O275 Mn276 2.087 1_455 S
O275 C287 1.256 1_455 S
Mn276 O275 2.087 1_655 S
Mn276 O283 2.089 . S
Mn276 O292 2.290 . S
Mn276 O293 2.251 1_655 S
O277 Mn274 2.160 . S
O277 C288 1.239 . S
O278 Mn274 2.221 . S
O278 Mn279 2.290 . S
O278 C289 1.278 . S
Mn279 O278 2.290 . S
Mn279 O281 2.089 . S
Mn279 O284 2.251 . S
Mn279 O285 2.087 . S
O280 Mn274 2.163 . S
O280 C290 1.244 . S
O281 Mn279 2.089 . S
O281 C288 1.256 . S
O282 Mn274 2.160 . S
O282 C291 1.239 . S
O283 Mn276 2.089 . S
O283 C291 1.256 . S
O284 Mn279 2.251 . S
O284 C289 1.241 . S
O285 Mn279 2.087 . S
O285 C290 1.256 . S
C286 O292 1.278 1_455 S
C286 O293 1.241 . S
C287 O273 1.244 . S
C287 O275 1.256 1_655 S
C288 O277 1.239 . S
C288 O281 1.256 . S
C289 O278 1.278 . S
C289 O284 1.241 . S
C290 O280 1.244 . S
C290 O285 1.256 . S
C291 O282 1.239 . S
C291 O283 1.256 . S
O292 Mn274 2.221 . S
O292 Mn276 2.290 . S
O292 C286 1.278 1_655 S
O293 Mn276 2.251 1_455 S
O293 C286 1.241 . S
O294 Mn295 2.163 . S
O294 C308 1.244 . S
Mn295 O294 2.163 . S
Mn295 O298 2.160 . S
Mn295 O299 2.221 . S
Mn295 O301 2.163 . S
Mn295 O303 2.160 . S
Mn295 O313 2.221 . S
O296 Mn297 2.087 . S
O296 C308 1.256 . S
Mn297 O296 2.087 . S
Mn297 O304 2.089 . S
Mn297 O313 2.290 . S
Mn297 O314 2.251 . S
O298 Mn295 2.160 . S
O298 C309 1.239 . S
O299 Mn295 2.221 . S
O299 Mn300 2.290 . S
O299 C310 1.278 . S
Mn300 O299 2.290 . S
Mn300 O302 2.089 . S
Mn300 O305 2.251 . S
Mn300 O306 2.087 . S
O301 Mn295 2.163 . S
O301 C311 1.244 . S
O302 Mn300 2.089 . S
O302 C309 1.256 . S
O303 Mn295 2.160 . S
O303 C312 1.239 . S
O304 Mn297 2.089 . S
O304 C312 1.256 . S
O305 Mn300 2.251 . S
O305 C310 1.241 . S
O306 Mn300 2.087 . S
O306 C311 1.256 . S
C307 O313 1.278 . S
C307 O314 1.241 . S
C308 O294 1.244 . S
C308 O296 1.256 . S
C309 O298 1.239 . S
C309 O302 1.256 . S
C310 O299 1.278 . S
C310 O305 1.241 . S
C311 O301 1.244 . S
C311 O306 1.256 . S
C312 O303 1.239 . S
C312 O304 1.256 . S
O313 Mn295 2.221 . S
O313 Mn297 2.290 . S
O313 C307 1.278 . S
O314 Mn297 2.251 . S
O314 C307 1.241 . S
O315 Mn316 2.163 . S
O315 C329 1.244 . S
Mn316 O315 2.163 . S
Mn316 O319 2.160 . S
Mn316 O320 2.221 . S
Mn316 O322 2.163 . S
Mn316 O324 2.160 . S
Mn316 O334 2.221 . S
O317 Mn318 2.087 . S
O317 C329 1.256 . S
Mn318 O317 2.087 . S
Mn318 O325 2.089 . S
Mn318 O334 2.290 . S
Mn318 O335 2.251 . S
O319 Mn316 2.160 . S
O319 C330 1.239 . S
O320 Mn316 2.221 . S
O320 Mn321 2.290 . S
O320 C331 1.278 1_655 S
Mn321 O320 2.290 . S
Mn321 O323 2.089 . S
Mn321 O326 2.251 1_655 S
Mn321 O327 2.087 1_655 S
O322 Mn316 2.163 . S
O322 C332 1.244 . S
O323 Mn321 2.089 . S
O323 C330 1.256 . S
O324 Mn316 2.160 . S
O324 C333 1.239 . S
O325 Mn318 2.089 . S
O325 C333 1.256 . S
O326 Mn321 2.251 1_455 S
O326 C331 1.241 . S
O327 Mn321 2.087 1_455 S
O327 C332 1.256 1_455 S
C328 O334 1.278 . S
C328 O335 1.241 . S
C329 O315 1.244 . S
C329 O317 1.256 . S
C330 O319 1.239 . S
C330 O323 1.256 . S
C331 O320 1.278 1_455 S
C331 O326 1.241 . S
C332 O322 1.244 . S
C332 O327 1.256 1_655 S
C333 O324 1.239 . S
C333 O325 1.256 . S
O334 Mn316 2.221 . S
O334 Mn318 2.290 . S
O334 C328 1.278 . S
O335 Mn318 2.251 . S
O335 C328 1.241 . S
O336 Mn337 2.163 . S
O336 C350 1.244 . S
Mn337 O336 2.163 . S
Mn337 O340 2.160 . S
Mn337 O341 2.221 . S
Mn337 O343 2.163 . S
Mn337 O345 2.160 . S
Mn337 O355 2.221 . S
O338 Mn339 2.087 . S
O338 C350 1.256 . S
Mn339 O338 2.087 . S
Mn339 O346 2.089 . S
Mn339 O355 2.290 . S
Mn339 O356 2.251 . S
O340 Mn337 2.160 . S
O340 C351 1.239 . S
O341 Mn337 2.221 . S
O341 Mn342 2.290 . S
O341 C352 1.278 . S
Mn342 O341 2.290 . S
Mn342 O344 2.089 . S
Mn342 O347 2.251 . S
Mn342 O348 2.087 . S
O343 Mn337 2.163 . S
O343 C353 1.244 . S
O344 Mn342 2.089 . S
O344 C351 1.256 . S
O345 Mn337 2.160 . S
O345 C354 1.239 . S
O346 Mn339 2.089 . S
O346 C354 1.256 . S
O347 Mn342 2.251 . S
O347 C352 1.241 . S
O348 Mn342 2.087 . S
O348 C353 1.256 . S
C349 O355 1.278 . S
C349 O356 1.241 . S
C350 O336 1.244 . S
C350 O338 1.256 . S
C351 O340 1.239 . S
C351 O344 1.256 . S
C352 O341 1.278 . S
C352 O347 1.241 . S
C353 O343 1.244 . S
C353 O348 1.256 . S
C354 O345 1.239 . S
C354 O346 1.256 . S
O355 Mn337 2.221 . S
O355 Mn339 2.290 . S
O355 C349 1.278 . S
O356 Mn339 2.251 . S
O356 C349 1.241 . S
O357 Mn358 2.163 . S
O357 C371 1.244 . S
Mn358 O357 2.163 . S
Mn358 O361 2.160 . S
Mn358 O362 2.221 . S
Mn358 O364 2.163 . S
Mn358 O366 2.160 . S
Mn358 O376 2.221 . S
O359 Mn360 2.087 . S
O359 C371 1.256 . S
Mn360 O359 2.087 . S
Mn360 O367 2.089 . S
Mn360 O376 2.290 . S
Mn360 O377 2.251 . S
O361 Mn358 2.160 . S
O361 C372 1.239 . S
O362 Mn358 2.221 . S
O362 Mn363 2.290 . S
O362 C373 1.278 . S
Mn363 O362 2.290 . S
Mn363 O365 2.089 . S
Mn363 O368 2.251 . S
Mn363 O369 2.087 . S
O364 Mn358 2.163 . S
O364 C374 1.244 . S
O365 Mn363 2.089 . S
O365 C372 1.256 . S
O366 Mn358 2.160 . S
O366 C375 1.239 . S
O367 Mn360 2.089 . S
O367 C375 1.256 . S
O368 Mn363 2.251 . S
O368 C373 1.241 . S
O369 Mn363 2.087 . S
O369 C374 1.256 . S
C370 O376 1.278 . S
C370 O377 1.241 . S
C371 O357 1.244 . S
C371 O359 1.256 . S
C372 O361 1.239 . S
C372 O365 1.256 . S
C373 O362 1.278 . S
C373 O368 1.241 . S
C374 O364 1.244 . S
C374 O369 1.256 . S
C375 O366 1.239 . S
C375 O367 1.256 . S
O376 Mn358 2.221 . S
O376 Mn360 2.290 . S
O376 C370 1.278 . S
O377 Mn360 2.251 . S
O377 C370 1.241 . S
O378 Mn379 2.163 . S
O378 C392 1.244 . S
Mn379 O378 2.163 . S
Mn379 O382 2.160 . S
Mn379 O383 2.221 . S
Mn379 O385 2.163 . S
Mn379 O387 2.160 . S
Mn379 O397 2.221 . S
O380 Mn381 2.087 1_554 S
O380 C392 1.256 1_554 S
Mn381 O380 2.087 1_556 S
Mn381 O388 2.089 . S
Mn381 O397 2.290 . S
Mn381 O398 2.251 1_556 S
O382 Mn379 2.160 . S
O382 C393 1.239 . S
O383 Mn379 2.221 . S
O383 Mn384 2.290 . S
O383 C394 1.278 . S
Mn384 O383 2.290 . S
Mn384 O386 2.089 . S
Mn384 O389 2.251 . S
Mn384 O390 2.087 . S
O385 Mn379 2.163 . S
O385 C395 1.244 . S
O386 Mn384 2.089 . S
O386 C393 1.256 . S
O387 Mn379 2.160 . S
O387 C396 1.239 . S
O388 Mn381 2.089 . S
O388 C396 1.256 . S
O389 Mn384 2.251 . S
O389 C394 1.241 . S
O390 Mn384 2.087 . S
O390 C395 1.256 . S
C391 O397 1.278 1_554 S
C391 O398 1.241 . S
C392 O378 1.244 . S
C392 O380 1.256 1_556 S
C393 O382 1.239 . S
C393 O386 1.256 . S
C394 O383 1.278 . S
C394 O389 1.241 . S
C395 O385 1.244 . S
C395 O390 1.256 . S
C396 O387 1.239 . S
C396 O388 1.256 . S
O397 Mn379 2.221 . S
O397 Mn381 2.290 . S
O397 C391 1.278 1_556 S
O398 Mn381 2.251 1_554 S
O398 C391 1.241 . S
O399 Mn400 2.163 . S
O399 C413 1.244 . S
Mn400 O399 2.163 . S
Mn400 O403 2.160 . S
Mn400 O404 2.221 . S
Mn400 O406 2.163 . S
Mn400 O408 2.160 . S
Mn400 O418 2.221 . S
O401 Mn402 2.087 1_455 S
O401 C413 1.256 1_455 S
Mn402 O401 2.087 1_655 S
Mn402 O409 2.089 . S
Mn402 O418 2.290 . S
Mn402 O419 2.251 1_655 S
O403 Mn400 2.160 . S
O403 C414 1.239 . S
O404 Mn400 2.221 . S
O404 Mn405 2.290 . S
O404 C415 1.278 . S
Mn405 O404 2.290 . S
Mn405 O407 2.089 . S
Mn405 O410 2.251 . S
Mn405 O411 2.087 . S
O406 Mn400 2.163 . S
O406 C416 1.244 . S
O407 Mn405 2.089 . S
O407 C414 1.256 . S
O408 Mn400 2.160 . S
O408 C417 1.239 . S
O409 Mn402 2.089 . S
O409 C417 1.256 . S
O410 Mn405 2.251 . S
O410 C415 1.241 . S
O411 Mn405 2.087 . S
O411 C416 1.256 . S
C412 O418 1.278 1_455 S
C412 O419 1.241 . S
C413 O399 1.244 . S
C413 O401 1.256 1_655 S
C414 O403 1.239 . S
C414 O407 1.256 . S
C415 O404 1.278 . S
C415 O410 1.241 . S
C416 O406 1.244 . S
C416 O411 1.256 . S
C417 O408 1.239 . S
C417 O409 1.256 . S
O418 Mn400 2.221 . S
O418 Mn402 2.290 . S
O418 C412 1.278 1_655 S
O419 Mn402 2.251 1_455 S
O419 C412 1.241 . S
O420 Mn421 2.163 . S
O420 C434 1.244 . S
Mn421 O420 2.163 . S
Mn421 O424 2.160 . S
Mn421 O425 2.221 . S
Mn421 O427 2.163 . S
Mn421 O429 2.160 . S
Mn421 O439 2.221 . S
O422 Mn423 2.087 . S
O422 C434 1.256 . S
Mn423 O422 2.087 . S
Mn423 O430 2.089 . S
Mn423 O439 2.290 . S
Mn423 O440 2.251 . S
O424 Mn421 2.160 . S
O424 C435 1.239 . S
O425 Mn421 2.221 . S
O425 Mn426 2.290 . S
O425 C436 1.278 . S
Mn426 O425 2.290 . S
Mn426 O428 2.089 . S
Mn426 O431 2.251 . S
Mn426 O432 2.087 . S
O427 Mn421 2.163 . S
O427 C437 1.244 . S
O428 Mn426 2.089 . S
O428 C435 1.256 . S
O429 Mn421 2.160 . S
O429 C438 1.239 . S
O430 Mn423 2.089 . S
O430 C438 1.256 . S
O431 Mn426 2.251 . S
O431 C436 1.241 . S
O432 Mn426 2.087 . S
O432 C437 1.256 . S
C433 O439 1.278 . S
C433 O440 1.241 . S
C434 O420 1.244 . S
C434 O422 1.256 . S
C435 O424 1.239 . S
C435 O428 1.256 . S
C436 O425 1.278 . S
C436 O431 1.241 . S
C437 O427 1.244 . S
C437 O432 1.256 . S
C438 O429 1.239 . S
C438 O430 1.256 . S
O439 Mn421 2.221 . S
O439 Mn423 2.290 . S
O439 C433 1.278 . S
O440 Mn423 2.251 . S
O440 C433 1.241 . S
O441 Mn442 2.163 . S
O441 C455 1.244 . S
Mn442 O441 2.163 . S
Mn442 O445 2.160 . S
Mn442 O446 2.221 . S
Mn442 O448 2.163 . S
Mn442 O450 2.160 . S
Mn442 O460 2.221 . S
O443 Mn444 2.087 . S
O443 C455 1.256 . S
Mn444 O443 2.087 . S
Mn444 O451 2.089 . S
Mn444 O460 2.290 . S
Mn444 O461 2.251 . S
O445 Mn442 2.160 . S
O445 C456 1.239 . S
O446 Mn442 2.221 . S
O446 Mn447 2.290 . S
O446 C457 1.278 . S
Mn447 O446 2.290 . S
Mn447 O449 2.089 . S
Mn447 O452 2.251 . S
Mn447 O453 2.087 . S
O448 Mn442 2.163 . S
O448 C458 1.244 . S
O449 Mn447 2.089 . S
O449 C456 1.256 . S
O450 Mn442 2.160 . S
O450 C459 1.239 . S
O451 Mn444 2.089 . S
O451 C459 1.256 . S
O452 Mn447 2.251 . S
O452 C457 1.241 . S
O453 Mn447 2.087 . S
O453 C458 1.256 . S
C454 O460 1.278 . S
C454 O461 1.241 . S
C455 O441 1.244 . S
C455 O443 1.256 . S
C456 O445 1.239 . S
C456 O449 1.256 . S
C457 O446 1.278 . S
C457 O452 1.241 . S
C458 O448 1.244 . S
C458 O453 1.256 . S
C459 O450 1.239 . S
C459 O451 1.256 . S
O460 Mn442 2.221 . S
O460 Mn444 2.290 . S
O460 C454 1.278 . S
O461 Mn444 2.251 . S
O461 C454 1.241 . S
O462 Mn463 2.163 . S
O462 C476 1.244 . S
Mn463 O462 2.163 . S
Mn463 O466 2.160 . S
Mn463 O467 2.221 . S
Mn463 O469 2.163 . S
Mn463 O471 2.160 . S
Mn463 O481 2.221 . S
O464 Mn465 2.087 1_556 S
O464 C476 1.256 1_556 S
Mn465 O464 2.087 1_554 S
Mn465 O472 2.089 . S
Mn465 O481 2.290 . S
Mn465 O482 2.251 1_554 S
O466 Mn463 2.160 . S
O466 C477 1.239 . S
O467 Mn463 2.221 . S
O467 Mn468 2.290 . S
O467 C478 1.278 . S
Mn468 O467 2.290 . S
Mn468 O470 2.089 . S
Mn468 O473 2.251 . S
Mn468 O474 2.087 . S
O469 Mn463 2.163 . S
O469 C479 1.244 . S
O470 Mn468 2.089 . S
O470 C477 1.256 . S
O471 Mn463 2.160 . S
O471 C480 1.239 . S
O472 Mn465 2.089 . S
O472 C480 1.256 . S
O473 Mn468 2.251 . S
O473 C478 1.241 . S
O474 Mn468 2.087 . S
O474 C479 1.256 . S
C475 O481 1.278 1_556 S
C475 O482 1.241 . S
C476 O462 1.244 . S
C476 O464 1.256 1_554 S
C477 O466 1.239 . S
C477 O470 1.256 . S
C478 O467 1.278 . S
C478 O473 1.241 . S
C479 O469 1.244 . S
C479 O474 1.256 . S
C480 O471 1.239 . S
C480 O472 1.256 . S
O481 Mn463 2.221 . S
O481 Mn465 2.290 . S
O481 C475 1.278 1_554 S
O482 Mn465 2.251 1_556 S
O482 C475 1.241 . S
O483 Mn484 2.163 . S
O483 C497 1.244 . S
Mn484 O483 2.163 . S
Mn484 O487 2.160 . S
Mn484 O488 2.221 . S
Mn484 O490 2.163 . S
Mn484 O492 2.160 . S
Mn484 O502 2.221 . S
O485 Mn486 2.087 . S
O485 C497 1.256 . S
Mn486 O485 2.087 . S
Mn486 O493 2.089 . S
Mn486 O502 2.290 . S
Mn486 O503 2.251 . S
O487 Mn484 2.160 . S
O487 C498 1.239 . S
O488 Mn484 2.221 . S
O488 Mn489 2.290 . S
O488 C499 1.278 1_565 S
Mn489 O488 2.290 . S
Mn489 O491 2.089 . S
Mn489 O494 2.251 1_565 S
Mn489 O495 2.087 1_565 S
O490 Mn484 2.163 . S
O490 C500 1.244 . S
O491 Mn489 2.089 . S
O491 C498 1.256 . S
O492 Mn484 2.160 . S
O492 C501 1.239 . S
O493 Mn486 2.089 . S
O493 C501 1.256 . S
O494 Mn489 2.251 1_545 S
O494 C499 1.241 . S
O495 Mn489 2.087 1_545 S
O495 C500 1.256 1_545 S
C496 O502 1.278 . S
C496 O503 1.241 . S
C497 O483 1.244 . S
C497 O485 1.256 . S
C498 O487 1.239 . S
C498 O491 1.256 . S
C499 O488 1.278 1_545 S
C499 O494 1.241 . S
C500 O490 1.244 . S
C500 O495 1.256 1_565 S
C501 O492 1.239 . S
C501 O493 1.256 . S
O502 Mn484 2.221 . S
O502 Mn486 2.290 . S
O502 C496 1.278 . S
O503 Mn486 2.251 . S
O503 C496 1.241 . S
O504 Mn505 2.163 . S
O504 C518 1.244 . S
Mn505 O504 2.163 . S
Mn505 O508 2.160 . S
Mn505 O509 2.221 . S
Mn505 O511 2.163 . S
Mn505 O513 2.160 . S
Mn505 O523 2.221 . S
O506 Mn507 2.087 . S
O506 C518 1.256 . S
Mn507 O506 2.087 . S
Mn507 O514 2.089 . S
Mn507 O523 2.290 . S
Mn507 O524 2.251 . S
O508 Mn505 2.160 . S
O508 C519 1.239 . S
O509 Mn505 2.221 . S
O509 Mn510 2.290 . S
O509 C520 1.278 1_565 S
Mn510 O509 2.290 . S
Mn510 O512 2.089 . S
Mn510 O515 2.251 1_565 S
Mn510 O516 2.087 1_565 S
O511 Mn505 2.163 . S
O511 C521 1.244 . S
O512 Mn510 2.089 . S
O512 C519 1.256 . S
O513 Mn505 2.160 . S
O513 C522 1.239 . S
O514 Mn507 2.089 . S
O514 C522 1.256 . S
O515 Mn510 2.251 1_545 S
O515 C520 1.241 . S
O516 Mn510 2.087 1_545 S
O516 C521 1.256 1_545 S
C517 O523 1.278 . S
C517 O524 1.241 . S
C518 O504 1.244 . S
C518 O506 1.256 . S
C519 O508 1.239 . S
C519 O512 1.256 . S
C520 O509 1.278 1_545 S
C520 O515 1.241 . S
C521 O511 1.244 . S
C521 O516 1.256 1_565 S
C522 O513 1.239 . S
C522 O514 1.256 . S
O523 Mn505 2.221 . S
O523 Mn507 2.290 . S
O523 C517 1.278 . S
O524 Mn507 2.251 . S
O524 C517 1.241 . S
O525 Mn526 2.163 . S
O525 C539 1.244 . S
Mn526 O525 2.163 . S
Mn526 O529 2.160 . S
Mn526 O530 2.221 . S
Mn526 O532 2.163 . S
Mn526 O534 2.160 . S
Mn526 O544 2.221 . S
O527 Mn528 2.087 . S
O527 C539 1.256 . S
Mn528 O527 2.087 . S
Mn528 O535 2.089 . S
Mn528 O544 2.290 . S
Mn528 O545 2.251 . S
O529 Mn526 2.160 . S
O529 C540 1.239 . S
O530 Mn526 2.221 . S
O530 Mn531 2.290 . S
O530 C541 1.278 1_545 S
Mn531 O530 2.290 . S
Mn531 O533 2.089 . S
Mn531 O536 2.251 1_545 S
Mn531 O537 2.087 1_545 S
O532 Mn526 2.163 . S
O532 C542 1.244 . S
O533 Mn531 2.089 . S
O533 C540 1.256 . S
O534 Mn526 2.160 . S
O534 C543 1.239 . S
O535 Mn528 2.089 . S
O535 C543 1.256 . S
O536 Mn531 2.251 1_565 S
O536 C541 1.241 . S
O537 Mn531 2.087 1_565 S
O537 C542 1.256 1_565 S
C538 O544 1.278 . S
C538 O545 1.241 . S
C539 O525 1.244 . S
C539 O527 1.256 . S
C540 O529 1.239 . S
C540 O533 1.256 . S
C541 O530 1.278 1_565 S
C541 O536 1.241 . S
C542 O532 1.244 . S
C542 O537 1.256 1_545 S
C543 O534 1.239 . S
C543 O535 1.256 . S
O544 Mn526 2.221 . S
O544 Mn528 2.290 . S
O544 C538 1.278 . S
O545 Mn528 2.251 . S
O545 C538 1.241 . S
O546 Mn547 2.163 . S
O546 C560 1.244 . S
Mn547 O546 2.163 . S
Mn547 O550 2.160 . S
Mn547 O551 2.221 . S
Mn547 O553 2.163 . S
Mn547 O555 2.160 . S
Mn547 O565 2.221 . S
O548 Mn549 2.087 1_565 S
O548 C560 1.256 1_565 S
Mn549 O548 2.087 1_545 S
Mn549 O556 2.089 . S
Mn549 O565 2.290 . S
Mn549 O566 2.251 1_545 S
O550 Mn547 2.160 . S
O550 C561 1.239 . S
O551 Mn547 2.221 . S
O551 Mn552 2.290 . S
O551 C562 1.278 . S
Mn552 O551 2.290 . S
Mn552 O554 2.089 . S
Mn552 O557 2.251 . S
Mn552 O558 2.087 . S
O553 Mn547 2.163 . S
O553 C563 1.244 . S
O554 Mn552 2.089 . S
O554 C561 1.256 . S
O555 Mn547 2.160 . S
O555 C564 1.239 . S
O556 Mn549 2.089 . S
O556 C564 1.256 . S
O557 Mn552 2.251 . S
O557 C562 1.241 . S
O558 Mn552 2.087 . S
O558 C563 1.256 . S
C559 O565 1.278 1_565 S
C559 O566 1.241 . S
C560 O546 1.244 . S
C560 O548 1.256 1_545 S
C561 O550 1.239 . S
C561 O554 1.256 . S
C562 O551 1.278 . S
C562 O557 1.241 . S
C563 O553 1.244 . S
C563 O558 1.256 . S
C564 O555 1.239 . S
C564 O556 1.256 . S
O565 Mn547 2.221 . S
O565 Mn549 2.290 . S
O565 C559 1.278 1_545 S
O566 Mn549 2.251 1_565 S
O566 C559 1.241 . S
O567 Mn568 2.163 . S
O567 C581 1.244 . S
Mn568 O567 2.163 . S
Mn568 O571 2.160 . S
Mn568 O572 2.221 . S
Mn568 O574 2.163 . S
Mn568 O576 2.160 . S
Mn568 O586 2.221 . S
O569 Mn570 2.087 1_554 S
O569 C581 1.256 1_554 S
Mn570 O569 2.087 1_556 S
Mn570 O577 2.089 . S
Mn570 O586 2.290 . S
Mn570 O587 2.251 1_556 S
O571 Mn568 2.160 . S
O571 C582 1.239 . S
O572 Mn568 2.221 . S
O572 Mn573 2.290 . S
O572 C583 1.278 . S
Mn573 O572 2.290 . S
Mn573 O575 2.089 . S
Mn573 O578 2.251 . S
Mn573 O579 2.087 . S
O574 Mn568 2.163 . S
O574 C584 1.244 . S
O575 Mn573 2.089 . S
O575 C582 1.256 . S
O576 Mn568 2.160 . S
O576 C585 1.239 . S
O577 Mn570 2.089 . S
O577 C585 1.256 . S
O578 Mn573 2.251 . S
O578 C583 1.241 . S
O579 Mn573 2.087 . S
O579 C584 1.256 . S
C580 O586 1.278 1_554 S
C580 O587 1.241 . S
C581 O567 1.244 . S
C581 O569 1.256 1_556 S
C582 O571 1.239 . S
C582 O575 1.256 . S
C583 O572 1.278 . S
C583 O578 1.241 . S
C584 O574 1.244 . S
C584 O579 1.256 . S
C585 O576 1.239 . S
C585 O577 1.256 . S
O586 Mn568 2.221 . S
O586 Mn570 2.290 . S
O586 C580 1.278 1_556 S
O587 Mn570 2.251 1_554 S
O587 C580 1.241 . S
O588 Mn589 2.163 . S
O588 C602 1.244 . S
Mn589 O588 2.163 . S
Mn589 O592 2.160 . S
Mn589 O593 2.221 . S
Mn589 O595 2.163 . S
Mn589 O597 2.160 . S
Mn589 O607 2.221 . S
O590 Mn591 2.087 1_655 S
O590 C602 1.256 1_655 S
Mn591 O590 2.087 1_455 S
Mn591 O598 2.089 . S
Mn591 O607 2.290 . S
Mn591 O608 2.251 1_455 S
O592 Mn589 2.160 . S
O592 C603 1.239 . S
O593 Mn589 2.221 . S
O593 Mn594 2.290 . S
O593 C604 1.278 . S
Mn594 O593 2.290 . S
Mn594 O596 2.089 . S
Mn594 O599 2.251 . S
Mn594 O600 2.087 . S
O595 Mn589 2.163 . S
O595 C605 1.244 . S
O596 Mn594 2.089 . S
O596 C603 1.256 . S
O597 Mn589 2.160 . S
O597 C606 1.239 . S
O598 Mn591 2.089 . S
O598 C606 1.256 . S
O599 Mn594 2.251 . S
O599 C604 1.241 . S
O600 Mn594 2.087 . S
O600 C605 1.256 . S
C601 O607 1.278 1_655 S
C601 O608 1.241 . S
C602 O588 1.244 . S
C602 O590 1.256 1_455 S
C603 O592 1.239 . S
C603 O596 1.256 . S
C604 O593 1.278 . S
C604 O599 1.241 . S
C605 O595 1.244 . S
C605 O600 1.256 . S
C606 O597 1.239 . S
C606 O598 1.256 . S
O607 Mn589 2.221 . S
O607 Mn591 2.290 . S
O607 C601 1.278 1_455 S
O608 Mn591 2.251 1_655 S
O608 C601 1.241 . S
O609 Mn610 2.163 . S
O609 C623 1.244 . S
Mn610 O609 2.163 . S
Mn610 O613 2.160 . S
Mn610 O614 2.221 . S
Mn610 O616 2.163 . S
Mn610 O618 2.160 . S
Mn610 O628 2.221 . S
O611 Mn612 2.087 . S
O611 C623 1.256 . S
Mn612 O611 2.087 . S
Mn612 O619 2.089 . S
Mn612 O628 2.290 . S
Mn612 O629 2.251 . S
O613 Mn610 2.160 . S
O613 C624 1.239 . S
O614 Mn610 2.221 . S
O614 Mn615 2.290 . S
O614 C625 1.278 . S
Mn615 O614 2.290 . S
Mn615 O617 2.089 . S
Mn615 O620 2.251 . S
Mn615 O621 2.087 . S
O616 Mn610 2.163 . S
O616 C626 1.244 . S
O617 Mn615 2.089 . S
O617 C624 1.256 . S
O618 Mn610 2.160 . S
O618 C627 1.239 . S
O619 Mn612 2.089 . S
O619 C627 1.256 . S
O620 Mn615 2.251 . S
O620 C625 1.241 . S
O621 Mn615 2.087 . S
O621 C626 1.256 . S
C622 O628 1.278 . S
C622 O629 1.241 . S
C623 O609 1.244 . S
C623 O611 1.256 . S
C624 O613 1.239 . S
C624 O617 1.256 . S
C625 O614 1.278 . S
C625 O620 1.241 . S
C626 O616 1.244 . S
C626 O621 1.256 . S
C627 O618 1.239 . S
C627 O619 1.256 . S
O628 Mn610 2.221 . S
O628 Mn612 2.290 . S
O628 C622 1.278 . S
O629 Mn612 2.251 . S
O629 C622 1.241 . S
O630 Mn631 2.163 . S
O630 C644 1.244 . S
Mn631 O630 2.163 . S
Mn631 O634 2.160 . S
Mn631 O635 2.221 . S
Mn631 O637 2.163 . S
Mn631 O639 2.160 . S
Mn631 O649 2.221 . S
O632 Mn633 2.087 . S
O632 C644 1.256 . S
Mn633 O632 2.087 . S
Mn633 O640 2.089 . S
Mn633 O649 2.290 . S
Mn633 O650 2.251 . S
O634 Mn631 2.160 . S
O634 C645 1.239 . S
O635 Mn631 2.221 . S
O635 Mn636 2.290 . S
O635 C646 1.278 . S
Mn636 O635 2.290 . S
Mn636 O638 2.089 . S
Mn636 O641 2.251 . S
Mn636 O642 2.087 . S
O637 Mn631 2.163 . S
O637 C647 1.244 . S
O638 Mn636 2.089 . S
O638 C645 1.256 . S
O639 Mn631 2.160 . S
O639 C648 1.239 . S
O640 Mn633 2.089 . S
O640 C648 1.256 . S
O641 Mn636 2.251 . S
O641 C646 1.241 . S
O642 Mn636 2.087 . S
O642 C647 1.256 . S
C643 O649 1.278 . S
C643 O650 1.241 . S
C644 O630 1.244 . S
C644 O632 1.256 . S
C645 O634 1.239 . S
C645 O638 1.256 . S
C646 O635 1.278 . S
C646 O641 1.241 . S
C647 O637 1.244 . S
C647 O642 1.256 . S
C648 O639 1.239 . S
C648 O640 1.256 . S
O649 Mn631 2.221 . S
O649 Mn633 2.290 . S
O649 C643 1.278 . S
O650 Mn633 2.251 . S
O650 C643 1.241 . S
O651 Mn652 2.163 . S
O651 C665 1.244 . S
Mn652 O651 2.163 . S
Mn652 O655 2.160 . S
Mn652 O656 2.221 . S
Mn652 O658 2.163 . S
Mn652 O660 2.160 . S
Mn652 O670 2.221 . S
O653 Mn654 2.087 . S
O653 C665 1.256 . S
Mn654 O653 2.087 . S
Mn654 O661 2.089 . S
Mn654 O670 2.290 . S
Mn654 O671 2.251 . S
O655 Mn652 2.160 . S
O655 C666 1.239 . S
O656 Mn652 2.221 . S
O656 Mn657 2.290 . S
O656 C667 1.278 1_655 S
Mn657 O656 2.290 . S
Mn657 O659 2.089 . S
Mn657 O662 2.251 1_655 S
Mn657 O663 2.087 1_655 S
O658 Mn652 2.163 . S
O658 C668 1.244 . S
O659 Mn657 2.089 . S
O659 C666 1.256 . S
O660 Mn652 2.160 . S
O660 C669 1.239 . S
O661 Mn654 2.089 . S
O661 C669 1.256 . S
O662 Mn657 2.251 1_455 S
O662 C667 1.241 . S
O663 Mn657 2.087 1_455 S
O663 C668 1.256 1_455 S
C664 O670 1.278 . S
C664 O671 1.241 . S
C665 O651 1.244 . S
C665 O653 1.256 . S
C666 O655 1.239 . S
C666 O659 1.256 . S
C667 O656 1.278 1_455 S
C667 O662 1.241 . S
C668 O658 1.244 . S
C668 O663 1.256 1_655 S
C669 O660 1.239 . S
C669 O661 1.256 . S
O670 Mn652 2.221 . S
O670 Mn654 2.290 . S
O670 C664 1.278 . S
O671 Mn654 2.251 . S
O671 C664 1.241 . S
O672 Mn673 2.163 . S
O672 C686 1.244 . S
Mn673 O672 2.163 . S
Mn673 O676 2.160 . S
Mn673 O677 2.221 . S
Mn673 O679 2.163 . S
Mn673 O681 2.160 . S
Mn673 O691 2.221 . S
O674 Mn675 2.087 . S
O674 C686 1.256 . S
Mn675 O674 2.087 . S
Mn675 O682 2.089 . S
Mn675 O691 2.290 . S
Mn675 O692 2.251 . S
O676 Mn673 2.160 . S
O676 C687 1.239 . S
O677 Mn673 2.221 . S
O677 Mn678 2.290 . S
O677 C688 1.278 . S
Mn678 O677 2.290 . S
Mn678 O680 2.089 . S
Mn678 O683 2.251 . S
Mn678 O684 2.087 . S
O679 Mn673 2.163 . S
O679 C689 1.244 . S
O680 Mn678 2.089 . S
O680 C687 1.256 . S
O681 Mn673 2.160 . S
O681 C690 1.239 . S
O682 Mn675 2.089 . S
O682 C690 1.256 . S
O683 Mn678 2.251 . S
O683 C688 1.241 . S
O684 Mn678 2.087 . S
O684 C689 1.256 . S
C685 O691 1.278 . S
C685 O692 1.241 . S
C686 O672 1.244 . S
C686 O674 1.256 . S
C687 O676 1.239 . S
C687 O680 1.256 . S
C688 O677 1.278 . S
C688 O683 1.241 . S
C689 O679 1.244 . S
C689 O684 1.256 . S
C690 O681 1.239 . S
C690 O682 1.256 . S
O691 Mn673 2.221 . S
O691 Mn675 2.290 . S
O691 C685 1.278 . S
O692 Mn675 2.251 . S
O692 C685 1.241 . S
O693 Mn694 2.163 . S
O693 C707 1.244 . S
Mn694 O693 2.163 . S
Mn694 O697 2.160 . S
Mn694 O698 2.221 . S
Mn694 O700 2.163 . S
Mn694 O702 2.160 . S
Mn694 O712 2.221 . S
O695 Mn696 2.087 1_554 S
O695 C707 1.256 1_554 S
Mn696 O695 2.087 1_556 S
Mn696 O703 2.089 . S
Mn696 O712 2.290 . S
Mn696 O713 2.251 1_556 S
O697 Mn694 2.160 . S
O697 C708 1.239 . S
O698 Mn694 2.221 . S
O698 Mn699 2.290 . S
O698 C709 1.278 . S
Mn699 O698 2.290 . S
Mn699 O701 2.089 . S
Mn699 O704 2.251 . S
Mn699 O705 2.087 . S
O700 Mn694 2.163 . S
O700 C710 1.244 . S
O701 Mn699 2.089 . S
O701 C708 1.256 . S
O702 Mn694 2.160 . S
O702 C711 1.239 . S
O703 Mn696 2.089 . S
O703 C711 1.256 . S
O704 Mn699 2.251 . S
O704 C709 1.241 . S
O705 Mn699 2.087 . S
O705 C710 1.256 . S
C706 O712 1.278 1_554 S
C706 O713 1.241 . S
C707 O693 1.244 . S
C707 O695 1.256 1_556 S
C708 O697 1.239 . S
C708 O701 1.256 . S
C709 O698 1.278 . S
C709 O704 1.241 . S
C710 O700 1.244 . S
C710 O705 1.256 . S
C711 O702 1.239 . S
C711 O703 1.256 . S
O712 Mn694 2.221 . S
O712 Mn696 2.290 . S
O712 C706 1.278 1_556 S
O713 Mn696 2.251 1_554 S
O713 C706 1.241 . S
O714 Mn715 2.163 . S
O714 C728 1.244 . S
Mn715 O714 2.163 . S
Mn715 O718 2.160 . S
Mn715 O719 2.221 . S
Mn715 O721 2.163 . S
Mn715 O723 2.160 . S
Mn715 O733 2.221 . S
O716 Mn717 2.087 . S
O716 C728 1.256 . S
Mn717 O716 2.087 . S
Mn717 O724 2.089 . S
Mn717 O733 2.290 . S
Mn717 O734 2.251 . S
O718 Mn715 2.160 . S
O718 C729 1.239 . S
O719 Mn715 2.221 . S
O719 Mn720 2.290 . S
O719 C730 1.278 . S
Mn720 O719 2.290 . S
Mn720 O722 2.089 . S
Mn720 O725 2.251 . S
Mn720 O726 2.087 . S
O721 Mn715 2.163 . S
O721 C731 1.244 . S
O722 Mn720 2.089 . S
O722 C729 1.256 . S
O723 Mn715 2.160 . S
O723 C732 1.239 . S
O724 Mn717 2.089 . S
O724 C732 1.256 . S
O725 Mn720 2.251 . S
O725 C730 1.241 . S
O726 Mn720 2.087 . S
O726 C731 1.256 . S
C727 O733 1.278 . S
C727 O734 1.241 . S
C728 O714 1.244 . S
C728 O716 1.256 . S
C729 O718 1.239 . S
C729 O722 1.256 . S
C730 O719 1.278 . S
C730 O725 1.241 . S
C731 O721 1.244 . S
C731 O726 1.256 . S
C732 O723 1.239 . S
C732 O724 1.256 . S
O733 Mn715 2.221 . S
O733 Mn717 2.290 . S
O733 C727 1.278 . S
O734 Mn717 2.251 . S
O734 C727 1.241 . S
O735 Mn736 2.163 . S
O735 C749 1.244 . S
Mn736 O735 2.163 . S
Mn736 O739 2.160 . S
Mn736 O740 2.221 . S
Mn736 O742 2.163 . S
Mn736 O744 2.160 . S
Mn736 O754 2.221 . S
O737 Mn738 2.087 . S
O737 C749 1.256 . S
Mn738 O737 2.087 . S
Mn738 O745 2.089 . S
Mn738 O754 2.290 . S
Mn738 O755 2.251 . S
O739 Mn736 2.160 . S
O739 C750 1.239 . S
O740 Mn736 2.221 . S
O740 Mn741 2.290 . S
O740 C751 1.278 . S
Mn741 O740 2.290 . S
Mn741 O743 2.089 . S
Mn741 O746 2.251 . S
Mn741 O747 2.087 . S
O742 Mn736 2.163 . S
O742 C752 1.244 . S
O743 Mn741 2.089 . S
O743 C750 1.256 . S
O744 Mn736 2.160 . S
O744 C753 1.239 . S
O745 Mn738 2.089 . S
O745 C753 1.256 . S
O746 Mn741 2.251 . S
O746 C751 1.241 . S
O747 Mn741 2.087 . S
O747 C752 1.256 . S
C748 O754 1.278 . S
C748 O755 1.241 . S
C749 O735 1.244 . S
C749 O737 1.256 . S
C750 O739 1.239 . S
C750 O743 1.256 . S
C751 O740 1.278 . S
C751 O746 1.241 . S
C752 O742 1.244 . S
C752 O747 1.256 . S
C753 O744 1.239 . S
C753 O745 1.256 . S
O754 Mn736 2.221 . S
O754 Mn738 2.290 . S
O754 C748 1.278 . S
O755 Mn738 2.251 . S
O755 C748 1.241 . S
O756 Mn757 2.163 . S
O756 C770 1.244 . S
Mn757 O756 2.163 . S
Mn757 O760 2.160 . S
Mn757 O761 2.221 . S
Mn757 O763 2.163 . S
Mn757 O765 2.160 . S
Mn757 O775 2.221 . S
O758 Mn759 2.087 . S
O758 C770 1.256 . S
Mn759 O758 2.087 . S
Mn759 O766 2.089 . S
Mn759 O775 2.290 . S
Mn759 O776 2.251 . S
O760 Mn757 2.160 . S
O760 C771 1.239 . S
O761 Mn757 2.221 . S
O761 Mn762 2.290 . S
O761 C772 1.278 . S
Mn762 O761 2.290 . S
Mn762 O764 2.089 . S
Mn762 O767 2.251 . S
Mn762 O768 2.087 . S
O763 Mn757 2.163 . S
O763 C773 1.244 . S
O764 Mn762 2.089 . S
O764 C771 1.256 . S
O765 Mn757 2.160 . S
O765 C774 1.239 . S
O766 Mn759 2.089 . S
O766 C774 1.256 . S
O767 Mn762 2.251 . S
O767 C772 1.241 . S
O768 Mn762 2.087 . S
O768 C773 1.256 . S
C769 O775 1.278 . S
C769 O776 1.241 . S
C770 O756 1.244 . S
C770 O758 1.256 . S
C771 O760 1.239 . S
C771 O764 1.256 . S
C772 O761 1.278 . S
C772 O767 1.241 . S
C773 O763 1.244 . S
C773 O768 1.256 . S
C774 O765 1.239 . S
C774 O766 1.256 . S
O775 Mn757 2.221 . S
O775 Mn759 2.290 . S
O775 C769 1.278 . S
O776 Mn759 2.251 . S
O776 C769 1.241 . S
O777 Mn778 2.163 . S
O777 C791 1.244 . S
Mn778 O777 2.163 . S
Mn778 O781 2.160 . S
Mn778 O782 2.221 . S
Mn778 O784 2.163 . S
Mn778 O786 2.160 . S
Mn778 O796 2.221 . S
O779 Mn780 2.087 . S
O779 C791 1.256 . S
Mn780 O779 2.087 . S
Mn780 O787 2.089 . S
Mn780 O796 2.290 . S
Mn780 O797 2.251 . S
O781 Mn778 2.160 . S
O781 C792 1.239 . S
O782 Mn778 2.221 . S
O782 Mn783 2.290 . S
O782 C793 1.278 . S
Mn783 O782 2.290 . S
Mn783 O785 2.089 . S
Mn783 O788 2.251 . S
Mn783 O789 2.087 . S
O784 Mn778 2.163 . S
O784 C794 1.244 . S
O785 Mn783 2.089 . S
O785 C792 1.256 . S
O786 Mn778 2.160 . S
O786 C795 1.239 . S
O787 Mn780 2.089 . S
O787 C795 1.256 . S
O788 Mn783 2.251 . S
O788 C793 1.241 . S
O789 Mn783 2.087 . S
O789 C794 1.256 . S
C790 O796 1.278 . S
C790 O797 1.241 . S
C791 O777 1.244 . S
C791 O779 1.256 . S
C792 O781 1.239 . S
C792 O785 1.256 . S
C793 O782 1.278 . S
C793 O788 1.241 . S
C794 O784 1.244 . S
C794 O789 1.256 . S
C795 O786 1.239 . S
C795 O787 1.256 . S
O796 Mn778 2.221 . S
O796 Mn780 2.290 . S
O796 C790 1.278 . S
O797 Mn780 2.251 . S
O797 C790 1.241 . S
O798 Mn799 2.163 . S
O798 C812 1.244 . S
Mn799 O798 2.163 . S
Mn799 O802 2.160 . S
Mn799 O803 2.221 . S
Mn799 O805 2.163 . S
Mn799 O807 2.160 . S
Mn799 O817 2.221 . S
O800 Mn801 2.087 . S
O800 C812 1.256 . S
Mn801 O800 2.087 . S
Mn801 O808 2.089 . S
Mn801 O817 2.290 . S
Mn801 O818 2.251 . S
O802 Mn799 2.160 . S
O802 C813 1.239 . S
O803 Mn799 2.221 . S
O803 Mn804 2.290 . S
O803 C814 1.278 . S
Mn804 O803 2.290 . S
Mn804 O806 2.089 . S
Mn804 O809 2.251 . S
Mn804 O810 2.087 . S
O805 Mn799 2.163 . S
O805 C815 1.244 . S
O806 Mn804 2.089 . S
O806 C813 1.256 . S
O807 Mn799 2.160 . S
O807 C816 1.239 . S
O808 Mn801 2.089 . S
O808 C816 1.256 . S
O809 Mn804 2.251 . S
O809 C814 1.241 . S
O810 Mn804 2.087 . S
O810 C815 1.256 . S
C811 O817 1.278 . S
C811 O818 1.241 . S
C812 O798 1.244 . S
C812 O800 1.256 . S
C813 O802 1.239 . S
C813 O806 1.256 . S
C814 O803 1.278 . S
C814 O809 1.241 . S
C815 O805 1.244 . S
C815 O810 1.256 . S
C816 O807 1.239 . S
C816 O808 1.256 . S
O817 Mn799 2.221 . S
O817 Mn801 2.290 . S
O817 C811 1.278 . S
O818 Mn801 2.251 . S
O818 C811 1.241 . S
O819 Mn820 2.163 . S
O819 C833 1.244 . S
Mn820 O819 2.163 . S
Mn820 O823 2.160 . S
Mn820 O824 2.221 . S
Mn820 O826 2.163 . S
Mn820 O828 2.160 . S
Mn820 O838 2.221 . S
O821 Mn822 2.087 . S
O821 C833 1.256 . S
Mn822 O821 2.087 . S
Mn822 O829 2.089 . S
Mn822 O838 2.290 . S
Mn822 O839 2.251 . S
O823 Mn820 2.160 . S
O823 C834 1.239 . S
O824 Mn820 2.221 . S
O824 Mn825 2.290 . S
O824 C835 1.278 . S
Mn825 O824 2.290 . S
Mn825 O827 2.089 . S
Mn825 O830 2.251 . S
Mn825 O831 2.087 . S
O826 Mn820 2.163 . S
O826 C836 1.244 . S
O827 Mn825 2.089 . S
O827 C834 1.256 . S
O828 Mn820 2.160 . S
O828 C837 1.239 . S
O829 Mn822 2.089 . S
O829 C837 1.256 . S
O830 Mn825 2.251 . S
O830 C835 1.241 . S
O831 Mn825 2.087 . S
O831 C836 1.256 . S
C832 O838 1.278 . S
C832 O839 1.241 . S
C833 O819 1.244 . S
C833 O821 1.256 . S
C834 O823 1.239 . S
C834 O827 1.256 . S
C835 O824 1.278 . S
C835 O830 1.241 . S
C836 O826 1.244 . S
C836 O831 1.256 . S
C837 O828 1.239 . S
C837 O829 1.256 . S
O838 Mn820 2.221 . S
O838 Mn822 2.290 . S
O838 C832 1.278 . S
O839 Mn822 2.251 . S
O839 C832 1.241 . S
O840 Mn841 2.163 . S
O840 C854 1.244 . S
Mn841 O840 2.163 . S
Mn841 O844 2.160 . S
Mn841 O845 2.221 . S
Mn841 O847 2.163 . S
Mn841 O849 2.160 . S
Mn841 O859 2.221 . S
O842 Mn843 2.087 . S
O842 C854 1.256 . S
Mn843 O842 2.087 . S
Mn843 O850 2.089 . S
Mn843 O859 2.290 . S
Mn843 O860 2.251 . S
O844 Mn841 2.160 . S
O844 C855 1.239 . S
O845 Mn841 2.221 . S
O845 Mn846 2.290 . S
O845 C856 1.278 1_455 S
Mn846 O845 2.290 . S
Mn846 O848 2.089 . S
Mn846 O851 2.251 1_455 S
Mn846 O852 2.087 1_455 S
O847 Mn841 2.163 . S
O847 C857 1.244 . S
O848 Mn846 2.089 . S
O848 C855 1.256 . S
O849 Mn841 2.160 . S
O849 C858 1.239 . S
O850 Mn843 2.089 . S
O850 C858 1.256 . S
O851 Mn846 2.251 1_655 S
O851 C856 1.241 . S
O852 Mn846 2.087 1_655 S
O852 C857 1.256 1_655 S
C853 O859 1.278 . S
C853 O860 1.241 . S
C854 O840 1.244 . S
C854 O842 1.256 . S
C855 O844 1.239 . S
C855 O848 1.256 . S
C856 O845 1.278 1_655 S
C856 O851 1.241 . S
C857 O847 1.244 . S
C857 O852 1.256 1_455 S
C858 O849 1.239 . S
C858 O850 1.256 . S
O859 Mn841 2.221 . S
O859 Mn843 2.290 . S
O859 C853 1.278 . S
O860 Mn843 2.251 . S
O860 C853 1.241 . S
O861 Mn862 2.163 . S
O861 C875 1.244 . S
Mn862 O861 2.163 . S
Mn862 O865 2.160 . S
Mn862 O866 2.221 . S
Mn862 O868 2.163 . S
Mn862 O870 2.160 . S
Mn862 O880 2.221 . S
O863 Mn864 2.087 . S
O863 C875 1.256 . S
Mn864 O863 2.087 . S
Mn864 O871 2.089 . S
Mn864 O880 2.290 . S
Mn864 O881 2.251 . S
O865 Mn862 2.160 . S
O865 C876 1.239 . S
O866 Mn862 2.221 . S
O866 Mn867 2.290 . S
O866 C877 1.278 . S
Mn867 O866 2.290 . S
Mn867 O869 2.089 . S
Mn867 O872 2.251 . S
Mn867 O873 2.087 . S
O868 Mn862 2.163 . S
O868 C878 1.244 . S
O869 Mn867 2.089 . S
O869 C876 1.256 . S
O870 Mn862 2.160 . S
O870 C879 1.239 . S
O871 Mn864 2.089 . S
O871 C879 1.256 . S
O872 Mn867 2.251 . S
O872 C877 1.241 . S
O873 Mn867 2.087 . S
O873 C878 1.256 . S
C874 O880 1.278 . S
C874 O881 1.241 . S
C875 O861 1.244 . S
C875 O863 1.256 . S
C876 O865 1.239 . S
C876 O869 1.256 . S
C877 O866 1.278 . S
C877 O872 1.241 . S
C878 O868 1.244 . S
C878 O873 1.256 . S
C879 O870 1.239 . S
C879 O871 1.256 . S
O880 Mn862 2.221 . S
O880 Mn864 2.290 . S
O880 C874 1.278 . S
O881 Mn864 2.251 . S
O881 C874 1.241 . S
O882 Mn883 2.163 . S
O882 C896 1.244 . S
Mn883 O882 2.163 . S
Mn883 O886 2.160 . S
Mn883 O887 2.221 . S
Mn883 O889 2.163 . S
Mn883 O891 2.160 . S
Mn883 O901 2.221 . S
O884 Mn885 2.087 . S
O884 C896 1.256 . S
Mn885 O884 2.087 . S
Mn885 O892 2.089 . S
Mn885 O901 2.290 . S
Mn885 O902 2.251 . S
O886 Mn883 2.160 . S
O886 C897 1.239 . S
O887 Mn883 2.221 . S
O887 Mn888 2.290 . S
O887 C898 1.278 1_554 S
Mn888 O887 2.290 . S
Mn888 O890 2.089 . S
Mn888 O893 2.251 1_554 S
Mn888 O894 2.087 1_554 S
O889 Mn883 2.163 . S
O889 C899 1.244 . S
O890 Mn888 2.089 . S
O890 C897 1.256 . S
O891 Mn883 2.160 . S
O891 C900 1.239 . S
O892 Mn885 2.089 . S
O892 C900 1.256 . S
O893 Mn888 2.251 1_556 S
O893 C898 1.241 . S
O894 Mn888 2.087 1_556 S
O894 C899 1.256 1_556 S
C895 O901 1.278 . S
C895 O902 1.241 . S
C896 O882 1.244 . S
C896 O884 1.256 . S
C897 O886 1.239 . S
C897 O890 1.256 . S
C898 O887 1.278 1_556 S
C898 O893 1.241 . S
C899 O889 1.244 . S
C899 O894 1.256 1_554 S
C900 O891 1.239 . S
C900 O892 1.256 . S
O901 Mn883 2.221 . S
O901 Mn885 2.290 . S
O901 C895 1.278 . S
O902 Mn885 2.251 . S
O902 C895 1.241 . S
O903 Mn904 2.163 . S
O903 C917 1.244 . S
Mn904 O903 2.163 . S
Mn904 O907 2.160 . S
Mn904 O908 2.221 . S
Mn904 O910 2.163 . S
Mn904 O912 2.160 . S
Mn904 O922 2.221 . S
O905 Mn906 2.087 . S
O905 C917 1.256 . S
Mn906 O905 2.087 . S
Mn906 O913 2.089 . S
Mn906 O922 2.290 . S
Mn906 O923 2.251 . S
O907 Mn904 2.160 . S
O907 C918 1.239 . S
O908 Mn904 2.221 . S
O908 Mn909 2.290 . S
O908 C919 1.278 . S
Mn909 O908 2.290 . S
Mn909 O911 2.089 . S
Mn909 O914 2.251 . S
Mn909 O915 2.087 . S
O910 Mn904 2.163 . S
O910 C920 1.244 . S
O911 Mn909 2.089 . S
O911 C918 1.256 . S
O912 Mn904 2.160 . S
O912 C921 1.239 . S
O913 Mn906 2.089 . S
O913 C921 1.256 . S
O914 Mn909 2.251 . S
O914 C919 1.241 . S
O915 Mn909 2.087 . S
O915 C920 1.256 . S
C916 O922 1.278 . S
C916 O923 1.241 . S
C917 O903 1.244 . S
C917 O905 1.256 . S
C918 O907 1.239 . S
C918 O911 1.256 . S
C919 O908 1.278 . S
C919 O914 1.241 . S
C920 O910 1.244 . S
C920 O915 1.256 . S
C921 O912 1.239 . S
C921 O913 1.256 . S
O922 Mn904 2.221 . S
O922 Mn906 2.290 . S
O922 C916 1.278 . S
O923 Mn906 2.251 . S
O923 C916 1.241 . S
O924 Mn925 2.163 . S
O924 C938 1.244 . S
Mn925 O924 2.163 . S
Mn925 O928 2.160 . S
Mn925 O929 2.221 . S
Mn925 O931 2.163 . S
Mn925 O933 2.160 . S
Mn925 O943 2.221 . S
O926 Mn927 2.087 . S
O926 C938 1.256 . S
Mn927 O926 2.087 . S
Mn927 O934 2.089 . S
Mn927 O943 2.290 . S
Mn927 O944 2.251 . S
O928 Mn925 2.160 . S
O928 C939 1.239 . S
O929 Mn925 2.221 . S
O929 Mn930 2.290 . S
O929 C940 1.278 . S
Mn930 O929 2.290 . S
Mn930 O932 2.089 . S
Mn930 O935 2.251 . S
Mn930 O936 2.087 . S
O931 Mn925 2.163 . S
O931 C941 1.244 . S
O932 Mn930 2.089 . S
O932 C939 1.256 . S
O933 Mn925 2.160 . S
O933 C942 1.239 . S
O934 Mn927 2.089 . S
O934 C942 1.256 . S
O935 Mn930 2.251 . S
O935 C940 1.241 . S
O936 Mn930 2.087 . S
O936 C941 1.256 . S
C937 O943 1.278 . S
C937 O944 1.241 . S
C938 O924 1.244 . S
C938 O926 1.256 . S
C939 O928 1.239 . S
C939 O932 1.256 . S
C940 O929 1.278 . S
C940 O935 1.241 . S
C941 O931 1.244 . S
C941 O936 1.256 . S
C942 O933 1.239 . S
C942 O934 1.256 . S
O943 Mn925 2.221 . S
O943 Mn927 2.290 . S
O943 C937 1.278 . S
O944 Mn927 2.251 . S
O944 C937 1.241 . S
O945 Mn946 2.163 . S
O945 C959 1.244 . S
Mn946 O945 2.163 . S
Mn946 O949 2.160 . S
Mn946 O950 2.221 . S
Mn946 O952 2.163 . S
Mn946 O954 2.160 . S
Mn946 O964 2.221 . S
O947 Mn948 2.087 . S
O947 C959 1.256 . S
Mn948 O947 2.087 . S
Mn948 O955 2.089 . S
Mn948 O964 2.290 . S
Mn948 O965 2.251 . S
O949 Mn946 2.160 . S
O949 C960 1.239 . S
O950 Mn946 2.221 . S
O950 Mn951 2.290 . S
O950 C961 1.278 . S
Mn951 O950 2.290 . S
Mn951 O953 2.089 . S
Mn951 O956 2.251 . S
Mn951 O957 2.087 . S
O952 Mn946 2.163 . S
O952 C962 1.244 . S
O953 Mn951 2.089 . S
O953 C960 1.256 . S
O954 Mn946 2.160 . S
O954 C963 1.239 . S
O955 Mn948 2.089 . S
O955 C963 1.256 . S
O956 Mn951 2.251 . S
O956 C961 1.241 . S
O957 Mn951 2.087 . S
O957 C962 1.256 . S
C958 O964 1.278 . S
C958 O965 1.241 . S
C959 O945 1.244 . S
C959 O947 1.256 . S
C960 O949 1.239 . S
C960 O953 1.256 . S
C961 O950 1.278 . S
C961 O956 1.241 . S
C962 O952 1.244 . S
C962 O957 1.256 . S
C963 O954 1.239 . S
C963 O955 1.256 . S
O964 Mn946 2.221 . S
O964 Mn948 2.290 . S
O964 C958 1.278 . S
O965 Mn948 2.251 . S
O965 C958 1.241 . S
O966 Mn967 2.163 . S
O966 C980 1.244 . S
Mn967 O966 2.163 . S
Mn967 O970 2.160 . S
Mn967 O971 2.221 . S
Mn967 O973 2.163 . S
Mn967 O975 2.160 . S
Mn967 O985 2.221 . S
O968 Mn969 2.087 . S
O968 C980 1.256 . S
Mn969 O968 2.087 . S
Mn969 O976 2.089 . S
Mn969 O985 2.290 . S
Mn969 O986 2.251 . S
O970 Mn967 2.160 . S
O970 C981 1.239 . S
O971 Mn967 2.221 . S
O971 Mn972 2.290 . S
O971 C982 1.278 . S
Mn972 O971 2.290 . S
Mn972 O974 2.089 . S
Mn972 O977 2.251 . S
Mn972 O978 2.087 . S
O973 Mn967 2.163 . S
O973 C983 1.244 . S
O974 Mn972 2.089 . S
O974 C981 1.256 . S
O975 Mn967 2.160 . S
O975 C984 1.239 . S
O976 Mn969 2.089 . S
O976 C984 1.256 . S
O977 Mn972 2.251 . S
O977 C982 1.241 . S
O978 Mn972 2.087 . S
O978 C983 1.256 . S
C979 O985 1.278 . S
C979 O986 1.241 . S
C980 O966 1.244 . S
C980 O968 1.256 . S
C981 O970 1.239 . S
C981 O974 1.256 . S
C982 O971 1.278 . S
C982 O977 1.241 . S
C983 O973 1.244 . S
C983 O978 1.256 . S
C984 O975 1.239 . S
C984 O976 1.256 . S
O985 Mn967 2.221 . S
O985 Mn969 2.290 . S
O985 C979 1.278 . S
O986 Mn969 2.251 . S
O986 C979 1.241 . S
O987 Mn988 2.163 . S
O987 C1001 1.244 . S
Mn988 O987 2.163 . S
Mn988 O991 2.160 . S
Mn988 O992 2.221 . S
Mn988 O994 2.163 . S
Mn988 O996 2.160 . S
Mn988 O1006 2.221 . S
O989 Mn990 2.087 . S
O989 C1001 1.256 . S
Mn990 O989 2.087 . S
Mn990 O997 2.089 . S
Mn990 O1006 2.290 . S
Mn990 O1007 2.251 . S
O991 Mn988 2.160 . S
O991 C1002 1.239 . S
O992 Mn988 2.221 . S
O992 Mn993 2.290 . S
O992 C1003 1.278 . S
Mn993 O992 2.290 . S
Mn993 O995 2.089 . S
Mn993 O998 2.251 . S
Mn993 O999 2.087 . S
O994 Mn988 2.163 . S
O994 C1004 1.244 . S
O995 Mn993 2.089 . S
O995 C1002 1.256 . S
O996 Mn988 2.160 . S
O996 C1005 1.239 . S
O997 Mn990 2.089 . S
O997 C1005 1.256 . S
O998 Mn993 2.251 . S
O998 C1003 1.241 . S
O999 Mn993 2.087 . S
O999 C1004 1.256 . S
C1000 O1006 1.278 . S
C1000 O1007 1.241 . S
C1001 O987 1.244 . S
C1001 O989 1.256 . S
C1002 O991 1.239 . S
C1002 O995 1.256 . S
C1003 O992 1.278 . S
C1003 O998 1.241 . S
C1004 O994 1.244 . S
C1004 O999 1.256 . S
C1005 O996 1.239 . S
C1005 O997 1.256 . S
O1006 Mn988 2.221 . S
O1006 Mn990 2.290 . S
O1006 C1000 1.278 . S
O1007 Mn990 2.251 . S
O1007 C1000 1.241 . S
C1008 C1009 1.387 1_655 S
C1008 H1012 0.950 . S
C1008 C1017 1.390 . S
C1009 C1008 1.387 1_455 S
C1009 C1011 1.387 . S
H1010 C1017 0.950 . S
C1011 C1009 1.387 . S
C1011 C1013 1.390 . S
C1011 H1015 0.950 . S
H1012 C1008 0.950 . S
C1013 C1011 1.390 . S
C1013 C1014 1.387 . S
C1013 H1016 0.950 . S
C1014 C1013 1.387 . S
C1014 C1017 1.387 1_455 S
H1015 C1011 0.950 . S
H1016 C1013 0.950 . S
C1017 C1008 1.390 . S
C1017 H1010 0.950 . S
C1017 C1014 1.387 1_655 S
C1018 C1019 1.387 . S
C1018 H1022 0.950 . S
C1018 C1027 1.390 . S
C1019 C1018 1.387 . S
C1019 C1021 1.387 . S
H1020 C1027 0.950 . S
C1021 C1019 1.387 . S
C1021 C1023 1.390 . S
C1021 H1025 0.950 . S
H1022 C1018 0.950 . S
C1023 C1021 1.390 . S
C1023 C1024 1.387 . S
C1023 H1026 0.950 . S
C1024 C1023 1.387 . S
C1024 C1027 1.387 . S
H1025 C1021 0.950 . S
H1026 C1023 0.950 . S
C1027 C1018 1.390 . S
C1027 H1020 0.950 . S
C1027 C1024 1.387 . S
C1028 C1029 1.387 . S
C1028 H1032 0.950 . S
C1028 C1037 1.390 . S
C1029 C1028 1.387 . S
C1029 C1031 1.387 . S
H1030 C1037 0.950 . S
C1031 C1029 1.387 . S
C1031 C1033 1.390 . S
C1031 H1035 0.950 . S
H1032 C1028 0.950 . S
C1033 C1031 1.390 . S
C1033 C1034 1.387 . S
C1033 H1036 0.950 . S
C1034 C1033 1.387 . S
C1034 C1037 1.387 . S
H1035 C1031 0.950 . S
H1036 C1033 0.950 . S
C1037 C1028 1.390 . S
C1037 H1030 0.950 . S
C1037 C1034 1.387 . S
C1038 C1039 1.387 . S
C1038 H1042 0.950 . S
C1038 C1047 1.390 1_556 S
C1039 C1038 1.387 . S
C1039 C1041 1.387 . S
H1040 C1047 0.950 . S
C1041 C1039 1.387 . S
C1041 C1043 1.390 1_556 S
C1041 H1045 0.950 . S
H1042 C1038 0.950 . S
C1043 C1041 1.390 1_554 S
C1043 C1044 1.387 . S
C1043 H1046 0.950 . S
C1044 C1043 1.387 . S
C1044 C1047 1.387 . S
H1045 C1041 0.950 . S
H1046 C1043 0.950 . S
C1047 C1038 1.390 1_554 S
C1047 H1040 0.950 . S
C1047 C1044 1.387 . S
C1048 C1049 1.387 1_565 S
C1048 H1052 0.950 . S
C1048 C1057 1.390 . S
C1049 C1048 1.387 1_545 S
C1049 C1051 1.387 . S
H1050 C1057 0.950 . S
C1051 C1049 1.387 . S
C1051 C1053 1.390 . S
C1051 H1055 0.950 . S
H1052 C1048 0.950 . S
C1053 C1051 1.390 . S
C1053 C1054 1.387 . S
C1053 H1056 0.950 . S
C1054 C1053 1.387 . S
C1054 C1057 1.387 1_545 S
H1055 C1051 0.950 . S
H1056 C1053 0.950 . S
C1057 C1048 1.390 . S
C1057 H1050 0.950 . S
C1057 C1054 1.387 1_565 S
C1058 C1059 1.387 . S
C1058 H1062 0.950 . S
C1058 C1067 1.390 1_545 S
C1059 C1058 1.387 . S
C1059 C1061 1.387 . S
H1060 C1067 0.950 . S
C1061 C1059 1.387 . S
C1061 C1063 1.390 1_545 S
C1061 H1065 0.950 . S
H1062 C1058 0.950 . S
C1063 C1061 1.390 1_565 S
C1063 C1064 1.387 . S
C1063 H1066 0.950 . S
C1064 C1063 1.387 . S
C1064 C1067 1.387 . S
H1065 C1061 0.950 . S
H1066 C1063 0.950 . S
C1067 C1058 1.390 1_565 S
C1067 H1060 0.950 . S
C1067 C1064 1.387 . S
C1068 C1069 1.387 . S
C1068 H1072 0.950 . S
C1068 C1077 1.390 1_554 S
C1069 C1068 1.387 . S
C1069 C1071 1.387 1_565 S
H1070 C1077 0.950 . S
C1071 C1069 1.387 1_545 S
C1071 C1073 1.390 1_554 S
C1071 H1075 0.950 . S
H1072 C1068 0.950 . S
C1073 C1071 1.390 1_556 S
C1073 C1074 1.387 1_545 S
C1073 H1076 0.950 . S
C1074 C1073 1.387 1_565 S
C1074 C1077 1.387 . S
H1075 C1071 0.950 . S
H1076 C1073 0.950 . S
C1077 C1068 1.390 1_556 S
C1077 H1070 0.950 . S
C1077 C1074 1.387 . S
C1078 C1079 1.387 . S
C1078 H1082 0.950 . S
C1078 C1087 1.390 1_565 S
C1079 C1078 1.387 . S
C1079 C1081 1.387 . S
H1080 C1087 0.950 . S
C1081 C1079 1.387 . S
C1081 C1083 1.390 1_565 S
C1081 H1085 0.950 . S
H1082 C1078 0.950 . S
C1083 C1081 1.390 1_545 S
C1083 C1084 1.387 . S
C1083 H1086 0.950 . S
C1084 C1083 1.387 . S
C1084 C1087 1.387 . S
H1085 C1081 0.950 . S
H1086 C1083 0.950 . S
C1087 C1078 1.390 1_545 S
C1087 H1080 0.950 . S
C1087 C1084 1.387 . S
C1088 C1089 1.387 1_556 S
C1088 H1092 0.950 . S
C1088 C1097 1.390 . S
C1089 C1088 1.387 1_554 S
C1089 C1091 1.387 . S
H1090 C1097 0.950 . S
C1091 C1089 1.387 . S
C1091 C1093 1.390 . S
C1091 H1095 0.950 . S
H1092 C1088 0.950 . S
C1093 C1091 1.390 . S
C1093 C1094 1.387 . S
C1093 H1096 0.950 . S
C1094 C1093 1.387 . S
C1094 C1097 1.387 1_554 S
H1095 C1091 0.950 . S
H1096 C1093 0.950 . S
C1097 C1088 1.390 . S
C1097 H1090 0.950 . S
C1097 C1094 1.387 1_556 S
C1098 C1099 1.387 . S
C1098 H1102 0.950 . S
C1098 C1107 1.390 1_655 S
C1099 C1098 1.387 . S
C1099 C1101 1.387 1_556 S
H1100 C1107 0.950 . S
C1101 C1099 1.387 1_554 S
C1101 C1103 1.390 1_655 S
C1101 H1105 0.950 . S
H1102 C1098 0.950 . S
C1103 C1101 1.390 1_455 S
C1103 C1104 1.387 1_554 S
C1103 H1106 0.950 . S
C1104 C1103 1.387 1_556 S
C1104 C1107 1.387 . S
H1105 C1101 0.950 . S
H1106 C1103 0.950 . S
C1107 C1098 1.390 1_455 S
C1107 H1100 0.950 . S
C1107 C1104 1.387 . S
C1108 C1109 1.387 . S
C1108 H1112 0.950 . S
C1108 C1117 1.390 1_455 S
C1109 C1108 1.387 . S
C1109 C1111 1.387 . S
H1110 C1117 0.950 . S
C1111 C1109 1.387 . S
C1111 C1113 1.390 1_455 S
C1111 H1115 0.950 . S
H1112 C1108 0.950 . S
C1113 C1111 1.390 1_655 S
C1113 C1114 1.387 . S
C1113 H1116 0.950 . S
C1114 C1113 1.387 . S
C1114 C1117 1.387 . S
H1115 C1111 0.950 . S
H1116 C1113 0.950 . S
C1117 C1108 1.390 1_655 S
C1117 H1110 0.950 . S
C1117 C1114 1.387 . S
C1118 C1119 1.387 . S
C1118 H1122 0.950 . S
C1118 C1127 1.390 . S
C1119 C1118 1.387 . S
C1119 C1121 1.387 . S
H1120 C1127 0.950 . S
C1121 C1119 1.387 . S
C1121 C1123 1.390 . S
C1121 H1125 0.950 . S
H1122 C1118 0.950 . S
C1123 C1121 1.390 . S
C1123 C1124 1.387 . S
C1123 H1126 0.950 . S
C1124 C1123 1.387 . S
C1124 C1127 1.387 . S
H1125 C1121 0.950 . S
H1126 C1123 0.950 . S
C1127 C1118 1.390 . S
C1127 H1120 0.950 . S
C1127 C1124 1.387 . S
C1128 C1129 1.387 . S
C1128 H1132 0.950 . S
C1128 C1137 1.390 1_655 S
C1129 C1128 1.387 . S
C1129 C1131 1.387 . S
H1130 C1137 0.950 . S
C1131 C1129 1.387 . S
C1131 C1133 1.390 1_655 S
C1131 H1135 0.950 . S
H1132 C1128 0.950 . S
C1133 C1131 1.390 1_455 S
C1133 C1134 1.387 . S
C1133 H1136 0.950 . S
C1134 C1133 1.387 . S
C1134 C1137 1.387 . S
H1135 C1131 0.950 . S
H1136 C1133 0.950 . S
C1137 C1128 1.390 1_455 S
C1137 H1130 0.950 . S
C1137 C1134 1.387 . S
C1138 C1139 1.387 . S
C1138 H1142 0.950 . S
C1138 C1147 1.390 1_655 S
C1139 C1138 1.387 . S
C1139 C1141 1.387 . S
H1140 C1147 0.950 . S
C1141 C1139 1.387 . S
C1141 C1143 1.390 1_655 S
C1141 H1145 0.950 . S
H1142 C1138 0.950 . S
C1143 C1141 1.390 1_455 S
C1143 C1144 1.387 . S
C1143 H1146 0.950 . S
C1144 C1143 1.387 . S
C1144 C1147 1.387 . S
H1145 C1141 0.950 . S
H1146 C1143 0.950 . S
C1147 C1138 1.390 1_455 S
C1147 H1140 0.950 . S
C1147 C1144 1.387 . S
C1148 C1149 1.387 . S
C1148 H1152 0.950 . S
C1148 C1157 1.390 . S
C1149 C1148 1.387 . S
C1149 C1151 1.387 . S
H1150 C1157 0.950 . S
C1151 C1149 1.387 . S
C1151 C1153 1.390 . S
C1151 H1155 0.950 . S
H1152 C1148 0.950 . S
C1153 C1151 1.390 . S
C1153 C1154 1.387 . S
C1153 H1156 0.950 . S
C1154 C1153 1.387 . S
C1154 C1157 1.387 . S
H1155 C1151 0.950 . S
H1156 C1153 0.950 . S
C1157 C1148 1.390 . S
C1157 H1150 0.950 . S
C1157 C1154 1.387 . S
C1158 C1159 1.387 . S
C1158 H1162 0.950 . S
C1158 C1167 1.390 . S
C1159 C1158 1.387 . S
C1159 C1161 1.387 1_655 S
H1160 C1167 0.950 . S
C1161 C1159 1.387 1_455 S
C1161 C1163 1.390 . S
C1161 H1165 0.950 . S
H1162 C1158 0.950 . S
C1163 C1161 1.390 . S
C1163 C1164 1.387 1_455 S
C1163 H1166 0.950 . S
C1164 C1163 1.387 1_655 S
C1164 C1167 1.387 . S
H1165 C1161 0.950 . S
H1166 C1163 0.950 . S
C1167 C1158 1.390 . S
C1167 H1160 0.950 . S
C1167 C1164 1.387 . S
C1168 C1169 1.387 . S
C1168 H1172 0.950 . S
C1168 C1177 1.390 . S
C1169 C1168 1.387 . S
C1169 C1171 1.387 . S
H1170 C1177 0.950 . S
C1171 C1169 1.387 . S
C1171 C1173 1.390 . S
C1171 H1175 0.950 . S
H1172 C1168 0.950 . S
C1173 C1171 1.390 . S
C1173 C1174 1.387 . S
C1173 H1176 0.950 . S
C1174 C1173 1.387 . S
C1174 C1177 1.387 . S
H1175 C1171 0.950 . S
H1176 C1173 0.950 . S
C1177 C1168 1.390 . S
C1177 H1170 0.950 . S
C1177 C1174 1.387 . S
C1178 C1179 1.387 . S
C1178 H1182 0.950 . S
C1178 C1187 1.390 . S
C1179 C1178 1.387 . S
C1179 C1181 1.387 . S
H1180 C1187 0.950 . S
C1181 C1179 1.387 . S
C1181 C1183 1.390 . S
C1181 H1185 0.950 . S
H1182 C1178 0.950 . S
C1183 C1181 1.390 . S
C1183 C1184 1.387 . S
C1183 H1186 0.950 . S
C1184 C1183 1.387 . S
C1184 C1187 1.387 . S
H1185 C1181 0.950 . S
H1186 C1183 0.950 . S
C1187 C1178 1.390 . S
C1187 H1180 0.950 . S
C1187 C1184 1.387 . S
C1188 C1189 1.387 . S
C1188 H1192 0.950 . S
C1188 C1197 1.390 1_556 S
C1189 C1188 1.387 . S
C1189 C1191 1.387 . S
H1190 C1197 0.950 . S
C1191 C1189 1.387 . S
C1191 C1193 1.390 1_556 S
C1191 H1195 0.950 . S
H1192 C1188 0.950 . S
C1193 C1191 1.390 1_554 S
C1193 C1194 1.387 . S
C1193 H1196 0.950 . S
C1194 C1193 1.387 . S
C1194 C1197 1.387 . S
H1195 C1191 0.950 . S
H1196 C1193 0.950 . S
C1197 C1188 1.390 1_554 S
C1197 H1190 0.950 . S
C1197 C1194 1.387 . S
C1198 C1199 1.387 1_545 S
C1198 H1202 0.950 . S
C1198 C1207 1.390 . S
C1199 C1198 1.387 1_565 S
C1199 C1201 1.387 . S
H1200 C1207 0.950 . S
C1201 C1199 1.387 . S
C1201 C1203 1.390 . S
C1201 H1205 0.950 . S
H1202 C1198 0.950 . S
C1203 C1201 1.390 . S
C1203 C1204 1.387 . S
C1203 H1206 0.950 . S
C1204 C1203 1.387 . S
C1204 C1207 1.387 1_565 S
H1205 C1201 0.950 . S
H1206 C1203 0.950 . S
C1207 C1198 1.390 . S
C1207 H1200 0.950 . S
C1207 C1204 1.387 1_545 S
C1208 C1209 1.387 . S
C1208 H1212 0.950 . S
C1208 C1217 1.390 1_565 S
C1209 C1208 1.387 . S
C1209 C1211 1.387 . S
H1210 C1217 0.950 . S
C1211 C1209 1.387 . S
C1211 C1213 1.390 1_565 S
C1211 H1215 0.950 . S
H1212 C1208 0.950 . S
C1213 C1211 1.390 1_545 S
C1213 C1214 1.387 . S
C1213 H1216 0.950 . S
C1214 C1213 1.387 . S
C1214 C1217 1.387 . S
H1215 C1211 0.950 . S
H1216 C1213 0.950 . S
C1217 C1208 1.390 1_545 S
C1217 H1210 0.950 . S
C1217 C1214 1.387 . S
C1218 C1219 1.387 . S
C1218 H1222 0.950 . S
C1218 C1227 1.390 1_556 S
C1219 C1218 1.387 . S
C1219 C1221 1.387 1_545 S
H1220 C1227 0.950 . S
C1221 C1219 1.387 1_565 S
C1221 C1223 1.390 1_556 S
C1221 H1225 0.950 . S
H1222 C1218 0.950 . S
C1223 C1221 1.390 1_554 S
C1223 C1224 1.387 1_565 S
C1223 H1226 0.950 . S
C1224 C1223 1.387 1_545 S
C1224 C1227 1.387 . S
H1225 C1221 0.950 . S
H1226 C1223 0.950 . S
C1227 C1218 1.390 1_554 S
C1227 H1220 0.950 . S
C1227 C1224 1.387 . S
C1228 C1229 1.387 . S
C1228 H1232 0.950 . S
C1228 C1237 1.390 1_565 S
C1229 C1228 1.387 . S
C1229 C1231 1.387 . S
H1230 C1237 0.950 . S
C1231 C1229 1.387 . S
C1231 C1233 1.390 1_565 S
C1231 H1235 0.950 . S
H1232 C1228 0.950 . S
C1233 C1231 1.390 1_545 S
C1233 C1234 1.387 . S
C1233 H1236 0.950 . S
C1234 C1233 1.387 . S
C1234 C1237 1.387 . S
H1235 C1231 0.950 . S
H1236 C1233 0.950 . S
C1237 C1228 1.390 1_545 S
C1237 H1230 0.950 . S
C1237 C1234 1.387 . S
C1238 C1239 1.387 . S
C1238 H1242 0.950 . S
C1238 C1247 1.390 . S
C1239 C1238 1.387 . S
C1239 C1241 1.387 1_556 S
H1240 C1247 0.950 . S
C1241 C1239 1.387 1_554 S
C1241 C1243 1.390 . S
C1241 H1245 0.950 . S
H1242 C1238 0.950 . S
C1243 C1241 1.390 . S
C1243 C1244 1.387 1_554 S
C1243 H1246 0.950 . S
C1244 C1243 1.387 1_556 S
C1244 C1247 1.387 . S
H1245 C1241 0.950 . S
H1246 C1243 0.950 . S
C1247 C1238 1.390 . S
C1247 H1240 0.950 . S
C1247 C1244 1.387 . S
C1248 C1249 1.387 . S
C1248 H1252 0.950 . S
C1248 C1257 1.390 1_655 S
C1249 C1248 1.387 . S
C1249 C1251 1.387 1_554 S
H1250 C1257 0.950 . S
C1251 C1249 1.387 1_556 S
C1251 C1253 1.390 1_655 S
C1251 H1255 0.950 . S
H1252 C1248 0.950 . S
C1253 C1251 1.390 1_455 S
C1253 C1254 1.387 1_556 S
C1253 H1256 0.950 . S
C1254 C1253 1.387 1_554 S
C1254 C1257 1.387 . S
H1255 C1251 0.950 . S
H1256 C1253 0.950 . S
C1257 C1248 1.390 1_455 S
C1257 H1250 0.950 . S
C1257 C1254 1.387 . S
C1258 C1259 1.387 . S
C1258 H1262 0.950 . S
C1258 C1267 1.390 1_455 S
C1259 C1258 1.387 . S
C1259 C1261 1.387 . S
H1260 C1267 0.950 . S
C1261 C1259 1.387 . S
C1261 C1263 1.390 1_455 S
C1261 H1265 0.950 . S
H1262 C1258 0.950 . S
C1263 C1261 1.390 1_655 S
C1263 C1264 1.387 . S
C1263 H1266 0.950 . S
C1264 C1263 1.387 . S
C1264 C1267 1.387 . S
H1265 C1261 0.950 . S
H1266 C1263 0.950 . S
C1267 C1258 1.390 1_655 S
C1267 H1260 0.950 . S
C1267 C1264 1.387 . S
C1268 C1269 1.387 . S
C1268 H1272 0.950 . S
C1268 C1277 1.390 . S
C1269 C1268 1.387 . S
C1269 C1271 1.387 . S
H1270 C1277 0.950 . S
C1271 C1269 1.387 . S
C1271 C1273 1.390 . S
C1271 H1275 0.950 . S
H1272 C1268 0.950 . S
C1273 C1271 1.390 . S
C1273 C1274 1.387 . S
C1273 H1276 0.950 . S
C1274 C1273 1.387 . S
C1274 C1277 1.387 . S
H1275 C1271 0.950 . S
H1276 C1273 0.950 . S
C1277 C1268 1.390 . S
C1277 H1270 0.950 . S
C1277 C1274 1.387 . S
C1278 C1279 1.387 . S
C1278 H1282 0.950 . S
C1278 C1287 1.390 1_655 S
C1279 C1278 1.387 . S
C1279 C1281 1.387 . S
H1280 C1287 0.950 . S
C1281 C1279 1.387 . S
C1281 C1283 1.390 1_655 S
C1281 H1285 0.950 . S
H1282 C1278 0.950 . S
C1283 C1281 1.390 1_455 S
C1283 C1284 1.387 . S
C1283 H1286 0.950 . S
C1284 C1283 1.387 . S
C1284 C1287 1.387 . S
H1285 C1281 0.950 . S
H1286 C1283 0.950 . S
C1287 C1278 1.390 1_455 S
C1287 H1280 0.950 . S
C1287 C1284 1.387 . S
C1288 C1289 1.387 . S
C1288 H1292 0.950 . S
C1288 C1297 1.390 1_655 S
C1289 C1288 1.387 . S
C1289 C1291 1.387 . S
H1290 C1297 0.950 . S
C1291 C1289 1.387 . S
C1291 C1293 1.390 1_655 S
C1291 H1295 0.950 . S
H1292 C1288 0.950 . S
C1293 C1291 1.390 1_455 S
C1293 C1294 1.387 . S
C1293 H1296 0.950 . S
C1294 C1293 1.387 . S
C1294 C1297 1.387 . S
H1295 C1291 0.950 . S
H1296 C1293 0.950 . S
C1297 C1288 1.390 1_455 S
C1297 H1290 0.950 . S
C1297 C1294 1.387 . S
C1298 C1299 1.387 . S
C1298 H1302 0.950 . S
C1298 C1307 1.390 . S
C1299 C1298 1.387 . S
C1299 C1301 1.387 . S
H1300 C1307 0.950 . S
C1301 C1299 1.387 . S
C1301 C1303 1.390 . S
C1301 H1305 0.950 . S
H1302 C1298 0.950 . S
C1303 C1301 1.390 . S
C1303 C1304 1.387 . S
C1303 H1306 0.950 . S
C1304 C1303 1.387 . S
C1304 C1307 1.387 . S
H1305 C1301 0.950 . S
H1306 C1303 0.950 . S
C1307 C1298 1.390 . S
C1307 H1300 0.950 . S
C1307 C1304 1.387 . S
C1308 C1309 1.387 . S
C1308 H1312 0.950 . S
C1308 C1317 1.390 1_545 S
C1309 C1308 1.387 . S
C1309 C1311 1.387 . S
H1310 C1317 0.950 . S
C1311 C1309 1.387 . S
C1311 C1313 1.390 1_545 S
C1311 H1315 0.950 . S
H1312 C1308 0.950 . S
C1313 C1311 1.390 1_565 S
C1313 C1314 1.387 . S
C1313 H1316 0.950 . S
C1314 C1313 1.387 . S
C1314 C1317 1.387 . S
H1315 C1311 0.950 . S
H1316 C1313 0.950 . S
C1317 C1308 1.390 1_565 S
C1317 H1310 0.950 . S
C1317 C1314 1.387 . S
C1318 C1319 1.387 . S
C1318 H1322 0.950 . S
C1318 C1327 1.390 1_556 S
C1319 C1318 1.387 . S
C1319 C1321 1.387 . S
H1320 C1327 0.950 . S
C1321 C1319 1.387 . S
C1321 C1323 1.390 1_556 S
C1321 H1325 0.950 . S
H1322 C1318 0.950 . S
C1323 C1321 1.390 1_554 S
C1323 C1324 1.387 . S
C1323 H1326 0.950 . S
C1324 C1323 1.387 . S
C1324 C1327 1.387 . S
H1325 C1321 0.950 . S
H1326 C1323 0.950 . S
C1327 C1318 1.390 1_554 S
C1327 H1320 0.950 . S
C1327 C1324 1.387 . S
C1328 C1329 1.387 1_455 S
C1328 H1332 0.950 . S
C1328 C1337 1.390 1_545 S
C1329 C1328 1.387 1_655 S
C1329 C1331 1.387 . S
H1330 C1337 0.950 . S
C1331 C1329 1.387 . S
C1331 C1333 1.390 1_545 S
C1331 H1335 0.950 . S
H1332 C1328 0.950 . S
C1333 C1331 1.390 1_565 S
C1333 C1334 1.387 . S
C1333 H1336 0.950 . S
C1334 C1333 1.387 . S
C1334 C1337 1.387 1_655 S
H1335 C1331 0.950 . S
H1336 C1333 0.950 . S
C1337 C1328 1.390 1_565 S
C1337 H1330 0.950 . S
C1337 C1334 1.387 1_455 S
C1338 C1339 1.387 . S
C1338 H1342 0.950 . S
C1338 C1347 1.390 . S
C1339 C1338 1.387 . S
C1339 C1341 1.387 . S
H1340 C1347 0.950 . S
C1341 C1339 1.387 . S
C1341 C1343 1.390 . S
C1341 H1345 0.950 . S
H1342 C1338 0.950 . S
C1343 C1341 1.390 . S
C1343 C1344 1.387 . S
C1343 H1346 0.950 . S
C1344 C1343 1.387 . S
C1344 C1347 1.387 . S
H1345 C1341 0.950 . S
H1346 C1343 0.950 . S
C1347 C1338 1.390 . S
C1347 H1340 0.950 . S
C1347 C1344 1.387 . S
C1348 C1349 1.387 . S
C1348 H1352 0.950 . S
C1348 C1357 1.390 1_556 S
C1349 C1348 1.387 . S
C1349 C1351 1.387 . S
H1350 C1357 0.950 . S
C1351 C1349 1.387 . S
C1351 C1353 1.390 1_556 S
C1351 H1355 0.950 . S
H1352 C1348 0.950 . S
C1353 C1351 1.390 1_554 S
C1353 C1354 1.387 . S
C1353 H1356 0.950 . S
C1354 C1353 1.387 . S
C1354 C1357 1.387 . S
H1355 C1351 0.950 . S
H1356 C1353 0.950 . S
C1357 C1348 1.390 1_554 S
C1357 H1350 0.950 . S
C1357 C1354 1.387 . S
C1358 C1359 1.387 . S
C1358 H1362 0.950 . S
C1358 C1367 1.390 . S
C1359 C1358 1.387 . S
C1359 C1361 1.387 . S
H1360 C1367 0.950 . S
C1361 C1359 1.387 . S
C1361 C1363 1.390 . S
C1361 H1365 0.950 . S
H1362 C1358 0.950 . S
C1363 C1361 1.390 . S
C1363 C1364 1.387 . S
C1363 H1366 0.950 . S
C1364 C1363 1.387 . S
C1364 C1367 1.387 . S
H1365 C1361 0.950 . S
H1366 C1363 0.950 . S
C1367 C1358 1.390 . S
C1367 H1360 0.950 . S
C1367 C1364 1.387 . S
C1368 C1369 1.387 . S
C1368 H1372 0.950 . S
C1368 C1377 1.390 . S
C1369 C1368 1.387 . S
C1369 C1371 1.387 . S
H1370 C1377 0.950 . S
C1371 C1369 1.387 . S
C1371 C1373 1.390 . S
C1371 H1375 0.950 . S
H1372 C1368 0.950 . S
C1373 C1371 1.390 . S
C1373 C1374 1.387 . S
C1373 H1376 0.950 . S
C1374 C1373 1.387 . S
C1374 C1377 1.387 . S
H1375 C1371 0.950 . S
H1376 C1373 0.950 . S
C1377 C1368 1.390 . S
C1377 H1370 0.950 . S
C1377 C1374 1.387 . S
C1378 C1379 1.387 . S
C1378 H1382 0.950 . S
C1378 C1387 1.390 . S
C1379 C1378 1.387 . S
C1379 C1381 1.387 . S
H1380 C1387 0.950 . S
C1381 C1379 1.387 . S
C1381 C1383 1.390 . S
C1381 H1385 0.950 . S
H1382 C1378 0.950 . S
C1383 C1381 1.390 . S
C1383 C1384 1.387 . S
C1383 H1386 0.950 . S
C1384 C1383 1.387 . S
C1384 C1387 1.387 . S
H1385 C1381 0.950 . S
H1386 C1383 0.950 . S
C1387 C1378 1.390 . S
C1387 H1380 0.950 . S
C1387 C1384 1.387 . S
C1388 C1389 1.387 . S
C1388 H1392 0.950 . S
C1388 C1397 1.390 . S
C1389 C1388 1.387 . S
C1389 C1391 1.387 . S
H1390 C1397 0.950 . S
C1391 C1389 1.387 . S
C1391 C1393 1.390 . S
C1391 H1395 0.950 . S
H1392 C1388 0.950 . S
C1393 C1391 1.390 . S
C1393 C1394 1.387 . S
C1393 H1396 0.950 . S
C1394 C1393 1.387 . S
C1394 C1397 1.387 . S
H1395 C1391 0.950 . S
H1396 C1393 0.950 . S
C1397 C1388 1.390 . S
C1397 H1390 0.950 . S
C1397 C1394 1.387 . S
C1398 C1399 1.387 . S
C1398 H1402 0.950 . S
C1398 C1407 1.390 1_565 S
C1399 C1398 1.387 . S
C1399 C1401 1.387 . S
H1400 C1407 0.950 . S
C1401 C1399 1.387 . S
C1401 C1403 1.390 1_565 S
C1401 H1405 0.950 . S
H1402 C1398 0.950 . S
C1403 C1401 1.390 1_545 S
C1403 C1404 1.387 . S
C1403 H1406 0.950 . S
C1404 C1403 1.387 . S
C1404 C1407 1.387 . S
H1405 C1401 0.950 . S
H1406 C1403 0.950 . S
C1407 C1398 1.390 1_545 S
C1407 H1400 0.950 . S
C1407 C1404 1.387 . S
C1408 C1409 1.387 . S
C1408 H1412 0.950 . S
C1408 C1417 1.390 1_554 S
C1409 C1408 1.387 . S
C1409 C1411 1.387 . S
H1410 C1417 0.950 . S
C1411 C1409 1.387 . S
C1411 C1413 1.390 1_554 S
C1411 H1415 0.950 . S
H1412 C1408 0.950 . S
C1413 C1411 1.390 1_556 S
C1413 C1414 1.387 . S
C1413 H1416 0.950 . S
C1414 C1413 1.387 . S
C1414 C1417 1.387 . S
H1415 C1411 0.950 . S
H1416 C1413 0.950 . S
C1417 C1408 1.390 1_556 S
C1417 H1410 0.950 . S
C1417 C1414 1.387 . S
C1418 C1419 1.387 . S
C1418 H1422 0.950 . S
C1418 C1427 1.390 1_545 S
C1419 C1418 1.387 . S
C1419 C1421 1.387 1_455 S
H1420 C1427 0.950 . S
C1421 C1419 1.387 1_655 S
C1421 C1423 1.390 1_545 S
C1421 H1425 0.950 . S
H1422 C1418 0.950 . S
C1423 C1421 1.390 1_565 S
C1423 C1424 1.387 1_655 S
C1423 H1426 0.950 . S
C1424 C1423 1.387 1_455 S
C1424 C1427 1.387 . S
H1425 C1421 0.950 . S
H1426 C1423 0.950 . S
C1427 C1418 1.390 1_565 S
C1427 H1420 0.950 . S
C1427 C1424 1.387 . S
C1428 C1429 1.387 . S
C1428 H1432 0.950 . S
C1428 C1437 1.390 . S
C1429 C1428 1.387 . S
C1429 C1431 1.387 . S
H1430 C1437 0.950 . S
C1431 C1429 1.387 . S
C1431 C1433 1.390 . S
C1431 H1435 0.950 . S
H1432 C1428 0.950 . S
C1433 C1431 1.390 . S
C1433 C1434 1.387 . S
C1433 H1436 0.950 . S
C1434 C1433 1.387 . S
C1434 C1437 1.387 . S
H1435 C1431 0.950 . S
H1436 C1433 0.950 . S
C1437 C1428 1.390 . S
C1437 H1430 0.950 . S
C1437 C1434 1.387 . S
C1438 C1439 1.387 . S
C1438 H1442 0.950 . S
C1438 C1447 1.390 1_554 S
C1439 C1438 1.387 . S
C1439 C1441 1.387 . S
H1440 C1447 0.950 . S
C1441 C1439 1.387 . S
C1441 C1443 1.390 1_554 S
C1441 H1445 0.950 . S
H1442 C1438 0.950 . S
C1443 C1441 1.390 1_556 S
C1443 C1444 1.387 . S
C1443 H1446 0.950 . S
C1444 C1443 1.387 . S
C1444 C1447 1.387 . S
H1445 C1441 0.950 . S
H1446 C1443 0.950 . S
C1447 C1438 1.390 1_556 S
C1447 H1440 0.950 . S
C1447 C1444 1.387 . S
C1448 C1449 1.387 . S
C1448 H1452 0.950 . S
C1448 C1457 1.390 . S
C1449 C1448 1.387 . S
C1449 C1451 1.387 . S
H1450 C1457 0.950 . S
C1451 C1449 1.387 . S
C1451 C1453 1.390 . S
C1451 H1455 0.950 . S
H1452 C1448 0.950 . S
C1453 C1451 1.390 . S
C1453 C1454 1.387 . S
C1453 H1456 0.950 . S
C1454 C1453 1.387 . S
C1454 C1457 1.387 . S
H1455 C1451 0.950 . S
H1456 C1453 0.950 . S
C1457 C1448 1.390 . S
C1457 H1450 0.950 . S
C1457 C1454 1.387 . S
C1458 C1459 1.387 . S
C1458 H1462 0.950 . S
C1458 C1467 1.390 . S
C1459 C1458 1.387 . S
C1459 C1461 1.387 . S
H1460 C1467 0.950 . S
C1461 C1459 1.387 . S
C1461 C1463 1.390 . S
C1461 H1465 0.950 . S
H1462 C1458 0.950 . S
C1463 C1461 1.390 . S
C1463 C1464 1.387 . S
C1463 H1466 0.950 . S
C1464 C1463 1.387 . S
C1464 C1467 1.387 . S
H1465 C1461 0.950 . S
H1466 C1463 0.950 . S
C1467 C1458 1.390 . S
C1467 H1460 0.950 . S
C1467 C1464 1.387 . S
C1468 C1469 1.387 . S
C1468 H1472 0.950 . S
C1468 C1477 1.390 . S
C1469 C1468 1.387 . S
C1469 C1471 1.387 . S
H1470 C1477 0.950 . S
C1471 C1469 1.387 . S
C1471 C1473 1.390 . S
C1471 H1475 0.950 . S
H1472 C1468 0.950 . S
C1473 C1471 1.390 . S
C1473 C1474 1.387 . S
C1473 H1476 0.950 . S
C1474 C1473 1.387 . S
C1474 C1477 1.387 . S
H1475 C1471 0.950 . S
H1476 C1473 0.950 . S
C1477 C1468 1.390 . S
C1477 H1470 0.950 . S
C1477 C1474 1.387 . S
C1478 C1479 1.387 . S
C1478 H1482 0.950 . S
C1478 C1487 1.390 . S
C1479 C1478 1.387 . S
C1479 C1481 1.387 . S
H1480 C1487 0.950 . S
C1481 C1479 1.387 . S
C1481 C1483 1.390 . S
C1481 H1485 0.950 . S
H1482 C1478 0.950 . S
C1483 C1481 1.390 . S
C1483 C1484 1.387 . S
C1483 H1486 0.950 . S
C1484 C1483 1.387 . S
C1484 C1487 1.387 . S
H1485 C1481 0.950 . S
H1486 C1483 0.950 . S
C1487 C1478 1.390 . S
C1487 H1480 0.950 . S
C1487 C1484 1.387 . S
C1488 C1489 1.387 . S
C1488 H1492 0.950 . S
C1488 C1497 1.390 . S
C1489 C1488 1.387 . S
C1489 C1491 1.387 . S
H1490 C1497 0.950 . S
C1491 C1489 1.387 . S
C1491 C1493 1.390 . S
C1491 H1495 0.950 . S
H1492 C1488 0.950 . S
C1493 C1491 1.390 . S
C1493 C1494 1.387 . S
C1493 H1496 0.950 . S
C1494 C1493 1.387 . S
C1494 C1497 1.387 . S
H1495 C1491 0.950 . S
H1496 C1493 0.950 . S
C1497 C1488 1.390 . S
C1497 H1490 0.950 . S
C1497 C1494 1.387 . S
C1498 C1499 1.387 . S
C1498 H1502 0.950 . S
C1498 C1507 1.390 . S
C1499 C1498 1.387 . S
C1499 C1501 1.387 . S
H1500 C1507 0.950 . S
C1501 C1499 1.387 . S
C1501 C1503 1.390 . S
C1501 H1505 0.950 . S
H1502 C1498 0.950 . S
C1503 C1501 1.390 . S
C1503 C1504 1.387 . S
C1503 H1506 0.950 . S
C1504 C1503 1.387 . S
C1504 C1507 1.387 . S
H1505 C1501 0.950 . S
H1506 C1503 0.950 . S
C1507 C1498 1.390 . S
C1507 H1500 0.950 . S
C1507 C1504 1.387 . S
C1508 C1509 1.387 . S
C1508 H1512 0.950 . S
C1508 C1517 1.390 . S
C1509 C1508 1.387 . S
C1509 C1511 1.387 . S
H1510 C1517 0.950 . S
C1511 C1509 1.387 . S
C1511 C1513 1.390 . S
C1511 H1515 0.950 . S
H1512 C1508 0.950 . S
C1513 C1511 1.390 . S
C1513 C1514 1.387 . S
C1513 H1516 0.950 . S
C1514 C1513 1.387 . S
C1514 C1517 1.387 . S
H1515 C1511 0.950 . S
H1516 C1513 0.950 . S
C1517 C1508 1.390 . S
C1517 H1510 0.950 . S
C1517 C1514 1.387 . S
C1518 C1519 1.387 . S
C1518 H1522 0.950 . S
C1518 C1527 1.390 . S
C1519 C1518 1.387 . S
C1519 C1521 1.387 . S
H1520 C1527 0.950 . S
C1521 C1519 1.387 . S
C1521 C1523 1.390 . S
C1521 H1525 0.950 . S
H1522 C1518 0.950 . S
C1523 C1521 1.390 . S
C1523 C1524 1.387 . S
C1523 H1526 0.950 . S
C1524 C1523 1.387 . S
C1524 C1527 1.387 . S
H1525 C1521 0.950 . S
H1526 C1523 0.950 . S
C1527 C1518 1.390 . S
C1527 H1520 0.950 . S
C1527 C1524 1.387 . S
C1528 C1529 1.387 . S
C1528 H1532 0.950 . S
C1528 C1537 1.390 . S
C1529 C1528 1.387 . S
C1529 C1531 1.387 . S
H1530 C1537 0.950 . S
C1531 C1529 1.387 . S
C1531 C1533 1.390 . S
C1531 H1535 0.950 . S
H1532 C1528 0.950 . S
C1533 C1531 1.390 . S
C1533 C1534 1.387 . S
C1533 H1536 0.950 . S
C1534 C1533 1.387 . S
C1534 C1537 1.387 . S
H1535 C1531 0.950 . S
H1536 C1533 0.950 . S
C1537 C1528 1.390 . S
C1537 H1530 0.950 . S
C1537 C1534 1.387 . S
C1538 C1539 1.387 . S
C1538 H1542 0.950 . S
C1538 C1547 1.390 . S
C1539 C1538 1.387 . S
C1539 C1541 1.387 . S
H1540 C1547 0.950 . S
C1541 C1539 1.387 . S
C1541 C1543 1.390 . S
C1541 H1545 0.950 . S
H1542 C1538 0.950 . S
C1543 C1541 1.390 . S
C1543 C1544 1.387 . S
C1543 H1546 0.950 . S
C1544 C1543 1.387 . S
C1544 C1547 1.387 . S
H1545 C1541 0.950 . S
H1546 C1543 0.950 . S
C1547 C1538 1.390 . S
C1547 H1540 0.950 . S
C1547 C1544 1.387 . S
C1548 C1549 1.387 . S
C1548 H1552 0.950 . S
C1548 C1557 1.390 . S
C1549 C1548 1.387 . S
C1549 C1551 1.387 . S
H1550 C1557 0.950 . S
C1551 C1549 1.387 . S
C1551 C1553 1.390 . S
C1551 H1555 0.950 . S
H1552 C1548 0.950 . S
C1553 C1551 1.390 . S
C1553 C1554 1.387 . S
C1553 H1556 0.950 . S
C1554 C1553 1.387 . S
C1554 C1557 1.387 . S
H1555 C1551 0.950 . S
H1556 C1553 0.950 . S
C1557 C1548 1.390 . S
C1557 H1550 0.950 . S
C1557 C1554 1.387 . S
C1558 C1559 1.387 . S
C1558 H1562 0.950 . S
C1558 C1567 1.390 . S
C1559 C1558 1.387 . S
C1559 C1561 1.387 . S
H1560 C1567 0.950 . S
C1561 C1559 1.387 . S
C1561 C1563 1.390 . S
C1561 H1565 0.950 . S
H1562 C1558 0.950 . S
C1563 C1561 1.390 . S
C1563 C1564 1.387 . S
C1563 H1566 0.950 . S
C1564 C1563 1.387 . S
C1564 C1567 1.387 . S
H1565 C1561 0.950 . S
H1566 C1563 0.950 . S
C1567 C1558 1.390 . S
C1567 H1560 0.950 . S
C1567 C1564 1.387 . S
C1568 C1569 1.387 . S
C1568 H1572 0.950 . S
C1568 C1577 1.390 . S
C1569 C1568 1.387 . S
C1569 C1571 1.387 . S
H1570 C1577 0.950 . S
C1571 C1569 1.387 . S
C1571 C1573 1.390 . S
C1571 H1575 0.950 . S
H1572 C1568 0.950 . S
C1573 C1571 1.390 . S
C1573 C1574 1.387 . S
C1573 H1576 0.950 . S
C1574 C1573 1.387 . S
C1574 C1577 1.387 . S
H1575 C1571 0.950 . S
H1576 C1573 0.950 . S
C1577 C1568 1.390 . S
C1577 H1570 0.950 . S
C1577 C1574 1.387 . S
C1578 C1579 1.387 . S
C1578 H1582 0.950 . S
C1578 C1587 1.390 . S
C1579 C1578 1.387 . S
C1579 C1581 1.387 . S
H1580 C1587 0.950 . S
C1581 C1579 1.387 . S
C1581 C1583 1.390 . S
C1581 H1585 0.950 . S
H1582 C1578 0.950 . S
C1583 C1581 1.390 . S
C1583 C1584 1.387 . S
C1583 H1586 0.950 . S
C1584 C1583 1.387 . S
C1584 C1587 1.387 . S
H1585 C1581 0.950 . S
H1586 C1583 0.950 . S
C1587 C1578 1.390 . S
C1587 H1580 0.950 . S
C1587 C1584 1.387 . S
C1588 C1589 1.387 . S
C1588 H1592 0.950 . S
C1588 C1597 1.390 . S
C1589 C1588 1.387 . S
C1589 C1591 1.387 . S
H1590 C1597 0.950 . S
C1591 C1589 1.387 . S
C1591 C1593 1.390 . S
C1591 H1595 0.950 . S
H1592 C1588 0.950 . S
C1593 C1591 1.390 . S
C1593 C1594 1.387 . S
C1593 H1596 0.950 . S
C1594 C1593 1.387 . S
C1594 C1597 1.387 . S
H1595 C1591 0.950 . S
H1596 C1593 0.950 . S
C1597 C1588 1.390 . S
C1597 H1590 0.950 . S
C1597 C1594 1.387 . S
C1598 C1599 1.387 . S
C1598 H1602 0.950 1_554 S
C1598 C1607 1.390 . S
C1599 C1598 1.387 . S
C1599 C1601 1.387 . S
H1600 C1607 0.950 . S
C1601 C1599 1.387 . S
C1601 C1603 1.390 . S
C1601 H1605 0.950 . S
H1602 C1598 0.950 1_556 S
C1603 C1601 1.390 . S
C1603 C1604 1.387 . S
C1603 H1606 0.950 . S
C1604 C1603 1.387 . S
C1604 C1607 1.387 . S
H1605 C1601 0.950 . S
H1606 C1603 0.950 . S
C1607 C1598 1.390 . S
C1607 H1600 0.950 . S
C1607 C1604 1.387 . S
C1608 C1609 1.387 . S
C1608 H1612 0.950 . S
C1608 C1617 1.390 . S
C1609 C1608 1.387 . S
C1609 C1611 1.387 . S
H1610 C1617 0.950 . S
C1611 C1609 1.387 . S
C1611 C1613 1.390 . S
C1611 H1615 0.950 . S
H1612 C1608 0.950 . S
C1613 C1611 1.390 . S
C1613 C1614 1.387 . S
C1613 H1616 0.950 . S
C1614 C1613 1.387 . S
C1614 C1617 1.387 . S
H1615 C1611 0.950 . S
H1616 C1613 0.950 . S
C1617 C1608 1.390 . S
C1617 H1610 0.950 . S
C1617 C1614 1.387 . S
C1618 C1619 1.387 . S
C1618 H1622 0.950 . S
C1618 C1627 1.390 . S
C1619 C1618 1.387 . S
C1619 C1621 1.387 . S
H1620 C1627 0.950 . S
C1621 C1619 1.387 . S
C1621 C1623 1.390 . S
C1621 H1625 0.950 . S
H1622 C1618 0.950 . S
C1623 C1621 1.390 . S
C1623 C1624 1.387 . S
C1623 H1626 0.950 . S
C1624 C1623 1.387 . S
C1624 C1627 1.387 . S
H1625 C1621 0.950 . S
H1626 C1623 0.950 . S
C1627 C1618 1.390 . S
C1627 H1620 0.950 . S
C1627 C1624 1.387 . S
C1628 C1629 1.387 . S
C1628 H1632 0.950 . S
C1628 C1637 1.390 . S
C1629 C1628 1.387 . S
C1629 C1631 1.387 . S
H1630 C1637 0.950 . S
C1631 C1629 1.387 . S
C1631 C1633 1.390 . S
C1631 H1635 0.950 . S
H1632 C1628 0.950 . S
C1633 C1631 1.390 . S
C1633 C1634 1.387 . S
C1633 H1636 0.950 . S
C1634 C1633 1.387 . S
C1634 C1637 1.387 . S
H1635 C1631 0.950 . S
H1636 C1633 0.950 . S
C1637 C1628 1.390 . S
C1637 H1630 0.950 . S
C1637 C1634 1.387 . S
C1638 C1639 1.387 . S
C1638 H1642 0.950 1_556 S
C1638 C1647 1.390 . S
C1639 C1638 1.387 . S
C1639 C1641 1.387 . S
H1640 C1647 0.950 . S
C1641 C1639 1.387 . S
C1641 C1643 1.390 . S
C1641 H1645 0.950 . S
H1642 C1638 0.950 1_554 S
C1643 C1641 1.390 . S
C1643 C1644 1.387 . S
C1643 H1646 0.950 . S
C1644 C1643 1.387 . S
C1644 C1647 1.387 . S
H1645 C1641 0.950 . S
H1646 C1643 0.950 . S
C1647 C1638 1.390 . S
C1647 H1640 0.950 . S
C1647 C1644 1.387 . S
C1648 C1649 1.387 . S
C1648 H1652 0.950 . S
C1648 C1657 1.390 . S
C1649 C1648 1.387 . S
C1649 C1651 1.387 . S
H1650 C1657 0.950 . S
C1651 C1649 1.387 . S
C1651 C1653 1.390 . S
C1651 H1655 0.950 . S
H1652 C1648 0.950 . S
C1653 C1651 1.390 . S
C1653 C1654 1.387 . S
C1653 H1656 0.950 . S
C1654 C1653 1.387 . S
C1654 C1657 1.387 . S
H1655 C1651 0.950 . S
H1656 C1653 0.950 . S
C1657 C1648 1.390 . S
C1657 H1650 0.950 . S
C1657 C1654 1.387 . S
C1658 C1659 1.387 . S
C1658 H1662 0.950 . S
C1658 C1667 1.390 . S
C1659 C1658 1.387 . S
C1659 C1661 1.387 . S
H1660 C1667 0.950 . S
C1661 C1659 1.387 . S
C1661 C1663 1.390 . S
C1661 H1665 0.950 . S
H1662 C1658 0.950 . S
C1663 C1661 1.390 . S
C1663 C1664 1.387 . S
C1663 H1666 0.950 . S
C1664 C1663 1.387 . S
C1664 C1667 1.387 . S
H1665 C1661 0.950 . S
H1666 C1663 0.950 . S
C1667 C1658 1.390 . S
C1667 H1660 0.950 . S
C1667 C1664 1.387 . S
C1668 C1669 1.387 . S
C1668 H1672 0.950 . S
C1668 C1677 1.390 . S
C1669 C1668 1.387 . S
C1669 C1671 1.387 . S
H1670 C1677 0.950 . S
C1671 C1669 1.387 . S
C1671 C1673 1.390 . S
C1671 H1675 0.950 . S
H1672 C1668 0.950 . S
C1673 C1671 1.390 . S
C1673 C1674 1.387 . S
C1673 H1676 0.950 . S
C1674 C1673 1.387 . S
C1674 C1677 1.387 . S
H1675 C1671 0.950 . S
H1676 C1673 0.950 . S
C1677 C1668 1.390 . S
C1677 H1670 0.950 . S
C1677 C1674 1.387 . S
C1678 C1679 1.387 . S
C1678 H1682 0.950 . S
C1678 C1687 1.390 . S
C1679 C1678 1.387 . S
C1679 C1681 1.387 . S
H1680 C1687 0.950 . S
C1681 C1679 1.387 . S
C1681 C1683 1.390 . S
C1681 H1685 0.950 . S
H1682 C1678 0.950 . S
C1683 C1681 1.390 . S
C1683 C1684 1.387 . S
C1683 H1686 0.950 . S
C1684 C1683 1.387 . S
C1684 C1687 1.387 . S
H1685 C1681 0.950 . S
H1686 C1683 0.950 . S
C1687 C1678 1.390 . S
C1687 H1680 0.950 . S
C1687 C1684 1.387 . S
C1688 C1689 1.387 . S
C1688 H1692 0.950 . S
C1688 C1697 1.390 . S
C1689 C1688 1.387 . S
C1689 C1691 1.387 . S
H1690 C1697 0.950 . S
C1691 C1689 1.387 . S
C1691 C1693 1.390 . S
C1691 H1695 0.950 . S
H1692 C1688 0.950 . S
C1693 C1691 1.390 . S
C1693 C1694 1.387 . S
C1693 H1696 0.950 . S
C1694 C1693 1.387 . S
C1694 C1697 1.387 . S
H1695 C1691 0.950 . S
H1696 C1693 0.950 . S
C1697 C1688 1.390 . S
C1697 H1690 0.950 . S
C1697 C1694 1.387 . S
C1698 C1699 1.387 . S
C1698 H1702 0.950 . S
C1698 C1707 1.390 . S
C1699 C1698 1.387 . S
C1699 C1701 1.387 . S
H1700 C1707 0.950 . S
C1701 C1699 1.387 . S
C1701 C1703 1.390 . S
C1701 H1705 0.950 . S
H1702 C1698 0.950 . S
C1703 C1701 1.390 . S
C1703 C1704 1.387 . S
C1703 H1706 0.950 . S
C1704 C1703 1.387 . S
C1704 C1707 1.387 . S
H1705 C1701 0.950 . S
H1706 C1703 0.950 . S
C1707 C1698 1.390 . S
C1707 H1700 0.950 . S
C1707 C1704 1.387 . S
C1708 C1709 1.387 . S
C1708 H1712 0.950 . S
C1708 C1717 1.390 . S
C1709 C1708 1.387 . S
C1709 C1711 1.387 . S
H1710 C1717 0.950 . S
C1711 C1709 1.387 . S
C1711 C1713 1.390 . S
C1711 H1715 0.950 . S
H1712 C1708 0.950 . S
C1713 C1711 1.390 . S
C1713 C1714 1.387 . S
C1713 H1716 0.950 . S
C1714 C1713 1.387 . S
C1714 C1717 1.387 . S
H1715 C1711 0.950 . S
H1716 C1713 0.950 . S
C1717 C1708 1.390 . S
C1717 H1710 0.950 . S
C1717 C1714 1.387 . S
C1718 C1719 1.387 . S
C1718 H1722 0.950 . S
C1718 C1727 1.390 . S
C1719 C1718 1.387 . S
C1719 C1721 1.387 . S
H1720 C1727 0.950 . S
C1721 C1719 1.387 . S
C1721 C1723 1.390 . S
C1721 H1725 0.950 . S
H1722 C1718 0.950 . S
C1723 C1721 1.390 . S
C1723 C1724 1.387 . S
C1723 H1726 0.950 . S
C1724 C1723 1.387 . S
C1724 C1727 1.387 . S
H1725 C1721 0.950 . S
H1726 C1723 0.950 . S
C1727 C1718 1.390 . S
C1727 H1720 0.950 . S
C1727 C1724 1.387 . S
C1728 C1729 1.387 . S
C1728 H1732 0.950 . S
C1728 C1737 1.390 . S
C1729 C1728 1.387 . S
C1729 C1731 1.387 . S
H1730 C1737 0.950 . S
C1731 C1729 1.387 . S
C1731 C1733 1.390 . S
C1731 H1735 0.950 . S
H1732 C1728 0.950 . S
C1733 C1731 1.390 . S
C1733 C1734 1.387 . S
C1733 H1736 0.950 . S
C1734 C1733 1.387 . S
C1734 C1737 1.387 . S
H1735 C1731 0.950 . S
H1736 C1733 0.950 . S
C1737 C1728 1.390 . S
C1737 H1730 0.950 . S
C1737 C1734 1.387 . S
C1738 C1739 1.387 . S
C1738 H1742 0.950 . S
C1738 C1747 1.390 . S
C1739 C1738 1.387 . S
C1739 C1741 1.387 . S
H1740 C1747 0.950 . S
C1741 C1739 1.387 . S
C1741 C1743 1.390 . S
C1741 H1745 0.950 . S
H1742 C1738 0.950 . S
C1743 C1741 1.390 . S
C1743 C1744 1.387 . S
C1743 H1746 0.950 . S
C1744 C1743 1.387 . S
C1744 C1747 1.387 . S
H1745 C1741 0.950 . S
H1746 C1743 0.950 . S
C1747 C1738 1.390 . S
C1747 H1740 0.950 . S
C1747 C1744 1.387 . S
C1748 C1749 1.387 . S
C1748 H1752 0.950 . S
C1748 C1757 1.390 . S
C1749 C1748 1.387 . S
C1749 C1751 1.387 . S
H1750 C1757 0.950 . S
C1751 C1749 1.387 . S
C1751 C1753 1.390 . S
C1751 H1755 0.950 . S
H1752 C1748 0.950 . S
C1753 C1751 1.390 . S
C1753 C1754 1.387 . S
C1753 H1756 0.950 . S
C1754 C1753 1.387 . S
C1754 C1757 1.387 . S
H1755 C1751 0.950 . S
H1756 C1753 0.950 . S
C1757 C1748 1.390 . S
C1757 H1750 0.950 . S
C1757 C1754 1.387 . S
C1758 C1759 1.387 . S
C1758 H1762 0.950 . S
C1758 C1767 1.390 . S
C1759 C1758 1.387 . S
C1759 C1761 1.387 . S
H1760 C1767 0.950 . S
C1761 C1759 1.387 . S
C1761 C1763 1.390 . S
C1761 H1765 0.950 . S
H1762 C1758 0.950 . S
C1763 C1761 1.390 . S
C1763 C1764 1.387 . S
C1763 H1766 0.950 . S
C1764 C1763 1.387 . S
C1764 C1767 1.387 . S
H1765 C1761 0.950 . S
H1766 C1763 0.950 . S
C1767 C1758 1.390 . S
C1767 H1760 0.950 . S
C1767 C1764 1.387 . S
C1768 C1769 1.387 . S
C1768 H1772 0.950 . S
C1768 C1777 1.390 . S
C1769 C1768 1.387 . S
C1769 C1771 1.387 . S
H1770 C1777 0.950 . S
C1771 C1769 1.387 . S
C1771 C1773 1.390 . S
C1771 H1775 0.950 . S
H1772 C1768 0.950 . S
C1773 C1771 1.390 . S
C1773 C1774 1.387 . S
C1773 H1776 0.950 . S
C1774 C1773 1.387 . S
C1774 C1777 1.387 . S
H1775 C1771 0.950 . S
H1776 C1773 0.950 . S
C1777 C1768 1.390 . S
C1777 H1770 0.950 . S
C1777 C1774 1.387 . S
C1778 C1779 1.387 . S
C1778 H1782 0.950 . S
C1778 C1787 1.390 . S
C1779 C1778 1.387 . S
C1779 C1781 1.387 . S
H1780 C1787 0.950 . S
C1781 C1779 1.387 . S
C1781 C1783 1.390 . S
C1781 H1785 0.950 . S
H1782 C1778 0.950 . S
C1783 C1781 1.390 . S
C1783 C1784 1.387 . S
C1783 H1786 0.950 . S
C1784 C1783 1.387 . S
C1784 C1787 1.387 . S
H1785 C1781 0.950 . S
H1786 C1783 0.950 . S
C1787 C1778 1.390 . S
C1787 H1780 0.950 . S
C1787 C1784 1.387 . S
C1788 C1789 1.387 . S
C1788 H1792 0.950 . S
C1788 C1797 1.390 . S
C1789 C1788 1.387 . S
C1789 C1791 1.387 . S
H1790 C1797 0.950 . S
C1791 C1789 1.387 . S
C1791 C1793 1.390 . S
C1791 H1795 0.950 . S
H1792 C1788 0.950 . S
C1793 C1791 1.390 . S
C1793 C1794 1.387 . S
C1793 H1796 0.950 . S
C1794 C1793 1.387 . S
C1794 C1797 1.387 . S
H1795 C1791 0.950 . S
H1796 C1793 0.950 . S
C1797 C1788 1.390 . S
C1797 H1790 0.950 . S
C1797 C1794 1.387 . S
C1798 C1799 1.387 . S
C1798 H1802 0.950 . S
C1798 C1807 1.390 . S
C1799 C1798 1.387 . S
C1799 C1801 1.387 . S
H1800 C1807 0.950 . S
C1801 C1799 1.387 . S
C1801 C1803 1.390 . S
C1801 H1805 0.950 . S
H1802 C1798 0.950 . S
C1803 C1801 1.390 . S
C1803 C1804 1.387 . S
C1803 H1806 0.950 . S
C1804 C1803 1.387 . S
C1804 C1807 1.387 . S
H1805 C1801 0.950 . S
H1806 C1803 0.950 . S
C1807 C1798 1.390 . S
C1807 H1800 0.950 . S
C1807 C1804 1.387 . S
C1808 C1809 1.387 . S
C1808 H1812 0.950 . S
C1808 C1817 1.390 . S
C1809 C1808 1.387 . S
C1809 C1811 1.387 . S
H1810 C1817 0.950 . S
C1811 C1809 1.387 . S
C1811 C1813 1.390 . S
C1811 H1815 0.950 . S
H1812 C1808 0.950 . S
C1813 C1811 1.390 . S
C1813 C1814 1.387 . S
C1813 H1816 0.950 . S
C1814 C1813 1.387 . S
C1814 C1817 1.387 . S
H1815 C1811 0.950 . S
H1816 C1813 0.950 . S
C1817 C1808 1.390 . S
C1817 H1810 0.950 . S
C1817 C1814 1.387 . S
C1818 C1819 1.387 . S
C1818 H1822 0.950 . S
C1818 C1827 1.390 . S
C1819 C1818 1.387 . S
C1819 C1821 1.387 . S
H1820 C1827 0.950 . S
C1821 C1819 1.387 . S
C1821 C1823 1.390 . S
C1821 H1825 0.950 . S
H1822 C1818 0.950 . S
C1823 C1821 1.390 . S
C1823 C1824 1.387 . S
C1823 H1826 0.950 . S
C1824 C1823 1.387 . S
C1824 C1827 1.387 . S
H1825 C1821 0.950 . S
H1826 C1823 0.950 . S
C1827 C1818 1.390 . S
C1827 H1820 0.950 . S
C1827 C1824 1.387 . S
C1828 C1829 1.387 . S
C1828 H1832 0.950 . S
C1828 C1837 1.390 . S
C1829 C1828 1.387 . S
C1829 C1831 1.387 . S
H1830 C1837 0.950 . S
C1831 C1829 1.387 . S
C1831 C1833 1.390 . S
C1831 H1835 0.950 . S
H1832 C1828 0.950 . S
C1833 C1831 1.390 . S
C1833 C1834 1.387 . S
C1833 H1836 0.950 . S
C1834 C1833 1.387 . S
C1834 C1837 1.387 . S
H1835 C1831 0.950 . S
H1836 C1833 0.950 . S
C1837 C1828 1.390 . S
C1837 H1830 0.950 . S
C1837 C1834 1.387 . S
C1838 C1839 1.387 . S
C1838 H1842 0.950 . S
C1838 C1847 1.390 . S
C1839 C1838 1.387 . S
C1839 C1841 1.387 . S
H1840 C1847 0.950 . S
C1841 C1839 1.387 . S
C1841 C1843 1.390 . S
C1841 H1845 0.950 1_556 S
H1842 C1838 0.950 . S
C1843 C1841 1.390 . S
C1843 C1844 1.387 . S
C1843 H1846 0.950 . S
C1844 C1843 1.387 . S
C1844 C1847 1.387 . S
H1845 C1841 0.950 1_554 S
H1846 C1843 0.950 . S
C1847 C1838 1.390 . S
C1847 H1840 0.950 . S
C1847 C1844 1.387 . S
C1848 C1849 1.387 . S
C1848 H1852 0.950 . S
C1848 C1857 1.390 . S
C1849 C1848 1.387 . S
C1849 C1851 1.387 . S
H1850 C1857 0.950 . S
C1851 C1849 1.387 . S
C1851 C1853 1.390 . S
C1851 H1855 0.950 . S
H1852 C1848 0.950 . S
C1853 C1851 1.390 . S
C1853 C1854 1.387 . S
C1853 H1856 0.950 . S
C1854 C1853 1.387 . S
C1854 C1857 1.387 . S
H1855 C1851 0.950 . S
H1856 C1853 0.950 . S
C1857 C1848 1.390 . S
C1857 H1850 0.950 . S
C1857 C1854 1.387 . S
C1858 C1859 1.387 . S
C1858 H1862 0.950 . S
C1858 C1867 1.390 . S
C1859 C1858 1.387 . S
C1859 C1861 1.387 . S
H1860 C1867 0.950 . S
C1861 C1859 1.387 . S
C1861 C1863 1.390 . S
C1861 H1865 0.950 . S
H1862 C1858 0.950 . S
C1863 C1861 1.390 . S
C1863 C1864 1.387 . S
C1863 H1866 0.950 . S
C1864 C1863 1.387 . S
C1864 C1867 1.387 . S
H1865 C1861 0.950 . S
H1866 C1863 0.950 . S
C1867 C1858 1.390 . S
C1867 H1860 0.950 . S
C1867 C1864 1.387 . S
C1868 C1869 1.387 . S
C1868 H1872 0.950 . S
C1868 C1877 1.390 . S
C1869 C1868 1.387 . S
C1869 C1871 1.387 . S
H1870 C1877 0.950 . S
C1871 C1869 1.387 . S
C1871 C1873 1.390 . S
C1871 H1875 0.950 . S
H1872 C1868 0.950 . S
C1873 C1871 1.390 . S
C1873 C1874 1.387 . S
C1873 H1876 0.950 . S
C1874 C1873 1.387 . S
C1874 C1877 1.387 . S
H1875 C1871 0.950 . S
H1876 C1873 0.950 . S
C1877 C1868 1.390 . S
C1877 H1870 0.950 . S
C1877 C1874 1.387 . S
C1878 C1879 1.387 . S
C1878 H1882 0.950 . S
C1878 C1887 1.390 . S
C1879 C1878 1.387 . S
C1879 C1881 1.387 . S
H1880 C1887 0.950 . S
C1881 C1879 1.387 . S
C1881 C1883 1.390 . S
C1881 H1885 0.950 1_554 S
H1882 C1878 0.950 . S
C1883 C1881 1.390 . S
C1883 C1884 1.387 . S
C1883 H1886 0.950 . S
C1884 C1883 1.387 . S
C1884 C1887 1.387 . S
H1885 C1881 0.950 1_556 S
H1886 C1883 0.950 . S
C1887 C1878 1.390 . S
C1887 H1880 0.950 . S
C1887 C1884 1.387 . S
C1888 C1889 1.387 . S
C1888 H1892 0.950 . S
C1888 C1897 1.390 . S
C1889 C1888 1.387 . S
C1889 C1891 1.387 . S
H1890 C1897 0.950 . S
C1891 C1889 1.387 . S
C1891 C1893 1.390 . S
C1891 H1895 0.950 . S
H1892 C1888 0.950 . S
C1893 C1891 1.390 . S
C1893 C1894 1.387 . S
C1893 H1896 0.950 . S
C1894 C1893 1.387 . S
C1894 C1897 1.387 . S
H1895 C1891 0.950 . S
H1896 C1893 0.950 . S
C1897 C1888 1.390 . S
C1897 H1890 0.950 . S
C1897 C1894 1.387 . S
C1898 C1899 1.387 . S
C1898 H1902 0.950 . S
C1898 C1907 1.390 . S
C1899 C1898 1.387 . S
C1899 C1901 1.387 . S
H1900 C1907 0.950 . S
C1901 C1899 1.387 . S
C1901 C1903 1.390 . S
C1901 H1905 0.950 . S
H1902 C1898 0.950 . S
C1903 C1901 1.390 . S
C1903 C1904 1.387 . S
C1903 H1906 0.950 . S
C1904 C1903 1.387 . S
C1904 C1907 1.387 . S
H1905 C1901 0.950 . S
H1906 C1903 0.950 . S
C1907 C1898 1.390 . S
C1907 H1900 0.950 . S
C1907 C1904 1.387 . S
C1908 C1909 1.387 . S
C1908 H1912 0.950 . S
C1908 C1917 1.390 . S
C1909 C1908 1.387 . S
C1909 C1911 1.387 . S
H1910 C1917 0.950 . S
C1911 C1909 1.387 . S
C1911 C1913 1.390 . S
C1911 H1915 0.950 . S
H1912 C1908 0.950 . S
C1913 C1911 1.390 . S
C1913 C1914 1.387 . S
C1913 H1916 0.950 . S
C1914 C1913 1.387 . S
C1914 C1917 1.387 . S
H1915 C1911 0.950 . S
H1916 C1913 0.950 . S
C1917 C1908 1.390 . S
C1917 H1910 0.950 . S
C1917 C1914 1.387 . S
C1918 C1919 1.387 . S
C1918 H1922 0.950 . S
C1918 C1927 1.390 . S
C1919 C1918 1.387 . S
C1919 C1921 1.387 . S
H1920 C1927 0.950 . S
C1921 C1919 1.387 . S
C1921 C1923 1.390 . S
C1921 H1925 0.950 . S
H1922 C1918 0.950 . S
C1923 C1921 1.390 . S
C1923 C1924 1.387 . S
C1923 H1926 0.950 . S
C1924 C1923 1.387 . S
C1924 C1927 1.387 . S
H1925 C1921 0.950 . S
H1926 C1923 0.950 . S
C1927 C1918 1.390 . S
C1927 H1920 0.950 . S
C1927 C1924 1.387 . S
C1928 C1929 1.387 . S
C1928 H1932 0.950 . S
C1928 C1937 1.390 . S
C1929 C1928 1.387 . S
C1929 C1931 1.387 . S
H1930 C1937 0.950 . S
C1931 C1929 1.387 . S
C1931 C1933 1.390 . S
C1931 H1935 0.950 . S
H1932 C1928 0.950 . S
C1933 C1931 1.390 . S
C1933 C1934 1.387 . S
C1933 H1936 0.950 . S
C1934 C1933 1.387 . S
C1934 C1937 1.387 . S
H1935 C1931 0.950 . S
H1936 C1933 0.950 . S
C1937 C1928 1.390 . S
C1937 H1930 0.950 . S
C1937 C1934 1.387 . S
C1938 C1939 1.387 . S
C1938 H1942 0.950 . S
C1938 C1947 1.390 . S
C1939 C1938 1.387 . S
C1939 C1941 1.387 . S
H1940 C1947 0.950 . S
C1941 C1939 1.387 . S
C1941 C1943 1.390 . S
C1941 H1945 0.950 . S
H1942 C1938 0.950 . S
C1943 C1941 1.390 . S
C1943 C1944 1.387 . S
C1943 H1946 0.950 . S
C1944 C1943 1.387 . S
C1944 C1947 1.387 . S
H1945 C1941 0.950 . S
H1946 C1943 0.950 . S
C1947 C1938 1.390 . S
C1947 H1940 0.950 . S
C1947 C1944 1.387 . S
C1948 C1949 1.387 . S
C1948 H1952 0.950 . S
C1948 C1957 1.390 . S
C1949 C1948 1.387 . S
C1949 C1951 1.387 . S
H1950 C1957 0.950 . S
C1951 C1949 1.387 . S
C1951 C1953 1.390 . S
C1951 H1955 0.950 . S
H1952 C1948 0.950 . S
C1953 C1951 1.390 . S
C1953 C1954 1.387 . S
C1953 H1956 0.950 . S
C1954 C1953 1.387 . S
C1954 C1957 1.387 . S
H1955 C1951 0.950 . S
H1956 C1953 0.950 . S
C1957 C1948 1.390 . S
C1957 H1950 0.950 . S
C1957 C1954 1.387 . S
C1958 C1959 1.387 . S
C1958 H1962 0.950 . S
C1958 C1967 1.390 . S
C1959 C1958 1.387 . S
C1959 C1961 1.387 . S
H1960 C1967 0.950 . S
C1961 C1959 1.387 . S
C1961 C1963 1.390 . S
C1961 H1965 0.950 . S
H1962 C1958 0.950 . S
C1963 C1961 1.390 . S
C1963 C1964 1.387 . S
C1963 H1966 0.950 . S
C1964 C1963 1.387 . S
C1964 C1967 1.387 . S
H1965 C1961 0.950 . S
H1966 C1963 0.950 . S
C1967 C1958 1.390 . S
C1967 H1960 0.950 . S
C1967 C1964 1.387 . S
C1968 C1969 1.387 . S
C1968 H1972 0.950 . S
C1968 C1977 1.390 . S
C1969 C1968 1.387 . S
C1969 C1971 1.387 . S
H1970 C1977 0.950 . S
C1971 C1969 1.387 . S
C1971 C1973 1.390 . S
C1971 H1975 0.950 . S
H1972 C1968 0.950 . S
C1973 C1971 1.390 . S
C1973 C1974 1.387 . S
C1973 H1976 0.950 . S
C1974 C1973 1.387 . S
C1974 C1977 1.387 . S
H1975 C1971 0.950 . S
H1976 C1973 0.950 . S
C1977 C1968 1.390 . S
C1977 H1970 0.950 . S
C1977 C1974 1.387 . S
C1978 C1979 1.387 . S
C1978 H1982 0.950 . S
C1978 C1987 1.390 . S
C1979 C1978 1.387 . S
C1979 C1981 1.387 . S
H1980 C1987 0.950 . S
C1981 C1979 1.387 . S
C1981 C1983 1.390 . S
C1981 H1985 0.950 . S
H1982 C1978 0.950 . S
C1983 C1981 1.390 . S
C1983 C1984 1.387 . S
C1983 H1986 0.950 . S
C1984 C1983 1.387 . S
C1984 C1987 1.387 . S
H1985 C1981 0.950 . S
H1986 C1983 0.950 . S
C1987 C1978 1.390 . S
C1987 H1980 0.950 . S
C1987 C1984 1.387 . S
C1988 C1989 1.387 . S
C1988 H1992 0.950 . S
C1988 C1997 1.390 . S
C1989 C1988 1.387 . S
C1989 C1991 1.387 . S
H1990 C1997 0.950 . S
C1991 C1989 1.387 . S
C1991 C1993 1.390 . S
C1991 H1995 0.950 . S
H1992 C1988 0.950 . S
C1993 C1991 1.390 . S
C1993 C1994 1.387 . S
C1993 H1996 0.950 . S
C1994 C1993 1.387 . S
C1994 C1997 1.387 . S
H1995 C1991 0.950 . S
H1996 C1993 0.950 . S
C1997 C1988 1.390 . S
C1997 H1990 0.950 . S
C1997 C1994 1.387 . S
C1998 C1999 1.387 . S
C1998 H2002 0.950 . S
C1998 C2007 1.390 . S
C1999 C1998 1.387 . S
C1999 C2001 1.387 . S
H2000 C2007 0.950 . S
C2001 C1999 1.387 . S
C2001 C2003 1.390 . S
C2001 H2005 0.950 . S
H2002 C1998 0.950 . S
C2003 C2001 1.390 . S
C2003 C2004 1.387 . S
C2003 H2006 0.950 1_455 S
C2004 C2003 1.387 . S
C2004 C2007 1.387 . S
H2005 C2001 0.950 . S
H2006 C2003 0.950 1_655 S
C2007 C1998 1.390 . S
C2007 H2000 0.950 . S
C2007 C2004 1.387 . S
C2008 C2009 1.387 . S
C2008 H2012 0.950 . S
C2008 C2017 1.390 . S
C2009 C2008 1.387 . S
C2009 C2011 1.387 . S
H2010 C2017 0.950 . S
C2011 C2009 1.387 . S
C2011 C2013 1.390 . S
C2011 H2015 0.950 . S
H2012 C2008 0.950 . S
C2013 C2011 1.390 . S
C2013 C2014 1.387 . S
C2013 H2016 0.950 . S
C2014 C2013 1.387 . S
C2014 C2017 1.387 . S
H2015 C2011 0.950 . S
H2016 C2013 0.950 . S
C2017 C2008 1.390 . S
C2017 H2010 0.950 . S
C2017 C2014 1.387 . S
C2018 C2019 1.387 . S
C2018 H2022 0.950 . S
C2018 C2027 1.390 . S
C2019 C2018 1.387 . S
C2019 C2021 1.387 . S
H2020 C2027 0.950 . S
C2021 C2019 1.387 . S
C2021 C2023 1.390 . S
C2021 H2025 0.950 . S
H2022 C2018 0.950 . S
C2023 C2021 1.390 . S
C2023 C2024 1.387 . S
C2023 H2026 0.950 . S
C2024 C2023 1.387 . S
C2024 C2027 1.387 . S
H2025 C2021 0.950 . S
H2026 C2023 0.950 . S
C2027 C2018 1.390 . S
C2027 H2020 0.950 . S
C2027 C2024 1.387 . S
C2028 C2029 1.387 . S
C2028 H2032 0.950 . S
C2028 C2037 1.390 . S
C2029 C2028 1.387 . S
C2029 C2031 1.387 . S
H2030 C2037 0.950 . S
C2031 C2029 1.387 . S
C2031 C2033 1.390 . S
C2031 H2035 0.950 . S
H2032 C2028 0.950 . S
C2033 C2031 1.390 . S
C2033 C2034 1.387 . S
C2033 H2036 0.950 . S
C2034 C2033 1.387 . S
C2034 C2037 1.387 . S
H2035 C2031 0.950 . S
H2036 C2033 0.950 . S
C2037 C2028 1.390 . S
C2037 H2030 0.950 . S
C2037 C2034 1.387 . S
C2038 C2039 1.387 . S
C2038 H2042 0.950 . S
C2038 C2047 1.390 . S
C2039 C2038 1.387 . S
C2039 C2041 1.387 . S
H2040 C2047 0.950 . S
C2041 C2039 1.387 . S
C2041 C2043 1.390 . S
C2041 H2045 0.950 . S
H2042 C2038 0.950 . S
C2043 C2041 1.390 . S
C2043 C2044 1.387 . S
C2043 H2046 0.950 . S
C2044 C2043 1.387 . S
C2044 C2047 1.387 . S
H2045 C2041 0.950 . S
H2046 C2043 0.950 . S
C2047 C2038 1.390 . S
C2047 H2040 0.950 . S
C2047 C2044 1.387 . S
C2048 C2049 1.387 . S
C2048 H2052 0.950 . S
C2048 C2057 1.390 . S
C2049 C2048 1.387 . S
C2049 C2051 1.387 . S
H2050 C2057 0.950 . S
C2051 C2049 1.387 . S
C2051 C2053 1.390 . S
C2051 H2055 0.950 . S
H2052 C2048 0.950 . S
C2053 C2051 1.390 . S
C2053 C2054 1.387 . S
C2053 H2056 0.950 . S
C2054 C2053 1.387 . S
C2054 C2057 1.387 . S
H2055 C2051 0.950 . S
H2056 C2053 0.950 . S
C2057 C2048 1.390 . S
C2057 H2050 0.950 . S
C2057 C2054 1.387 . S
C2058 C2059 1.387 . S
C2058 H2062 0.950 . S
C2058 C2067 1.390 . S
C2059 C2058 1.387 . S
C2059 C2061 1.387 . S
H2060 C2067 0.950 . S
C2061 C2059 1.387 . S
C2061 C2063 1.390 . S
C2061 H2065 0.950 . S
H2062 C2058 0.950 . S
C2063 C2061 1.390 . S
C2063 C2064 1.387 . S
C2063 H2066 0.950 . S
C2064 C2063 1.387 . S
C2064 C2067 1.387 . S
H2065 C2061 0.950 . S
H2066 C2063 0.950 . S
C2067 C2058 1.390 . S
C2067 H2060 0.950 . S
C2067 C2064 1.387 . S
C2068 C2069 1.387 . S
C2068 H2072 0.950 . S
C2068 C2077 1.390 . S
C2069 C2068 1.387 . S
C2069 C2071 1.387 . S
H2070 C2077 0.950 . S
C2071 C2069 1.387 . S
C2071 C2073 1.390 . S
C2071 H2075 0.950 . S
H2072 C2068 0.950 . S
C2073 C2071 1.390 . S
C2073 C2074 1.387 . S
C2073 H2076 0.950 . S
C2074 C2073 1.387 . S
C2074 C2077 1.387 . S
H2075 C2071 0.950 . S
H2076 C2073 0.950 . S
C2077 C2068 1.390 . S
C2077 H2070 0.950 . S
C2077 C2074 1.387 . S
C2078 C2079 1.387 . S
C2078 H2082 0.950 . S
C2078 C2087 1.390 . S
C2079 C2078 1.387 . S
C2079 C2081 1.387 . S
H2080 C2087 0.950 . S
C2081 C2079 1.387 . S
C2081 C2083 1.390 . S
C2081 H2085 0.950 . S
H2082 C2078 0.950 . S
C2083 C2081 1.390 . S
C2083 C2084 1.387 . S
C2083 H2086 0.950 . S
C2084 C2083 1.387 . S
C2084 C2087 1.387 . S
H2085 C2081 0.950 . S
H2086 C2083 0.950 . S
C2087 C2078 1.390 . S
C2087 H2080 0.950 . S
C2087 C2084 1.387 . S
C2088 C2089 1.387 . S
C2088 H2092 0.950 . S
C2088 C2097 1.390 . S
C2089 C2088 1.387 . S
C2089 C2091 1.387 . S
H2090 C2097 0.950 . S
C2091 C2089 1.387 . S
C2091 C2093 1.390 . S
C2091 H2095 0.950 . S
H2092 C2088 0.950 . S
C2093 C2091 1.390 . S
C2093 C2094 1.387 . S
C2093 H2096 0.950 . S
C2094 C2093 1.387 . S
C2094 C2097 1.387 . S
H2095 C2091 0.950 . S
H2096 C2093 0.950 . S
C2097 C2088 1.390 . S
C2097 H2090 0.950 . S
C2097 C2094 1.387 . S
C2098 C2099 1.387 . S
C2098 H2102 0.950 . S
C2098 C2107 1.390 . S
C2099 C2098 1.387 . S
C2099 C2101 1.387 . S
H2100 C2107 0.950 1_554 S
C2101 C2099 1.387 . S
C2101 C2103 1.390 . S
C2101 H2105 0.950 . S
H2102 C2098 0.950 . S
C2103 C2101 1.390 . S
C2103 C2104 1.387 . S
C2103 H2106 0.950 . S
C2104 C2103 1.387 . S
C2104 C2107 1.387 . S
H2105 C2101 0.950 . S
H2106 C2103 0.950 . S
C2107 C2098 1.390 . S
C2107 H2100 0.950 1_556 S
C2107 C2104 1.387 . S
C2108 C2109 1.387 . S
C2108 H2112 0.950 . S
C2108 C2117 1.390 . S
C2109 C2108 1.387 . S
C2109 C2111 1.387 . S
H2110 C2117 0.950 . S
C2111 C2109 1.387 . S
C2111 C2113 1.390 . S
C2111 H2115 0.950 . S
H2112 C2108 0.950 . S
C2113 C2111 1.390 . S
C2113 C2114 1.387 . S
C2113 H2116 0.950 . S
C2114 C2113 1.387 . S
C2114 C2117 1.387 . S
H2115 C2111 0.950 . S
H2116 C2113 0.950 . S
C2117 C2108 1.390 . S
C2117 H2110 0.950 . S
C2117 C2114 1.387 . S
C2118 C2119 1.387 . S
C2118 H2122 0.950 . S
C2118 C2127 1.390 . S
C2119 C2118 1.387 . S
C2119 C2121 1.387 . S
H2120 C2127 0.950 . S
C2121 C2119 1.387 . S
C2121 C2123 1.390 . S
C2121 H2125 0.950 . S
H2122 C2118 0.950 . S
C2123 C2121 1.390 . S
C2123 C2124 1.387 . S
C2123 H2126 0.950 . S
C2124 C2123 1.387 . S
C2124 C2127 1.387 . S
H2125 C2121 0.950 . S
H2126 C2123 0.950 . S
C2127 C2118 1.390 . S
C2127 H2120 0.950 . S
C2127 C2124 1.387 . S
C2128 C2129 1.387 . S
C2128 H2132 0.950 . S
C2128 C2137 1.390 . S
C2129 C2128 1.387 . S
C2129 C2131 1.387 . S
H2130 C2137 0.950 . S
C2131 C2129 1.387 . S
C2131 C2133 1.390 . S
C2131 H2135 0.950 . S
H2132 C2128 0.950 . S
C2133 C2131 1.390 . S
C2133 C2134 1.387 . S
C2133 H2136 0.950 . S
C2134 C2133 1.387 . S
C2134 C2137 1.387 . S
H2135 C2131 0.950 . S
H2136 C2133 0.950 . S
C2137 C2128 1.390 . S
C2137 H2130 0.950 . S
C2137 C2134 1.387 . S
C2138 C2139 1.387 . S
C2138 H2142 0.950 . S
C2138 C2147 1.390 . S
C2139 C2138 1.387 . S
C2139 C2141 1.387 . S
H2140 C2147 0.950 . S
C2141 C2139 1.387 . S
C2141 C2143 1.390 . S
C2141 H2145 0.950 . S
H2142 C2138 0.950 . S
C2143 C2141 1.390 . S
C2143 C2144 1.387 . S
C2143 H2146 0.950 . S
C2144 C2143 1.387 . S
C2144 C2147 1.387 . S
H2145 C2141 0.950 . S
H2146 C2143 0.950 . S
C2147 C2138 1.390 . S
C2147 H2140 0.950 . S
C2147 C2144 1.387 . S
C2148 C2149 1.387 . S
C2148 H2152 0.950 . S
C2148 C2157 1.390 . S
C2149 C2148 1.387 . S
C2149 C2151 1.387 . S
H2150 C2157 0.950 . S
C2151 C2149 1.387 . S
C2151 C2153 1.390 . S
C2151 H2155 0.950 . S
H2152 C2148 0.950 . S
C2153 C2151 1.390 . S
C2153 C2154 1.387 . S
C2153 H2156 0.950 1_545 S
C2154 C2153 1.387 . S
C2154 C2157 1.387 . S
H2155 C2151 0.950 . S
H2156 C2153 0.950 1_565 S
C2157 C2148 1.390 . S
C2157 H2150 0.950 . S
C2157 C2154 1.387 . S
C2158 C2159 1.387 . S
C2158 H2162 0.950 . S
C2158 C2167 1.390 . S
C2159 C2158 1.387 . S
C2159 C2161 1.387 . S
H2160 C2167 0.950 . S
C2161 C2159 1.387 . S
C2161 C2163 1.390 . S
C2161 H2165 0.950 . S
H2162 C2158 0.950 . S
C2163 C2161 1.390 . S
C2163 C2164 1.387 . S
C2163 H2166 0.950 . S
C2164 C2163 1.387 . S
C2164 C2167 1.387 . S
H2165 C2161 0.950 . S
H2166 C2163 0.950 . S
C2167 C2158 1.390 . S
C2167 H2160 0.950 . S
C2167 C2164 1.387 . S
C2168 C2169 1.387 . S
C2168 H2172 0.950 . S
C2168 C2177 1.390 . S
C2169 C2168 1.387 . S
C2169 C2171 1.387 . S
H2170 C2177 0.950 . S
C2171 C2169 1.387 . S
C2171 C2173 1.390 . S
C2171 H2175 0.950 . S
H2172 C2168 0.950 . S
C2173 C2171 1.390 . S
C2173 C2174 1.387 . S
C2173 H2176 0.950 . S
C2174 C2173 1.387 . S
C2174 C2177 1.387 . S
H2175 C2171 0.950 . S
H2176 C2173 0.950 . S
C2177 C2168 1.390 . S
C2177 H2170 0.950 . S
C2177 C2174 1.387 . S
C2178 C2179 1.387 . S
C2178 H2182 0.950 . S
C2178 C2187 1.390 . S
C2179 C2178 1.387 . S
C2179 C2181 1.387 . S
H2180 C2187 0.950 . S
C2181 C2179 1.387 . S
C2181 C2183 1.390 . S
C2181 H2185 0.950 . S
H2182 C2178 0.950 . S
C2183 C2181 1.390 . S
C2183 C2184 1.387 . S
C2183 H2186 0.950 . S
C2184 C2183 1.387 . S
C2184 C2187 1.387 . S
H2185 C2181 0.950 . S
H2186 C2183 0.950 . S
C2187 C2178 1.390 . S
C2187 H2180 0.950 . S
C2187 C2184 1.387 . S
C2188 C2189 1.387 . S
C2188 H2192 0.950 . S
C2188 C2197 1.390 . S
C2189 C2188 1.387 . S
C2189 C2191 1.387 . S
H2190 C2197 0.950 . S
C2191 C2189 1.387 . S
C2191 C2193 1.390 . S
C2191 H2195 0.950 . S
H2192 C2188 0.950 . S
C2193 C2191 1.390 . S
C2193 C2194 1.387 . S
C2193 H2196 0.950 . S
C2194 C2193 1.387 . S
C2194 C2197 1.387 . S
H2195 C2191 0.950 . S
H2196 C2193 0.950 . S
C2197 C2188 1.390 . S
C2197 H2190 0.950 . S
C2197 C2194 1.387 . S
C2198 C2199 1.387 . S
C2198 H2202 0.950 . S
C2198 C2207 1.390 . S
C2199 C2198 1.387 . S
C2199 C2201 1.387 . S
H2200 C2207 0.950 . S
C2201 C2199 1.387 . S
C2201 C2203 1.390 . S
C2201 H2205 0.950 1_545 S
H2202 C2198 0.950 . S
C2203 C2201 1.390 . S
C2203 C2204 1.387 . S
C2203 H2206 0.950 . S
C2204 C2203 1.387 . S
C2204 C2207 1.387 . S
H2205 C2201 0.950 1_565 S
H2206 C2203 0.950 . S
C2207 C2198 1.390 . S
C2207 H2200 0.950 . S
C2207 C2204 1.387 . S
C2208 C2209 1.387 . S
C2208 H2212 0.950 . S
C2208 C2217 1.390 . S
C2209 C2208 1.387 . S
C2209 C2211 1.387 . S
H2210 C2217 0.950 . S
C2211 C2209 1.387 . S
C2211 C2213 1.390 . S
C2211 H2215 0.950 . S
H2212 C2208 0.950 . S
C2213 C2211 1.390 . S
C2213 C2214 1.387 . S
C2213 H2216 0.950 . S
C2214 C2213 1.387 . S
C2214 C2217 1.387 . S
H2215 C2211 0.950 . S
H2216 C2213 0.950 . S
C2217 C2208 1.390 . S
C2217 H2210 0.950 . S
C2217 C2214 1.387 . S
C2218 C2219 1.387 . S
C2218 H2222 0.950 . S
C2218 C2227 1.390 . S
C2219 C2218 1.387 . S
C2219 C2221 1.387 . S
H2220 C2227 0.950 . S
C2221 C2219 1.387 . S
C2221 C2223 1.390 . S
C2221 H2225 0.950 . S
H2222 C2218 0.950 . S
C2223 C2221 1.390 . S
C2223 C2224 1.387 . S
C2223 H2226 0.950 . S
C2224 C2223 1.387 . S
C2224 C2227 1.387 . S
H2225 C2221 0.950 . S
H2226 C2223 0.950 . S
C2227 C2218 1.390 . S
C2227 H2220 0.950 . S
C2227 C2224 1.387 . S
C2228 C2229 1.387 . S
C2228 H2232 0.950 . S
C2228 C2237 1.390 . S
C2229 C2228 1.387 . S
C2229 C2231 1.387 . S
H2230 C2237 0.950 . S
C2231 C2229 1.387 . S
C2231 C2233 1.390 . S
C2231 H2235 0.950 . S
H2232 C2228 0.950 . S
C2233 C2231 1.390 . S
C2233 C2234 1.387 . S
C2233 H2236 0.950 . S
C2234 C2233 1.387 . S
C2234 C2237 1.387 . S
H2235 C2231 0.950 . S
H2236 C2233 0.950 . S
C2237 C2228 1.390 . S
C2237 H2230 0.950 . S
C2237 C2234 1.387 . S
C2238 C2239 1.387 . S
C2238 H2242 0.950 . S
C2238 C2247 1.390 . S
C2239 C2238 1.387 . S
C2239 C2241 1.387 . S
H2240 C2247 0.950 . S
C2241 C2239 1.387 . S
C2241 C2243 1.390 . S
C2241 H2245 0.950 . S
H2242 C2238 0.950 . S
C2243 C2241 1.390 . S
C2243 C2244 1.387 . S
C2243 H2246 0.950 1_655 S
C2244 C2243 1.387 . S
C2244 C2247 1.387 . S
H2245 C2241 0.950 . S
H2246 C2243 0.950 1_455 S
C2247 C2238 1.390 . S
C2247 H2240 0.950 . S
C2247 C2244 1.387 . S
C2248 C2249 1.387 . S
C2248 H2252 0.950 . S
C2248 C2257 1.390 . S
C2249 C2248 1.387 . S
C2249 C2251 1.387 . S
H2250 C2257 0.950 . S
C2251 C2249 1.387 . S
C2251 C2253 1.390 . S
C2251 H2255 0.950 . S
H2252 C2248 0.950 . S
C2253 C2251 1.390 . S
C2253 C2254 1.387 . S
C2253 H2256 0.950 . S
C2254 C2253 1.387 . S
C2254 C2257 1.387 . S
H2255 C2251 0.950 . S
H2256 C2253 0.950 . S
C2257 C2248 1.390 . S
C2257 H2250 0.950 . S
C2257 C2254 1.387 . S
C2258 C2259 1.387 . S
C2258 H2262 0.950 . S
C2258 C2267 1.390 . S
C2259 C2258 1.387 . S
C2259 C2261 1.387 . S
H2260 C2267 0.950 . S
C2261 C2259 1.387 . S
C2261 C2263 1.390 . S
C2261 H2265 0.950 . S
H2262 C2258 0.950 . S
C2263 C2261 1.390 . S
C2263 C2264 1.387 . S
C2263 H2266 0.950 . S
C2264 C2263 1.387 . S
C2264 C2267 1.387 . S
H2265 C2261 0.950 . S
H2266 C2263 0.950 . S
C2267 C2258 1.390 . S
C2267 H2260 0.950 . S
C2267 C2264 1.387 . S
C2268 C2269 1.387 . S
C2268 H2272 0.950 . S
C2268 C2277 1.390 . S
C2269 C2268 1.387 . S
C2269 C2271 1.387 . S
H2270 C2277 0.950 . S
C2271 C2269 1.387 . S
C2271 C2273 1.390 . S
C2271 H2275 0.950 . S
H2272 C2268 0.950 . S
C2273 C2271 1.390 . S
C2273 C2274 1.387 . S
C2273 H2276 0.950 . S
C2274 C2273 1.387 . S
C2274 C2277 1.387 . S
H2275 C2271 0.950 . S
H2276 C2273 0.950 . S
C2277 C2268 1.390 . S
C2277 H2270 0.950 . S
C2277 C2274 1.387 . S
C2278 C2279 1.387 . S
C2278 H2282 0.950 . S
C2278 C2287 1.390 . S
C2279 C2278 1.387 . S
C2279 C2281 1.387 . S
H2280 C2287 0.950 . S
C2281 C2279 1.387 . S
C2281 C2283 1.390 . S
C2281 H2285 0.950 . S
H2282 C2278 0.950 . S
C2283 C2281 1.390 . S
C2283 C2284 1.387 . S
C2283 H2286 0.950 . S
C2284 C2283 1.387 . S
C2284 C2287 1.387 . S
H2285 C2281 0.950 . S
H2286 C2283 0.950 . S
C2287 C2278 1.390 . S
C2287 H2280 0.950 . S
C2287 C2284 1.387 . S
C2288 C2289 1.387 . S
C2288 H2292 0.950 . S
C2288 C2297 1.390 . S
C2289 C2288 1.387 . S
C2289 C2291 1.387 . S
H2290 C2297 0.950 . S
C2291 C2289 1.387 . S
C2291 C2293 1.390 . S
C2291 H2295 0.950 . S
H2292 C2288 0.950 . S
C2293 C2291 1.390 . S
C2293 C2294 1.387 . S
C2293 H2296 0.950 . S
C2294 C2293 1.387 . S
C2294 C2297 1.387 . S
H2295 C2291 0.950 . S
H2296 C2293 0.950 . S
C2297 C2288 1.390 . S
C2297 H2290 0.950 . S
C2297 C2294 1.387 . S
C2298 C2299 1.387 . S
C2298 H2302 0.950 . S
C2298 C2307 1.390 . S
C2299 C2298 1.387 . S
C2299 C2301 1.387 . S
H2300 C2307 0.950 . S
C2301 C2299 1.387 . S
C2301 C2303 1.390 . S
C2301 H2305 0.950 . S
H2302 C2298 0.950 . S
C2303 C2301 1.390 . S
C2303 C2304 1.387 . S
C2303 H2306 0.950 1_556 S
C2304 C2303 1.387 . S
C2304 C2307 1.387 . S
H2305 C2301 0.950 . S
H2306 C2303 0.950 1_554 S
C2307 C2298 1.390 . S
C2307 H2300 0.950 . S
C2307 C2304 1.387 . S
C2308 C2309 1.387 . S
C2308 H2312 0.950 . S
C2308 C2317 1.390 . S
C2309 C2308 1.387 . S
C2309 C2311 1.387 . S
H2310 C2317 0.950 . S
C2311 C2309 1.387 . S
C2311 C2313 1.390 . S
C2311 H2315 0.950 . S
H2312 C2308 0.950 . S
C2313 C2311 1.390 . S
C2313 C2314 1.387 . S
C2313 H2316 0.950 . S
C2314 C2313 1.387 . S
C2314 C2317 1.387 . S
H2315 C2311 0.950 . S
H2316 C2313 0.950 . S
C2317 C2308 1.390 . S
C2317 H2310 0.950 . S
C2317 C2314 1.387 . S
C2318 C2319 1.387 . S
C2318 H2322 0.950 . S
C2318 C2327 1.390 . S
C2319 C2318 1.387 . S
C2319 C2321 1.387 . S
H2320 C2327 0.950 . S
C2321 C2319 1.387 . S
C2321 C2323 1.390 . S
C2321 H2325 0.950 . S
H2322 C2318 0.950 . S
C2323 C2321 1.390 . S
C2323 C2324 1.387 . S
C2323 H2326 0.950 . S
C2324 C2323 1.387 . S
C2324 C2327 1.387 . S
H2325 C2321 0.950 . S
H2326 C2323 0.950 . S
C2327 C2318 1.390 . S
C2327 H2320 0.950 . S
C2327 C2324 1.387 . S
C2328 C2329 1.387 . S
C2328 H2332 0.950 . S
C2328 C2337 1.390 . S
C2329 C2328 1.387 . S
C2329 C2331 1.387 . S
H2330 C2337 0.950 . S
C2331 C2329 1.387 . S
C2331 C2333 1.390 . S
C2331 H2335 0.950 . S
H2332 C2328 0.950 . S
C2333 C2331 1.390 . S
C2333 C2334 1.387 . S
C2333 H2336 0.950 . S
C2334 C2333 1.387 . S
C2334 C2337 1.387 . S
H2335 C2331 0.950 . S
H2336 C2333 0.950 . S
C2337 C2328 1.390 . S
C2337 H2330 0.950 . S
C2337 C2334 1.387 . S
C2338 C2339 1.387 . S
C2338 H2342 0.950 . S
C2338 C2347 1.390 . S
C2339 C2338 1.387 . S
C2339 C2341 1.387 . S
H2340 C2347 0.950 . S
C2341 C2339 1.387 . S
C2341 C2343 1.390 . S
C2341 H2345 0.950 1_554 S
H2342 C2338 0.950 . S
C2343 C2341 1.390 . S
C2343 C2344 1.387 . S
C2343 H2346 0.950 . S
C2344 C2343 1.387 . S
C2344 C2347 1.387 . S
H2345 C2341 0.950 1_556 S
H2346 C2343 0.950 . S
C2347 C2338 1.390 . S
C2347 H2340 0.950 . S
C2347 C2344 1.387 . S
C2348 C2349 1.387 . S
C2348 H2352 0.950 . S
C2348 C2357 1.390 . S
C2349 C2348 1.387 . S
C2349 C2351 1.387 . S
H2350 C2357 0.950 . S
C2351 C2349 1.387 . S
C2351 C2353 1.390 . S
C2351 H2355 0.950 . S
H2352 C2348 0.950 . S
C2353 C2351 1.390 . S
C2353 C2354 1.387 . S
C2353 H2356 0.950 . S
C2354 C2353 1.387 . S
C2354 C2357 1.387 . S
H2355 C2351 0.950 . S
H2356 C2353 0.950 . S
C2357 C2348 1.390 . S
C2357 H2350 0.950 . S
C2357 C2354 1.387 . S
C2358 C2359 1.387 . S
C2358 H2362 0.950 . S
C2358 C2367 1.390 . S
C2359 C2358 1.387 . S
C2359 C2361 1.387 . S
H2360 C2367 0.950 . S
C2361 C2359 1.387 . S
C2361 C2363 1.390 . S
C2361 H2365 0.950 . S
H2362 C2358 0.950 . S
C2363 C2361 1.390 . S
C2363 C2364 1.387 . S
C2363 H2366 0.950 . S
C2364 C2363 1.387 . S
C2364 C2367 1.387 . S
H2365 C2361 0.950 . S
H2366 C2363 0.950 . S
C2367 C2358 1.390 . S
C2367 H2360 0.950 . S
C2367 C2364 1.387 . S
C2368 C2369 1.387 . S
C2368 H2372 0.950 . S
C2368 C2377 1.390 . S
C2369 C2368 1.387 . S
C2369 C2371 1.387 . S
H2370 C2377 0.950 . S
C2371 C2369 1.387 . S
C2371 C2373 1.390 . S
C2371 H2375 0.950 . S
H2372 C2368 0.950 . S
C2373 C2371 1.390 . S
C2373 C2374 1.387 . S
C2373 H2376 0.950 . S
C2374 C2373 1.387 . S
C2374 C2377 1.387 . S
H2375 C2371 0.950 . S
H2376 C2373 0.950 . S
C2377 C2368 1.390 . S
C2377 H2370 0.950 . S
C2377 C2374 1.387 . S
C2378 C2379 1.387 . S
C2378 H2382 0.950 . S
C2378 C2387 1.390 . S
C2379 C2378 1.387 . S
C2379 C2381 1.387 . S
H2380 C2387 0.950 . S
C2381 C2379 1.387 . S
C2381 C2383 1.390 . S
C2381 H2385 0.950 . S
H2382 C2378 0.950 . S
C2383 C2381 1.390 . S
C2383 C2384 1.387 . S
C2383 H2386 0.950 . S
C2384 C2383 1.387 . S
C2384 C2387 1.387 . S
H2385 C2381 0.950 . S
H2386 C2383 0.950 . S
C2387 C2378 1.390 . S
C2387 H2380 0.950 . S
C2387 C2384 1.387 . S
C2388 C2389 1.387 . S
C2388 H2392 0.950 . S
C2388 C2397 1.390 . S
C2389 C2388 1.387 . S
C2389 C2391 1.387 . S
H2390 C2397 0.950 . S
C2391 C2389 1.387 . S
C2391 C2393 1.390 . S
C2391 H2395 0.950 . S
H2392 C2388 0.950 . S
C2393 C2391 1.390 . S
C2393 C2394 1.387 . S
C2393 H2396 0.950 1_565 S
C2394 C2393 1.387 . S
C2394 C2397 1.387 . S
H2395 C2391 0.950 . S
H2396 C2393 0.950 1_545 S
C2397 C2388 1.390 . S
C2397 H2390 0.950 . S
C2397 C2394 1.387 . S
C2398 C2399 1.387 . S
C2398 H2402 0.950 . S
C2398 C2407 1.390 . S
C2399 C2398 1.387 . S
C2399 C2401 1.387 . S
H2400 C2407 0.950 . S
C2401 C2399 1.387 . S
C2401 C2403 1.390 . S
C2401 H2405 0.950 . S
H2402 C2398 0.950 . S
C2403 C2401 1.390 . S
C2403 C2404 1.387 . S
C2403 H2406 0.950 . S
C2404 C2403 1.387 . S
C2404 C2407 1.387 . S
H2405 C2401 0.950 . S
H2406 C2403 0.950 . S
C2407 C2398 1.390 . S
C2407 H2400 0.950 . S
C2407 C2404 1.387 . S
C2408 C2409 1.387 . S
C2408 H2412 0.950 . S
C2408 C2417 1.390 . S
C2409 C2408 1.387 . S
C2409 C2411 1.387 . S
H2410 C2417 0.950 . S
C2411 C2409 1.387 . S
C2411 C2413 1.390 . S
C2411 H2415 0.950 . S
H2412 C2408 0.950 . S
C2413 C2411 1.390 . S
C2413 C2414 1.387 . S
C2413 H2416 0.950 . S
C2414 C2413 1.387 . S
C2414 C2417 1.387 . S
H2415 C2411 0.950 . S
H2416 C2413 0.950 . S
C2417 C2408 1.390 . S
C2417 H2410 0.950 . S
C2417 C2414 1.387 . S
C2418 C2419 1.387 . S
C2418 H2422 0.950 . S
C2418 C2427 1.390 . S
C2419 C2418 1.387 . S
C2419 C2421 1.387 . S
H2420 C2427 0.950 . S
C2421 C2419 1.387 . S
C2421 C2423 1.390 . S
C2421 H2425 0.950 . S
H2422 C2418 0.950 . S
C2423 C2421 1.390 . S
C2423 C2424 1.387 . S
C2423 H2426 0.950 . S
C2424 C2423 1.387 . S
C2424 C2427 1.387 . S
H2425 C2421 0.950 . S
H2426 C2423 0.950 . S
C2427 C2418 1.390 . S
C2427 H2420 0.950 . S
C2427 C2424 1.387 . S
C2428 C2429 1.387 . S
C2428 H2432 0.950 1_545 S
C2428 C2437 1.390 . S
C2429 C2428 1.387 . S
C2429 C2431 1.387 . S
H2430 C2437 0.950 . S
C2431 C2429 1.387 . S
C2431 C2433 1.390 . S
C2431 H2435 0.950 . S
H2432 C2428 0.950 1_565 S
C2433 C2431 1.390 . S
C2433 C2434 1.387 . S
C2433 H2436 0.950 . S
C2434 C2433 1.387 . S
C2434 C2437 1.387 . S
H2435 C2431 0.950 . S
H2436 C2433 0.950 . S
C2437 C2428 1.390 . S
C2437 H2430 0.950 . S
C2437 C2434 1.387 . S
C2438 C2439 1.387 . S
C2438 H2442 0.950 1_565 S
C2438 C2447 1.390 . S
C2439 C2438 1.387 . S
C2439 C2441 1.387 . S
H2440 C2447 0.950 . S
C2441 C2439 1.387 . S
C2441 C2443 1.390 . S
C2441 H2445 0.950 . S
H2442 C2438 0.950 1_545 S
C2443 C2441 1.390 . S
C2443 C2444 1.387 . S
C2443 H2446 0.950 . S
C2444 C2443 1.387 . S
C2444 C2447 1.387 . S
H2445 C2441 0.950 . S
H2446 C2443 0.950 . S
C2447 C2438 1.390 . S
C2447 H2440 0.950 . S
C2447 C2444 1.387 . S
C1009 C17 1.557 . S
C1014 C101 1.557 . S
C1019 C38 1.552 . S
C1024 C122 1.552 . S
C1029 C143 1.557 . S
C1034 C59 1.557 . S
C1039 C164 1.562 . S
C1044 C80 1.562 . S
C1049 C185 1.557 . S
C1054 C203 1.557 . S
C1059 C206 1.562 . S
C1064 C227 1.562 . S
C1069 C245 1.552 . S
C1074 C224 1.552 . S
C1079 C248 1.562 . S
C1084 C182 1.562 . S
C1089 C266 1.557 . S
C1094 C77 1.557 . S
C1099 C161 1.552 . S
C1104 C707 1.552 . S
C1109 C98 1.562 . S
C1114 C290 1.562 . S
C1119 C119 1.557 . S
C1124 C728 1.557 . S
C1129 C35 1.557 . S
C1134 C308 1.557 . S
C1139 C665 1.562 . S
C1144 C14 1.562 . S
C1149 C644 1.552 . S
C1154 C56 1.552 . S
C1159 C413 1.557 . S
C1164 C332 1.557 . S
C1169 C350 1.557 . S
C1174 C434 1.557 . S
C1179 C374 1.552 . S
C1184 C455 1.552 . S
C1189 C395 1.562 . S
C1194 C479 1.562 . S
C1199 C521 1.552 . S
C1204 C500 1.552 . S
C1209 C518 1.562 . S
C1214 C539 1.562 . S
C1219 C560 1.557 . S
C1224 C542 1.557 . S
C1229 C497 1.562 . S
C1234 C563 1.562 . S
C1239 C392 1.557 . S
C1244 C581 1.557 . S
C1249 C899 1.557 . S
C1254 C476 1.557 . S
C1259 C605 1.562 . S
C1264 C416 1.562 . S
C1269 C437 1.557 . S
C1274 C917 1.557 . S
C1279 C623 1.557 . S
C1284 C353 1.557 . S
C1289 C329 1.562 . S
C1294 C854 1.562 . S
C1299 C371 1.557 . S
C1304 C833 1.557 . S
C1309 C689 1.552 . S
C1314 C647 1.552 . S
C1319 C710 1.562 . S
C1324 C269 1.562 . S
C1329 C668 1.557 . S
C1334 C287 1.557 . S
C1339 C731 1.552 . S
C1344 C311 1.552 . S
C1349 C749 1.552 . S
C1354 C770 1.552 . S
C1359 C773 1.552 . S
C1364 C794 1.552 . S
C1369 C812 1.557 . S
C1374 C791 1.557 . S
C1379 C752 1.552 . S
C1384 C815 1.552 . S
C1389 C140 1.557 . S
C1394 C686 1.557 . S
C1399 C875 1.552 . S
C1404 C836 1.552 . S
C1409 C896 1.562 . S
C1414 C584 1.562 . S
C1419 C602 1.557 . S
C1424 C857 1.557 . S
C1429 C920 1.557 . S
C1434 C626 1.557 . S
C1439 C941 1.557 . S
C1444 C962 1.557 . S
C1449 C959 1.552 . S
C1454 C980 1.552 . S
C1459 C983 1.557 . S
C1464 C1004 1.557 . S
C1469 C1001 1.552 . S
C1474 C938 1.552 . S
C1479 C878 1.552 . S
C1484 C458 1.552 . S
C1489 C18 0.910 . S
C1494 C349 0.879 . S
C1499 C856 0.882 . S
C1504 C39 0.909 . S
C1509 C60 0.910 . S
C1514 C394 0.879 . S
C1519 C81 0.909 . S
C1524 C835 0.883 . S
C1529 C102 0.908 . S
C1534 C478 0.885 . S
C1539 C123 0.909 . S
C1544 C874 0.882 . S
C1549 C144 0.911 . S
C1554 C433 0.879 . S
C1559 C601 0.882 . S
C1564 C165 0.910 . S
C1569 C186 0.910 . S
C1574 C832 0.882 . S
C1579 C207 0.908 . S
C1584 C352 0.886 . S
C1589 C225 0.908 . S
C1594 C853 0.886 . S
C1599 C391 0.880 . S
C1604 C249 0.910 . S
C1609 C877 0.880 . S
C1614 C246 0.910 . S
C1619 C436 0.880 . S
C1624 C183 0.910 . S
C1629 C204 0.908 . S
C1634 C604 0.885 . S
C1639 C475 0.880 . S
C1644 C228 0.910 . S
C1649 C937 0.881 . S
C1654 C267 0.910 . S
C1659 C562 0.881 . S
C1664 C162 0.910 . S
C1669 C99 0.910 . S
C1674 C940 0.882 . S
C1679 C120 0.910 . S
C1684 C517 0.881 . S
C1689 C291 0.909 . S
C1694 C541 0.884 . S
C1699 C979 0.881 . S
C1704 C309 0.910 . S
C1709 C15 0.908 . S
C1714 C1003 0.885 . S
C1719 C57 0.910 . S
C1724 C961 0.880 . S
C1729 C37 0.880 . S
C1734 C333 0.910 . S
C1739 C351 0.909 . S
C1744 C667 0.883 . S
C1749 C375 0.909 . S
C1754 C79 0.883 . S
C1759 C396 0.910 . S
C1764 C646 0.882 . S
C1769 C163 0.880 . S
C1774 C414 0.910 . S
C1779 C688 0.881 . S
C1784 C435 0.910 . S
C1789 C121 0.879 . S
C1794 C456 0.911 . S
C1799 C480 0.910 . S
C1804 C286 0.882 . S
C1809 C501 0.908 . S
C1814 C643 0.885 . S
C1819 C34 0.886 . S
C1824 C519 0.908 . S
C1829 C543 0.908 . S
C1834 C664 0.885 . S
C1839 C76 0.879 . S
C1844 C564 0.911 . S
C1849 C685 0.885 . S
C1854 C561 0.908 . S
C1859 C498 0.911 . S
C1864 C118 0.879 . S
C1869 C522 0.910 . S
C1874 C289 0.880 . S
C1879 C160 0.880 . S
C1884 C540 0.910 . S
C1889 C582 0.908 . S
C1894 C751 0.885 . S
C1899 C247 0.881 . S
C1904 C477 0.910 . S
C1909 C748 0.881 . S
C1914 C417 0.910 . S
C1919 C438 0.910 . S
C1924 C205 0.880 . S
C1929 C606 0.909 . S
C1934 C223 0.882 . S
C1939 C793 0.884 . S
C1944 C624 0.909 . S
C1949 C330 0.910 . S
C1954 C811 0.880 . S
C1959 C769 0.885 . S
C1964 C372 0.908 . S
C1969 C583 0.880 . S
C1974 C648 0.910 . S
C1979 C270 0.910 . S
C1984 C373 0.880 . S
C1989 C625 0.885 . S
C1994 C669 0.908 . S
C1999 C312 0.908 . S
C2004 C331 0.885 . S
C2009 C690 0.911 . S
C2014 C919 0.879 . S
C2019 C412 0.884 . S
C2024 C711 0.909 . S
C2029 C288 0.911 . S
C2034 C895 0.879 . S
C2039 C454 0.886 . S
C2044 C732 0.908 . S
C2049 C750 0.909 . S
C2054 C328 0.883 . S
C2059 C774 0.909 . S
C2064 C580 0.883 . S
C2069 C792 0.909 . S
C2074 C370 0.884 . S
C2079 C622 0.885 . S
C2084 C816 0.908 . S
C2089 C415 0.885 . S
C2094 C813 0.908 . S
C2099 C753 0.910 . S
C2104 C898 0.880 . S
C2109 C457 0.883 . S
C2114 C771 0.909 . S
C2119 C795 0.908 . S
C2124 C916 0.885 . S
C2129 C36 0.908 . S
C2134 C496 0.886 . S
C2139 C1000 0.886 . S
C2144 C729 0.908 . S
C2149 C687 0.909 . S
C2154 C499 0.884 . S
C2159 C708 0.909 . S
C2164 C958 0.884 . S
C2169 C982 0.880 . S
C2174 C141 0.910 . S
C2179 C538 0.886 . S
C2184 C78 0.908 . S
C2189 C645 0.910 . S
C2194 C559 0.881 . S
C2199 C520 0.884 . S
C2204 C666 0.909 . S
C2209 C268 0.882 . S
C2214 C837 0.909 . S
C2219 C585 0.910 . S
C2224 C58 0.882 . S
C2229 C310 0.880 . S
C2234 C858 0.910 . S
C2239 C627 0.910 . S
C2244 C16 0.880 . S
C2249 C876 0.910 . S
C2254 C730 0.879 . S
C2259 C100 0.883 . S
C2264 C897 0.909 . S
C2269 C709 0.886 . S
C2274 C603 0.908 . S
C2279 C142 0.883 . S
C2284 C921 0.909 . S
C2289 C13 0.886 . S
C2294 C942 0.908 . S
C2299 C960 0.910 . S
C2304 C265 0.880 . S
C2309 C55 0.885 . S
C2314 C984 0.908 . S
C2319 C307 0.884 . S
C2324 C1002 0.909 . S
C2329 C97 0.885 . S
C2334 C1005 0.908 . S
C2339 C706 0.880 . S
C2344 C939 0.910 . S
C2349 C963 0.910 . S
C2354 C139 0.880 . S
C2359 C727 0.885 . S
C2364 C981 0.908 . S
C2369 C181 0.883 . S
C2374 C354 0.909 . S
C2379 C918 0.908 . S
C2384 C814 0.885 . S
C2389 C879 0.910 . S
C2394 C184 0.880 . S
C2399 C772 0.880 . S
C2404 C900 0.910 . S
C2409 C459 0.908 . S
C2414 C790 0.885 . S
C2419 C393 0.909 . S
C2424 C226 0.882 . S
C2429 C244 0.885 . S
C2434 C834 0.908 . S
C2439 C202 0.885 . S
C2444 C855 0.908 . S
