# Generated by pormake.
# Topology why, (6)-cn, num edge types: 1
# Building blocks:
#     Node 0, Type 0, BuildingBlock: BETDAH_clean_sbu_0, # of connection points: 6
#     Node 1, Type 0, BuildingBlock: BETDAH_clean_sbu_0, # of connection points: 6
#     Node 2, Type 0, BuildingBlock: BETDAH_clean_sbu_0, # of connection points: 6
#     Node 3, Type 0, BuildingBlock: BETDAH_clean_sbu_0, # of connection points: 6
#     Node 4, Type 0, BuildingBlock: BETDAH_clean_sbu_0, # of connection points: 6
#     Node 5, Type 0, BuildingBlock: BETDAH_clean_sbu_0, # of connection points: 6
#     Node 6, Type 0, BuildingBlock: BETDAH_clean_sbu_0, # of connection points: 6
#     Node 7, Type 0, BuildingBlock: BETDAH_clean_sbu_0, # of connection points: 6
#     Node 8, Type 0, BuildingBlock: BETDAH_clean_sbu_0, # of connection points: 6
#     Node 9, Type 0, BuildingBlock: BETDAH_clean_sbu_0, # of connection points: 6
#     Node 10, Type 0, BuildingBlock: BETDAH_clean_sbu_0, # of connection points: 6
#     Node 11, Type 0, BuildingBlock: BETDAH_clean_sbu_0, # of connection points: 6
#     Node 12, Type 0, BuildingBlock: BETDAH_clean_sbu_0, # of connection points: 6
#     Node 13, Type 0, BuildingBlock: BETDAH_clean_sbu_0, # of connection points: 6
#     Node 14, Type 0, BuildingBlock: BETDAH_clean_sbu_0, # of connection points: 6
#     Node 15, Type 0, BuildingBlock: BETDAH_clean_sbu_0, # of connection points: 6
#     Edge 16, Type (0, 0), BuildingBlock: EZIPEK_clean_linker_0, # of connection points: 2
#     Edge 17, Type (0, 0), BuildingBlock: EZIPEK_clean_linker_0, # of connection points: 2
#     Edge 18, Type (0, 0), BuildingBlock: EZIPEK_clean_linker_0, # of connection points: 2
#     Edge 19, Type (0, 0), BuildingBlock: EZIPEK_clean_linker_0, # of connection points: 2
#     Edge 20, Type (0, 0), BuildingBlock: EZIPEK_clean_linker_0, # of connection points: 2
#     Edge 21, Type (0, 0), BuildingBlock: EZIPEK_clean_linker_0, # of connection points: 2
#     Edge 22, Type (0, 0), BuildingBlock: EZIPEK_clean_linker_0, # of connection points: 2
#     Edge 23, Type (0, 0), BuildingBlock: EZIPEK_clean_linker_0, # of connection points: 2
#     Edge 24, Type (0, 0), BuildingBlock: EZIPEK_clean_linker_0, # of connection points: 2
#     Edge 25, Type (0, 0), BuildingBlock: EZIPEK_clean_linker_0, # of connection points: 2
#     Edge 26, Type (0, 0), BuildingBlock: EZIPEK_clean_linker_0, # of connection points: 2
#     Edge 27, Type (0, 0), BuildingBlock: EZIPEK_clean_linker_0, # of connection points: 2
#     Edge 28, Type (0, 0), BuildingBlock: EZIPEK_clean_linker_0, # of connection points: 2
#     Edge 29, Type (0, 0), BuildingBlock: EZIPEK_clean_linker_0, # of connection points: 2
#     Edge 30, Type (0, 0), BuildingBlock: EZIPEK_clean_linker_0, # of connection points: 2
#     Edge 31, Type (0, 0), BuildingBlock: EZIPEK_clean_linker_0, # of connection points: 2
#     Edge 32, Type (0, 0), BuildingBlock: EZIPEK_clean_linker_0, # of connection points: 2
#     Edge 33, Type (0, 0), BuildingBlock: EZIPEK_clean_linker_0, # of connection points: 2
#     Edge 34, Type (0, 0), BuildingBlock: EZIPEK_clean_linker_0, # of connection points: 2
#     Edge 35, Type (0, 0), BuildingBlock: EZIPEK_clean_linker_0, # of connection points: 2
#     Edge 36, Type (0, 0), BuildingBlock: EZIPEK_clean_linker_0, # of connection points: 2
#     Edge 37, Type (0, 0), BuildingBlock: EZIPEK_clean_linker_0, # of connection points: 2
#     Edge 38, Type (0, 0), BuildingBlock: EZIPEK_clean_linker_0, # of connection points: 2
#     Edge 39, Type (0, 0), BuildingBlock: EZIPEK_clean_linker_0, # of connection points: 2
#     Edge 40, Type (0, 0), BuildingBlock: EZIPEK_clean_linker_0, # of connection points: 2
#     Edge 41, Type (0, 0), BuildingBlock: EZIPEK_clean_linker_0, # of connection points: 2
#     Edge 42, Type (0, 0), BuildingBlock: EZIPEK_clean_linker_0, # of connection points: 2
#     Edge 43, Type (0, 0), BuildingBlock: EZIPEK_clean_linker_0, # of connection points: 2
#     Edge 44, Type (0, 0), BuildingBlock: EZIPEK_clean_linker_0, # of connection points: 2
#     Edge 45, Type (0, 0), BuildingBlock: EZIPEK_clean_linker_0, # of connection points: 2
#     Edge 46, Type (0, 0), BuildingBlock: EZIPEK_clean_linker_0, # of connection points: 2
#     Edge 47, Type (0, 0), BuildingBlock: EZIPEK_clean_linker_0, # of connection points: 2
#     Edge 48, Type (0, 0), BuildingBlock: EZIPEK_clean_linker_0, # of connection points: 2
#     Edge 49, Type (0, 0), BuildingBlock: EZIPEK_clean_linker_0, # of connection points: 2
#     Edge 50, Type (0, 0), BuildingBlock: EZIPEK_clean_linker_0, # of connection points: 2
#     Edge 51, Type (0, 0), BuildingBlock: EZIPEK_clean_linker_0, # of connection points: 2
#     Edge 52, Type (0, 0), BuildingBlock: EZIPEK_clean_linker_0, # of connection points: 2
#     Edge 53, Type (0, 0), BuildingBlock: EZIPEK_clean_linker_0, # of connection points: 2
#     Edge 54, Type (0, 0), BuildingBlock: EZIPEK_clean_linker_0, # of connection points: 2
#     Edge 55, Type (0, 0), BuildingBlock: EZIPEK_clean_linker_0, # of connection points: 2
#     Edge 56, Type (0, 0), BuildingBlock: EZIPEK_clean_linker_0, # of connection points: 2
#     Edge 57, Type (0, 0), BuildingBlock: EZIPEK_clean_linker_0, # of connection points: 2
#     Edge 58, Type (0, 0), BuildingBlock: EZIPEK_clean_linker_0, # of connection points: 2
#     Edge 59, Type (0, 0), BuildingBlock: EZIPEK_clean_linker_0, # of connection points: 2
#     Edge 60, Type (0, 0), BuildingBlock: EZIPEK_clean_linker_0, # of connection points: 2
#     Edge 61, Type (0, 0), BuildingBlock: EZIPEK_clean_linker_0, # of connection points: 2
#     Edge 62, Type (0, 0), BuildingBlock: EZIPEK_clean_linker_0, # of connection points: 2
#     Edge 63, Type (0, 0), BuildingBlock: EZIPEK_clean_linker_0, # of connection points: 2
# Relax obj value: 0.380
# Max RMSD: 0.261
# Mean RMSD: 0.234
data_MOF--net-why--node1-BETDAH_clean_sbu_0--edge1-EZIPEK_clean_linker_0
_symmetry_space_group_name_H-M    P1
_symmetry_Int_Tables_number       1
_symmetry_cell_setting            triclinic
loop_
_symmetry_equiv_pos_as_xyz
'x, y, z'
_cell_length_a     42.726149
_cell_length_b     42.105269
_cell_length_c     28.446212
_cell_angle_alpha  94.157286
_cell_angle_beta   70.708793
_cell_angle_gamma 78.545808
loop_
_atom_site_label
_atom_site_type_symbol
_atom_site_fract_x
_atom_site_fract_y
_atom_site_fract_z
_atom_type_partial_charge
Ho0 Ho 0.39232 0.20095 0.06706 0.0
Ho1 Ho 0.44593 0.2211 0.11839 0.0
C2 C 0.36245 0.24938 0.17682 0.0
C3 C 0.34613 0.18424 0.03289 0.0
C4 C 0.3203 0.19444 1.00649 0.0
C5 C 0.28603 0.19209 0.0284 0.0
C6 C 0.26274 0.19695 1.00204 0.0
C7 C 0.2725 0.20438 0.95226 0.0
C8 C 0.30653 0.20748 0.93064 0.0
C9 C 0.3299 0.20249 0.95697 0.0
C10 C 0.41372 0.25772 0.04818 0.0
C11 C 0.47202 0.17998 1.00477 0.0
C12 C 0.49189 0.25299 0.12855 0.0
C13 C 0.51075 0.28119 0.11891 0.0
C14 C 0.54061 0.2781 0.07596 0.0
C15 C 0.56112 0.30155 0.06972 0.0
C16 C 0.55325 0.32946 0.10626 0.0
C17 C 0.52311 0.33293 0.14886 0.0
C18 C 0.50254 0.30942 0.1551 0.0
C19 C 0.43578 0.15835 0.13823 0.0
O20 O 0.35746 0.2264 0.14678 0.0
O21 O 0.39397 0.25326 0.17051 0.0
O22 O 0.37874 0.17876 1.00691 0.0
O23 O 0.33957 0.19649 0.07975 0.0
O24 O 0.4024 0.24182 0.01923 0.0
O25 O 0.40939 0.24392 0.08603 0.0
O26 O 0.47563 0.20326 0.03513 0.0
O27 O 0.44336 0.16967 0.01554 0.0
O28 O 0.4612 0.25696 0.16242 0.0
O29 O 0.49706 0.23032 0.09103 0.0
O30 O 0.45369 0.17477 0.1554 0.0
O31 O 0.4227 0.17743 0.11271 0.0
H32 H 0.27736 0.18546 0.06584 0.0
H33 H 0.23705 0.19417 0.02038 0.0
H34 H 0.31542 0.21303 0.89255 0.0
H35 H 0.35588 0.20421 0.93785 0.0
H36 H 0.54882 0.25686 0.0472 0.0
H37 H 0.58382 0.29742 0.03635 0.0
H38 H 0.51577 0.35366 0.17827 0.0
H39 H 0.4805 0.31301 0.18927 0.0
Ho40 Ho 0.66966 0.71561 0.23661 0.0
Ho41 Ho 0.61804 0.71115 0.3138 0.0
C42 C 0.60422 0.78082 0.27579 0.0
C43 C 0.72014 0.72263 0.16049 0.0
C44 C 0.72613 0.71899 0.1068 0.0
C45 C 0.70662 0.70214 0.08757 0.0
C46 C 0.6998 0.71087 0.04498 0.0
C47 C 0.71185 0.7369 0.02343 0.0
C48 C 0.73769 0.74774 0.03547 0.0
C49 C 0.74444 0.73917 0.07799 0.0
C50 C 0.68852 0.71119 0.32123 0.0
C51 C 0.66152 0.6423 0.23324 0.0
C52 C 0.58499 0.69917 0.40256 0.0
C53 C 0.58065 0.6699 0.42608 0.0
C54 C 0.60404 0.63968 0.40469 0.0
C55 C 0.5994 0.61187 0.42728 0.0
C56 C 0.57141 0.61416 0.47142 0.0
C57 C 0.54815 0.64435 0.49303 0.0
C58 C 0.55276 0.67217 0.47035 0.0
C59 C 0.5961 0.71021 0.23501 0.0
O60 O 0.63226 0.76487 0.23743 0.0
O61 O 0.59571 0.76597 0.3162 0.0
O62 O 0.69487 0.74696 0.18767 0.0
O63 O 0.7195 0.69578 0.18009 0.0
O64 O 0.70238 0.69169 0.27936 0.0
O65 O 0.66243 0.73049 0.31812 0.0
O66 O 0.64223 0.65482 0.28123 0.0
O67 O 0.67202 0.66387 0.20412 0.0
O68 O 0.57157 0.70394 0.36806 0.0
O69 O 0.61556 0.70436 0.38936 0.0
O70 O 0.57795 0.72581 0.27987 0.0
O71 O 0.62561 0.69649 0.23351 0.0
H72 H 0.69291 0.68581 0.10905 0.0
H73 H 0.68065 0.70165 0.03478 0.0
H74 H 0.74785 0.76734 0.01799 0.0
H75 H 0.76012 0.75177 0.09195 0.0
H76 H 0.62582 0.63757 0.37066 0.0
H77 H 0.61743 0.58858 0.4103 0.0
H78 H 0.52637 0.64625 0.52707 0.0
H79 H 0.53455 0.69539 0.48719 0.0
Ho80 Ho 0.18165 0.97562 0.51741 0.0
Ho81 Ho 0.21944 0.94371 0.57134 0.0
C82 C 0.14671 0.92452 0.58363 0.0
C83 C 0.15069 0.99935 0.45847 0.0
C84 C 0.13049 0.9854 0.43234 0.0
C85 C 0.1465 0.96584 0.38478 0.0
C86 C 0.12756 0.95073 0.36229 0.0
C87 C 0.09221 0.9553 0.38654 0.0
C88 C 0.07597 0.97546 0.43331 0.0
C89 C 0.09491 0.99033 0.45604 0.0
C90 C 0.17467 1.01498 0.60616 0.0
C91 C 0.26472 0.96843 0.47107 0.0
C92 C 0.24952 0.93265 0.63564 0.0
C93 C 0.25331 0.90802 0.66815 0.0
C94 C 0.26859 0.91335 0.70368 0.0
C95 C 0.27539 0.88881 0.73176 0.0
C96 C 0.26691 0.85881 0.72441 0.0
C97 C 0.25033 0.85394 0.69033 0.0
C98 C 0.24354 0.87851 0.66223 0.0
C99 C 0.21528 0.89846 0.50317 0.0
O100 O 0.14999 0.93798 0.5423 0.0
O101 O 0.16739 0.92975 0.60838 0.0
O102 O 0.13735 1.00498 0.50736 0.0
O103 O 0.18339 0.98641 0.44302 0.0
O104 O 0.15039 1.0108 0.59075 0.0
O105 O 0.20159 0.99724 0.57321 0.0
O106 O 0.26559 0.9521 0.50892 0.0
O107 O 0.23459 0.9819 0.46786 0.0
O108 O 0.21891 0.95154 0.64755 0.0
O109 O 0.2643 0.92236 0.58728 0.0
O110 O 0.21731 0.89298 0.54644 0.0
O111 O 0.21843 0.9272 0.49599 0.0
H112 H 0.17377 0.96167 0.36534 0.0
H113 H 0.14041 0.9356 0.32579 0.0
H114 H 1.04861 0.97976 0.4521 0.0
H115 H 0.08167 1.00552 0.49243 0.0
H116 H 0.2762 0.93607 0.70857 0.0
H117 H 0.28837 0.89271 0.7578 0.0
H118 H 0.24386 0.83076 0.68421 0.0
H119 H 0.23174 0.87413 0.63481 0.0
Ho120 Ho 0.94969 0.44728 0.71071 0.0
Ho121 Ho 0.96867 0.48021 0.77675 0.0
C122 C 1.00173 0.40406 0.76315 0.0
C123 C 0.94239 0.40649 0.64397 0.0
C124 C 0.92781 0.37758 0.64003 0.0
C125 C 0.94753 0.34562 0.63506 0.0
C126 C 0.9358 0.31829 0.62381 0.0
C127 C 0.90431 0.32237 0.61691 0.0
C128 C 0.88378 0.3541 0.62426 0.0
C129 C 0.89549 0.38146 0.6355 0.0
C130 C 0.89566 0.46466 0.80289 0.0
C131 C 0.94178 0.52528 0.70298 0.0
C132 C 0.9648 0.51972 0.85299 0.0
C133 C 0.97711 0.52042 0.89489 0.0
C134 C 0.95494 0.53807 0.94165 0.0
C135 C 0.96746 0.54399 0.97996 0.0
C136 C 1.00225 0.5325 0.97116 0.0
C137 C 1.02389 0.51272 0.92585 0.0
C138 C 1.01131 0.50649 0.88777 0.0
C139 C 1.02195 0.46172 0.68674 0.0
O140 O 0.98597 0.40427 0.72948 0.0
O141 O 0.99696 0.4323 0.7912 0.0
O142 O 0.92127 0.43484 0.66417 0.0
O143 O 0.96918 0.40247 0.65722 0.0
O144 O 0.89365 0.46754 0.75906 0.0
O145 O 0.92714 0.45288 0.79543 0.0
O146 O 0.94416 0.52497 0.7481 0.0
O147 O 0.94674 0.49607 0.67655 0.0
O148 O 0.94281 0.50192 0.85478 0.0
O149 O 0.98747 0.51711 0.80804 0.0
O150 O 1.02446 0.45984 0.7308 0.0
O151 O 0.99092 0.47364 0.69273 0.0
H152 H 0.97265 0.34166 0.63786 0.0
H153 H 0.95198 0.29398 0.61822 0.0
H154 H 0.85951 0.35769 0.6187 0.0
H155 H 0.87981 0.40568 0.63854 0.0
H156 H 0.92842 0.54873 0.94755 0.0
H157 H 0.95069 0.55935 0.01496 0.0
H158 H 1.05084 0.50375 0.91901 0.0
H159 H 1.02863 0.4924 0.85204 0.0
Ho160 Ho 0.66854 0.88604 0.88746 0.0
Ho161 Ho 0.7238 0.90187 0.93719 0.0
C162 C 0.64285 0.92663 1.00322 0.0
C163 C 0.62003 0.8563 0.88276 0.0
C164 C 0.60304 0.82709 0.88491 0.0
C165 C 0.60269 0.80521 0.92061 0.0
C166 C 0.5827 0.78131 0.9267 0.0
C167 C 0.56123 0.77853 0.89845 0.0
C168 C 0.5618 0.80033 0.86264 0.0
C169 C 0.58224 0.82379 0.85592 0.0
C170 C 0.68118 0.94701 0.8654 0.0
C171 C 0.74962 0.85244 0.82663 0.0
C172 C 0.77618 0.9104 0.96319 0.0
C173 C 0.79513 0.90983 1.00092 0.0
C174 C 0.8214 0.92679 0.99436 0.0
C175 C 0.84289 0.92338 0.02369 0.0
C176 C 0.83925 0.90294 0.06165 0.0
C177 C 0.81263 0.88619 0.06871 0.0
C178 C 0.79135 0.8893 0.0388 0.0
C179 C 0.69261 0.85313 0.96627 0.0
O180 O 0.63627 0.9137 0.96466 0.0
O181 O 0.67441 0.92748 1.00084 0.0
O182 O 0.64442 0.86037 0.84257 0.0
O183 O 0.62295 0.86893 0.92395 0.0
O184 O 0.66096 0.93179 0.85185 0.0
O185 O 0.69481 0.92805 0.89099 0.0
O186 O 0.75704 0.87013 0.86087 0.0
O187 O 0.71756 0.855 0.82914 0.0
O188 O 0.75054 0.93462 0.96584 0.0
O189 O 0.77271 0.88254 0.94484 0.0
O190 O 0.70332 0.8703 0.99476 0.0
O191 O 0.70225 0.86086 0.92298 0.0
H192 H 0.61728 0.80704 0.94496 0.0
H193 H 0.58336 0.7654 0.95478 0.0
H194 H 0.5458 0.79964 0.84014 0.0
H195 H 0.5808 0.84033 0.82887 0.0
H196 H 0.82605 0.94227 0.96521 0.0
H197 H 0.86277 0.93675 0.01632 0.0
H198 H 0.80847 0.87026 0.09725 0.0
H199 H 0.77215 0.87515 0.04492 0.0
Ho200 Ho 0.49083 0.39554 0.70233 0.0
Ho201 Ho 0.44137 0.38691 0.77825 0.0
C202 C 0.44705 0.46133 0.79105 0.0
C203 C 0.52033 0.41361 0.61681 0.0
C204 C 0.53107 0.44286 0.59945 0.0
C205 C 0.51394 0.47409 0.62713 0.0
C206 C 0.52248 0.50191 0.60773 0.0
C207 C 0.5483 0.49867 0.56075 0.0
C208 C 0.56636 0.46747 0.53402 0.0
C209 C 0.55771 0.43963 0.55333 0.0
C210 C 0.51584 0.39452 0.77742 0.0
C211 C 0.50892 0.32466 0.73407 0.0
C212 C 0.39774 0.37191 0.85499 0.0
C213 C 0.39897 0.37048 0.90548 0.0
C214 C 0.42982 0.35702 0.9115 0.0
C215 C 0.43169 0.35711 0.95924 0.0
C216 C 0.40236 0.37003 1.00269 0.0
C217 C 0.37223 0.38618 0.9958 0.0
C218 C 0.37053 0.38612 0.94766 0.0
C219 C 0.41972 0.39417 0.69657 0.0
O220 O 0.46948 0.45051 0.7441 0.0
O221 O 0.43318 0.43914 0.81504 0.0
O222 O 0.53703 0.39752 0.64187 0.0
O223 O 0.48748 0.41666 0.63684 0.0
O224 O 0.53325 0.38108 0.73123 0.0
O225 O 0.48513 0.40672 0.78234 0.0
O226 O 0.48117 0.33913 0.7734 0.0
O227 O 0.51556 0.34057 0.69458 0.0
O228 O 0.42055 0.34989 0.81883 0.0
O229 O 0.39476 0.40121 0.84285 0.0
O230 O 0.40514 0.41076 0.7409 0.0
O231 O 0.44723 0.37546 0.69649 0.0
H232 H 0.49334 0.47703 0.66286 0.0
H233 H 0.50835 0.52596 0.62856 0.0
H234 H 0.5863 0.4648 0.4976 0.0
H235 H 0.57116 0.41565 0.53169 0.0
H236 H 0.45254 0.34586 0.87928 0.0
H237 H 0.4559 0.345 0.96134 0.0
H238 H 0.34934 0.39756 0.0274 0.0
H239 H 0.34688 0.39799 0.94338 0.0
Ho240 Ho 0.89526 0.16303 0.44233 0.0
Ho241 Ho 0.92708 0.13218 0.5016 0.0
C242 C 0.84594 0.14321 0.54518 0.0
C243 C 0.87372 0.17746 0.36959 0.0
C244 C 0.84924 0.20308 0.35944 0.0
C245 C 0.83695 0.19571 0.32101 0.0
C246 C 0.81764 0.22068 0.30549 0.0
C247 C 0.81074 0.25321 0.32814 0.0
C248 C 0.8213 0.26037 0.36858 0.0
C249 C 0.84032 0.23534 0.38444 0.0
C250 C 0.88059 0.20557 0.52771 0.0
C251 C 0.96649 0.18349 0.43534 0.0
C252 C 0.96499 0.11034 0.55203 0.0
C253 C 0.98552 0.12622 0.57433 0.0
C254 C 0.97652 0.16037 0.58905 0.0
C255 C 0.99602 0.17548 0.61025 0.0
C256 C 1.02469 0.15659 0.6171 0.0
C257 C 1.03411 0.12256 0.60151 0.0
C258 C 1.01467 0.10747 0.58005 0.0
C259 C 0.92277 0.08731 0.42746 0.0
O260 O 0.85034 0.14564 0.49708 0.0
O261 O 0.87296 0.14132 0.55867 0.0
O262 O 0.89983 0.18614 0.37599 0.0
O263 O 0.86113 0.15859 0.40149 0.0
O264 O 0.85987 0.20385 0.50368 0.0
O265 O 0.9084 0.18519 0.50392 0.0
O266 O 0.96606 0.16342 0.46947 0.0
O267 O 0.94169 0.18647 0.41621 0.0
O268 O 0.97569 0.10576 0.50288 0.0
O269 O 0.93194 0.12173 0.57241 0.0
O270 O 0.91378 0.08573 0.47514 0.0
O271 O 0.93183 0.11417 0.42203 0.0
H272 H 0.84359 0.17088 0.30152 0.0
H273 H 0.80976 0.21495 0.27401 0.0
H274 H 0.81618 0.28546 0.38619 0.0
H275 H 0.84933 0.24137 0.41454 0.0
H276 H 0.95407 0.17523 0.58492 0.0
H277 H 0.98826 0.20171 0.62258 0.0
H278 H 0.05605 0.10768 0.60702 0.0
H279 H 1.02212 0.08116 0.56853 0.0
Ho280 Ho 0.14744 0.62506 0.22836 0.0
Ho281 Ho 0.16319 0.65851 0.30076 0.0
C282 C 0.17541 0.57979 0.29959 0.0
C283 C 0.1516 0.58755 0.14976 0.0
C284 C 0.12793 0.58318 0.12478 0.0
C285 C 0.13771 0.55739 0.08521 0.0
C286 C 0.11412 0.55117 0.064 0.0
C287 C 0.08075 0.57069 0.08255 0.0
C288 C 0.07101 0.59672 0.12186 0.0
C289 C 0.09464 0.60299 0.14297 0.0
C290 C 0.09194 0.64156 0.31591 0.0
C291 C 0.11272 0.7019 0.24712 0.0
C292 C 0.16579 0.69656 0.37478 0.0
C293 C 0.1757 0.72725 0.38445 0.0
C294 C 0.1574 0.7478 0.43052 0.0
C295 C 0.16694 0.77643 0.44194 0.0
C296 C 0.19497 0.78485 0.40745 0.0
C297 C 0.21298 0.76469 0.36087 0.0
C298 C 0.20334 0.73603 0.34934 0.0
C299 C 0.21852 0.64256 0.2104 0.0
O300 O 0.17675 0.58136 0.25279 0.0
O301 O 0.16605 0.60824 0.32995 0.0
O302 O 0.16067 0.61541 0.14766 0.0
O303 O 0.14365 0.57927 0.19471 0.0
O304 O 0.09068 0.63896 0.27089 0.0
O305 O 0.12285 0.63171 0.31229 0.0
O306 O 0.1293 0.7019 0.27965 0.0
O307 O 0.11666 0.67366 0.21954 0.0
O308 O 0.19016 0.67123 0.349 0.0
O309 O 0.13894 0.69918 0.36185 0.0
O310 O 0.21987 0.63976 0.25467 0.0
O311 O 0.18728 0.65383 0.21637 0.0
H312 H 0.16332 0.54184 0.07136 0.0
H313 H 0.12173 0.5311 0.03341 0.0
H314 H 1.04525 0.61194 0.13611 0.0
H315 H 0.08689 0.62284 0.17393 0.0
H316 H 0.13595 0.74149 0.45797 0.0
H317 H 0.15276 0.7918 0.47799 0.0
H318 H 0.23463 0.77097 0.33386 0.0
H319 H 0.21765 0.72059 0.31342 0.0
Ho320 Ho 0.89373 0.70341 0.56881 0.0
Ho321 Ho 0.94931 0.72045 0.61864 0.0
C322 C 0.8671 0.75252 0.67924 0.0
C323 C 0.84773 0.68728 0.5336 0.0
C324 C 0.82141 0.69742 0.5079 0.0
C325 C 0.7879 0.69273 0.52828 0.0
C326 C 0.7648 0.69709 0.50148 0.0
C327 C 0.77403 0.70625 0.45269 0.0
C328 C 0.80725 0.7117 0.43272 0.0
C329 C 0.83038 0.70729 0.45949 0.0
C330 C 0.91784 0.75819 0.54861 0.0
C331 C 0.9736 0.68028 0.50543 0.0
C332 C 0.99612 0.75148 0.627 0.0
C333 C 1.01298 0.78098 0.62188 0.0
C334 C 1.03252 0.78791 0.57436 0.0
C335 C 1.05239 0.81185 0.56975 0.0
C336 C 1.05403 0.83007 0.61238 0.0
C337 C 1.03422 0.82349 0.65983 0.0
C338 C 1.01431 0.79958 0.66445 0.0
C339 C 0.93843 0.65784 0.63576 0.0
O340 O 0.85949 0.73407 0.6458 0.0
O341 O 0.89927 0.75109 0.67623 0.0
O342 O 0.88 0.68383 0.50732 0.0
O343 O 0.84124 0.69747 0.58134 0.0
O344 O 0.90551 0.74322 0.52013 0.0
O345 O 0.91278 0.74513 0.58734 0.0
O346 O 0.97858 0.70236 0.53594 0.0
O347 O 0.94421 0.67127 0.51641 0.0
O348 O 0.96827 0.75126 0.66477 0.0
O349 O 0.9981 0.73348 0.58619 0.0
O350 O 0.958 0.67272 0.65161 0.0
O351 O 0.9248 0.67793 0.61202 0.0
H352 H 0.77975 0.68458 0.5647 0.0
H353 H 0.73974 0.6925 0.51861 0.0
H354 H 0.81576 0.71864 0.39548 0.0
H355 H 0.8558 0.7108 0.44141 0.0
H356 H 1.03334 0.77407 0.54022 0.0
H357 H 0.06718 0.81564 0.53244 0.0
H358 H 1.03464 0.83653 0.69377 0.0
H359 H 1.00064 0.79496 0.70179 0.0
Ho360 Ho 0.16815 0.21753 0.73819 0.0
Ho361 Ho 0.11585 0.21159 0.8115 0.0
C362 C 0.10201 0.28212 0.77715 0.0
C363 C 0.21891 0.22671 0.66478 0.0
C364 C 0.22468 0.22355 0.61125 0.0
C365 C 0.20546 0.2062 0.59211 0.0
C366 C 0.19814 0.21476 0.54988 0.0
C367 C 0.2098 0.24084 0.52804 0.0
C368 C 0.23489 0.25284 0.54054 0.0
C369 C 0.24201 0.24449 0.58287 0.0
C370 C 0.18545 0.21123 0.82348 0.0
C371 C 0.15917 0.144 0.728 0.0
C372 C 0.08271 0.19816 0.89897 0.0
C373 C 0.0771 0.16904 0.9221 0.0
C374 C 0.07419 0.16936 0.97264 0.0
C375 C 0.07069 0.14139 0.99515 0.0
C376 C 0.0698 0.11296 0.96731 0.0
C377 C 0.07268 0.11257 0.91669 0.0
C378 C 0.07655 0.14049 0.894 0.0
C379 C 0.09492 0.21306 0.73194 0.0
O380 O 0.13086 0.267 0.7396 0.0
O381 O 0.09279 0.26639 0.81634 0.0
O382 O 0.19315 0.25044 0.69247 0.0
O383 O 0.21889 0.19949 0.68335 0.0
O384 O 0.19981 0.19231 0.78117 0.0
O385 O 0.15951 0.23079 0.82027 0.0
O386 O 0.13704 0.15565 0.77491 0.0
O387 O 0.17344 0.16566 0.70302 0.0
O388 O 0.06895 0.20505 0.86527 0.0
O389 O 0.11394 0.20153 0.88559 0.0
O390 O 0.07631 0.22737 0.77744 0.0
O391 O 0.12462 0.19938 0.73016 0.0
H392 H 0.19229 0.18952 0.61346 0.0
H393 H 0.17916 0.20505 0.53989 0.0
H394 H 0.24448 0.27268 0.52302 0.0
H395 H 0.25726 0.25762 0.59695 0.0
H396 H 0.07501 0.19117 0.99448 0.0
H397 H 0.06859 0.14185 0.03423 0.0
H398 H 0.07213 0.09063 0.89487 0.0
H399 H 0.07935 0.13971 0.85465 0.0
Ho400 Ho 0.6796 0.48005 0.01275 0.0
Ho401 Ho 0.71979 0.44262 0.07599 0.0
C402 C 0.64763 0.42318 0.07895 0.0
C403 C 0.64619 0.49912 0.95525 0.0
C404 C 0.62737 0.48463 0.92767 0.0
C405 C 0.64438 0.46396 0.88124 0.0
C406 C 0.62596 0.4488 0.85785 0.0
C407 C 0.59034 0.45466 0.88008 0.0
C408 C 0.57323 0.47611 0.9254 0.0
C409 C 0.59157 0.49098 0.94898 0.0
C410 C 0.67841 0.52338 0.09379 0.0
C411 C 0.76407 0.46825 0.97279 0.0
C412 C 0.73978 0.43446 0.1511 0.0
C413 C 0.74393 0.40833 0.18115 0.0
C414 C 0.74745 0.41568 0.22768 0.0
C415 C 0.75448 0.39056 0.25473 0.0
C416 C 0.75817 0.35794 0.23519 0.0
C417 C 0.75324 0.3507 0.18964 0.0
C418 C 0.74596 0.37586 0.16277 0.0
C419 C 0.72261 0.4 0.99736 0.0
O420 O 0.6465 0.44359 0.04517 0.0
O421 O 0.67134 0.42177 0.10063 0.0
O422 O 0.63247 0.50232 1.0044 0.0
O423 O 0.67965 0.48923 0.93859 0.0
O424 O 0.66468 0.53105 0.06082 0.0
O425 O 0.69193 0.49295 0.08029 0.0
O426 O 0.76308 0.45889 0.01721 0.0
O427 O 0.7354 0.47668 0.96226 0.0
O428 O 0.70824 0.44832 0.15641 0.0
O429 O 0.76068 0.42842 0.10409 0.0
O430 O 0.73695 0.3921 0.03028 0.0
O431 O 0.70848 0.43039 0.00907 0.0
H432 H 0.67187 0.45888 0.86362 0.0
H433 H 0.63939 0.43263 0.82238 0.0
H434 H 0.54568 0.4813 0.94245 0.0
H435 H 0.57771 0.50728 0.98425 0.0
H436 H 0.74579 0.44069 0.2423 0.0
H437 H 0.75848 0.39634 0.28973 0.0
H438 H 0.75622 0.32555 0.17415 0.0
H439 H 0.74303 0.3699 0.12699 0.0
Ho440 Ho 0.45081 0.94719 0.21365 0.0
Ho441 Ho 0.4697 0.98107 0.27977 0.0
C442 C 0.5053 0.90455 0.2625 0.0
C443 C 0.44387 0.90565 0.14734 0.0
C444 C 0.42848 0.8774 0.14245 0.0
C445 C 0.44648 0.84523 0.14111 0.0
C446 C 0.43486 0.8182 0.12827 0.0
C447 C 0.40515 0.82271 0.11622 0.0
C448 C 0.38625 0.85471 0.1197 0.0
C449 C 0.39787 0.88181 0.13252 0.0
C450 C 0.39594 0.96649 0.30439 0.0
C451 C 0.44158 1.02523 0.20656 0.0
C452 C 0.47009 1.02046 0.3534 0.0
C453 C 0.49597 1.02739 0.37269 0.0
C454 C 0.48609 1.04162 0.4229 0.0
C455 C 0.51045 1.04905 0.44158 0.0
C456 C 0.54474 1.04243 0.41001 0.0
C457 C 0.55473 1.02825 0.35969 0.0
C458 C 0.53038 1.02056 0.3411 0.0
C459 C 0.52271 0.96375 0.18976 0.0
O460 O 0.48764 0.90434 0.23148 0.0
O461 O 0.50164 0.93309 0.28898 0.0
O462 O 0.42374 0.93478 0.16474 0.0
O463 O 0.46921 0.90093 0.16385 0.0
O464 O 0.39478 0.96794 0.25987 0.0
O465 O 0.42714 0.95475 0.29873 0.0
O466 O 0.44189 1.02494 0.25294 0.0
O467 O 0.44877 0.99587 0.17905 0.0
O468 O 0.46314 0.99183 0.35857 0.0
O469 O 0.47305 1.02833 0.30898 0.0
O470 O 0.52605 0.96453 0.23344 0.0
O471 O 0.49155 0.97395 0.1958 0.0
H472 H 0.47037 0.8408 0.14788 0.0
H473 H 0.4499 0.7937 0.12547 0.0
H474 H 0.36337 0.85867 0.11019 0.0
H475 H 0.38364 0.90617 0.13256 0.0
H476 H 0.45959 1.04698 0.44752 0.0
H477 H 0.50266 0.05988 0.48063 0.0
H478 H 0.58125 1.02291 0.33523 0.0
H479 H 0.53832 1.00945 0.30218 0.0
Ho480 Ho 0.16819 0.38355 0.38411 0.0
Ho481 Ho 0.22184 0.40208 0.43498 0.0
C482 C 0.14184 0.42759 0.49802 0.0
C483 C 0.12006 0.35373 0.37859 0.0
C484 C 0.10288 0.32471 0.38127 0.0
C485 C 0.1041 0.30186 0.41518 0.0
C486 C 0.08405 0.27801 0.42172 0.0
C487 C 0.06102 0.27634 0.39577 0.0
C488 C 0.06014 0.29904 0.3616 0.0
C489 C 0.08061 0.32243 0.35441 0.0
C490 C 0.17907 0.44539 0.3628 0.0
C491 C 0.25005 0.35274 0.32589 0.0
C492 C 0.27346 0.41007 0.46312 0.0
C493 C 0.29175 0.40992 0.50148 0.0
C494 C 0.31746 0.42746 0.49584 0.0
C495 C 0.33859 0.42426 0.52565 0.0
C496 C 0.33504 0.40348 0.56311 0.0
C497 C 0.30894 0.3862 0.56931 0.0
C498 C 0.28802 0.38911 0.53895 0.0
C499 C 0.19163 0.3522 0.46238 0.0
O500 O 0.13674 0.40709 0.46496 0.0
O501 O 0.17228 0.43401 0.49059 0.0
O502 O 0.14554 0.3565 0.3388 0.0
O503 O 0.12165 0.36764 0.42009 0.0
O504 O 0.16078 0.42891 0.34672 0.0
O505 O 0.1929 0.42646 0.38793 0.0
O506 O 0.25617 0.37492 0.35581 0.0
O507 O 0.21842 0.3506 0.33099 0.0
O508 O 0.26945 0.38217 0.44592 0.0
O509 O 0.24868 0.43458 0.46387 0.0
O510 O 0.19932 0.37092 0.49299 0.0
O511 O 0.20226 0.3598 0.41946 0.0
H512 H 0.12 0.30284 0.43773 0.0
H513 H 0.08586 0.2613 0.44842 0.0
H514 H 1.04296 0.29912 0.34086 0.0
H515 H 0.07806 0.33972 0.32873 0.0
H516 H 0.32201 0.44317 0.46699 0.0
H517 H 0.35812 0.43803 0.51904 0.0
H518 H 0.30494 0.36999 0.59747 0.0
H519 H 0.26922 0.37455 0.5443 0.0
Ho520 Ho 0.99534 0.89525 0.2033 0.0
Ho521 Ho 0.94572 0.88701 0.27671 0.0
C522 C 0.95096 0.9613 0.29064 0.0
C523 C 1.02555 0.91186 0.11683 0.0
C524 C 1.03528 0.94059 0.09546 0.0
C525 C 1.0222 0.95215 0.0591 0.0
C526 C 1.02983 0.98001 0.03908 0.0
C527 C 1.05071 0.99654 0.05511 0.0
C528 C 0.06443 0.98481 0.09071 0.0
C529 C 0.05686 0.9568 0.1107 0.0
C530 C 1.01917 0.89477 0.28017 0.0
C531 C 1.01269 0.82416 0.23426 0.0
C532 C 0.89957 0.87298 0.35134 0.0
C533 C 0.89627 0.87547 0.40397 0.0
C534 C 0.87809 0.85605 0.4343 0.0
C535 C 0.88037 0.85333 0.48137 0.0
C536 C 0.90108 0.86999 0.49879 0.0
C537 C 0.91653 0.89202 0.46998 0.0
C538 C 0.91437 0.89452 0.42252 0.0
C539 C 0.92519 0.89388 0.19392 0.0
O540 O 0.9733 0.95061 0.24355 0.0
O541 O 0.93766 0.93884 0.31458 0.0
O542 O 1.0418 0.89807 0.14433 0.0
O543 O 0.99284 0.91394 0.13568 0.0
O544 O 1.03704 0.88122 0.23413 0.0
O545 O 0.98866 0.90694 0.28397 0.0
O546 O 0.98443 0.83853 0.27284 0.0
O547 O 1.02021 0.8404 0.19534 0.0
O548 O 0.92593 0.85098 0.32091 0.0
O549 O 0.89589 0.90085 0.33464 0.0
O550 O 0.91093 0.9114 0.23754 0.0
O551 O 0.95231 0.8749 0.19486 0.0
H552 H 1.00572 0.93982 0.04663 0.0
H553 H 1.01913 0.98895 0.01155 0.0
H554 H 0.08064 0.99748 0.10322 0.0
H555 H 0.06767 0.94804 0.1381 0.0
H556 H 0.86392 0.8414 0.42038 0.0
H557 H 0.86788 0.83607 0.50208 0.0
H558 H 0.93171 0.90591 0.48269 0.0
H559 H 0.9283 0.90997 0.39929 0.0
Ho560 Ho 0.39739 0.66263 0.94065 0.0
Ho561 Ho 0.42973 0.63185 0.99865 0.0
C562 C 0.34911 0.6412 0.04188 0.0
C563 C 0.37572 0.67797 0.86837 0.0
C564 C 0.35521 0.70608 0.85576 0.0
C565 C 0.32784 0.70157 0.84126 0.0
C566 C 0.31001 0.72684 0.8242 0.0
C567 C 0.31959 0.75678 0.82122 0.0
C568 C 0.34605 0.76184 0.83746 0.0
C569 C 0.36375 0.73665 0.85482 0.0
C570 C 0.38298 0.70519 0.02605 0.0
C571 C 0.46793 0.68451 0.9338 0.0
C572 C 0.46803 0.60995 0.04843 0.0
C573 C 0.48857 0.62555 0.07121 0.0
C574 C 0.47715 0.65871 0.09318 0.0
C575 C 0.49626 0.67306 0.11615 0.0
C576 C 0.52724 0.6546 0.11674 0.0
C577 C 0.53938 0.62189 0.09299 0.0
C578 C 0.52006 0.60741 0.0705 0.0
C579 C 0.42396 0.58682 0.92613 0.0
O580 O 0.35381 0.64291 0.99358 0.0
O581 O 0.37574 0.64073 0.0559 0.0
O582 O 0.40544 0.6804 0.86929 0.0
O583 O 0.35953 0.66392 0.90509 0.0
O584 O 0.362 0.7032 1.00256 0.0
O585 O 0.41079 0.68494 1.00196 0.0
O586 O 0.46867 0.66313 0.96591 0.0
O587 O 0.44218 0.68843 0.9166 0.0
O588 O 0.47865 0.60569 0.99928 0.0
O589 O 0.43494 0.62101 0.06905 0.0
O590 O 0.41586 0.58536 0.97373 0.0
O591 O 0.43336 0.61346 0.91972 0.0
H592 H 0.32095 0.67814 0.84165 0.0
H593 H 0.28973 0.72266 0.81142 0.0
H594 H 0.3537 0.78489 0.83507 0.0
H595 H 0.3847 0.7408 0.86593 0.0
H596 H 0.45318 0.67337 0.09338 0.0
H597 H 0.48659 0.69831 0.13436 0.0
H598 H 0.56321 0.60733 0.09342 0.0
H599 H 0.52944 0.58195 0.05321 0.0
Ho600 Ho 0.64647 0.12743 0.72908 0.0
Ho601 Ho 0.65922 0.16173 0.80592 0.0
C602 C 0.67217 0.08274 0.8041 0.0
C603 C 0.65752 0.09019 0.64642 0.0
C604 C 0.64547 0.08888 0.60426 0.0
C605 C 0.66809 0.07167 0.55749 0.0
C606 C 0.65621 0.06633 0.51825 0.0
C607 C 0.62157 0.07802 0.52598 0.0
C608 C 0.5994 0.09706 0.57169 0.0
C609 C 0.61135 0.10261 0.6108 0.0
C610 C 0.58996 0.14267 0.81473 0.0
C611 C 0.61049 0.20401 0.7483 0.0
C612 C 0.65902 0.20032 0.8819 0.0
C613 C 0.66788 0.23145 0.89284 0.0
C614 C 0.65705 0.24651 0.94305 0.0
C615 C 0.66618 0.27541 0.95479 0.0
C616 C 0.6862 0.2897 0.9164 0.0
C617 C 0.69645 0.27505 0.86602 0.0
C618 C 0.68734 0.24608 0.85428 0.0
C619 C 0.71518 0.14763 0.71625 0.0
O620 O 0.6752 0.08477 0.75661 0.0
O621 O 0.66168 0.11118 0.83491 0.0
O622 O 0.67413 0.1127 0.64928 0.0
O623 O 0.63621 0.08724 0.69006 0.0
O624 O 0.58947 0.14056 0.76915 0.0
O625 O 0.62068 0.13324 0.81248 0.0
O626 O 0.62496 0.20412 0.78352 0.0
O627 O 0.61677 0.17603 0.71844 0.0
O628 O 0.68425 0.17553 0.85653 0.0
O629 O 0.63305 0.20223 0.86695 0.0
O630 O 0.71633 0.14438 0.76056 0.0
O631 O 0.6839 0.15838 0.72201 0.0
H632 H 0.69458 0.06119 0.55203 0.0
H633 H 0.67345 1.05159 0.48299 0.0
H634 H 0.57258 0.10619 0.57784 0.0
H635 H 0.59373 0.11631 0.64664 0.0
H636 H 0.64188 0.23568 0.97328 0.0
H637 H 0.65806 0.28638 0.99383 0.0
H638 H 0.71196 0.28575 0.83597 0.0
H639 H 0.6958 0.23488 0.8153 0.0
C640 C 0.56615 0.38746 0.09588 0.0
C641 C 0.57711 0.35386 0.10074 0.0
C642 C 0.63466 0.36485 0.08907 0.0
C643 C 0.62289 0.39934 0.08918 0.0
N644 N 0.57366 0.44335 0.10322 0.0
N645 N 0.62125 0.31313 0.11184 0.0
C646 C 0.58757 0.41043 0.09535 0.0
C647 C 0.61121 0.34345 0.10005 0.0
N648 N 0.5355 0.39748 0.0898 0.0
N649 N 0.66877 0.35157 0.07576 0.0
H650 H 0.60526 0.29699 0.12061 0.0
H651 H 0.64413 0.3053 0.11788 0.0
H652 H 0.68697 0.36534 0.06782 0.0
H653 H 0.67935 0.32641 0.06784 0.0
H654 H 0.52753 0.4203 0.08015 0.0
H655 H 0.51943 0.3818 0.08967 0.0
H656 H 0.54762 0.45336 0.11302 0.0
H657 H 0.58752 0.46081 0.10553 0.0
C658 C 0.56242 0.83915 0.31353 0.0
C659 C 0.57975 0.81325 0.27178 0.0
C660 C 0.5516 0.84901 0.22256 0.0
C661 C 0.53077 0.87277 0.26592 0.0
N662 N 0.51276 0.88425 0.35653 0.0
N663 N 0.58058 0.79204 0.19012 0.0
C664 C 0.53537 0.86605 0.31237 0.0
C665 C 0.57147 0.81793 0.22735 0.0
N666 N 0.57247 0.83902 0.35435 0.0
N667 N 0.55411 0.85634 0.17568 0.0
H668 H 0.59318 0.76885 0.19266 0.0
H669 H 0.57223 0.79285 0.15958 0.0
H670 H 0.54235 0.879 0.16955 0.0
H671 H 0.5713 0.8414 0.14278 0.0
H672 H 0.56353 0.8586 0.38366 0.0
H673 H 0.59254 0.82107 0.35617 0.0
H674 H 0.51251 0.87867 0.39172 0.0
H675 H 0.49174 0.90239 0.35828 0.0
C676 C 0.13059 0.86954 0.61177 0.0
C677 C 0.12155 0.90131 0.59768 0.0
C678 C 0.06776 0.88662 0.59467 0.0
C679 C 0.0772 0.85486 0.60758 0.0
N680 N 0.12076 0.81455 0.62027 0.0
N681 N 0.07639 0.94201 0.58871 0.0
C682 C 0.10933 0.8462 0.61439 0.0
C683 C 0.08879 0.91008 0.59229 0.0
N684 N 0.15907 0.86155 0.62433 0.0
N685 N 1.03875 0.89424 0.58324 0.0
H686 H 0.08937 0.96028 0.59066 0.0
H687 H 1.05176 0.9514 0.58953 0.0
H688 H 1.02199 0.87884 0.58708 0.0
H689 H 1.0324 0.91459 0.56663 0.0
H690 H 0.16477 0.84119 0.64131 0.0
H691 H 0.1759 0.87647 0.62224 0.0
H692 H 0.14557 0.80454 0.61817 0.0
H693 H 0.10622 0.79713 0.62299 0.0
C694 C 1.04981 0.34997 0.72307 0.0
C695 C 1.02729 0.3726 0.76677 0.0
C696 C 0.05796 0.3391 0.81549 0.0
C697 C 0.07723 0.31419 0.77295 0.0
N698 N 0.0817 0.29404 0.68878 0.0
N699 N 1.00641 0.38235 0.85766 0.0
C700 C 0.07038 0.31927 0.72753 0.0
C701 C 1.03056 0.36534 0.81375 0.0
N702 N 1.05317 0.3581 0.67633 0.0
N703 N 0.06646 0.33869 0.8577 0.0
H704 H 0.98513 0.3999 0.8587 0.0
H705 H 1.00529 0.37626 0.89293 0.0
H706 H 0.08674 0.32126 0.86003 0.0
H707 H 0.05596 0.3577 0.88797 0.0
H708 H 0.07093 0.34376 0.64337 0.0
H709 H 1.04141 0.38085 0.67052 0.0
H710 H 0.07438 0.29481 0.65728 0.0
H711 H 0.09507 0.27116 0.69086 0.0
C712 C 0.51256 0.75478 0.95581 0.0
C713 C 0.53755 0.75398 0.90739 0.0
C714 C 0.51502 0.70951 0.87515 0.0
C715 C 0.4924 0.70818 0.92451 0.0
N716 N 0.47434 0.72763 0.01363 0.0
N717 N 0.56605 0.72507 0.82286 0.0
C718 C 0.49287 0.73008 0.96523 0.0
C719 C 0.53949 0.7299 0.86759 0.0
N720 N 0.50587 0.78052 0.99263 0.0
N721 N 0.51341 0.69104 0.83491 0.0
H722 H 0.58489 0.73829 0.81634 0.0
H723 H 0.57139 0.70586 0.79407 0.0
H724 H 0.49769 0.67461 0.83881 0.0
H725 H 0.52586 0.69362 0.79767 0.0
H726 H 0.4857 0.78474 0.02689 0.0
H727 H 0.51814 0.79973 0.98708 0.0
H728 H 0.47708 0.73948 0.04497 0.0
H729 H 0.45777 0.71215 0.02286 0.0
C730 C 0.55499 0.26869 0.69466 0.0
C731 C 0.53495 0.29327 0.73732 0.0
C732 C 0.56172 0.25757 0.78788 0.0
C733 C 0.585 0.23532 0.74424 0.0
N734 N 0.60745 0.22643 0.65328 0.0
N735 N 0.52939 0.31318 0.82227 0.0
C736 C 0.58251 0.24282 0.69692 0.0
C737 C 0.54117 0.28811 0.78319 0.0
N738 N 0.54712 0.26895 0.65193 0.0
N739 N 0.55768 0.24941 0.83478 0.0
H740 H 0.51733 0.33643 0.81943 0.0
H741 H 0.53586 0.31213 0.85449 0.0
H742 H 0.57013 0.22718 0.84112 0.0
H743 H 0.53855 0.26298 0.86725 0.0
H744 H 0.55834 0.25008 0.62148 0.0
H745 H 0.5267 0.28597 0.6492 0.0
H746 H 0.60897 0.23276 0.61799 0.0
H747 H 0.62891 0.20931 0.65267 0.0
C748 C 1.01429 0.20708 0.37518 0.0
C749 C 0.99156 0.2066 0.42492 0.0
C750 C 1.01288 0.25294 0.45447 0.0
C751 C 1.03712 0.25207 0.40555 0.0
N752 N 0.06441 0.22326 0.32088 0.0
N753 N 0.97182 0.23073 0.51324 0.0
C754 C 1.0385 0.22786 0.36631 0.0
C755 C 0.99203 0.2295 0.46454 0.0
N756 N 1.01285 0.18756 0.33582 0.0
N757 N 1.00867 0.27702 0.49245 0.0
H758 H 0.95514 0.21561 0.52548 0.0
H759 H 0.95514 0.21561 0.52548 0.0
H760 H 1.0211 0.29612 0.48708 0.0
H761 H 0.99141 0.27875 0.52894 0.0
H762 H 1.02511 0.18944 0.29821 0.0
H763 H 0.99759 0.17068 0.34075 0.0
H764 H 0.06962 0.20401 0.29225 0.0
H765 H 0.08285 0.23696 0.31335 0.0
C766 C 0.08456 0.74108 0.19652 0.0
C767 C 0.08758 0.73362 0.24354 0.0
C768 C 1.04458 0.78689 0.28308 0.0
C769 C 1.03811 0.7923 0.23745 0.0
N770 N 1.04913 0.7683 0.15235 0.0
N771 N 0.06191 0.74806 0.33409 0.0
C772 C 0.05743 0.76757 0.19471 0.0
C773 C 0.06514 0.75617 0.28736 0.0
N774 N 0.10868 0.72395 0.15268 0.0
N775 N 1.03293 0.81186 0.3223 0.0
H776 H 0.07471 0.72584 0.33999 0.0
H777 H 1.04328 0.7617 0.36697 0.0
H778 H 1.02035 0.83503 0.31995 0.0
H779 H 1.0397 0.81079 0.35426 0.0
H780 H 0.11004 0.73016 0.11738 0.0
H781 H 0.12969 0.70608 0.15175 0.0
H782 H 0.05964 0.7494 0.12192 0.0
H783 H 1.02901 0.78588 0.14994 0.0
C784 C 0.21365 0.18211 0.88051 0.0
C785 C 0.20287 0.21197 0.86325 0.0
C786 C 0.23385 0.2381 0.91018 0.0
C787 C 0.2478 0.20732 0.92232 0.0
N788 N 0.25378 0.14893 0.912 0.0
N789 N 0.20662 0.26798 0.85802 0.0
C790 C 0.23819 0.17913 0.90576 0.0
C791 C 0.21382 0.23992 0.87757 0.0
N792 N 0.19954 0.15645 0.87398 0.0
N793 N 0.23905 0.26597 0.93092 0.0
H794 H 0.19189 0.27053 0.83513 0.0
H795 H 0.21717 0.28789 0.86152 0.0
H796 H 0.25348 0.26561 0.95425 0.0
H797 H 0.2268 0.28946 0.9286 0.0
H798 H 0.20309 0.13525 0.89017 0.0
H799 H 0.18138 0.15769 0.85662 0.0
H800 H 0.25126 0.12706 0.89573 0.0
H801 H 0.27175 0.14553 0.92973 0.0
C802 C 0.70454 0.56148 0.13722 0.0
C803 C 0.6763 0.54789 0.13843 0.0
C804 C 0.63969 0.591 0.21225 0.0
C805 C 0.66715 0.60668 0.20775 0.0
N806 N 0.72779 0.60116 0.17432 0.0
N807 N 0.61633 0.55095 0.17636 0.0
C808 C 0.70015 0.59011 0.17249 0.0
C809 C 0.64386 0.5629 0.17622 0.0
N810 N 0.73537 0.54803 0.10014 0.0
N811 N 0.60968 0.60221 0.25185 0.0
H812 H 0.61863 0.52935 0.15372 0.0
H813 H 0.59112 0.56306 0.19676 0.0
H814 H 0.60577 0.62146 0.27963 0.0
H815 H 0.5897 0.59045 0.26051 0.0
H816 H 0.7563 0.55849 0.09197 0.0
H817 H 0.73964 0.52668 0.07561 0.0
H818 H 0.75298 0.58937 0.15342 0.0
H819 H 0.72568 0.62083 0.20061 0.0
C820 C 0.34242 0.9443 0.34401 0.0
C821 C 0.36406 0.9651 0.34954 0.0
C822 C 0.3218 0.98658 0.43653 0.0
C823 C 0.29857 0.96837 0.42872 0.0
N824 N 0.28631 0.93192 0.3715 0.0
N825 N 0.37193 1.00872 0.40053 0.0
C826 C 0.30881 0.94798 0.3813 0.0
C827 C 0.35311 0.98677 0.39593 0.0
N828 N 0.35476 0.91953 0.3041 0.0
N829 N 0.31402 1.00378 0.48311 0.0
H830 H 0.39474 1.00925 0.37235 0.0
H831 H 0.36393 1.02775 0.43044 0.0
H832 H 0.291 1.00556 0.51245 0.0
H833 H 0.33108 1.01454 0.49368 0.0
H834 H 0.34217 0.90131 0.30003 0.0
H835 H 0.37943 0.91495 0.27769 0.0
H836 H 0.29012 0.92005 0.33596 0.0
H837 H 0.2625 0.93242 0.39803 0.0
C838 C 0.91179 0.61916 0.69616 0.0
C839 C 0.93362 0.62328 0.64785 0.0
C840 C 0.96017 0.56291 0.63381 0.0
C841 C 0.93733 0.55842 0.68145 0.0
N842 N 0.88627 0.5828 0.75245 0.0
N843 N 0.97396 0.59685 0.56701 0.0
C844 C 0.91173 0.58682 0.71087 0.0
C845 C 0.95616 0.59435 0.61565 0.0
N846 N 0.89141 0.6465 0.72903 0.0
N847 N 0.98747 0.53781 0.607 0.0
H848 H 0.9715 0.61904 0.55298 0.0
H849 H 0.98826 0.57672 0.53956 0.0
H850 H 0.99219 0.51516 0.61894 0.0
H851 H 1.00725 0.54031 0.57532 0.0
H852 H 0.87816 0.64619 0.76692 0.0
H853 H 0.88926 0.66994 0.71886 0.0
H854 H 0.86488 0.60136 0.77294 0.0
H855 H 0.88479 0.55993 0.76351 0.0
C856 C 0.88397 0.86895 0.09488 0.0
C857 C 0.8628 0.89975 0.09381 0.0
C858 C 0.88983 0.92573 0.14721 0.0
C859 C 0.90732 0.89474 0.15422 0.0
N860 N 0.91651 0.83604 0.13801 0.0
N861 N 0.84185 0.95692 0.12917 0.0
C862 C 0.90327 0.86614 0.12864 0.0
C863 C 0.86491 0.92792 0.12271 0.0
N864 N 0.8868 0.84228 0.06212 0.0
N865 N 0.89793 0.95356 0.16244 0.0
H866 H 0.82254 0.95952 0.11396 0.0
H867 H 0.83956 0.97738 0.15407 0.0
H868 H 0.91685 0.95319 0.17816 0.0
H869 H 0.88887 0.97649 0.15401 0.0
H870 H 0.90432 0.82008 0.05688 0.0
H871 H 0.874 0.84332 0.03658 0.0
H872 H 0.91111 0.81457 0.12564 0.0
H873 H 0.93071 0.83277 0.16156 0.0
C874 C 0.42363 0.55564 0.84316 0.0
C875 C 0.43404 0.55605 0.8861 0.0
C876 C 0.4534 0.4953 0.86608 0.0
C877 C 0.44428 0.49448 0.82177 0.0
N878 N 0.42569 0.52587 0.76449 0.0
N879 N 0.47068 0.52622 0.92462 0.0
C880 C 0.43123 0.52536 0.80905 0.0
C881 C 0.45232 0.52584 0.89338 0.0
N882 N 0.40521 0.58403 0.83592 0.0
N883 N 0.46269 0.46694 0.88361 0.0
H884 H 0.47258 0.54787 0.94255 0.0
H885 H 0.48763 0.50551 0.92733 0.0
H886 H 0.46543 0.44385 0.86538 0.0
H887 H 0.46512 0.46649 0.91886 0.0
H888 H 0.3933 0.5853 0.80933 0.0
H889 H 0.40017 0.6062 0.85891 0.0
H890 H 0.41965 0.54731 0.74998 0.0
H891 H 0.42953 0.50455 0.74017 0.0
C892 C 0.77549 0.11772 0.65502 0.0
C893 C 0.74718 0.14554 0.66888 0.0
C894 C 0.78092 0.1686 0.59501 0.0
C895 C 0.81082 0.14276 0.58505 0.0
N896 N 0.83566 0.09264 0.60852 0.0
N897 N 0.72619 0.2002 0.65501 0.0
C898 C 0.8077 0.11748 0.6162 0.0
C899 C 0.75071 0.17151 0.63924 0.0
N900 N 0.7711 0.09045 0.67733 0.0
N901 N 0.78094 0.19072 0.56223 0.0
H902 H 0.70439 0.2039 0.68707 0.0
H903 H 0.72896 0.22151 0.6393 0.0
H904 H 0.80201 0.19052 0.5307 0.0
H905 H 0.75902 0.20746 0.56363 0.0
H906 H 0.78887 0.06801 0.66569 0.0
H907 H 0.74814 0.08918 0.70449 0.0
H908 H 0.83709 0.07629 0.63391 0.0
H909 H 0.85814 0.08905 0.57753 0.0
C910 C 0.20748 0.49611 0.34419 0.0
C911 C 0.17866 0.48173 0.35406 0.0
C912 C 0.14949 0.53048 0.32598 0.0
C913 C 0.17694 0.54623 0.31957 0.0
N914 N 0.23079 0.54485 0.32981 0.0
N915 N 0.11793 0.49364 0.37111 0.0
C916 C 0.20542 0.5293 0.33129 0.0
C917 C 0.14857 0.50142 0.34964 0.0
N918 N 0.23737 0.47773 0.34499 0.0
N919 N 0.12391 0.54284 0.30884 0.0
H920 H 0.1151 0.47476 0.39268 0.0
H921 H 0.09474 0.50867 0.37354 0.0
H922 H 0.12244 0.56429 0.2928 0.0
H923 H 0.10557 0.53023 0.30694 0.0
H924 H 0.26036 0.48489 0.33302 0.0
H925 H 0.23958 0.4542 0.35468 0.0
H926 H 0.25062 0.53585 0.34243 0.0
H927 H 0.23052 0.56807 0.31912 0.0
C928 C 0.71709 0.68244 0.37836 0.0
C929 C 0.70588 0.71219 0.36114 0.0
C930 C 0.73528 0.73921 0.4099 0.0
C931 C 0.74978 0.7086 0.42193 0.0
N932 N 0.7576 0.64997 0.40991 0.0
N933 N 0.70837 0.76858 0.35694 0.0
C934 C 0.74128 0.68001 0.40423 0.0
C935 C 0.71587 0.74055 0.37639 0.0
N936 N 0.70366 0.65637 0.37134 0.0
N937 N 0.73924 0.76741 0.43168 0.0
H938 H 0.69416 0.77076 0.33331 0.0
H939 H 0.71827 0.78884 0.3612 0.0
H940 H 0.75301 0.76745 0.45588 0.0
H941 H 0.7265 0.79071 0.42938 0.0
H942 H 0.70755 0.63519 0.38748 0.0
H943 H 0.68565 0.65724 0.35378 0.0
H944 H 0.75582 0.62798 0.3929 0.0
H945 H 0.77552 0.64691 0.42775 0.0
C946 C 0.16454 0.08044 0.71948 0.0
C947 C 0.16224 0.11027 0.69836 0.0
C948 C 0.17335 0.07637 0.61573 0.0
C949 C 0.17235 1.04724 0.6378 0.0
N950 N 0.16127 1.02303 0.71389 0.0
N951 N 0.1545 0.13525 0.62744 0.0
C952 C 0.16623 1.0498 0.69067 0.0
C953 C 0.16414 0.10774 0.6467 0.0
N954 N 0.16652 0.08088 0.76644 0.0
N955 N 0.18317 0.07438 0.56455 0.0
H956 H 0.14483 0.15836 0.64861 0.0
H957 H 0.15167 0.13469 0.59241 0.0
H958 H 0.18908 1.05241 0.54055 0.0
H959 H 0.18851 0.09407 0.54566 0.0
H960 H 0.17173 0.05976 0.78213 0.0
H961 H 0.16598 0.1022 0.78804 0.0
H962 H 0.15308 1.02381 0.75283 0.0
H963 H 0.16273 1.00056 0.69425 0.0
C964 C 0.827 0.43976 0.9165 0.0
C965 C 0.79907 0.46815 0.93214 0.0
C966 C 0.83519 0.49438 0.86502 0.0
C967 C 0.86369 0.46649 0.85061 0.0
N968 N 0.88719 0.41438 0.87064 0.0
N969 N 0.78063 0.5251 0.92703 0.0
C970 C 0.85975 0.43994 0.87912 0.0
C971 C 0.80438 0.49606 0.90768 0.0
N972 N 0.82175 0.41145 0.93493 0.0
N973 N 0.83742 0.51979 0.8378 0.0
H974 H 0.75865 0.52761 0.95856 0.0
H975 H 0.78416 0.54739 0.91529 0.0
H976 H 0.86001 0.52145 0.81031 0.0
H977 H 0.81655 0.53848 0.84078 0.0
H978 H 0.83891 0.38877 0.92073 0.0
H979 H 0.79879 0.40989 0.96153 0.0
H980 H 0.8876 0.39675 0.89441 0.0
H981 H 0.9106 0.41184 0.84207 0.0
C982 C 0.41063 0.08669 0.21401 0.0
C983 C 0.43687 0.05853 0.1851 0.0
C984 C 0.45517 0.0947 0.1192 0.0
C985 C 0.43193 0.12351 0.15093 0.0
N986 N 0.38933 0.1463 0.23199 0.0
N987 N 0.48799 1.03891 0.11171 0.0
C988 C 0.4102 0.11913 0.19922 0.0
C989 C 0.45987 0.0634 0.13779 0.0
N990 N 0.38495 0.08234 0.25506 0.0
N991 N 0.47305 0.09715 0.07058 0.0
H992 H 0.49344 1.01647 0.12396 0.0
H993 H 0.50778 1.04193 0.08045 0.0
H994 H 0.47019 0.1192 0.05623 0.0
H995 H 0.48783 0.07701 0.04344 0.0
H996 H 0.36325 0.1007 0.27506 0.0
H997 H 0.38358 0.0594 0.26603 0.0
H998 H 0.37606 0.14587 0.26983 0.0
H999 H 0.38687 0.16976 0.22183 0.0
C1000 C 0.35938 0.42841 0.62579 0.0
C1001 C 0.35825 0.40035 0.59559 0.0
C1002 C 0.3989 0.36677 0.62991 0.0
C1003 C 0.40198 0.39532 0.65688 0.0
N1004 N 0.39113 0.45428 0.66766 0.0
N1005 N 0.3837 0.34335 0.56176 0.0
C1006 C 0.38393 0.42633 0.65089 0.0
C1007 C 0.37998 0.3697 0.59573 0.0
N1008 N 0.33581 0.45713 0.63279 0.0
N1009 N 0.41266 0.33656 0.63837 0.0
H1010 H 0.37115 0.34451 0.53589 0.0
H1011 H 0.40168 0.32138 0.55592 0.0
H1012 H 0.42651 0.33318 0.66236 0.0
H1013 H 0.40795 0.31502 0.62481 0.0
H1014 H 0.33283 0.47739 0.65854 0.0
H1015 H 0.31678 0.45962 0.61701 0.0
H1016 H 0.38162 0.47733 0.66005 0.0
H1017 H 0.40976 0.45403 0.68393 0.0
C1018 C 0.95267 1.02655 0.39526 0.0
C1019 C 0.93453 0.05648 0.38698 0.0
C1020 C 0.93467 1.02533 0.30804 0.0
C1021 C 0.94744 0.99464 0.32154 0.0
N1022 N 0.96477 0.9676 0.38471 0.0
N1023 N 0.90881 0.0841 0.33314 0.0
C1024 C 0.95522 0.99582 0.36703 0.0
C1025 C 0.92609 0.05577 0.34225 0.0
N1026 N 0.96973 1.02745 0.42822 0.0
N1027 N 0.9304 1.0255 0.26255 0.0
H1028 H 0.90406 0.10647 0.35538 0.0
H1029 H 0.89797 0.08532 0.30531 0.0
H1030 H 0.93488 1.00406 0.23812 0.0
H1031 H 0.92468 1.04675 0.24747 0.0
H1032 H 0.98665 1.00705 0.43185 0.0
H1033 H 0.97072 1.04929 0.44679 0.0
H1034 H 0.96585 0.96725 0.42075 0.0
H1035 H 0.96939 0.9444 0.36541 0.0
C1036 C 0.2793 0.61393 0.14993 0.0
C1037 C 0.2505 0.64125 0.16355 0.0
C1038 C 0.28394 0.66524 0.09074 0.0
C1039 C 0.31419 0.63995 0.08112 0.0
N1040 N 0.33994 0.59031 0.10471 0.0
N1041 N 0.22877 0.69595 0.15041 0.0
C1042 C 0.31153 0.61449 0.11192 0.0
C1043 C 0.25366 0.66752 0.13449 0.0
N1044 N 0.27544 0.5864 0.1718 0.0
N1045 N 0.28374 0.68745 0.05814 0.0
H1046 H 0.20697 0.69936 0.18237 0.0
H1047 H 0.23126 0.71741 0.13499 0.0
H1048 H 0.3049 0.6877 0.02699 0.0
H1049 H 0.26164 0.70381 0.0593 0.0
H1050 H 0.29372 0.56427 0.1602 0.0
H1051 H 0.25253 0.58457 0.19846 0.0
H1052 H 0.34149 0.57389 0.12997 0.0
H1053 H 0.36267 0.58745 0.07441 0.0
C1054 C 0.66884 1.0217 0.79653 0.0
C1055 C 0.67618 1.04819 0.82214 0.0
C1056 C 0.68839 1.00814 0.87971 0.0
C1057 C 0.68513 0.9812 0.84928 0.0
N1058 N 0.68507 0.96351 0.76665 0.0
N1059 N 0.69958 0.06287 0.88495 0.0
C1060 C 0.6795 0.98847 0.80402 0.0
C1061 C 0.68782 1.0403 0.86296 0.0
N1062 N 0.64913 1.02797 0.7675 0.0
N1063 N 0.69104 1.0036 0.92531 0.0
H1064 H 0.70081 0.08558 0.87314 0.0
H1065 H 0.71124 0.05777 0.91133 0.0
H1066 H 0.69224 0.98091 0.9379 0.0
H1067 H 0.68965 1.02277 0.95179 0.0
H1068 H 0.64129 1.00959 0.75093 0.0
H1069 H 0.63619 1.05154 0.76669 0.0
H1070 H 0.68364 0.96766 0.73162 0.0
H1071 H 0.69561 0.93919 0.76818 0.0
C1072 C 0.53214 0.14703 0.95318 0.0
C1073 C 0.5007 0.16716 0.95514 0.0
C1074 C 0.52729 0.17183 0.86533 0.0
C1075 C 0.55831 0.14972 0.8623 0.0
N1076 N 0.58365 0.10747 0.90089 0.0
N1077 N 0.46637 0.19259 0.90965 0.0
C1078 C 0.55895 0.13488 0.90561 0.0
C1079 C 0.49763 0.17733 0.91002 0.0
N1080 N 0.53658 0.13926 0.9967 0.0
N1081 N 0.52619 0.1893 0.82701 0.0
H1082 H 0.44432 0.19809 0.94159 0.0
H1083 H 0.4617 0.19702 0.87673 0.0
H1084 H 0.54678 0.18754 0.79411 0.0
H1085 H 0.50572 0.2085 0.83004 0.0
H1086 H 0.56017 0.12767 0.99796 0.0
H1087 H 0.51734 0.14661 0.03199 0.0
H1088 H 0.58387 0.09428 0.93043 0.0
H1089 H 0.60078 0.09512 0.86605 0.0
C1090 C 0.6683 0.78836 0.04451 0.0
C1091 C 0.6894 0.76139 1.0074 0.0
C1092 C 0.68947 0.79555 0.9426 0.0
C1093 C 0.68016 0.82346 0.9798 0.0
N1094 N 0.65388 0.84718 0.06776 0.0
N1095 N 0.71598 0.73742 0.9206 0.0
C1096 C 0.66644 0.82019 0.03139 0.0
C1097 C 0.69794 0.76419 0.95606 0.0
N1098 N 0.65238 0.78349 0.09265 0.0
N1099 N 0.68977 0.79887 0.89532 0.0
H1100 H 0.72132 0.71406 0.93048 0.0
H1101 H 0.72649 0.7388 0.88232 0.0
H1102 H 0.68131 0.8215 0.88584 0.0
H1103 H 0.69336 0.77889 0.86866 0.0
H1104 H 0.63544 0.80206 0.12089 0.0
H1105 H 0.65374 0.76024 0.10307 0.0
H1106 H 0.64785 0.84613 0.10609 0.0
H1107 H 0.6505 0.87103 0.05954 0.0
C1108 C 1.03418 0.90441 0.35791 0.0
C1109 C 1.03554 0.91204 0.30967 0.0
C1110 C 0.06759 0.9533 0.31805 0.0
C1111 C 0.07181 0.9409 0.36111 0.0
N1112 N 0.06178 0.90225 0.41993 0.0
N1113 N 1.0525 0.94545 0.24416 0.0
C1114 C 0.05578 0.9158 0.3806 0.0
C1115 C 1.05201 0.93695 0.28979 0.0
N1116 N 1.01085 0.88805 0.38339 0.0
N1117 N 0.07695 0.9817 0.30558 0.0
H1118 H 1.0382 0.93728 0.22464 0.0
H1119 H 0.06822 0.95974 0.22464 0.0
H1120 H 0.08789 0.99474 0.32588 0.0
H1121 H 0.0709 0.99415 0.27825 0.0
H1122 H 1.00681 0.88416 0.42047 0.0
H1123 H 0.99258 0.88221 0.36963 0.0
H1124 H 1.05335 0.8817 0.43231 0.0
H1125 H 0.07763 0.90978 0.43733 0.0
C1126 C 0.89239 0.26147 0.52225 0.0
C1127 C 0.88107 0.2377 0.55261 0.0
C1128 C 0.88117 0.27151 0.62697 0.0
C1129 C 0.89503 0.29377 0.59559 0.0
N1130 N 0.91498 0.30881 0.51165 0.0
N1131 N 0.86652 0.21857 0.63296 0.0
C1132 C 0.90063 0.28864 0.5433 0.0
C1133 C 0.87574 0.24243 0.60488 0.0
N1134 N 0.89704 0.25761 0.47207 0.0
N1135 N 0.8725 0.27866 0.67795 0.0
H1136 H 0.86055 0.19802 0.61854 0.0
H1137 H 0.86617 0.21827 0.66967 0.0
H1138 H 0.87651 0.29952 0.695 0.0
H1139 H 0.85929 0.26534 0.70371 0.0
H1140 H 0.90582 0.27435 0.44862 0.0
H1141 H 0.8917 0.23821 0.45382 0.0
H1142 H 0.92315 0.32893 0.52264 0.0
H1143 H 0.92315 0.32893 0.52264 0.0
C1144 C 0.58576 0.92075 0.06268 0.0
C1145 C 0.61255 0.93774 0.0521 0.0
C1146 C 0.57982 0.97374 0.13361 0.0
C1147 C 0.55195 0.95851 0.14021 0.0
N1148 N 0.52507 0.92714 0.09764 0.0
N1149 N 0.62992 0.98632 0.07402 0.0
C1150 C 0.55377 0.93527 0.10046 0.0
C1151 C 0.60832 0.96587 0.08677 0.0
N1152 N 0.59096 0.88972 0.03912 0.0
N1153 N 0.57866 0.99661 0.17106 0.0
H1154 H 0.64943 0.98283 0.03915 0.0
H1155 H 0.62619 1.00868 0.09574 0.0
H1156 H 0.55683 1.00603 0.20278 0.0
H1157 H 0.59977 1.00541 0.17119 0.0
H1158 H 0.57267 0.87588 0.04913 0.0
H1159 H 0.61473 0.87606 0.01526 0.0
H1160 H 0.52533 0.91155 0.0672 0.0
H1161 H 0.50078 0.93975 0.12117 0.0
C1162 C 0.43222 0.3422 0.05443 0.0
C1163 C 0.40127 0.3602 0.05278 0.0
C1164 C 0.37586 0.31435 0.0713 0.0
C1165 C 0.40936 0.29351 0.05363 0.0
N1166 N 0.46999 0.28808 0.03397 0.0
N1167 N 0.34288 0.37008 0.10645 0.0
C1168 C 0.43784 0.3075 0.04852 0.0
C1169 C 0.37254 0.34856 0.0776 0.0
N1170 N 0.45677 0.35817 0.05542 0.0
N1171 N 0.34766 0.30195 0.07999 0.0
H1172 H 0.34154 0.39521 0.11144 0.0
H1173 H 0.32144 0.36266 0.12825 0.0
H1174 H 0.34886 0.27693 0.07583 0.0
H1175 H 0.32333 0.3168 0.08813 0.0
H1176 H 0.47978 0.34672 0.0587 0.0
H1177 H 0.45225 0.38359 0.0565 0.0
H1178 H 0.49176 0.29734 0.02517 0.0
H1179 H 0.47489 0.26265 0.02696 0.0
C1180 C 0.08675 0.20082 0.64882 0.0
C1181 C 0.07867 0.19748 0.70056 0.0
C1182 C 1.03435 0.16928 0.69731 0.0
C1183 C 1.0428 0.17179 0.64549 0.0
N1184 N 0.07909 0.18624 0.56954 0.0
N1185 N 1.05414 0.16757 0.76729 0.0
C1186 C 0.06956 0.18666 0.62049 0.0
C1187 C 1.05502 0.1787 0.72303 0.0
N1188 N 0.11138 0.21682 0.6267 0.0
N1189 N 1.00624 0.15821 0.7223 0.0
H1190 H 0.07116 0.17114 0.78504 0.0
H1191 H 1.03978 0.15111 0.78281 0.0
H1192 H 0.99056 0.1505 0.70474 0.0
H1193 H 0.99675 0.15948 0.76135 0.0
H1194 H 0.11566 0.2241 0.59139 0.0
H1195 H 0.12744 0.22333 0.6445 0.0
H1196 H 0.10035 0.19383 0.5478 0.0
H1197 H 0.06652 0.17662 0.54816 0.0
C1198 C 0.23901 0.84053 0.46098 0.0
C1199 C 0.21739 0.87149 0.46439 0.0
C1200 C 0.18873 0.8457 0.41558 0.0
C1201 C 0.20572 0.81452 0.42133 0.0
N1202 N 0.24709 0.7815 0.44945 0.0
N1203 N 0.17442 0.90454 0.43948 0.0
C1204 C 0.23128 0.81168 0.44335 0.0
C1205 C 0.19351 0.87445 0.43917 0.0
N1206 N 0.26747 0.83898 0.47349 0.0
N1207 N 0.16833 0.84768 0.38707 0.0
H1208 H 0.18056 0.92606 0.44958 0.0
H1209 H 0.1523 0.90809 0.43071 0.0
H1210 H 0.16417 0.82701 0.36977 0.0
H1211 H 0.15759 0.86948 0.37732 0.0
H1212 H 0.28596 0.81744 0.46797 0.0
H1213 H 0.27446 0.86001 0.48411 0.0
H1214 H 0.26288 0.77812 0.4707 0.0
H1215 H 0.24278 0.75972 0.43583 0.0
C1216 C 1.0339 0.64773 0.45547 0.0
C1217 C 1.00226 0.66668 0.45618 0.0
C1218 C 1.02944 0.67076 0.36637 0.0
C1219 C 0.06064 0.6493 0.36419 0.0
N1220 N 0.08704 0.60976 0.40592 0.0
N1221 N 0.96829 0.69072 0.40926 0.0
C1222 C 0.06138 0.63574 0.40858 0.0
C1223 C 0.99949 0.67608 0.41055 0.0
N1224 N 1.03792 0.64095 0.49968 0.0
N1225 N 1.02848 0.68811 0.32787 0.0
H1226 H 0.94605 0.69654 0.44091 0.0
H1227 H 0.96395 0.69442 0.3759 0.0
H1228 H 1.04939 0.687 0.29571 0.0
H1229 H 1.00777 0.70685 0.3303 0.0
H1230 H 0.06158 0.6309 0.50211 0.0
H1231 H 1.01808 0.64743 0.53448 0.0
H1232 H 0.08705 0.59701 0.43597 0.0
H1233 H 0.10583 0.59797 0.3723 0.0
C1234 C 0.16528 0.2913 0.54326 0.0
C1235 C 0.18808 0.26362 0.50868 0.0
C1236 C 0.19047 0.29414 0.43924 0.0
C1237 C 0.17788 0.32313 0.47474 0.0
N1238 N 0.13974 0.34981 0.55644 0.0
N1239 N 0.21732 0.23607 0.42394 0.0
C1240 C 0.16024 0.32176 0.52564 0.0
C1241 C 0.19827 0.26396 0.4564 0.0
N1242 N 0.15164 0.28881 0.59318 0.0
N1243 N 0.19406 0.29563 0.39021 0.0
H1244 H 0.22212 0.21358 0.43664 0.0
H1245 H 0.22897 0.23553 0.38534 0.0
H1246 H 0.18395 0.31723 0.37947 0.0
H1247 H 0.20196 0.2751 0.36273 0.0
H1248 H 0.13777 0.30854 0.6214 0.0
H1249 H 0.15427 0.26647 0.60662 0.0
H1250 H 0.12616 0.35143 0.59463 0.0
H1251 H 0.13491 0.37159 0.54211 0.0
C1252 C 0.55016 0.4357 0.78394 0.0
C1253 C 0.53273 0.4118 0.80563 0.0
C1254 C 0.55356 0.41576 0.87566 0.0
C1255 C 0.57051 0.43988 0.85451 0.0
N1256 N 0.57777 0.479 0.79626 0.0
N1257 N 0.50733 0.38955 0.88088 0.0
C1258 C 0.56686 0.4516 0.81073 0.0
C1259 C 0.53134 0.40479 0.8541 0.0
N1260 N 0.5504 0.44372 0.73812 0.0
N1261 N 0.55914 0.40288 0.91572 0.0
H1262 H 0.48858 0.38426 0.8678 0.0
H1263 H 0.50326 0.38619 0.91818 0.0
H1264 H 0.57525 0.41036 0.93265 0.0
H1265 H 0.55008 0.38287 0.92927 0.0
H1266 H 0.56683 0.45692 0.71712 0.0
H1267 H 0.53491 0.43644 0.72001 0.0
H1268 H 0.57225 0.49109 0.76828 0.0
H1269 H 0.58979 0.49161 0.81526 0.0
C1270 C 0.39393 0.76157 0.0208 0.0
C1271 C 0.38343 0.73737 0.05092 0.0
C1272 C 0.38199 0.77184 0.12561 0.0
C1273 C 0.39617 0.794 0.09439 0.0
N1274 N 0.42107 0.80718 0.01102 0.0
N1275 N 0.36998 0.7179 0.13109 0.0
C1276 C 0.40335 0.78826 0.0417 0.0
C1277 C 0.37804 0.74214 0.10318 0.0
N1278 N 0.395 0.7592 0.97207 0.0
N1279 N 0.37167 0.77956 0.17676 0.0
H1280 H 0.36516 0.69669 0.11649 0.0
H1281 H 0.36981 0.71794 0.16777 0.0
H1282 H 0.37437 0.801 0.1942 0.0
H1283 H 0.35805 0.76618 0.20198 0.0
H1284 H 0.39853 0.778 0.95045 0.0
H1285 H 0.38947 0.73976 0.95416 0.0
H1286 H 0.43118 0.80145 0.97191 0.0
H1287 H 0.42865 0.82695 0.02447 0.0
C1288 C 0.11502 0.44423 0.59473 0.0
C1289 C 0.11169 0.44156 0.54646 0.0
C1290 C 1.0493 0.45111 0.58955 0.0
C1291 C 1.05231 0.45714 0.63775 0.0
N1292 N 0.08916 0.47243 0.68015 0.0
N1293 N 0.07329 0.45468 0.50086 0.0
C1294 C 0.08546 0.45763 0.63863 0.0
C1295 C 0.07808 0.44889 0.54487 0.0
N1296 N 0.14568 0.43265 0.59999 0.0
N1297 N 1.01978 0.44587 0.5853 0.0
H1298 H 0.09337 0.45533 0.46823 0.0
H1299 H 1.04918 0.46292 0.49873 0.0
H1300 H 0.9983 0.44567 0.61581 0.0
H1301 H 1.01797 0.43817 0.55081 0.0
H1302 H 0.14807 0.4315 0.63519 0.0
H1303 H 0.16776 0.42082 0.57021 0.0
H1304 H 0.11278 0.47506 0.6808 0.0
H1305 H 0.06863 0.48648 0.71048 0.0
C1306 C 0.9443 0.83785 0.52498 0.0
C1307 C 0.9115 0.85881 0.54084 0.0
C1308 C 0.88601 0.8167 0.5792 0.0
C1309 C 0.91696 0.79328 0.55069 0.0
N1310 N 0.97708 0.78149 0.50059 0.0
N1311 N 0.85845 0.87458 0.60884 0.0
C1312 C 0.94699 0.8038 0.52576 0.0
C1313 C 0.88555 0.85041 0.57917 0.0
N1314 N 0.97218 0.8507 0.50873 0.0
N1315 N 0.85646 0.80705 0.60089 0.0
H1316 H 0.85792 0.89914 0.60474 0.0
H1317 H 0.83865 0.87041 0.63908 0.0
H1318 H 0.85498 0.78267 0.59767 0.0
H1319 H 0.83284 0.82343 0.61849 0.0
H1320 H 0.99715 0.83699 0.49899 0.0
H1321 H 0.9696 0.87596 0.51042 0.0
H1322 H 0.9989 0.78779 0.47776 0.0
H1323 H 0.97962 0.75635 0.50034 0.0
C1324 C 0.54015 0.66105 0.19594 0.0
C1325 C 0.54534 0.66851 0.14651 0.0
C1326 C 0.5876 0.69891 0.15253 0.0
C1327 C 0.57978 0.69456 0.20377 0.0
N1328 N 0.55063 0.66936 0.27388 0.0
N1329 N 0.5711 0.69675 0.07863 0.0
C1330 C 0.55659 0.67502 0.22535 0.0
C1331 C 0.56824 0.68812 0.12504 0.0
N1332 N 0.5202 0.63978 0.21419 0.0
N1333 N 0.61441 0.71218 0.12963 0.0
H1334 H 0.55828 0.68826 0.05669 0.0
H1335 H 0.58421 0.71408 0.06328 0.0
H1336 H 0.62991 0.71908 0.14819 0.0
H1337 H 0.62311 0.71383 0.09138 0.0
H1338 H 0.51877 0.62974 0.24697 0.0
H1339 H 0.50607 0.63053 0.19518 0.0
H1340 H 0.53024 0.6603 0.29488 0.0
H1341 H 0.56632 0.67368 0.29359 0.0
C1342 C 0.68768 0.37883 0.95011 0.0
C1343 C 0.71784 0.37459 0.96191 0.0
C1344 C 0.73036 0.31518 0.93414 0.0
C1345 C 0.69785 0.31916 0.9293 0.0
N1346 N 0.64419 0.35421 0.93585 0.0
N1347 N 0.7738 0.34092 0.94594 0.0
C1348 C 0.67619 0.35087 0.93787 0.0
C1349 C 0.74098 0.34329 0.94816 0.0
N1350 N 0.67142 0.40936 0.94687 0.0
N1351 N 0.75032 0.28435 0.92798 0.0
H1352 H 0.78273 0.36145 0.95261 0.0
H1353 H 0.79311 0.31959 0.93208 0.0
H1354 H 0.74377 0.26322 0.91675 0.0
H1355 H 0.77227 0.27931 0.9371 0.0
H1356 H 0.64994 0.41409 0.93661 0.0
H1357 H 0.68226 0.42928 0.94805 0.0
H1358 H 0.62547 0.37603 0.94859 0.0
H1359 H 0.63544 0.33451 0.92486 0.0
C1360 C 0.30343 0.29097 0.20525 0.0
C1361 C 0.33175 0.27358 0.21697 0.0
C1362 C 0.30424 0.30618 0.30305 0.0
C1363 C 0.27963 0.32686 0.2879 0.0
N1364 N 0.26104 0.34198 0.21985 0.0
N1365 N 0.35811 0.26569 0.27973 0.0
C1366 C 0.28083 0.32003 0.23768 0.0
C1367 C 0.33197 0.28187 0.26652 0.0
N1368 N 0.29654 0.27948 0.16453 0.0
N1369 N 0.29987 0.30794 0.35307 0.0
H1370 H 0.37595 0.24475 0.25779 0.0
H1371 H 0.3626 0.27365 0.31193 0.0
H1372 H 0.27938 0.32396 0.38116 0.0
H1373 H 0.3145 0.29128 0.36738 0.0
H1374 H 0.27422 0.28947 0.1581 0.0
H1375 H 0.31049 0.25809 0.14011 0.0
H1376 H 0.26357 0.34027 0.18197 0.0
H1377 H 0.24489 0.36381 0.2417 0.0
C1378 C 0.58171 0.57422 0.52891 0.0
C1379 C 0.5658 0.58455 0.49421 0.0
C1380 C 0.53846 0.53855 0.50323 0.0
C1381 C 0.55454 0.52806 0.5377 0.0
N1382 N 0.59185 0.5355 0.58342 0.0
N1383 N 0.52941 0.5764 0.44712 0.0
C1384 C 0.57623 0.54576 0.55049 0.0
C1385 C 0.54438 0.56665 0.48105 0.0
N1386 N 0.60229 0.5911 0.54234 0.0
N1387 N 0.51697 0.52233 0.49092 0.0
H1388 H 0.53304 0.59687 0.42928 0.0
H1389 H 0.51351 0.56373 0.43663 0.0
H1390 H 0.51058 0.50151 0.50557 0.0
H1391 H 0.51058 0.50151 0.50557 0.0
H1392 H 0.60781 0.61245 0.52863 0.0
H1393 H 0.60781 0.61245 0.52863 0.0
H1394 H 0.60795 0.54803 0.59367 0.0
H1395 H 0.58887 0.51451 0.60014 0.0
C1396 C 0.26037 0.82986 0.79968 0.0
C1397 C 0.27874 0.83139 0.74863 0.0
C1398 C 0.32075 0.78132 0.74382 0.0
C1399 C 0.30439 0.78171 0.79616 0.0
N1400 N 0.26059 0.807 0.87556 0.0
N1401 N 0.32842 0.81152 0.67323 0.0
C1402 C 0.27461 0.80611 0.82461 0.0
C1403 C 0.3094 0.80781 0.72085 0.0
N1404 N 0.22908 0.85073 0.82381 0.0
N1405 N 0.34685 0.75536 0.71596 0.0
H1406 H 0.32084 0.83036 0.65461 0.0
H1407 H 0.35298 0.79744 0.65343 0.0
H1408 H 0.35659 0.73582 0.73162 0.0
H1409 H 0.35713 0.75179 0.67678 0.0
H1410 H 0.2128 0.84886 0.8594 0.0
H1411 H 0.21816 0.86859 0.80657 0.0
H1412 H 0.24117 0.82618 0.89938 0.0
H1413 H 0.26988 0.78937 0.89469 0.0
C1414 C 1.04043 0.53778 0.07295 0.0
C1415 C 0.05624 0.56401 0.05963 0.0
C1416 C 1.02928 0.57406 0.99719 0.0
C1417 C 1.01736 0.54511 1.00571 0.0
N1418 N 1.01178 0.49844 0.04929 0.0
N1419 N 0.06833 0.60607 1.00771 0.0
C1420 C 1.02267 0.5268 0.04331 0.0
C1421 C 1.05105 0.5822 0.02181 0.0
N1422 N 1.04224 0.52372 0.11413 0.0
N1423 N 1.01983 0.59363 0.96546 0.0
H1424 H 0.08408 0.61325 0.0256 0.0
H1425 H 0.06898 0.61736 0.97615 0.0
H1426 H 1.00482 0.58792 0.9452 0.0
H1427 H 1.02457 0.61683 0.96207 0.0
H1428 H 1.02869 0.5065 0.12862 0.0
H1429 H 0.05531 0.53121 0.13644 0.0
H1430 H 1.01831 0.48191 0.07192 0.0
H1431 H 0.99751 0.49046 0.02934 0.0
C1432 C 0.81098 0.83583 0.76212 0.0
C1433 C 0.77896 0.82767 0.7851 0.0
C1434 C 0.80715 0.76979 0.74518 0.0
C1435 C 0.83812 0.77825 0.71883 0.0
N1436 N 0.86813 0.82156 0.69919 0.0
N1437 N 0.74599 0.78683 0.78263 0.0
C1438 C 0.83979 0.81181 0.72699 0.0
C1439 C 0.77682 0.79476 0.772 0.0
N1440 N 0.81367 0.8672 0.77224 0.0
N1441 N 0.80683 0.73748 0.74669 0.0
H1442 H 0.72263 0.80349 0.79794 0.0
H1443 H 0.74346 0.76408 0.76943 0.0
H1444 H 0.8286 0.71853 0.72954 0.0
H1445 H 0.78617 0.72971 0.77007 0.0
H1446 H 0.83684 0.87378 0.76543 0.0
H1447 H 0.79252 0.88688 0.78829 0.0
H1448 H 0.8696 0.8459 0.69872 0.0
H1449 H 0.8897 0.80591 0.67285 0.0
C1450 C 0.80699 0.319 0.24481 0.0
C1451 C 0.7712 0.33111 0.2594 0.0
C1452 C 0.76114 0.2936 0.32176 0.0
C1453 C 0.79682 0.28012 0.30487 0.0
N1454 N 0.85378 0.27663 0.24696 0.0
N1455 N 0.71375 0.32857 0.30709 0.0
C1456 C 0.81979 0.29189 0.26544 0.0
C1457 C 0.74808 0.31803 0.29665 0.0
N1458 N 0.82875 0.33401 0.21213 0.0
N1459 N 0.73998 0.28341 0.36234 0.0
H1460 H 0.70341 0.34704 0.29021 0.0
H1461 H 0.69557 0.31777 0.32995 0.0
H1462 H 0.74874 0.26491 0.38061 0.0
H1463 H 0.71417 0.29451 0.38 0.0
H1464 H 0.8549 0.32908 0.20481 0.0
H1465 H 0.82049 0.3532 0.1946 0.0
H1466 H 0.87113 0.28126 0.21421 0.0
H1467 H 0.86456 0.25756 0.2624 0.0
C1468 C 1.03363 0.08332 0.02781 0.0
C1469 C 0.06562 0.08353 0.99145 0.0
C1470 C 0.08826 1.02642 0.99689 0.0
C1471 C 0.05699 1.02696 0.03552 0.0
N1472 N 1.00262 0.05724 0.09541 0.0
N1473 N 0.12539 0.05811 0.94829 0.0
C1474 C 1.03049 0.05589 0.05342 0.0
C1475 C 0.0936 0.05589 0.97799 0.0
N1476 N 1.00593 0.10868 0.0363 0.0
N1477 N 0.1123 0.99758 0.97712 0.0
H1478 H 0.13028 0.07942 0.93387 0.0
H1479 H 0.14739 1.03984 0.94147 0.0
H1480 H 0.10948 0.97553 0.99059 0.0
H1481 H 0.13386 0.99496 0.94501 0.0
H1482 H 0.98119 0.10817 0.05834 0.0
H1483 H 1.00708 0.12917 0.01784 0.0
H1484 H 0.98419 0.07875 0.11329 0.0
H1485 H 0.99948 1.03749 0.11521 0.0
C1486 C 0.5978 0.08905 0.45817 0.0
C1487 C 0.60734 0.06696 0.48898 0.0
C1488 C 0.58427 1.02568 0.45555 0.0
C1489 C 0.57016 1.04951 0.43095 0.0
N1490 N 0.56226 0.10382 0.40829 0.0
N1491 N 0.60773 1.01526 0.52099 0.0
C1492 C 0.57691 0.08113 0.43154 0.0
C1493 C 0.60054 1.03531 0.48826 0.0
N1494 N 0.60893 0.11737 0.45436 0.0
N1495 N 0.58189 0.99394 0.44775 0.0
H1496 H 0.6198 1.02122 0.54565 0.0
H1497 H 0.59951 0.99369 0.52648 0.0
H1498 H 0.56943 0.98621 0.42468 0.0
H1499 H 0.59476 0.97473 0.46044 0.0
H1500 H 0.60543 0.13321 0.42912 0.0
H1501 H 0.6242 0.12375 0.47378 0.0
H1502 H 0.56283 0.12844 0.41227 0.0
H1503 H 0.54789 0.09832 0.38678 0.0
loop_
_geom_bond_atom_site_label_1
_geom_bond_atom_site_label_2
_geom_bond_distance
_geom_bond_site_symmetry_2
_ccdc_geom_bond_type
Ho0 C3 2.811 . S
Ho0 O20 2.322 . S
Ho0 O22 2.378 . S
Ho0 O23 2.524 . S
Ho0 O24 2.381 . S
Ho0 O25 2.669 . S
Ho0 O27 2.346 . S
Ho0 O31 2.305 . S
Ho1 C12 2.811 . S
Ho1 O21 2.346 . S
Ho1 O25 2.305 . S
Ho1 O26 2.322 . S
Ho1 O28 2.378 . S
Ho1 O29 2.524 . S
Ho1 O30 2.381 . S
Ho1 O31 2.669 . S
C2 O20 1.259 . S
C2 O21 1.268 . S
C3 Ho0 2.811 . S
C3 C4 1.488 . S
C3 O22 1.215 . S
C3 O23 1.289 . S
C4 C3 1.488 . S
C4 C5 1.348 . S
C4 C9 1.413 . S
C5 C4 1.348 . S
C5 C6 1.442 . S
C5 H32 0.930 . S
C6 C5 1.442 . S
C6 C7 1.381 . S
C6 H33 0.931 . S
C7 C6 1.381 . S
C7 C8 1.321 . S
C8 C7 1.321 . S
C8 C9 1.403 . S
C8 H34 0.934 1_554 S
C9 C4 1.413 . S
C9 C8 1.403 . S
C9 H35 0.930 1_554 S
C10 O24 1.275 . S
C10 O25 1.256 . S
C11 O26 1.259 . S
C11 O27 1.268 . S
C12 Ho1 2.811 . S
C12 C13 1.488 . S
C12 O28 1.215 . S
C12 O29 1.289 . S
C13 C12 1.488 . S
C13 C14 1.348 . S
C13 C18 1.413 . S
C14 C13 1.348 . S
C14 C15 1.442 . S
C14 H36 0.930 . S
C15 C14 1.442 . S
C15 C16 1.381 . S
C15 H37 0.931 . S
C16 C15 1.381 . S
C16 C17 1.321 . S
C17 C16 1.321 . S
C17 C18 1.403 . S
C17 H38 0.934 . S
C18 C13 1.413 . S
C18 C17 1.403 . S
C18 H39 0.930 . S
C19 O30 1.275 . S
C19 O31 1.256 . S
O20 Ho0 2.322 . S
O20 C2 1.259 . S
O21 Ho1 2.346 . S
O21 C2 1.268 . S
O22 Ho0 2.378 . S
O22 C3 1.215 . S
O23 Ho0 2.524 . S
O23 C3 1.289 . S
O24 Ho0 2.381 . S
O24 C10 1.275 . S
O25 Ho0 2.669 . S
O25 Ho1 2.305 . S
O25 C10 1.256 . S
O26 Ho1 2.322 . S
O26 C11 1.259 . S
O27 Ho0 2.346 . S
O27 C11 1.268 . S
O28 Ho1 2.378 . S
O28 C12 1.215 . S
O29 Ho1 2.524 . S
O29 C12 1.289 . S
O30 Ho1 2.381 . S
O30 C19 1.275 . S
O31 Ho0 2.305 . S
O31 Ho1 2.669 . S
O31 C19 1.256 . S
H32 C5 0.930 . S
H33 C6 0.931 . S
H34 C8 0.934 1_556 S
H35 C9 0.930 1_556 S
H36 C14 0.930 . S
H37 C15 0.931 . S
H38 C17 0.934 . S
H39 C18 0.930 . S
Ho40 C43 2.811 . S
Ho40 O60 2.322 . S
Ho40 O62 2.378 . S
Ho40 O63 2.524 . S
Ho40 O64 2.381 . S
Ho40 O65 2.669 . S
Ho40 O67 2.346 . S
Ho40 O71 2.305 . S
Ho41 C52 2.811 . S
Ho41 O61 2.346 . S
Ho41 O65 2.305 . S
Ho41 O66 2.322 . S
Ho41 O68 2.378 . S
Ho41 O69 2.524 . S
Ho41 O70 2.381 . S
Ho41 O71 2.669 . S
C42 O60 1.259 . S
C42 O61 1.268 . S
C43 Ho40 2.811 . S
C43 C44 1.488 . S
C43 O62 1.215 . S
C43 O63 1.289 . S
C44 C43 1.488 . S
C44 C45 1.348 . S
C44 C49 1.413 . S
C45 C44 1.348 . S
C45 C46 1.442 . S
C45 H72 0.930 . S
C46 C45 1.442 . S
C46 C47 1.381 . S
C46 H73 0.931 . S
C47 C46 1.381 . S
C47 C48 1.321 . S
C48 C47 1.321 . S
C48 C49 1.403 . S
C48 H74 0.934 . S
C49 C44 1.413 . S
C49 C48 1.403 . S
C49 H75 0.930 . S
C50 O64 1.275 . S
C50 O65 1.256 . S
C51 O66 1.259 . S
C51 O67 1.268 . S
C52 Ho41 2.811 . S
C52 C53 1.488 . S
C52 O68 1.215 . S
C52 O69 1.289 . S
C53 C52 1.488 . S
C53 C54 1.348 . S
C53 C58 1.413 . S
C54 C53 1.348 . S
C54 C55 1.442 . S
C54 H76 0.930 . S
C55 C54 1.442 . S
C55 C56 1.381 . S
C55 H77 0.931 . S
C56 C55 1.381 . S
C56 C57 1.321 . S
C57 C56 1.321 . S
C57 C58 1.403 . S
C57 H78 0.934 . S
C58 C53 1.413 . S
C58 C57 1.403 . S
C58 H79 0.930 . S
C59 O70 1.275 . S
C59 O71 1.256 . S
O60 Ho40 2.322 . S
O60 C42 1.259 . S
O61 Ho41 2.346 . S
O61 C42 1.268 . S
O62 Ho40 2.378 . S
O62 C43 1.215 . S
O63 Ho40 2.524 . S
O63 C43 1.289 . S
O64 Ho40 2.381 . S
O64 C50 1.275 . S
O65 Ho40 2.669 . S
O65 Ho41 2.305 . S
O65 C50 1.256 . S
O66 Ho41 2.322 . S
O66 C51 1.259 . S
O67 Ho40 2.346 . S
O67 C51 1.268 . S
O68 Ho41 2.378 . S
O68 C52 1.215 . S
O69 Ho41 2.524 . S
O69 C52 1.289 . S
O70 Ho41 2.381 . S
O70 C59 1.275 . S
O71 Ho40 2.305 . S
O71 Ho41 2.669 . S
O71 C59 1.256 . S
H72 C45 0.930 . S
H73 C46 0.931 . S
H74 C48 0.934 . S
H75 C49 0.930 . S
H76 C54 0.930 . S
H77 C55 0.931 . S
H78 C57 0.934 . S
H79 C58 0.930 . S
Ho80 C83 2.811 . S
Ho80 O100 2.322 . S
Ho80 O102 2.378 . S
Ho80 O103 2.524 . S
Ho80 O104 2.381 . S
Ho80 O105 2.669 . S
Ho80 O107 2.346 . S
Ho80 O111 2.305 . S
Ho81 C92 2.811 . S
Ho81 O101 2.346 . S
Ho81 O105 2.305 . S
Ho81 O106 2.322 . S
Ho81 O108 2.378 . S
Ho81 O109 2.524 . S
Ho81 O110 2.381 . S
Ho81 O111 2.669 . S
C82 O100 1.259 . S
C82 O101 1.268 . S
C83 Ho80 2.811 . S
C83 C84 1.488 . S
C83 O102 1.215 . S
C83 O103 1.289 . S
C84 C83 1.488 . S
C84 C85 1.348 . S
C84 C89 1.413 . S
C85 C84 1.348 . S
C85 C86 1.442 1_455 S
C85 H112 0.930 . S
C86 C85 1.442 1_655 S
C86 C87 1.381 . S
C86 H113 0.931 . S
C87 C86 1.381 . S
C87 C88 1.321 . S
C88 C87 1.321 . S
C88 C89 1.403 1_655 S
C88 H114 0.934 . S
C89 C84 1.413 . S
C89 C88 1.403 1_455 S
C89 H115 0.930 . S
C90 O104 1.275 . S
C90 O105 1.256 . S
C91 O106 1.259 . S
C91 O107 1.268 . S
C92 Ho81 2.811 . S
C92 C93 1.488 . S
C92 O108 1.215 . S
C92 O109 1.289 . S
C93 C92 1.488 . S
C93 C94 1.348 . S
C93 C98 1.413 . S
C94 C93 1.348 . S
C94 C95 1.442 . S
C94 H116 0.930 . S
C95 C94 1.442 . S
C95 C96 1.381 . S
C95 H117 0.931 . S
C96 C95 1.381 . S
C96 C97 1.321 . S
C97 C96 1.321 . S
C97 C98 1.403 . S
C97 H118 0.934 . S
C98 C93 1.413 . S
C98 C97 1.403 . S
C98 H119 0.930 . S
C99 O110 1.275 . S
C99 O111 1.256 . S
O100 Ho80 2.322 . S
O100 C82 1.259 . S
O101 Ho81 2.346 . S
O101 C82 1.268 . S
O102 Ho80 2.378 . S
O102 C83 1.215 . S
O103 Ho80 2.524 . S
O103 C83 1.289 . S
O104 Ho80 2.381 . S
O104 C90 1.275 . S
O105 Ho80 2.669 . S
O105 Ho81 2.305 . S
O105 C90 1.256 . S
O106 Ho81 2.322 . S
O106 C91 1.259 . S
O107 Ho80 2.346 . S
O107 C91 1.268 . S
O108 Ho81 2.378 . S
O108 C92 1.215 . S
O109 Ho81 2.524 . S
O109 C92 1.289 . S
O110 Ho81 2.381 . S
O110 C99 1.275 . S
O111 Ho80 2.305 . S
O111 Ho81 2.669 . S
O111 C99 1.256 . S
H112 C85 0.930 . S
H113 C86 0.931 . S
H114 C88 0.934 . S
H115 C89 0.930 . S
H116 C94 0.930 . S
H117 C95 0.931 . S
H118 C97 0.934 . S
H119 C98 0.930 . S
Ho120 C123 2.811 . S
Ho120 O140 2.322 . S
Ho120 O142 2.378 . S
Ho120 O143 2.524 . S
Ho120 O144 2.381 . S
Ho120 O145 2.669 . S
Ho120 O147 2.346 . S
Ho120 O151 2.305 . S
Ho121 C132 2.811 . S
Ho121 O141 2.346 . S
Ho121 O145 2.305 . S
Ho121 O146 2.322 . S
Ho121 O148 2.378 . S
Ho121 O149 2.524 . S
Ho121 O150 2.381 . S
Ho121 O151 2.669 . S
C122 O140 1.259 . S
C122 O141 1.268 . S
C123 Ho120 2.811 . S
C123 C124 1.488 . S
C123 O142 1.215 . S
C123 O143 1.289 . S
C124 C123 1.488 . S
C124 C125 1.348 . S
C124 C129 1.413 . S
C125 C124 1.348 . S
C125 C126 1.442 . S
C125 H152 0.930 . S
C126 C125 1.442 . S
C126 C127 1.381 . S
C126 H153 0.931 . S
C127 C126 1.381 . S
C127 C128 1.321 . S
C128 C127 1.321 . S
C128 C129 1.403 . S
C128 H154 0.934 . S
C129 C124 1.413 . S
C129 C128 1.403 . S
C129 H155 0.930 . S
C130 O144 1.275 . S
C130 O145 1.256 . S
C131 O146 1.259 . S
C131 O147 1.268 . S
C132 Ho121 2.811 . S
C132 C133 1.488 . S
C132 O148 1.215 . S
C132 O149 1.289 . S
C133 C132 1.488 . S
C133 C134 1.348 . S
C133 C138 1.413 . S
C134 C133 1.348 . S
C134 C135 1.442 . S
C134 H156 0.930 . S
C135 C134 1.442 . S
C135 C136 1.381 . S
C135 H157 0.931 . S
C136 C135 1.381 . S
C136 C137 1.321 . S
C137 C136 1.321 . S
C137 C138 1.403 . S
C137 H158 0.934 . S
C138 C133 1.413 . S
C138 C137 1.403 . S
C138 H159 0.930 . S
C139 O150 1.275 . S
C139 O151 1.256 . S
O140 Ho120 2.322 . S
O140 C122 1.259 . S
O141 Ho121 2.346 . S
O141 C122 1.268 . S
O142 Ho120 2.378 . S
O142 C123 1.215 . S
O143 Ho120 2.524 . S
O143 C123 1.289 . S
O144 Ho120 2.381 . S
O144 C130 1.275 . S
O145 Ho120 2.669 . S
O145 Ho121 2.305 . S
O145 C130 1.256 . S
O146 Ho121 2.322 . S
O146 C131 1.259 . S
O147 Ho120 2.346 . S
O147 C131 1.268 . S
O148 Ho121 2.378 . S
O148 C132 1.215 . S
O149 Ho121 2.524 . S
O149 C132 1.289 . S
O150 Ho121 2.381 . S
O150 C139 1.275 . S
O151 Ho120 2.305 . S
O151 Ho121 2.669 . S
O151 C139 1.256 . S
H152 C125 0.930 . S
H153 C126 0.931 . S
H154 C128 0.934 . S
H155 C129 0.930 . S
H156 C134 0.930 . S
H157 C135 0.931 . S
H158 C137 0.934 . S
H159 C138 0.930 . S
Ho160 C163 2.811 . S
Ho160 O180 2.322 . S
Ho160 O182 2.378 . S
Ho160 O183 2.524 . S
Ho160 O184 2.381 . S
Ho160 O185 2.669 . S
Ho160 O187 2.346 . S
Ho160 O191 2.305 . S
Ho161 C172 2.811 . S
Ho161 O181 2.346 . S
Ho161 O185 2.305 . S
Ho161 O186 2.322 . S
Ho161 O188 2.378 . S
Ho161 O189 2.524 . S
Ho161 O190 2.381 . S
Ho161 O191 2.669 . S
C162 O180 1.259 . S
C162 O181 1.268 . S
C163 Ho160 2.811 . S
C163 C164 1.488 . S
C163 O182 1.215 . S
C163 O183 1.289 . S
C164 C163 1.488 . S
C164 C165 1.348 . S
C164 C169 1.413 . S
C165 C164 1.348 . S
C165 C166 1.442 . S
C165 H192 0.930 . S
C166 C165 1.442 . S
C166 C167 1.381 . S
C166 H193 0.931 . S
C167 C166 1.381 . S
C167 C168 1.321 . S
C168 C167 1.321 . S
C168 C169 1.403 . S
C168 H194 0.934 . S
C169 C164 1.413 . S
C169 C168 1.403 . S
C169 H195 0.930 . S
C170 O184 1.275 . S
C170 O185 1.256 . S
C171 O186 1.259 . S
C171 O187 1.268 . S
C172 Ho161 2.811 . S
C172 C173 1.488 . S
C172 O188 1.215 . S
C172 O189 1.289 . S
C173 C172 1.488 . S
C173 C174 1.348 . S
C173 C178 1.413 . S
C174 C173 1.348 . S
C174 C175 1.442 . S
C174 H196 0.930 . S
C175 C174 1.442 . S
C175 C176 1.381 . S
C175 H197 0.931 . S
C176 C175 1.381 . S
C176 C177 1.321 . S
C177 C176 1.321 . S
C177 C178 1.403 . S
C177 H198 0.934 1_556 S
C178 C173 1.413 . S
C178 C177 1.403 . S
C178 H199 0.930 1_556 S
C179 O190 1.275 . S
C179 O191 1.256 . S
O180 Ho160 2.322 . S
O180 C162 1.259 . S
O181 Ho161 2.346 . S
O181 C162 1.268 . S
O182 Ho160 2.378 . S
O182 C163 1.215 . S
O183 Ho160 2.524 . S
O183 C163 1.289 . S
O184 Ho160 2.381 . S
O184 C170 1.275 . S
O185 Ho160 2.669 . S
O185 Ho161 2.305 . S
O185 C170 1.256 . S
O186 Ho161 2.322 . S
O186 C171 1.259 . S
O187 Ho160 2.346 . S
O187 C171 1.268 . S
O188 Ho161 2.378 . S
O188 C172 1.215 . S
O189 Ho161 2.524 . S
O189 C172 1.289 . S
O190 Ho161 2.381 . S
O190 C179 1.275 . S
O191 Ho160 2.305 . S
O191 Ho161 2.669 . S
O191 C179 1.256 . S
H192 C165 0.930 . S
H193 C166 0.931 . S
H194 C168 0.934 . S
H195 C169 0.930 . S
H196 C174 0.930 . S
H197 C175 0.931 . S
H198 C177 0.934 1_554 S
H199 C178 0.930 1_554 S
Ho200 C203 2.811 . S
Ho200 O220 2.322 . S
Ho200 O222 2.378 . S
Ho200 O223 2.524 . S
Ho200 O224 2.381 . S
Ho200 O225 2.669 . S
Ho200 O227 2.346 . S
Ho200 O231 2.305 . S
Ho201 C212 2.811 . S
Ho201 O221 2.346 . S
Ho201 O225 2.305 . S
Ho201 O226 2.322 . S
Ho201 O228 2.378 . S
Ho201 O229 2.524 . S
Ho201 O230 2.381 . S
Ho201 O231 2.669 . S
C202 O220 1.259 . S
C202 O221 1.268 . S
C203 Ho200 2.811 . S
C203 C204 1.488 . S
C203 O222 1.215 . S
C203 O223 1.289 . S
C204 C203 1.488 . S
C204 C205 1.348 . S
C204 C209 1.413 . S
C205 C204 1.348 . S
C205 C206 1.442 . S
C205 H232 0.930 . S
C206 C205 1.442 . S
C206 C207 1.381 . S
C206 H233 0.931 . S
C207 C206 1.381 . S
C207 C208 1.321 . S
C208 C207 1.321 . S
C208 C209 1.403 . S
C208 H234 0.934 . S
C209 C204 1.413 . S
C209 C208 1.403 . S
C209 H235 0.930 . S
C210 O224 1.275 . S
C210 O225 1.256 . S
C211 O226 1.259 . S
C211 O227 1.268 . S
C212 Ho201 2.811 . S
C212 C213 1.488 . S
C212 O228 1.215 . S
C212 O229 1.289 . S
C213 C212 1.488 . S
C213 C214 1.348 . S
C213 C218 1.413 . S
C214 C213 1.348 . S
C214 C215 1.442 . S
C214 H236 0.930 . S
C215 C214 1.442 . S
C215 C216 1.381 . S
C215 H237 0.931 . S
C216 C215 1.381 . S
C216 C217 1.321 . S
C217 C216 1.321 . S
C217 C218 1.403 . S
C217 H238 0.934 . S
C218 C213 1.413 . S
C218 C217 1.403 . S
C218 H239 0.930 . S
C219 O230 1.275 . S
C219 O231 1.256 . S
O220 Ho200 2.322 . S
O220 C202 1.259 . S
O221 Ho201 2.346 . S
O221 C202 1.268 . S
O222 Ho200 2.378 . S
O222 C203 1.215 . S
O223 Ho200 2.524 . S
O223 C203 1.289 . S
O224 Ho200 2.381 . S
O224 C210 1.275 . S
O225 Ho200 2.669 . S
O225 Ho201 2.305 . S
O225 C210 1.256 . S
O226 Ho201 2.322 . S
O226 C211 1.259 . S
O227 Ho200 2.346 . S
O227 C211 1.268 . S
O228 Ho201 2.378 . S
O228 C212 1.215 . S
O229 Ho201 2.524 . S
O229 C212 1.289 . S
O230 Ho201 2.381 . S
O230 C219 1.275 . S
O231 Ho200 2.305 . S
O231 Ho201 2.669 . S
O231 C219 1.256 . S
H232 C205 0.930 . S
H233 C206 0.931 . S
H234 C208 0.934 . S
H235 C209 0.930 . S
H236 C214 0.930 . S
H237 C215 0.931 . S
H238 C217 0.934 . S
H239 C218 0.930 . S
Ho240 C243 2.811 . S
Ho240 O260 2.322 . S
Ho240 O262 2.378 . S
Ho240 O263 2.524 . S
Ho240 O264 2.381 . S
Ho240 O265 2.669 . S
Ho240 O267 2.346 . S
Ho240 O271 2.305 . S
Ho241 C252 2.811 . S
Ho241 O261 2.346 . S
Ho241 O265 2.305 . S
Ho241 O266 2.322 . S
Ho241 O268 2.378 . S
Ho241 O269 2.524 . S
Ho241 O270 2.381 . S
Ho241 O271 2.669 . S
C242 O260 1.259 . S
C242 O261 1.268 . S
C243 Ho240 2.811 . S
C243 C244 1.488 . S
C243 O262 1.215 . S
C243 O263 1.289 . S
C244 C243 1.488 . S
C244 C245 1.348 . S
C244 C249 1.413 . S
C245 C244 1.348 . S
C245 C246 1.442 . S
C245 H272 0.930 . S
C246 C245 1.442 . S
C246 C247 1.381 . S
C246 H273 0.931 . S
C247 C246 1.381 . S
C247 C248 1.321 . S
C248 C247 1.321 . S
C248 C249 1.403 . S
C248 H274 0.934 . S
C249 C244 1.413 . S
C249 C248 1.403 . S
C249 H275 0.930 . S
C250 O264 1.275 . S
C250 O265 1.256 . S
C251 O266 1.259 . S
C251 O267 1.268 . S
C252 Ho241 2.811 . S
C252 C253 1.488 . S
C252 O268 1.215 . S
C252 O269 1.289 . S
C253 C252 1.488 . S
C253 C254 1.348 . S
C253 C258 1.413 . S
C254 C253 1.348 . S
C254 C255 1.442 1_655 S
C254 H276 0.930 . S
C255 C254 1.442 1_455 S
C255 C256 1.381 . S
C255 H277 0.931 . S
C256 C255 1.381 . S
C256 C257 1.321 . S
C257 C256 1.321 . S
C257 C258 1.403 1_455 S
C257 H278 0.934 . S
C258 C253 1.413 . S
C258 C257 1.403 1_655 S
C258 H279 0.930 . S
C259 O270 1.275 . S
C259 O271 1.256 . S
O260 Ho240 2.322 . S
O260 C242 1.259 . S
O261 Ho241 2.346 . S
O261 C242 1.268 . S
O262 Ho240 2.378 . S
O262 C243 1.215 . S
O263 Ho240 2.524 . S
O263 C243 1.289 . S
O264 Ho240 2.381 . S
O264 C250 1.275 . S
O265 Ho240 2.669 . S
O265 Ho241 2.305 . S
O265 C250 1.256 . S
O266 Ho241 2.322 . S
O266 C251 1.259 . S
O267 Ho240 2.346 . S
O267 C251 1.268 . S
O268 Ho241 2.378 . S
O268 C252 1.215 . S
O269 Ho241 2.524 . S
O269 C252 1.289 . S
O270 Ho241 2.381 . S
O270 C259 1.275 . S
O271 Ho240 2.305 . S
O271 Ho241 2.669 . S
O271 C259 1.256 . S
H272 C245 0.930 . S
H273 C246 0.931 . S
H274 C248 0.934 . S
H275 C249 0.930 . S
H276 C254 0.930 . S
H277 C255 0.931 . S
H278 C257 0.934 . S
H279 C258 0.930 . S
Ho280 C283 2.811 . S
Ho280 O300 2.322 . S
Ho280 O302 2.378 . S
Ho280 O303 2.524 . S
Ho280 O304 2.381 . S
Ho280 O305 2.669 . S
Ho280 O307 2.346 . S
Ho280 O311 2.305 . S
Ho281 C292 2.811 . S
Ho281 O301 2.346 . S
Ho281 O305 2.305 . S
Ho281 O306 2.322 . S
Ho281 O308 2.378 . S
Ho281 O309 2.524 . S
Ho281 O310 2.381 . S
Ho281 O311 2.669 . S
C282 O300 1.259 . S
C282 O301 1.268 . S
C283 Ho280 2.811 . S
C283 C284 1.488 . S
C283 O302 1.215 . S
C283 O303 1.289 . S
C284 C283 1.488 . S
C284 C285 1.348 . S
C284 C289 1.413 . S
C285 C284 1.348 . S
C285 C286 1.442 . S
C285 H312 0.930 . S
C286 C285 1.442 . S
C286 C287 1.381 . S
C286 H313 0.931 . S
C287 C286 1.381 . S
C287 C288 1.321 . S
C288 C287 1.321 . S
C288 C289 1.403 . S
C288 H314 0.934 . S
C289 C284 1.413 . S
C289 C288 1.403 . S
C289 H315 0.930 . S
C290 O304 1.275 . S
C290 O305 1.256 . S
C291 O306 1.259 . S
C291 O307 1.268 . S
C292 Ho281 2.811 . S
C292 C293 1.488 . S
C292 O308 1.215 . S
C292 O309 1.289 . S
C293 C292 1.488 . S
C293 C294 1.348 . S
C293 C298 1.413 . S
C294 C293 1.348 . S
C294 C295 1.442 . S
C294 H316 0.930 . S
C295 C294 1.442 . S
C295 C296 1.381 . S
C295 H317 0.931 . S
C296 C295 1.381 . S
C296 C297 1.321 . S
C297 C296 1.321 . S
C297 C298 1.403 . S
C297 H318 0.934 . S
C298 C293 1.413 . S
C298 C297 1.403 . S
C298 H319 0.930 . S
C299 O310 1.275 . S
C299 O311 1.256 . S
O300 Ho280 2.322 . S
O300 C282 1.259 . S
O301 Ho281 2.346 . S
O301 C282 1.268 . S
O302 Ho280 2.378 . S
O302 C283 1.215 . S
O303 Ho280 2.524 . S
O303 C283 1.289 . S
O304 Ho280 2.381 . S
O304 C290 1.275 . S
O305 Ho280 2.669 . S
O305 Ho281 2.305 . S
O305 C290 1.256 . S
O306 Ho281 2.322 . S
O306 C291 1.259 . S
O307 Ho280 2.346 . S
O307 C291 1.268 . S
O308 Ho281 2.378 . S
O308 C292 1.215 . S
O309 Ho281 2.524 . S
O309 C292 1.289 . S
O310 Ho281 2.381 . S
O310 C299 1.275 . S
O311 Ho280 2.305 . S
O311 Ho281 2.669 . S
O311 C299 1.256 . S
H312 C285 0.930 . S
H313 C286 0.931 . S
H314 C288 0.934 . S
H315 C289 0.930 . S
H316 C294 0.930 . S
H317 C295 0.931 . S
H318 C297 0.934 . S
H319 C298 0.930 . S
Ho320 C323 2.811 . S
Ho320 O340 2.322 . S
Ho320 O342 2.378 . S
Ho320 O343 2.524 . S
Ho320 O344 2.381 . S
Ho320 O345 2.669 . S
Ho320 O347 2.346 . S
Ho320 O351 2.305 . S
Ho321 C332 2.811 . S
Ho321 O341 2.346 . S
Ho321 O345 2.305 . S
Ho321 O346 2.322 . S
Ho321 O348 2.378 . S
Ho321 O349 2.524 . S
Ho321 O350 2.381 . S
Ho321 O351 2.669 . S
C322 O340 1.259 . S
C322 O341 1.268 . S
C323 Ho320 2.811 . S
C323 C324 1.488 . S
C323 O342 1.215 . S
C323 O343 1.289 . S
C324 C323 1.488 . S
C324 C325 1.348 . S
C324 C329 1.413 . S
C325 C324 1.348 . S
C325 C326 1.442 . S
C325 H352 0.930 . S
C326 C325 1.442 . S
C326 C327 1.381 . S
C326 H353 0.931 . S
C327 C326 1.381 . S
C327 C328 1.321 . S
C328 C327 1.321 . S
C328 C329 1.403 . S
C328 H354 0.934 . S
C329 C324 1.413 . S
C329 C328 1.403 . S
C329 H355 0.930 . S
C330 O344 1.275 . S
C330 O345 1.256 . S
C331 O346 1.259 . S
C331 O347 1.268 . S
C332 Ho321 2.811 . S
C332 C333 1.488 . S
C332 O348 1.215 . S
C332 O349 1.289 . S
C333 C332 1.488 . S
C333 C334 1.348 . S
C333 C338 1.413 . S
C334 C333 1.348 . S
C334 C335 1.442 . S
C334 H356 0.930 . S
C335 C334 1.442 . S
C335 C336 1.381 1_655 S
C335 H357 0.931 1_655 S
C336 C335 1.381 1_455 S
C336 C337 1.321 1_455 S
C337 C336 1.321 1_655 S
C337 C338 1.403 . S
C337 H358 0.912 1_655 S
C338 C333 1.413 . S
C338 C337 1.403 . S
C338 H359 0.930 . S
C339 O350 1.275 . S
C339 O351 1.256 . S
O340 Ho320 2.322 . S
O340 C322 1.259 . S
O341 Ho321 2.346 . S
O341 C322 1.268 . S
O342 Ho320 2.378 . S
O342 C323 1.215 . S
O343 Ho320 2.524 . S
O343 C323 1.289 . S
O344 Ho320 2.381 . S
O344 C330 1.275 . S
O345 Ho320 2.669 . S
O345 Ho321 2.305 . S
O345 C330 1.256 . S
O346 Ho321 2.322 . S
O346 C331 1.259 . S
O347 Ho320 2.346 . S
O347 C331 1.268 . S
O348 Ho321 2.378 . S
O348 C332 1.215 . S
O349 Ho321 2.524 . S
O349 C332 1.289 . S
O350 Ho321 2.381 . S
O350 C339 1.275 . S
O351 Ho320 2.305 . S
O351 Ho321 2.669 . S
O351 C339 1.256 . S
H352 C325 0.930 . S
H353 C326 0.931 . S
H354 C328 0.934 . S
H355 C329 0.930 . S
H356 C334 0.930 . S
H357 C335 0.931 1_455 S
H358 C337 0.912 1_455 S
H359 C338 0.930 . S
Ho360 C363 2.811 . S
Ho360 O380 2.322 . S
Ho360 O382 2.378 . S
Ho360 O383 2.524 . S
Ho360 O384 2.381 . S
Ho360 O385 2.669 . S
Ho360 O387 2.346 . S
Ho360 O391 2.305 . S
Ho361 C372 2.811 . S
Ho361 O381 2.346 . S
Ho361 O385 2.305 . S
Ho361 O386 2.322 . S
Ho361 O388 2.378 . S
Ho361 O389 2.524 . S
Ho361 O390 2.381 . S
Ho361 O391 2.669 . S
C362 O380 1.259 . S
C362 O381 1.268 . S
C363 Ho360 2.811 . S
C363 C364 1.488 . S
C363 O382 1.215 . S
C363 O383 1.289 . S
C364 C363 1.488 . S
C364 C365 1.348 . S
C364 C369 1.413 . S
C365 C364 1.348 . S
C365 C366 1.442 . S
C365 H392 0.930 . S
C366 C365 1.442 . S
C366 C367 1.381 . S
C366 H393 0.931 . S
C367 C366 1.381 . S
C367 C368 1.321 . S
C368 C367 1.321 . S
C368 C369 1.403 . S
C368 H394 0.934 . S
C369 C364 1.413 . S
C369 C368 1.403 . S
C369 H395 0.930 . S
C370 O384 1.275 . S
C370 O385 1.256 . S
C371 O386 1.259 . S
C371 O387 1.268 . S
C372 Ho361 2.811 . S
C372 C373 1.488 . S
C372 O388 1.215 . S
C372 O389 1.289 . S
C373 C372 1.488 . S
C373 C374 1.348 . S
C373 C378 1.413 . S
C374 C373 1.348 . S
C374 C375 1.442 . S
C374 H396 0.930 . S
C375 C374 1.442 . S
C375 C376 1.381 1_545 S
C375 H397 0.931 1_545 S
C376 C375 1.381 1_565 S
C376 C377 1.321 1_565 S
C377 C376 1.321 1_545 S
C377 C378 1.403 . S
C377 H398 0.934 1_455 S
C378 C373 1.413 . S
C378 C377 1.403 . S
C378 H399 0.930 . S
C379 O390 1.275 . S
C379 O391 1.256 . S
O380 Ho360 2.322 . S
O380 C362 1.259 . S
O381 Ho361 2.346 . S
O381 C362 1.268 . S
O382 Ho360 2.378 . S
O382 C363 1.215 . S
O383 Ho360 2.524 . S
O383 C363 1.289 . S
O384 Ho360 2.381 . S
O384 C370 1.275 . S
O385 Ho360 2.669 . S
O385 Ho361 2.305 . S
O385 C370 1.256 . S
O386 Ho361 2.322 . S
O386 C371 1.259 . S
O387 Ho360 2.346 . S
O387 C371 1.268 . S
O388 Ho361 2.378 . S
O388 C372 1.215 . S
O389 Ho361 2.524 . S
O389 C372 1.289 . S
O390 Ho361 2.381 . S
O390 C379 1.275 . S
O391 Ho360 2.305 . S
O391 Ho361 2.669 . S
O391 C379 1.256 . S
H392 C365 0.930 . S
H393 C366 0.931 . S
H394 C368 0.934 . S
H395 C369 0.930 . S
H396 C374 0.930 . S
H397 C375 0.931 1_565 S
H398 C377 0.934 1_655 S
H399 C378 0.930 . S
Ho400 C403 2.811 1_554 S
Ho400 O420 2.322 . S
Ho400 O422 2.378 1_554 S
Ho400 O423 2.524 1_554 S
Ho400 O424 2.381 . S
Ho400 O425 2.669 . S
Ho400 O427 2.346 . S
Ho400 O431 2.305 . S
Ho401 C412 2.811 . S
Ho401 O421 2.346 . S
Ho401 O425 2.305 . S
Ho401 O426 2.322 . S
Ho401 O428 2.378 . S
Ho401 O429 2.524 . S
Ho401 O430 2.381 . S
Ho401 O431 2.669 . S
C402 O420 1.259 . S
C402 O421 1.268 . S
C403 Ho400 2.811 1_556 S
C403 C404 1.488 . S
C403 O422 1.215 . S
C403 O423 1.289 . S
C404 C403 1.488 . S
C404 C405 1.348 . S
C404 C409 1.413 . S
C405 C404 1.348 . S
C405 C406 1.442 . S
C405 H432 0.930 . S
C406 C405 1.442 . S
C406 C407 1.381 . S
C406 H433 0.931 . S
C407 C406 1.381 . S
C407 C408 1.321 . S
C408 C407 1.321 . S
C408 C409 1.403 . S
C408 H434 0.934 . S
C409 C404 1.413 . S
C409 C408 1.403 . S
C409 H435 0.930 . S
C410 O424 1.275 . S
C410 O425 1.256 . S
C411 O426 1.259 . S
C411 O427 1.268 . S
C412 Ho401 2.811 . S
C412 C413 1.488 . S
C412 O428 1.215 . S
C412 O429 1.289 . S
C413 C412 1.488 . S
C413 C414 1.348 . S
C413 C418 1.413 . S
C414 C413 1.348 . S
C414 C415 1.442 . S
C414 H436 0.930 . S
C415 C414 1.442 . S
C415 C416 1.381 . S
C415 H437 0.931 . S
C416 C415 1.381 . S
C416 C417 1.321 . S
C417 C416 1.321 . S
C417 C418 1.403 . S
C417 H438 0.934 . S
C418 C413 1.413 . S
C418 C417 1.403 . S
C418 H439 0.930 . S
C419 O430 1.275 . S
C419 O431 1.256 . S
O420 Ho400 2.322 . S
O420 C402 1.259 . S
O421 Ho401 2.346 . S
O421 C402 1.268 . S
O422 Ho400 2.378 1_556 S
O422 C403 1.215 . S
O423 Ho400 2.524 1_556 S
O423 C403 1.289 . S
O424 Ho400 2.381 . S
O424 C410 1.275 . S
O425 Ho400 2.669 . S
O425 Ho401 2.305 . S
O425 C410 1.256 . S
O426 Ho401 2.322 . S
O426 C411 1.259 . S
O427 Ho400 2.346 . S
O427 C411 1.268 . S
O428 Ho401 2.378 . S
O428 C412 1.215 . S
O429 Ho401 2.524 . S
O429 C412 1.289 . S
O430 Ho401 2.381 . S
O430 C419 1.275 . S
O431 Ho400 2.305 . S
O431 Ho401 2.669 . S
O431 C419 1.256 . S
H432 C405 0.930 . S
H433 C406 0.931 . S
H434 C408 0.934 . S
H435 C409 0.930 . S
H436 C414 0.930 . S
H437 C415 0.931 . S
H438 C417 0.934 . S
H439 C418 0.930 . S
Ho440 C443 2.811 . S
Ho440 O460 2.322 . S
Ho440 O462 2.378 . S
Ho440 O463 2.524 . S
Ho440 O464 2.381 . S
Ho440 O465 2.669 . S
Ho440 O467 2.346 . S
Ho440 O471 2.305 . S
Ho441 C452 2.811 . S
Ho441 O461 2.346 . S
Ho441 O465 2.305 . S
Ho441 O466 2.322 . S
Ho441 O468 2.378 . S
Ho441 O469 2.524 . S
Ho441 O470 2.381 . S
Ho441 O471 2.669 . S
C442 O460 1.259 . S
C442 O461 1.268 . S
C443 Ho440 2.811 . S
C443 C444 1.488 . S
C443 O462 1.215 . S
C443 O463 1.289 . S
C444 C443 1.488 . S
C444 C445 1.348 . S
C444 C449 1.413 . S
C445 C444 1.348 . S
C445 C446 1.442 . S
C445 H472 0.930 . S
C446 C445 1.442 . S
C446 C447 1.381 . S
C446 H473 0.931 . S
C447 C446 1.381 . S
C447 C448 1.321 . S
C448 C447 1.321 . S
C448 C449 1.403 . S
C448 H474 0.934 . S
C449 C444 1.413 . S
C449 C448 1.403 . S
C449 H475 0.930 . S
C450 O464 1.275 . S
C450 O465 1.256 . S
C451 O466 1.259 . S
C451 O467 1.268 . S
C452 Ho441 2.811 . S
C452 C453 1.488 . S
C452 O468 1.215 . S
C452 O469 1.289 . S
C453 C452 1.488 . S
C453 C454 1.348 . S
C453 C458 1.413 . S
C454 C453 1.348 . S
C454 C455 1.442 1_565 S
C454 H476 0.930 . S
C455 C454 1.442 1_545 S
C455 C456 1.381 . S
C455 H477 0.931 . S
C456 C455 1.381 . S
C456 C457 1.321 1_545 S
C457 C456 1.321 1_565 S
C457 C458 1.403 . S
C457 H478 0.937 . S
C458 C453 1.413 . S
C458 C457 1.403 . S
C458 H479 0.930 . S
C459 O470 1.275 . S
C459 O471 1.256 . S
O460 Ho440 2.322 . S
O460 C442 1.259 . S
O461 Ho441 2.346 . S
O461 C442 1.268 . S
O462 Ho440 2.378 . S
O462 C443 1.215 . S
O463 Ho440 2.524 . S
O463 C443 1.289 . S
O464 Ho440 2.381 . S
O464 C450 1.275 . S
O465 Ho440 2.669 . S
O465 Ho441 2.305 . S
O465 C450 1.256 . S
O466 Ho441 2.322 . S
O466 C451 1.259 . S
O467 Ho440 2.346 . S
O467 C451 1.268 . S
O468 Ho441 2.378 . S
O468 C452 1.215 . S
O469 Ho441 2.524 . S
O469 C452 1.289 . S
O470 Ho441 2.381 . S
O470 C459 1.275 . S
O471 Ho440 2.305 . S
O471 Ho441 2.669 . S
O471 C459 1.256 . S
H472 C445 0.930 . S
H473 C446 0.931 . S
H474 C448 0.934 . S
H475 C449 0.930 . S
H476 C454 0.930 . S
H477 C455 0.931 . S
H478 C457 0.937 . S
H479 C458 0.930 . S
Ho480 C483 2.811 . S
Ho480 O500 2.322 . S
Ho480 O502 2.378 . S
Ho480 O503 2.524 . S
Ho480 O504 2.381 . S
Ho480 O505 2.669 . S
Ho480 O507 2.346 . S
Ho480 O511 2.305 . S
Ho481 C492 2.811 . S
Ho481 O501 2.346 . S
Ho481 O505 2.305 . S
Ho481 O506 2.322 . S
Ho481 O508 2.378 . S
Ho481 O509 2.524 . S
Ho481 O510 2.381 . S
Ho481 O511 2.669 . S
C482 O500 1.259 . S
C482 O501 1.268 . S
C483 Ho480 2.811 . S
C483 C484 1.488 . S
C483 O502 1.215 . S
C483 O503 1.289 . S
C484 C483 1.488 . S
C484 C485 1.348 . S
C484 C489 1.413 . S
C485 C484 1.348 . S
C485 C486 1.442 . S
C485 H512 0.930 . S
C486 C485 1.442 . S
C486 C487 1.381 1_455 S
C486 H513 0.931 1_455 S
C487 C486 1.381 1_655 S
C487 C488 1.321 1_655 S
C488 C487 1.321 1_455 S
C488 C489 1.403 . S
C488 H514 0.912 1_455 S
C489 C484 1.413 . S
C489 C488 1.403 . S
C489 H515 0.930 . S
C490 O504 1.275 . S
C490 O505 1.256 . S
C491 O506 1.259 . S
C491 O507 1.268 . S
C492 Ho481 2.811 . S
C492 C493 1.488 . S
C492 O508 1.215 . S
C492 O509 1.289 . S
C493 C492 1.488 . S
C493 C494 1.348 . S
C493 C498 1.413 . S
C494 C493 1.348 . S
C494 C495 1.442 . S
C494 H516 0.930 . S
C495 C494 1.442 . S
C495 C496 1.381 . S
C495 H517 0.931 . S
C496 C495 1.381 . S
C496 C497 1.321 . S
C497 C496 1.321 . S
C497 C498 1.403 . S
C497 H518 0.934 . S
C498 C493 1.413 . S
C498 C497 1.403 . S
C498 H519 0.930 . S
C499 O510 1.275 . S
C499 O511 1.256 . S
O500 Ho480 2.322 . S
O500 C482 1.259 . S
O501 Ho481 2.346 . S
O501 C482 1.268 . S
O502 Ho480 2.378 . S
O502 C483 1.215 . S
O503 Ho480 2.524 . S
O503 C483 1.289 . S
O504 Ho480 2.381 . S
O504 C490 1.275 . S
O505 Ho480 2.669 . S
O505 Ho481 2.305 . S
O505 C490 1.256 . S
O506 Ho481 2.322 . S
O506 C491 1.259 . S
O507 Ho480 2.346 . S
O507 C491 1.268 . S
O508 Ho481 2.378 . S
O508 C492 1.215 . S
O509 Ho481 2.524 . S
O509 C492 1.289 . S
O510 Ho481 2.381 . S
O510 C499 1.275 . S
O511 Ho480 2.305 . S
O511 Ho481 2.669 . S
O511 C499 1.256 . S
H512 C485 0.930 . S
H513 C486 0.931 1_655 S
H514 C488 0.912 1_655 S
H515 C489 0.930 . S
H516 C494 0.930 . S
H517 C495 0.931 . S
H518 C497 0.934 . S
H519 C498 0.930 . S
Ho520 C523 2.811 . S
Ho520 O540 2.322 . S
Ho520 O542 2.378 . S
Ho520 O543 2.524 . S
Ho520 O544 2.381 . S
Ho520 O545 2.669 . S
Ho520 O547 2.346 . S
Ho520 O551 2.305 . S
Ho521 C532 2.811 . S
Ho521 O541 2.346 . S
Ho521 O545 2.305 . S
Ho521 O546 2.322 . S
Ho521 O548 2.378 . S
Ho521 O549 2.524 . S
Ho521 O550 2.381 . S
Ho521 O551 2.669 . S
C522 O540 1.259 . S
C522 O541 1.268 . S
C523 Ho520 2.811 . S
C523 C524 1.488 . S
C523 O542 1.215 . S
C523 O543 1.289 . S
C524 C523 1.488 . S
C524 C525 1.348 . S
C524 C529 1.413 . S
C525 C524 1.348 . S
C525 C526 1.442 . S
C525 H552 0.930 . S
C526 C525 1.442 . S
C526 C527 1.381 1_565 S
C526 H553 0.931 1_565 S
C527 C526 1.381 1_545 S
C527 C528 1.321 1_545 S
C528 C527 1.321 1_565 S
C528 C529 1.403 . S
C528 H554 0.934 1_655 S
C529 C524 1.413 . S
C529 C528 1.403 . S
C529 H555 0.930 . S
C530 O544 1.275 . S
C530 O545 1.256 . S
C531 O546 1.259 . S
C531 O547 1.268 . S
C532 Ho521 2.811 . S
C532 C533 1.488 . S
C532 O548 1.215 . S
C532 O549 1.289 . S
C533 C532 1.488 . S
C533 C534 1.348 . S
C533 C538 1.413 . S
C534 C533 1.348 . S
C534 C535 1.442 . S
C534 H556 0.930 . S
C535 C534 1.442 . S
C535 C536 1.381 . S
C535 H557 0.931 . S
C536 C535 1.381 . S
C536 C537 1.321 . S
C537 C536 1.321 . S
C537 C538 1.403 . S
C537 H558 0.934 . S
C538 C533 1.413 . S
C538 C537 1.403 . S
C538 H559 0.930 . S
C539 O550 1.275 . S
C539 O551 1.256 . S
O540 Ho520 2.322 . S
O540 C522 1.259 . S
O541 Ho521 2.346 . S
O541 C522 1.268 . S
O542 Ho520 2.378 . S
O542 C523 1.215 . S
O543 Ho520 2.524 . S
O543 C523 1.289 . S
O544 Ho520 2.381 . S
O544 C530 1.275 . S
O545 Ho520 2.669 . S
O545 Ho521 2.305 . S
O545 C530 1.256 . S
O546 Ho521 2.322 . S
O546 C531 1.259 . S
O547 Ho520 2.346 . S
O547 C531 1.268 . S
O548 Ho521 2.378 . S
O548 C532 1.215 . S
O549 Ho521 2.524 . S
O549 C532 1.289 . S
O550 Ho521 2.381 . S
O550 C539 1.275 . S
O551 Ho520 2.305 . S
O551 Ho521 2.669 . S
O551 C539 1.256 . S
H552 C525 0.930 . S
H553 C526 0.931 1_545 S
H554 C528 0.934 1_455 S
H555 C529 0.930 . S
H556 C534 0.930 . S
H557 C535 0.931 . S
H558 C537 0.934 . S
H559 C538 0.930 . S
Ho560 C563 2.811 . S
Ho560 O580 2.322 . S
Ho560 O582 2.378 . S
Ho560 O583 2.524 . S
Ho560 O584 2.381 . S
Ho560 O585 2.669 . S
Ho560 O587 2.346 . S
Ho560 O591 2.305 . S
Ho561 C572 2.811 1_556 S
Ho561 O581 2.346 . S
Ho561 O585 2.305 . S
Ho561 O586 2.322 . S
Ho561 O588 2.378 1_556 S
Ho561 O589 2.524 1_556 S
Ho561 O590 2.381 . S
Ho561 O591 2.669 . S
C562 O580 1.259 . S
C562 O581 1.268 . S
C563 Ho560 2.811 . S
C563 C564 1.488 . S
C563 O582 1.215 . S
C563 O583 1.289 . S
C564 C563 1.488 . S
C564 C565 1.348 . S
C564 C569 1.413 . S
C565 C564 1.348 . S
C565 C566 1.442 . S
C565 H592 0.930 . S
C566 C565 1.442 . S
C566 C567 1.381 . S
C566 H593 0.931 . S
C567 C566 1.381 . S
C567 C568 1.321 . S
C568 C567 1.321 . S
C568 C569 1.403 . S
C568 H594 0.934 . S
C569 C564 1.413 . S
C569 C568 1.403 . S
C569 H595 0.930 . S
C570 O584 1.275 . S
C570 O585 1.256 . S
C571 O586 1.259 . S
C571 O587 1.268 . S
C572 Ho561 2.811 1_554 S
C572 C573 1.488 . S
C572 O588 1.215 . S
C572 O589 1.289 . S
C573 C572 1.488 . S
C573 C574 1.348 . S
C573 C578 1.413 . S
C574 C573 1.348 . S
C574 C575 1.442 . S
C574 H596 0.930 . S
C575 C574 1.442 . S
C575 C576 1.381 . S
C575 H597 0.931 . S
C576 C575 1.381 . S
C576 C577 1.321 . S
C577 C576 1.321 . S
C577 C578 1.403 . S
C577 H598 0.934 . S
C578 C573 1.413 . S
C578 C577 1.403 . S
C578 H599 0.930 . S
C579 O590 1.275 . S
C579 O591 1.256 . S
O580 Ho560 2.322 . S
O580 C562 1.259 . S
O581 Ho561 2.346 . S
O581 C562 1.268 . S
O582 Ho560 2.378 . S
O582 C563 1.215 . S
O583 Ho560 2.524 . S
O583 C563 1.289 . S
O584 Ho560 2.381 . S
O584 C570 1.275 . S
O585 Ho560 2.669 . S
O585 Ho561 2.305 . S
O585 C570 1.256 . S
O586 Ho561 2.322 . S
O586 C571 1.259 . S
O587 Ho560 2.346 . S
O587 C571 1.268 . S
O588 Ho561 2.378 1_554 S
O588 C572 1.215 . S
O589 Ho561 2.524 1_554 S
O589 C572 1.289 . S
O590 Ho561 2.381 . S
O590 C579 1.275 . S
O591 Ho560 2.305 . S
O591 Ho561 2.669 . S
O591 C579 1.256 . S
H592 C565 0.930 . S
H593 C566 0.931 . S
H594 C568 0.934 . S
H595 C569 0.930 . S
H596 C574 0.930 . S
H597 C575 0.931 . S
H598 C577 0.934 . S
H599 C578 0.930 . S
Ho600 C603 2.811 . S
Ho600 O620 2.322 . S
Ho600 O622 2.378 . S
Ho600 O623 2.524 . S
Ho600 O624 2.381 . S
Ho600 O625 2.669 . S
Ho600 O627 2.346 . S
Ho600 O631 2.305 . S
Ho601 C612 2.811 . S
Ho601 O621 2.346 . S
Ho601 O625 2.305 . S
Ho601 O626 2.322 . S
Ho601 O628 2.378 . S
Ho601 O629 2.524 . S
Ho601 O630 2.381 . S
Ho601 O631 2.669 . S
C602 O620 1.259 . S
C602 O621 1.268 . S
C603 Ho600 2.811 . S
C603 C604 1.488 . S
C603 O622 1.215 . S
C603 O623 1.289 . S
C604 C603 1.488 . S
C604 C605 1.348 . S
C604 C609 1.413 . S
C605 C604 1.348 . S
C605 C606 1.442 1_545 S
C605 H632 0.930 . S
C606 C605 1.442 1_565 S
C606 C607 1.381 . S
C606 H633 0.931 . S
C607 C606 1.381 . S
C607 C608 1.321 1_565 S
C608 C607 1.321 1_545 S
C608 C609 1.403 . S
C608 H634 0.937 . S
C609 C604 1.413 . S
C609 C608 1.403 . S
C609 H635 0.930 . S
C610 O624 1.275 . S
C610 O625 1.256 . S
C611 O626 1.259 . S
C611 O627 1.268 . S
C612 Ho601 2.811 . S
C612 C613 1.488 . S
C612 O628 1.215 . S
C612 O629 1.289 . S
C613 C612 1.488 . S
C613 C614 1.348 . S
C613 C618 1.413 . S
C614 C613 1.348 . S
C614 C615 1.442 . S
C614 H636 0.930 . S
C615 C614 1.442 . S
C615 C616 1.381 . S
C615 H637 0.931 . S
C616 C615 1.381 . S
C616 C617 1.321 . S
C617 C616 1.321 . S
C617 C618 1.403 . S
C617 H638 0.934 . S
C618 C613 1.413 . S
C618 C617 1.403 . S
C618 H639 0.930 . S
C619 O630 1.275 . S
C619 O631 1.256 . S
O620 Ho600 2.322 . S
O620 C602 1.259 . S
O621 Ho601 2.346 . S
O621 C602 1.268 . S
O622 Ho600 2.378 . S
O622 C603 1.215 . S
O623 Ho600 2.524 . S
O623 C603 1.289 . S
O624 Ho600 2.381 . S
O624 C610 1.275 . S
O625 Ho600 2.669 . S
O625 Ho601 2.305 . S
O625 C610 1.256 . S
O626 Ho601 2.322 . S
O626 C611 1.259 . S
O627 Ho600 2.346 . S
O627 C611 1.268 . S
O628 Ho601 2.378 . S
O628 C612 1.215 . S
O629 Ho601 2.524 . S
O629 C612 1.289 . S
O630 Ho601 2.381 . S
O630 C619 1.275 . S
O631 Ho600 2.305 . S
O631 Ho601 2.669 . S
O631 C619 1.256 . S
H632 C605 0.930 . S
H633 C606 0.931 . S
H634 C608 0.937 . S
H635 C609 0.930 . S
H636 C614 0.930 . S
H637 C615 0.931 . S
H638 C617 0.934 . S
H639 C618 0.930 . S
C640 C641 1.363 . S
C640 C646 1.379 . S
C640 N648 1.356 . S
C641 C640 1.363 . S
C641 C647 1.363 . S
C642 C643 1.363 . S
C642 C647 1.379 . S
C642 N649 1.356 . S
C643 C642 1.363 . S
C643 C646 1.363 . S
N644 C646 1.356 . S
N644 H656 0.984 . S
N644 H657 0.985 . S
N645 C647 1.356 . S
N645 H650 0.984 . S
N645 H651 0.985 . S
C646 C640 1.379 . S
C646 C643 1.363 . S
C646 N644 1.356 . S
C647 C641 1.363 . S
C647 C642 1.379 . S
C647 N645 1.356 . S
N648 C640 1.356 . S
N648 H654 0.984 . S
N648 H655 0.984 . S
N649 C642 1.356 . S
N649 H652 0.984 . S
N649 H653 0.985 . S
H650 N645 0.984 . S
H651 N645 0.985 . S
H652 N649 0.984 . S
H653 N649 0.985 . S
H654 N648 0.984 . S
H655 N648 0.984 . S
H656 N644 0.984 . S
H657 N644 0.985 . S
C658 C659 1.363 . S
C658 C664 1.379 . S
C658 N666 1.356 . S
C659 C658 1.363 . S
C659 C665 1.363 . S
C660 C661 1.363 . S
C660 C665 1.379 . S
C660 N667 1.356 . S
C661 C660 1.363 . S
C661 C664 1.363 . S
N662 C664 1.356 . S
N662 H674 0.984 . S
N662 H675 0.985 . S
N663 C665 1.356 . S
N663 H668 0.984 . S
N663 H669 0.985 . S
C664 C658 1.379 . S
C664 C661 1.363 . S
C664 N662 1.356 . S
C665 C659 1.363 . S
C665 C660 1.379 . S
C665 N663 1.356 . S
N666 C658 1.356 . S
N666 H672 0.984 . S
N666 H673 0.984 . S
N667 C660 1.356 . S
N667 H670 0.984 . S
N667 H671 0.985 . S
H668 N663 0.984 . S
H669 N663 0.985 . S
H670 N667 0.984 . S
H671 N667 0.985 . S
H672 N666 0.984 . S
H673 N666 0.984 . S
H674 N662 0.984 . S
H675 N662 0.985 . S
C676 C677 1.363 . S
C676 C682 1.379 . S
C676 N684 1.356 . S
C677 C676 1.363 . S
C677 C683 1.363 . S
C678 C679 1.363 . S
C678 C683 1.379 . S
C678 N685 1.356 . S
C679 C678 1.363 . S
C679 C682 1.363 . S
N680 C682 1.356 . S
N680 H692 0.984 . S
N680 H693 0.985 . S
N681 C683 1.356 . S
N681 H686 0.984 . S
N681 H687 0.985 . S
C682 C676 1.379 . S
C682 C679 1.363 . S
C682 N680 1.356 . S
C683 C677 1.363 . S
C683 C678 1.379 . S
C683 N681 1.356 . S
N684 C676 1.356 . S
N684 H690 0.984 . S
N684 H691 0.984 . S
N685 C678 1.356 . S
N685 H688 0.984 . S
N685 H689 0.985 1_455 S
H686 N681 0.984 . S
H687 N681 0.985 . S
H688 N685 0.984 . S
H689 N685 0.985 1_655 S
H690 N684 0.984 . S
H691 N684 0.984 . S
H692 N680 0.984 . S
H693 N680 0.985 . S
C694 C695 1.363 . S
C694 C700 1.379 1_655 S
C694 N702 1.356 . S
C695 C694 1.363 . S
C695 C701 1.363 . S
C696 C697 1.363 . S
C696 C701 1.379 1_455 S
C696 N703 1.356 . S
C697 C696 1.363 . S
C697 C700 1.363 . S
N698 C700 1.356 . S
N698 H710 0.984 . S
N698 H711 0.985 . S
N699 C701 1.356 . S
N699 H704 0.984 . S
N699 H705 0.985 . S
C700 C694 1.379 1_455 S
C700 C697 1.363 . S
C700 N698 1.356 . S
C701 C695 1.363 . S
C701 C696 1.379 1_655 S
C701 N699 1.356 . S
N702 C694 1.356 . S
N702 H708 0.984 . S
N702 H709 0.984 . S
N703 C696 1.356 . S
N703 H706 0.984 . S
N703 H707 0.985 . S
H704 N699 0.984 . S
H705 N699 0.985 . S
H706 N703 0.984 . S
H707 N703 0.985 . S
H708 N702 0.984 . S
H709 N702 0.984 . S
H710 N698 0.984 . S
H711 N698 0.985 . S
C712 C713 1.363 . S
C712 C718 1.379 . S
C712 N720 1.356 . S
C713 C712 1.363 . S
C713 C719 1.363 . S
C714 C715 1.363 . S
C714 C719 1.379 . S
C714 N721 1.356 . S
C715 C714 1.363 . S
C715 C718 1.363 . S
N716 C718 1.356 . S
N716 H728 0.984 . S
N716 H729 0.985 . S
N717 C719 1.356 . S
N717 H722 0.984 . S
N717 H723 0.985 . S
C718 C712 1.379 . S
C718 C715 1.363 . S
C718 N716 1.356 . S
C719 C713 1.363 . S
C719 C714 1.379 . S
C719 N717 1.356 . S
N720 C712 1.356 . S
N720 H726 0.984 . S
N720 H727 0.984 . S
N721 C714 1.356 . S
N721 H724 0.984 . S
N721 H725 0.985 . S
H722 N717 0.984 . S
H723 N717 0.985 . S
H724 N721 0.984 . S
H725 N721 0.985 . S
H726 N720 0.984 . S
H727 N720 0.984 . S
H728 N716 0.984 . S
H729 N716 0.985 . S
C730 C731 1.363 . S
C730 C736 1.379 . S
C730 N738 1.356 . S
C731 C730 1.363 . S
C731 C737 1.363 . S
C732 C733 1.363 . S
C732 C737 1.379 . S
C732 N739 1.356 . S
C733 C732 1.363 . S
C733 C736 1.363 . S
N734 C736 1.356 . S
N734 H746 0.984 . S
N734 H747 0.985 . S
N735 C737 1.356 . S
N735 H740 0.984 . S
N735 H741 0.985 . S
C736 C730 1.379 . S
C736 C733 1.363 . S
C736 N734 1.356 . S
C737 C731 1.363 . S
C737 C732 1.379 . S
C737 N735 1.356 . S
N738 C730 1.356 . S
N738 H744 0.984 . S
N738 H745 0.984 . S
N739 C732 1.356 . S
N739 H742 0.984 . S
N739 H743 0.985 . S
H740 N735 0.984 . S
H741 N735 0.985 . S
H742 N739 0.984 . S
H743 N739 0.985 . S
H744 N738 0.984 . S
H745 N738 0.984 . S
H746 N734 0.984 . S
H747 N734 0.985 . S
C748 C749 1.363 . S
C748 C754 1.379 . S
C748 N756 1.356 . S
C749 C748 1.363 . S
C749 C755 1.363 . S
C750 C751 1.363 . S
C750 C755 1.379 . S
C750 N757 1.356 . S
C751 C750 1.363 . S
C751 C754 1.363 . S
N752 C754 1.356 1_455 S
N752 H764 0.984 . S
N752 H765 0.985 . S
N753 C755 1.356 . S
N753 H758 0.984 . S
N753 H759 0.985 . S
C754 C748 1.379 . S
C754 C751 1.363 . S
C754 N752 1.356 1_655 S
C755 C749 1.363 . S
C755 C750 1.379 . S
C755 N753 1.356 . S
N756 C748 1.356 . S
N756 H762 0.984 1_655 S
N756 H763 0.984 . S
N757 C750 1.356 . S
N757 H760 0.984 . S
N757 H761 0.985 . S
H758 N753 0.984 . S
H759 N753 0.985 . S
H760 N757 0.984 . S
H761 N757 0.985 . S
H762 N756 0.984 1_455 S
H763 N756 0.984 . S
H764 N752 0.984 . S
H765 N752 0.985 . S
C766 C767 1.363 . S
C766 C772 1.379 1_455 S
C766 N774 1.356 . S
C767 C766 1.363 . S
C767 C773 1.363 1_455 S
C768 C769 1.363 . S
C768 C773 1.379 . S
C768 N775 1.356 . S
C769 C768 1.363 . S
C769 C772 1.363 . S
N770 C772 1.356 . S
N770 H782 0.984 1_655 S
N770 H783 0.985 . S
N771 C773 1.356 . S
N771 H776 0.984 1_655 S
N771 H777 0.985 . S
C772 C766 1.379 1_655 S
C772 C769 1.363 . S
C772 N770 1.356 . S
C773 C767 1.363 1_655 S
C773 C768 1.379 . S
C773 N771 1.356 . S
N774 C766 1.356 . S
N774 H780 0.984 . S
N774 H781 0.984 . S
N775 C768 1.356 . S
N775 H778 0.984 . S
N775 H779 0.985 . S
H776 N771 0.984 1_455 S
H777 N771 0.985 . S
H778 N775 0.984 . S
H779 N775 0.985 . S
H780 N774 0.984 . S
H781 N774 0.984 . S
H782 N770 0.984 1_455 S
H783 N770 0.985 . S
C784 C785 1.363 . S
C784 C790 1.379 . S
C784 N792 1.356 . S
C785 C784 1.363 . S
C785 C791 1.363 . S
C786 C787 1.363 . S
C786 C791 1.379 . S
C786 N793 1.356 . S
C787 C786 1.363 . S
C787 C790 1.363 . S
N788 C790 1.356 . S
N788 H800 0.984 . S
N788 H801 0.985 1_556 S
N789 C791 1.356 . S
N789 H794 0.984 . S
N789 H795 0.985 . S
C790 C784 1.379 . S
C790 C787 1.363 . S
C790 N788 1.356 . S
C791 C785 1.363 . S
C791 C786 1.379 . S
C791 N789 1.356 . S
N792 C784 1.356 . S
N792 H798 0.984 . S
N792 H799 0.984 . S
N793 C786 1.356 . S
N793 H796 0.984 . S
N793 H797 0.985 . S
H794 N789 0.984 . S
H795 N789 0.985 . S
H796 N793 0.984 . S
H797 N793 0.985 . S
H798 N792 0.984 . S
H799 N792 0.984 . S
H800 N788 0.984 . S
H801 N788 0.985 1_554 S
C802 C803 1.363 . S
C802 C808 1.379 . S
C802 N810 1.356 . S
C803 C802 1.363 . S
C803 C809 1.363 . S
C804 C805 1.363 . S
C804 C809 1.379 . S
C804 N811 1.356 . S
C805 C804 1.363 . S
C805 C808 1.363 . S
N806 C808 1.356 . S
N806 H818 0.984 . S
N806 H819 0.985 . S
N807 C809 1.356 . S
N807 H812 0.984 . S
N807 H813 0.985 . S
C808 C802 1.379 . S
C808 C805 1.363 . S
C808 N806 1.356 . S
C809 C803 1.363 . S
C809 C804 1.379 . S
C809 N807 1.356 . S
N810 C802 1.356 . S
N810 H816 0.984 . S
N810 H817 0.984 . S
N811 C804 1.356 . S
N811 H814 0.984 . S
N811 H815 0.985 . S
H812 N807 0.984 . S
H813 N807 0.985 . S
H814 N811 0.984 . S
H815 N811 0.985 . S
H816 N810 0.984 . S
H817 N810 0.984 . S
H818 N806 0.984 . S
H819 N806 0.985 . S
C820 C821 1.363 . S
C820 C826 1.379 . S
C820 N828 1.356 . S
C821 C820 1.363 . S
C821 C827 1.363 . S
C822 C823 1.363 . S
C822 C827 1.379 . S
C822 N829 1.356 . S
C823 C822 1.363 . S
C823 C826 1.363 . S
N824 C826 1.356 . S
N824 H836 0.984 . S
N824 H837 0.985 . S
N825 C827 1.356 . S
N825 H830 0.984 . S
N825 H831 0.985 . S
C826 C820 1.379 . S
C826 C823 1.363 . S
C826 N824 1.356 . S
C827 C821 1.363 . S
C827 C822 1.379 . S
C827 N825 1.356 . S
N828 C820 1.356 . S
N828 H834 0.984 . S
N828 H835 0.984 . S
N829 C822 1.356 . S
N829 H832 0.984 . S
N829 H833 0.985 . S
H830 N825 0.984 . S
H831 N825 0.985 . S
H832 N829 0.984 . S
H833 N829 0.985 . S
H834 N828 0.984 . S
H835 N828 0.984 . S
H836 N824 0.984 . S
H837 N824 0.985 . S
C838 C839 1.363 . S
C838 C844 1.379 . S
C838 N846 1.356 . S
C839 C838 1.363 . S
C839 C845 1.363 . S
C840 C841 1.363 . S
C840 C845 1.379 . S
C840 N847 1.356 . S
C841 C840 1.363 . S
C841 C844 1.363 . S
N842 C844 1.356 . S
N842 H854 0.984 . S
N842 H855 0.985 . S
N843 C845 1.356 . S
N843 H848 0.984 . S
N843 H849 0.985 . S
C844 C838 1.379 . S
C844 C841 1.363 . S
C844 N842 1.356 . S
C845 C839 1.363 . S
C845 C840 1.379 . S
C845 N843 1.356 . S
N846 C838 1.356 . S
N846 H852 0.984 . S
N846 H853 0.984 . S
N847 C840 1.356 . S
N847 H850 0.984 . S
N847 H851 0.985 . S
H848 N843 0.984 . S
H849 N843 0.985 . S
H850 N847 0.984 . S
H851 N847 0.985 . S
H852 N846 0.984 . S
H853 N846 0.984 . S
H854 N842 0.984 . S
H855 N842 0.985 . S
C856 C857 1.363 . S
C856 C862 1.379 . S
C856 N864 1.356 . S
C857 C856 1.363 . S
C857 C863 1.363 . S
C858 C859 1.363 . S
C858 C863 1.379 . S
C858 N865 1.356 . S
C859 C858 1.363 . S
C859 C862 1.363 . S
N860 C862 1.356 . S
N860 H872 0.984 . S
N860 H873 0.985 . S
N861 C863 1.356 . S
N861 H866 0.984 1_554 S
N861 H867 0.985 . S
C862 C856 1.379 . S
C862 C859 1.363 . S
C862 N860 1.356 . S
C863 C857 1.363 . S
C863 C858 1.379 . S
C863 N861 1.356 . S
N864 C856 1.356 . S
N864 H870 0.984 . S
N864 H871 0.984 . S
N865 C858 1.356 . S
N865 H868 0.984 . S
N865 H869 0.985 . S
H866 N861 0.984 1_556 S
H867 N861 0.985 . S
H868 N865 0.984 . S
H869 N865 0.985 . S
H870 N864 0.984 . S
H871 N864 0.984 . S
H872 N860 0.984 . S
H873 N860 0.985 . S
C874 C875 1.363 . S
C874 C880 1.379 . S
C874 N882 1.356 . S
C875 C874 1.363 . S
C875 C881 1.363 . S
C876 C877 1.363 . S
C876 C881 1.379 . S
C876 N883 1.356 . S
C877 C876 1.363 . S
C877 C880 1.363 . S
N878 C880 1.356 . S
N878 H890 0.984 . S
N878 H891 0.985 . S
N879 C881 1.356 . S
N879 H884 0.984 . S
N879 H885 0.985 . S
C880 C874 1.379 . S
C880 C877 1.363 . S
C880 N878 1.356 . S
C881 C875 1.363 . S
C881 C876 1.379 . S
C881 N879 1.356 . S
N882 C874 1.356 . S
N882 H888 0.984 . S
N882 H889 0.984 . S
N883 C876 1.356 . S
N883 H886 0.984 . S
N883 H887 0.985 . S
H884 N879 0.984 . S
H885 N879 0.985 . S
H886 N883 0.984 . S
H887 N883 0.985 . S
H888 N882 0.984 . S
H889 N882 0.984 . S
H890 N878 0.984 . S
H891 N878 0.985 . S
C892 C893 1.363 . S
C892 C898 1.379 . S
C892 N900 1.356 . S
C893 C892 1.363 . S
C893 C899 1.363 . S
C894 C895 1.363 . S
C894 C899 1.379 . S
C894 N901 1.356 . S
C895 C894 1.363 . S
C895 C898 1.363 . S
N896 C898 1.356 . S
N896 H908 0.984 . S
N896 H909 0.985 . S
N897 C899 1.356 . S
N897 H902 0.984 . S
N897 H903 0.985 . S
C898 C892 1.379 . S
C898 C895 1.363 . S
C898 N896 1.356 . S
C899 C893 1.363 . S
C899 C894 1.379 . S
C899 N897 1.356 . S
N900 C892 1.356 . S
N900 H906 0.984 . S
N900 H907 0.984 . S
N901 C894 1.356 . S
N901 H904 0.984 . S
N901 H905 0.985 . S
H902 N897 0.984 . S
H903 N897 0.985 . S
H904 N901 0.984 . S
H905 N901 0.985 . S
H906 N900 0.984 . S
H907 N900 0.984 . S
H908 N896 0.984 . S
H909 N896 0.985 . S
C910 C911 1.363 . S
C910 C916 1.379 . S
C910 N918 1.356 . S
C911 C910 1.363 . S
C911 C917 1.363 . S
C912 C913 1.363 . S
C912 C917 1.379 . S
C912 N919 1.356 . S
C913 C912 1.363 . S
C913 C916 1.363 . S
N914 C916 1.356 . S
N914 H926 0.984 . S
N914 H927 0.985 . S
N915 C917 1.356 . S
N915 H920 0.984 . S
N915 H921 0.985 . S
C916 C910 1.379 . S
C916 C913 1.363 . S
C916 N914 1.356 . S
C917 C911 1.363 . S
C917 C912 1.379 . S
C917 N915 1.356 . S
N918 C910 1.356 . S
N918 H924 0.984 . S
N918 H925 0.984 . S
N919 C912 1.356 . S
N919 H922 0.984 . S
N919 H923 0.985 . S
H920 N915 0.984 . S
H921 N915 0.985 . S
H922 N919 0.984 . S
H923 N919 0.985 . S
H924 N918 0.984 . S
H925 N918 0.984 . S
H926 N914 0.984 . S
H927 N914 0.985 . S
C928 C929 1.363 . S
C928 C934 1.379 . S
C928 N936 1.356 . S
C929 C928 1.363 . S
C929 C935 1.363 . S
C930 C931 1.363 . S
C930 C935 1.379 . S
C930 N937 1.356 . S
C931 C930 1.363 . S
C931 C934 1.363 . S
N932 C934 1.356 . S
N932 H944 0.984 . S
N932 H945 0.985 . S
N933 C935 1.356 . S
N933 H938 0.984 . S
N933 H939 0.985 . S
C934 C928 1.379 . S
C934 C931 1.363 . S
C934 N932 1.356 . S
C935 C929 1.363 . S
C935 C930 1.379 . S
C935 N933 1.356 . S
N936 C928 1.356 . S
N936 H942 0.984 . S
N936 H943 0.984 . S
N937 C930 1.356 . S
N937 H940 0.984 . S
N937 H941 0.985 . S
H938 N933 0.984 . S
H939 N933 0.985 . S
H940 N937 0.984 . S
H941 N937 0.985 . S
H942 N936 0.984 . S
H943 N936 0.984 . S
H944 N932 0.984 . S
H945 N932 0.985 . S
C946 C947 1.363 1_565 S
C946 C952 1.379 . S
C946 N954 1.356 1_565 S
C947 C946 1.363 1_545 S
C947 C953 1.363 . S
C948 C949 1.363 . S
C948 C953 1.379 1_565 S
C948 N955 1.356 . S
C949 C948 1.363 . S
C949 C952 1.363 . S
N950 C952 1.356 . S
N950 H962 0.984 . S
N950 H963 0.985 . S
N951 C953 1.356 . S
N951 H956 0.984 . S
N951 H957 0.985 . S
C952 C946 1.379 . S
C952 C949 1.363 . S
C952 N950 1.356 . S
C953 C947 1.363 . S
C953 C948 1.379 1_545 S
C953 N951 1.356 . S
N954 C946 1.356 1_545 S
N954 H960 0.984 1_545 S
N954 H961 0.984 . S
N955 C948 1.356 . S
N955 H958 0.984 . S
N955 H959 0.985 . S
H956 N951 0.984 . S
H957 N951 0.985 . S
H958 N955 0.984 . S
H959 N955 0.985 . S
H960 N954 0.984 1_565 S
H961 N954 0.984 . S
H962 N950 0.984 . S
H963 N950 0.985 . S
C964 C965 1.363 . S
C964 C970 1.379 . S
C964 N972 1.356 . S
C965 C964 1.363 . S
C965 C971 1.363 . S
C966 C967 1.363 . S
C966 C971 1.379 . S
C966 N973 1.356 . S
C967 C966 1.363 . S
C967 C970 1.363 . S
N968 C970 1.356 . S
N968 H980 0.984 . S
N968 H981 0.985 . S
N969 C971 1.356 . S
N969 H974 0.984 . S
N969 H975 0.985 . S
C970 C964 1.379 . S
C970 C967 1.363 . S
C970 N968 1.356 . S
C971 C965 1.363 . S
C971 C966 1.379 . S
C971 N969 1.356 . S
N972 C964 1.356 . S
N972 H978 0.984 . S
N972 H979 0.984 . S
N973 C966 1.356 . S
N973 H976 0.984 . S
N973 H977 0.985 . S
H974 N969 0.984 . S
H975 N969 0.985 . S
H976 N973 0.984 . S
H977 N973 0.985 . S
H978 N972 0.984 . S
H979 N972 0.984 . S
H980 N968 0.984 . S
H981 N968 0.985 . S
C982 C983 1.363 . S
C982 C988 1.379 . S
C982 N990 1.356 . S
C983 C982 1.363 . S
C983 C989 1.363 . S
C984 C985 1.363 . S
C984 C989 1.379 . S
C984 N991 1.356 . S
C985 C984 1.363 . S
C985 C988 1.363 . S
N986 C988 1.356 . S
N986 H998 0.984 . S
N986 H999 0.985 . S
N987 C989 1.356 1_565 S
N987 H992 0.984 . S
N987 H993 0.985 . S
C988 C982 1.379 . S
C988 C985 1.363 . S
C988 N986 1.356 . S
C989 C983 1.363 . S
C989 C984 1.379 . S
C989 N987 1.356 1_545 S
N990 C982 1.356 . S
N990 H996 0.984 . S
N990 H997 0.984 1_545 S
N991 C984 1.356 . S
N991 H994 0.984 . S
N991 H995 0.985 . S
H992 N987 0.984 . S
H993 N987 0.985 . S
H994 N991 0.984 . S
H995 N991 0.985 . S
H996 N990 0.984 . S
H997 N990 0.984 1_565 S
H998 N986 0.984 . S
H999 N986 0.985 . S
C1000 C1001 1.363 . S
C1000 C1006 1.379 . S
C1000 N1008 1.356 . S
C1001 C1000 1.363 . S
C1001 C1007 1.363 . S
C1002 C1003 1.363 . S
C1002 C1007 1.379 . S
C1002 N1009 1.356 . S
C1003 C1002 1.363 . S
C1003 C1006 1.363 . S
N1004 C1006 1.356 . S
N1004 H1016 0.984 . S
N1004 H1017 0.985 . S
N1005 C1007 1.356 . S
N1005 H1010 0.984 . S
N1005 H1011 0.985 . S
C1006 C1000 1.379 . S
C1006 C1003 1.363 . S
C1006 N1004 1.356 . S
C1007 C1001 1.363 . S
C1007 C1002 1.379 . S
C1007 N1005 1.356 . S
N1008 C1000 1.356 . S
N1008 H1014 0.984 . S
N1008 H1015 0.984 . S
N1009 C1002 1.356 . S
N1009 H1012 0.984 . S
N1009 H1013 0.985 . S
H1010 N1005 0.984 . S
H1011 N1005 0.985 . S
H1012 N1009 0.984 . S
H1013 N1009 0.985 . S
H1014 N1008 0.984 . S
H1015 N1008 0.984 . S
H1016 N1004 0.984 . S
H1017 N1004 0.985 . S
C1018 C1019 1.363 . S
C1018 C1024 1.379 1_545 S
C1018 N1026 1.356 . S
C1019 C1018 1.363 . S
C1019 C1025 1.363 . S
C1020 C1021 1.363 1_545 S
C1020 C1025 1.379 . S
C1020 N1027 1.356 . S
C1021 C1020 1.363 1_565 S
C1021 C1024 1.363 . S
N1022 C1024 1.356 . S
N1022 H1034 0.984 . S
N1022 H1035 0.985 . S
N1023 C1025 1.356 . S
N1023 H1028 0.984 . S
N1023 H1029 0.985 . S
C1024 C1018 1.379 1_565 S
C1024 C1021 1.363 . S
C1024 N1022 1.356 . S
C1025 C1019 1.363 . S
C1025 C1020 1.379 . S
C1025 N1023 1.356 . S
N1026 C1018 1.356 . S
N1026 H1032 0.984 . S
N1026 H1033 0.984 . S
N1027 C1020 1.356 . S
N1027 H1030 0.984 1_545 S
N1027 H1031 0.985 . S
H1028 N1023 0.984 . S
H1029 N1023 0.985 . S
H1030 N1027 0.984 1_565 S
H1031 N1027 0.985 . S
H1032 N1026 0.984 . S
H1033 N1026 0.984 . S
H1034 N1022 0.984 . S
H1035 N1022 0.985 . S
C1036 C1037 1.363 . S
C1036 C1042 1.379 . S
C1036 N1044 1.356 . S
C1037 C1036 1.363 . S
C1037 C1043 1.363 . S
C1038 C1039 1.363 . S
C1038 C1043 1.379 . S
C1038 N1045 1.356 . S
C1039 C1038 1.363 . S
C1039 C1042 1.363 . S
N1040 C1042 1.356 . S
N1040 H1052 0.984 . S
N1040 H1053 0.985 . S
N1041 C1043 1.356 . S
N1041 H1046 0.984 . S
N1041 H1047 0.985 . S
C1042 C1036 1.379 . S
C1042 C1039 1.363 . S
C1042 N1040 1.356 . S
C1043 C1037 1.363 . S
C1043 C1038 1.379 . S
C1043 N1041 1.356 . S
N1044 C1036 1.356 . S
N1044 H1050 0.984 . S
N1044 H1051 0.984 . S
N1045 C1038 1.356 . S
N1045 H1048 0.984 . S
N1045 H1049 0.985 . S
H1046 N1041 0.984 . S
H1047 N1041 0.985 . S
H1048 N1045 0.984 . S
H1049 N1045 0.985 . S
H1050 N1044 0.984 . S
H1051 N1044 0.984 . S
H1052 N1040 0.984 . S
H1053 N1040 0.985 . S
C1054 C1055 1.363 . S
C1054 C1060 1.379 . S
C1054 N1062 1.356 . S
C1055 C1054 1.363 . S
C1055 C1061 1.363 . S
C1056 C1057 1.363 . S
C1056 C1061 1.379 . S
C1056 N1063 1.356 . S
C1057 C1056 1.363 . S
C1057 C1060 1.363 . S
N1058 C1060 1.356 . S
N1058 H1070 0.984 . S
N1058 H1071 0.985 . S
N1059 C1061 1.356 1_545 S
N1059 H1064 0.984 . S
N1059 H1065 0.985 . S
C1060 C1054 1.379 . S
C1060 C1057 1.363 . S
C1060 N1058 1.356 . S
C1061 C1055 1.363 . S
C1061 C1056 1.379 . S
C1061 N1059 1.356 1_565 S
N1062 C1054 1.356 . S
N1062 H1068 0.984 . S
N1062 H1069 0.984 1_565 S
N1063 C1056 1.356 . S
N1063 H1066 0.984 . S
N1063 H1067 0.985 . S
H1064 N1059 0.984 . S
H1065 N1059 0.985 . S
H1066 N1063 0.984 . S
H1067 N1063 0.985 . S
H1068 N1062 0.984 . S
H1069 N1062 0.984 1_545 S
H1070 N1058 0.984 . S
H1071 N1058 0.985 . S
C1072 C1073 1.363 . S
C1072 C1078 1.379 . S
C1072 N1080 1.356 1_556 S
C1073 C1072 1.363 . S
C1073 C1079 1.363 . S
C1074 C1075 1.363 . S
C1074 C1079 1.379 . S
C1074 N1081 1.356 . S
C1075 C1074 1.363 . S
C1075 C1078 1.363 . S
N1076 C1078 1.356 . S
N1076 H1088 0.984 . S
N1076 H1089 0.985 . S
N1077 C1079 1.356 . S
N1077 H1082 0.984 . S
N1077 H1083 0.985 . S
C1078 C1072 1.379 . S
C1078 C1075 1.363 . S
C1078 N1076 1.356 . S
C1079 C1073 1.363 . S
C1079 C1074 1.379 . S
C1079 N1077 1.356 . S
N1080 C1072 1.356 1_554 S
N1080 H1086 0.984 . S
N1080 H1087 0.984 . S
N1081 C1074 1.356 . S
N1081 H1084 0.984 . S
N1081 H1085 0.985 . S
H1082 N1077 0.984 . S
H1083 N1077 0.985 . S
H1084 N1081 0.984 . S
H1085 N1081 0.985 . S
H1086 N1080 0.984 . S
H1087 N1080 0.984 . S
H1088 N1076 0.984 . S
H1089 N1076 0.985 . S
C1090 C1091 1.363 . S
C1090 C1096 1.379 1_554 S
C1090 N1098 1.356 . S
C1091 C1090 1.363 . S
C1091 C1097 1.363 1_554 S
C1092 C1093 1.363 . S
C1092 C1097 1.379 . S
C1092 N1099 1.356 . S
C1093 C1092 1.363 . S
C1093 C1096 1.363 . S
N1094 C1096 1.359 1_554 S
N1094 H1106 0.994 . S
N1094 H1107 0.972 1_554 S
N1095 C1097 1.356 . S
N1095 H1100 0.984 . S
N1095 H1101 0.985 . S
C1096 C1090 1.379 1_556 S
C1096 C1093 1.363 . S
C1096 N1094 1.359 1_556 S
C1097 C1091 1.363 1_556 S
C1097 C1092 1.379 . S
C1097 N1095 1.356 . S
N1098 C1090 1.356 . S
N1098 H1104 0.984 . S
N1098 H1105 0.984 . S
N1099 C1092 1.356 . S
N1099 H1102 0.984 . S
N1099 H1103 0.985 . S
H1100 N1095 0.984 . S
H1101 N1095 0.985 . S
H1102 N1099 0.984 . S
H1103 N1099 0.985 . S
H1104 N1098 0.984 . S
H1105 N1098 0.984 . S
H1106 N1094 0.994 . S
H1107 N1094 0.972 1_556 S
C1108 C1109 1.363 . S
C1108 C1114 1.379 . S
C1108 N1116 1.356 . S
C1109 C1108 1.363 . S
C1109 C1115 1.363 . S
C1110 C1111 1.363 . S
C1110 C1115 1.379 . S
C1110 N1117 1.356 . S
C1111 C1110 1.363 . S
C1111 C1114 1.363 . S
N1112 C1114 1.356 . S
N1112 H1124 0.984 . S
N1112 H1125 0.985 . S
N1113 C1115 1.356 . S
N1113 H1118 0.984 . S
N1113 H1119 0.985 . S
C1114 C1108 1.379 . S
C1114 C1111 1.363 . S
C1114 N1112 1.356 . S
C1115 C1109 1.363 . S
C1115 C1110 1.379 . S
C1115 N1113 1.356 . S
N1116 C1108 1.356 . S
N1116 H1122 0.984 . S
N1116 H1123 0.984 . S
N1117 C1110 1.356 . S
N1117 H1120 0.984 . S
N1117 H1121 0.976 1_655 S
H1118 N1113 0.984 . S
H1119 N1113 0.985 . S
H1120 N1117 0.984 . S
H1121 N1117 0.976 1_455 S
H1122 N1116 0.984 . S
H1123 N1116 0.984 . S
H1124 N1112 0.984 . S
H1125 N1112 0.985 . S
C1126 C1127 1.363 . S
C1126 C1132 1.379 . S
C1126 N1134 1.356 . S
C1127 C1126 1.363 . S
C1127 C1133 1.363 . S
C1128 C1129 1.363 . S
C1128 C1133 1.379 . S
C1128 N1135 1.356 . S
C1129 C1128 1.363 . S
C1129 C1132 1.363 . S
N1130 C1132 1.356 . S
N1130 H1142 0.984 . S
N1130 H1143 0.985 . S
N1131 C1133 1.356 . S
N1131 H1136 0.984 . S
N1131 H1137 0.985 . S
C1132 C1126 1.379 . S
C1132 C1129 1.363 . S
C1132 N1130 1.356 . S
C1133 C1127 1.363 . S
C1133 C1128 1.379 . S
C1133 N1131 1.356 . S
N1134 C1126 1.356 . S
N1134 H1140 0.984 . S
N1134 H1141 0.984 . S
N1135 C1128 1.356 . S
N1135 H1138 0.984 . S
N1135 H1139 0.985 . S
H1136 N1131 0.984 . S
H1137 N1131 0.985 . S
H1138 N1135 0.984 . S
H1139 N1135 0.985 . S
H1140 N1134 0.984 . S
H1141 N1134 0.984 . S
H1142 N1130 0.984 . S
H1143 N1130 0.985 . S
C1144 C1145 1.363 . S
C1144 C1150 1.379 . S
C1144 N1152 1.356 1_554 S
C1145 C1144 1.363 . S
C1145 C1151 1.363 . S
C1146 C1147 1.363 . S
C1146 C1151 1.379 . S
C1146 N1153 1.356 . S
C1147 C1146 1.363 . S
C1147 C1150 1.363 . S
N1148 C1150 1.356 . S
N1148 H1160 0.984 . S
N1148 H1161 0.985 . S
N1149 C1151 1.356 . S
N1149 H1154 0.984 . S
N1149 H1155 0.985 . S
C1150 C1144 1.379 . S
C1150 C1147 1.363 . S
C1150 N1148 1.356 . S
C1151 C1145 1.363 . S
C1151 C1146 1.379 . S
C1151 N1149 1.356 . S
N1152 C1144 1.356 1_556 S
N1152 H1158 0.984 . S
N1152 H1159 0.984 . S
N1153 C1146 1.356 . S
N1153 H1156 0.984 . S
N1153 H1157 0.985 . S
H1154 N1149 0.984 . S
H1155 N1149 0.985 . S
H1156 N1153 0.984 . S
H1157 N1153 0.985 . S
H1158 N1152 0.984 . S
H1159 N1152 0.984 . S
H1160 N1148 0.984 . S
H1161 N1148 0.985 . S
C1162 C1163 1.363 . S
C1162 C1168 1.379 1_556 S
C1162 N1170 1.356 . S
C1163 C1162 1.363 . S
C1163 C1169 1.363 1_556 S
C1164 C1165 1.363 . S
C1164 C1169 1.379 . S
C1164 N1171 1.356 . S
C1165 C1164 1.363 . S
C1165 C1168 1.363 . S
N1166 C1168 1.356 . S
N1166 H1178 0.984 . S
N1166 H1179 0.985 . S
N1167 C1169 1.356 1_556 S
N1167 H1172 0.984 . S
N1167 H1173 0.985 . S
C1168 C1162 1.379 1_554 S
C1168 C1165 1.363 . S
C1168 N1166 1.356 . S
C1169 C1163 1.363 1_554 S
C1169 C1164 1.379 . S
C1169 N1167 1.356 1_554 S
N1170 C1162 1.356 . S
N1170 H1176 0.984 . S
N1170 H1177 0.984 . S
N1171 C1164 1.356 . S
N1171 H1174 0.984 . S
N1171 H1175 0.985 . S
H1172 N1167 0.984 . S
H1173 N1167 0.985 . S
H1174 N1171 0.984 . S
H1175 N1171 0.985 . S
H1176 N1170 0.984 . S
H1177 N1170 0.984 . S
H1178 N1166 0.984 . S
H1179 N1166 0.985 . S
C1180 C1181 1.363 . S
C1180 C1186 1.379 . S
C1180 N1188 1.356 . S
C1181 C1180 1.363 . S
C1181 C1187 1.363 . S
C1182 C1183 1.363 . S
C1182 C1187 1.379 . S
C1182 N1189 1.356 . S
C1183 C1182 1.363 . S
C1183 C1186 1.363 . S
N1184 C1186 1.356 . S
N1184 H1196 0.984 . S
N1184 H1197 0.985 . S
N1185 C1187 1.356 . S
N1185 H1190 0.984 . S
N1185 H1191 0.985 . S
C1186 C1180 1.379 . S
C1186 C1183 1.363 . S
C1186 N1184 1.356 . S
C1187 C1181 1.363 . S
C1187 C1182 1.379 . S
C1187 N1185 1.356 . S
N1188 C1180 1.356 . S
N1188 H1194 0.984 . S
N1188 H1195 0.984 . S
N1189 C1182 1.356 . S
N1189 H1192 0.984 . S
N1189 H1193 0.985 . S
H1190 N1185 0.984 . S
H1191 N1185 0.985 . S
H1192 N1189 0.984 . S
H1193 N1189 0.985 . S
H1194 N1188 0.984 . S
H1195 N1188 0.984 . S
H1196 N1184 0.984 . S
H1197 N1184 0.985 . S
C1198 C1199 1.363 . S
C1198 C1204 1.379 . S
C1198 N1206 1.356 . S
C1199 C1198 1.363 . S
C1199 C1205 1.363 . S
C1200 C1201 1.363 . S
C1200 C1205 1.379 . S
C1200 N1207 1.356 . S
C1201 C1200 1.363 . S
C1201 C1204 1.363 . S
N1202 C1204 1.356 . S
N1202 H1214 0.984 . S
N1202 H1215 0.985 . S
N1203 C1205 1.356 . S
N1203 H1208 0.984 . S
N1203 H1209 0.985 . S
C1204 C1198 1.379 . S
C1204 C1201 1.363 . S
C1204 N1202 1.356 . S
C1205 C1199 1.363 . S
C1205 C1200 1.379 . S
C1205 N1203 1.356 . S
N1206 C1198 1.356 . S
N1206 H1212 0.984 . S
N1206 H1213 0.984 . S
N1207 C1200 1.356 . S
N1207 H1210 0.984 . S
N1207 H1211 0.985 . S
H1208 N1203 0.984 . S
H1209 N1203 0.985 . S
H1210 N1207 0.984 . S
H1211 N1207 0.985 . S
H1212 N1206 0.984 . S
H1213 N1206 0.984 . S
H1214 N1202 0.984 . S
H1215 N1202 0.985 . S
C1216 C1217 1.363 . S
C1216 C1222 1.379 . S
C1216 N1224 1.356 . S
C1217 C1216 1.363 . S
C1217 C1223 1.363 . S
C1218 C1219 1.363 . S
C1218 C1223 1.379 . S
C1218 N1225 1.356 . S
C1219 C1218 1.363 . S
C1219 C1222 1.363 . S
N1220 C1222 1.356 1_455 S
N1220 H1232 0.984 . S
N1220 H1233 0.985 . S
N1221 C1223 1.356 . S
N1221 H1226 0.984 . S
N1221 H1227 0.985 . S
C1222 C1216 1.379 . S
C1222 C1219 1.363 . S
C1222 N1220 1.356 1_655 S
C1223 C1217 1.363 . S
C1223 C1218 1.379 . S
C1223 N1221 1.356 . S
N1224 C1216 1.356 . S
N1224 H1230 0.984 . S
N1224 H1231 0.984 . S
N1225 C1218 1.356 . S
N1225 H1228 0.971 1_655 S
N1225 H1229 0.985 . S
H1226 N1221 0.984 . S
H1227 N1221 0.985 . S
H1228 N1225 0.971 1_455 S
H1229 N1225 0.985 . S
H1230 N1224 0.984 . S
H1231 N1224 0.984 . S
H1232 N1220 0.984 . S
H1233 N1220 0.985 . S
C1234 C1235 1.363 . S
C1234 C1240 1.379 . S
C1234 N1242 1.356 . S
C1235 C1234 1.363 . S
C1235 C1241 1.363 . S
C1236 C1237 1.363 . S
C1236 C1241 1.379 . S
C1236 N1243 1.356 . S
C1237 C1236 1.363 . S
C1237 C1240 1.363 . S
N1238 C1240 1.356 . S
N1238 H1250 0.984 . S
N1238 H1251 0.985 . S
N1239 C1241 1.356 . S
N1239 H1244 0.984 . S
N1239 H1245 0.985 . S
C1240 C1234 1.379 . S
C1240 C1237 1.363 . S
C1240 N1238 1.356 . S
C1241 C1235 1.363 . S
C1241 C1236 1.379 . S
C1241 N1239 1.356 . S
N1242 C1234 1.356 . S
N1242 H1248 0.984 . S
N1242 H1249 0.984 . S
N1243 C1236 1.356 . S
N1243 H1246 0.984 . S
N1243 H1247 0.985 . S
H1244 N1239 0.984 . S
H1245 N1239 0.985 . S
H1246 N1243 0.984 . S
H1247 N1243 0.985 . S
H1248 N1242 0.984 . S
H1249 N1242 0.984 . S
H1250 N1238 0.984 . S
H1251 N1238 0.985 . S
C1252 C1253 1.363 . S
C1252 C1258 1.379 . S
C1252 N1260 1.356 . S
C1253 C1252 1.363 . S
C1253 C1259 1.363 . S
C1254 C1255 1.363 . S
C1254 C1259 1.379 . S
C1254 N1261 1.356 . S
C1255 C1254 1.363 . S
C1255 C1258 1.363 . S
N1256 C1258 1.356 . S
N1256 H1268 0.984 . S
N1256 H1269 0.985 . S
N1257 C1259 1.356 . S
N1257 H1262 0.984 . S
N1257 H1263 0.985 . S
C1258 C1252 1.379 . S
C1258 C1255 1.363 . S
C1258 N1256 1.356 . S
C1259 C1253 1.363 . S
C1259 C1254 1.379 . S
C1259 N1257 1.356 . S
N1260 C1252 1.356 . S
N1260 H1266 0.984 . S
N1260 H1267 0.984 . S
N1261 C1254 1.356 . S
N1261 H1264 0.984 . S
N1261 H1265 0.985 . S
H1262 N1257 0.984 . S
H1263 N1257 0.985 . S
H1264 N1261 0.984 . S
H1265 N1261 0.985 . S
H1266 N1260 0.984 . S
H1267 N1260 0.984 . S
H1268 N1256 0.984 . S
H1269 N1256 0.985 . S
C1270 C1271 1.363 1_556 S
C1270 C1276 1.379 . S
C1270 N1278 1.356 . S
C1271 C1270 1.363 1_554 S
C1271 C1277 1.363 . S
C1272 C1273 1.363 . S
C1272 C1277 1.379 . S
C1272 N1279 1.356 . S
C1273 C1272 1.363 . S
C1273 C1276 1.363 1_554 S
N1274 C1276 1.356 . S
N1274 H1286 0.984 . S
N1274 H1287 0.985 . S
N1275 C1277 1.356 . S
N1275 H1280 0.984 . S
N1275 H1281 0.985 . S
C1276 C1270 1.379 . S
C1276 C1273 1.363 1_556 S
C1276 N1274 1.356 . S
C1277 C1271 1.363 . S
C1277 C1272 1.379 . S
C1277 N1275 1.356 . S
N1278 C1270 1.356 . S
N1278 H1284 0.984 . S
N1278 H1285 0.984 . S
N1279 C1272 1.356 . S
N1279 H1282 0.984 . S
N1279 H1283 0.985 . S
H1280 N1275 0.984 . S
H1281 N1275 0.985 . S
H1282 N1279 0.984 . S
H1283 N1279 0.985 . S
H1284 N1278 0.984 . S
H1285 N1278 0.984 . S
H1286 N1274 0.984 . S
H1287 N1274 0.985 . S
C1288 C1289 1.363 . S
C1288 C1294 1.379 . S
C1288 N1296 1.356 . S
C1289 C1288 1.363 . S
C1289 C1295 1.363 . S
C1290 C1291 1.363 . S
C1290 C1295 1.379 . S
C1290 N1297 1.356 1_455 S
C1291 C1290 1.363 . S
C1291 C1294 1.363 . S
N1292 C1294 1.356 . S
N1292 H1304 0.984 . S
N1292 H1305 0.985 1_455 S
N1293 C1295 1.356 . S
N1293 H1298 0.984 . S
N1293 H1299 0.985 . S
C1294 C1288 1.379 . S
C1294 C1291 1.363 . S
C1294 N1292 1.356 . S
C1295 C1289 1.363 . S
C1295 C1290 1.379 . S
C1295 N1293 1.356 . S
N1296 C1288 1.356 . S
N1296 H1302 0.984 . S
N1296 H1303 0.984 . S
N1297 C1290 1.356 1_655 S
N1297 H1300 0.984 . S
N1297 H1301 0.985 . S
H1298 N1293 0.984 . S
H1299 N1293 0.985 . S
H1300 N1297 0.984 . S
H1301 N1297 0.985 . S
H1302 N1296 0.984 . S
H1303 N1296 0.984 . S
H1304 N1292 0.984 . S
H1305 N1292 0.985 1_655 S
C1306 C1307 1.363 . S
C1306 C1312 1.379 . S
C1306 N1314 1.356 . S
C1307 C1306 1.363 . S
C1307 C1313 1.363 . S
C1308 C1309 1.363 . S
C1308 C1313 1.379 . S
C1308 N1315 1.356 . S
C1309 C1308 1.363 . S
C1309 C1312 1.363 . S
N1310 C1312 1.356 . S
N1310 H1322 0.984 . S
N1310 H1323 0.985 . S
N1311 C1313 1.356 . S
N1311 H1316 0.984 . S
N1311 H1317 0.985 . S
C1312 C1306 1.379 . S
C1312 C1309 1.363 . S
C1312 N1310 1.356 . S
C1313 C1307 1.363 . S
C1313 C1308 1.379 . S
C1313 N1311 1.356 . S
N1314 C1306 1.356 . S
N1314 H1320 0.984 . S
N1314 H1321 0.984 . S
N1315 C1308 1.356 . S
N1315 H1318 0.984 . S
N1315 H1319 0.985 . S
H1316 N1311 0.984 . S
H1317 N1311 0.985 . S
H1318 N1315 0.984 . S
H1319 N1315 0.985 . S
H1320 N1314 0.984 . S
H1321 N1314 0.984 . S
H1322 N1310 0.984 . S
H1323 N1310 0.985 . S
C1324 C1325 1.363 . S
C1324 C1330 1.379 . S
C1324 N1332 1.356 . S
C1325 C1324 1.363 . S
C1325 C1331 1.363 . S
C1326 C1327 1.363 . S
C1326 C1331 1.379 . S
C1326 N1333 1.356 . S
C1327 C1326 1.363 . S
C1327 C1330 1.363 . S
N1328 C1330 1.356 . S
N1328 H1340 0.984 . S
N1328 H1341 0.985 . S
N1329 C1331 1.356 . S
N1329 H1334 0.984 . S
N1329 H1335 0.985 . S
C1330 C1324 1.379 . S
C1330 C1327 1.363 . S
C1330 N1328 1.356 . S
C1331 C1325 1.363 . S
C1331 C1326 1.379 . S
C1331 N1329 1.356 . S
N1332 C1324 1.356 . S
N1332 H1338 0.984 . S
N1332 H1339 0.984 . S
N1333 C1326 1.356 . S
N1333 H1336 0.984 . S
N1333 H1337 0.985 . S
H1334 N1329 0.984 . S
H1335 N1329 0.985 . S
H1336 N1333 0.984 . S
H1337 N1333 0.985 . S
H1338 N1332 0.984 . S
H1339 N1332 0.984 . S
H1340 N1328 0.984 . S
H1341 N1328 0.985 . S
C1342 C1343 1.363 . S
C1342 C1348 1.379 . S
C1342 N1350 1.356 1_556 S
C1343 C1342 1.363 . S
C1343 C1349 1.363 . S
C1344 C1345 1.363 . S
C1344 C1349 1.379 . S
C1344 N1351 1.356 . S
C1345 C1344 1.363 . S
C1345 C1348 1.363 . S
N1346 C1348 1.356 . S
N1346 H1358 0.984 . S
N1346 H1359 0.985 . S
N1347 C1349 1.356 . S
N1347 H1352 0.984 1_556 S
N1347 H1353 0.985 . S
C1348 C1342 1.379 . S
C1348 C1345 1.363 . S
C1348 N1346 1.356 . S
C1349 C1343 1.363 . S
C1349 C1344 1.379 . S
C1349 N1347 1.356 . S
N1350 C1342 1.356 1_554 S
N1350 H1356 0.984 . S
N1350 H1357 0.984 . S
N1351 C1344 1.356 . S
N1351 H1354 0.984 . S
N1351 H1355 0.985 . S
H1352 N1347 0.984 1_554 S
H1353 N1347 0.985 . S
H1354 N1351 0.984 . S
H1355 N1351 0.985 . S
H1356 N1350 0.984 . S
H1357 N1350 0.984 . S
H1358 N1346 0.984 . S
H1359 N1346 0.985 . S
C1360 C1361 1.363 . S
C1360 C1366 1.379 . S
C1360 N1368 1.356 . S
C1361 C1360 1.363 . S
C1361 C1367 1.363 . S
C1362 C1363 1.363 . S
C1362 C1367 1.379 . S
C1362 N1369 1.356 . S
C1363 C1362 1.363 . S
C1363 C1366 1.363 . S
N1364 C1366 1.356 . S
N1364 H1376 0.984 . S
N1364 H1377 0.985 . S
N1365 C1367 1.356 . S
N1365 H1370 0.984 . S
N1365 H1371 0.985 . S
C1366 C1360 1.379 . S
C1366 C1363 1.363 . S
C1366 N1364 1.356 . S
C1367 C1361 1.363 . S
C1367 C1362 1.379 . S
C1367 N1365 1.356 . S
N1368 C1360 1.356 . S
N1368 H1374 0.984 . S
N1368 H1375 0.984 . S
N1369 C1362 1.356 . S
N1369 H1372 0.984 . S
N1369 H1373 0.985 . S
H1370 N1365 0.984 . S
H1371 N1365 0.985 . S
H1372 N1369 0.984 . S
H1373 N1369 0.985 . S
H1374 N1368 0.984 . S
H1375 N1368 0.984 . S
H1376 N1364 0.984 . S
H1377 N1364 0.985 . S
C1378 C1379 1.363 . S
C1378 C1384 1.379 . S
C1378 N1386 1.356 . S
C1379 C1378 1.363 . S
C1379 C1385 1.363 . S
C1380 C1381 1.363 . S
C1380 C1385 1.379 . S
C1380 N1387 1.356 . S
C1381 C1380 1.363 . S
C1381 C1384 1.363 . S
N1382 C1384 1.356 . S
N1382 H1394 0.984 . S
N1382 H1395 0.985 . S
N1383 C1385 1.356 . S
N1383 H1388 0.984 . S
N1383 H1389 0.985 . S
C1384 C1378 1.379 . S
C1384 C1381 1.363 . S
C1384 N1382 1.356 . S
C1385 C1379 1.363 . S
C1385 C1380 1.379 . S
C1385 N1383 1.356 . S
N1386 C1378 1.356 . S
N1386 H1392 0.984 . S
N1386 H1393 0.984 . S
N1387 C1380 1.356 . S
N1387 H1390 0.984 . S
N1387 H1391 0.985 . S
H1388 N1383 0.984 . S
H1389 N1383 0.985 . S
H1390 N1387 0.984 . S
H1391 N1387 0.985 . S
H1392 N1386 0.984 . S
H1393 N1386 0.984 . S
H1394 N1382 0.984 . S
H1395 N1382 0.985 . S
C1396 C1397 1.363 . S
C1396 C1402 1.379 . S
C1396 N1404 1.356 . S
C1397 C1396 1.363 . S
C1397 C1403 1.363 . S
C1398 C1399 1.363 . S
C1398 C1403 1.379 . S
C1398 N1405 1.356 . S
C1399 C1398 1.363 . S
C1399 C1402 1.363 . S
N1400 C1402 1.356 . S
N1400 H1412 0.984 . S
N1400 H1413 0.985 . S
N1401 C1403 1.356 . S
N1401 H1406 0.984 . S
N1401 H1407 0.985 . S
C1402 C1396 1.379 . S
C1402 C1399 1.363 . S
C1402 N1400 1.356 . S
C1403 C1397 1.363 . S
C1403 C1398 1.379 . S
C1403 N1401 1.356 . S
N1404 C1396 1.356 . S
N1404 H1410 0.984 . S
N1404 H1411 0.984 . S
N1405 C1398 1.356 . S
N1405 H1408 0.984 . S
N1405 H1409 0.985 . S
H1406 N1401 0.984 . S
H1407 N1401 0.985 . S
H1408 N1405 0.984 . S
H1409 N1405 0.985 . S
H1410 N1404 0.984 . S
H1411 N1404 0.984 . S
H1412 N1400 0.984 . S
H1413 N1400 0.985 . S
C1414 C1415 1.363 1_556 S
C1414 C1420 1.379 1_455 S
C1414 N1422 1.356 . S
C1415 C1414 1.363 1_554 S
C1415 C1421 1.363 . S
C1416 C1417 1.363 1_554 S
C1416 C1421 1.379 1_655 S
C1416 N1423 1.356 . S
C1417 C1416 1.363 1_556 S
C1417 C1420 1.363 . S
N1418 C1420 1.356 . S
N1418 H1430 0.984 . S
N1418 H1431 0.985 . S
N1419 C1421 1.356 . S
N1419 H1424 0.984 . S
N1419 H1425 0.985 . S
C1420 C1414 1.379 1_655 S
C1420 C1417 1.363 . S
C1420 N1418 1.356 . S
C1421 C1415 1.363 . S
C1421 C1416 1.379 1_455 S
C1421 N1419 1.356 . S
N1422 C1414 1.356 . S
N1422 H1428 0.984 . S
N1422 H1429 0.984 1_556 S
N1423 C1416 1.356 . S
N1423 H1426 0.984 1_554 S
N1423 H1427 0.985 . S
H1424 N1419 0.984 . S
H1425 N1419 0.985 . S
H1426 N1423 0.984 1_556 S
H1427 N1423 0.985 . S
H1428 N1422 0.984 . S
H1429 N1422 0.984 1_554 S
H1430 N1418 0.984 . S
H1431 N1418 0.985 . S
C1432 C1433 1.363 . S
C1432 C1438 1.379 . S
C1432 N1440 1.356 . S
C1433 C1432 1.363 . S
C1433 C1439 1.363 . S
C1434 C1435 1.363 . S
C1434 C1439 1.379 . S
C1434 N1441 1.356 . S
C1435 C1434 1.363 . S
C1435 C1438 1.363 . S
N1436 C1438 1.356 . S
N1436 H1448 0.984 . S
N1436 H1449 0.985 . S
N1437 C1439 1.356 . S
N1437 H1442 0.984 . S
N1437 H1443 0.985 . S
C1438 C1432 1.379 . S
C1438 C1435 1.363 . S
C1438 N1436 1.356 . S
C1439 C1433 1.363 . S
C1439 C1434 1.379 . S
C1439 N1437 1.356 . S
N1440 C1432 1.356 . S
N1440 H1446 0.984 . S
N1440 H1447 0.984 . S
N1441 C1434 1.356 . S
N1441 H1444 0.984 . S
N1441 H1445 0.985 . S
H1442 N1437 0.984 . S
H1443 N1437 0.985 . S
H1444 N1441 0.984 . S
H1445 N1441 0.985 . S
H1446 N1440 0.984 . S
H1447 N1440 0.984 . S
H1448 N1436 0.984 . S
H1449 N1436 0.985 . S
C1450 C1451 1.363 . S
C1450 C1456 1.379 . S
C1450 N1458 1.356 . S
C1451 C1450 1.363 . S
C1451 C1457 1.363 . S
C1452 C1453 1.363 . S
C1452 C1457 1.379 . S
C1452 N1459 1.356 . S
C1453 C1452 1.363 . S
C1453 C1456 1.363 . S
N1454 C1456 1.356 . S
N1454 H1466 0.984 . S
N1454 H1467 0.985 . S
N1455 C1457 1.356 . S
N1455 H1460 0.984 . S
N1455 H1461 0.985 . S
C1456 C1450 1.379 . S
C1456 C1453 1.363 . S
C1456 N1454 1.356 . S
C1457 C1451 1.363 . S
C1457 C1452 1.379 . S
C1457 N1455 1.356 . S
N1458 C1450 1.356 . S
N1458 H1464 0.984 . S
N1458 H1465 0.984 . S
N1459 C1452 1.356 . S
N1459 H1462 0.984 . S
N1459 H1463 0.985 . S
H1460 N1455 0.984 . S
H1461 N1455 0.985 . S
H1462 N1459 0.984 . S
H1463 N1459 0.985 . S
H1464 N1458 0.984 . S
H1465 N1458 0.984 . S
H1466 N1454 0.984 . S
H1467 N1454 0.985 . S
C1468 C1469 1.360 1_645 S
C1468 C1474 1.381 1_556 S
C1468 N1476 1.356 1_655 S
C1469 C1468 1.360 1_465 S
C1469 C1475 1.363 . S
C1470 C1471 1.360 1_465 S
C1470 C1475 1.381 1_554 S
C1470 N1477 1.356 1_455 S
C1471 C1470 1.360 1_645 S
C1471 C1474 1.363 . S
N1472 C1474 1.356 . S
N1472 H1484 0.984 . S
N1472 H1485 0.985 . S
N1473 C1475 1.356 . S
N1473 H1478 0.984 . S
N1473 H1479 0.985 . S
C1474 C1468 1.381 1_554 S
C1474 C1471 1.363 . S
C1474 N1472 1.356 . S
C1475 C1469 1.363 . S
C1475 C1470 1.381 1_556 S
C1475 N1473 1.356 . S
N1476 C1468 1.356 1_455 S
N1476 H1482 0.984 1_455 S
N1476 H1483 0.984 . S
N1477 C1470 1.356 1_655 S
N1477 H1480 0.984 . S
N1477 H1481 0.985 1_655 S
H1478 N1473 0.984 . S
H1479 N1473 0.985 . S
H1480 N1477 0.984 . S
H1481 N1477 0.985 1_455 S
H1482 N1476 0.984 1_655 S
H1483 N1476 0.984 . S
H1484 N1472 0.984 . S
H1485 N1472 0.985 . S
C1486 C1487 1.363 1_545 S
C1486 C1492 1.379 . S
C1486 N1494 1.356 . S
C1487 C1486 1.363 1_565 S
C1487 C1493 1.363 . S
C1488 C1489 1.363 1_565 S
C1488 C1493 1.379 . S
C1488 N1495 1.356 . S
C1489 C1488 1.363 1_545 S
C1489 C1492 1.363 . S
N1490 C1492 1.356 . S
N1490 H1502 0.984 . S
N1490 H1503 0.985 . S
N1491 C1493 1.356 . S
N1491 H1496 0.984 . S
N1491 H1497 0.985 . S
C1492 C1486 1.379 . S
C1492 C1489 1.363 . S
C1492 N1490 1.356 . S
C1493 C1487 1.363 . S
C1493 C1488 1.379 . S
C1493 N1491 1.356 . S
N1494 C1486 1.356 . S
N1494 H1500 0.984 . S
N1494 H1501 0.984 . S
N1495 C1488 1.356 . S
N1495 H1498 0.984 . S
N1495 H1499 0.985 . S
H1496 N1491 0.984 . S
H1497 N1491 0.985 . S
H1498 N1495 0.984 . S
H1499 N1495 0.985 . S
H1500 N1494 0.984 . S
H1501 N1494 0.984 . S
H1502 N1490 0.984 . S
H1503 N1490 0.985 . S
C641 C16 2.454 . S
C643 C402 2.477 . S
C659 C42 2.711 . S
C661 C442 2.689 . S
C677 C82 2.477 . S
C679 C336 2.455 . S
C695 C122 2.689 . S
C697 C362 2.711 . S
C713 C167 2.455 . S
C715 C571 2.477 . S
C731 C211 2.711 . S
C733 C611 2.689 . S
C749 C251 2.477 . S
C751 C487 2.455 . S
C767 C291 2.689 . S
C769 C531 2.711 . S
C785 C370 3.658 . S
C787 C7 3.369 1_556 S
C803 C410 2.179 . S
C805 C51 2.133 . S
C821 C450 3.427 . S
C823 C91 3.454 . S
C839 C339 3.588 . S
C841 C131 3.592 . S
C857 C176 3.369 1_554 S
C859 C539 3.657 . S
C875 C579 2.179 . S
C877 C202 2.133 . S
C893 C619 3.427 . S
C895 C242 3.454 . S
C911 C490 3.588 . S
C913 C282 3.592 . S
C929 C50 3.657 . S
C931 C327 3.369 . S
C947 C371 2.133 . S
C949 C90 2.178 . S
C965 C411 3.454 1_556 S
C967 C130 3.427 . S
C983 C451 3.592 1_545 S
C985 C19 3.588 . S
C1001 C496 3.369 . S
C1003 C219 3.657 . S
C1019 C259 2.178 . S
C1021 C522 2.133 . S
C1037 C299 3.427 . S
C1039 C562 3.454 1_554 S
C1055 C602 3.592 1_565 S
C1057 C170 3.588 . S
C1073 C11 1.859 1_556 S
C1075 C610 1.850 . S
C1091 C47 0.484 . S
C1093 C179 0.663 . S
C1109 C530 1.028 . S
C1111 C87 0.982 . S
C1127 C250 0.557 . S
C1129 C127 0.541 . S
C1145 C162 1.859 1_554 S
C1147 C459 1.850 . S
C1163 C216 0.484 . S
C1165 C10 0.663 . S
C1181 C379 1.028 . S
C1183 C256 0.982 . S
C1199 C99 0.557 . S
C1201 C296 0.541 . S
C1217 C331 1.859 . S
C1219 C290 1.849 1_655 S
C1235 C367 0.484 . S
C1237 C499 0.662 . S
C1253 C210 1.028 . S
C1255 C407 0.982 . S
C1271 C570 0.557 1_554 S
C1273 C447 0.541 . S
C1289 C482 1.859 . S
C1291 C139 1.849 1_455 S
C1307 C536 0.484 . S
C1309 C330 0.662 . S
C1325 C576 0.982 . S
C1327 C59 1.028 . S
C1343 C419 0.557 1_556 S
C1345 C616 0.541 . S
C1361 C2 2.169 . S
C1363 C491 2.169 . S
C1379 C56 1.087 . S
C1381 C207 1.087 . S
C1397 C96 1.998 . S
C1399 C567 1.998 . S
C1415 C287 2.839 . S
C1417 C136 2.839 . S
C1433 C171 2.169 . S
C1435 C322 2.169 . S
C1451 C416 1.998 . S
C1453 C247 1.998 . S
C1469 C376 1.087 . S
C1471 C527 1.087 . S
C1487 C607 2.838 . S
C1489 C456 2.838 . S
