# Generated by pormake.
# Topology oof, (8)-cn, num edge types: 1
# Building blocks:
#     Node 0, Type 0, BuildingBlock: AJUNOK_clean_sbu_0, # of connection points: 8
#     Node 1, Type 0, BuildingBlock: AJUNOK_clean_sbu_0, # of connection points: 8
#     Node 2, Type 0, BuildingBlock: AJUNOK_clean_sbu_0, # of connection points: 8
#     Node 3, Type 0, BuildingBlock: AJUNOK_clean_sbu_0, # of connection points: 8
#     Edge 4, Type (0, 0), BuildingBlock: FUNLAD_clean_linker_1, # of connection points: 2
#     Edge 5, Type (0, 0), BuildingBlock: FUNLAD_clean_linker_1, # of connection points: 2
#     Edge 6, Type (0, 0), BuildingBlock: FUNLAD_clean_linker_1, # of connection points: 2
#     Edge 7, Type (0, 0), BuildingBlock: FUNLAD_clean_linker_1, # of connection points: 2
#     Edge 8, Type (0, 0), BuildingBlock: FUNLAD_clean_linker_1, # of connection points: 2
#     Edge 9, Type (0, 0), BuildingBlock: FUNLAD_clean_linker_1, # of connection points: 2
#     Edge 10, Type (0, 0), BuildingBlock: FUNLAD_clean_linker_1, # of connection points: 2
#     Edge 11, Type (0, 0), BuildingBlock: FUNLAD_clean_linker_1, # of connection points: 2
#     Edge 12, Type (0, 0), BuildingBlock: FUNLAD_clean_linker_1, # of connection points: 2
#     Edge 13, Type (0, 0), BuildingBlock: FUNLAD_clean_linker_1, # of connection points: 2
#     Edge 14, Type (0, 0), BuildingBlock: FUNLAD_clean_linker_1, # of connection points: 2
#     Edge 15, Type (0, 0), BuildingBlock: FUNLAD_clean_linker_1, # of connection points: 2
#     Edge 16, Type (0, 0), BuildingBlock: FUNLAD_clean_linker_1, # of connection points: 2
#     Edge 17, Type (0, 0), BuildingBlock: FUNLAD_clean_linker_1, # of connection points: 2
#     Edge 18, Type (0, 0), BuildingBlock: FUNLAD_clean_linker_1, # of connection points: 2
#     Edge 19, Type (0, 0), BuildingBlock: FUNLAD_clean_linker_1, # of connection points: 2
# Relax obj value: 0.068
# Max RMSD: 0.161
# Mean RMSD: 0.160
data_MOF--net-oof--node1-AJUNOK_clean_sbu_0--edge1-FUNLAD_clean_linker_1
_symmetry_space_group_name_H-M    P1
_symmetry_Int_Tables_number       1
_symmetry_cell_setting            triclinic
loop_
_symmetry_equiv_pos_as_xyz
'x, y, z'
_cell_length_a     14.147025
_cell_length_b     66.379328
_cell_length_c     21.737566
_cell_angle_alpha  103.64821
_cell_angle_beta   93.498777
_cell_angle_gamma 84.312448
loop_
_atom_site_label
_atom_site_type_symbol
_atom_site_fract_x
_atom_site_fract_y
_atom_site_fract_z
_atom_type_partial_charge
Cd0 Cd 0.91477 0.0915 0.18911 0.0
Cd1 Cd 0.89989 0.16179 0.32161 0.0
C2 C 0.01122 0.10007 0.07182 0.0
N3 N 0.93535 0.10802 0.10808 0.0
C4 C 0.87857 0.12927 0.03644 0.0
C5 C 0.95501 0.12077 0.99701 0.0
C6 C 0.023 0.10644 0.01631 0.0
C7 C 0.86991 0.12254 0.09211 0.0
H8 H 0.06085 0.08817 0.08493 0.0
H9 H 0.80947 0.12836 0.1214 0.0
C10 C 0.737 0.12687 0.29239 0.0
C11 C 0.81426 0.16602 0.45826 0.0
C12 C 0.80749 0.16321 0.51945 0.0
C13 C 0.87744 0.15037 0.54388 0.0
C14 C 0.95173 0.14009 0.50483 0.0
C15 C 0.95541 0.14327 0.44378 0.0
N16 N 0.88759 0.15615 0.42208 0.0
H17 H 0.76126 0.17614 0.43956 0.0
H18 H 0.01251 0.13553 0.41361 0.0
C19 C 0.73897 0.19211 0.26381 0.0
N20 N 0.8219 0.17995 0.25147 0.0
C21 C 0.83965 0.19212 0.1582 0.0
C22 C 0.7563 0.20555 0.17095 0.0
C23 C 0.70415 0.20499 0.22339 0.0
C24 C 0.87137 0.17946 0.19945 0.0
H25 H 0.70163 0.19231 0.30597 0.0
H26 H 0.93726 0.16965 0.19114 0.0
C27 C 0.06084 0.12174 0.25116 0.0
C28 C 0.89738 0.05294 0.10301 0.0
N29 N 0.95354 0.07507 0.27224 0.0
C30 C 0.04397 0.06633 0.27693 0.0
C31 C 0.06779 0.05369 0.31938 0.0
C32 C -0.00205 0.04975 0.35709 0.0
C33 C 0.90563 0.05964 0.35297 0.0
C34 C 0.88484 0.07219 0.30961 0.0
C35 C 0.02903 0.19187 0.36809 0.0
O36 O 0.79772 0.11488 0.25725 0.0
O37 O 0.75364 0.14544 0.31974 0.0
O38 O 0.97748 0.1304 0.26022 0.0
O39 O 0.07 0.10383 0.21462 0.0
O40 O 0.82783 0.06682 0.10614 0.0
O41 O 0.96801 0.0572 0.14074 0.0
O42 O 0.05202 0.17553 0.32609 0.0
O43 O 0.94488 0.19439 0.38788 0.0
H44 H 0.09686 0.06839 0.24561 0.0
H45 H 0.81311 0.07906 0.30426 0.0
H46 H 0.82545 0.14074 0.02437 0.0
H47 H 0.0828 0.09954 0.98732 0.0
H48 H 0.74874 0.17125 0.54778 0.0
H49 H 0.00589 0.12952 0.52044 0.0
H50 H 0.88054 0.19145 0.11716 0.0
H51 H 0.63903 0.21495 0.23424 0.0
H52 H 0.13973 0.04646 0.32107 0.0
H53 H 0.84912 0.05757 0.38154 0.0
Cd54 Cd 0.05434 0.8447 0.69145 0.0
Cd55 Cd 0.16172 0.90591 0.81771 0.0
C56 C 0.1336 0.84766 0.55988 0.0
N57 N 0.0773 0.85923 0.60611 0.0
C58 C 0.03434 0.88432 0.54404 0.0
C59 C 0.09193 0.87266 0.4954 0.0
C60 C 0.14238 0.85413 0.50411 0.0
C61 C 0.02806 0.8773 0.59943 0.0
H62 H 0.1691 0.83296 0.56536 0.0
H63 H 0.98151 0.88585 0.63616 0.0
C64 C 0.96138 0.88993 0.80584 0.0
C65 C 0.12316 0.90848 0.96145 0.0
C66 C 0.12653 0.90407 0.02119 0.0
C67 C 0.17965 0.88602 0.0314 0.0
C68 C 0.22873 0.87291 0.98068 0.0
C69 C 0.22276 0.87788 0.92134 0.0
N70 N 0.17035 0.89541 0.91303 0.0
H71 H 0.08383 0.92256 0.95377 0.0
H72 H 0.26084 0.86794 0.88222 0.0
C73 C 0.01845 0.92623 0.72213 0.0
N74 N 0.10916 0.91768 0.72713 0.0
C75 C 0.15194 0.92978 0.63812 0.0
C76 C 0.05955 0.93959 0.63388 0.0
C77 C -0.00817 0.93693 0.67501 0.0
C78 C 0.17527 0.9189 0.68559 0.0
H79 H 0.96732 0.9258 0.75643 0.0
H80 H 0.24737 0.91226 0.69127 0.0
C81 C 0.26451 0.85727 0.71858 0.0
C82 C 0.91713 0.81875 0.62312 0.0
N83 N 0.07925 0.82642 0.77181 0.0
C84 C 0.16193 0.82625 0.80711 0.0
C85 C 0.17726 0.81351 0.85017 0.0
C86 C 0.10634 0.80084 0.85721 0.0
C87 C 0.02054 0.80195 0.82173 0.0
C88 C 0.00829 0.81492 0.77934 0.0
C89 C 0.25584 0.94219 0.86257 0.0
O90 O 0.0182 0.87692 0.77041 0.0
O91 O -0.00607 0.90629 0.83912 0.0
O92 O 0.20856 0.87202 0.74824 0.0
O93 O 0.22865 0.84118 0.68557 0.0
O94 O 0.89246 0.83728 0.65251 0.0
O95 O 0.005 0.81257 0.62501 0.0
O96 O 0.30679 0.92499 0.84711 0.0
O97 O 0.16642 0.94167 0.85851 0.0
H98 H 0.21725 0.83559 0.8011 0.0
H99 H 0.94269 0.81546 0.75135 0.0
H100 H -0.00684 0.89851 0.53869 0.0
H101 H 0.18469 0.84409 0.46732 0.0
H102 H 0.09016 0.91505 0.05915 0.0
H103 H 0.27127 0.85899 0.98692 0.0
H104 H 0.20664 0.93082 0.60671 0.0
H105 H 0.91975 0.94406 0.67302 0.0
H106 H 0.24514 0.81334 0.87569 0.0
H107 H 0.96384 0.79256 0.82588 0.0
Cd108 Cd 0.36416 0.59844 0.20214 0.0
Cd109 Cd 0.41567 0.66388 0.33605 0.0
C110 C 0.48621 0.60909 0.09462 0.0
N111 N 0.40218 0.61478 0.12391 0.0
C112 C 0.34251 0.63252 0.04387 0.0
C113 C 0.42704 0.626 0.01114 0.0
C114 C 0.50058 0.61483 0.03838 0.0
C115 C 0.33149 0.62662 0.10047 0.0
H116 H 0.54028 0.59908 0.11263 0.0
H117 H 0.26464 0.63053 0.12398 0.0
C118 C 0.22457 0.64173 0.30516 0.0
C119 C 0.32363 0.6674 0.47034 0.0
C120 C 0.31024 0.66333 0.52911 0.0
C121 C 0.37073 0.64811 0.5502 0.0
C122 C 0.44187 0.63674 0.51049 0.0
C123 C 0.45141 0.64102 0.45133 0.0
N124 N 0.39291 0.65619 0.43275 0.0
H125 H 0.27906 0.6796 0.45479 0.0
H126 H 0.506 0.63239 0.42043 0.0
C127 C 0.28288 0.68503 0.23403 0.0
N128 N 0.37408 0.68053 0.25358 0.0
C129 C 0.4324 0.69972 0.18587 0.0
C130 C 0.33916 0.70499 0.16572 0.0
C131 C 0.26367 0.69726 0.18975 0.0
C132 C 0.44838 0.68731 0.22971 0.0
H133 H 0.22452 0.67982 0.25412 0.0
H134 H 0.52015 0.68361 0.24637 0.0
C135 C 0.54093 0.61735 0.26483 0.0
C136 C 0.29949 0.56609 0.10592 0.0
N137 N 0.36977 0.58099 0.2836 0.0
C138 C 0.44665 0.56709 0.28489 0.0
C139 C 0.45639 0.55526 0.33028 0.0
C140 C 0.38574 0.55762 0.37475 0.0
C141 C 0.3063 0.57191 0.3719 0.0
C142 C 0.29987 0.58363 0.32579 0.0
C143 C 0.54887 0.69265 0.39121 0.0
O144 O 0.28652 0.6296 0.27187 0.0
O145 O 0.24734 0.65929 0.33739 0.0
O146 O 0.4666 0.62962 0.27429 0.0
O147 O 0.53438 0.5997 0.22763 0.0
O148 O 0.24394 0.58256 0.12253 0.0
O149 O 0.37698 0.5646 0.13753 0.0
O150 O 0.57609 0.67399 0.36443 0.0
O151 O 0.45982 0.69777 0.39285 0.0
H152 H 0.49977 0.56482 0.24962 0.0
H153 H 0.23865 0.59455 0.32301 0.0
H154 H 0.28467 0.64161 0.02543 0.0
H155 H 0.56668 0.60955 0.01454 0.0
H156 H 0.25472 0.67237 0.55859 0.0
H157 H 0.4889 0.6246 0.52464 0.0
H158 H 0.49238 0.70545 0.16867 0.0
H159 H 0.19033 0.70131 0.17701 0.0
H160 H 0.51703 0.54389 0.32876 0.0
H161 H 0.24974 0.5739 0.40481 0.0
Cd162 Cd 0.57458 0.33543 0.66908 0.0
Cd163 Cd 0.61114 0.40218 0.80455 0.0
C164 C 0.63186 0.32715 0.52452 0.0
N165 N 0.5838 0.34181 0.56892 0.0
C166 C 0.53922 0.36237 0.49353 0.0
C167 C 0.58761 0.34744 0.44627 0.0
C168 C 0.63468 0.32961 0.46262 0.0
C169 C 0.53824 0.35926 0.55489 0.0
H170 H 0.66679 0.31334 0.53706 0.0
H171 H 0.50007 0.37059 0.59115 0.0
C172 C 0.43969 0.38009 0.74326 0.0
C173 C 0.5517 0.3835 0.91557 0.0
C174 C 0.55712 0.37485 0.96835 0.0
C175 C 0.64357 0.36476 0.98547 0.0
C176 C 0.72163 0.36316 0.94698 0.0
C177 C 0.71302 0.37213 0.89445 0.0
N178 N 0.62921 0.38232 0.88057 0.0
H179 H 0.48647 0.39202 0.90403 0.0
H180 H 0.77396 0.37165 0.86623 0.0
C181 C 0.5134 0.43281 0.72391 0.0
N182 N 0.59423 0.41989 0.72364 0.0
C183 C 0.65803 0.43379 0.64473 0.0
C184 C 0.57535 0.44738 0.6442 0.0
C185 C 0.50218 0.44668 0.68439 0.0
C186 C 0.66618 0.42008 0.68514 0.0
H187 H 0.45921 0.43304 0.75709 0.0
H188 H 0.73121 0.41022 0.68763 0.0
C189 C 0.75525 0.3619 0.69173 0.0
C190 C 0.44209 0.30564 0.62485 0.0
N191 N 0.64113 0.32072 0.75028 0.0
C192 C 0.7197 0.30697 0.74246 0.0
C193 C 0.75094 0.29674 0.79029 0.0
C194 C 0.69997 0.30049 0.84592 0.0
C195 C 0.62139 0.31548 0.85361 0.0
C196 C 0.59293 0.32538 0.80475 0.0
C197 C 0.63408 0.44092 0.88659 0.0
O198 O 0.51641 0.3687 0.73231 0.0
O199 O 0.44312 0.3975 0.78212 0.0
O200 O 0.69474 0.37317 0.72861 0.0
O201 O 0.73531 0.34396 0.66053 0.0
O202 O 0.41705 0.32347 0.65906 0.0
O203 O 0.52961 0.30144 0.61252 0.0
O204 O 0.70453 0.43167 0.85415 0.0
O205 O 0.56107 0.43103 0.88412 0.0
H206 H 0.75638 0.30354 0.69846 0.0
H207 H 0.53082 0.33646 0.80953 0.0
H208 H 0.50178 0.37628 0.48297 0.0
H209 H 0.67148 0.31735 0.42831 0.0
H210 H 0.49504 0.37708 0.99657 0.0
H211 H 0.78959 0.35562 0.95864 0.0
H212 H 0.7166 0.43411 0.61518 0.0
H213 H 0.43869 0.45733 0.68793 0.0
H214 H 0.81234 0.28544 0.78294 0.0
H215 H 0.5817 0.31947 0.89646 0.0
H216 H 0.03507 0.12244 0.91427 0.0
C217 C 0.96529 0.12574 0.9347 0.0
H218 H 0.82033 0.135 0.91692 0.0
H219 H 0.91662 0.18037 0.70416 0.0
H220 H 0.88246 0.21031 0.79063 0.0
H221 H 0.85915 0.20594 0.898 0.0
H222 H 0.86776 0.17151 0.91943 0.0
C223 C 0.8917 0.13191 0.89936 0.0
C224 C 0.90531 0.13439 0.83424 0.0
C225 C 0.89722 0.15457 0.82215 0.0
C226 C 0.91036 0.15709 0.7601 0.0
C227 C 0.90511 0.17749 0.74994 0.0
C228 C 0.88618 0.19484 0.79929 0.0
C229 C 0.8729 0.19238 0.85976 0.0
C230 C 0.87811 0.17253 0.87136 0.0
H231 H 0.80043 0.15204 0.63086 0.0
C232 C 0.86937 0.14789 0.60951 0.0
H233 H 0.01361 0.13771 0.62605 0.0
H234 H 0.92 0.09332 0.84006 0.0
H235 H 0.95729 0.06344 0.75403 0.0
H236 H 0.98227 0.06788 0.64688 0.0
H237 H 0.9704 0.10225 0.62517 0.0
C238 C 0.94317 0.14174 0.64479 0.0
C239 C 0.93036 0.13936 0.71007 0.0
C240 C 0.93927 0.11918 0.72225 0.0
C241 C 0.92585 0.11666 0.78424 0.0
C242 C 0.93188 0.09624 0.7944 0.0
C243 C 0.95263 0.07891 0.74528 0.0
C244 C 0.96671 0.0814 0.68495 0.0
C245 C 0.95982 0.10124 0.6732 0.0
H246 H 0.02935 0.88852 0.42149 0.0
C247 C 0.09135 0.87906 0.43422 0.0
H248 H 0.22599 0.86416 0.40548 0.0
H249 H 0.13113 0.84656 0.11264 0.0
H250 H 0.15475 0.81187 0.13093 0.0
H251 H 0.1721 0.8063 0.23926 0.0
H252 H 0.17004 0.83557 0.33023 0.0
C253 C 0.16247 0.87324 0.39351 0.0
C254 C 0.15334 0.87694 0.32828 0.0
C255 C 0.15393 0.85963 0.27543 0.0
C256 C 0.14362 0.8628 0.21275 0.0
C257 C 0.14187 0.84519 0.16117 0.0
C258 C 0.15375 0.8251 0.17096 0.0
C259 C 0.164 0.82198 0.23199 0.0
C260 C 0.16318 0.83896 0.28379 0.0
H261 H 0.25294 0.87212 0.10656 0.0
C262 C 0.1888 0.88116 0.09495 0.0
H263 H 0.05515 0.89575 0.12692 0.0
H264 H 0.16463 0.9134 0.4183 0.0
H265 H 0.1525 0.94817 0.39993 0.0
H266 H 0.12618 0.95386 0.29197 0.0
H267 H 0.11751 0.92469 0.20115 0.0
C268 C 0.12056 0.88704 0.13781 0.0
C269 C 0.13361 0.88333 0.20297 0.0
C270 C 0.13437 0.90062 0.25585 0.0
C271 C 0.14585 0.89742 0.31846 0.0
C272 C 0.15256 0.91493 0.36995 0.0
C273 C 0.14604 0.93501 0.36009 0.0
C274 C 0.13177 0.9382 0.29925 0.0
C275 C 0.12646 0.92128 0.24754 0.0
H276 H 0.51172 0.62992 0.93306 0.0
C277 C 0.43963 0.62976 0.94764 0.0
H278 H 0.29434 0.63014 0.91733 0.0
H279 H 0.36534 0.67831 0.70566 0.0
H280 H 0.28116 0.70582 0.78161 0.0
H281 H 0.24005 0.70027 0.88457 0.0
H282 H 0.28821 0.66757 0.91381 0.0
C283 C 0.36707 0.63084 0.90527 0.0
C284 C 0.38356 0.63322 0.84054 0.0
C285 C 0.35336 0.65227 0.82381 0.0
C286 C 0.37231 0.65505 0.76299 0.0
C287 C 0.3478 0.67484 0.74954 0.0
C288 C 0.30037 0.69089 0.79305 0.0
C289 C 0.2778 0.68781 0.85121 0.0
C290 C 0.30532 0.66891 0.86718 0.0
H291 H 0.2863 0.64701 0.63133 0.0
C292 C 0.35786 0.64456 0.6137 0.0
H293 H 0.50369 0.63848 0.63628 0.0
H294 H 0.44286 0.59398 0.85545 0.0
H295 H 0.52075 0.56587 0.77785 0.0
H296 H 0.55196 0.5705 0.67188 0.0
H297 H 0.50428 0.60316 0.64254 0.0
C298 C 0.43143 0.64053 0.65239 0.0
C299 C 0.41657 0.63829 0.71764 0.0
C300 C 0.44586 0.61913 0.73421 0.0
C301 C 0.42902 0.61655 0.79565 0.0
C302 C 0.45618 0.59702 0.81016 0.0
C303 C 0.50046 0.58068 0.76589 0.0
C304 C 0.51794 0.58328 0.7062 0.0
C305 C 0.49041 0.60216 0.69007 0.0
H306 H 0.73001 0.35442 0.06278 0.0
C307 C 0.65743 0.35766 0.04583 0.0
H308 H 0.51223 0.35796 0.06607 0.0
H309 H 0.58985 0.30459 0.27184 0.0
H310 H 0.53583 0.27821 0.1827 0.0
H311 H 0.51044 0.28534 0.07629 0.0
H312 H 0.54005 0.31881 0.05816 0.0
C313 C 0.58588 0.35619 0.08225 0.0
C314 C 0.60423 0.35178 0.14614 0.0
C315 C 0.58479 0.33231 0.15629 0.0
C316 C 0.59927 0.32824 0.21772 0.0
C317 C 0.58038 0.30853 0.22619 0.0
C318 C 0.54902 0.29325 0.17547 0.0
C319 C 0.53451 0.29728 0.11558 0.0
C320 C 0.55164 0.31658 0.10586 0.0
H321 H 0.53356 0.36306 0.37012 0.0
C322 C 0.58419 0.35077 0.38068 0.0
H323 H 0.69242 0.3275 0.34187 0.0
H324 H 0.64205 0.39139 0.14419 0.0
H325 H 0.70324 0.41716 0.23202 0.0
H326 H 0.73633 0.40942 0.33716 0.0
H327 H 0.70658 0.37602 0.35536 0.0
C328 C 0.64054 0.33989 0.33419 0.0
C329 C 0.63106 0.34385 0.26927 0.0
C330 C 0.65263 0.36318 0.2588 0.0
C331 C 0.63757 0.36729 0.19744 0.0
C332 C 0.65511 0.38712 0.18917 0.0
C333 C 0.68988 0.40213 0.2393 0.0
C334 C 0.70812 0.39781 0.29856 0.0
C335 C 0.69003 0.37859 0.30845 0.0
H336 H 0.61069 0.10971 0.26375 0.0
C337 C 0.64802 0.11917 0.30379 0.0
H338 H 0.64602 0.13514 0.39986 0.0
H339 H 0.24174 0.16475 0.29816 0.0
H340 H 0.31669 0.19715 0.33708 0.0
H341 H 0.47102 0.1976 0.39566 0.0
H342 H 0.55666 0.16547 0.4106 0.0
C343 C 0.60742 0.12588 0.3601 0.0
C344 C 0.50313 0.12621 0.36196 0.0
C345 C 0.44891 0.14524 0.36163 0.0
C346 C 0.35679 0.14506 0.33189 0.0
C347 C 0.31003 0.16408 0.32304 0.0
C348 C 0.3519 0.18276 0.34528 0.0
C349 C 0.43963 0.18302 0.37764 0.0
C350 C 0.48813 0.1645 0.38566 0.0
H351 H 0.13498 0.14027 0.33473 0.0
C352 C 0.14395 0.13063 0.28727 0.0
H353 H 0.23884 0.11394 0.21892 0.0
H354 H 0.581 0.08821 0.37411 0.0
H355 H 0.50539 0.05556 0.34233 0.0
H356 H 0.34118 0.05506 0.29652 0.0
H357 H 0.25198 0.08693 0.28204 0.0
C358 C 0.23103 0.12416 0.26582 0.0
C359 C 0.31705 0.1258 0.30827 0.0
C360 C 0.3657 0.10714 0.31915 0.0
C361 C 0.45956 0.10736 0.3457 0.0
C362 C 0.50932 0.08854 0.35355 0.0
C363 C 0.46665 0.06986 0.33588 0.0
C364 C 0.37419 0.06958 0.31012 0.0
C365 C 0.3239 0.08796 0.3018 0.0
H366 H 0.81216 0.90139 0.82242 0.0
C367 C 0.85942 0.8875 0.80522 0.0
H368 H 0.86854 0.85495 0.76867 0.0
H369 H 0.44282 0.85978 0.86868 0.0
H370 H 0.5323 0.84662 0.95203 0.0
H371 H 0.70778 0.84304 0.95518 0.0
H372 H 0.79492 0.85278 0.87514 0.0
C373 C 0.82281 0.86923 0.78277 0.0
C374 C 0.71811 0.86856 0.77614 0.0
C375 C 0.6686 0.86252 0.82257 0.0
C376 C 0.56752 0.86441 0.82039 0.0
C377 C 0.51959 0.85857 0.86794 0.0
C378 C 0.5701 0.85101 0.91604 0.0
C379 C 0.66892 0.84902 0.91785 0.0
C380 C 0.71803 0.8547 0.87181 0.0
H381 H 0.41086 0.84612 0.69087 0.0
C382 C 0.36812 0.85813 0.72303 0.0
H383 H 0.37033 0.884 0.80127 0.0
H384 H 0.79204 0.87917 0.6758 0.0
H385 H 0.70302 0.89267 0.59303 0.0
H386 H 0.52771 0.89757 0.59202 0.0
H387 H 0.4404 0.88856 0.67305 0.0
C388 C 0.41119 0.87255 0.76645 0.0
C389 C 0.51655 0.87193 0.77099 0.0
C390 C 0.56624 0.87781 0.72421 0.0
C391 C 0.66721 0.87574 0.72614 0.0
C392 C 0.7153 0.881 0.67758 0.0
C393 C 0.66508 0.88868 0.62965 0.0
C394 C 0.5664 0.89136 0.62897 0.0
C395 C 0.51715 0.88602 0.67557 0.0
H396 H 0.62815 0.63602 0.33915 0.0
C397 C 0.63049 0.62351 0.29681 0.0
H398 H 0.71807 0.60257 0.23085 0.0
H399 H 0.98435 0.67991 0.36398 0.0
H400 H 0.86678 0.70251 0.32037 0.0
H401 H 0.72119 0.68887 0.26419 0.0
H402 H 0.69156 0.65286 0.25272 0.0
C403 C 0.71406 0.61532 0.27276 0.0
C404 C 0.80302 0.62355 0.30307 0.0
C405 C 0.82002 0.64456 0.30648 0.0
C406 C 0.90583 0.65218 0.33545 0.0
C407 C 0.92096 0.6733 0.34066 0.0
C408 C 0.85406 0.68642 0.31601 0.0
C409 C 0.77208 0.67874 0.28457 0.0
C410 C 0.75532 0.65804 0.27914 0.0
H411 H 0.10612 0.62254 0.27182 0.0
C412 C 0.13098 0.63496 0.30974 0.0
H413 H 0.09982 0.65605 0.39724 0.0
H414 H 0.78843 0.58318 0.30968 0.0
H415 H 0.90807 0.5611 0.35384 0.0
H416 H 0.05983 0.57437 0.40036 0.0
H417 H 0.09263 0.60995 0.40285 0.0
C418 C 0.07619 0.64365 0.35888 0.0
C419 C 0.97704 0.63838 0.35524 0.0
C420 C 0.95805 0.61792 0.35571 0.0
C421 C 0.87072 0.61041 0.32931 0.0
C422 C 0.85396 0.58971 0.32912 0.0
C423 C 0.92195 0.57689 0.35439 0.0
C424 C 0.00748 0.58435 0.3805 0.0
C425 C 0.02572 0.60466 0.38131 0.0
H426 H 0.87306 0.38146 0.72319 0.0
C427 C 0.84605 0.36959 0.68444 0.0
H428 H 0.87226 0.34947 0.59479 0.0
H429 H 0.20947 0.41627 0.69297 0.0
H430 H 0.10007 0.44096 0.65178 0.0
H431 H 0.94391 0.43102 0.60338 0.0
H432 H 0.89677 0.39609 0.59554 0.0
C433 C 0.89841 0.36139 0.63368 0.0
C434 C -3e-05 0.36501 0.6383 0.0
C435 C 0.02698 0.38515 0.64147 0.0
C436 C 0.11643 0.39082 0.6696 0.0
C437 C 0.14174 0.41116 0.67259 0.0
C438 C 0.07971 0.42546 0.64897 0.0
C439 C -0.00826 0.41987 0.62176 0.0
C440 C 0.96529 0.39993 0.61788 0.0
H441 H 0.35483 0.36088 0.66812 0.0
C442 C 0.35108 0.37362 0.70989 0.0
H443 H 0.26209 0.39618 0.77021 0.0
H444 H 0.97853 0.32359 0.62143 0.0
H445 H 0.0828 0.29876 0.6656 0.0
H446 H 0.2273 0.3097 0.72919 0.0
H447 H 0.27133 0.34491 0.74541 0.0
C448 C 0.2666 0.38295 0.72968 0.0
C449 C 0.17742 0.37629 0.69513 0.0
C450 C 0.15192 0.35568 0.6886 0.0
C451 C 0.06518 0.34978 0.65661 0.0
C452 C 0.0423 0.32897 0.64764 0.0
C453 C 0.10141 0.3146 0.67264 0.0
C454 C 0.18297 0.32073 0.70811 0.0
C455 C 0.2082 0.34099 0.71627 0.0
H456 H 0.30009 0.29422 0.61727 0.0
C457 C 0.37085 0.29093 0.59865 0.0
H458 H 0.45874 0.27117 0.53023 0.0
H459 H 0.20547 0.19527 0.49018 0.0
H460 H 0.35284 0.18142 0.53353 0.0
H461 H 0.4836 0.20374 0.57192 0.0
H462 H 0.46746 0.24007 0.5674 0.0
C463 C 0.38829 0.27471 0.54947 0.0
C464 C 0.31259 0.26092 0.5211 0.0
C465 C 0.32388 0.23965 0.52337 0.0
C466 C 0.24905 0.22672 0.50043 0.0
C467 C 0.26085 0.20569 0.50533 0.0
C468 C 0.34488 0.19756 0.53062 0.0
C469 C 0.41845 0.21013 0.55226 0.0
C470 C 0.40828 0.23096 0.54921 0.0
H471 H 0.16517 0.20512 0.36948 0.0
C472 C 0.09924 0.20681 0.39371 0.0
H473 H 0.02124 0.22354 0.47249 0.0
H474 H 0.27445 0.30003 0.49864 0.0
H475 H 0.12786 0.3137 0.45398 0.0
H476 H -0.00473 0.29165 0.41881 0.0
H477 H 0.00926 0.25568 0.42751 0.0
C478 C 0.08717 0.22138 0.44763 0.0
C479 C 0.16386 0.23503 0.47422 0.0
C480 C 0.15309 0.25619 0.47103 0.0
C481 C 0.22832 0.26907 0.49322 0.0
C482 C 0.21802 0.2898 0.48549 0.0
C483 C 0.13453 0.29779 0.45919 0.0
C484 C 0.06 0.28537 0.43925 0.0
C485 C 0.06894 0.26476 0.44462 0.0
H486 H 0.80154 0.281 0.89394 0.0
C487 C 0.72904 0.2882 0.89392 0.0
H488 H 0.59317 0.2897 0.9318 0.0
H489 H 0.7081 0.20258 1.00499 0.0
H490 H 0.63187 0.19001 0.90209 0.0
H491 H 0.58417 0.21379 0.83174 0.0
H492 H 0.61261 0.25032 0.86405 0.0
C493 C 0.66777 0.28409 0.93337 0.0
C494 C 0.69744 0.26985 0.97577 0.0
C495 C 0.67808 0.24868 0.95689 0.0
C496 C 0.70466 0.23503 0.99775 0.0
C497 C 0.68756 0.21378 0.97664 0.0
C498 C 0.64414 0.20631 0.91746 0.0
C499 C 0.61745 0.21969 0.87781 0.0
C500 C 0.63408 0.24063 0.89699 0.0
H501 H 0.64719 0.22492 0.1274 0.0
C502 C 0.72283 0.22018 0.13034 0.0
H503 H 0.85939 0.22519 0.10533 0.0
H504 H 0.74554 0.30951 0.02562 0.0
H505 H 0.8182 0.32244 0.12974 0.0
H506 H 0.85829 0.29917 0.20263 0.0
H507 H 0.82778 0.2627 0.17128 0.0
C508 C 0.78304 0.22829 0.09905 0.0
C509 C 0.74906 0.24273 0.0579 0.0
C510 C 0.76735 0.26398 0.077 0.0
C511 C 0.74257 0.2775 0.03553 0.0
C512 C 0.7628 0.29859 0.05537 0.0
C513 C 0.80438 0.30621 0.11503 0.0
C514 C 0.82691 0.29311 0.15606 0.0
C515 C 0.80914 0.27221 0.13746 0.0
H516 H 0.69333 0.70213 0.41937 0.0
C517 C 0.61841 0.70768 0.41881 0.0
H518 H 0.51673 0.73347 0.44375 0.0
H519 H 0.78392 0.78115 0.66314 0.0
H520 H 0.66618 0.77101 0.72375 0.0
H521 H 0.54438 0.74798 0.67066 0.0
H522 H 0.54032 0.73477 0.55671 0.0
C523 C 0.59156 0.72785 0.44271 0.0
C524 C 0.66184 0.74266 0.47348 0.0
C525 C 0.66146 0.75071 0.53994 0.0
C526 C 0.73044 0.76432 0.57036 0.0
C527 C 0.73134 0.7713 0.63722 0.0
C528 C 0.66453 0.76548 0.67272 0.0
C529 C 0.59606 0.75249 0.64286 0.0
C530 C 0.59444 0.74506 0.57733 0.0
H531 H 0.77181 0.81088 0.58978 0.0
C532 C 0.84591 0.80475 0.59076 0.0
H533 H 0.9442 0.77836 0.56469 0.0
H534 H 0.67658 0.73153 0.34442 0.0
H535 H 0.79456 0.74161 0.28375 0.0
H536 H 0.91611 0.76473 0.33677 0.0
H537 H 0.91961 0.77812 0.45073 0.0
C538 C 0.87015 0.78457 0.56507 0.0
C539 C 0.79809 0.77025 0.5339 0.0
C540 C 0.79834 0.76223 0.46743 0.0
C541 C 0.72943 0.74859 0.43702 0.0
C542 C 0.72887 0.74149 0.37023 0.0
C543 C 0.79583 0.74727 0.33473 0.0
C544 C 0.86422 0.76029 0.36457 0.0
C545 C 0.86555 0.76781 0.43007 0.0
H546 H 0.37887 0.72987 0.12288 0.0
C547 C 0.32335 0.71968 0.12341 0.0
H548 H 0.1891 0.71075 0.08384 0.0
H549 H 0.05002 0.79594 0.01389 0.0
H550 H 0.94188 0.79523 0.09522 0.0
H551 H 0.96527 0.76808 0.15635 0.0
H552 H 0.09639 0.7413 0.13578 0.0
C553 C 0.24553 0.72081 0.08522 0.0
C554 C 0.23099 0.73678 0.04679 0.0
C555 C 0.15315 0.7522 0.05894 0.0
C556 C 0.1397 0.76789 0.02376 0.0
C557 C 0.06253 0.78334 0.0379 0.0
C558 C 0.00018 0.78324 0.08497 0.0
C559 C 0.01346 0.76798 0.11943 0.0
C560 C 0.08899 0.75265 0.10695 0.0
H561 H 0.06681 0.77447 0.89344 0.0
C562 C 0.11971 0.78564 0.89824 0.0
H563 H 0.24801 0.7953 0.9472 0.0
H564 H 0.38094 0.70807 0.0058 0.0
H565 H 0.48943 0.70891 0.92482 0.0
H566 H 0.46859 0.73667 0.86592 0.0
H567 H 0.33913 0.76383 0.88808 0.0
C568 C 0.19262 0.78474 0.9405 0.0
C569 C 0.2043 0.76813 0.97658 0.0
C570 C 0.28158 0.75262 0.964 0.0
C571 C 0.29442 0.73678 0.99862 0.0
C572 C 0.36993 0.72099 0.98306 0.0
C573 C 0.43231 0.72114 0.93606 0.0
C574 C 0.4204 0.73673 0.90279 0.0
C575 C 0.34586 0.75226 0.91616 0.0
H576 H 0.88778 0.03693 1.00332 0.0
C577 C 0.90789 0.03458 0.05033 0.0
H578 H 0.98778 0.01666 0.10567 0.0
H579 H 0.09304 0.974 0.80062 0.0
H580 H 0.92624 0.96981 0.77875 0.0
H581 H 0.81055 0.98185 0.86246 0.0
H582 H 0.86099 0.99919 0.96849 0.0
C583 C 0.97052 0.01865 0.0579 0.0
C584 C 0.04101 0.00922 0.00891 0.0
C585 C 0.01144 0.99818 0.94797 0.0
C586 C 0.07955 0.99019 0.90077 0.0
C587 C 0.0464 0.98004 0.83939 0.0
C588 C 0.95025 0.97741 0.82589 0.0
C589 C 0.8849 0.98432 0.87293 0.0
C590 C 0.91479 0.99445 0.93343 0.0
H591 H 0.31746 0.96335 0.9399 0.0
C592 C 0.2951 0.96207 0.89053 0.0
H593 H 0.23917 0.97777 0.82311 0.0
H594 H 0.12298 0.03136 0.1199 0.0
H595 H 0.28922 0.03629 0.14159 0.0
H596 H 0.40719 0.02149 0.06037 0.0
H597 H 0.35821 0.00162 0.95656 0.0
C598 C 0.2509 0.97893 0.87351 0.0
C599 C 0.1783 0.99197 0.91636 0.0
C600 C 0.20724 0.00377 0.97646 0.0
C601 C 0.13887 0.01237 0.02291 0.0
C602 C 0.17075 0.02418 0.08254 0.0
C603 C 0.26653 0.02725 0.09575 0.0
C604 C 0.33292 0.01891 0.0501 0.0
C605 C 0.30398 0.00739 0.99097 0.0
H606 H 0.09913 0.02896 0.40026 0.0
C607 C 0.02457 0.03472 0.39772 0.0
H608 H 0.88695 0.03131 0.42538 0.0
H609 H 0.98429 0.94107 0.46885 0.0
H610 H 0.87148 0.93509 0.37971 0.0
H611 H 0.81438 0.96328 0.32677 0.0
H612 H 0.86959 0.99765 0.36304 0.0
C613 C 0.96262 0.027 0.42879 0.0
C614 C -0.00542 0.01036 0.46298 0.0
C615 C 0.96055 0.99038 0.44167 0.0
C616 C -0.00712 0.97415 0.47251 0.0
C617 C 0.95981 0.9542 0.44886 0.0
C618 C 0.89571 0.95046 0.39711 0.0
C619 C 0.86376 0.96631 0.36724 0.0
C620 C 0.89589 0.98602 0.38878 0.0
H621 H 0.95642 0.95933 0.58837 0.0
C622 C 0.03117 0.95369 0.59068 0.0
H623 H 0.16798 0.95715 0.56204 0.0
H624 H 0.06503 0.04753 0.52112 0.0
H625 H 0.17814 0.05354 0.61022 0.0
H626 H 0.23806 0.02517 0.66171 0.0
H627 H 0.18474 0.99066 0.62452 0.0
C628 C 0.09213 0.96128 0.55861 0.0
C629 C 0.05901 0.97797 0.52487 0.0
C630 C 0.09268 0.99798 0.54639 0.0
C631 C 0.05947 0.01427 0.516 0.0
C632 C 0.09063 0.03436 0.54062 0.0
C633 C 0.15494 0.0381 0.59228 0.0
C634 C 0.18851 0.02214 0.62132 0.0
C635 C 0.15754 0.00235 0.5992 0.0
H636 H 0.27006 0.53586 0.0483 0.0
C637 C 0.28839 0.55113 0.04538 0.0
H638 H 0.3697 0.56758 0.99969 0.0
H639 H 0.676 0.49261 0.02015 0.0
H640 H 0.74042 0.52164 0.09544 0.0
H641 H 0.6574 0.55691 0.11251 0.0
H642 H 0.50901 0.56318 0.05512 0.0
C643 C 0.34614 0.55247 0.99984 0.0
C644 C 0.41063 0.53392 0.97252 0.0
C645 C 0.50134 0.53094 1.00257 0.0
C646 C 0.55093 0.51082 0.99113 0.0
C647 C 0.63674 0.50772 0.02602 0.0
C648 C 0.67439 0.52424 0.06941 0.0
C649 C 0.62759 0.54408 0.07912 0.0
C650 C 0.54209 0.54746 0.04623 0.0
H651 H 0.67819 0.47287 0.90239 0.0
C652 C 0.6276 0.46341 0.91525 0.0
H653 H 0.4965 0.46269 0.95537 0.0
H654 H 0.25177 0.53634 0.89646 0.0
H655 H 0.19677 0.50845 0.81139 0.0
H656 H 0.28721 0.47391 0.78667 0.0
H657 H 0.43204 0.46697 0.84721 0.0
C658 C 0.54797 0.47238 0.9446 0.0
C659 C 0.51193 0.49422 0.947 0.0
C660 C 0.42877 0.49807 0.91005 0.0
C661 C 0.37728 0.51795 0.92353 0.0
C662 C 0.29284 0.52136 0.88778 0.0
C663 C 0.26098 0.50556 0.83885 0.0
C664 C 0.31188 0.48611 0.82495 0.0
C665 C 0.39461 0.48229 0.86018 0.0
H666 H 0.63667 0.46715 0.59064 0.0
C667 C 0.57019 0.46299 0.60483 0.0
H668 H 0.42004 0.46786 0.59758 0.0
H669 H 0.39727 0.55764 0.54755 0.0
H670 H 0.3303 0.5645 0.65112 0.0
H671 H 0.33555 0.53688 0.71011 0.0
H672 H 0.40647 0.50213 0.66535 0.0
C673 C 0.48771 0.47189 0.5852 0.0
C674 C 0.48517 0.48841 0.54901 0.0
C675 C 0.4428 0.50865 0.57575 0.0
C676 C 0.43933 0.52458 0.54165 0.0
C677 C 0.39919 0.54478 0.57035 0.0
C678 C 0.36122 0.549 0.63013 0.0
C679 C 0.36423 0.53345 0.66335 0.0
C680 C 0.4049 0.51353 0.63693 0.0
H681 H 0.32401 0.54021 0.43555 0.0
C682 C 0.39046 0.54421 0.42085 0.0
H683 H 0.54044 0.54064 0.43055 0.0
H684 H 0.56125 0.45068 0.48032 0.0
H685 H 0.62875 0.44389 0.37715 0.0
H686 H 0.62842 0.47182 0.31981 0.0
H687 H 0.55944 0.50665 0.36516 0.0
C688 C 0.47337 0.53648 0.4436 0.0
C689 C 0.4775 0.52017 0.4806 0.0
C690 C 0.52049 0.49998 0.45404 0.0
C691 C 0.52291 0.48398 0.48776 0.0
C692 C 0.56115 0.46368 0.45832 0.0
C693 C 0.59936 0.45948 0.39864 0.0
C694 C 0.59898 0.47519 0.36632 0.0
C695 C 0.55944 0.49517 0.39316 0.0
loop_
_geom_bond_atom_site_label_1
_geom_bond_atom_site_label_2
_geom_bond_distance
_geom_bond_site_symmetry_2
_ccdc_geom_bond_type
Cd0 N3 2.334 1_455 S
Cd0 N29 2.304 . S
Cd0 O36 2.268 1_455 S
Cd0 O39 2.273 . S
Cd0 O40 2.417 1_455 S
Cd0 O41 2.330 . S
Cd1 N16 2.304 1_655 S
Cd1 N20 2.334 . S
Cd1 O37 2.273 . S
Cd1 O38 2.268 1_655 S
Cd1 O42 2.417 1_655 S
Cd1 O43 2.330 . S
C2 N3 1.332 1_455 S
C2 C6 1.381 . S
C2 H8 0.931 . S
N3 Cd0 2.334 1_655 S
N3 C2 1.332 1_655 S
N3 C7 1.328 . S
C4 C5 1.396 . S
C4 C7 1.378 . S
C4 H46 0.931 . S
C5 C4 1.396 . S
C5 C6 1.382 1_655 S
C6 C2 1.381 . S
C6 C5 1.382 1_455 S
C6 H47 0.930 . S
C7 N3 1.328 . S
C7 C4 1.378 . S
C7 H9 0.930 . S
H8 C2 0.931 . S
H9 C7 0.930 . S
C10 O36 1.238 . S
C10 O37 1.253 . S
C11 C12 1.379 . S
C11 N16 1.337 1_655 S
C11 H17 0.929 . S
C12 C11 1.379 . S
C12 C13 1.380 1_655 S
C12 H48 0.929 . S
C13 C12 1.380 1_455 S
C13 C14 1.399 . S
C14 C13 1.399 . S
C14 C15 1.376 . S
C14 H49 0.931 . S
C15 C14 1.376 . S
C15 N16 1.338 . S
C15 H18 0.930 . S
N16 Cd1 2.304 1_455 S
N16 C11 1.337 1_455 S
N16 C15 1.338 . S
H17 C11 0.929 . S
H18 C15 0.930 . S
C19 N20 1.332 . S
C19 C23 1.381 . S
C19 H25 0.931 . S
N20 Cd1 2.334 . S
N20 C19 1.332 . S
N20 C24 1.328 1_655 S
C21 C22 1.396 1_455 S
C21 C24 1.378 . S
C21 H50 0.931 . S
C22 C21 1.396 1_655 S
C22 C23 1.382 . S
C23 C19 1.381 . S
C23 C22 1.382 . S
C23 H51 0.930 . S
C24 N20 1.328 1_455 S
C24 C21 1.378 . S
C24 H26 0.930 . S
H25 C19 0.931 . S
H26 C24 0.930 . S
C27 O38 1.238 . S
C27 O39 1.253 . S
C28 O40 1.239 . S
C28 O41 1.230 1_655 S
N29 Cd0 2.304 . S
N29 C30 1.337 . S
N29 C34 1.338 1_455 S
C30 N29 1.337 . S
C30 C31 1.379 . S
C30 H44 0.929 . S
C31 C30 1.379 . S
C31 C32 1.380 . S
C31 H52 0.929 . S
C32 C31 1.380 . S
C32 C33 1.399 1_455 S
C33 C32 1.399 1_655 S
C33 C34 1.376 . S
C33 H53 0.931 . S
C34 N29 1.338 1_655 S
C34 C33 1.376 . S
C34 H45 0.930 . S
C35 O42 1.239 . S
C35 O43 1.230 1_455 S
O36 Cd0 2.268 1_655 S
O36 C10 1.238 . S
O37 Cd1 2.273 . S
O37 C10 1.253 . S
O38 Cd1 2.268 1_455 S
O38 C27 1.238 . S
O39 Cd0 2.273 . S
O39 C27 1.253 . S
O40 Cd0 2.417 1_655 S
O40 C28 1.239 . S
O41 Cd0 2.330 . S
O41 C28 1.230 1_455 S
O42 Cd1 2.417 1_455 S
O42 C35 1.239 . S
O43 Cd1 2.330 . S
O43 C35 1.230 1_655 S
H44 C30 0.929 . S
H45 C34 0.930 . S
H46 C4 0.931 . S
H47 C6 0.930 . S
H48 C12 0.929 . S
H49 C14 0.931 . S
H50 C21 0.931 . S
H51 C23 0.930 . S
H52 C31 0.929 . S
H53 C33 0.931 . S
Cd54 N57 2.334 . S
Cd54 N83 2.304 . S
Cd54 O90 2.268 1_455 S
Cd54 O93 2.273 . S
Cd54 O94 2.417 1_455 S
Cd54 O95 2.330 . S
Cd55 N70 2.304 . S
Cd55 N74 2.334 . S
Cd55 O91 2.273 1_455 S
Cd55 O92 2.268 . S
Cd55 O96 2.417 . S
Cd55 O97 2.330 1_455 S
C56 N57 1.332 . S
C56 C60 1.381 . S
C56 H62 0.931 . S
N57 Cd54 2.334 . S
N57 C56 1.332 . S
N57 C61 1.328 1_455 S
C58 C59 1.396 1_655 S
C58 C61 1.378 . S
C58 H100 0.931 . S
C59 C58 1.396 1_455 S
C59 C60 1.382 . S
C60 C56 1.381 . S
C60 C59 1.382 . S
C60 H101 0.930 . S
C61 N57 1.328 1_655 S
C61 C58 1.378 . S
C61 H63 0.930 . S
H62 C56 0.931 . S
H63 C61 0.930 . S
C64 O90 1.238 . S
C64 O91 1.253 . S
C65 C66 1.379 . S
C65 N70 1.337 1_655 S
C65 H71 0.929 . S
C66 C65 1.379 . S
C66 C67 1.380 1_655 S
C66 H102 0.929 . S
C67 C66 1.380 1_455 S
C67 C68 1.399 . S
C68 C67 1.399 . S
C68 C69 1.376 . S
C68 H103 0.931 . S
C69 C68 1.376 . S
C69 N70 1.338 . S
C69 H72 0.930 . S
N70 Cd55 2.304 . S
N70 C65 1.337 1_455 S
N70 C69 1.338 . S
H71 C65 0.929 . S
H72 C69 0.930 . S
C73 N74 1.332 1_655 S
C73 C77 1.381 . S
C73 H79 0.931 . S
N74 Cd55 2.334 . S
N74 C73 1.332 1_455 S
N74 C78 1.328 . S
C75 C76 1.396 1_455 S
C75 C78 1.378 . S
C75 H104 0.931 . S
C76 C75 1.396 1_655 S
C76 C77 1.382 . S
C77 C73 1.381 . S
C77 C76 1.382 . S
C77 H105 0.930 . S
C78 N74 1.328 . S
C78 C75 1.378 . S
C78 H80 0.930 . S
H79 C73 0.931 . S
H80 C78 0.930 . S
C81 O92 1.238 . S
C81 O93 1.253 . S
C82 O94 1.239 . S
C82 O95 1.230 1_655 S
N83 Cd54 2.304 . S
N83 C84 1.337 . S
N83 C88 1.338 1_455 S
C84 N83 1.337 . S
C84 C85 1.379 . S
C84 H98 0.929 . S
C85 C84 1.379 . S
C85 C86 1.380 . S
C85 H106 0.929 . S
C86 C85 1.380 . S
C86 C87 1.399 1_455 S
C87 C86 1.399 1_655 S
C87 C88 1.376 . S
C87 H107 0.931 . S
C88 N83 1.338 1_655 S
C88 C87 1.376 . S
C88 H99 0.930 . S
C89 O96 1.239 . S
C89 O97 1.230 1_455 S
O90 Cd54 2.268 1_655 S
O90 C64 1.238 . S
O91 Cd55 2.273 1_655 S
O91 C64 1.253 . S
O92 Cd55 2.268 . S
O92 C81 1.238 . S
O93 Cd54 2.273 . S
O93 C81 1.253 . S
O94 Cd54 2.417 1_655 S
O94 C82 1.239 . S
O95 Cd54 2.330 . S
O95 C82 1.230 1_455 S
O96 Cd55 2.417 . S
O96 C89 1.239 . S
O97 Cd55 2.330 1_655 S
O97 C89 1.230 1_655 S
H98 C84 0.929 . S
H99 C88 0.930 . S
H100 C58 0.931 . S
H101 C60 0.930 . S
H102 C66 0.929 . S
H103 C68 0.931 . S
H104 C75 0.931 . S
H105 C77 0.930 . S
H106 C85 0.929 . S
H107 C87 0.931 . S
Cd108 N111 2.334 . S
Cd108 N137 2.304 . S
Cd108 O144 2.268 . S
Cd108 O147 2.273 . S
Cd108 O148 2.417 . S
Cd108 O149 2.330 . S
Cd109 N124 2.304 . S
Cd109 N128 2.334 . S
Cd109 O145 2.273 . S
Cd109 O146 2.268 . S
Cd109 O150 2.417 . S
Cd109 O151 2.330 . S
C110 N111 1.332 . S
C110 C114 1.381 . S
C110 H116 0.931 . S
N111 Cd108 2.334 . S
N111 C110 1.332 . S
N111 C115 1.328 . S
C112 C113 1.396 . S
C112 C115 1.378 . S
C112 H154 0.931 . S
C113 C112 1.396 . S
C113 C114 1.382 . S
C114 C110 1.381 . S
C114 C113 1.382 . S
C114 H155 0.930 . S
C115 N111 1.328 . S
C115 C112 1.378 . S
C115 H117 0.930 . S
H116 C110 0.931 . S
H117 C115 0.930 . S
C118 O144 1.238 . S
C118 O145 1.253 . S
C119 C120 1.379 . S
C119 N124 1.337 . S
C119 H125 0.929 . S
C120 C119 1.379 . S
C120 C121 1.380 . S
C120 H156 0.929 . S
C121 C120 1.380 . S
C121 C122 1.399 . S
C122 C121 1.399 . S
C122 C123 1.376 . S
C122 H157 0.931 . S
C123 C122 1.376 . S
C123 N124 1.338 . S
C123 H126 0.930 . S
N124 Cd109 2.304 . S
N124 C119 1.337 . S
N124 C123 1.338 . S
H125 C119 0.929 . S
H126 C123 0.930 . S
C127 N128 1.332 . S
C127 C131 1.381 . S
C127 H133 0.931 . S
N128 Cd109 2.334 . S
N128 C127 1.332 . S
N128 C132 1.328 . S
C129 C130 1.396 . S
C129 C132 1.378 . S
C129 H158 0.931 . S
C130 C129 1.396 . S
C130 C131 1.382 . S
C131 C127 1.381 . S
C131 C130 1.382 . S
C131 H159 0.930 . S
C132 N128 1.328 . S
C132 C129 1.378 . S
C132 H134 0.930 . S
H133 C127 0.931 . S
H134 C132 0.930 . S
C135 O146 1.238 . S
C135 O147 1.253 . S
C136 O148 1.239 . S
C136 O149 1.230 . S
N137 Cd108 2.304 . S
N137 C138 1.337 . S
N137 C142 1.338 . S
C138 N137 1.337 . S
C138 C139 1.379 . S
C138 H152 0.929 . S
C139 C138 1.379 . S
C139 C140 1.380 . S
C139 H160 0.929 . S
C140 C139 1.380 . S
C140 C141 1.399 . S
C141 C140 1.399 . S
C141 C142 1.376 . S
C141 H161 0.931 . S
C142 N137 1.338 . S
C142 C141 1.376 . S
C142 H153 0.930 . S
C143 O150 1.239 . S
C143 O151 1.230 . S
O144 Cd108 2.268 . S
O144 C118 1.238 . S
O145 Cd109 2.273 . S
O145 C118 1.253 . S
O146 Cd109 2.268 . S
O146 C135 1.238 . S
O147 Cd108 2.273 . S
O147 C135 1.253 . S
O148 Cd108 2.417 . S
O148 C136 1.239 . S
O149 Cd108 2.330 . S
O149 C136 1.230 . S
O150 Cd109 2.417 . S
O150 C143 1.239 . S
O151 Cd109 2.330 . S
O151 C143 1.230 . S
H152 C138 0.929 . S
H153 C142 0.930 . S
H154 C112 0.931 . S
H155 C114 0.930 . S
H156 C120 0.929 . S
H157 C122 0.931 . S
H158 C129 0.931 . S
H159 C131 0.930 . S
H160 C139 0.929 . S
H161 C141 0.931 . S
Cd162 N165 2.334 . S
Cd162 N191 2.304 . S
Cd162 O198 2.268 . S
Cd162 O201 2.273 . S
Cd162 O202 2.417 . S
Cd162 O203 2.330 . S
Cd163 N178 2.304 . S
Cd163 N182 2.334 . S
Cd163 O199 2.273 . S
Cd163 O200 2.268 . S
Cd163 O204 2.417 . S
Cd163 O205 2.330 . S
C164 N165 1.332 . S
C164 C168 1.381 . S
C164 H170 0.931 . S
N165 Cd162 2.334 . S
N165 C164 1.332 . S
N165 C169 1.328 . S
C166 C167 1.396 . S
C166 C169 1.378 . S
C166 H208 0.931 . S
C167 C166 1.396 . S
C167 C168 1.382 . S
C168 C164 1.381 . S
C168 C167 1.382 . S
C168 H209 0.930 . S
C169 N165 1.328 . S
C169 C166 1.378 . S
C169 H171 0.930 . S
H170 C164 0.931 . S
H171 C169 0.930 . S
C172 O198 1.238 . S
C172 O199 1.253 . S
C173 C174 1.379 . S
C173 N178 1.337 . S
C173 H179 0.929 . S
C174 C173 1.379 . S
C174 C175 1.380 . S
C174 H210 0.929 . S
C175 C174 1.380 . S
C175 C176 1.399 . S
C176 C175 1.399 . S
C176 C177 1.376 . S
C176 H211 0.931 . S
C177 C176 1.376 . S
C177 N178 1.338 . S
C177 H180 0.930 . S
N178 Cd163 2.304 . S
N178 C173 1.337 . S
N178 C177 1.338 . S
H179 C173 0.929 . S
H180 C177 0.930 . S
C181 N182 1.332 . S
C181 C185 1.381 . S
C181 H187 0.931 . S
N182 Cd163 2.334 . S
N182 C181 1.332 . S
N182 C186 1.328 . S
C183 C184 1.396 . S
C183 C186 1.378 . S
C183 H212 0.931 . S
C184 C183 1.396 . S
C184 C185 1.382 . S
C185 C181 1.381 . S
C185 C184 1.382 . S
C185 H213 0.930 . S
C186 N182 1.328 . S
C186 C183 1.378 . S
C186 H188 0.930 . S
H187 C181 0.931 . S
H188 C186 0.930 . S
C189 O200 1.238 . S
C189 O201 1.253 . S
C190 O202 1.239 . S
C190 O203 1.230 . S
N191 Cd162 2.304 . S
N191 C192 1.337 . S
N191 C196 1.338 . S
C192 N191 1.337 . S
C192 C193 1.379 . S
C192 H206 0.929 . S
C193 C192 1.379 . S
C193 C194 1.380 . S
C193 H214 0.929 . S
C194 C193 1.380 . S
C194 C195 1.399 . S
C195 C194 1.399 . S
C195 C196 1.376 . S
C195 H215 0.931 . S
C196 N191 1.338 . S
C196 C195 1.376 . S
C196 H207 0.930 . S
C197 O204 1.239 . S
C197 O205 1.230 . S
O198 Cd162 2.268 . S
O198 C172 1.238 . S
O199 Cd163 2.273 . S
O199 C172 1.253 . S
O200 Cd163 2.268 . S
O200 C189 1.238 . S
O201 Cd162 2.273 . S
O201 C189 1.253 . S
O202 Cd162 2.417 . S
O202 C190 1.239 . S
O203 Cd162 2.330 . S
O203 C190 1.230 . S
O204 Cd163 2.417 . S
O204 C197 1.239 . S
O205 Cd163 2.330 . S
O205 C197 1.230 . S
H206 C192 0.929 . S
H207 C196 0.930 . S
H208 C166 0.931 . S
H209 C168 0.930 . S
H210 C174 0.929 . S
H211 C176 0.931 . S
H212 C183 0.931 . S
H213 C185 0.930 . S
H214 C193 0.929 . S
H215 C195 0.931 . S
H216 C217 0.951 1_455 S
C217 H216 0.951 1_655 S
C217 C223 1.265 . S
H218 C223 0.950 . S
H219 C227 0.949 . S
H220 C228 0.950 . S
H221 C229 0.951 . S
H222 C230 0.951 . S
C223 C217 1.265 . S
C223 H218 0.950 . S
C223 C224 1.478 . S
C224 C223 1.478 . S
C224 C225 1.397 . S
C224 C241 1.394 1_655 S
C225 C224 1.397 . S
C225 C226 1.438 . S
C225 C230 1.429 . S
C226 C225 1.438 . S
C226 C227 1.428 . S
C226 C239 1.394 1_655 S
C227 H219 0.949 . S
C227 C226 1.428 . S
C227 C228 1.345 . S
C228 H220 0.950 . S
C228 C227 1.345 . S
C228 C229 1.424 . S
C229 H221 0.951 . S
C229 C228 1.424 . S
C229 C230 1.347 . S
C230 H222 0.951 . S
C230 C225 1.429 . S
C230 C229 1.347 . S
H231 C232 0.951 1_655 S
C232 H231 0.951 1_455 S
C232 C238 1.265 . S
H233 C238 0.950 . S
H234 C242 0.949 . S
H235 C243 0.950 . S
H236 C244 0.951 . S
H237 C245 0.951 . S
C238 C232 1.265 . S
C238 H233 0.950 . S
C238 C239 1.478 . S
C239 C226 1.394 1_455 S
C239 C238 1.478 . S
C239 C240 1.397 . S
C240 C239 1.397 . S
C240 C241 1.438 . S
C240 C245 1.429 . S
C241 C224 1.394 1_455 S
C241 C240 1.438 . S
C241 C242 1.428 . S
C242 H234 0.949 . S
C242 C241 1.428 . S
C242 C243 1.345 . S
C243 H235 0.950 . S
C243 C242 1.345 . S
C243 C244 1.424 . S
C244 H236 0.951 . S
C244 C243 1.424 . S
C244 C245 1.347 . S
C245 H237 0.951 . S
C245 C240 1.429 . S
C245 C244 1.347 . S
H246 C247 0.951 . S
C247 H246 0.951 . S
C247 C253 1.265 1_655 S
H248 C253 0.950 . S
H249 C257 0.949 . S
H250 C258 0.950 . S
H251 C259 0.951 . S
H252 C260 0.951 . S
C253 C247 1.265 1_455 S
C253 H248 0.950 . S
C253 C254 1.478 . S
C254 C253 1.478 . S
C254 C255 1.397 . S
C254 C271 1.394 1_455 S
C255 C254 1.397 . S
C255 C256 1.438 . S
C255 C260 1.429 . S
C256 C255 1.438 . S
C256 C257 1.428 . S
C256 C269 1.394 . S
C257 H249 0.949 . S
C257 C256 1.428 . S
C257 C258 1.345 . S
C258 H250 0.950 . S
C258 C257 1.345 . S
C258 C259 1.424 . S
C259 H251 0.951 . S
C259 C258 1.424 . S
C259 C260 1.347 . S
C260 H252 0.951 . S
C260 C255 1.429 . S
C260 C259 1.347 . S
H261 C262 0.951 . S
C262 H261 0.951 . S
C262 C268 1.265 1_455 S
H263 C268 0.950 . S
H264 C272 0.949 . S
H265 C273 0.950 . S
H266 C274 0.951 . S
H267 C275 0.951 . S
C268 C262 1.265 1_655 S
C268 H263 0.950 . S
C268 C269 1.478 1_655 S
C269 C256 1.394 . S
C269 C268 1.478 1_455 S
C269 C270 1.397 1_455 S
C270 C269 1.397 1_655 S
C270 C271 1.438 . S
C270 C275 1.429 . S
C271 C254 1.394 1_655 S
C271 C270 1.438 . S
C271 C272 1.428 . S
C272 H264 0.949 . S
C272 C271 1.428 . S
C272 C273 1.345 . S
C273 H265 0.950 . S
C273 C272 1.345 . S
C273 C274 1.424 . S
C274 H266 0.951 . S
C274 C273 1.424 . S
C274 C275 1.347 . S
C275 H267 0.951 . S
C275 C270 1.429 . S
C275 C274 1.347 . S
H276 C277 0.951 . S
C277 H276 0.951 . S
C277 C283 1.265 . S
H278 C283 0.950 . S
H279 C287 0.949 . S
H280 C288 0.950 . S
H281 C289 0.951 . S
H282 C290 0.951 . S
C283 C277 1.265 . S
C283 H278 0.950 . S
C283 C284 1.478 . S
C284 C283 1.478 . S
C284 C285 1.397 . S
C284 C301 1.394 . S
C285 C284 1.397 . S
C285 C286 1.438 . S
C285 C290 1.429 . S
C286 C285 1.438 . S
C286 C287 1.428 . S
C286 C299 1.394 . S
C287 H279 0.949 . S
C287 C286 1.428 . S
C287 C288 1.345 . S
C288 H280 0.950 . S
C288 C287 1.345 . S
C288 C289 1.424 . S
C289 H281 0.951 . S
C289 C288 1.424 . S
C289 C290 1.347 . S
C290 H282 0.951 . S
C290 C285 1.429 . S
C290 C289 1.347 . S
H291 C292 0.951 . S
C292 H291 0.951 . S
C292 C298 1.265 . S
H293 C298 0.950 . S
H294 C302 0.949 . S
H295 C303 0.950 . S
H296 C304 0.951 . S
H297 C305 0.951 . S
C298 C292 1.265 . S
C298 H293 0.950 . S
C298 C299 1.478 . S
C299 C286 1.394 . S
C299 C298 1.478 . S
C299 C300 1.397 . S
C300 C299 1.397 . S
C300 C301 1.438 . S
C300 C305 1.429 . S
C301 C284 1.394 . S
C301 C300 1.438 . S
C301 C302 1.428 . S
C302 H294 0.949 . S
C302 C301 1.428 . S
C302 C303 1.345 . S
C303 H295 0.950 . S
C303 C302 1.345 . S
C303 C304 1.424 . S
C304 H296 0.951 . S
C304 C303 1.424 . S
C304 C305 1.347 . S
C305 H297 0.951 . S
C305 C300 1.429 . S
C305 C304 1.347 . S
H306 C307 0.951 . S
C307 H306 0.951 . S
C307 C313 1.265 . S
H308 C313 0.950 . S
H309 C317 0.949 . S
H310 C318 0.950 . S
H311 C319 0.951 . S
H312 C320 0.951 . S
C313 C307 1.265 . S
C313 H308 0.950 . S
C313 C314 1.478 . S
C314 C313 1.478 . S
C314 C315 1.397 . S
C314 C331 1.394 . S
C315 C314 1.397 . S
C315 C316 1.438 . S
C315 C320 1.429 . S
C316 C315 1.438 . S
C316 C317 1.428 . S
C316 C329 1.394 . S
C317 H309 0.949 . S
C317 C316 1.428 . S
C317 C318 1.345 . S
C318 H310 0.950 . S
C318 C317 1.345 . S
C318 C319 1.424 . S
C319 H311 0.951 . S
C319 C318 1.424 . S
C319 C320 1.347 . S
C320 H312 0.951 . S
C320 C315 1.429 . S
C320 C319 1.347 . S
H321 C322 0.951 . S
C322 H321 0.951 . S
C322 C328 1.265 . S
H323 C328 0.950 . S
H324 C332 0.949 . S
H325 C333 0.950 . S
H326 C334 0.951 . S
H327 C335 0.951 . S
C328 C322 1.265 . S
C328 H323 0.950 . S
C328 C329 1.478 . S
C329 C316 1.394 . S
C329 C328 1.478 . S
C329 C330 1.397 . S
C330 C329 1.397 . S
C330 C331 1.438 . S
C330 C335 1.429 . S
C331 C314 1.394 . S
C331 C330 1.438 . S
C331 C332 1.428 . S
C332 H324 0.949 . S
C332 C331 1.428 . S
C332 C333 1.345 . S
C333 H325 0.950 . S
C333 C332 1.345 . S
C333 C334 1.424 . S
C334 H326 0.951 . S
C334 C333 1.424 . S
C334 C335 1.347 . S
C335 H327 0.951 . S
C335 C330 1.429 . S
C335 C334 1.347 . S
H336 C337 0.951 . S
C337 H336 0.951 . S
C337 C343 1.265 . S
H338 C343 0.950 . S
H339 C347 0.949 . S
H340 C348 0.950 . S
H341 C349 0.951 . S
H342 C350 0.951 . S
C343 C337 1.265 . S
C343 H338 0.950 . S
C343 C344 1.478 . S
C344 C343 1.478 . S
C344 C345 1.397 . S
C344 C361 1.394 . S
C345 C344 1.397 . S
C345 C346 1.438 . S
C345 C350 1.429 . S
C346 C345 1.438 . S
C346 C347 1.428 . S
C346 C359 1.394 . S
C347 H339 0.949 . S
C347 C346 1.428 . S
C347 C348 1.345 . S
C348 H340 0.950 . S
C348 C347 1.345 . S
C348 C349 1.424 . S
C349 H341 0.951 . S
C349 C348 1.424 . S
C349 C350 1.347 . S
C350 H342 0.951 . S
C350 C345 1.429 . S
C350 C349 1.347 . S
H351 C352 0.951 . S
C352 H351 0.951 . S
C352 C358 1.265 . S
H353 C358 0.950 . S
H354 C362 0.949 . S
H355 C363 0.950 . S
H356 C364 0.951 . S
H357 C365 0.951 . S
C358 C352 1.265 . S
C358 H353 0.950 . S
C358 C359 1.478 . S
C359 C346 1.394 . S
C359 C358 1.478 . S
C359 C360 1.397 . S
C360 C359 1.397 . S
C360 C361 1.438 . S
C360 C365 1.429 . S
C361 C344 1.394 . S
C361 C360 1.438 . S
C361 C362 1.428 . S
C362 H354 0.949 . S
C362 C361 1.428 . S
C362 C363 1.345 . S
C363 H355 0.950 . S
C363 C362 1.345 . S
C363 C364 1.424 . S
C364 H356 0.951 . S
C364 C363 1.424 . S
C364 C365 1.347 . S
C365 H357 0.951 . S
C365 C360 1.429 . S
C365 C364 1.347 . S
H366 C367 0.951 . S
C367 H366 0.951 . S
C367 C373 1.265 . S
H368 C373 0.950 . S
H369 C377 0.949 . S
H370 C378 0.950 . S
H371 C379 0.951 . S
H372 C380 0.951 . S
C373 C367 1.265 . S
C373 H368 0.950 . S
C373 C374 1.478 . S
C374 C373 1.478 . S
C374 C375 1.397 . S
C374 C391 1.394 . S
C375 C374 1.397 . S
C375 C376 1.438 . S
C375 C380 1.429 . S
C376 C375 1.438 . S
C376 C377 1.428 . S
C376 C389 1.394 . S
C377 H369 0.949 . S
C377 C376 1.428 . S
C377 C378 1.345 . S
C378 H370 0.950 . S
C378 C377 1.345 . S
C378 C379 1.424 . S
C379 H371 0.951 . S
C379 C378 1.424 . S
C379 C380 1.347 . S
C380 H372 0.951 . S
C380 C375 1.429 . S
C380 C379 1.347 . S
H381 C382 0.951 . S
C382 H381 0.951 . S
C382 C388 1.265 . S
H383 C388 0.950 . S
H384 C392 0.949 . S
H385 C393 0.950 . S
H386 C394 0.951 . S
H387 C395 0.951 . S
C388 C382 1.265 . S
C388 H383 0.950 . S
C388 C389 1.478 . S
C389 C376 1.394 . S
C389 C388 1.478 . S
C389 C390 1.397 . S
C390 C389 1.397 . S
C390 C391 1.438 . S
C390 C395 1.429 . S
C391 C374 1.394 . S
C391 C390 1.438 . S
C391 C392 1.428 . S
C392 H384 0.949 . S
C392 C391 1.428 . S
C392 C393 1.345 . S
C393 H385 0.950 . S
C393 C392 1.345 . S
C393 C394 1.424 . S
C394 H386 0.951 . S
C394 C393 1.424 . S
C394 C395 1.347 . S
C395 H387 0.951 . S
C395 C390 1.429 . S
C395 C394 1.347 . S
H396 C397 0.951 . S
C397 H396 0.951 . S
C397 C403 1.265 . S
H398 C403 0.950 . S
H399 C407 0.949 . S
H400 C408 0.950 . S
H401 C409 0.951 . S
H402 C410 0.951 . S
C403 C397 1.265 . S
C403 H398 0.950 . S
C403 C404 1.478 . S
C404 C403 1.478 . S
C404 C405 1.397 . S
C404 C421 1.394 . S
C405 C404 1.397 . S
C405 C406 1.438 1_655 S
C405 C410 1.429 . S
C406 C405 1.438 1_455 S
C406 C407 1.428 . S
C406 C419 1.394 . S
C407 H399 0.949 . S
C407 C406 1.428 . S
C407 C408 1.345 . S
C408 H400 0.950 . S
C408 C407 1.345 . S
C408 C409 1.424 1_455 S
C409 H401 0.951 . S
C409 C408 1.424 1_655 S
C409 C410 1.347 . S
C410 H402 0.951 . S
C410 C405 1.429 . S
C410 C409 1.347 . S
H411 C412 0.951 . S
C412 H411 0.951 . S
C412 C418 1.265 . S
H413 C418 0.950 . S
H414 C422 0.949 . S
H415 C423 0.950 . S
H416 C424 0.951 . S
H417 C425 0.951 . S
C418 C412 1.265 . S
C418 H413 0.950 . S
C418 C419 1.478 . S
C419 C406 1.394 . S
C419 C418 1.478 . S
C419 C420 1.397 . S
C420 C419 1.397 . S
C420 C421 1.438 1_455 S
C420 C425 1.429 . S
C421 C404 1.394 . S
C421 C420 1.438 1_655 S
C421 C422 1.428 . S
C422 H414 0.949 . S
C422 C421 1.428 . S
C422 C423 1.345 . S
C423 H415 0.950 . S
C423 C422 1.345 . S
C423 C424 1.424 1_655 S
C424 H416 0.951 . S
C424 C423 1.424 1_455 S
C424 C425 1.347 . S
C425 H417 0.951 . S
C425 C420 1.429 . S
C425 C424 1.347 . S
H426 C427 0.951 . S
C427 H426 0.951 . S
C427 C433 1.265 . S
H428 C433 0.950 . S
H429 C437 0.949 . S
H430 C438 0.950 . S
H431 C439 0.951 . S
H432 C440 0.951 . S
C433 C427 1.265 . S
C433 H428 0.950 . S
C433 C434 1.478 . S
C434 C433 1.478 . S
C434 C435 1.397 . S
C434 C451 1.394 . S
C435 C434 1.397 . S
C435 C436 1.438 1_655 S
C435 C440 1.429 . S
C436 C435 1.438 1_455 S
C436 C437 1.428 . S
C436 C449 1.394 . S
C437 H429 0.949 . S
C437 C436 1.428 . S
C437 C438 1.345 . S
C438 H430 0.950 . S
C438 C437 1.345 . S
C438 C439 1.424 1_455 S
C439 H431 0.951 . S
C439 C438 1.424 1_655 S
C439 C440 1.347 . S
C440 H432 0.951 . S
C440 C435 1.429 . S
C440 C439 1.347 . S
H441 C442 0.951 . S
C442 H441 0.951 . S
C442 C448 1.265 . S
H443 C448 0.950 . S
H444 C452 0.949 . S
H445 C453 0.950 . S
H446 C454 0.951 . S
H447 C455 0.951 . S
C448 C442 1.265 . S
C448 H443 0.950 . S
C448 C449 1.478 . S
C449 C436 1.394 . S
C449 C448 1.478 . S
C449 C450 1.397 . S
C450 C449 1.397 . S
C450 C451 1.438 1_455 S
C450 C455 1.429 . S
C451 C434 1.394 . S
C451 C450 1.438 1_655 S
C451 C452 1.428 . S
C452 H444 0.949 . S
C452 C451 1.428 . S
C452 C453 1.345 . S
C453 H445 0.950 . S
C453 C452 1.345 . S
C453 C454 1.424 1_655 S
C454 H446 0.951 . S
C454 C453 1.424 1_455 S
C454 C455 1.347 . S
C455 H447 0.951 . S
C455 C450 1.429 . S
C455 C454 1.347 . S
H456 C457 0.951 . S
C457 H456 0.951 . S
C457 C463 1.265 . S
H458 C463 0.950 . S
H459 C467 0.949 . S
H460 C468 0.950 . S
H461 C469 0.951 . S
H462 C470 0.951 . S
C463 C457 1.265 . S
C463 H458 0.950 . S
C463 C464 1.478 . S
C464 C463 1.478 . S
C464 C465 1.397 . S
C464 C481 1.394 . S
C465 C464 1.397 . S
C465 C466 1.438 . S
C465 C470 1.429 . S
C466 C465 1.438 . S
C466 C467 1.428 . S
C466 C479 1.394 . S
C467 H459 0.949 . S
C467 C466 1.428 . S
C467 C468 1.345 . S
C468 H460 0.950 . S
C468 C467 1.345 . S
C468 C469 1.424 . S
C469 H461 0.951 . S
C469 C468 1.424 . S
C469 C470 1.347 . S
C470 H462 0.951 . S
C470 C465 1.429 . S
C470 C469 1.347 . S
H471 C472 0.951 . S
C472 H471 0.951 . S
C472 C478 1.265 . S
H473 C478 0.950 . S
H474 C482 0.949 . S
H475 C483 0.950 . S
H476 C484 0.951 . S
H477 C485 0.951 . S
C478 C472 1.265 . S
C478 H473 0.950 . S
C478 C479 1.478 . S
C479 C466 1.394 . S
C479 C478 1.478 . S
C479 C480 1.397 . S
C480 C479 1.397 . S
C480 C481 1.438 . S
C480 C485 1.429 . S
C481 C464 1.394 . S
C481 C480 1.438 . S
C481 C482 1.428 . S
C482 H474 0.949 . S
C482 C481 1.428 . S
C482 C483 1.345 . S
C483 H475 0.950 . S
C483 C482 1.345 . S
C483 C484 1.424 . S
C484 H476 0.951 . S
C484 C483 1.424 . S
C484 C485 1.347 . S
C485 H477 0.951 . S
C485 C480 1.429 . S
C485 C484 1.347 . S
H486 C487 0.951 . S
C487 H486 0.951 . S
C487 C493 1.265 . S
H488 C493 0.950 . S
H489 C497 0.949 . S
H490 C498 0.950 . S
H491 C499 0.951 . S
H492 C500 0.951 . S
C493 C487 1.265 . S
C493 H488 0.950 . S
C493 C494 1.478 . S
C494 C493 1.478 . S
C494 C495 1.397 . S
C494 C511 1.394 1_556 S
C495 C494 1.397 . S
C495 C496 1.438 . S
C495 C500 1.429 . S
C496 C495 1.438 . S
C496 C497 1.428 . S
C496 C509 1.394 1_556 S
C497 H489 0.949 . S
C497 C496 1.428 . S
C497 C498 1.345 . S
C498 H490 0.950 . S
C498 C497 1.345 . S
C498 C499 1.424 . S
C499 H491 0.951 . S
C499 C498 1.424 . S
C499 C500 1.347 . S
C500 H492 0.951 . S
C500 C495 1.429 . S
C500 C499 1.347 . S
H501 C502 0.951 . S
C502 H501 0.951 . S
C502 C508 1.265 . S
H503 C508 0.950 . S
H504 C512 0.949 . S
H505 C513 0.950 . S
H506 C514 0.951 . S
H507 C515 0.951 . S
C508 C502 1.265 . S
C508 H503 0.950 . S
C508 C509 1.478 . S
C509 C496 1.394 1_554 S
C509 C508 1.478 . S
C509 C510 1.397 . S
C510 C509 1.397 . S
C510 C511 1.438 . S
C510 C515 1.429 . S
C511 C494 1.394 1_554 S
C511 C510 1.438 . S
C511 C512 1.428 . S
C512 H504 0.949 . S
C512 C511 1.428 . S
C512 C513 1.345 . S
C513 H505 0.950 . S
C513 C512 1.345 . S
C513 C514 1.424 . S
C514 H506 0.951 . S
C514 C513 1.424 . S
C514 C515 1.347 . S
C515 H507 0.951 . S
C515 C510 1.429 . S
C515 C514 1.347 . S
H516 C517 0.951 . S
C517 H516 0.951 . S
C517 C523 1.265 . S
H518 C523 0.950 . S
H519 C527 0.949 . S
H520 C528 0.950 . S
H521 C529 0.951 . S
H522 C530 0.951 . S
C523 C517 1.265 . S
C523 H518 0.950 . S
C523 C524 1.478 . S
C524 C523 1.478 . S
C524 C525 1.397 . S
C524 C541 1.394 . S
C525 C524 1.397 . S
C525 C526 1.438 . S
C525 C530 1.429 . S
C526 C525 1.438 . S
C526 C527 1.428 . S
C526 C539 1.394 . S
C527 H519 0.949 . S
C527 C526 1.428 . S
C527 C528 1.345 . S
C528 H520 0.950 . S
C528 C527 1.345 . S
C528 C529 1.424 . S
C529 H521 0.951 . S
C529 C528 1.424 . S
C529 C530 1.347 . S
C530 H522 0.951 . S
C530 C525 1.429 . S
C530 C529 1.347 . S
H531 C532 0.951 . S
C532 H531 0.951 . S
C532 C538 1.265 . S
H533 C538 0.950 . S
H534 C542 0.949 . S
H535 C543 0.950 . S
H536 C544 0.951 . S
H537 C545 0.951 . S
C538 C532 1.265 . S
C538 H533 0.950 . S
C538 C539 1.478 . S
C539 C526 1.394 . S
C539 C538 1.478 . S
C539 C540 1.397 . S
C540 C539 1.397 . S
C540 C541 1.438 . S
C540 C545 1.429 . S
C541 C524 1.394 . S
C541 C540 1.438 . S
C541 C542 1.428 . S
C542 H534 0.949 . S
C542 C541 1.428 . S
C542 C543 1.345 . S
C543 H535 0.950 . S
C543 C542 1.345 . S
C543 C544 1.424 . S
C544 H536 0.951 . S
C544 C543 1.424 . S
C544 C545 1.347 . S
C545 H537 0.951 . S
C545 C540 1.429 . S
C545 C544 1.347 . S
H546 C547 0.951 . S
C547 H546 0.951 . S
C547 C553 1.265 . S
H548 C553 0.950 . S
H549 C557 0.949 . S
H550 C558 0.950 . S
H551 C559 0.951 . S
H552 C560 0.951 . S
C553 C547 1.265 . S
C553 H548 0.950 . S
C553 C554 1.478 . S
C554 C553 1.478 . S
C554 C555 1.397 . S
C554 C571 1.394 1_554 S
C555 C554 1.397 . S
C555 C556 1.438 . S
C555 C560 1.429 . S
C556 C555 1.438 . S
C556 C557 1.428 . S
C556 C569 1.394 1_554 S
C557 H549 0.949 . S
C557 C556 1.428 . S
C557 C558 1.345 . S
C558 H550 0.950 . S
C558 C557 1.345 . S
C558 C559 1.424 . S
C559 H551 0.951 . S
C559 C558 1.424 . S
C559 C560 1.347 . S
C560 H552 0.951 . S
C560 C555 1.429 . S
C560 C559 1.347 . S
H561 C562 0.951 . S
C562 H561 0.951 . S
C562 C568 1.265 . S
H563 C568 0.950 . S
H564 C572 0.949 . S
H565 C573 0.950 . S
H566 C574 0.951 . S
H567 C575 0.951 . S
C568 C562 1.265 . S
C568 H563 0.950 . S
C568 C569 1.478 . S
C569 C556 1.394 1_556 S
C569 C568 1.478 . S
C569 C570 1.397 . S
C570 C569 1.397 . S
C570 C571 1.438 . S
C570 C575 1.429 . S
C571 C554 1.394 1_556 S
C571 C570 1.438 . S
C571 C572 1.428 . S
C572 H564 0.949 . S
C572 C571 1.428 . S
C572 C573 1.345 . S
C573 H565 0.950 . S
C573 C572 1.345 . S
C573 C574 1.424 . S
C574 H566 0.951 . S
C574 C573 1.424 . S
C574 C575 1.347 . S
C575 H567 0.951 . S
C575 C570 1.429 . S
C575 C574 1.347 . S
H576 C577 0.951 1_455 S
C577 H576 0.951 1_655 S
C577 C583 1.265 . S
H578 C583 0.950 . S
H579 C587 0.949 . S
H580 C588 0.950 . S
H581 C589 0.951 . S
H582 C590 0.951 . S
C583 C577 1.265 . S
C583 H578 0.950 . S
C583 C584 1.478 . S
C584 C583 1.478 . S
C584 C585 1.397 . S
C584 C601 1.394 1_655 S
C585 C584 1.397 . S
C585 C586 1.438 1_544 S
C585 C590 1.429 . S
C586 C585 1.438 1_566 S
C586 C587 1.428 . S
C586 C599 1.394 1_655 S
C587 H579 0.949 . S
C587 C586 1.428 . S
C587 C588 1.345 . S
C588 H580 0.950 . S
C588 C587 1.345 . S
C588 C589 1.424 1_565 S
C589 H581 0.951 . S
C589 C588 1.424 1_545 S
C589 C590 1.347 1_556 S
C590 H582 0.951 . S
C590 C585 1.429 . S
C590 C589 1.347 1_554 S
H591 C592 0.951 . S
C592 H591 0.951 . S
C592 C598 1.265 . S
H593 C598 0.950 . S
H594 C602 0.949 . S
H595 C603 0.950 . S
H596 C604 0.951 . S
H597 C605 0.951 . S
C598 C592 1.265 . S
C598 H593 0.950 . S
C598 C599 1.478 . S
C599 C586 1.394 1_455 S
C599 C598 1.478 . S
C599 C600 1.397 . S
C600 C599 1.397 . S
C600 C601 1.438 1_566 S
C600 C605 1.429 . S
C601 C584 1.394 1_455 S
C601 C600 1.438 1_544 S
C601 C602 1.428 . S
C602 H594 0.949 . S
C602 C601 1.428 . S
C602 C603 1.345 . S
C603 H595 0.950 . S
C603 C602 1.345 . S
C603 C604 1.424 1_545 S
C604 H596 0.951 . S
C604 C603 1.424 1_565 S
C604 C605 1.347 1_554 S
C605 H597 0.951 . S
C605 C600 1.429 . S
C605 C604 1.347 1_556 S
H606 C607 0.951 . S
C607 H606 0.951 . S
C607 C613 1.265 1_455 S
H608 C613 0.950 . S
H609 C617 0.949 . S
H610 C618 0.950 . S
H611 C619 0.951 . S
H612 C620 0.951 . S
C613 C607 1.265 1_655 S
C613 H608 0.950 . S
C613 C614 1.478 1_655 S
C614 C613 1.478 1_455 S
C614 C615 1.395 1_455 S
C614 C631 1.395 . S
C615 C614 1.395 1_655 S
C615 C616 1.438 1_545 S
C615 C620 1.429 . S
C616 C615 1.438 1_565 S
C616 C617 1.428 . S
C616 C629 1.394 1_655 S
C617 H609 0.949 . S
C617 C616 1.428 . S
C617 C618 1.345 . S
C618 H610 0.950 . S
C618 C617 1.345 . S
C618 C619 1.424 . S
C619 H611 0.951 . S
C619 C618 1.424 . S
C619 C620 1.347 1_565 S
C620 H612 0.951 . S
C620 C615 1.429 . S
C620 C619 1.347 1_545 S
H621 C622 0.951 . S
C622 H621 0.951 . S
C622 C628 1.265 1_655 S
H623 C628 0.950 . S
H624 C632 0.949 . S
H625 C633 0.950 . S
H626 C634 0.951 . S
H627 C635 0.951 . S
C628 C622 1.265 1_455 S
C628 H623 0.950 . S
C628 C629 1.478 . S
C629 C616 1.394 1_455 S
C629 C628 1.478 . S
C629 C630 1.397 . S
C630 C629 1.397 . S
C630 C631 1.438 1_565 S
C630 C635 1.429 . S
C631 C614 1.395 . S
C631 C630 1.438 1_545 S
C631 C632 1.428 . S
C632 H624 0.949 . S
C632 C631 1.428 . S
C632 C633 1.345 . S
C633 H625 0.950 . S
C633 C632 1.345 . S
C633 C634 1.424 . S
C634 H626 0.951 . S
C634 C633 1.424 . S
C634 C635 1.347 1_545 S
C635 H627 0.951 . S
C635 C630 1.429 . S
C635 C634 1.347 1_565 S
H636 C637 0.951 . S
C637 H636 0.951 . S
C637 C643 1.265 . S
H638 C643 0.950 . S
H639 C647 0.949 . S
H640 C648 0.950 . S
H641 C649 0.951 . S
H642 C650 0.951 . S
C643 C637 1.265 . S
C643 H638 0.950 . S
C643 C644 1.478 . S
C644 C643 1.478 . S
C644 C645 1.397 . S
C644 C661 1.394 1_554 S
C645 C644 1.397 . S
C645 C646 1.438 . S
C645 C650 1.429 . S
C646 C645 1.438 . S
C646 C647 1.428 . S
C646 C659 1.394 1_554 S
C647 H639 0.949 . S
C647 C646 1.428 . S
C647 C648 1.345 . S
C648 H640 0.950 . S
C648 C647 1.345 . S
C648 C649 1.424 . S
C649 H641 0.951 . S
C649 C648 1.424 . S
C649 C650 1.347 . S
C650 H642 0.951 . S
C650 C645 1.429 . S
C650 C649 1.347 . S
H651 C652 0.951 . S
C652 H651 0.951 . S
C652 C658 1.265 . S
H653 C658 0.950 . S
H654 C662 0.949 . S
H655 C663 0.950 . S
H656 C664 0.951 . S
H657 C665 0.951 . S
C658 C652 1.265 . S
C658 H653 0.950 . S
C658 C659 1.478 . S
C659 C646 1.394 1_556 S
C659 C658 1.478 . S
C659 C660 1.397 . S
C660 C659 1.397 . S
C660 C661 1.438 . S
C660 C665 1.429 . S
C661 C644 1.394 1_556 S
C661 C660 1.438 . S
C661 C662 1.428 . S
C662 H654 0.949 . S
C662 C661 1.428 . S
C662 C663 1.345 . S
C663 H655 0.950 . S
C663 C662 1.345 . S
C663 C664 1.424 . S
C664 H656 0.951 . S
C664 C663 1.424 . S
C664 C665 1.347 . S
C665 H657 0.951 . S
C665 C660 1.429 . S
C665 C664 1.347 . S
H666 C667 0.951 . S
C667 H666 0.951 . S
C667 C673 1.265 . S
H668 C673 0.950 . S
H669 C677 0.949 . S
H670 C678 0.950 . S
H671 C679 0.951 . S
H672 C680 0.951 . S
C673 C667 1.265 . S
C673 H668 0.950 . S
C673 C674 1.478 . S
C674 C673 1.478 . S
C674 C675 1.397 . S
C674 C691 1.394 . S
C675 C674 1.397 . S
C675 C676 1.438 . S
C675 C680 1.429 . S
C676 C675 1.438 . S
C676 C677 1.428 . S
C676 C689 1.394 . S
C677 H669 0.949 . S
C677 C676 1.428 . S
C677 C678 1.345 . S
C678 H670 0.950 . S
C678 C677 1.345 . S
C678 C679 1.424 . S
C679 H671 0.951 . S
C679 C678 1.424 . S
C679 C680 1.347 . S
C680 H672 0.951 . S
C680 C675 1.429 . S
C680 C679 1.347 . S
H681 C682 0.951 . S
C682 H681 0.951 . S
C682 C688 1.265 . S
H683 C688 0.950 . S
H684 C692 0.949 . S
H685 C693 0.950 . S
H686 C694 0.951 . S
H687 C695 0.951 . S
C688 C682 1.265 . S
C688 H683 0.950 . S
C688 C689 1.478 . S
C689 C676 1.394 . S
C689 C688 1.478 . S
C689 C690 1.397 . S
C690 C689 1.397 . S
C690 C691 1.438 . S
C690 C695 1.429 . S
C691 C674 1.394 . S
C691 C690 1.438 . S
C691 C692 1.428 . S
C692 H684 0.949 . S
C692 C691 1.428 . S
C692 C693 1.345 . S
C693 H685 0.950 . S
C693 C692 1.345 . S
C693 C694 1.424 . S
C694 H686 0.951 . S
C694 C693 1.424 . S
C694 C695 1.347 . S
C695 H687 0.951 . S
C695 C690 1.429 . S
C695 C694 1.347 . S
C217 C5 1.868 1_556 S
C232 C13 1.871 . S
C247 C59 1.884 1_655 S
C262 C67 1.884 1_554 S
C277 C113 1.860 1_556 S
C292 C121 1.863 . S
C307 C175 1.881 1_554 S
C322 C167 1.882 . S
C337 C10 0.697 . S
C352 C27 0.698 . S
C367 C64 0.653 . S
C382 C81 0.653 . S
C397 C135 0.681 . S
C412 C118 0.680 . S
C427 C189 0.682 . S
C442 C172 0.681 . S
C457 C190 1.469 . S
C472 C35 1.469 . S
C487 C194 2.167 . S
C502 C22 2.161 . S
C517 C143 1.472 . S
C532 C82 1.471 . S
C547 C130 2.185 . S
C562 C86 2.189 . S
C577 C28 0.514 . S
C592 C89 0.520 . S
C607 C32 1.976 . S
C622 C76 1.977 . S
C637 C136 0.637 . S
C652 C197 0.636 . S
C667 C184 1.964 . S
C682 C140 1.960 . S
