# Generated by pormake.
# Topology unp, (4)-cn, num edge types: 1
# Building blocks:
#     Node 0, Type 0, BuildingBlock: UXUYUI_clean_sbu_0, # of connection points: 4
#     Node 1, Type 0, BuildingBlock: UXUYUI_clean_sbu_0, # of connection points: 4
#     Node 2, Type 0, BuildingBlock: UXUYUI_clean_sbu_0, # of connection points: 4
#     Node 3, Type 0, BuildingBlock: UXUYUI_clean_sbu_0, # of connection points: 4
#     Node 4, Type 0, BuildingBlock: UXUYUI_clean_sbu_0, # of connection points: 4
#     Node 5, Type 0, BuildingBlock: UXUYUI_clean_sbu_0, # of connection points: 4
#     Node 6, Type 0, BuildingBlock: UXUYUI_clean_sbu_0, # of connection points: 4
#     Node 7, Type 0, BuildingBlock: UXUYUI_clean_sbu_0, # of connection points: 4
#     Node 8, Type 0, BuildingBlock: UXUYUI_clean_sbu_0, # of connection points: 4
#     Node 9, Type 0, BuildingBlock: UXUYUI_clean_sbu_0, # of connection points: 4
#     Node 10, Type 0, BuildingBlock: UXUYUI_clean_sbu_0, # of connection points: 4
#     Node 11, Type 0, BuildingBlock: UXUYUI_clean_sbu_0, # of connection points: 4
#     Node 12, Type 0, BuildingBlock: UXUYUI_clean_sbu_0, # of connection points: 4
#     Node 13, Type 0, BuildingBlock: UXUYUI_clean_sbu_0, # of connection points: 4
#     Node 14, Type 0, BuildingBlock: UXUYUI_clean_sbu_0, # of connection points: 4
#     Node 15, Type 0, BuildingBlock: UXUYUI_clean_sbu_0, # of connection points: 4
#     Node 16, Type 0, BuildingBlock: UXUYUI_clean_sbu_0, # of connection points: 4
#     Node 17, Type 0, BuildingBlock: UXUYUI_clean_sbu_0, # of connection points: 4
#     Edge 18, Type (0, 0), BuildingBlock: OJICUG_clean_linker_0, # of connection points: 2
#     Edge 19, Type (0, 0), BuildingBlock: OJICUG_clean_linker_0, # of connection points: 2
#     Edge 20, Type (0, 0), BuildingBlock: OJICUG_clean_linker_0, # of connection points: 2
#     Edge 21, Type (0, 0), BuildingBlock: OJICUG_clean_linker_0, # of connection points: 2
#     Edge 22, Type (0, 0), BuildingBlock: OJICUG_clean_linker_0, # of connection points: 2
#     Edge 23, Type (0, 0), BuildingBlock: OJICUG_clean_linker_0, # of connection points: 2
#     Edge 24, Type (0, 0), BuildingBlock: OJICUG_clean_linker_0, # of connection points: 2
#     Edge 25, Type (0, 0), BuildingBlock: OJICUG_clean_linker_0, # of connection points: 2
#     Edge 26, Type (0, 0), BuildingBlock: OJICUG_clean_linker_0, # of connection points: 2
#     Edge 27, Type (0, 0), BuildingBlock: OJICUG_clean_linker_0, # of connection points: 2
#     Edge 28, Type (0, 0), BuildingBlock: OJICUG_clean_linker_0, # of connection points: 2
#     Edge 29, Type (0, 0), BuildingBlock: OJICUG_clean_linker_0, # of connection points: 2
#     Edge 30, Type (0, 0), BuildingBlock: OJICUG_clean_linker_0, # of connection points: 2
#     Edge 31, Type (0, 0), BuildingBlock: OJICUG_clean_linker_0, # of connection points: 2
#     Edge 32, Type (0, 0), BuildingBlock: OJICUG_clean_linker_0, # of connection points: 2
#     Edge 33, Type (0, 0), BuildingBlock: OJICUG_clean_linker_0, # of connection points: 2
#     Edge 34, Type (0, 0), BuildingBlock: OJICUG_clean_linker_0, # of connection points: 2
#     Edge 35, Type (0, 0), BuildingBlock: OJICUG_clean_linker_0, # of connection points: 2
#     Edge 36, Type (0, 0), BuildingBlock: OJICUG_clean_linker_0, # of connection points: 2
#     Edge 37, Type (0, 0), BuildingBlock: OJICUG_clean_linker_0, # of connection points: 2
#     Edge 38, Type (0, 0), BuildingBlock: OJICUG_clean_linker_0, # of connection points: 2
#     Edge 39, Type (0, 0), BuildingBlock: OJICUG_clean_linker_0, # of connection points: 2
#     Edge 40, Type (0, 0), BuildingBlock: OJICUG_clean_linker_0, # of connection points: 2
#     Edge 41, Type (0, 0), BuildingBlock: OJICUG_clean_linker_0, # of connection points: 2
#     Edge 42, Type (0, 0), BuildingBlock: OJICUG_clean_linker_0, # of connection points: 2
#     Edge 43, Type (0, 0), BuildingBlock: OJICUG_clean_linker_0, # of connection points: 2
#     Edge 44, Type (0, 0), BuildingBlock: OJICUG_clean_linker_0, # of connection points: 2
#     Edge 45, Type (0, 0), BuildingBlock: OJICUG_clean_linker_0, # of connection points: 2
#     Edge 46, Type (0, 0), BuildingBlock: OJICUG_clean_linker_0, # of connection points: 2
#     Edge 47, Type (0, 0), BuildingBlock: OJICUG_clean_linker_0, # of connection points: 2
#     Edge 48, Type (0, 0), BuildingBlock: OJICUG_clean_linker_0, # of connection points: 2
#     Edge 49, Type (0, 0), BuildingBlock: OJICUG_clean_linker_0, # of connection points: 2
#     Edge 50, Type (0, 0), BuildingBlock: OJICUG_clean_linker_0, # of connection points: 2
#     Edge 51, Type (0, 0), BuildingBlock: OJICUG_clean_linker_0, # of connection points: 2
#     Edge 52, Type (0, 0), BuildingBlock: OJICUG_clean_linker_0, # of connection points: 2
#     Edge 53, Type (0, 0), BuildingBlock: OJICUG_clean_linker_0, # of connection points: 2
# Relax obj value: 0.501
# Max RMSD: 0.229
# Mean RMSD: 0.224
data_MOF--net-unp--node1-UXUYUI_clean_sbu_0--edge1-OJICUG_clean_linker_0
_symmetry_space_group_name_H-M    P1
_symmetry_Int_Tables_number       1
_symmetry_cell_setting            triclinic
loop_
_symmetry_equiv_pos_as_xyz
'x, y, z'
_cell_length_a     51.413202
_cell_length_b     51.433076
_cell_length_c     85.060562
_cell_angle_alpha  90.259892
_cell_angle_beta   89.771111
_cell_angle_gamma 120.50393
loop_
_atom_site_label
_atom_site_type_symbol
_atom_site_fract_x
_atom_site_fract_y
_atom_site_fract_z
_atom_type_partial_charge
Li0 Li 0.1893 0.21523 0.08419 0.0
Li1 Li 0.20058 0.22922 0.11178 0.0
Li2 Li 0.17969 0.17669 0.10323 0.0
Li3 Li 0.14886 0.20044 0.1038 0.0
C4 C 0.23694 0.20036 0.09996 0.0
N5 N 0.2708 0.17351 0.10577 0.0
C6 C 0.25274 0.20596 0.11409 0.0
C7 C 0.23839 0.18111 0.08878 0.0
C8 C 0.26976 0.19219 0.1168 0.0
C9 C 0.2556 0.16773 0.09195 0.0
C10 C 0.1928 0.27178 0.09904 0.0
C11 C 0.20075 0.31454 0.11456 0.0
N12 N 0.22235 0.3333 0.10422 0.0
C13 C 0.21491 0.29147 0.08849 0.0
C14 C 0.18546 0.28336 0.11211 0.0
C15 C 0.22965 0.32251 0.09134 0.0
C16 C 0.1834 0.2311 0.05298 0.0
N17 N 0.20153 0.22699 0.06301 0.0
C18 C 0.2338 0.23042 0.04189 0.0
C19 C 0.22698 0.22781 0.05789 0.0
C20 C 0.21415 0.23211 0.03105 0.0
C21 C 0.1892 0.23349 0.03683 0.0
H22 H 0.16341 0.2306 0.05742 0.0
H23 H 0.24136 0.22518 0.06616 0.0
C24 C 0.22655 0.25396 0.14128 0.0
N25 N 0.2295 0.25881 0.12552 0.0
C26 C 0.25048 0.27208 0.1513 0.0
C27 C 0.27939 0.30083 0.12876 0.0
C28 C 0.25504 0.28194 0.11916 0.0
C29 C 0.27773 0.29533 0.14502 0.0
H30 H 0.20638 0.23483 0.14597 0.0
H31 H 0.25713 0.28469 0.10655 0.0
C32 C 0.14056 0.16784 0.07217 0.0
N33 N 0.11853 0.15451 0.04179 0.0
C34 C 0.11547 0.16999 0.06793 0.0
C35 C 0.15442 0.15888 0.06093 0.0
C36 C 0.10466 0.16312 0.05252 0.0
C37 C 0.14297 0.15228 0.04564 0.0
C38 C 0.14732 0.18284 0.13325 0.0
C39 C 0.13037 0.15219 0.13702 0.0
C40 C 0.14161 0.20342 0.14104 0.0
C41 C 0.10774 0.14261 0.14843 0.0
C42 C 0.11876 0.19294 0.15236 0.0
N43 N 0.10243 0.16301 0.15579 0.0
C44 C 0.18631 0.13322 0.12086 0.0
C45 C 0.16614 0.11832 0.09522 0.0
C46 C 0.18165 0.10441 0.12382 0.0
N47 N 0.17803 0.13935 0.10682 0.0
C48 C 0.16149 0.08951 0.09757 0.0
C49 C 0.16869 0.08204 0.11212 0.0
H50 H 0.1955 0.15036 0.12994 0.0
H51 H 0.15921 0.12351 0.08433 0.0
C52 C 0.09898 0.21094 0.1076 0.0
N53 N 0.10843 0.19056 0.10747 0.0
C54 C 0.06835 0.20116 0.10985 0.0
C55 C 0.05835 0.15002 0.11218 0.0
C56 C 0.08883 0.16063 0.10956 0.0
C57 C 0.04774 0.17032 0.11225 0.0
H58 H 0.11509 0.2346 0.10572 0.0
H59 H 0.09693 0.14493 0.10899 0.0
O60 O 0.21951 0.21299 0.09725 0.0
O61 O 0.17829 0.24133 0.09652 0.0
O62 O 0.15163 0.1747 0.08718 0.0
O63 O 0.16919 0.1926 0.12189 0.0
H64 H 0.25171 0.22056 0.12294 0.0
H65 H 0.22592 0.17613 0.07789 0.0
H66 H 0.28203 0.19627 0.1277 0.0
H67 H 0.25676 0.15264 0.08345 0.0
H68 H 0.19543 0.32382 0.12467 0.0
H69 H 0.2208 0.28286 0.0783 0.0
H70 H 0.16823 0.26842 0.1203 0.0
H71 H 0.24694 0.33802 0.08334 0.0
H72 H 0.25373 0.23011 0.03801 0.0
H73 H 0.17332 0.23461 0.02895 0.0
H74 H 0.2483 0.26657 0.16369 0.0
H75 H 0.2998 0.31865 0.12341 0.0
H76 H 0.10454 0.17709 0.07637 0.0
H77 H 0.1743 0.15779 0.06384 0.0
H78 H 0.08531 0.16476 0.04909 0.0
H79 H 0.15367 0.14562 0.03681 0.0
H80 H 0.13432 0.13591 0.13104 0.0
H81 H 0.15452 0.2272 0.13826 0.0
H82 H 0.09431 0.11894 0.15139 0.0
H83 H 0.11398 0.2086 0.15841 0.0
H84 H 0.18743 0.09947 0.13521 0.0
H85 H 0.15084 0.07278 0.08835 0.0
H86 H 0.06083 0.21738 0.10968 0.0
H87 H 0.04304 0.126 0.11361 0.0
Li88 Li 0.82453 0.01647 0.10177 0.0
Li89 Li 0.80217 0.96177 0.10315 0.0
Li90 Li 0.78515 0.98494 0.08355 0.0
Li91 Li 0.7726 0.98358 0.11127 0.0
C92 C 0.83157 0.98389 0.07086 0.0
N93 N 0.84106 0.97174 0.04035 0.0
C94 C 0.82834 0.95593 0.06704 0.0
C95 C 0.83962 0.00566 0.05912 0.0
C96 C 0.83329 0.95025 0.05156 0.0
C97 C 0.84427 0.99907 0.04377 0.0
C98 C 0.821 0.98014 0.13218 0.0
C99 C 0.81245 0.94344 0.15213 0.0
N100 N 0.84273 0.95724 0.15457 0.0
C101 C 0.85203 0.99406 0.13494 0.0
C102 C 0.80102 0.95472 0.14089 0.0
C103 C 0.86257 0.98211 0.14629 0.0
C104 C 0.86899 0.0674 0.11898 0.0
N105 N 0.86165 0.05346 0.10472 0.0
C106 C 0.91032 0.08871 0.09449 0.0
C107 C 0.88144 0.06388 0.09251 0.0
C108 C 0.91916 0.10264 0.10928 0.0
C109 C 0.89794 0.0921 0.12158 0.0
H110 H 0.85281 0.05851 0.12852 0.0
H111 H 0.87525 0.05221 0.08139 0.0
C112 C 0.79299 0.90231 0.10898 0.0
N113 N 0.81312 0.93227 0.10721 0.0
C114 C 0.80327 0.88226 0.11194 0.0
C115 C 0.85451 0.92449 0.11141 0.0
C116 C 0.84333 0.94349 0.1082 0.0
C117 C 0.83442 0.89346 0.1133 0.0
H118 H 0.76906 0.89399 0.10799 0.0
H119 H 0.85877 0.96735 0.10644 0.0
C120 C 0.79924 0.04824 0.09889 0.0
N121 N 0.82481 0.10937 0.10453 0.0
C122 C 0.79328 0.05841 0.11296 0.0
C123 C 0.8182 0.06919 0.08768 0.0
C124 C 0.8064 0.0894 0.11558 0.0
C125 C 0.83093 0.09999 0.09076 0.0
C126 C 0.73044 0.93042 0.09941 0.0
C127 C 0.70942 0.92973 0.08879 0.0
C128 C 0.72043 0.91265 0.11295 0.0
C129 C 0.67863 0.91151 0.09202 0.0
C130 C 0.68946 0.89478 0.11576 0.0
N131 N 0.66937 0.89459 0.10533 0.0
C132 C 0.76533 0.95892 0.05325 0.0
C133 C 0.77301 0.00812 0.0566 0.0
C134 C 0.76216 0.96043 0.03703 0.0
N135 N 0.77188 0.98309 0.06252 0.0
C136 C 0.77014 0.01067 0.04048 0.0
C137 C 0.7658 0.98708 0.03044 0.0
H138 H 0.76453 0.93927 0.05832 0.0
H139 H 0.77769 0.02675 0.06428 0.0
C140 C 0.74972 0.98687 0.14093 0.0
N141 N 0.74314 0.982 0.12536 0.0
C142 C 0.73088 0.99119 0.15111 0.0
C143 C 0.69804 0.98379 0.12918 0.0
C144 C 0.71779 0.98014 0.11938 0.0
C145 C 0.70497 0.99043 0.1452 0.0
H146 H 0.77053 0.98923 0.14528 0.0
H147 H 0.71361 0.97726 0.10688 0.0
O148 O 0.82641 0.98974 0.08593 0.0
O149 O 0.81026 0.99108 0.12087 0.0
O150 O 0.7872 0.01799 0.09625 0.0
O151 O 0.76066 0.94818 0.09649 0.0
H152 H 0.82181 0.93864 0.07586 0.0
H153 H 0.84138 0.0271 0.06168 0.0
H154 H 0.83081 0.92869 0.04845 0.0
H155 H 0.85016 0.01558 0.03456 0.0
H156 H 0.79725 0.92368 0.15889 0.0
H157 H 0.86785 0.01357 0.12821 0.0
H158 H 0.77696 0.94369 0.13891 0.0
H159 H 0.88653 0.99253 0.14847 0.0
H160 H 0.92614 0.09573 0.08478 0.0
H161 H 0.90399 0.10222 0.13317 0.0
H162 H 0.78716 0.8584 0.11323 0.0
H163 H 0.8787 0.93388 0.11203 0.0
H164 H 0.77885 0.04262 0.12182 0.0
H165 H 0.82357 0.0618 0.07685 0.0
H166 H 0.80202 0.09757 0.12644 0.0
H167 H 0.84581 0.11644 0.08224 0.0
H168 H 0.71679 0.9433 0.07825 0.0
H169 H 0.7364 0.91277 0.12122 0.0
H170 H 0.6621 0.91087 0.08396 0.0
H171 H 0.68138 0.88104 0.12624 0.0
H172 H 0.75898 0.94182 0.02966 0.0
H173 H 0.77256 0.03137 0.03585 0.0
H174 H 0.73764 0.9969 0.16326 0.0
H175 H 0.6782 0.98263 0.12409 0.0
Li176 Li 0.98302 0.81846 0.10857 0.0
Li177 Li 0.03819 0.85222 0.11034 0.0
Li178 Li 0.01482 0.81098 0.09065 0.0
Li179 Li 0.01474 0.79956 0.11874 0.0
C180 C 0.01584 0.85942 0.07809 0.0
N181 N 0.02716 0.88318 0.04806 0.0
C182 C 0.0424 0.88657 0.07484 0.0
C183 C 0.99496 0.84447 0.06603 0.0
C184 C 0.0477 0.89819 0.0596 0.0
C185 C 0.00113 0.85679 0.05094 0.0
C186 C 0.02159 0.84633 0.14134 0.0
C187 C 0.05973 0.86146 0.16136 0.0
N188 N 0.04883 0.87763 0.1686 0.0
C189 C 0.01073 0.86305 0.14898 0.0
C190 C 0.04627 0.8455 0.14756 0.0
C191 C 0.02483 0.87874 0.16275 0.0
C192 C 0.93535 0.81816 0.12578 0.0
N193 N 0.94634 0.81884 0.11113 0.0
C194 C 0.90985 0.82869 0.09973 0.0
C195 C 0.93371 0.82332 0.0982 0.0
C196 C 0.89919 0.82999 0.11476 0.0
C197 C 0.9117 0.82387 0.12789 0.0
H198 H 0.94585 0.81455 0.13587 0.0
H199 H 0.94296 0.824 0.08673 0.0
C200 C 0.09811 0.90338 0.1112 0.0
N201 N 0.06846 0.89261 0.11446 0.0
C202 C 0.1191 0.93414 0.11302 0.0
C203 C 0.07864 0.94166 0.12192 0.0
C204 C 0.0585 0.91096 0.11978 0.0
C205 C 0.10932 0.95373 0.11828 0.0
H206 H 0.10528 0.88833 0.10668 0.0
H207 H 0.03466 0.90184 0.12185 0.0
C208 C 0.95045 0.76166 0.10385 0.0
N209 N 0.88823 0.72715 0.10554 0.0
C210 C 0.93641 0.74613 0.11765 0.0
C211 C 0.93283 0.75956 0.09089 0.0
C212 C 0.90493 0.72881 0.11827 0.0
C213 C 0.90141 0.74202 0.09198 0.0
C214 C 0.07159 0.81467 0.10514 0.0
C215 C 0.07086 0.79351 0.0945 0.0
C216 C 0.09454 0.8276 0.11638 0.0
C217 C 0.09288 0.7853 0.09543 0.0
C218 C 0.11611 0.81877 0.11694 0.0
N219 N 0.11484 0.79797 0.10655 0.0
C220 C 0.04111 0.8199 0.06047 0.0
C221 C 0.9962 0.77275 0.06406 0.0
C222 C 0.04059 0.81466 0.04434 0.0
N223 N 0.01827 0.79969 0.06978 0.0
C224 C 0.99501 0.76637 0.04803 0.0
C225 C 0.01672 0.78805 0.03792 0.0
H226 H 0.05868 0.84091 0.06543 0.0
H227 H 0.97875 0.75678 0.07181 0.0
C228 C 7e-05 0.76864 0.14718 0.0
N229 N 0.01564 0.77249 0.13362 0.0
C230 C 0.9963 0.74662 0.15793 0.0
C231 C 0.02606 0.7339 0.14099 0.0
C232 C 0.02872 0.75579 0.13041 0.0
C233 C 0.00897 0.72847 0.15481 0.0
H234 H 0.98931 0.78175 0.1493 0.0
H235 H 0.04031 0.75857 0.11942 0.0
O236 O 0.01036 0.8476 0.09295 0.0
O237 O 0.0084 0.83128 0.12769 0.0
O238 O 0.98123 0.77934 0.10315 0.0
O239 O 0.05044 0.82323 0.1043 0.0
H240 H 0.05882 0.89856 0.08396 0.0
H241 H 0.97463 0.8231 0.06816 0.0
H242 H 0.0682 0.91914 0.05694 0.0
H243 H 0.98535 0.84524 0.04148 0.0
H244 H 0.07885 0.86102 0.1663 0.0
H245 H 0.99181 0.86414 0.14425 0.0
H246 H 0.05491 0.83266 0.14181 0.0
H247 H 0.01674 0.89186 0.16876 0.0
H248 H 0.90121 0.83374 0.0893 0.0
H249 H 0.90403 0.82458 0.13968 0.0
H250 H 0.14254 0.94261 0.11002 0.0
H251 H 0.06999 0.95603 0.12561 0.0
H252 H 0.94962 0.74751 0.12779 0.0
H253 H 0.94324 0.77175 0.08019 0.0
H254 H 0.89377 0.71673 0.12889 0.0
H255 H 0.88751 0.74037 0.08208 0.0
H256 H 0.05331 0.78327 0.08572 0.0
H257 H 0.09577 0.84436 0.12455 0.0
H258 H 0.09247 0.76883 0.08733 0.0
H259 H 0.13393 0.82851 0.12561 0.0
H260 H 0.05792 0.83173 0.03689 0.0
H261 H 0.97629 0.74559 0.04349 0.0
H262 H 0.98228 0.74295 0.16816 0.0
H263 H 0.03657 0.72082 0.13811 0.0
Li264 Li 0.22482 0.20162 0.88404 0.0
Li265 Li 0.20755 0.19093 0.91064 0.0
Li266 Li 0.19459 0.15058 0.89098 0.0
Li267 Li 0.17145 0.18171 0.8896 0.0
C268 C 0.26538 0.19518 0.8984 0.0
N269 N 0.32731 0.22844 0.89469 0.0
C270 C 0.28269 0.2207 0.90771 0.0
C271 C 0.27958 0.18638 0.88731 0.0
C272 C 0.31397 0.23726 0.90563 0.0
C273 C 0.31091 0.20355 0.88558 0.0
C274 C 0.20687 0.2443 0.8888 0.0
C275 C 0.21551 0.29498 0.88804 0.0
N276 N 0.20875 0.29158 0.87245 0.0
C277 C 0.19994 0.2413 0.87276 0.0
C278 C 0.21469 0.27136 0.8965 0.0
C279 C 0.20106 0.26546 0.86471 0.0
C280 C 0.25958 0.22318 0.85612 0.0
N281 N 0.25704 0.23022 0.87124 0.0
C282 C 0.295 0.28171 0.86712 0.0
C283 C 0.27482 0.25858 0.87699 0.0
C284 C 0.29682 0.27549 0.85119 0.0
C285 C 0.27959 0.24555 0.84586 0.0
H286 H 0.24508 0.20057 0.85178 0.0
H287 H 0.27211 0.2636 0.88904 0.0
C288 C 0.20628 0.17845 0.94273 0.0
N289 N 0.21498 0.20118 0.9322 0.0
C290 C 0.20854 0.18452 0.95882 0.0
C291 C 0.22947 0.23743 0.95292 0.0
C292 C 0.22669 0.23029 0.93692 0.0
C293 C 0.21999 0.21432 0.96412 0.0
H294 H 0.19676 0.15548 0.93859 0.0
H295 H 0.23342 0.24787 0.92824 0.0
C296 C 0.18347 0.15023 0.86037 0.0
N297 N 0.17049 0.10813 0.83683 0.0
C298 C 0.15693 0.13908 0.85163 0.0
C299 C 0.20372 0.14043 0.85687 0.0
C300 C 0.15069 0.1177 0.83984 0.0
C301 C 0.19666 0.11899 0.84502 0.0
C302 C 0.14598 0.15033 0.91695 0.0
C303 C 0.12397 0.1213 0.92158 0.0
C304 C 0.14524 0.17533 0.92289 0.0
C305 C 0.10157 0.11776 0.93218 0.0
C306 C 0.12247 0.17084 0.93346 0.0
N307 N 0.1013 0.14239 0.93785 0.0
C308 C 0.20316 0.0993 0.8896 0.0
C309 C 0.15388 0.09085 0.88536 0.0
C310 C 0.19268 0.06847 0.88775 0.0
N311 N 0.18363 0.10968 0.8884 0.0
C312 C 0.14251 0.06007 0.88339 0.0
C313 C 0.16193 0.04843 0.88463 0.0
H314 H 0.22673 0.11489 0.89206 0.0
H315 H 0.13894 0.09984 0.88459 0.0
C316 C 0.12802 0.20161 0.88888 0.0
N317 N 0.13382 0.17913 0.88553 0.0
C318 C 0.09873 0.19658 0.88732 0.0
C319 C 0.08222 0.14562 0.87882 0.0
C320 C 0.11162 0.15151 0.8807 0.0
C321 C 0.0754 0.16821 0.88229 0.0
H322 H 0.14575 0.22304 0.89329 0.0
H323 H 0.1166 0.13367 0.87885 0.0
O324 O 0.23466 0.1791 0.90004 0.0
O325 O 0.20649 0.22121 0.89696 0.0
O326 O 0.18976 0.17091 0.87212 0.0
O327 O 0.16782 0.15409 0.90644 0.0
H328 H 0.27206 0.22786 0.91632 0.0
H329 H 0.26658 0.16657 0.88009 0.0
H330 H 0.32763 0.25718 0.91268 0.0
H331 H 0.32219 0.1971 0.87699 0.0
H332 H 0.22155 0.31604 0.89387 0.0
H333 H 0.19383 0.22066 0.86652 0.0
H334 H 0.22012 0.27412 0.90889 0.0
H335 H 0.19582 0.26345 0.8523 0.0
H336 H 0.30753 0.3045 0.87171 0.0
H337 H 0.28057 0.23971 0.83371 0.0
H338 H 0.20049 0.16591 0.96699 0.0
H339 H 0.23877 0.26073 0.95647 0.0
H340 H 0.14143 0.14707 0.85379 0.0
H341 H 0.22448 0.149 0.8634 0.0
H342 H 0.13016 0.1088 0.83304 0.0
H343 H 0.21199 0.11098 0.84234 0.0
H344 H 0.12419 0.10173 0.91702 0.0
H345 H 0.16196 0.19796 0.91934 0.0
H346 H 0.08439 0.09542 0.93588 0.0
H347 H 0.12161 0.18997 0.93815 0.0
H348 H 0.2084 0.06042 0.88877 0.0
H349 H 0.11855 0.04545 0.88136 0.0
H350 H 0.09427 0.21446 0.89028 0.0
H351 H 0.06474 0.12316 0.87537 0.0
Li352 Li 0.79609 0.01073 0.88271 0.0
Li353 Li 0.80955 0.00797 0.91006 0.0
Li354 Li 0.84896 0.03931 0.8909 0.0
Li355 Li 0.82451 0.9845 0.89007 0.0
C356 C 0.81786 0.07046 0.89293 0.0
N357 N 0.82487 0.12402 0.88177 0.0
C358 C 0.81628 0.09082 0.90326 0.0
C359 C 0.82304 0.07734 0.87694 0.0
C360 C 0.81987 0.11778 0.89739 0.0
C361 C 0.82652 0.10453 0.87152 0.0
C362 C 0.75727 0.95605 0.90433 0.0
C363 C 0.73133 0.91965 0.92491 0.0
N364 N 0.70566 0.92005 0.92165 0.0
C365 C 0.73056 0.95595 0.90113 0.0
C366 C 0.75761 0.9376 0.91625 0.0
C367 C 0.70473 0.93763 0.91003 0.0
C368 C 0.75917 0.98855 0.8568 0.0
N369 N 0.76587 0.00795 0.86903 0.0
C370 C 0.72716 0.01804 0.8614 0.0
C371 C 0.75046 0.02264 0.87156 0.0
C372 C 0.71976 0.99808 0.84862 0.0
C373 C 0.7362 0.98333 0.84638 0.0
H374 H 0.77146 0.97675 0.85532 0.0
H375 H 0.75585 0.03747 0.88159 0.0
C376 C 0.82045 0.01254 0.94225 0.0
N377 N 0.79833 0.00603 0.9316 0.0
C378 C 0.81427 0.01064 0.9583 0.0
C379 C 0.76271 0.99602 0.95223 0.0
C380 C 0.77004 0.99867 0.93624 0.0
C381 C 0.78502 0.00197 0.96344 0.0
H382 H 0.84294 0.01911 0.93829 0.0
H383 H 0.7531 0.99465 0.92757 0.0
C384 C 0.85074 0.0237 0.85967 0.0
N385 N 0.88948 0.04708 0.83425 0.0
C386 C 0.88025 0.02923 0.86071 0.0
C387 C 0.84101 0.03024 0.8457 0.0
C388 C 0.89949 0.04104 0.84774 0.0
C389 C 0.8609 0.04198 0.83297 0.0
C390 C 0.86528 0.99867 0.9119 0.0
C391 C 0.8948 0.00935 0.90665 0.0
C392 C 0.8516 0.97364 0.92185 0.0
C393 C 0.91001 0.99459 0.9113 0.0
C394 C 0.86753 0.95946 0.92621 0.0
N395 N 0.89616 0.97013 0.92089 0.0
C396 C 0.90539 0.08273 0.9016 0.0
C397 C 0.89705 0.09206 0.87539 0.0
C398 C 0.93587 0.10466 0.90051 0.0
N399 N 0.88708 0.07578 0.8889 0.0
C400 C 0.92751 0.11406 0.87372 0.0
C401 C 0.94756 0.11967 0.88619 0.0
H402 H 0.89675 0.06983 0.9123 0.0
H403 H 0.88193 0.08672 0.86555 0.0
C404 C 0.80697 0.92231 0.88946 0.0
N405 N 0.8295 0.95062 0.88575 0.0
C406 C 0.81164 0.89785 0.88827 0.0
C407 C 0.86203 0.9319 0.87871 0.0
C408 C 0.85639 0.95558 0.8801 0.0
C409 C 0.83971 0.90262 0.88309 0.0
H410 H 0.78561 0.91877 0.8937 0.0
H411 H 0.87406 0.9781 0.87731 0.0
O412 O 0.81455 0.04407 0.89856 0.0
O413 O 0.78278 0.97384 0.89571 0.0
O414 O 0.83148 0.01218 0.87225 0.0
O415 O 0.84968 0.01234 0.90718 0.0
H416 H 0.81232 0.08581 0.91569 0.0
H417 H 0.82428 0.06185 0.86879 0.0
H418 H 0.81868 0.13375 0.90524 0.0
H419 H 0.83053 0.11012 0.85917 0.0
H420 H 0.73136 0.90543 0.93423 0.0
H421 H 0.72974 0.96991 0.89192 0.0
H422 H 0.77798 0.93728 0.91889 0.0
H423 H 0.68396 0.93743 0.90771 0.0
H424 H 0.71502 0.02981 0.86355 0.0
H425 H 0.7308 0.9672 0.83693 0.0
H426 H 0.83209 0.01539 0.9666 0.0
H427 H 0.74001 0.98971 0.95579 0.0
H428 H 0.88865 0.02566 0.8716 0.0
H429 H 0.81837 0.02641 0.84468 0.0
H430 H 0.92247 0.04571 0.84846 0.0
H431 H 0.85363 0.0471 0.8221 0.0
H432 H 0.90576 0.02854 0.89887 0.0
H433 H 0.82888 0.96516 0.9261 0.0
H434 H 0.93278 0.0025 0.90723 0.0
H435 H 0.85712 0.93995 0.93382 0.0
H436 H 0.95047 0.10813 0.91041 0.0
H437 H 0.93557 0.1255 0.86256 0.0
H438 H 0.79368 0.87557 0.89161 0.0
H439 H 0.8842 0.9368 0.87492 0.0
Li440 Li 0.0137 0.82231 0.8977 0.0
Li441 Li 0.95916 0.79609 0.89733 0.0
Li442 Li 0.98633 0.78471 0.9178 0.0
Li443 Li 0.98587 0.77027 0.88968 0.0
C444 C 0.99621 0.84772 0.92301 0.0
N445 N 0.01517 0.8985 0.94157 0.0
C446 C 0.98844 0.86929 0.91907 0.0
C447 C 0.01333 0.85188 0.93653 0.0
C448 C 0.99834 0.89484 0.92856 0.0
C449 C 0.02278 0.87772 0.94571 0.0
C450 C 0.98436 0.82383 0.86897 0.0
C451 C 0.97309 0.83471 0.84316 0.0
N452 N 0.97783 0.86173 0.84852 0.0
C453 C 0.98909 0.85169 0.87421 0.0
C454 C 0.97627 0.81523 0.85331 0.0
C455 C 0.98571 0.87055 0.8637 0.0
C456 C 0.05888 0.86943 0.87869 0.0
N457 N 0.04997 0.86044 0.89375 0.0
C458 C 0.08892 0.90804 0.9035 0.0
C459 C 0.06554 0.87858 0.90606 0.0
C460 C 0.09684 0.9189 0.88807 0.0
C461 C 0.08225 0.89877 0.87555 0.0
H462 H 0.04715 0.8542 0.86905 0.0
H463 H 0.05943 0.87051 0.9179 0.0
C464 C 0.91692 0.81174 0.90658 0.0
N465 N 0.92546 0.80123 0.8941 0.0
C466 C 0.89694 0.82225 0.90452 0.0
C467 C 0.89277 0.80836 0.87707 0.0
C468 C 0.91295 0.79821 0.87966 0.0
C469 C 0.88543 0.82167 0.88948 0.0
H470 H 0.92704 0.81363 0.91796 0.0
H471 H 0.91972 0.78931 0.86997 0.0
C472 C 0.0508 0.80353 0.90404 0.0
N473 N 0.11307 0.83483 0.90238 0.0
C474 C 0.06528 0.80533 0.88981 0.0
C475 C 0.06795 0.81752 0.91745 0.0
C476 C 0.09679 0.82131 0.8892 0.0
C477 C 0.09942 0.83326 0.91637 0.0
C478 C 0.9246 0.73363 0.89777 0.0
C479 C 0.90204 0.71077 0.90693 0.0
C480 C 0.92036 0.73408 0.88157 0.0
C481 C 0.87554 0.68867 0.89972 0.0
C482 C 0.89356 0.71159 0.8748 0.0
N483 N 0.87188 0.68954 0.88394 0.0
C484 C 0.96881 0.7811 0.949 0.0
C485 C 0.00499 0.76611 0.94471 0.0
C486 C 0.97211 0.78053 0.96522 0.0
N487 N 0.98595 0.77499 0.93918 0.0
C488 C 0.00869 0.76483 0.96091 0.0
C489 C 0.99288 0.77315 0.9713 0.0
H490 H 0.95398 0.78823 0.9442 0.0
H491 H 0.01838 0.7615 0.93657 0.0
C492 C 0.99838 0.75121 0.86155 0.0
N493 N 0.98671 0.74162 0.87614 0.0
C494 C 0.00236 0.73218 0.85141 0.0
C495 C 0.98146 0.6934 0.87137 0.0
C496 C 0.97787 0.71327 0.88115 0.0
C497 C 0.99431 0.703 0.85636 0.0
H498 H 0.00564 0.77408 0.85804 0.0
H499 H 0.96875 0.7064 0.89288 0.0
O500 O 0.98607 0.82212 0.91406 0.0
O501 O 0.98683 0.80467 0.87914 0.0
O502 O 0.01999 0.78863 0.90476 0.0
O503 O 0.95059 0.75544 0.90471 0.0
H504 H 0.97473 0.86634 0.90887 0.0
H505 H 0.01995 0.83574 0.93971 0.0
H506 H 0.99253 0.91171 0.92561 0.0
H507 H 0.03626 0.8813 0.95611 0.0
H508 H 0.96676 0.82831 0.83103 0.0
H509 H 0.9955 0.85871 0.88623 0.0
H510 H 0.97219 0.79359 0.8491 0.0
H511 H 0.98936 0.89219 0.86762 0.0
H512 H 0.0995 0.92255 0.91357 0.0
H513 H 0.08817 0.90588 0.86346 0.0
H514 H 0.8922 0.83252 0.91442 0.0
H515 H 0.884 0.80693 0.86535 0.0
H516 H 0.05231 0.79478 0.8793 0.0
H517 H 0.05709 0.81662 0.92852 0.0
H518 H 0.10831 0.82302 0.87825 0.0
H519 H 0.113 0.84436 0.92663 0.0
H520 H 0.90498 0.71014 0.91949 0.0
H521 H 0.93753 0.75158 0.87427 0.0
H522 H 0.85788 0.67084 0.90667 0.0
H523 H 0.88998 0.71169 0.86228 0.0
H524 H 0.95937 0.78682 0.97293 0.0
H525 H 0.02497 0.75914 0.96522 0.0
H526 H 0.01292 0.74078 0.8401 0.0
H527 H 0.97482 0.67104 0.8756 0.0
Li528 Li 0.86341 0.55146 0.4491 0.0
Li529 Li 0.8514 0.53795 0.4216 0.0
Li530 Li 0.81167 0.52006 0.44171 0.0
Li531 Li 0.84549 0.49982 0.43999 0.0
C532 C 0.85127 0.59189 0.43756 0.0
N533 N 0.87718 0.65293 0.44348 0.0
C534 C 0.87204 0.61292 0.42694 0.0
C535 C 0.84341 0.60188 0.45109 0.0
C536 C 0.88494 0.64369 0.43017 0.0
C537 C 0.85685 0.63284 0.4539 0.0
C538 C 0.90281 0.52703 0.43599 0.0
C539 C 0.92429 0.49732 0.4271 0.0
N540 N 0.9402 0.50375 0.44072 0.0
C541 C 0.91936 0.53332 0.4499 0.0
C542 C 0.90529 0.5089 0.42448 0.0
C543 C 0.93816 0.52137 0.45206 0.0
C544 C 0.88992 0.57679 0.47842 0.0
N545 N 0.89178 0.5818 0.46268 0.0
C546 C 0.94058 0.62569 0.46544 0.0
C547 C 0.91617 0.60592 0.45611 0.0
C548 C 0.94018 0.62008 0.48163 0.0
C549 C 0.91397 0.5958 0.48818 0.0
H550 H 0.87067 0.55692 0.48326 0.0
H551 H 0.91743 0.60881 0.4435 0.0
C552 C 0.84149 0.55477 0.39175 0.0
N553 N 0.86132 0.55078 0.40043 0.0
C554 C 0.84472 0.55758 0.37545 0.0
C555 C 0.89034 0.55515 0.37758 0.0
C556 C 0.88605 0.55207 0.39382 0.0
C557 C 0.86886 0.55678 0.36817 0.0
H558 H 0.82215 0.55386 0.39739 0.0
H559 H 0.9016 0.54916 0.40105 0.0
C560 C 0.81231 0.502 0.47059 0.0
N561 N 0.76731 0.4783 0.49312 0.0
C562 C 0.79658 0.47101 0.47361 0.0
C563 C 0.8053 0.52096 0.4791 0.0
C564 C 0.77388 0.45946 0.48504 0.0
C565 C 0.78243 0.50853 0.49042 0.0
C566 C 0.8043 0.48931 0.40959 0.0
C567 C 0.77824 0.49003 0.4058 0.0
C568 C 0.81891 0.48212 0.39792 0.0
C569 C 0.76722 0.48353 0.39042 0.0
C570 C 0.80724 0.47585 0.38267 0.0
N571 N 0.78184 0.47667 0.37928 0.0
C572 C 0.75976 0.52658 0.44691 0.0
C573 C 0.75229 0.47713 0.44707 0.0
C574 C 0.72881 0.51505 0.44919 0.0
N575 N 0.77069 0.50747 0.44585 0.0
C576 C 0.7215 0.46474 0.44959 0.0
C577 C 0.70934 0.48372 0.45056 0.0
H578 H 0.77493 0.55063 0.44571 0.0
H579 H 0.76159 0.46251 0.4458 0.0
C580 C 0.85566 0.45809 0.45697 0.0
N581 N 0.84678 0.46382 0.44301 0.0
C582 C 0.85237 0.42977 0.45976 0.0
C583 C 0.83264 0.41472 0.43345 0.0
C584 C 0.8359 0.44303 0.43126 0.0
C585 C 0.84017 0.4075 0.44798 0.0
H586 H 0.86402 0.47502 0.46616 0.0
H587 H 0.82848 0.44788 0.42043 0.0
O588 O 0.83857 0.56169 0.43467 0.0
O589 O 0.88368 0.53788 0.4338 0.0
O590 O 0.83419 0.51368 0.45922 0.0
O591 O 0.81571 0.49604 0.42455 0.0
H592 H 0.87833 0.60556 0.41641 0.0
H593 H 0.82723 0.58589 0.45935 0.0
H594 H 0.90118 0.66023 0.42211 0.0
H595 H 0.85112 0.6409 0.46437 0.0
H596 H 0.92627 0.4831 0.41835 0.0
H597 H 0.91757 0.54706 0.459 0.0
H598 H 0.89225 0.50334 0.41376 0.0
H599 H 0.95104 0.526 0.46279 0.0
H600 H 0.96016 0.64427 0.45991 0.0
H601 H 0.91282 0.59021 0.50052 0.0
H602 H 0.82789 0.55916 0.36857 0.0
H603 H 0.9092 0.55437 0.37239 0.0
H604 H 0.80149 0.45595 0.46704 0.0
H605 H 0.81723 0.54497 0.4769 0.0
H606 H 0.76139 0.4355 0.48742 0.0
H607 H 0.77666 0.52292 0.49703 0.0
H608 H 0.76674 0.49584 0.41456 0.0
H609 H 0.83955 0.48222 0.40047 0.0
H610 H 0.74712 0.48409 0.38734 0.0
H611 H 0.81852 0.47061 0.37351 0.0
H612 H 0.72018 0.53035 0.4498 0.0
H613 H 0.70718 0.44043 0.45021 0.0
H614 H 0.85837 0.42503 0.47114 0.0
H615 H 0.82255 0.39805 0.42417 0.0
Li616 Li 0.48359 0.33084 0.43868 0.0
Li617 Li 0.45792 0.27639 0.4395 0.0
Li618 Li 0.44414 0.30261 0.41955 0.0
Li619 Li 0.43239 0.30304 0.44799 0.0
C620 C 0.50606 0.31253 0.41207 0.0
N621 N 0.55358 0.33065 0.39122 0.0
C622 C 0.5285 0.30539 0.41489 0.0
C623 C 0.50769 0.32862 0.39852 0.0
C624 C 0.55237 0.31484 0.40425 0.0
C625 C 0.53191 0.33765 0.38816 0.0
C626 C 0.48894 0.30353 0.46694 0.0
C627 C 0.50462 0.2956 0.49227 0.0
N628 N 0.53076 0.30005 0.48574 0.0
C629 C 0.51593 0.30799 0.46049 0.0
C630 C 0.48319 0.29726 0.48296 0.0
C631 C 0.53681 0.30617 0.47018 0.0
C632 C 0.53074 0.37717 0.45701 0.0
N633 N 0.52196 0.36726 0.44203 0.0
C634 C 0.56959 0.4058 0.43209 0.0
C635 C 0.54032 0.38189 0.42964 0.0
C636 C 0.58011 0.4149 0.44749 0.0
C637 C 0.55998 0.40088 0.46004 0.0
H638 H 0.51541 0.366 0.46669 0.0
H639 H 0.53257 0.37476 0.41782 0.0
C640 C 0.47374 0.23448 0.42966 0.0
N641 N 0.46421 0.24331 0.44244 0.0
C642 C 0.48552 0.21548 0.43142 0.0
C643 C 0.4749 0.21284 0.45926 0.0
C644 C 0.46339 0.23197 0.45696 0.0
C645 C 0.48728 0.20532 0.44647 0.0
H646 H 0.47396 0.24372 0.41824 0.0
H647 H 0.45533 0.23901 0.46691 0.0
C648 C 0.46416 0.36758 0.43373 0.0
N649 N 0.49573 0.42976 0.43622 0.0
C650 C 0.4646 0.38145 0.44797 0.0
C651 C 0.47973 0.38532 0.42074 0.0
C652 C 0.4807 0.41292 0.44899 0.0
C653 C 0.49557 0.41672 0.42224 0.0
C654 C 0.39551 0.2414 0.44065 0.0
C655 C 0.37176 0.21853 0.43205 0.0
C656 C 0.39769 0.23768 0.45677 0.0
C657 C 0.35052 0.19223 0.43973 0.0
C658 C 0.37601 0.21105 0.46402 0.0
N659 N 0.35307 0.18906 0.45542 0.0
C660 C 0.431 0.27886 0.38922 0.0
C661 C 0.42866 0.32345 0.39239 0.0
C662 C 0.42849 0.27999 0.37295 0.0
N663 N 0.43198 0.30093 0.39847 0.0
C664 C 0.42648 0.32569 0.37615 0.0
C665 C 0.42745 0.30434 0.36615 0.0
H666 H 0.43382 0.2613 0.39444 0.0
H667 H 0.42944 0.34063 0.40007 0.0
C668 C 0.41491 0.31577 0.47669 0.0
N669 N 0.40459 0.30387 0.46221 0.0
C670 C 0.39651 0.32033 0.48704 0.0
C671 C 0.35675 0.29911 0.4676 0.0
C672 C 0.37601 0.29504 0.45758 0.0
C673 C 0.3672 0.31255 0.48243 0.0
H674 H 0.43792 0.32299 0.47992 0.0
H675 H 0.36854 0.28571 0.44594 0.0
O676 O 0.48207 0.30283 0.42218 0.0
O677 O 0.46783 0.30453 0.45761 0.0
O678 O 0.44916 0.33679 0.43262 0.0
O679 O 0.41647 0.26722 0.43325 0.0
H680 H 0.5275 0.29251 0.42511 0.0
H681 H 0.49085 0.33471 0.39616 0.0
H682 H 0.5699 0.30951 0.40632 0.0
H683 H 0.53353 0.3503 0.37771 0.0
H684 H 0.50044 0.2907 0.50469 0.0
H685 H 0.52075 0.31297 0.44816 0.0
H686 H 0.46226 0.29344 0.48812 0.0
H687 H 0.55781 0.30962 0.46533 0.0
H688 H 0.58429 0.41596 0.42204 0.0
H689 H 0.56702 0.4076 0.47209 0.0
H690 H 0.49497 0.21054 0.42122 0.0
H691 H 0.47527 0.20506 0.47102 0.0
H692 H 0.45286 0.36807 0.45815 0.0
H693 H 0.48009 0.37498 0.4097 0.0
H694 H 0.48133 0.42395 0.45996 0.0
H695 H 0.50788 0.43073 0.41232 0.0
H696 H 0.3698 0.22109 0.41955 0.0
H697 H 0.41588 0.25511 0.46364 0.0
H698 H 0.33201 0.17433 0.43322 0.0
H699 H 0.37743 0.20787 0.47648 0.0
H700 H 0.42863 0.26265 0.36575 0.0
H701 H 0.42592 0.34495 0.37149 0.0
H702 H 0.40577 0.3313 0.49821 0.0
H703 H 0.33425 0.29254 0.46362 0.0
Li704 Li 0.65318 0.14811 0.4445 0.0
Li705 Li 0.70802 0.17875 0.44457 0.0
Li706 Li 0.68176 0.1423 0.42299 0.0
Li707 Li 0.68545 0.12673 0.44898 0.0
C708 C 0.66274 0.18426 0.41867 0.0
N709 N 0.62875 0.19613 0.39802 0.0
C710 C 0.67128 0.21403 0.4151 0.0
C711 C 0.63686 0.16049 0.41179 0.0
C712 C 0.65381 0.21957 0.40461 0.0
C713 C 0.62 0.16697 0.40137 0.0
C714 C 0.69416 0.17403 0.47499 0.0
C715 C 0.73687 0.20084 0.49228 0.0
N716 N 0.72188 0.21233 0.50018 0.0
C717 C 0.67903 0.18578 0.48341 0.0
C718 C 0.72317 0.18131 0.47958 0.0
C719 C 0.69347 0.20521 0.49607 0.0
C720 C 0.58936 0.12808 0.4452 0.0
N721 N 0.61795 0.15055 0.44853 0.0
C722 C 0.6004 0.18442 0.45464 0.0
C723 C 0.62377 0.1783 0.45315 0.0
C724 C 0.57065 0.16184 0.45114 0.0
C725 C 0.56522 0.13323 0.44651 0.0
H726 H 0.5853 0.10652 0.44096 0.0
H727 H 0.64683 0.19609 0.45508 0.0
C728 C 0.76873 0.22887 0.44628 0.0
N729 N 0.73901 0.21875 0.44898 0.0
C730 C 0.79016 0.25944 0.44843 0.0
C731 C 0.74995 0.26797 0.45658 0.0
C732 C 0.72938 0.23749 0.45409 0.0
C733 C 0.78073 0.27942 0.45349 0.0
H734 H 0.77564 0.21342 0.44206 0.0
H735 H 0.70553 0.22882 0.45585 0.0
C736 C 0.6248 0.08536 0.44218 0.0
N737 N 0.57731 0.03501 0.45605 0.0
C738 C 0.61944 0.08512 0.45833 0.0
C739 C 0.60594 0.05997 0.4331 0.0
C740 C 0.59535 0.05945 0.46511 0.0
C741 C 0.58205 0.03476 0.44032 0.0
C742 C 0.73462 0.13615 0.43459 0.0
C743 C 0.72887 0.11403 0.42331 0.0
C744 C 0.75583 0.14227 0.4464 0.0
C745 C 0.74407 0.098 0.4242 0.0
C746 C 0.77053 0.12573 0.44689 0.0
N747 N 0.76438 0.10409 0.43589 0.0
C748 C 0.69443 0.15937 0.39126 0.0
C749 C 0.66333 0.10674 0.39546 0.0
C750 C 0.6906 0.15523 0.37503 0.0
N751 N 0.68038 0.13533 0.40106 0.0
C752 C 0.659 0.10152 0.37931 0.0
C753 C 0.67222 0.12604 0.36889 0.0
H754 H 0.70782 0.18186 0.39609 0.0
H755 H 0.65249 0.0881 0.40358 0.0
C756 C 0.69082 0.09723 0.47581 0.0
N757 N 0.68684 0.09547 0.45998 0.0
C758 C 0.68623 0.07202 0.48424 0.0
C759 C 0.67496 0.04419 0.4598 0.0
C760 C 0.67963 0.06987 0.45187 0.0
C761 C 0.67727 0.04477 0.47626 0.0
H762 H 0.69583 0.11761 0.48201 0.0
H763 H 0.67595 0.06892 0.43932 0.0
O764 O 0.67949 0.17854 0.42904 0.0
O765 O 0.68054 0.15529 0.46241 0.0
O766 O 0.64867 0.10995 0.43526 0.0
O767 O 0.71962 0.15176 0.43404 0.0
H768 H 0.69119 0.23265 0.4204 0.0
H769 H 0.6298 0.1373 0.41451 0.0
H770 H 0.66015 0.24251 0.40173 0.0
H771 H 0.59993 0.14881 0.39596 0.0
H772 H 0.75943 0.20688 0.49585 0.0
H773 H 0.65631 0.17984 0.48029 0.0
H774 H 0.73507 0.1722 0.47329 0.0
H775 H 0.68207 0.21458 0.50264 0.0
H776 H 0.60581 0.20704 0.45781 0.0
H777 H 0.54265 0.11522 0.44365 0.0
H778 H 0.81369 0.26747 0.44587 0.0
H779 H 0.74161 0.28267 0.46014 0.0
H780 H 0.63366 0.10443 0.46562 0.0
H781 H 0.60968 0.0597 0.42059 0.0
H782 H 0.59101 0.05896 0.4776 0.0
H783 H 0.56729 0.01497 0.43342 0.0
H784 H 0.71261 0.10907 0.41407 0.0
H785 H 0.7609 0.1596 0.45508 0.0
H786 H 0.73967 0.08066 0.41561 0.0
H787 H 0.78688 0.13011 0.45601 0.0
H788 H 0.70154 0.1747 0.36739 0.0
H789 H 0.6445 0.0787 0.37507 0.0
H790 H 0.68773 0.07335 0.49694 0.0
H791 H 0.66831 0.02372 0.45318 0.0
Li792 Li 0.88584 0.53976 0.22087 0.0
Li793 Li 0.86617 0.52491 0.24707 0.0
Li794 Li 0.85424 0.48797 0.22558 0.0
Li795 Li 0.83213 0.51999 0.22564 0.0
C796 C 0.9245 0.52861 0.23578 0.0
N797 N 0.98683 0.55767 0.23566 0.0
C798 C 0.9411 0.54915 0.24769 0.0
C799 C 0.9396 0.52246 0.22396 0.0
C800 C 0.97259 0.56371 0.24739 0.0
C801 C 0.97112 0.53751 0.22405 0.0
C802 C 0.86994 0.5829 0.22769 0.0
C803 C 0.88495 0.63556 0.22893 0.0
N804 N 0.87762 0.6346 0.21351 0.0
C805 C 0.86253 0.58244 0.21185 0.0
C806 C 0.88126 0.60968 0.2363 0.0
C807 C 0.86658 0.60881 0.2049 0.0
C808 C 0.91683 0.56985 0.19351 0.0
N809 N 0.91883 0.57031 0.20942 0.0
C810 C 0.96214 0.61992 0.20889 0.0
C811 C 0.94109 0.59449 0.21719 0.0
C812 C 0.95965 0.62083 0.19247 0.0
C813 C 0.93703 0.59495 0.18476 0.0
H814 H 0.89832 0.55082 0.18765 0.0
H815 H 0.94147 0.59473 0.22989 0.0
C816 C 0.85953 0.50774 0.27877 0.0
N817 N 0.87183 0.5319 0.26897 0.0
C818 C 0.86 0.51201 0.29499 0.0
C819 C 0.88717 0.56597 0.29075 0.0
C820 C 0.88584 0.56064 0.27458 0.0
C821 C 0.87358 0.54143 0.30112 0.0
H822 H 0.84853 0.48514 0.27393 0.0
H823 H 0.89542 0.57935 0.26647 0.0
C824 C 0.84657 0.49255 0.19527 0.0
N825 N 0.83671 0.45361 0.17051 0.0
C826 C 0.81936 0.47947 0.18699 0.0
C827 C 0.869 0.48633 0.19072 0.0
C828 C 0.81474 0.45972 0.17457 0.0
C829 C 0.86353 0.46644 0.17825 0.0
C830 C 0.80383 0.48432 0.25142 0.0
C831 C 0.78111 0.45478 0.25472 0.0
C832 C 0.80294 0.50852 0.25841 0.0
C833 C 0.75788 0.44991 0.26505 0.0
C834 C 0.77934 0.50271 0.26868 0.0
N835 N 0.75749 0.47377 0.27176 0.0
C836 C 0.86273 0.43709 0.22229 0.0
C837 C 0.81381 0.42917 0.21749 0.0
C838 C 0.85228 0.40641 0.21987 0.0
N839 N 0.84332 0.44762 0.22119 0.0
C840 C 0.80248 0.39855 0.21491 0.0
C841 C 0.82167 0.38668 0.21627 0.0
H842 H 0.88609 0.45236 0.22533 0.0
H843 H 0.79893 0.43826 0.21688 0.0
C844 C 0.78998 0.54173 0.22516 0.0
N845 N 0.79519 0.51893 0.22162 0.0
C846 C 0.76098 0.53746 0.22352 0.0
C847 C 0.74352 0.48649 0.21468 0.0
C848 C 0.77265 0.49167 0.21658 0.0
C849 C 0.73729 0.50945 0.21827 0.0
H850 H 0.80794 0.56284 0.22977 0.0
H851 H 0.77713 0.47352 0.21462 0.0
O852 O 0.89364 0.51423 0.23585 0.0
O853 O 0.86715 0.55764 0.23466 0.0
O854 O 0.85136 0.51155 0.20767 0.0
O855 O 0.82649 0.48942 0.24116 0.0
H856 H 0.92985 0.55403 0.257 0.0
H857 H 0.92718 0.50618 0.21483 0.0
H858 H 0.98572 0.57983 0.25647 0.0
H859 H 0.98308 0.53308 0.21492 0.0
H860 H 0.89371 0.65644 0.23546 0.0
H861 H 0.8538 0.56204 0.20493 0.0
H862 H 0.88724 0.61054 0.24854 0.0
H863 H 0.86099 0.60876 0.19265 0.0
H864 H 0.97932 0.63913 0.21536 0.0
H865 H 0.93355 0.59466 0.17221 0.0
H866 H 0.8496 0.49253 0.30264 0.0
H867 H 0.89773 0.58897 0.29505 0.0
H868 H 0.80206 0.48465 0.19002 0.0
H869 H 0.89032 0.49662 0.19682 0.0
H870 H 0.79372 0.44932 0.16812 0.0
H871 H 0.88061 0.46123 0.17472 0.0
H872 H 0.78142 0.43583 0.24932 0.0
H873 H 0.82021 0.53155 0.25588 0.0
H874 H 0.74014 0.42716 0.26773 0.0
H875 H 0.77837 0.5212 0.27417 0.0
H876 H 0.86781 0.39815 0.22099 0.0
H877 H 0.77863 0.38414 0.2125 0.0
H878 H 0.75703 0.55564 0.22657 0.0
H879 H 0.72578 0.46425 0.2111 0.0
Li880 Li 0.45828 0.35239 0.21951 0.0
Li881 Li 0.47312 0.34878 0.24622 0.0
Li882 Li 0.51193 0.38277 0.2272 0.0
Li883 Li 0.48839 0.32808 0.22503 0.0
C884 C 0.4784 0.41111 0.23016 0.0
N885 N 0.4824 0.46334 0.21891 0.0
C886 C 0.47393 0.42996 0.24029 0.0
C887 C 0.48494 0.41884 0.2143 0.0
C888 C 0.47603 0.45626 0.23438 0.0
C889 C 0.48686 0.44533 0.20885 0.0
C890 C 0.42136 0.29587 0.23976 0.0
C891 C 0.3954 0.25519 0.25829 0.0
N892 N 0.36988 0.25654 0.25632 0.0
C893 C 0.39479 0.29671 0.23784 0.0
C894 C 0.42161 0.27478 0.24998 0.0
C895 C 0.36903 0.27668 0.24634 0.0
C896 C 0.41974 0.32851 0.19456 0.0
N897 N 0.42726 0.34911 0.20626 0.0
C898 C 0.38908 0.3596 0.19809 0.0
C899 C 0.41241 0.3645 0.20831 0.0
C900 C 0.38106 0.33862 0.18576 0.0
C901 C 0.39672 0.32295 0.1841 0.0
H902 H 0.43139 0.31601 0.19354 0.0
H903 H 0.41835 0.38025 0.21796 0.0
C904 C 0.48477 0.34957 0.27824 0.0
N905 N 0.46235 0.344 0.26797 0.0
C906 C 0.47852 0.34365 0.2942 0.0
C907 C 0.42643 0.32803 0.28898 0.0
C908 C 0.4338 0.33453 0.27308 0.0
C909 C 0.44885 0.3319 0.29971 0.0
H910 H 0.50754 0.35823 0.27402 0.0
H911 H 0.41657 0.33136 0.2648 0.0
C912 C 0.51259 0.35851 0.19601 0.0
N913 N 0.54922 0.36135 0.17139 0.0
C914 C 0.54286 0.36773 0.19868 0.0
C915 C 0.50101 0.35096 0.18076 0.0
C916 C 0.56101 0.36897 0.18611 0.0
C917 C 0.51986 0.35246 0.16848 0.0
C918 C 0.52991 0.34198 0.24731 0.0
C919 C 0.56068 0.35555 0.2438 0.0
C920 C 0.51574 0.31506 0.25582 0.0
C921 C 0.57663 0.34169 0.24869 0.0
C922 C 0.53245 0.30188 0.26048 0.0
N923 N 0.5623 0.31535 0.25684 0.0
C924 C 0.5674 0.4284 0.23799 0.0
C925 C 0.55938 0.43374 0.21107 0.0
C926 C 0.59786 0.45027 0.23665 0.0
N927 N 0.54929 0.4196 0.22514 0.0
C928 C 0.58975 0.45579 0.20919 0.0
C929 C 0.60972 0.46328 0.22192 0.0
H930 H 0.55869 0.41671 0.24902 0.0
H931 H 0.54444 0.42638 0.20103 0.0
C932 C 0.47063 0.26659 0.22029 0.0
N933 N 0.49449 0.2953 0.21948 0.0
C934 C 0.47492 0.24201 0.2183 0.0
C935 C 0.52795 0.27699 0.21383 0.0
C936 C 0.52269 0.30078 0.21605 0.0
C937 C 0.50401 0.24714 0.21523 0.0
H938 H 0.44836 0.26273 0.22288 0.0
H939 H 0.54148 0.32356 0.21571 0.0
O940 O 0.47653 0.38538 0.23586 0.0
O941 O 0.44681 0.31525 0.2315 0.0
O942 O 0.49453 0.35768 0.2081 0.0
O943 O 0.51372 0.35491 0.2424 0.0
H944 H 0.46888 0.4243 0.2526 0.0
H945 H 0.48832 0.40451 0.20625 0.0
H946 H 0.47261 0.47106 0.24208 0.0
H947 H 0.49186 0.45156 0.19661 0.0
H948 H 0.39534 0.23888 0.2663 0.0
H949 H 0.39407 0.31277 0.22999 0.0
H950 H 0.44179 0.27352 0.25149 0.0
H951 H 0.34838 0.27719 0.24502 0.0
H952 H 0.3775 0.37207 0.1998 0.0
H953 H 0.39076 0.30598 0.17505 0.0
H954 H 0.49677 0.34803 0.30211 0.0
H955 H 0.4033 0.31923 0.29271 0.0
H956 H 0.55228 0.37383 0.21036 0.0
H957 H 0.47776 0.34419 0.17839 0.0
H958 H 0.58446 0.37602 0.18805 0.0
H959 H 0.51117 0.34665 0.15663 0.0
H960 H 0.5721 0.37632 0.2372 0.0
H961 H 0.49205 0.3044 0.25875 0.0
H962 H 0.60039 0.35183 0.24596 0.0
H963 H 0.52169 0.28095 0.26699 0.0
H964 H 0.61235 0.45504 0.24676 0.0
H965 H 0.59784 0.4656 0.19769 0.0
H966 H 0.45583 0.2193 0.21938 0.0
H967 H 0.55084 0.28199 0.21177 0.0
Li968 Li 0.61676 0.1342 0.22774 0.0
Li969 Li 0.67127 0.16072 0.22899 0.0
Li970 Li 0.64417 0.10888 0.22026 0.0
Li971 Li 0.64298 0.12207 0.2485 0.0
C972 C 0.64323 0.1622 0.19941 0.0
N973 N 0.63691 0.19875 0.17793 0.0
C974 C 0.64772 0.19028 0.20405 0.0
C975 C 0.63561 0.15273 0.18382 0.0
C976 C 0.64442 0.20843 0.19303 0.0
C977 C 0.6325 0.17153 0.17314 0.0
C978 C 0.65171 0.18486 0.25389 0.0
C979 C 0.6758 0.21455 0.27708 0.0
N980 N 0.66883 0.23548 0.27229 0.0
C981 C 0.64454 0.20655 0.2493 0.0
C982 C 0.66724 0.18878 0.26798 0.0
C983 C 0.6535 0.23203 0.25872 0.0
C984 C 0.5739 0.14908 0.23681 0.0
N985 N 0.58332 0.13973 0.2242 0.0
C986 C 0.55298 0.14989 0.20696 0.0
C987 C 0.57222 0.13859 0.20957 0.0
C988 C 0.54493 0.16212 0.21959 0.0
C989 C 0.55463 0.16046 0.23477 0.0
H990 H 0.58293 0.14953 0.24834 0.0
H991 H 0.57953 0.13046 0.19976 0.0
C992 C 0.71739 0.20771 0.21053 0.0
N993 N 0.70738 0.1991 0.22551 0.0
C994 C 0.74099 0.23697 0.20746 0.0
C995 C 0.74543 0.24702 0.23538 0.0
C996 C 0.72179 0.21766 0.23787 0.0
C997 C 0.75467 0.25738 0.21997 0.0
H998 H 0.70643 0.19219 0.2009 0.0
H999 H 0.71465 0.20998 0.2497 0.0
C1000 C 0.58251 0.07168 0.22729 0.0
N1001 N 0.53091 0.02811 0.21239 0.0
C1002 C 0.55973 0.04789 0.23591 0.0
C1003 C 0.57906 0.07333 0.2111 0.0
C1004 C 0.5338 0.02608 0.22815 0.0
C1005 C 0.55281 0.05108 0.20378 0.0
C1006 C 0.70844 0.14252 0.23596 0.0
C1007 C 0.72443 0.1442 0.22231 0.0
C1008 C 0.72414 0.15744 0.24959 0.0
C1009 C 0.75595 0.16093 0.2225 0.0
C1010 C 0.75567 0.17392 0.2493 0.0
N1011 N 0.77079 0.17533 0.23588 0.0
C1012 C 0.66128 0.09337 0.19264 0.0
C1013 C 0.63498 0.05189 0.20991 0.0
C1014 C 0.66628 0.0756 0.18208 0.0
N1015 N 0.64623 0.08142 0.20628 0.0
C1016 C 0.63934 0.03315 0.19961 0.0
C1017 C 0.65555 0.0451 0.18556 0.0
H1018 H 0.67031 0.11706 0.19021 0.0
H1019 H 0.62316 0.04308 0.22091 0.0
C1020 C 0.6222 0.11525 0.27932 0.0
N1021 N 0.64155 0.11171 0.26987 0.0
C1022 C 0.62435 0.11419 0.29561 0.0
C1023 C 0.66491 0.10378 0.29208 0.0
C1024 C 0.662 0.1051 0.27582 0.0
C1025 C 0.6466 0.10938 0.30218 0.0
H1026 H 0.60631 0.12067 0.27419 0.0
H1027 H 0.67711 0.10244 0.26799 0.0
O1028 O 0.64571 0.14374 0.21008 0.0
O1029 O 0.64259 0.15941 0.24497 0.0
O1030 O 0.60795 0.09322 0.23477 0.0
O1031 O 0.67756 0.12687 0.23589 0.0
H1032 H 0.65386 0.198 0.21601 0.0
H1033 H 0.63183 0.13095 0.18006 0.0
H1034 H 0.64783 0.23021 0.19648 0.0
H1035 H 0.62649 0.16444 0.16105 0.0
H1036 H 0.68806 0.21796 0.28792 0.0
H1037 H 0.63199 0.20374 0.23864 0.0
H1038 H 0.6733 0.17249 0.27171 0.0
H1039 H 0.64816 0.249 0.25526 0.0
H1040 H 0.54559 0.15029 0.19511 0.0
H1041 H 0.5492 0.16982 0.24484 0.0
H1042 H 0.74786 0.24379 0.19542 0.0
H1043 H 0.75526 0.26184 0.24542 0.0
H1044 H 0.56206 0.04633 0.24846 0.0
H1045 H 0.59643 0.09153 0.20423 0.0
H1046 H 0.51598 0.00753 0.23467 0.0
H1047 H 0.54985 0.05208 0.19126 0.0
H1048 H 0.71263 0.13294 0.21165 0.0
H1049 H 0.71213 0.15677 0.26019 0.0
H1050 H 0.76862 0.16253 0.212 0.0
H1051 H 0.76811 0.18574 0.25973 0.0
H1052 H 0.67948 0.08606 0.17161 0.0
H1053 H 0.63048 0.00973 0.2027 0.0
H1054 H 0.60949 0.11816 0.30299 0.0
H1055 H 0.68244 0.10015 0.29666 0.0
Li1056 Li 0.52602 0.87147 0.74847 0.0
Li1057 Li 0.53839 0.8851 0.77595 0.0
Li1058 Li 0.5202 0.83341 0.76689 0.0
Li1059 Li 0.48651 0.85382 0.76869 0.0
C1060 C 0.57746 0.86039 0.76265 0.0
N1061 N 0.6147 0.83687 0.76717 0.0
C1062 C 0.5944 0.86686 0.77643 0.0
C1063 C 0.57949 0.84196 0.75116 0.0
C1064 C 0.61311 0.85478 0.77849 0.0
C1065 C 0.59841 0.83027 0.75367 0.0
C1066 C 0.52651 0.92566 0.76451 0.0
C1067 C 0.53265 0.96675 0.78091 0.0
N1068 N 0.55309 0.98674 0.7705 0.0
C1069 C 0.54741 0.94657 0.75391 0.0
C1070 C 0.51887 0.93577 0.77807 0.0
C1071 C 0.56066 0.97737 0.75717 0.0
C1072 C 0.51562 0.88822 0.71873 0.0
N1073 N 0.53554 0.88406 0.72723 0.0
C1074 C 0.56374 0.8879 0.70411 0.0
C1075 C 0.55993 0.88499 0.72039 0.0
C1076 C 0.54213 0.8897 0.6949 0.0
C1077 C 0.51836 0.89085 0.70241 0.0
H1078 H 0.49655 0.88758 0.72455 0.0
H1079 H 0.57555 0.88192 0.72746 0.0
C1080 C 0.56474 0.90993 0.80531 0.0
N1081 N 0.56688 0.91526 0.7896 0.0
C1082 C 0.58866 0.92862 0.81521 0.0
C1083 C 0.61583 0.95886 0.79267 0.0
C1084 C 0.5915 0.93941 0.78319 0.0
C1085 C 0.61506 0.95294 0.80884 0.0
H1086 H 0.54534 0.89004 0.81002 0.0
H1087 H 0.59299 0.94257 0.7706 0.0
C1088 C 0.47879 0.82272 0.73663 0.0
N1089 N 0.45622 0.80983 0.70635 0.0
C1090 C 0.45289 0.82373 0.7328 0.0
C1091 C 0.49317 0.8151 0.72503 0.0
C1092 C 0.44182 0.81709 0.71744 0.0
C1093 C 0.48144 0.80872 0.70979 0.0
C1094 C 0.48729 0.83568 0.79751 0.0
C1095 C 0.47162 0.80468 0.80051 0.0
C1096 C 0.48024 0.85457 0.80606 0.0
C1097 C 0.44894 0.79306 0.81195 0.0
C1098 C 0.45739 0.84208 0.81738 0.0
N1099 N 0.44233 0.81184 0.82007 0.0
C1100 C 0.53098 0.79228 0.78393 0.0
C1101 C 0.50941 0.77589 0.75865 0.0
C1102 C 0.52751 0.764 0.78704 0.0
N1103 N 0.5213 0.79736 0.77004 0.0
C1104 C 0.5059 0.74755 0.76116 0.0
C1105 C 0.51425 0.74104 0.77565 0.0
H1106 H 0.54009 0.80973 0.79285 0.0
H1107 H 0.50135 0.78024 0.74788 0.0
C1108 C 0.43464 0.86031 0.77446 0.0
N1109 N 0.44557 0.84125 0.77301 0.0
C1110 C 0.40378 0.8487 0.77717 0.0
C1111 C 0.39658 0.79842 0.77708 0.0
C1112 C 0.42725 0.81089 0.77415 0.0
C1113 C 0.38444 0.81734 0.77856 0.0
H1114 H 0.44975 0.88438 0.77334 0.0
H1115 H 0.43655 0.79632 0.77259 0.0
O1116 O 0.55842 0.87137 0.76057 0.0
O1117 O 0.51349 0.89543 0.7616 0.0
O1118 O 0.49029 0.82963 0.75156 0.0
O1119 O 0.50913 0.84743 0.78612 0.0
H1120 H 0.59296 0.88084 0.78552 0.0
H1121 H 0.56616 0.83628 0.74053 0.0
H1122 H 0.62629 0.85955 0.78912 0.0
H1123 H 0.60004 0.81582 0.74493 0.0
H1124 H 0.52709 0.97491 0.7914 0.0
H1125 H 0.55355 0.93911 0.74336 0.0
H1126 H 0.5026 0.91987 0.78634 0.0
H1127 H 0.57701 0.99383 0.74912 0.0
H1128 H 0.58231 0.88684 0.69874 0.0
H1129 H 0.50143 0.89254 0.69569 0.0
H1130 H 0.58722 0.92276 0.82752 0.0
H1131 H 0.63558 0.97748 0.78727 0.0
H1132 H 0.44159 0.82986 0.74151 0.0
H1133 H 0.51364 0.8149 0.72763 0.0
H1134 H 0.42185 0.81788 0.71431 0.0
H1135 H 0.49254 0.80314 0.70068 0.0
H1136 H 0.47656 0.78967 0.79392 0.0
H1137 H 0.49209 0.87859 0.80386 0.0
H1138 H 0.4365 0.7691 0.81432 0.0
H1139 H 0.45157 0.85642 0.82402 0.0
H1140 H 0.53419 0.75982 0.79837 0.0
H1141 H 0.495 0.73034 0.75218 0.0
H1142 H 0.39514 0.86395 0.77816 0.0
H1143 H 0.38232 0.77411 0.77772 0.0
Li1144 Li 0.15783 0.66395 0.7717 0.0
Li1145 Li 0.132 0.60953 0.77318 0.0
Li1146 Li 0.11723 0.63494 0.75326 0.0
Li1147 Li 0.1072 0.63676 0.7818 0.0
C1148 C 0.17852 0.64433 0.74486 0.0
N1149 N 0.22453 0.66136 0.72314 0.0
C1150 C 0.20099 0.63705 0.74726 0.0
C1151 C 0.17936 0.66 0.73129 0.0
C1152 C 0.22409 0.64596 0.73618 0.0
C1153 C 0.20282 0.66849 0.72049 0.0
C1154 C 0.16491 0.63796 0.79993 0.0
C1155 C 0.18256 0.63142 0.82501 0.0
N1156 N 0.20809 0.6353 0.81796 0.0
C1157 C 0.19129 0.64184 0.79296 0.0
C1158 C 0.16045 0.63266 0.81609 0.0
C1159 C 0.21287 0.64046 0.80226 0.0
C1160 C 0.20653 0.71099 0.78902 0.0
N1161 N 0.19646 0.70049 0.77425 0.0
C1162 C 0.24318 0.73865 0.76323 0.0
C1163 C 0.21372 0.71467 0.76145 0.0
C1164 C 0.25503 0.74832 0.77837 0.0
C1165 C 0.23601 0.73479 0.79138 0.0
H1166 H 0.19205 0.70023 0.79904 0.0
H1167 H 0.20493 0.70711 0.74982 0.0
C1168 C 0.14712 0.56697 0.76358 0.0
N1169 N 0.1382 0.57647 0.77632 0.0
C1170 C 0.15884 0.54795 0.76544 0.0
C1171 C 0.14936 0.54663 0.79336 0.0
C1172 C 0.13791 0.56578 0.79095 0.0
C1173 C 0.16116 0.53845 0.78057 0.0
H1174 H 0.14692 0.5757 0.75207 0.0
H1175 H 0.13035 0.57338 0.80089 0.0
C1176 C 0.13815 0.70059 0.76688 0.0
N1177 N 0.16969 0.76283 0.7688 0.0
C1178 C 0.13968 0.71491 0.78113 0.0
C1179 C 0.1526 0.7179 0.75359 0.0
C1180 C 0.15575 0.74641 0.78186 0.0
C1181 C 0.16844 0.74935 0.7548 0.0
C1182 C 0.06967 0.57483 0.77531 0.0
C1183 C 0.04547 0.55159 0.76713 0.0
C1184 C 0.07266 0.57186 0.79143 0.0
C1185 C 0.02458 0.52568 0.77523 0.0
C1186 C 0.05132 0.54561 0.79911 0.0
N1187 N 0.02792 0.52326 0.79091 0.0
C1188 C 0.10291 0.61042 0.72312 0.0
C1189 C 0.0999 0.65463 0.72638 0.0
C1190 C 0.09979 0.61127 0.70689 0.0
N1191 N 0.1039 0.63247 0.73238 0.0
C1192 C 0.09706 0.65656 0.71018 0.0
C1193 C 0.09812 0.63531 0.70014 0.0
H1194 H 0.1063 0.59317 0.72828 0.0
H1195 H 0.10071 0.67181 0.73408 0.0
C1196 C 0.09103 0.65021 0.81072 0.0
N1197 N 0.0802 0.63828 0.7963 0.0
C1198 C 0.07313 0.65513 0.82125 0.0
C1199 C 0.03283 0.63424 0.8021 0.0
C1200 C 0.05159 0.62978 0.7919 0.0
C1201 C 0.0438 0.6477 0.81687 0.0
H1202 H 0.11406 0.65715 0.81375 0.0
H1203 H 0.04371 0.62041 0.78031 0.0
O1204 O 0.15524 0.6351 0.75541 0.0
O1205 O 0.1431 0.63851 0.791 0.0
O1206 O 0.12317 0.66977 0.76605 0.0
O1207 O 0.09028 0.60027 0.7675 0.0
H1208 H 0.2006 0.6245 0.7575 0.0
H1209 H 0.16252 0.66623 0.72925 0.0
H1210 H 0.24162 0.64052 0.73793 0.0
H1211 H 0.20382 0.68083 0.71002 0.0
H1212 H 0.17938 0.62727 0.83752 0.0
H1213 H 0.19511 0.64605 0.78051 0.0
H1214 H 0.14 0.62927 0.82166 0.0
H1215 H 0.23341 0.64348 0.79699 0.0
H1216 H 0.25699 0.74844 0.75285 0.0
H1217 H 0.24409 0.74197 0.80325 0.0
H1218 H 0.16783 0.54248 0.75524 0.0
H1219 H 0.15017 0.53938 0.80519 0.0
H1220 H 0.12883 0.70187 0.79155 0.0
H1221 H 0.1521 0.70721 0.74253 0.0
H1222 H 0.15722 0.7578 0.79283 0.0
H1223 H 0.1799 0.76303 0.74464 0.0
H1224 H 0.04287 0.55356 0.75464 0.0
H1225 H 0.09121 0.58959 0.79798 0.0
H1226 H 0.00573 0.50751 0.76904 0.0
H1227 H 0.05336 0.54302 0.81158 0.0
H1228 H 0.10004 0.59402 0.69965 0.0
H1229 H 0.09602 0.67558 0.70554 0.0
H1230 H 0.08278 0.66609 0.83236 0.0
H1231 H 0.01029 0.62796 0.79831 0.0
Li1232 Li 0.32695 0.48132 0.7779 0.0
Li1233 Li 0.38179 0.51201 0.77709 0.0
Li1234 Li 0.35431 0.4743 0.75615 0.0
Li1235 Li 0.35951 0.46028 0.78229 0.0
C1236 C 0.33506 0.51618 0.75171 0.0
N1237 N 0.29993 0.5273 0.73149 0.0
C1238 C 0.34335 0.54582 0.74796 0.0
C1239 C 0.30885 0.49217 0.74523 0.0
C1240 C 0.3253 0.55098 0.7377 0.0
C1241 C 0.29141 0.49827 0.73501 0.0
C1242 C 0.36975 0.50905 0.80768 0.0
C1243 C 0.41349 0.53671 0.82423 0.0
N1244 N 0.399 0.54866 0.83221 0.0
C1245 C 0.35516 0.52129 0.81618 0.0
C1246 C 0.39901 0.51651 0.81186 0.0
C1247 C 0.37038 0.54138 0.82849 0.0
C1248 C 0.26322 0.46125 0.77928 0.0
N1249 N 0.29192 0.4839 0.78223 0.0
C1250 C 0.27452 0.51793 0.78822 0.0
C1251 C 0.29787 0.51181 0.78661 0.0
C1252 C 0.24466 0.49516 0.78512 0.0
C1253 C 0.23909 0.4664 0.78074 0.0
H1254 H 0.25903 0.43955 0.77522 0.0
H1255 H 0.321 0.52971 0.78821 0.0
C1256 C 0.44247 0.56227 0.77733 0.0
N1257 N 0.413 0.55228 0.78066 0.0
C1258 C 0.46398 0.59299 0.77872 0.0
C1259 C 0.42439 0.602 0.78746 0.0
C1260 C 0.40372 0.57134 0.78572 0.0
C1261 C 0.45488 0.61329 0.78368 0.0
H1262 H 0.44909 0.54655 0.77317 0.0
H1263 H 0.38002 0.56276 0.78797 0.0
C1264 C 0.29862 0.41843 0.77654 0.0
N1265 N 0.2523 0.36873 0.79148 0.0
C1266 C 0.29388 0.41933 0.7927 0.0
C1267 C 0.27974 0.39223 0.76801 0.0
C1268 C 0.27038 0.39397 0.80002 0.0
C1269 C 0.25645 0.36737 0.77576 0.0
C1270 C 0.40777 0.46874 0.76725 0.0
C1271 C 0.40137 0.44608 0.7562 0.0
C1272 C 0.42961 0.4754 0.77877 0.0
C1273 C 0.41657 0.43004 0.75705 0.0
C1274 C 0.4443 0.45883 0.77923 0.0
N1275 N 0.4375 0.43666 0.76846 0.0
C1276 C 0.36522 0.48992 0.72422 0.0
C1277 C 0.33424 0.43749 0.72906 0.0
C1278 C 0.36039 0.48515 0.70807 0.0
N1279 N 0.35169 0.46628 0.73431 0.0
C1280 C 0.32892 0.43164 0.71299 0.0
C1281 C 0.34156 0.45575 0.7023 0.0
H1282 H 0.37893 0.51259 0.72878 0.0
H1283 H 0.3238 0.41918 0.73739 0.0
C1284 C 0.36539 0.43211 0.80951 0.0
N1285 N 0.36132 0.42963 0.79368 0.0
C1286 C 0.36056 0.40721 0.81831 0.0
C1287 C 0.34899 0.37822 0.79425 0.0
C1288 C 0.35389 0.40361 0.78594 0.0
C1289 C 0.35127 0.37953 0.81073 0.0
H1290 H 0.37054 0.4528 0.81541 0.0
H1291 H 0.35005 0.40207 0.77339 0.0
O1292 O 0.35234 0.51082 0.76188 0.0
O1293 O 0.35535 0.48964 0.79544 0.0
O1294 O 0.32198 0.44267 0.76911 0.0
O1295 O 0.3928 0.48439 0.76674 0.0
H1296 H 0.36351 0.56463 0.75296 0.0
H1297 H 0.30196 0.46908 0.74809 0.0
H1298 H 0.33145 0.57381 0.73468 0.0
H1299 H 0.27108 0.47992 0.72991 0.0
H1300 H 0.43624 0.54289 0.82747 0.0
H1301 H 0.33227 0.51522 0.81339 0.0
H1302 H 0.41049 0.50703 0.80551 0.0
H1303 H 0.35939 0.55113 0.83512 0.0
H1304 H 0.28003 0.54066 0.79118 0.0
H1305 H 0.21643 0.44824 0.77818 0.0
H1306 H 0.48728 0.60088 0.77564 0.0
H1307 H 0.41629 0.61693 0.79097 0.0
H1308 H 0.30813 0.43927 0.79956 0.0
H1309 H 0.28303 0.39107 0.75552 0.0
H1310 H 0.26652 0.39435 0.81251 0.0
H1311 H 0.24169 0.34696 0.76929 0.0
H1312 H 0.38461 0.4407 0.74718 0.0
H1313 H 0.43519 0.49317 0.78725 0.0
H1314 H 0.41167 0.41228 0.74865 0.0
H1315 H 0.46113 0.46363 0.78813 0.0
H1316 H 0.3709 0.50431 0.70021 0.0
H1317 H 0.31411 0.40868 0.70903 0.0
H1318 H 0.36206 0.40912 0.831 0.0
H1319 H 0.34209 0.3574 0.78793 0.0
Li1320 Li 0.55183 0.86422 0.54765 0.0
Li1321 Li 0.53417 0.85239 0.57415 0.0
Li1322 Li 0.52047 0.81299 0.55374 0.0
Li1323 Li 0.49866 0.84541 0.5531 0.0
C1324 C 0.5913 0.85544 0.56136 0.0
N1325 N 0.6532 0.88719 0.55733 0.0
C1326 C 0.60939 0.88039 0.57088 0.0
C1327 C 0.60469 0.84643 0.5499 0.0
C1328 C 0.64064 0.89619 0.56864 0.0
C1329 C 0.63602 0.86284 0.54801 0.0
C1330 C 0.53559 0.90798 0.55349 0.0
C1331 C 0.54598 0.95929 0.55393 0.0
N1332 N 0.53959 0.95731 0.53832 0.0
C1333 C 0.52906 0.90644 0.53744 0.0
C1334 C 0.5441 0.93461 0.5618 0.0
C1335 C 0.53125 0.93162 0.52999 0.0
C1336 C 0.5869 0.88657 0.51992 0.0
N1337 N 0.58452 0.89303 0.53517 0.0
C1338 C 0.62277 0.94457 0.53154 0.0
C1339 C 0.60259 0.92108 0.54124 0.0
C1340 C 0.62432 0.93902 0.51547 0.0
C1341 C 0.60694 0.9093 0.50984 0.0
H1342 H 0.57219 0.86418 0.51537 0.0
H1343 H 0.60002 0.92563 0.55339 0.0
C1344 C 0.52964 0.83758 0.60601 0.0
N1345 N 0.54121 0.86117 0.59586 0.0
C1346 C 0.53082 0.8427 0.62217 0.0
C1347 C 0.55723 0.8964 0.61715 0.0
C1348 C 0.55519 0.89021 0.60104 0.0
C1349 C 0.54435 0.87241 0.62789 0.0
H1350 H 0.51862 0.81473 0.60151 0.0
H1351 H 0.56407 0.90847 0.59265 0.0
C1352 C 0.50922 0.81442 0.52334 0.0
N1353 N 0.49406 0.77273 0.49935 0.0
C1354 C 0.48246 0.80431 0.51493 0.0
C1355 C 0.52858 0.80381 0.5193 0.0
C1356 C 0.47512 0.78312 0.50291 0.0
C1357 C 0.52043 0.78259 0.50722 0.0
C1358 C 0.47176 0.81222 0.57971 0.0
C1359 C 0.44883 0.78297 0.58338 0.0
C1360 C 0.47141 0.83694 0.58638 0.0
C1361 C 0.42594 0.77891 0.59376 0.0
C1362 C 0.44813 0.83194 0.5967 0.0
N1363 N 0.42607 0.80327 0.60014 0.0
C1364 C 0.52738 0.76085 0.5522 0.0
C1365 C 0.47883 0.75374 0.5472 0.0
C1366 C 0.51622 0.72988 0.55045 0.0
N1367 N 0.50851 0.77195 0.55063 0.0
C1368 C 0.4668 0.72284 0.5453 0.0
C1369 C 0.48547 0.71044 0.54705 0.0
H1370 H 0.5509 0.77594 0.55501 0.0
H1371 H 0.46439 0.76328 0.54619 0.0
C1372 C 0.45654 0.8671 0.55273 0.0
N1373 N 0.46149 0.84407 0.54936 0.0
C1374 C 0.42746 0.86276 0.55157 0.0
C1375 C 0.40936 0.81128 0.54345 0.0
C1376 C 0.43861 0.81654 0.54486 0.0
C1377 C 0.40339 0.83445 0.54696 0.0
H1378 H 0.4748 0.88846 0.55689 0.0
H1379 H 0.44295 0.79829 0.54295 0.0
O1380 O 0.56062 0.84014 0.56316 0.0
O1381 O 0.53422 0.88388 0.56106 0.0
O1382 O 0.5166 0.83493 0.5353 0.0
O1383 O 0.49407 0.81654 0.56939 0.0
H1384 H 0.59938 0.88769 0.57978 0.0
H1385 H 0.59108 0.82705 0.54251 0.0
H1386 H 0.6549 0.91567 0.57585 0.0
H1387 H 0.64669 0.85623 0.53914 0.0
H1388 H 0.55256 0.98004 0.56023 0.0
H1389 H 0.52245 0.88613 0.53075 0.0
H1390 H 0.54925 0.93622 0.57422 0.0
H1391 H 0.52634 0.93075 0.51758 0.0
H1392 H 0.63542 0.96715 0.53638 0.0
H1393 H 0.60775 0.90394 0.49758 0.0
H1394 H 0.52095 0.82364 0.63011 0.0
H1395 H 0.56773 0.91959 0.62113 0.0
H1396 H 0.46763 0.81293 0.51753 0.0
H1397 H 0.54947 0.81155 0.52558 0.0
H1398 H 0.4544 0.77501 0.49636 0.0
H1399 H 0.53505 0.77394 0.50412 0.0
H1400 H 0.44872 0.76362 0.57824 0.0
H1401 H 0.48883 0.85975 0.58354 0.0
H1402 H 0.40804 0.75639 0.59672 0.0
H1403 H 0.44757 0.85085 0.60194 0.0
H1404 H 0.53136 0.72122 0.55187 0.0
H1405 H 0.44286 0.7087 0.54303 0.0
H1406 H 0.42375 0.88113 0.55452 0.0
H1407 H 0.39137 0.78885 0.54032 0.0
Li1408 Li 0.15421 0.65548 0.55887 0.0
Li1409 Li 0.17836 0.7103 0.56034 0.0
Li1410 Li 0.14015 0.67759 0.57995 0.0
Li1411 Li 0.12452 0.68019 0.5533 0.0
C1412 C 0.19608 0.66992 0.5813 0.0
N1413 N 0.22748 0.64304 0.59203 0.0
C1414 C 0.22685 0.68281 0.57797 0.0
C1415 C 0.1814 0.64354 0.59023 0.0
C1416 C 0.2423 0.66884 0.58347 0.0
C1417 C 0.19762 0.63024 0.59551 0.0
C1418 C 0.1781 0.68433 0.52968 0.0
C1419 C 0.18548 0.67681 0.50238 0.0
N1420 N 0.21466 0.68527 0.5055 0.0
C1421 C 0.20818 0.69307 0.53259 0.0
C1422 C 0.16667 0.67628 0.51443 0.0
C1423 C 0.2263 0.69336 0.52023 0.0
C1424 C 0.13528 0.59366 0.55414 0.0
N1425 N 0.15959 0.62214 0.55363 0.0
C1426 C 0.19239 0.60289 0.5484 0.0
C1427 C 0.18771 0.62705 0.55058 0.0
C1428 C 0.16794 0.57324 0.54946 0.0
C1429 C 0.13898 0.5687 0.5522 0.0
H1430 H 0.11308 0.59026 0.55643 0.0
H1431 H 0.20683 0.64965 0.55043 0.0
C1432 C 0.23485 0.75595 0.57007 0.0
N1433 N 0.21586 0.74671 0.55757 0.0
C1434 C 0.26533 0.77736 0.5681 0.0
C1435 C 0.25546 0.78153 0.54073 0.0
C1436 C 0.22512 0.75997 0.54325 0.0
C1437 C 0.27625 0.78942 0.55309 0.0
H1438 H 0.2268 0.74494 0.58132 0.0
H1439 H 0.20951 0.75223 0.5335 0.0
C1440 C 0.08773 0.62413 0.574 0.0
N1441 N 0.03637 0.58464 0.5906 0.0
C1442 C 0.06117 0.62504 0.57224 0.0
C1443 C 0.08801 0.60285 0.58405 0.0
C1444 C 0.03547 0.60494 0.58076 0.0
C1445 C 0.06188 0.58319 0.5924 0.0
C1446 C 0.14571 0.73952 0.56322 0.0
C1447 C 0.14236 0.75928 0.57321 0.0
C1448 C 0.15127 0.74622 0.54722 0.0
C1449 C 0.1446 0.78545 0.567 0.0
C1450 C 0.15336 0.77261 0.54147 0.0
N1451 N 0.15001 0.79152 0.5514 0.0
C1452 C 0.15306 0.68045 0.61191 0.0
C1453 C 0.1016 0.66375 0.60707 0.0
C1454 C 0.14735 0.67494 0.62793 0.0
N1455 N 0.13015 0.6738 0.60178 0.0
C1456 C 0.09477 0.65765 0.62304 0.0
C1457 C 0.11771 0.66252 0.63364 0.0
H1458 H 0.17579 0.68953 0.60753 0.0
H1459 H 0.08395 0.65976 0.59889 0.0
C1460 C 0.08547 0.65657 0.5285 0.0
N1461 N 0.09314 0.67685 0.54037 0.0
C1462 C 0.06196 0.65091 0.51838 0.0
C1463 C 0.05421 0.68684 0.53305 0.0
C1464 C 0.07807 0.69189 0.5429 0.0
C1465 C 0.04596 0.66611 0.52058 0.0
H1466 H 0.09732 0.64434 0.52711 0.0
H1467 H 0.0842 0.70741 0.55268 0.0
O1468 O 0.18038 0.68298 0.57581 0.0
O1469 O 0.16005 0.68433 0.54156 0.0
O1470 O 0.11309 0.64356 0.56569 0.0
O1471 O 0.14367 0.71389 0.5692 0.0
H1472 H 0.23864 0.70315 0.57104 0.0
H1473 H 0.15772 0.63345 0.59305 0.0
H1474 H 0.26605 0.67846 0.58089 0.0
H1475 H 0.18647 0.60973 0.60236 0.0
H1476 H 0.1769 0.67059 0.49053 0.0
H1477 H 0.21747 0.69951 0.54428 0.0
H1478 H 0.14357 0.66982 0.51189 0.0
H1479 H 0.24961 0.70003 0.52236 0.0
H1480 H 0.21519 0.60741 0.5466 0.0
H1481 H 0.11952 0.54615 0.55302 0.0
H1482 H 0.28048 0.78248 0.57794 0.0
H1483 H 0.26284 0.7906 0.52904 0.0
H1484 H 0.0604 0.64123 0.56451 0.0
H1485 H 0.10816 0.60146 0.5854 0.0
H1486 H 0.01483 0.60552 0.57958 0.0
H1487 H 0.06186 0.56672 0.60027 0.0
H1488 H 0.13808 0.75441 0.58563 0.0
H1489 H 0.15378 0.73118 0.53927 0.0
H1490 H 0.14205 0.80094 0.5746 0.0
H1491 H 0.15762 0.77805 0.52911 0.0
H1492 H 0.16595 0.68006 0.63574 0.0
H1493 H 0.07164 0.64833 0.62693 0.0
H1494 H 0.05584 0.63415 0.5092 0.0
H1495 H 0.04236 0.69892 0.53516 0.0
Li1496 Li 0.27845 0.45877 0.56176 0.0
Li1497 Li 0.33307 0.48519 0.56229 0.0
Li1498 Li 0.30556 0.43328 0.55435 0.0
Li1499 Li 0.3056 0.44762 0.58239 0.0
C1500 C 0.30544 0.48822 0.53391 0.0
N1501 N 0.30216 0.52923 0.51435 0.0
C1502 C 0.30949 0.51532 0.53998 0.0
C1503 C 0.29969 0.48197 0.51788 0.0
C1504 C 0.30778 0.53577 0.52992 0.0
C1505 C 0.29813 0.50299 0.50818 0.0
C1506 C 0.31417 0.50957 0.58804 0.0
C1507 C 0.33944 0.53822 0.61133 0.0
N1508 N 0.33069 0.55839 0.60779 0.0
C1509 C 0.30525 0.53053 0.58472 0.0
C1510 C 0.33125 0.51337 0.60153 0.0
C1511 C 0.31391 0.55508 0.59481 0.0
C1512 C 0.23511 0.473 0.57102 0.0
N1513 N 0.24482 0.46398 0.5584 0.0
C1514 C 0.21486 0.47448 0.54109 0.0
C1515 C 0.23404 0.46314 0.54372 0.0
C1516 C 0.2066 0.48651 0.55372 0.0
C1517 C 0.2159 0.48445 0.56895 0.0
H1518 H 0.24396 0.47326 0.58257 0.0
H1519 H 0.2417 0.45536 0.5339 0.0
C1520 C 0.37915 0.53138 0.54327 0.0
N1521 N 0.36929 0.52335 0.55832 0.0
C1522 C 0.40286 0.56045 0.53993 0.0
C1523 C 0.40773 0.57151 0.56774 0.0
C1524 C 0.38397 0.54232 0.5705 0.0
C1525 C 0.41684 0.58127 0.55224 0.0
H1526 H 0.36799 0.51554 0.53378 0.0
H1527 H 0.37698 0.53511 0.58239 0.0
C1528 C 0.24429 0.39633 0.56213 0.0
N1529 N 0.19213 0.35203 0.54796 0.0
C1530 C 0.22201 0.37278 0.57108 0.0
C1531 C 0.24006 0.39736 0.54597 0.0
C1532 C 0.19579 0.35059 0.5637 0.0
C1533 C 0.21354 0.37475 0.53902 0.0
C1534 C 0.37035 0.46684 0.56852 0.0
C1535 C 0.38446 0.46741 0.55435 0.0
C1536 C 0.38786 0.48237 0.58159 0.0
C1537 C 0.41596 0.48366 0.55346 0.0
C1538 C 0.41929 0.49835 0.58023 0.0
N1539 N 0.43257 0.49867 0.56631 0.0
C1540 C 0.31798 0.41406 0.52622 0.0
C1541 C 0.29847 0.37652 0.54604 0.0
C1542 C 0.32244 0.3952 0.51619 0.0
N1543 N 0.30664 0.40463 0.54088 0.0
C1544 C 0.30254 0.35683 0.53636 0.0
C1545 C 0.3152 0.36633 0.5213 0.0
H1546 H 0.32471 0.43674 0.52258 0.0
H1547 H 0.28959 0.36976 0.55781 0.0
C1548 C 0.28625 0.44173 0.61353 0.0
N1549 N 0.3052 0.43805 0.60383 0.0
C1550 C 0.28932 0.44122 0.62979 0.0
C1551 C 0.32994 0.43108 0.62571 0.0
C1552 C 0.32614 0.43187 0.6095 0.0
C1553 C 0.31204 0.43681 0.63606 0.0
H1554 H 0.26996 0.44681 0.60862 0.0
H1555 H 0.34093 0.42913 0.60147 0.0
O1556 O 0.30633 0.4675 0.5436 0.0
O1557 O 0.30521 0.48489 0.57851 0.0
O1558 O 0.27001 0.41822 0.56924 0.0
O1559 O 0.33955 0.45173 0.56948 0.0
H1560 H 0.31411 0.52057 0.5523 0.0
H1561 H 0.29619 0.46096 0.513 0.0
H1562 H 0.31092 0.55684 0.53448 0.0
H1563 H 0.29362 0.4984 0.49576 0.0
H1564 H 0.35286 0.5415 0.62172 0.0
H1565 H 0.29164 0.52788 0.57452 0.0
H1566 H 0.33878 0.49775 0.60425 0.0
H1567 H 0.30719 0.57146 0.59234 0.0
H1568 H 0.20779 0.4752 0.5292 0.0
H1569 H 0.21031 0.49365 0.57902 0.0
H1570 H 0.40962 0.56678 0.52783 0.0
H1571 H 0.41779 0.58666 0.57764 0.0
H1572 H 0.22496 0.37169 0.58361 0.0
H1573 H 0.25703 0.41536 0.53883 0.0
H1574 H 0.17834 0.33222 0.57048 0.0
H1575 H 0.20997 0.37527 0.52653 0.0
H1576 H 0.37124 0.45569 0.5441 0.0
H1577 H 0.3773 0.4825 0.59259 0.0
H1578 H 0.42719 0.48441 0.54255 0.0
H1579 H 0.43313 0.51062 0.59021 0.0
H1580 H 0.33284 0.40376 0.50484 0.0
H1581 H 0.29646 0.3347 0.54072 0.0
H1582 H 0.27477 0.4453 0.63737 0.0
H1583 H 0.34782 0.42777 0.63005 0.0
C1584 C 0.35807 0.32678 0.15891 0.0
C1585 C 0.35578 0.33188 0.17496 0.0
H1586 H 0.33536 0.31103 0.13699 0.0
C1587 C 0.32842 0.32811 0.18075 0.0
H1588 H 0.37899 0.32998 0.15404 0.0
C1589 C 0.30338 0.31773 0.17086 0.0
C1590 C 0.3052 0.31091 0.15499 0.0
H1591 H 0.32592 0.33179 0.19307 0.0
H1592 H 0.28235 0.31419 0.17575 0.0
C1593 C 0.33309 0.31632 0.14907 0.0
C1594 C 0.68417 0.99403 0.17149 0.0
C1595 C 0.68758 7e-05 0.15525 0.0
H1596 H 0.67165 0.00367 0.19382 0.0
C1597 C 0.67682 0.01806 0.14892 0.0
H1598 H 0.69164 0.9798 0.17674 0.0
C1599 C 0.66464 0.0311 0.15866 0.0
C1600 C 0.66331 0.02688 0.17502 0.0
H1601 H 0.67922 0.02353 0.13653 0.0
H1602 H 0.65732 0.04545 0.15341 0.0
C1603 C 0.67229 0.00739 0.18127 0.0
C1604 C 0.98455 0.67721 0.19039 0.0
C1605 C 0.97774 0.64946 0.1836 0.0
H1606 H 0.00096 0.72411 0.18686 0.0
C1607 C 0.98531 0.64899 0.16774 0.0
H1608 H 0.97896 0.67861 0.20252 0.0
C1609 C 0.99685 0.67498 0.15856 0.0
C1610 C 0.00174 0.70229 0.1651 0.0
H1611 H 0.98112 0.62823 0.16219 0.0
H1612 H 0.00028 0.67307 0.14615 0.0
C1613 C 0.9967 0.70334 0.18129 0.0
C1614 C 0.35438 0.35143 0.83412 0.0
C1615 C 0.34015 0.35153 0.82006 0.0
H1616 H 0.35221 0.32696 0.8549 0.0
C1617 C 0.31321 0.32537 0.81569 0.0
H1618 H 0.37533 0.37114 0.83772 0.0
C1619 C 0.30006 0.30021 0.82547 0.0
C1620 C 0.31347 0.30055 0.83988 0.0
H1621 H 0.30129 0.32484 0.80511 0.0
H1622 H 0.27843 0.28114 0.8221 0.0
C1623 C 0.34116 0.32616 0.84395 0.0
C1624 C 0.66647 0.98604 0.84426 0.0
C1625 C 0.69408 0.99115 0.83808 0.0
H1626 H 0.61987 0.97059 0.83978 0.0
C1627 C 0.69621 0.98701 0.8219 0.0
H1628 H 0.66406 0.98894 0.85669 0.0
C1629 C 0.67088 0.97611 0.81228 0.0
C1630 C 0.64277 0.96926 0.81858 0.0
H1631 H 0.7173 0.99124 0.81674 0.0
H1632 H 0.67307 0.97153 0.80006 0.0
C1633 C 0.64107 0.97523 0.8346 0.0
C1634 C 0.01106 0.6704 0.82039 0.0
C1635 C 0.02629 0.65688 0.82704 0.0
H1636 H 0.98836 0.695 0.82447 0.0
C1637 C 0.02735 0.65525 0.8435 0.0
H1638 H 0.00995 0.67221 0.80776 0.0
C1639 C 0.01535 0.66873 0.85308 0.0
C1640 C 0.00197 0.68406 0.84639 0.0
H1641 H 0.03851 0.64456 0.84898 0.0
H1642 H 0.01812 0.66861 0.86569 0.0
C1643 C 0.99899 0.68379 0.82996 0.0
C1644 C 0.96688 0.64299 0.50716 0.0
C1645 C 0.96813 0.63662 0.49117 0.0
H1646 H 0.99058 0.65733 0.52906 0.0
C1647 C 0.99604 0.64329 0.48466 0.0
H1648 H 0.94583 0.63847 0.51249 0.0
C1649 C 0.02164 0.65443 0.49408 0.0
C1650 C 0.01998 0.65899 0.51026 0.0
H1651 H 0.99788 0.63839 0.47245 0.0
H1652 H 0.04257 0.65847 0.48879 0.0
C1653 C 0.99258 0.65408 0.51662 0.0
C1654 C 0.32079 0.34727 0.49503 0.0
C1655 C 0.32355 0.34773 0.51148 0.0
H1656 H 0.33252 0.33597 0.47296 0.0
C1657 C 0.33735 0.33294 0.51833 0.0
H1658 H 0.30984 0.35803 0.4894 0.0
C1659 C 0.34994 0.31983 0.5089 0.0
C1660 C 0.34911 0.32131 0.49243 0.0
H1661 H 0.33998 0.33297 0.53096 0.0
H1662 H 0.36136 0.30955 0.51453 0.0
C1663 C 0.33349 0.33427 0.4856 0.0
C1664 C 0.63977 0.99027 0.48068 0.0
C1665 C 0.66658 0.01641 0.4852 0.0
H1666 H 0.60542 0.94563 0.48671 0.0
C1667 C 0.68111 0.01588 0.49906 0.0
H1668 H 0.62764 0.99006 0.47025 0.0
C1669 C 0.66829 0.99018 0.50857 0.0
C1670 C 0.64068 0.96455 0.5044 0.0
H1671 H 0.70198 0.03559 0.50276 0.0
H1672 H 0.67956 0.99064 0.51939 0.0
C1673 C 0.62699 0.96468 0.49015 0.0
C1674 C 0.99807 0.13732 0.12534 0.0
C1675 C 0.0149 0.15841 0.1136 0.0
H1676 H 0.95431 0.10342 0.1333 0.0
C1677 C -0.00032 0.1645 0.10183 0.0
H1678 H 0.00936 0.13236 0.13458 0.0
C1679 C 0.96816 0.14783 0.10104 0.0
C1680 C 0.9514 0.12508 0.11212 0.0
H1681 H 0.01217 0.18055 0.0926 0.0
H1682 H 0.95696 0.15158 0.0913 0.0
C1683 C 0.96659 0.12093 0.12467 0.0
C1684 C 0.86957 0.88083 0.12691 0.0
C1685 C 0.8466 0.87317 0.11582 0.0
H1686 H 0.90397 0.8728 0.13539 0.0
C1687 C 0.83805 0.84822 0.10591 0.0
H1688 H 0.8764 0.89985 0.13476 0.0
C1689 C 0.85388 0.83271 0.10624 0.0
C1690 C 0.87826 0.84171 0.1166 0.0
H1691 H 0.82047 0.84193 0.09723 0.0
H1692 H 0.84794 0.81457 0.09791 0.0
C1693 C 0.88516 0.86517 0.12735 0.0
C1694 C 0.16311 0.03264 0.10386 0.0
C1695 C 0.15938 0.05018 0.11537 0.0
H1696 H 0.15028 0.98825 0.09581 0.0
C1697 C 0.14282 0.03604 0.12902 0.0
H1698 H 0.17602 0.04302 0.09329 0.0
C1699 C 0.12815 0.00468 0.1305 0.0
C1700 C 0.1299 0.98692 0.11839 0.0
H1701 H 0.13944 0.04894 0.13806 0.0
H1702 H 0.11422 0.99419 0.14077 0.0
C1703 C 0.14856 0.0013 0.10537 0.0
C1704 C 0.14211 0.96902 0.89528 0.0
C1705 C 0.11753 0.95167 0.88523 0.0
H1706 H 0.17543 0.01327 0.90301 0.0
C1707 C 0.11058 0.9665 0.87358 0.0
H1708 H 0.14844 0.9583 0.9042 0.0
C1709 C 0.12636 0.99793 0.87275 0.0
C1710 C 0.14933 0.01533 0.8836 0.0
H1711 H 0.09172 0.95398 0.86569 0.0
H1712 H 0.11969 0.00867 0.86401 0.0
C1713 C 0.15783 0.00054 0.89449 0.0
C1714 C 0.02461 0.14383 0.86946 0.0
C1715 C 0.04357 0.16094 0.8819 0.0
H1716 H 0.97936 0.11761 0.86102 0.0
C1717 C 0.0311 0.16806 0.89479 0.0
H1718 H 0.03369 0.13827 0.85932 0.0
C1719 C -6e-05 0.15634 0.89574 0.0
C1720 C 0.98073 0.13747 0.88379 0.0
H1721 H 0.04515 0.1811 0.90458 0.0
H1722 H 0.99072 0.16092 0.90616 0.0
C1723 C 0.99352 0.13227 0.87037 0.0
C1724 C 0.87595 0.85637 0.87308 0.0
C1725 C 0.8691 0.83813 0.8865 0.0
H1726 H 0.87145 0.89051 0.8613 0.0
C1727 C 0.84932 0.83861 0.89781 0.0
H1728 H 0.8913 0.85682 0.86418 0.0
C1729 C 0.83833 0.85838 0.89627 0.0
C1730 C 0.84685 0.87803 0.88336 0.0
H1731 H 0.84324 0.82453 0.90818 0.0
H1732 H 0.82456 0.85942 0.90564 0.0
C1733 C 0.86489 0.87602 0.87152 0.0
C1734 C 0.66066 0.47842 0.44137 0.0
C1735 C 0.67621 0.47017 0.45188 0.0
H1736 H 0.61774 0.46752 0.43184 0.0
C1737 C 0.65963 0.44629 0.46238 0.0
H1738 H 0.67289 0.49668 0.43311 0.0
C1739 C 0.62818 0.4296 0.46164 0.0
C1740 C 0.61265 0.43636 0.45033 0.0
H1741 H 0.6711 0.43966 0.4707 0.0
H1742 H 0.6162 0.41021 0.46926 0.0
C1743 C 0.62914 0.46158 0.44056 0.0
C1744 C 0.50472 0.16976 0.43778 0.0
C1745 C 0.50504 0.19015 0.44896 0.0
H1746 H 0.52522 0.14488 0.42966 0.0
C1747 C 0.52497 0.19851 0.46176 0.0
H1748 H 0.4894 0.16258 0.42788 0.0
C1749 C 0.54521 0.18806 0.46289 0.0
C1750 C 0.54611 0.1691 0.45122 0.0
H1751 H 0.52611 0.21441 0.47052 0.0
H1752 H 0.56085 0.19564 0.47266 0.0
C1753 C 0.52504 0.15935 0.4389 0.0
C1754 C 0.83547 0.35846 0.43971 0.0
C1755 C 0.83141 0.37578 0.45122 0.0
H1756 H 0.82272 0.31417 0.43149 0.0
C1757 C 0.81466 0.36141 0.46479 0.0
H1758 H 0.84853 0.36902 0.4292 0.0
C1759 C 0.79994 0.33003 0.46612 0.0
C1760 C 0.80184 0.31249 0.45395 0.0
H1761 H 0.811 0.37412 0.47383 0.0
H1762 H 0.78569 0.31935 0.47627 0.0
C1763 C 0.82088 0.32708 0.44108 0.0
C1764 C 0.80018 0.30707 0.22735 0.0
C1765 C 0.77598 0.28996 0.21706 0.0
H1766 H 0.83368 0.35114 0.23517 0.0
C1767 C 0.76999 0.30491 0.20507 0.0
H1768 H 0.8057 0.29619 0.23655 0.0
C1769 C 0.78629 0.33635 0.20415 0.0
C1770 C 0.80885 0.35356 0.21522 0.0
H1771 H 0.75145 0.29251 0.19698 0.0
H1772 H 0.78028 0.34726 0.19518 0.0
C1773 C 0.81644 0.33856 0.22645 0.0
C1774 C 0.6935 0.51103 0.23035 0.0
C1775 C 0.70567 0.50291 0.21773 0.0
H1776 H 0.65348 0.50542 0.24145 0.0
C1777 C 0.68653 0.48547 0.20542 0.0
H1778 H 0.70765 0.52438 0.24005 0.0
C1779 C 0.65554 0.4744 0.20628 0.0
C1780 C 0.64296 0.48056 0.21948 0.0
H1781 H 0.69535 0.47922 0.19543 0.0
H1782 H 0.64129 0.45935 0.19707 0.0
C1783 C 0.66243 0.49995 0.23122 0.0
C1784 C 0.53029 0.22187 0.20348 0.0
C1785 C 0.51017 0.22193 0.21468 0.0
H1786 H 0.55691 0.2028 0.19622 0.0
C1787 C 0.49855 0.19957 0.22636 0.0
H1788 H 0.53938 0.23866 0.19425 0.0
C1789 C 0.50846 0.17885 0.22745 0.0
C1790 C 0.53002 0.17998 0.21682 0.0
H1791 H 0.48313 0.19915 0.23521 0.0
H1792 H 0.5001 0.16267 0.23697 0.0
C1793 C 0.54007 0.20109 0.20451 0.0
C1794 C 0.30343 0.79476 0.77039 0.0
C1795 C 0.2878 0.76984 0.78045 0.0
H1796 H 0.34654 0.8297 0.76205 0.0
C1797 C 0.30427 0.76341 0.79132 0.0
H1798 H 0.2913 0.80043 0.762 0.0
C1799 C 0.33576 0.78013 0.79134 0.0
C1800 C 0.35143 0.80374 0.78058 0.0
H1801 H 0.29295 0.74425 0.79914 0.0
H1802 H 0.34793 0.77376 0.79933 0.0
C1803 C 0.335 0.81166 0.7705 0.0
C1804 C 0.19854 0.49208 0.7732 0.0
C1805 C 0.22009 0.50238 0.78531 0.0
H1806 H 0.16248 0.49484 0.76238 0.0
C1807 C 0.21964 0.52184 0.79681 0.0
H1808 H 0.19836 0.47721 0.76409 0.0
C1809 C 0.19937 0.53224 0.79571 0.0
C1810 C 0.17895 0.52334 0.78311 0.0
H1811 H 0.23566 0.52984 0.80641 0.0
H1812 H 0.20087 0.54854 0.80431 0.0
C1813 C 0.17817 0.50244 0.77212 0.0
C1814 C 0.48972 0.69612 0.79333 0.0
C1815 C 0.50538 0.70944 0.77934 0.0
H1816 H 0.4617 0.65501 0.8058 0.0
C1817 C 0.50834 0.69119 0.76796 0.0
H1818 H 0.4869 0.70955 0.80228 0.0
C1819 C 0.49381 0.65994 0.76995 0.0
C1820 C 0.47592 0.64638 0.78332 0.0
H1821 H 0.52054 0.70092 0.75713 0.0
H1822 H 0.49482 0.64628 0.76051 0.0
C1823 C 0.47506 0.66487 0.79529 0.0
C1824 C 0.44922 0.65975 0.53556 0.0
C1825 C 0.47201 0.67719 0.54649 0.0
H1826 H 0.4139 0.61583 0.52883 0.0
C1827 C 0.47938 0.66241 0.55796 0.0
H1828 H 0.44337 0.67046 0.52641 0.0
C1829 C 0.46276 0.63097 0.55921 0.0
C1830 C 0.43839 0.61369 0.54903 0.0
H1831 H 0.49679 0.67518 0.56657 0.0
H1832 H 0.46817 0.6203 0.56856 0.0
C1833 C 0.43256 0.62836 0.53683 0.0
C1834 C 0.32972 0.82615 0.56126 0.0
C1835 C 0.3093 0.80614 0.55001 0.0
H1836 H 0.3756 0.85087 0.56911 0.0
C1837 C 0.32075 0.79896 0.53669 0.0
H1838 H 0.32165 0.83239 0.57156 0.0
C1839 C 0.35162 0.80974 0.53523 0.0
C1840 C 0.37176 0.82792 0.54704 0.0
H1841 H 0.30573 0.78339 0.52787 0.0
H1842 H 0.35958 0.80275 0.52516 0.0
C1843 C 0.36066 0.83695 0.55979 0.0
C1844 C 0.20281 0.52616 0.53874 0.0
C1845 C 0.19215 0.50478 0.55092 0.0
H1846 H 0.20315 0.56435 0.52861 0.0
C1847 C 0.17051 0.50382 0.56144 0.0
H1848 H 0.21973 0.52776 0.53053 0.0
C1849 C 0.16114 0.52497 0.56037 0.0
C1850 C 0.17341 0.54759 0.54883 0.0
H1851 H 0.1617 0.48745 0.57087 0.0
H1852 H 0.14566 0.52469 0.56914 0.0
C1853 C 0.19357 0.54735 0.53772 0.0
C1854 C 0.22713 0.20974 0.00823 0.0
C1855 C 0.21817 0.22976 0.01388 0.0
H1856 H 0.23537 0.18968 0.9882 0.0
C1857 C 0.21139 0.24593 0.00298 0.0
H1858 H 0.2321 0.19655 0.01625 0.0
C1859 C 0.21274 0.24153 0.98682 0.0
C1860 C 0.22091 0.22088 0.98121 0.0
H1861 H 0.20468 0.26173 0.00692 0.0
H1862 H 0.20643 0.25361 0.97876 0.0
C1863 C 0.22859 0.20544 0.99211 0.0
C1864 C 0.75328 0.97281 0.98654 0.0
C1865 C 0.77816 0.99907 0.98047 0.0
H1866 H 0.72981 0.94828 0.00726 0.0
C1867 C 0.79764 0.02194 0.99085 0.0
H1868 H 0.73805 0.95477 0.97876 0.0
C1869 C 0.79288 0.01833 0.00704 0.0
C1870 C 0.76863 0.99167 0.0132 0.0
H1871 H 0.81689 0.04247 0.98646 0.0
H1872 H 0.80887 0.03599 0.01476 0.0
C1873 C 0.74869 0.96902 0.00281 0.0
C1874 C -0.0003 0.75363 0.99703 0.0
C1875 C -0.00014 0.7768 0.98828 0.0
H1876 H 0.00483 0.73897 0.01982 0.0
C1877 C 0.00695 0.80397 0.9958 0.0
H1878 H 0.99434 0.73252 0.99145 0.0
C1879 C 0.01338 0.80782 0.01182 0.0
C1880 C 0.01252 0.78446 0.0207 0.0
H1881 H 0.00756 0.82229 0.98924 0.0
H1882 H 0.01819 0.82881 0.01737 0.0
C1883 C 0.00566 0.75731 0.01319 0.0
C1884 C 0.84522 0.52954 0.32649 0.0
C1885 C 0.87245 0.54634 0.31821 0.0
H1886 H 0.82281 0.51991 0.34876 0.0
C1887 C 0.89836 0.56767 0.32635 0.0
H1888 H 0.82483 0.51319 0.32047 0.0
C1889 C 0.8972 0.57156 0.34257 0.0
C1890 C 0.86999 0.55452 0.35085 0.0
H1891 H 0.91965 0.58085 0.32023 0.0
H1892 H 0.91756 0.58778 0.34865 0.0
C1893 C 0.84398 0.53366 0.34263 0.0
C1894 C 0.45552 0.3096 0.32439 0.0
C1895 C 0.44157 0.32322 0.3165 0.0
H1896 H 0.46247 0.29351 0.34609 0.0
C1897 C 0.42127 0.32886 0.32485 0.0
H1898 H 0.47081 0.30435 0.31826 0.0
C1899 C 0.41584 0.32189 0.34086 0.0
C1900 C 0.43061 0.30915 0.34885 0.0
H1901 H 0.41019 0.33941 0.31914 0.0
H1902 H 0.40032 0.32679 0.347 0.0
C1903 C 0.45027 0.30283 0.34034 0.0
C1904 C 0.66517 0.09729 0.34373 0.0
C1905 C 0.66564 0.12144 0.35181 0.0
H1906 H 0.65859 0.07436 0.32169 0.0
C1907 C 0.65922 0.14107 0.34351 0.0
H1908 H 0.67017 0.08188 0.34981 0.0
C1909 C 0.65264 0.1368 0.32749 0.0
C1910 C 0.65234 0.1128 0.31936 0.0
H1911 H 0.65898 0.15964 0.34943 0.0
H1912 H 0.64831 0.15267 0.32141 0.0
C1913 C 0.65872 0.09309 0.32764 0.0
C1914 C 0.57007 0.89961 0.65278 0.0
C1915 C 0.54384 0.87809 0.64493 0.0
H1916 H 0.59014 0.9202 0.67487 0.0
C1917 C 0.5169 0.86162 0.65349 0.0
H1918 H 0.59113 0.91254 0.64643 0.0
C1919 C 0.51627 0.86618 0.66962 0.0
C1920 C 0.54262 0.88713 0.67757 0.0
H1921 H 0.49628 0.84513 0.64769 0.0
H1922 H 0.49531 0.85263 0.67597 0.0
C1923 C 0.56952 0.90391 0.669 0.0
C1924 C 0.0904 0.65906 0.65893 0.0
C1925 C 0.11099 0.65401 0.65047 0.0
H1926 H 0.06965 0.65658 0.68121 0.0
C1927 C 0.12568 0.64104 0.65826 0.0
H1928 H 0.07876 0.66909 0.65329 0.0
C1929 C 0.12081 0.6343 0.67422 0.0
C1930 C 0.10084 0.64001 0.68284 0.0
H1931 H 0.14122 0.63627 0.65204 0.0
H1932 H 0.13353 0.62547 0.67989 0.0
C1933 C 0.08538 0.65214 0.67496 0.0
C1934 C 0.3256 0.42137 0.66134 0.0
C1935 C 0.3187 0.44077 0.65314 0.0
H1936 H 0.33838 0.41094 0.68334 0.0
C1937 C 0.3194 0.465 0.66123 0.0
H1938 H 0.32517 0.40247 0.65542 0.0
C1939 C 0.32693 0.46983 0.67713 0.0
C1940 C 0.33391 0.45053 0.68535 0.0
H1941 H 0.31467 0.48064 0.65519 0.0
H1942 H 0.32702 0.48859 0.68303 0.0
C1943 C 0.33299 0.42612 0.67732 0.0
loop_
_geom_bond_atom_site_label_1
_geom_bond_atom_site_label_2
_geom_bond_distance
_geom_bond_site_symmetry_2
_ccdc_geom_bond_type
Li0 N17 1.990 . S
Li0 O60 1.956 . S
Li0 O61 1.970 . S
Li0 O62 1.961 . S
Li1 N25 1.990 . S
Li1 O60 1.970 . S
Li1 O61 1.956 . S
Li1 O63 1.961 . S
Li2 N47 1.990 . S
Li2 O60 1.961 . S
Li2 O62 1.956 . S
Li2 O63 1.970 . S
Li3 N53 1.990 . S
Li3 O61 1.961 . S
Li3 O62 1.970 . S
Li3 O63 1.956 . S
C4 C6 1.348 . S
C4 C7 1.356 . S
C4 O60 1.325 . S
N5 C8 1.314 . S
N5 C9 1.279 . S
C6 C4 1.348 . S
C6 C8 1.353 . S
C6 H64 0.929 . S
C7 C4 1.356 . S
C7 C9 1.358 . S
C7 H65 0.930 . S
C8 N5 1.314 . S
C8 C6 1.353 . S
C8 H66 0.930 . S
C9 N5 1.279 . S
C9 C7 1.358 . S
C9 H67 0.930 . S
C10 C13 1.348 . S
C10 C14 1.356 . S
C10 O61 1.325 . S
C11 N12 1.279 . S
C11 C14 1.358 . S
C11 H68 0.930 . S
N12 C11 1.279 . S
N12 C15 1.314 . S
C13 C10 1.348 . S
C13 C15 1.353 . S
C13 H69 0.929 . S
C14 C10 1.356 . S
C14 C11 1.358 . S
C14 H70 0.930 . S
C15 N12 1.314 . S
C15 C13 1.353 . S
C15 H71 0.930 . S
C16 N17 1.314 . S
C16 C21 1.353 . S
C16 H22 0.930 . S
N17 Li0 1.990 . S
N17 C16 1.314 . S
N17 C19 1.279 . S
C18 C19 1.358 . S
C18 C20 1.356 . S
C18 H72 0.930 . S
C19 N17 1.279 . S
C19 C18 1.358 . S
C19 H23 0.930 . S
C20 C18 1.356 . S
C20 C21 1.348 . S
C21 C16 1.353 . S
C21 C20 1.348 . S
C21 H73 0.929 . S
H22 C16 0.930 . S
H23 C19 0.930 . S
C24 N25 1.314 . S
C24 C26 1.353 . S
C24 H30 0.930 . S
N25 Li1 1.990 . S
N25 C24 1.314 . S
N25 C28 1.279 . S
C26 C24 1.353 . S
C26 C29 1.348 . S
C26 H74 0.929 . S
C27 C28 1.358 . S
C27 C29 1.356 . S
C27 H75 0.930 . S
C28 N25 1.279 . S
C28 C27 1.358 . S
C28 H31 0.930 . S
C29 C26 1.348 . S
C29 C27 1.356 . S
H30 C24 0.930 . S
H31 C28 0.930 . S
C32 C34 1.348 . S
C32 C35 1.356 . S
C32 O62 1.325 . S
N33 C36 1.314 . S
N33 C37 1.279 . S
C34 C32 1.348 . S
C34 C36 1.353 . S
C34 H76 0.929 . S
C35 C32 1.356 . S
C35 C37 1.358 . S
C35 H77 0.930 . S
C36 N33 1.314 . S
C36 C34 1.353 . S
C36 H78 0.930 . S
C37 N33 1.279 . S
C37 C35 1.358 . S
C37 H79 0.930 . S
C38 C39 1.348 . S
C38 C40 1.356 . S
C38 O63 1.325 . S
C39 C38 1.348 . S
C39 C41 1.353 . S
C39 H80 0.929 . S
C40 C38 1.356 . S
C40 C42 1.358 . S
C40 H81 0.930 . S
C41 C39 1.353 . S
C41 N43 1.314 . S
C41 H82 0.930 . S
C42 C40 1.358 . S
C42 N43 1.279 . S
C42 H83 0.930 . S
N43 C41 1.314 . S
N43 C42 1.279 . S
C44 C46 1.353 . S
C44 N47 1.314 . S
C44 H50 0.930 . S
C45 N47 1.279 . S
C45 C48 1.358 . S
C45 H51 0.930 . S
C46 C44 1.353 . S
C46 C49 1.348 . S
C46 H84 0.929 . S
N47 Li2 1.990 . S
N47 C44 1.314 . S
N47 C45 1.279 . S
C48 C45 1.358 . S
C48 C49 1.356 . S
C48 H85 0.930 . S
C49 C46 1.348 . S
C49 C48 1.356 . S
H50 C44 0.930 . S
H51 C45 0.930 . S
C52 N53 1.314 . S
C52 C54 1.353 . S
C52 H58 0.930 . S
N53 Li3 1.990 . S
N53 C52 1.314 . S
N53 C56 1.279 . S
C54 C52 1.353 . S
C54 C57 1.348 . S
C54 H86 0.929 . S
C55 C56 1.358 . S
C55 C57 1.356 . S
C55 H87 0.930 . S
C56 N53 1.279 . S
C56 C55 1.358 . S
C56 H59 0.930 . S
C57 C54 1.348 . S
C57 C55 1.356 . S
H58 C52 0.930 . S
H59 C56 0.930 . S
O60 Li0 1.956 . S
O60 Li1 1.970 . S
O60 Li2 1.961 . S
O60 C4 1.325 . S
O61 Li0 1.970 . S
O61 Li1 1.956 . S
O61 Li3 1.961 . S
O61 C10 1.325 . S
O62 Li0 1.961 . S
O62 Li2 1.956 . S
O62 Li3 1.970 . S
O62 C32 1.325 . S
O63 Li1 1.961 . S
O63 Li2 1.970 . S
O63 Li3 1.956 . S
O63 C38 1.325 . S
H64 C6 0.929 . S
H65 C7 0.930 . S
H66 C8 0.930 . S
H67 C9 0.930 . S
H68 C11 0.930 . S
H69 C13 0.929 . S
H70 C14 0.930 . S
H71 C15 0.930 . S
H72 C18 0.930 . S
H73 C21 0.929 . S
H74 C26 0.929 . S
H75 C27 0.930 . S
H76 C34 0.929 . S
H77 C35 0.930 . S
H78 C36 0.930 . S
H79 C37 0.930 . S
H80 C39 0.929 . S
H81 C40 0.930 . S
H82 C41 0.930 . S
H83 C42 0.930 . S
H84 C46 0.929 . S
H85 C48 0.930 . S
H86 C54 0.929 . S
H87 C55 0.930 . S
Li88 N105 1.990 . S
Li88 O148 1.956 1_545 S
Li88 O149 1.970 . S
Li88 O150 1.961 . S
Li89 N113 1.990 . S
Li89 O148 1.970 . S
Li89 O149 1.956 1_565 S
Li89 O151 1.961 . S
Li90 N135 1.991 . S
Li90 O148 1.969 . S
Li90 O150 1.946 1_565 S
Li90 O151 1.976 . S
Li91 N141 1.990 . S
Li91 O149 1.961 . S
Li91 O150 1.970 . S
Li91 O151 1.956 1_545 S
C92 C94 1.348 . S
C92 C95 1.356 1_565 S
C92 O148 1.325 . S
N93 C96 1.314 . S
N93 C97 1.279 1_565 S
C94 C92 1.348 . S
C94 C96 1.353 . S
C94 H152 0.929 . S
C95 C92 1.356 1_545 S
C95 C97 1.358 . S
C95 H153 0.930 . S
C96 N93 1.314 . S
C96 C94 1.353 . S
C96 H154 0.930 . S
C97 N93 1.279 1_545 S
C97 C95 1.358 . S
C97 H155 0.930 . S
C98 C101 1.348 . S
C98 C102 1.356 1_545 S
C98 O149 1.325 . S
C99 N100 1.279 1_565 S
C99 C102 1.358 . S
C99 H156 0.930 . S
N100 C99 1.279 1_545 S
N100 C103 1.314 . S
C101 C98 1.348 . S
C101 C103 1.353 . S
C101 H157 0.929 . S
C102 C98 1.356 1_565 S
C102 C99 1.358 . S
C102 H158 0.930 . S
C103 N100 1.314 . S
C103 C101 1.353 . S
C103 H159 0.930 . S
C104 N105 1.314 . S
C104 C109 1.353 . S
C104 H110 0.930 . S
N105 Li88 1.990 . S
N105 C104 1.314 . S
N105 C107 1.279 . S
C106 C107 1.358 . S
C106 C108 1.356 . S
C106 H160 0.930 . S
C107 N105 1.279 . S
C107 C106 1.358 . S
C107 H111 0.930 . S
C108 C106 1.356 . S
C108 C109 1.348 . S
C109 C104 1.353 . S
C109 C108 1.348 . S
C109 H161 0.929 . S
H110 C104 0.930 . S
H111 C107 0.930 . S
C112 N113 1.314 . S
C112 C114 1.353 . S
C112 H118 0.930 . S
N113 Li89 1.990 . S
N113 C112 1.314 . S
N113 C116 1.279 . S
C114 C112 1.353 . S
C114 C117 1.348 . S
C114 H162 0.929 . S
C115 C116 1.358 . S
C115 C117 1.356 . S
C115 H163 0.930 . S
C116 N113 1.279 . S
C116 C115 1.358 . S
C116 H119 0.930 . S
C117 C114 1.348 . S
C117 C115 1.356 . S
H118 C112 0.930 . S
H119 C116 0.930 . S
C120 C122 1.348 . S
C120 C123 1.356 . S
C120 O150 1.325 . S
N121 C124 1.314 . S
N121 C125 1.279 . S
C122 C120 1.348 . S
C122 C124 1.353 . S
C122 H164 0.929 . S
C123 C120 1.356 . S
C123 C125 1.358 . S
C123 H165 0.930 . S
C124 N121 1.314 . S
C124 C122 1.353 . S
C124 H166 0.930 . S
C125 N121 1.279 . S
C125 C123 1.358 . S
C125 H167 0.930 . S
C126 C127 1.348 . S
C126 C128 1.356 . S
C126 O151 1.325 . S
C127 C126 1.348 . S
C127 C129 1.353 . S
C127 H168 0.929 . S
C128 C126 1.356 . S
C128 C130 1.358 . S
C128 H169 0.930 . S
C129 C127 1.353 . S
C129 N131 1.314 . S
C129 H170 0.930 . S
C130 C128 1.358 . S
C130 N131 1.279 . S
C130 H171 0.930 . S
N131 C129 1.314 . S
N131 C130 1.279 . S
C132 C134 1.353 . S
C132 N135 1.328 . S
C132 H138 0.930 . S
C133 N135 1.264 1_545 S
C133 C136 1.358 . S
C133 H139 0.930 . S
C134 C132 1.353 . S
C134 C137 1.348 . S
C134 H172 0.929 . S
N135 Li90 1.991 . S
N135 C132 1.328 . S
N135 C133 1.264 1_565 S
C136 C133 1.358 . S
C136 C137 1.356 1_545 S
C136 H173 0.930 . S
C137 C134 1.348 . S
C137 C136 1.356 1_565 S
H138 C132 0.930 . S
H139 C133 0.930 . S
C140 N141 1.314 . S
C140 C142 1.353 . S
C140 H146 0.930 . S
N141 Li91 1.990 . S
N141 C140 1.314 . S
N141 C144 1.279 1_545 S
C142 C140 1.353 . S
C142 C145 1.348 . S
C142 H174 0.929 . S
C143 C144 1.372 . S
C143 C145 1.341 1_565 S
C143 H175 0.932 . S
C144 N141 1.279 1_565 S
C144 C143 1.372 . S
C144 H147 0.930 . S
C145 C142 1.348 . S
C145 C143 1.341 1_545 S
H146 C140 0.930 . S
H147 C144 0.930 . S
O148 Li88 1.956 1_565 S
O148 Li89 1.970 . S
O148 Li90 1.969 . S
O148 C92 1.325 . S
O149 Li88 1.970 . S
O149 Li89 1.956 1_545 S
O149 Li91 1.961 . S
O149 C98 1.325 . S
O150 Li88 1.961 . S
O150 Li90 1.946 1_545 S
O150 Li91 1.970 . S
O150 C120 1.325 . S
O151 Li89 1.961 . S
O151 Li90 1.976 . S
O151 Li91 1.956 1_565 S
O151 C126 1.325 . S
H152 C94 0.929 . S
H153 C95 0.930 . S
H154 C96 0.930 . S
H155 C97 0.930 . S
H156 C99 0.930 . S
H157 C101 0.929 . S
H158 C102 0.930 . S
H159 C103 0.930 . S
H160 C106 0.930 . S
H161 C109 0.929 . S
H162 C114 0.929 . S
H163 C115 0.930 . S
H164 C122 0.929 . S
H165 C123 0.930 . S
H166 C124 0.930 . S
H167 C125 0.930 . S
H168 C127 0.929 . S
H169 C128 0.930 . S
H170 C129 0.930 . S
H171 C130 0.930 . S
H172 C134 0.929 . S
H173 C136 0.930 . S
H174 C142 0.929 . S
H175 C143 0.932 . S
Li176 N193 1.990 . S
Li176 O236 1.956 1_655 S
Li176 O237 1.970 . S
Li176 O238 1.961 . S
Li177 N201 1.990 . S
Li177 O236 1.970 . S
Li177 O237 1.956 1_455 S
Li177 O239 1.961 . S
Li178 N223 1.990 . S
Li178 O236 1.957 . S
Li178 O238 1.949 1_455 S
Li178 O239 1.979 . S
Li179 N229 1.990 . S
Li179 O237 1.961 . S
Li179 O238 1.970 . S
Li179 O239 1.956 1_655 S
C180 C182 1.348 . S
C180 C183 1.356 1_455 S
C180 O236 1.325 . S
N181 C184 1.314 . S
N181 C185 1.279 1_455 S
C182 C180 1.348 . S
C182 C184 1.353 . S
C182 H240 0.929 . S
C183 C180 1.356 1_655 S
C183 C185 1.358 . S
C183 H241 0.930 . S
C184 N181 1.314 . S
C184 C182 1.353 . S
C184 H242 0.930 . S
C185 N181 1.279 1_655 S
C185 C183 1.358 . S
C185 H243 0.930 . S
C186 C189 1.348 . S
C186 C190 1.356 1_655 S
C186 O237 1.325 . S
C187 N188 1.279 1_455 S
C187 C190 1.358 . S
C187 H244 0.930 . S
N188 C187 1.279 1_655 S
N188 C191 1.314 . S
C189 C186 1.348 . S
C189 C191 1.353 . S
C189 H245 0.929 . S
C190 C186 1.356 1_455 S
C190 C187 1.358 . S
C190 H246 0.930 . S
C191 N188 1.314 . S
C191 C189 1.353 . S
C191 H247 0.930 . S
C192 N193 1.314 . S
C192 C197 1.353 . S
C192 H198 0.930 . S
N193 Li176 1.990 . S
N193 C192 1.314 . S
N193 C195 1.279 . S
C194 C195 1.358 . S
C194 C196 1.356 . S
C194 H248 0.930 . S
C195 N193 1.279 . S
C195 C194 1.358 . S
C195 H199 0.930 . S
C196 C194 1.356 . S
C196 C197 1.348 . S
C197 C192 1.353 . S
C197 C196 1.348 . S
C197 H249 0.929 . S
H198 C192 0.930 . S
H199 C195 0.930 . S
C200 N201 1.314 . S
C200 C202 1.353 . S
C200 H206 0.930 . S
N201 Li177 1.990 . S
N201 C200 1.314 . S
N201 C204 1.279 . S
C202 C200 1.353 . S
C202 C205 1.348 . S
C202 H250 0.929 . S
C203 C204 1.358 . S
C203 C205 1.356 . S
C203 H251 0.930 . S
C204 N201 1.279 . S
C204 C203 1.358 . S
C204 H207 0.930 . S
C205 C202 1.348 . S
C205 C203 1.356 . S
H206 C200 0.930 . S
H207 C204 0.930 . S
C208 C210 1.348 . S
C208 C211 1.356 . S
C208 O238 1.325 . S
N209 C212 1.314 . S
N209 C213 1.279 . S
C210 C208 1.348 . S
C210 C212 1.353 . S
C210 H252 0.929 . S
C211 C208 1.356 . S
C211 C213 1.358 . S
C211 H253 0.930 . S
C212 N209 1.314 . S
C212 C210 1.353 . S
C212 H254 0.930 . S
C213 N209 1.279 . S
C213 C211 1.358 . S
C213 H255 0.930 . S
C214 C215 1.348 . S
C214 C216 1.356 . S
C214 O239 1.325 . S
C215 C214 1.348 . S
C215 C217 1.353 . S
C215 H256 0.929 . S
C216 C214 1.356 . S
C216 C218 1.358 . S
C216 H257 0.930 . S
C217 C215 1.353 . S
C217 N219 1.314 . S
C217 H258 0.930 . S
C218 C216 1.358 . S
C218 N219 1.279 . S
C218 H259 0.930 . S
N219 C217 1.314 . S
N219 C218 1.279 . S
C220 C222 1.353 . S
C220 N223 1.320 . S
C220 H226 0.930 . S
C221 N223 1.277 1_655 S
C221 C224 1.358 . S
C221 H227 0.930 . S
C222 C220 1.353 . S
C222 C225 1.348 . S
C222 H260 0.929 . S
N223 Li178 1.990 . S
N223 C220 1.320 . S
N223 C221 1.277 1_455 S
C224 C221 1.358 . S
C224 C225 1.356 1_655 S
C224 H261 0.930 . S
C225 C222 1.348 . S
C225 C224 1.356 1_455 S
H226 C220 0.930 . S
H227 C221 0.930 . S
C228 N229 1.314 . S
C228 C230 1.353 . S
C228 H234 0.930 . S
N229 Li179 1.990 . S
N229 C228 1.314 . S
N229 C232 1.279 1_655 S
C230 C228 1.353 . S
C230 C233 1.348 . S
C230 H262 0.929 . S
C231 C232 1.363 1_655 S
C231 C233 1.367 . S
C231 H263 0.914 1_655 S
C232 N229 1.279 1_455 S
C232 C231 1.363 1_455 S
C232 H235 0.930 . S
C233 C230 1.348 . S
C233 C231 1.367 . S
H234 C228 0.930 . S
H235 C232 0.930 . S
O236 Li176 1.956 1_455 S
O236 Li177 1.970 . S
O236 Li178 1.957 . S
O236 C180 1.325 . S
O237 Li176 1.970 . S
O237 Li177 1.956 1_655 S
O237 Li179 1.961 . S
O237 C186 1.325 . S
O238 Li176 1.961 . S
O238 Li178 1.949 1_655 S
O238 Li179 1.970 . S
O238 C208 1.325 . S
O239 Li177 1.961 . S
O239 Li178 1.979 . S
O239 Li179 1.956 1_455 S
O239 C214 1.325 . S
H240 C182 0.929 . S
H241 C183 0.930 . S
H242 C184 0.930 . S
H243 C185 0.930 . S
H244 C187 0.930 . S
H245 C189 0.929 . S
H246 C190 0.930 . S
H247 C191 0.930 . S
H248 C194 0.930 . S
H249 C197 0.929 . S
H250 C202 0.929 . S
H251 C203 0.930 . S
H252 C210 0.929 . S
H253 C211 0.930 . S
H254 C212 0.930 . S
H255 C213 0.930 . S
H256 C215 0.929 . S
H257 C216 0.930 . S
H258 C217 0.930 . S
H259 C218 0.930 . S
H260 C222 0.929 . S
H261 C224 0.930 . S
H262 C230 0.929 . S
H263 C231 0.914 1_455 S
Li264 N281 1.990 . S
Li264 O324 1.956 . S
Li264 O325 1.970 . S
Li264 O326 1.961 . S
Li265 N289 1.990 . S
Li265 O324 1.970 . S
Li265 O325 1.956 . S
Li265 O327 1.961 . S
Li266 N311 1.990 . S
Li266 O324 1.961 . S
Li266 O326 1.956 . S
Li266 O327 1.970 . S
Li267 N317 1.990 . S
Li267 O325 1.961 . S
Li267 O326 1.970 . S
Li267 O327 1.956 . S
C268 C270 1.348 . S
C268 C271 1.356 . S
C268 O324 1.325 . S
N269 C272 1.314 . S
N269 C273 1.279 . S
C270 C268 1.348 . S
C270 C272 1.353 . S
C270 H328 0.929 . S
C271 C268 1.356 . S
C271 C273 1.358 . S
C271 H329 0.930 . S
C272 N269 1.314 . S
C272 C270 1.353 . S
C272 H330 0.930 . S
C273 N269 1.279 . S
C273 C271 1.358 . S
C273 H331 0.930 . S
C274 C277 1.348 . S
C274 C278 1.356 . S
C274 O325 1.325 . S
C275 N276 1.279 . S
C275 C278 1.358 . S
C275 H332 0.930 . S
N276 C275 1.279 . S
N276 C279 1.314 . S
C277 C274 1.348 . S
C277 C279 1.353 . S
C277 H333 0.929 . S
C278 C274 1.356 . S
C278 C275 1.358 . S
C278 H334 0.930 . S
C279 N276 1.314 . S
C279 C277 1.353 . S
C279 H335 0.930 . S
C280 N281 1.314 . S
C280 C285 1.353 . S
C280 H286 0.930 . S
N281 Li264 1.990 . S
N281 C280 1.314 . S
N281 C283 1.279 . S
C282 C283 1.358 . S
C282 C284 1.356 . S
C282 H336 0.930 . S
C283 N281 1.279 . S
C283 C282 1.358 . S
C283 H287 0.930 . S
C284 C282 1.356 . S
C284 C285 1.348 . S
C285 C280 1.353 . S
C285 C284 1.348 . S
C285 H337 0.929 . S
H286 C280 0.930 . S
H287 C283 0.930 . S
C288 N289 1.314 . S
C288 C290 1.353 . S
C288 H294 0.930 . S
N289 Li265 1.990 . S
N289 C288 1.314 . S
N289 C292 1.279 . S
C290 C288 1.353 . S
C290 C293 1.348 . S
C290 H338 0.929 . S
C291 C292 1.358 . S
C291 C293 1.356 . S
C291 H339 0.930 . S
C292 N289 1.279 . S
C292 C291 1.358 . S
C292 H295 0.930 . S
C293 C290 1.348 . S
C293 C291 1.356 . S
H294 C288 0.930 . S
H295 C292 0.930 . S
C296 C298 1.348 . S
C296 C299 1.356 . S
C296 O326 1.325 . S
N297 C300 1.314 . S
N297 C301 1.279 . S
C298 C296 1.348 . S
C298 C300 1.353 . S
C298 H340 0.929 . S
C299 C296 1.356 . S
C299 C301 1.358 . S
C299 H341 0.930 . S
C300 N297 1.314 . S
C300 C298 1.353 . S
C300 H342 0.930 . S
C301 N297 1.279 . S
C301 C299 1.358 . S
C301 H343 0.930 . S
C302 C303 1.348 . S
C302 C304 1.356 . S
C302 O327 1.325 . S
C303 C302 1.348 . S
C303 C305 1.353 . S
C303 H344 0.929 . S
C304 C302 1.356 . S
C304 C306 1.358 . S
C304 H345 0.930 . S
C305 C303 1.353 . S
C305 N307 1.314 . S
C305 H346 0.930 . S
C306 C304 1.358 . S
C306 N307 1.279 . S
C306 H347 0.930 . S
N307 C305 1.314 . S
N307 C306 1.279 . S
C308 C310 1.353 . S
C308 N311 1.314 . S
C308 H314 0.930 . S
C309 N311 1.279 . S
C309 C312 1.358 . S
C309 H315 0.930 . S
C310 C308 1.353 . S
C310 C313 1.348 . S
C310 H348 0.929 . S
N311 Li266 1.990 . S
N311 C308 1.314 . S
N311 C309 1.279 . S
C312 C309 1.358 . S
C312 C313 1.356 . S
C312 H349 0.930 . S
C313 C310 1.348 . S
C313 C312 1.356 . S
H314 C308 0.930 . S
H315 C309 0.930 . S
C316 N317 1.314 . S
C316 C318 1.353 . S
C316 H322 0.930 . S
N317 Li267 1.990 . S
N317 C316 1.314 . S
N317 C320 1.279 . S
C318 C316 1.353 . S
C318 C321 1.348 . S
C318 H350 0.929 . S
C319 C320 1.358 . S
C319 C321 1.356 . S
C319 H351 0.930 . S
C320 N317 1.279 . S
C320 C319 1.358 . S
C320 H323 0.930 . S
C321 C318 1.348 . S
C321 C319 1.356 . S
H322 C316 0.930 . S
H323 C320 0.930 . S
O324 Li264 1.956 . S
O324 Li265 1.970 . S
O324 Li266 1.961 . S
O324 C268 1.325 . S
O325 Li264 1.970 . S
O325 Li265 1.956 . S
O325 Li267 1.961 . S
O325 C274 1.325 . S
O326 Li264 1.961 . S
O326 Li266 1.956 . S
O326 Li267 1.970 . S
O326 C296 1.325 . S
O327 Li265 1.961 . S
O327 Li266 1.970 . S
O327 Li267 1.956 . S
O327 C302 1.325 . S
H328 C270 0.929 . S
H329 C271 0.930 . S
H330 C272 0.930 . S
H331 C273 0.930 . S
H332 C275 0.930 . S
H333 C277 0.929 . S
H334 C278 0.930 . S
H335 C279 0.930 . S
H336 C282 0.930 . S
H337 C285 0.929 . S
H338 C290 0.929 . S
H339 C291 0.930 . S
H340 C298 0.929 . S
H341 C299 0.930 . S
H342 C300 0.930 . S
H343 C301 0.930 . S
H344 C303 0.929 . S
H345 C304 0.930 . S
H346 C305 0.930 . S
H347 C306 0.930 . S
H348 C310 0.929 . S
H349 C312 0.930 . S
H350 C318 0.929 . S
H351 C319 0.930 . S
Li352 N369 1.990 . S
Li352 O412 1.956 1_565 S
Li352 O413 1.970 . S
Li352 O414 1.961 . S
Li353 N377 1.990 . S
Li353 O412 1.979 . S
Li353 O413 1.949 1_545 S
Li353 O415 1.957 . S
Li354 N399 1.990 . S
Li354 O412 1.961 . S
Li354 O414 1.956 1_545 S
Li354 O415 1.970 . S
Li355 N405 1.990 . S
Li355 O413 1.961 . S
Li355 O414 1.970 . S
Li355 O415 1.956 1_565 S
C356 C358 1.348 . S
C356 C359 1.356 . S
C356 O412 1.325 . S
N357 C360 1.314 . S
N357 C361 1.279 . S
C358 C356 1.348 . S
C358 C360 1.353 . S
C358 H416 0.929 . S
C359 C356 1.356 . S
C359 C361 1.358 . S
C359 H417 0.930 . S
C360 N357 1.314 . S
C360 C358 1.353 . S
C360 H418 0.930 . S
C361 N357 1.279 . S
C361 C359 1.358 . S
C361 H419 0.930 . S
C362 C365 1.348 . S
C362 C366 1.356 . S
C362 O413 1.325 . S
C363 N364 1.279 . S
C363 C366 1.358 . S
C363 H420 0.930 . S
N364 C363 1.279 . S
N364 C367 1.314 . S
C365 C362 1.348 . S
C365 C367 1.353 . S
C365 H421 0.929 . S
C366 C362 1.356 . S
C366 C363 1.358 . S
C366 H422 0.930 . S
C367 N364 1.314 . S
C367 C365 1.353 . S
C367 H423 0.930 . S
C368 N369 1.314 . S
C368 C373 1.353 . S
C368 H374 0.930 . S
N369 Li352 1.990 . S
N369 C368 1.314 . S
N369 C371 1.279 1_565 S
C370 C371 1.363 1_565 S
C370 C372 1.367 . S
C370 H424 0.914 1_565 S
C371 N369 1.279 1_545 S
C371 C370 1.363 1_545 S
C371 H375 0.930 . S
C372 C370 1.367 . S
C372 C373 1.348 . S
C373 C368 1.353 . S
C373 C372 1.348 . S
C373 H425 0.929 . S
H374 C368 0.930 . S
H375 C371 0.930 . S
C376 N377 1.320 . S
C376 C378 1.353 . S
C376 H382 0.930 . S
N377 Li353 1.990 . S
N377 C376 1.320 . S
N377 C380 1.277 1_545 S
C378 C376 1.353 . S
C378 C381 1.348 . S
C378 H426 0.929 . S
C379 C380 1.358 . S
C379 C381 1.356 1_565 S
C379 H427 0.930 . S
C380 N377 1.277 1_565 S
C380 C379 1.358 . S
C380 H383 0.930 . S
C381 C378 1.348 . S
C381 C379 1.356 1_545 S
H382 C376 0.930 . S
H383 C380 0.930 . S
C384 C386 1.348 . S
C384 C387 1.356 1_565 S
C384 O414 1.325 . S
N385 C388 1.314 . S
N385 C389 1.279 1_565 S
C386 C384 1.348 . S
C386 C388 1.353 . S
C386 H428 0.929 . S
C387 C384 1.356 1_545 S
C387 C389 1.358 . S
C387 H429 0.930 . S
C388 N385 1.314 . S
C388 C386 1.353 . S
C388 H430 0.930 . S
C389 N385 1.279 1_545 S
C389 C387 1.358 . S
C389 H431 0.930 . S
C390 C391 1.348 . S
C390 C392 1.356 1_545 S
C390 O415 1.325 . S
C391 C390 1.348 . S
C391 C393 1.353 . S
C391 H432 0.929 . S
C392 C390 1.356 1_565 S
C392 C394 1.358 . S
C392 H433 0.930 . S
C393 C391 1.353 . S
C393 N395 1.314 . S
C393 H434 0.930 . S
C394 C392 1.358 . S
C394 N395 1.279 1_565 S
C394 H435 0.930 . S
N395 C393 1.314 . S
N395 C394 1.279 1_545 S
C396 C398 1.353 . S
C396 N399 1.314 . S
C396 H402 0.930 . S
C397 N399 1.279 . S
C397 C400 1.358 . S
C397 H403 0.930 . S
C398 C396 1.353 . S
C398 C401 1.348 . S
C398 H436 0.929 . S
N399 Li354 1.990 . S
N399 C396 1.314 . S
N399 C397 1.279 . S
C400 C397 1.358 . S
C400 C401 1.356 . S
C400 H437 0.930 . S
C401 C398 1.348 . S
C401 C400 1.356 . S
H402 C396 0.930 . S
H403 C397 0.930 . S
C404 N405 1.314 . S
C404 C406 1.353 . S
C404 H410 0.930 . S
N405 Li355 1.990 . S
N405 C404 1.314 . S
N405 C408 1.279 . S
C406 C404 1.353 . S
C406 C409 1.348 . S
C406 H438 0.929 . S
C407 C408 1.358 . S
C407 C409 1.356 . S
C407 H439 0.930 . S
C408 N405 1.279 . S
C408 C407 1.358 . S
C408 H411 0.930 . S
C409 C406 1.348 . S
C409 C407 1.356 . S
H410 C404 0.930 . S
H411 C408 0.930 . S
O412 Li352 1.956 1_545 S
O412 Li353 1.979 . S
O412 Li354 1.961 . S
O412 C356 1.325 . S
O413 Li352 1.970 . S
O413 Li353 1.949 1_565 S
O413 Li355 1.961 . S
O413 C362 1.325 . S
O414 Li352 1.961 . S
O414 Li354 1.956 1_565 S
O414 Li355 1.970 . S
O414 C384 1.325 . S
O415 Li353 1.957 . S
O415 Li354 1.970 . S
O415 Li355 1.956 1_545 S
O415 C390 1.325 . S
H416 C358 0.929 . S
H417 C359 0.930 . S
H418 C360 0.930 . S
H419 C361 0.930 . S
H420 C363 0.930 . S
H421 C365 0.929 . S
H422 C366 0.930 . S
H423 C367 0.930 . S
H424 C370 0.914 1_545 S
H425 C373 0.929 . S
H426 C378 0.929 . S
H427 C379 0.930 . S
H428 C386 0.929 . S
H429 C387 0.930 . S
H430 C388 0.930 . S
H431 C389 0.930 . S
H432 C391 0.929 . S
H433 C392 0.930 . S
H434 C393 0.930 . S
H435 C394 0.930 . S
H436 C398 0.929 . S
H437 C400 0.930 . S
H438 C406 0.929 . S
H439 C407 0.930 . S
Li440 N457 1.990 . S
Li440 O500 1.956 1_455 S
Li440 O501 1.970 . S
Li440 O502 1.961 . S
Li441 N465 1.990 . S
Li441 O500 1.970 . S
Li441 O501 1.956 1_655 S
Li441 O503 1.961 . S
Li442 N487 1.991 . S
Li442 O500 1.969 . S
Li442 O502 1.946 1_655 S
Li442 O503 1.976 . S
Li443 N493 1.990 . S
Li443 O501 1.961 . S
Li443 O502 1.970 . S
Li443 O503 1.956 1_455 S
C444 C446 1.348 . S
C444 C447 1.356 1_655 S
C444 O500 1.325 . S
N445 C448 1.314 . S
N445 C449 1.279 1_655 S
C446 C444 1.348 . S
C446 C448 1.353 . S
C446 H504 0.929 . S
C447 C444 1.356 1_455 S
C447 C449 1.358 . S
C447 H505 0.930 . S
C448 N445 1.314 . S
C448 C446 1.353 . S
C448 H506 0.930 . S
C449 N445 1.279 1_455 S
C449 C447 1.358 . S
C449 H507 0.930 . S
C450 C453 1.348 . S
C450 C454 1.356 1_455 S
C450 O501 1.325 . S
C451 N452 1.279 1_655 S
C451 C454 1.358 . S
C451 H508 0.930 . S
N452 C451 1.279 1_455 S
N452 C455 1.314 . S
C453 C450 1.348 . S
C453 C455 1.353 . S
C453 H509 0.929 . S
C454 C450 1.356 1_655 S
C454 C451 1.358 . S
C454 H510 0.930 . S
C455 N452 1.314 . S
C455 C453 1.353 . S
C455 H511 0.930 . S
C456 N457 1.314 . S
C456 C461 1.353 . S
C456 H462 0.930 . S
N457 Li440 1.990 . S
N457 C456 1.314 . S
N457 C459 1.279 . S
C458 C459 1.358 . S
C458 C460 1.356 . S
C458 H512 0.930 . S
C459 N457 1.279 . S
C459 C458 1.358 . S
C459 H463 0.930 . S
C460 C458 1.356 . S
C460 C461 1.348 . S
C461 C456 1.353 . S
C461 C460 1.348 . S
C461 H513 0.929 . S
H462 C456 0.930 . S
H463 C459 0.930 . S
C464 N465 1.314 . S
C464 C466 1.353 . S
C464 H470 0.930 . S
N465 Li441 1.990 . S
N465 C464 1.314 . S
N465 C468 1.279 . S
C466 C464 1.353 . S
C466 C469 1.348 . S
C466 H514 0.929 . S
C467 C468 1.358 . S
C467 C469 1.356 . S
C467 H515 0.930 . S
C468 N465 1.279 . S
C468 C467 1.358 . S
C468 H471 0.930 . S
C469 C466 1.348 . S
C469 C467 1.356 . S
H470 C464 0.930 . S
H471 C468 0.930 . S
C472 C474 1.348 . S
C472 C475 1.356 . S
C472 O502 1.325 . S
N473 C476 1.314 . S
N473 C477 1.279 . S
C474 C472 1.348 . S
C474 C476 1.353 . S
C474 H516 0.929 . S
C475 C472 1.356 . S
C475 C477 1.358 . S
C475 H517 0.930 . S
C476 N473 1.314 . S
C476 C474 1.353 . S
C476 H518 0.930 . S
C477 N473 1.279 . S
C477 C475 1.358 . S
C477 H519 0.930 . S
C478 C479 1.348 . S
C478 C480 1.356 . S
C478 O503 1.325 . S
C479 C478 1.348 . S
C479 C481 1.353 . S
C479 H520 0.929 . S
C480 C478 1.356 . S
C480 C482 1.358 . S
C480 H521 0.930 . S
C481 C479 1.353 . S
C481 N483 1.314 . S
C481 H522 0.930 . S
C482 C480 1.358 . S
C482 N483 1.279 . S
C482 H523 0.930 . S
N483 C481 1.314 . S
N483 C482 1.279 . S
C484 C486 1.353 . S
C484 N487 1.328 . S
C484 H490 0.930 . S
C485 N487 1.264 1_455 S
C485 C488 1.358 . S
C485 H491 0.930 . S
C486 C484 1.353 . S
C486 C489 1.348 . S
C486 H524 0.929 . S
N487 Li442 1.991 . S
N487 C484 1.328 . S
N487 C485 1.264 1_655 S
C488 C485 1.358 . S
C488 C489 1.356 1_455 S
C488 H525 0.930 . S
C489 C486 1.348 . S
C489 C488 1.356 1_655 S
H490 C484 0.930 . S
H491 C485 0.930 . S
C492 N493 1.314 . S
C492 C494 1.353 . S
C492 H498 0.930 . S
N493 Li443 1.990 . S
N493 C492 1.314 . S
N493 C496 1.279 1_455 S
C494 C492 1.353 . S
C494 C497 1.348 . S
C494 H526 0.929 . S
C495 C496 1.372 . S
C495 C497 1.341 1_655 S
C495 H527 0.932 . S
C496 N493 1.279 1_655 S
C496 C495 1.372 . S
C496 H499 0.930 . S
C497 C494 1.348 . S
C497 C495 1.341 1_455 S
H498 C492 0.930 . S
H499 C496 0.930 . S
O500 Li440 1.956 1_655 S
O500 Li441 1.970 . S
O500 Li442 1.969 . S
O500 C444 1.325 . S
O501 Li440 1.970 . S
O501 Li441 1.956 1_455 S
O501 Li443 1.961 . S
O501 C450 1.325 . S
O502 Li440 1.961 . S
O502 Li442 1.946 1_455 S
O502 Li443 1.970 . S
O502 C472 1.325 . S
O503 Li441 1.961 . S
O503 Li442 1.976 . S
O503 Li443 1.956 1_655 S
O503 C478 1.325 . S
H504 C446 0.929 . S
H505 C447 0.930 . S
H506 C448 0.930 . S
H507 C449 0.930 . S
H508 C451 0.930 . S
H509 C453 0.929 . S
H510 C454 0.930 . S
H511 C455 0.930 . S
H512 C458 0.930 . S
H513 C461 0.929 . S
H514 C466 0.929 . S
H515 C467 0.930 . S
H516 C474 0.929 . S
H517 C475 0.930 . S
H518 C476 0.930 . S
H519 C477 0.930 . S
H520 C479 0.929 . S
H521 C480 0.930 . S
H522 C481 0.930 . S
H523 C482 0.930 . S
H524 C486 0.929 . S
H525 C488 0.930 . S
H526 C494 0.929 . S
H527 C495 0.932 . S
Li528 N545 1.990 . S
Li528 O588 1.956 . S
Li528 O589 1.970 . S
Li528 O590 1.961 . S
Li529 N553 1.990 . S
Li529 O588 1.970 . S
Li529 O589 1.956 . S
Li529 O591 1.961 . S
Li530 N575 1.990 . S
Li530 O588 1.961 . S
Li530 O590 1.956 . S
Li530 O591 1.970 . S
Li531 N581 1.990 . S
Li531 O589 1.961 . S
Li531 O590 1.970 . S
Li531 O591 1.956 . S
C532 C534 1.348 . S
C532 C535 1.356 . S
C532 O588 1.325 . S
N533 C536 1.314 . S
N533 C537 1.279 . S
C534 C532 1.348 . S
C534 C536 1.353 . S
C534 H592 0.929 . S
C535 C532 1.356 . S
C535 C537 1.358 . S
C535 H593 0.930 . S
C536 N533 1.314 . S
C536 C534 1.353 . S
C536 H594 0.930 . S
C537 N533 1.279 . S
C537 C535 1.358 . S
C537 H595 0.930 . S
C538 C541 1.348 . S
C538 C542 1.356 . S
C538 O589 1.325 . S
C539 N540 1.279 . S
C539 C542 1.358 . S
C539 H596 0.930 . S
N540 C539 1.279 . S
N540 C543 1.314 . S
C541 C538 1.348 . S
C541 C543 1.353 . S
C541 H597 0.929 . S
C542 C538 1.356 . S
C542 C539 1.358 . S
C542 H598 0.930 . S
C543 N540 1.314 . S
C543 C541 1.353 . S
C543 H599 0.930 . S
C544 N545 1.314 . S
C544 C549 1.353 . S
C544 H550 0.930 . S
N545 Li528 1.990 . S
N545 C544 1.314 . S
N545 C547 1.279 . S
C546 C547 1.358 . S
C546 C548 1.356 . S
C546 H600 0.930 . S
C547 N545 1.279 . S
C547 C546 1.358 . S
C547 H551 0.930 . S
C548 C546 1.356 . S
C548 C549 1.348 . S
C549 C544 1.353 . S
C549 C548 1.348 . S
C549 H601 0.929 . S
H550 C544 0.930 . S
H551 C547 0.930 . S
C552 N553 1.314 . S
C552 C554 1.353 . S
C552 H558 0.930 . S
N553 Li529 1.990 . S
N553 C552 1.314 . S
N553 C556 1.279 . S
C554 C552 1.353 . S
C554 C557 1.348 . S
C554 H602 0.929 . S
C555 C556 1.358 . S
C555 C557 1.356 . S
C555 H603 0.930 . S
C556 N553 1.279 . S
C556 C555 1.358 . S
C556 H559 0.930 . S
C557 C554 1.348 . S
C557 C555 1.356 . S
H558 C552 0.930 . S
H559 C556 0.930 . S
C560 C562 1.348 . S
C560 C563 1.356 . S
C560 O590 1.325 . S
N561 C564 1.314 . S
N561 C565 1.279 . S
C562 C560 1.348 . S
C562 C564 1.353 . S
C562 H604 0.929 . S
C563 C560 1.356 . S
C563 C565 1.358 . S
C563 H605 0.930 . S
C564 N561 1.314 . S
C564 C562 1.353 . S
C564 H606 0.930 . S
C565 N561 1.279 . S
C565 C563 1.358 . S
C565 H607 0.930 . S
C566 C567 1.348 . S
C566 C568 1.356 . S
C566 O591 1.325 . S
C567 C566 1.348 . S
C567 C569 1.353 . S
C567 H608 0.929 . S
C568 C566 1.356 . S
C568 C570 1.358 . S
C568 H609 0.930 . S
C569 C567 1.353 . S
C569 N571 1.314 . S
C569 H610 0.930 . S
C570 C568 1.358 . S
C570 N571 1.279 . S
C570 H611 0.930 . S
N571 C569 1.314 . S
N571 C570 1.279 . S
C572 C574 1.353 . S
C572 N575 1.314 . S
C572 H578 0.930 . S
C573 N575 1.279 . S
C573 C576 1.358 . S
C573 H579 0.930 . S
C574 C572 1.353 . S
C574 C577 1.348 . S
C574 H612 0.929 . S
N575 Li530 1.990 . S
N575 C572 1.314 . S
N575 C573 1.279 . S
C576 C573 1.358 . S
C576 C577 1.356 . S
C576 H613 0.930 . S
C577 C574 1.348 . S
C577 C576 1.356 . S
H578 C572 0.930 . S
H579 C573 0.930 . S
C580 N581 1.314 . S
C580 C582 1.353 . S
C580 H586 0.930 . S
N581 Li531 1.990 . S
N581 C580 1.314 . S
N581 C584 1.279 . S
C582 C580 1.353 . S
C582 C585 1.348 . S
C582 H614 0.929 . S
C583 C584 1.358 . S
C583 C585 1.356 . S
C583 H615 0.930 . S
C584 N581 1.279 . S
C584 C583 1.358 . S
C584 H587 0.930 . S
C585 C582 1.348 . S
C585 C583 1.356 . S
H586 C580 0.930 . S
H587 C584 0.930 . S
O588 Li528 1.956 . S
O588 Li529 1.970 . S
O588 Li530 1.961 . S
O588 C532 1.325 . S
O589 Li528 1.970 . S
O589 Li529 1.956 . S
O589 Li531 1.961 . S
O589 C538 1.325 . S
O590 Li528 1.961 . S
O590 Li530 1.956 . S
O590 Li531 1.970 . S
O590 C560 1.325 . S
O591 Li529 1.961 . S
O591 Li530 1.970 . S
O591 Li531 1.956 . S
O591 C566 1.325 . S
H592 C534 0.929 . S
H593 C535 0.930 . S
H594 C536 0.930 . S
H595 C537 0.930 . S
H596 C539 0.930 . S
H597 C541 0.929 . S
H598 C542 0.930 . S
H599 C543 0.930 . S
H600 C546 0.930 . S
H601 C549 0.929 . S
H602 C554 0.929 . S
H603 C555 0.930 . S
H604 C562 0.929 . S
H605 C563 0.930 . S
H606 C564 0.930 . S
H607 C565 0.930 . S
H608 C567 0.929 . S
H609 C568 0.930 . S
H610 C569 0.930 . S
H611 C570 0.930 . S
H612 C574 0.929 . S
H613 C576 0.930 . S
H614 C582 0.929 . S
H615 C583 0.930 . S
Li616 N633 1.990 . S
Li616 O676 1.956 . S
Li616 O677 1.970 . S
Li616 O678 1.961 . S
Li617 N641 1.990 . S
Li617 O676 1.970 . S
Li617 O677 1.956 . S
Li617 O679 1.961 . S
Li618 N663 1.990 . S
Li618 O676 1.961 . S
Li618 O678 1.956 . S
Li618 O679 1.970 . S
Li619 N669 1.990 . S
Li619 O677 1.961 . S
Li619 O678 1.970 . S
Li619 O679 1.956 . S
C620 C622 1.348 . S
C620 C623 1.356 . S
C620 O676 1.325 . S
N621 C624 1.314 . S
N621 C625 1.279 . S
C622 C620 1.348 . S
C622 C624 1.353 . S
C622 H680 0.929 . S
C623 C620 1.356 . S
C623 C625 1.358 . S
C623 H681 0.930 . S
C624 N621 1.314 . S
C624 C622 1.353 . S
C624 H682 0.930 . S
C625 N621 1.279 . S
C625 C623 1.358 . S
C625 H683 0.930 . S
C626 C629 1.348 . S
C626 C630 1.356 . S
C626 O677 1.325 . S
C627 N628 1.279 . S
C627 C630 1.358 . S
C627 H684 0.930 . S
N628 C627 1.279 . S
N628 C631 1.314 . S
C629 C626 1.348 . S
C629 C631 1.353 . S
C629 H685 0.929 . S
C630 C626 1.356 . S
C630 C627 1.358 . S
C630 H686 0.930 . S
C631 N628 1.314 . S
C631 C629 1.353 . S
C631 H687 0.930 . S
C632 N633 1.314 . S
C632 C637 1.353 . S
C632 H638 0.930 . S
N633 Li616 1.990 . S
N633 C632 1.314 . S
N633 C635 1.279 . S
C634 C635 1.358 . S
C634 C636 1.356 . S
C634 H688 0.930 . S
C635 N633 1.279 . S
C635 C634 1.358 . S
C635 H639 0.930 . S
C636 C634 1.356 . S
C636 C637 1.348 . S
C637 C632 1.353 . S
C637 C636 1.348 . S
C637 H689 0.929 . S
H638 C632 0.930 . S
H639 C635 0.930 . S
C640 N641 1.314 . S
C640 C642 1.353 . S
C640 H646 0.930 . S
N641 Li617 1.990 . S
N641 C640 1.314 . S
N641 C644 1.279 . S
C642 C640 1.353 . S
C642 C645 1.348 . S
C642 H690 0.929 . S
C643 C644 1.358 . S
C643 C645 1.356 . S
C643 H691 0.930 . S
C644 N641 1.279 . S
C644 C643 1.358 . S
C644 H647 0.930 . S
C645 C642 1.348 . S
C645 C643 1.356 . S
H646 C640 0.930 . S
H647 C644 0.930 . S
C648 C650 1.348 . S
C648 C651 1.356 . S
C648 O678 1.325 . S
N649 C652 1.314 . S
N649 C653 1.279 . S
C650 C648 1.348 . S
C650 C652 1.353 . S
C650 H692 0.929 . S
C651 C648 1.356 . S
C651 C653 1.358 . S
C651 H693 0.930 . S
C652 N649 1.314 . S
C652 C650 1.353 . S
C652 H694 0.930 . S
C653 N649 1.279 . S
C653 C651 1.358 . S
C653 H695 0.930 . S
C654 C655 1.348 . S
C654 C656 1.356 . S
C654 O679 1.325 . S
C655 C654 1.348 . S
C655 C657 1.353 . S
C655 H696 0.929 . S
C656 C654 1.356 . S
C656 C658 1.358 . S
C656 H697 0.930 . S
C657 C655 1.353 . S
C657 N659 1.314 . S
C657 H698 0.930 . S
C658 C656 1.358 . S
C658 N659 1.279 . S
C658 H699 0.930 . S
N659 C657 1.314 . S
N659 C658 1.279 . S
C660 C662 1.353 . S
C660 N663 1.314 . S
C660 H666 0.930 . S
C661 N663 1.279 . S
C661 C664 1.358 . S
C661 H667 0.930 . S
C662 C660 1.353 . S
C662 C665 1.348 . S
C662 H700 0.929 . S
N663 Li618 1.990 . S
N663 C660 1.314 . S
N663 C661 1.279 . S
C664 C661 1.358 . S
C664 C665 1.356 . S
C664 H701 0.930 . S
C665 C662 1.348 . S
C665 C664 1.356 . S
H666 C660 0.930 . S
H667 C661 0.930 . S
C668 N669 1.314 . S
C668 C670 1.353 . S
C668 H674 0.930 . S
N669 Li619 1.990 . S
N669 C668 1.314 . S
N669 C672 1.279 . S
C670 C668 1.353 . S
C670 C673 1.348 . S
C670 H702 0.929 . S
C671 C672 1.358 . S
C671 C673 1.356 . S
C671 H703 0.930 . S
C672 N669 1.279 . S
C672 C671 1.358 . S
C672 H675 0.930 . S
C673 C670 1.348 . S
C673 C671 1.356 . S
H674 C668 0.930 . S
H675 C672 0.930 . S
O676 Li616 1.956 . S
O676 Li617 1.970 . S
O676 Li618 1.961 . S
O676 C620 1.325 . S
O677 Li616 1.970 . S
O677 Li617 1.956 . S
O677 Li619 1.961 . S
O677 C626 1.325 . S
O678 Li616 1.961 . S
O678 Li618 1.956 . S
O678 Li619 1.970 . S
O678 C648 1.325 . S
O679 Li617 1.961 . S
O679 Li618 1.970 . S
O679 Li619 1.956 . S
O679 C654 1.325 . S
H680 C622 0.929 . S
H681 C623 0.930 . S
H682 C624 0.930 . S
H683 C625 0.930 . S
H684 C627 0.930 . S
H685 C629 0.929 . S
H686 C630 0.930 . S
H687 C631 0.930 . S
H688 C634 0.930 . S
H689 C637 0.929 . S
H690 C642 0.929 . S
H691 C643 0.930 . S
H692 C650 0.929 . S
H693 C651 0.930 . S
H694 C652 0.930 . S
H695 C653 0.930 . S
H696 C655 0.929 . S
H697 C656 0.930 . S
H698 C657 0.930 . S
H699 C658 0.930 . S
H700 C662 0.929 . S
H701 C664 0.930 . S
H702 C670 0.929 . S
H703 C671 0.930 . S
Li704 N721 1.990 . S
Li704 O764 1.956 . S
Li704 O765 1.970 . S
Li704 O766 1.961 . S
Li705 N729 1.990 . S
Li705 O764 1.970 . S
Li705 O765 1.956 . S
Li705 O767 1.961 . S
Li706 N751 1.990 . S
Li706 O764 1.961 . S
Li706 O766 1.956 . S
Li706 O767 1.970 . S
Li707 N757 1.990 . S
Li707 O765 1.961 . S
Li707 O766 1.970 . S
Li707 O767 1.956 . S
C708 C710 1.348 . S
C708 C711 1.356 . S
C708 O764 1.325 . S
N709 C712 1.314 . S
N709 C713 1.279 . S
C710 C708 1.348 . S
C710 C712 1.353 . S
C710 H768 0.929 . S
C711 C708 1.356 . S
C711 C713 1.358 . S
C711 H769 0.930 . S
C712 N709 1.314 . S
C712 C710 1.353 . S
C712 H770 0.930 . S
C713 N709 1.279 . S
C713 C711 1.358 . S
C713 H771 0.930 . S
C714 C717 1.348 . S
C714 C718 1.356 . S
C714 O765 1.325 . S
C715 N716 1.279 . S
C715 C718 1.358 . S
C715 H772 0.930 . S
N716 C715 1.279 . S
N716 C719 1.314 . S
C717 C714 1.348 . S
C717 C719 1.353 . S
C717 H773 0.929 . S
C718 C714 1.356 . S
C718 C715 1.358 . S
C718 H774 0.930 . S
C719 N716 1.314 . S
C719 C717 1.353 . S
C719 H775 0.930 . S
C720 N721 1.314 . S
C720 C725 1.353 . S
C720 H726 0.930 . S
N721 Li704 1.990 . S
N721 C720 1.314 . S
N721 C723 1.279 . S
C722 C723 1.358 . S
C722 C724 1.356 . S
C722 H776 0.930 . S
C723 N721 1.279 . S
C723 C722 1.358 . S
C723 H727 0.930 . S
C724 C722 1.356 . S
C724 C725 1.348 . S
C725 C720 1.353 . S
C725 C724 1.348 . S
C725 H777 0.929 . S
H726 C720 0.930 . S
H727 C723 0.930 . S
C728 N729 1.314 . S
C728 C730 1.353 . S
C728 H734 0.930 . S
N729 Li705 1.990 . S
N729 C728 1.314 . S
N729 C732 1.279 . S
C730 C728 1.353 . S
C730 C733 1.348 . S
C730 H778 0.929 . S
C731 C732 1.358 . S
C731 C733 1.356 . S
C731 H779 0.930 . S
C732 N729 1.279 . S
C732 C731 1.358 . S
C732 H735 0.930 . S
C733 C730 1.348 . S
C733 C731 1.356 . S
H734 C728 0.930 . S
H735 C732 0.930 . S
C736 C738 1.348 . S
C736 C739 1.356 . S
C736 O766 1.325 . S
N737 C740 1.314 . S
N737 C741 1.279 . S
C738 C736 1.348 . S
C738 C740 1.353 . S
C738 H780 0.929 . S
C739 C736 1.356 . S
C739 C741 1.358 . S
C739 H781 0.930 . S
C740 N737 1.314 . S
C740 C738 1.353 . S
C740 H782 0.930 . S
C741 N737 1.279 . S
C741 C739 1.358 . S
C741 H783 0.930 . S
C742 C743 1.348 . S
C742 C744 1.356 . S
C742 O767 1.325 . S
C743 C742 1.348 . S
C743 C745 1.353 . S
C743 H784 0.929 . S
C744 C742 1.356 . S
C744 C746 1.358 . S
C744 H785 0.930 . S
C745 C743 1.353 . S
C745 N747 1.314 . S
C745 H786 0.930 . S
C746 C744 1.358 . S
C746 N747 1.279 . S
C746 H787 0.930 . S
N747 C745 1.314 . S
N747 C746 1.279 . S
C748 C750 1.353 . S
C748 N751 1.314 . S
C748 H754 0.930 . S
C749 N751 1.279 . S
C749 C752 1.358 . S
C749 H755 0.930 . S
C750 C748 1.353 . S
C750 C753 1.348 . S
C750 H788 0.929 . S
N751 Li706 1.990 . S
N751 C748 1.314 . S
N751 C749 1.279 . S
C752 C749 1.358 . S
C752 C753 1.356 . S
C752 H789 0.930 . S
C753 C750 1.348 . S
C753 C752 1.356 . S
H754 C748 0.930 . S
H755 C749 0.930 . S
C756 N757 1.314 . S
C756 C758 1.353 . S
C756 H762 0.930 . S
N757 Li707 1.990 . S
N757 C756 1.314 . S
N757 C760 1.279 . S
C758 C756 1.353 . S
C758 C761 1.348 . S
C758 H790 0.929 . S
C759 C760 1.358 . S
C759 C761 1.356 . S
C759 H791 0.930 . S
C760 N757 1.279 . S
C760 C759 1.358 . S
C760 H763 0.930 . S
C761 C758 1.348 . S
C761 C759 1.356 . S
H762 C756 0.930 . S
H763 C760 0.930 . S
O764 Li704 1.956 . S
O764 Li705 1.970 . S
O764 Li706 1.961 . S
O764 C708 1.325 . S
O765 Li704 1.970 . S
O765 Li705 1.956 . S
O765 Li707 1.961 . S
O765 C714 1.325 . S
O766 Li704 1.961 . S
O766 Li706 1.956 . S
O766 Li707 1.970 . S
O766 C736 1.325 . S
O767 Li705 1.961 . S
O767 Li706 1.970 . S
O767 Li707 1.956 . S
O767 C742 1.325 . S
H768 C710 0.929 . S
H769 C711 0.930 . S
H770 C712 0.930 . S
H771 C713 0.930 . S
H772 C715 0.930 . S
H773 C717 0.929 . S
H774 C718 0.930 . S
H775 C719 0.930 . S
H776 C722 0.930 . S
H777 C725 0.929 . S
H778 C730 0.929 . S
H779 C731 0.930 . S
H780 C738 0.929 . S
H781 C739 0.930 . S
H782 C740 0.930 . S
H783 C741 0.930 . S
H784 C743 0.929 . S
H785 C744 0.930 . S
H786 C745 0.930 . S
H787 C746 0.930 . S
H788 C750 0.929 . S
H789 C752 0.930 . S
H790 C758 0.929 . S
H791 C759 0.930 . S
Li792 N809 1.990 . S
Li792 O852 1.956 . S
Li792 O853 1.970 . S
Li792 O854 1.961 . S
Li793 N817 1.990 . S
Li793 O852 1.970 . S
Li793 O853 1.956 . S
Li793 O855 1.961 . S
Li794 N839 1.990 . S
Li794 O852 1.961 . S
Li794 O854 1.956 . S
Li794 O855 1.970 . S
Li795 N845 1.990 . S
Li795 O853 1.961 . S
Li795 O854 1.970 . S
Li795 O855 1.956 . S
C796 C798 1.348 . S
C796 C799 1.356 . S
C796 O852 1.325 . S
N797 C800 1.314 . S
N797 C801 1.279 . S
C798 C796 1.348 . S
C798 C800 1.353 . S
C798 H856 0.929 . S
C799 C796 1.356 . S
C799 C801 1.358 . S
C799 H857 0.930 . S
C800 N797 1.314 . S
C800 C798 1.353 . S
C800 H858 0.930 . S
C801 N797 1.279 . S
C801 C799 1.358 . S
C801 H859 0.930 . S
C802 C805 1.348 . S
C802 C806 1.356 . S
C802 O853 1.325 . S
C803 N804 1.279 . S
C803 C806 1.358 . S
C803 H860 0.930 . S
N804 C803 1.279 . S
N804 C807 1.314 . S
C805 C802 1.348 . S
C805 C807 1.353 . S
C805 H861 0.929 . S
C806 C802 1.356 . S
C806 C803 1.358 . S
C806 H862 0.930 . S
C807 N804 1.314 . S
C807 C805 1.353 . S
C807 H863 0.930 . S
C808 N809 1.314 . S
C808 C813 1.353 . S
C808 H814 0.930 . S
N809 Li792 1.990 . S
N809 C808 1.314 . S
N809 C811 1.279 . S
C810 C811 1.358 . S
C810 C812 1.356 . S
C810 H864 0.930 . S
C811 N809 1.279 . S
C811 C810 1.358 . S
C811 H815 0.930 . S
C812 C810 1.356 . S
C812 C813 1.348 . S
C813 C808 1.353 . S
C813 C812 1.348 . S
C813 H865 0.929 . S
H814 C808 0.930 . S
H815 C811 0.930 . S
C816 N817 1.314 . S
C816 C818 1.353 . S
C816 H822 0.930 . S
N817 Li793 1.990 . S
N817 C816 1.314 . S
N817 C820 1.279 . S
C818 C816 1.353 . S
C818 C821 1.348 . S
C818 H866 0.929 . S
C819 C820 1.358 . S
C819 C821 1.356 . S
C819 H867 0.930 . S
C820 N817 1.279 . S
C820 C819 1.358 . S
C820 H823 0.930 . S
C821 C818 1.348 . S
C821 C819 1.356 . S
H822 C816 0.930 . S
H823 C820 0.930 . S
C824 C826 1.348 . S
C824 C827 1.356 . S
C824 O854 1.325 . S
N825 C828 1.314 . S
N825 C829 1.279 . S
C826 C824 1.348 . S
C826 C828 1.353 . S
C826 H868 0.929 . S
C827 C824 1.356 . S
C827 C829 1.358 . S
C827 H869 0.930 . S
C828 N825 1.314 . S
C828 C826 1.353 . S
C828 H870 0.930 . S
C829 N825 1.279 . S
C829 C827 1.358 . S
C829 H871 0.930 . S
C830 C831 1.348 . S
C830 C832 1.356 . S
C830 O855 1.325 . S
C831 C830 1.348 . S
C831 C833 1.353 . S
C831 H872 0.929 . S
C832 C830 1.356 . S
C832 C834 1.358 . S
C832 H873 0.930 . S
C833 C831 1.353 . S
C833 N835 1.314 . S
C833 H874 0.930 . S
C834 C832 1.358 . S
C834 N835 1.279 . S
C834 H875 0.930 . S
N835 C833 1.314 . S
N835 C834 1.279 . S
C836 C838 1.353 . S
C836 N839 1.314 . S
C836 H842 0.930 . S
C837 N839 1.279 . S
C837 C840 1.358 . S
C837 H843 0.930 . S
C838 C836 1.353 . S
C838 C841 1.348 . S
C838 H876 0.929 . S
N839 Li794 1.990 . S
N839 C836 1.314 . S
N839 C837 1.279 . S
C840 C837 1.358 . S
C840 C841 1.356 . S
C840 H877 0.930 . S
C841 C838 1.348 . S
C841 C840 1.356 . S
H842 C836 0.930 . S
H843 C837 0.930 . S
C844 N845 1.314 . S
C844 C846 1.353 . S
C844 H850 0.930 . S
N845 Li795 1.990 . S
N845 C844 1.314 . S
N845 C848 1.279 . S
C846 C844 1.353 . S
C846 C849 1.348 . S
C846 H878 0.929 . S
C847 C848 1.358 . S
C847 C849 1.356 . S
C847 H879 0.930 . S
C848 N845 1.279 . S
C848 C847 1.358 . S
C848 H851 0.930 . S
C849 C846 1.348 . S
C849 C847 1.356 . S
H850 C844 0.930 . S
H851 C848 0.930 . S
O852 Li792 1.956 . S
O852 Li793 1.970 . S
O852 Li794 1.961 . S
O852 C796 1.325 . S
O853 Li792 1.970 . S
O853 Li793 1.956 . S
O853 Li795 1.961 . S
O853 C802 1.325 . S
O854 Li792 1.961 . S
O854 Li794 1.956 . S
O854 Li795 1.970 . S
O854 C824 1.325 . S
O855 Li793 1.961 . S
O855 Li794 1.970 . S
O855 Li795 1.956 . S
O855 C830 1.325 . S
H856 C798 0.929 . S
H857 C799 0.930 . S
H858 C800 0.930 . S
H859 C801 0.930 . S
H860 C803 0.930 . S
H861 C805 0.929 . S
H862 C806 0.930 . S
H863 C807 0.930 . S
H864 C810 0.930 . S
H865 C813 0.929 . S
H866 C818 0.929 . S
H867 C819 0.930 . S
H868 C826 0.929 . S
H869 C827 0.930 . S
H870 C828 0.930 . S
H871 C829 0.930 . S
H872 C831 0.929 . S
H873 C832 0.930 . S
H874 C833 0.930 . S
H875 C834 0.930 . S
H876 C838 0.929 . S
H877 C840 0.930 . S
H878 C846 0.929 . S
H879 C847 0.930 . S
Li880 N897 1.990 . S
Li880 O940 1.956 . S
Li880 O941 1.970 . S
Li880 O942 1.961 . S
Li881 N905 1.990 . S
Li881 O940 1.970 . S
Li881 O941 1.956 . S
Li881 O943 1.961 . S
Li882 N927 1.990 . S
Li882 O940 1.961 . S
Li882 O942 1.956 . S
Li882 O943 1.970 . S
Li883 N933 1.990 . S
Li883 O941 1.961 . S
Li883 O942 1.970 . S
Li883 O943 1.956 . S
C884 C886 1.348 . S
C884 C887 1.356 . S
C884 O940 1.325 . S
N885 C888 1.314 . S
N885 C889 1.279 . S
C886 C884 1.348 . S
C886 C888 1.353 . S
C886 H944 0.929 . S
C887 C884 1.356 . S
C887 C889 1.358 . S
C887 H945 0.930 . S
C888 N885 1.314 . S
C888 C886 1.353 . S
C888 H946 0.930 . S
C889 N885 1.279 . S
C889 C887 1.358 . S
C889 H947 0.930 . S
C890 C893 1.348 . S
C890 C894 1.356 . S
C890 O941 1.325 . S
C891 N892 1.279 . S
C891 C894 1.358 . S
C891 H948 0.930 . S
N892 C891 1.279 . S
N892 C895 1.314 . S
C893 C890 1.348 . S
C893 C895 1.353 . S
C893 H949 0.929 . S
C894 C890 1.356 . S
C894 C891 1.358 . S
C894 H950 0.930 . S
C895 N892 1.314 . S
C895 C893 1.353 . S
C895 H951 0.930 . S
C896 N897 1.314 . S
C896 C901 1.353 . S
C896 H902 0.930 . S
N897 Li880 1.990 . S
N897 C896 1.314 . S
N897 C899 1.279 . S
C898 C899 1.358 . S
C898 C900 1.356 . S
C898 H952 0.930 . S
C899 N897 1.279 . S
C899 C898 1.358 . S
C899 H903 0.930 . S
C900 C898 1.356 . S
C900 C901 1.348 . S
C901 C896 1.353 . S
C901 C900 1.348 . S
C901 H953 0.929 . S
H902 C896 0.930 . S
H903 C899 0.930 . S
C904 N905 1.314 . S
C904 C906 1.353 . S
C904 H910 0.930 . S
N905 Li881 1.990 . S
N905 C904 1.314 . S
N905 C908 1.279 . S
C906 C904 1.353 . S
C906 C909 1.348 . S
C906 H954 0.929 . S
C907 C908 1.358 . S
C907 C909 1.356 . S
C907 H955 0.930 . S
C908 N905 1.279 . S
C908 C907 1.358 . S
C908 H911 0.930 . S
C909 C906 1.348 . S
C909 C907 1.356 . S
H910 C904 0.930 . S
H911 C908 0.930 . S
C912 C914 1.348 . S
C912 C915 1.356 . S
C912 O942 1.325 . S
N913 C916 1.314 . S
N913 C917 1.279 . S
C914 C912 1.348 . S
C914 C916 1.353 . S
C914 H956 0.929 . S
C915 C912 1.356 . S
C915 C917 1.358 . S
C915 H957 0.930 . S
C916 N913 1.314 . S
C916 C914 1.353 . S
C916 H958 0.930 . S
C917 N913 1.279 . S
C917 C915 1.358 . S
C917 H959 0.930 . S
C918 C919 1.348 . S
C918 C920 1.356 . S
C918 O943 1.325 . S
C919 C918 1.348 . S
C919 C921 1.353 . S
C919 H960 0.929 . S
C920 C918 1.356 . S
C920 C922 1.358 . S
C920 H961 0.930 . S
C921 C919 1.353 . S
C921 N923 1.314 . S
C921 H962 0.930 . S
C922 C920 1.358 . S
C922 N923 1.279 . S
C922 H963 0.930 . S
N923 C921 1.314 . S
N923 C922 1.279 . S
C924 C926 1.353 . S
C924 N927 1.314 . S
C924 H930 0.930 . S
C925 N927 1.279 . S
C925 C928 1.358 . S
C925 H931 0.930 . S
C926 C924 1.353 . S
C926 C929 1.348 . S
C926 H964 0.929 . S
N927 Li882 1.990 . S
N927 C924 1.314 . S
N927 C925 1.279 . S
C928 C925 1.358 . S
C928 C929 1.356 . S
C928 H965 0.930 . S
C929 C926 1.348 . S
C929 C928 1.356 . S
H930 C924 0.930 . S
H931 C925 0.930 . S
C932 N933 1.314 . S
C932 C934 1.353 . S
C932 H938 0.930 . S
N933 Li883 1.990 . S
N933 C932 1.314 . S
N933 C936 1.279 . S
C934 C932 1.353 . S
C934 C937 1.348 . S
C934 H966 0.929 . S
C935 C936 1.358 . S
C935 C937 1.356 . S
C935 H967 0.930 . S
C936 N933 1.279 . S
C936 C935 1.358 . S
C936 H939 0.930 . S
C937 C934 1.348 . S
C937 C935 1.356 . S
H938 C932 0.930 . S
H939 C936 0.930 . S
O940 Li880 1.956 . S
O940 Li881 1.970 . S
O940 Li882 1.961 . S
O940 C884 1.325 . S
O941 Li880 1.970 . S
O941 Li881 1.956 . S
O941 Li883 1.961 . S
O941 C890 1.325 . S
O942 Li880 1.961 . S
O942 Li882 1.956 . S
O942 Li883 1.970 . S
O942 C912 1.325 . S
O943 Li881 1.961 . S
O943 Li882 1.970 . S
O943 Li883 1.956 . S
O943 C918 1.325 . S
H944 C886 0.929 . S
H945 C887 0.930 . S
H946 C888 0.930 . S
H947 C889 0.930 . S
H948 C891 0.930 . S
H949 C893 0.929 . S
H950 C894 0.930 . S
H951 C895 0.930 . S
H952 C898 0.930 . S
H953 C901 0.929 . S
H954 C906 0.929 . S
H955 C907 0.930 . S
H956 C914 0.929 . S
H957 C915 0.930 . S
H958 C916 0.930 . S
H959 C917 0.930 . S
H960 C919 0.929 . S
H961 C920 0.930 . S
H962 C921 0.930 . S
H963 C922 0.930 . S
H964 C926 0.929 . S
H965 C928 0.930 . S
H966 C934 0.929 . S
H967 C935 0.930 . S
Li968 N985 1.990 . S
Li968 O1028 1.956 . S
Li968 O1029 1.970 . S
Li968 O1030 1.961 . S
Li969 N993 1.990 . S
Li969 O1028 1.970 . S
Li969 O1029 1.956 . S
Li969 O1031 1.961 . S
Li970 N1015 1.990 . S
Li970 O1028 1.961 . S
Li970 O1030 1.956 . S
Li970 O1031 1.970 . S
Li971 N1021 1.990 . S
Li971 O1029 1.961 . S
Li971 O1030 1.970 . S
Li971 O1031 1.956 . S
C972 C974 1.348 . S
C972 C975 1.356 . S
C972 O1028 1.325 . S
N973 C976 1.314 . S
N973 C977 1.279 . S
C974 C972 1.348 . S
C974 C976 1.353 . S
C974 H1032 0.929 . S
C975 C972 1.356 . S
C975 C977 1.358 . S
C975 H1033 0.930 . S
C976 N973 1.314 . S
C976 C974 1.353 . S
C976 H1034 0.930 . S
C977 N973 1.279 . S
C977 C975 1.358 . S
C977 H1035 0.930 . S
C978 C981 1.348 . S
C978 C982 1.356 . S
C978 O1029 1.325 . S
C979 N980 1.279 . S
C979 C982 1.358 . S
C979 H1036 0.930 . S
N980 C979 1.279 . S
N980 C983 1.314 . S
C981 C978 1.348 . S
C981 C983 1.353 . S
C981 H1037 0.929 . S
C982 C978 1.356 . S
C982 C979 1.358 . S
C982 H1038 0.930 . S
C983 N980 1.314 . S
C983 C981 1.353 . S
C983 H1039 0.930 . S
C984 N985 1.314 . S
C984 C989 1.353 . S
C984 H990 0.930 . S
N985 Li968 1.990 . S
N985 C984 1.314 . S
N985 C987 1.279 . S
C986 C987 1.358 . S
C986 C988 1.356 . S
C986 H1040 0.930 . S
C987 N985 1.279 . S
C987 C986 1.358 . S
C987 H991 0.930 . S
C988 C986 1.356 . S
C988 C989 1.348 . S
C989 C984 1.353 . S
C989 C988 1.348 . S
C989 H1041 0.929 . S
H990 C984 0.930 . S
H991 C987 0.930 . S
C992 N993 1.314 . S
C992 C994 1.353 . S
C992 H998 0.930 . S
N993 Li969 1.990 . S
N993 C992 1.314 . S
N993 C996 1.279 . S
C994 C992 1.353 . S
C994 C997 1.348 . S
C994 H1042 0.929 . S
C995 C996 1.358 . S
C995 C997 1.356 . S
C995 H1043 0.930 . S
C996 N993 1.279 . S
C996 C995 1.358 . S
C996 H999 0.930 . S
C997 C994 1.348 . S
C997 C995 1.356 . S
H998 C992 0.930 . S
H999 C996 0.930 . S
C1000 C1002 1.348 . S
C1000 C1003 1.356 . S
C1000 O1030 1.325 . S
N1001 C1004 1.314 . S
N1001 C1005 1.279 . S
C1002 C1000 1.348 . S
C1002 C1004 1.353 . S
C1002 H1044 0.929 . S
C1003 C1000 1.356 . S
C1003 C1005 1.358 . S
C1003 H1045 0.930 . S
C1004 N1001 1.314 . S
C1004 C1002 1.353 . S
C1004 H1046 0.930 . S
C1005 N1001 1.279 . S
C1005 C1003 1.358 . S
C1005 H1047 0.930 . S
C1006 C1007 1.348 . S
C1006 C1008 1.356 . S
C1006 O1031 1.325 . S
C1007 C1006 1.348 . S
C1007 C1009 1.353 . S
C1007 H1048 0.929 . S
C1008 C1006 1.356 . S
C1008 C1010 1.358 . S
C1008 H1049 0.930 . S
C1009 C1007 1.353 . S
C1009 N1011 1.314 . S
C1009 H1050 0.930 . S
C1010 C1008 1.358 . S
C1010 N1011 1.279 . S
C1010 H1051 0.930 . S
N1011 C1009 1.314 . S
N1011 C1010 1.279 . S
C1012 C1014 1.353 . S
C1012 N1015 1.314 . S
C1012 H1018 0.930 . S
C1013 N1015 1.279 . S
C1013 C1016 1.358 . S
C1013 H1019 0.930 . S
C1014 C1012 1.353 . S
C1014 C1017 1.348 . S
C1014 H1052 0.929 . S
N1015 Li970 1.990 . S
N1015 C1012 1.314 . S
N1015 C1013 1.279 . S
C1016 C1013 1.358 . S
C1016 C1017 1.356 . S
C1016 H1053 0.930 . S
C1017 C1014 1.348 . S
C1017 C1016 1.356 . S
H1018 C1012 0.930 . S
H1019 C1013 0.930 . S
C1020 N1021 1.314 . S
C1020 C1022 1.353 . S
C1020 H1026 0.930 . S
N1021 Li971 1.990 . S
N1021 C1020 1.314 . S
N1021 C1024 1.279 . S
C1022 C1020 1.353 . S
C1022 C1025 1.348 . S
C1022 H1054 0.929 . S
C1023 C1024 1.358 . S
C1023 C1025 1.356 . S
C1023 H1055 0.930 . S
C1024 N1021 1.279 . S
C1024 C1023 1.358 . S
C1024 H1027 0.930 . S
C1025 C1022 1.348 . S
C1025 C1023 1.356 . S
H1026 C1020 0.930 . S
H1027 C1024 0.930 . S
O1028 Li968 1.956 . S
O1028 Li969 1.970 . S
O1028 Li970 1.961 . S
O1028 C972 1.325 . S
O1029 Li968 1.970 . S
O1029 Li969 1.956 . S
O1029 Li971 1.961 . S
O1029 C978 1.325 . S
O1030 Li968 1.961 . S
O1030 Li970 1.956 . S
O1030 Li971 1.970 . S
O1030 C1000 1.325 . S
O1031 Li969 1.961 . S
O1031 Li970 1.970 . S
O1031 Li971 1.956 . S
O1031 C1006 1.325 . S
H1032 C974 0.929 . S
H1033 C975 0.930 . S
H1034 C976 0.930 . S
H1035 C977 0.930 . S
H1036 C979 0.930 . S
H1037 C981 0.929 . S
H1038 C982 0.930 . S
H1039 C983 0.930 . S
H1040 C986 0.930 . S
H1041 C989 0.929 . S
H1042 C994 0.929 . S
H1043 C995 0.930 . S
H1044 C1002 0.929 . S
H1045 C1003 0.930 . S
H1046 C1004 0.930 . S
H1047 C1005 0.930 . S
H1048 C1007 0.929 . S
H1049 C1008 0.930 . S
H1050 C1009 0.930 . S
H1051 C1010 0.930 . S
H1052 C1014 0.929 . S
H1053 C1016 0.930 . S
H1054 C1022 0.929 . S
H1055 C1023 0.930 . S
Li1056 N1073 1.990 . S
Li1056 O1116 1.956 . S
Li1056 O1117 1.970 . S
Li1056 O1118 1.961 . S
Li1057 N1081 1.990 . S
Li1057 O1116 1.970 . S
Li1057 O1117 1.956 . S
Li1057 O1119 1.961 . S
Li1058 N1103 1.990 . S
Li1058 O1116 1.961 . S
Li1058 O1118 1.956 . S
Li1058 O1119 1.970 . S
Li1059 N1109 1.990 . S
Li1059 O1117 1.961 . S
Li1059 O1118 1.970 . S
Li1059 O1119 1.956 . S
C1060 C1062 1.348 . S
C1060 C1063 1.356 . S
C1060 O1116 1.325 . S
N1061 C1064 1.314 . S
N1061 C1065 1.279 . S
C1062 C1060 1.348 . S
C1062 C1064 1.353 . S
C1062 H1120 0.929 . S
C1063 C1060 1.356 . S
C1063 C1065 1.358 . S
C1063 H1121 0.930 . S
C1064 N1061 1.314 . S
C1064 C1062 1.353 . S
C1064 H1122 0.930 . S
C1065 N1061 1.279 . S
C1065 C1063 1.358 . S
C1065 H1123 0.930 . S
C1066 C1069 1.348 . S
C1066 C1070 1.356 . S
C1066 O1117 1.325 . S
C1067 N1068 1.279 . S
C1067 C1070 1.358 . S
C1067 H1124 0.930 . S
N1068 C1067 1.279 . S
N1068 C1071 1.314 . S
C1069 C1066 1.348 . S
C1069 C1071 1.353 . S
C1069 H1125 0.929 . S
C1070 C1066 1.356 . S
C1070 C1067 1.358 . S
C1070 H1126 0.930 . S
C1071 N1068 1.314 . S
C1071 C1069 1.353 . S
C1071 H1127 0.930 . S
C1072 N1073 1.314 . S
C1072 C1077 1.353 . S
C1072 H1078 0.930 . S
N1073 Li1056 1.990 . S
N1073 C1072 1.314 . S
N1073 C1075 1.279 . S
C1074 C1075 1.358 . S
C1074 C1076 1.356 . S
C1074 H1128 0.930 . S
C1075 N1073 1.279 . S
C1075 C1074 1.358 . S
C1075 H1079 0.930 . S
C1076 C1074 1.356 . S
C1076 C1077 1.348 . S
C1077 C1072 1.353 . S
C1077 C1076 1.348 . S
C1077 H1129 0.929 . S
H1078 C1072 0.930 . S
H1079 C1075 0.930 . S
C1080 N1081 1.314 . S
C1080 C1082 1.353 . S
C1080 H1086 0.930 . S
N1081 Li1057 1.990 . S
N1081 C1080 1.314 . S
N1081 C1084 1.279 . S
C1082 C1080 1.353 . S
C1082 C1085 1.348 . S
C1082 H1130 0.929 . S
C1083 C1084 1.358 . S
C1083 C1085 1.356 . S
C1083 H1131 0.930 . S
C1084 N1081 1.279 . S
C1084 C1083 1.358 . S
C1084 H1087 0.930 . S
C1085 C1082 1.348 . S
C1085 C1083 1.356 . S
H1086 C1080 0.930 . S
H1087 C1084 0.930 . S
C1088 C1090 1.348 . S
C1088 C1091 1.356 . S
C1088 O1118 1.325 . S
N1089 C1092 1.314 . S
N1089 C1093 1.279 . S
C1090 C1088 1.348 . S
C1090 C1092 1.353 . S
C1090 H1132 0.929 . S
C1091 C1088 1.356 . S
C1091 C1093 1.358 . S
C1091 H1133 0.930 . S
C1092 N1089 1.314 . S
C1092 C1090 1.353 . S
C1092 H1134 0.930 . S
C1093 N1089 1.279 . S
C1093 C1091 1.358 . S
C1093 H1135 0.930 . S
C1094 C1095 1.348 . S
C1094 C1096 1.356 . S
C1094 O1119 1.325 . S
C1095 C1094 1.348 . S
C1095 C1097 1.353 . S
C1095 H1136 0.929 . S
C1096 C1094 1.356 . S
C1096 C1098 1.358 . S
C1096 H1137 0.930 . S
C1097 C1095 1.353 . S
C1097 N1099 1.314 . S
C1097 H1138 0.930 . S
C1098 C1096 1.358 . S
C1098 N1099 1.279 . S
C1098 H1139 0.930 . S
N1099 C1097 1.314 . S
N1099 C1098 1.279 . S
C1100 C1102 1.353 . S
C1100 N1103 1.314 . S
C1100 H1106 0.930 . S
C1101 N1103 1.279 . S
C1101 C1104 1.358 . S
C1101 H1107 0.930 . S
C1102 C1100 1.353 . S
C1102 C1105 1.348 . S
C1102 H1140 0.929 . S
N1103 Li1058 1.990 . S
N1103 C1100 1.314 . S
N1103 C1101 1.279 . S
C1104 C1101 1.358 . S
C1104 C1105 1.356 . S
C1104 H1141 0.930 . S
C1105 C1102 1.348 . S
C1105 C1104 1.356 . S
H1106 C1100 0.930 . S
H1107 C1101 0.930 . S
C1108 N1109 1.314 . S
C1108 C1110 1.353 . S
C1108 H1114 0.930 . S
N1109 Li1059 1.990 . S
N1109 C1108 1.314 . S
N1109 C1112 1.279 . S
C1110 C1108 1.353 . S
C1110 C1113 1.348 . S
C1110 H1142 0.929 . S
C1111 C1112 1.358 . S
C1111 C1113 1.356 . S
C1111 H1143 0.930 . S
C1112 N1109 1.279 . S
C1112 C1111 1.358 . S
C1112 H1115 0.930 . S
C1113 C1110 1.348 . S
C1113 C1111 1.356 . S
H1114 C1108 0.930 . S
H1115 C1112 0.930 . S
O1116 Li1056 1.956 . S
O1116 Li1057 1.970 . S
O1116 Li1058 1.961 . S
O1116 C1060 1.325 . S
O1117 Li1056 1.970 . S
O1117 Li1057 1.956 . S
O1117 Li1059 1.961 . S
O1117 C1066 1.325 . S
O1118 Li1056 1.961 . S
O1118 Li1058 1.956 . S
O1118 Li1059 1.970 . S
O1118 C1088 1.325 . S
O1119 Li1057 1.961 . S
O1119 Li1058 1.970 . S
O1119 Li1059 1.956 . S
O1119 C1094 1.325 . S
H1120 C1062 0.929 . S
H1121 C1063 0.930 . S
H1122 C1064 0.930 . S
H1123 C1065 0.930 . S
H1124 C1067 0.930 . S
H1125 C1069 0.929 . S
H1126 C1070 0.930 . S
H1127 C1071 0.930 . S
H1128 C1074 0.930 . S
H1129 C1077 0.929 . S
H1130 C1082 0.929 . S
H1131 C1083 0.930 . S
H1132 C1090 0.929 . S
H1133 C1091 0.930 . S
H1134 C1092 0.930 . S
H1135 C1093 0.930 . S
H1136 C1095 0.929 . S
H1137 C1096 0.930 . S
H1138 C1097 0.930 . S
H1139 C1098 0.930 . S
H1140 C1102 0.929 . S
H1141 C1104 0.930 . S
H1142 C1110 0.929 . S
H1143 C1111 0.930 . S
Li1144 N1161 1.990 . S
Li1144 O1204 1.956 . S
Li1144 O1205 1.970 . S
Li1144 O1206 1.961 . S
Li1145 N1169 1.990 . S
Li1145 O1204 1.970 . S
Li1145 O1205 1.956 . S
Li1145 O1207 1.961 . S
Li1146 N1191 1.990 . S
Li1146 O1204 1.961 . S
Li1146 O1206 1.956 . S
Li1146 O1207 1.970 . S
Li1147 N1197 1.990 . S
Li1147 O1205 1.961 . S
Li1147 O1206 1.970 . S
Li1147 O1207 1.956 . S
C1148 C1150 1.348 . S
C1148 C1151 1.356 . S
C1148 O1204 1.325 . S
N1149 C1152 1.314 . S
N1149 C1153 1.279 . S
C1150 C1148 1.348 . S
C1150 C1152 1.353 . S
C1150 H1208 0.929 . S
C1151 C1148 1.356 . S
C1151 C1153 1.358 . S
C1151 H1209 0.930 . S
C1152 N1149 1.314 . S
C1152 C1150 1.353 . S
C1152 H1210 0.930 . S
C1153 N1149 1.279 . S
C1153 C1151 1.358 . S
C1153 H1211 0.930 . S
C1154 C1157 1.348 . S
C1154 C1158 1.356 . S
C1154 O1205 1.325 . S
C1155 N1156 1.279 . S
C1155 C1158 1.358 . S
C1155 H1212 0.930 . S
N1156 C1155 1.279 . S
N1156 C1159 1.314 . S
C1157 C1154 1.348 . S
C1157 C1159 1.353 . S
C1157 H1213 0.929 . S
C1158 C1154 1.356 . S
C1158 C1155 1.358 . S
C1158 H1214 0.930 . S
C1159 N1156 1.314 . S
C1159 C1157 1.353 . S
C1159 H1215 0.930 . S
C1160 N1161 1.314 . S
C1160 C1165 1.353 . S
C1160 H1166 0.930 . S
N1161 Li1144 1.990 . S
N1161 C1160 1.314 . S
N1161 C1163 1.279 . S
C1162 C1163 1.358 . S
C1162 C1164 1.356 . S
C1162 H1216 0.930 . S
C1163 N1161 1.279 . S
C1163 C1162 1.358 . S
C1163 H1167 0.930 . S
C1164 C1162 1.356 . S
C1164 C1165 1.348 . S
C1165 C1160 1.353 . S
C1165 C1164 1.348 . S
C1165 H1217 0.929 . S
H1166 C1160 0.930 . S
H1167 C1163 0.930 . S
C1168 N1169 1.314 . S
C1168 C1170 1.353 . S
C1168 H1174 0.930 . S
N1169 Li1145 1.990 . S
N1169 C1168 1.314 . S
N1169 C1172 1.279 . S
C1170 C1168 1.353 . S
C1170 C1173 1.348 . S
C1170 H1218 0.929 . S
C1171 C1172 1.358 . S
C1171 C1173 1.356 . S
C1171 H1219 0.930 . S
C1172 N1169 1.279 . S
C1172 C1171 1.358 . S
C1172 H1175 0.930 . S
C1173 C1170 1.348 . S
C1173 C1171 1.356 . S
H1174 C1168 0.930 . S
H1175 C1172 0.930 . S
C1176 C1178 1.348 . S
C1176 C1179 1.356 . S
C1176 O1206 1.325 . S
N1177 C1180 1.314 . S
N1177 C1181 1.279 . S
C1178 C1176 1.348 . S
C1178 C1180 1.353 . S
C1178 H1220 0.929 . S
C1179 C1176 1.356 . S
C1179 C1181 1.358 . S
C1179 H1221 0.930 . S
C1180 N1177 1.314 . S
C1180 C1178 1.353 . S
C1180 H1222 0.930 . S
C1181 N1177 1.279 . S
C1181 C1179 1.358 . S
C1181 H1223 0.930 . S
C1182 C1183 1.348 . S
C1182 C1184 1.356 . S
C1182 O1207 1.325 . S
C1183 C1182 1.348 . S
C1183 C1185 1.353 . S
C1183 H1224 0.929 . S
C1184 C1182 1.356 . S
C1184 C1186 1.358 . S
C1184 H1225 0.930 . S
C1185 C1183 1.353 . S
C1185 N1187 1.314 . S
C1185 H1226 0.930 . S
C1186 C1184 1.358 . S
C1186 N1187 1.279 . S
C1186 H1227 0.930 . S
N1187 C1185 1.314 . S
N1187 C1186 1.279 . S
C1188 C1190 1.353 . S
C1188 N1191 1.314 . S
C1188 H1194 0.930 . S
C1189 N1191 1.279 . S
C1189 C1192 1.358 . S
C1189 H1195 0.930 . S
C1190 C1188 1.353 . S
C1190 C1193 1.348 . S
C1190 H1228 0.929 . S
N1191 Li1146 1.990 . S
N1191 C1188 1.314 . S
N1191 C1189 1.279 . S
C1192 C1189 1.358 . S
C1192 C1193 1.356 . S
C1192 H1229 0.930 . S
C1193 C1190 1.348 . S
C1193 C1192 1.356 . S
H1194 C1188 0.930 . S
H1195 C1189 0.930 . S
C1196 N1197 1.314 . S
C1196 C1198 1.353 . S
C1196 H1202 0.930 . S
N1197 Li1147 1.990 . S
N1197 C1196 1.314 . S
N1197 C1200 1.279 . S
C1198 C1196 1.353 . S
C1198 C1201 1.348 . S
C1198 H1230 0.929 . S
C1199 C1200 1.358 . S
C1199 C1201 1.356 . S
C1199 H1231 0.930 . S
C1200 N1197 1.279 . S
C1200 C1199 1.358 . S
C1200 H1203 0.930 . S
C1201 C1198 1.348 . S
C1201 C1199 1.356 . S
H1202 C1196 0.930 . S
H1203 C1200 0.930 . S
O1204 Li1144 1.956 . S
O1204 Li1145 1.970 . S
O1204 Li1146 1.961 . S
O1204 C1148 1.325 . S
O1205 Li1144 1.970 . S
O1205 Li1145 1.956 . S
O1205 Li1147 1.961 . S
O1205 C1154 1.325 . S
O1206 Li1144 1.961 . S
O1206 Li1146 1.956 . S
O1206 Li1147 1.970 . S
O1206 C1176 1.325 . S
O1207 Li1145 1.961 . S
O1207 Li1146 1.970 . S
O1207 Li1147 1.956 . S
O1207 C1182 1.325 . S
H1208 C1150 0.929 . S
H1209 C1151 0.930 . S
H1210 C1152 0.930 . S
H1211 C1153 0.930 . S
H1212 C1155 0.930 . S
H1213 C1157 0.929 . S
H1214 C1158 0.930 . S
H1215 C1159 0.930 . S
H1216 C1162 0.930 . S
H1217 C1165 0.929 . S
H1218 C1170 0.929 . S
H1219 C1171 0.930 . S
H1220 C1178 0.929 . S
H1221 C1179 0.930 . S
H1222 C1180 0.930 . S
H1223 C1181 0.930 . S
H1224 C1183 0.929 . S
H1225 C1184 0.930 . S
H1226 C1185 0.930 . S
H1227 C1186 0.930 . S
H1228 C1190 0.929 . S
H1229 C1192 0.930 . S
H1230 C1198 0.929 . S
H1231 C1199 0.930 . S
Li1232 N1249 1.990 . S
Li1232 O1292 1.956 . S
Li1232 O1293 1.970 . S
Li1232 O1294 1.961 . S
Li1233 N1257 1.990 . S
Li1233 O1292 1.970 . S
Li1233 O1293 1.956 . S
Li1233 O1295 1.961 . S
Li1234 N1279 1.990 . S
Li1234 O1292 1.961 . S
Li1234 O1294 1.956 . S
Li1234 O1295 1.970 . S
Li1235 N1285 1.990 . S
Li1235 O1293 1.961 . S
Li1235 O1294 1.970 . S
Li1235 O1295 1.956 . S
C1236 C1238 1.348 . S
C1236 C1239 1.356 . S
C1236 O1292 1.325 . S
N1237 C1240 1.314 . S
N1237 C1241 1.279 . S
C1238 C1236 1.348 . S
C1238 C1240 1.353 . S
C1238 H1296 0.929 . S
C1239 C1236 1.356 . S
C1239 C1241 1.358 . S
C1239 H1297 0.930 . S
C1240 N1237 1.314 . S
C1240 C1238 1.353 . S
C1240 H1298 0.930 . S
C1241 N1237 1.279 . S
C1241 C1239 1.358 . S
C1241 H1299 0.930 . S
C1242 C1245 1.348 . S
C1242 C1246 1.356 . S
C1242 O1293 1.325 . S
C1243 N1244 1.279 . S
C1243 C1246 1.358 . S
C1243 H1300 0.930 . S
N1244 C1243 1.279 . S
N1244 C1247 1.314 . S
C1245 C1242 1.348 . S
C1245 C1247 1.353 . S
C1245 H1301 0.929 . S
C1246 C1242 1.356 . S
C1246 C1243 1.358 . S
C1246 H1302 0.930 . S
C1247 N1244 1.314 . S
C1247 C1245 1.353 . S
C1247 H1303 0.930 . S
C1248 N1249 1.314 . S
C1248 C1253 1.353 . S
C1248 H1254 0.930 . S
N1249 Li1232 1.990 . S
N1249 C1248 1.314 . S
N1249 C1251 1.279 . S
C1250 C1251 1.358 . S
C1250 C1252 1.356 . S
C1250 H1304 0.930 . S
C1251 N1249 1.279 . S
C1251 C1250 1.358 . S
C1251 H1255 0.930 . S
C1252 C1250 1.356 . S
C1252 C1253 1.348 . S
C1253 C1248 1.353 . S
C1253 C1252 1.348 . S
C1253 H1305 0.929 . S
H1254 C1248 0.930 . S
H1255 C1251 0.930 . S
C1256 N1257 1.314 . S
C1256 C1258 1.353 . S
C1256 H1262 0.930 . S
N1257 Li1233 1.990 . S
N1257 C1256 1.314 . S
N1257 C1260 1.279 . S
C1258 C1256 1.353 . S
C1258 C1261 1.348 . S
C1258 H1306 0.929 . S
C1259 C1260 1.358 . S
C1259 C1261 1.356 . S
C1259 H1307 0.930 . S
C1260 N1257 1.279 . S
C1260 C1259 1.358 . S
C1260 H1263 0.930 . S
C1261 C1258 1.348 . S
C1261 C1259 1.356 . S
H1262 C1256 0.930 . S
H1263 C1260 0.930 . S
C1264 C1266 1.348 . S
C1264 C1267 1.356 . S
C1264 O1294 1.325 . S
N1265 C1268 1.314 . S
N1265 C1269 1.279 . S
C1266 C1264 1.348 . S
C1266 C1268 1.353 . S
C1266 H1308 0.929 . S
C1267 C1264 1.356 . S
C1267 C1269 1.358 . S
C1267 H1309 0.930 . S
C1268 N1265 1.314 . S
C1268 C1266 1.353 . S
C1268 H1310 0.930 . S
C1269 N1265 1.279 . S
C1269 C1267 1.358 . S
C1269 H1311 0.930 . S
C1270 C1271 1.348 . S
C1270 C1272 1.356 . S
C1270 O1295 1.325 . S
C1271 C1270 1.348 . S
C1271 C1273 1.353 . S
C1271 H1312 0.929 . S
C1272 C1270 1.356 . S
C1272 C1274 1.358 . S
C1272 H1313 0.930 . S
C1273 C1271 1.353 . S
C1273 N1275 1.314 . S
C1273 H1314 0.930 . S
C1274 C1272 1.358 . S
C1274 N1275 1.279 . S
C1274 H1315 0.930 . S
N1275 C1273 1.314 . S
N1275 C1274 1.279 . S
C1276 C1278 1.353 . S
C1276 N1279 1.314 . S
C1276 H1282 0.930 . S
C1277 N1279 1.279 . S
C1277 C1280 1.358 . S
C1277 H1283 0.930 . S
C1278 C1276 1.353 . S
C1278 C1281 1.348 . S
C1278 H1316 0.929 . S
N1279 Li1234 1.990 . S
N1279 C1276 1.314 . S
N1279 C1277 1.279 . S
C1280 C1277 1.358 . S
C1280 C1281 1.356 . S
C1280 H1317 0.930 . S
C1281 C1278 1.348 . S
C1281 C1280 1.356 . S
H1282 C1276 0.930 . S
H1283 C1277 0.930 . S
C1284 N1285 1.314 . S
C1284 C1286 1.353 . S
C1284 H1290 0.930 . S
N1285 Li1235 1.990 . S
N1285 C1284 1.314 . S
N1285 C1288 1.279 . S
C1286 C1284 1.353 . S
C1286 C1289 1.348 . S
C1286 H1318 0.929 . S
C1287 C1288 1.358 . S
C1287 C1289 1.356 . S
C1287 H1319 0.930 . S
C1288 N1285 1.279 . S
C1288 C1287 1.358 . S
C1288 H1291 0.930 . S
C1289 C1286 1.348 . S
C1289 C1287 1.356 . S
H1290 C1284 0.930 . S
H1291 C1288 0.930 . S
O1292 Li1232 1.956 . S
O1292 Li1233 1.970 . S
O1292 Li1234 1.961 . S
O1292 C1236 1.325 . S
O1293 Li1232 1.970 . S
O1293 Li1233 1.956 . S
O1293 Li1235 1.961 . S
O1293 C1242 1.325 . S
O1294 Li1232 1.961 . S
O1294 Li1234 1.956 . S
O1294 Li1235 1.970 . S
O1294 C1264 1.325 . S
O1295 Li1233 1.961 . S
O1295 Li1234 1.970 . S
O1295 Li1235 1.956 . S
O1295 C1270 1.325 . S
H1296 C1238 0.929 . S
H1297 C1239 0.930 . S
H1298 C1240 0.930 . S
H1299 C1241 0.930 . S
H1300 C1243 0.930 . S
H1301 C1245 0.929 . S
H1302 C1246 0.930 . S
H1303 C1247 0.930 . S
H1304 C1250 0.930 . S
H1305 C1253 0.929 . S
H1306 C1258 0.929 . S
H1307 C1259 0.930 . S
H1308 C1266 0.929 . S
H1309 C1267 0.930 . S
H1310 C1268 0.930 . S
H1311 C1269 0.930 . S
H1312 C1271 0.929 . S
H1313 C1272 0.930 . S
H1314 C1273 0.930 . S
H1315 C1274 0.930 . S
H1316 C1278 0.929 . S
H1317 C1280 0.930 . S
H1318 C1286 0.929 . S
H1319 C1287 0.930 . S
Li1320 N1337 1.990 . S
Li1320 O1380 1.956 . S
Li1320 O1381 1.970 . S
Li1320 O1382 1.961 . S
Li1321 N1345 1.990 . S
Li1321 O1380 1.970 . S
Li1321 O1381 1.956 . S
Li1321 O1383 1.961 . S
Li1322 N1367 1.990 . S
Li1322 O1380 1.961 . S
Li1322 O1382 1.956 . S
Li1322 O1383 1.970 . S
Li1323 N1373 1.990 . S
Li1323 O1381 1.961 . S
Li1323 O1382 1.970 . S
Li1323 O1383 1.956 . S
C1324 C1326 1.348 . S
C1324 C1327 1.356 . S
C1324 O1380 1.325 . S
N1325 C1328 1.314 . S
N1325 C1329 1.279 . S
C1326 C1324 1.348 . S
C1326 C1328 1.353 . S
C1326 H1384 0.929 . S
C1327 C1324 1.356 . S
C1327 C1329 1.358 . S
C1327 H1385 0.930 . S
C1328 N1325 1.314 . S
C1328 C1326 1.353 . S
C1328 H1386 0.930 . S
C1329 N1325 1.279 . S
C1329 C1327 1.358 . S
C1329 H1387 0.930 . S
C1330 C1333 1.348 . S
C1330 C1334 1.356 . S
C1330 O1381 1.325 . S
C1331 N1332 1.279 . S
C1331 C1334 1.358 . S
C1331 H1388 0.930 . S
N1332 C1331 1.279 . S
N1332 C1335 1.314 . S
C1333 C1330 1.348 . S
C1333 C1335 1.353 . S
C1333 H1389 0.929 . S
C1334 C1330 1.356 . S
C1334 C1331 1.358 . S
C1334 H1390 0.930 . S
C1335 N1332 1.314 . S
C1335 C1333 1.353 . S
C1335 H1391 0.930 . S
C1336 N1337 1.314 . S
C1336 C1341 1.353 . S
C1336 H1342 0.930 . S
N1337 Li1320 1.990 . S
N1337 C1336 1.314 . S
N1337 C1339 1.279 . S
C1338 C1339 1.358 . S
C1338 C1340 1.356 . S
C1338 H1392 0.930 . S
C1339 N1337 1.279 . S
C1339 C1338 1.358 . S
C1339 H1343 0.930 . S
C1340 C1338 1.356 . S
C1340 C1341 1.348 . S
C1341 C1336 1.353 . S
C1341 C1340 1.348 . S
C1341 H1393 0.929 . S
H1342 C1336 0.930 . S
H1343 C1339 0.930 . S
C1344 N1345 1.314 . S
C1344 C1346 1.353 . S
C1344 H1350 0.930 . S
N1345 Li1321 1.990 . S
N1345 C1344 1.314 . S
N1345 C1348 1.279 . S
C1346 C1344 1.353 . S
C1346 C1349 1.348 . S
C1346 H1394 0.929 . S
C1347 C1348 1.358 . S
C1347 C1349 1.356 . S
C1347 H1395 0.930 . S
C1348 N1345 1.279 . S
C1348 C1347 1.358 . S
C1348 H1351 0.930 . S
C1349 C1346 1.348 . S
C1349 C1347 1.356 . S
H1350 C1344 0.930 . S
H1351 C1348 0.930 . S
C1352 C1354 1.348 . S
C1352 C1355 1.356 . S
C1352 O1382 1.325 . S
N1353 C1356 1.314 . S
N1353 C1357 1.279 . S
C1354 C1352 1.348 . S
C1354 C1356 1.353 . S
C1354 H1396 0.929 . S
C1355 C1352 1.356 . S
C1355 C1357 1.358 . S
C1355 H1397 0.930 . S
C1356 N1353 1.314 . S
C1356 C1354 1.353 . S
C1356 H1398 0.930 . S
C1357 N1353 1.279 . S
C1357 C1355 1.358 . S
C1357 H1399 0.930 . S
C1358 C1359 1.348 . S
C1358 C1360 1.356 . S
C1358 O1383 1.325 . S
C1359 C1358 1.348 . S
C1359 C1361 1.353 . S
C1359 H1400 0.929 . S
C1360 C1358 1.356 . S
C1360 C1362 1.358 . S
C1360 H1401 0.930 . S
C1361 C1359 1.353 . S
C1361 N1363 1.314 . S
C1361 H1402 0.930 . S
C1362 C1360 1.358 . S
C1362 N1363 1.279 . S
C1362 H1403 0.930 . S
N1363 C1361 1.314 . S
N1363 C1362 1.279 . S
C1364 C1366 1.353 . S
C1364 N1367 1.314 . S
C1364 H1370 0.930 . S
C1365 N1367 1.279 . S
C1365 C1368 1.358 . S
C1365 H1371 0.930 . S
C1366 C1364 1.353 . S
C1366 C1369 1.348 . S
C1366 H1404 0.929 . S
N1367 Li1322 1.990 . S
N1367 C1364 1.314 . S
N1367 C1365 1.279 . S
C1368 C1365 1.358 . S
C1368 C1369 1.356 . S
C1368 H1405 0.930 . S
C1369 C1366 1.348 . S
C1369 C1368 1.356 . S
H1370 C1364 0.930 . S
H1371 C1365 0.930 . S
C1372 N1373 1.314 . S
C1372 C1374 1.353 . S
C1372 H1378 0.930 . S
N1373 Li1323 1.990 . S
N1373 C1372 1.314 . S
N1373 C1376 1.279 . S
C1374 C1372 1.353 . S
C1374 C1377 1.348 . S
C1374 H1406 0.929 . S
C1375 C1376 1.358 . S
C1375 C1377 1.356 . S
C1375 H1407 0.930 . S
C1376 N1373 1.279 . S
C1376 C1375 1.358 . S
C1376 H1379 0.930 . S
C1377 C1374 1.348 . S
C1377 C1375 1.356 . S
H1378 C1372 0.930 . S
H1379 C1376 0.930 . S
O1380 Li1320 1.956 . S
O1380 Li1321 1.970 . S
O1380 Li1322 1.961 . S
O1380 C1324 1.325 . S
O1381 Li1320 1.970 . S
O1381 Li1321 1.956 . S
O1381 Li1323 1.961 . S
O1381 C1330 1.325 . S
O1382 Li1320 1.961 . S
O1382 Li1322 1.956 . S
O1382 Li1323 1.970 . S
O1382 C1352 1.325 . S
O1383 Li1321 1.961 . S
O1383 Li1322 1.970 . S
O1383 Li1323 1.956 . S
O1383 C1358 1.325 . S
H1384 C1326 0.929 . S
H1385 C1327 0.930 . S
H1386 C1328 0.930 . S
H1387 C1329 0.930 . S
H1388 C1331 0.930 . S
H1389 C1333 0.929 . S
H1390 C1334 0.930 . S
H1391 C1335 0.930 . S
H1392 C1338 0.930 . S
H1393 C1341 0.929 . S
H1394 C1346 0.929 . S
H1395 C1347 0.930 . S
H1396 C1354 0.929 . S
H1397 C1355 0.930 . S
H1398 C1356 0.930 . S
H1399 C1357 0.930 . S
H1400 C1359 0.929 . S
H1401 C1360 0.930 . S
H1402 C1361 0.930 . S
H1403 C1362 0.930 . S
H1404 C1366 0.929 . S
H1405 C1368 0.930 . S
H1406 C1374 0.929 . S
H1407 C1375 0.930 . S
Li1408 N1425 1.990 . S
Li1408 O1468 1.956 . S
Li1408 O1469 1.970 . S
Li1408 O1470 1.961 . S
Li1409 N1433 1.990 . S
Li1409 O1468 1.970 . S
Li1409 O1469 1.956 . S
Li1409 O1471 1.961 . S
Li1410 N1455 1.990 . S
Li1410 O1468 1.961 . S
Li1410 O1470 1.956 . S
Li1410 O1471 1.970 . S
Li1411 N1461 1.990 . S
Li1411 O1469 1.961 . S
Li1411 O1470 1.970 . S
Li1411 O1471 1.956 . S
C1412 C1414 1.348 . S
C1412 C1415 1.356 . S
C1412 O1468 1.325 . S
N1413 C1416 1.314 . S
N1413 C1417 1.279 . S
C1414 C1412 1.348 . S
C1414 C1416 1.353 . S
C1414 H1472 0.929 . S
C1415 C1412 1.356 . S
C1415 C1417 1.358 . S
C1415 H1473 0.930 . S
C1416 N1413 1.314 . S
C1416 C1414 1.353 . S
C1416 H1474 0.930 . S
C1417 N1413 1.279 . S
C1417 C1415 1.358 . S
C1417 H1475 0.930 . S
C1418 C1421 1.348 . S
C1418 C1422 1.356 . S
C1418 O1469 1.325 . S
C1419 N1420 1.279 . S
C1419 C1422 1.358 . S
C1419 H1476 0.930 . S
N1420 C1419 1.279 . S
N1420 C1423 1.314 . S
C1421 C1418 1.348 . S
C1421 C1423 1.353 . S
C1421 H1477 0.929 . S
C1422 C1418 1.356 . S
C1422 C1419 1.358 . S
C1422 H1478 0.930 . S
C1423 N1420 1.314 . S
C1423 C1421 1.353 . S
C1423 H1479 0.930 . S
C1424 N1425 1.314 . S
C1424 C1429 1.353 . S
C1424 H1430 0.930 . S
N1425 Li1408 1.990 . S
N1425 C1424 1.314 . S
N1425 C1427 1.279 . S
C1426 C1427 1.358 . S
C1426 C1428 1.356 . S
C1426 H1480 0.930 . S
C1427 N1425 1.279 . S
C1427 C1426 1.358 . S
C1427 H1431 0.930 . S
C1428 C1426 1.356 . S
C1428 C1429 1.348 . S
C1429 C1424 1.353 . S
C1429 C1428 1.348 . S
C1429 H1481 0.929 . S
H1430 C1424 0.930 . S
H1431 C1427 0.930 . S
C1432 N1433 1.314 . S
C1432 C1434 1.353 . S
C1432 H1438 0.930 . S
N1433 Li1409 1.990 . S
N1433 C1432 1.314 . S
N1433 C1436 1.279 . S
C1434 C1432 1.353 . S
C1434 C1437 1.348 . S
C1434 H1482 0.929 . S
C1435 C1436 1.358 . S
C1435 C1437 1.356 . S
C1435 H1483 0.930 . S
C1436 N1433 1.279 . S
C1436 C1435 1.358 . S
C1436 H1439 0.930 . S
C1437 C1434 1.348 . S
C1437 C1435 1.356 . S
H1438 C1432 0.930 . S
H1439 C1436 0.930 . S
C1440 C1442 1.348 . S
C1440 C1443 1.356 . S
C1440 O1470 1.325 . S
N1441 C1444 1.314 . S
N1441 C1445 1.279 . S
C1442 C1440 1.348 . S
C1442 C1444 1.353 . S
C1442 H1484 0.929 . S
C1443 C1440 1.356 . S
C1443 C1445 1.358 . S
C1443 H1485 0.930 . S
C1444 N1441 1.314 . S
C1444 C1442 1.353 . S
C1444 H1486 0.930 . S
C1445 N1441 1.279 . S
C1445 C1443 1.358 . S
C1445 H1487 0.930 . S
C1446 C1447 1.348 . S
C1446 C1448 1.356 . S
C1446 O1471 1.325 . S
C1447 C1446 1.348 . S
C1447 C1449 1.353 . S
C1447 H1488 0.929 . S
C1448 C1446 1.356 . S
C1448 C1450 1.358 . S
C1448 H1489 0.930 . S
C1449 C1447 1.353 . S
C1449 N1451 1.314 . S
C1449 H1490 0.930 . S
C1450 C1448 1.358 . S
C1450 N1451 1.279 . S
C1450 H1491 0.930 . S
N1451 C1449 1.314 . S
N1451 C1450 1.279 . S
C1452 C1454 1.353 . S
C1452 N1455 1.314 . S
C1452 H1458 0.930 . S
C1453 N1455 1.279 . S
C1453 C1456 1.358 . S
C1453 H1459 0.930 . S
C1454 C1452 1.353 . S
C1454 C1457 1.348 . S
C1454 H1492 0.929 . S
N1455 Li1410 1.990 . S
N1455 C1452 1.314 . S
N1455 C1453 1.279 . S
C1456 C1453 1.358 . S
C1456 C1457 1.356 . S
C1456 H1493 0.930 . S
C1457 C1454 1.348 . S
C1457 C1456 1.356 . S
H1458 C1452 0.930 . S
H1459 C1453 0.930 . S
C1460 N1461 1.314 . S
C1460 C1462 1.353 . S
C1460 H1466 0.930 . S
N1461 Li1411 1.990 . S
N1461 C1460 1.314 . S
N1461 C1464 1.279 . S
C1462 C1460 1.353 . S
C1462 C1465 1.348 . S
C1462 H1494 0.929 . S
C1463 C1464 1.358 . S
C1463 C1465 1.356 . S
C1463 H1495 0.930 . S
C1464 N1461 1.279 . S
C1464 C1463 1.358 . S
C1464 H1467 0.930 . S
C1465 C1462 1.348 . S
C1465 C1463 1.356 . S
H1466 C1460 0.930 . S
H1467 C1464 0.930 . S
O1468 Li1408 1.956 . S
O1468 Li1409 1.970 . S
O1468 Li1410 1.961 . S
O1468 C1412 1.325 . S
O1469 Li1408 1.970 . S
O1469 Li1409 1.956 . S
O1469 Li1411 1.961 . S
O1469 C1418 1.325 . S
O1470 Li1408 1.961 . S
O1470 Li1410 1.956 . S
O1470 Li1411 1.970 . S
O1470 C1440 1.325 . S
O1471 Li1409 1.961 . S
O1471 Li1410 1.970 . S
O1471 Li1411 1.956 . S
O1471 C1446 1.325 . S
H1472 C1414 0.929 . S
H1473 C1415 0.930 . S
H1474 C1416 0.930 . S
H1475 C1417 0.930 . S
H1476 C1419 0.930 . S
H1477 C1421 0.929 . S
H1478 C1422 0.930 . S
H1479 C1423 0.930 . S
H1480 C1426 0.930 . S
H1481 C1429 0.929 . S
H1482 C1434 0.929 . S
H1483 C1435 0.930 . S
H1484 C1442 0.929 . S
H1485 C1443 0.930 . S
H1486 C1444 0.930 . S
H1487 C1445 0.930 . S
H1488 C1447 0.929 . S
H1489 C1448 0.930 . S
H1490 C1449 0.930 . S
H1491 C1450 0.930 . S
H1492 C1454 0.929 . S
H1493 C1456 0.930 . S
H1494 C1462 0.929 . S
H1495 C1463 0.930 . S
Li1496 N1513 1.990 . S
Li1496 O1556 1.956 . S
Li1496 O1557 1.970 . S
Li1496 O1558 1.961 . S
Li1497 N1521 1.990 . S
Li1497 O1556 1.970 . S
Li1497 O1557 1.956 . S
Li1497 O1559 1.961 . S
Li1498 N1543 1.990 . S
Li1498 O1556 1.961 . S
Li1498 O1558 1.956 . S
Li1498 O1559 1.970 . S
Li1499 N1549 1.990 . S
Li1499 O1557 1.961 . S
Li1499 O1558 1.970 . S
Li1499 O1559 1.956 . S
C1500 C1502 1.348 . S
C1500 C1503 1.356 . S
C1500 O1556 1.325 . S
N1501 C1504 1.314 . S
N1501 C1505 1.279 . S
C1502 C1500 1.348 . S
C1502 C1504 1.353 . S
C1502 H1560 0.929 . S
C1503 C1500 1.356 . S
C1503 C1505 1.358 . S
C1503 H1561 0.930 . S
C1504 N1501 1.314 . S
C1504 C1502 1.353 . S
C1504 H1562 0.930 . S
C1505 N1501 1.279 . S
C1505 C1503 1.358 . S
C1505 H1563 0.930 . S
C1506 C1509 1.348 . S
C1506 C1510 1.356 . S
C1506 O1557 1.325 . S
C1507 N1508 1.279 . S
C1507 C1510 1.358 . S
C1507 H1564 0.930 . S
N1508 C1507 1.279 . S
N1508 C1511 1.314 . S
C1509 C1506 1.348 . S
C1509 C1511 1.353 . S
C1509 H1565 0.929 . S
C1510 C1506 1.356 . S
C1510 C1507 1.358 . S
C1510 H1566 0.930 . S
C1511 N1508 1.314 . S
C1511 C1509 1.353 . S
C1511 H1567 0.930 . S
C1512 N1513 1.314 . S
C1512 C1517 1.353 . S
C1512 H1518 0.930 . S
N1513 Li1496 1.990 . S
N1513 C1512 1.314 . S
N1513 C1515 1.279 . S
C1514 C1515 1.358 . S
C1514 C1516 1.356 . S
C1514 H1568 0.930 . S
C1515 N1513 1.279 . S
C1515 C1514 1.358 . S
C1515 H1519 0.930 . S
C1516 C1514 1.356 . S
C1516 C1517 1.348 . S
C1517 C1512 1.353 . S
C1517 C1516 1.348 . S
C1517 H1569 0.929 . S
H1518 C1512 0.930 . S
H1519 C1515 0.930 . S
C1520 N1521 1.314 . S
C1520 C1522 1.353 . S
C1520 H1526 0.930 . S
N1521 Li1497 1.990 . S
N1521 C1520 1.314 . S
N1521 C1524 1.279 . S
C1522 C1520 1.353 . S
C1522 C1525 1.348 . S
C1522 H1570 0.929 . S
C1523 C1524 1.358 . S
C1523 C1525 1.356 . S
C1523 H1571 0.930 . S
C1524 N1521 1.279 . S
C1524 C1523 1.358 . S
C1524 H1527 0.930 . S
C1525 C1522 1.348 . S
C1525 C1523 1.356 . S
H1526 C1520 0.930 . S
H1527 C1524 0.930 . S
C1528 C1530 1.348 . S
C1528 C1531 1.356 . S
C1528 O1558 1.325 . S
N1529 C1532 1.314 . S
N1529 C1533 1.279 . S
C1530 C1528 1.348 . S
C1530 C1532 1.353 . S
C1530 H1572 0.929 . S
C1531 C1528 1.356 . S
C1531 C1533 1.358 . S
C1531 H1573 0.930 . S
C1532 N1529 1.314 . S
C1532 C1530 1.353 . S
C1532 H1574 0.930 . S
C1533 N1529 1.279 . S
C1533 C1531 1.358 . S
C1533 H1575 0.930 . S
C1534 C1535 1.348 . S
C1534 C1536 1.356 . S
C1534 O1559 1.325 . S
C1535 C1534 1.348 . S
C1535 C1537 1.353 . S
C1535 H1576 0.929 . S
C1536 C1534 1.356 . S
C1536 C1538 1.358 . S
C1536 H1577 0.930 . S
C1537 C1535 1.353 . S
C1537 N1539 1.314 . S
C1537 H1578 0.930 . S
C1538 C1536 1.358 . S
C1538 N1539 1.279 . S
C1538 H1579 0.930 . S
N1539 C1537 1.314 . S
N1539 C1538 1.279 . S
C1540 C1542 1.353 . S
C1540 N1543 1.314 . S
C1540 H1546 0.930 . S
C1541 N1543 1.279 . S
C1541 C1544 1.358 . S
C1541 H1547 0.930 . S
C1542 C1540 1.353 . S
C1542 C1545 1.348 . S
C1542 H1580 0.929 . S
N1543 Li1498 1.990 . S
N1543 C1540 1.314 . S
N1543 C1541 1.279 . S
C1544 C1541 1.358 . S
C1544 C1545 1.356 . S
C1544 H1581 0.930 . S
C1545 C1542 1.348 . S
C1545 C1544 1.356 . S
H1546 C1540 0.930 . S
H1547 C1541 0.930 . S
C1548 N1549 1.314 . S
C1548 C1550 1.353 . S
C1548 H1554 0.930 . S
N1549 Li1499 1.990 . S
N1549 C1548 1.314 . S
N1549 C1552 1.279 . S
C1550 C1548 1.353 . S
C1550 C1553 1.348 . S
C1550 H1582 0.929 . S
C1551 C1552 1.358 . S
C1551 C1553 1.356 . S
C1551 H1583 0.930 . S
C1552 N1549 1.279 . S
C1552 C1551 1.358 . S
C1552 H1555 0.930 . S
C1553 C1550 1.348 . S
C1553 C1551 1.356 . S
H1554 C1548 0.930 . S
H1555 C1552 0.930 . S
O1556 Li1496 1.956 . S
O1556 Li1497 1.970 . S
O1556 Li1498 1.961 . S
O1556 C1500 1.325 . S
O1557 Li1496 1.970 . S
O1557 Li1497 1.956 . S
O1557 Li1499 1.961 . S
O1557 C1506 1.325 . S
O1558 Li1496 1.961 . S
O1558 Li1498 1.956 . S
O1558 Li1499 1.970 . S
O1558 C1528 1.325 . S
O1559 Li1497 1.961 . S
O1559 Li1498 1.970 . S
O1559 Li1499 1.956 . S
O1559 C1534 1.325 . S
H1560 C1502 0.929 . S
H1561 C1503 0.930 . S
H1562 C1504 0.930 . S
H1563 C1505 0.930 . S
H1564 C1507 0.930 . S
H1565 C1509 0.929 . S
H1566 C1510 0.930 . S
H1567 C1511 0.930 . S
H1568 C1514 0.930 . S
H1569 C1517 0.929 . S
H1570 C1522 0.929 . S
H1571 C1523 0.930 . S
H1572 C1530 0.929 . S
H1573 C1531 0.930 . S
H1574 C1532 0.930 . S
H1575 C1533 0.930 . S
H1576 C1535 0.929 . S
H1577 C1536 0.930 . S
H1578 C1537 0.930 . S
H1579 C1538 0.930 . S
H1580 C1542 0.929 . S
H1581 C1544 0.930 . S
H1582 C1550 0.929 . S
H1583 C1551 0.930 . S
C1584 C1585 1.387 . S
C1584 H1588 0.950 . S
C1584 C1593 1.390 . S
C1585 C1584 1.387 . S
C1585 C1587 1.387 . S
H1586 C1593 0.950 . S
C1587 C1585 1.387 . S
C1587 C1589 1.390 . S
C1587 H1591 0.950 . S
H1588 C1584 0.950 . S
C1589 C1587 1.390 . S
C1589 C1590 1.387 . S
C1589 H1592 0.950 . S
C1590 C1589 1.387 . S
C1590 C1593 1.387 . S
H1591 C1587 0.950 . S
H1592 C1589 0.950 . S
C1593 C1584 1.390 . S
C1593 H1586 0.950 . S
C1593 C1590 1.387 . S
C1594 C1595 1.387 . S
C1594 H1598 0.950 1_545 S
C1594 C1603 1.390 . S
C1595 C1594 1.387 . S
C1595 C1597 1.387 . S
H1596 C1603 0.950 . S
C1597 C1595 1.387 . S
C1597 C1599 1.390 . S
C1597 H1601 0.950 . S
H1598 C1594 0.950 1_565 S
C1599 C1597 1.390 . S
C1599 C1600 1.387 . S
C1599 H1602 0.950 . S
C1600 C1599 1.387 . S
C1600 C1603 1.387 . S
H1601 C1597 0.950 . S
H1602 C1599 0.950 . S
C1603 C1594 1.390 . S
C1603 H1596 0.950 . S
C1603 C1600 1.387 . S
C1604 C1605 1.387 . S
C1604 H1608 0.950 . S
C1604 C1613 1.390 . S
C1605 C1604 1.387 . S
C1605 C1607 1.387 . S
H1606 C1613 0.950 . S
C1607 C1605 1.387 . S
C1607 C1609 1.390 . S
C1607 H1611 0.950 . S
H1608 C1604 0.950 . S
C1609 C1607 1.390 . S
C1609 C1610 1.387 . S
C1609 H1612 0.950 . S
C1610 C1609 1.387 . S
C1610 C1613 1.387 . S
H1611 C1607 0.950 . S
H1612 C1609 0.950 . S
C1613 C1604 1.390 . S
C1613 H1606 0.950 . S
C1613 C1610 1.387 . S
C1614 C1615 1.387 . S
C1614 H1618 0.950 . S
C1614 C1623 1.390 . S
C1615 C1614 1.387 . S
C1615 C1617 1.387 . S
H1616 C1623 0.950 . S
C1617 C1615 1.387 . S
C1617 C1619 1.390 . S
C1617 H1621 0.950 . S
H1618 C1614 0.950 . S
C1619 C1617 1.390 . S
C1619 C1620 1.387 . S
C1619 H1622 0.950 . S
C1620 C1619 1.387 . S
C1620 C1623 1.387 . S
H1621 C1617 0.950 . S
H1622 C1619 0.950 . S
C1623 C1614 1.390 . S
C1623 H1616 0.950 . S
C1623 C1620 1.387 . S
C1624 C1625 1.387 . S
C1624 H1628 0.950 . S
C1624 C1633 1.390 . S
C1625 C1624 1.387 . S
C1625 C1627 1.387 . S
H1626 C1633 0.950 . S
C1627 C1625 1.387 . S
C1627 C1629 1.390 . S
C1627 H1631 0.950 . S
H1628 C1624 0.950 . S
C1629 C1627 1.390 . S
C1629 C1630 1.387 . S
C1629 H1632 0.950 . S
C1630 C1629 1.387 . S
C1630 C1633 1.387 . S
H1631 C1627 0.950 . S
H1632 C1629 0.950 . S
C1633 C1624 1.390 . S
C1633 H1626 0.950 . S
C1633 C1630 1.387 . S
C1634 C1635 1.387 . S
C1634 H1638 0.950 . S
C1634 C1643 1.390 . S
C1635 C1634 1.387 . S
C1635 C1637 1.387 . S
H1636 C1643 0.950 . S
C1637 C1635 1.387 . S
C1637 C1639 1.390 . S
C1637 H1641 0.950 . S
H1638 C1634 0.950 . S
C1639 C1637 1.390 . S
C1639 C1640 1.387 . S
C1639 H1642 0.950 . S
C1640 C1639 1.387 . S
C1640 C1643 1.387 . S
H1641 C1637 0.950 . S
H1642 C1639 0.950 . S
C1643 C1634 1.390 . S
C1643 H1636 0.950 . S
C1643 C1640 1.387 . S
C1644 C1645 1.387 . S
C1644 H1648 0.950 . S
C1644 C1653 1.390 . S
C1645 C1644 1.387 . S
C1645 C1647 1.387 . S
H1646 C1653 0.957 . S
C1647 C1645 1.387 . S
C1647 C1649 1.390 1_655 S
C1647 H1651 0.950 . S
H1648 C1644 0.950 . S
C1649 C1647 1.390 1_455 S
C1649 C1650 1.387 . S
C1649 H1652 0.950 . S
C1650 C1649 1.387 . S
C1650 C1653 1.387 1_455 S
H1651 C1647 0.950 . S
H1652 C1649 0.950 . S
C1653 C1644 1.390 . S
C1653 H1646 0.957 . S
C1653 C1650 1.387 1_655 S
C1654 C1655 1.387 . S
C1654 H1658 0.950 . S
C1654 C1663 1.390 . S
C1655 C1654 1.387 . S
C1655 C1657 1.387 . S
H1656 C1663 0.950 . S
C1657 C1655 1.387 . S
C1657 C1659 1.390 . S
C1657 H1661 0.950 . S
H1658 C1654 0.950 . S
C1659 C1657 1.390 . S
C1659 C1660 1.387 . S
C1659 H1662 0.950 . S
C1660 C1659 1.387 . S
C1660 C1663 1.387 . S
H1661 C1657 0.950 . S
H1662 C1659 0.950 . S
C1663 C1654 1.390 . S
C1663 H1656 0.950 . S
C1663 C1660 1.387 . S
C1664 C1665 1.387 . S
C1664 H1668 0.950 . S
C1664 C1673 1.390 1_545 S
C1665 C1664 1.387 . S
C1665 C1667 1.387 . S
H1666 C1673 0.950 . S
C1667 C1665 1.387 . S
C1667 C1669 1.390 1_545 S
C1667 H1671 0.950 . S
H1668 C1664 0.950 . S
C1669 C1667 1.390 1_565 S
C1669 C1670 1.387 . S
C1669 H1672 0.950 . S
C1670 C1669 1.387 . S
C1670 C1673 1.387 . S
H1671 C1667 0.950 . S
H1672 C1669 0.950 . S
C1673 C1664 1.390 1_565 S
C1673 H1666 0.950 . S
C1673 C1670 1.387 . S
C1674 C1675 1.387 . S
C1674 H1678 0.950 . S
C1674 C1683 1.390 1_455 S
C1675 C1674 1.387 . S
C1675 C1677 1.387 . S
H1676 C1683 0.950 . S
C1677 C1675 1.387 . S
C1677 C1679 1.390 1_455 S
C1677 H1681 0.950 . S
H1678 C1674 0.950 . S
C1679 C1677 1.390 1_655 S
C1679 C1680 1.387 . S
C1679 H1682 0.950 . S
C1680 C1679 1.387 . S
C1680 C1683 1.387 . S
H1681 C1677 0.950 . S
H1682 C1679 0.950 . S
C1683 C1674 1.390 1_655 S
C1683 H1676 0.950 . S
C1683 C1680 1.387 . S
C1684 C1685 1.387 . S
C1684 H1688 0.950 . S
C1684 C1693 1.390 . S
C1685 C1684 1.387 . S
C1685 C1687 1.387 . S
H1686 C1693 0.950 . S
C1687 C1685 1.387 . S
C1687 C1689 1.390 . S
C1687 H1691 0.950 . S
H1688 C1684 0.950 . S
C1689 C1687 1.390 . S
C1689 C1690 1.387 . S
C1689 H1692 0.950 . S
C1690 C1689 1.387 . S
C1690 C1693 1.387 . S
H1691 C1687 0.950 . S
H1692 C1689 0.950 . S
C1693 C1684 1.390 . S
C1693 H1686 0.950 . S
C1693 C1690 1.387 . S
C1694 C1695 1.364 1_565 S
C1694 H1698 0.947 . S
C1694 C1703 1.435 . S
C1695 C1694 1.364 1_545 S
C1695 C1697 1.387 . S
H1696 C1703 0.950 . S
C1697 C1695 1.387 . S
C1697 C1699 1.390 1_545 S
C1697 H1701 0.950 . S
H1698 C1694 0.947 . S
C1699 C1697 1.390 1_565 S
C1699 C1700 1.387 . S
C1699 H1702 0.950 . S
C1700 C1699 1.387 . S
C1700 C1703 1.387 . S
H1701 C1697 0.950 . S
H1702 C1699 0.950 . S
C1703 C1694 1.435 . S
C1703 H1696 0.950 . S
C1703 C1700 1.387 . S
C1704 C1705 1.387 . S
C1704 H1708 0.950 . S
C1704 C1713 1.390 1_565 S
C1705 C1704 1.387 . S
C1705 C1707 1.387 . S
H1706 C1713 0.950 . S
C1707 C1705 1.387 . S
C1707 C1709 1.390 1_565 S
C1707 H1711 0.950 . S
H1708 C1704 0.950 . S
C1709 C1707 1.390 1_545 S
C1709 C1710 1.387 . S
C1709 H1712 0.950 . S
C1710 C1709 1.387 . S
C1710 C1713 1.387 . S
H1711 C1707 0.950 . S
H1712 C1709 0.950 . S
C1713 C1704 1.390 1_545 S
C1713 H1706 0.950 . S
C1713 C1710 1.387 . S
C1714 C1715 1.367 1_655 S
C1714 H1718 0.945 . S
C1714 C1723 1.431 . S
C1715 C1714 1.367 1_455 S
C1715 C1717 1.387 . S
H1716 C1723 0.950 . S
C1717 C1715 1.387 . S
C1717 C1719 1.390 1_455 S
C1717 H1721 0.950 . S
H1718 C1714 0.945 . S
C1719 C1717 1.390 1_655 S
C1719 C1720 1.387 . S
C1719 H1722 0.950 . S
C1720 C1719 1.387 . S
C1720 C1723 1.387 . S
H1721 C1717 0.950 . S
H1722 C1719 0.950 . S
C1723 C1714 1.431 . S
C1723 H1716 0.950 . S
C1723 C1720 1.387 . S
C1724 C1725 1.387 . S
C1724 H1728 0.950 . S
C1724 C1733 1.390 . S
C1725 C1724 1.387 . S
C1725 C1727 1.387 . S
H1726 C1733 0.950 . S
C1727 C1725 1.387 . S
C1727 C1729 1.390 . S
C1727 H1731 0.950 . S
H1728 C1724 0.950 . S
C1729 C1727 1.390 . S
C1729 C1730 1.387 . S
C1729 H1732 0.950 . S
C1730 C1729 1.387 . S
C1730 C1733 1.387 . S
H1731 C1727 0.950 . S
H1732 C1729 0.950 . S
C1733 C1724 1.390 . S
C1733 H1726 0.950 . S
C1733 C1730 1.387 . S
C1734 C1735 1.387 . S
C1734 H1738 0.950 . S
C1734 C1743 1.390 . S
C1735 C1734 1.387 . S
C1735 C1737 1.387 . S
H1736 C1743 0.950 . S
C1737 C1735 1.387 . S
C1737 C1739 1.390 . S
C1737 H1741 0.950 . S
H1738 C1734 0.950 . S
C1739 C1737 1.390 . S
C1739 C1740 1.387 . S
C1739 H1742 0.950 . S
C1740 C1739 1.387 . S
C1740 C1743 1.387 . S
H1741 C1737 0.950 . S
H1742 C1739 0.950 . S
C1743 C1734 1.390 . S
C1743 H1736 0.950 . S
C1743 C1740 1.387 . S
C1744 C1745 1.387 . S
C1744 H1748 0.950 . S
C1744 C1753 1.390 . S
C1745 C1744 1.387 . S
C1745 C1747 1.387 . S
H1746 C1753 0.950 . S
C1747 C1745 1.387 . S
C1747 C1749 1.390 . S
C1747 H1751 0.950 . S
H1748 C1744 0.950 . S
C1749 C1747 1.390 . S
C1749 C1750 1.387 . S
C1749 H1752 0.950 . S
C1750 C1749 1.387 . S
C1750 C1753 1.387 . S
H1751 C1747 0.950 . S
H1752 C1749 0.950 . S
C1753 C1744 1.390 . S
C1753 H1746 0.950 . S
C1753 C1750 1.387 . S
C1754 C1755 1.387 . S
C1754 H1758 0.950 . S
C1754 C1763 1.390 . S
C1755 C1754 1.387 . S
C1755 C1757 1.387 . S
H1756 C1763 0.950 . S
C1757 C1755 1.387 . S
C1757 C1759 1.390 . S
C1757 H1761 0.950 . S
H1758 C1754 0.950 . S
C1759 C1757 1.390 . S
C1759 C1760 1.387 . S
C1759 H1762 0.950 . S
C1760 C1759 1.387 . S
C1760 C1763 1.387 . S
H1761 C1757 0.950 . S
H1762 C1759 0.950 . S
C1763 C1754 1.390 . S
C1763 H1756 0.950 . S
C1763 C1760 1.387 . S
C1764 C1765 1.387 . S
C1764 H1768 0.950 . S
C1764 C1773 1.390 . S
C1765 C1764 1.387 . S
C1765 C1767 1.387 . S
H1766 C1773 0.950 . S
C1767 C1765 1.387 . S
C1767 C1769 1.390 . S
C1767 H1771 0.950 . S
H1768 C1764 0.950 . S
C1769 C1767 1.390 . S
C1769 C1770 1.387 . S
C1769 H1772 0.950 . S
C1770 C1769 1.387 . S
C1770 C1773 1.387 . S
H1771 C1767 0.950 . S
H1772 C1769 0.950 . S
C1773 C1764 1.390 . S
C1773 H1766 0.950 . S
C1773 C1770 1.387 . S
C1774 C1775 1.387 . S
C1774 H1778 0.950 . S
C1774 C1783 1.390 . S
C1775 C1774 1.387 . S
C1775 C1777 1.387 . S
H1776 C1783 0.950 . S
C1777 C1775 1.387 . S
C1777 C1779 1.390 . S
C1777 H1781 0.950 . S
H1778 C1774 0.950 . S
C1779 C1777 1.390 . S
C1779 C1780 1.387 . S
C1779 H1782 0.950 . S
C1780 C1779 1.387 . S
C1780 C1783 1.387 . S
H1781 C1777 0.950 . S
H1782 C1779 0.950 . S
C1783 C1774 1.390 . S
C1783 H1776 0.950 . S
C1783 C1780 1.387 . S
C1784 C1785 1.387 . S
C1784 H1788 0.950 . S
C1784 C1793 1.390 . S
C1785 C1784 1.387 . S
C1785 C1787 1.387 . S
H1786 C1793 0.950 . S
C1787 C1785 1.387 . S
C1787 C1789 1.390 . S
C1787 H1791 0.950 . S
H1788 C1784 0.950 . S
C1789 C1787 1.390 . S
C1789 C1790 1.387 . S
C1789 H1792 0.950 . S
C1790 C1789 1.387 . S
C1790 C1793 1.387 . S
H1791 C1787 0.950 . S
H1792 C1789 0.950 . S
C1793 C1784 1.390 . S
C1793 H1786 0.950 . S
C1793 C1790 1.387 . S
C1794 C1795 1.387 . S
C1794 H1798 0.950 . S
C1794 C1803 1.390 . S
C1795 C1794 1.387 . S
C1795 C1797 1.387 . S
H1796 C1803 0.950 . S
C1797 C1795 1.387 . S
C1797 C1799 1.390 . S
C1797 H1801 0.950 . S
H1798 C1794 0.950 . S
C1799 C1797 1.390 . S
C1799 C1800 1.387 . S
C1799 H1802 0.950 . S
C1800 C1799 1.387 . S
C1800 C1803 1.387 . S
H1801 C1797 0.950 . S
H1802 C1799 0.950 . S
C1803 C1794 1.390 . S
C1803 H1796 0.950 . S
C1803 C1800 1.387 . S
C1804 C1805 1.387 . S
C1804 H1808 0.950 . S
C1804 C1813 1.390 . S
C1805 C1804 1.387 . S
C1805 C1807 1.387 . S
H1806 C1813 0.950 . S
C1807 C1805 1.387 . S
C1807 C1809 1.390 . S
C1807 H1811 0.950 . S
H1808 C1804 0.950 . S
C1809 C1807 1.390 . S
C1809 C1810 1.387 . S
C1809 H1812 0.950 . S
C1810 C1809 1.387 . S
C1810 C1813 1.387 . S
H1811 C1807 0.950 . S
H1812 C1809 0.950 . S
C1813 C1804 1.390 . S
C1813 H1806 0.950 . S
C1813 C1810 1.387 . S
C1814 C1815 1.387 . S
C1814 H1818 0.950 . S
C1814 C1823 1.390 . S
C1815 C1814 1.387 . S
C1815 C1817 1.387 . S
H1816 C1823 0.950 . S
C1817 C1815 1.387 . S
C1817 C1819 1.390 . S
C1817 H1821 0.950 . S
H1818 C1814 0.950 . S
C1819 C1817 1.390 . S
C1819 C1820 1.387 . S
C1819 H1822 0.950 . S
C1820 C1819 1.387 . S
C1820 C1823 1.387 . S
H1821 C1817 0.950 . S
H1822 C1819 0.950 . S
C1823 C1814 1.390 . S
C1823 H1816 0.950 . S
C1823 C1820 1.387 . S
C1824 C1825 1.387 . S
C1824 H1828 0.950 . S
C1824 C1833 1.390 . S
C1825 C1824 1.387 . S
C1825 C1827 1.387 . S
H1826 C1833 0.950 . S
C1827 C1825 1.387 . S
C1827 C1829 1.390 . S
C1827 H1831 0.950 . S
H1828 C1824 0.950 . S
C1829 C1827 1.390 . S
C1829 C1830 1.387 . S
C1829 H1832 0.950 . S
C1830 C1829 1.387 . S
C1830 C1833 1.387 . S
H1831 C1827 0.950 . S
H1832 C1829 0.950 . S
C1833 C1824 1.390 . S
C1833 H1826 0.950 . S
C1833 C1830 1.387 . S
C1834 C1835 1.387 . S
C1834 H1838 0.950 . S
C1834 C1843 1.390 . S
C1835 C1834 1.387 . S
C1835 C1837 1.387 . S
H1836 C1843 0.950 . S
C1837 C1835 1.387 . S
C1837 C1839 1.390 . S
C1837 H1841 0.950 . S
H1838 C1834 0.950 . S
C1839 C1837 1.390 . S
C1839 C1840 1.387 . S
C1839 H1842 0.950 . S
C1840 C1839 1.387 . S
C1840 C1843 1.387 . S
H1841 C1837 0.950 . S
H1842 C1839 0.950 . S
C1843 C1834 1.390 . S
C1843 H1836 0.950 . S
C1843 C1840 1.387 . S
C1844 C1845 1.387 . S
C1844 H1848 0.950 . S
C1844 C1853 1.390 . S
C1845 C1844 1.387 . S
C1845 C1847 1.387 . S
H1846 C1853 0.950 . S
C1847 C1845 1.387 . S
C1847 C1849 1.390 . S
C1847 H1851 0.950 . S
H1848 C1844 0.950 . S
C1849 C1847 1.390 . S
C1849 C1850 1.387 . S
C1849 H1852 0.950 . S
C1850 C1849 1.387 . S
C1850 C1853 1.387 . S
H1851 C1847 0.950 . S
H1852 C1849 0.950 . S
C1853 C1844 1.390 . S
C1853 H1846 0.950 . S
C1853 C1850 1.387 . S
C1854 C1855 1.387 . S
C1854 H1858 0.950 . S
C1854 C1863 1.390 1_554 S
C1855 C1854 1.387 . S
C1855 C1857 1.387 . S
H1856 C1863 0.950 . S
C1857 C1855 1.387 . S
C1857 C1859 1.390 1_554 S
C1857 H1861 0.950 . S
H1858 C1854 0.950 . S
C1859 C1857 1.390 1_556 S
C1859 C1860 1.387 . S
C1859 H1862 0.950 . S
C1860 C1859 1.387 . S
C1860 C1863 1.387 . S
H1861 C1857 0.950 . S
H1862 C1859 0.950 . S
C1863 C1854 1.390 1_556 S
C1863 H1856 0.950 . S
C1863 C1860 1.387 . S
C1864 C1865 1.387 1_565 S
C1864 H1868 0.950 . S
C1864 C1873 1.390 1_556 S
C1865 C1864 1.387 1_545 S
C1865 C1867 1.387 . S
H1866 C1873 0.950 . S
C1867 C1865 1.387 . S
C1867 C1869 1.390 1_556 S
C1867 H1871 0.950 . S
H1868 C1864 0.950 . S
C1869 C1867 1.390 1_554 S
C1869 C1870 1.387 1_545 S
C1869 H1872 0.950 . S
C1870 C1869 1.387 1_565 S
C1870 C1873 1.387 . S
H1871 C1867 0.950 . S
H1872 C1869 0.950 . S
C1873 C1864 1.390 1_554 S
C1873 H1866 0.950 . S
C1873 C1870 1.387 . S
C1874 C1875 1.387 . S
C1874 H1878 0.950 . S
C1874 C1883 1.390 1_556 S
C1875 C1874 1.387 . S
C1875 C1877 1.387 1_655 S
H1876 C1883 0.950 . S
C1877 C1875 1.387 1_455 S
C1877 C1879 1.390 1_556 S
C1877 H1881 0.950 . S
H1878 C1874 0.950 . S
C1879 C1877 1.390 1_554 S
C1879 C1880 1.387 . S
C1879 H1882 0.950 . S
C1880 C1879 1.387 . S
C1880 C1883 1.387 1_455 S
H1881 C1877 0.950 . S
H1882 C1879 0.950 . S
C1883 C1874 1.390 1_554 S
C1883 H1876 0.950 . S
C1883 C1880 1.387 1_655 S
C1884 C1885 1.387 . S
C1884 H1888 0.950 . S
C1884 C1893 1.390 . S
C1885 C1884 1.387 . S
C1885 C1887 1.387 . S
H1886 C1893 0.950 . S
C1887 C1885 1.387 . S
C1887 C1889 1.390 . S
C1887 H1891 0.950 . S
H1888 C1884 0.950 . S
C1889 C1887 1.390 . S
C1889 C1890 1.387 . S
C1889 H1892 0.950 . S
C1890 C1889 1.387 . S
C1890 C1893 1.387 . S
H1891 C1887 0.950 . S
H1892 C1889 0.950 . S
C1893 C1884 1.390 . S
C1893 H1886 0.950 . S
C1893 C1890 1.387 . S
C1894 C1895 1.387 . S
C1894 H1898 0.950 . S
C1894 C1903 1.390 . S
C1895 C1894 1.387 . S
C1895 C1897 1.387 . S
H1896 C1903 0.950 . S
C1897 C1895 1.387 . S
C1897 C1899 1.390 . S
C1897 H1901 0.950 . S
H1898 C1894 0.950 . S
C1899 C1897 1.390 . S
C1899 C1900 1.387 . S
C1899 H1902 0.950 . S
C1900 C1899 1.387 . S
C1900 C1903 1.387 . S
H1901 C1897 0.950 . S
H1902 C1899 0.950 . S
C1903 C1894 1.390 . S
C1903 H1896 0.950 . S
C1903 C1900 1.387 . S
C1904 C1905 1.387 . S
C1904 H1908 0.950 . S
C1904 C1913 1.390 . S
C1905 C1904 1.387 . S
C1905 C1907 1.387 . S
H1906 C1913 0.950 . S
C1907 C1905 1.387 . S
C1907 C1909 1.390 . S
C1907 H1911 0.950 . S
H1908 C1904 0.950 . S
C1909 C1907 1.390 . S
C1909 C1910 1.387 . S
C1909 H1912 0.950 . S
C1910 C1909 1.387 . S
C1910 C1913 1.387 . S
H1911 C1907 0.950 . S
H1912 C1909 0.950 . S
C1913 C1904 1.390 . S
C1913 H1906 0.950 . S
C1913 C1910 1.387 . S
C1914 C1915 1.387 . S
C1914 H1918 0.950 . S
C1914 C1923 1.390 . S
C1915 C1914 1.387 . S
C1915 C1917 1.387 . S
H1916 C1923 0.950 . S
C1917 C1915 1.387 . S
C1917 C1919 1.390 . S
C1917 H1921 0.950 . S
H1918 C1914 0.950 . S
C1919 C1917 1.390 . S
C1919 C1920 1.387 . S
C1919 H1922 0.950 . S
C1920 C1919 1.387 . S
C1920 C1923 1.387 . S
H1921 C1917 0.950 . S
H1922 C1919 0.950 . S
C1923 C1914 1.390 . S
C1923 H1916 0.950 . S
C1923 C1920 1.387 . S
C1924 C1925 1.387 . S
C1924 H1928 0.950 . S
C1924 C1933 1.390 . S
C1925 C1924 1.387 . S
C1925 C1927 1.387 . S
H1926 C1933 0.950 . S
C1927 C1925 1.387 . S
C1927 C1929 1.390 . S
C1927 H1931 0.950 . S
H1928 C1924 0.950 . S
C1929 C1927 1.390 . S
C1929 C1930 1.387 . S
C1929 H1932 0.950 . S
C1930 C1929 1.387 . S
C1930 C1933 1.387 . S
H1931 C1927 0.950 . S
H1932 C1929 0.950 . S
C1933 C1924 1.390 . S
C1933 H1926 0.950 . S
C1933 C1930 1.387 . S
C1934 C1935 1.387 . S
C1934 H1938 0.950 . S
C1934 C1943 1.390 . S
C1935 C1934 1.387 . S
C1935 C1937 1.387 . S
H1936 C1943 0.950 . S
C1937 C1935 1.387 . S
C1937 C1939 1.390 . S
C1937 H1941 0.950 . S
H1938 C1934 0.950 . S
C1939 C1937 1.390 . S
C1939 C1940 1.387 . S
C1939 H1942 0.950 . S
C1940 C1939 1.387 . S
C1940 C1943 1.387 . S
H1941 C1937 0.950 . S
H1942 C1939 0.950 . S
C1943 C1934 1.390 . S
C1943 H1936 0.950 . S
C1943 C1940 1.387 . S
C1585 C900 0.969 . S
C1590 C29 0.964 . S
C1595 C145 0.944 . S
C1600 C1017 0.932 . S
C1605 C812 0.945 . S
C1610 C233 0.956 . S
C1615 C1289 0.967 . S
C1620 C284 0.964 . S
C1625 C372 0.954 . S
C1630 C1085 0.946 . S
C1635 C1201 0.936 . S
C1640 C497 0.941 . S
C1645 C548 0.990 . S
C1650 C1465 0.992 . S
C1655 C1545 0.987 . S
C1660 C673 0.985 . S
C1665 C761 0.994 . S
C1670 C1340 0.990 . S
C1675 C57 1.229 . S
C1680 C108 1.444 . S
C1685 C117 1.189 . S
C1690 C196 1.364 . S
C1695 C49 1.440 . S
C1700 C205 1.238 . S
C1705 C460 1.447 . S
C1710 C313 1.236 . S
C1715 C321 1.440 . S
C1720 C401 1.237 . S
C1725 C469 1.187 . S
C1730 C409 1.364 . S
C1735 C577 1.267 . S
C1740 C636 1.490 . S
C1745 C645 1.242 . S
C1750 C724 1.459 . S
C1755 C585 1.443 . S
C1760 C733 1.237 . S
C1765 C997 1.494 . S
C1770 C841 1.274 . S
C1775 C849 1.433 . S
C1780 C929 1.224 . S
C1785 C937 1.461 . S
C1790 C988 1.238 . S
C1795 C1164 1.494 . S
C1800 C1113 1.273 . S
C1805 C1252 1.461 . S
C1810 C1173 1.241 . S
C1815 C1105 1.432 . S
C1820 C1261 1.220 . S
C1825 C1369 1.260 . S
C1830 C1525 1.489 . S
C1835 C1437 1.235 . S
C1840 C1377 1.442 . S
C1845 C1516 1.239 . S
C1850 C1428 1.459 . S
C1855 C20 1.672 . S
C1860 C293 1.671 . S
C1865 C381 1.625 . S
C1870 C137 1.610 . S
C1875 C489 1.613 . S
C1880 C225 1.626 . S
C1885 C821 1.674 . S
C1890 C557 1.678 . S
C1895 C909 1.652 . S
C1900 C665 1.654 . S
C1905 C753 1.675 . S
C1910 C1025 1.675 . S
C1915 C1349 1.679 . S
C1920 C1076 1.676 . S
C1925 C1457 1.674 . S
C1930 C1193 1.676 . S
C1935 C1553 1.655 . S
C1940 C1281 1.654 . S
