# Generated by pormake.
# Topology wjf, (4)-cn, num edge types: 1
# Building blocks:
#     Node 0, Type 0, BuildingBlock: QUQFOY_clean_sbu_3, # of connection points: 4
#     Node 1, Type 0, BuildingBlock: QUQFOY_clean_sbu_3, # of connection points: 4
#     Node 2, Type 0, BuildingBlock: QUQFOY_clean_sbu_3, # of connection points: 4
#     Node 3, Type 0, BuildingBlock: QUQFOY_clean_sbu_3, # of connection points: 4
#     Node 4, Type 0, BuildingBlock: QUQFOY_clean_sbu_3, # of connection points: 4
#     Node 5, Type 0, BuildingBlock: QUQFOY_clean_sbu_3, # of connection points: 4
#     Node 6, Type 0, BuildingBlock: QUQFOY_clean_sbu_3, # of connection points: 4
#     Node 7, Type 0, BuildingBlock: QUQFOY_clean_sbu_3, # of connection points: 4
#     Node 8, Type 0, BuildingBlock: QUQFOY_clean_sbu_3, # of connection points: 4
#     Node 9, Type 0, BuildingBlock: QUQFOY_clean_sbu_3, # of connection points: 4
#     Node 10, Type 0, BuildingBlock: QUQFOY_clean_sbu_3, # of connection points: 4
#     Node 11, Type 0, BuildingBlock: QUQFOY_clean_sbu_3, # of connection points: 4
#     Edge 12, Type (0, 0), BuildingBlock: MIFKUJ_clean_linker_0, # of connection points: 2
#     Edge 13, Type (0, 0), BuildingBlock: MIFKUJ_clean_linker_0, # of connection points: 2
#     Edge 14, Type (0, 0), BuildingBlock: MIFKUJ_clean_linker_0, # of connection points: 2
#     Edge 15, Type (0, 0), BuildingBlock: MIFKUJ_clean_linker_0, # of connection points: 2
#     Edge 16, Type (0, 0), BuildingBlock: MIFKUJ_clean_linker_0, # of connection points: 2
#     Edge 17, Type (0, 0), BuildingBlock: MIFKUJ_clean_linker_0, # of connection points: 2
#     Edge 18, Type (0, 0), BuildingBlock: MIFKUJ_clean_linker_0, # of connection points: 2
#     Edge 19, Type (0, 0), BuildingBlock: MIFKUJ_clean_linker_0, # of connection points: 2
#     Edge 20, Type (0, 0), BuildingBlock: MIFKUJ_clean_linker_0, # of connection points: 2
#     Edge 21, Type (0, 0), BuildingBlock: MIFKUJ_clean_linker_0, # of connection points: 2
#     Edge 22, Type (0, 0), BuildingBlock: MIFKUJ_clean_linker_0, # of connection points: 2
#     Edge 23, Type (0, 0), BuildingBlock: MIFKUJ_clean_linker_0, # of connection points: 2
#     Edge 24, Type (0, 0), BuildingBlock: MIFKUJ_clean_linker_0, # of connection points: 2
#     Edge 25, Type (0, 0), BuildingBlock: MIFKUJ_clean_linker_0, # of connection points: 2
#     Edge 26, Type (0, 0), BuildingBlock: MIFKUJ_clean_linker_0, # of connection points: 2
#     Edge 27, Type (0, 0), BuildingBlock: MIFKUJ_clean_linker_0, # of connection points: 2
#     Edge 28, Type (0, 0), BuildingBlock: MIFKUJ_clean_linker_0, # of connection points: 2
#     Edge 29, Type (0, 0), BuildingBlock: MIFKUJ_clean_linker_0, # of connection points: 2
#     Edge 30, Type (0, 0), BuildingBlock: MIFKUJ_clean_linker_0, # of connection points: 2
#     Edge 31, Type (0, 0), BuildingBlock: MIFKUJ_clean_linker_0, # of connection points: 2
#     Edge 32, Type (0, 0), BuildingBlock: MIFKUJ_clean_linker_0, # of connection points: 2
#     Edge 33, Type (0, 0), BuildingBlock: MIFKUJ_clean_linker_0, # of connection points: 2
#     Edge 34, Type (0, 0), BuildingBlock: MIFKUJ_clean_linker_0, # of connection points: 2
#     Edge 35, Type (0, 0), BuildingBlock: MIFKUJ_clean_linker_0, # of connection points: 2
# Relax obj value: 0.107
# Max RMSD: 0.137
# Mean RMSD: 0.137
data_MOF--net-wjf--node1-QUQFOY_clean_sbu_3--edge1-MIFKUJ_clean_linker_0
_symmetry_space_group_name_H-M    P1
_symmetry_Int_Tables_number       1
_symmetry_cell_setting            triclinic
loop_
_symmetry_equiv_pos_as_xyz
'x, y, z'
_cell_length_a     66.902686
_cell_length_b     66.893748
_cell_length_c     36.360209
_cell_angle_alpha  90.026563
_cell_angle_beta   90.051877
_cell_angle_gamma 120.01014
loop_
_atom_site_label
_atom_site_type_symbol
_atom_site_fract_x
_atom_site_fract_y
_atom_site_fract_z
_atom_type_partial_charge
C0 C 0.31812 0.34124 0.15209 0.0
O1 O 0.32481 0.32991 0.13255 0.0
Cd2 Cd 0.32984 0.33052 0.06715 0.0
O3 O 0.31292 0.3554 0.13744 0.0
Cd4 Cd 0.3122 0.36949 0.07455 0.0
C5 C 0.36971 0.38824 0.05939 0.0
O6 O 0.29767 0.33238 0.04434 0.0
O7 O 0.30418 0.36074 0.00932 0.0
O8 O 0.27935 0.37456 0.08955 0.0
C9 C 0.29806 0.3396 0.01207 0.0
O10 O 0.36489 0.36732 0.05645 0.0
C11 C 0.28816 0.39449 0.07503 0.0
O12 O 0.35419 0.39328 0.06736 0.0
O13 O 0.30868 0.40327 0.06308 0.0
C14 C 0.97273 0.33332 0.45473 0.0
O15 O 0.98996 0.34117 0.43324 0.0
Cd16 Cd 0.98905 0.34819 0.36931 0.0
O17 O 0.95286 0.32845 0.44274 0.0
Cd18 Cd 0.93652 0.33011 0.38201 0.0
C19 C 0.97109 0.3879 0.37369 0.0
O20 O 0.9561 0.31431 0.34577 0.0
O21 O 0.93971 0.32973 0.31521 0.0
O22 O 0.9011 0.29426 0.39577 0.0
C23 C 0.94942 0.31763 0.31499 0.0
O24 O 0.987 0.38357 0.36523 0.0
C25 C 0.88766 0.30104 0.38374 0.0
O26 O 0.95124 0.37172 0.38333 0.0
O27 O 0.89693 0.32203 0.37401 0.0
C28 C 0.63605 0.97423 0.79197 0.0
O29 O 0.64581 0.99291 0.7737 0.0
Cd30 Cd 0.64155 0.99747 0.70983 0.0
O31 O 0.6219 0.95514 0.77656 0.0
Cd32 Cd 0.60609 0.94272 0.71337 0.0
C33 C 0.58376 0.97876 0.70866 0.0
O34 O 0.64345 0.96574 0.68404 0.0
O35 O 0.61467 0.94761 0.64726 0.0
O36 O 0.6041 0.90575 0.7241 0.0
C37 C 0.63627 0.96006 0.65146 0.0
O38 O 0.60428 0.99537 0.70434 0.0
C39 C 0.58421 0.89365 0.70987 0.0
O40 O 0.57983 0.9583 0.71415 0.0
O41 O 0.57388 0.9043 0.69979 0.0
C42 C 0.65653 0.63435 0.11563 0.0
O43 O 0.64787 0.64278 0.09375 0.0
Cd44 Cd 0.64073 0.6346 0.02974 0.0
O45 O 0.66232 0.61991 0.10419 0.0
Cd46 Cd 0.66124 0.60144 0.04404 0.0
C47 C 0.60295 0.57655 0.03539 0.0
O48 O 0.67533 0.63671 0.00758 0.0
O49 O 0.66423 0.60525 0.97722 0.0
O50 O 0.69645 0.6013 0.06214 0.0
C51 C 0.67375 0.62703 0.97696 0.0
O52 O 0.60631 0.5964 0.02649 0.0
C53 C 0.69006 0.58144 0.04881 0.0
O54 O 0.61977 0.57388 0.04504 0.0
O55 O 0.66974 0.57037 0.03587 0.0
C56 C 0.02049 0.67249 0.46098 0.0
O57 O 0.00335 0.66634 0.43958 0.0
Cd58 Cd 0.00242 0.66288 0.37421 0.0
O59 O 0.04044 0.67815 0.44829 0.0
Cd60 Cd 0.0575 0.68086 0.38623 0.0
C61 C 0.02061 0.62329 0.36975 0.0
O62 O 0.03646 0.69701 0.35584 0.0
O63 O 0.05707 0.68885 0.32048 0.0
O64 O 0.09442 0.71458 0.40295 0.0
C65 C 0.04387 0.69722 0.32382 0.0
O66 O 0.00445 0.62782 0.36464 0.0
C67 C 0.10658 0.70634 0.39056 0.0
O68 O 0.04078 0.6391 0.379 0.0
O69 O 0.09578 0.68569 0.37884 0.0
C70 C 0.34039 0.02328 0.79509 0.0
O71 O 0.33141 0.00766 0.77062 0.0
Cd72 Cd 0.34093 0.01177 0.70672 0.0
O73 O 0.356 0.04377 0.78679 0.0
Cd74 Cd 0.37663 0.06494 0.73041 0.0
C75 C 0.39836 0.02901 0.7152 0.0
O76 O 0.34316 0.04723 0.68998 0.0
O77 O 0.3757 0.06987 0.66398 0.0
O78 O 0.37744 0.10021 0.75 0.0
C79 C 0.35405 0.05717 0.66101 0.0
O80 O 0.37827 0.01368 0.70478 0.0
C81 C 0.39881 0.1133 0.74351 0.0
O82 O 0.4021 0.04851 0.7271 0.0
O83 O 0.41013 0.10353 0.7341 0.0
C84 C 0.65997 0.68649 0.49811 0.0
O85 O 0.67038 0.68056 0.5211 0.0
Cd86 Cd 0.66512 0.6771 0.58665 0.0
O87 O 0.64489 0.69156 0.50879 0.0
Cd88 Cd 0.62714 0.69263 0.5679 0.0
C89 C 0.60803 0.63567 0.58527 0.0
O90 O 0.66198 0.70938 0.60606 0.0
O91 O 0.62962 0.69715 0.63412 0.0
O92 O 0.62355 0.72607 0.55136 0.0
C93 C 0.6514 0.70697 0.63608 0.0
O94 O 0.62849 0.64138 0.59511 0.0
C95 C 0.60218 0.71646 0.55908 0.0
O96 O 0.60342 0.65053 0.57199 0.0
O97 O 0.59223 0.6953 0.5681 0.0
C98 C 0.97456 0.63569 0.84776 0.0
O99 O 0.99139 0.64494 0.87016 0.0
Cd100 Cd 0.98989 0.63923 0.93518 0.0
O101 O 0.95417 0.62164 0.85903 0.0
Cd102 Cd 0.93602 0.60484 0.91945 0.0
C103 C 0.97033 0.58131 0.9342 0.0
O104 O 0.95662 0.64097 0.95408 0.0
O105 O 0.93466 0.61035 0.98544 0.0
O106 O 0.90033 0.60363 0.90077 0.0
C107 C 0.94746 0.63206 0.98464 0.0
O108 O 0.98666 0.6015 0.94193 0.0
C109 C 0.88719 0.5834 0.91309 0.0
O110 O 0.95076 0.57803 0.92371 0.0
O111 O 0.89689 0.57257 0.92522 0.0
C112 C 0.33543 0.97765 0.1767 0.0
O113 O 0.34466 0.99582 0.1963 0.0
Cd114 Cd 0.35343 0.9986 0.26013 0.0
O115 O 0.32993 0.95802 0.19059 0.0
Cd116 Cd 0.33221 0.94316 0.25245 0.0
C117 C 0.39085 0.97762 0.25819 0.0
O118 O 0.31948 0.96662 0.28426 0.0
O119 O 0.32869 0.9466 0.31924 0.0
O120 O 0.29612 0.90759 0.23977 0.0
C121 C 0.3207 0.96014 0.31636 0.0
O122 O 0.38758 0.99457 0.26362 0.0
C123 C 0.30298 0.89423 0.2519 0.0
O124 O 0.37392 0.95747 0.25192 0.0
O125 O 0.32395 0.9036 0.26188 0.0
C126 C 0.36298 0.34537 0.53642 0.0
O127 O 0.35565 0.35387 0.56054 0.0
Cd128 Cd 0.36808 0.36054 0.6234 0.0
O129 O 0.37817 0.33993 0.54465 0.0
Cd130 Cd 0.40023 0.34185 0.60062 0.0
C131 C 0.42487 0.39953 0.61021 0.0
O132 O 0.36816 0.32672 0.64437 0.0
O133 O 0.40236 0.3417 0.6675 0.0
O134 O 0.39792 0.30571 0.58274 0.0
C135 C 0.38075 0.3299 0.6723 0.0
O136 O 0.40594 0.39538 0.62496 0.0
C137 C 0.4187 0.31204 0.59099 0.0
O138 O 0.42702 0.38337 0.59574 0.0
O139 O 0.43148 0.33302 0.60022 0.0
C140 C 0.0191 0.34181 0.839 0.0
O141 O 0.0028 0.33152 0.862 0.0
Cd142 Cd 0.00453 0.33866 0.9265 0.0
O143 O 0.03906 0.35754 0.84947 0.0
Cd144 Cd 0.05722 0.37588 0.90907 0.0
C145 C 0.01994 0.39576 0.92255 0.0
O146 O 0.03955 0.3409 0.94674 0.0
O147 O 0.05735 0.37329 0.97557 0.0
O148 O 0.09403 0.3789 0.89319 0.0
C149 C 0.04712 0.35148 0.97694 0.0
O150 O 0.00481 0.37527 0.93149 0.0
C151 C 0.10617 0.39972 0.9038 0.0
O152 O 0.03983 0.40032 0.91143 0.0
O153 O 0.09536 0.40996 0.91343 0.0
C154 C 0.67511 0.01344 0.17455 0.0
O155 O 0.66825 0.99804 0.19937 0.0
Cd156 Cd 0.66389 0.00336 0.26325 0.0
O157 O 0.68069 0.03419 0.18244 0.0
Cd158 Cd 0.6823 0.0563 0.23825 0.0
C159 C 0.62458 0.02166 0.25501 0.0
O160 O 0.69805 0.03852 0.27861 0.0
O161 O 0.68922 0.06209 0.30432 0.0
O162 O 0.7171 0.09089 0.21758 0.0
C163 C 0.69795 0.0492 0.30725 0.0
O164 O 0.62897 0.00614 0.26575 0.0
C165 C 0.70933 0.10446 0.22373 0.0
O166 O 0.64053 0.04083 0.24249 0.0
O167 O 0.68833 0.09523 0.23339 0.0
H168 H 0.30121 0.35913 0.20327 0.0
H169 H 0.30317 0.3571 0.27027 0.0
H170 H 0.33656 0.31645 0.25921 0.0
H171 H 0.33408 0.3178 0.19257 0.0
H172 H 0.30696 0.30045 0.31381 0.0
H173 H 0.36739 0.37557 0.27461 0.0
H174 H 0.38325 0.41334 0.24384 0.0
H175 H 0.34225 0.43075 0.31319 0.0
H176 H 0.32593 0.39293 0.34406 0.0
H177 H 0.37165 0.32436 0.47896 0.0
H178 H 0.35843 0.321 0.41539 0.0
H179 H 0.32139 0.35622 0.44384 0.0
H180 H 0.33454 0.35973 0.50746 0.0
H181 H 0.34841 0.3743 0.38259 0.0
H182 H 0.29177 0.29977 0.42677 0.0
H183 H 0.27781 0.26227 0.45757 0.0
H184 H 0.31379 0.24397 0.37888 0.0
H185 H 0.32825 0.28151 0.34789 0.0
C186 C 0.30877 0.34958 0.21513 0.0
C187 C 0.31766 0.33879 0.19256 0.0
C188 C 0.30995 0.3485 0.25341 0.0
C189 C 0.32035 0.33693 0.26972 0.0
C190 C 0.32847 0.32547 0.24725 0.0
C191 C 0.3271 0.32635 0.20908 0.0
C192 C 0.32384 0.33753 0.31005 0.0
C193 C 0.31614 0.3166 0.32882 0.0
C194 C 0.3354 0.35858 0.32977 0.0
C195 C 0.34525 0.38134 0.31133 0.0
C196 C 0.36164 0.38739 0.2831 0.0
C197 C 0.37072 0.40881 0.26568 0.0
C198 C 0.3637 0.42441 0.27648 0.0
C199 C 0.34763 0.41863 0.3048 0.0
C200 C 0.33847 0.39722 0.32228 0.0
C201 C 0.36057 0.33126 0.47179 0.0
C202 C 0.35419 0.34235 0.49828 0.0
C203 C 0.35294 0.32922 0.4355 0.0
C204 C 0.33879 0.33821 0.42506 0.0
C205 C 0.33225 0.34912 0.45143 0.0
C206 C 0.33976 0.35107 0.48777 0.0
C207 C 0.33185 0.33725 0.38617 0.0
C208 C 0.33894 0.35813 0.36768 0.0
C209 C 0.31997 0.31618 0.36667 0.0
C210 C 0.31124 0.29354 0.38518 0.0
C211 C 0.29686 0.28783 0.4162 0.0
C212 C 0.28883 0.26655 0.43366 0.0
C213 C 0.29495 0.25077 0.42024 0.0
C214 C 0.30908 0.25622 0.38926 0.0
C215 C 0.31717 0.27748 0.37171 0.0
H216 H 0.28871 0.2343 0.4338 0.0
H217 H 0.37076 0.44098 0.26296 0.0
H218 H 0.01348 0.3475 0.49049 0.0
H219 H 0.01944 0.3439 0.55559 0.0
H220 H 0.94582 0.30835 0.57339 0.0
H221 H 0.93968 0.31243 0.50807 0.0
H222 H 0.9669 0.34031 0.62344 0.0
H223 H 0.97689 0.27953 0.57618 0.0
H224 H 0.99221 0.26087 0.53551 0.0
H225 H 0.06093 0.30722 0.57404 0.0
H226 H 0.04607 0.3264 0.61458 0.0
H227 H 0.97752 0.31275 0.80708 0.0
H228 H 0.96857 0.3068 0.7416 0.0
H229 H 0.04028 0.35249 0.71565 0.0
H230 H 0.04953 0.35868 0.78135 0.0
H231 H 0.01771 0.31176 0.6707 0.0
H232 H 0.00687 0.37414 0.71397 0.0
H233 H 0.99075 0.3918 0.75519 0.0
H234 H 0.92203 0.34026 0.72404 0.0
H235 H 0.93776 0.32208 0.68302 0.0
C236 C 0.99849 0.33876 0.50812 0.0
C237 C 0.97608 0.33025 0.49407 0.0
C238 C 0.00194 0.33657 0.54535 0.0
C239 C 0.98306 0.32552 0.56926 0.0
C240 C 0.96063 0.31685 0.55535 0.0
C241 C 0.95715 0.3192 0.51805 0.0
C242 C 0.98696 0.32434 0.60911 0.0
C243 C 0.97762 0.33361 0.63378 0.0
C244 C 0.00133 0.31602 0.62257 0.0
C245 C 0.01037 0.30452 0.59823 0.0
C246 C 0.99529 0.28587 0.57578 0.0
C247 C 0.00389 0.27517 0.55279 0.0
C248 C 0.02753 0.28288 0.55214 0.0
C249 C 0.04262 0.30128 0.57455 0.0
C250 C 0.03411 0.31205 0.59759 0.0
C251 C 0.9915 0.32136 0.78755 0.0
C252 C 0.01423 0.3364 0.79945 0.0
C253 C 0.98631 0.31792 0.75015 0.0
C254 C 0.00373 0.3294 0.72398 0.0
C255 C 0.02662 0.34352 0.73559 0.0
C256 C 0.03184 0.3471 0.77309 0.0
C257 C 0.99779 0.32786 0.68458 0.0
C258 C 0.00678 0.31815 0.66017 0.0
C259 C 0.98295 0.33559 0.67132 0.0
C260 C 0.97348 0.34661 0.69576 0.0
C261 C 0.98832 0.36646 0.71615 0.0
C262 C 0.97926 0.37658 0.73943 0.0
C263 C 0.95538 0.36712 0.74231 0.0
C264 C 0.94052 0.34754 0.72183 0.0
C265 C 0.9495 0.33733 0.69855 0.0
H266 H 0.94839 0.37498 0.76035 0.0
H267 H 0.03416 0.27458 0.53431 0.0
H268 H 0.62243 0.93783 0.83963 0.0
H269 H 0.63177 0.93974 0.90519 0.0
H270 H 0.67094 0.0141 0.899 0.0
H271 H 0.66217 0.01238 0.83381 0.0
H272 H 0.69352 0.9983 0.9386 0.0
H273 H 0.61536 0.98518 0.93225 0.0
H274 H 0.57429 0.96376 0.91434 0.0
H275 H 0.56543 0.90416 0.97301 0.0
H276 H 0.60655 0.92517 -0.00911 0.0
H277 H 0.69127 0.04175 0.11449 0.0
H278 H 0.68778 0.03022 0.05002 0.0
H279 H 0.65546 0.9587 0.08228 0.0
H280 H 0.65881 0.97 0.14687 0.0
H281 H 0.63047 0.96657 0.03077 0.0
H282 H 0.708 0.98331 0.04597 0.0
H283 H 0.74882 0.00605 0.06467 0.0
H284 H 0.75894 0.06009 -0.00986 0.0
H285 H 0.71808 0.03783 0.97135 0.0
C286 C 0.63306 0.95457 0.85226 0.0
C287 C 0.64146 0.97495 0.83153 0.0
C288 C 0.63838 0.95563 0.88968 0.0
C289 C 0.65195 0.97708 0.90695 0.0
C290 C 0.66055 0.99736 0.88617 0.0
C291 C 0.65539 0.99633 0.8489 0.0
C292 C 0.65672 0.97879 0.94691 0.0
C293 C 0.67975 0.99142 0.9588 0.0
C294 C 0.63876 0.96924 0.97321 0.0
C295 C 0.61407 0.95663 0.9625 0.0
C296 C 0.60469 0.96744 0.94107 0.0
C297 C 0.5814 0.95539 0.93097 0.0
C298 C 0.56728 0.93259 0.94242 0.0
C299 C 0.5764 0.92181 0.96409 0.0
C300 C 0.59969 0.93378 0.97422 0.0
C301 C 0.68369 0.02358 0.10795 0.0
C302 C 0.6752 0.00679 0.13581 0.0
C303 C 0.68183 0.01704 0.0711 0.0
C304 C 0.67147 0.99362 0.06149 0.0
C305 C 0.66355 0.97685 0.08922 0.0
C306 C 0.66552 0.98338 0.12609 0.0
C307 C 0.66723 0.98668 0.0224 0.0
C308 C 0.64429 0.97305 0.01067 0.0
C309 C 0.68527 0.99548 -0.00373 0.0
C310 C 0.7099 0.00894 0.00742 0.0
C311 C 0.71887 0.00012 0.03376 0.0
C312 C 0.74204 0.01291 0.04434 0.0
C313 C 0.75646 0.03452 0.02864 0.0
C314 C 0.74775 0.04335 0.00228 0.0
C315 C 0.72459 0.03064 -0.00839 0.0
H316 H 0.77439 0.04439 0.03687 0.0
H317 H 0.54925 0.92329 0.93458 0.0
H318 H 0.67684 0.62248 0.17062 0.0
H319 H 0.68034 0.63327 0.23578 0.0
H320 H 0.64665 0.67268 0.21407 0.0
H321 H 0.643 0.66205 0.14935 0.0
H322 H 0.7015 0.67696 0.27078 0.0
H323 H 0.60922 0.66283 0.28434 0.0
H324 H 0.57065 0.63879 0.25684 0.0
H325 H 0.5877 0.58656 0.23008 0.0
H326 H 0.62622 0.61013 0.25789 0.0
H327 H 0.64322 0.70046 0.44095 0.0
H328 H 0.64637 0.69476 0.37529 0.0
H329 H 0.68793 0.66367 0.39961 0.0
H330 H 0.68538 0.66981 0.46511 0.0
H331 H 0.62996 0.65494 0.34129 0.0
H332 H 0.72274 0.66985 0.32726 0.0
H333 H 0.76137 0.69428 0.3543 0.0
H334 H 0.74354 0.74581 0.38203 0.0
H335 H 0.70493 0.72186 0.35472 0.0
C336 C 0.67024 0.63349 0.17972 0.0
C337 C 0.6595 0.64126 0.15481 0.0
C338 C 0.67235 0.63971 0.21687 0.0
C339 C 0.66355 0.65357 0.22966 0.0
C340 C 0.65331 0.66175 0.20475 0.0
C341 C 0.65128 0.65565 0.16773 0.0
C342 C 0.66436 0.65906 0.26921 0.0
C343 C 0.68589 0.67191 0.28645 0.0
C344 C 0.64397 0.65287 0.2892 0.0
C345 C 0.6207 0.63838 0.27287 0.0
C346 C 0.6047 0.64618 0.27272 0.0
C347 C 0.58285 0.63264 0.25706 0.0
C348 C 0.57676 0.61119 0.24161 0.0
C349 C 0.59247 0.60321 0.24192 0.0
C350 C 0.61433 0.61667 0.25758 0.0
C351 C 0.65336 0.69276 0.43231 0.0
C352 C 0.66398 0.68552 0.4583 0.0
C353 C 0.65509 0.68946 0.39477 0.0
C354 C 0.66745 0.67886 0.38252 0.0
C355 C 0.67862 0.67223 0.40834 0.0
C356 C 0.67706 0.67568 0.44585 0.0
C357 C 0.66715 0.67316 0.34305 0.0
C358 C 0.64564 0.66012 0.32577 0.0
C359 C 0.68758 0.67925 0.3231 0.0
C360 C 0.71085 0.69393 0.33927 0.0
C361 C 0.72709 0.68643 0.33901 0.0
C362 C 0.74898 0.70019 0.3544 0.0
C363 C 0.75488 0.72155 0.36999 0.0
C364 C 0.73892 0.72923 0.37009 0.0
C365 C 0.71702 0.71555 0.35471 0.0
H366 H 0.77183 0.73217 0.38191 0.0
H367 H 0.55985 0.60075 0.22947 0.0
H368 H 0.01633 0.6584 0.81345 0.0
H369 H 0.02394 0.66639 0.74809 0.0
H370 H 0.95078 0.63356 0.72677 0.0
H371 H 0.94293 0.62485 0.79232 0.0
H372 H 0.97038 0.61986 0.67846 0.0
H373 H 0.98638 0.69327 0.72461 0.0
H374 H 0.00416 0.72742 0.76512 0.0
H375 H 0.07156 0.74352 0.72832 0.0
H376 H 0.05419 0.70927 0.68793 0.0
H377 H 0.98 0.65982 0.49657 0.0
H378 H 0.97278 0.65559 0.56252 0.0
H379 H 0.04468 0.67897 0.58276 0.0
H380 H 0.05222 0.68337 0.51645 0.0
H381 H 0.02552 0.69801 0.63106 0.0
H382 H 0.00796 0.62327 0.58478 0.0
H383 H 0.98882 0.58979 0.54302 0.0
H384 H 0.92244 0.57704 0.57957 0.0
H385 H 0.94118 0.61065 0.62116 0.0
C386 C 0.00181 0.65296 0.79495 0.0
C387 C 0.979 0.64104 0.80813 0.0
C388 C 0.00622 0.65766 0.75755 0.0
C389 C 0.98796 0.65091 0.73258 0.0
C390 C 0.96514 0.63899 0.74559 0.0
C391 C 0.96069 0.63406 0.78305 0.0
C392 C 0.99272 0.65562 0.69275 0.0
C393 C 0.98216 0.63702 0.66809 0.0
C394 C 0.00847 0.67794 0.67926 0.0
C395 C 0.01898 0.69857 0.70349 0.0
C396 C 0.005 0.70399 0.72537 0.0
C397 C 0.01501 0.72338 0.74827 0.0
C398 C 0.03898 0.7376 0.74936 0.0
C399 C 0.05299 0.73248 0.72748 0.0
C400 C 0.04308 0.71309 0.70454 0.0
C401 C 0.99439 0.66425 0.51493 0.0
C402 C 0.01669 0.67176 0.50117 0.0
C403 C 0.99018 0.66176 0.55264 0.0
C404 C 0.00814 0.66666 0.57736 0.0
C405 C 0.0306 0.67502 0.56398 0.0
C406 C 0.03485 0.67747 0.52613 0.0
C407 C 0.00318 0.66228 0.61707 0.0
C408 C 0.01372 0.6809 0.6416 0.0
C409 C 0.98724 0.64004 0.63044 0.0
C410 C 0.97598 0.61961 0.60584 0.0
C411 C 0.98928 0.61342 0.58373 0.0
C412 C 0.97851 0.59441 0.56012 0.0
C413 C 0.95443 0.58135 0.55857 0.0
C414 C 0.94109 0.5872 0.58076 0.0
C415 C 0.95177 0.60621 0.60438 0.0
H416 H 0.94609 0.56667 0.54022 0.0
H417 H 0.04669 0.75261 0.76711 0.0
H418 H 0.34867 0.01709 0.13782 0.0
H419 H 0.34231 0.02083 0.07303 0.0
H420 H 0.30582 0.9467 0.06124 0.0
H421 H 0.31257 0.94275 0.12643 0.0
H422 H 0.33592 0.96655 0.00734 0.0
H423 H 0.2766 0.97683 0.05898 0.0
H424 H 0.2589 0.99243 0.10113 0.0
H425 H 0.30336 0.06069 0.05934 0.0
H426 H 0.32157 0.04557 0.01729 0.0
H427 H 0.31079 0.98056 0.82309 0.0
H428 H 0.30309 0.96958 0.88774 0.0
H429 H 0.34703 0.04062 0.9198 0.0
H430 H 0.35487 0.05188 0.85513 0.0
H431 H 0.30649 0.01709 0.96235 0.0
H432 H 0.36905 0.00652 0.91787 0.0
H433 H 0.38648 0.99059 0.87576 0.0
H434 H 0.33431 0.9217 0.90464 0.0
H435 H 0.31638 0.93726 0.94655 0.0
C436 C 0.33916 0.00151 0.12163 0.0
C437 C 0.3311 0.97959 0.13735 0.0
C438 C 0.33539 0.0037 0.08458 0.0
C439 C 0.3232 0.98404 0.06247 0.0
C440 C 0.31512 0.96209 0.07794 0.0
C441 C 0.31901 0.95987 0.11514 0.0
C442 C 0.32029 0.98674 0.02275 0.0
C443 C 0.32895 0.97714 -0.00252 0.0
C444 C 0.31151 0.00085 0.00993 0.0
C445 C 0.30056 0.01006 0.0351 0.0
C446 C 0.28272 0.9952 0.05894 0.0
C447 C 0.27258 0.00395 0.0828 0.0
C448 C 0.28003 0.02754 0.08295 0.0
C449 C 0.29761 0.04242 0.05919 0.0
C450 C 0.30783 0.03376 0.03529 0.0
C451 C 0.31861 0.99394 0.84381 0.0
C452 C 0.33368 0.01709 0.83396 0.0
C453 C 0.31417 0.9876 0.88073 0.0
C454 C 0.32471 0.00427 0.90839 0.0
C455 C 0.33877 0.02753 0.89873 0.0
C456 C 0.34331 0.0339 0.86179 0.0
C457 C 0.32255 0.9973 0.94737 0.0
C458 C 0.31298 0.00613 0.97235 0.0
C459 C 0.33036 0.98238 0.95997 0.0
C460 C 0.34123 0.97304 0.93498 0.0
C461 C 0.36119 0.98798 0.915 0.0
C462 C 0.37118 0.97902 0.89122 0.0
C463 C 0.36146 0.95515 0.88744 0.0
C464 C 0.34179 0.94019 0.90753 0.0
C465 C 0.33171 0.94906 0.93131 0.0
H466 H 0.36922 0.94825 0.86901 0.0
H467 H 0.27215 0.03429 0.10144 0.0
H468 H 0.13465 0.38355 0.88264 0.0
H469 H 0.17072 0.39216 0.91281 0.0
H470 H 0.16906 0.44574 0.97643 0.0
H471 H 0.13339 0.43775 0.94554 0.0
H472 H 0.21318 0.4555 0.96648 0.0
H473 H 0.14277 0.39322 0.01039 0.0
H474 H 0.10488 0.35766 0.00546 0.0
H475 H 0.13769 0.32067 0.96596 0.0
H476 H 0.17576 0.35613 0.97005 0.0
H477 H 0.24796 0.38625 0.10785 0.0
H478 H 0.22061 0.39733 0.08428 0.0
H479 H 0.26804 0.43548 -0.00335 0.0
H480 H 0.29583 0.42583 0.0216 0.0
H481 H 0.19901 0.38302 0.02673 0.0
H482 H 0.25624 0.47176 0.95267 0.0
H483 H 0.29139 0.50899 0.96525 0.0
H484 H 0.2814 0.49627 0.08135 0.0
H485 H 0.246 0.45912 0.06954 0.0
C486 C 0.14243 0.39776 0.90198 0.0
C487 C 0.13094 0.40963 0.9123 0.0
C488 C 0.16299 0.40262 0.91932 0.0
C489 C 0.17211 0.41907 0.94769 0.0
C490 C 0.16219 0.43282 0.95487 0.0
C491 C 0.14176 0.42819 0.93716 0.0
C492 C 0.18938 0.41922 0.97341 0.0
C493 C 0.21025 0.43973 0.97968 0.0
C494 C 0.1849 0.39888 -0.00779 0.0
C495 C 0.1621 0.37738 -0.00976 0.0
C496 C 0.14189 0.37753 0.00045 0.0
C497 C 0.12038 0.3574 -0.00219 0.0
C498 C 0.11888 0.33693 0.98534 0.0
C499 C 0.13889 0.33654 0.97558 0.0
C500 C 0.16044 0.35665 0.97806 0.0
C501 C 0.25282 0.3977 0.08438 0.0
C502 C 0.27395 0.40509 0.06648 0.0
C503 C 0.23715 0.40394 0.07075 0.0
C504 C 0.24211 0.41721 0.03849 0.0
C505 C 0.26385 0.42571 0.02198 0.0
C506 C 0.27975 0.42002 0.03619 0.0
C507 C 0.22357 0.41924 0.01913 0.0
C508 C 0.2022 0.39902 0.014 0.0
C509 C 0.22731 0.44011 0.00282 0.0
C510 C 0.24852 0.46254 0.01017 0.0
C511 C 0.26146 0.47695 0.9809 0.0
C512 C 0.28145 0.49803 -0.01211 0.0
C513 C 0.28865 0.50496 0.02407 0.0
C514 C 0.27584 0.49084 0.05334 0.0
C515 C 0.25583 0.46975 0.0465 0.0
H516 H 0.30414 0.52128 0.02942 0.0
H517 H 0.10222 0.32136 0.98331 0.0
H518 H 0.86299 0.25555 0.4029 0.0
H519 H 0.82742 0.22611 0.37387 0.0
H520 H 0.82211 0.27891 0.31405 0.0
H521 H 0.8577 0.30853 0.343 0.0
H522 H 0.78207 0.21509 0.36372 0.0
H523 H 0.81192 0.26013 0.22344 0.0
H524 H 0.8478 0.28926 0.19317 0.0
H525 H 0.8876 0.27056 0.26312 0.0
H526 H 0.85194 0.24109 0.29332 0.0
H527 H 0.69818 0.1373 0.24232 0.0
H528 H 0.7249 0.17618 0.26481 0.0
H529 H 0.78253 0.16722 0.2365 0.0
H530 H 0.75601 0.12853 0.21347 0.0
H531 H 0.79386 0.21197 0.22945 0.0
H532 H 0.75819 0.15102 0.31973 0.0
H533 H 0.72511 0.11916 0.3517 0.0
H534 H 0.7015 0.16544 0.38502 0.0
H535 H 0.73429 0.19753 0.35269 0.0
C536 C 0.85387 0.26098 0.38448 0.0
C537 C 0.86333 0.28432 0.37481 0.0
C538 C 0.83352 0.24412 0.36794 0.0
C539 C 0.82243 0.25034 0.34131 0.0
C540 C 0.8306 0.27379 0.33424 0.0
C541 C 0.8509 0.29069 0.35095 0.0
C542 C 0.80439 0.23224 0.31776 0.0
C543 C 0.78442 0.21461 0.33428 0.0
C544 C 0.8078 0.23134 0.27947 0.0
C545 C 0.82929 0.24865 0.26094 0.0
C546 C 0.82833 0.2622 0.23225 0.0
C547 C 0.84862 0.27876 0.21511 0.0
C548 C 0.86997 0.28182 0.22632 0.0
C549 C 0.87106 0.26824 0.25455 0.0
C550 C 0.85082 0.25161 0.2717 0.0
C551 C 0.71656 0.14389 0.2397 0.0
C552 C 0.72499 0.12967 0.22677 0.0
C553 C 0.7318 0.16609 0.25271 0.0
C554 C 0.75564 0.17433 0.25317 0.0
C555 C 0.76417 0.16114 0.23662 0.0
C556 C 0.74896 0.13898 0.22349 0.0
C557 C 0.77139 0.19487 0.27535 0.0
C558 C 0.79108 0.21285 0.25865 0.0
C559 C 0.76806 0.19576 0.31369 0.0
C560 C 0.7485 0.17658 0.33345 0.0
C561 C 0.74585 0.15436 0.33367 0.0
C562 C 0.72717 0.13627 0.35187 0.0
C563 C 0.71117 0.14026 0.37031 0.0
C564 C 0.71387 0.16237 0.37066 0.0
C565 C 0.73249 0.18051 0.3524 0.0
H566 H 0.69672 0.12623 0.38439 0.0
H567 H 0.88566 0.29468 0.21308 0.0
H568 H 0.54577 0.86552 0.66937 0.0
H569 H 0.53587 0.82815 0.64247 0.0
H570 H 0.59285 0.82949 0.70033 0.0
H571 H 0.60272 0.86664 0.72748 0.0
H572 H 0.56321 0.82239 0.59618 0.0
H573 H 0.58357 0.77646 0.71506 0.0
H574 H 0.5772 0.77061 0.7819 0.0
H575 H 0.51945 0.78172 0.77391 0.0
H576 H 0.52524 0.7873 0.70695 0.0
H577 H 0.61993 0.76249 0.54627 0.0
H578 H 0.60409 0.78629 0.56743 0.0
H579 H 0.54232 0.72533 0.6038 0.0
H580 H 0.5582 0.70136 0.583 0.0
H581 H 0.56067 0.75514 0.65815 0.0
H582 H 0.53912 0.75899 0.53599 0.0
H583 H 0.54313 0.76365 0.46868 0.0
H584 H 0.59775 0.83374 0.48215 0.0
H585 H 0.59433 0.82942 0.54955 0.0
C586 C 0.55578 0.85754 0.6772 0.0
C587 C 0.57515 0.86911 0.70035 0.0
C588 C 0.55015 0.83623 0.66165 0.0
C589 C 0.56361 0.82603 0.66934 0.0
C590 C 0.58202 0.83686 0.69434 0.0
C591 C 0.5877 0.85817 0.70978 0.0
C592 C 0.56044 0.8057 0.64813 0.0
C593 C 0.56233 0.80751 0.60965 0.0
C594 C 0.55867 0.78601 0.66564 0.0
C595 C 0.55492 0.7824 0.70593 0.0
C596 C 0.56941 0.7775 0.72749 0.0
C597 C 0.56593 0.77427 0.76544 0.0
C598 C 0.54796 0.77583 0.78215 0.0
C599 C 0.5334 0.78058 0.76095 0.0
C600 C 0.5368 0.78381 0.723 0.0
C601 C 0.60269 0.75406 0.55777 0.0
C602 C 0.59043 0.73006 0.5633 0.0
C603 C 0.5936 0.7677 0.56977 0.0
C604 C 0.57201 0.7576 0.58728 0.0
C605 C 0.55902 0.73348 0.59046 0.0
C606 C 0.56811 0.71981 0.57841 0.0
C607 C 0.56466 0.77245 0.6064 0.0
C608 C 0.5609 0.76967 0.64452 0.0
C609 C 0.56436 0.79105 0.58849 0.0
C610 C 0.56651 0.79383 0.5479 0.0
C611 C 0.5521 0.77535 0.52462 0.0
C612 C 0.55425 0.77795 0.48644 0.0
C613 C 0.5707 0.79897 0.47115 0.0
C614 C 0.58501 0.81747 0.49403 0.0
C615 C 0.58294 0.81497 0.53224 0.0
H616 H 0.57234 0.80094 0.44158 0.0
H617 H 0.5453 0.77333 0.81153 0.0
H618 H 0.68789 0.55124 -0.00304 0.0
H619 H 0.719 0.54483 0.9776 0.0
H620 H 0.76083 0.5864 0.06843 0.0
H621 H 0.73012 0.59419 0.0863 0.0
H622 H 0.78499 0.60089 0.0133 0.0
H623 H 0.7395 0.52489 0.05796 0.0
H624 H 0.7049 0.48682 0.06782 0.0
H625 H 0.70173 0.47221 0.95229 0.0
H626 H 0.73613 0.51033 0.94162 0.0
H627 H 0.8578 0.54695 0.95581 0.0
H628 H 0.82097 0.5399 0.98068 0.0
H629 H 0.82348 0.59303 0.91035 0.0
H630 H 0.8608 0.6008 0.88635 0.0
H631 H 0.77865 0.52903 0.96274 0.0
H632 H 0.81077 0.62755 0.95842 0.0
H633 H 0.84779 0.66433 0.95813 0.0
H634 H 0.88107 0.63143 0.0113 0.0
H635 H 0.84421 0.59457 0.01243 0.0
C636 C 0.7035 0.55853 0.01339 0.0
C637 C 0.70666 0.57332 0.04304 0.0
C638 C 0.72131 0.55474 0.00239 0.0
C639 C 0.74238 0.56501 0.02156 0.0
C640 C 0.74486 0.57841 0.05292 0.0
C641 C 0.72726 0.58275 0.06331 0.0
C642 C 0.76259 0.56417 0.00626 0.0
C643 C 0.78351 0.58506 0.0026 0.0
C644 C 0.76105 0.54354 -0.00725 0.0
C645 C 0.74032 0.52057 -0.00104 0.0
C646 C 0.73133 0.51364 0.0346 0.0
C647 C 0.71177 0.49203 0.04035 0.0
C648 C 0.7011 0.47712 0.01069 0.0
C649 C 0.71001 0.48378 0.97523 0.0
C650 C 0.72956 0.50538 0.96933 0.0
C651 C 0.85022 0.55672 0.94486 0.0
C652 C 0.86241 0.57476 0.91963 0.0
C653 C 0.82913 0.55264 0.95914 0.0
C654 C 0.81982 0.5664 0.94816 0.0
C655 C 0.83068 0.58262 0.9199 0.0
C656 C 0.85194 0.58696 0.90603 0.0
C657 C 0.80048 0.56576 0.96911 0.0
C658 C 0.77992 0.54469 0.97378 0.0
C659 C 0.8026 0.58602 0.98513 0.0
C660 C 0.82476 0.60826 0.98515 0.0
C661 C 0.82597 0.62821 0.9702 0.0
C662 C 0.84692 0.64906 0.96987 0.0
C663 C 0.86678 0.6502 0.98458 0.0
C664 C 0.8657 0.63051 -0.00019 0.0
C665 C 0.84478 0.60964 0.00029 0.0
H666 H 0.88299 0.66635 0.98424 0.0
H667 H 0.68595 0.4604 0.0152 0.0
H668 H 0.13575 0.6946 0.35687 0.0
H669 H 0.17492 0.72095 0.33526 0.0
H670 H 0.17307 0.77788 0.38766 0.0
H671 H 0.13402 0.75167 0.40955 0.0
H672 H 0.18483 0.7547 0.2875 0.0
H673 H 0.22659 0.8201 0.40866 0.0
H674 H 0.22819 0.81937 0.47637 0.0
H675 H 0.2131 0.749 0.47303 0.0
H676 H 0.21174 0.7494 0.4053 0.0
H677 H 0.25705 0.87005 0.23536 0.0
H678 H 0.2287 0.83197 0.25809 0.0
H679 H 0.28311 0.82451 0.3081 0.0
H680 H 0.31165 0.86284 0.28576 0.0
H681 H 0.25059 0.81657 0.35684 0.0
H682 H 0.25168 0.78923 0.2372 0.0
H683 H 0.25116 0.78867 0.1694 0.0
H684 H 0.18308 0.77996 0.16957 0.0
H685 H 0.1833 0.78081 0.23736 0.0
C686 C 0.14392 0.71263 0.36467 0.0
C687 C 0.13172 0.72109 0.3847 0.0
C688 C 0.16627 0.72767 0.35214 0.0
C689 C 0.1769 0.75137 0.35975 0.0
C690 C 0.16533 0.75961 0.38179 0.0
C691 C 0.14295 0.7446 0.39423 0.0
C692 C 0.19878 0.76792 0.34127 0.0
C693 C 0.19935 0.76808 0.30266 0.0
C694 C 0.21791 0.78504 0.36105 0.0
C695 C 0.21893 0.78475 0.40184 0.0
C696 C 0.22375 0.80451 0.42234 0.0
C697 C 0.22458 0.80414 0.46074 0.0
C698 C 0.2207 0.78414 0.47899 0.0
C699 C 0.21603 0.76447 0.45887 0.0
C700 C 0.21519 0.76474 0.42047 0.0
C701 C 0.26307 0.8601 0.25041 0.0
C702 C 0.28658 0.86953 0.25895 0.0
C703 C 0.24683 0.83826 0.26332 0.0
C704 C 0.25378 0.82536 0.28478 0.0
C705 C 0.27737 0.83419 0.29164 0.0
C706 C 0.29366 0.85606 0.27869 0.0
C707 C 0.23617 0.80391 0.30309 0.0
C708 C 0.23634 0.80289 0.34167 0.0
C709 C 0.21786 0.7858 0.28327 0.0
C710 C 0.21756 0.78519 0.24243 0.0
C711 C 0.23665 0.78735 0.22279 0.0
C712 C 0.2364 0.78696 0.18435 0.0
C713 C 0.21711 0.78431 0.16519 0.0
C714 C 0.19801 0.782 0.18444 0.0
C715 C 0.19817 0.7824 0.22289 0.0
H716 H 0.21695 0.78401 0.13542 0.0
H717 H 0.22134 0.78389 0.50872 0.0
H718 H 0.37779 0.13867 0.75626 0.0
H719 H 0.39043 0.17744 0.73322 0.0
H720 H 0.455 0.18381 0.6986 0.0
H721 H 0.44243 0.14492 0.72131 0.0
H722 H 0.42575 0.22196 0.73889 0.0
H723 H 0.46381 0.20389 0.60972 0.0
H724 H 0.46139 0.17068 0.57601 0.0
H725 H 0.39242 0.12728 0.61595 0.0
H726 H 0.39433 0.16028 0.64935 0.0
H727 H 0.45756 0.3184 0.62613 0.0
H728 H 0.46331 0.28805 0.65255 0.0
H729 H 0.40176 0.23637 0.59791 0.0
H730 H 0.39583 0.26655 0.57145 0.0
H731 H 0.43499 0.2235 0.60321 0.0
H732 H 0.39643 0.25267 0.6803 0.0
H733 H 0.3927 0.28284 0.71338 0.0
H734 H 0.45346 0.29969 0.77641 0.0
H735 H 0.45771 0.2698 0.74329 0.0
C736 C 0.39498 0.14857 0.74483 0.0
C737 C 0.40893 0.13856 0.73997 0.0
C738 C 0.4022 0.17077 0.73171 0.0
C739 C 0.42343 0.18326 0.71349 0.0
C740 C 0.4384 0.17428 0.7121 0.0
C741 C 0.4312 0.15207 0.72523 0.0
C742 C 0.42824 0.20389 0.69167 0.0
C743 C 0.4282 0.2225 0.70933 0.0
C744 C 0.43084 0.20431 0.65295 0.0
C745 C 0.42935 0.18447 0.63239 0.0
C746 C 0.44812 0.18726 0.61118 0.0
C747 C 0.44683 0.16848 0.59213 0.0
C748 C 0.42679 0.14686 0.59395 0.0
C749 C 0.40796 0.144 0.61465 0.0
C750 C 0.40914 0.16273 0.63366 0.0
C751 C 0.44569 0.30063 0.61865 0.0
C752 C 0.42602 0.29482 0.59717 0.0
C753 C 0.44896 0.28331 0.63395 0.0
C754 C 0.4327 0.26 0.62776 0.0
C755 C 0.41444 0.25427 0.60315 0.0
C756 C 0.41107 0.27155 0.58806 0.0
C757 C 0.43272 0.24166 0.65047 0.0
C758 C 0.43341 0.22336 0.63292 0.0
C759 C 0.43005 0.24122 0.68917 0.0
C760 C 0.42756 0.25923 0.70901 0.0
C761 C 0.40911 0.26296 0.70098 0.0
C762 C 0.40688 0.27998 0.71977 0.0
C763 C 0.42287 0.29322 0.74691 0.0
C764 C 0.44111 0.28945 0.75533 0.0
C765 C 0.44345 0.27248 0.73656 0.0
H766 H 0.42109 0.30634 0.76153 0.0
H767 H 0.42584 0.13234 0.57924 0.0
H768 H 0.40324 0.32991 0.73479 0.0
H769 H 0.3873 0.31948 0.79684 0.0
H770 H 0.32017 0.30246 0.75506 0.0
H771 H 0.33584 0.31205 0.69293 0.0
H772 H 0.37159 0.34104 0.83429 0.0
H773 H 0.27733 0.26521 0.80854 0.0
H774 H 0.25764 0.23023 0.77006 0.0
H775 H 0.32068 0.22842 0.76075 0.0
H776 H 0.34069 0.26316 0.79963 0.0
H777 H 0.2935 0.34898 0.94123 0.0
H778 H 0.30464 0.33545 0.887 0.0
H779 H 0.31552 0.28863 0.95415 0.0
H780 H 0.30429 0.30211 0.00899 0.0
H781 H 0.29609 0.27471 0.87177 0.0
H782 H 0.36053 0.32841 0.94678 0.0
H783 H 0.38064 0.36259 -0.01306 0.0
H784 H 0.37964 0.40572 0.90039 0.0
H785 H 0.35943 0.37174 0.85975 0.0
C786 C 0.38501 0.32358 0.73882 0.0
C787 C 0.3708 0.32198 0.70916 0.0
C788 C 0.37591 0.31757 0.77423 0.0
C789 C 0.35251 0.31002 0.78061 0.0
C790 C 0.33816 0.30774 0.75076 0.0
C791 C 0.34719 0.31347 0.71529 0.0
C792 C 0.34368 0.30742 0.81867 0.0
C793 C 0.35535 0.32625 0.84264 0.0
C794 C 0.32259 0.28804 0.82993 0.0
C795 C 0.31055 0.2669 0.80692 0.0
C796 C 0.28697 0.25727 0.79852 0.0
C797 C 0.27576 0.23749 0.77657 0.0
C798 C 0.28791 0.22713 0.76292 0.0
C799 C 0.3113 0.23649 0.77126 0.0
C800 C 0.3226 0.25625 0.79322 0.0
C801 C 0.29754 0.33528 0.94436 0.0
C802 C 0.29847 0.32689 0.97932 0.0
C803 C 0.3038 0.32752 0.91337 0.0
C804 C 0.3111 0.3113 0.91688 0.0
C805 C 0.30984 0.30113 0.95112 0.0
C806 C 0.30349 0.30889 0.98233 0.0
C807 C 0.32375 0.30851 0.88608 0.0
C808 C 0.31273 0.28895 0.86356 0.0
C809 C 0.34573 0.32692 0.87636 0.0
C810 C 0.35836 0.34752 0.90033 0.0
C811 C 0.36451 0.34517 0.93639 0.0
C812 C 0.37594 0.36451 0.95923 0.0
C813 C 0.38134 0.3863 0.9463 0.0
C814 C 0.37544 0.38882 0.91039 0.0
C815 C 0.36407 0.36954 0.8874 0.0
H816 H 0.39015 0.40124 0.96406 0.0
H817 H 0.27919 0.21184 0.7459 0.0
H818 H 0.96774 0.28945 0.30609 0.0
H819 H 0.98165 0.28141 0.2488 0.0
H820 H 0.95951 0.32271 0.18903 0.0
H821 H 0.94483 0.32998 0.24563 0.0
H822 H 0.95339 0.28843 0.14791 0.0
H823 H 0.01578 0.34535 0.22531 0.0
H824 H 0.03926 0.3582 0.28196 0.0
H825 H 0.05636 0.3047 0.26867 0.0
H826 H 0.03274 0.29139 0.21213 0.0
H827 H 0.05855 0.37064 0.04499 0.0
H828 H 0.04167 0.35208 0.10316 0.0
H829 H 0.0039 0.2862 0.04822 0.0
H830 H 0.0203 0.30497 -0.01076 0.0
H831 H 0.03805 0.31955 0.14725 0.0
H832 H 0.94981 0.25837 0.08548 0.0
H833 H 0.9276 0.2528 0.02834 0.0
H834 H 0.96427 0.326 0.00962 0.0
H835 H 0.98644 0.33196 0.06684 0.0
C836 C 0.96555 0.2965 0.28058 0.0
C837 C 0.95562 0.3107 0.28033 0.0
C838 C 0.97348 0.29187 0.24792 0.0
C839 C 0.97198 0.30178 0.21476 0.0
C840 C 0.96084 0.31485 0.21427 0.0
C841 C 0.95262 0.31917 0.24672 0.0
C842 C 0.98402 0.3009 0.18119 0.0
C843 C 0.97182 0.29476 0.14783 0.0
C844 C 0.00808 0.30921 0.18102 0.0
C845 C 0.02228 0.3172 0.21488 0.0
C846 C 0.02444 0.33626 0.23464 0.0
C847 C 0.03777 0.34362 0.26669 0.0
C848 C 0.04922 0.33222 0.27898 0.0
C849 C 0.04742 0.31347 0.25918 0.0
C850 C 0.03406 0.306 0.22715 0.0
C851 C 0.04694 0.35214 0.04527 0.0
C852 C 0.04027 0.33934 0.01249 0.0
C853 C 0.03745 0.34148 0.07866 0.0
C854 C 0.02123 0.31781 0.07993 0.0
C855 C 0.01613 0.30456 0.0477 0.0
C856 C 0.0255 0.3153 0.01408 0.0
C857 C 0.00761 0.30827 0.11396 0.0
C858 C 0.01946 0.31223 0.14743 0.0
C859 C 0.98338 0.29889 0.11419 0.0
C860 C 0.96996 0.29554 0.08006 0.0
C861 C 0.95307 0.27324 0.06915 0.0
C862 C 0.9405 0.27003 0.03679 0.0
C863 C 0.94459 0.28902 0.01529 0.0
C864 C 0.96117 0.31129 0.02622 0.0
C865 C 0.97374 0.3146 0.0586 0.0
H866 H 0.93487 0.28649 -0.00979 0.0
H867 H 0.05955 0.33795 0.30379 0.0
H868 H 0.67809 -0.00048 0.6498 0.0
H869 H 0.70148 0.01842 0.59526 0.0
H870 H 0.65329 0.96149 0.52789 0.0
H871 H 0.62945 0.9428 0.58205 0.0
H872 H 0.70684 0.98491 0.51208 0.0
H873 H 0.64002 0.9977 0.52887 0.0
H874 H 0.61801 0.01015 0.56776 0.0
H875 H 0.67917 0.07581 0.5851 0.0
H876 H 0.70159 0.06355 0.5467 0.0
H877 H 0.69176 0.00806 0.33093 0.0
H878 H 0.69452 0.99757 0.39406 0.0
H879 H 0.72145 0.06846 0.42784 0.0
H880 H 0.71691 0.0785 0.36492 0.0
H881 H 0.68925 0.04479 0.46884 0.0
H882 H 0.75307 0.03739 0.4357 0.0
H883 H 0.77721 0.02654 0.39919 0.0
H884 H 0.72795 0.95477 0.41527 0.0
H885 H 0.70331 0.96515 0.45141 0.0
C886 C 0.67275 0.99084 0.62346 0.0
C887 C 0.65187 0.96988 0.61987 0.0
C888 C 0.68618 0.00157 0.5925 0.0
C889 C 0.67909 0.9912 0.55786 0.0
C890 C 0.65908 0.96955 0.55461 0.0
C891 C 0.64539 0.95905 0.58539 0.0
C892 C 0.69008 0.0044 0.52433 0.0
C893 C 0.70322 0.9981 0.50235 0.0
C894 C 0.68603 0.02219 0.51283 0.0
C895 C 0.67249 0.02964 0.53536 0.0
C896 C 0.64878 0.01472 0.54124 0.0
C897 C 0.63624 0.02174 0.56313 0.0
C898 C 0.6472 0.04373 0.57899 0.0
C899 C 0.67071 0.05876 0.57287 0.0
C900 C 0.68334 0.05179 0.55105 0.0
C901 C 0.69876 0.02146 0.35175 0.0
C902 C 0.7039 0.04399 0.34343 0.0
C903 C 0.7006 0.01553 0.38785 0.0
C904 C 0.70842 0.03225 0.41592 0.0
C905 C 0.71526 0.05521 0.40681 0.0
C906 C 0.71269 0.06096 0.37094 0.0
C907 C 0.70573 0.02499 0.45503 0.0
C908 C 0.69388 0.03228 0.4784 0.0
C909 C 0.71153 0.00853 0.46795 0.0
C910 C 0.72628 0.00209 0.44622 0.0
C911 C 0.74729 0.01929 0.43127 0.0
C912 C 0.76108 0.01322 0.41066 0.0
C913 C 0.75411 0.98998 0.40489 0.0
C914 C 0.73334 0.97276 0.41979 0.0
C915 C 0.71947 0.97874 0.44042 0.0
H916 H 0.76481 0.98532 0.38892 0.0
H917 H 0.63746 0.04914 0.59594 0.0
H918 H 0.69392 0.71196 0.65001 0.0
H919 H 0.70742 0.706 0.70953 0.0
H920 H 0.64765 0.70157 0.76231 0.0
H921 H 0.63401 0.70736 0.70324 0.0
H922 H 0.71345 0.72328 0.78836 0.0
H923 H 0.62038 0.64771 0.79741 0.0
H924 H 0.58791 0.62374 0.7557 0.0
H925 H 0.63571 0.63339 0.6694 0.0
H926 H 0.66833 0.65695 0.71074 0.0
H927 H 0.68321 0.6713 0.96586 0.0
H928 H 0.68898 0.69099 0.90691 0.0
H929 H 0.68489 0.63212 0.85096 0.0
H930 H 0.67839 0.61209 0.90966 0.0
H931 H 0.65623 0.6425 0.82188 0.0
H932 H 0.73575 0.68537 0.85441 0.0
H933 H 0.76954 0.70928 0.89364 0.0
H934 H 0.75265 0.76333 0.89393 0.0
H935 H 0.71856 0.73962 0.85512 0.0
C936 C 0.6841 0.71053 0.67452 0.0
C937 C 0.66266 0.70957 0.672 0.0
C938 C 0.6919 0.70727 0.70847 0.0
C939 C 0.67833 0.70307 0.74 0.0
C940 C 0.65825 0.70468 0.73811 0.0
C941 C 0.65042 0.70783 0.70433 0.0
C942 C 0.68222 0.69246 0.77271 0.0
C943 C 0.70109 0.70563 0.79586 0.0
C944 C 0.66635 0.66925 0.78164 0.0
C945 C 0.64677 0.65428 0.75705 0.0
C946 C 0.62392 0.64456 0.7696 0.0
C947 C 0.60549 0.63105 0.746 0.0
C948 C 0.60971 0.62709 0.70985 0.0
C949 C 0.63239 0.63649 0.69731 0.0
C950 C 0.65087 0.64993 0.72082 0.0
C951 C 0.6839 0.66272 0.94102 0.0
C952 C 0.68004 0.64006 0.9422 0.0
C953 C 0.68739 0.67406 0.90738 0.0
C954 C 0.68747 0.66306 0.87452 0.0
C955 C 0.68482 0.64089 0.87597 0.0
C956 C 0.68105 0.62946 0.90949 0.0
C957 C 0.68736 0.67335 0.83853 0.0
C958 C 0.66896 0.66008 0.81457 0.0
C959 C 0.70397 0.69627 0.82875 0.0
C960 C 0.72449 0.71063 0.85205 0.0
C961 C 0.73913 0.70228 0.86306 0.0
C962 C 0.75837 0.71582 0.88519 0.0
C963 C 0.76322 0.73779 0.89633 0.0
C964 C 0.74887 0.7463 0.8853 0.0
C965 C 0.7296 0.73283 0.86319 0.0
H966 H 0.77811 0.74824 0.91346 0.0
H967 H 0.59542 0.6167 0.6916 0.0
H968 H 0.00239 0.69552 0.31907 0.0
H969 H 0.98195 0.69418 0.26239 0.0
H970 H 0.04174 0.70759 0.19874 0.0
H971 H 0.06209 0.7084 0.25514 0.0
H972 H 0.01145 0.72751 0.17077 0.0
H973 H 0.01106 0.65636 0.2118 0.0
H974 H 0.00425 0.62807 0.26071 0.0
H975 H 0.93463 0.61425 0.27281 0.0
H976 H 0.94122 0.6428 0.22438 0.0
H977 H 0.98795 0.67075 0.0011 0.0
H978 H -0.0004 0.69008 0.0606 0.0
H979 H 0.93133 0.64438 0.10337 0.0
H980 H 0.92021 0.62404 0.0444 0.0
H981 H 0.95923 0.64394 0.14743 0.0
H982 H 0.95566 0.70603 0.09299 0.0
H983 H 0.96155 0.73536 0.04664 0.0
H984 H 0.03494 0.76772 0.06111 0.0
H985 H 0.02954 0.7384 0.10716 0.0
C986 C 0.01142 0.69892 0.29308 0.0
C987 C 0.03364 0.70166 0.29125 0.0
C988 C -0.00022 0.69827 0.26084 0.0
C989 C 0.0104 0.70076 0.2266 0.0
C990 C 0.0334 0.70583 0.22502 0.0
C991 C 0.04489 0.70604 0.25716 0.0
C992 C 0.9964 0.69319 0.19281 0.0
C993 C -0.0001 0.70931 0.16539 0.0
C994 C 0.98087 0.66951 0.18668 0.0
C995 C 0.97669 0.65183 0.21483 0.0
C996 C 0.99435 0.64736 0.22506 0.0
C997 C 0.99054 0.6313 0.25267 0.0
C998 C 0.96904 0.61941 0.26993 0.0
C999 C 0.95128 0.6235 0.25948 0.0
C1000 C 0.95504 0.63962 0.23196 0.0
C1001 C 0.97536 0.66514 0.02307 0.0
C1002 C 0.95332 0.64582 0.01851 0.0
C1003 C 0.98192 0.67635 0.05701 0.0
C1004 C 0.96628 0.6689 0.08657 0.0
C1005 C 0.94375 0.65042 0.08113 0.0
C1006 C 0.93741 0.6388 0.04751 0.0
C1007 C 0.97442 0.6782 0.12411 0.0
C1008 C 0.97003 0.6623 0.15253 0.0
C1009 C 0.98876 0.70214 0.13115 0.0
C1010 C 0.99217 0.71991 0.10347 0.0
C1011 C 0.97307 0.71931 0.08613 0.0
C1012 C 0.97632 0.73595 0.05993 0.0
C1013 C -0.0014 0.75338 0.05091 0.0
C1014 C 0.01768 0.75422 0.06813 0.0
C1015 C 0.01453 0.73761 0.09435 0.0
H1016 H 0.00108 0.76625 0.03061 0.0
H1017 H 0.96613 0.60701 0.29134 0.0
H1018 H 0.3208 0.00082 0.31999 0.0
H1019 H 0.31855 0.02031 0.37557 0.0
H1020 H 0.30816 0.96221 0.44116 0.0
H1021 H 0.31107 0.94285 0.38587 0.0
H1022 H 0.2799 0.98831 0.4581 0.0
H1023 H 0.35729 0.99583 0.44183 0.0
H1024 H 0.39135 0.00593 0.40319 0.0
H1025 H 0.40066 0.07351 0.38501 0.0
H1026 H 0.3664 0.06361 0.42314 0.0
H1027 H 0.31824 0.01574 0.63994 0.0
H1028 H 0.30514 0.00312 0.57727 0.0
H1029 H 0.35133 0.07216 0.53772 0.0
H1030 H 0.36569 0.08429 0.60035 0.0
H1031 H 0.35861 0.04581 0.50055 0.0
H1032 H 0.28881 0.04321 0.53051 0.0
H1033 H 0.25423 0.03484 0.56634 0.0
H1034 H 0.22876 0.9621 0.55572 0.0
H1035 H 0.26335 0.97 0.52028 0.0
C1036 C 0.3176 0.99202 0.34618 0.0
C1037 C 0.31636 0.97047 0.34886 0.0
C1038 C 0.31619 0.00311 0.37774 0.0
C1039 C 0.31306 0.99255 0.41215 0.0
C1040 C 0.31034 0.97042 0.41463 0.0
C1041 C 0.31224 0.95953 0.3832 0.0
C1042 C 0.31619 0.00586 0.44595 0.0
C1043 C 0.29701 0.00092 0.4677 0.0
C1044 C 0.33845 0.02288 0.45727 0.0
C1045 C 0.35919 0.0289 0.43489 0.0
C1046 C 0.3665 0.01276 0.42931 0.0
C1047 C 0.38585 0.01846 0.40757 0.0
C1048 C 0.39812 0.04033 0.39155 0.0
C1049 C 0.39111 0.05656 0.39736 0.0
C1050 C 0.37174 0.05092 0.41903 0.0
C1051 C 0.32519 0.02831 0.61792 0.0
C1052 C 0.34307 0.05089 0.62468 0.0
C1053 C 0.31753 0.02116 0.58206 0.0
C1054 C 0.32706 0.03671 0.55257 0.0
C1055 C 0.34377 0.05979 0.5599 0.0
C1056 C 0.35195 0.06673 0.59561 0.0
C1057 C 0.32226 0.02808 0.51414 0.0
C1058 C 0.34125 0.03378 0.49116 0.0
C1059 C 0.2997 0.01215 0.50154 0.0
C1060 C 0.27878 0.00723 0.52284 0.0
C1061 C 0.27592 0.02542 0.53601 0.0
C1062 C 0.2563 0.02076 0.55623 0.0
C1063 C 0.23932 0.99795 0.56333 0.0
C1064 C 0.24192 0.97976 0.55018 0.0
C1065 C 0.26152 0.98432 0.52995 0.0
H1066 H 0.22414 0.99438 0.579 0.0
H1067 H 0.41309 0.04471 0.37472 0.0
H1068 H 0.3855 0.43435 0.04994 0.0
H1069 H 0.42553 0.46525 0.04222 0.0
H1070 H 0.44846 0.41551 0.04884 0.0
H1071 H 0.4085 0.38444 0.05619 0.0
H1072 H 0.47294 0.45456 0.09514 0.0
H1073 H 0.45029 0.43681 0.96864 0.0
H1074 H 0.42541 0.4299 0.91455 0.0
H1075 H 0.43543 0.49831 0.92411 0.0
H1076 H 0.4604 0.50563 0.97833 0.0
H1077 H 0.58939 0.531 0.04646 0.0
H1078 H 0.55004 0.49819 0.04746 0.0
H1079 H 0.52336 0.54387 0.02549 0.0
H1080 H 0.56264 0.57669 0.02361 0.0
H1081 H 0.50082 0.50564 0.98573 0.0
H1082 H 0.52265 0.52347 0.11257 0.0
H1083 H 0.54711 0.53067 0.16735 0.0
H1084 H 0.53762 0.46241 0.15901 0.0
H1085 H 0.51334 0.45491 0.10386 0.0
C1086 C 0.39904 0.42996 0.04966 0.0
C1087 C 0.39382 0.40695 0.05385 0.0
C1088 C 0.42187 0.44762 0.04509 0.0
C1089 C 0.43987 0.4426 0.04489 0.0
C1090 C 0.43476 0.41968 0.04896 0.0
C1091 C 0.41192 0.40198 0.05307 0.0
C1092 C 0.46411 0.4614 0.04149 0.0
C1093 C 0.47919 0.46553 0.07101 0.0
C1094 C 0.47198 0.47598 0.01037 0.0
C1095 C 0.45704 0.47169 0.97773 0.0
C1096 C 0.44705 0.45032 0.95937 0.0
C1097 C 0.43296 0.44634 0.92865 0.0
C1098 C 0.42872 0.4636 0.91603 0.0
C1099 C 0.43869 0.48494 0.93396 0.0
C1100 C 0.45288 0.48904 0.96462 0.0
C1101 C 0.57517 0.53408 0.04175 0.0
C1102 C 0.57918 0.55651 0.03516 0.0
C1103 C 0.55267 0.5153 0.04245 0.0
C1104 C 0.53374 0.51862 0.03705 0.0
C1105 C 0.53771 0.5409 0.02975 0.0
C1106 C 0.56019 0.55966 0.02881 0.0
C1107 C 0.50976 0.49893 0.03951 0.0
C1108 C 0.49468 0.49464 0.00984 0.0
C1109 C 0.50184 0.48428 0.07065 0.0
C1110 C 0.51638 0.48872 0.10386 0.0
C1111 C 0.52592 0.51006 0.12225 0.0
C1112 C 0.53973 0.51418 0.15339 0.0
C1113 C 0.54397 0.49703 0.16659 0.0
C1114 C 0.53435 0.47569 0.14872 0.0
C1115 C 0.52055 0.47149 0.11754 0.0
H1116 H 0.55466 0.50026 0.1907 0.0
H1117 H 0.41777 0.46046 0.89228 0.0
H1118 H 0.97829 0.58414 0.36662 0.0
H1119 H 0.96988 0.54413 0.36581 0.0
H1120 H 0.04276 0.56755 0.36505 0.0
H1121 H 0.05142 0.60771 0.36631 0.0
H1122 H 0.01591 0.53108 0.31413 0.0
H1123 H 0.01695 0.55011 0.4419 0.0
H1124 H 0.00587 0.56422 0.49648 0.0
H1125 H 0.93511 0.51146 0.48177 0.0
H1126 H 0.94571 0.49725 0.4267 0.0
H1127 H 0.01257 0.42708 0.36216 0.0
H1128 H 0.02046 0.46681 0.35975 0.0
H1129 H 0.9484 0.44325 0.3788 0.0
H1130 H 0.9404 0.4034 0.38213 0.0
H1131 H 0.97445 0.47997 0.41959 0.0
H1132 H 0.97284 0.46037 0.2926 0.0
H1133 H 0.9834 0.44596 0.23781 0.0
H1134 H 0.05414 0.49935 0.24988 0.0
H1135 H 0.04407 0.51391 0.30507 0.0
C1136 C 0.99256 0.58083 0.36603 0.0
C1137 C 0.01554 0.59912 0.36672 0.0
C1138 C 0.98771 0.55795 0.36569 0.0
C1139 C 0.00571 0.55295 0.36567 0.0
C1140 C 0.02865 0.57112 0.36513 0.0
C1141 C 0.03354 0.59402 0.36596 0.0
C1142 C 0.00056 0.52873 0.36709 0.0
C1143 C 0.00709 0.51994 0.33733 0.0
C1144 C 0.98855 0.51414 0.39701 0.0
C1145 C 0.98209 0.52277 0.42993 0.0
C1146 C -0.00101 0.54167 0.45005 0.0
C1147 C 0.9928 0.54966 0.48112 0.0
C1148 C 0.9698 0.53877 0.49253 0.0
C1149 C 0.95292 0.51989 0.47286 0.0
C1150 C 0.95901 0.51186 0.44173 0.0
C1151 C 0.99835 0.4303 0.36578 0.0
C1152 C 0.97582 0.41202 0.37221 0.0
C1153 C 0.00289 0.45305 0.36422 0.0
C1154 C 0.98497 0.458 0.36852 0.0
C1155 C 0.96249 0.43983 0.3753 0.0
C1156 C 0.95795 0.41706 0.37713 0.0
C1157 C 0.98977 0.48217 0.36654 0.0
C1158 C 0.98319 0.49101 0.39625 0.0
C1159 C 0.00162 0.49676 0.33644 0.0
C1160 C 0.00773 0.4881 0.30318 0.0
C1161 C 0.99068 0.46894 0.28374 0.0
C1162 C 0.99657 0.46076 0.25258 0.0
C1163 C 0.01943 0.47169 0.24042 0.0
C1164 C 0.03645 0.49088 0.25935 0.0
C1165 C 0.03065 0.49912 0.29055 0.0
H1166 H 0.02396 0.46534 0.21629 0.0
H1167 H 0.96507 0.54489 0.51671 0.0
H1168 H 0.5863 0.02081 0.7093 0.0
H1169 H 0.55442 0.02873 0.71015 0.0
H1170 H 0.50554 0.95568 0.70767 0.0
H1171 H 0.53737 0.9475 0.70695 0.0
H1172 H 0.49518 0.98174 0.65817 0.0
H1173 H 0.51423 0.98249 0.78592 0.0
H1174 H 0.54023 0.99452 0.83963 0.0
H1175 H 0.55777 0.06498 0.82272 0.0
H1176 H 0.53211 0.05341 0.76854 0.0
H1177 H 0.39531 0.9872 0.70378 0.0
H1178 H 0.42667 0.9786 0.70223 0.0
H1179 H 0.47605 0.0505 0.72119 0.0
H1180 H 0.44464 0.05917 0.72388 0.0
H1181 H 0.48623 0.02464 0.76225 0.0
H1182 H 0.46817 0.02496 0.63486 0.0
H1183 H 0.44314 0.01399 0.58003 0.0
H1184 H 0.42495 0.94316 0.59439 0.0
H1185 H 0.44964 0.95367 0.64962 0.0
C1186 C 0.56879 0.00638 0.70883 0.0
C1187 C 0.56438 0.9835 0.70817 0.0
C1188 C 0.5506 0.01097 0.70945 0.0
C1189 C 0.52768 0.99278 0.70928 0.0
C1190 C 0.52316 0.96993 0.70789 0.0
C1191 C 0.54136 0.96531 0.7076 0.0
C1192 C 0.50845 0.99771 0.71076 0.0
C1193 C 0.49298 0.99083 0.68112 0.0
C1194 C 0.50606 0.01013 0.74028 0.0
C1195 C 0.52142 0.01711 0.77295 0.0
C1196 C 0.52378 0.00058 0.79346 0.0
C1197 C 0.53842 0.00731 0.82403 0.0
C1198 C 0.55069 0.03051 0.83452 0.0
C1199 C 0.54828 0.04702 0.81453 0.0
C1200 C 0.53367 0.04038 0.78391 0.0
C1201 C 0.41284 0.00123 0.70752 0.0
C1202 C 0.41748 0.0239 0.7138 0.0
C1203 C 0.43078 0.99628 0.70646 0.0
C1204 C 0.45376 0.01395 0.711 0.0
C1205 C 0.45844 0.03659 0.71753 0.0
C1206 C 0.44047 0.04152 0.71898 0.0
C1207 C 0.47287 0.00875 0.70954 0.0
C1208 C 0.48836 0.01556 0.73922 0.0
C1209 C 0.47539 0.99644 0.67987 0.0
C1210 C 0.46059 0.99008 0.64659 0.0
C1211 C 0.4587 0.00702 0.62649 0.0
C1212 C 0.44459 0.00089 0.59531 0.0
C1213 C 0.43242 0.97788 0.58379 0.0
C1214 C 0.43437 0.96097 0.60337 0.0
C1215 C 0.44843 0.96701 0.6346 0.0
H1216 H 0.42151 0.97317 0.55964 0.0
H1217 H 0.56201 0.03568 0.8582 0.0
H1218 H 0.56636 0.61396 0.55005 0.0
H1219 H 0.53593 0.57371 0.55606 0.0
H1220 H 0.57681 0.56259 0.63667 0.0
H1221 H 0.60781 0.60239 0.62902 0.0
H1222 H 0.55849 0.52766 0.59579 0.0
H1223 H 0.52865 0.56917 0.65962 0.0
H1224 H 0.51743 0.59875 0.66904 0.0
H1225 H 0.46834 0.56978 0.58083 0.0
H1226 H 0.47948 0.5402 0.57054 0.0
H1227 H 0.43313 0.43429 0.65775 0.0
H1228 H 0.46519 0.47401 0.65671 0.0
H1229 H 0.49189 0.45888 0.55902 0.0
H1230 H 0.46052 0.41878 0.56122 0.0
H1231 H 0.47688 0.50704 0.61335 0.0
H1232 H 0.54898 0.4927 0.5514 0.0
H1233 H 0.56107 0.46338 0.55254 0.0
H1234 H 0.52715 0.43836 0.65641 0.0
H1235 H 0.51513 0.46771 0.65613 0.0
C1236 C 0.56884 0.60293 0.56908 0.0
C1237 C 0.58942 0.61141 0.58928 0.0
C1238 C 0.55137 0.57994 0.57266 0.0
C1239 C 0.55384 0.56515 0.59735 0.0
C1240 C 0.57445 0.5736 0.61743 0.0
C1241 C 0.59213 0.59643 0.61319 0.0
C1242 C 0.53509 0.5408 0.60191 0.0
C1243 C 0.54065 0.52318 0.59973 0.0
C1244 C 0.51186 0.53487 0.60797 0.0
C1245 C 0.50505 0.55259 0.6141 0.0
C1246 C 0.51557 0.5692 0.64206 0.0
C1247 C 0.50921 0.58596 0.64758 0.0
C1248 C 0.49222 0.58618 0.62549 0.0
C1249 C 0.48152 0.56961 0.59789 0.0
C1250 C 0.48783 0.55283 0.59223 0.0
C1251 C 0.44596 0.43942 0.63622 0.0
C1252 C 0.44442 0.42345 0.60967 0.0
C1253 C 0.46424 0.46215 0.63558 0.0
C1254 C 0.48117 0.46947 0.60803 0.0
C1255 C 0.47943 0.45357 0.58113 0.0
C1256 C 0.46143 0.43067 0.58228 0.0
C1257 C 0.50024 0.49387 0.60698 0.0
C1258 C 0.49473 0.51152 0.60962 0.0
C1259 C 0.52363 0.49985 0.60298 0.0
C1260 C 0.53097 0.48226 0.60353 0.0
C1261 C 0.54418 0.48099 0.57454 0.0
C1262 C 0.55101 0.46436 0.57503 0.0
C1263 C 0.54482 0.44897 0.60447 0.0
C1264 C 0.53186 0.45023 0.63355 0.0
C1265 C 0.52501 0.46684 0.63322 0.0
H1266 H 0.5501 0.43609 0.60477 0.0
H1267 H 0.48732 0.59916 0.62981 0.0
H1268 H 0.01175 0.58293 0.94132 0.0
H1269 H 0.01899 0.55058 0.94079 0.0
H1270 H 0.94596 0.50283 0.93074 0.0
H1271 H 0.93848 0.53514 0.93097 0.0
H1272 H 0.96958 0.48982 0.98337 0.0
H1273 H 0.97569 0.51402 0.85711 0.0
H1274 H 0.99017 0.54234 0.80654 0.0
H1275 H 0.0596 0.55864 0.83032 0.0
H1276 H 0.04555 0.53064 0.88142 0.0
H1277 H 0.97747 0.39165 0.93184 0.0
H1278 H 0.96829 0.42264 0.93528 0.0
H1279 H 0.04052 0.47319 0.92349 0.0
H1280 H 0.04974 0.44227 0.91885 0.0
H1281 H 0.01623 0.48451 0.88182 0.0
H1282 H 0.01162 0.46169 0.0078 0.0
H1283 H -0.00145 0.43473 0.06023 0.0
H1284 H 0.92844 0.4173 0.03981 0.0
H1285 H 0.94106 0.44394 -0.01308 0.0
C1286 C 0.99718 0.56556 0.93925 0.0
C1287 C 0.97453 0.56162 0.936 0.0
C1288 C 0.00137 0.54712 0.93885 0.0
C1289 C 0.98302 0.5244 0.93544 0.0
C1290 C 0.96034 0.52029 0.93334 0.0
C1291 C 0.95612 0.53876 0.93334 0.0
C1292 C 0.98766 0.50504 0.93299 0.0
C1293 C 0.9795 0.48841 0.96095 0.0
C1294 C 0.00111 0.50367 0.9042 0.0
C1295 C 0.00958 0.5204 0.87332 0.0
C1296 C 0.99406 0.52378 0.85175 0.0
C1297 C 0.00219 0.53975 0.82296 0.0
C1298 C 0.0258 0.55233 0.81528 0.0
C1299 C 0.04132 0.54891 0.83633 0.0
C1300 C 0.03328 0.53298 0.86519 0.0
C1301 C 0.99142 0.40937 0.93007 0.0
C1302 C 0.01435 0.4145 0.92513 0.0
C1303 C 0.98615 0.42708 0.93222 0.0
C1304 C 0.00375 0.45027 0.93017 0.0
C1305 C 0.02665 0.45542 0.92516 0.0
C1306 C 0.0319 0.43773 0.92257 0.0
C1307 C 0.9983 0.46919 0.93242 0.0
C1308 C 0.00629 0.4858 0.90432 0.0
C1309 C 0.98491 0.47066 0.96135 0.0
C1310 C 0.97726 0.45464 -0.00684 0.0
C1311 C 0.99339 0.45197 0.01431 0.0
C1312 C 0.98607 0.43677 0.04414 0.0
C1313 C 0.96267 0.42426 0.05328 0.0
C1314 C 0.94655 0.42697 0.03266 0.0
C1315 C 0.95378 0.44214 0.00277 0.0
H1316 H 0.95704 0.4125 0.0764 0.0
H1317 H 0.03206 0.56469 0.79297 0.0
H1318 H 0.60921 0.0523 0.24461 0.0
H1319 H 0.56929 0.04429 0.24623 0.0
H1320 H 0.54562 0.97269 0.26973 0.0
H1321 H 0.58541 0.98049 0.26829 0.0
H1322 H 0.52035 0.97905 0.21422 0.0
H1323 H 0.5472 0.00601 0.33718 0.0
H1324 H 0.57375 0.03338 0.38348 0.0
H1325 H 0.56065 0.08595 0.34251 0.0
H1326 H 0.53425 0.05896 0.2956 0.0
H1327 H 0.40475 0.94543 0.26093 0.0
H1328 H 0.44431 0.95246 0.26141 0.0
H1329 H 0.47038 0.02585 0.2555 0.0
H1330 H 0.43101 0.01901 0.25628 0.0
H1331 H 0.49466 0.01811 0.30264 0.0
H1332 H 0.46902 0.99294 0.17928 0.0
H1333 H 0.44335 0.96697 0.1308 0.0
H1334 H 0.45502 0.91295 0.16919 0.0
H1335 H 0.48052 0.93852 0.21823 0.0
C1336 C 0.59553 0.03486 0.25018 0.0
C1337 C 0.60051 0.01705 0.25642 0.0
C1338 C 0.57275 0.03033 0.25119 0.0
C1339 C 0.55456 0.00792 0.25829 0.0
C1340 C 0.55944 0.99009 0.26422 0.0
C1341 C 0.5822 0.99463 0.26354 0.0
C1342 C 0.5304 0.00302 0.25934 0.0
C1343 C 0.5146 0.98733 0.23384 0.0
C1344 C 0.52316 0.01432 0.28433 0.0
C1345 C 0.53893 0.03053 0.31265 0.0
C1346 C 0.55013 0.02346 0.33785 0.0
C1347 C 0.56512 0.03889 0.36424 0.0
C1348 C 0.56893 0.06141 0.36587 0.0
C1349 C 0.5577 0.06851 0.34118 0.0
C1350 C 0.54271 0.05315 0.31471 0.0
C1351 C 0.41892 0.96306 0.25973 0.0
C1352 C 0.41472 0.98165 0.25849 0.0
C1353 C 0.44153 0.96706 0.25982 0.0
C1354 C 0.46036 0.98969 0.25795 0.0
C1355 C 0.45617 0.00825 0.25697 0.0
C1356 C 0.43361 0.00429 0.25735 0.0
C1357 C 0.48446 0.99415 0.25734 0.0
C1358 C 0.50031 0.00977 0.28296 0.0
C1359 C 0.4918 0.98298 0.23213 0.0
C1360 C 0.47648 0.96757 0.20266 0.0
C1361 C 0.46596 0.97546 0.17756 0.0
C1362 C 0.45147 0.96083 0.14995 0.0
C1363 C 0.44751 0.9383 0.14698 0.0
C1364 C 0.45807 0.93039 0.17156 0.0
C1365 C 0.47256 0.94495 0.19925 0.0
H1366 H 0.43628 0.92699 0.12558 0.0
H1367 H 0.58055 0.07333 0.38632 0.0
loop_
_geom_bond_atom_site_label_1
_geom_bond_atom_site_label_2
_geom_bond_distance
_geom_bond_site_symmetry_2
_ccdc_geom_bond_type
C0 O1 1.306 . S
C0 O3 1.160 . S
O1 C0 1.306 . S
O1 Cd2 2.228 . S
Cd2 O1 2.228 . S
Cd2 O6 2.273 . S
Cd2 O10 2.277 . S
O3 C0 1.160 . S
O3 Cd4 2.203 . S
Cd4 O3 2.203 . S
Cd4 O6 2.411 . S
Cd4 O7 2.333 1_554 S
Cd4 O8 2.352 . S
Cd4 O12 2.277 . S
Cd4 O13 2.356 . S
C5 O10 1.209 . S
C5 O12 1.226 . S
O6 Cd2 2.273 . S
O6 Cd4 2.411 . S
O6 C9 1.318 . S
O7 Cd4 2.333 1_556 S
O7 C9 1.214 1_556 S
O8 Cd4 2.352 . S
O8 C11 1.258 . S
C9 O6 1.318 . S
C9 O7 1.214 1_554 S
O10 Cd2 2.277 . S
O10 C5 1.209 . S
C11 O8 1.258 . S
C11 O13 1.282 . S
O12 Cd4 2.277 . S
O12 C5 1.226 . S
O13 Cd4 2.356 . S
O13 C11 1.282 . S
C14 O15 1.306 . S
C14 O17 1.160 . S
O15 C14 1.306 . S
O15 Cd16 2.228 1_655 S
Cd16 O15 2.228 1_455 S
Cd16 O20 2.273 1_455 S
Cd16 O24 2.277 1_455 S
O17 C14 1.160 . S
O17 Cd18 2.203 . S
Cd18 O17 2.203 . S
Cd18 O20 2.411 . S
Cd18 O21 2.333 . S
Cd18 O22 2.352 . S
Cd18 O26 2.277 . S
Cd18 O27 2.356 . S
C19 O24 1.209 . S
C19 O26 1.226 . S
O20 Cd16 2.273 1_655 S
O20 Cd18 2.411 . S
O20 C23 1.320 . S
O21 Cd18 2.333 . S
O21 C23 1.214 . S
O22 Cd18 2.352 . S
O22 C25 1.258 . S
C23 O20 1.320 . S
C23 O21 1.214 . S
O24 Cd16 2.277 1_655 S
O24 C19 1.209 . S
C25 O22 1.258 . S
C25 O27 1.282 . S
O26 Cd18 2.277 . S
O26 C19 1.226 . S
O27 Cd18 2.356 . S
O27 C25 1.282 . S
C28 O29 1.306 . S
C28 O31 1.160 . S
O29 C28 1.306 . S
O29 Cd30 2.228 1_565 S
Cd30 O29 2.228 1_545 S
Cd30 O34 2.273 1_545 S
Cd30 O38 2.277 1_545 S
O31 C28 1.160 . S
O31 Cd32 2.203 . S
Cd32 O31 2.203 . S
Cd32 O34 2.411 . S
Cd32 O35 2.333 . S
Cd32 O36 2.352 . S
Cd32 O40 2.277 . S
Cd32 O41 2.356 . S
C33 O38 1.209 . S
C33 O40 1.226 . S
O34 Cd30 2.273 1_565 S
O34 Cd32 2.411 . S
O34 C37 1.320 . S
O35 Cd32 2.333 . S
O35 C37 1.214 . S
O36 Cd32 2.352 . S
O36 C39 1.258 . S
C37 O34 1.320 . S
C37 O35 1.214 . S
O38 Cd30 2.277 1_565 S
O38 C33 1.209 . S
C39 O36 1.258 . S
C39 O41 1.282 . S
O40 Cd32 2.277 . S
O40 C33 1.226 . S
O41 Cd32 2.356 . S
O41 C39 1.282 . S
C42 O43 1.306 . S
C42 O45 1.160 . S
O43 C42 1.306 . S
O43 Cd44 2.228 . S
Cd44 O43 2.228 . S
Cd44 O48 2.273 . S
Cd44 O52 2.277 . S
O45 C42 1.160 . S
O45 Cd46 2.203 . S
Cd46 O45 2.203 . S
Cd46 O48 2.411 . S
Cd46 O49 2.333 1_554 S
Cd46 O50 2.352 . S
Cd46 O54 2.277 . S
Cd46 O55 2.356 . S
C47 O52 1.209 . S
C47 O54 1.226 . S
O48 Cd44 2.273 . S
O48 Cd46 2.411 . S
O48 C51 1.318 . S
O49 Cd46 2.333 1_556 S
O49 C51 1.214 1_556 S
O50 Cd46 2.352 . S
O50 C53 1.258 . S
C51 O48 1.318 . S
C51 O49 1.214 1_554 S
O52 Cd44 2.277 . S
O52 C47 1.209 . S
C53 O50 1.258 . S
C53 O55 1.282 . S
O54 Cd46 2.277 . S
O54 C47 1.226 . S
O55 Cd46 2.356 . S
O55 C53 1.282 . S
C56 O57 1.306 . S
C56 O59 1.160 . S
O57 C56 1.306 . S
O57 Cd58 2.228 1_455 S
Cd58 O57 2.228 1_655 S
Cd58 O62 2.273 1_655 S
Cd58 O66 2.277 1_655 S
O59 C56 1.160 . S
O59 Cd60 2.203 . S
Cd60 O59 2.203 . S
Cd60 O62 2.411 . S
Cd60 O63 2.333 . S
Cd60 O64 2.352 . S
Cd60 O68 2.277 . S
Cd60 O69 2.356 . S
C61 O66 1.209 . S
C61 O68 1.226 . S
O62 Cd58 2.273 1_455 S
O62 Cd60 2.411 . S
O62 C65 1.320 . S
O63 Cd60 2.333 . S
O63 C65 1.214 . S
O64 Cd60 2.352 . S
O64 C67 1.258 . S
C65 O62 1.320 . S
C65 O63 1.214 . S
O66 Cd58 2.277 1_455 S
O66 C61 1.209 . S
C67 O64 1.258 . S
C67 O69 1.282 . S
O68 Cd60 2.277 . S
O68 C61 1.226 . S
O69 Cd60 2.356 . S
O69 C67 1.282 . S
C70 O71 1.306 . S
C70 O73 1.160 . S
O71 C70 1.306 . S
O71 Cd72 2.228 1_545 S
Cd72 O71 2.228 1_565 S
Cd72 O76 2.273 1_565 S
Cd72 O80 2.277 1_565 S
O73 C70 1.160 . S
O73 Cd74 2.203 . S
Cd74 O73 2.203 . S
Cd74 O76 2.411 . S
Cd74 O77 2.333 . S
Cd74 O78 2.352 . S
Cd74 O82 2.277 . S
Cd74 O83 2.356 . S
C75 O80 1.209 . S
C75 O82 1.226 . S
O76 Cd72 2.273 1_545 S
O76 Cd74 2.411 . S
O76 C79 1.320 . S
O77 Cd74 2.333 . S
O77 C79 1.214 . S
O78 Cd74 2.352 . S
O78 C81 1.258 . S
C79 O76 1.320 . S
C79 O77 1.214 . S
O80 Cd72 2.277 1_545 S
O80 C75 1.209 . S
C81 O78 1.258 . S
C81 O83 1.282 . S
O82 Cd74 2.277 . S
O82 C75 1.226 . S
O83 Cd74 2.356 . S
O83 C81 1.282 . S
C84 O85 1.306 . S
C84 O87 1.160 . S
O85 C84 1.306 . S
O85 Cd86 2.228 . S
Cd86 O85 2.228 . S
Cd86 O90 2.273 . S
Cd86 O94 2.277 . S
O87 C84 1.160 . S
O87 Cd88 2.203 . S
Cd88 O87 2.203 . S
Cd88 O90 2.411 . S
Cd88 O91 2.333 . S
Cd88 O92 2.352 . S
Cd88 O96 2.277 . S
Cd88 O97 2.356 . S
C89 O94 1.209 . S
C89 O96 1.226 . S
O90 Cd86 2.273 . S
O90 Cd88 2.411 . S
O90 C93 1.320 . S
O91 Cd88 2.333 . S
O91 C93 1.214 . S
O92 Cd88 2.352 . S
O92 C95 1.258 . S
C93 O90 1.320 . S
C93 O91 1.214 . S
O94 Cd86 2.277 . S
O94 C89 1.209 . S
C95 O92 1.258 . S
C95 O97 1.282 . S
O96 Cd88 2.277 . S
O96 C89 1.226 . S
O97 Cd88 2.356 . S
O97 C95 1.282 . S
C98 O99 1.306 . S
C98 O101 1.160 . S
O99 C98 1.306 . S
O99 Cd100 2.228 1_655 S
Cd100 O99 2.228 1_455 S
Cd100 O104 2.273 1_455 S
Cd100 O108 2.277 1_455 S
O101 C98 1.160 . S
O101 Cd102 2.203 . S
Cd102 O101 2.203 . S
Cd102 O104 2.411 . S
Cd102 O105 2.333 1_556 S
Cd102 O106 2.352 . S
Cd102 O110 2.277 . S
Cd102 O111 2.356 . S
C103 O108 1.209 . S
C103 O110 1.226 . S
O104 Cd100 2.273 1_655 S
O104 Cd102 2.411 . S
O104 C107 1.318 . S
O105 Cd102 2.333 1_554 S
O105 C107 1.214 1_554 S
O106 Cd102 2.352 . S
O106 C109 1.258 . S
C107 O104 1.318 . S
C107 O105 1.214 1_556 S
O108 Cd100 2.277 1_655 S
O108 C103 1.209 . S
C109 O106 1.258 . S
C109 O111 1.282 . S
O110 Cd102 2.277 . S
O110 C103 1.226 . S
O111 Cd102 2.356 . S
O111 C109 1.282 . S
C112 O113 1.306 . S
C112 O115 1.160 . S
O113 C112 1.306 . S
O113 Cd114 2.228 1_565 S
Cd114 O113 2.228 1_545 S
Cd114 O118 2.273 1_545 S
Cd114 O122 2.277 1_545 S
O115 C112 1.160 . S
O115 Cd116 2.203 . S
Cd116 O115 2.203 . S
Cd116 O118 2.411 . S
Cd116 O119 2.333 . S
Cd116 O120 2.352 . S
Cd116 O124 2.277 . S
Cd116 O125 2.356 . S
C117 O122 1.209 . S
C117 O124 1.226 . S
O118 Cd114 2.273 1_565 S
O118 Cd116 2.411 . S
O118 C121 1.320 . S
O119 Cd116 2.333 . S
O119 C121 1.214 . S
O120 Cd116 2.352 . S
O120 C123 1.258 . S
C121 O118 1.320 . S
C121 O119 1.214 . S
O122 Cd114 2.277 1_565 S
O122 C117 1.209 . S
C123 O120 1.258 . S
C123 O125 1.282 . S
O124 Cd116 2.277 . S
O124 C117 1.226 . S
O125 Cd116 2.356 . S
O125 C123 1.282 . S
C126 O127 1.306 . S
C126 O129 1.160 . S
O127 C126 1.306 . S
O127 Cd128 2.228 . S
Cd128 O127 2.228 . S
Cd128 O132 2.273 . S
Cd128 O136 2.277 . S
O129 C126 1.160 . S
O129 Cd130 2.203 . S
Cd130 O129 2.203 . S
Cd130 O132 2.411 . S
Cd130 O133 2.333 . S
Cd130 O134 2.352 . S
Cd130 O138 2.277 . S
Cd130 O139 2.356 . S
C131 O136 1.209 . S
C131 O138 1.226 . S
O132 Cd128 2.273 . S
O132 Cd130 2.411 . S
O132 C135 1.320 . S
O133 Cd130 2.333 . S
O133 C135 1.214 . S
O134 Cd130 2.352 . S
O134 C137 1.258 . S
C135 O132 1.320 . S
C135 O133 1.214 . S
O136 Cd128 2.277 . S
O136 C131 1.209 . S
C137 O134 1.258 . S
C137 O139 1.282 . S
O138 Cd130 2.277 . S
O138 C131 1.226 . S
O139 Cd130 2.356 . S
O139 C137 1.282 . S
C140 O141 1.306 . S
C140 O143 1.160 . S
O141 C140 1.306 . S
O141 Cd142 2.228 1_455 S
Cd142 O141 2.228 1_655 S
Cd142 O146 2.273 1_655 S
Cd142 O150 2.277 1_655 S
O143 C140 1.160 . S
O143 Cd144 2.203 . S
Cd144 O143 2.203 . S
Cd144 O146 2.411 . S
Cd144 O147 2.333 1_556 S
Cd144 O148 2.352 . S
Cd144 O152 2.277 . S
Cd144 O153 2.356 . S
C145 O150 1.209 . S
C145 O152 1.226 . S
O146 Cd142 2.273 1_455 S
O146 Cd144 2.411 . S
O146 C149 1.318 . S
O147 Cd144 2.333 1_554 S
O147 C149 1.214 1_554 S
O148 Cd144 2.352 . S
O148 C151 1.258 . S
C149 O146 1.318 . S
C149 O147 1.214 1_556 S
O150 Cd142 2.277 1_455 S
O150 C145 1.209 . S
C151 O148 1.258 . S
C151 O153 1.282 . S
O152 Cd144 2.277 . S
O152 C145 1.226 . S
O153 Cd144 2.356 . S
O153 C151 1.282 . S
C154 O155 1.306 . S
C154 O157 1.160 . S
O155 C154 1.306 . S
O155 Cd156 2.228 1_545 S
Cd156 O155 2.228 1_565 S
Cd156 O160 2.273 1_565 S
Cd156 O164 2.277 1_565 S
O157 C154 1.160 . S
O157 Cd158 2.203 . S
Cd158 O157 2.203 . S
Cd158 O160 2.411 . S
Cd158 O161 2.333 . S
Cd158 O162 2.352 . S
Cd158 O166 2.277 . S
Cd158 O167 2.356 . S
C159 O164 1.209 . S
C159 O166 1.226 . S
O160 Cd156 2.273 1_545 S
O160 Cd158 2.411 . S
O160 C163 1.320 . S
O161 Cd158 2.333 . S
O161 C163 1.214 . S
O162 Cd158 2.352 . S
O162 C165 1.258 . S
C163 O160 1.320 . S
C163 O161 1.214 . S
O164 Cd156 2.277 1_545 S
O164 C159 1.209 . S
C165 O162 1.258 . S
C165 O167 1.282 . S
O166 Cd158 2.277 . S
O166 C159 1.226 . S
O167 Cd158 2.356 . S
O167 C165 1.282 . S
H168 C186 0.951 . S
H169 C188 0.951 . S
H170 C190 0.950 . S
H171 C191 0.950 . S
H172 C193 0.950 . S
H173 C196 0.950 . S
H174 C197 0.950 . S
H175 C199 0.950 . S
H176 C200 0.950 . S
H177 C201 0.951 . S
H178 C203 0.951 . S
H179 C205 0.950 . S
H180 C206 0.950 . S
H181 C208 0.950 . S
H182 C211 0.950 . S
H183 C212 0.950 . S
H184 C214 0.950 . S
H185 C215 0.950 . S
C186 H168 0.951 . S
C186 C187 1.366 . S
C186 C188 1.388 . S
C187 C186 1.366 . S
C187 C191 1.385 . S
C188 H169 0.951 . S
C188 C186 1.388 . S
C188 C189 1.366 . S
C189 C188 1.366 . S
C189 C190 1.414 . S
C189 C192 1.499 . S
C190 H170 0.950 . S
C190 C189 1.414 . S
C190 C191 1.374 . S
C191 H171 0.950 . S
C191 C187 1.385 . S
C191 C190 1.374 . S
C192 C189 1.499 . S
C192 C193 1.373 . S
C192 C194 1.389 . S
C193 H172 0.950 . S
C193 C192 1.373 . S
C193 C209 1.377 . S
C194 C192 1.389 . S
C194 C195 1.524 . S
C194 C208 1.377 . S
C195 C194 1.524 . S
C195 C196 1.397 . S
C195 C200 1.363 . S
C196 H173 0.950 . S
C196 C195 1.397 . S
C196 C197 1.334 . S
C197 H174 0.950 . S
C197 C196 1.334 . S
C197 C198 1.287 . S
C198 C197 1.287 . S
C198 C199 1.524 . S
C198 H217 0.913 . S
C199 H175 0.950 . S
C199 C198 1.524 . S
C199 C200 1.415 . S
C200 H176 0.950 . S
C200 C195 1.363 . S
C200 C199 1.415 . S
C201 H177 0.951 . S
C201 C202 1.366 . S
C201 C203 1.388 . S
C202 C201 1.366 . S
C202 C206 1.385 . S
C203 H178 0.951 . S
C203 C201 1.388 . S
C203 C204 1.366 . S
C204 C203 1.366 . S
C204 C205 1.414 . S
C204 C207 1.499 . S
C205 H179 0.950 . S
C205 C204 1.414 . S
C205 C206 1.374 . S
C206 H180 0.950 . S
C206 C202 1.385 . S
C206 C205 1.374 . S
C207 C204 1.499 . S
C207 C208 1.373 . S
C207 C209 1.389 . S
C208 H181 0.950 . S
C208 C194 1.377 . S
C208 C207 1.373 . S
C209 C193 1.377 . S
C209 C207 1.389 . S
C209 C210 1.524 . S
C210 C209 1.524 . S
C210 C211 1.397 . S
C210 C215 1.363 . S
C211 H182 0.950 . S
C211 C210 1.397 . S
C211 C212 1.334 . S
C212 H183 0.950 . S
C212 C211 1.334 . S
C212 C213 1.287 . S
C213 C212 1.287 . S
C213 C214 1.524 . S
C213 H216 0.999 . S
C214 H184 0.950 . S
C214 C213 1.524 . S
C214 C215 1.415 . S
C215 H185 0.950 . S
C215 C210 1.363 . S
C215 C214 1.415 . S
H216 C213 0.999 . S
H217 C198 0.913 . S
H218 C236 0.951 . S
H219 C238 0.951 . S
H220 C240 0.950 . S
H221 C241 0.950 . S
H222 C243 0.950 . S
H223 C246 0.950 . S
H224 C247 0.950 . S
H225 C249 0.950 . S
H226 C250 0.950 . S
H227 C251 0.951 . S
H228 C253 0.951 . S
H229 C255 0.950 . S
H230 C256 0.950 . S
H231 C258 0.950 . S
H232 C261 0.950 . S
H233 C262 0.950 . S
H234 C264 0.950 . S
H235 C265 0.950 . S
C236 H218 0.951 . S
C236 C237 1.366 1_455 S
C236 C238 1.388 . S
C237 C236 1.366 1_655 S
C237 C241 1.385 . S
C238 H219 0.951 . S
C238 C236 1.388 . S
C238 C239 1.366 1_455 S
C239 C238 1.366 1_655 S
C239 C240 1.414 . S
C239 C242 1.499 . S
C240 H220 0.950 . S
C240 C239 1.414 . S
C240 C241 1.374 . S
C241 H221 0.950 . S
C241 C237 1.385 . S
C241 C240 1.374 . S
C242 C239 1.499 . S
C242 C243 1.373 . S
C242 C244 1.389 1_655 S
C243 H222 0.950 . S
C243 C242 1.373 . S
C243 C259 1.377 . S
C244 C242 1.389 1_455 S
C244 C245 1.524 . S
C244 C258 1.377 . S
C245 C244 1.524 . S
C245 C246 1.397 1_455 S
C245 C250 1.363 . S
C246 H223 0.950 . S
C246 C245 1.397 1_655 S
C246 C247 1.334 . S
C247 H224 0.950 . S
C247 C246 1.334 . S
C247 C248 1.287 1_655 S
C248 C247 1.287 1_455 S
C248 C249 1.524 . S
C248 H267 0.913 . S
C249 H225 0.950 . S
C249 C248 1.524 . S
C249 C250 1.415 . S
C250 H226 0.950 . S
C250 C245 1.363 . S
C250 C249 1.415 . S
C251 H227 0.951 . S
C251 C252 1.366 1_655 S
C251 C253 1.388 . S
C252 C251 1.366 1_455 S
C252 C256 1.385 . S
C253 H228 0.951 . S
C253 C251 1.388 . S
C253 C254 1.366 1_655 S
C254 C253 1.366 1_455 S
C254 C255 1.414 . S
C254 C257 1.499 . S
C255 H229 0.950 . S
C255 C254 1.414 . S
C255 C256 1.374 . S
C256 H230 0.950 . S
C256 C252 1.385 . S
C256 C255 1.374 . S
C257 C254 1.499 . S
C257 C258 1.373 . S
C257 C259 1.389 1_455 S
C258 H231 0.950 . S
C258 C244 1.377 . S
C258 C257 1.373 . S
C259 C243 1.377 . S
C259 C257 1.389 1_655 S
C259 C260 1.524 . S
C260 C259 1.524 . S
C260 C261 1.397 1_655 S
C260 C265 1.363 . S
C261 H232 0.950 . S
C261 C260 1.397 1_455 S
C261 C262 1.334 . S
C262 H233 0.950 . S
C262 C261 1.334 . S
C262 C263 1.287 1_455 S
C263 C262 1.287 1_655 S
C263 C264 1.524 . S
C263 H266 0.999 . S
C264 H234 0.950 . S
C264 C263 1.524 . S
C264 C265 1.415 . S
C265 H235 0.950 . S
C265 C260 1.363 . S
C265 C264 1.415 . S
H266 C263 0.999 . S
H267 C248 0.913 . S
H268 C286 0.951 . S
H269 C288 0.951 . S
H270 C290 0.950 . S
H271 C291 0.950 . S
H272 C293 0.950 . S
H273 C296 0.950 1_545 S
H274 C297 0.950 . S
H275 C299 0.950 . S
H276 C300 0.950 1_554 S
H277 C301 0.951 . S
H278 C303 0.951 . S
H279 C305 0.950 . S
H280 C306 0.950 . S
H281 C308 0.950 . S
H282 C311 0.950 1_565 S
H283 C312 0.950 . S
H284 C314 0.950 . S
H285 C315 0.950 1_556 S
C286 H268 0.951 . S
C286 C287 1.366 . S
C286 C288 1.388 . S
C287 C286 1.366 . S
C287 C291 1.385 1_565 S
C288 H269 0.951 . S
C288 C286 1.388 . S
C288 C289 1.366 . S
C289 C288 1.366 . S
C289 C290 1.414 1_565 S
C289 C292 1.499 . S
C290 H270 0.950 . S
C290 C289 1.414 1_545 S
C290 C291 1.374 . S
C291 H271 0.950 . S
C291 C287 1.385 1_545 S
C291 C290 1.374 . S
C292 C289 1.499 . S
C292 C293 1.373 1_565 S
C292 C294 1.389 . S
C293 H272 0.950 . S
C293 C292 1.373 1_545 S
C293 C309 1.377 1_556 S
C294 C292 1.389 . S
C294 C295 1.524 . S
C294 C308 1.377 1_556 S
C295 C294 1.524 . S
C295 C296 1.397 . S
C295 C300 1.363 . S
C296 H273 0.950 1_565 S
C296 C295 1.397 . S
C296 C297 1.334 . S
C297 H274 0.950 . S
C297 C296 1.334 . S
C297 C298 1.287 . S
C298 C297 1.287 . S
C298 C299 1.524 . S
C298 H317 0.913 . S
C299 H275 0.950 . S
C299 C298 1.524 . S
C299 C300 1.415 . S
C300 H276 0.950 1_556 S
C300 C295 1.363 . S
C300 C299 1.415 . S
C301 H277 0.951 . S
C301 C302 1.366 . S
C301 C303 1.388 . S
C302 C301 1.366 . S
C302 C306 1.385 1_545 S
C303 H278 0.951 . S
C303 C301 1.388 . S
C303 C304 1.366 . S
C304 C303 1.366 . S
C304 C305 1.414 1_545 S
C304 C307 1.499 . S
C305 H279 0.950 . S
C305 C304 1.414 1_565 S
C305 C306 1.374 . S
C306 H280 0.950 . S
C306 C302 1.385 1_565 S
C306 C305 1.374 . S
C307 C304 1.499 . S
C307 C308 1.373 1_545 S
C307 C309 1.389 . S
C308 H281 0.950 . S
C308 C294 1.377 1_554 S
C308 C307 1.373 1_565 S
C309 C293 1.377 1_554 S
C309 C307 1.389 . S
C309 C310 1.524 . S
C310 C309 1.524 . S
C310 C311 1.397 . S
C310 C315 1.363 . S
C311 H282 0.950 1_545 S
C311 C310 1.397 . S
C311 C312 1.334 . S
C312 H283 0.950 . S
C312 C311 1.334 . S
C312 C313 1.287 . S
C313 C312 1.287 . S
C313 C314 1.524 . S
C313 H316 0.999 . S
C314 H284 0.950 . S
C314 C313 1.524 . S
C314 C315 1.415 . S
C315 H285 0.950 1_554 S
C315 C310 1.363 . S
C315 C314 1.415 . S
H316 C313 0.999 . S
H317 C298 0.913 . S
H318 C336 0.951 . S
H319 C338 0.951 . S
H320 C340 0.950 . S
H321 C341 0.950 . S
H322 C343 0.950 . S
H323 C346 0.950 . S
H324 C347 0.950 . S
H325 C349 0.950 . S
H326 C350 0.950 . S
H327 C351 0.951 . S
H328 C353 0.951 . S
H329 C355 0.950 . S
H330 C356 0.950 . S
H331 C358 0.950 . S
H332 C361 0.950 . S
H333 C362 0.950 . S
H334 C364 0.950 . S
H335 C365 0.950 . S
C336 H318 0.951 . S
C336 C337 1.366 . S
C336 C338 1.388 . S
C337 C336 1.366 . S
C337 C341 1.385 . S
C338 H319 0.951 . S
C338 C336 1.388 . S
C338 C339 1.366 . S
C339 C338 1.366 . S
C339 C340 1.414 . S
C339 C342 1.499 . S
C340 H320 0.950 . S
C340 C339 1.414 . S
C340 C341 1.374 . S
C341 H321 0.950 . S
C341 C337 1.385 . S
C341 C340 1.374 . S
C342 C339 1.499 . S
C342 C343 1.373 . S
C342 C344 1.389 . S
C343 H322 0.950 . S
C343 C342 1.373 . S
C343 C359 1.377 . S
C344 C342 1.389 . S
C344 C345 1.524 . S
C344 C358 1.377 . S
C345 C344 1.524 . S
C345 C346 1.397 . S
C345 C350 1.363 . S
C346 H323 0.950 . S
C346 C345 1.397 . S
C346 C347 1.334 . S
C347 H324 0.950 . S
C347 C346 1.334 . S
C347 C348 1.287 . S
C348 C347 1.287 . S
C348 C349 1.524 . S
C348 H367 0.913 . S
C349 H325 0.950 . S
C349 C348 1.524 . S
C349 C350 1.415 . S
C350 H326 0.950 . S
C350 C345 1.363 . S
C350 C349 1.415 . S
C351 H327 0.951 . S
C351 C352 1.366 . S
C351 C353 1.388 . S
C352 C351 1.366 . S
C352 C356 1.385 . S
C353 H328 0.951 . S
C353 C351 1.388 . S
C353 C354 1.366 . S
C354 C353 1.366 . S
C354 C355 1.414 . S
C354 C357 1.499 . S
C355 H329 0.950 . S
C355 C354 1.414 . S
C355 C356 1.374 . S
C356 H330 0.950 . S
C356 C352 1.385 . S
C356 C355 1.374 . S
C357 C354 1.499 . S
C357 C358 1.373 . S
C357 C359 1.389 . S
C358 H331 0.950 . S
C358 C344 1.377 . S
C358 C357 1.373 . S
C359 C343 1.377 . S
C359 C357 1.389 . S
C359 C360 1.524 . S
C360 C359 1.524 . S
C360 C361 1.397 . S
C360 C365 1.363 . S
C361 H332 0.950 . S
C361 C360 1.397 . S
C361 C362 1.334 . S
C362 H333 0.950 . S
C362 C361 1.334 . S
C362 C363 1.287 . S
C363 C362 1.287 . S
C363 C364 1.524 . S
C363 H366 0.999 . S
C364 H334 0.950 . S
C364 C363 1.524 . S
C364 C365 1.415 . S
C365 H335 0.950 . S
C365 C360 1.363 . S
C365 C364 1.415 . S
H366 C363 0.999 . S
H367 C348 0.913 . S
H368 C386 0.951 . S
H369 C388 0.951 1_455 S
H370 C390 0.950 . S
H371 C391 0.950 . S
H372 C393 0.950 . S
H373 C396 0.950 . S
H374 C397 0.950 . S
H375 C399 0.950 . S
H376 C400 0.950 . S
H377 C401 0.951 . S
H378 C403 0.951 1_655 S
H379 C405 0.950 . S
H380 C406 0.950 . S
H381 C408 0.950 . S
H382 C411 0.950 . S
H383 C412 0.950 . S
H384 C414 0.950 . S
H385 C415 0.950 . S
C386 H368 0.951 . S
C386 C387 1.366 . S
C386 C388 1.388 . S
C387 C386 1.366 . S
C387 C391 1.385 . S
C388 H369 0.951 1_655 S
C388 C386 1.388 . S
C388 C389 1.366 . S
C389 C388 1.366 . S
C389 C390 1.414 . S
C389 C392 1.499 . S
C390 H370 0.950 . S
C390 C389 1.414 . S
C390 C391 1.374 . S
C391 H371 0.950 . S
C391 C387 1.385 . S
C391 C390 1.374 . S
C392 C389 1.499 . S
C392 C393 1.373 . S
C392 C394 1.389 1_655 S
C393 H372 0.950 . S
C393 C392 1.373 . S
C393 C409 1.377 . S
C394 C392 1.389 1_455 S
C394 C395 1.524 . S
C394 C408 1.377 . S
C395 C394 1.524 . S
C395 C396 1.397 . S
C395 C400 1.363 . S
C396 H373 0.950 . S
C396 C395 1.397 . S
C396 C397 1.334 . S
C397 H374 0.950 . S
C397 C396 1.334 . S
C397 C398 1.287 . S
C398 C397 1.287 . S
C398 C399 1.524 . S
C398 H417 0.913 . S
C399 H375 0.950 . S
C399 C398 1.524 . S
C399 C400 1.415 . S
C400 H376 0.950 . S
C400 C395 1.363 . S
C400 C399 1.415 . S
C401 H377 0.951 . S
C401 C402 1.366 . S
C401 C403 1.388 . S
C402 C401 1.366 . S
C402 C406 1.385 . S
C403 H378 0.951 1_455 S
C403 C401 1.388 . S
C403 C404 1.366 . S
C404 C403 1.366 . S
C404 C405 1.414 . S
C404 C407 1.499 . S
C405 H379 0.950 . S
C405 C404 1.414 . S
C405 C406 1.374 . S
C406 H380 0.950 . S
C406 C402 1.385 . S
C406 C405 1.374 . S
C407 C404 1.499 . S
C407 C408 1.373 . S
C407 C409 1.389 1_455 S
C408 H381 0.950 . S
C408 C394 1.377 . S
C408 C407 1.373 . S
C409 C393 1.377 . S
C409 C407 1.389 1_655 S
C409 C410 1.524 . S
C410 C409 1.524 . S
C410 C411 1.397 . S
C410 C415 1.363 . S
C411 H382 0.950 . S
C411 C410 1.397 . S
C411 C412 1.334 . S
C412 H383 0.950 . S
C412 C411 1.334 . S
C412 C413 1.287 . S
C413 C412 1.287 . S
C413 C414 1.524 . S
C413 H416 0.999 . S
C414 H384 0.950 . S
C414 C413 1.524 . S
C414 C415 1.415 . S
C415 H385 0.950 . S
C415 C410 1.363 . S
C415 C414 1.415 . S
H416 C413 0.999 . S
H417 C398 0.913 . S
H418 C436 0.951 . S
H419 C438 0.951 . S
H420 C440 0.950 . S
H421 C441 0.950 . S
H422 C443 0.950 . S
H423 C446 0.950 . S
H424 C447 0.950 . S
H425 C449 0.950 . S
H426 C450 0.950 . S
H427 C451 0.951 . S
H428 C453 0.951 . S
H429 C455 0.950 . S
H430 C456 0.950 . S
H431 C458 0.950 . S
H432 C461 0.950 . S
H433 C462 0.950 . S
H434 C464 0.950 . S
H435 C465 0.950 . S
C436 H418 0.951 . S
C436 C437 1.366 1_545 S
C436 C438 1.388 . S
C437 C436 1.366 1_565 S
C437 C441 1.385 . S
C438 H419 0.951 . S
C438 C436 1.388 . S
C438 C439 1.366 1_545 S
C439 C438 1.366 1_565 S
C439 C440 1.414 . S
C439 C442 1.499 . S
C440 H420 0.950 . S
C440 C439 1.414 . S
C440 C441 1.374 . S
C441 H421 0.950 . S
C441 C437 1.385 . S
C441 C440 1.374 . S
C442 C439 1.499 . S
C442 C443 1.373 . S
C442 C444 1.389 1_565 S
C443 H422 0.950 . S
C443 C442 1.373 . S
C443 C459 1.377 1_554 S
C444 C442 1.389 1_545 S
C444 C445 1.524 . S
C444 C458 1.377 1_554 S
C445 C444 1.524 . S
C445 C446 1.397 1_545 S
C445 C450 1.363 . S
C446 H423 0.950 . S
C446 C445 1.397 1_565 S
C446 C447 1.334 . S
C447 H424 0.950 . S
C447 C446 1.334 . S
C447 C448 1.287 1_565 S
C448 C447 1.287 1_545 S
C448 C449 1.524 . S
C448 H467 0.913 . S
C449 H425 0.950 . S
C449 C448 1.524 . S
C449 C450 1.415 . S
C450 H426 0.950 . S
C450 C445 1.363 . S
C450 C449 1.415 . S
C451 H427 0.951 . S
C451 C452 1.366 1_565 S
C451 C453 1.388 . S
C452 C451 1.366 1_545 S
C452 C456 1.385 . S
C453 H428 0.951 . S
C453 C451 1.388 . S
C453 C454 1.366 1_565 S
C454 C453 1.366 1_545 S
C454 C455 1.414 . S
C454 C457 1.499 . S
C455 H429 0.950 . S
C455 C454 1.414 . S
C455 C456 1.374 . S
C456 H430 0.950 . S
C456 C452 1.385 . S
C456 C455 1.374 . S
C457 C454 1.499 . S
C457 C458 1.373 . S
C457 C459 1.389 1_545 S
C458 H431 0.950 . S
C458 C444 1.377 1_556 S
C458 C457 1.373 . S
C459 C443 1.377 1_556 S
C459 C457 1.389 1_565 S
C459 C460 1.524 . S
C460 C459 1.524 . S
C460 C461 1.397 1_565 S
C460 C465 1.363 . S
C461 H432 0.950 . S
C461 C460 1.397 1_545 S
C461 C462 1.334 . S
C462 H433 0.950 . S
C462 C461 1.334 . S
C462 C463 1.287 1_545 S
C463 C462 1.287 1_565 S
C463 C464 1.524 . S
C463 H466 0.999 . S
C464 H434 0.950 . S
C464 C463 1.524 . S
C464 C465 1.415 . S
C465 H435 0.950 . S
C465 C460 1.363 . S
C465 C464 1.415 . S
H466 C463 0.999 . S
H467 C448 0.913 . S
H468 C486 0.951 . S
H469 C488 0.951 . S
H470 C490 0.950 . S
H471 C491 0.950 1_554 S
H472 C493 0.950 . S
H473 C496 0.950 . S
H474 C497 0.950 . S
H475 C499 0.950 . S
H476 C500 0.950 . S
H477 C501 0.951 . S
H478 C503 0.951 . S
H479 C505 0.950 . S
H480 C506 0.950 1_556 S
H481 C508 0.950 . S
H482 C511 0.950 . S
H483 C512 0.950 . S
H484 C514 0.950 . S
H485 C515 0.950 . S
C486 H468 0.951 . S
C486 C487 1.366 . S
C486 C488 1.388 . S
C487 C486 1.366 . S
C487 C491 1.385 . S
C488 H469 0.951 . S
C488 C486 1.388 . S
C488 C489 1.366 . S
C489 C488 1.366 . S
C489 C490 1.414 1_556 S
C489 C492 1.499 . S
C490 H470 0.950 . S
C490 C489 1.414 1_554 S
C490 C491 1.374 1_554 S
C491 H471 0.950 1_556 S
C491 C487 1.385 . S
C491 C490 1.374 1_556 S
C492 C489 1.499 . S
C492 C493 1.373 1_556 S
C492 C494 1.389 . S
C493 H472 0.950 . S
C493 C492 1.373 1_554 S
C493 C509 1.377 . S
C494 C492 1.389 . S
C494 C495 1.524 . S
C494 C508 1.377 . S
C495 C494 1.524 . S
C495 C496 1.397 . S
C495 C500 1.363 . S
C496 H473 0.950 . S
C496 C495 1.397 . S
C496 C497 1.334 . S
C497 H474 0.950 . S
C497 C496 1.334 . S
C497 C498 1.287 . S
C498 C497 1.287 . S
C498 C499 1.524 . S
C498 H517 0.913 . S
C499 H475 0.950 . S
C499 C498 1.524 . S
C499 C500 1.415 . S
C500 H476 0.950 . S
C500 C495 1.363 . S
C500 C499 1.415 . S
C501 H477 0.951 . S
C501 C502 1.366 . S
C501 C503 1.388 . S
C502 C501 1.366 . S
C502 C506 1.385 . S
C503 H478 0.951 . S
C503 C501 1.388 . S
C503 C504 1.366 . S
C504 C503 1.366 . S
C504 C505 1.414 1_554 S
C504 C507 1.499 . S
C505 H479 0.950 . S
C505 C504 1.414 1_556 S
C505 C506 1.374 1_556 S
C506 H480 0.950 1_554 S
C506 C502 1.385 . S
C506 C505 1.374 1_554 S
C507 C504 1.499 . S
C507 C508 1.373 1_554 S
C507 C509 1.389 . S
C508 H481 0.950 . S
C508 C494 1.377 . S
C508 C507 1.373 1_556 S
C509 C493 1.377 . S
C509 C507 1.389 . S
C509 C510 1.524 . S
C510 C509 1.524 . S
C510 C511 1.397 . S
C510 C515 1.363 . S
C511 H482 0.950 . S
C511 C510 1.397 . S
C511 C512 1.334 . S
C512 H483 0.950 . S
C512 C511 1.334 . S
C512 C513 1.287 . S
C513 C512 1.287 . S
C513 C514 1.524 . S
C513 H516 0.999 . S
C514 H484 0.950 . S
C514 C513 1.524 . S
C514 C515 1.415 . S
C515 H485 0.950 . S
C515 C510 1.363 . S
C515 C514 1.415 . S
H516 C513 0.999 . S
H517 C498 0.913 . S
H518 C536 0.951 . S
H519 C538 0.951 . S
H520 C540 0.950 . S
H521 C541 0.950 . S
H522 C543 0.950 . S
H523 C546 0.950 . S
H524 C547 0.950 . S
H525 C549 0.950 . S
H526 C550 0.950 . S
H527 C551 0.951 . S
H528 C553 0.951 . S
H529 C555 0.950 . S
H530 C556 0.950 . S
H531 C558 0.950 . S
H532 C561 0.950 . S
H533 C562 0.950 . S
H534 C564 0.950 . S
H535 C565 0.950 . S
C536 H518 0.951 . S
C536 C537 1.366 . S
C536 C538 1.388 . S
C537 C536 1.366 . S
C537 C541 1.385 . S
C538 H519 0.951 . S
C538 C536 1.388 . S
C538 C539 1.366 . S
C539 C538 1.366 . S
C539 C540 1.414 . S
C539 C542 1.499 . S
C540 H520 0.950 . S
C540 C539 1.414 . S
C540 C541 1.374 . S
C541 H521 0.950 . S
C541 C537 1.385 . S
C541 C540 1.374 . S
C542 C539 1.499 . S
C542 C543 1.373 . S
C542 C544 1.389 . S
C543 H522 0.950 . S
C543 C542 1.373 . S
C543 C559 1.377 . S
C544 C542 1.389 . S
C544 C545 1.524 . S
C544 C558 1.377 . S
C545 C544 1.524 . S
C545 C546 1.397 . S
C545 C550 1.363 . S
C546 H523 0.950 . S
C546 C545 1.397 . S
C546 C547 1.334 . S
C547 H524 0.950 . S
C547 C546 1.334 . S
C547 C548 1.287 . S
C548 C547 1.287 . S
C548 C549 1.524 . S
C548 H567 0.913 . S
C549 H525 0.950 . S
C549 C548 1.524 . S
C549 C550 1.415 . S
C550 H526 0.950 . S
C550 C545 1.363 . S
C550 C549 1.415 . S
C551 H527 0.951 . S
C551 C552 1.366 . S
C551 C553 1.388 . S
C552 C551 1.366 . S
C552 C556 1.385 . S
C553 H528 0.951 . S
C553 C551 1.388 . S
C553 C554 1.366 . S
C554 C553 1.366 . S
C554 C555 1.414 . S
C554 C557 1.499 . S
C555 H529 0.950 . S
C555 C554 1.414 . S
C555 C556 1.374 . S
C556 H530 0.950 . S
C556 C552 1.385 . S
C556 C555 1.374 . S
C557 C554 1.499 . S
C557 C558 1.373 . S
C557 C559 1.389 . S
C558 H531 0.950 . S
C558 C544 1.377 . S
C558 C557 1.373 . S
C559 C543 1.377 . S
C559 C557 1.389 . S
C559 C560 1.524 . S
C560 C559 1.524 . S
C560 C561 1.397 . S
C560 C565 1.363 . S
C561 H532 0.950 . S
C561 C560 1.397 . S
C561 C562 1.334 . S
C562 H533 0.950 . S
C562 C561 1.334 . S
C562 C563 1.287 . S
C563 C562 1.287 . S
C563 C564 1.524 . S
C563 H566 0.999 . S
C564 H534 0.950 . S
C564 C563 1.524 . S
C564 C565 1.415 . S
C565 H535 0.950 . S
C565 C560 1.363 . S
C565 C564 1.415 . S
H566 C563 0.999 . S
H567 C548 0.913 . S
H568 C586 0.951 . S
H569 C588 0.951 . S
H570 C590 0.950 . S
H571 C591 0.950 . S
H572 C593 0.950 . S
H573 C596 0.950 . S
H574 C597 0.950 . S
H575 C599 0.950 . S
H576 C600 0.950 . S
H577 C601 0.951 . S
H578 C603 0.951 . S
H579 C605 0.950 . S
H580 C606 0.950 . S
H581 C608 0.950 . S
H582 C611 0.950 . S
H583 C612 0.950 . S
H584 C614 0.950 . S
H585 C615 0.950 . S
C586 H568 0.951 . S
C586 C587 1.366 . S
C586 C588 1.388 . S
C587 C586 1.366 . S
C587 C591 1.385 . S
C588 H569 0.951 . S
C588 C586 1.388 . S
C588 C589 1.366 . S
C589 C588 1.366 . S
C589 C590 1.414 . S
C589 C592 1.499 . S
C590 H570 0.950 . S
C590 C589 1.414 . S
C590 C591 1.374 . S
C591 H571 0.950 . S
C591 C587 1.385 . S
C591 C590 1.374 . S
C592 C589 1.499 . S
C592 C593 1.373 . S
C592 C594 1.389 . S
C593 H572 0.950 . S
C593 C592 1.373 . S
C593 C609 1.377 . S
C594 C592 1.389 . S
C594 C595 1.524 . S
C594 C608 1.377 . S
C595 C594 1.524 . S
C595 C596 1.397 . S
C595 C600 1.363 . S
C596 H573 0.950 . S
C596 C595 1.397 . S
C596 C597 1.334 . S
C597 H574 0.950 . S
C597 C596 1.334 . S
C597 C598 1.287 . S
C598 C597 1.287 . S
C598 C599 1.524 . S
C598 H617 0.913 . S
C599 H575 0.950 . S
C599 C598 1.524 . S
C599 C600 1.415 . S
C600 H576 0.950 . S
C600 C595 1.363 . S
C600 C599 1.415 . S
C601 H577 0.951 . S
C601 C602 1.366 . S
C601 C603 1.388 . S
C602 C601 1.366 . S
C602 C606 1.385 . S
C603 H578 0.951 . S
C603 C601 1.388 . S
C603 C604 1.366 . S
C604 C603 1.366 . S
C604 C605 1.414 . S
C604 C607 1.499 . S
C605 H579 0.950 . S
C605 C604 1.414 . S
C605 C606 1.374 . S
C606 H580 0.950 . S
C606 C602 1.385 . S
C606 C605 1.374 . S
C607 C604 1.499 . S
C607 C608 1.373 . S
C607 C609 1.389 . S
C608 H581 0.950 . S
C608 C594 1.377 . S
C608 C607 1.373 . S
C609 C593 1.377 . S
C609 C607 1.389 . S
C609 C610 1.524 . S
C610 C609 1.524 . S
C610 C611 1.397 . S
C610 C615 1.363 . S
C611 H582 0.950 . S
C611 C610 1.397 . S
C611 C612 1.334 . S
C612 H583 0.950 . S
C612 C611 1.334 . S
C612 C613 1.287 . S
C613 C612 1.287 . S
C613 C614 1.524 . S
C613 H616 0.999 . S
C614 H584 0.950 . S
C614 C613 1.524 . S
C614 C615 1.415 . S
C615 H585 0.950 . S
C615 C610 1.363 . S
C615 C614 1.415 . S
H616 C613 0.999 . S
H617 C598 0.913 . S
H618 C636 0.951 1_556 S
H619 C638 0.923 1_556 S
H620 C640 0.950 . S
H621 C641 0.950 . S
H622 C643 0.950 . S
H623 C646 0.950 . S
H624 C647 0.950 . S
H625 C649 0.950 . S
H626 C650 0.950 . S
H627 C651 0.951 1_554 S
H628 C653 0.923 1_554 S
H629 C655 0.950 . S
H630 C656 0.950 . S
H631 C658 0.950 . S
H632 C661 0.950 . S
H633 C662 0.950 . S
H634 C664 0.950 . S
H635 C665 0.950 . S
C636 H618 0.951 1_554 S
C636 C637 1.366 . S
C636 C638 1.397 . S
C637 C636 1.366 . S
C637 C641 1.385 . S
C638 H619 0.923 1_554 S
C638 C636 1.397 . S
C638 C639 1.384 . S
C639 C638 1.384 . S
C639 C640 1.414 . S
C639 C642 1.499 . S
C640 H620 0.950 . S
C640 C639 1.414 . S
C640 C641 1.374 . S
C641 H621 0.950 . S
C641 C637 1.385 . S
C641 C640 1.374 . S
C642 C639 1.499 . S
C642 C643 1.373 . S
C642 C644 1.389 1_554 S
C643 H622 0.950 . S
C643 C642 1.373 . S
C643 C659 1.377 . S
C644 C642 1.389 1_556 S
C644 C645 1.524 . S
C644 C658 1.377 . S
C645 C644 1.524 . S
C645 C646 1.397 1_556 S
C645 C650 1.363 . S
C646 H623 0.950 . S
C646 C645 1.397 1_554 S
C646 C647 1.334 . S
C647 H624 0.950 . S
C647 C646 1.334 . S
C647 C648 1.287 1_554 S
C648 C647 1.287 1_556 S
C648 C649 1.524 . S
C648 H667 0.913 . S
C649 H625 0.950 . S
C649 C648 1.524 . S
C649 C650 1.415 . S
C650 H626 0.950 . S
C650 C645 1.363 . S
C650 C649 1.415 . S
C651 H627 0.951 1_556 S
C651 C652 1.366 . S
C651 C653 1.397 . S
C652 C651 1.366 . S
C652 C656 1.385 . S
C653 H628 0.923 1_556 S
C653 C651 1.397 . S
C653 C654 1.384 . S
C654 C653 1.384 . S
C654 C655 1.414 . S
C654 C657 1.499 . S
C655 H629 0.950 . S
C655 C654 1.414 . S
C655 C656 1.374 . S
C656 H630 0.950 . S
C656 C652 1.385 . S
C656 C655 1.374 . S
C657 C654 1.499 . S
C657 C658 1.373 . S
C657 C659 1.389 1_556 S
C658 H631 0.950 . S
C658 C644 1.377 . S
C658 C657 1.373 . S
C659 C643 1.377 . S
C659 C657 1.389 1_554 S
C659 C660 1.524 . S
C660 C659 1.524 . S
C660 C661 1.397 1_554 S
C660 C665 1.363 . S
C661 H632 0.950 . S
C661 C660 1.397 1_556 S
C661 C662 1.334 . S
C662 H633 0.950 . S
C662 C661 1.334 . S
C662 C663 1.287 1_556 S
C663 C662 1.287 1_554 S
C663 C664 1.524 . S
C663 H666 0.999 . S
C664 H634 0.950 . S
C664 C663 1.524 . S
C664 C665 1.415 . S
C665 H635 0.950 . S
C665 C660 1.363 . S
C665 C664 1.415 . S
H666 C663 0.999 . S
H667 C648 0.913 . S
H668 C686 0.951 . S
H669 C688 0.951 . S
H670 C690 0.950 . S
H671 C691 0.950 . S
H672 C693 0.950 . S
H673 C696 0.950 . S
H674 C697 0.950 . S
H675 C699 0.950 . S
H676 C700 0.950 . S
H677 C701 0.951 . S
H678 C703 0.951 . S
H679 C705 0.950 . S
H680 C706 0.950 . S
H681 C708 0.950 . S
H682 C711 0.950 . S
H683 C712 0.950 . S
H684 C714 0.950 . S
H685 C715 0.950 . S
C686 H668 0.951 . S
C686 C687 1.366 . S
C686 C688 1.388 . S
C687 C686 1.366 . S
C687 C691 1.385 . S
C688 H669 0.951 . S
C688 C686 1.388 . S
C688 C689 1.366 . S
C689 C688 1.366 . S
C689 C690 1.414 . S
C689 C692 1.499 . S
C690 H670 0.950 . S
C690 C689 1.414 . S
C690 C691 1.374 . S
C691 H671 0.950 . S
C691 C687 1.385 . S
C691 C690 1.374 . S
C692 C689 1.499 . S
C692 C693 1.373 . S
C692 C694 1.389 . S
C693 H672 0.950 . S
C693 C692 1.373 . S
C693 C709 1.377 . S
C694 C692 1.389 . S
C694 C695 1.524 . S
C694 C708 1.377 . S
C695 C694 1.524 . S
C695 C696 1.397 . S
C695 C700 1.363 . S
C696 H673 0.950 . S
C696 C695 1.397 . S
C696 C697 1.334 . S
C697 H674 0.950 . S
C697 C696 1.334 . S
C697 C698 1.287 . S
C698 C697 1.287 . S
C698 C699 1.524 . S
C698 H717 0.913 . S
C699 H675 0.950 . S
C699 C698 1.524 . S
C699 C700 1.415 . S
C700 H676 0.950 . S
C700 C695 1.363 . S
C700 C699 1.415 . S
C701 H677 0.951 . S
C701 C702 1.366 . S
C701 C703 1.388 . S
C702 C701 1.366 . S
C702 C706 1.385 . S
C703 H678 0.951 . S
C703 C701 1.388 . S
C703 C704 1.366 . S
C704 C703 1.366 . S
C704 C705 1.414 . S
C704 C707 1.499 . S
C705 H679 0.950 . S
C705 C704 1.414 . S
C705 C706 1.374 . S
C706 H680 0.950 . S
C706 C702 1.385 . S
C706 C705 1.374 . S
C707 C704 1.499 . S
C707 C708 1.373 . S
C707 C709 1.389 . S
C708 H681 0.950 . S
C708 C694 1.377 . S
C708 C707 1.373 . S
C709 C693 1.377 . S
C709 C707 1.389 . S
C709 C710 1.524 . S
C710 C709 1.524 . S
C710 C711 1.397 . S
C710 C715 1.363 . S
C711 H682 0.950 . S
C711 C710 1.397 . S
C711 C712 1.334 . S
C712 H683 0.950 . S
C712 C711 1.334 . S
C712 C713 1.287 . S
C713 C712 1.287 . S
C713 C714 1.524 . S
C713 H716 0.999 . S
C714 H684 0.950 . S
C714 C713 1.524 . S
C714 C715 1.415 . S
C715 H685 0.950 . S
C715 C710 1.363 . S
C715 C714 1.415 . S
H716 C713 0.999 . S
H717 C698 0.913 . S
H718 C736 0.951 . S
H719 C738 0.951 . S
H720 C740 0.950 . S
H721 C741 0.950 . S
H722 C743 0.950 . S
H723 C746 0.950 . S
H724 C747 0.950 . S
H725 C749 0.950 . S
H726 C750 0.950 . S
H727 C751 0.951 . S
H728 C753 0.951 . S
H729 C755 0.950 . S
H730 C756 0.950 . S
H731 C758 0.950 . S
H732 C761 0.950 . S
H733 C762 0.950 . S
H734 C764 0.950 . S
H735 C765 0.950 . S
C736 H718 0.951 . S
C736 C737 1.366 . S
C736 C738 1.388 . S
C737 C736 1.366 . S
C737 C741 1.385 . S
C738 H719 0.951 . S
C738 C736 1.388 . S
C738 C739 1.366 . S
C739 C738 1.366 . S
C739 C740 1.414 . S
C739 C742 1.499 . S
C740 H720 0.950 . S
C740 C739 1.414 . S
C740 C741 1.374 . S
C741 H721 0.950 . S
C741 C737 1.385 . S
C741 C740 1.374 . S
C742 C739 1.499 . S
C742 C743 1.373 . S
C742 C744 1.389 . S
C743 H722 0.950 . S
C743 C742 1.373 . S
C743 C759 1.377 . S
C744 C742 1.389 . S
C744 C745 1.524 . S
C744 C758 1.377 . S
C745 C744 1.524 . S
C745 C746 1.397 . S
C745 C750 1.363 . S
C746 H723 0.950 . S
C746 C745 1.397 . S
C746 C747 1.334 . S
C747 H724 0.950 . S
C747 C746 1.334 . S
C747 C748 1.287 . S
C748 C747 1.287 . S
C748 C749 1.524 . S
C748 H767 0.913 . S
C749 H725 0.950 . S
C749 C748 1.524 . S
C749 C750 1.415 . S
C750 H726 0.950 . S
C750 C745 1.363 . S
C750 C749 1.415 . S
C751 H727 0.951 . S
C751 C752 1.366 . S
C751 C753 1.388 . S
C752 C751 1.366 . S
C752 C756 1.385 . S
C753 H728 0.951 . S
C753 C751 1.388 . S
C753 C754 1.366 . S
C754 C753 1.366 . S
C754 C755 1.414 . S
C754 C757 1.499 . S
C755 H729 0.950 . S
C755 C754 1.414 . S
C755 C756 1.374 . S
C756 H730 0.950 . S
C756 C752 1.385 . S
C756 C755 1.374 . S
C757 C754 1.499 . S
C757 C758 1.373 . S
C757 C759 1.389 . S
C758 H731 0.950 . S
C758 C744 1.377 . S
C758 C757 1.373 . S
C759 C743 1.377 . S
C759 C757 1.389 . S
C759 C760 1.524 . S
C760 C759 1.524 . S
C760 C761 1.397 . S
C760 C765 1.363 . S
C761 H732 0.950 . S
C761 C760 1.397 . S
C761 C762 1.334 . S
C762 H733 0.950 . S
C762 C761 1.334 . S
C762 C763 1.287 . S
C763 C762 1.287 . S
C763 C764 1.524 . S
C763 H766 0.999 . S
C764 H734 0.950 . S
C764 C763 1.524 . S
C764 C765 1.415 . S
C765 H735 0.950 . S
C765 C760 1.363 . S
C765 C764 1.415 . S
H766 C763 0.999 . S
H767 C748 0.913 . S
H768 C786 0.951 . S
H769 C788 0.951 . S
H770 C790 0.950 . S
H771 C791 0.950 . S
H772 C793 0.950 . S
H773 C796 0.950 . S
H774 C797 0.950 . S
H775 C799 0.950 . S
H776 C800 0.950 . S
H777 C801 0.951 . S
H778 C803 0.951 . S
H779 C805 0.950 . S
H780 C806 0.950 . S
H781 C808 0.950 . S
H782 C811 0.950 . S
H783 C812 0.950 . S
H784 C814 0.950 . S
H785 C815 0.950 . S
C786 H768 0.951 . S
C786 C787 1.366 . S
C786 C788 1.388 . S
C787 C786 1.366 . S
C787 C791 1.385 . S
C788 H769 0.951 . S
C788 C786 1.388 . S
C788 C789 1.366 . S
C789 C788 1.366 . S
C789 C790 1.414 . S
C789 C792 1.499 . S
C790 H770 0.950 . S
C790 C789 1.414 . S
C790 C791 1.374 . S
C791 H771 0.950 . S
C791 C787 1.385 . S
C791 C790 1.374 . S
C792 C789 1.499 . S
C792 C793 1.373 . S
C792 C794 1.389 . S
C793 H772 0.950 . S
C793 C792 1.373 . S
C793 C809 1.377 . S
C794 C792 1.389 . S
C794 C795 1.524 . S
C794 C808 1.377 . S
C795 C794 1.524 . S
C795 C796 1.397 . S
C795 C800 1.363 . S
C796 H773 0.950 . S
C796 C795 1.397 . S
C796 C797 1.334 . S
C797 H774 0.950 . S
C797 C796 1.334 . S
C797 C798 1.287 . S
C798 C797 1.287 . S
C798 C799 1.524 . S
C798 H817 0.913 . S
C799 H775 0.950 . S
C799 C798 1.524 . S
C799 C800 1.415 . S
C800 H776 0.950 . S
C800 C795 1.363 . S
C800 C799 1.415 . S
C801 H777 0.951 . S
C801 C802 1.366 . S
C801 C803 1.388 . S
C802 C801 1.366 . S
C802 C806 1.385 . S
C803 H778 0.951 . S
C803 C801 1.388 . S
C803 C804 1.366 . S
C804 C803 1.366 . S
C804 C805 1.414 . S
C804 C807 1.499 . S
C805 H779 0.950 . S
C805 C804 1.414 . S
C805 C806 1.374 . S
C806 H780 0.950 . S
C806 C802 1.385 . S
C806 C805 1.374 . S
C807 C804 1.499 . S
C807 C808 1.373 . S
C807 C809 1.389 . S
C808 H781 0.950 . S
C808 C794 1.377 . S
C808 C807 1.373 . S
C809 C793 1.377 . S
C809 C807 1.389 . S
C809 C810 1.524 . S
C810 C809 1.524 . S
C810 C811 1.397 . S
C810 C815 1.363 . S
C811 H782 0.950 . S
C811 C810 1.397 . S
C811 C812 1.334 . S
C812 H783 0.950 . S
C812 C811 1.334 . S
C812 C813 1.287 . S
C813 C812 1.287 . S
C813 C814 1.524 . S
C813 H816 0.999 . S
C814 H784 0.950 . S
C814 C813 1.524 . S
C814 C815 1.415 . S
C815 H785 0.950 . S
C815 C810 1.363 . S
C815 C814 1.415 . S
H816 C813 0.999 . S
H817 C798 0.913 . S
H818 C836 0.951 . S
H819 C838 0.951 . S
H820 C840 0.950 . S
H821 C841 0.950 . S
H822 C843 0.950 . S
H823 C846 0.950 . S
H824 C847 0.950 . S
H825 C849 0.950 . S
H826 C850 0.950 . S
H827 C851 0.951 . S
H828 C853 0.951 . S
H829 C855 0.950 . S
H830 C856 0.950 . S
H831 C858 0.950 . S
H832 C861 0.950 . S
H833 C862 0.950 . S
H834 C864 0.950 . S
H835 C865 0.950 . S
C836 H818 0.951 . S
C836 C837 1.366 . S
C836 C838 1.388 . S
C837 C836 1.366 . S
C837 C841 1.385 . S
C838 H819 0.951 . S
C838 C836 1.388 . S
C838 C839 1.366 . S
C839 C838 1.366 . S
C839 C840 1.414 . S
C839 C842 1.499 . S
C840 H820 0.950 . S
C840 C839 1.414 . S
C840 C841 1.374 . S
C841 H821 0.950 . S
C841 C837 1.385 . S
C841 C840 1.374 . S
C842 C839 1.499 . S
C842 C843 1.373 . S
C842 C844 1.389 1_655 S
C843 H822 0.950 . S
C843 C842 1.373 . S
C843 C859 1.377 . S
C844 C842 1.389 1_455 S
C844 C845 1.524 . S
C844 C858 1.377 . S
C845 C844 1.524 . S
C845 C846 1.397 . S
C845 C850 1.363 . S
C846 H823 0.950 . S
C846 C845 1.397 . S
C846 C847 1.334 . S
C847 H824 0.950 . S
C847 C846 1.334 . S
C847 C848 1.287 . S
C848 C847 1.287 . S
C848 C849 1.524 . S
C848 H867 0.913 . S
C849 H825 0.950 . S
C849 C848 1.524 . S
C849 C850 1.415 . S
C850 H826 0.950 . S
C850 C845 1.363 . S
C850 C849 1.415 . S
C851 H827 0.951 . S
C851 C852 1.366 . S
C851 C853 1.388 . S
C852 C851 1.366 . S
C852 C856 1.385 . S
C853 H828 0.951 . S
C853 C851 1.388 . S
C853 C854 1.366 . S
C854 C853 1.366 . S
C854 C855 1.414 . S
C854 C857 1.499 . S
C855 H829 0.950 . S
C855 C854 1.414 . S
C855 C856 1.374 . S
C856 H830 0.950 . S
C856 C852 1.385 . S
C856 C855 1.374 . S
C857 C854 1.499 . S
C857 C858 1.373 . S
C857 C859 1.389 1_455 S
C858 H831 0.950 . S
C858 C844 1.377 . S
C858 C857 1.373 . S
C859 C843 1.377 . S
C859 C857 1.389 1_655 S
C859 C860 1.524 . S
C860 C859 1.524 . S
C860 C861 1.397 . S
C860 C865 1.363 . S
C861 H832 0.950 . S
C861 C860 1.397 . S
C861 C862 1.334 . S
C862 H833 0.950 . S
C862 C861 1.334 . S
C862 C863 1.287 . S
C863 C862 1.287 . S
C863 C864 1.524 . S
C863 H866 0.999 . S
C864 H834 0.950 . S
C864 C863 1.524 . S
C864 C865 1.415 . S
C865 H835 0.950 . S
C865 C860 1.363 . S
C865 C864 1.415 . S
H866 C863 0.999 . S
H867 C848 0.913 . S
H868 C886 0.951 . S
H869 C888 0.951 . S
H870 C890 0.950 . S
H871 C891 0.950 . S
H872 C893 0.950 . S
H873 C896 0.950 . S
H874 C897 0.950 . S
H875 C899 0.950 . S
H876 C900 0.950 . S
H877 C901 0.951 . S
H878 C903 0.951 . S
H879 C905 0.950 . S
H880 C906 0.950 . S
H881 C908 0.950 . S
H882 C911 0.950 . S
H883 C912 0.950 . S
H884 C914 0.950 . S
H885 C915 0.950 . S
C886 H868 0.951 . S
C886 C887 1.366 1_545 S
C886 C888 1.388 . S
C887 C886 1.366 1_565 S
C887 C891 1.385 . S
C888 H869 0.951 . S
C888 C886 1.388 . S
C888 C889 1.366 1_545 S
C889 C888 1.366 1_565 S
C889 C890 1.414 . S
C889 C892 1.499 . S
C890 H870 0.950 . S
C890 C889 1.414 . S
C890 C891 1.374 . S
C891 H871 0.950 . S
C891 C887 1.385 . S
C891 C890 1.374 . S
C892 C889 1.499 . S
C892 C893 1.373 . S
C892 C894 1.389 1_565 S
C893 H872 0.950 . S
C893 C892 1.373 . S
C893 C909 1.377 . S
C894 C892 1.389 1_545 S
C894 C895 1.524 . S
C894 C908 1.377 . S
C895 C894 1.524 . S
C895 C896 1.397 . S
C895 C900 1.363 . S
C896 H873 0.950 . S
C896 C895 1.397 . S
C896 C897 1.334 . S
C897 H874 0.950 . S
C897 C896 1.334 . S
C897 C898 1.287 . S
C898 C897 1.287 . S
C898 C899 1.524 . S
C898 H917 0.913 . S
C899 H875 0.950 . S
C899 C898 1.524 . S
C899 C900 1.415 . S
C900 H876 0.950 . S
C900 C895 1.363 . S
C900 C899 1.415 . S
C901 H877 0.951 . S
C901 C902 1.366 1_565 S
C901 C903 1.388 . S
C902 C901 1.366 1_545 S
C902 C906 1.385 . S
C903 H878 0.951 . S
C903 C901 1.388 . S
C903 C904 1.366 1_565 S
C904 C903 1.366 1_545 S
C904 C905 1.414 . S
C904 C907 1.499 . S
C905 H879 0.950 . S
C905 C904 1.414 . S
C905 C906 1.374 . S
C906 H880 0.950 . S
C906 C902 1.385 . S
C906 C905 1.374 . S
C907 C904 1.499 . S
C907 C908 1.373 . S
C907 C909 1.389 1_545 S
C908 H881 0.950 . S
C908 C894 1.377 . S
C908 C907 1.373 . S
C909 C893 1.377 . S
C909 C907 1.389 1_565 S
C909 C910 1.524 . S
C910 C909 1.524 . S
C910 C911 1.397 . S
C910 C915 1.363 . S
C911 H882 0.950 . S
C911 C910 1.397 . S
C911 C912 1.334 . S
C912 H883 0.950 . S
C912 C911 1.334 . S
C912 C913 1.287 . S
C913 C912 1.287 . S
C913 C914 1.524 . S
C913 H916 0.999 . S
C914 H884 0.950 . S
C914 C913 1.524 . S
C914 C915 1.415 . S
C915 H885 0.950 . S
C915 C910 1.363 . S
C915 C914 1.415 . S
H916 C913 0.999 . S
H917 C898 0.913 . S
H918 C936 0.951 . S
H919 C938 0.951 . S
H920 C940 0.950 . S
H921 C941 0.950 . S
H922 C943 0.950 . S
H923 C946 0.950 . S
H924 C947 0.950 . S
H925 C949 0.950 . S
H926 C950 0.950 . S
H927 C951 0.951 . S
H928 C953 0.951 . S
H929 C955 0.950 . S
H930 C956 0.950 . S
H931 C958 0.950 . S
H932 C961 0.950 . S
H933 C962 0.950 . S
H934 C964 0.950 . S
H935 C965 0.950 . S
C936 H918 0.951 . S
C936 C937 1.366 . S
C936 C938 1.388 . S
C937 C936 1.366 . S
C937 C941 1.385 . S
C938 H919 0.951 . S
C938 C936 1.388 . S
C938 C939 1.366 . S
C939 C938 1.366 . S
C939 C940 1.414 . S
C939 C942 1.499 . S
C940 H920 0.950 . S
C940 C939 1.414 . S
C940 C941 1.374 . S
C941 H921 0.950 . S
C941 C937 1.385 . S
C941 C940 1.374 . S
C942 C939 1.499 . S
C942 C943 1.373 . S
C942 C944 1.389 . S
C943 H922 0.950 . S
C943 C942 1.373 . S
C943 C959 1.377 . S
C944 C942 1.389 . S
C944 C945 1.524 . S
C944 C958 1.377 . S
C945 C944 1.524 . S
C945 C946 1.397 . S
C945 C950 1.363 . S
C946 H923 0.950 . S
C946 C945 1.397 . S
C946 C947 1.334 . S
C947 H924 0.950 . S
C947 C946 1.334 . S
C947 C948 1.287 . S
C948 C947 1.287 . S
C948 C949 1.524 . S
C948 H967 0.913 . S
C949 H925 0.950 . S
C949 C948 1.524 . S
C949 C950 1.415 . S
C950 H926 0.950 . S
C950 C945 1.363 . S
C950 C949 1.415 . S
C951 H927 0.951 . S
C951 C952 1.366 . S
C951 C953 1.388 . S
C952 C951 1.366 . S
C952 C956 1.385 . S
C953 H928 0.951 . S
C953 C951 1.388 . S
C953 C954 1.366 . S
C954 C953 1.366 . S
C954 C955 1.414 . S
C954 C957 1.499 . S
C955 H929 0.950 . S
C955 C954 1.414 . S
C955 C956 1.374 . S
C956 H930 0.950 . S
C956 C952 1.385 . S
C956 C955 1.374 . S
C957 C954 1.499 . S
C957 C958 1.373 . S
C957 C959 1.389 . S
C958 H931 0.950 . S
C958 C944 1.377 . S
C958 C957 1.373 . S
C959 C943 1.377 . S
C959 C957 1.389 . S
C959 C960 1.524 . S
C960 C959 1.524 . S
C960 C961 1.397 . S
C960 C965 1.363 . S
C961 H932 0.950 . S
C961 C960 1.397 . S
C961 C962 1.334 . S
C962 H933 0.950 . S
C962 C961 1.334 . S
C962 C963 1.287 . S
C963 C962 1.287 . S
C963 C964 1.524 . S
C963 H966 0.999 . S
C964 H934 0.950 . S
C964 C963 1.524 . S
C964 C965 1.415 . S
C965 H935 0.950 . S
C965 C960 1.363 . S
C965 C964 1.415 . S
H966 C963 0.999 . S
H967 C948 0.913 . S
H968 C986 0.951 . S
H969 C988 0.951 . S
H970 C990 0.950 . S
H971 C991 0.950 . S
H972 C993 0.950 . S
H973 C996 0.954 1_455 S
H974 C997 0.950 1_455 S
H975 C999 0.950 . S
H976 C1000 0.950 . S
H977 C1001 0.951 . S
H978 C1003 0.951 . S
H979 C1005 0.950 . S
H980 C1006 0.950 . S
H981 C1008 0.950 . S
H982 C1011 0.954 1_655 S
H983 C1012 0.950 1_655 S
H984 C1014 0.950 . S
H985 C1015 0.950 . S
C986 H968 0.951 . S
C986 C987 1.366 1_655 S
C986 C988 1.388 . S
C987 C986 1.366 1_455 S
C987 C991 1.385 . S
C988 H969 0.951 . S
C988 C986 1.388 . S
C988 C989 1.366 1_655 S
C989 C988 1.366 1_455 S
C989 C990 1.414 . S
C989 C992 1.499 . S
C990 H970 0.950 . S
C990 C989 1.414 . S
C990 C991 1.374 . S
C991 H971 0.950 . S
C991 C987 1.385 . S
C991 C990 1.374 . S
C992 C989 1.499 . S
C992 C993 1.373 . S
C992 C994 1.389 1_455 S
C993 H972 0.950 . S
C993 C992 1.373 . S
C993 C1009 1.377 . S
C994 C992 1.389 1_655 S
C994 C995 1.524 . S
C994 C1008 1.377 . S
C995 C994 1.524 . S
C995 C996 1.391 . S
C995 C1000 1.363 . S
C996 H973 0.954 1_655 S
C996 C995 1.391 . S
C996 C997 1.335 . S
C997 H974 0.950 1_655 S
C997 C996 1.335 . S
C997 C998 1.287 . S
C998 C997 1.287 . S
C998 C999 1.524 . S
C998 H1017 0.913 . S
C999 H975 0.950 . S
C999 C998 1.524 . S
C999 C1000 1.415 . S
C1000 H976 0.950 . S
C1000 C995 1.363 . S
C1000 C999 1.415 . S
C1001 H977 0.951 . S
C1001 C1002 1.366 1_455 S
C1001 C1003 1.388 . S
C1002 C1001 1.366 1_655 S
C1002 C1006 1.385 . S
C1003 H978 0.951 . S
C1003 C1001 1.388 . S
C1003 C1004 1.366 1_455 S
C1004 C1003 1.366 1_655 S
C1004 C1005 1.414 . S
C1004 C1007 1.499 . S
C1005 H979 0.950 . S
C1005 C1004 1.414 . S
C1005 C1006 1.374 . S
C1006 H980 0.950 . S
C1006 C1002 1.385 . S
C1006 C1005 1.374 . S
C1007 C1004 1.499 . S
C1007 C1008 1.373 . S
C1007 C1009 1.389 1_655 S
C1008 H981 0.950 . S
C1008 C994 1.377 . S
C1008 C1007 1.373 . S
C1009 C993 1.377 . S
C1009 C1007 1.389 1_455 S
C1009 C1010 1.524 . S
C1010 C1009 1.524 . S
C1010 C1011 1.391 . S
C1010 C1015 1.363 . S
C1011 H982 0.954 1_455 S
C1011 C1010 1.391 . S
C1011 C1012 1.336 . S
C1012 H983 0.950 1_455 S
C1012 C1011 1.336 . S
C1012 C1013 1.287 . S
C1013 C1012 1.287 . S
C1013 C1014 1.524 . S
C1013 H1016 0.999 . S
C1014 H984 0.950 . S
C1014 C1013 1.524 . S
C1014 C1015 1.415 . S
C1015 H985 0.950 . S
C1015 C1010 1.363 . S
C1015 C1014 1.415 . S
H1016 C1013 0.999 . S
H1017 C998 0.913 . S
H1018 C1036 0.951 . S
H1019 C1038 0.951 . S
H1020 C1040 0.950 . S
H1021 C1041 0.950 . S
H1022 C1043 0.950 . S
H1023 C1046 0.950 . S
H1024 C1047 0.950 . S
H1025 C1049 0.950 . S
H1026 C1050 0.950 . S
H1027 C1051 0.951 . S
H1028 C1053 0.951 . S
H1029 C1055 0.950 . S
H1030 C1056 0.950 . S
H1031 C1058 0.950 . S
H1032 C1061 0.950 . S
H1033 C1062 0.950 . S
H1034 C1064 0.950 . S
H1035 C1065 0.950 . S
C1036 H1018 0.951 . S
C1036 C1037 1.366 1_545 S
C1036 C1038 1.388 . S
C1037 C1036 1.366 1_565 S
C1037 C1041 1.385 . S
C1038 H1019 0.951 . S
C1038 C1036 1.388 . S
C1038 C1039 1.366 1_545 S
C1039 C1038 1.366 1_565 S
C1039 C1040 1.414 . S
C1039 C1042 1.499 . S
C1040 H1020 0.950 . S
C1040 C1039 1.414 . S
C1040 C1041 1.374 . S
C1041 H1021 0.950 . S
C1041 C1037 1.385 . S
C1041 C1040 1.374 . S
C1042 C1039 1.499 . S
C1042 C1043 1.373 . S
C1042 C1044 1.389 1_565 S
C1043 H1022 0.950 . S
C1043 C1042 1.373 . S
C1043 C1059 1.377 . S
C1044 C1042 1.389 1_545 S
C1044 C1045 1.524 . S
C1044 C1058 1.377 . S
C1045 C1044 1.524 . S
C1045 C1046 1.397 . S
C1045 C1050 1.363 . S
C1046 H1023 0.950 . S
C1046 C1045 1.397 . S
C1046 C1047 1.334 . S
C1047 H1024 0.950 . S
C1047 C1046 1.334 . S
C1047 C1048 1.287 . S
C1048 C1047 1.287 . S
C1048 C1049 1.524 . S
C1048 H1067 0.913 . S
C1049 H1025 0.950 . S
C1049 C1048 1.524 . S
C1049 C1050 1.415 . S
C1050 H1026 0.950 . S
C1050 C1045 1.363 . S
C1050 C1049 1.415 . S
C1051 H1027 0.951 . S
C1051 C1052 1.366 1_565 S
C1051 C1053 1.388 . S
C1052 C1051 1.366 1_545 S
C1052 C1056 1.385 . S
C1053 H1028 0.951 . S
C1053 C1051 1.388 . S
C1053 C1054 1.366 1_565 S
C1054 C1053 1.366 1_545 S
C1054 C1055 1.414 . S
C1054 C1057 1.499 . S
C1055 H1029 0.950 . S
C1055 C1054 1.414 . S
C1055 C1056 1.374 . S
C1056 H1030 0.950 . S
C1056 C1052 1.385 . S
C1056 C1055 1.374 . S
C1057 C1054 1.499 . S
C1057 C1058 1.373 . S
C1057 C1059 1.389 1_545 S
C1058 H1031 0.950 . S
C1058 C1044 1.377 . S
C1058 C1057 1.373 . S
C1059 C1043 1.377 . S
C1059 C1057 1.389 1_565 S
C1059 C1060 1.524 . S
C1060 C1059 1.524 . S
C1060 C1061 1.397 . S
C1060 C1065 1.363 . S
C1061 H1032 0.950 . S
C1061 C1060 1.397 . S
C1061 C1062 1.334 . S
C1062 H1033 0.950 . S
C1062 C1061 1.334 . S
C1062 C1063 1.287 . S
C1063 C1062 1.287 . S
C1063 C1064 1.524 . S
C1063 H1066 0.999 . S
C1064 H1034 0.950 . S
C1064 C1063 1.524 . S
C1064 C1065 1.415 . S
C1065 H1035 0.950 . S
C1065 C1060 1.363 . S
C1065 C1064 1.415 . S
H1066 C1063 0.999 . S
H1067 C1048 0.913 . S
H1068 C1086 0.951 . S
H1069 C1088 0.951 . S
H1070 C1090 0.950 . S
H1071 C1091 0.950 . S
H1072 C1093 0.950 . S
H1073 C1096 0.950 . S
H1074 C1097 0.950 . S
H1075 C1099 0.950 . S
H1076 C1100 0.950 . S
H1077 C1101 0.951 . S
H1078 C1103 0.951 . S
H1079 C1105 0.950 . S
H1080 C1106 0.950 . S
H1081 C1108 0.950 . S
H1082 C1111 0.950 . S
H1083 C1112 0.950 . S
H1084 C1114 0.950 . S
H1085 C1115 0.950 . S
C1086 H1068 0.951 . S
C1086 C1087 1.366 . S
C1086 C1088 1.388 . S
C1087 C1086 1.366 . S
C1087 C1091 1.385 . S
C1088 H1069 0.951 . S
C1088 C1086 1.388 . S
C1088 C1089 1.366 . S
C1089 C1088 1.366 . S
C1089 C1090 1.414 . S
C1089 C1092 1.499 . S
C1090 H1070 0.950 . S
C1090 C1089 1.414 . S
C1090 C1091 1.374 . S
C1091 H1071 0.950 . S
C1091 C1087 1.385 . S
C1091 C1090 1.374 . S
C1092 C1089 1.499 . S
C1092 C1093 1.373 . S
C1092 C1094 1.389 . S
C1093 H1072 0.950 . S
C1093 C1092 1.373 . S
C1093 C1109 1.377 . S
C1094 C1092 1.389 . S
C1094 C1095 1.524 . S
C1094 C1108 1.377 . S
C1095 C1094 1.524 . S
C1095 C1096 1.397 . S
C1095 C1100 1.363 . S
C1096 H1073 0.950 . S
C1096 C1095 1.397 . S
C1096 C1097 1.334 1_554 S
C1097 H1074 0.950 . S
C1097 C1096 1.334 1_556 S
C1097 C1098 1.287 1_556 S
C1098 C1097 1.287 1_554 S
C1098 C1099 1.524 . S
C1098 H1117 0.913 . S
C1099 H1075 0.950 . S
C1099 C1098 1.524 . S
C1099 C1100 1.415 . S
C1100 H1076 0.950 . S
C1100 C1095 1.363 . S
C1100 C1099 1.415 . S
C1101 H1077 0.951 . S
C1101 C1102 1.366 . S
C1101 C1103 1.388 . S
C1102 C1101 1.366 . S
C1102 C1106 1.385 . S
C1103 H1078 0.951 . S
C1103 C1101 1.388 . S
C1103 C1104 1.366 . S
C1104 C1103 1.366 . S
C1104 C1105 1.414 . S
C1104 C1107 1.499 . S
C1105 H1079 0.950 . S
C1105 C1104 1.414 . S
C1105 C1106 1.374 . S
C1106 H1080 0.950 . S
C1106 C1102 1.385 . S
C1106 C1105 1.374 . S
C1107 C1104 1.499 . S
C1107 C1108 1.373 . S
C1107 C1109 1.389 . S
C1108 H1081 0.950 . S
C1108 C1094 1.377 . S
C1108 C1107 1.373 . S
C1109 C1093 1.377 . S
C1109 C1107 1.389 . S
C1109 C1110 1.524 . S
C1110 C1109 1.524 . S
C1110 C1111 1.397 . S
C1110 C1115 1.363 . S
C1111 H1082 0.950 . S
C1111 C1110 1.397 . S
C1111 C1112 1.334 . S
C1112 H1083 0.950 . S
C1112 C1111 1.334 . S
C1112 C1113 1.287 . S
C1113 C1112 1.287 . S
C1113 C1114 1.524 . S
C1113 H1116 0.999 . S
C1114 H1084 0.950 . S
C1114 C1113 1.524 . S
C1114 C1115 1.415 . S
C1115 H1085 0.950 . S
C1115 C1110 1.363 . S
C1115 C1114 1.415 . S
H1116 C1113 0.999 . S
H1117 C1098 0.913 . S
H1118 C1136 0.951 1_655 S
H1119 C1138 0.951 . S
H1120 C1140 0.950 . S
H1121 C1141 0.950 . S
H1122 C1143 0.950 . S
H1123 C1146 0.950 . S
H1124 C1147 0.950 . S
H1125 C1149 0.950 . S
H1126 C1150 0.950 . S
H1127 C1151 0.951 1_455 S
H1128 C1153 0.951 . S
H1129 C1155 0.950 . S
H1130 C1156 0.950 . S
H1131 C1158 0.950 . S
H1132 C1161 0.950 . S
H1133 C1162 0.950 . S
H1134 C1164 0.950 . S
H1135 C1165 0.950 . S
C1136 H1118 0.951 1_455 S
C1136 C1137 1.366 . S
C1136 C1138 1.388 1_455 S
C1137 C1136 1.366 . S
C1137 C1141 1.385 . S
C1138 H1119 0.951 . S
C1138 C1136 1.388 1_655 S
C1138 C1139 1.366 1_655 S
C1139 C1138 1.366 1_455 S
C1139 C1140 1.414 . S
C1139 C1142 1.499 . S
C1140 H1120 0.950 . S
C1140 C1139 1.414 . S
C1140 C1141 1.374 . S
C1141 H1121 0.950 . S
C1141 C1137 1.385 . S
C1141 C1140 1.374 . S
C1142 C1139 1.499 . S
C1142 C1143 1.373 . S
C1142 C1144 1.389 1_455 S
C1143 H1122 0.950 . S
C1143 C1142 1.373 . S
C1143 C1159 1.377 . S
C1144 C1142 1.389 1_655 S
C1144 C1145 1.524 . S
C1144 C1158 1.377 . S
C1145 C1144 1.524 . S
C1145 C1146 1.397 . S
C1145 C1150 1.363 . S
C1146 H1123 0.950 . S
C1146 C1145 1.397 . S
C1146 C1147 1.334 . S
C1147 H1124 0.950 . S
C1147 C1146 1.334 . S
C1147 C1148 1.287 . S
C1148 C1147 1.287 . S
C1148 C1149 1.524 . S
C1148 H1167 0.913 . S
C1149 H1125 0.950 . S
C1149 C1148 1.524 . S
C1149 C1150 1.415 . S
C1150 H1126 0.950 . S
C1150 C1145 1.363 . S
C1150 C1149 1.415 . S
C1151 H1127 0.951 1_655 S
C1151 C1152 1.366 . S
C1151 C1153 1.388 1_655 S
C1152 C1151 1.366 . S
C1152 C1156 1.385 . S
C1153 H1128 0.951 . S
C1153 C1151 1.388 1_455 S
C1153 C1154 1.366 1_455 S
C1154 C1153 1.366 1_655 S
C1154 C1155 1.414 . S
C1154 C1157 1.499 . S
C1155 H1129 0.950 . S
C1155 C1154 1.414 . S
C1155 C1156 1.374 . S
C1156 H1130 0.950 . S
C1156 C1152 1.385 . S
C1156 C1155 1.374 . S
C1157 C1154 1.499 . S
C1157 C1158 1.373 . S
C1157 C1159 1.389 1_655 S
C1158 H1131 0.950 . S
C1158 C1144 1.377 . S
C1158 C1157 1.373 . S
C1159 C1143 1.377 . S
C1159 C1157 1.389 1_455 S
C1159 C1160 1.524 . S
C1160 C1159 1.524 . S
C1160 C1161 1.397 . S
C1160 C1165 1.363 . S
C1161 H1132 0.950 . S
C1161 C1160 1.397 . S
C1161 C1162 1.334 . S
C1162 H1133 0.950 . S
C1162 C1161 1.334 . S
C1162 C1163 1.287 . S
C1163 C1162 1.287 . S
C1163 C1164 1.524 . S
C1163 H1166 0.999 . S
C1164 H1134 0.950 . S
C1164 C1163 1.524 . S
C1164 C1165 1.415 . S
C1165 H1135 0.950 . S
C1165 C1160 1.363 . S
C1165 C1164 1.415 . S
H1166 C1163 0.999 . S
H1167 C1148 0.913 . S
H1168 C1186 0.951 . S
H1169 C1188 0.951 1_545 S
H1170 C1190 0.950 . S
H1171 C1191 0.950 . S
H1172 C1193 0.950 . S
H1173 C1196 0.950 . S
H1174 C1197 0.950 . S
H1175 C1199 0.950 . S
H1176 C1200 0.950 . S
H1177 C1201 0.951 . S
H1178 C1203 0.951 1_565 S
H1179 C1205 0.950 . S
H1180 C1206 0.950 . S
H1181 C1208 0.950 . S
H1182 C1211 0.950 . S
H1183 C1212 0.950 . S
H1184 C1214 0.950 . S
H1185 C1215 0.950 . S
C1186 H1168 0.951 . S
C1186 C1187 1.366 . S
C1186 C1188 1.388 . S
C1187 C1186 1.366 . S
C1187 C1191 1.385 . S
C1188 H1169 0.951 1_565 S
C1188 C1186 1.388 . S
C1188 C1189 1.366 . S
C1189 C1188 1.366 . S
C1189 C1190 1.414 . S
C1189 C1192 1.499 . S
C1190 H1170 0.950 . S
C1190 C1189 1.414 . S
C1190 C1191 1.374 . S
C1191 H1171 0.950 . S
C1191 C1187 1.385 . S
C1191 C1190 1.374 . S
C1192 C1189 1.499 . S
C1192 C1193 1.373 . S
C1192 C1194 1.389 1_565 S
C1193 H1172 0.950 . S
C1193 C1192 1.373 . S
C1193 C1209 1.377 . S
C1194 C1192 1.389 1_545 S
C1194 C1195 1.524 . S
C1194 C1208 1.377 . S
C1195 C1194 1.524 . S
C1195 C1196 1.397 . S
C1195 C1200 1.363 . S
C1196 H1173 0.950 . S
C1196 C1195 1.397 . S
C1196 C1197 1.334 . S
C1197 H1174 0.950 . S
C1197 C1196 1.334 . S
C1197 C1198 1.287 . S
C1198 C1197 1.287 . S
C1198 C1199 1.524 . S
C1198 H1217 0.913 . S
C1199 H1175 0.950 . S
C1199 C1198 1.524 . S
C1199 C1200 1.415 . S
C1200 H1176 0.950 . S
C1200 C1195 1.363 . S
C1200 C1199 1.415 . S
C1201 H1177 0.951 . S
C1201 C1202 1.366 . S
C1201 C1203 1.388 . S
C1202 C1201 1.366 . S
C1202 C1206 1.385 . S
C1203 H1178 0.951 1_545 S
C1203 C1201 1.388 . S
C1203 C1204 1.366 . S
C1204 C1203 1.366 . S
C1204 C1205 1.414 . S
C1204 C1207 1.499 . S
C1205 H1179 0.950 . S
C1205 C1204 1.414 . S
C1205 C1206 1.374 . S
C1206 H1180 0.950 . S
C1206 C1202 1.385 . S
C1206 C1205 1.374 . S
C1207 C1204 1.499 . S
C1207 C1208 1.373 . S
C1207 C1209 1.389 1_545 S
C1208 H1181 0.950 . S
C1208 C1194 1.377 . S
C1208 C1207 1.373 . S
C1209 C1193 1.377 . S
C1209 C1207 1.389 1_565 S
C1209 C1210 1.524 . S
C1210 C1209 1.524 . S
C1210 C1211 1.397 . S
C1210 C1215 1.363 . S
C1211 H1182 0.950 . S
C1211 C1210 1.397 . S
C1211 C1212 1.334 . S
C1212 H1183 0.950 . S
C1212 C1211 1.334 . S
C1212 C1213 1.287 . S
C1213 C1212 1.287 . S
C1213 C1214 1.524 . S
C1213 H1216 0.999 . S
C1214 H1184 0.950 . S
C1214 C1213 1.524 . S
C1214 C1215 1.415 . S
C1215 H1185 0.950 . S
C1215 C1210 1.363 . S
C1215 C1214 1.415 . S
H1216 C1213 0.999 . S
H1217 C1198 0.913 . S
H1218 C1236 0.951 . S
H1219 C1238 0.951 . S
H1220 C1240 0.950 . S
H1221 C1241 0.950 . S
H1222 C1243 0.950 . S
H1223 C1246 0.950 . S
H1224 C1247 0.950 . S
H1225 C1249 0.950 . S
H1226 C1250 0.950 . S
H1227 C1251 0.951 . S
H1228 C1253 0.951 . S
H1229 C1255 0.950 . S
H1230 C1256 0.950 . S
H1231 C1258 0.950 . S
H1232 C1261 0.950 . S
H1233 C1262 0.950 . S
H1234 C1264 0.950 . S
H1235 C1265 0.950 . S
C1236 H1218 0.951 . S
C1236 C1237 1.366 . S
C1236 C1238 1.388 . S
C1237 C1236 1.366 . S
C1237 C1241 1.385 . S
C1238 H1219 0.951 . S
C1238 C1236 1.388 . S
C1238 C1239 1.366 . S
C1239 C1238 1.366 . S
C1239 C1240 1.414 . S
C1239 C1242 1.499 . S
C1240 H1220 0.950 . S
C1240 C1239 1.414 . S
C1240 C1241 1.374 . S
C1241 H1221 0.950 . S
C1241 C1237 1.385 . S
C1241 C1240 1.374 . S
C1242 C1239 1.499 . S
C1242 C1243 1.373 . S
C1242 C1244 1.389 . S
C1243 H1222 0.950 . S
C1243 C1242 1.373 . S
C1243 C1259 1.377 . S
C1244 C1242 1.389 . S
C1244 C1245 1.524 . S
C1244 C1258 1.377 . S
C1245 C1244 1.524 . S
C1245 C1246 1.397 . S
C1245 C1250 1.363 . S
C1246 H1223 0.950 . S
C1246 C1245 1.397 . S
C1246 C1247 1.334 . S
C1247 H1224 0.950 . S
C1247 C1246 1.334 . S
C1247 C1248 1.287 . S
C1248 C1247 1.287 . S
C1248 C1249 1.524 . S
C1248 H1267 0.913 . S
C1249 H1225 0.950 . S
C1249 C1248 1.524 . S
C1249 C1250 1.415 . S
C1250 H1226 0.950 . S
C1250 C1245 1.363 . S
C1250 C1249 1.415 . S
C1251 H1227 0.951 . S
C1251 C1252 1.366 . S
C1251 C1253 1.388 . S
C1252 C1251 1.366 . S
C1252 C1256 1.385 . S
C1253 H1228 0.951 . S
C1253 C1251 1.388 . S
C1253 C1254 1.366 . S
C1254 C1253 1.366 . S
C1254 C1255 1.414 . S
C1254 C1257 1.499 . S
C1255 H1229 0.950 . S
C1255 C1254 1.414 . S
C1255 C1256 1.374 . S
C1256 H1230 0.950 . S
C1256 C1252 1.385 . S
C1256 C1255 1.374 . S
C1257 C1254 1.499 . S
C1257 C1258 1.373 . S
C1257 C1259 1.389 . S
C1258 H1231 0.950 . S
C1258 C1244 1.377 . S
C1258 C1257 1.373 . S
C1259 C1243 1.377 . S
C1259 C1257 1.389 . S
C1259 C1260 1.524 . S
C1260 C1259 1.524 . S
C1260 C1261 1.397 . S
C1260 C1265 1.363 . S
C1261 H1232 0.950 . S
C1261 C1260 1.397 . S
C1261 C1262 1.334 . S
C1262 H1233 0.950 . S
C1262 C1261 1.334 . S
C1262 C1263 1.287 . S
C1263 C1262 1.287 . S
C1263 C1264 1.524 . S
C1263 H1266 0.999 . S
C1264 H1234 0.950 . S
C1264 C1263 1.524 . S
C1264 C1265 1.415 . S
C1265 H1235 0.950 . S
C1265 C1260 1.363 . S
C1265 C1264 1.415 . S
H1266 C1263 0.999 . S
H1267 C1248 0.913 . S
H1268 C1286 0.951 1_455 S
H1269 C1288 0.951 . S
H1270 C1290 0.950 . S
H1271 C1291 0.950 . S
H1272 C1293 0.950 . S
H1273 C1296 0.950 1_655 S
H1274 C1297 0.950 . S
H1275 C1299 0.950 . S
H1276 C1300 0.950 . S
H1277 C1301 0.951 1_655 S
H1278 C1303 0.951 . S
H1279 C1305 0.950 . S
H1280 C1306 0.950 . S
H1281 C1308 0.950 . S
H1282 C1311 0.950 1_455 S
H1283 C1312 0.950 . S
H1284 C1314 0.950 . S
H1285 C1315 0.950 . S
C1286 H1268 0.951 1_655 S
C1286 C1287 1.366 . S
C1286 C1288 1.388 1_655 S
C1287 C1286 1.366 . S
C1287 C1291 1.385 . S
C1288 H1269 0.951 . S
C1288 C1286 1.388 1_455 S
C1288 C1289 1.366 1_455 S
C1289 C1288 1.366 1_655 S
C1289 C1290 1.414 . S
C1289 C1292 1.499 . S
C1290 H1270 0.950 . S
C1290 C1289 1.414 . S
C1290 C1291 1.374 . S
C1291 H1271 0.950 . S
C1291 C1287 1.385 . S
C1291 C1290 1.374 . S
C1292 C1289 1.499 . S
C1292 C1293 1.373 . S
C1292 C1294 1.389 1_655 S
C1293 H1272 0.950 . S
C1293 C1292 1.373 . S
C1293 C1309 1.377 . S
C1294 C1292 1.389 1_455 S
C1294 C1295 1.524 . S
C1294 C1308 1.377 . S
C1295 C1294 1.524 . S
C1295 C1296 1.397 . S
C1295 C1300 1.363 . S
C1296 H1273 0.950 1_455 S
C1296 C1295 1.397 . S
C1296 C1297 1.334 . S
C1297 H1274 0.950 . S
C1297 C1296 1.334 . S
C1297 C1298 1.287 . S
C1298 C1297 1.287 . S
C1298 C1299 1.524 . S
C1298 H1317 0.913 . S
C1299 H1275 0.950 . S
C1299 C1298 1.524 . S
C1299 C1300 1.415 . S
C1300 H1276 0.950 . S
C1300 C1295 1.363 . S
C1300 C1299 1.415 . S
C1301 H1277 0.951 1_455 S
C1301 C1302 1.366 . S
C1301 C1303 1.388 1_455 S
C1302 C1301 1.366 . S
C1302 C1306 1.385 . S
C1303 H1278 0.951 . S
C1303 C1301 1.388 1_655 S
C1303 C1304 1.366 1_655 S
C1304 C1303 1.366 1_455 S
C1304 C1305 1.414 . S
C1304 C1307 1.499 . S
C1305 H1279 0.950 . S
C1305 C1304 1.414 . S
C1305 C1306 1.374 . S
C1306 H1280 0.950 . S
C1306 C1302 1.385 . S
C1306 C1305 1.374 . S
C1307 C1304 1.499 . S
C1307 C1308 1.373 . S
C1307 C1309 1.389 1_455 S
C1308 H1281 0.950 . S
C1308 C1294 1.377 . S
C1308 C1307 1.373 . S
C1309 C1293 1.377 . S
C1309 C1307 1.389 1_655 S
C1309 C1310 1.524 . S
C1310 C1309 1.524 . S
C1310 C1311 1.397 1_556 S
C1310 C1315 1.363 . S
C1311 H1282 0.950 1_655 S
C1311 C1310 1.397 1_554 S
C1311 C1312 1.334 . S
C1312 H1283 0.950 . S
C1312 C1311 1.334 . S
C1312 C1313 1.287 . S
C1313 C1312 1.287 . S
C1313 C1314 1.524 . S
C1313 H1316 0.999 . S
C1314 H1284 0.950 . S
C1314 C1313 1.524 . S
C1314 C1315 1.415 1_554 S
C1315 H1285 0.950 . S
C1315 C1310 1.363 . S
C1315 C1314 1.415 1_556 S
H1316 C1313 0.999 . S
H1317 C1298 0.913 . S
H1318 C1336 0.951 . S
H1319 C1338 0.951 . S
H1320 C1340 0.950 . S
H1321 C1341 0.950 . S
H1322 C1343 0.950 . S
H1323 C1346 0.950 . S
H1324 C1347 0.950 . S
H1325 C1349 0.950 . S
H1326 C1350 0.950 . S
H1327 C1351 0.951 . S
H1328 C1353 0.951 . S
H1329 C1355 0.950 . S
H1330 C1356 0.950 . S
H1331 C1358 0.950 . S
H1332 C1361 0.950 . S
H1333 C1362 0.950 . S
H1334 C1364 0.950 . S
H1335 C1365 0.950 . S
C1336 H1318 0.951 . S
C1336 C1337 1.366 . S
C1336 C1338 1.388 . S
C1337 C1336 1.366 . S
C1337 C1341 1.385 . S
C1338 H1319 0.951 . S
C1338 C1336 1.388 . S
C1338 C1339 1.366 . S
C1339 C1338 1.366 . S
C1339 C1340 1.414 . S
C1339 C1342 1.499 . S
C1340 H1320 0.950 . S
C1340 C1339 1.414 . S
C1340 C1341 1.374 . S
C1341 H1321 0.950 . S
C1341 C1337 1.385 . S
C1341 C1340 1.374 . S
C1342 C1339 1.499 . S
C1342 C1343 1.373 1_545 S
C1342 C1344 1.389 . S
C1343 H1322 0.950 . S
C1343 C1342 1.373 1_565 S
C1343 C1359 1.377 . S
C1344 C1342 1.389 . S
C1344 C1345 1.524 . S
C1344 C1358 1.377 . S
C1345 C1344 1.524 . S
C1345 C1346 1.397 . S
C1345 C1350 1.363 . S
C1346 H1323 0.950 . S
C1346 C1345 1.397 . S
C1346 C1347 1.334 . S
C1347 H1324 0.950 . S
C1347 C1346 1.334 . S
C1347 C1348 1.287 . S
C1348 C1347 1.287 . S
C1348 C1349 1.524 . S
C1348 H1367 0.913 . S
C1349 H1325 0.950 . S
C1349 C1348 1.524 . S
C1349 C1350 1.415 . S
C1350 H1326 0.950 . S
C1350 C1345 1.363 . S
C1350 C1349 1.415 . S
C1351 H1327 0.951 . S
C1351 C1352 1.366 . S
C1351 C1353 1.388 . S
C1352 C1351 1.366 . S
C1352 C1356 1.385 . S
C1353 H1328 0.951 . S
C1353 C1351 1.388 . S
C1353 C1354 1.366 . S
C1354 C1353 1.366 . S
C1354 C1355 1.414 . S
C1354 C1357 1.499 . S
C1355 H1329 0.950 . S
C1355 C1354 1.414 . S
C1355 C1356 1.374 . S
C1356 H1330 0.950 . S
C1356 C1352 1.385 . S
C1356 C1355 1.374 . S
C1357 C1354 1.499 . S
C1357 C1358 1.373 1_565 S
C1357 C1359 1.389 . S
C1358 H1331 0.950 . S
C1358 C1344 1.377 . S
C1358 C1357 1.373 1_545 S
C1359 C1343 1.377 . S
C1359 C1357 1.389 . S
C1359 C1360 1.524 . S
C1360 C1359 1.524 . S
C1360 C1361 1.397 . S
C1360 C1365 1.363 . S
C1361 H1332 0.950 . S
C1361 C1360 1.397 . S
C1361 C1362 1.334 . S
C1362 H1333 0.950 . S
C1362 C1361 1.334 . S
C1362 C1363 1.287 . S
C1363 C1362 1.287 . S
C1363 C1364 1.524 . S
C1363 H1366 0.999 . S
C1364 H1334 0.950 . S
C1364 C1363 1.524 . S
C1364 C1365 1.415 . S
C1365 H1335 0.950 . S
C1365 C1360 1.363 . S
C1365 C1364 1.415 . S
H1366 C1363 0.999 . S
H1367 C1348 0.913 . S
C187 C0 1.477 . S
C202 C126 1.477 . S
C237 C14 1.477 . S
C252 C140 1.478 . S
C287 C28 1.478 . S
C302 C154 1.477 . S
C337 C42 1.477 . S
C352 C84 1.477 . S
C387 C98 1.477 . S
C402 C56 1.477 . S
C437 C112 1.477 . S
C452 C70 1.478 . S
C487 C151 1.540 . S
C502 C11 1.541 . S
C537 C25 1.541 . S
C552 C165 1.541 . S
C587 C39 1.540 . S
C602 C95 1.540 . S
C637 C53 1.541 . S
C652 C109 1.540 . S
C687 C67 1.540 . S
C702 C123 1.540 . S
C737 C81 1.541 . S
C752 C137 1.541 . S
C787 C135 0.496 . S
C802 C9 0.498 1_556 S
C837 C23 0.495 . S
C852 C149 0.497 1_554 S
C887 C37 0.496 . S
C902 C163 0.495 . S
C937 C93 0.497 . S
C952 C51 0.497 1_556 S
C987 C65 0.497 . S
C1002 C107 0.497 1_554 S
C1037 C121 0.496 . S
C1052 C79 0.495 . S
C1087 C5 1.509 . S
C1102 C47 1.509 . S
C1137 C61 1.509 . S
C1152 C19 1.509 . S
C1187 C33 1.509 . S
C1202 C75 1.509 . S
C1237 C89 1.509 . S
C1252 C131 1.509 . S
C1287 C103 1.509 . S
C1302 C145 1.509 . S
C1337 C159 1.509 . S
C1352 C117 1.509 . S
