# Generated by pormake.
# Topology can, (4)-cn, num edge types: 1
# Building blocks:
#     Node 0, Type 0, BuildingBlock: QUQFOY_clean_sbu_1, # of connection points: 4
#     Node 1, Type 0, BuildingBlock: QUQFOY_clean_sbu_1, # of connection points: 4
#     Node 2, Type 0, BuildingBlock: QUQFOY_clean_sbu_1, # of connection points: 4
#     Node 3, Type 0, BuildingBlock: QUQFOY_clean_sbu_1, # of connection points: 4
#     Node 4, Type 0, BuildingBlock: QUQFOY_clean_sbu_1, # of connection points: 4
#     Node 5, Type 0, BuildingBlock: QUQFOY_clean_sbu_1, # of connection points: 4
#     Node 6, Type 0, BuildingBlock: QUQFOY_clean_sbu_1, # of connection points: 4
#     Node 7, Type 0, BuildingBlock: QUQFOY_clean_sbu_1, # of connection points: 4
#     Node 8, Type 0, BuildingBlock: QUQFOY_clean_sbu_1, # of connection points: 4
#     Node 9, Type 0, BuildingBlock: QUQFOY_clean_sbu_1, # of connection points: 4
#     Node 10, Type 0, BuildingBlock: QUQFOY_clean_sbu_1, # of connection points: 4
#     Node 11, Type 0, BuildingBlock: QUQFOY_clean_sbu_1, # of connection points: 4
#     Edge 12, Type (0, 0), BuildingBlock: TEMPAE_clean_linker_10, # of connection points: 2
#     Edge 13, Type (0, 0), BuildingBlock: TEMPAE_clean_linker_10, # of connection points: 2
#     Edge 14, Type (0, 0), BuildingBlock: TEMPAE_clean_linker_10, # of connection points: 2
#     Edge 15, Type (0, 0), BuildingBlock: TEMPAE_clean_linker_10, # of connection points: 2
#     Edge 16, Type (0, 0), BuildingBlock: TEMPAE_clean_linker_10, # of connection points: 2
#     Edge 17, Type (0, 0), BuildingBlock: TEMPAE_clean_linker_10, # of connection points: 2
#     Edge 18, Type (0, 0), BuildingBlock: TEMPAE_clean_linker_10, # of connection points: 2
#     Edge 19, Type (0, 0), BuildingBlock: TEMPAE_clean_linker_10, # of connection points: 2
#     Edge 20, Type (0, 0), BuildingBlock: TEMPAE_clean_linker_10, # of connection points: 2
#     Edge 21, Type (0, 0), BuildingBlock: TEMPAE_clean_linker_10, # of connection points: 2
#     Edge 22, Type (0, 0), BuildingBlock: TEMPAE_clean_linker_10, # of connection points: 2
#     Edge 23, Type (0, 0), BuildingBlock: TEMPAE_clean_linker_10, # of connection points: 2
#     Edge 24, Type (0, 0), BuildingBlock: TEMPAE_clean_linker_10, # of connection points: 2
#     Edge 25, Type (0, 0), BuildingBlock: TEMPAE_clean_linker_10, # of connection points: 2
#     Edge 26, Type (0, 0), BuildingBlock: TEMPAE_clean_linker_10, # of connection points: 2
#     Edge 27, Type (0, 0), BuildingBlock: TEMPAE_clean_linker_10, # of connection points: 2
#     Edge 28, Type (0, 0), BuildingBlock: TEMPAE_clean_linker_10, # of connection points: 2
#     Edge 29, Type (0, 0), BuildingBlock: TEMPAE_clean_linker_10, # of connection points: 2
#     Edge 30, Type (0, 0), BuildingBlock: TEMPAE_clean_linker_10, # of connection points: 2
#     Edge 31, Type (0, 0), BuildingBlock: TEMPAE_clean_linker_10, # of connection points: 2
#     Edge 32, Type (0, 0), BuildingBlock: TEMPAE_clean_linker_10, # of connection points: 2
#     Edge 33, Type (0, 0), BuildingBlock: TEMPAE_clean_linker_10, # of connection points: 2
#     Edge 34, Type (0, 0), BuildingBlock: TEMPAE_clean_linker_10, # of connection points: 2
#     Edge 35, Type (0, 0), BuildingBlock: TEMPAE_clean_linker_10, # of connection points: 2
# Relax obj value: 0.074
# Max RMSD: 0.097
# Mean RMSD: 0.097
data_MOF--net-can--node1-QUQFOY_clean_sbu_1--edge1-TEMPAE_clean_linker_10
_symmetry_space_group_name_H-M    P1
_symmetry_Int_Tables_number       1
_symmetry_cell_setting            triclinic
loop_
_symmetry_equiv_pos_as_xyz
'x, y, z'
_cell_length_a     58.475437
_cell_length_b     58.446397
_cell_length_c     29.036014
_cell_angle_alpha  89.966947
_cell_angle_beta   89.968014
_cell_angle_gamma 119.99217
loop_
_atom_site_label
_atom_site_type_symbol
_atom_site_fract_x
_atom_site_fract_y
_atom_site_fract_z
_atom_type_partial_charge
O0 O 0.06162 0.39471 0.18013 0.0
Cd1 Cd 0.08277 0.41217 0.23856 0.0
Cd2 Cd 0.03351 0.38743 0.27516 0.0
O3 O 0.02267 0.3683 0.21136 0.0
O4 O 0.11974 0.42438 0.21957 0.0
O5 O 0.09948 0.3949 0.27466 0.0
C6 C 0.12032 0.40856 0.24981 0.0
C7 C 0.02004 0.36602 0.34661 0.0
C8 C 0.0377 0.3766 0.17616 0.0
C9 C 0.0633 0.44727 0.27116 0.0
O10 O 0.04135 0.42619 0.27741 0.0
O11 O 0.08349 0.44613 0.25854 0.0
O12 O 0.00395 0.36896 0.32021 0.0
O13 O 0.04347 0.37359 0.33096 0.0
O14 O 0.66696 0.05363 0.68192 0.0
Cd15 Cd 0.66876 0.07539 0.73836 0.0
Cd16 Cd 0.64259 0.02619 0.77572 0.0
O17 O 0.65134 0.01425 0.71362 0.0
O18 O 0.69339 0.11206 0.71757 0.0
O19 O 0.70187 0.09375 0.77679 0.0
C20 C 0.70922 0.11388 0.74997 0.0
C21 C 0.65004 0.01388 0.84841 0.0
C22 C 0.66001 0.02936 0.67857 0.0
C23 C 0.61318 0.05629 0.76545 0.0
O24 O 0.612 0.03446 0.77472 0.0
O25 O 0.6348 0.07611 0.75279 0.0
O26 O 0.63092 0.99745 0.82253 0.0
O27 O 0.66614 0.03698 0.83174 0.0
O28 O 0.60727 0.66554 0.18483 0.0
Cd29 Cd 0.58821 0.66897 0.24135 0.0
Cd30 Cd 0.61186 0.64328 0.27997 0.0
O31 O 0.63178 0.65101 0.21716 0.0
O32 O 0.57593 0.69301 0.21829 0.0
O33 O 0.6035 0.70322 0.27671 0.0
C34 C 0.59039 0.7098 0.2492 0.0
C35 C 0.63244 0.65076 0.35194 0.0
C36 C 0.62471 0.65875 0.18167 0.0
C37 C 0.5521 0.61416 0.273 0.0
O38 O 0.57287 0.613 0.281 0.0
O39 O 0.55376 0.6356 0.2595 0.0
O40 O 0.62911 0.63141 0.32602 0.0
O41 O 0.62568 0.66711 0.33563 0.0
O42 O 0.94184 0.61805 0.67987 0.0
Cd43 Cd 0.91892 0.59309 0.7314 0.0
Cd44 Cd 0.96767 0.61365 0.77304 0.0
O45 O 0.98131 0.63429 0.71149 0.0
O46 O 0.88269 0.58151 0.70887 0.0
O47 O 0.89858 0.60408 0.77327 0.0
C48 C 0.8794 0.59287 0.74416 0.0
C49 C 0.98004 0.63351 0.8456 0.0
C50 C 0.96673 0.63282 0.67776 0.0
C51 C 0.93709 0.55489 0.75677 0.0
O52 O 0.95794 0.57458 0.7723 0.0
O53 O 0.91888 0.55793 0.73926 0.0
O54 O 0.99612 0.62991 0.82032 0.0
O55 O 0.95724 0.62723 0.82844 0.0
O56 O 0.32999 0.93804 0.17766 0.0
Cd57 Cd 0.32942 0.92097 0.24022 0.0
Cd58 Cd 0.35178 0.971 0.2636 0.0
O59 O 0.33718 0.9767 0.20232 0.0
O60 O 0.30689 0.88269 0.22684 0.0
O61 O 0.29569 0.90375 0.2771 0.0
C62 C 0.28987 0.88217 0.25561 0.0
C63 C 0.34392 0.98191 0.33698 0.0
C64 C 0.33167 0.96022 0.16972 0.0
C65 C 0.38585 0.9465 0.26225 0.0
O66 O 0.38539 0.96788 0.25773 0.0
O67 O 0.36446 0.9245 0.26285 0.0
O68 O 0.3606 -0.00024 0.30926 0.0
O69 O 0.33039 0.95794 0.32188 0.0
O70 O 0.38194 0.32436 0.67188 0.0
Cd71 Cd 0.40337 0.32662 0.73012 0.0
Cd72 Cd 0.38002 0.35398 0.7581 0.0
O73 O 0.35881 0.3421 0.69787 0.0
O74 O 0.41754 0.30316 0.71309 0.0
O75 O 0.38982 0.29443 0.77091 0.0
C76 C 0.40359 0.28752 0.7458 0.0
C77 C 0.36175 0.34602 0.83166 0.0
C78 C 0.36447 0.33094 0.66586 0.0
C79 C 0.43846 0.38426 0.74939 0.0
O80 O 0.41753 0.38566 0.7518 0.0
O81 O 0.43728 0.36206 0.74514 0.0
O82 O 0.36209 0.36408 0.80551 0.0
O83 O 0.37054 0.33138 0.81489 0.0
O84 O 0.60413 0.93757 0.3492 0.0
Cd85 Cd 0.58811 0.92007 0.28674 0.0
Cd86 Cd 0.61618 0.96977 0.26253 0.0
O87 O 0.63649 0.97555 0.3238 0.0
O88 O 0.57227 0.88193 0.30148 0.0
O89 O 0.60475 0.90245 0.25136 0.0
C90 C 0.5889 0.88111 0.27344 0.0
C91 C 0.63497 0.98044 0.18916 0.0
C92 C 0.62497 0.95949 0.35679 0.0
C93 C 0.55767 0.94574 0.26329 0.0
O94 O 0.57958 0.96698 0.2682 0.0
O95 O 0.55687 0.92363 0.26272 0.0
O96 O 0.63624 0.9984 0.21668 0.0
O97 O 0.62442 0.95649 0.20449 0.0
O98 O 0.66292 0.60302 0.85257 0.0
Cd99 Cd 0.6659 0.58782 0.79009 0.0
Cd100 Cd 0.6431 0.61477 0.76479 0.0
O101 O 0.65628 0.63468 0.82679 0.0
O102 O 0.6887 0.57265 0.80542 0.0
O103 O 0.70057 0.60546 0.756 0.0
C104 C 0.70621 0.58965 0.77786 0.0
C105 C 0.65128 0.6343 0.69195 0.0
C106 C 0.6609 0.62336 0.86001 0.0
C107 C 0.61039 0.5561 0.76336 0.0
O108 O 0.61002 0.57749 0.76863 0.0
O109 O 0.63214 0.55622 0.76399 0.0
O110 O 0.63399 0.63457 0.7193 0.0
O111 O 0.66525 0.62439 0.70723 0.0
O112 O 0.05263 0.67504 0.35155 0.0
Cd113 Cd 0.07623 0.67346 0.30083 0.0
Cd114 Cd 0.02754 0.64458 0.25802 0.0
O115 O 0.0134 0.65108 0.31942 0.0
O116 O 0.11215 0.69806 0.3248 0.0
O117 O 0.09711 0.70504 0.25965 0.0
C118 C 0.11592 0.71287 0.2895 0.0
C119 C 0.01472 0.65147 0.18536 0.0
C120 C 0.02768 0.6644 0.35327 0.0
C121 C 0.05885 0.61723 0.27528 0.0
O122 O 0.03802 0.61579 0.25902 0.0
O123 O 0.07667 0.63853 0.2933 0.0
O124 O -0.001 0.63167 0.2108 0.0
O125 O 0.03738 0.66843 0.2024 0.0
O126 O 0.38583 0.0547 0.84586 0.0
Cd127 Cd 0.40582 0.07731 0.79014 0.0
Cd128 Cd 0.38223 0.02844 0.75039 0.0
O129 O 0.3614 0.01598 0.81238 0.0
O130 O 0.41789 0.11375 0.81237 0.0
O131 O 0.39114 0.0962 0.75293 0.0
C132 C 0.40392 0.116 0.78036 0.0
C133 C 0.36256 0.01609 0.67759 0.0
C134 C 0.36815 0.03051 0.84817 0.0
C135 C 0.44183 0.0581 0.76106 0.0
O136 O 0.42105 0.03653 0.75126 0.0
O137 O 0.44031 0.07793 0.77468 0.0
O138 O 0.36533 -0.00028 0.70357 0.0
O139 O 0.36941 0.03915 0.6942 0.0
O140 O 0.3251 0.37258 0.33995 0.0
Cd141 Cd 0.32668 0.39917 0.29201 0.0
Cd142 Cd 0.35627 0.38148 0.24608 0.0
O143 O 0.35062 0.35979 0.30576 0.0
O144 O 0.30157 0.40943 0.31759 0.0
O145 O 0.29543 0.38931 0.25058 0.0
C146 C 0.28721 0.3994 0.28151 0.0
C147 C 0.34909 0.3628 0.17268 0.0
C148 C 0.33661 0.35904 0.33988 0.0
C149 C 0.38267 0.43954 0.26744 0.0
O150 O 0.38445 0.42089 0.24863 0.0
O151 O 0.36133 0.43506 0.28681 0.0
O152 O 0.36936 0.36716 0.1969 0.0
O153 O 0.33194 0.36778 0.19124 0.0
O154 O 0.93902 0.33121 0.85163 0.0
Cd155 Cd 0.91754 0.32755 0.79366 0.0
Cd156 Cd 0.96708 0.35333 0.75693 0.0
O157 O 0.97838 0.34554 0.82074 0.0
O158 O 0.88083 0.30283 0.81407 0.0
O159 O 0.90017 0.2935 0.75762 0.0
C160 C 0.87971 0.28639 0.78345 0.0
C161 C 0.98098 0.34595 0.68549 0.0
C162 C 0.96319 0.33797 0.85578 0.0
C163 C 0.93612 0.38218 0.76151 0.0
O164 O 0.95825 0.38355 0.75467 0.0
O165 O 0.91628 0.36067 0.77451 0.0
O166 O 0.99674 0.36517 0.71187 0.0
O167 O 0.95769 0.32961 0.70115 0.0
C168 C 0.00722 0.34151 0.1205 0.0
C169 C 0.02719 0.3675 0.12926 0.0
C170 C 0.99731 0.33353 0.07557 0.0
C171 C 0.00691 0.35228 0.0392 0.0
C172 C 0.02715 0.37849 0.04808 0.0
C173 C 0.03731 0.38561 0.09273 0.0
C174 C 0.97635 0.3052 0.0671 0.0
C175 C 0.0373 0.39941 1.01091 0.0
C176 C 0.9955 0.33623 0.91111 0.0
C177 C 0.97369 0.33949 0.90278 0.0
C178 C 0.0056 0.33868 0.95603 0.0
C179 C 0.99424 0.34554 0.99288 0.0
C180 C 0.97206 0.34857 0.9845 0.0
C181 C 0.96185 0.34509 0.93982 0.0
C182 C 0.02873 0.33446 0.96391 0.0
C183 C 0.95987 0.35681 0.02226 0.0
H184 H -0.00046 0.32743 0.14862 0.0
H185 H 0.05261 0.4058 0.09943 0.0
H186 H 0.95731 0.30415 0.05901 0.0
H187 H 0.98175 0.29721 0.03696 0.0
H188 H 0.97339 0.29242 0.09745 0.0
H189 H 0.05343 0.41877 0.02335 0.0
H190 H 0.04476 0.39312 0.98121 0.0
H191 H 0.02093 0.40213 0.99813 0.0
H192 H 0.00455 0.33168 0.88264 0.0
H193 H 0.94512 0.34786 0.93355 0.0
H194 H 0.02483 0.32117 0.99384 0.0
H195 H 0.0466 0.35358 0.97205 0.0
H196 H 0.03301 0.32584 0.93327 0.0
H197 H 0.95393 0.34286 0.05164 0.0
H198 H 0.94228 0.35765 1.01025 0.0
H199 H 0.97465 0.37662 0.03533 0.0
C200 C 0.61499 0.95653 0.44054 0.0
C201 C 0.6337 0.96714 0.40497 0.0
C202 C 0.62168 0.96539 0.48599 0.0
C203 C 0.64799 0.98477 0.49655 0.0
C204 C 0.6674 0.99432 0.46132 0.0
C205 C 0.65992 0.98576 0.41567 0.0
C206 C 0.60014 0.9553 0.52201 0.0
C207 C 0.69583 0.01432 0.47154 0.0
C208 C 0.65476 0.03064 0.59404 0.0
C209 C 0.65923 0.01861 0.63211 0.0
C210 C 0.65173 0.02014 0.54972 0.0
C211 C 0.65406 0.99744 0.54281 0.0
C212 C 0.65981 0.98584 0.58073 0.0
C213 C 0.66181 0.99627 0.62525 0.0
C214 C 0.64474 0.03267 0.5107 0.0
C215 C 0.66334 0.96217 0.57437 0.0
H216 H 0.59464 0.94223 0.43246 0.0
H217 H 0.6745 0.99379 0.38835 0.0
H218 H 0.60586 0.94794 0.55257 0.0
H219 H 0.59719 0.97172 0.5337 0.0
H220 H 0.58102 0.93913 0.50879 0.0
H221 H 0.70912 0.01631 0.44256 0.0
H222 H 0.69774 0.03391 0.47791 0.0
H223 H 0.70255 0.00869 0.50312 0.0
H224 H 0.6525 0.04778 0.59917 0.0
H225 H 0.66546 0.98705 0.65456 0.0
H226 H 0.62521 0.01816 0.49626 0.0
H227 H 0.65941 0.0385 0.48251 0.0
H228 H 0.64393 0.05043 0.52186 0.0
H229 H 0.64411 0.94458 0.56571 0.0
H230 H 0.67119 0.95772 0.60587 0.0
H231 H 0.677 0.96556 0.54527 0.0
C232 C 0.61783 0.6527 0.09719 0.0
C233 C 0.63442 0.6574 0.13519 0.0
C234 C 0.62521 0.64944 0.0529 0.0
C235 C 0.65023 0.65174 0.04592 0.0
C236 C 0.6676 0.65759 0.08379 0.0
C237 C 0.65928 0.65988 0.12827 0.0
C238 C 0.60569 0.64239 0.01392 0.0
C239 C 0.69475 0.66103 0.07739 0.0
C240 C 0.65274 0.61296 0.94353 0.0
C241 C 0.66118 0.63182 0.90815 0.0
C242 C 0.6501 0.61947 0.9889 0.0
C243 C 0.65689 0.64574 0.9996 0.0
C244 C 0.66695 0.66527 0.96456 0.0
C245 C 0.66851 0.65797 0.91897 0.0
C246 C 0.63845 0.5978 0.02471 0.0
C247 C 0.67522 0.69366 0.97493 0.0
H248 H 0.59847 0.65052 0.10234 0.0
H249 H 0.67223 0.66371 0.1575 0.0
H250 H 0.61452 0.65704 0.98569 0.0
H251 H 0.60069 0.62284 0.99953 0.0
H252 H 0.58712 0.64157 0.02511 0.0
H253 H 0.70697 0.66861 0.109 0.0
H254 H 0.69304 0.64182 0.06824 0.0
H255 H 0.70514 0.67489 0.04857 0.0
H256 H 0.64689 0.59266 0.93533 0.0
H257 H 0.6753 0.67265 0.89179 0.0
H258 H 0.61906 0.59488 0.03624 0.0
H259 H 0.6514 0.60342 0.0554 0.0
H260 H 0.63549 0.5787 1.01136 0.0
H261 H 0.65748 0.69542 0.98156 0.0
H262 H 0.68641 0.70704 0.94596 0.0
H263 H 0.68761 0.7004 1.00642 0.0
C264 C 0.99391 0.64159 0.41438 0.0
C265 C 0.01562 0.66476 0.39769 0.0
C266 C 0.98606 0.63961 0.4606 0.0
C267 C -0.00026 0.66163 0.49028 0.0
C268 C 0.02029 0.68574 0.47247 0.0
C269 C 0.02833 0.68686 0.42656 0.0
C270 C 0.96436 0.61338 0.47841 0.0
C271 C 0.03465 0.70994 0.50245 0.0
C272 C 0.96513 0.65418 0.60449 0.0
C273 C 0.97842 0.64534 0.63319 0.0
C274 C 0.97299 0.66132 0.55857 0.0
C275 C 0.99398 0.65857 0.54057 0.0
C276 C 0.0082 0.65077 0.57005 0.0
C277 C 0.00048 0.64465 0.61629 0.0
C278 C 0.95802 0.67057 0.52881 0.0
C279 C 0.03038 0.6471 0.55202 0.0
H280 H 0.98432 0.62439 0.39224 0.0
H281 H 0.04511 0.70481 0.41358 0.0
H282 H 0.97262 0.60546 0.50424 0.0
H283 H 0.94892 0.61589 0.49594 0.0
H284 H 0.95494 0.59856 0.4505 0.0
H285 H 0.04713 0.72801 0.48184 0.0
H286 H 0.0204 0.71303 0.52292 0.0
H287 H 0.04755 0.70715 0.52708 0.0
H288 H 0.94806 0.65476 0.61764 0.0
H289 H 0.01054 0.63749 0.6383 0.0
H290 H 0.94545 0.6548 0.50406 0.0
H291 H 0.9719 0.68819 0.50845 0.0
H292 H 0.94513 0.67554 0.54955 0.0
H293 H 0.02254 0.63106 0.52597 0.0
H294 H 0.04011 0.64196 0.57977 0.0
H295 H 0.0455 0.66535 0.53469 0.0
C296 C 0.33211 -0.00106 0.90152 0.0
C297 C 0.35821 0.01908 0.89424 0.0
C298 C 0.32338 0.98842 0.94595 0.0
C299 C 0.34149 0.99758 0.98319 0.0
C300 C 0.36787 0.01784 0.97566 0.0
C301 C 0.37572 0.0286 0.93156 0.0
C302 C 0.2949 0.96747 0.95305 0.0
C303 C 0.38813 0.02763 0.01387 0.0
C304 C 0.32576 0.98854 0.11105 0.0
C305 C 0.3301 0.96759 0.12145 0.0
C306 C 0.32713 0.99714 0.06532 0.0
C307 C 0.33386 0.98506 0.02955 0.0
C308 C 0.33712 0.96318 0.03972 0.0
C309 C 0.33483 0.95451 0.08537 0.0
C310 C 0.32269 0.01999 0.05562 0.0
C311 C 0.34508 0.95018 1.00302 0.0
H312 H 0.31852 0.99172 0.87271 0.0
H313 H 0.39601 0.044 0.92593 0.0
H314 H 0.29363 0.9485 0.96261 0.0
H315 H 0.28626 0.97312 0.9819 0.0
H316 H 0.2828 0.96427 0.92167 0.0
H317 H 0.4079 0.04332 1.00206 0.0
H318 H 0.38169 0.0356 0.04257 0.0
H319 H 0.39005 0.01098 0.02781 0.0
H320 H 0.32178 0.99853 0.13869 0.0
H321 H 0.33827 0.93832 0.09306 0.0
H322 H 0.31023 0.01599 0.02451 0.0
H323 H 0.34191 0.03804 0.04874 0.0
H324 H 0.31311 0.02402 0.08509 0.0
H325 H 0.33192 0.94497 0.97268 0.0
H326 H 0.34458 0.932 0.01575 0.0
H327 H 0.36544 0.96423 0.99117 0.0
C328 C 0.31371 0.33283 0.40973 0.0
C329 C 0.33668 0.34581 0.38298 0.0
C330 C 0.31468 0.32522 0.45521 0.0
C331 C 0.3394 0.33189 0.47484 0.0
C332 C 0.36245 0.3438 0.44709 0.0
C333 C 0.3607 0.35018 0.40112 0.0
C334 C 0.28951 0.31147 0.48299 0.0
C335 C 0.3893 0.35188 0.46695 0.0
C336 C 0.35067 0.34943 0.60164 0.0
C337 C 0.3535 0.3287 0.61931 0.0
C338 C 0.34535 0.35031 0.55479 0.0
C339 C 0.3418 0.32944 0.52537 0.0
C340 C 0.34268 0.30748 0.54386 0.0
C341 C 0.34911 0.30764 0.59051 0.0
C342 C 0.34522 0.37442 0.53629 0.0
C343 C 0.33785 0.28432 0.51409 0.0
H344 H 0.29512 0.32946 0.39555 0.0
H345 H 0.37851 0.36057 0.38057 0.0
H346 H 0.28883 0.29516 0.50367 0.0
H347 H 0.28874 0.32569 0.50731 0.0
H348 H 0.27172 0.30331 0.46068 0.0
H349 H 0.40499 0.3595 0.44017 0.0
H350 H 0.3945 0.36757 0.4931 0.0
H351 H 0.38908 0.33495 0.48457 0.0
H352 H 0.35438 0.36586 0.6238 0.0
H353 H 0.35121 0.29154 0.6043 0.0
H354 H 0.32639 0.36856 0.51823 0.0
H355 H 0.36139 0.38459 0.51078 0.0
H356 H 0.34786 0.38869 0.56389 0.0
H357 H 0.32018 0.2781 0.49213 0.0
H358 H 0.335 0.26716 0.53496 0.0
H359 H 0.35495 0.29018 0.49084 0.0
C360 C 0.9716 0.64995 0.92021 0.0
C361 C 0.98673 0.64209 0.89424 0.0
C362 C 0.9762 0.65521 0.96767 0.0
C363 C 0.9959 0.65183 0.98984 0.0
C364 C 0.01177 0.64474 0.96341 0.0
C365 C 0.0072 0.64028 0.91596 0.0
C366 C 0.95935 0.66345 0.99436 0.0
C367 C 0.03266 0.64041 0.98565 0.0
C368 C 0.02239 0.67612 0.11064 0.0
C369 C 0.00783 0.65303 0.1367 0.0
C370 C 0.01766 0.67656 0.06317 0.0
C371 C -0.00155 0.65316 0.04108 0.0
C372 C 0.98314 0.63007 0.06761 0.0
C373 C 0.9878 0.63039 0.11507 0.0
C374 C 0.03387 0.70177 0.03637 0.0
C375 C 0.9628 0.60453 0.04547 0.0
H376 H 0.95584 0.65154 0.90363 0.0
H377 H 0.01894 0.63412 0.89626 0.0
H378 H 0.94561 0.64704 0.0171 0.0
H379 H 0.97188 0.68061 0.01674 0.0
H380 H 0.94754 0.66874 0.97131 0.0
H381 H 0.0441 0.63609 0.96001 0.0
H382 H 0.04659 0.65808 1.00569 0.0
H383 H 0.0232 0.62359 1.01011 0.0
H384 H 0.03779 0.69373 0.12715 0.0
H385 H 0.97652 0.61241 0.13485 0.0
H386 H 0.02093 0.70584 0.01397 0.0
H387 H 0.04794 0.69965 1.01364 0.0
H388 H 0.04528 0.71901 0.05935 0.0
H389 H 0.94848 0.60767 0.02536 0.0
H390 H 0.95173 0.58867 0.07118 0.0
H391 H 0.9727 0.59764 0.02108 0.0
C392 C 0.32035 0.97203 0.41316 0.0
C393 C 0.34244 0.98831 0.38595 0.0
C394 C 0.32017 0.97663 0.46074 0.0
C395 C 0.34296 0.9974 0.48185 0.0
C396 C 0.36504 0.01426 0.45423 0.0
C397 C 0.36434 0.00976 0.40661 0.0
C398 C 0.2959 0.95875 0.48865 0.0
C399 C 0.39004 0.0362 0.47529 0.0
C400 C 0.34484 0.02324 0.60328 0.0
C401 C 0.35442 0.00941 0.62877 0.0
C402 C 0.33955 0.01849 0.55582 0.0
C403 C 0.34486 0.00017 0.53309 0.0
C404 C 0.35401 0.9858 0.55898 0.0
C405 C 0.35827 0.9903 0.60651 0.0
C406 C 0.32896 0.03357 0.5298 0.0
C407 C 0.36061 0.9666 0.53613 0.0
H408 H 0.30331 0.95551 0.39734 0.0
H409 H 0.38158 0.0223 0.38589 0.0
H410 H 0.30001 0.94585 0.51104 0.0
H411 H 0.29057 0.9706 0.51144 0.0
H412 H 0.2787 0.946 0.46644 0.0
H413 H 0.4051 0.04813 0.4489 0.0
H414 H 0.38562 0.04953 0.49577 0.0
H415 H 0.39862 0.02766 0.49916 0.0
H416 H 0.3417 0.03794 0.62033 0.0
H417 H 0.36589 0.97968 0.62586 0.0
H418 H 0.31188 0.0199 0.50822 0.0
H419 H 0.34439 0.04803 0.50632 0.0
H420 H 0.32269 0.04443 0.55326 0.0
H421 H 0.34327 0.95135 0.51698 0.0
H422 H 0.36694 0.95653 0.56129 0.0
H423 H 0.37675 0.97725 0.51077 0.0
C424 C 0.34813 0.32162 0.907 0.0
C425 C 0.35393 0.34403 0.88071 0.0
C426 C 0.34362 0.32101 0.95473 0.0
C427 C 0.34576 0.34362 0.97678 0.0
C428 C 0.35075 0.36594 0.95007 0.0
C429 C 0.35442 0.36572 0.90235 0.0
C430 C 0.33755 0.29655 0.98177 0.0
C431 C 0.35379 0.3907 0.9722 0.0
C432 C 0.32325 0.34481 0.09948 0.0
C433 C 0.34706 0.35472 0.12379 0.0
C434 C 0.32212 0.3396 0.05194 0.0
C435 C 0.34549 0.3452 0.02804 0.0
C436 C 0.36939 0.35452 0.05276 0.0
C437 C 0.36979 0.35882 0.10034 0.0
C438 C 0.2961 0.3289 0.02707 0.0
C439 C 0.39491 0.3613 0.0286 0.0
H440 H 0.34755 0.30473 0.89042 0.0
H441 H 0.35902 0.38317 0.88233 0.0
H442 H 0.35482 0.30053 1.00328 0.0
H443 H 0.32065 0.29105 1.00538 0.0
H444 H 0.33284 0.2795 0.95897 0.0
H445 H 0.35642 0.40586 0.94639 0.0
H446 H 0.33627 0.38596 0.99362 0.0
H447 H 0.37122 0.39932 0.99535 0.0
H448 H 0.30559 0.34144 0.11748 0.0
H449 H 0.38831 0.36661 0.1188 0.0
H450 H 0.29259 0.31201 1.00484 0.0
H451 H 0.29662 0.34441 1.00434 0.0
H452 H 0.27926 0.32233 0.05132 0.0
H453 H 0.39259 0.34408 1.0087 0.0
H454 H 0.4116 0.36749 0.05302 0.0
H455 H 0.40008 0.37761 1.00374 0.0
C456 C 0.00887 0.36733 0.61611 0.0
C457 C 0.98851 0.34461 0.63707 0.0
C458 C 0.01406 0.36798 0.56875 0.0
C459 C -0.00097 0.34511 0.54165 0.0
C460 C 0.97948 0.3216 0.56312 0.0
C461 C 0.97416 0.32174 0.61045 0.0
C462 C 0.03468 0.39366 0.54731 0.0
C463 C 0.96358 0.29656 0.53581 0.0
C464 C 0.99185 0.3586 0.41593 0.0
C465 C 0.01265 0.35701 0.39501 0.0
C466 C 0.9867 0.35393 0.46327 0.0
C467 C 0.00226 0.34676 0.49043 0.0
C468 C 0.02228 0.34356 0.46901 0.0
C469 C 0.02752 0.34912 0.42168 0.0
C470 C 0.96554 0.35816 0.48466 0.0
C471 C 0.03877 0.33516 0.49637 0.0
H472 H 0.01996 0.38516 0.63628 0.0
H473 H 0.95849 0.30406 0.62643 0.0
H474 H 0.04929 0.39066 0.52784 0.0
H475 H 0.02511 0.40068 0.52246 0.0
H476 H 0.04537 0.40937 0.57338 0.0
H477 H 0.95189 0.27918 0.55842 0.0
H478 H 0.94977 0.29884 0.51264 0.0
H479 H 0.97676 0.29262 0.51383 0.0
H480 H 0.98034 0.36484 0.39572 0.0
H481 H 0.04354 0.34772 0.40574 0.0
H482 H 0.97469 0.37481 0.50947 0.0
H483 H 0.95131 0.34036 0.50417 0.0
H484 H 0.95448 0.36269 0.45856 0.0
H485 H 0.05225 0.35144 0.51952 0.0
H486 H 0.05086 0.32998 0.4738 0.0
H487 H 0.02596 0.31788 0.51837 0.0
C488 C 0.62871 0.98812 0.91965 0.0
C489 C 0.6516 0.00723 0.89721 0.0
C490 C 0.62855 0.98369 0.9672 0.0
C491 C 0.6521 0.99815 0.99292 0.0
C492 C 0.67567 0.01644 0.97 0.0
C493 C 0.67504 0.02112 0.92252 0.0
C494 C 0.6028 0.96451 0.99027 0.0
C495 C 0.70137 0.0316 0.99584 0.0
C496 C 0.64234 0.0081 0.11922 0.0
C497 C 0.64283 0.98671 0.14015 0.0
C498 C 0.64608 0.01246 0.07156 0.0
C499 C 0.65129 0.99552 0.04418 0.0
C500 C 0.65337 0.97482 0.06555 0.0
C501 C 0.64864 0.97036 0.11318 0.0
C502 C 0.64296 0.03432 0.0502 0.0
C503 C 0.65977 0.95688 0.0379 0.0
H504 H 0.61045 0.97746 0.90043 0.0
H505 H 0.69283 0.03582 0.90533 0.0
H506 H 0.60498 0.94935 1.00961 0.0
H507 H 0.5973 0.97521 0.01548 0.0
H508 H 0.58639 0.95435 0.96521 0.0
H509 H 0.71846 0.04237 0.97224 0.0
H510 H 0.70042 0.04615 0.01909 0.0
H511 H 0.7048 0.018 0.01763 0.0
H512 H 0.63763 0.02068 0.13977 0.0
H513 H 0.64918 0.95388 0.12922 0.0
H514 H 0.62582 0.02569 0.0264 0.0
H515 H 0.66067 0.04761 0.0296 0.0
H516 H 0.63981 0.04631 0.07643 0.0
H517 H 0.64275 0.94389 0.01566 0.0
H518 H 0.66429 0.94423 0.06028 0.0
H519 H 0.67691 0.96869 0.01495 0.0
C520 C 0.65059 0.67564 0.42609 0.0
C521 C 0.64101 0.65227 0.40052 0.0
C522 C 0.65604 0.67615 0.47347 0.0
C523 C 0.65091 0.65253 0.49605 0.0
C524 C 0.64189 0.62907 0.47003 0.0
C525 C 0.63744 0.62935 0.42258 0.0
C526 C 0.6665 0.70175 0.49961 0.0
C527 C 0.63551 0.60328 0.49271 0.0
C528 C 0.67519 0.64867 0.61611 0.0
C529 C 0.65294 0.64252 0.64311 0.0
C530 C 0.6755 0.65365 0.56856 0.0
C531 C 0.6527 0.65152 0.5473 0.0
C532 C 0.63048 0.64602 0.57473 0.0
C533 C 0.63104 0.64199 0.6223 0.0
C534 C 0.69991 0.66033 0.54086 0.0
C535 C 0.60549 0.64287 0.55349 0.0
H536 H 0.65352 0.69346 0.4092 0.0
H537 H 0.62985 0.61114 0.40318 0.0
H538 H 0.65095 0.70069 0.52288 0.0
H539 H 0.6835 0.70514 0.52141 0.0
H540 H 0.67284 0.71894 0.47622 0.0
H541 H 0.62943 0.58699 0.46743 0.0
H542 H 0.65288 0.60552 0.512 0.0
H543 H 0.61926 0.59753 0.51793 0.0
H544 H 0.69224 0.64925 0.63203 0.0
H545 H 0.61368 0.63705 0.64284 0.0
H546 H 0.70514 0.67752 0.5181 0.0
H547 H 0.69602 0.64341 0.51845 0.0
H548 H 0.71709 0.66491 0.56322 0.0
H549 H 0.60986 0.66067 0.53318 0.0
H550 H 0.5903 0.63953 0.57976 0.0
H551 H 0.59707 0.62584 0.52944 0.0
C552 C 0.07799 0.59059 0.30687 0.0
C553 C 0.06179 0.59353 0.27463 0.0
C554 C 0.07952 0.56737 0.3085 0.0
C555 C 0.06494 0.54692 0.27646 0.0
C556 C 0.04914 0.55011 0.24303 0.0
C557 C 0.04752 0.57326 0.24285 0.0
C558 C 0.09621 0.56447 0.34514 0.0
C559 C 0.03375 0.52899 0.20764 0.0
C560 C 0.08475 0.49534 0.25241 0.0
C561 C 0.06494 0.47325 0.27569 0.0
C562 C 0.08525 0.51959 0.25294 0.0
C563 C 0.06581 0.52194 0.27815 0.0
C564 C 0.04637 0.49999 0.30319 0.0
C565 C 0.046 0.47581 0.30124 0.0
C566 C 0.10599 0.5424 0.22512 0.0
C567 C 0.02565 0.5019 0.33127 0.0
H568 H 0.0889 0.60613 0.33174 0.0
H569 H 0.03511 0.57552 0.21766 0.0
H570 H 0.08357 0.54726 0.36741 0.0
H571 H 0.11114 0.56059 0.32901 0.0
H572 H 0.10657 0.58233 0.36714 0.0
H573 H 0.02341 0.53508 0.18265 0.0
H574 H 0.0472 0.52418 0.18835 0.0
H575 H 0.01887 0.51062 0.22506 0.0
H576 H 0.09935 0.49344 0.23234 0.0
H577 H 0.03076 0.45884 0.31955 0.0
H578 H 0.11699 0.56004 0.2473 0.0
H579 H 0.09632 0.54776 0.19764 0.0
H580 H 0.12031 0.53766 0.20883 0.0
H581 H 0.03514 0.5189 0.35528 0.0
H582 H 0.01321 0.48367 0.35153 0.0
H583 H 0.01262 0.50542 0.30813 0.0
C584 C 0.48824 0.0772 0.78858 0.0
C585 C 0.46779 0.05958 0.75965 0.0
C586 C 0.51234 0.07746 0.79045 0.0
C587 C 0.5163 0.06014 0.76185 0.0
C588 C 0.496 0.04285 0.73156 0.0
C589 C 0.47183 0.04253 0.73128 0.0
C590 C 0.5333 0.09577 0.8239 0.0
C591 C 0.49975 0.02457 0.6997 0.0
C592 C 0.58676 0.0765 0.73837 0.0
C593 C 0.58891 0.05817 0.76655 0.0
C594 C 0.5632 0.07731 0.73637 0.0
C595 C 0.54153 0.05981 0.7641 0.0
C596 C 0.54384 0.04176 0.7936 0.0
C597 C 0.56741 0.04091 0.79401 0.0
C598 C 0.5613 0.09643 0.70377 0.0
C599 C 0.52136 0.02325 0.82453 0.0
H600 H 0.4851 0.09023 0.81093 0.0
H601 H 0.4561 0.02897 0.70873 0.0
H602 H 0.53783 0.08407 0.84855 0.0
H603 H 0.55183 0.10907 0.80521 0.0
H604 H 0.52713 0.10805 0.84368 0.0
H605 H 0.48256 0.01338 0.67654 0.0
H606 H 0.51768 0.03605 0.6783 0.0
H607 H 0.50275 0.01025 0.72015 0.0
H608 H 0.60325 0.08969 0.71671 0.0
H609 H 0.56906 0.02681 0.816 0.0
H610 H 0.55633 0.10974 0.72307 0.0
H611 H 0.54517 0.0854 0.67862 0.0
H612 H 0.57996 0.1087 0.68451 0.0
H613 H 0.51508 0.03465 0.84653 0.0
H614 H 0.5268 0.01135 0.84709 0.0
H615 H 0.50409 0.00957 0.80338 0.0
C616 C 0.52287 0.568 0.30121 0.0
C617 C 0.5259 0.58997 0.27652 0.0
C618 C 0.49862 0.54426 0.30182 0.0
C619 C 0.47705 0.5423 0.2764 0.0
C620 C 0.47981 0.5646 0.25229 0.0
C621 C 0.50414 0.58825 0.25298 0.0
C622 C 0.49629 0.52105 0.32866 0.0
C623 C 0.45739 0.56317 0.22424 0.0
C624 C 0.42666 0.47336 0.23667 0.0
C625 C 0.40603 0.46642 0.26818 0.0
C626 C 0.44958 0.49826 0.23831 0.0
C627 C 0.45216 0.51648 0.27285 0.0
C628 C 0.43129 0.50973 0.30446 0.0
C629 C 0.40834 0.48484 0.30148 0.0
C630 C 0.47119 0.50491 0.20341 0.0
C631 C 0.4335 0.52852 0.34216 0.0
H632 H 0.53955 0.56927 0.31976 0.0
H633 H 0.50638 0.60511 0.23361 0.0
H634 H 0.47892 0.51304 0.35196 0.0
H635 H 0.49316 0.505 0.3046 0.0
H636 H 0.51419 0.52641 0.34954 0.0
H637 H 0.46227 0.58264 0.20948 0.0
H638 H 0.45255 0.54892 0.19558 0.0
H639 H 0.43939 0.55586 0.24577 0.0
H640 H 0.42491 0.45928 0.21064 0.0
H641 H 0.39252 0.47952 0.3261 0.0
H642 H 0.48934 0.50807 0.22114 0.0
H643 H 0.47615 0.52358 0.18536 0.0
H644 H 0.46553 0.48908 0.17733 0.0
H645 H 0.45025 0.53254 0.36516 0.0
H646 H 0.41523 0.52056 0.36324 0.0
H647 H 0.43771 0.5477 0.32715 0.0
C648 C 0.94942 0.52293 0.78905 0.0
C649 C 0.93458 0.52843 0.75769 0.0
C650 C 0.94823 0.49837 0.78906 0.0
C651 C 0.93225 0.47904 0.75624 0.0
C652 C 0.91707 0.48439 0.72466 0.0
C653 C 0.91819 0.50895 0.7261 0.0
C654 C 0.96426 0.49319 0.82397 0.0
C655 C 0.90017 0.46443 0.68866 0.0
C656 C 0.95225 0.42774 0.73087 0.0
C657 C 0.93387 0.40619 0.75707 0.0
C658 C 0.95132 0.45125 0.72889 0.0
C659 C 0.93191 0.45344 0.75459 0.0
C660 C 0.91302 0.4316 0.78049 0.0
C661 C 0.91406 0.40813 0.78102 0.0
C662 C 0.97145 0.47394 0.70009 0.0
C663 C 0.89234 0.43334 0.809 0.0
H664 H 0.96197 0.53787 0.81375 0.0
H665 H 0.90683 0.51319 0.70156 0.0
H666 H 0.95126 0.47494 0.84369 0.0
H667 H 0.97919 0.48999 0.80608 0.0
H668 H 0.97462 0.50979 0.84861 0.0
H669 H 0.88926 0.4715 0.66707 0.0
H670 H 0.91276 0.46006 0.6659 0.0
H671 H 0.8857 0.4456 0.70534 0.0
H672 H 0.96748 0.42626 0.71203 0.0
H673 H 0.8999 0.3916 0.80159 0.0
H674 H 0.98451 0.49071 0.72275 0.0
H675 H 0.96141 0.48101 0.6764 0.0
H676 H 0.98391 0.46837 0.67941 0.0
H677 H 0.90209 0.44855 0.83616 0.0
H678 H 0.87845 0.41425 0.82577 0.0
H679 H 0.88083 0.43956 0.78721 0.0
C680 C 0.43234 0.96512 0.23608 0.0
C681 C 0.41134 0.9471 0.26364 0.0
C682 C 0.45624 0.96495 0.23465 0.0
C683 C 0.45949 0.94699 0.2628 0.0
C684 C 0.43852 0.92919 0.29159 0.0
C685 C 0.41446 0.9291 0.29097 0.0
C686 C 0.47779 0.98362 0.20236 0.0
C687 C 0.44155 0.91037 0.32325 0.0
C688 C 0.51193 0.92898 0.23379 0.0
C689 C 0.53293 0.9466 0.26165 0.0
C690 C 0.48808 0.92928 0.23301 0.0
C691 C 0.48488 0.94692 0.2622 0.0
C692 C 0.50597 0.96451 0.29085 0.0
C693 C 0.52994 0.96447 0.28956 0.0
C694 C 0.46637 0.91087 0.20082 0.0
C695 C 0.50305 0.98297 0.32356 0.0
H696 H 0.42976 0.9788 0.21447 0.0
H697 H 0.39821 0.91524 0.31238 0.0
H698 H 0.49573 0.99716 0.22219 0.0
H699 H 0.48329 0.97227 0.17863 0.0
H700 H 0.47175 0.99567 0.18154 0.0
H701 H 0.4238 0.8987 0.34505 0.0
H702 H 0.44518 0.89648 0.30278 0.0
H703 H 0.4589 0.92153 0.34602 0.0
H704 H 0.51434 0.91522 0.2121 0.0
H705 H 0.5461 0.97786 0.31157 0.0
H706 H 0.46036 0.92233 0.17837 0.0
H707 H 0.44873 0.89684 0.22089 0.0
H708 H 0.4725 0.89937 0.17869 0.0
H709 H 0.49881 0.99674 0.30405 0.0
H710 H 0.52105 0.99476 0.34466 0.0
H711 H 0.48608 0.97147 0.34702 0.0
C712 C 0.5638 0.52624 0.78686 0.0
C713 C 0.58542 0.53086 0.75948 0.0
C714 C 0.54029 0.50182 0.78561 0.0
C715 C 0.53806 0.48199 0.75489 0.0
C716 C 0.55971 0.48683 0.72641 0.0
C717 C 0.58338 0.51107 0.72976 0.0
C718 C 0.51798 0.49712 0.81761 0.0
C719 C 0.55775 0.46655 0.69202 0.0
C720 C 0.48499 0.41071 0.77672 0.0
C721 C 0.46422 0.40877 0.74992 0.0
C722 C 0.50919 0.43452 0.7789 0.0
C723 C 0.51288 0.4564 0.75213 0.0
C724 C 0.49216 0.45412 0.72375 0.0
C725 C 0.46787 0.43048 0.72375 0.0
C726 C 0.53049 0.43649 0.81078 0.0
C727 C 0.49563 0.47666 0.69346 0.0
H728 H 0.56557 0.54148 0.81029 0.0
H729 H 0.60014 0.51477 0.7085 0.0
H730 H 0.50047 0.49367 0.79736 0.0
H731 H 0.51207 0.47913 0.83861 0.0
H732 H 0.52343 0.51405 0.84119 0.0
H733 H 0.57609 0.47375 0.67137 0.0
H734 H 0.55372 0.44819 0.71008 0.0
H735 H 0.541 0.46131 0.66822 0.0
H736 H 0.482 0.39388 0.79712 0.0
H737 H 0.45179 0.42878 0.70266 0.0
H738 H 0.5355 0.45241 0.83636 0.0
H739 H 0.54872 0.44183 0.79104 0.0
H740 H 0.52439 0.41773 0.82953 0.0
H741 H 0.49863 0.49358 0.71507 0.0
H742 H 0.4783 0.47097 0.67081 0.0
H743 H 0.51346 0.4836 0.67158 0.0
C744 C 0.16735 0.42352 0.23112 0.0
C745 C 0.14417 0.40609 0.25486 0.0
C746 C 0.19016 0.4215 0.23478 0.0
C747 C 0.18976 0.40143 0.2626 0.0
C748 C 0.16637 0.38358 0.28635 0.0
C749 C 0.14384 0.38621 0.28238 0.0
C750 C 0.21481 0.44109 0.20932 0.0
C751 C 0.1652 0.36183 0.31611 0.0
C752 C 0.24424 0.38518 0.24123 0.0
C753 C 0.26208 0.39948 0.27648 0.0
C754 C 0.22027 0.38512 0.23685 0.0
C755 C 0.21423 0.39992 0.26818 0.0
C756 C 0.23215 0.4143 0.30388 0.0
C757 C 0.25578 0.41381 0.3077 0.0
C758 C 0.20151 0.36939 0.19856 0.0
C759 C 0.22656 0.43057 0.33764 0.0
H760 H 0.16778 0.43896 0.2098 0.0
H761 H 0.12593 0.37259 0.30058 0.0
H762 H 0.23098 0.45244 0.23423 0.0
H763 H 0.22151 0.43052 0.18612 0.0
H764 H 0.2117 0.45524 0.18846 0.0
H765 H 0.14523 0.34897 0.33087 0.0
H766 H 0.17089 0.34942 0.29565 0.0
H767 H 0.17955 0.37051 0.3448 0.0
H768 H 0.24893 0.37394 0.21718 0.0
H769 H 0.26948 0.42495 0.33503 0.0
H770 H 0.19898 0.38286 0.17487 0.0
H771 H 0.18177 0.35543 0.21298 0.0
H772 H 0.20859 0.35802 0.17833 0.0
H773 H 0.22474 0.44615 0.31894 0.0
H774 H 0.2423 0.44017 0.36403 0.0
H775 H 0.2075 0.41793 0.35541 0.0
C776 C 0.83339 0.254 0.80595 0.0
C777 C 0.85563 0.2602 0.77884 0.0
C778 C 0.81023 0.22946 0.80221 0.0
C779 C 0.80926 0.21056 0.77069 0.0
C780 C 0.83174 0.21646 0.7437 0.0
C781 C 0.85469 0.24129 0.748 0.0
C782 C 0.78661 0.22399 0.83136 0.0
C783 C 0.83142 0.19671 0.70986 0.0
C784 C 0.75364 0.13981 0.78742 0.0
C785 C 0.73504 0.13832 0.75533 0.0
C786 C 0.77822 0.16302 0.79214 0.0
C787 C 0.78415 0.18524 0.76432 0.0
C788 C 0.76551 0.18375 0.73168 0.0
C789 C 0.74124 0.16032 0.72753 0.0
C790 C 0.7977 0.1639 0.82718 0.0
C791 C 0.77101 0.20708 0.70163 0.0
H792 H 0.83395 0.26847 0.82996 0.0
H793 H 0.87184 0.2459 0.72715 0.0
H794 H 0.76994 0.22077 0.80883 0.0
H795 H 0.77997 0.20567 0.85174 0.0
H796 H 0.79092 0.24044 0.8554 0.0
H797 H 0.85094 0.2038 0.69325 0.0
H798 H 0.8255 0.1777 0.72752 0.0
H799 H 0.81658 0.19265 0.68261 0.0
H800 H 0.74903 0.12283 0.80883 0.0
H801 H 0.72699 0.15935 0.70259 0.0
H802 H 0.80141 0.17904 0.85367 0.0
H803 H 0.81688 0.16974 0.8103 0.0
H804 H 0.79058 0.14458 0.84463 0.0
H805 H 0.77391 0.22389 0.72347 0.0
H806 H 0.75472 0.20243 0.67702 0.0
H807 H 0.78949 0.21369 0.68181 0.0
C808 C 0.60776 0.75448 0.28524 0.0
C809 C 0.59184 0.73577 0.25223 0.0
C810 C 0.60889 0.77903 0.28819 0.0
C811 C 0.59371 0.7849 0.25745 0.0
C812 C 0.57792 0.76623 0.22368 0.0
C813 C 0.57718 0.74192 0.22148 0.0
C814 C 0.62597 0.7985 0.32464 0.0
C815 C 0.56139 0.77171 0.19037 0.0
C816 C 0.57266 0.83395 0.29347 0.0
C817 C 0.59017 0.85656 0.26844 0.0
C818 C 0.57389 0.81066 0.29064 0.0
C819 C 0.59309 0.80991 0.26204 0.0
C820 C 0.61089 0.83265 0.23671 0.0
C821 C 0.60921 0.85576 0.24018 0.0
C822 C 0.55449 0.78678 0.31807 0.0
C823 C 0.6316 0.83253 0.20581 0.0
H824 H 0.61922 0.7499 0.30896 0.0
H825 H 0.56489 0.72763 0.19572 0.0
H826 H 0.63983 0.81779 0.30858 0.0
H827 H 0.61342 0.80197 0.34906 0.0
H828 H 0.63755 0.79148 0.34439 0.0
H829 H 0.55103 0.75555 0.16492 0.0
H830 H 0.54641 0.77426 0.2096 0.0
H831 H 0.57399 0.79039 0.17146 0.0
H832 H 0.55793 0.8344 0.31551 0.0
H833 H 0.62288 0.87319 0.22092 0.0
H834 H 0.56525 0.78016 0.34096 0.0
H835 H 0.54225 0.7702 0.29443 0.0
H836 H 0.54116 0.79082 0.33951 0.0
H837 H 0.64424 0.82699 0.22591 0.0
H838 H 0.64439 0.85204 0.18936 0.0
H839 H 0.62196 0.81749 0.17838 0.0
C840 C 0.85152 0.60781 0.7856 0.0
C841 C 0.85448 0.5933 0.75001 0.0
C842 C 0.828 0.60859 0.79046 0.0
C843 C 0.80701 0.59441 0.75913 0.0
C844 C 0.80995 0.5798 0.72312 0.0
C845 C 0.83364 0.57946 0.71896 0.0
C846 C 0.82555 0.62444 0.82922 0.0
C847 C 0.78794 0.56427 0.68921 0.0
C848 C 0.7369 0.57284 0.79575 0.0
C849 C 0.73208 0.59112 0.77268 0.0
C850 C 0.76133 0.57397 0.79213 0.0
C851 C 0.78151 0.5939 0.76486 0.0
C852 C 0.7769 0.61256 0.74171 0.0
C853 C 0.75217 0.61091 0.74582 0.0
C854 C 0.76543 0.55362 0.8171 0.0
C855 C 0.79801 0.63411 0.71238 0.0
H856 H 0.86759 0.61866 0.80956 0.0
H857 H 0.83576 0.5682 0.69131 0.0
H858 H 0.82061 0.63911 0.81521 0.0
H859 H 0.80919 0.61119 0.85253 0.0
H860 H 0.84398 0.63504 0.84975 0.0
H861 H 0.79361 0.55438 0.66257 0.0
H862 H 0.77026 0.54898 0.70772 0.0
H863 H 0.78219 0.57752 0.67176 0.0
H864 H 0.7215 0.5575 0.81666 0.0
H865 H 0.74862 0.62517 0.7281 0.0
H866 H 0.78275 0.56353 0.84034 0.0
H867 H 0.76968 0.54196 0.79189 0.0
H868 H 0.74794 0.53979 0.83783 0.0
H869 H 0.81616 0.6459 0.73305 0.0
H870 H 0.7916 0.64761 0.69794 0.0
H871 H 0.80331 0.62523 0.68348 0.0
C872 C 0.24416 0.85766 0.28872 0.0
C873 C 0.26419 0.85769 0.26207 0.0
C874 C 0.21939 0.83467 0.29318 0.0
C875 C 0.21466 0.8112 0.27066 0.0
C876 C 0.23485 0.81112 0.24393 0.0
C877 C 0.25933 0.83436 0.23991 0.0
C878 C 0.19827 0.83546 0.32191 0.0
C879 C 0.23063 0.78644 0.21969 0.0
C880 C 0.16148 0.74494 0.31612 0.0
C881 C 0.141 0.73815 0.28433 0.0
C882 C 0.18538 0.76882 0.31238 0.0
C883 C 0.18891 0.78643 0.27607 0.0
C884 C 0.16826 0.77985 0.24405 0.0
C885 C 0.14453 0.75571 0.24849 0.0
C886 C 0.207 0.77504 0.34701 0.0
C887 C 0.17133 0.79822 0.20496 0.0
H888 H 0.24774 0.87566 0.30573 0.0
H889 H 0.27468 0.8342 0.21923 0.0
H890 H 0.18039 0.82952 0.30072 0.0
H891 H 0.19244 0.82113 0.35072 0.0
H892 H 0.20491 0.85539 0.33645 0.0
H893 H 0.24828 0.78977 0.19981 0.0
H894 H 0.22581 0.77053 0.24524 0.0
H895 H 0.21364 0.77925 0.19575 0.0
H896 H 0.15892 0.7315 0.34396 0.0
H897 H 0.12874 0.75064 0.22396 0.0
H898 H 0.21291 0.79417 0.36413 0.0
H899 H 0.22471 0.77709 0.32917 0.0
H900 H 0.20086 0.75951 0.37388 0.0
H901 H 0.1765 0.81794 0.21868 0.0
H902 H 0.15308 0.79063 0.18399 0.0
H903 H 0.18775 0.80099 0.18214 0.0
C904 C 0.38512 0.24317 0.78373 0.0
C905 C 0.403 0.26215 0.75284 0.0
C906 C 0.38387 0.21865 0.78888 0.0
C907 C 0.40103 0.21315 0.76274 0.0
C908 C 0.4192 0.23232 0.73176 0.0
C909 C 0.41991 0.25653 0.72712 0.0
C910 C 0.3642 0.19862 0.82216 0.0
C911 C 0.43798 0.2273 0.70357 0.0
C912 C 0.41803 0.16208 0.80493 0.0
C913 C 0.4026 0.14055 0.77602 0.0
C914 C 0.4173 0.18562 0.80154 0.0
C915 C 0.40064 0.18769 0.76853 0.0
C916 C 0.38471 0.16593 0.73964 0.0
C917 C 0.38593 0.1426 0.74364 0.0
C918 C 0.43472 0.20845 0.83274 0.0
C919 C 0.36664 0.16742 0.70415 0.0
H920 H 0.3719 0.24734 0.80352 0.0
H921 H 0.43381 0.27109 0.70319 0.0
H922 H 0.35096 0.17996 0.80377 0.0
H923 H 0.3747 0.19391 0.84903 0.0
H924 H 0.35194 0.20575 0.83929 0.0
H925 H 0.45076 0.2442 0.68075 0.0
H926 H 0.45079 0.22348 0.72673 0.0
H927 H 0.42672 0.20944 0.68197 0.0
H928 H 0.43094 0.16067 0.83012 0.0
H929 H 0.37385 0.12599 0.72137 0.0
H930 H 0.42263 0.21492 0.85225 0.0
H931 H 0.44906 0.22552 0.81178 0.0
H932 H 0.44587 0.20332 0.85766 0.0
H933 H 0.35315 0.17314 0.7208 0.0
H934 H 0.35461 0.14837 0.68588 0.0
H935 H 0.37848 0.18289 0.67834 0.0
loop_
_geom_bond_atom_site_label_1
_geom_bond_atom_site_label_2
_geom_bond_distance
_geom_bond_site_symmetry_2
_ccdc_geom_bond_type
O0 Cd1 2.223 . S
O0 C8 1.315 . S
Cd1 O0 2.223 . S
Cd1 O4 2.297 . S
Cd1 O5 2.439 . S
Cd1 O11 2.240 . S
Cd2 O3 2.240 . S
Cd2 O10 2.223 . S
Cd2 O12 2.297 1_455 S
Cd2 O13 2.439 . S
O3 Cd2 2.240 . S
O3 C8 1.279 . S
O4 Cd1 2.297 . S
O4 C6 1.247 . S
O5 Cd1 2.439 . S
O5 C6 1.208 . S
C6 O4 1.247 . S
C6 O5 1.208 . S
C7 O12 1.247 1_455 S
C7 O13 1.208 . S
C8 O0 1.315 . S
C8 O3 1.279 . S
C9 O10 1.315 . S
C9 O11 1.279 . S
O10 Cd2 2.223 . S
O10 C9 1.315 . S
O11 Cd1 2.240 . S
O11 C9 1.279 . S
O12 Cd2 2.297 1_655 S
O12 C7 1.247 1_655 S
O13 Cd2 2.439 . S
O13 C7 1.208 . S
O14 Cd15 2.223 . S
O14 C22 1.315 . S
Cd15 O14 2.223 . S
Cd15 O18 2.297 . S
Cd15 O19 2.439 . S
Cd15 O25 2.240 . S
Cd16 O17 2.240 . S
Cd16 O24 2.223 . S
Cd16 O26 2.297 1_545 S
Cd16 O27 2.439 . S
O17 Cd16 2.240 . S
O17 C22 1.279 . S
O18 Cd15 2.297 . S
O18 C20 1.247 . S
O19 Cd15 2.439 . S
O19 C20 1.208 . S
C20 O18 1.247 . S
C20 O19 1.208 . S
C21 O26 1.247 1_545 S
C21 O27 1.208 . S
C22 O14 1.315 . S
C22 O17 1.279 . S
C23 O24 1.315 . S
C23 O25 1.279 . S
O24 Cd16 2.223 . S
O24 C23 1.315 . S
O25 Cd15 2.240 . S
O25 C23 1.279 . S
O26 Cd16 2.297 1_565 S
O26 C21 1.247 1_565 S
O27 Cd16 2.439 . S
O27 C21 1.208 . S
O28 Cd29 2.223 . S
O28 C36 1.315 . S
Cd29 O28 2.223 . S
Cd29 O32 2.297 . S
Cd29 O33 2.439 . S
Cd29 O39 2.240 . S
Cd30 O31 2.240 . S
Cd30 O38 2.223 . S
Cd30 O40 2.297 . S
Cd30 O41 2.439 . S
O31 Cd30 2.240 . S
O31 C36 1.279 . S
O32 Cd29 2.297 . S
O32 C34 1.247 . S
O33 Cd29 2.439 . S
O33 C34 1.208 . S
C34 O32 1.247 . S
C34 O33 1.208 . S
C35 O40 1.247 . S
C35 O41 1.208 . S
C36 O28 1.315 . S
C36 O31 1.279 . S
C37 O38 1.315 . S
C37 O39 1.279 . S
O38 Cd30 2.223 . S
O38 C37 1.315 . S
O39 Cd29 2.240 . S
O39 C37 1.279 . S
O40 Cd30 2.297 . S
O40 C35 1.247 . S
O41 Cd30 2.439 . S
O41 C35 1.208 . S
O42 Cd43 2.223 . S
O42 C50 1.315 . S
Cd43 O42 2.223 . S
Cd43 O46 2.297 . S
Cd43 O47 2.439 . S
Cd43 O53 2.240 . S
Cd44 O45 2.240 . S
Cd44 O52 2.223 . S
Cd44 O54 2.297 1_655 S
Cd44 O55 2.439 . S
O45 Cd44 2.240 . S
O45 C50 1.279 . S
O46 Cd43 2.297 . S
O46 C48 1.247 . S
O47 Cd43 2.439 . S
O47 C48 1.208 . S
C48 O46 1.247 . S
C48 O47 1.208 . S
C49 O54 1.247 1_655 S
C49 O55 1.208 . S
C50 O42 1.315 . S
C50 O45 1.279 . S
C51 O52 1.315 . S
C51 O53 1.279 . S
O52 Cd44 2.223 . S
O52 C51 1.315 . S
O53 Cd43 2.240 . S
O53 C51 1.279 . S
O54 Cd44 2.297 1_455 S
O54 C49 1.247 1_455 S
O55 Cd44 2.439 . S
O55 C49 1.208 . S
O56 Cd57 2.223 . S
O56 C64 1.315 . S
Cd57 O56 2.223 . S
Cd57 O60 2.297 . S
Cd57 O61 2.439 . S
Cd57 O67 2.240 . S
Cd58 O59 2.240 . S
Cd58 O66 2.223 . S
Cd58 O68 2.297 1_565 S
Cd58 O69 2.439 . S
O59 Cd58 2.240 . S
O59 C64 1.279 . S
O60 Cd57 2.297 . S
O60 C62 1.247 . S
O61 Cd57 2.439 . S
O61 C62 1.208 . S
C62 O60 1.247 . S
C62 O61 1.208 . S
C63 O68 1.247 1_565 S
C63 O69 1.208 . S
C64 O56 1.315 . S
C64 O59 1.279 . S
C65 O66 1.315 . S
C65 O67 1.279 . S
O66 Cd58 2.223 . S
O66 C65 1.315 . S
O67 Cd57 2.240 . S
O67 C65 1.279 . S
O68 Cd58 2.297 1_545 S
O68 C63 1.247 1_545 S
O69 Cd58 2.439 . S
O69 C63 1.208 . S
O70 Cd71 2.223 . S
O70 C78 1.315 . S
Cd71 O70 2.223 . S
Cd71 O74 2.297 . S
Cd71 O75 2.439 . S
Cd71 O81 2.240 . S
Cd72 O73 2.240 . S
Cd72 O80 2.223 . S
Cd72 O82 2.297 . S
Cd72 O83 2.439 . S
O73 Cd72 2.240 . S
O73 C78 1.279 . S
O74 Cd71 2.297 . S
O74 C76 1.247 . S
O75 Cd71 2.439 . S
O75 C76 1.208 . S
C76 O74 1.247 . S
C76 O75 1.208 . S
C77 O82 1.247 . S
C77 O83 1.208 . S
C78 O70 1.315 . S
C78 O73 1.279 . S
C79 O80 1.315 . S
C79 O81 1.279 . S
O80 Cd72 2.223 . S
O80 C79 1.315 . S
O81 Cd71 2.240 . S
O81 C79 1.279 . S
O82 Cd72 2.297 . S
O82 C77 1.247 . S
O83 Cd72 2.439 . S
O83 C77 1.208 . S
O84 Cd85 2.223 . S
O84 C92 1.315 . S
Cd85 O84 2.223 . S
Cd85 O88 2.297 . S
Cd85 O89 2.439 . S
Cd85 O95 2.240 . S
Cd86 O87 2.240 . S
Cd86 O94 2.223 . S
Cd86 O96 2.297 1_565 S
Cd86 O97 2.439 . S
O87 Cd86 2.240 . S
O87 C92 1.279 . S
O88 Cd85 2.297 . S
O88 C90 1.247 . S
O89 Cd85 2.439 . S
O89 C90 1.208 . S
C90 O88 1.247 . S
C90 O89 1.208 . S
C91 O96 1.247 1_565 S
C91 O97 1.208 . S
C92 O84 1.315 . S
C92 O87 1.279 . S
C93 O94 1.315 . S
C93 O95 1.279 . S
O94 Cd86 2.223 . S
O94 C93 1.315 . S
O95 Cd85 2.240 . S
O95 C93 1.279 . S
O96 Cd86 2.297 1_545 S
O96 C91 1.247 1_545 S
O97 Cd86 2.439 . S
O97 C91 1.208 . S
O98 Cd99 2.223 . S
O98 C106 1.315 . S
Cd99 O98 2.223 . S
Cd99 O102 2.297 . S
Cd99 O103 2.439 . S
Cd99 O109 2.240 . S
Cd100 O101 2.240 . S
Cd100 O108 2.223 . S
Cd100 O110 2.297 . S
Cd100 O111 2.439 . S
O101 Cd100 2.240 . S
O101 C106 1.279 . S
O102 Cd99 2.297 . S
O102 C104 1.247 . S
O103 Cd99 2.439 . S
O103 C104 1.208 . S
C104 O102 1.247 . S
C104 O103 1.208 . S
C105 O110 1.247 . S
C105 O111 1.208 . S
C106 O98 1.315 . S
C106 O101 1.279 . S
C107 O108 1.315 . S
C107 O109 1.279 . S
O108 Cd100 2.223 . S
O108 C107 1.315 . S
O109 Cd99 2.240 . S
O109 C107 1.279 . S
O110 Cd100 2.297 . S
O110 C105 1.247 . S
O111 Cd100 2.439 . S
O111 C105 1.208 . S
O112 Cd113 2.223 . S
O112 C120 1.315 . S
Cd113 O112 2.223 . S
Cd113 O116 2.297 . S
Cd113 O117 2.439 . S
Cd113 O123 2.240 . S
Cd114 O115 2.240 . S
Cd114 O122 2.223 . S
Cd114 O124 2.297 1_455 S
Cd114 O125 2.439 . S
O115 Cd114 2.240 . S
O115 C120 1.279 . S
O116 Cd113 2.297 . S
O116 C118 1.247 . S
O117 Cd113 2.439 . S
O117 C118 1.208 . S
C118 O116 1.247 . S
C118 O117 1.208 . S
C119 O124 1.247 1_455 S
C119 O125 1.208 . S
C120 O112 1.315 . S
C120 O115 1.279 . S
C121 O122 1.315 . S
C121 O123 1.279 . S
O122 Cd114 2.223 . S
O122 C121 1.315 . S
O123 Cd113 2.240 . S
O123 C121 1.279 . S
O124 Cd114 2.297 1_655 S
O124 C119 1.247 1_655 S
O125 Cd114 2.439 . S
O125 C119 1.208 . S
O126 Cd127 2.223 . S
O126 C134 1.315 . S
Cd127 O126 2.223 . S
Cd127 O130 2.297 . S
Cd127 O131 2.439 . S
Cd127 O137 2.240 . S
Cd128 O129 2.240 . S
Cd128 O136 2.223 . S
Cd128 O138 2.297 1_545 S
Cd128 O139 2.439 . S
O129 Cd128 2.240 . S
O129 C134 1.279 . S
O130 Cd127 2.297 . S
O130 C132 1.247 . S
O131 Cd127 2.439 . S
O131 C132 1.208 . S
C132 O130 1.247 . S
C132 O131 1.208 . S
C133 O138 1.247 1_545 S
C133 O139 1.208 . S
C134 O126 1.315 . S
C134 O129 1.279 . S
C135 O136 1.315 . S
C135 O137 1.279 . S
O136 Cd128 2.223 . S
O136 C135 1.315 . S
O137 Cd127 2.240 . S
O137 C135 1.279 . S
O138 Cd128 2.297 1_565 S
O138 C133 1.247 1_565 S
O139 Cd128 2.439 . S
O139 C133 1.208 . S
O140 Cd141 2.223 . S
O140 C148 1.315 . S
Cd141 O140 2.223 . S
Cd141 O144 2.297 . S
Cd141 O145 2.439 . S
Cd141 O151 2.240 . S
Cd142 O143 2.240 . S
Cd142 O150 2.223 . S
Cd142 O152 2.297 . S
Cd142 O153 2.439 . S
O143 Cd142 2.240 . S
O143 C148 1.279 . S
O144 Cd141 2.297 . S
O144 C146 1.247 . S
O145 Cd141 2.439 . S
O145 C146 1.208 . S
C146 O144 1.247 . S
C146 O145 1.208 . S
C147 O152 1.247 . S
C147 O153 1.208 . S
C148 O140 1.315 . S
C148 O143 1.279 . S
C149 O150 1.315 . S
C149 O151 1.279 . S
O150 Cd142 2.223 . S
O150 C149 1.315 . S
O151 Cd141 2.240 . S
O151 C149 1.279 . S
O152 Cd142 2.297 . S
O152 C147 1.247 . S
O153 Cd142 2.439 . S
O153 C147 1.208 . S
O154 Cd155 2.223 . S
O154 C162 1.315 . S
Cd155 O154 2.223 . S
Cd155 O158 2.297 . S
Cd155 O159 2.439 . S
Cd155 O165 2.240 . S
Cd156 O157 2.240 . S
Cd156 O164 2.223 . S
Cd156 O166 2.297 1_655 S
Cd156 O167 2.439 . S
O157 Cd156 2.240 . S
O157 C162 1.279 . S
O158 Cd155 2.297 . S
O158 C160 1.247 . S
O159 Cd155 2.439 . S
O159 C160 1.208 . S
C160 O158 1.247 . S
C160 O159 1.208 . S
C161 O166 1.247 1_655 S
C161 O167 1.208 . S
C162 O154 1.315 . S
C162 O157 1.279 . S
C163 O164 1.315 . S
C163 O165 1.279 . S
O164 Cd156 2.223 . S
O164 C163 1.315 . S
O165 Cd155 2.240 . S
O165 C163 1.279 . S
O166 Cd156 2.297 1_455 S
O166 C161 1.247 1_455 S
O167 Cd156 2.439 . S
O167 C161 1.208 . S
C168 C169 1.391 . S
C168 C170 1.394 1_455 S
C168 H184 0.931 1_455 S
C169 C168 1.391 . S
C169 C173 1.376 . S
C170 C168 1.394 1_655 S
C170 C171 1.364 . S
C170 C174 1.531 . S
C171 C170 1.364 . S
C171 C172 1.406 1_655 S
C171 C179 1.510 1_554 S
C172 C171 1.406 1_455 S
C172 C173 1.392 . S
C172 C175 1.511 . S
C173 C169 1.376 . S
C173 C172 1.392 . S
C173 H185 0.929 . S
C174 C170 1.531 . S
C174 H186 0.960 . S
C174 H187 0.962 . S
C174 H188 0.960 . S
C175 C172 1.511 . S
C175 H189 0.961 . S
C175 H190 0.961 1_554 S
C175 H191 0.961 . S
C176 C177 1.363 1_455 S
C176 C178 1.365 . S
C176 H192 0.937 . S
C177 C176 1.363 1_655 S
C177 C181 1.408 . S
C178 C176 1.365 . S
C178 C179 1.370 1_455 S
C178 C182 1.524 . S
C179 C171 1.510 1_556 S
C179 C178 1.370 1_655 S
C179 C180 1.403 . S
C180 C179 1.403 . S
C180 C181 1.404 . S
C180 C183 1.539 . S
C181 C177 1.408 . S
C181 C180 1.404 . S
C181 H193 0.930 . S
C182 C178 1.524 . S
C182 H194 0.956 . S
C182 H195 0.961 . S
C182 H196 0.961 . S
C183 C180 1.539 . S
C183 H197 0.958 1_556 S
C183 H198 0.961 . S
C183 H199 0.960 1_556 S
H184 C168 0.931 1_655 S
H185 C173 0.929 . S
H186 C174 0.960 . S
H187 C174 0.962 . S
H188 C174 0.960 . S
H189 C175 0.961 . S
H190 C175 0.961 1_556 S
H191 C175 0.961 . S
H192 C176 0.937 . S
H193 C181 0.930 . S
H194 C182 0.956 . S
H195 C182 0.961 . S
H196 C182 0.961 . S
H197 C183 0.958 1_554 S
H198 C183 0.961 . S
H199 C183 0.960 1_554 S
C200 C201 1.391 . S
C200 C202 1.394 . S
C200 H216 0.931 . S
C201 C200 1.391 . S
C201 C205 1.376 . S
C202 C200 1.394 . S
C202 C203 1.369 . S
C202 C206 1.531 . S
C203 C202 1.369 . S
C203 C204 1.410 . S
C203 C211 1.493 1_565 S
C204 C203 1.410 . S
C204 C205 1.392 . S
C204 C207 1.511 1_565 S
C205 C201 1.376 . S
C205 C204 1.392 . S
C205 H217 0.929 . S
C206 C202 1.531 . S
C206 H218 0.960 . S
C206 H219 0.962 . S
C206 H220 0.960 . S
C207 C204 1.511 1_545 S
C207 H221 0.961 . S
C207 H222 0.961 . S
C207 H223 0.961 1_545 S
C208 C209 1.370 . S
C208 C210 1.363 . S
C208 H224 0.931 . S
C209 C208 1.370 . S
C209 C213 1.408 1_545 S
C210 C208 1.363 . S
C210 C211 1.403 . S
C210 C214 1.524 . S
C211 C203 1.493 1_545 S
C211 C210 1.403 . S
C211 C212 1.381 1_545 S
C212 C211 1.381 1_565 S
C212 C213 1.404 . S
C212 C215 1.539 . S
C213 C209 1.408 1_565 S
C213 C212 1.404 . S
C213 H225 0.930 . S
C214 C210 1.524 . S
C214 H226 0.956 . S
C214 H227 0.961 . S
C214 H228 0.961 . S
C215 C212 1.539 . S
C215 H229 0.958 . S
C215 H230 0.961 . S
C215 H231 0.960 . S
H216 C200 0.931 . S
H217 C205 0.929 . S
H218 C206 0.960 . S
H219 C206 0.962 . S
H220 C206 0.960 . S
H221 C207 0.961 . S
H222 C207 0.961 . S
H223 C207 0.961 1_565 S
H224 C208 0.931 . S
H225 C213 0.930 . S
H226 C214 0.956 . S
H227 C214 0.961 . S
H228 C214 0.961 . S
H229 C215 0.958 . S
H230 C215 0.961 . S
H231 C215 0.960 . S
C232 C233 1.391 . S
C232 C234 1.394 . S
C232 H248 0.931 . S
C233 C232 1.391 . S
C233 C237 1.376 . S
C234 C232 1.394 . S
C234 C235 1.369 . S
C234 C238 1.531 1_554 S
C235 C234 1.369 . S
C235 C236 1.410 . S
C235 C243 1.503 1_554 S
C236 C235 1.410 . S
C236 C237 1.392 . S
C236 C239 1.511 . S
C237 C233 1.376 . S
C237 C236 1.392 . S
C237 H249 0.929 . S
C238 C234 1.531 1_556 S
C238 H250 0.960 . S
C238 H251 0.962 . S
C238 H252 0.960 1_556 S
C239 C236 1.511 . S
C239 H253 0.961 . S
C239 H254 0.961 . S
C239 H255 0.961 . S
C240 C241 1.370 . S
C240 C242 1.363 . S
C240 H256 0.931 . S
C241 C240 1.370 . S
C241 C245 1.408 . S
C242 C240 1.363 . S
C242 C243 1.370 . S
C242 C246 1.524 . S
C243 C235 1.503 1_556 S
C243 C242 1.370 . S
C243 C244 1.403 . S
C244 C243 1.403 . S
C244 C245 1.404 . S
C244 C247 1.539 . S
C245 C241 1.408 . S
C245 C244 1.404 . S
C245 H257 0.930 . S
C246 C242 1.524 . S
C246 H258 0.956 . S
C246 H259 0.961 1_556 S
C246 H260 0.961 . S
C247 C244 1.539 . S
C247 H261 0.958 . S
C247 H262 0.961 . S
C247 H263 0.960 1_556 S
H248 C232 0.931 . S
H249 C237 0.929 . S
H250 C238 0.960 . S
H251 C238 0.962 . S
H252 C238 0.960 1_554 S
H253 C239 0.961 . S
H254 C239 0.961 . S
H255 C239 0.961 . S
H256 C240 0.931 . S
H257 C245 0.930 . S
H258 C246 0.956 . S
H259 C246 0.961 1_554 S
H260 C246 0.961 . S
H261 C247 0.958 . S
H262 C247 0.961 . S
H263 C247 0.960 1_554 S
C264 C265 1.391 1_655 S
C264 C266 1.393 . S
C264 H280 0.930 . S
C265 C264 1.391 1_455 S
C265 C269 1.376 . S
C266 C264 1.393 . S
C266 C267 1.369 1_655 S
C266 C270 1.531 . S
C267 C266 1.369 1_455 S
C267 C268 1.410 . S
C267 C275 1.503 1_455 S
C268 C267 1.410 . S
C268 C269 1.392 . S
C268 C271 1.511 . S
C269 C265 1.376 . S
C269 C268 1.392 . S
C269 H281 0.929 . S
C270 C266 1.531 . S
C270 H282 0.960 . S
C270 H283 0.962 . S
C270 H284 0.960 . S
C271 C268 1.511 . S
C271 H285 0.961 . S
C271 H286 0.961 . S
C271 H287 0.961 . S
C272 C273 1.370 . S
C272 C274 1.363 . S
C272 H288 0.931 . S
C273 C272 1.370 . S
C273 C277 1.408 . S
C274 C272 1.363 . S
C274 C275 1.370 . S
C274 C278 1.524 . S
C275 C267 1.503 1_655 S
C275 C274 1.370 . S
C275 C276 1.403 1_655 S
C276 C275 1.403 1_455 S
C276 C277 1.404 1_455 S
C276 C279 1.539 . S
C277 C273 1.408 . S
C277 C276 1.404 1_655 S
C277 H289 0.930 . S
C278 C274 1.524 . S
C278 H290 0.956 . S
C278 H291 0.961 . S
C278 H292 0.961 . S
C279 C276 1.539 . S
C279 H293 0.958 . S
C279 H294 0.961 . S
C279 H295 0.960 . S
H280 C264 0.930 . S
H281 C269 0.929 . S
H282 C270 0.960 . S
H283 C270 0.962 . S
H284 C270 0.960 . S
H285 C271 0.961 . S
H286 C271 0.961 . S
H287 C271 0.961 . S
H288 C272 0.931 . S
H289 C277 0.930 . S
H290 C278 0.956 . S
H291 C278 0.961 . S
H292 C278 0.961 . S
H293 C279 0.958 . S
H294 C279 0.961 . S
H295 C279 0.960 . S
C296 C297 1.391 . S
C296 C298 1.394 1_545 S
C296 H312 0.931 . S
C297 C296 1.391 . S
C297 C301 1.376 . S
C298 C296 1.394 1_565 S
C298 C299 1.355 . S
C298 C302 1.531 . S
C299 C298 1.355 . S
C299 C300 1.410 1_565 S
C299 C307 1.515 1_556 S
C300 C299 1.410 1_545 S
C300 C301 1.392 . S
C300 C303 1.511 . S
C301 C297 1.376 . S
C301 C300 1.392 . S
C301 H313 0.929 . S
C302 C298 1.531 . S
C302 H314 0.960 . S
C302 H315 0.962 . S
C302 H316 0.960 . S
C303 C300 1.511 . S
C303 H317 0.961 . S
C303 H318 0.961 1_556 S
C303 H319 0.961 . S
C304 C305 1.370 1_545 S
C304 C306 1.363 . S
C304 H320 0.931 . S
C305 C304 1.370 1_565 S
C305 C309 1.408 . S
C306 C304 1.363 . S
C306 C307 1.370 1_545 S
C306 C310 1.524 . S
C307 C299 1.515 1_554 S
C307 C306 1.370 1_565 S
C307 C308 1.403 . S
C308 C307 1.403 . S
C308 C309 1.404 . S
C308 C311 1.549 . S
C309 C305 1.408 . S
C309 C308 1.404 . S
C309 H321 0.930 . S
C310 C306 1.524 . S
C310 H322 0.956 . S
C310 H323 0.961 . S
C310 H324 0.961 . S
C311 C308 1.549 . S
C311 H325 0.953 1_554 S
C311 H326 0.968 . S
C311 H327 0.948 1_554 S
H312 C296 0.931 . S
H313 C301 0.929 . S
H314 C302 0.960 . S
H315 C302 0.962 . S
H316 C302 0.960 . S
H317 C303 0.961 . S
H318 C303 0.961 1_554 S
H319 C303 0.961 . S
H320 C304 0.931 . S
H321 C309 0.930 . S
H322 C310 0.956 . S
H323 C310 0.961 . S
H324 C310 0.961 . S
H325 C311 0.953 1_556 S
H326 C311 0.968 . S
H327 C311 0.948 1_556 S
C328 C329 1.391 . S
C328 C330 1.394 . S
C328 H344 0.931 . S
C329 C328 1.391 . S
C329 C333 1.376 . S
C330 C328 1.394 . S
C330 C331 1.369 . S
C330 C334 1.531 . S
C331 C330 1.369 . S
C331 C332 1.410 . S
C331 C339 1.503 . S
C332 C331 1.410 . S
C332 C333 1.392 . S
C332 C335 1.511 . S
C333 C329 1.376 . S
C333 C332 1.392 . S
C333 H345 0.929 . S
C334 C330 1.531 . S
C334 H346 0.960 . S
C334 H347 0.962 . S
C334 H348 0.960 . S
C335 C332 1.511 . S
C335 H349 0.961 . S
C335 H350 0.961 . S
C335 H351 0.961 . S
C336 C337 1.370 . S
C336 C338 1.363 . S
C336 H352 0.931 . S
C337 C336 1.370 . S
C337 C341 1.408 . S
C338 C336 1.363 . S
C338 C339 1.370 . S
C338 C342 1.524 . S
C339 C331 1.503 . S
C339 C338 1.370 . S
C339 C340 1.403 . S
C340 C339 1.403 . S
C340 C341 1.404 . S
C340 C343 1.539 . S
C341 C337 1.408 . S
C341 C340 1.404 . S
C341 H353 0.930 . S
C342 C338 1.524 . S
C342 H354 0.956 . S
C342 H355 0.961 . S
C342 H356 0.961 . S
C343 C340 1.539 . S
C343 H357 0.958 . S
C343 H358 0.961 . S
C343 H359 0.960 . S
H344 C328 0.931 . S
H345 C333 0.929 . S
H346 C334 0.960 . S
H347 C334 0.962 . S
H348 C334 0.960 . S
H349 C335 0.961 . S
H350 C335 0.961 . S
H351 C335 0.961 . S
H352 C336 0.931 . S
H353 C341 0.930 . S
H354 C342 0.956 . S
H355 C342 0.961 . S
H356 C342 0.961 . S
H357 C343 0.958 . S
H358 C343 0.961 . S
H359 C343 0.960 . S
C360 C361 1.391 . S
C360 C362 1.394 . S
C360 H376 0.931 . S
C361 C360 1.391 . S
C361 C365 1.376 1_655 S
C362 C360 1.394 . S
C362 C363 1.393 . S
C362 C366 1.531 . S
C363 C362 1.393 . S
C363 C364 1.395 1_655 S
C363 C371 1.498 1_656 S
C364 C363 1.395 1_455 S
C364 C365 1.392 . S
C364 C367 1.511 . S
C365 C361 1.376 1_455 S
C365 C364 1.392 . S
C365 H377 0.929 . S
C366 C362 1.531 . S
C366 H378 0.960 1_556 S
C366 H379 0.962 1_556 S
C366 H380 0.960 . S
C367 C364 1.511 . S
C367 H381 0.961 . S
C367 H382 0.961 . S
C367 H383 0.961 . S
C368 C369 1.370 . S
C368 C370 1.363 1_455 S
C368 H384 0.931 1_455 S
C369 C368 1.370 . S
C369 C373 1.408 . S
C370 C368 1.363 1_655 S
C370 C371 1.370 1_655 S
C370 C374 1.524 . S
C371 C363 1.498 1_454 S
C371 C370 1.370 1_455 S
C371 C372 1.403 . S
C372 C371 1.403 . S
C372 C373 1.404 . S
C372 C375 1.539 . S
C373 C369 1.408 . S
C373 C372 1.404 . S
C373 H385 0.930 . S
C374 C370 1.524 . S
C374 H386 0.956 . S
C374 H387 0.956 1_554 S
C374 H388 0.961 . S
C375 C372 1.539 . S
C375 H389 0.958 . S
C375 H390 0.961 . S
C375 H391 0.960 1_554 S
H376 C360 0.931 . S
H377 C365 0.929 . S
H378 C366 0.960 1_554 S
H379 C366 0.962 1_554 S
H380 C366 0.960 . S
H381 C367 0.961 . S
H382 C367 0.961 . S
H383 C367 0.961 . S
H384 C368 0.931 1_655 S
H385 C373 0.930 . S
H386 C374 0.956 . S
H387 C374 0.956 1_556 S
H388 C374 0.961 . S
H389 C375 0.958 . S
H390 C375 0.961 . S
H391 C375 0.960 1_556 S
C392 C393 1.391 . S
C392 C394 1.394 . S
C392 H408 0.931 . S
C393 C392 1.391 . S
C393 C397 1.376 . S
C394 C392 1.394 . S
C394 C395 1.369 . S
C394 C398 1.531 . S
C395 C394 1.369 . S
C395 C396 1.410 . S
C395 C403 1.503 . S
C396 C395 1.410 . S
C396 C397 1.392 . S
C396 C399 1.511 1_565 S
C397 C393 1.376 . S
C397 C396 1.392 . S
C397 H409 0.929 . S
C398 C394 1.531 . S
C398 H410 0.960 . S
C398 H411 0.962 . S
C398 H412 0.960 . S
C399 C396 1.511 1_545 S
C399 H413 0.961 . S
C399 H414 0.961 . S
C399 H415 0.961 1_545 S
C400 C401 1.370 . S
C400 C402 1.363 . S
C400 H416 0.931 . S
C401 C400 1.370 . S
C401 C405 1.408 1_545 S
C402 C400 1.363 . S
C402 C403 1.370 1_545 S
C402 C406 1.524 . S
C403 C395 1.503 . S
C403 C402 1.370 1_565 S
C403 C404 1.403 . S
C404 C403 1.403 . S
C404 C405 1.404 . S
C404 C407 1.539 . S
C405 C401 1.408 1_565 S
C405 C404 1.404 . S
C405 H417 0.930 . S
C406 C402 1.524 . S
C406 H418 0.956 . S
C406 H419 0.961 . S
C406 H420 0.961 . S
C407 C404 1.539 . S
C407 H421 0.958 . S
C407 H422 0.961 . S
C407 H423 0.960 . S
H408 C392 0.931 . S
H409 C397 0.929 . S
H410 C398 0.960 . S
H411 C398 0.962 . S
H412 C398 0.960 . S
H413 C399 0.961 . S
H414 C399 0.961 . S
H415 C399 0.961 1_565 S
H416 C400 0.931 . S
H417 C405 0.930 . S
H418 C406 0.956 . S
H419 C406 0.961 . S
H420 C406 0.961 . S
H421 C407 0.958 . S
H422 C407 0.961 . S
H423 C407 0.960 . S
C424 C425 1.391 . S
C424 C426 1.394 . S
C424 H440 0.931 . S
C425 C424 1.391 . S
C425 C429 1.376 . S
C426 C424 1.394 . S
C426 C427 1.369 . S
C426 C430 1.531 . S
C427 C426 1.369 . S
C427 C428 1.410 . S
C427 C435 1.503 1_556 S
C428 C427 1.410 . S
C428 C429 1.392 . S
C428 C431 1.511 . S
C429 C425 1.376 . S
C429 C428 1.392 . S
C429 H441 0.929 . S
C430 C426 1.531 . S
C430 H442 0.960 1_556 S
C430 H443 0.962 . S
C430 H444 0.960 . S
C431 C428 1.511 . S
C431 H445 0.961 . S
C431 H446 0.961 1_556 S
C431 H447 0.961 . S
C432 C433 1.370 . S
C432 C434 1.363 . S
C432 H448 0.931 . S
C433 C432 1.370 . S
C433 C437 1.408 . S
C434 C432 1.363 . S
C434 C435 1.370 . S
C434 C438 1.524 . S
C435 C427 1.503 1_554 S
C435 C434 1.370 . S
C435 C436 1.403 . S
C436 C435 1.403 . S
C436 C437 1.404 . S
C436 C439 1.539 . S
C437 C433 1.408 . S
C437 C436 1.404 . S
C437 H449 0.930 . S
C438 C434 1.524 . S
C438 H450 0.956 1_554 S
C438 H451 0.961 1_554 S
C438 H452 0.961 . S
C439 C436 1.539 . S
C439 H453 0.958 . S
C439 H454 0.961 . S
C439 H455 0.960 . S
H440 C424 0.931 . S
H441 C429 0.929 . S
H442 C430 0.960 1_554 S
H443 C430 0.962 . S
H444 C430 0.960 . S
H445 C431 0.961 . S
H446 C431 0.961 1_554 S
H447 C431 0.961 . S
H448 C432 0.931 . S
H449 C437 0.930 . S
H450 C438 0.956 1_556 S
H451 C438 0.961 1_556 S
H452 C438 0.961 . S
H453 C439 0.958 . S
H454 C439 0.961 . S
H455 C439 0.960 . S
C456 C457 1.391 . S
C456 C458 1.394 . S
C456 H472 0.931 . S
C457 C456 1.391 . S
C457 C461 1.377 1_655 S
C458 C456 1.394 . S
C458 C459 1.369 1_655 S
C458 C462 1.531 . S
C459 C458 1.369 1_455 S
C459 C460 1.410 . S
C459 C467 1.503 . S
C460 C459 1.410 . S
C460 C461 1.392 . S
C460 C463 1.511 . S
C461 C457 1.377 1_455 S
C461 C460 1.392 . S
C461 H473 0.928 . S
C462 C458 1.531 . S
C462 H474 0.960 . S
C462 H475 0.962 . S
C462 H476 0.960 . S
C463 C460 1.511 . S
C463 H477 0.961 . S
C463 H478 0.961 . S
C463 H479 0.961 . S
C464 C465 1.370 1_655 S
C464 C466 1.363 . S
C464 H480 0.931 . S
C465 C464 1.370 1_455 S
C465 C469 1.408 . S
C466 C464 1.363 . S
C466 C467 1.370 1_655 S
C466 C470 1.524 . S
C467 C459 1.503 . S
C467 C466 1.370 1_455 S
C467 C468 1.403 . S
C468 C467 1.403 . S
C468 C469 1.404 . S
C468 C471 1.539 . S
C469 C465 1.408 . S
C469 C468 1.404 . S
C469 H481 0.930 . S
C470 C466 1.524 . S
C470 H482 0.956 . S
C470 H483 0.961 . S
C470 H484 0.961 . S
C471 C468 1.539 . S
C471 H485 0.958 . S
C471 H486 0.961 . S
C471 H487 0.960 . S
H472 C456 0.931 . S
H473 C461 0.928 . S
H474 C462 0.960 . S
H475 C462 0.962 . S
H476 C462 0.960 . S
H477 C463 0.961 . S
H478 C463 0.961 . S
H479 C463 0.961 . S
H480 C464 0.931 . S
H481 C469 0.930 . S
H482 C470 0.956 . S
H483 C470 0.961 . S
H484 C470 0.961 . S
H485 C471 0.958 . S
H486 C471 0.961 . S
H487 C471 0.960 . S
C488 C489 1.391 1_565 S
C488 C490 1.394 . S
C488 H504 0.931 . S
C489 C488 1.391 1_545 S
C489 C493 1.376 . S
C490 C488 1.394 . S
C490 C491 1.369 . S
C490 C494 1.531 . S
C491 C490 1.369 . S
C491 C492 1.410 1_565 S
C491 C499 1.503 1_556 S
C492 C491 1.410 1_545 S
C492 C493 1.392 . S
C492 C495 1.511 . S
C493 C489 1.376 . S
C493 C492 1.392 . S
C493 H505 0.929 . S
C494 C490 1.531 . S
C494 H506 0.960 . S
C494 H507 0.962 . S
C494 H508 0.960 . S
C495 C492 1.511 . S
C495 H509 0.961 . S
C495 H510 0.961 1_556 S
C495 H511 0.961 . S
C496 C497 1.370 1_545 S
C496 C498 1.363 . S
C496 H512 0.931 . S
C497 C496 1.370 1_565 S
C497 C501 1.408 . S
C498 C496 1.363 . S
C498 C499 1.370 1_545 S
C498 C502 1.524 . S
C499 C491 1.503 1_554 S
C499 C498 1.370 1_565 S
C499 C500 1.403 . S
C500 C499 1.403 . S
C500 C501 1.404 . S
C500 C503 1.539 . S
C501 C497 1.408 . S
C501 C500 1.404 . S
C501 H513 0.930 . S
C502 C498 1.524 . S
C502 H514 0.956 . S
C502 H515 0.961 . S
C502 H516 0.961 . S
C503 C500 1.539 . S
C503 H517 0.958 . S
C503 H518 0.961 . S
C503 H519 0.960 1_554 S
H504 C488 0.931 . S
H505 C493 0.929 . S
H506 C494 0.960 . S
H507 C494 0.962 . S
H508 C494 0.960 . S
H509 C495 0.961 . S
H510 C495 0.961 1_554 S
H511 C495 0.961 . S
H512 C496 0.931 . S
H513 C501 0.930 . S
H514 C502 0.956 . S
H515 C502 0.961 . S
H516 C502 0.961 . S
H517 C503 0.958 . S
H518 C503 0.961 . S
H519 C503 0.960 1_556 S
C520 C521 1.391 . S
C520 C522 1.394 . S
C520 H536 0.931 . S
C521 C520 1.391 . S
C521 C525 1.376 . S
C522 C520 1.394 . S
C522 C523 1.369 . S
C522 C526 1.531 . S
C523 C522 1.369 . S
C523 C524 1.410 . S
C523 C531 1.503 . S
C524 C523 1.410 . S
C524 C525 1.392 . S
C524 C527 1.511 . S
C525 C521 1.376 . S
C525 C524 1.392 . S
C525 H537 0.929 . S
C526 C522 1.531 . S
C526 H538 0.960 . S
C526 H539 0.962 . S
C526 H540 0.960 . S
C527 C524 1.511 . S
C527 H541 0.961 . S
C527 H542 0.961 . S
C527 H543 0.961 . S
C528 C529 1.370 . S
C528 C530 1.363 . S
C528 H544 0.931 . S
C529 C528 1.370 . S
C529 C533 1.408 . S
C530 C528 1.363 . S
C530 C531 1.370 . S
C530 C534 1.524 . S
C531 C523 1.503 . S
C531 C530 1.370 . S
C531 C532 1.403 . S
C532 C531 1.403 . S
C532 C533 1.404 . S
C532 C535 1.539 . S
C533 C529 1.408 . S
C533 C532 1.404 . S
C533 H545 0.930 . S
C534 C530 1.524 . S
C534 H546 0.956 . S
C534 H547 0.961 . S
C534 H548 0.961 . S
C535 C532 1.539 . S
C535 H549 0.958 . S
C535 H550 0.961 . S
C535 H551 0.960 . S
H536 C520 0.931 . S
H537 C525 0.929 . S
H538 C526 0.960 . S
H539 C526 0.962 . S
H540 C526 0.960 . S
H541 C527 0.961 . S
H542 C527 0.961 . S
H543 C527 0.961 . S
H544 C528 0.931 . S
H545 C533 0.930 . S
H546 C534 0.956 . S
H547 C534 0.961 . S
H548 C534 0.961 . S
H549 C535 0.958 . S
H550 C535 0.961 . S
H551 C535 0.960 . S
C552 C553 1.391 . S
C552 C554 1.394 . S
C552 H568 0.931 . S
C553 C552 1.391 . S
C553 C557 1.376 . S
C554 C552 1.394 . S
C554 C555 1.369 . S
C554 C558 1.531 . S
C555 C554 1.369 . S
C555 C556 1.410 . S
C555 C563 1.503 . S
C556 C555 1.410 . S
C556 C557 1.392 . S
C556 C559 1.511 1_455 S
C557 C553 1.376 . S
C557 C556 1.392 . S
C557 H569 0.929 . S
C558 C554 1.531 . S
C558 H570 0.960 . S
C558 H571 0.962 . S
C558 H572 0.960 . S
C559 C556 1.511 1_655 S
C559 H573 0.961 . S
C559 H574 0.961 . S
C559 H575 0.961 . S
C560 C561 1.370 . S
C560 C562 1.363 . S
C560 H576 0.931 . S
C561 C560 1.370 . S
C561 C565 1.408 . S
C562 C560 1.363 . S
C562 C563 1.370 . S
C562 C566 1.524 . S
C563 C555 1.503 . S
C563 C562 1.370 . S
C563 C564 1.403 . S
C564 C563 1.403 . S
C564 C565 1.404 . S
C564 C567 1.539 . S
C565 C561 1.408 . S
C565 C564 1.404 . S
C565 H577 0.930 . S
C566 C562 1.524 . S
C566 H578 0.956 . S
C566 H579 0.961 . S
C566 H580 0.961 . S
C567 C564 1.539 . S
C567 H581 0.958 . S
C567 H582 0.961 . S
C567 H583 0.960 . S
H568 C552 0.931 . S
H569 C557 0.929 . S
H570 C558 0.960 . S
H571 C558 0.962 . S
H572 C558 0.960 . S
H573 C559 0.961 . S
H574 C559 0.961 . S
H575 C559 0.961 . S
H576 C560 0.931 . S
H577 C565 0.930 . S
H578 C566 0.956 . S
H579 C566 0.961 . S
H580 C566 0.961 . S
H581 C567 0.958 . S
H582 C567 0.961 . S
H583 C567 0.960 . S
C584 C585 1.391 . S
C584 C586 1.394 . S
C584 H600 0.931 . S
C585 C584 1.391 . S
C585 C589 1.376 . S
C586 C584 1.394 . S
C586 C587 1.369 . S
C586 C590 1.531 . S
C587 C586 1.369 . S
C587 C588 1.410 . S
C587 C595 1.503 . S
C588 C587 1.410 . S
C588 C589 1.392 . S
C588 C591 1.511 . S
C589 C585 1.376 . S
C589 C588 1.392 . S
C589 H601 0.929 . S
C590 C586 1.531 . S
C590 H602 0.960 . S
C590 H603 0.962 . S
C590 H604 0.960 . S
C591 C588 1.511 . S
C591 H605 0.961 . S
C591 H606 0.961 . S
C591 H607 0.961 1_545 S
C592 C593 1.370 . S
C592 C594 1.363 . S
C592 H608 0.931 . S
C593 C592 1.370 . S
C593 C597 1.408 . S
C594 C592 1.363 . S
C594 C595 1.370 . S
C594 C598 1.524 . S
C595 C587 1.503 . S
C595 C594 1.370 . S
C595 C596 1.403 . S
C596 C595 1.403 . S
C596 C597 1.404 . S
C596 C599 1.539 1_545 S
C597 C593 1.408 . S
C597 C596 1.404 . S
C597 H609 0.972 . S
C598 C594 1.524 . S
C598 H610 0.956 . S
C598 H611 0.961 . S
C598 H612 0.961 . S
C599 C596 1.539 1_565 S
C599 H613 0.958 . S
C599 H614 0.961 . S
C599 H615 0.960 . S
H600 C584 0.931 . S
H601 C589 0.929 . S
H602 C590 0.960 . S
H603 C590 0.962 . S
H604 C590 0.960 . S
H605 C591 0.961 . S
H606 C591 0.961 . S
H607 C591 0.961 1_565 S
H608 C592 0.931 . S
H609 C597 0.972 . S
H610 C598 0.956 . S
H611 C598 0.961 . S
H612 C598 0.961 . S
H613 C599 0.958 . S
H614 C599 0.961 . S
H615 C599 0.960 . S
C616 C617 1.391 . S
C616 C618 1.394 . S
C616 H632 0.931 . S
C617 C616 1.391 . S
C617 C621 1.376 . S
C618 C616 1.394 . S
C618 C619 1.369 . S
C618 C622 1.531 . S
C619 C618 1.369 . S
C619 C620 1.410 . S
C619 C627 1.503 . S
C620 C619 1.410 . S
C620 C621 1.392 . S
C620 C623 1.511 . S
C621 C617 1.376 . S
C621 C620 1.392 . S
C621 H633 0.929 . S
C622 C618 1.531 . S
C622 H634 0.960 . S
C622 H635 0.962 . S
C622 H636 0.960 . S
C623 C620 1.511 . S
C623 H637 0.961 . S
C623 H638 0.961 . S
C623 H639 0.961 . S
C624 C625 1.370 . S
C624 C626 1.363 . S
C624 H640 0.931 . S
C625 C624 1.370 . S
C625 C629 1.408 . S
C626 C624 1.363 . S
C626 C627 1.370 . S
C626 C630 1.524 . S
C627 C619 1.503 . S
C627 C626 1.370 . S
C627 C628 1.403 . S
C628 C627 1.403 . S
C628 C629 1.404 . S
C628 C631 1.539 . S
C629 C625 1.408 . S
C629 C628 1.404 . S
C629 H641 0.930 . S
C630 C626 1.524 . S
C630 H642 0.956 . S
C630 H643 0.961 . S
C630 H644 0.961 . S
C631 C628 1.539 . S
C631 H645 0.958 . S
C631 H646 0.961 . S
C631 H647 0.960 . S
H632 C616 0.931 . S
H633 C621 0.929 . S
H634 C622 0.960 . S
H635 C622 0.962 . S
H636 C622 0.960 . S
H637 C623 0.961 . S
H638 C623 0.961 . S
H639 C623 0.961 . S
H640 C624 0.931 . S
H641 C629 0.930 . S
H642 C630 0.956 . S
H643 C630 0.961 . S
H644 C630 0.961 . S
H645 C631 0.958 . S
H646 C631 0.961 . S
H647 C631 0.960 . S
C648 C649 1.391 . S
C648 C650 1.394 . S
C648 H664 0.931 . S
C649 C648 1.391 . S
C649 C653 1.376 . S
C650 C648 1.394 . S
C650 C651 1.369 . S
C650 C654 1.531 1_655 S
C651 C650 1.369 . S
C651 C652 1.410 . S
C651 C659 1.503 . S
C652 C651 1.410 . S
C652 C653 1.392 . S
C652 C655 1.511 . S
C653 C649 1.376 . S
C653 C652 1.392 . S
C653 H665 0.929 . S
C654 C650 1.531 1_455 S
C654 H666 0.960 . S
C654 H667 0.962 . S
C654 H668 0.960 . S
C655 C652 1.511 . S
C655 H669 0.961 . S
C655 H670 0.961 . S
C655 H671 0.961 . S
C656 C657 1.370 . S
C656 C658 1.363 . S
C656 H672 0.931 . S
C657 C656 1.370 . S
C657 C661 1.408 . S
C658 C656 1.363 . S
C658 C659 1.370 . S
C658 C662 1.524 . S
C659 C651 1.503 . S
C659 C658 1.370 . S
C659 C660 1.403 . S
C660 C659 1.403 . S
C660 C661 1.404 . S
C660 C663 1.539 . S
C661 C657 1.408 . S
C661 C660 1.404 . S
C661 H673 0.930 . S
C662 C658 1.524 . S
C662 H674 0.956 . S
C662 H675 0.961 . S
C662 H676 0.961 . S
C663 C660 1.539 . S
C663 H677 0.958 . S
C663 H678 0.961 . S
C663 H679 0.960 . S
H664 C648 0.931 . S
H665 C653 0.929 . S
H666 C654 0.960 . S
H667 C654 0.962 . S
H668 C654 0.960 . S
H669 C655 0.961 . S
H670 C655 0.961 . S
H671 C655 0.961 . S
H672 C656 0.931 . S
H673 C661 0.930 . S
H674 C662 0.956 . S
H675 C662 0.961 . S
H676 C662 0.961 . S
H677 C663 0.958 . S
H678 C663 0.961 . S
H679 C663 0.960 . S
C680 C681 1.391 . S
C680 C682 1.394 . S
C680 H696 0.931 . S
C681 C680 1.391 . S
C681 C685 1.376 . S
C682 C680 1.394 . S
C682 C683 1.369 . S
C682 C686 1.531 1_565 S
C683 C682 1.369 . S
C683 C684 1.410 . S
C683 C691 1.503 . S
C684 C683 1.410 . S
C684 C685 1.392 . S
C684 C687 1.511 . S
C685 C681 1.376 . S
C685 C684 1.392 . S
C685 H697 0.929 . S
C686 C682 1.531 1_545 S
C686 H698 0.960 . S
C686 H699 0.962 . S
C686 H700 0.960 . S
C687 C684 1.511 . S
C687 H701 0.961 . S
C687 H702 0.961 . S
C687 H703 0.961 . S
C688 C689 1.370 . S
C688 C690 1.363 . S
C688 H704 0.931 . S
C689 C688 1.370 . S
C689 C693 1.408 . S
C690 C688 1.363 . S
C690 C691 1.370 . S
C690 C694 1.524 . S
C691 C683 1.503 . S
C691 C690 1.370 . S
C691 C692 1.403 . S
C692 C691 1.403 . S
C692 C693 1.404 . S
C692 C695 1.539 . S
C693 C689 1.408 . S
C693 C692 1.404 . S
C693 H705 0.930 . S
C694 C690 1.524 . S
C694 H706 0.956 . S
C694 H707 0.961 . S
C694 H708 0.961 . S
C695 C692 1.539 . S
C695 H709 0.958 1_565 S
C695 H710 0.961 . S
C695 H711 0.960 . S
H696 C680 0.931 . S
H697 C685 0.929 . S
H698 C686 0.960 . S
H699 C686 0.962 . S
H700 C686 0.960 . S
H701 C687 0.961 . S
H702 C687 0.961 . S
H703 C687 0.961 . S
H704 C688 0.931 . S
H705 C693 0.930 . S
H706 C694 0.956 . S
H707 C694 0.961 . S
H708 C694 0.961 . S
H709 C695 0.958 1_545 S
H710 C695 0.961 . S
H711 C695 0.960 . S
C712 C713 1.391 . S
C712 C714 1.394 . S
C712 H728 0.931 . S
C713 C712 1.391 . S
C713 C717 1.376 . S
C714 C712 1.394 . S
C714 C715 1.369 . S
C714 C718 1.531 . S
C715 C714 1.369 . S
C715 C716 1.410 . S
C715 C723 1.503 . S
C716 C715 1.410 . S
C716 C717 1.392 . S
C716 C719 1.511 . S
C717 C713 1.376 . S
C717 C716 1.392 . S
C717 H729 0.929 . S
C718 C714 1.531 . S
C718 H730 0.960 . S
C718 H731 0.962 . S
C718 H732 0.960 . S
C719 C716 1.511 . S
C719 H733 0.961 . S
C719 H734 0.961 . S
C719 H735 0.961 . S
C720 C721 1.370 . S
C720 C722 1.363 . S
C720 H736 0.931 . S
C721 C720 1.370 . S
C721 C725 1.408 . S
C722 C720 1.363 . S
C722 C723 1.370 . S
C722 C726 1.524 . S
C723 C715 1.503 . S
C723 C722 1.370 . S
C723 C724 1.403 . S
C724 C723 1.403 . S
C724 C725 1.404 . S
C724 C727 1.539 . S
C725 C721 1.408 . S
C725 C724 1.404 . S
C725 H737 0.930 . S
C726 C722 1.524 . S
C726 H738 0.956 . S
C726 H739 0.961 . S
C726 H740 0.961 . S
C727 C724 1.539 . S
C727 H741 0.958 . S
C727 H742 0.961 . S
C727 H743 0.960 . S
H728 C712 0.931 . S
H729 C717 0.929 . S
H730 C718 0.960 . S
H731 C718 0.962 . S
H732 C718 0.960 . S
H733 C719 0.961 . S
H734 C719 0.961 . S
H735 C719 0.961 . S
H736 C720 0.931 . S
H737 C725 0.930 . S
H738 C726 0.956 . S
H739 C726 0.961 . S
H740 C726 0.961 . S
H741 C727 0.958 . S
H742 C727 0.961 . S
H743 C727 0.960 . S
C744 C745 1.391 . S
C744 C746 1.394 . S
C744 H760 0.931 . S
C745 C744 1.391 . S
C745 C749 1.376 . S
C746 C744 1.394 . S
C746 C747 1.369 . S
C746 C750 1.531 . S
C747 C746 1.369 . S
C747 C748 1.410 . S
C747 C755 1.503 . S
C748 C747 1.410 . S
C748 C749 1.392 . S
C748 C751 1.511 . S
C749 C745 1.376 . S
C749 C748 1.392 . S
C749 H761 0.929 . S
C750 C746 1.531 . S
C750 H762 0.960 . S
C750 H763 0.962 . S
C750 H764 0.960 . S
C751 C748 1.511 . S
C751 H765 0.961 . S
C751 H766 0.961 . S
C751 H767 0.961 . S
C752 C753 1.370 . S
C752 C754 1.363 . S
C752 H768 0.931 . S
C753 C752 1.370 . S
C753 C757 1.408 . S
C754 C752 1.363 . S
C754 C755 1.370 . S
C754 C758 1.524 . S
C755 C747 1.503 . S
C755 C754 1.370 . S
C755 C756 1.403 . S
C756 C755 1.403 . S
C756 C757 1.404 . S
C756 C759 1.539 . S
C757 C753 1.408 . S
C757 C756 1.404 . S
C757 H769 0.930 . S
C758 C754 1.524 . S
C758 H770 0.956 . S
C758 H771 0.961 . S
C758 H772 0.961 . S
C759 C756 1.539 . S
C759 H773 0.958 . S
C759 H774 0.961 . S
C759 H775 0.960 . S
H760 C744 0.931 . S
H761 C749 0.929 . S
H762 C750 0.960 . S
H763 C750 0.962 . S
H764 C750 0.960 . S
H765 C751 0.961 . S
H766 C751 0.961 . S
H767 C751 0.961 . S
H768 C752 0.931 . S
H769 C757 0.930 . S
H770 C758 0.956 . S
H771 C758 0.961 . S
H772 C758 0.961 . S
H773 C759 0.958 . S
H774 C759 0.961 . S
H775 C759 0.960 . S
C776 C777 1.391 . S
C776 C778 1.394 . S
C776 H792 0.931 . S
C777 C776 1.391 . S
C777 C781 1.376 . S
C778 C776 1.394 . S
C778 C779 1.369 . S
C778 C782 1.531 . S
C779 C778 1.369 . S
C779 C780 1.410 . S
C779 C787 1.503 . S
C780 C779 1.410 . S
C780 C781 1.392 . S
C780 C783 1.511 . S
C781 C777 1.376 . S
C781 C780 1.392 . S
C781 H793 0.929 . S
C782 C778 1.531 . S
C782 H794 0.960 . S
C782 H795 0.962 . S
C782 H796 0.960 . S
C783 C780 1.511 . S
C783 H797 0.961 . S
C783 H798 0.961 . S
C783 H799 0.961 . S
C784 C785 1.370 . S
C784 C786 1.363 . S
C784 H800 0.931 . S
C785 C784 1.370 . S
C785 C789 1.408 . S
C786 C784 1.363 . S
C786 C787 1.370 . S
C786 C790 1.524 . S
C787 C779 1.503 . S
C787 C786 1.370 . S
C787 C788 1.403 . S
C788 C787 1.403 . S
C788 C789 1.404 . S
C788 C791 1.539 . S
C789 C785 1.408 . S
C789 C788 1.404 . S
C789 H801 0.930 . S
C790 C786 1.524 . S
C790 H802 0.956 . S
C790 H803 0.961 . S
C790 H804 0.961 . S
C791 C788 1.539 . S
C791 H805 0.958 . S
C791 H806 0.961 . S
C791 H807 0.960 . S
H792 C776 0.931 . S
H793 C781 0.929 . S
H794 C782 0.960 . S
H795 C782 0.962 . S
H796 C782 0.960 . S
H797 C783 0.961 . S
H798 C783 0.961 . S
H799 C783 0.961 . S
H800 C784 0.931 . S
H801 C789 0.930 . S
H802 C790 0.956 . S
H803 C790 0.961 . S
H804 C790 0.961 . S
H805 C791 0.958 . S
H806 C791 0.961 . S
H807 C791 0.960 . S
C808 C809 1.391 . S
C808 C810 1.394 . S
C808 H824 0.931 . S
C809 C808 1.391 . S
C809 C813 1.376 . S
C810 C808 1.394 . S
C810 C811 1.369 . S
C810 C814 1.531 . S
C811 C810 1.369 . S
C811 C812 1.410 . S
C811 C819 1.503 . S
C812 C811 1.410 . S
C812 C813 1.392 . S
C812 C815 1.511 . S
C813 C809 1.376 . S
C813 C812 1.392 . S
C813 H825 0.929 . S
C814 C810 1.531 . S
C814 H826 0.960 . S
C814 H827 0.962 . S
C814 H828 0.960 . S
C815 C812 1.511 . S
C815 H829 0.961 . S
C815 H830 0.961 . S
C815 H831 0.961 . S
C816 C817 1.370 . S
C816 C818 1.363 . S
C816 H832 0.931 . S
C817 C816 1.370 . S
C817 C821 1.408 . S
C818 C816 1.363 . S
C818 C819 1.370 . S
C818 C822 1.524 . S
C819 C811 1.503 . S
C819 C818 1.370 . S
C819 C820 1.403 . S
C820 C819 1.403 . S
C820 C821 1.404 . S
C820 C823 1.539 . S
C821 C817 1.408 . S
C821 C820 1.404 . S
C821 H833 0.930 . S
C822 C818 1.524 . S
C822 H834 0.956 . S
C822 H835 0.961 . S
C822 H836 0.961 . S
C823 C820 1.539 . S
C823 H837 0.958 . S
C823 H838 0.961 . S
C823 H839 0.960 . S
H824 C808 0.931 . S
H825 C813 0.929 . S
H826 C814 0.960 . S
H827 C814 0.962 . S
H828 C814 0.960 . S
H829 C815 0.961 . S
H830 C815 0.961 . S
H831 C815 0.961 . S
H832 C816 0.931 . S
H833 C821 0.930 . S
H834 C822 0.956 . S
H835 C822 0.961 . S
H836 C822 0.961 . S
H837 C823 0.958 . S
H838 C823 0.961 . S
H839 C823 0.960 . S
C840 C841 1.391 . S
C840 C842 1.394 . S
C840 H856 0.931 . S
C841 C840 1.391 . S
C841 C845 1.376 . S
C842 C840 1.394 . S
C842 C843 1.369 . S
C842 C846 1.531 . S
C843 C842 1.369 . S
C843 C844 1.410 . S
C843 C851 1.503 . S
C844 C843 1.410 . S
C844 C845 1.392 . S
C844 C847 1.511 . S
C845 C841 1.376 . S
C845 C844 1.392 . S
C845 H857 0.929 . S
C846 C842 1.531 . S
C846 H858 0.960 . S
C846 H859 0.962 . S
C846 H860 0.960 . S
C847 C844 1.511 . S
C847 H861 0.961 . S
C847 H862 0.961 . S
C847 H863 0.961 . S
C848 C849 1.370 . S
C848 C850 1.363 . S
C848 H864 0.931 . S
C849 C848 1.370 . S
C849 C853 1.408 . S
C850 C848 1.363 . S
C850 C851 1.370 . S
C850 C854 1.524 . S
C851 C843 1.503 . S
C851 C850 1.370 . S
C851 C852 1.403 . S
C852 C851 1.403 . S
C852 C853 1.404 . S
C852 C855 1.539 . S
C853 C849 1.408 . S
C853 C852 1.404 . S
C853 H865 0.930 . S
C854 C850 1.524 . S
C854 H866 0.956 . S
C854 H867 0.961 . S
C854 H868 0.961 . S
C855 C852 1.539 . S
C855 H869 0.958 . S
C855 H870 0.961 . S
C855 H871 0.960 . S
H856 C840 0.931 . S
H857 C845 0.929 . S
H858 C846 0.960 . S
H859 C846 0.962 . S
H860 C846 0.960 . S
H861 C847 0.961 . S
H862 C847 0.961 . S
H863 C847 0.961 . S
H864 C848 0.931 . S
H865 C853 0.930 . S
H866 C854 0.956 . S
H867 C854 0.961 . S
H868 C854 0.961 . S
H869 C855 0.958 . S
H870 C855 0.961 . S
H871 C855 0.960 . S
C872 C873 1.391 . S
C872 C874 1.394 . S
C872 H888 0.931 . S
C873 C872 1.391 . S
C873 C877 1.376 . S
C874 C872 1.394 . S
C874 C875 1.369 . S
C874 C878 1.531 . S
C875 C874 1.369 . S
C875 C876 1.410 . S
C875 C883 1.503 . S
C876 C875 1.410 . S
C876 C877 1.392 . S
C876 C879 1.511 . S
C877 C873 1.376 . S
C877 C876 1.392 . S
C877 H889 0.929 . S
C878 C874 1.531 . S
C878 H890 0.960 . S
C878 H891 0.962 . S
C878 H892 0.960 . S
C879 C876 1.511 . S
C879 H893 0.961 . S
C879 H894 0.961 . S
C879 H895 0.961 . S
C880 C881 1.370 . S
C880 C882 1.363 . S
C880 H896 0.931 . S
C881 C880 1.370 . S
C881 C885 1.408 . S
C882 C880 1.363 . S
C882 C883 1.370 . S
C882 C886 1.524 . S
C883 C875 1.503 . S
C883 C882 1.370 . S
C883 C884 1.403 . S
C884 C883 1.403 . S
C884 C885 1.404 . S
C884 C887 1.539 . S
C885 C881 1.408 . S
C885 C884 1.404 . S
C885 H897 0.930 . S
C886 C882 1.524 . S
C886 H898 0.956 . S
C886 H899 0.961 . S
C886 H900 0.961 . S
C887 C884 1.539 . S
C887 H901 0.958 . S
C887 H902 0.961 . S
C887 H903 0.960 . S
H888 C872 0.931 . S
H889 C877 0.929 . S
H890 C878 0.960 . S
H891 C878 0.962 . S
H892 C878 0.960 . S
H893 C879 0.961 . S
H894 C879 0.961 . S
H895 C879 0.961 . S
H896 C880 0.931 . S
H897 C885 0.930 . S
H898 C886 0.956 . S
H899 C886 0.961 . S
H900 C886 0.961 . S
H901 C887 0.958 . S
H902 C887 0.961 . S
H903 C887 0.960 . S
C904 C905 1.391 . S
C904 C906 1.394 . S
C904 H920 0.931 . S
C905 C904 1.391 . S
C905 C909 1.376 . S
C906 C904 1.394 . S
C906 C907 1.369 . S
C906 C910 1.531 . S
C907 C906 1.369 . S
C907 C908 1.410 . S
C907 C915 1.503 . S
C908 C907 1.410 . S
C908 C909 1.392 . S
C908 C911 1.511 . S
C909 C905 1.376 . S
C909 C908 1.392 . S
C909 H921 0.929 . S
C910 C906 1.531 . S
C910 H922 0.960 . S
C910 H923 0.962 . S
C910 H924 0.960 . S
C911 C908 1.511 . S
C911 H925 0.961 . S
C911 H926 0.961 . S
C911 H927 0.961 . S
C912 C913 1.370 . S
C912 C914 1.363 . S
C912 H928 0.931 . S
C913 C912 1.370 . S
C913 C917 1.408 . S
C914 C912 1.363 . S
C914 C915 1.370 . S
C914 C918 1.524 . S
C915 C907 1.503 . S
C915 C914 1.370 . S
C915 C916 1.403 . S
C916 C915 1.403 . S
C916 C917 1.404 . S
C916 C919 1.539 . S
C917 C913 1.408 . S
C917 C916 1.404 . S
C917 H929 0.930 . S
C918 C914 1.524 . S
C918 H930 0.956 . S
C918 H931 0.961 . S
C918 H932 0.961 . S
C919 C916 1.539 . S
C919 H933 0.958 . S
C919 H934 0.961 . S
C919 H935 0.960 . S
H920 C904 0.931 . S
H921 C909 0.929 . S
H922 C910 0.960 . S
H923 C910 0.962 . S
H924 C910 0.960 . S
H925 C911 0.961 . S
H926 C911 0.961 . S
H927 C911 0.961 . S
H928 C912 0.931 . S
H929 C917 0.930 . S
H930 C918 0.956 . S
H931 C918 0.961 . S
H932 C918 0.961 . S
H933 C919 0.958 . S
H934 C919 0.961 . S
H935 C919 0.960 . S
C169 C8 1.874 . S
C177 C162 1.859 . S
C201 C92 1.847 . S
C209 C22 1.873 . S
C233 C36 1.864 . S
C241 C106 1.867 . S
C265 C120 1.849 . S
C273 C50 1.869 . S
C297 C134 1.875 . S
C305 C64 1.859 . S
C329 C148 1.878 . S
C337 C78 1.858 . S
C361 C49 0.949 . S
C369 C119 0.968 . S
C393 C63 0.977 . S
C401 C133 0.959 . S
C425 C77 0.984 . S
C433 C147 0.961 . S
C457 C161 0.947 . S
C465 C7 0.973 . S
C489 C21 0.957 . S
C497 C91 0.976 . S
C521 C35 0.982 . S
C529 C105 0.960 . S
C553 C121 1.778 . S
C561 C9 1.767 . S
C585 C135 1.766 . S
C593 C23 1.769 . S
C617 C37 1.757 . S
C625 C149 1.780 . S
C649 C51 1.760 . S
C657 C163 1.780 . S
C681 C65 1.753 . S
C689 C93 1.778 . S
C713 C107 1.754 . S
C721 C79 1.776 . S
C745 C6 1.693 . S
C753 C146 1.707 . S
C777 C160 1.682 . S
C785 C20 1.701 . S
C809 C34 1.698 . S
C817 C90 1.705 . S
C841 C48 1.730 . S
C849 C104 1.720 . S
C873 C62 1.701 . S
C881 C118 1.706 . S
C905 C76 1.715 . S
C913 C132 1.712 . S
