# Generated by pormake.
# Topology wmc, (6)-cn, num edge types: 1
# Building blocks:
#     Node 0, Type 0, BuildingBlock: VOLQOD_clean_sbu_1, # of connection points: 6
#     Node 1, Type 0, BuildingBlock: VOLQOD_clean_sbu_1, # of connection points: 6
#     Node 2, Type 0, BuildingBlock: VOLQOD_clean_sbu_1, # of connection points: 6
#     Node 3, Type 0, BuildingBlock: VOLQOD_clean_sbu_1, # of connection points: 6
#     Node 4, Type 0, BuildingBlock: VOLQOD_clean_sbu_1, # of connection points: 6
#     Node 5, Type 0, BuildingBlock: VOLQOD_clean_sbu_1, # of connection points: 6
#     Node 6, Type 0, BuildingBlock: VOLQOD_clean_sbu_1, # of connection points: 6
#     Node 7, Type 0, BuildingBlock: VOLQOD_clean_sbu_1, # of connection points: 6
#     Node 8, Type 0, BuildingBlock: VOLQOD_clean_sbu_1, # of connection points: 6
#     Node 9, Type 0, BuildingBlock: VOLQOD_clean_sbu_1, # of connection points: 6
#     Node 10, Type 0, BuildingBlock: VOLQOD_clean_sbu_1, # of connection points: 6
#     Node 11, Type 0, BuildingBlock: VOLQOD_clean_sbu_1, # of connection points: 6
#     Node 12, Type 0, BuildingBlock: VOLQOD_clean_sbu_1, # of connection points: 6
#     Node 13, Type 0, BuildingBlock: VOLQOD_clean_sbu_1, # of connection points: 6
#     Node 14, Type 0, BuildingBlock: VOLQOD_clean_sbu_1, # of connection points: 6
#     Node 15, Type 0, BuildingBlock: VOLQOD_clean_sbu_1, # of connection points: 6
#     Node 16, Type 0, BuildingBlock: VOLQOD_clean_sbu_1, # of connection points: 6
#     Node 17, Type 0, BuildingBlock: VOLQOD_clean_sbu_1, # of connection points: 6
#     Edge 18, Type (0, 0), BuildingBlock: XIVTED_clean_linker_0, # of connection points: 2
#     Edge 19, Type (0, 0), BuildingBlock: XIVTED_clean_linker_0, # of connection points: 2
#     Edge 20, Type (0, 0), BuildingBlock: XIVTED_clean_linker_0, # of connection points: 2
#     Edge 21, Type (0, 0), BuildingBlock: XIVTED_clean_linker_0, # of connection points: 2
#     Edge 22, Type (0, 0), BuildingBlock: XIVTED_clean_linker_0, # of connection points: 2
#     Edge 23, Type (0, 0), BuildingBlock: XIVTED_clean_linker_0, # of connection points: 2
#     Edge 24, Type (0, 0), BuildingBlock: XIVTED_clean_linker_0, # of connection points: 2
#     Edge 25, Type (0, 0), BuildingBlock: XIVTED_clean_linker_0, # of connection points: 2
#     Edge 26, Type (0, 0), BuildingBlock: XIVTED_clean_linker_0, # of connection points: 2
#     Edge 27, Type (0, 0), BuildingBlock: XIVTED_clean_linker_0, # of connection points: 2
#     Edge 28, Type (0, 0), BuildingBlock: XIVTED_clean_linker_0, # of connection points: 2
#     Edge 29, Type (0, 0), BuildingBlock: XIVTED_clean_linker_0, # of connection points: 2
#     Edge 30, Type (0, 0), BuildingBlock: XIVTED_clean_linker_0, # of connection points: 2
#     Edge 31, Type (0, 0), BuildingBlock: XIVTED_clean_linker_0, # of connection points: 2
#     Edge 32, Type (0, 0), BuildingBlock: XIVTED_clean_linker_0, # of connection points: 2
#     Edge 33, Type (0, 0), BuildingBlock: XIVTED_clean_linker_0, # of connection points: 2
#     Edge 34, Type (0, 0), BuildingBlock: XIVTED_clean_linker_0, # of connection points: 2
#     Edge 35, Type (0, 0), BuildingBlock: XIVTED_clean_linker_0, # of connection points: 2
#     Edge 36, Type (0, 0), BuildingBlock: XIVTED_clean_linker_0, # of connection points: 2
#     Edge 37, Type (0, 0), BuildingBlock: XIVTED_clean_linker_0, # of connection points: 2
#     Edge 38, Type (0, 0), BuildingBlock: XIVTED_clean_linker_0, # of connection points: 2
#     Edge 39, Type (0, 0), BuildingBlock: XIVTED_clean_linker_0, # of connection points: 2
#     Edge 40, Type (0, 0), BuildingBlock: XIVTED_clean_linker_0, # of connection points: 2
#     Edge 41, Type (0, 0), BuildingBlock: XIVTED_clean_linker_0, # of connection points: 2
#     Edge 42, Type (0, 0), BuildingBlock: XIVTED_clean_linker_0, # of connection points: 2
#     Edge 43, Type (0, 0), BuildingBlock: XIVTED_clean_linker_0, # of connection points: 2
#     Edge 44, Type (0, 0), BuildingBlock: XIVTED_clean_linker_0, # of connection points: 2
#     Edge 45, Type (0, 0), BuildingBlock: XIVTED_clean_linker_0, # of connection points: 2
#     Edge 46, Type (0, 0), BuildingBlock: XIVTED_clean_linker_0, # of connection points: 2
#     Edge 47, Type (0, 0), BuildingBlock: XIVTED_clean_linker_0, # of connection points: 2
#     Edge 48, Type (0, 0), BuildingBlock: XIVTED_clean_linker_0, # of connection points: 2
#     Edge 49, Type (0, 0), BuildingBlock: XIVTED_clean_linker_0, # of connection points: 2
#     Edge 50, Type (0, 0), BuildingBlock: XIVTED_clean_linker_0, # of connection points: 2
#     Edge 51, Type (0, 0), BuildingBlock: XIVTED_clean_linker_0, # of connection points: 2
#     Edge 52, Type (0, 0), BuildingBlock: XIVTED_clean_linker_0, # of connection points: 2
#     Edge 53, Type (0, 0), BuildingBlock: XIVTED_clean_linker_0, # of connection points: 2
#     Edge 54, Type (0, 0), BuildingBlock: XIVTED_clean_linker_0, # of connection points: 2
#     Edge 55, Type (0, 0), BuildingBlock: XIVTED_clean_linker_0, # of connection points: 2
#     Edge 56, Type (0, 0), BuildingBlock: XIVTED_clean_linker_0, # of connection points: 2
#     Edge 57, Type (0, 0), BuildingBlock: XIVTED_clean_linker_0, # of connection points: 2
#     Edge 58, Type (0, 0), BuildingBlock: XIVTED_clean_linker_0, # of connection points: 2
#     Edge 59, Type (0, 0), BuildingBlock: XIVTED_clean_linker_0, # of connection points: 2
#     Edge 60, Type (0, 0), BuildingBlock: XIVTED_clean_linker_0, # of connection points: 2
#     Edge 61, Type (0, 0), BuildingBlock: XIVTED_clean_linker_0, # of connection points: 2
#     Edge 62, Type (0, 0), BuildingBlock: XIVTED_clean_linker_0, # of connection points: 2
#     Edge 63, Type (0, 0), BuildingBlock: XIVTED_clean_linker_0, # of connection points: 2
#     Edge 64, Type (0, 0), BuildingBlock: XIVTED_clean_linker_0, # of connection points: 2
#     Edge 65, Type (0, 0), BuildingBlock: XIVTED_clean_linker_0, # of connection points: 2
#     Edge 66, Type (0, 0), BuildingBlock: XIVTED_clean_linker_0, # of connection points: 2
#     Edge 67, Type (0, 0), BuildingBlock: XIVTED_clean_linker_0, # of connection points: 2
#     Edge 68, Type (0, 0), BuildingBlock: XIVTED_clean_linker_0, # of connection points: 2
#     Edge 69, Type (0, 0), BuildingBlock: XIVTED_clean_linker_0, # of connection points: 2
#     Edge 70, Type (0, 0), BuildingBlock: XIVTED_clean_linker_0, # of connection points: 2
#     Edge 71, Type (0, 0), BuildingBlock: XIVTED_clean_linker_0, # of connection points: 2
# Relax obj value: 0.292
# Max RMSD: 0.168
# Mean RMSD: 0.168
data_MOF--net-wmc--node1-VOLQOD_clean_sbu_1--edge1-XIVTED_clean_linker_0
_symmetry_space_group_name_H-M    P1
_symmetry_Int_Tables_number       1
_symmetry_cell_setting            triclinic
loop_
_symmetry_equiv_pos_as_xyz
'x, y, z'
_cell_length_a     49.791915
_cell_length_b     49.797334
_cell_length_c     32.127835
_cell_angle_alpha  89.929862
_cell_angle_beta   90.034017
_cell_angle_gamma 119.92455
loop_
_atom_site_label
_atom_site_type_symbol
_atom_site_fract_x
_atom_site_fract_y
_atom_site_fract_z
_atom_type_partial_charge
O0 O 0.66554 0.17174 0.95552 0.0
Zn1 Zn 0.63733 0.12551 0.95306 0.0
O2 O 0.60279 0.11331 -0.01114 0.0
Zn3 Zn 0.56727 0.10645 0.95903 0.0
Zn4 Zn 0.61416 0.14609 0.02693 0.0
Zn5 Zn 0.5922 0.07502 0.01623 0.0
O6 O 0.5306 0.06791 -0.02064 0.0
O7 O 0.55329 0.03933 -0.01367 0.0
O8 O 0.62283 0.1103 0.89499 0.0
O9 O 0.57333 0.09799 0.9006 0.0
O10 O 0.55928 0.14234 0.96252 0.0
O11 O 0.59231 0.16916 0.01288 0.0
O12 O 0.59901 0.12874 0.08314 0.0
O13 O 0.66316 0.10933 0.97729 0.0
O14 O 0.5772 0.07783 0.07305 0.0
O15 O 0.63347 0.07466 0.02488 0.0
C16 C 0.67471 0.18733 -0.01082 0.0
C17 C 0.52894 0.04159 -0.01972 0.0
C18 C 0.57139 0.16548 -0.01295 0.0
C19 C 0.5958 0.09968 0.8796 0.0
C20 C 0.58253 0.10093 0.09576 0.0
C21 C 0.65984 0.09102 0.00705 0.0
O22 O 0.65943 0.17711 0.02294 0.0
O23 O 0.8408 0.49681 0.95514 0.0
Zn24 Zn 0.88677 0.51394 0.95125 0.0
O25 O 0.89903 0.49081 -0.01431 0.0
Zn26 Zn 0.90491 0.46217 0.95399 0.0
Zn27 Zn 0.86636 0.46923 0.02415 0.0
Zn28 Zn 0.93755 0.51777 0.01331 0.0
O29 O 0.94392 0.46368 0.97142 0.0
O30 O 0.97304 0.51438 -0.01679 0.0
O31 O 0.90017 0.51465 0.89224 0.0
O32 O 0.9116 0.47673 0.89547 0.0
O33 O 0.86904 0.41835 0.95813 0.0
O34 O 0.84293 0.42458 0.00946 0.0
O35 O 0.88378 0.47044 0.07992 0.0
O36 O 0.90419 0.55586 0.97578 0.0
O37 O 0.93468 0.49939 0.06992 0.0
O38 O 0.93894 0.55984 0.02263 0.0
C39 C 0.82524 0.48967 -0.01113 0.0
C40 C 0.97039 0.4879 0.9748 0.0
C41 C 0.84618 0.40738 -0.01683 0.0
C42 C 0.90966 0.49775 0.87539 0.0
C43 C 0.91155 0.48143 0.09247 0.0
C44 C 0.92295 0.57049 0.00522 0.0
O45 O 0.83541 0.48371 0.022 0.0
O46 O 0.51616 0.34578 0.95596 0.0
Zn47 Zn 0.49903 0.3747 0.95133 0.0
O48 O 0.52125 0.40944 -0.01298 0.0
Zn49 Zn 0.5507 0.44455 0.95734 0.0
Zn50 Zn 0.54165 0.39762 0.02647 0.0
Zn51 Zn 0.49372 0.42088 0.0131 0.0
O52 O 0.54886 0.48174 0.97528 0.0
O53 O 0.49773 0.45994 -0.0176 0.0
O54 O 0.50023 0.3887 0.89225 0.0
O55 O 0.53788 0.43794 0.89821 0.0
O56 O 0.5942 0.4521 0.96336 0.0
O57 O 0.58672 0.41872 0.0139 0.0
O58 O 0.53893 0.4132 0.08203 0.0
O59 O 0.4565 0.34968 0.97445 0.0
O60 O 0.5107 0.43584 0.07038 0.0
O61 O 0.45189 0.38006 0.0213 0.0
C62 C 0.52206 0.33666 -0.0099 0.0
C63 C 0.52448 0.48393 0.97597 0.0
C64 C 0.60454 0.43964 -0.01149 0.0
C65 C 0.51763 0.4155 0.87671 0.0
C66 C 0.52781 0.43006 0.09387 0.0
C67 C 0.44162 0.35352 0.00388 0.0
O68 O 0.52692 0.35218 0.02356 0.0
O69 O 0.84172 0.3482 0.45051 0.0
Zn70 Zn 0.88809 0.37653 0.44918 0.0
O71 O 0.89957 0.41161 0.48363 0.0
Zn72 Zn 0.90868 0.44754 0.45314 0.0
Zn73 Zn 0.86496 0.40123 0.51793 0.0
Zn74 Zn 0.9366 0.42184 0.51413 0.0
O75 O 0.94651 0.48387 0.47524 0.0
O76 O 0.97405 0.46054 0.48623 0.0
O77 O 0.90458 0.3906 0.39128 0.0
O78 O 0.91877 0.44069 0.39586 0.0
O79 O 0.87351 0.45661 0.4524 0.0
O80 O 0.8407 0.42021 0.49571 0.0
O81 O 0.88042 0.41937 0.57399 0.0
O82 O 0.90365 0.35082 0.47609 0.0
O83 O 0.9312 0.4369 0.56944 0.0
O84 O 0.9367 0.38069 0.52499 0.0
C85 C 0.82598 0.33943 0.48412 0.0
C86 C 0.97253 0.48513 0.47882 0.0
C87 C 0.84742 0.44249 0.47074 0.0
C88 C 0.91659 0.41772 0.37558 0.0
C89 C 0.9077 0.43407 0.58909 0.0
C90 C 0.92096 0.35424 0.50717 0.0
O91 O 0.83574 0.35556 0.51726 0.0
O92 O 0.66424 0.49485 0.44353 0.0
Zn93 Zn 0.63734 0.51422 0.44707 0.0
O94 O 0.60496 0.49149 0.48508 0.0
Zn95 Zn 0.56876 0.46188 0.45787 0.0
Zn96 Zn 0.6203 0.47251 0.52158 0.0
Zn97 Zn 0.59415 0.51838 0.51328 0.0
O98 O 0.53223 0.46279 0.48125 0.0
O99 O 0.55421 0.51404 0.48496 0.0
O100 O 0.61979 0.51556 0.39139 0.0
O101 O 0.57184 0.47566 0.39919 0.0
O102 O 0.56293 0.41892 0.46192 0.0
O103 O 0.59892 0.42733 0.50908 0.0
O104 O 0.60779 0.47545 0.57952 0.0
O105 O 0.66453 0.55547 0.47285 0.0
O106 O 0.58155 0.50052 0.57041 0.0
O107 O 0.63491 0.56021 0.5208 0.0
C108 C 0.6771 0.49074 0.47534 0.0
C109 C 0.53001 0.48715 0.48046 0.0
C110 C 0.57701 0.40914 0.48509 0.0
C111 C 0.59257 0.49764 0.37746 0.0
C112 C 0.58987 0.4849 0.59303 0.0
C113 C 0.66133 0.57011 0.50317 0.0
O114 O 0.66589 0.48831 0.51178 0.0
O115 O 0.51823 0.1719 0.45441 0.0
Zn116 Zn 0.50029 0.12567 0.4525 0.0
O117 O 0.52349 0.11387 0.48741 0.0
Zn118 Zn 0.55181 0.10724 0.45646 0.0
Zn119 Zn 0.54531 0.14688 0.52493 0.0
Zn120 Zn 0.49662 0.07568 0.51556 0.0
O121 O 0.55083 0.06908 0.47667 0.0
O122 O 0.49986 0.04003 0.48562 0.0
O123 O 0.49849 0.11007 0.39433 0.0
O124 O 0.53617 0.09831 0.39856 0.0
O125 O 0.59557 0.14337 0.45855 0.0
O126 O 0.5899 0.16989 0.50979 0.0
O127 O 0.544 0.13011 0.58118 0.0
O128 O 0.45893 0.10958 0.47852 0.0
O129 O 0.51525 0.07908 0.57205 0.0
O130 O 0.45487 0.07479 0.52537 0.0
C131 C 0.52545 0.18787 0.48779 0.0
C132 C 0.52648 0.0426 0.47855 0.0
C133 C 0.60681 0.16643 0.48322 0.0
C134 C 0.51486 0.09961 0.3783 0.0
C135 C 0.5331 0.10246 0.59425 0.0
C136 C 0.44451 0.0912 0.50844 0.0
O137 O 0.53104 0.17789 0.5214 0.0
O138 O 0.33488 0.50504 0.28601 0.0
Zn139 Zn 0.30623 0.45886 0.28429 0.0
O140 O 0.27152 0.44751 0.31955 0.0
Zn141 Zn 0.23648 0.4413 0.28908 0.0
Zn142 Zn 0.28341 0.48064 0.35712 0.0
Zn143 Zn 0.25999 0.40927 0.34775 0.0
O144 O 0.19924 0.40309 0.30896 0.0
O145 O 0.22105 0.37384 0.3176 0.0
O146 O 0.29196 0.44345 0.22608 0.0
O147 O 0.24285 0.43264 0.2309 0.0
O148 O 0.22917 0.47768 0.29203 0.0
O149 O 0.2623 0.50426 0.34239 0.0
O150 O 0.26807 0.46401 0.41349 0.0
O151 O 0.3314 0.44242 0.31017 0.0
O152 O 0.2449 0.41292 0.40428 0.0
O153 O 0.30074 0.4081 0.35746 0.0
C154 C 0.3441 0.52092 0.31942 0.0
C155 C 0.19709 0.37657 0.31052 0.0
C156 C 0.24159 0.5009 0.31641 0.0
C157 C 0.26513 0.43356 0.21031 0.0
C158 C 0.25092 0.43643 0.42654 0.0
C159 C 0.32744 0.4242 0.34034 0.0
O160 O 0.32878 0.51106 0.35321 0.0
O161 O 0.50923 0.83055 0.28699 0.0
Zn162 Zn 0.5554 0.84796 0.28432 0.0
O163 O 0.56718 0.82499 0.31967 0.0
Zn164 Zn 0.57324 0.79602 0.28948 0.0
Zn165 Zn 0.53449 0.80414 0.35799 0.0
Zn166 Zn 0.60569 0.85193 0.34689 0.0
O167 O 0.61158 0.79709 0.30927 0.0
O168 O 0.64085 0.84818 0.3165 0.0
O169 O 0.57049 0.8488 0.22604 0.0
O170 O 0.58161 0.8107 0.23107 0.0
O171 O 0.53687 0.75249 0.29319 0.0
O172 O 0.51068 0.7594 0.34382 0.0
O173 O 0.55182 0.80575 0.41403 0.0
O174 O 0.57203 0.8897 0.30944 0.0
O175 O 0.60277 0.8338 0.40357 0.0
O176 O 0.60689 0.89381 0.35617 0.0
C177 C 0.49387 0.82449 0.32084 0.0
C178 C 0.63812 0.82143 0.31012 0.0
C179 C 0.51383 0.7419 0.31791 0.0
C180 C 0.58045 0.8319 0.21031 0.0
C181 C 0.5796 0.81642 0.42643 0.0
C182 C 0.59055 0.90421 0.33917 0.0
O183 O 0.50415 0.81932 0.3545 0.0
O184 O 0.18546 0.68116 0.2881 0.0
Zn185 Zn 0.1674 0.7094 0.28559 0.0
O186 O 0.19018 0.74429 0.32071 0.0
Zn187 Zn 0.21849 0.77945 0.29002 0.0
Zn188 Zn 0.212 0.73321 0.35869 0.0
Zn189 Zn 0.16287 0.75525 0.34843 0.0
O190 O 0.21693 0.8164 0.30983 0.0
O191 O 0.16588 0.79412 0.31853 0.0
O192 O 0.16607 0.72335 0.22721 0.0
O193 O 0.20334 0.77283 0.23188 0.0
O194 O 0.26237 0.7874 0.29285 0.0
O195 O 0.25671 0.75502 0.34395 0.0
O196 O 0.21032 0.74867 0.4149 0.0
O197 O 0.12573 0.6839 0.31088 0.0
O198 O 0.18116 0.77049 0.40494 0.0
O199 O 0.12133 0.71421 0.35801 0.0
C200 C 0.19247 0.67236 0.32167 0.0
C201 C 0.19242 0.81829 0.31169 0.0
C202 C 0.27366 0.77559 0.31759 0.0
C203 C 0.18237 0.75024 0.21135 0.0
C204 C 0.19908 0.76524 0.42753 0.0
C205 C 0.11112 0.68762 0.34077 0.0
O206 O 0.19795 0.68795 0.3552 0.0
O207 O 0.50838 0.68239 0.78755 0.0
Zn208 Zn 0.55463 0.7101 0.78468 0.0
O209 O 0.56731 0.74516 0.81964 0.0
Zn210 Zn 0.57401 0.78024 0.78877 0.0
Zn211 Zn 0.53478 0.73438 0.85798 0.0
Zn212 Zn 0.60569 0.7558 0.84691 0.0
O213 O 0.61291 0.81705 0.80777 0.0
O214 O 0.64138 0.79436 0.81639 0.0
O215 O 0.56959 0.72365 0.72621 0.0
O216 O 0.58182 0.77318 0.73048 0.0
O217 O 0.5383 0.78859 0.79222 0.0
O218 O 0.51201 0.75643 0.84367 0.0
O219 O 0.55235 0.74979 0.91392 0.0
O220 O 0.57044 0.68427 0.80989 0.0
O221 O 0.60322 0.77124 0.90368 0.0
O222 O 0.60595 0.7145 0.85619 0.0
C223 C 0.49284 0.67372 0.8213 0.0
C224 C 0.63918 0.81863 0.80928 0.0
C225 C 0.51547 0.77697 0.81733 0.0
C226 C 0.58002 0.75044 0.71007 0.0
C227 C 0.58019 0.76615 0.92643 0.0
C228 C 0.58905 0.68786 0.83934 0.0
O229 O 0.50332 0.68922 0.85481 0.0
O230 O 0.33378 0.83083 0.78733 0.0
Zn231 Zn 0.30506 0.84836 0.78507 0.0
O232 O 0.26993 0.82504 0.81983 0.0
Zn233 Zn 0.23493 0.79693 0.78859 0.0
Zn234 Zn 0.28115 0.80293 0.85711 0.0
Zn235 Zn 0.25876 0.85185 0.84862 0.0
O236 O 0.1978 0.79856 0.80767 0.0
O237 O 0.22003 0.84934 0.81898 0.0
O238 O 0.29155 0.84997 0.72662 0.0
O239 O 0.24217 0.81233 0.73052 0.0
O240 O 0.22677 0.75294 0.79124 0.0
O241 O 0.25963 0.75842 0.84155 0.0
O242 O 0.26547 0.80369 0.9134 0.0
O243 O 0.33014 0.88989 0.81083 0.0
O244 O 0.24339 0.83274 0.9049 0.0
O245 O 0.29974 0.89339 0.85872 0.0
C246 C 0.34249 0.82365 0.82083 0.0
C247 C 0.19594 0.82304 0.81085 0.0
C248 C 0.23882 0.74157 0.81543 0.0
C249 C 0.26486 0.83352 0.71032 0.0
C250 C 0.24876 0.81456 0.92675 0.0
C251 C 0.32631 0.90404 0.84121 0.0
O252 O 0.32651 0.81747 0.85411 0.0
O253 O 0.18305 0.50566 0.78628 0.0
Zn254 Zn 0.16633 0.45953 0.78405 0.0
O255 O 0.18955 0.44837 0.81994 0.0
Zn256 Zn 0.21868 0.4422 0.79025 0.0
Zn257 Zn 0.21033 0.48155 0.85754 0.0
Zn258 Zn 0.16302 0.41013 0.8481 0.0
O259 O 0.21799 0.40425 0.81097 0.0
O260 O 0.16695 0.37481 0.81842 0.0
O261 O 0.16607 0.44441 0.72592 0.0
O262 O 0.20407 0.43322 0.73188 0.0
O263 O 0.26204 0.47886 0.79334 0.0
O264 O 0.25495 0.50581 0.84266 0.0
O265 O 0.20945 0.46499 0.9139 0.0
O266 O 0.1243 0.44228 0.80868 0.0
O267 O 0.18156 0.41391 0.90477 0.0
O268 O 0.12095 0.40864 0.85698 0.0
C269 C 0.18898 0.52118 0.81995 0.0
C270 C 0.19375 0.37765 0.8121 0.0
C271 C 0.2725 0.50239 0.81711 0.0
C272 C 0.18301 0.43431 0.71072 0.0
C273 C 0.19906 0.43742 0.927 0.0
C274 C 0.11004 0.42418 0.83893 0.0
O275 O 0.19442 0.51125 0.85373 0.0
O276 O 1.00039 0.84156 0.61453 0.0
Zn277 Zn 0.97215 0.79521 0.6127 0.0
O278 O 0.93676 0.78348 0.64667 0.0
Zn279 Zn 0.90108 0.77415 0.61554 0.0
Zn280 Zn 0.94649 0.81795 0.68086 0.0
Zn281 Zn 0.92645 0.7465 0.67736 0.0
O282 O 0.86475 0.73639 0.63771 0.0
O283 O 0.88814 0.70897 0.64905 0.0
O284 O 0.95873 0.77896 0.55457 0.0
O285 O 0.90842 0.76394 0.55859 0.0
O286 O 0.8919 0.8092 0.61384 0.0
O287 O 0.92767 0.84208 0.65772 0.0
O288 O 0.92778 0.80236 0.73671 0.0
O289 O 0.9977 0.77963 0.63993 0.0
O290 O 0.9109 0.7517 0.73245 0.0
O291 O 0.96762 0.74662 0.6888 0.0
C292 C 1.0087 0.85714 0.64827 0.0
C293 C 0.86354 0.7104 0.64129 0.0
C294 C 0.90573 0.8353 0.63213 0.0
C295 C 0.93168 0.76654 0.53861 0.0
C296 C 0.91327 0.77508 0.7519 0.0
C297 C 0.99414 0.76236 0.67113 0.0
O298 O 0.99213 0.84727 0.68105 0.0
O299 O 0.17673 0.16412 0.62055 0.0
Zn300 Zn 0.22302 0.18216 0.61887 0.0
O301 O 0.2348 0.15914 0.65419 0.0
Zn302 Zn 0.24172 0.13084 0.62364 0.0
Zn303 Zn 0.20167 0.13728 0.69168 0.0
Zn304 Zn 0.27296 0.18609 0.68236 0.0
O305 O 0.27974 0.13179 0.64437 0.0
O306 O 0.30875 0.18277 0.6529 0.0
O307 O 0.2387 0.18368 0.56072 0.0
O308 O 0.25088 0.14633 0.56568 0.0
O309 O 0.20565 0.0871 0.62566 0.0
O310 O 0.17898 0.09263 0.67685 0.0
O311 O 0.2183 0.13891 0.74816 0.0
O312 O 0.23907 0.22363 0.6446 0.0
O313 O 0.26936 0.16769 0.73909 0.0
O314 O 0.2739 0.2279 0.69151 0.0
C315 C 0.16045 0.15661 0.6537 0.0
C316 C 0.30622 0.15613 0.64622 0.0
C317 C 0.18257 0.07578 0.65033 0.0
C318 C 0.24941 0.1674 0.54506 0.0
C319 C 0.24594 0.14993 0.76134 0.0
C320 C 0.25749 0.23818 0.67442 0.0
O321 O 0.17028 0.15106 0.68748 0.0
O322 O 0.8515 0.01697 0.60744 0.0
Zn323 Zn 0.83298 0.04462 0.61177 0.0
O324 O 0.85634 0.07678 0.64987 0.0
Zn325 Zn 0.88613 0.11305 0.62274 0.0
Zn326 Zn 0.87519 0.06077 0.68547 0.0
Zn327 Zn 0.83 0.08769 0.67935 0.0
O328 O 0.88537 0.14971 0.64612 0.0
O329 O 0.83418 0.1278 0.65182 0.0
O330 O 0.83178 0.06258 0.55637 0.0
O331 O 0.8723 0.11017 0.5641 0.0
O332 O 0.92907 0.11857 0.6265 0.0
O333 O 0.92022 0.0815 0.6721 0.0
O334 O 0.8732 0.07316 0.74374 0.0
O335 O 0.79164 0.01776 0.63771 0.0
O336 O 0.8487 0.10006 0.73608 0.0
O337 O 0.7881 0.047 0.68734 0.0
C338 C 0.8554 1.0038 0.63906 0.0
C339 C 0.861 0.15196 0.64662 0.0
C340 C 0.93859 0.10377 0.64869 0.0
C341 C 0.85006 0.08973 0.54246 0.0
C342 C 0.86436 0.09137 0.75797 0.0
C343 C 0.77756 0.02081 0.66885 0.0
O344 O 0.8584 0.01509 0.67552 0.0
O345 O 0.17752 0.01497 0.12012 0.0
Zn346 Zn 0.22368 0.04364 0.11894 0.0
O347 O 0.23469 0.07782 0.15493 0.0
Zn348 Zn 0.24125 0.1133 0.12531 0.0
Zn349 Zn 0.2014 0.06558 0.19238 0.0
Zn350 Zn 0.27278 0.08902 0.18308 0.0
O351 O 0.2793 0.15017 0.14624 0.0
O352 O 0.30831 0.12797 0.15306 0.0
O353 O 0.23951 0.05873 0.06117 0.0
O354 O 0.25038 0.10779 0.06697 0.0
O355 O 0.20491 0.1206 0.12842 0.0
O356 O 0.1779 0.08695 0.17812 0.0
O357 O 0.21788 0.08036 0.24902 0.0
O358 O 0.24007 0.01817 0.14398 0.0
O359 O 0.269 0.10386 0.23963 0.0
O360 O 0.2737 0.04813 0.19234 0.0
C361 C 0.16135 1.00537 0.15329 0.0
C362 C 0.30575 0.15213 0.14687 0.0
C363 C 0.18152 0.10797 0.15252 0.0
C364 C 0.24956 0.08574 0.04594 0.0
C365 C 0.24546 0.0976 0.26203 0.0
C366 C 0.25794 0.02173 0.17441 0.0
O367 O 0.17093 0.02026 0.18741 0.0
O368 O 1.00178 0.16421 0.1212 0.0
Zn369 Zn 0.9735 0.18207 0.11648 0.0
O370 O 0.93849 0.16019 0.15197 0.0
Zn371 Zn 0.9033 0.13126 0.12191 0.0
Zn372 Zn 0.9495 0.13907 0.19139 0.0
Zn373 Zn 0.92766 0.18819 0.17814 0.0
O374 O 0.8664 0.13365 0.13973 0.0
O375 O 0.88875 0.18477 0.14783 0.0
O376 O 0.95991 0.18135 0.0573 0.0
O377 O 0.91033 0.14444 0.06294 0.0
O378 O 0.89491 0.08742 0.12754 0.0
O379 O 0.92751 0.09401 0.17873 0.0
O380 O 0.93413 0.14209 0.24695 0.0
O381 O 0.999 0.22447 0.13976 0.0
O382 O 0.9126 0.17137 0.23545 0.0
O383 O 0.96881 0.22978 0.18622 0.0
C384 C 0.01041 0.15766 0.15526 0.0
C385 C 0.86458 0.15821 0.14117 0.0
C386 C 0.90669 0.07657 0.153 0.0
C387 C 0.93306 0.16448 0.04163 0.0
C388 C 0.91782 0.15381 0.25887 0.0
C389 C 0.99535 0.23964 0.16894 0.0
O390 O 0.99472 0.15273 0.18859 0.0
O391 O 0.85005 0.84063 0.11863 0.0
Zn392 Zn 0.83331 0.79469 0.1151 0.0
O393 O 0.8569 0.78287 0.14934 0.0
Zn394 Zn 0.88585 0.77754 0.11755 0.0
Zn395 Zn 0.87787 0.81561 0.18782 0.0
Zn396 Zn 0.83046 0.74437 0.17726 0.0
O397 O 0.88459 0.73851 0.13448 0.0
O398 O 0.83405 0.70901 0.14731 0.0
O399 O 0.83259 0.78128 0.05606 0.0
O400 O 0.87146 0.77119 0.05892 0.0
O401 O 0.92952 0.81367 0.12232 0.0
O402 O 0.92246 0.83956 0.17319 0.0
O403 O 0.87709 0.79848 0.2437 0.0
O404 O 0.79158 0.77718 0.14052 0.0
O405 O 0.84926 0.74753 0.23358 0.0
O406 O 0.78841 0.74273 0.18734 0.0
C407 C 0.85671 0.85606 0.15241 0.0
C408 C 0.86058 0.71194 0.1385 0.0
C409 C 0.94004 0.83655 0.14727 0.0
C410 C 0.85006 0.77256 0.03899 0.0
C411 C 0.86682 0.77078 0.25616 0.0
C412 C 0.77746 0.75862 0.1704 0.0
O413 O 0.86264 0.84595 0.18562 0.0
H414 H 0.53667 0.17453 0.92775 0.0
H415 H 0.53738 0.31237 0.05608 0.0
H416 H 0.58191 0.20848 0.04636 0.0
H417 H 0.51341 0.29688 0.92562 0.0
H418 H 0.54594 0.2684 0.05571 0.0
H419 H 0.52085 0.21405 0.92889 0.0
C420 C 0.54316 0.19017 0.95402 0.0
C421 C 0.56083 0.18838 -0.01316 0.0
C422 C 0.53872 0.27454 0.02715 0.0
C423 C 0.54267 0.23313 -0.0115 0.0
C424 C 0.53374 0.29964 0.02735 0.0
C425 C 0.52499 0.30857 -0.00931 0.0
C426 C 0.5349 0.25813 -0.00992 0.0
C427 C 0.52041 0.29096 0.95451 0.0
C428 C 0.53419 0.21268 0.95461 0.0
C429 C 0.56859 0.20916 0.02015 0.0
N430 N 0.52558 0.26661 0.95504 0.0
N431 N 0.55945 0.23061 0.0201 0.0
H432 H 0.6996 0.22731 0.05442 0.0
H433 H 0.83619 0.36361 0.92346 0.0
H434 H 0.7136 0.21814 0.92365 0.0
H435 H 0.80377 0.3751 0.04319 0.0
H436 H 0.79643 0.30843 0.92502 0.0
H437 H 0.74351 0.27971 0.05307 0.0
C438 C 0.71198 0.23624 0.0254 0.0
C439 C 0.70265 0.21838 -0.01103 0.0
C440 C 0.79819 0.32315 0.95088 0.0
C441 C 0.75307 0.27861 -0.01278 0.0
C442 C 0.82084 0.35454 0.95005 0.0
C443 C 0.82313 0.374 -0.01691 0.0
C444 C 0.77812 0.31129 -0.0148 0.0
C445 C 0.80271 0.36109 0.01681 0.0
C446 C 0.73706 0.26625 0.02464 0.0
C447 C 0.71984 0.2312 0.95239 0.0
N448 N 0.78114 0.33061 0.01696 0.0
N449 N 0.7442 0.26068 0.95237 0.0
H450 H 0.63559 0.42718 0.04812 0.0
H451 H 0.79562 0.50151 0.92537 0.0
H452 H 0.64938 0.47506 0.93101 0.0
H453 H 0.78395 0.47055 0.05318 0.0
H454 H 0.74248 0.4922 0.92571 0.0
H455 H 0.69013 0.44257 0.04916 0.0
C456 C 0.65011 0.44096 0.02254 0.0
C457 C 0.63786 0.4497 -0.01073 0.0
C458 C 0.75171 0.48771 0.95371 0.0
C459 C 0.70059 0.46747 -0.00968 0.0
C460 C 0.782 0.49296 0.95356 0.0
C461 C 0.79417 0.48653 -0.0108 0.0
C462 C 0.73351 0.47576 -0.01036 0.0
C463 C 0.77554 0.47566 0.02489 0.0
C464 C 0.68135 0.44988 0.02327 0.0
C465 C 0.6579 0.4678 0.95722 0.0
N466 N 0.7461 0.47041 0.02407 0.0
N467 N 0.68834 0.47593 0.95838 0.0
H468 H 0.68729 0.46027 0.41276 0.0
H469 H 0.85654 0.50103 0.47612 0.0
H470 H 0.72818 0.51227 0.52501 0.0
H471 H 0.78657 0.40632 0.45204 0.0
H472 H 0.81616 0.51591 0.47358 0.0
H473 H 0.73098 0.45066 0.40636 0.0
C474 C 0.70571 0.47002 0.43565 0.0
C475 C 0.70423 0.48688 0.46961 0.0
C476 C 0.80993 0.49201 0.46829 0.0
C477 C 0.7541 0.47673 0.46181 0.0
C478 C 0.83279 0.48359 0.46947 0.0
C479 C 0.82459 0.45248 0.4643 0.0
C480 C 0.77911 0.46926 0.46056 0.0
C481 C 0.79359 0.43053 0.45625 0.0
C482 C 0.73042 0.46447 0.43201 0.0
C483 C 0.7285 0.49892 0.49862 0.0
N484 N 0.77187 0.43937 0.45436 0.0
N485 N 0.75267 0.49375 0.49396 0.0
H486 H 0.51378 0.21725 0.42364 0.0
H487 H 0.59303 0.37903 0.54183 0.0
H488 H 0.54593 0.23002 0.55091 0.0
H489 H 0.53937 0.36367 0.42966 0.0
H490 H 0.57782 0.32455 0.54291 0.0
H491 H 0.5241 0.2708 0.42289 0.0
C492 C 0.52281 0.2312 0.45146 0.0
C493 C 0.52924 0.21921 0.4873 0.0
C494 C 0.56922 0.33299 0.5181 0.0
C495 C 0.5412 0.28026 0.48647 0.0
C496 C 0.57805 0.36419 0.51731 0.0
C497 C 0.56753 0.37596 0.48549 0.0
C498 C 0.54994 0.31329 0.48664 0.0
C499 C 0.54798 0.35551 0.45477 0.0
C500 C 0.52863 0.26169 0.451 0.0
C501 C 0.54076 0.23826 0.5225 0.0
N502 N 0.53992 0.32509 0.45594 0.0
N503 N 0.54658 0.26787 0.52106 0.0
H504 H 0.64986 0.17634 0.42236 0.0
H505 H 0.78706 0.31416 0.5503 0.0
H506 H 0.63976 0.20895 0.54266 0.0
H507 H 0.79492 0.29993 0.41924 0.0
H508 H 0.73503 0.2697 0.55017 0.0
H509 H 0.70501 0.21631 0.42261 0.0
C510 C 0.65923 0.19177 0.4488 0.0
C511 C 0.64017 0.18949 0.48238 0.0
C512 C 0.74811 0.27621 0.5214 0.0
C513 C 0.70283 0.23472 0.483 0.0
C514 C 0.77791 0.30162 0.52145 0.0
C515 C 0.79528 0.31105 0.48459 0.0
C516 C 0.73543 0.25999 0.48425 0.0
C517 C 0.78222 0.2936 0.4483 0.0
C518 C 0.6906 0.21453 0.44888 0.0
C519 C 0.65345 0.21001 0.51588 0.0
N520 N 0.75291 0.26894 0.44895 0.0
N521 N 0.68389 0.23169 0.51531 0.0
H522 H 0.20925 0.64854 0.3866 0.0
H523 H 0.20658 0.51005 0.25756 0.0
H524 H 0.18331 0.63267 0.25678 0.0
H525 H 0.25352 0.54471 0.37502 0.0
H526 H 0.19122 0.54993 0.25893 0.0
H527 H 0.21815 0.60483 0.38536 0.0
C528 C 0.20528 0.63579 0.35781 0.0
C529 C 0.19583 0.64453 0.32161 0.0
C530 C 0.20486 0.54865 0.28432 0.0
C531 C 0.20613 0.59434 0.31999 0.0
C532 C 0.21357 0.52594 0.2836 0.0
C533 C 0.23152 0.52419 0.31608 0.0
C534 C 0.21388 0.56934 0.31799 0.0
C535 C 0.23993 0.54531 0.34909 0.0
C536 C 0.21046 0.61084 0.35712 0.0
C537 C 0.19084 0.62689 0.28534 0.0
N538 N 0.23101 0.56691 0.34918 0.0
N539 N 0.1962 0.60265 0.28537 0.0
H540 H 0.47047 0.71042 0.37724 0.0
H541 H 0.38341 0.55099 0.25393 0.0
H542 H 0.50408 0.69755 0.25926 0.0
H543 H 0.36816 0.5619 0.38368 0.0
H544 H 0.42695 0.60434 0.2533 0.0
H545 H 0.43154 0.65594 0.37787 0.0
C546 C 0.46965 0.69612 0.35134 0.0
C547 C 0.4905 0.70862 0.318 0.0
C548 C 0.41416 0.59486 0.28191 0.0
C549 C 0.44574 0.64587 0.31863 0.0
C550 C 0.38931 0.56447 0.28231 0.0
C551 C 0.37191 0.55204 0.31882 0.0
C552 C 0.42138 0.61286 0.31816 0.0
C553 C 0.3807 0.5705 0.35472 0.0
C554 C 0.44746 0.66489 0.35186 0.0
C555 C 0.48843 0.68882 0.28554 0.0
N556 N 0.40463 0.6 0.35335 0.0
N557 N 0.46622 0.65834 0.2865 0.0
H558 H 0.45479 0.81097 0.38688 0.0
H559 H 0.31684 0.80913 0.25711 0.0
H560 H 0.46245 0.83187 0.25538 0.0
H561 H 0.30667 0.7663 0.37746 0.0
H562 H 0.37217 0.82496 0.25798 0.0
H563 H 0.40241 0.80267 0.38618 0.0
C564 C 0.44554 0.81397 0.35783 0.0
C565 C 0.46295 0.82177 0.32101 0.0
C566 C 0.3577 0.81215 0.28413 0.0
C567 C 0.40273 0.81214 0.32002 0.0
C568 C 0.32623 0.80318 0.2837 0.0
C569 C 0.3071 0.78618 0.31711 0.0
C570 C 0.36998 0.80436 0.31844 0.0
C571 C 0.32042 0.77909 0.3508 0.0
C572 C 0.41554 0.80914 0.35745 0.0
C573 C 0.44974 0.82561 0.28442 0.0
N574 N 0.35097 0.78822 0.35058 0.0
N575 N 0.42026 0.82057 0.28477 0.0
H576 H 0.50519 0.81023 0.75691 0.0
H577 H 0.36756 0.80912 0.88655 0.0
H578 H 0.47365 0.76787 0.8777 0.0
H579 H 0.38202 0.83244 0.7558 0.0
H580 H 0.41207 0.80151 0.88596 0.0
H581 H 0.46522 0.82548 0.75792 0.0
C582 C 0.49001 0.80428 0.78364 0.0
C583 C 0.49256 0.78754 0.8171 0.0
C584 C 0.4056 0.80836 0.85736 0.0
C585 C 0.44729 0.80501 0.81857 0.0
C586 C 0.38016 0.81277 0.85768 0.0
C587 C 0.37079 0.82109 0.82104 0.0
C588 C 0.42191 0.81226 0.82016 0.0
C589 C 0.38829 0.82577 0.7847 0.0
C590 C 0.46724 0.81292 0.78415 0.0
C591 C 0.47236 0.78045 0.85099 0.0
N592 N 0.41298 0.82111 0.78509 0.0
N593 N 0.45063 0.78921 0.85081 0.0
H594 H 0.20118 0.56001 0.88587 0.0
H595 H 0.20515 0.69851 0.75489 0.0
H596 H 0.18233 0.5526 0.75381 0.0
H597 H 0.2478 0.70836 0.87525 0.0
H598 H 0.18885 0.64303 0.75591 0.0
H599 H 0.20958 0.61239 0.88467 0.0
C600 C 0.19864 0.56932 0.85658 0.0
C601 C 0.19144 0.55198 0.81976 0.0
C602 C 0.20173 0.65747 0.78201 0.0
C603 C 0.20119 0.61224 0.8182 0.0
C604 C 0.21098 0.68902 0.78149 0.0
C605 C 0.22807 0.70809 0.81487 0.0
C606 C 0.2093 0.64508 0.81641 0.0
C607 C 0.23497 0.69466 0.8486 0.0
C608 C 0.20352 0.59932 0.85592 0.0
C609 C 0.18813 0.56526 0.78286 0.0
N610 N 0.22555 0.66405 0.84849 0.0
N611 N 0.19324 0.59477 0.78294 0.0
H612 H 0.31688 0.51069 0.75929 0.0
H613 H 0.45194 0.65126 0.88595 0.0
H614 H 0.3038 0.54773 0.87416 0.0
H615 H 0.46236 0.63331 0.75713 0.0
H616 H 0.39924 0.60784 0.88494 0.0
H617 H 0.37193 0.55075 0.76043 0.0
C618 C 0.32556 0.52715 0.7847 0.0
C619 C 0.3057 0.52598 0.81655 0.0
C620 C 0.41304 0.61334 0.85687 0.0
C621 C 0.36829 0.57135 0.8182 0.0
C622 C 0.44322 0.63811 0.85745 0.0
C623 C 0.46154 0.64615 0.82144 0.0
C624 C 0.40099 0.59632 0.82009 0.0
C625 C 0.44895 0.62806 0.78551 0.0
C626 C 0.35688 0.54997 0.78529 0.0
C627 C 0.31813 0.54784 0.84875 0.0
N628 N 0.41933 0.60398 0.78568 0.0
N629 N 0.34857 0.56953 0.84875 0.0
H630 H 0.83372 0.95304 0.68931 0.0
H631 H 0.94184 0.89554 0.61044 0.0
H632 H 0.88448 0.99243 0.57569 0.0
H633 H 0.84752 0.82676 0.63913 0.0
H634 H 0.92599 0.93496 0.60606 0.0
H635 H 0.84252 0.90892 0.68099 0.0
C636 C 0.84654 0.95224 0.66256 0.0
C637 C 0.85848 0.97623 0.63314 0.0
C638 C 0.90876 0.91113 0.61272 0.0
C639 C 0.86906 0.92671 0.62409 0.0
C640 C 0.91774 0.8888 0.61531 0.0
C641 C 0.89581 0.85809 0.6249 0.0
C642 C 0.87797 0.90275 0.62136 0.0
C643 C 0.86492 0.85027 0.63128 0.0
C644 C 0.85134 0.92711 0.65773 0.0
C645 C 0.87484 0.97422 0.5989 0.0
N646 N 0.85693 0.87269 0.63025 0.0
N647 N 0.88023 0.95013 0.5957 0.0
H648 H 0.1729 0.033 0.5893 0.0
H649 H 0.03322 0.89569 0.7149 0.0
H650 H 0.13983 0.04261 0.70953 0.0
H651 H 0.04914 0.88836 0.58427 0.0
H652 H 0.07796 0.94754 0.71569 0.0
H653 H 0.13273 0.97795 0.58897 0.0
C654 C 0.15733 0.02353 0.61562 0.0
C655 C 0.15952 0.04244 0.64932 0.0
C656 C 0.07176 0.93461 0.68682 0.0
C657 C 0.11403 0.97989 0.64928 0.0
C658 C 0.04619 0.90492 0.68634 0.0
C659 C 0.03716 0.88776 0.64932 0.0
C660 C 0.08854 0.94739 0.65003 0.0
C661 C 0.05514 0.9009 0.61342 0.0
C662 C 0.13445 0.99222 0.61537 0.0
C663 C 0.13883 0.02904 0.68266 0.0
N664 N 0.07995 0.9301 0.61459 0.0
N665 N 0.11701 0.99866 0.68175 0.0
H666 H 0.96797 0.08534 0.70331 0.0
H667 H 0.13163 0.16908 0.58958 0.0
H668 H 0.98473 0.14308 0.59496 0.0
H669 H 0.11723 0.13414 0.71557 0.0
H670 H 0.07781 0.15802 0.5879 0.0
H671 H 0.02241 0.10047 0.70466 0.0
C672 C 0.9831 0.10118 0.67966 0.0
C673 C 0.97172 0.11293 0.64889 0.0
C674 C 0.08662 0.15304 0.61593 0.0
C675 C 0.03441 0.13044 0.6504 0.0
C676 C 0.11726 0.15928 0.61693 0.0
C677 C 0.1289 0.15233 0.65269 0.0
C678 C 0.06754 0.13949 0.65076 0.0
C679 C 0.10931 0.13978 0.68726 0.0
C680 C 0.01429 0.10996 0.68062 0.0
C681 C 0.99257 0.13352 0.61925 0.0
N682 N 0.07957 0.13356 0.68528 0.0
N683 N 0.02299 0.14155 0.62059 0.0
H684 H 0.1732 0.14381 0.09421 0.0
H685 H 0.03299 0.13985 0.22062 0.0
H686 H 0.13699 0.09537 0.21045 0.0
H687 H 0.05109 0.16745 0.09148 0.0
H688 H 0.07662 0.13072 0.22026 0.0
H689 H 0.13342 0.15925 0.09525 0.0
C690 C 0.15699 0.13651 0.11992 0.0
C691 C 0.15827 0.11811 0.15213 0.0
C692 C 0.07111 0.13885 0.19199 0.0
C693 C 0.1132 0.13584 0.15368 0.0
C694 C 0.04623 0.14416 0.19219 0.0
C695 C 0.03815 0.15415 0.1559 0.0
C696 C 0.0882 0.14361 0.15528 0.0
C697 C 0.05634 0.15951 0.12008 0.0
C698 C 0.13433 0.14528 0.12046 0.0
C699 C 0.13675 0.10932 0.18473 0.0
N700 N 0.08051 0.15404 0.12061 0.0
N701 N 0.11518 0.11829 0.18465 0.0
H702 H 0.84634 0.88624 0.08814 0.0
H703 H 0.91624 0.04448 0.2141 0.0
H704 H 0.87319 0.89632 0.2176 0.0
H705 H 0.87277 0.0325 0.09392 0.0
H706 H 0.90035 0.98983 0.2149 0.0
H707 H 0.85509 0.93918 0.08874 0.0
C708 C 0.85385 0.89946 0.11674 0.0
C709 C 0.85935 0.88693 0.15277 0.0
C710 C 0.8941 0.99901 0.18839 0.0
C711 C 0.86948 0.94735 0.15353 0.0
C712 C 0.90331 0.03032 0.18779 0.0
C713 C 0.89602 0.04312 0.15371 0.0
C714 C 0.8777 0.98026 0.15446 0.0
C715 C 0.87892 0.02353 0.12076 0.0
C716 C 0.85879 0.92963 0.11704 0.0
C717 C 0.86888 0.90504 0.18898 0.0
N718 N 0.87052 0.99302 0.12177 0.0
N719 N 0.87386 0.93438 0.18831 0.0
H720 H 0.13184 0.96693 0.08689 0.0
H721 H 0.97112 0.87936 0.20724 0.0
H722 H 0.11973 0.98059 0.21682 0.0
H723 H 0.98488 0.84659 0.08913 0.0
H724 H 0.02564 0.91801 0.2089 0.0
H725 H 0.0784 0.9236 0.08505 0.0
C726 C 0.11808 0.96072 0.11506 0.0
C727 C 0.13019 0.97762 0.15198 0.0
C728 C 0.01689 0.90234 0.18263 0.0
C729 C 0.06927 0.9284 0.14993 0.0
C730 C 0.98563 0.88031 0.18151 0.0
C731 C 0.97336 0.85977 0.14785 0.0
C732 C 0.0362 0.90421 0.14968 0.0
C733 C 0.99343 0.86201 0.11565 0.0
C734 C 0.08764 0.93599 0.11396 0.0
C735 C 0.11138 0.96845 0.18757 0.0
N736 N 0.02396 0.88406 0.1172 0.0
N737 N 0.08184 0.94465 0.18553 0.0
H738 H 0.49886 0.12468 0.31402 0.0
H739 H 0.55763 0.04876 0.1445 0.0
H740 H 0.52326 0.05491 0.34319 0.0
H741 H 0.56894 0.14044 0.13619 0.0
H742 H 0.52934 0.04074 0.21013 0.0
H743 H 0.50674 0.11879 0.24003 0.0
C744 C 0.50496 0.10749 0.30468 0.0
C745 C 0.51124 0.0908 0.33439 0.0
C746 C 0.53786 0.06245 0.19356 0.0
C747 C 0.52039 0.08416 0.25081 0.0
C748 C 0.55414 0.06712 0.15647 0.0
C749 C 0.56621 0.09554 0.13557 0.0
C750 C 0.53328 0.08619 0.20913 0.0
C751 C 0.56068 0.11845 0.1519 0.0
C752 C 0.50964 0.1043 0.26267 0.0
C753 C 0.51897 0.06872 0.32098 0.0
N754 N 0.54467 0.11329 0.18782 0.0
N755 N 0.52382 0.06634 0.28003 0.0
H756 H 0.96228 0.47026 0.34035 0.0
H757 H 0.87159 0.42821 0.13226 0.0
H758 H 0.8908 0.37702 0.31129 0.0
H759 H 0.9637 0.50759 0.14132 0.0
H760 H 0.88022 0.40822 0.19681 0.0
H761 H 0.96716 0.48318 0.26645 0.0
C762 C 0.94816 0.45232 0.31816 0.0
C763 C 0.92557 0.42277 0.33167 0.0
C764 C 0.8987 0.42985 0.18454 0.0
C765 C 0.93056 0.4375 0.24772 0.0
C766 C 0.89362 0.44155 0.14802 0.0
C767 C 0.91677 0.46994 0.13199 0.0
C768 C 0.9269 0.44695 0.20567 0.0
C769 C 0.94513 0.48581 0.15307 0.0
C770 C 0.95099 0.45968 0.27606 0.0
C771 C 0.90822 0.40016 0.30197 0.0
N772 N 0.94926 0.47431 0.18935 0.0
N773 N 0.9105 0.40824 0.26125 0.0
H774 H 0.53613 0.48228 0.3457 0.0
H775 H 0.58203 0.44632 0.13258 0.0
H776 H 0.63178 0.51826 0.31095 0.0
H777 H 0.49855 0.45186 0.14447 0.0
H778 H 0.60059 0.47391 0.19804 0.0
H779 H 0.52166 0.47417 0.27222 0.0
C780 C 0.55414 0.48909 0.32243 0.0
C781 C 0.58506 0.5002 0.33411 0.0
C782 C 0.57836 0.46943 0.18618 0.0
C783 C 0.56868 0.49058 0.25069 0.0
C784 C 0.56752 0.45323 0.14918 0.0
C785 C 0.53843 0.44629 0.13371 0.0
C786 C 0.5597 0.47814 0.20836 0.0
C787 C 0.52094 0.45648 0.15581 0.0
C788 C 0.5459 0.48459 0.28061 0.0
C789 C 0.60764 0.50925 0.30306 0.0
N790 N 0.53163 0.4715 0.19263 0.0
N791 N 0.59888 0.50348 0.2626 0.0
H792 H 0.88201 0.51231 0.81283 0.0
H793 H 0.95898 0.458 0.63899 0.0
H794 H 0.95349 0.48946 0.83753 0.0
H795 H 0.86769 0.44758 0.62924 0.0
H796 H 0.96607 0.48454 0.70551 0.0
H797 H 0.88669 0.50497 0.73823 0.0
C798 C 0.89924 0.50659 0.80237 0.0
C799 C 0.91694 0.50077 0.83098 0.0
C800 C 0.94463 0.47662 0.68852 0.0
C801 C 0.92229 0.49234 0.74675 0.0
C802 C 0.94048 0.46136 0.65079 0.0
C803 C 0.91245 0.45003 0.6291 0.0
C804 C 0.92069 0.48077 0.70431 0.0
C805 C 0.8894 0.45535 0.64545 0.0
C806 C 0.90176 0.50222 0.76003 0.0
C807 C 0.93899 0.49347 0.81621 0.0
N808 N 0.89398 0.47024 0.68227 0.0
N809 N 0.94081 0.48907 0.77499 0.0
H810 H 0.56181 0.50904 0.64131 0.0
H811 H 0.50897 0.37602 0.81279 0.0
H812 H 0.58353 0.43524 0.63665 0.0
H813 H 0.52487 0.46764 0.84014 0.0
H814 H 0.52078 0.39092 0.73937 0.0
H815 H 0.5347 0.48805 0.70736 0.0
C816 C 0.56096 0.48853 0.65425 0.0
C817 C 0.57534 0.47413 0.63397 0.0
C818 C 0.52102 0.40747 0.76142 0.0
C819 C 0.54376 0.44967 0.70822 0.0
C820 C 0.51402 0.39891 0.80303 0.0
C821 C 0.51653 0.42089 0.8322 0.0
C822 C 0.53014 0.43797 0.74937 0.0
C823 C 0.52325 0.45029 0.81837 0.0
C824 C 0.54536 0.4765 0.69163 0.0
C825 C 0.57328 0.44741 0.65172 0.0
N826 N 0.53019 0.45816 0.77784 0.0
N827 N 0.55772 0.43599 0.68788 0.0
H828 H 0.54228 0.05548 0.84478 0.0
H829 H 0.58633 0.14263 0.63372 0.0
H830 H 0.63636 0.12459 0.8149 0.0
H831 H 0.50627 0.0511 0.64451 0.0
H832 H 0.60564 0.13484 0.69943 0.0
H833 H 0.5294 0.0501 0.77086 0.0
C834 C 0.56036 0.06904 0.82243 0.0
C835 C 0.59021 0.09104 0.83565 0.0
C836 C 0.58402 0.1163 0.68727 0.0
C837 C 0.57558 0.08541 0.75167 0.0
C838 C 0.57272 0.1209 0.65009 0.0
C839 C 0.54433 0.09768 0.63422 0.0
C840 C 0.56652 0.08852 0.70917 0.0
C841 C 0.52807 0.0697 0.6561 0.0
C842 C 0.55304 0.06588 0.78034 0.0
C843 C 0.61299 0.10764 0.80577 0.0
N844 N 0.53918 0.06605 0.69299 0.0
N845 N 0.605 0.10505 0.76501 0.0
H846 H 0.23905 0.47749 0.466 0.0
H847 H 0.19223 0.3898 0.67668 0.0
H848 H 0.22527 0.38498 0.47674 0.0
H849 H 0.16851 0.4597 0.64532 0.0
H850 H 0.20076 0.38458 0.60306 0.0
H851 H 0.21165 0.47014 0.53133 0.0
C852 C 0.23038 0.45564 0.48229 0.0
C853 C 0.23494 0.43199 0.46647 0.0
C854 C 0.19294 0.40049 0.61212 0.0
C855 C 0.20325 0.42334 0.541 0.0
C856 C 0.18816 0.40354 0.65404 0.0
C857 C 0.18032 0.42568 0.66679 0.0
C858 C 0.19058 0.42029 0.58318 0.0
C859 C 0.17484 0.44259 0.63655 0.0
C860 C 0.21431 0.4513 0.51924 0.0
C861 C 0.22254 0.4039 0.48827 0.0
N862 N 0.18085 0.44011 0.596 0.0
N863 N 0.20761 0.40049 0.52494 0.0
H864 H 0.63177 0.84299 0.4751 0.0
H865 H 0.5542 0.70938 0.64607 0.0
H866 H 0.53953 0.76368 0.46708 0.0
H867 H 0.6247 0.80322 0.67437 0.0
H868 H 0.5601 0.72287 0.57194 0.0
H869 H 0.63921 0.82269 0.54115 0.0
C870 C 0.61317 0.82135 0.48721 0.0
C871 C 0.58476 0.80532 0.46629 0.0
C872 C 0.57472 0.74025 0.59443 0.0
C873 C 0.59344 0.78172 0.54036 0.0
C874 C 0.57151 0.73253 0.63652 0.0
C875 C 0.58846 0.7555 0.66601 0.0
C876 C 0.59516 0.77097 0.58227 0.0
C877 C 0.6107 0.78513 0.65233 0.0
C878 C 0.61751 0.80973 0.52455 0.0
C879 C 0.56153 0.77716 0.48281 0.0
N880 N 0.61313 0.7922 0.61131 0.0
N881 N 0.56636 0.76628 0.51898 0.0
H882 H 0.30603 0.84844 0.6465 0.0
H883 H 0.17223 0.79079 0.47575 0.0
H884 H 0.21221 0.82563 0.67435 0.0
H885 H 0.25188 0.77819 0.46845 0.0
H886 H 0.19251 0.81906 0.5413 0.0
H887 H 0.29255 0.84021 0.57242 0.0
C888 C 0.2829 0.84262 0.63683 0.0
C889 C 0.25993 0.83692 0.66622 0.0
C890 C 0.20555 0.81026 0.52499 0.0
C891 C 0.24445 0.82738 0.58254 0.0
C892 C 0.19393 0.794 0.48792 0.0
C893 C 0.21008 0.78158 0.46731 0.0
C894 C 0.23365 0.81446 0.54086 0.0
C895 C 0.23832 0.78673 0.48392 0.0
C896 C 0.27517 0.83773 0.59477 0.0
C897 C 0.23031 0.82951 0.6524 0.0
N898 N 0.24918 0.80274 0.51984 0.0
N899 N 0.22323 0.82448 0.61142 0.0
H900 H 0.63184 0.78956 0.97606 0.0
H901 H 0.55649 0.84896 0.14574 0.0
H902 H 0.54134 0.78093 0.96617 0.0
H903 H 0.62402 0.82161 0.17538 0.0
H904 H 0.56281 0.84156 0.07173 0.0
H905 H 0.63958 0.81697 0.0424 0.0
C906 C 0.61371 0.7935 -0.0122 0.0
C907 C 0.58564 0.78237 0.9663 0.0
C908 C 0.5767 0.83785 0.0945 0.0
C909 C 0.59469 0.81428 0.04068 0.0
C910 C 0.57324 0.84224 0.13653 0.0
C911 C 0.58919 0.83508 0.16636 0.0
C912 C 0.59638 0.82653 0.0827 0.0
C913 C 0.61075 0.82659 0.15308 0.0
C914 C 0.61821 0.80925 0.02532 0.0
C915 C 0.56302 0.78844 -0.01764 0.0
N916 N 0.61343 0.82209 0.1121 0.0
N917 N 0.56801 0.80392 0.01869 0.0
H918 H 0.23643 0.76135 0.96601 0.0
H919 H 0.18983 0.80305 0.17636 0.0
H920 H 0.2232 0.84043 0.97692 0.0
H921 H 0.16816 0.70987 0.14675 0.0
H922 H 0.1976 0.81614 0.10251 0.0
H923 H 0.20903 0.74135 0.03134 0.0
C924 C 0.22786 0.77461 -0.01768 0.0
C925 C 0.23262 0.80293 0.96657 0.0
C926 C 0.19039 0.79263 0.11199 0.0
C927 C 0.20092 0.77993 0.04112 0.0
C928 C 0.18603 0.78518 0.15405 0.0
C929 C 0.17904 0.75557 0.16736 0.0
C930 C 0.18847 0.77047 0.08345 0.0
C931 C 0.17386 0.73305 0.13754 0.0
C932 C 0.2118 0.76291 0.01929 0.0
C933 C 0.22034 0.81871 -0.01161 0.0
N934 N 0.17947 0.7412 0.09683 0.0
N935 N 0.20541 0.8072 0.02506 0.0
H936 H 0.25145 0.47882 0.96722 0.0
H937 H 0.21221 0.38838 0.17569 0.0
H938 H 0.17404 0.38551 0.9763 0.0
H939 H 0.30508 0.46013 0.1454 0.0
H940 H 0.19853 0.38379 0.10206 0.0
H941 H 0.27187 0.47114 0.03209 0.0
C942 C 0.23863 0.45673 -0.01695 0.0
C943 C 0.21069 0.43292 0.96687 0.0
C944 C 0.22212 0.39997 0.11133 0.0
C945 C 0.23419 0.42391 0.04084 0.0
C946 C 0.2299 0.40262 0.15325 0.0
C947 C 0.2596 0.42509 0.16632 0.0
C948 C 0.24401 0.4205 0.08275 0.0
C949 C 0.28187 0.44273 0.13635 0.0
C950 C 0.25058 0.45222 0.01973 0.0
C951 C 0.19547 0.40456 -0.0119 0.0
N952 N 0.27338 0.44062 0.09583 0.0
N953 N 0.20721 0.40096 0.02448 0.0
H954 H 0.88986 0.72391 0.80201 0.0
H955 H 0.83497 0.79991 0.97656 0.0
H956 H 0.89916 0.81471 0.79199 0.0
H957 H 0.85925 0.72942 0.00089 0.0
H958 H 0.84229 0.79543 0.90187 0.0
H959 H 0.86367 0.71676 0.86884 0.0
C960 C 0.88631 0.74228 0.81379 0.0
C961 C 0.89724 0.7702 0.79193 0.0
C962 C 0.84537 0.78054 0.92361 0.0
C963 C 0.86691 0.76191 0.86757 0.0
C964 C 0.84101 0.78293 0.966 0.0
C965 C 0.84718 0.76544 -0.00547 0.0
C966 C 0.85558 0.7603 0.91019 0.0
C967 C 0.85492 0.74374 -0.02036 0.0
C968 C 0.87125 0.73811 0.85173 0.0
C969 C 0.89168 0.79309 0.80831 0.0
N970 N 0.85926 0.742 0.93837 0.0
N971 N 0.87701 0.78849 0.84534 0.0
H972 H 0.2056 0.09694 0.8013 0.0
H973 H 0.29346 0.1397 0.01165 0.0
H974 H 0.29738 0.1767 0.81141 0.0
H975 H 0.22504 0.04562 -0.01917 0.0
H976 H 0.29848 0.15322 0.93793 0.0
H977 H 0.2136 0.07747 0.86677 0.0
C978 C 0.22742 0.11046 0.81748 0.0
C979 C 0.25068 0.13878 0.80143 0.0
C980 C 0.28295 0.12945 0.94714 0.0
C981 C 0.26007 0.1164 0.8761 0.0
C982 C 0.28002 0.12175 -0.01088 0.0
C983 C 0.25831 0.0917 0.00204 0.0
C984 C 0.26346 0.10707 0.91832 0.0
C985 C 0.24179 0.06912 0.97193 0.0
C986 C 0.23214 0.09907 0.85451 0.0
C987 C 0.27876 0.15495 0.82311 0.0
N988 N 0.24413 0.07747 0.93132 0.0
N989 N 0.28253 0.14373 0.85985 0.0
H990 H 0.91271 0.09448 0.80158 0.0
H991 H 0.88242 0.16067 0.00497 0.0
H992 H 0.84313 0.12208 0.80632 0.0
H993 H 0.97139 0.16971 0.97788 0.0
H994 H 0.86793 0.14862 0.93192 0.0
H995 H 0.9341 0.12159 0.86688 0.0
C996 C 0.90176 0.10602 0.81655 0.0
C997 C 0.87585 0.10571 0.79885 0.0
C998 C 0.8909 0.15397 0.94168 0.0
C999 C 0.90052 0.13712 0.87312 0.0
C1000 C 0.89916 0.16088 -0.01677 0.0
C1001 C 0.92794 0.16577 -0.00289 0.0
C1002 C 0.9113 0.15118 0.91437 0.0
C1003 C 0.94897 0.16598 0.96811 0.0
C1004 C 0.91429 0.1219 0.85346 0.0
C1005 C 0.86298 0.12156 0.81916 0.0
N1006 N 0.93993 0.15797 0.92803 0.0
N1007 N 0.87529 0.13642 0.85557 0.0
H1008 H 0.20383 0.1081 0.30266 0.0
H1009 H 0.29501 0.16028 0.51028 0.0
H1010 H 0.29751 0.12473 0.31096 0.0
H1011 H 0.22254 0.1806 0.48027 0.0
H1012 H 0.29953 0.15119 0.43665 0.0
H1013 H 0.21153 0.13624 0.36737 0.0
C1014 C 0.226 0.11752 0.31829 0.0
C1015 C 0.24992 0.1136 0.30193 0.0
C1016 C 0.28321 0.15843 0.44598 0.0
C1017 C 0.25896 0.14619 0.37571 0.0
C1018 C 0.2806 0.16357 0.4879 0.0
C1019 C 0.25793 0.17054 0.50106 0.0
C1020 C 0.26245 0.15953 0.41751 0.0
C1021 C 0.24009 0.17498 0.47116 0.0
C1022 C 0.23053 0.13403 0.35487 0.0
C1023 C 0.27839 0.12695 0.32291 0.0
N1024 N 0.24217 0.16859 0.43065 0.0
N1025 N 0.282 0.14233 0.35921 0.0
H1026 H 0.90005 0.09915 0.29726 0.0
H1027 H 0.86662 0.14653 0.51083 0.0
H1028 H 0.89727 0.18406 0.30971 0.0
H1029 H 0.8283 0.0506 0.47597 0.0
H1030 H 0.87468 0.16101 0.43735 0.0
H1031 H 0.87233 0.08099 0.36273 0.0
C1032 C 0.89372 0.11405 0.314 0.0
C1033 C 0.90149 0.14342 0.29869 0.0
C1034 C 0.86376 0.13673 0.44572 0.0
C1035 C 0.86949 0.12262 0.37335 0.0
C1036 C 0.85928 0.12847 0.48755 0.0
C1037 C 0.84754 0.09744 0.49919 0.0
C1038 C 0.85708 0.11383 0.41575 0.0
C1039 C 0.83782 0.07483 0.46812 0.0
C1040 C 0.87744 0.10345 0.351 0.0
C1041 C 0.89201 0.16144 0.32094 0.0
N1042 N 0.84357 0.08357 0.42764 0.0
N1043 N 0.87691 0.15095 0.35776 0.0
H1044 H 0.91946 0.81179 0.2962 0.0
H1045 H 0.88006 0.71982 0.50315 0.0
H1046 H 0.84218 0.71836 0.30448 0.0
H1047 H 0.97232 0.79366 0.4745 0.0
H1048 H 0.86716 0.71499 0.42927 0.0
H1049 H 0.94015 0.80365 0.36044 0.0
C1050 C 0.90673 0.78957 0.31172 0.0
C1051 C 0.8787 0.76589 0.29556 0.0
C1052 C 0.89048 0.73168 0.43895 0.0
C1053 C 0.90253 0.75633 0.36885 0.0
C1054 C 0.89783 0.73446 0.48104 0.0
C1055 C 0.92703 0.75766 0.49468 0.0
C1056 C 0.9123 0.75278 0.41076 0.0
C1057 C 0.94943 0.77573 0.46508 0.0
C1058 C 0.91884 0.78478 0.34805 0.0
C1059 C 0.86363 0.73733 0.31633 0.0
N1060 N 0.94133 0.77348 0.42438 0.0
N1061 N 0.87552 0.73347 0.35242 0.0
H1062 H 0.38447 0.9353 0.8078 0.0
H1063 H 0.47264 0.02379 0.01424 0.0
H1064 H 0.33469 0.92792 0.92111 0.0
H1065 H 0.51652 1.00203 0.91479 0.0
H1066 H 0.42213 0.9914 -0.01897 0.0
H1067 H 0.4332 0.96501 0.84504 0.0
C1068 C 0.38368 0.94043 0.84038 0.0
C1069 C 0.35513 0.92885 0.86123 0.0
C1070 C 0.44267 0.99312 0.9669 0.0
C1071 C 0.41149 0.96278 0.90448 0.0
C1072 C 0.47146 0.01127 -0.01389 0.0
C1073 C 0.49873 0.015 0.96773 0.0
C1074 C 0.44118 0.97929 0.92829 0.0
C1075 C 0.49602 0.9991 0.93058 0.0
C1076 C 0.41166 0.95712 0.86177 0.0
C1077 C 0.35596 0.93646 0.90355 0.0
N1078 N 0.46785 0.98232 0.91179 0.0
N1079 N 0.38365 0.95282 0.92381 0.0
H1080 H 0.987 0.44846 0.00884 0.0
H1081 H 0.07861 0.45075 0.8048 0.0
H1082 H 0.01141 0.5159 0.91104 0.0
H1083 H 0.08526 0.40797 0.91833 0.0
H1084 H 0.04826 0.46931 0.84151 0.0
H1085 H 0.01986 0.43052 0.9764 0.0
C1086 C 1.0002 0.46021 -0.01872 0.0
C1087 C 0.99709 0.48421 0.96312 0.0
C1088 C 0.05613 0.45567 0.85839 0.0
C1089 C 0.0333 0.46261 0.92451 0.0
C1090 C 0.07317 0.44463 0.83731 0.0
C1091 C 0.08477 0.42774 0.8584 0.0
C1092 C 0.05011 0.44962 0.90102 0.0
C1093 C 0.07674 0.42068 0.90059 0.0
C1094 C 0.01861 0.44969 0.96251 0.0
C1095 C 0.01383 0.49794 0.92666 0.0
N1096 N 0.06004 0.43177 0.92055 0.0
N1097 N 0.03084 0.48665 0.90823 0.0
H1098 H 0.61005 0.68027 0.91606 0.0
H1099 H 0.49261 0.49655 0.91664 0.0
H1100 H 0.55647 0.62872 0.80933 0.0
H1101 H 0.56794 0.54053 0.00406 0.0
H1102 H 0.51022 0.54716 0.8834 0.0
H1103 H 0.59183 0.63102 0.95343 0.0
C1104 C 0.59509 0.65872 0.9001 0.0
C1105 C 0.58489 0.6589 0.85933 0.0
C1106 C 0.52258 0.54581 0.91033 0.0
C1107 C 0.5629 0.60251 0.9026 0.0
C1108 C 0.51215 0.51701 0.92974 0.0
C1109 C 0.52861 0.51442 0.96343 0.0
C1110 C 0.54951 0.5722 0.92493 0.0
C1111 C 0.55443 0.54162 0.97834 0.0
C1112 C 0.58434 0.63061 0.92167 0.0
C1113 C 0.565 0.63001 0.84069 0.0
N1114 N 0.56414 0.5693 0.95899 0.0
N1115 N 0.55443 0.60321 0.86253 0.0
H1116 H 0.99116 0.54125 0.51382 0.0
H1117 H 0.0804 0.62942 0.30754 0.0
H1118 H 0.01262 0.4973 0.41419 0.0
H1119 H 0.08676 0.67918 0.42041 0.0
H1120 H 0.05074 0.5807 0.34488 0.0
H1121 H 0.02399 0.5918 0.48085 0.0
C1122 C 1.00379 0.54243 0.48578 0.0
C1123 C 0.99981 0.51512 0.46725 0.0
C1124 C 0.05839 0.60222 0.36149 0.0
C1125 C 0.03594 0.57272 0.42801 0.0
C1126 C 0.07505 0.6302 0.34004 0.0
C1127 C 0.08631 0.65874 0.36073 0.0
C1128 C 0.05248 0.6024 0.40413 0.0
C1129 C 0.07845 0.65791 0.40296 0.0
C1130 C 0.02214 0.57123 0.46667 0.0
C1131 C 0.01576 0.51782 0.43013 0.0
N1132 N 0.06216 0.63023 0.42329 0.0
N1133 N 0.03273 0.54601 0.41143 0.0
H1134 H 0.51795 0.51923 0.42083 0.0
H1135 H 0.33413 0.40278 0.41726 0.0
H1136 H 0.47298 0.44314 0.50705 0.0
H1137 H 0.38691 0.45644 0.31118 0.0
H1138 H 0.383 0.42034 0.45529 0.0
H1139 H 0.46774 0.50194 0.38669 0.0
C1140 C 0.49735 0.49956 0.43347 0.0
C1141 C 0.49957 0.48283 0.46711 0.0
C1142 C 0.38376 0.42798 0.42353 0.0
C1143 C 0.4422 0.46232 0.42759 0.0
C1144 C 0.35586 0.41763 0.40159 0.0
C1145 C 0.35614 0.42803 0.36079 0.0
C1146 C 0.4121 0.44926 0.40482 0.0
C1147 C 0.38525 0.44775 0.34252 0.0
C1148 C 0.46878 0.48932 0.41354 0.0
C1149 C 0.4722 0.45685 0.48139 0.0
N1150 N 0.41184 0.45795 0.36474 0.0
N1151 N 0.44472 0.44735 0.46157 0.0
H1152 H 0.61147 0.93176 0.41631 0.0
H1153 H 0.49446 0.99868 0.41904 0.0
H1154 H 0.55862 0.93174 0.30969 0.0
H1155 H 0.56955 0.02878 0.50664 0.0
H1156 H 0.51204 0.96593 0.38506 0.0
H1157 H 0.59327 0.96243 0.45452 0.0
C1158 C 0.59669 0.93873 0.40055 0.0
C1159 C 0.58666 0.929 0.35957 0.0
C1160 C 0.52434 0.97929 0.41221 0.0
C1161 C 0.56468 0.96297 0.40379 0.0
C1162 C 0.5139 0.99748 0.43206 0.0
C1163 C 0.53032 0.0161 0.46601 0.0
C1164 C 0.55123 0.97959 0.42664 0.0
C1165 C 0.55607 0.01447 0.48077 0.0
C1166 C 0.58595 0.95589 0.4226 0.0
C1167 C 0.56701 0.93848 0.34119 0.0
N1168 N 0.5658 0.99668 0.46099 0.0
N1169 N 0.55642 0.95448 0.3635 0.0
H1170 H 0.14054 0.36013 0.34246 0.0
H1171 H 0.0539 0.26895 0.13643 0.0
H1172 H 0.18492 0.33623 0.24603 0.0
H1173 H 1.00346 0.26578 0.2473 0.0
H1174 H 0.10239 0.29869 0.17425 0.0
H1175 H 0.0904 0.32814 0.30823 0.0
C1176 C 0.13952 0.34723 0.31479 0.0
C1177 C 0.16683 0.35024 0.29757 0.0
C1178 C 0.08076 0.29173 0.19029 0.0
C1179 C 0.10972 0.31495 0.25691 0.0
C1180 C 0.05293 0.27504 0.16854 0.0
C1181 C 0.02425 0.26461 0.18858 0.0
C1182 C 0.08029 0.29852 0.23254 0.0
C1183 C 0.02484 0.2734 0.23033 0.0
C1184 C 0.11095 0.32932 0.29498 0.0
C1185 C 0.16435 0.33386 0.26095 0.0
N1186 N 0.05237 0.28969 0.25095 0.0
N1187 N 0.13639 0.31729 0.24154 0.0
H1188 H 0.68203 0.85343 0.25048 0.0
H1189 H 0.75066 0.73799 0.24808 0.0
H1190 H 0.65168 0.77802 0.33773 0.0
H1191 H 0.74854 0.7891 0.14065 0.0
H1192 H 0.71952 0.75567 0.28629 0.0
H1193 H 0.7149 0.83598 0.21651 0.0
C1194 C 0.68317 0.83392 0.26339 0.0
C1195 C 0.66444 0.81738 0.29724 0.0
C1196 C 0.7257 0.7627 0.2542 0.0
C1197 C 0.70115 0.79668 0.25794 0.0
C1198 C 0.74312 0.75226 0.23216 0.0
C1199 C 0.7524 0.76199 0.19094 0.0
C1200 C 0.71794 0.78341 0.23514 0.0
C1201 C 0.74219 0.78099 0.17235 0.0
C1202 C 0.70144 0.82357 0.24356 0.0
C1203 C 0.66604 0.79158 0.3119 0.0
N1204 N 0.72598 0.79134 0.19465 0.0
N1205 N 0.68394 0.78196 0.29217 0.0
H1206 H 0.23078 0.87431 0.34626 0.0
H1207 H 0.23103 0.96376 0.14045 0.0
H1208 H 0.16543 0.83116 0.24637 0.0
H1209 H 0.27339 0.01283 0.25414 0.0
H1210 H 0.21189 0.91481 0.17729 0.0
H1211 H 0.24906 0.92502 0.31342 0.0
C1212 C 0.21953 0.8757 0.31812 0.0
C1213 C 0.19602 0.84858 0.29951 0.0
C1214 C 0.22556 0.93624 0.19419 0.0
C1215 C 0.21805 0.90635 0.26049 0.0
C1216 C 0.23693 0.96435 0.17303 0.0
C1217 C 0.25391 0.99276 0.1941 0.0
C1218 C 0.23133 0.93616 0.2369 0.0
C1219 C 0.26065 0.99167 0.2364 0.0
C1220 C 0.23026 0.90459 0.29912 0.0
C1221 C 0.18296 0.85154 0.26234 0.0
N1222 N 0.24923 0.96386 0.25644 0.0
N1223 N 0.19445 0.87982 0.24375 0.0
H1224 H 0.74926 0.96217 0.63654 0.0
H1225 H 0.65653 0.8752 0.84172 0.0
H1226 H 0.75142 0.01217 0.74734 0.0
H1227 H 0.67962 0.83045 0.74491 0.0
H1228 H 0.68933 0.92537 0.80797 0.0
H1229 H 0.71946 0.91357 0.67411 0.0
C1230 C 0.74299 0.96303 0.66859 0.0
C1231 C 0.75308 0.99163 0.68865 0.0
C1232 C 0.68781 0.90472 0.79452 0.0
C1233 C 0.71904 0.93542 0.73233 0.0
C1234 C 0.66942 0.87613 0.81406 0.0
C1235 C 0.66592 0.84871 0.79658 0.0
C1236 C 0.70219 0.9059 0.75648 0.0
C1237 C 0.68233 0.85108 0.76001 0.0
C1238 C 0.72624 0.93512 0.6902 0.0
C1239 C 0.74408 0.99087 0.73035 0.0
N1240 N 0.69939 0.8791 0.74086 0.0
N1241 N 0.7277 0.96327 0.7508 0.0
H1242 H 0.05294 0.79203 0.63947 0.0
H1243 H 0.1394 0.78266 0.84254 0.0
H1244 H 1.00206 0.74462 0.75006 0.0
H1245 H 0.18383 0.8533 0.7489 0.0
H1246 H 0.08912 0.76615 0.80944 0.0
H1247 H 0.10126 0.80998 0.67731 0.0
C1248 C 0.05181 0.78484 0.67156 0.0
C1249 C 0.02305 0.7667 0.69147 0.0
C1250 C 0.10973 0.78569 0.79661 0.0
C1251 C 0.079 0.78784 0.73543 0.0
C1252 C 0.13838 0.79538 0.81577 0.0
C1253 C 0.16574 0.81984 0.79895 0.0
C1254 C 0.10847 0.79995 0.75955 0.0
C1255 C 0.16325 0.83489 0.7635 0.0
C1256 C 0.07958 0.79551 0.69332 0.0
C1257 C 0.0235 0.75832 0.73321 0.0
N1258 N 0.13521 0.82442 0.74463 0.0
N1259 N 0.051 0.76902 0.75381 0.0
H1260 H 0.27882 0.26646 0.75112 0.0
H1261 H 0.16143 0.3329 0.75357 0.0
H1262 H 0.22511 0.2652 0.64479 0.0
H1263 H 0.23781 0.36493 0.83941 0.0
H1264 H 0.1789 0.29989 0.72008 0.0
H1265 H 0.26092 0.29759 0.78885 0.0
C1266 C 0.26389 0.27323 0.73533 0.0
C1267 C 0.25355 0.26303 0.69457 0.0
C1268 C 0.19153 0.31376 0.74673 0.0
C1269 C 0.23194 0.29755 0.73825 0.0
C1270 C 0.18118 0.33212 0.76629 0.0
C1271 C 0.19797 0.35136 0.79959 0.0
C1272 C 0.21869 0.31446 0.76081 0.0
C1273 C 0.22406 0.35019 0.81401 0.0
C1274 C 0.25334 0.29066 0.7571 0.0
C1275 C 0.23374 0.27228 0.67613 0.0
N1276 N 0.23367 0.33219 0.79453 0.0
N1277 N 0.22334 0.28856 0.69818 0.0
H1278 H 0.66862 0.59954 0.5789 0.0
H1279 H 0.85262 0.6662 0.58263 0.0
H1280 H 0.72086 0.59469 0.47482 0.0
H1281 H 0.80653 0.69506 0.67016 0.0
H1282 H 0.80246 0.63245 0.54894 0.0
H1283 H 0.71743 0.63014 0.61703 0.0
C1284 C 0.69026 0.60539 0.56366 0.0
C1285 C 0.69037 0.59443 0.52339 0.0
C1286 C 0.80323 0.64572 0.57605 0.0
C1287 C 0.74631 0.62847 0.56759 0.0
C1288 C 0.83177 0.66447 0.59576 0.0
C1289 C 0.83363 0.68305 0.6296 0.0
C1290 C 0.77637 0.64549 0.59042 0.0
C1291 C 0.80599 0.68077 0.64443 0.0
C1292 C 0.71813 0.62255 0.58568 0.0
C1293 C 0.71935 0.6025 0.50571 0.0
N1294 N 0.77858 0.66253 0.6247 0.0
N1295 N 0.74594 0.61864 0.52798 0.0
H1296 H 0.35017 0.18779 0.58655 0.0
H1297 H 0.41747 0.07108 0.58612 0.0
H1298 H 0.32008 0.11329 0.6752 0.0
H1299 H 0.41668 0.12268 0.47847 0.0
H1300 H 0.38685 0.08953 0.62402 0.0
H1301 H 0.38296 0.17002 0.55313 0.0
C1302 C 0.3514 0.16844 0.59992 0.0
C1303 C 0.33276 0.15225 0.634 0.0
C1304 C 0.39321 0.09651 0.59194 0.0
C1305 C 0.36932 0.13111 0.59527 0.0
C1306 C 0.41034 0.08564 0.57009 0.0
C1307 C 0.41982 0.09524 0.52889 0.0
C1308 C 0.38592 0.11751 0.57272 0.0
C1309 C 0.41014 0.11462 0.51015 0.0
C1310 C 0.36961 0.15789 0.58039 0.0
C1311 C 0.33441 0.12661 0.64922 0.0
N1312 N 0.39418 0.12536 0.53226 0.0
N1313 N 0.35223 0.11676 0.62974 0.0
H1314 H 0.89023 0.29538 0.47581 0.0
H1315 H 0.90372 0.2086 0.67591 0.0
H1316 H 0.94017 0.34618 0.58507 0.0
H1317 H 0.83007 0.16471 0.58613 0.0
H1318 H 0.9201 0.25885 0.64278 0.0
H1319 H 0.87294 0.24704 0.5134 0.0
C1320 C 0.8981 0.2965 0.50753 0.0
C1321 C 0.91677 0.32525 0.52716 0.0
C1322 C 0.9 0.23837 0.6308 0.0
C1323 C 0.89642 0.26926 0.57082 0.0
C1324 C 0.89042 0.20972 0.64993 0.0
C1325 C 0.86512 0.18249 0.63421 0.0
C1326 C 0.88474 0.23978 0.59484 0.0
C1327 C 0.84922 0.18516 0.59985 0.0
C1328 C 0.88782 0.26872 0.52915 0.0
C1329 C 0.92602 0.32476 0.56843 0.0
N1330 N 0.85957 0.21319 0.58096 0.0
N1331 N 0.91571 0.29725 0.58889 0.0
H1332 H 0.32309 0.20873 0.17926 0.0
H1333 H 0.41132 0.29505 0.97124 0.0
H1334 H 0.34497 0.16404 0.08104 0.0
H1335 H 0.41644 0.34558 0.08283 0.0
H1336 H 0.38181 0.24658 0.00927 0.0
H1337 H 0.35471 0.25882 0.14463 0.0
C1338 C 0.33549 0.20968 0.15108 0.0
C1339 C 0.33201 0.1823 0.13348 0.0
C1340 C 0.38914 0.26823 0.02542 0.0
C1341 C 0.36684 0.23933 0.09242 0.0
C1342 C 0.40569 0.29605 0.00356 0.0
C1343 C 0.41661 0.32473 0.02374 0.0
C1344 C 0.38301 0.26874 0.06792 0.0
C1345 C 0.40842 0.32419 0.06576 0.0
C1346 C 0.35318 0.2382 0.13105 0.0
C1347 C 0.34773 0.18466 0.09625 0.0
N1348 N 0.39228 0.29668 0.08649 0.0
N1349 N 0.36409 0.21259 0.07666 0.0
H1350 H 0.80888 0.12062 0.1771 0.0
H1351 H 0.71742 0.11768 0.97192 0.0
H1352 H 0.85119 0.18414 0.07502 0.0
H1353 H 0.66956 0.07612 0.08667 0.0
H1354 H 0.76677 0.13727 0.00784 0.0
H1355 H 0.75788 0.10185 0.14498 0.0
C1356 C 0.80725 0.13139 0.14861 0.0
C1357 C 0.83422 0.15452 0.12919 0.0
C1358 C 0.74552 0.12367 0.02518 0.0
C1359 C 0.77609 0.1319 0.091 0.0
C1360 C 0.71719 0.11205 0.00454 0.0
C1361 C 0.689 0.09516 0.02619 0.0
C1362 C 0.74605 0.11827 0.06794 0.0
C1363 C 0.69053 0.08876 0.06851 0.0
C1364 C 0.77819 0.12036 0.13001 0.0
C1365 C 0.83094 0.16692 0.0916 0.0
N1366 N 0.71855 0.10045 0.08803 0.0
N1367 N 0.80249 0.15516 0.07346 0.0
H1368 H 0.89718 0.60243 0.97063 0.0
H1369 H 0.9011 0.69662 0.17222 0.0
H1370 H 0.93955 0.59561 0.08441 0.0
H1371 H 0.83194 0.66964 0.07633 0.0
H1372 H 0.91886 0.66334 0.14057 0.0
H1373 H 0.87914 0.63337 0.0069 0.0
C1374 C 0.90332 0.60796 0.0031 0.0
C1375 C 0.91991 0.59612 0.02441 0.0
C1376 C 0.89937 0.66415 0.12696 0.0
C1377 C 0.89866 0.63149 0.0665 0.0
C1378 C 0.88897 0.68281 0.14527 0.0
C1379 C 0.86454 0.6853 0.12738 0.0
C1380 C 0.88588 0.6486 0.08967 0.0
C1381 C 0.85028 0.66775 0.09171 0.0
C1382 C 0.89258 0.62534 0.02392 0.0
C1383 C 0.92706 0.6043 0.06653 0.0
N1384 N 0.86146 0.65052 0.07368 0.0
N1385 N 0.91628 0.62136 0.08625 0.0
loop_
_geom_bond_atom_site_label_1
_geom_bond_atom_site_label_2
_geom_bond_distance
_geom_bond_site_symmetry_2
_ccdc_geom_bond_type
O0 Zn1 1.953 . S
O0 C16 1.225 1_556 S
Zn1 O0 1.953 . S
Zn1 O2 1.949 1_556 S
Zn1 O8 1.919 . S
Zn1 O13 1.924 . S
O2 Zn1 1.949 1_554 S
O2 Zn3 1.923 1_554 S
O2 Zn4 1.950 . S
O2 Zn5 1.945 . S
Zn3 O2 1.923 1_556 S
Zn3 O6 1.933 . S
Zn3 O9 1.941 . S
Zn3 O10 1.965 . S
Zn4 O2 1.950 . S
Zn4 O11 1.938 . S
Zn4 O12 1.906 . S
Zn4 O22 1.953 . S
Zn5 O2 1.945 . S
Zn5 O7 1.932 . S
Zn5 O14 1.977 . S
Zn5 O15 1.910 . S
O6 Zn3 1.933 . S
O6 C17 1.226 . S
O7 Zn5 1.932 . S
O7 C17 1.307 1_554 S
O8 Zn1 1.919 . S
O8 C19 1.253 . S
O9 Zn3 1.941 . S
O9 C19 1.283 . S
O10 Zn3 1.965 . S
O10 C18 1.303 1_556 S
O11 Zn4 1.938 . S
O11 C18 1.247 . S
O12 Zn4 1.906 . S
O12 C20 1.304 . S
O13 Zn1 1.924 . S
O13 C21 1.311 1_556 S
O14 Zn5 1.977 . S
O14 C20 1.272 . S
O15 Zn5 1.910 . S
O15 C21 1.231 . S
C16 O0 1.225 1_554 S
C16 O22 1.298 . S
C17 O6 1.226 . S
C17 O7 1.307 1_556 S
C18 O10 1.303 1_554 S
C18 O11 1.247 . S
C19 O8 1.253 . S
C19 O9 1.283 . S
C20 O12 1.304 . S
C20 O14 1.272 . S
C21 O13 1.311 1_554 S
C21 O15 1.231 . S
O22 Zn4 1.953 . S
O22 C16 1.298 . S
O23 Zn24 1.953 . S
O23 C39 1.225 1_556 S
Zn24 O23 1.953 . S
Zn24 O25 1.949 1_556 S
Zn24 O31 1.919 . S
Zn24 O36 1.924 . S
O25 Zn24 1.949 1_554 S
O25 Zn26 1.923 1_554 S
O25 Zn27 1.950 . S
O25 Zn28 1.945 . S
Zn26 O25 1.923 1_556 S
Zn26 O29 1.933 . S
Zn26 O32 1.941 . S
Zn26 O33 1.965 . S
Zn27 O25 1.950 . S
Zn27 O34 1.938 . S
Zn27 O35 1.906 . S
Zn27 O45 1.953 . S
Zn28 O25 1.945 . S
Zn28 O30 1.932 . S
Zn28 O37 1.977 . S
Zn28 O38 1.910 . S
O29 Zn26 1.933 . S
O29 C40 1.226 . S
O30 Zn28 1.932 . S
O30 C40 1.307 1_554 S
O31 Zn24 1.919 . S
O31 C42 1.253 . S
O32 Zn26 1.941 . S
O32 C42 1.283 . S
O33 Zn26 1.965 . S
O33 C41 1.303 1_556 S
O34 Zn27 1.938 . S
O34 C41 1.247 . S
O35 Zn27 1.906 . S
O35 C43 1.304 . S
O36 Zn24 1.924 . S
O36 C44 1.311 1_556 S
O37 Zn28 1.977 . S
O37 C43 1.272 . S
O38 Zn28 1.910 . S
O38 C44 1.231 . S
C39 O23 1.225 1_554 S
C39 O45 1.298 . S
C40 O29 1.226 . S
C40 O30 1.307 1_556 S
C41 O33 1.303 1_554 S
C41 O34 1.247 . S
C42 O31 1.253 . S
C42 O32 1.283 . S
C43 O35 1.304 . S
C43 O37 1.272 . S
C44 O36 1.311 1_554 S
C44 O38 1.231 . S
O45 Zn27 1.953 . S
O45 C39 1.298 . S
O46 Zn47 1.953 . S
O46 C62 1.225 1_556 S
Zn47 O46 1.953 . S
Zn47 O48 1.949 1_556 S
Zn47 O54 1.919 . S
Zn47 O59 1.924 . S
O48 Zn47 1.949 1_554 S
O48 Zn49 1.923 1_554 S
O48 Zn50 1.950 . S
O48 Zn51 1.945 . S
Zn49 O48 1.923 1_556 S
Zn49 O52 1.933 . S
Zn49 O55 1.941 . S
Zn49 O56 1.965 . S
Zn50 O48 1.950 . S
Zn50 O57 1.938 . S
Zn50 O58 1.906 . S
Zn50 O68 1.953 . S
Zn51 O48 1.945 . S
Zn51 O53 1.932 . S
Zn51 O60 1.977 . S
Zn51 O61 1.910 . S
O52 Zn49 1.933 . S
O52 C63 1.226 . S
O53 Zn51 1.932 . S
O53 C63 1.307 1_554 S
O54 Zn47 1.919 . S
O54 C65 1.253 . S
O55 Zn49 1.941 . S
O55 C65 1.283 . S
O56 Zn49 1.965 . S
O56 C64 1.303 1_556 S
O57 Zn50 1.938 . S
O57 C64 1.247 . S
O58 Zn50 1.906 . S
O58 C66 1.304 . S
O59 Zn47 1.924 . S
O59 C67 1.311 1_556 S
O60 Zn51 1.977 . S
O60 C66 1.272 . S
O61 Zn51 1.910 . S
O61 C67 1.231 . S
C62 O46 1.225 1_554 S
C62 O68 1.298 . S
C63 O52 1.226 . S
C63 O53 1.307 1_556 S
C64 O56 1.303 1_554 S
C64 O57 1.247 . S
C65 O54 1.253 . S
C65 O55 1.283 . S
C66 O58 1.304 . S
C66 O60 1.272 . S
C67 O59 1.311 1_554 S
C67 O61 1.231 . S
O68 Zn50 1.953 . S
O68 C62 1.298 . S
O69 Zn70 1.953 . S
O69 C85 1.225 . S
Zn70 O69 1.953 . S
Zn70 O71 1.949 . S
Zn70 O77 1.919 . S
Zn70 O82 1.924 . S
O71 Zn70 1.949 . S
O71 Zn72 1.923 . S
O71 Zn73 1.950 . S
O71 Zn74 1.945 . S
Zn72 O71 1.923 . S
Zn72 O75 1.933 . S
Zn72 O78 1.941 . S
Zn72 O79 1.965 . S
Zn73 O71 1.950 . S
Zn73 O80 1.938 . S
Zn73 O81 1.906 . S
Zn73 O91 1.953 . S
Zn74 O71 1.945 . S
Zn74 O76 1.932 . S
Zn74 O83 1.977 . S
Zn74 O84 1.910 . S
O75 Zn72 1.933 . S
O75 C86 1.226 . S
O76 Zn74 1.932 . S
O76 C86 1.307 . S
O77 Zn70 1.919 . S
O77 C88 1.253 . S
O78 Zn72 1.941 . S
O78 C88 1.283 . S
O79 Zn72 1.965 . S
O79 C87 1.303 . S
O80 Zn73 1.938 . S
O80 C87 1.247 . S
O81 Zn73 1.906 . S
O81 C89 1.304 . S
O82 Zn70 1.924 . S
O82 C90 1.311 . S
O83 Zn74 1.977 . S
O83 C89 1.272 . S
O84 Zn74 1.910 . S
O84 C90 1.231 . S
C85 O69 1.225 . S
C85 O91 1.298 . S
C86 O75 1.226 . S
C86 O76 1.307 . S
C87 O79 1.303 . S
C87 O80 1.247 . S
C88 O77 1.253 . S
C88 O78 1.283 . S
C89 O81 1.304 . S
C89 O83 1.272 . S
C90 O82 1.311 . S
C90 O84 1.231 . S
O91 Zn73 1.953 . S
O91 C85 1.298 . S
O92 Zn93 1.953 . S
O92 C108 1.225 . S
Zn93 O92 1.953 . S
Zn93 O94 1.949 . S
Zn93 O100 1.919 . S
Zn93 O105 1.924 . S
O94 Zn93 1.949 . S
O94 Zn95 1.923 . S
O94 Zn96 1.950 . S
O94 Zn97 1.945 . S
Zn95 O94 1.923 . S
Zn95 O98 1.933 . S
Zn95 O101 1.941 . S
Zn95 O102 1.965 . S
Zn96 O94 1.950 . S
Zn96 O103 1.938 . S
Zn96 O104 1.906 . S
Zn96 O114 1.953 . S
Zn97 O94 1.945 . S
Zn97 O99 1.932 . S
Zn97 O106 1.977 . S
Zn97 O107 1.910 . S
O98 Zn95 1.933 . S
O98 C109 1.226 . S
O99 Zn97 1.932 . S
O99 C109 1.307 . S
O100 Zn93 1.919 . S
O100 C111 1.253 . S
O101 Zn95 1.941 . S
O101 C111 1.283 . S
O102 Zn95 1.965 . S
O102 C110 1.303 . S
O103 Zn96 1.938 . S
O103 C110 1.247 . S
O104 Zn96 1.906 . S
O104 C112 1.304 . S
O105 Zn93 1.924 . S
O105 C113 1.311 . S
O106 Zn97 1.977 . S
O106 C112 1.272 . S
O107 Zn97 1.910 . S
O107 C113 1.231 . S
C108 O92 1.225 . S
C108 O114 1.298 . S
C109 O98 1.226 . S
C109 O99 1.307 . S
C110 O102 1.303 . S
C110 O103 1.247 . S
C111 O100 1.253 . S
C111 O101 1.283 . S
C112 O104 1.304 . S
C112 O106 1.272 . S
C113 O105 1.311 . S
C113 O107 1.231 . S
O114 Zn96 1.953 . S
O114 C108 1.298 . S
O115 Zn116 1.953 . S
O115 C131 1.225 . S
Zn116 O115 1.953 . S
Zn116 O117 1.949 . S
Zn116 O123 1.919 . S
Zn116 O128 1.924 . S
O117 Zn116 1.949 . S
O117 Zn118 1.923 . S
O117 Zn119 1.950 . S
O117 Zn120 1.945 . S
Zn118 O117 1.923 . S
Zn118 O121 1.933 . S
Zn118 O124 1.941 . S
Zn118 O125 1.965 . S
Zn119 O117 1.950 . S
Zn119 O126 1.938 . S
Zn119 O127 1.906 . S
Zn119 O137 1.953 . S
Zn120 O117 1.945 . S
Zn120 O122 1.932 . S
Zn120 O129 1.977 . S
Zn120 O130 1.910 . S
O121 Zn118 1.933 . S
O121 C132 1.226 . S
O122 Zn120 1.932 . S
O122 C132 1.307 . S
O123 Zn116 1.919 . S
O123 C134 1.253 . S
O124 Zn118 1.941 . S
O124 C134 1.283 . S
O125 Zn118 1.965 . S
O125 C133 1.303 . S
O126 Zn119 1.938 . S
O126 C133 1.247 . S
O127 Zn119 1.906 . S
O127 C135 1.304 . S
O128 Zn116 1.924 . S
O128 C136 1.311 . S
O129 Zn120 1.977 . S
O129 C135 1.272 . S
O130 Zn120 1.910 . S
O130 C136 1.231 . S
C131 O115 1.225 . S
C131 O137 1.298 . S
C132 O121 1.226 . S
C132 O122 1.307 . S
C133 O125 1.303 . S
C133 O126 1.247 . S
C134 O123 1.253 . S
C134 O124 1.283 . S
C135 O127 1.304 . S
C135 O129 1.272 . S
C136 O128 1.311 . S
C136 O130 1.231 . S
O137 Zn119 1.953 . S
O137 C131 1.298 . S
O138 Zn139 1.953 . S
O138 C154 1.225 . S
Zn139 O138 1.953 . S
Zn139 O140 1.949 . S
Zn139 O146 1.919 . S
Zn139 O151 1.924 . S
O140 Zn139 1.949 . S
O140 Zn141 1.923 . S
O140 Zn142 1.950 . S
O140 Zn143 1.945 . S
Zn141 O140 1.923 . S
Zn141 O144 1.933 . S
Zn141 O147 1.941 . S
Zn141 O148 1.965 . S
Zn142 O140 1.950 . S
Zn142 O149 1.938 . S
Zn142 O150 1.906 . S
Zn142 O160 1.953 . S
Zn143 O140 1.945 . S
Zn143 O145 1.932 . S
Zn143 O152 1.977 . S
Zn143 O153 1.910 . S
O144 Zn141 1.933 . S
O144 C155 1.226 . S
O145 Zn143 1.932 . S
O145 C155 1.307 . S
O146 Zn139 1.919 . S
O146 C157 1.253 . S
O147 Zn141 1.941 . S
O147 C157 1.283 . S
O148 Zn141 1.965 . S
O148 C156 1.303 . S
O149 Zn142 1.938 . S
O149 C156 1.247 . S
O150 Zn142 1.906 . S
O150 C158 1.304 . S
O151 Zn139 1.924 . S
O151 C159 1.311 . S
O152 Zn143 1.977 . S
O152 C158 1.272 . S
O153 Zn143 1.910 . S
O153 C159 1.231 . S
C154 O138 1.225 . S
C154 O160 1.298 . S
C155 O144 1.226 . S
C155 O145 1.307 . S
C156 O148 1.303 . S
C156 O149 1.247 . S
C157 O146 1.253 . S
C157 O147 1.283 . S
C158 O150 1.304 . S
C158 O152 1.272 . S
C159 O151 1.311 . S
C159 O153 1.231 . S
O160 Zn142 1.953 . S
O160 C154 1.298 . S
O161 Zn162 1.953 . S
O161 C177 1.225 . S
Zn162 O161 1.953 . S
Zn162 O163 1.949 . S
Zn162 O169 1.919 . S
Zn162 O174 1.924 . S
O163 Zn162 1.949 . S
O163 Zn164 1.923 . S
O163 Zn165 1.950 . S
O163 Zn166 1.945 . S
Zn164 O163 1.923 . S
Zn164 O167 1.933 . S
Zn164 O170 1.941 . S
Zn164 O171 1.965 . S
Zn165 O163 1.950 . S
Zn165 O172 1.938 . S
Zn165 O173 1.906 . S
Zn165 O183 1.953 . S
Zn166 O163 1.945 . S
Zn166 O168 1.932 . S
Zn166 O175 1.977 . S
Zn166 O176 1.910 . S
O167 Zn164 1.933 . S
O167 C178 1.226 . S
O168 Zn166 1.932 . S
O168 C178 1.307 . S
O169 Zn162 1.919 . S
O169 C180 1.253 . S
O170 Zn164 1.941 . S
O170 C180 1.283 . S
O171 Zn164 1.965 . S
O171 C179 1.303 . S
O172 Zn165 1.938 . S
O172 C179 1.247 . S
O173 Zn165 1.906 . S
O173 C181 1.304 . S
O174 Zn162 1.924 . S
O174 C182 1.311 . S
O175 Zn166 1.977 . S
O175 C181 1.272 . S
O176 Zn166 1.910 . S
O176 C182 1.231 . S
C177 O161 1.225 . S
C177 O183 1.298 . S
C178 O167 1.226 . S
C178 O168 1.307 . S
C179 O171 1.303 . S
C179 O172 1.247 . S
C180 O169 1.253 . S
C180 O170 1.283 . S
C181 O173 1.304 . S
C181 O175 1.272 . S
C182 O174 1.311 . S
C182 O176 1.231 . S
O183 Zn165 1.953 . S
O183 C177 1.298 . S
O184 Zn185 1.953 . S
O184 C200 1.225 . S
Zn185 O184 1.953 . S
Zn185 O186 1.949 . S
Zn185 O192 1.919 . S
Zn185 O197 1.924 . S
O186 Zn185 1.949 . S
O186 Zn187 1.923 . S
O186 Zn188 1.950 . S
O186 Zn189 1.945 . S
Zn187 O186 1.923 . S
Zn187 O190 1.933 . S
Zn187 O193 1.941 . S
Zn187 O194 1.965 . S
Zn188 O186 1.950 . S
Zn188 O195 1.938 . S
Zn188 O196 1.906 . S
Zn188 O206 1.953 . S
Zn189 O186 1.945 . S
Zn189 O191 1.932 . S
Zn189 O198 1.977 . S
Zn189 O199 1.910 . S
O190 Zn187 1.933 . S
O190 C201 1.226 . S
O191 Zn189 1.932 . S
O191 C201 1.307 . S
O192 Zn185 1.919 . S
O192 C203 1.253 . S
O193 Zn187 1.941 . S
O193 C203 1.283 . S
O194 Zn187 1.965 . S
O194 C202 1.303 . S
O195 Zn188 1.938 . S
O195 C202 1.247 . S
O196 Zn188 1.906 . S
O196 C204 1.304 . S
O197 Zn185 1.924 . S
O197 C205 1.311 . S
O198 Zn189 1.977 . S
O198 C204 1.272 . S
O199 Zn189 1.910 . S
O199 C205 1.231 . S
C200 O184 1.225 . S
C200 O206 1.298 . S
C201 O190 1.226 . S
C201 O191 1.307 . S
C202 O194 1.303 . S
C202 O195 1.247 . S
C203 O192 1.253 . S
C203 O193 1.283 . S
C204 O196 1.304 . S
C204 O198 1.272 . S
C205 O197 1.311 . S
C205 O199 1.231 . S
O206 Zn188 1.953 . S
O206 C200 1.298 . S
O207 Zn208 1.953 . S
O207 C223 1.225 . S
Zn208 O207 1.953 . S
Zn208 O209 1.949 . S
Zn208 O215 1.919 . S
Zn208 O220 1.924 . S
O209 Zn208 1.949 . S
O209 Zn210 1.923 . S
O209 Zn211 1.950 . S
O209 Zn212 1.945 . S
Zn210 O209 1.923 . S
Zn210 O213 1.933 . S
Zn210 O216 1.941 . S
Zn210 O217 1.965 . S
Zn211 O209 1.950 . S
Zn211 O218 1.938 . S
Zn211 O219 1.906 . S
Zn211 O229 1.953 . S
Zn212 O209 1.945 . S
Zn212 O214 1.932 . S
Zn212 O221 1.977 . S
Zn212 O222 1.910 . S
O213 Zn210 1.933 . S
O213 C224 1.226 . S
O214 Zn212 1.932 . S
O214 C224 1.307 . S
O215 Zn208 1.919 . S
O215 C226 1.253 . S
O216 Zn210 1.941 . S
O216 C226 1.283 . S
O217 Zn210 1.965 . S
O217 C225 1.303 . S
O218 Zn211 1.938 . S
O218 C225 1.247 . S
O219 Zn211 1.906 . S
O219 C227 1.304 . S
O220 Zn208 1.924 . S
O220 C228 1.311 . S
O221 Zn212 1.977 . S
O221 C227 1.272 . S
O222 Zn212 1.910 . S
O222 C228 1.231 . S
C223 O207 1.225 . S
C223 O229 1.298 . S
C224 O213 1.226 . S
C224 O214 1.307 . S
C225 O217 1.303 . S
C225 O218 1.247 . S
C226 O215 1.253 . S
C226 O216 1.283 . S
C227 O219 1.304 . S
C227 O221 1.272 . S
C228 O220 1.311 . S
C228 O222 1.231 . S
O229 Zn211 1.953 . S
O229 C223 1.298 . S
O230 Zn231 1.953 . S
O230 C246 1.225 . S
Zn231 O230 1.953 . S
Zn231 O232 1.949 . S
Zn231 O238 1.919 . S
Zn231 O243 1.924 . S
O232 Zn231 1.949 . S
O232 Zn233 1.923 . S
O232 Zn234 1.950 . S
O232 Zn235 1.945 . S
Zn233 O232 1.923 . S
Zn233 O236 1.933 . S
Zn233 O239 1.941 . S
Zn233 O240 1.965 . S
Zn234 O232 1.950 . S
Zn234 O241 1.938 . S
Zn234 O242 1.906 . S
Zn234 O252 1.953 . S
Zn235 O232 1.945 . S
Zn235 O237 1.932 . S
Zn235 O244 1.977 . S
Zn235 O245 1.910 . S
O236 Zn233 1.933 . S
O236 C247 1.226 . S
O237 Zn235 1.932 . S
O237 C247 1.307 . S
O238 Zn231 1.919 . S
O238 C249 1.253 . S
O239 Zn233 1.941 . S
O239 C249 1.283 . S
O240 Zn233 1.965 . S
O240 C248 1.303 . S
O241 Zn234 1.938 . S
O241 C248 1.247 . S
O242 Zn234 1.906 . S
O242 C250 1.304 . S
O243 Zn231 1.924 . S
O243 C251 1.311 . S
O244 Zn235 1.977 . S
O244 C250 1.272 . S
O245 Zn235 1.910 . S
O245 C251 1.231 . S
C246 O230 1.225 . S
C246 O252 1.298 . S
C247 O236 1.226 . S
C247 O237 1.307 . S
C248 O240 1.303 . S
C248 O241 1.247 . S
C249 O238 1.253 . S
C249 O239 1.283 . S
C250 O242 1.304 . S
C250 O244 1.272 . S
C251 O243 1.311 . S
C251 O245 1.231 . S
O252 Zn234 1.953 . S
O252 C246 1.298 . S
O253 Zn254 1.953 . S
O253 C269 1.225 . S
Zn254 O253 1.953 . S
Zn254 O255 1.949 . S
Zn254 O261 1.919 . S
Zn254 O266 1.924 . S
O255 Zn254 1.949 . S
O255 Zn256 1.923 . S
O255 Zn257 1.950 . S
O255 Zn258 1.945 . S
Zn256 O255 1.923 . S
Zn256 O259 1.933 . S
Zn256 O262 1.941 . S
Zn256 O263 1.965 . S
Zn257 O255 1.950 . S
Zn257 O264 1.938 . S
Zn257 O265 1.906 . S
Zn257 O275 1.953 . S
Zn258 O255 1.945 . S
Zn258 O260 1.932 . S
Zn258 O267 1.977 . S
Zn258 O268 1.910 . S
O259 Zn256 1.933 . S
O259 C270 1.226 . S
O260 Zn258 1.932 . S
O260 C270 1.307 . S
O261 Zn254 1.919 . S
O261 C272 1.253 . S
O262 Zn256 1.941 . S
O262 C272 1.283 . S
O263 Zn256 1.965 . S
O263 C271 1.303 . S
O264 Zn257 1.938 . S
O264 C271 1.247 . S
O265 Zn257 1.906 . S
O265 C273 1.304 . S
O266 Zn254 1.924 . S
O266 C274 1.311 . S
O267 Zn258 1.977 . S
O267 C273 1.272 . S
O268 Zn258 1.910 . S
O268 C274 1.231 . S
C269 O253 1.225 . S
C269 O275 1.298 . S
C270 O259 1.226 . S
C270 O260 1.307 . S
C271 O263 1.303 . S
C271 O264 1.247 . S
C272 O261 1.253 . S
C272 O262 1.283 . S
C273 O265 1.304 . S
C273 O267 1.272 . S
C274 O266 1.311 . S
C274 O268 1.231 . S
O275 Zn257 1.953 . S
O275 C269 1.298 . S
O276 Zn277 1.953 . S
O276 C292 1.225 . S
Zn277 O276 1.953 . S
Zn277 O278 1.949 . S
Zn277 O284 1.919 . S
Zn277 O289 1.924 . S
O278 Zn277 1.949 . S
O278 Zn279 1.923 . S
O278 Zn280 1.950 . S
O278 Zn281 1.945 . S
Zn279 O278 1.923 . S
Zn279 O282 1.933 . S
Zn279 O285 1.941 . S
Zn279 O286 1.965 . S
Zn280 O278 1.950 . S
Zn280 O287 1.938 . S
Zn280 O288 1.906 . S
Zn280 O298 1.953 . S
Zn281 O278 1.945 . S
Zn281 O283 1.932 . S
Zn281 O290 1.977 . S
Zn281 O291 1.910 . S
O282 Zn279 1.933 . S
O282 C293 1.226 . S
O283 Zn281 1.932 . S
O283 C293 1.307 . S
O284 Zn277 1.919 . S
O284 C295 1.253 . S
O285 Zn279 1.941 . S
O285 C295 1.283 . S
O286 Zn279 1.965 . S
O286 C294 1.303 . S
O287 Zn280 1.938 . S
O287 C294 1.247 . S
O288 Zn280 1.906 . S
O288 C296 1.304 . S
O289 Zn277 1.924 . S
O289 C297 1.311 . S
O290 Zn281 1.977 . S
O290 C296 1.272 . S
O291 Zn281 1.910 . S
O291 C297 1.231 . S
C292 O276 1.225 . S
C292 O298 1.298 . S
C293 O282 1.226 . S
C293 O283 1.307 . S
C294 O286 1.303 . S
C294 O287 1.247 . S
C295 O284 1.253 . S
C295 O285 1.283 . S
C296 O288 1.304 . S
C296 O290 1.272 . S
C297 O289 1.311 . S
C297 O291 1.231 . S
O298 Zn280 1.953 . S
O298 C292 1.298 . S
O299 Zn300 1.953 . S
O299 C315 1.225 . S
Zn300 O299 1.953 . S
Zn300 O301 1.949 . S
Zn300 O307 1.919 . S
Zn300 O312 1.924 . S
O301 Zn300 1.949 . S
O301 Zn302 1.923 . S
O301 Zn303 1.950 . S
O301 Zn304 1.945 . S
Zn302 O301 1.923 . S
Zn302 O305 1.933 . S
Zn302 O308 1.941 . S
Zn302 O309 1.965 . S
Zn303 O301 1.950 . S
Zn303 O310 1.938 . S
Zn303 O311 1.906 . S
Zn303 O321 1.953 . S
Zn304 O301 1.945 . S
Zn304 O306 1.932 . S
Zn304 O313 1.977 . S
Zn304 O314 1.910 . S
O305 Zn302 1.933 . S
O305 C316 1.226 . S
O306 Zn304 1.932 . S
O306 C316 1.307 . S
O307 Zn300 1.919 . S
O307 C318 1.253 . S
O308 Zn302 1.941 . S
O308 C318 1.283 . S
O309 Zn302 1.965 . S
O309 C317 1.303 . S
O310 Zn303 1.938 . S
O310 C317 1.247 . S
O311 Zn303 1.906 . S
O311 C319 1.304 . S
O312 Zn300 1.924 . S
O312 C320 1.311 . S
O313 Zn304 1.977 . S
O313 C319 1.272 . S
O314 Zn304 1.910 . S
O314 C320 1.231 . S
C315 O299 1.225 . S
C315 O321 1.298 . S
C316 O305 1.226 . S
C316 O306 1.307 . S
C317 O309 1.303 . S
C317 O310 1.247 . S
C318 O307 1.253 . S
C318 O308 1.283 . S
C319 O311 1.304 . S
C319 O313 1.272 . S
C320 O312 1.311 . S
C320 O314 1.231 . S
O321 Zn303 1.953 . S
O321 C315 1.298 . S
O322 Zn323 1.953 . S
O322 C338 1.225 . S
Zn323 O322 1.953 . S
Zn323 O324 1.949 . S
Zn323 O330 1.919 . S
Zn323 O335 1.924 . S
O324 Zn323 1.949 . S
O324 Zn325 1.923 . S
O324 Zn326 1.950 . S
O324 Zn327 1.945 . S
Zn325 O324 1.923 . S
Zn325 O328 1.933 . S
Zn325 O331 1.941 . S
Zn325 O332 1.965 . S
Zn326 O324 1.950 . S
Zn326 O333 1.938 . S
Zn326 O334 1.906 . S
Zn326 O344 1.953 . S
Zn327 O324 1.945 . S
Zn327 O329 1.932 . S
Zn327 O336 1.977 . S
Zn327 O337 1.910 . S
O328 Zn325 1.933 . S
O328 C339 1.226 . S
O329 Zn327 1.932 . S
O329 C339 1.307 . S
O330 Zn323 1.919 . S
O330 C341 1.253 . S
O331 Zn325 1.941 . S
O331 C341 1.283 . S
O332 Zn325 1.965 . S
O332 C340 1.303 . S
O333 Zn326 1.938 . S
O333 C340 1.247 . S
O334 Zn326 1.906 . S
O334 C342 1.304 . S
O335 Zn323 1.924 . S
O335 C343 1.311 . S
O336 Zn327 1.977 . S
O336 C342 1.272 . S
O337 Zn327 1.910 . S
O337 C343 1.231 . S
C338 O322 1.225 . S
C338 O344 1.298 . S
C339 O328 1.226 . S
C339 O329 1.307 . S
C340 O332 1.303 . S
C340 O333 1.247 . S
C341 O330 1.253 . S
C341 O331 1.283 . S
C342 O334 1.304 . S
C342 O336 1.272 . S
C343 O335 1.311 . S
C343 O337 1.231 . S
O344 Zn326 1.953 . S
O344 C338 1.298 . S
O345 Zn346 1.953 . S
O345 C361 1.225 . S
Zn346 O345 1.953 . S
Zn346 O347 1.949 . S
Zn346 O353 1.919 . S
Zn346 O358 1.924 . S
O347 Zn346 1.949 . S
O347 Zn348 1.923 . S
O347 Zn349 1.950 . S
O347 Zn350 1.945 . S
Zn348 O347 1.923 . S
Zn348 O351 1.933 . S
Zn348 O354 1.941 . S
Zn348 O355 1.965 . S
Zn349 O347 1.950 . S
Zn349 O356 1.938 . S
Zn349 O357 1.906 . S
Zn349 O367 1.953 . S
Zn350 O347 1.945 . S
Zn350 O352 1.932 . S
Zn350 O359 1.977 . S
Zn350 O360 1.910 . S
O351 Zn348 1.933 . S
O351 C362 1.226 . S
O352 Zn350 1.932 . S
O352 C362 1.307 . S
O353 Zn346 1.919 . S
O353 C364 1.253 . S
O354 Zn348 1.941 . S
O354 C364 1.283 . S
O355 Zn348 1.965 . S
O355 C363 1.303 . S
O356 Zn349 1.938 . S
O356 C363 1.247 . S
O357 Zn349 1.906 . S
O357 C365 1.304 . S
O358 Zn346 1.924 . S
O358 C366 1.311 . S
O359 Zn350 1.977 . S
O359 C365 1.272 . S
O360 Zn350 1.910 . S
O360 C366 1.231 . S
C361 O345 1.225 . S
C361 O367 1.298 . S
C362 O351 1.226 . S
C362 O352 1.307 . S
C363 O355 1.303 . S
C363 O356 1.247 . S
C364 O353 1.253 . S
C364 O354 1.283 . S
C365 O357 1.304 . S
C365 O359 1.272 . S
C366 O358 1.311 . S
C366 O360 1.231 . S
O367 Zn349 1.953 . S
O367 C361 1.298 . S
O368 Zn369 1.953 . S
O368 C384 1.225 . S
Zn369 O368 1.953 . S
Zn369 O370 1.949 . S
Zn369 O376 1.919 . S
Zn369 O381 1.924 . S
O370 Zn369 1.949 . S
O370 Zn371 1.923 . S
O370 Zn372 1.950 . S
O370 Zn373 1.945 . S
Zn371 O370 1.923 . S
Zn371 O374 1.933 . S
Zn371 O377 1.941 . S
Zn371 O378 1.965 . S
Zn372 O370 1.950 . S
Zn372 O379 1.938 . S
Zn372 O380 1.906 . S
Zn372 O390 1.953 . S
Zn373 O370 1.945 . S
Zn373 O375 1.932 . S
Zn373 O382 1.977 . S
Zn373 O383 1.910 . S
O374 Zn371 1.933 . S
O374 C385 1.226 . S
O375 Zn373 1.932 . S
O375 C385 1.307 . S
O376 Zn369 1.919 . S
O376 C387 1.253 . S
O377 Zn371 1.941 . S
O377 C387 1.283 . S
O378 Zn371 1.965 . S
O378 C386 1.303 . S
O379 Zn372 1.938 . S
O379 C386 1.247 . S
O380 Zn372 1.906 . S
O380 C388 1.304 . S
O381 Zn369 1.924 . S
O381 C389 1.311 . S
O382 Zn373 1.977 . S
O382 C388 1.272 . S
O383 Zn373 1.910 . S
O383 C389 1.231 . S
C384 O368 1.225 . S
C384 O390 1.298 . S
C385 O374 1.226 . S
C385 O375 1.307 . S
C386 O378 1.303 . S
C386 O379 1.247 . S
C387 O376 1.253 . S
C387 O377 1.283 . S
C388 O380 1.304 . S
C388 O382 1.272 . S
C389 O381 1.311 . S
C389 O383 1.231 . S
O390 Zn372 1.953 . S
O390 C384 1.298 . S
O391 Zn392 1.953 . S
O391 C407 1.225 . S
Zn392 O391 1.953 . S
Zn392 O393 1.949 . S
Zn392 O399 1.919 . S
Zn392 O404 1.924 . S
O393 Zn392 1.949 . S
O393 Zn394 1.923 . S
O393 Zn395 1.950 . S
O393 Zn396 1.945 . S
Zn394 O393 1.923 . S
Zn394 O397 1.933 . S
Zn394 O400 1.941 . S
Zn394 O401 1.965 . S
Zn395 O393 1.950 . S
Zn395 O402 1.938 . S
Zn395 O403 1.906 . S
Zn395 O413 1.953 . S
Zn396 O393 1.945 . S
Zn396 O398 1.932 . S
Zn396 O405 1.977 . S
Zn396 O406 1.910 . S
O397 Zn394 1.933 . S
O397 C408 1.226 . S
O398 Zn396 1.932 . S
O398 C408 1.307 . S
O399 Zn392 1.919 . S
O399 C410 1.253 . S
O400 Zn394 1.941 . S
O400 C410 1.283 . S
O401 Zn394 1.965 . S
O401 C409 1.303 . S
O402 Zn395 1.938 . S
O402 C409 1.247 . S
O403 Zn395 1.906 . S
O403 C411 1.304 . S
O404 Zn392 1.924 . S
O404 C412 1.311 . S
O405 Zn396 1.977 . S
O405 C411 1.272 . S
O406 Zn396 1.910 . S
O406 C412 1.231 . S
C407 O391 1.225 . S
C407 O413 1.298 . S
C408 O397 1.226 . S
C408 O398 1.307 . S
C409 O401 1.303 . S
C409 O402 1.247 . S
C410 O399 1.253 . S
C410 O400 1.283 . S
C411 O403 1.304 . S
C411 O405 1.272 . S
C412 O404 1.311 . S
C412 O406 1.231 . S
O413 Zn395 1.953 . S
O413 C407 1.298 . S
H414 C420 0.930 . S
H415 C424 0.930 . S
H416 C429 0.929 . S
H417 C427 0.929 . S
H418 C422 0.929 . S
H419 C428 0.929 . S
C420 H414 0.930 . S
C420 C421 1.367 . S
C420 C428 1.378 . S
C421 C420 1.367 . S
C421 C429 1.433 1_556 S
C422 H418 0.929 . S
C422 C424 1.378 . S
C422 C426 1.350 . S
C423 C426 1.463 . S
C423 C428 1.350 1_554 S
C423 N431 1.427 . S
C424 H415 0.930 . S
C424 C422 1.378 . S
C424 C425 1.367 . S
C425 C424 1.367 . S
C425 C427 1.433 . S
C426 C422 1.350 . S
C426 C423 1.463 . S
C426 N430 1.427 . S
C427 H417 0.929 . S
C427 C425 1.433 . S
C427 N430 1.384 . S
C428 H419 0.929 . S
C428 C420 1.378 . S
C428 C423 1.350 1_556 S
C429 H416 0.929 . S
C429 C421 1.433 1_554 S
C429 N431 1.384 . S
N430 C426 1.427 . S
N430 C427 1.384 . S
N431 C423 1.427 . S
N431 C429 1.384 . S
H432 C438 0.930 . S
H433 C442 0.930 . S
H434 C447 0.929 . S
H435 C445 0.929 . S
H436 C440 0.929 . S
H437 C446 0.929 . S
C438 H432 0.930 . S
C438 C439 1.367 . S
C438 C446 1.378 . S
C439 C438 1.367 . S
C439 C447 1.433 1_554 S
C440 H436 0.929 . S
C440 C442 1.378 . S
C440 C444 1.350 1_556 S
C441 C444 1.463 . S
C441 C446 1.350 . S
C441 N449 1.427 1_554 S
C442 H433 0.930 . S
C442 C440 1.378 . S
C442 C443 1.367 . S
C443 C442 1.367 . S
C443 C445 1.433 1_556 S
C444 C440 1.350 1_554 S
C444 C441 1.463 . S
C444 N448 1.427 . S
C445 H435 0.929 . S
C445 C443 1.433 1_554 S
C445 N448 1.384 . S
C446 H437 0.929 . S
C446 C438 1.378 . S
C446 C441 1.350 . S
C447 H434 0.929 . S
C447 C439 1.433 1_556 S
C447 N449 1.384 . S
N448 C444 1.427 . S
N448 C445 1.384 . S
N449 C441 1.427 1_556 S
N449 C447 1.384 . S
H450 C456 0.930 . S
H451 C460 0.930 . S
H452 C465 0.929 . S
H453 C463 0.929 . S
H454 C458 0.929 . S
H455 C464 0.929 . S
C456 H450 0.930 . S
C456 C457 1.367 1_554 S
C456 C464 1.378 . S
C457 C456 1.367 1_556 S
C457 C465 1.433 . S
C458 H454 0.929 . S
C458 C460 1.378 . S
C458 C462 1.350 1_556 S
C459 C462 1.463 . S
C459 C464 1.350 . S
C459 N467 1.427 1_554 S
C460 H451 0.930 . S
C460 C458 1.378 . S
C460 C461 1.367 1_556 S
C461 C460 1.367 1_554 S
C461 C463 1.433 . S
C462 C458 1.350 1_554 S
C462 C459 1.463 . S
C462 N466 1.427 . S
C463 H453 0.929 . S
C463 C461 1.433 . S
C463 N466 1.384 . S
C464 H455 0.929 . S
C464 C456 1.378 . S
C464 C459 1.350 . S
C465 H452 0.929 . S
C465 C457 1.433 . S
C465 N467 1.384 . S
N466 C462 1.427 . S
N466 C463 1.384 . S
N467 C459 1.427 1_556 S
N467 C465 1.384 . S
H468 C474 0.930 . S
H469 C478 0.930 . S
H470 C483 0.929 . S
H471 C481 0.929 . S
H472 C476 0.929 . S
H473 C482 0.929 . S
C474 H468 0.930 . S
C474 C475 1.367 . S
C474 C482 1.378 . S
C475 C474 1.367 . S
C475 C483 1.433 . S
C476 H472 0.929 . S
C476 C478 1.378 . S
C476 C480 1.350 . S
C477 C480 1.463 . S
C477 C482 1.350 . S
C477 N485 1.427 . S
C478 H469 0.930 . S
C478 C476 1.378 . S
C478 C479 1.367 . S
C479 C478 1.367 . S
C479 C481 1.433 . S
C480 C476 1.350 . S
C480 C477 1.463 . S
C480 N484 1.427 . S
C481 H471 0.929 . S
C481 C479 1.433 . S
C481 N484 1.384 . S
C482 H473 0.929 . S
C482 C474 1.378 . S
C482 C477 1.350 . S
C483 H470 0.929 . S
C483 C475 1.433 . S
C483 N485 1.384 . S
N484 C480 1.427 . S
N484 C481 1.384 . S
N485 C477 1.427 . S
N485 C483 1.384 . S
H486 C492 0.930 . S
H487 C496 0.930 . S
H488 C501 0.929 . S
H489 C499 0.929 . S
H490 C494 0.929 . S
H491 C500 0.929 . S
C492 H486 0.930 . S
C492 C493 1.367 . S
C492 C500 1.378 . S
C493 C492 1.367 . S
C493 C501 1.433 . S
C494 H490 0.929 . S
C494 C496 1.378 . S
C494 C498 1.350 . S
C495 C498 1.463 . S
C495 C500 1.350 . S
C495 N503 1.427 . S
C496 H487 0.930 . S
C496 C494 1.378 . S
C496 C497 1.367 . S
C497 C496 1.367 . S
C497 C499 1.433 . S
C498 C494 1.350 . S
C498 C495 1.463 . S
C498 N502 1.427 . S
C499 H489 0.929 . S
C499 C497 1.433 . S
C499 N502 1.384 . S
C500 H491 0.929 . S
C500 C492 1.378 . S
C500 C495 1.350 . S
C501 H488 0.929 . S
C501 C493 1.433 . S
C501 N503 1.384 . S
N502 C498 1.427 . S
N502 C499 1.384 . S
N503 C495 1.427 . S
N503 C501 1.384 . S
H504 C510 0.930 . S
H505 C514 0.930 . S
H506 C519 0.929 . S
H507 C517 0.929 . S
H508 C512 0.929 . S
H509 C518 0.929 . S
C510 H504 0.930 . S
C510 C511 1.367 . S
C510 C518 1.378 . S
C511 C510 1.367 . S
C511 C519 1.433 . S
C512 H508 0.929 . S
C512 C514 1.378 . S
C512 C516 1.350 . S
C513 C516 1.463 . S
C513 C518 1.350 . S
C513 N521 1.427 . S
C514 H505 0.930 . S
C514 C512 1.378 . S
C514 C515 1.367 . S
C515 C514 1.367 . S
C515 C517 1.433 . S
C516 C512 1.350 . S
C516 C513 1.463 . S
C516 N520 1.427 . S
C517 H507 0.929 . S
C517 C515 1.433 . S
C517 N520 1.384 . S
C518 H509 0.929 . S
C518 C510 1.378 . S
C518 C513 1.350 . S
C519 H506 0.929 . S
C519 C511 1.433 . S
C519 N521 1.384 . S
N520 C516 1.427 . S
N520 C517 1.384 . S
N521 C513 1.427 . S
N521 C519 1.384 . S
H522 C528 0.930 . S
H523 C532 0.930 . S
H524 C537 0.929 . S
H525 C535 0.929 . S
H526 C530 0.929 . S
H527 C536 0.929 . S
C528 H522 0.930 . S
C528 C529 1.367 . S
C528 C536 1.378 . S
C529 C528 1.367 . S
C529 C537 1.433 . S
C530 H526 0.929 . S
C530 C532 1.378 . S
C530 C534 1.350 . S
C531 C534 1.463 . S
C531 C536 1.350 . S
C531 N539 1.427 . S
C532 H523 0.930 . S
C532 C530 1.378 . S
C532 C533 1.367 . S
C533 C532 1.367 . S
C533 C535 1.433 . S
C534 C530 1.350 . S
C534 C531 1.463 . S
C534 N538 1.427 . S
C535 H525 0.929 . S
C535 C533 1.433 . S
C535 N538 1.384 . S
C536 H527 0.929 . S
C536 C528 1.378 . S
C536 C531 1.350 . S
C537 H524 0.929 . S
C537 C529 1.433 . S
C537 N539 1.384 . S
N538 C534 1.427 . S
N538 C535 1.384 . S
N539 C531 1.427 . S
N539 C537 1.384 . S
H540 C546 0.930 . S
H541 C550 0.930 . S
H542 C555 0.929 . S
H543 C553 0.929 . S
H544 C548 0.929 . S
H545 C554 0.929 . S
C546 H540 0.930 . S
C546 C547 1.367 . S
C546 C554 1.378 . S
C547 C546 1.367 . S
C547 C555 1.433 . S
C548 H544 0.929 . S
C548 C550 1.378 . S
C548 C552 1.350 . S
C549 C552 1.463 . S
C549 C554 1.350 . S
C549 N557 1.427 . S
C550 H541 0.930 . S
C550 C548 1.378 . S
C550 C551 1.367 . S
C551 C550 1.367 . S
C551 C553 1.433 . S
C552 C548 1.350 . S
C552 C549 1.463 . S
C552 N556 1.427 . S
C553 H543 0.929 . S
C553 C551 1.433 . S
C553 N556 1.384 . S
C554 H545 0.929 . S
C554 C546 1.378 . S
C554 C549 1.350 . S
C555 H542 0.929 . S
C555 C547 1.433 . S
C555 N557 1.384 . S
N556 C552 1.427 . S
N556 C553 1.384 . S
N557 C549 1.427 . S
N557 C555 1.384 . S
H558 C564 0.930 . S
H559 C568 0.930 . S
H560 C573 0.929 . S
H561 C571 0.929 . S
H562 C566 0.929 . S
H563 C572 0.929 . S
C564 H558 0.930 . S
C564 C565 1.367 . S
C564 C572 1.378 . S
C565 C564 1.367 . S
C565 C573 1.433 . S
C566 H562 0.929 . S
C566 C568 1.378 . S
C566 C570 1.350 . S
C567 C570 1.463 . S
C567 C572 1.350 . S
C567 N575 1.427 . S
C568 H559 0.930 . S
C568 C566 1.378 . S
C568 C569 1.367 . S
C569 C568 1.367 . S
C569 C571 1.433 . S
C570 C566 1.350 . S
C570 C567 1.463 . S
C570 N574 1.427 . S
C571 H561 0.929 . S
C571 C569 1.433 . S
C571 N574 1.384 . S
C572 H563 0.929 . S
C572 C564 1.378 . S
C572 C567 1.350 . S
C573 H560 0.929 . S
C573 C565 1.433 . S
C573 N575 1.384 . S
N574 C570 1.427 . S
N574 C571 1.384 . S
N575 C567 1.427 . S
N575 C573 1.384 . S
H576 C582 0.930 . S
H577 C586 0.930 . S
H578 C591 0.929 . S
H579 C589 0.929 . S
H580 C584 0.929 . S
H581 C590 0.929 . S
C582 H576 0.930 . S
C582 C583 1.367 . S
C582 C590 1.378 . S
C583 C582 1.367 . S
C583 C591 1.433 . S
C584 H580 0.929 . S
C584 C586 1.378 . S
C584 C588 1.350 . S
C585 C588 1.463 . S
C585 C590 1.350 . S
C585 N593 1.427 . S
C586 H577 0.930 . S
C586 C584 1.378 . S
C586 C587 1.367 . S
C587 C586 1.367 . S
C587 C589 1.433 . S
C588 C584 1.350 . S
C588 C585 1.463 . S
C588 N592 1.427 . S
C589 H579 0.929 . S
C589 C587 1.433 . S
C589 N592 1.384 . S
C590 H581 0.929 . S
C590 C582 1.378 . S
C590 C585 1.350 . S
C591 H578 0.929 . S
C591 C583 1.433 . S
C591 N593 1.384 . S
N592 C588 1.427 . S
N592 C589 1.384 . S
N593 C585 1.427 . S
N593 C591 1.384 . S
H594 C600 0.930 . S
H595 C604 0.930 . S
H596 C609 0.929 . S
H597 C607 0.929 . S
H598 C602 0.929 . S
H599 C608 0.929 . S
C600 H594 0.930 . S
C600 C601 1.367 . S
C600 C608 1.378 . S
C601 C600 1.367 . S
C601 C609 1.433 . S
C602 H598 0.929 . S
C602 C604 1.378 . S
C602 C606 1.350 . S
C603 C606 1.463 . S
C603 C608 1.350 . S
C603 N611 1.427 . S
C604 H595 0.930 . S
C604 C602 1.378 . S
C604 C605 1.367 . S
C605 C604 1.367 . S
C605 C607 1.433 . S
C606 C602 1.350 . S
C606 C603 1.463 . S
C606 N610 1.427 . S
C607 H597 0.929 . S
C607 C605 1.433 . S
C607 N610 1.384 . S
C608 H599 0.929 . S
C608 C600 1.378 . S
C608 C603 1.350 . S
C609 H596 0.929 . S
C609 C601 1.433 . S
C609 N611 1.384 . S
N610 C606 1.427 . S
N610 C607 1.384 . S
N611 C603 1.427 . S
N611 C609 1.384 . S
H612 C618 0.930 . S
H613 C622 0.930 . S
H614 C627 0.929 . S
H615 C625 0.929 . S
H616 C620 0.929 . S
H617 C626 0.929 . S
C618 H612 0.930 . S
C618 C619 1.367 . S
C618 C626 1.378 . S
C619 C618 1.367 . S
C619 C627 1.433 . S
C620 H616 0.929 . S
C620 C622 1.378 . S
C620 C624 1.350 . S
C621 C624 1.463 . S
C621 C626 1.350 . S
C621 N629 1.427 . S
C622 H613 0.930 . S
C622 C620 1.378 . S
C622 C623 1.367 . S
C623 C622 1.367 . S
C623 C625 1.433 . S
C624 C620 1.350 . S
C624 C621 1.463 . S
C624 N628 1.427 . S
C625 H615 0.929 . S
C625 C623 1.433 . S
C625 N628 1.384 . S
C626 H617 0.929 . S
C626 C618 1.378 . S
C626 C621 1.350 . S
C627 H614 0.929 . S
C627 C619 1.433 . S
C627 N629 1.384 . S
N628 C624 1.427 . S
N628 C625 1.384 . S
N629 C621 1.427 . S
N629 C627 1.384 . S
H630 C636 0.930 . S
H631 C640 0.930 . S
H632 C645 0.929 1_545 S
H633 C643 0.929 . S
H634 C638 0.929 . S
H635 C644 0.929 . S
C636 H630 0.930 . S
C636 C637 1.367 . S
C636 C644 1.378 . S
C637 C636 1.367 . S
C637 C645 1.433 . S
C638 H634 0.929 . S
C638 C640 1.378 . S
C638 C642 1.350 . S
C639 C642 1.463 . S
C639 C644 1.350 . S
C639 N647 1.427 . S
C640 H631 0.930 . S
C640 C638 1.378 . S
C640 C641 1.367 . S
C641 C640 1.367 . S
C641 C643 1.433 . S
C642 C638 1.350 . S
C642 C639 1.463 . S
C642 N646 1.427 . S
C643 H633 0.929 . S
C643 C641 1.433 . S
C643 N646 1.384 . S
C644 H635 0.929 . S
C644 C636 1.378 . S
C644 C639 1.350 . S
C645 H632 0.929 1_565 S
C645 C637 1.433 . S
C645 N647 1.384 . S
N646 C642 1.427 . S
N646 C643 1.384 . S
N647 C639 1.427 . S
N647 C645 1.384 . S
H648 C654 0.930 . S
H649 C658 0.930 1_655 S
H650 C663 0.929 . S
H651 C661 0.929 . S
H652 C656 0.929 . S
H653 C662 0.929 . S
C654 H648 0.930 . S
C654 C655 1.367 . S
C654 C662 1.378 1_545 S
C655 C654 1.367 . S
C655 C663 1.433 . S
C656 H652 0.929 . S
C656 C658 1.378 . S
C656 C660 1.350 . S
C657 C660 1.463 . S
C657 C662 1.350 . S
C657 N665 1.410 1_565 S
C658 H649 0.930 1_455 S
C658 C656 1.378 . S
C658 C659 1.367 . S
C659 C658 1.367 . S
C659 C661 1.433 . S
C660 C656 1.350 . S
C660 C657 1.463 . S
C660 N664 1.427 . S
C661 H651 0.929 . S
C661 C659 1.433 . S
C661 N664 1.384 . S
C662 H653 0.929 . S
C662 C654 1.378 1_565 S
C662 C657 1.350 . S
C663 H650 0.929 . S
C663 C655 1.433 . S
C663 N665 1.395 . S
N664 C660 1.427 . S
N664 C661 1.384 . S
N665 C657 1.410 1_545 S
N665 C663 1.395 . S
H666 C672 0.930 . S
H667 C676 0.930 . S
H668 C681 0.929 . S
H669 C679 0.929 . S
H670 C674 0.929 . S
H671 C680 0.915 1_455 S
C672 H666 0.930 . S
C672 C673 1.367 . S
C672 C680 1.378 . S
C673 C672 1.367 . S
C673 C681 1.433 . S
C674 H670 0.929 . S
C674 C676 1.378 . S
C674 C678 1.350 . S
C675 C678 1.463 . S
C675 C680 1.350 1_455 S
C675 N683 1.427 . S
C676 H667 0.930 . S
C676 C674 1.378 . S
C676 C677 1.367 . S
C677 C676 1.367 . S
C677 C679 1.433 . S
C678 C674 1.350 . S
C678 C675 1.463 . S
C678 N682 1.427 . S
C679 H669 0.929 . S
C679 C677 1.433 . S
C679 N682 1.384 . S
C680 H671 0.915 1_655 S
C680 C672 1.378 . S
C680 C675 1.350 1_655 S
C681 H668 0.929 . S
C681 C673 1.433 . S
C681 N683 1.384 1_655 S
N682 C678 1.427 . S
N682 C679 1.384 . S
N683 C675 1.427 . S
N683 C681 1.384 1_455 S
H684 C690 0.930 . S
H685 C694 0.930 . S
H686 C699 0.929 . S
H687 C697 0.929 1_655 S
H688 C692 0.929 . S
H689 C698 0.929 . S
C690 H684 0.930 . S
C690 C691 1.367 . S
C690 C698 1.378 . S
C691 C690 1.367 . S
C691 C699 1.433 . S
C692 H688 0.929 . S
C692 C694 1.378 . S
C692 C696 1.350 . S
C693 C696 1.463 . S
C693 C698 1.350 . S
C693 N701 1.427 . S
C694 H685 0.930 . S
C694 C692 1.378 . S
C694 C695 1.367 . S
C695 C694 1.367 . S
C695 C697 1.433 . S
C696 C692 1.350 . S
C696 C693 1.463 . S
C696 N700 1.427 . S
C697 H687 0.929 1_455 S
C697 C695 1.433 . S
C697 N700 1.384 . S
C698 H689 0.929 . S
C698 C690 1.378 . S
C698 C693 1.350 . S
C699 H686 0.929 . S
C699 C691 1.433 . S
C699 N701 1.384 . S
N700 C696 1.427 . S
N700 C697 1.384 . S
N701 C693 1.427 . S
N701 C699 1.384 . S
H702 C708 0.930 . S
H703 C712 0.930 . S
H704 C717 0.929 . S
H705 C715 0.929 . S
H706 C710 0.929 . S
H707 C716 0.929 . S
C708 H702 0.930 . S
C708 C709 1.367 . S
C708 C716 1.378 . S
C709 C708 1.367 . S
C709 C717 1.433 . S
C710 H706 0.929 . S
C710 C712 1.378 1_565 S
C710 C714 1.350 . S
C711 C714 1.463 . S
C711 C716 1.350 . S
C711 N719 1.427 . S
C712 H703 0.930 . S
C712 C710 1.378 1_545 S
C712 C713 1.367 . S
C713 C712 1.367 . S
C713 C715 1.433 . S
C714 C710 1.350 . S
C714 C711 1.463 . S
C714 N718 1.427 . S
C715 H705 0.929 . S
C715 C713 1.433 . S
C715 N718 1.384 1_545 S
C716 H707 0.929 . S
C716 C708 1.378 . S
C716 C711 1.350 . S
C717 H704 0.929 . S
C717 C709 1.433 . S
C717 N719 1.384 . S
N718 C714 1.427 . S
N718 C715 1.384 1_565 S
N719 C711 1.427 . S
N719 C717 1.384 . S
H720 C726 0.930 . S
H721 C730 0.930 . S
H722 C735 0.929 . S
H723 C733 0.929 . S
H724 C728 0.929 . S
H725 C734 0.929 . S
C726 H720 0.930 . S
C726 C727 1.367 . S
C726 C734 1.378 . S
C727 C726 1.367 . S
C727 C735 1.433 . S
C728 H724 0.929 . S
C728 C730 1.378 1_455 S
C728 C732 1.350 . S
C729 C732 1.463 . S
C729 C734 1.350 . S
C729 N737 1.427 . S
C730 H721 0.930 . S
C730 C728 1.378 1_655 S
C730 C731 1.367 . S
C731 C730 1.367 . S
C731 C733 1.433 . S
C732 C728 1.350 . S
C732 C729 1.463 . S
C732 N736 1.427 . S
C733 H723 0.929 . S
C733 C731 1.433 . S
C733 N736 1.384 1_655 S
C734 H725 0.929 . S
C734 C726 1.378 . S
C734 C729 1.350 . S
C735 H722 0.929 . S
C735 C727 1.433 . S
C735 N737 1.384 . S
N736 C732 1.427 . S
N736 C733 1.384 1_455 S
N737 C729 1.427 . S
N737 C735 1.384 . S
H738 C744 0.930 . S
H739 C748 0.930 . S
H740 C753 0.929 . S
H741 C751 0.929 . S
H742 C746 0.929 . S
H743 C752 0.929 . S
C744 H738 0.930 . S
C744 C745 1.367 . S
C744 C752 1.378 . S
C745 C744 1.367 . S
C745 C753 1.433 . S
C746 H742 0.929 . S
C746 C748 1.378 . S
C746 C750 1.350 . S
C747 C750 1.463 . S
C747 C752 1.350 . S
C747 N755 1.427 . S
C748 H739 0.930 . S
C748 C746 1.378 . S
C748 C749 1.367 . S
C749 C748 1.367 . S
C749 C751 1.433 . S
C750 C746 1.350 . S
C750 C747 1.463 . S
C750 N754 1.427 . S
C751 H741 0.929 . S
C751 C749 1.433 . S
C751 N754 1.384 . S
C752 H743 0.929 . S
C752 C744 1.378 . S
C752 C747 1.350 . S
C753 H740 0.929 . S
C753 C745 1.433 . S
C753 N755 1.384 . S
N754 C750 1.427 . S
N754 C751 1.384 . S
N755 C747 1.427 . S
N755 C753 1.384 . S
H756 C762 0.930 . S
H757 C766 0.930 . S
H758 C771 0.929 . S
H759 C769 0.929 . S
H760 C764 0.929 . S
H761 C770 0.929 . S
C762 H756 0.930 . S
C762 C763 1.367 . S
C762 C770 1.378 . S
C763 C762 1.367 . S
C763 C771 1.433 . S
C764 H760 0.929 . S
C764 C766 1.378 . S
C764 C768 1.350 . S
C765 C768 1.463 . S
C765 C770 1.350 . S
C765 N773 1.427 . S
C766 H757 0.930 . S
C766 C764 1.378 . S
C766 C767 1.367 . S
C767 C766 1.367 . S
C767 C769 1.433 . S
C768 C764 1.350 . S
C768 C765 1.463 . S
C768 N772 1.427 . S
C769 H759 0.929 . S
C769 C767 1.433 . S
C769 N772 1.384 . S
C770 H761 0.929 . S
C770 C762 1.378 . S
C770 C765 1.350 . S
C771 H758 0.929 . S
C771 C763 1.433 . S
C771 N773 1.384 . S
N772 C768 1.427 . S
N772 C769 1.384 . S
N773 C765 1.427 . S
N773 C771 1.384 . S
H774 C780 0.930 . S
H775 C784 0.930 . S
H776 C789 0.929 . S
H777 C787 0.929 . S
H778 C782 0.929 . S
H779 C788 0.929 . S
C780 H774 0.930 . S
C780 C781 1.367 . S
C780 C788 1.378 . S
C781 C780 1.367 . S
C781 C789 1.433 . S
C782 H778 0.929 . S
C782 C784 1.378 . S
C782 C786 1.350 . S
C783 C786 1.463 . S
C783 C788 1.350 . S
C783 N791 1.427 . S
C784 H775 0.930 . S
C784 C782 1.378 . S
C784 C785 1.367 . S
C785 C784 1.367 . S
C785 C787 1.433 . S
C786 C782 1.350 . S
C786 C783 1.463 . S
C786 N790 1.427 . S
C787 H777 0.929 . S
C787 C785 1.433 . S
C787 N790 1.384 . S
C788 H779 0.929 . S
C788 C780 1.378 . S
C788 C783 1.350 . S
C789 H776 0.929 . S
C789 C781 1.433 . S
C789 N791 1.384 . S
N790 C786 1.427 . S
N790 C787 1.384 . S
N791 C783 1.427 . S
N791 C789 1.384 . S
H792 C798 0.930 . S
H793 C802 0.930 . S
H794 C807 0.929 . S
H795 C805 0.929 . S
H796 C800 0.929 . S
H797 C806 0.929 . S
C798 H792 0.930 . S
C798 C799 1.367 . S
C798 C806 1.378 . S
C799 C798 1.367 . S
C799 C807 1.433 . S
C800 H796 0.929 . S
C800 C802 1.378 . S
C800 C804 1.350 . S
C801 C804 1.463 . S
C801 C806 1.350 . S
C801 N809 1.427 . S
C802 H793 0.930 . S
C802 C800 1.378 . S
C802 C803 1.367 . S
C803 C802 1.367 . S
C803 C805 1.433 . S
C804 C800 1.350 . S
C804 C801 1.463 . S
C804 N808 1.427 . S
C805 H795 0.929 . S
C805 C803 1.433 . S
C805 N808 1.384 . S
C806 H797 0.929 . S
C806 C798 1.378 . S
C806 C801 1.350 . S
C807 H794 0.929 . S
C807 C799 1.433 . S
C807 N809 1.384 . S
N808 C804 1.427 . S
N808 C805 1.384 . S
N809 C801 1.427 . S
N809 C807 1.384 . S
H810 C816 0.930 . S
H811 C820 0.930 . S
H812 C825 0.929 . S
H813 C823 0.929 . S
H814 C818 0.929 . S
H815 C824 0.929 . S
C816 H810 0.930 . S
C816 C817 1.367 . S
C816 C824 1.378 . S
C817 C816 1.367 . S
C817 C825 1.433 . S
C818 H814 0.929 . S
C818 C820 1.378 . S
C818 C822 1.350 . S
C819 C822 1.463 . S
C819 C824 1.350 . S
C819 N827 1.427 . S
C820 H811 0.930 . S
C820 C818 1.378 . S
C820 C821 1.367 . S
C821 C820 1.367 . S
C821 C823 1.433 . S
C822 C818 1.350 . S
C822 C819 1.463 . S
C822 N826 1.427 . S
C823 H813 0.929 . S
C823 C821 1.433 . S
C823 N826 1.384 . S
C824 H815 0.929 . S
C824 C816 1.378 . S
C824 C819 1.350 . S
C825 H812 0.929 . S
C825 C817 1.433 . S
C825 N827 1.384 . S
N826 C822 1.427 . S
N826 C823 1.384 . S
N827 C819 1.427 . S
N827 C825 1.384 . S
H828 C834 0.930 . S
H829 C838 0.930 . S
H830 C843 0.929 . S
H831 C841 0.929 . S
H832 C836 0.929 . S
H833 C842 0.929 . S
C834 H828 0.930 . S
C834 C835 1.367 . S
C834 C842 1.378 . S
C835 C834 1.367 . S
C835 C843 1.433 . S
C836 H832 0.929 . S
C836 C838 1.378 . S
C836 C840 1.350 . S
C837 C840 1.463 . S
C837 C842 1.350 . S
C837 N845 1.427 . S
C838 H829 0.930 . S
C838 C836 1.378 . S
C838 C839 1.367 . S
C839 C838 1.367 . S
C839 C841 1.433 . S
C840 C836 1.350 . S
C840 C837 1.463 . S
C840 N844 1.427 . S
C841 H831 0.929 . S
C841 C839 1.433 . S
C841 N844 1.384 . S
C842 H833 0.929 . S
C842 C834 1.378 . S
C842 C837 1.350 . S
C843 H830 0.929 . S
C843 C835 1.433 . S
C843 N845 1.384 . S
N844 C840 1.427 . S
N844 C841 1.384 . S
N845 C837 1.427 . S
N845 C843 1.384 . S
H846 C852 0.930 . S
H847 C856 0.930 . S
H848 C861 0.929 . S
H849 C859 0.929 . S
H850 C854 0.929 . S
H851 C860 0.929 . S
C852 H846 0.930 . S
C852 C853 1.367 . S
C852 C860 1.378 . S
C853 C852 1.367 . S
C853 C861 1.433 . S
C854 H850 0.929 . S
C854 C856 1.378 . S
C854 C858 1.350 . S
C855 C858 1.463 . S
C855 C860 1.350 . S
C855 N863 1.427 . S
C856 H847 0.930 . S
C856 C854 1.378 . S
C856 C857 1.367 . S
C857 C856 1.367 . S
C857 C859 1.433 . S
C858 C854 1.350 . S
C858 C855 1.463 . S
C858 N862 1.427 . S
C859 H849 0.929 . S
C859 C857 1.433 . S
C859 N862 1.384 . S
C860 H851 0.929 . S
C860 C852 1.378 . S
C860 C855 1.350 . S
C861 H848 0.929 . S
C861 C853 1.433 . S
C861 N863 1.384 . S
N862 C858 1.427 . S
N862 C859 1.384 . S
N863 C855 1.427 . S
N863 C861 1.384 . S
H864 C870 0.930 . S
H865 C874 0.930 . S
H866 C879 0.929 . S
H867 C877 0.929 . S
H868 C872 0.929 . S
H869 C878 0.929 . S
C870 H864 0.930 . S
C870 C871 1.367 . S
C870 C878 1.378 . S
C871 C870 1.367 . S
C871 C879 1.433 . S
C872 H868 0.929 . S
C872 C874 1.378 . S
C872 C876 1.350 . S
C873 C876 1.463 . S
C873 C878 1.350 . S
C873 N881 1.427 . S
C874 H865 0.930 . S
C874 C872 1.378 . S
C874 C875 1.367 . S
C875 C874 1.367 . S
C875 C877 1.433 . S
C876 C872 1.350 . S
C876 C873 1.463 . S
C876 N880 1.427 . S
C877 H867 0.929 . S
C877 C875 1.433 . S
C877 N880 1.384 . S
C878 H869 0.929 . S
C878 C870 1.378 . S
C878 C873 1.350 . S
C879 H866 0.929 . S
C879 C871 1.433 . S
C879 N881 1.384 . S
N880 C876 1.427 . S
N880 C877 1.384 . S
N881 C873 1.427 . S
N881 C879 1.384 . S
H882 C888 0.930 . S
H883 C892 0.930 . S
H884 C897 0.929 . S
H885 C895 0.929 . S
H886 C890 0.929 . S
H887 C896 0.929 . S
C888 H882 0.930 . S
C888 C889 1.367 . S
C888 C896 1.378 . S
C889 C888 1.367 . S
C889 C897 1.433 . S
C890 H886 0.929 . S
C890 C892 1.378 . S
C890 C894 1.350 . S
C891 C894 1.463 . S
C891 C896 1.350 . S
C891 N899 1.427 . S
C892 H883 0.930 . S
C892 C890 1.378 . S
C892 C893 1.367 . S
C893 C892 1.367 . S
C893 C895 1.433 . S
C894 C890 1.350 . S
C894 C891 1.463 . S
C894 N898 1.427 . S
C895 H885 0.929 . S
C895 C893 1.433 . S
C895 N898 1.384 . S
C896 H887 0.929 . S
C896 C888 1.378 . S
C896 C891 1.350 . S
C897 H884 0.929 . S
C897 C889 1.433 . S
C897 N899 1.384 . S
N898 C894 1.427 . S
N898 C895 1.384 . S
N899 C891 1.427 . S
N899 C897 1.384 . S
H900 C906 0.930 1_556 S
H901 C910 0.930 . S
H902 C915 0.929 1_556 S
H903 C913 0.929 . S
H904 C908 0.929 . S
H905 C914 0.929 . S
C906 H900 0.930 1_554 S
C906 C907 1.367 1_554 S
C906 C914 1.378 . S
C907 C906 1.367 1_556 S
C907 C915 1.433 1_556 S
C908 H904 0.929 . S
C908 C910 1.378 . S
C908 C912 1.350 . S
C909 C912 1.463 . S
C909 C914 1.350 . S
C909 N917 1.427 . S
C910 H901 0.930 . S
C910 C908 1.378 . S
C910 C911 1.367 . S
C911 C910 1.367 . S
C911 C913 1.433 . S
C912 C908 1.350 . S
C912 C909 1.463 . S
C912 N916 1.427 . S
C913 H903 0.929 . S
C913 C911 1.433 . S
C913 N916 1.384 . S
C914 H905 0.929 . S
C914 C906 1.378 . S
C914 C909 1.350 . S
C915 H902 0.929 1_554 S
C915 C907 1.433 1_554 S
C915 N917 1.384 . S
N916 C912 1.427 . S
N916 C913 1.384 . S
N917 C909 1.427 . S
N917 C915 1.384 . S
H918 C924 0.947 . S
H919 C928 0.930 . S
H920 C933 0.923 1_556 S
H921 C931 0.929 . S
H922 C926 0.929 . S
H923 C932 0.929 . S
C924 H918 0.947 . S
C924 C925 1.376 . S
C924 C932 1.351 1_556 S
C925 C924 1.376 . S
C925 C933 1.433 1_556 S
C926 H922 0.929 . S
C926 C928 1.378 . S
C926 C930 1.350 . S
C927 C930 1.463 . S
C927 C932 1.350 . S
C927 N935 1.427 . S
C928 H919 0.930 . S
C928 C926 1.378 . S
C928 C929 1.367 . S
C929 C928 1.367 . S
C929 C931 1.433 . S
C930 C926 1.350 . S
C930 C927 1.463 . S
C930 N934 1.427 . S
C931 H921 0.929 . S
C931 C929 1.433 . S
C931 N934 1.384 . S
C932 H923 0.929 . S
C932 C924 1.351 1_554 S
C932 C927 1.350 . S
C933 H920 0.923 1_554 S
C933 C925 1.433 1_554 S
C933 N935 1.384 . S
N934 C930 1.427 . S
N934 C931 1.384 . S
N935 C927 1.427 . S
N935 C933 1.384 . S
H936 C942 0.930 . S
H937 C946 0.930 . S
H938 C951 0.929 . S
H939 C949 0.929 . S
H940 C944 0.929 . S
H941 C950 0.929 . S
C942 H936 0.930 . S
C942 C943 1.367 . S
C942 C950 1.378 1_556 S
C943 C942 1.367 . S
C943 C951 1.433 1_556 S
C944 H940 0.929 . S
C944 C946 1.378 . S
C944 C948 1.350 . S
C945 C948 1.463 . S
C945 C950 1.350 . S
C945 N953 1.427 . S
C946 H937 0.930 . S
C946 C944 1.378 . S
C946 C947 1.367 . S
C947 C946 1.367 . S
C947 C949 1.433 . S
C948 C944 1.350 . S
C948 C945 1.463 . S
C948 N952 1.427 . S
C949 H939 0.929 . S
C949 C947 1.433 . S
C949 N952 1.384 . S
C950 H941 0.929 . S
C950 C942 1.378 1_554 S
C950 C945 1.350 . S
C951 H938 0.929 . S
C951 C943 1.433 1_554 S
C951 N953 1.384 . S
N952 C948 1.427 . S
N952 C949 1.384 . S
N953 C945 1.427 . S
N953 C951 1.384 . S
H954 C960 0.930 . S
H955 C964 0.930 1_554 S
H956 C969 0.929 . S
H957 C967 0.929 . S
H958 C962 0.929 . S
H959 C968 0.929 . S
C960 H954 0.930 . S
C960 C961 1.367 . S
C960 C968 1.378 . S
C961 C960 1.367 . S
C961 C969 1.433 . S
C962 H958 0.929 . S
C962 C964 1.378 . S
C962 C966 1.350 . S
C963 C966 1.463 . S
C963 C968 1.350 . S
C963 N971 1.427 . S
C964 H955 0.930 1_556 S
C964 C962 1.378 . S
C964 C965 1.367 1_556 S
C965 C964 1.367 1_554 S
C965 C967 1.433 . S
C966 C962 1.350 . S
C966 C963 1.463 . S
C966 N970 1.427 . S
C967 H957 0.929 . S
C967 C965 1.433 . S
C967 N970 1.384 1_554 S
C968 H959 0.929 . S
C968 C960 1.378 . S
C968 C963 1.350 . S
C969 H956 0.929 . S
C969 C961 1.433 . S
C969 N971 1.384 . S
N970 C966 1.427 . S
N970 C967 1.384 1_556 S
N971 C963 1.427 . S
N971 C969 1.384 . S
H972 C978 0.930 . S
H973 C982 0.925 1_554 S
H974 C987 0.929 . S
H975 C985 0.929 . S
H976 C980 0.929 . S
H977 C986 0.929 . S
C978 H972 0.930 . S
C978 C979 1.367 . S
C978 C986 1.378 . S
C979 C978 1.367 . S
C979 C987 1.433 . S
C980 H976 0.929 . S
C980 C982 1.402 . S
C980 C984 1.350 . S
C981 C984 1.463 . S
C981 C986 1.350 . S
C981 N989 1.427 . S
C982 H973 0.925 1_556 S
C982 C980 1.402 . S
C982 C983 1.349 1_556 S
C983 C982 1.349 1_554 S
C983 C985 1.433 . S
C984 C980 1.350 . S
C984 C981 1.463 . S
C984 N988 1.427 . S
C985 H975 0.929 . S
C985 C983 1.433 . S
C985 N988 1.384 1_554 S
C986 H977 0.929 . S
C986 C978 1.378 . S
C986 C981 1.350 . S
C987 H974 0.929 . S
C987 C979 1.433 . S
C987 N989 1.384 . S
N988 C984 1.427 . S
N988 C985 1.384 1_556 S
N989 C981 1.427 . S
N989 C987 1.384 . S
H990 C996 0.930 . S
H991 C1000 0.930 . S
H992 C1005 0.929 . S
H993 C1003 0.929 . S
H994 C998 0.929 . S
H995 C1004 0.929 . S
C996 H990 0.930 . S
C996 C997 1.367 . S
C996 C1004 1.378 . S
C997 C996 1.367 . S
C997 C1005 1.433 . S
C998 H994 0.929 . S
C998 C1000 1.378 1_556 S
C998 C1002 1.350 . S
C999 C1002 1.463 . S
C999 C1004 1.350 . S
C999 N1007 1.427 . S
C1000 H991 0.930 . S
C1000 C998 1.378 1_554 S
C1000 C1001 1.367 . S
C1001 C1000 1.367 . S
C1001 C1003 1.433 . S
C1002 C998 1.350 . S
C1002 C999 1.463 . S
C1002 N1006 1.427 . S
C1003 H993 0.929 . S
C1003 C1001 1.433 . S
C1003 N1006 1.384 1_554 S
C1004 H995 0.929 . S
C1004 C996 1.378 . S
C1004 C999 1.350 . S
C1005 H992 0.929 . S
C1005 C997 1.433 . S
C1005 N1007 1.384 . S
N1006 C1002 1.427 . S
N1006 C1003 1.384 1_556 S
N1007 C999 1.427 . S
N1007 C1005 1.384 . S
H1008 C1014 0.930 . S
H1009 C1018 0.930 . S
H1010 C1023 0.929 . S
H1011 C1021 0.929 . S
H1012 C1016 0.929 . S
H1013 C1022 0.929 . S
C1014 H1008 0.930 . S
C1014 C1015 1.367 . S
C1014 C1022 1.378 . S
C1015 C1014 1.367 . S
C1015 C1023 1.433 . S
C1016 H1012 0.929 . S
C1016 C1018 1.378 . S
C1016 C1020 1.350 . S
C1017 C1020 1.463 . S
C1017 C1022 1.350 . S
C1017 N1025 1.427 . S
C1018 H1009 0.930 . S
C1018 C1016 1.378 . S
C1018 C1019 1.367 . S
C1019 C1018 1.367 . S
C1019 C1021 1.433 . S
C1020 C1016 1.350 . S
C1020 C1017 1.463 . S
C1020 N1024 1.427 . S
C1021 H1011 0.929 . S
C1021 C1019 1.433 . S
C1021 N1024 1.384 . S
C1022 H1013 0.929 . S
C1022 C1014 1.378 . S
C1022 C1017 1.350 . S
C1023 H1010 0.929 . S
C1023 C1015 1.433 . S
C1023 N1025 1.384 . S
N1024 C1020 1.427 . S
N1024 C1021 1.384 . S
N1025 C1017 1.427 . S
N1025 C1023 1.384 . S
H1026 C1032 0.930 . S
H1027 C1036 0.930 . S
H1028 C1041 0.929 . S
H1029 C1039 0.929 . S
H1030 C1034 0.929 . S
H1031 C1040 0.929 . S
C1032 H1026 0.930 . S
C1032 C1033 1.367 . S
C1032 C1040 1.378 . S
C1033 C1032 1.367 . S
C1033 C1041 1.433 . S
C1034 H1030 0.929 . S
C1034 C1036 1.378 . S
C1034 C1038 1.350 . S
C1035 C1038 1.463 . S
C1035 C1040 1.350 . S
C1035 N1043 1.427 . S
C1036 H1027 0.930 . S
C1036 C1034 1.378 . S
C1036 C1037 1.367 . S
C1037 C1036 1.367 . S
C1037 C1039 1.433 . S
C1038 C1034 1.350 . S
C1038 C1035 1.463 . S
C1038 N1042 1.427 . S
C1039 H1029 0.929 . S
C1039 C1037 1.433 . S
C1039 N1042 1.384 . S
C1040 H1031 0.929 . S
C1040 C1032 1.378 . S
C1040 C1035 1.350 . S
C1041 H1028 0.929 . S
C1041 C1033 1.433 . S
C1041 N1043 1.384 . S
N1042 C1038 1.427 . S
N1042 C1039 1.384 . S
N1043 C1035 1.427 . S
N1043 C1041 1.384 . S
H1044 C1050 0.930 . S
H1045 C1054 0.930 . S
H1046 C1059 0.929 . S
H1047 C1057 0.929 . S
H1048 C1052 0.929 . S
H1049 C1058 0.929 . S
C1050 H1044 0.930 . S
C1050 C1051 1.367 . S
C1050 C1058 1.378 . S
C1051 C1050 1.367 . S
C1051 C1059 1.433 . S
C1052 H1048 0.929 . S
C1052 C1054 1.378 . S
C1052 C1056 1.350 . S
C1053 C1056 1.463 . S
C1053 C1058 1.350 . S
C1053 N1061 1.427 . S
C1054 H1045 0.930 . S
C1054 C1052 1.378 . S
C1054 C1055 1.367 . S
C1055 C1054 1.367 . S
C1055 C1057 1.433 . S
C1056 C1052 1.350 . S
C1056 C1053 1.463 . S
C1056 N1060 1.427 . S
C1057 H1047 0.929 . S
C1057 C1055 1.433 . S
C1057 N1060 1.384 . S
C1058 H1049 0.929 . S
C1058 C1050 1.378 . S
C1058 C1053 1.350 . S
C1059 H1046 0.929 . S
C1059 C1051 1.433 . S
C1059 N1061 1.384 . S
N1060 C1056 1.427 . S
N1060 C1057 1.384 . S
N1061 C1053 1.427 . S
N1061 C1059 1.384 . S
H1062 C1068 0.930 . S
H1063 C1072 0.930 1_554 S
H1064 C1077 0.929 . S
H1065 C1075 0.929 . S
H1066 C1070 0.929 . S
H1067 C1076 0.929 . S
C1068 H1062 0.930 . S
C1068 C1069 1.367 . S
C1068 C1076 1.378 . S
C1069 C1068 1.367 . S
C1069 C1077 1.433 . S
C1070 H1066 0.929 . S
C1070 C1072 1.378 . S
C1070 C1074 1.350 . S
C1071 C1074 1.463 . S
C1071 C1076 1.350 . S
C1071 N1079 1.427 . S
C1072 H1063 0.930 1_556 S
C1072 C1070 1.378 . S
C1072 C1073 1.367 1_565 S
C1073 C1072 1.367 1_545 S
C1073 C1075 1.433 . S
C1074 C1070 1.350 . S
C1074 C1071 1.463 . S
C1074 N1078 1.427 1_565 S
C1075 H1065 0.929 . S
C1075 C1073 1.433 . S
C1075 N1078 1.384 . S
C1076 H1067 0.929 . S
C1076 C1068 1.378 . S
C1076 C1071 1.350 . S
C1077 H1064 0.929 . S
C1077 C1069 1.433 . S
C1077 N1079 1.384 . S
N1078 C1074 1.427 1_545 S
N1078 C1075 1.384 . S
N1079 C1071 1.427 . S
N1079 C1077 1.384 . S
H1080 C1086 0.930 1_554 S
H1081 C1090 0.930 . S
H1082 C1095 0.929 . S
H1083 C1093 0.929 . S
H1084 C1088 0.929 . S
H1085 C1094 0.929 . S
C1086 H1080 0.930 1_556 S
C1086 C1087 1.367 1_455 S
C1086 C1094 1.378 . S
C1087 C1086 1.367 1_655 S
C1087 C1095 1.433 . S
C1088 H1084 0.929 . S
C1088 C1090 1.378 . S
C1088 C1092 1.350 . S
C1089 C1092 1.463 . S
C1089 C1094 1.350 . S
C1089 N1097 1.427 1_455 S
C1090 H1081 0.930 . S
C1090 C1088 1.378 . S
C1090 C1091 1.367 . S
C1091 C1090 1.367 . S
C1091 C1093 1.433 . S
C1092 C1088 1.350 . S
C1092 C1089 1.463 . S
C1092 N1096 1.427 . S
C1093 H1083 0.929 . S
C1093 C1091 1.433 . S
C1093 N1096 1.384 . S
C1094 H1085 0.929 . S
C1094 C1086 1.378 . S
C1094 C1089 1.350 . S
C1095 H1082 0.929 . S
C1095 C1087 1.433 . S
C1095 N1097 1.384 . S
N1096 C1092 1.427 . S
N1096 C1093 1.384 . S
N1097 C1089 1.427 1_655 S
N1097 C1095 1.384 . S
H1098 C1104 0.930 . S
H1099 C1108 0.930 . S
H1100 C1113 0.929 . S
H1101 C1111 0.939 . S
H1102 C1106 0.929 . S
H1103 C1112 0.929 . S
C1104 H1098 0.930 . S
C1104 C1105 1.367 . S
C1104 C1112 1.378 . S
C1105 C1104 1.367 . S
C1105 C1113 1.433 . S
C1106 H1102 0.929 . S
C1106 C1108 1.378 . S
C1106 C1110 1.350 . S
C1107 C1110 1.463 . S
C1107 C1112 1.350 . S
C1107 N1115 1.427 . S
C1108 H1099 0.930 . S
C1108 C1106 1.378 . S
C1108 C1109 1.367 . S
C1109 C1108 1.367 . S
C1109 C1111 1.428 1_556 S
C1110 C1106 1.350 . S
C1110 C1107 1.463 . S
C1110 N1114 1.427 . S
C1111 H1101 0.939 . S
C1111 C1109 1.428 1_554 S
C1111 N1114 1.379 1_554 S
C1112 H1103 0.929 . S
C1112 C1104 1.378 . S
C1112 C1107 1.350 . S
C1113 H1100 0.929 . S
C1113 C1105 1.433 . S
C1113 N1115 1.384 . S
N1114 C1110 1.427 . S
N1114 C1111 1.379 1_556 S
N1115 C1107 1.427 . S
N1115 C1113 1.384 . S
H1116 C1122 0.930 . S
H1117 C1126 0.930 . S
H1118 C1131 0.929 . S
H1119 C1129 0.929 . S
H1120 C1124 0.929 . S
H1121 C1130 0.929 . S
C1122 H1116 0.930 . S
C1122 C1123 1.367 1_455 S
C1122 C1130 1.378 . S
C1123 C1122 1.367 1_655 S
C1123 C1131 1.433 . S
C1124 H1120 0.929 . S
C1124 C1126 1.378 . S
C1124 C1128 1.350 . S
C1125 C1128 1.463 . S
C1125 C1130 1.350 . S
C1125 N1133 1.427 1_455 S
C1126 H1117 0.930 . S
C1126 C1124 1.378 . S
C1126 C1127 1.367 . S
C1127 C1126 1.367 . S
C1127 C1129 1.433 . S
C1128 C1124 1.350 . S
C1128 C1125 1.463 . S
C1128 N1132 1.427 . S
C1129 H1119 0.929 . S
C1129 C1127 1.433 . S
C1129 N1132 1.384 . S
C1130 H1121 0.929 . S
C1130 C1122 1.378 . S
C1130 C1125 1.350 . S
C1131 H1118 0.929 . S
C1131 C1123 1.433 . S
C1131 N1133 1.384 . S
N1132 C1128 1.427 . S
N1132 C1129 1.384 . S
N1133 C1125 1.427 1_655 S
N1133 C1131 1.384 . S
H1134 C1140 0.930 . S
H1135 C1144 0.930 . S
H1136 C1149 0.929 . S
H1137 C1147 0.929 . S
H1138 C1142 0.929 . S
H1139 C1148 0.929 . S
C1140 H1134 0.930 . S
C1140 C1141 1.367 . S
C1140 C1148 1.378 . S
C1141 C1140 1.367 . S
C1141 C1149 1.433 . S
C1142 H1138 0.929 . S
C1142 C1144 1.378 . S
C1142 C1146 1.350 . S
C1143 C1146 1.463 . S
C1143 C1148 1.350 . S
C1143 N1151 1.427 . S
C1144 H1135 0.930 . S
C1144 C1142 1.378 . S
C1144 C1145 1.367 . S
C1145 C1144 1.367 . S
C1145 C1147 1.433 . S
C1146 C1142 1.350 . S
C1146 C1143 1.463 . S
C1146 N1150 1.427 . S
C1147 H1137 0.929 . S
C1147 C1145 1.433 . S
C1147 N1150 1.384 . S
C1148 H1139 0.929 . S
C1148 C1140 1.378 . S
C1148 C1143 1.350 . S
C1149 H1136 0.929 . S
C1149 C1141 1.433 . S
C1149 N1151 1.384 . S
N1150 C1146 1.427 . S
N1150 C1147 1.384 . S
N1151 C1143 1.427 . S
N1151 C1149 1.384 . S
H1152 C1158 0.930 . S
H1153 C1162 0.930 . S
H1154 C1167 0.929 . S
H1155 C1165 0.929 . S
H1156 C1160 0.929 . S
H1157 C1166 0.929 . S
C1158 H1152 0.930 . S
C1158 C1159 1.367 . S
C1158 C1166 1.378 . S
C1159 C1158 1.367 . S
C1159 C1167 1.433 . S
C1160 H1156 0.929 . S
C1160 C1162 1.378 1_565 S
C1160 C1164 1.350 . S
C1161 C1164 1.463 . S
C1161 C1166 1.350 . S
C1161 N1169 1.427 . S
C1162 H1153 0.930 . S
C1162 C1160 1.378 1_545 S
C1162 C1163 1.367 . S
C1163 C1162 1.367 . S
C1163 C1165 1.433 . S
C1164 C1160 1.350 . S
C1164 C1161 1.463 . S
C1164 N1168 1.427 . S
C1165 H1155 0.929 . S
C1165 C1163 1.433 . S
C1165 N1168 1.384 1_545 S
C1166 H1157 0.929 . S
C1166 C1158 1.378 . S
C1166 C1161 1.350 . S
C1167 H1154 0.929 . S
C1167 C1159 1.433 . S
C1167 N1169 1.384 . S
N1168 C1164 1.427 . S
N1168 C1165 1.384 1_565 S
N1169 C1161 1.427 . S
N1169 C1167 1.384 . S
H1170 C1176 0.930 . S
H1171 C1180 0.930 . S
H1172 C1185 0.929 . S
H1173 C1183 0.929 . S
H1174 C1178 0.929 . S
H1175 C1184 0.929 . S
C1176 H1170 0.930 . S
C1176 C1177 1.367 . S
C1176 C1184 1.378 . S
C1177 C1176 1.367 . S
C1177 C1185 1.433 . S
C1178 H1174 0.929 . S
C1178 C1180 1.378 . S
C1178 C1182 1.350 . S
C1179 C1182 1.463 . S
C1179 C1184 1.350 . S
C1179 N1187 1.427 . S
C1180 H1171 0.930 . S
C1180 C1178 1.378 . S
C1180 C1181 1.367 . S
C1181 C1180 1.367 . S
C1181 C1183 1.433 . S
C1182 C1178 1.350 . S
C1182 C1179 1.463 . S
C1182 N1186 1.427 . S
C1183 H1173 0.929 . S
C1183 C1181 1.433 . S
C1183 N1186 1.384 . S
C1184 H1175 0.929 . S
C1184 C1176 1.378 . S
C1184 C1179 1.350 . S
C1185 H1172 0.929 . S
C1185 C1177 1.433 . S
C1185 N1187 1.384 . S
N1186 C1182 1.427 . S
N1186 C1183 1.384 . S
N1187 C1179 1.427 . S
N1187 C1185 1.384 . S
H1188 C1194 0.930 . S
H1189 C1198 0.930 . S
H1190 C1203 0.929 . S
H1191 C1201 0.929 . S
H1192 C1196 0.929 . S
H1193 C1202 0.929 . S
C1194 H1188 0.930 . S
C1194 C1195 1.367 . S
C1194 C1202 1.378 . S
C1195 C1194 1.367 . S
C1195 C1203 1.433 . S
C1196 H1192 0.929 . S
C1196 C1198 1.378 . S
C1196 C1200 1.350 . S
C1197 C1200 1.463 . S
C1197 C1202 1.350 . S
C1197 N1205 1.427 . S
C1198 H1189 0.930 . S
C1198 C1196 1.378 . S
C1198 C1199 1.367 . S
C1199 C1198 1.367 . S
C1199 C1201 1.433 . S
C1200 C1196 1.350 . S
C1200 C1197 1.463 . S
C1200 N1204 1.427 . S
C1201 H1191 0.929 . S
C1201 C1199 1.433 . S
C1201 N1204 1.384 . S
C1202 H1193 0.929 . S
C1202 C1194 1.378 . S
C1202 C1197 1.350 . S
C1203 H1190 0.929 . S
C1203 C1195 1.433 . S
C1203 N1205 1.384 . S
N1204 C1200 1.427 . S
N1204 C1201 1.384 . S
N1205 C1197 1.427 . S
N1205 C1203 1.384 . S
H1206 C1212 0.930 . S
H1207 C1216 0.930 . S
H1208 C1221 0.929 . S
H1209 C1219 0.930 . S
H1210 C1214 0.929 . S
H1211 C1220 0.929 . S
C1212 H1206 0.930 . S
C1212 C1213 1.367 . S
C1212 C1220 1.378 . S
C1213 C1212 1.367 . S
C1213 C1221 1.433 . S
C1214 H1210 0.929 . S
C1214 C1216 1.378 . S
C1214 C1218 1.350 . S
C1215 C1218 1.463 . S
C1215 C1220 1.350 . S
C1215 N1223 1.427 . S
C1216 H1207 0.930 . S
C1216 C1214 1.378 . S
C1216 C1217 1.367 . S
C1217 C1216 1.367 . S
C1217 C1219 1.433 . S
C1218 C1214 1.350 . S
C1218 C1215 1.463 . S
C1218 N1222 1.427 . S
C1219 H1209 0.930 . S
C1219 C1217 1.433 . S
C1219 N1222 1.384 . S
C1220 H1211 0.929 . S
C1220 C1212 1.378 . S
C1220 C1215 1.350 . S
C1221 H1208 0.929 . S
C1221 C1213 1.433 . S
C1221 N1223 1.384 . S
N1222 C1218 1.427 . S
N1222 C1219 1.384 . S
N1223 C1215 1.427 . S
N1223 C1221 1.384 . S
H1224 C1230 0.930 . S
H1225 C1234 0.930 . S
H1226 C1239 0.929 . S
H1227 C1237 0.929 . S
H1228 C1232 0.929 . S
H1229 C1238 0.929 . S
C1230 H1224 0.930 . S
C1230 C1231 1.367 . S
C1230 C1238 1.378 . S
C1231 C1230 1.367 . S
C1231 C1239 1.433 . S
C1232 H1228 0.929 . S
C1232 C1234 1.378 . S
C1232 C1236 1.350 . S
C1233 C1236 1.463 . S
C1233 C1238 1.350 . S
C1233 N1241 1.427 . S
C1234 H1225 0.930 . S
C1234 C1232 1.378 . S
C1234 C1235 1.367 . S
C1235 C1234 1.367 . S
C1235 C1237 1.433 . S
C1236 C1232 1.350 . S
C1236 C1233 1.463 . S
C1236 N1240 1.427 . S
C1237 H1227 0.929 . S
C1237 C1235 1.433 . S
C1237 N1240 1.384 . S
C1238 H1229 0.929 . S
C1238 C1230 1.378 . S
C1238 C1233 1.350 . S
C1239 H1226 0.929 . S
C1239 C1231 1.433 . S
C1239 N1241 1.384 . S
N1240 C1236 1.427 . S
N1240 C1237 1.384 . S
N1241 C1233 1.427 . S
N1241 C1239 1.384 . S
H1242 C1248 0.930 . S
H1243 C1252 0.930 . S
H1244 C1257 0.929 . S
H1245 C1255 0.929 . S
H1246 C1250 0.929 . S
H1247 C1256 0.929 . S
C1248 H1242 0.930 . S
C1248 C1249 1.367 . S
C1248 C1256 1.378 . S
C1249 C1248 1.367 . S
C1249 C1257 1.433 . S
C1250 H1246 0.929 . S
C1250 C1252 1.378 . S
C1250 C1254 1.350 . S
C1251 C1254 1.463 . S
C1251 C1256 1.350 . S
C1251 N1259 1.427 . S
C1252 H1243 0.930 . S
C1252 C1250 1.378 . S
C1252 C1253 1.367 . S
C1253 C1252 1.367 . S
C1253 C1255 1.433 . S
C1254 C1250 1.350 . S
C1254 C1251 1.463 . S
C1254 N1258 1.427 . S
C1255 H1245 0.929 . S
C1255 C1253 1.433 . S
C1255 N1258 1.384 . S
C1256 H1247 0.929 . S
C1256 C1248 1.378 . S
C1256 C1251 1.350 . S
C1257 H1244 0.929 . S
C1257 C1249 1.433 . S
C1257 N1259 1.384 . S
N1258 C1254 1.427 . S
N1258 C1255 1.384 . S
N1259 C1251 1.427 . S
N1259 C1257 1.384 . S
H1260 C1266 0.930 . S
H1261 C1270 0.930 . S
H1262 C1275 0.929 . S
H1263 C1273 0.929 . S
H1264 C1268 0.929 . S
H1265 C1274 0.929 . S
C1266 H1260 0.930 . S
C1266 C1267 1.367 . S
C1266 C1274 1.378 . S
C1267 C1266 1.367 . S
C1267 C1275 1.433 . S
C1268 H1264 0.929 . S
C1268 C1270 1.378 . S
C1268 C1272 1.350 . S
C1269 C1272 1.463 . S
C1269 C1274 1.350 . S
C1269 N1277 1.427 . S
C1270 H1261 0.930 . S
C1270 C1268 1.378 . S
C1270 C1271 1.367 . S
C1271 C1270 1.367 . S
C1271 C1273 1.433 . S
C1272 C1268 1.350 . S
C1272 C1269 1.463 . S
C1272 N1276 1.427 . S
C1273 H1263 0.929 . S
C1273 C1271 1.433 . S
C1273 N1276 1.384 . S
C1274 H1265 0.929 . S
C1274 C1266 1.378 . S
C1274 C1269 1.350 . S
C1275 H1262 0.929 . S
C1275 C1267 1.433 . S
C1275 N1277 1.384 . S
N1276 C1272 1.427 . S
N1276 C1273 1.384 . S
N1277 C1269 1.427 . S
N1277 C1275 1.384 . S
H1278 C1284 0.930 . S
H1279 C1288 0.930 . S
H1280 C1293 0.929 . S
H1281 C1291 0.929 . S
H1282 C1286 0.929 . S
H1283 C1292 0.929 . S
C1284 H1278 0.930 . S
C1284 C1285 1.367 . S
C1284 C1292 1.378 . S
C1285 C1284 1.367 . S
C1285 C1293 1.433 . S
C1286 H1282 0.929 . S
C1286 C1288 1.378 . S
C1286 C1290 1.350 . S
C1287 C1290 1.463 . S
C1287 C1292 1.350 . S
C1287 N1295 1.427 . S
C1288 H1279 0.930 . S
C1288 C1286 1.378 . S
C1288 C1289 1.367 . S
C1289 C1288 1.367 . S
C1289 C1291 1.433 . S
C1290 C1286 1.350 . S
C1290 C1287 1.463 . S
C1290 N1294 1.427 . S
C1291 H1281 0.929 . S
C1291 C1289 1.433 . S
C1291 N1294 1.384 . S
C1292 H1283 0.929 . S
C1292 C1284 1.378 . S
C1292 C1287 1.350 . S
C1293 H1280 0.929 . S
C1293 C1285 1.433 . S
C1293 N1295 1.384 . S
N1294 C1290 1.427 . S
N1294 C1291 1.384 . S
N1295 C1287 1.427 . S
N1295 C1293 1.384 . S
H1296 C1302 0.930 . S
H1297 C1306 0.930 . S
H1298 C1311 0.929 . S
H1299 C1309 0.929 . S
H1300 C1304 0.929 . S
H1301 C1310 0.929 . S
C1302 H1296 0.930 . S
C1302 C1303 1.367 . S
C1302 C1310 1.378 . S
C1303 C1302 1.367 . S
C1303 C1311 1.433 . S
C1304 H1300 0.929 . S
C1304 C1306 1.378 . S
C1304 C1308 1.350 . S
C1305 C1308 1.463 . S
C1305 C1310 1.350 . S
C1305 N1313 1.427 . S
C1306 H1297 0.930 . S
C1306 C1304 1.378 . S
C1306 C1307 1.367 . S
C1307 C1306 1.367 . S
C1307 C1309 1.433 . S
C1308 C1304 1.350 . S
C1308 C1305 1.463 . S
C1308 N1312 1.427 . S
C1309 H1299 0.929 . S
C1309 C1307 1.433 . S
C1309 N1312 1.384 . S
C1310 H1301 0.929 . S
C1310 C1302 1.378 . S
C1310 C1305 1.350 . S
C1311 H1298 0.929 . S
C1311 C1303 1.433 . S
C1311 N1313 1.384 . S
N1312 C1308 1.427 . S
N1312 C1309 1.384 . S
N1313 C1305 1.427 . S
N1313 C1311 1.384 . S
H1314 C1320 0.930 . S
H1315 C1324 0.930 . S
H1316 C1329 0.929 . S
H1317 C1327 0.929 . S
H1318 C1322 0.929 . S
H1319 C1328 0.929 . S
C1320 H1314 0.930 . S
C1320 C1321 1.367 . S
C1320 C1328 1.378 . S
C1321 C1320 1.367 . S
C1321 C1329 1.433 . S
C1322 H1318 0.929 . S
C1322 C1324 1.378 . S
C1322 C1326 1.350 . S
C1323 C1326 1.463 . S
C1323 C1328 1.350 . S
C1323 N1331 1.427 . S
C1324 H1315 0.930 . S
C1324 C1322 1.378 . S
C1324 C1325 1.367 . S
C1325 C1324 1.367 . S
C1325 C1327 1.433 . S
C1326 C1322 1.350 . S
C1326 C1323 1.463 . S
C1326 N1330 1.427 . S
C1327 H1317 0.929 . S
C1327 C1325 1.433 . S
C1327 N1330 1.384 . S
C1328 H1319 0.929 . S
C1328 C1320 1.378 . S
C1328 C1323 1.350 . S
C1329 H1316 0.929 . S
C1329 C1321 1.433 . S
C1329 N1331 1.384 . S
N1330 C1326 1.427 . S
N1330 C1327 1.384 . S
N1331 C1323 1.427 . S
N1331 C1329 1.384 . S
H1332 C1338 0.930 . S
H1333 C1342 0.930 1_556 S
H1334 C1347 0.929 . S
H1335 C1345 0.929 . S
H1336 C1340 0.929 . S
H1337 C1346 0.929 . S
C1338 H1332 0.930 . S
C1338 C1339 1.367 . S
C1338 C1346 1.378 . S
C1339 C1338 1.367 . S
C1339 C1347 1.433 . S
C1340 H1336 0.929 . S
C1340 C1342 1.378 . S
C1340 C1344 1.350 . S
C1341 C1344 1.463 . S
C1341 C1346 1.350 . S
C1341 N1349 1.427 . S
C1342 H1333 0.930 1_554 S
C1342 C1340 1.378 . S
C1342 C1343 1.367 . S
C1343 C1342 1.367 . S
C1343 C1345 1.433 . S
C1344 C1340 1.350 . S
C1344 C1341 1.463 . S
C1344 N1348 1.427 . S
C1345 H1335 0.929 . S
C1345 C1343 1.433 . S
C1345 N1348 1.384 . S
C1346 H1337 0.929 . S
C1346 C1338 1.378 . S
C1346 C1341 1.350 . S
C1347 H1334 0.929 . S
C1347 C1339 1.433 . S
C1347 N1349 1.384 . S
N1348 C1344 1.427 . S
N1348 C1345 1.384 . S
N1349 C1341 1.427 . S
N1349 C1347 1.384 . S
H1350 C1356 0.930 . S
H1351 C1360 0.930 1_556 S
H1352 C1365 0.929 . S
H1353 C1363 0.929 . S
H1354 C1358 0.929 . S
H1355 C1364 0.929 . S
C1356 H1350 0.930 . S
C1356 C1357 1.367 . S
C1356 C1364 1.378 . S
C1357 C1356 1.367 . S
C1357 C1365 1.433 . S
C1358 H1354 0.929 . S
C1358 C1360 1.378 . S
C1358 C1362 1.350 . S
C1359 C1362 1.463 . S
C1359 C1364 1.350 . S
C1359 N1367 1.427 . S
C1360 H1351 0.930 1_554 S
C1360 C1358 1.378 . S
C1360 C1361 1.367 . S
C1361 C1360 1.367 . S
C1361 C1363 1.433 . S
C1362 C1358 1.350 . S
C1362 C1359 1.463 . S
C1362 N1366 1.427 . S
C1363 H1353 0.929 . S
C1363 C1361 1.433 . S
C1363 N1366 1.384 . S
C1364 H1355 0.929 . S
C1364 C1356 1.378 . S
C1364 C1359 1.350 . S
C1365 H1352 0.929 . S
C1365 C1357 1.433 . S
C1365 N1367 1.384 . S
N1366 C1362 1.427 . S
N1366 C1363 1.384 . S
N1367 C1359 1.427 . S
N1367 C1365 1.384 . S
H1368 C1374 0.930 . S
H1369 C1378 0.930 . S
H1370 C1383 0.929 . S
H1371 C1381 0.929 . S
H1372 C1376 0.929 . S
H1373 C1382 0.929 . S
C1374 H1368 0.930 . S
C1374 C1375 1.367 . S
C1374 C1382 1.378 . S
C1375 C1374 1.367 . S
C1375 C1383 1.433 . S
C1376 H1372 0.929 . S
C1376 C1378 1.378 . S
C1376 C1380 1.350 . S
C1377 C1380 1.463 . S
C1377 C1382 1.350 . S
C1377 N1385 1.427 . S
C1378 H1369 0.930 . S
C1378 C1376 1.378 . S
C1378 C1379 1.367 . S
C1379 C1378 1.367 . S
C1379 C1381 1.433 . S
C1380 C1376 1.350 . S
C1380 C1377 1.463 . S
C1380 N1384 1.427 . S
C1381 H1371 0.929 . S
C1381 C1379 1.433 . S
C1381 N1384 1.384 . S
C1382 H1373 0.929 . S
C1382 C1374 1.378 . S
C1382 C1377 1.350 . S
C1383 H1370 0.929 . S
C1383 C1375 1.433 . S
C1383 N1385 1.384 . S
N1384 C1380 1.427 . S
N1384 C1381 1.384 . S
N1385 C1377 1.427 . S
N1385 C1383 1.384 . S
C421 C18 0.839 1_556 S
C425 C62 0.843 . S
C439 C16 0.847 . S
C443 C41 0.845 1_556 S
C457 C64 0.830 1_556 S
C461 C39 0.839 . S
C475 C108 0.840 . S
C479 C87 0.833 . S
C493 C131 0.839 . S
C497 C110 0.828 . S
C511 C133 0.844 . S
C515 C85 0.847 . S
C529 C200 0.847 . S
C533 C156 0.846 . S
C547 C179 0.828 . S
C551 C154 0.839 . S
C565 C177 0.844 . S
C569 C202 0.840 . S
C583 C225 0.846 . S
C587 C246 0.847 . S
C601 C269 0.846 . S
C605 C248 0.843 . S
C619 C271 0.845 . S
C623 C223 0.846 . S
C637 C338 0.845 1_565 S
C641 C294 0.839 . S
C655 C317 0.844 . S
C659 C292 0.846 1_455 S
C673 C340 0.830 . S
C677 C315 0.840 . S
C691 C363 0.844 . S
C695 C384 0.847 1_455 S
C709 C407 0.837 . S
C713 C386 0.825 . S
C727 C361 0.837 1_565 S
C731 C409 0.825 . S
C745 C134 0.980 . S
C749 C20 1.008 . S
C763 C88 0.997 . S
C767 C43 0.997 . S
C781 C111 0.996 . S
C785 C66 0.997 . S
C799 C42 0.980 . S
C803 C89 1.008 . S
C817 C112 1.005 . S
C821 C65 0.985 . S
C835 C19 0.996 . S
C839 C135 0.994 . S
C853 C158 0.996 . S
C857 C272 0.993 . S
C871 C181 0.999 . S
C875 C226 0.994 . S
C889 C249 0.982 . S
C893 C204 1.005 . S
C907 C227 1.008 . S
C911 C180 0.980 . S
C925 C250 0.995 . S
C929 C203 0.995 . S
C943 C273 0.997 . S
C947 C157 0.992 . S
C961 C296 1.000 . S
C965 C410 0.992 . S
C979 C319 0.996 . S
C983 C364 0.997 . S
C997 C342 0.993 . S
C1001 C387 1.000 . S
C1015 C365 0.997 . S
C1019 C318 0.996 . S
C1033 C388 0.994 . S
C1037 C341 0.998 . S
C1051 C411 0.993 . S
C1055 C295 1.000 . S
C1069 C251 2.131 . S
C1073 C17 2.104 . S
C1087 C40 2.104 . S
C1091 C274 2.131 . S
C1105 C228 2.126 . S
C1109 C63 2.097 . S
C1123 C86 2.104 . S
C1127 C205 2.131 . S
C1141 C109 2.100 . S
C1145 C159 2.128 . S
C1159 C182 2.127 . S
C1163 C132 2.099 . S
C1177 C155 2.103 . S
C1181 C389 2.130 1_455 S
C1195 C178 2.099 . S
C1199 C412 2.127 . S
C1213 C201 2.100 . S
C1217 C366 2.128 1_565 S
C1231 C343 2.131 1_565 S
C1235 C224 2.104 . S
C1249 C297 2.126 1_455 S
C1253 C247 2.097 . S
C1267 C320 2.125 . S
C1271 C270 2.096 . S
C1285 C113 2.125 . S
C1289 C293 2.096 . S
C1303 C316 2.096 . S
C1307 C136 2.125 . S
C1321 C90 2.126 . S
C1325 C339 2.098 . S
C1339 C362 2.105 . S
C1343 C67 2.131 . S
C1357 C385 2.105 . S
C1361 C21 2.131 . S
C1375 C44 2.126 . S
C1379 C408 2.097 . S
