# Generated by pormake.
# Topology umm, (4)-cn, num edge types: 1
# Building blocks:
#     Node 0, Type 0, BuildingBlock: KUFVIS_clean_sbu_0, # of connection points: 4
#     Node 1, Type 0, BuildingBlock: KUFVIS_clean_sbu_0, # of connection points: 4
#     Node 2, Type 0, BuildingBlock: KUFVIS_clean_sbu_0, # of connection points: 4
#     Node 3, Type 0, BuildingBlock: KUFVIS_clean_sbu_0, # of connection points: 4
#     Node 4, Type 0, BuildingBlock: KUFVIS_clean_sbu_0, # of connection points: 4
#     Node 5, Type 0, BuildingBlock: KUFVIS_clean_sbu_0, # of connection points: 4
#     Node 6, Type 0, BuildingBlock: KUFVIS_clean_sbu_0, # of connection points: 4
#     Node 7, Type 0, BuildingBlock: KUFVIS_clean_sbu_0, # of connection points: 4
#     Node 8, Type 0, BuildingBlock: KUFVIS_clean_sbu_0, # of connection points: 4
#     Node 9, Type 0, BuildingBlock: KUFVIS_clean_sbu_0, # of connection points: 4
#     Node 10, Type 0, BuildingBlock: KUFVIS_clean_sbu_0, # of connection points: 4
#     Node 11, Type 0, BuildingBlock: KUFVIS_clean_sbu_0, # of connection points: 4
#     Edge 12, Type (0, 0), None
#     Edge 13, Type (0, 0), None
#     Edge 14, Type (0, 0), None
#     Edge 15, Type (0, 0), None
#     Edge 16, Type (0, 0), None
#     Edge 17, Type (0, 0), None
#     Edge 18, Type (0, 0), None
#     Edge 19, Type (0, 0), None
#     Edge 20, Type (0, 0), None
#     Edge 21, Type (0, 0), None
#     Edge 22, Type (0, 0), None
#     Edge 23, Type (0, 0), None
#     Edge 24, Type (0, 0), None
#     Edge 25, Type (0, 0), None
#     Edge 26, Type (0, 0), None
#     Edge 27, Type (0, 0), None
#     Edge 28, Type (0, 0), None
#     Edge 29, Type (0, 0), None
#     Edge 30, Type (0, 0), None
#     Edge 31, Type (0, 0), None
#     Edge 32, Type (0, 0), None
#     Edge 33, Type (0, 0), None
#     Edge 34, Type (0, 0), None
#     Edge 35, Type (0, 0), None
# Relax obj value: 0.151
# Max RMSD: 0.467
# Mean RMSD: 0.284
data_MOF--net-umm--node1-KUFVIS_clean_sbu_0--edge1-none
_symmetry_space_group_name_H-M    P1
_symmetry_Int_Tables_number       1
_symmetry_cell_setting            triclinic
loop_
_symmetry_equiv_pos_as_xyz
'x, y, z'
_cell_length_a     28.430553
_cell_length_b     25.098675
_cell_length_c     12.064671
_cell_angle_alpha  89.99878
_cell_angle_beta   90.001245
_cell_angle_gamma 116.17296
loop_
_atom_site_label
_atom_site_type_symbol
_atom_site_fract_x
_atom_site_fract_y
_atom_site_fract_z
_atom_type_partial_charge
Mn0 Mn 0.3158 0.43471 0.03574 0.0
Mn1 Mn 0.40719 0.55689 0.04883 0.0
C2 C 0.34215 0.48395 0.86316 0.0
C3 C 0.23394 0.45427 -0.00927 0.0
C4 C 0.4353 0.4532 0.07253 0.0
O5 O 0.31596 0.45196 0.20196 0.0
O6 O 0.37051 0.5467 0.19165 0.0
C7 C 0.36542 0.64351 0.0373 0.0
N8 N 0.40707 0.63114 0.02995 0.0
C9 C 0.46123 0.72725 0.95647 0.0
C10 C 0.42387 0.74526 -0.00995 0.0
C11 C 0.37312 0.7015 0.01653 0.0
C12 C 0.45056 0.6683 0.97655 0.0
H13 H 0.32745 0.60975 0.06244 0.0
C14 C 0.34371 0.50149 0.24944 0.0
O15 O 0.23334 0.40401 0.00484 0.0
O16 O 0.28007 0.49436 0.01082 0.0
N17 N 0.45494 0.5816 0.92892 0.0
C18 C 0.4692 0.54924 0.86017 0.0
C19 C 0.50244 0.57745 0.7723 0.0
C20 C 0.51856 0.63824 0.7534 0.0
C21 C 0.50874 0.67198 0.832 0.0
C22 C 0.4752 0.64145 0.91843 0.0
H23 H 0.44788 0.50227 0.86256 0.0
O24 O 0.32434 0.42801 0.87303 0.0
O25 O 0.34341 0.51328 0.95401 0.0
O26 O 0.40006 0.4719 0.06175 0.0
O27 O 0.40204 0.47384 0.0621 0.0
C28 C 0.52546 0.73348 0.81982 0.0
C29 C 0.50288 0.76197 0.8861 0.0
H30 H 0.43321 0.79163 -0.01584 0.0
H31 H 0.34017 0.71158 0.02447 0.0
H32 H 0.51232 0.55138 0.71646 0.0
H33 H 0.53579 0.65901 0.67588 0.0
H34 H 0.55264 0.75819 0.75485 0.0
H35 H 0.51245 0.80814 0.87046 0.0
Mn36 Mn 0.81845 0.34351 0.36666 0.0
Mn37 Mn 0.8482 0.49136 0.38185 0.0
C38 C 0.82451 0.39194 0.20276 0.0
C39 C 0.74051 0.24236 0.34325 0.0
C40 C 0.9342 0.45911 0.38941 0.0
O41 O 0.81165 0.35409 0.53368 0.0
O42 O 0.82874 0.45051 0.53392 0.0
C43 C 0.73693 0.45123 0.37616 0.0
N44 N 0.7854 0.49561 0.36493 0.0
C45 C 0.7542 0.56136 0.28686 0.0
C46 C 0.70505 0.52232 0.32341 0.0
C47 C 0.69517 0.46335 0.35082 0.0
C48 C 0.79389 0.54501 0.30632 0.0
H49 H 0.73094 0.40803 0.40592 0.0
C50 C 0.818 0.40115 0.58537 0.0
O51 O 0.78716 0.24946 0.36882 0.0
O52 O 0.73788 0.29176 0.34548 0.0
N53 N 0.8687 0.54024 0.25233 0.0
C54 C 0.90511 0.54739 0.17411 0.0
C55 C 0.91189 0.58635 0.08431 0.0
C56 C 0.88384 0.62024 0.08087 0.0
C57 C 0.84522 0.6103 0.16048 0.0
C58 C 0.83853 0.56883 0.24437 0.0
H59 H 0.92427 0.51874 0.17621 0.0
O60 O 0.82155 0.34022 0.20666 0.0
O61 O 0.81974 0.41444 0.29825 0.0
O62 O 0.90428 0.40084 0.38162 0.0
O63 O 0.9162 0.49635 0.39446 0.0
C64 C 0.80889 0.63414 0.15207 0.0
C65 C 0.76311 0.6099 0.21706 0.0
H66 H 0.67614 0.53839 0.32391 0.0
H67 H 0.65714 0.42755 0.36205 0.0
H68 H 0.93785 0.58982 0.01645 0.0
H69 H 0.88919 0.64994 0.01176 0.0
H70 H 0.81336 0.66697 0.08945 0.0
H71 H 0.73265 0.62396 0.20278 0.0
Mn72 Mn 0.38922 0.80635 0.70335 0.0
Mn73 Mn 0.31745 0.8828 0.72514 0.0
C74 C 0.35936 0.83014 0.54043 0.0
C75 C 0.38853 0.71335 0.67284 0.0
C76 C 0.43855 0.94469 0.73878 0.0
O77 O 0.37281 0.80173 0.8714 0.0
O78 O 0.32687 0.85345 0.86981 0.0
C79 C 0.2387 0.75947 0.71165 0.0
N80 N 0.24999 0.81761 0.69821 0.0
C81 C 0.17432 0.78995 0.58032 0.0
C82 C 0.15664 0.73093 0.61373 0.0
C83 C 0.19097 0.71508 0.6729 0.0
C84 C 0.22333 0.83118 0.61953 0.0
H85 H 0.26759 0.74747 0.74663 0.0
C86 C 0.34844 0.82668 0.92244 0.0
O87 O 0.43058 0.75838 0.70749 0.0
O88 O 0.34576 0.71939 0.67649 0.0
N89 N 0.2979 0.92023 0.60819 0.0
C90 C 0.3125 -0.02082 0.61174 0.0
C91 C 0.28802 0.00498 0.54309 0.0
C92 C 0.24371 0.9682 0.48179 0.0
C93 C 0.22137 0.9071 0.50159 0.0
C94 C 0.24858 0.88573 0.57203 0.0
H95 H 0.33891 0.00411 0.67669 0.0
O96 O 0.3938 0.81063 0.54061 0.0
O97 O 0.34275 0.83545 0.63816 0.0
O98 O 0.44303 0.89572 0.72725 0.0
O99 O 0.39319 0.9466 0.74003 0.0
C100 C 0.17076 0.86782 0.46513 0.0
C101 C 0.14752 0.80868 0.50313 0.0
H102 H 0.11925 0.69701 0.58566 0.0
H103 H 0.18192 0.66908 0.68552 0.0
H104 H 0.30078 0.05245 0.5434 0.0
H105 H 0.2239 -0.0124 0.43087 0.0
H106 H 0.14911 0.88286 0.40969 0.0
H107 H 0.10927 0.77807 0.47236 0.0
Mn108 Mn 0.61176 0.51273 0.03572 0.0
Mn109 Mn 0.52038 0.39054 0.04883 0.0
C110 C 0.58541 0.46348 0.86315 0.0
C111 C 0.69362 0.49315 -0.00928 0.0
C112 C 0.49226 0.49421 0.07272 0.0
O113 O 0.6116 0.49547 0.20194 0.0
O114 O 0.55706 0.40073 0.19164 0.0
C115 C 0.56215 0.30392 0.0373 0.0
N116 N 0.5205 0.31629 0.02994 0.0
C117 C 0.46634 0.22019 0.95647 0.0
C118 C 0.5037 0.20217 -0.00995 0.0
C119 C 0.55445 0.24593 0.01653 0.0
C120 C 0.47701 0.27913 0.97655 0.0
H121 H 0.60012 0.33768 0.06244 0.0
C122 C 0.58386 0.44595 0.24943 0.0
O123 O 0.69422 0.54341 0.00482 0.0
O124 O 0.64749 0.45307 0.01081 0.0
N125 N 0.47263 0.36583 0.92892 0.0
C126 C 0.45837 0.39819 0.86016 0.0
C127 C 0.42513 0.36999 0.77229 0.0
C128 C 0.40901 0.3092 0.75339 0.0
C129 C 0.41883 0.27545 0.83199 0.0
C130 C 0.45237 0.30599 0.91843 0.0
H131 H 0.4797 0.44516 0.86255 0.0
O132 O 0.60322 0.51942 0.87301 0.0
O133 O 0.58415 0.43416 0.95401 0.0
O134 O 0.5275 0.47553 0.06174 0.0
O135 O 0.52552 0.47359 0.06211 0.0
C136 C 0.40211 0.21395 0.81981 0.0
C137 C 0.42468 0.18547 0.8861 0.0
H138 H 0.49436 0.1558 -0.01583 0.0
H139 H 0.5874 0.23585 0.02447 0.0
H140 H 0.41526 0.39605 0.71645 0.0
H141 H 0.39179 0.28843 0.67587 0.0
H142 H 0.37492 0.18925 0.75484 0.0
H143 H 0.41511 0.13929 0.87047 0.0
Mn144 Mn 0.1091 0.6039 0.36667 0.0
Mn145 Mn 0.07936 0.45605 0.38188 0.0
C146 C 0.10304 0.55546 0.20277 0.0
C147 C 0.18703 0.70505 0.34326 0.0
C148 C -0.00665 0.48829 0.38942 0.0
O149 O 0.11589 0.59332 0.53369 0.0
O150 O 0.09881 0.4969 0.53394 0.0
C151 C 0.19063 0.49618 0.37618 0.0
N152 N 0.14215 0.45181 0.36496 0.0
C153 C 0.17336 0.38605 0.28689 0.0
C154 C 0.22251 0.4251 0.32342 0.0
C155 C 0.23239 0.48408 0.35083 0.0
C156 C 0.13367 0.40241 0.30635 0.0
H157 H 0.19661 0.53939 0.40593 0.0
C158 C 0.10955 0.54626 0.58539 0.0
O159 O 0.14039 0.69795 0.36882 0.0
O160 O 0.18967 0.65565 0.34549 0.0
N161 N 0.05885 0.40717 0.25235 0.0
C162 C 0.02244 0.40002 0.17414 0.0
C163 C 0.01567 0.36105 0.08434 0.0
C164 C 0.04372 0.32717 0.08091 0.0
C165 C 0.08233 0.33711 0.16052 0.0
C166 C 0.08902 0.37858 0.24441 0.0
H167 H 0.00328 0.42866 0.17624 0.0
O168 O 0.106 0.60719 0.20667 0.0
O169 O 0.10781 0.53297 0.29827 0.0
O170 O 0.02327 0.54657 0.38162 0.0
O171 O 0.01135 0.45106 0.39448 0.0
C172 C 0.11867 0.31328 0.15211 0.0
C173 C 0.16445 0.33752 0.21709 0.0
H174 H 0.25142 0.40904 0.32392 0.0
H175 H 0.27042 0.51987 0.36205 0.0
H176 H -0.01029 0.35759 0.01648 0.0
H177 H 0.03836 0.29747 0.0118 0.0
H178 H 0.1142 0.28044 0.08949 0.0
H179 H 0.19491 0.32346 0.20282 0.0
Mn180 Mn 0.53833 0.14107 0.70334 0.0
Mn181 Mn 0.61009 0.06462 0.72515 0.0
C182 C 0.56818 0.11728 0.54043 0.0
C183 C 0.53902 0.23408 0.67283 0.0
C184 C 0.489 0.00273 0.7388 0.0
O185 O 0.55474 0.14569 0.8714 0.0
O186 O 0.60068 0.09397 0.86982 0.0
C187 C 0.68885 0.18794 0.71165 0.0
N188 N 0.67755 0.12981 0.69822 0.0
C189 C 0.75322 0.15746 0.58032 0.0
C190 C 0.77091 0.21649 0.61374 0.0
C191 C 0.73658 0.23234 0.6729 0.0
C192 C 0.70421 0.11624 0.61954 0.0
H193 H 0.65996 0.19995 0.74664 0.0
C194 C 0.57911 0.12074 0.92244 0.0
O195 O 0.49698 0.18905 0.70748 0.0
O196 O 0.5818 0.22804 0.67648 0.0
N197 N 0.62965 0.02719 0.60821 0.0
C198 C 0.61505 0.96824 0.61177 0.0
C199 C 0.63953 0.94243 0.54314 0.0
C200 C 0.68383 -0.02079 0.48182 0.0
C201 C 0.70617 0.04032 0.50161 0.0
C202 C 0.67897 0.06169 0.57204 0.0
H203 H 0.58864 0.94331 0.67673 0.0
O204 O 0.53375 0.13679 0.5406 0.0
O205 O 0.5848 0.11197 0.63817 0.0
O206 O 0.48452 0.0517 0.72724 0.0
O207 O 0.53436 0.00082 0.74004 0.0
C208 C 0.75679 0.07959 0.46514 0.0
C209 C 0.78003 0.13873 0.50314 0.0
H210 H 0.8083 0.25041 0.58567 0.0
H211 H 0.74563 0.27834 0.68551 0.0
H212 H 0.62677 0.89496 0.54346 0.0
H213 H 0.70364 0.95981 0.43091 0.0
H214 H 0.77843 0.06455 0.40971 0.0
H215 H 0.81828 0.16935 0.47238 0.0
Mn216 Mn 0.38926 0.56663 0.59362 0.0
Mn217 Mn 0.31748 0.41847 0.57182 0.0
C218 C 0.3594 0.513 0.75653 0.0
C219 C 0.38855 0.65892 0.62415 0.0
C220 C 0.43856 0.47754 0.55829 0.0
O221 O 0.37287 0.55486 0.42556 0.0
O222 O 0.32698 0.45724 0.42715 0.0
C223 C 0.2388 0.46319 0.58519 0.0
N224 N 0.25004 0.4163 0.59863 0.0
C225 C 0.17432 0.36838 0.71638 0.0
C226 C 0.15668 0.40977 0.68294 0.0
C227 C 0.19107 0.45993 0.62387 0.0
C228 C 0.22333 0.37609 0.67727 0.0
H229 H 0.26772 0.50405 0.55024 0.0
C230 C 0.34854 0.50555 0.37451 0.0
O231 O 0.4306 0.65593 0.58952 0.0
O232 O 0.34578 0.61014 0.62046 0.0
N233 N 0.29786 0.3615 0.68879 0.0
C234 C 0.31245 0.31713 0.68537 0.0
C235 C 0.28794 0.26689 0.75405 0.0
C236 C 0.24361 0.25942 0.81524 0.0
C237 C 0.22128 0.2982 0.7953 0.0
C238 C 0.24853 0.34675 0.72486 0.0
H239 H 0.33887 0.31856 0.62047 0.0
O240 O 0.39384 0.56692 0.75636 0.0
O241 O 0.34278 0.49108 0.6588 0.0
O242 O 0.44306 0.531 0.56976 0.0
O243 O 0.3932 0.43031 0.55705 0.0
C244 C 0.17066 0.28692 0.83163 0.0
C245 C 0.14745 0.32286 0.79352 0.0
H246 H 0.11929 0.40635 0.71093 0.0
H247 H 0.18207 0.49692 0.61127 0.0
H248 H 0.30068 0.23215 0.75385 0.0
H249 H 0.22377 0.22024 0.86617 0.0
H250 H 0.14898 0.25026 0.88705 0.0
H251 H 0.10919 0.31527 0.82419 0.0
Mn252 Mn 0.81837 0.45836 0.93018 0.0
Mn253 Mn 0.8483 0.34037 0.91495 0.0
C254 C 0.82447 0.416 0.09406 0.0
C255 C 0.74045 0.48158 0.95363 0.0
C256 C 0.9342 0.45867 0.90744 0.0
O257 O 0.81158 0.44099 0.76316 0.0
O258 O 0.82882 0.36175 0.76289 0.0
C259 C 0.73704 0.2692 0.92057 0.0
N260 N 0.78553 0.2733 0.93182 0.0
C261 C 0.75437 0.17639 0.01001 0.0
C262 C 0.7052 0.16628 0.97351 0.0
C263 C 0.6953 0.21535 0.946 0.0
C264 C 0.79404 0.23241 -0.00952 0.0
H265 H 0.73103 0.3064 0.89078 0.0
C266 C 0.81799 0.40031 0.71145 0.0
O267 O 0.78708 0.52112 0.928 0.0
O268 O 0.73781 0.42955 0.95138 0.0
N269 N 0.86883 0.312 0.04448 0.0
C270 C 0.90523 0.34126 0.12268 0.0
C271 C 0.91206 0.30909 0.21246 0.0
C272 C 0.88404 0.24717 0.21592 0.0
C273 C 0.84541 0.2185 0.13634 0.0
C274 C 0.83869 0.25325 0.05243 0.0
H275 H 0.92434 0.38905 0.12058 0.0
O276 O 0.82146 0.46474 0.09018 0.0
O277 O 0.81974 0.38875 -0.00144 0.0
O278 O 0.9042 0.48696 0.91521 0.0
O279 O 0.91627 0.40345 0.90243 0.0
C280 C 0.80911 0.15835 0.1448 0.0
C281 C 0.76331 0.1368 0.07985 0.0
H282 H 0.67628 0.12133 0.97314 0.0
H283 H 0.65726 0.21312 0.93481 0.0
H284 H 0.93803 0.33159 0.28029 0.0
H285 H 0.88943 0.22284 0.28503 0.0
H286 H 0.8136 0.13 0.20743 0.0
H287 H 0.73286 0.09229 0.09418 0.0
Mn288 Mn 0.31574 0.86482 0.2612 0.0
Mn289 Mn 0.40714 0.834 0.24811 0.0
C290 C 0.34209 0.84193 0.43378 0.0
C291 C 0.23387 0.76343 0.30621 0.0
C292 C 0.43528 0.96577 0.22439 0.0
O293 O 0.31586 0.8477 0.09499 0.0
O294 O 0.37046 0.80754 0.10528 0.0
C295 C 0.3654 0.70564 0.25961 0.0
N296 N 0.40704 0.75965 0.26699 0.0
C297 C 0.46121 0.71768 0.34049 0.0
C298 C 0.42387 0.66233 0.30687 0.0
C299 C 0.37312 0.65536 0.28038 0.0
C300 C 0.45053 0.76596 0.3204 0.0
H301 H 0.32743 0.70145 0.23445 0.0
C302 C 0.34362 0.82591 0.0475 0.0
O303 O 0.23327 0.81309 0.29211 0.0
O304 O 0.28001 0.76946 0.28614 0.0
N305 N 0.45489 0.85702 0.36803 0.0
C306 C 0.46913 0.90363 0.43678 0.0
C307 C 0.50236 0.90865 0.52467 0.0
C308 C 0.51847 0.86396 0.54362 0.0
C309 C 0.50867 0.82041 0.46501 0.0
C310 C 0.47515 0.81743 0.37854 0.0
H311 H 0.44777 0.92926 0.43439 0.0
O312 O 0.32428 0.88007 0.4239 0.0
O313 O 0.34336 0.81387 0.34293 0.0
O314 O 0.40002 0.91187 0.23516 0.0
O315 O 0.402 0.91191 0.23482 0.0
C316 C 0.5254 0.77563 0.47722 0.0
C317 C 0.50286 0.7246 0.4109 0.0
H318 H 0.43323 0.62531 0.31275 0.0
H319 H 0.34018 0.61235 0.27241 0.0
H320 H 0.51223 0.94459 0.5805 0.0
H321 H 0.53564 0.86038 0.62118 0.0
H322 H 0.55257 0.77809 0.54222 0.0
H323 H 0.51243 0.68799 0.42655 0.0
Mn324 Mn 0.5383 0.38081 0.59361 0.0
Mn325 Mn 0.61008 0.52897 0.57182 0.0
C326 C 0.56816 0.43443 0.75652 0.0
C327 C 0.53901 0.28851 0.62414 0.0
C328 C 0.489 0.4699 0.55827 0.0
O329 O 0.5547 0.39257 0.42555 0.0
O330 O 0.60058 0.4902 0.42714 0.0
C331 C 0.68877 0.48424 0.58518 0.0
N332 N 0.67753 0.53113 0.59862 0.0
C333 C 0.75325 0.57905 0.71636 0.0
C334 C 0.77088 0.53766 0.68291 0.0
C335 C 0.73649 0.4875 0.62385 0.0
C336 C 0.70424 0.57135 0.67725 0.0
H337 H 0.65984 0.44338 0.55023 0.0
C338 C 0.57903 0.44189 0.37451 0.0
O339 O 0.49696 0.29151 0.5895 0.0
O340 O 0.58178 0.33729 0.62046 0.0
N341 N 0.62971 0.58593 0.68879 0.0
C342 C 0.61512 0.6303 0.68537 0.0
C343 C 0.63963 0.68054 0.75406 0.0
C344 C 0.68397 0.68801 0.81524 0.0
C345 C 0.70629 0.64923 0.79529 0.0
C346 C 0.67904 0.60068 0.72485 0.0
H347 H 0.5887 0.62887 0.62048 0.0
O348 O 0.53372 0.38051 0.75635 0.0
O349 O 0.58478 0.45635 0.65879 0.0
O350 O 0.48451 0.41644 0.56975 0.0
O351 O 0.53436 0.51713 0.55705 0.0
C352 C 0.75692 0.6605 0.83162 0.0
C353 C 0.78012 0.62457 0.7935 0.0
H354 H 0.80827 0.54108 0.71091 0.0
H355 H 0.74549 0.45051 0.61124 0.0
H356 H 0.62689 0.71528 0.75386 0.0
H357 H 0.70381 0.72719 0.86617 0.0
H358 H 0.7786 0.69717 0.88704 0.0
H359 H 0.81838 0.63216 0.82417 0.0
Mn360 Mn 0.10918 0.48905 0.93019 0.0
Mn361 Mn 0.07925 0.60704 0.91496 0.0
C362 C 0.10308 0.53141 0.09407 0.0
C363 C 0.18711 0.46584 0.95365 0.0
C364 C -0.00665 0.48874 0.90744 0.0
O365 O 0.11597 0.50643 0.76317 0.0
O366 O 0.09873 0.58567 0.7629 0.0
C367 C 0.1905 0.67822 0.92057 0.0
N368 N 0.14202 0.67411 0.93183 0.0
C369 C 0.17318 0.77102 0.01001 0.0
C370 C 0.22235 0.78113 0.9735 0.0
C371 C 0.23225 0.73206 0.946 0.0
C372 C 0.13351 0.715 -0.00951 0.0
H373 H 0.19652 0.64102 0.89078 0.0
C374 C 0.10956 0.54711 0.71147 0.0
O375 O 0.14047 0.4263 0.92802 0.0
O376 O 0.18974 0.51787 0.9514 0.0
N377 N 0.05872 0.63541 0.04448 0.0
C378 C 0.02232 0.60615 0.12269 0.0
C379 C 0.01549 0.63832 0.21246 0.0
C380 C 0.04351 0.70023 0.21592 0.0
C381 C 0.08213 0.72891 0.13634 0.0
C382 C 0.08886 0.69416 0.05244 0.0
H383 H 0.00321 0.55836 0.12059 0.0
O384 O 0.10608 0.48266 0.09019 0.0
O385 O 0.10781 0.55866 -0.00142 0.0
O386 O 0.02334 0.46045 0.91521 0.0
O387 O 0.01128 0.54396 0.90244 0.0
C388 C 0.11844 0.78906 0.1448 0.0
C389 C 0.16423 0.81061 0.07984 0.0
H390 H 0.25126 0.82609 0.97312 0.0
H391 H 0.27029 0.7343 0.9348 0.0
H392 H -0.01048 0.61581 0.28029 0.0
H393 H 0.03812 0.72456 0.28502 0.0
H394 H 0.11395 0.81741 0.20743 0.0
H395 H 0.19468 0.85512 0.09417 0.0
Mn396 Mn 0.6118 0.08259 0.26121 0.0
Mn397 Mn 0.52041 0.11343 0.2481 0.0
C398 C 0.58545 0.10549 0.43379 0.0
C399 C 0.69368 0.18398 0.30622 0.0
C400 C 0.49225 -0.01834 0.22419 0.0
O401 O 0.61168 0.09971 0.095 0.0
O402 O 0.55709 0.13989 0.10528 0.0
C403 C 0.56216 0.24179 0.25962 0.0
N404 N 0.52052 0.18778 0.26699 0.0
C405 C 0.46635 0.22976 0.34048 0.0
C406 C 0.50369 0.2851 0.30687 0.0
C407 C 0.55445 0.29207 0.28038 0.0
C408 C 0.47703 0.18148 0.32039 0.0
H409 H 0.60013 0.24598 0.23446 0.0
C410 C 0.58393 0.1215 0.04751 0.0
O411 O 0.69427 0.13431 0.29212 0.0
O412 O 0.64754 0.17795 0.28614 0.0
N413 N 0.47266 0.09041 0.36801 0.0
C414 C 0.45842 0.04381 0.43678 0.0
C415 C 0.42519 0.03879 0.52466 0.0
C416 C 0.40908 0.08347 0.5436 0.0
C417 C 0.41888 0.12702 0.46499 0.0
C418 C 0.4524 0.13 0.37852 0.0
H419 H 0.47978 0.01817 0.43439 0.0
O420 O 0.60326 0.06734 0.42391 0.0
O421 O 0.58418 0.13355 0.34293 0.0
O422 O 0.52752 0.03555 0.23516 0.0
O423 O 0.52554 0.03551 0.23479 0.0
C424 C 0.40216 0.17181 0.47719 0.0
C425 C 0.4247 0.22284 0.41087 0.0
H426 H 0.49434 0.32213 0.31274 0.0
H427 H 0.58739 0.33508 0.27242 0.0
H428 H 0.41532 0.00285 0.5805 0.0
H429 H 0.3919 0.08705 0.62116 0.0
H430 H 0.37498 0.16935 0.54219 0.0
H431 H 0.41513 0.25945 0.42652 0.0
loop_
_geom_bond_atom_site_label_1
_geom_bond_atom_site_label_2
_geom_bond_distance
_geom_bond_site_symmetry_2
_ccdc_geom_bond_type
Mn0 O5 2.095 . S
Mn0 O15 2.162 . S
Mn0 O16 2.297 . S
Mn0 O24 2.385 1_554 S
Mn0 O25 2.209 1_554 S
Mn0 O26 2.094 . S
Mn1 O6 2.121 . S
Mn1 N8 2.257 . S
Mn1 N17 2.282 1_554 S
Mn1 O25 2.215 1_554 S
Mn1 O27 2.117 . S
C2 O24 1.234 . S
C2 O25 1.283 . S
C3 O15 1.281 . S
C3 O16 1.236 . S
C4 O26 1.240 . S
C4 O27 1.264 . S
O5 Mn0 2.095 . S
O5 C14 1.250 . S
O6 Mn1 2.121 . S
O6 C14 1.258 . S
C7 N8 1.326 . S
C7 C11 1.460 . S
C7 H13 0.929 . S
N8 Mn1 2.257 . S
N8 C7 1.326 . S
N8 C12 1.362 1_554 S
C9 C10 1.258 . S
C9 C12 1.431 . S
C9 C29 1.449 . S
C10 C9 1.258 . S
C10 C11 1.477 1_556 S
C10 H30 0.931 . S
C11 C7 1.460 . S
C11 C10 1.477 1_554 S
C11 H31 0.930 . S
C12 N8 1.362 1_556 S
C12 C9 1.431 . S
C12 C22 1.476 . S
H13 C7 0.929 . S
C14 O5 1.250 . S
C14 O6 1.258 . S
O15 Mn0 2.162 . S
O15 C3 1.281 . S
O16 Mn0 2.297 . S
O16 C3 1.236 . S
N17 Mn1 2.282 1_556 S
N17 C18 1.328 . S
N17 C22 1.318 . S
C18 N17 1.328 . S
C18 C19 1.457 . S
C18 H23 0.929 . S
C19 C18 1.457 . S
C19 C20 1.291 . S
C19 H32 0.931 . S
C20 C19 1.291 . S
C20 C21 1.373 . S
C20 H33 0.929 . S
C21 C20 1.373 . S
C21 C22 1.396 . S
C21 C28 1.403 . S
C22 C12 1.476 . S
C22 N17 1.318 . S
C22 C21 1.396 . S
H23 C18 0.929 . S
O24 Mn0 2.385 1_556 S
O24 C2 1.234 . S
O25 Mn0 2.209 1_556 S
O25 Mn1 2.215 1_556 S
O25 C2 1.283 . S
O26 Mn0 2.094 . S
O26 C4 1.240 . S
O27 Mn1 2.117 . S
O27 C4 1.264 . S
C28 C21 1.403 . S
C28 C29 1.399 . S
C28 H34 0.929 . S
C29 C9 1.449 . S
C29 C28 1.399 . S
C29 H35 0.930 . S
H30 C10 0.931 . S
H31 C11 0.930 . S
H32 C19 0.931 . S
H33 C20 0.929 . S
H34 C28 0.929 . S
H35 C29 0.930 . S
Mn36 O41 2.095 . S
Mn36 O51 2.162 . S
Mn36 O52 2.297 . S
Mn36 O60 2.385 . S
Mn36 O61 2.209 . S
Mn36 O62 2.094 . S
Mn37 O42 2.121 . S
Mn37 N44 2.257 . S
Mn37 N53 2.282 . S
Mn37 O61 2.215 . S
Mn37 O63 2.117 . S
C38 O60 1.234 . S
C38 O61 1.283 . S
C39 O51 1.281 . S
C39 O52 1.236 . S
C40 O62 1.240 . S
C40 O63 1.264 . S
O41 Mn36 2.095 . S
O41 C50 1.250 . S
O42 Mn37 2.121 . S
O42 C50 1.258 . S
C43 N44 1.326 . S
C43 C47 1.460 . S
C43 H49 0.929 . S
N44 Mn37 2.257 . S
N44 C43 1.326 . S
N44 C48 1.362 . S
C45 C46 1.258 . S
C45 C48 1.431 . S
C45 C65 1.449 . S
C46 C45 1.258 . S
C46 C47 1.477 . S
C46 H66 0.931 . S
C47 C43 1.460 . S
C47 C46 1.477 . S
C47 H67 0.930 . S
C48 N44 1.362 . S
C48 C45 1.431 . S
C48 C58 1.476 . S
H49 C43 0.929 . S
C50 O41 1.250 . S
C50 O42 1.258 . S
O51 Mn36 2.162 . S
O51 C39 1.281 . S
O52 Mn36 2.297 . S
O52 C39 1.236 . S
N53 Mn37 2.282 . S
N53 C54 1.328 . S
N53 C58 1.318 . S
C54 N53 1.328 . S
C54 C55 1.457 . S
C54 H59 0.929 . S
C55 C54 1.457 . S
C55 C56 1.291 . S
C55 H68 0.931 1_655 S
C56 C55 1.291 . S
C56 C57 1.373 . S
C56 H69 0.929 1_554 S
C57 C56 1.373 . S
C57 C58 1.396 . S
C57 C64 1.403 . S
C58 C48 1.476 . S
C58 N53 1.318 . S
C58 C57 1.396 . S
H59 C54 0.929 . S
O60 Mn36 2.385 . S
O60 C38 1.234 . S
O61 Mn36 2.209 . S
O61 Mn37 2.215 . S
O61 C38 1.283 . S
O62 Mn36 2.094 . S
O62 C40 1.240 . S
O63 Mn37 2.117 . S
O63 C40 1.264 . S
C64 C57 1.403 . S
C64 C65 1.399 . S
C64 H70 0.929 1_554 S
C65 C45 1.449 . S
C65 C64 1.399 . S
C65 H71 0.930 . S
H66 C46 0.931 . S
H67 C47 0.930 . S
H68 C55 0.931 1_455 S
H69 C56 0.929 1_556 S
H70 C64 0.929 1_556 S
H71 C65 0.930 . S
Mn72 O77 2.095 . S
Mn72 O87 2.162 . S
Mn72 O88 2.297 . S
Mn72 O96 2.385 . S
Mn72 O97 2.209 . S
Mn72 O98 2.094 . S
Mn73 O78 2.121 . S
Mn73 N80 2.257 . S
Mn73 N89 2.282 . S
Mn73 O97 2.215 . S
Mn73 O99 2.117 . S
C74 O96 1.234 . S
C74 O97 1.283 . S
C75 O87 1.281 . S
C75 O88 1.236 . S
C76 O98 1.240 . S
C76 O99 1.264 . S
O77 Mn72 2.095 . S
O77 C86 1.250 . S
O78 Mn73 2.121 . S
O78 C86 1.258 . S
C79 N80 1.326 . S
C79 C83 1.460 . S
C79 H85 0.929 . S
N80 Mn73 2.257 . S
N80 C79 1.326 . S
N80 C84 1.362 . S
C81 C82 1.258 . S
C81 C84 1.431 . S
C81 C101 1.449 . S
C82 C81 1.258 . S
C82 C83 1.477 . S
C82 H102 0.931 . S
C83 C79 1.460 . S
C83 C82 1.477 . S
C83 H103 0.930 . S
C84 N80 1.362 . S
C84 C81 1.431 . S
C84 C94 1.476 . S
H85 C79 0.929 . S
C86 O77 1.250 . S
C86 O78 1.258 . S
O87 Mn72 2.162 . S
O87 C75 1.281 . S
O88 Mn72 2.297 . S
O88 C75 1.236 . S
N89 Mn73 2.282 . S
N89 C90 1.328 1_565 S
N89 C94 1.318 . S
C90 N89 1.328 1_545 S
C90 C91 1.457 . S
C90 H95 0.929 . S
C91 C90 1.457 . S
C91 C92 1.291 . S
C91 H104 0.931 . S
C92 C91 1.291 . S
C92 C93 1.373 . S
C92 H105 0.929 . S
C93 C92 1.373 . S
C93 C94 1.396 1_545 S
C93 C100 1.403 . S
C94 C84 1.476 . S
C94 N89 1.318 . S
C94 C93 1.396 1_565 S
H95 C90 0.929 . S
O96 Mn72 2.385 . S
O96 C74 1.234 . S
O97 Mn72 2.209 . S
O97 Mn73 2.215 . S
O97 C74 1.283 . S
O98 Mn72 2.094 . S
O98 C76 1.240 . S
O99 Mn73 2.117 . S
O99 C76 1.264 . S
C100 C93 1.403 . S
C100 C101 1.399 1_545 S
C100 H106 0.929 . S
C101 C81 1.449 . S
C101 C100 1.399 1_565 S
C101 H107 0.930 . S
H102 C82 0.931 . S
H103 C83 0.930 . S
H104 C91 0.931 . S
H105 C92 0.929 . S
H106 C100 0.929 . S
H107 C101 0.930 . S
Mn108 O113 2.095 . S
Mn108 O123 2.162 . S
Mn108 O124 2.297 . S
Mn108 O132 2.385 1_554 S
Mn108 O133 2.209 1_554 S
Mn108 O134 2.094 . S
Mn109 O114 2.121 . S
Mn109 N116 2.257 . S
Mn109 N125 2.282 1_554 S
Mn109 O133 2.215 1_554 S
Mn109 O135 2.117 . S
C110 O132 1.234 . S
C110 O133 1.283 . S
C111 O123 1.281 . S
C111 O124 1.236 . S
C112 O134 1.240 . S
C112 O135 1.264 . S
O113 Mn108 2.095 . S
O113 C122 1.250 . S
O114 Mn109 2.121 . S
O114 C122 1.258 . S
C115 N116 1.326 . S
C115 C119 1.460 . S
C115 H121 0.929 . S
N116 Mn109 2.257 . S
N116 C115 1.326 . S
N116 C120 1.362 1_554 S
C117 C118 1.258 . S
C117 C120 1.431 . S
C117 C137 1.449 . S
C118 C117 1.258 . S
C118 C119 1.477 1_556 S
C118 H138 0.931 . S
C119 C115 1.460 . S
C119 C118 1.477 1_554 S
C119 H139 0.930 . S
C120 N116 1.362 1_556 S
C120 C117 1.431 . S
C120 C130 1.476 . S
H121 C115 0.929 . S
C122 O113 1.250 . S
C122 O114 1.258 . S
O123 Mn108 2.162 . S
O123 C111 1.281 . S
O124 Mn108 2.297 . S
O124 C111 1.236 . S
N125 Mn109 2.282 1_556 S
N125 C126 1.328 . S
N125 C130 1.318 . S
C126 N125 1.328 . S
C126 C127 1.457 . S
C126 H131 0.929 . S
C127 C126 1.457 . S
C127 C128 1.291 . S
C127 H140 0.931 . S
C128 C127 1.291 . S
C128 C129 1.373 . S
C128 H141 0.929 . S
C129 C128 1.373 . S
C129 C130 1.396 . S
C129 C136 1.403 . S
C130 C120 1.476 . S
C130 N125 1.318 . S
C130 C129 1.396 . S
H131 C126 0.929 . S
O132 Mn108 2.385 1_556 S
O132 C110 1.234 . S
O133 Mn108 2.209 1_556 S
O133 Mn109 2.215 1_556 S
O133 C110 1.283 . S
O134 Mn108 2.094 . S
O134 C112 1.240 . S
O135 Mn109 2.117 . S
O135 C112 1.264 . S
C136 C129 1.403 . S
C136 C137 1.399 . S
C136 H142 0.929 . S
C137 C117 1.449 . S
C137 C136 1.399 . S
C137 H143 0.930 . S
H138 C118 0.931 . S
H139 C119 0.930 . S
H140 C127 0.931 . S
H141 C128 0.929 . S
H142 C136 0.929 . S
H143 C137 0.930 . S
Mn144 O149 2.095 . S
Mn144 O159 2.162 . S
Mn144 O160 2.297 . S
Mn144 O168 2.385 . S
Mn144 O169 2.209 . S
Mn144 O170 2.094 . S
Mn145 O150 2.121 . S
Mn145 N152 2.257 . S
Mn145 N161 2.282 . S
Mn145 O169 2.215 . S
Mn145 O171 2.117 . S
C146 O168 1.234 . S
C146 O169 1.283 . S
C147 O159 1.281 . S
C147 O160 1.236 . S
C148 O170 1.240 . S
C148 O171 1.264 . S
O149 Mn144 2.095 . S
O149 C158 1.250 . S
O150 Mn145 2.121 . S
O150 C158 1.258 . S
C151 N152 1.326 . S
C151 C155 1.460 . S
C151 H157 0.929 . S
N152 Mn145 2.257 . S
N152 C151 1.326 . S
N152 C156 1.362 . S
C153 C154 1.258 . S
C153 C156 1.431 . S
C153 C173 1.449 . S
C154 C153 1.258 . S
C154 C155 1.477 . S
C154 H174 0.931 . S
C155 C151 1.460 . S
C155 C154 1.477 . S
C155 H175 0.930 . S
C156 N152 1.362 . S
C156 C153 1.431 . S
C156 C166 1.476 . S
H157 C151 0.929 . S
C158 O149 1.250 . S
C158 O150 1.258 . S
O159 Mn144 2.162 . S
O159 C147 1.281 . S
O160 Mn144 2.297 . S
O160 C147 1.236 . S
N161 Mn145 2.282 . S
N161 C162 1.328 . S
N161 C166 1.318 . S
C162 N161 1.328 . S
C162 C163 1.457 . S
C162 H167 0.929 . S
C163 C162 1.457 . S
C163 C164 1.291 . S
C163 H176 0.931 1_455 S
C164 C163 1.291 . S
C164 C165 1.373 . S
C164 H177 0.929 1_554 S
C165 C164 1.373 . S
C165 C166 1.396 . S
C165 C172 1.403 . S
C166 C156 1.476 . S
C166 N161 1.318 . S
C166 C165 1.396 . S
H167 C162 0.929 . S
O168 Mn144 2.385 . S
O168 C146 1.234 . S
O169 Mn144 2.209 . S
O169 Mn145 2.215 . S
O169 C146 1.283 . S
O170 Mn144 2.094 . S
O170 C148 1.240 . S
O171 Mn145 2.117 . S
O171 C148 1.264 . S
C172 C165 1.403 . S
C172 C173 1.399 . S
C172 H178 0.929 1_554 S
C173 C153 1.449 . S
C173 C172 1.399 . S
C173 H179 0.930 . S
H174 C154 0.931 . S
H175 C155 0.930 . S
H176 C163 0.931 1_655 S
H177 C164 0.929 1_556 S
H178 C172 0.929 1_556 S
H179 C173 0.930 . S
Mn180 O185 2.095 . S
Mn180 O195 2.162 . S
Mn180 O196 2.297 . S
Mn180 O204 2.385 . S
Mn180 O205 2.209 . S
Mn180 O206 2.094 . S
Mn181 O186 2.121 . S
Mn181 N188 2.257 . S
Mn181 N197 2.282 . S
Mn181 O205 2.215 . S
Mn181 O207 2.117 . S
C182 O204 1.234 . S
C182 O205 1.283 . S
C183 O195 1.281 . S
C183 O196 1.236 . S
C184 O206 1.240 . S
C184 O207 1.264 . S
O185 Mn180 2.095 . S
O185 C194 1.250 . S
O186 Mn181 2.121 . S
O186 C194 1.258 . S
C187 N188 1.326 . S
C187 C191 1.460 . S
C187 H193 0.929 . S
N188 Mn181 2.257 . S
N188 C187 1.326 . S
N188 C192 1.362 . S
C189 C190 1.258 . S
C189 C192 1.431 . S
C189 C209 1.449 . S
C190 C189 1.258 . S
C190 C191 1.477 . S
C190 H210 0.931 . S
C191 C187 1.460 . S
C191 C190 1.477 . S
C191 H211 0.930 . S
C192 N188 1.362 . S
C192 C189 1.431 . S
C192 C202 1.476 . S
H193 C187 0.929 . S
C194 O185 1.250 . S
C194 O186 1.258 . S
O195 Mn180 2.162 . S
O195 C183 1.281 . S
O196 Mn180 2.297 . S
O196 C183 1.236 . S
N197 Mn181 2.282 . S
N197 C198 1.328 1_545 S
N197 C202 1.318 . S
C198 N197 1.328 1_565 S
C198 C199 1.457 . S
C198 H203 0.929 . S
C199 C198 1.457 . S
C199 C200 1.291 . S
C199 H212 0.931 . S
C200 C199 1.291 . S
C200 C201 1.373 . S
C200 H213 0.929 . S
C201 C200 1.373 . S
C201 C202 1.396 1_565 S
C201 C208 1.403 . S
C202 C192 1.476 . S
C202 N197 1.318 . S
C202 C201 1.396 1_545 S
H203 C198 0.929 . S
O204 Mn180 2.385 . S
O204 C182 1.234 . S
O205 Mn180 2.209 . S
O205 Mn181 2.215 . S
O205 C182 1.283 . S
O206 Mn180 2.094 . S
O206 C184 1.240 . S
O207 Mn181 2.117 . S
O207 C184 1.264 . S
C208 C201 1.403 . S
C208 C209 1.399 1_565 S
C208 H214 0.929 . S
C209 C189 1.449 . S
C209 C208 1.399 1_545 S
C209 H215 0.930 . S
H210 C190 0.931 . S
H211 C191 0.930 . S
H212 C199 0.931 . S
H213 C200 0.929 . S
H214 C208 0.929 . S
H215 C209 0.930 . S
Mn216 O221 2.095 . S
Mn216 O231 2.162 . S
Mn216 O232 2.297 . S
Mn216 O240 2.385 . S
Mn216 O241 2.209 . S
Mn216 O242 2.094 . S
Mn217 O222 2.121 . S
Mn217 N224 2.257 . S
Mn217 N233 2.282 . S
Mn217 O241 2.215 . S
Mn217 O243 2.117 . S
C218 O240 1.234 . S
C218 O241 1.283 . S
C219 O231 1.281 . S
C219 O232 1.236 . S
C220 O242 1.240 . S
C220 O243 1.264 . S
O221 Mn216 2.095 . S
O221 C230 1.250 . S
O222 Mn217 2.121 . S
O222 C230 1.258 . S
C223 N224 1.326 . S
C223 C227 1.460 . S
C223 H229 0.929 . S
N224 Mn217 2.257 . S
N224 C223 1.326 . S
N224 C228 1.362 . S
C225 C226 1.258 . S
C225 C228 1.431 . S
C225 C245 1.449 . S
C226 C225 1.258 . S
C226 C227 1.477 . S
C226 H246 0.931 . S
C227 C223 1.460 . S
C227 C226 1.477 . S
C227 H247 0.930 . S
C228 N224 1.362 . S
C228 C225 1.431 . S
C228 C238 1.476 . S
H229 C223 0.929 . S
C230 O221 1.250 . S
C230 O222 1.258 . S
O231 Mn216 2.162 . S
O231 C219 1.281 . S
O232 Mn216 2.297 . S
O232 C219 1.236 . S
N233 Mn217 2.282 . S
N233 C234 1.328 . S
N233 C238 1.318 . S
C234 N233 1.328 . S
C234 C235 1.457 . S
C234 H239 0.929 . S
C235 C234 1.457 . S
C235 C236 1.291 . S
C235 H248 0.931 1_556 S
C236 C235 1.291 . S
C236 C237 1.373 . S
C236 H249 0.929 1_556 S
C237 C236 1.373 . S
C237 C238 1.396 . S
C237 C244 1.403 . S
C238 C228 1.476 . S
C238 N233 1.318 . S
C238 C237 1.396 . S
H239 C234 0.929 . S
O240 Mn216 2.385 . S
O240 C218 1.234 . S
O241 Mn216 2.209 . S
O241 Mn217 2.215 . S
O241 C218 1.283 . S
O242 Mn216 2.094 . S
O242 C220 1.240 . S
O243 Mn217 2.117 . S
O243 C220 1.264 . S
C244 C237 1.403 . S
C244 C245 1.399 . S
C244 H250 0.929 1_556 S
C245 C225 1.449 . S
C245 C244 1.399 . S
C245 H251 0.930 . S
H246 C226 0.931 . S
H247 C227 0.930 . S
H248 C235 0.931 1_554 S
H249 C236 0.929 1_554 S
H250 C244 0.929 1_554 S
H251 C245 0.930 . S
Mn252 O257 2.095 . S
Mn252 O267 2.162 . S
Mn252 O268 2.297 . S
Mn252 O276 2.385 1_556 S
Mn252 O277 2.209 1_556 S
Mn252 O278 2.094 . S
Mn253 O258 2.121 . S
Mn253 N260 2.257 . S
Mn253 N269 2.282 1_556 S
Mn253 O277 2.215 1_556 S
Mn253 O279 2.117 . S
C254 O276 1.234 . S
C254 O277 1.283 . S
C255 O267 1.281 . S
C255 O268 1.236 . S
C256 O278 1.240 . S
C256 O279 1.264 . S
O257 Mn252 2.095 . S
O257 C266 1.250 . S
O258 Mn253 2.121 . S
O258 C266 1.258 . S
C259 N260 1.326 . S
C259 C263 1.460 . S
C259 H265 0.929 . S
N260 Mn253 2.257 . S
N260 C259 1.326 . S
N260 C264 1.362 1_556 S
C261 C262 1.258 . S
C261 C264 1.431 . S
C261 C281 1.449 . S
C262 C261 1.258 . S
C262 C263 1.477 1_554 S
C262 H282 0.931 . S
C263 C259 1.460 . S
C263 C262 1.477 1_556 S
C263 H283 0.930 . S
C264 N260 1.362 1_554 S
C264 C261 1.431 . S
C264 C274 1.476 . S
H265 C259 0.929 . S
C266 O257 1.250 . S
C266 O258 1.258 . S
O267 Mn252 2.162 . S
O267 C255 1.281 . S
O268 Mn252 2.297 . S
O268 C255 1.236 . S
N269 Mn253 2.282 1_554 S
N269 C270 1.328 . S
N269 C274 1.318 . S
C270 N269 1.328 . S
C270 C271 1.457 . S
C270 H275 0.929 . S
C271 C270 1.457 . S
C271 C272 1.291 . S
C271 H284 0.931 1_655 S
C272 C271 1.291 . S
C272 C273 1.373 . S
C272 H285 0.929 . S
C273 C272 1.373 . S
C273 C274 1.396 . S
C273 C280 1.403 . S
C274 C264 1.476 . S
C274 N269 1.318 . S
C274 C273 1.396 . S
H275 C270 0.929 . S
O276 Mn252 2.385 1_554 S
O276 C254 1.234 . S
O277 Mn252 2.209 1_554 S
O277 Mn253 2.215 1_554 S
O277 C254 1.283 . S
O278 Mn252 2.094 . S
O278 C256 1.240 . S
O279 Mn253 2.117 . S
O279 C256 1.264 . S
C280 C273 1.403 . S
C280 C281 1.399 . S
C280 H286 0.929 . S
C281 C261 1.449 . S
C281 C280 1.399 . S
C281 H287 0.930 . S
H282 C262 0.931 . S
H283 C263 0.930 . S
H284 C271 0.931 1_455 S
H285 C272 0.929 . S
H286 C280 0.929 . S
H287 C281 0.930 . S
Mn288 O293 2.095 . S
Mn288 O303 2.162 . S
Mn288 O304 2.297 . S
Mn288 O312 2.385 . S
Mn288 O313 2.209 . S
Mn288 O314 2.094 . S
Mn289 O294 2.121 . S
Mn289 N296 2.257 . S
Mn289 N305 2.282 . S
Mn289 O313 2.215 . S
Mn289 O315 2.117 . S
C290 O312 1.234 . S
C290 O313 1.283 . S
C291 O303 1.281 . S
C291 O304 1.236 . S
C292 O314 1.240 1_545 S
C292 O315 1.264 1_545 S
O293 Mn288 2.095 . S
O293 C302 1.250 . S
O294 Mn289 2.121 . S
O294 C302 1.258 . S
C295 N296 1.326 . S
C295 C299 1.460 . S
C295 H301 0.929 . S
N296 Mn289 2.257 . S
N296 C295 1.326 . S
N296 C300 1.362 . S
C297 C298 1.258 . S
C297 C300 1.431 . S
C297 C317 1.449 . S
C298 C297 1.258 . S
C298 C299 1.477 . S
C298 H318 0.931 . S
C299 C295 1.460 . S
C299 C298 1.477 . S
C299 H319 0.930 . S
C300 N296 1.362 . S
C300 C297 1.431 . S
C300 C310 1.476 . S
H301 C295 0.929 . S
C302 O293 1.250 . S
C302 O294 1.258 . S
O303 Mn288 2.162 . S
O303 C291 1.281 . S
O304 Mn288 2.297 . S
O304 C291 1.236 . S
N305 Mn289 2.282 . S
N305 C306 1.328 . S
N305 C310 1.318 . S
C306 N305 1.328 . S
C306 C307 1.457 . S
C306 H311 0.929 1_565 S
C307 C306 1.457 . S
C307 C308 1.291 . S
C307 H320 0.931 1_565 S
C308 C307 1.291 . S
C308 C309 1.373 . S
C308 H321 0.929 . S
C309 C308 1.373 . S
C309 C310 1.396 . S
C309 C316 1.403 . S
C310 C300 1.476 . S
C310 N305 1.318 . S
C310 C309 1.396 . S
H311 C306 0.929 1_545 S
O312 Mn288 2.385 . S
O312 C290 1.234 . S
O313 Mn288 2.209 . S
O313 Mn289 2.215 . S
O313 C290 1.283 . S
O314 Mn288 2.094 . S
O314 C292 1.240 1_565 S
O315 Mn289 2.117 . S
O315 C292 1.264 1_565 S
C316 C309 1.403 . S
C316 C317 1.399 . S
C316 H322 0.929 . S
C317 C297 1.449 . S
C317 C316 1.399 . S
C317 H323 0.930 . S
H318 C298 0.931 . S
H319 C299 0.930 . S
H320 C307 0.931 1_545 S
H321 C308 0.929 . S
H322 C316 0.929 . S
H323 C317 0.930 . S
Mn324 O329 2.095 . S
Mn324 O339 2.162 . S
Mn324 O340 2.297 . S
Mn324 O348 2.385 . S
Mn324 O349 2.209 . S
Mn324 O350 2.094 . S
Mn325 O330 2.121 . S
Mn325 N332 2.257 . S
Mn325 N341 2.282 . S
Mn325 O349 2.215 . S
Mn325 O351 2.117 . S
C326 O348 1.234 . S
C326 O349 1.283 . S
C327 O339 1.281 . S
C327 O340 1.236 . S
C328 O350 1.240 . S
C328 O351 1.264 . S
O329 Mn324 2.095 . S
O329 C338 1.250 . S
O330 Mn325 2.121 . S
O330 C338 1.258 . S
C331 N332 1.326 . S
C331 C335 1.460 . S
C331 H337 0.929 . S
N332 Mn325 2.257 . S
N332 C331 1.326 . S
N332 C336 1.362 . S
C333 C334 1.258 . S
C333 C336 1.431 . S
C333 C353 1.449 . S
C334 C333 1.258 . S
C334 C335 1.477 . S
C334 H354 0.931 . S
C335 C331 1.460 . S
C335 C334 1.477 . S
C335 H355 0.930 . S
C336 N332 1.362 . S
C336 C333 1.431 . S
C336 C346 1.476 . S
H337 C331 0.929 . S
C338 O329 1.250 . S
C338 O330 1.258 . S
O339 Mn324 2.162 . S
O339 C327 1.281 . S
O340 Mn324 2.297 . S
O340 C327 1.236 . S
N341 Mn325 2.282 . S
N341 C342 1.328 . S
N341 C346 1.318 . S
C342 N341 1.328 . S
C342 C343 1.457 . S
C342 H347 0.929 . S
C343 C342 1.457 . S
C343 C344 1.291 . S
C343 H356 0.931 1_556 S
C344 C343 1.291 . S
C344 C345 1.373 . S
C344 H357 0.929 1_556 S
C345 C344 1.373 . S
C345 C346 1.396 . S
C345 C352 1.403 . S
C346 C336 1.476 . S
C346 N341 1.318 . S
C346 C345 1.396 . S
H347 C342 0.929 . S
O348 Mn324 2.385 . S
O348 C326 1.234 . S
O349 Mn324 2.209 . S
O349 Mn325 2.215 . S
O349 C326 1.283 . S
O350 Mn324 2.094 . S
O350 C328 1.240 . S
O351 Mn325 2.117 . S
O351 C328 1.264 . S
C352 C345 1.403 . S
C352 C353 1.399 . S
C352 H358 0.929 1_556 S
C353 C333 1.449 . S
C353 C352 1.399 . S
C353 H359 0.930 . S
H354 C334 0.931 . S
H355 C335 0.930 . S
H356 C343 0.931 1_554 S
H357 C344 0.929 1_554 S
H358 C352 0.929 1_554 S
H359 C353 0.930 . S
Mn360 O365 2.095 . S
Mn360 O375 2.162 . S
Mn360 O376 2.297 . S
Mn360 O384 2.385 1_556 S
Mn360 O385 2.209 1_556 S
Mn360 O386 2.094 . S
Mn361 O366 2.121 . S
Mn361 N368 2.257 . S
Mn361 N377 2.282 1_556 S
Mn361 O385 2.215 1_556 S
Mn361 O387 2.117 . S
C362 O384 1.234 . S
C362 O385 1.283 . S
C363 O375 1.281 . S
C363 O376 1.236 . S
C364 O386 1.240 . S
C364 O387 1.264 . S
O365 Mn360 2.095 . S
O365 C374 1.250 . S
O366 Mn361 2.121 . S
O366 C374 1.258 . S
C367 N368 1.326 . S
C367 C371 1.460 . S
C367 H373 0.929 . S
N368 Mn361 2.257 . S
N368 C367 1.326 . S
N368 C372 1.362 1_556 S
C369 C370 1.258 . S
C369 C372 1.431 . S
C369 C389 1.449 . S
C370 C369 1.258 . S
C370 C371 1.477 1_554 S
C370 H390 0.931 . S
C371 C367 1.460 . S
C371 C370 1.477 1_556 S
C371 H391 0.930 . S
C372 N368 1.362 1_554 S
C372 C369 1.431 . S
C372 C382 1.476 . S
H373 C367 0.929 . S
C374 O365 1.250 . S
C374 O366 1.258 . S
O375 Mn360 2.162 . S
O375 C363 1.281 . S
O376 Mn360 2.297 . S
O376 C363 1.236 . S
N377 Mn361 2.282 1_554 S
N377 C378 1.328 . S
N377 C382 1.318 . S
C378 N377 1.328 . S
C378 C379 1.457 . S
C378 H383 0.929 . S
C379 C378 1.457 . S
C379 C380 1.291 . S
C379 H392 0.931 1_455 S
C380 C379 1.291 . S
C380 C381 1.373 . S
C380 H393 0.929 . S
C381 C380 1.373 . S
C381 C382 1.396 . S
C381 C388 1.403 . S
C382 C372 1.476 . S
C382 N377 1.318 . S
C382 C381 1.396 . S
H383 C378 0.929 . S
O384 Mn360 2.385 1_554 S
O384 C362 1.234 . S
O385 Mn360 2.209 1_554 S
O385 Mn361 2.215 1_554 S
O385 C362 1.283 . S
O386 Mn360 2.094 . S
O386 C364 1.240 . S
O387 Mn361 2.117 . S
O387 C364 1.264 . S
C388 C381 1.403 . S
C388 C389 1.399 . S
C388 H394 0.929 . S
C389 C369 1.449 . S
C389 C388 1.399 . S
C389 H395 0.930 . S
H390 C370 0.931 . S
H391 C371 0.930 . S
H392 C379 0.931 1_655 S
H393 C380 0.929 . S
H394 C388 0.929 . S
H395 C389 0.930 . S
Mn396 O401 2.095 . S
Mn396 O411 2.162 . S
Mn396 O412 2.297 . S
Mn396 O420 2.385 . S
Mn396 O421 2.209 . S
Mn396 O422 2.094 . S
Mn397 O402 2.121 . S
Mn397 N404 2.257 . S
Mn397 N413 2.282 . S
Mn397 O421 2.215 . S
Mn397 O423 2.117 . S
C398 O420 1.234 . S
C398 O421 1.283 . S
C399 O411 1.281 . S
C399 O412 1.236 . S
C400 O422 1.240 1_565 S
C400 O423 1.264 1_565 S
O401 Mn396 2.095 . S
O401 C410 1.250 . S
O402 Mn397 2.121 . S
O402 C410 1.258 . S
C403 N404 1.326 . S
C403 C407 1.460 . S
C403 H409 0.929 . S
N404 Mn397 2.257 . S
N404 C403 1.326 . S
N404 C408 1.362 . S
C405 C406 1.258 . S
C405 C408 1.431 . S
C405 C425 1.449 . S
C406 C405 1.258 . S
C406 C407 1.477 . S
C406 H426 0.931 . S
C407 C403 1.460 . S
C407 C406 1.477 . S
C407 H427 0.930 . S
C408 N404 1.362 . S
C408 C405 1.431 . S
C408 C418 1.476 . S
H409 C403 0.929 . S
C410 O401 1.250 . S
C410 O402 1.258 . S
O411 Mn396 2.162 . S
O411 C399 1.281 . S
O412 Mn396 2.297 . S
O412 C399 1.236 . S
N413 Mn397 2.282 . S
N413 C414 1.328 . S
N413 C418 1.318 . S
C414 N413 1.328 . S
C414 C415 1.457 . S
C414 H419 0.929 1_545 S
C415 C414 1.457 . S
C415 C416 1.291 . S
C415 H428 0.931 1_545 S
C416 C415 1.291 . S
C416 C417 1.373 . S
C416 H429 0.929 . S
C417 C416 1.373 . S
C417 C418 1.396 . S
C417 C424 1.403 . S
C418 C408 1.476 . S
C418 N413 1.318 . S
C418 C417 1.396 . S
H419 C414 0.929 1_565 S
O420 Mn396 2.385 . S
O420 C398 1.234 . S
O421 Mn396 2.209 . S
O421 Mn397 2.215 . S
O421 C398 1.283 . S
O422 Mn396 2.094 . S
O422 C400 1.240 1_545 S
O423 Mn397 2.117 . S
O423 C400 1.264 1_545 S
C424 C417 1.403 . S
C424 C425 1.399 . S
C424 H430 0.929 . S
C425 C405 1.449 . S
C425 C424 1.399 . S
C425 H431 0.930 . S
H426 C406 0.931 . S
H427 C407 0.930 . S
H428 C415 0.931 1_565 S
H429 C416 0.929 . S
H430 C424 0.929 . S
H431 C425 0.930 . S
C14 C230 2.008 . S
C50 C266 2.229 . S
C86 C302 2.008 1_556 S
C122 C338 2.008 . S
C158 C374 2.229 . S
C410 C194 2.008 1_554 S
C3 C363 2.451 1_554 S
C39 C399 2.452 . S
C75 C219 1.677 . S
C111 C255 2.451 1_554 S
C147 C291 2.452 . S
C183 C327 1.677 . S
C4 C112 4.038 . S
C40 C148 1.492 1_655 S
C184 C76 1.205 1_545 S
C220 C328 1.205 . S
C364 C256 1.491 1_455 S
C292 C400 4.039 1_545 S
C218 C2 1.220 . S
C38 C254 1.519 . S
C74 C290 1.220 . S
C326 C110 1.220 . S
C362 C146 1.519 . S
C182 C398 1.220 . S
