# Generated by pormake.
# Topology snk, (6)-cn, num edge types: 1
# Building blocks:
#     Node 0, Type 0, BuildingBlock: CUWYAW_clean_sbu_0, # of connection points: 6
#     Node 1, Type 0, BuildingBlock: CUWYAW_clean_sbu_0, # of connection points: 6
#     Node 2, Type 0, BuildingBlock: CUWYAW_clean_sbu_0, # of connection points: 6
#     Node 3, Type 0, BuildingBlock: CUWYAW_clean_sbu_0, # of connection points: 6
#     Node 4, Type 0, BuildingBlock: CUWYAW_clean_sbu_0, # of connection points: 6
#     Node 5, Type 0, BuildingBlock: CUWYAW_clean_sbu_0, # of connection points: 6
#     Node 6, Type 0, BuildingBlock: CUWYAW_clean_sbu_0, # of connection points: 6
#     Node 7, Type 0, BuildingBlock: CUWYAW_clean_sbu_0, # of connection points: 6
#     Edge 8, Type (0, 0), BuildingBlock: ZUJKAS_clean_linker_0, # of connection points: 2
#     Edge 9, Type (0, 0), BuildingBlock: ZUJKAS_clean_linker_0, # of connection points: 2
#     Edge 10, Type (0, 0), BuildingBlock: ZUJKAS_clean_linker_0, # of connection points: 2
#     Edge 11, Type (0, 0), BuildingBlock: ZUJKAS_clean_linker_0, # of connection points: 2
#     Edge 12, Type (0, 0), BuildingBlock: ZUJKAS_clean_linker_0, # of connection points: 2
#     Edge 13, Type (0, 0), BuildingBlock: ZUJKAS_clean_linker_0, # of connection points: 2
#     Edge 14, Type (0, 0), BuildingBlock: ZUJKAS_clean_linker_0, # of connection points: 2
#     Edge 15, Type (0, 0), BuildingBlock: ZUJKAS_clean_linker_0, # of connection points: 2
#     Edge 16, Type (0, 0), BuildingBlock: ZUJKAS_clean_linker_0, # of connection points: 2
#     Edge 17, Type (0, 0), BuildingBlock: ZUJKAS_clean_linker_0, # of connection points: 2
#     Edge 18, Type (0, 0), BuildingBlock: ZUJKAS_clean_linker_0, # of connection points: 2
#     Edge 19, Type (0, 0), BuildingBlock: ZUJKAS_clean_linker_0, # of connection points: 2
#     Edge 20, Type (0, 0), BuildingBlock: ZUJKAS_clean_linker_0, # of connection points: 2
#     Edge 21, Type (0, 0), BuildingBlock: ZUJKAS_clean_linker_0, # of connection points: 2
#     Edge 22, Type (0, 0), BuildingBlock: ZUJKAS_clean_linker_0, # of connection points: 2
#     Edge 23, Type (0, 0), BuildingBlock: ZUJKAS_clean_linker_0, # of connection points: 2
#     Edge 24, Type (0, 0), BuildingBlock: ZUJKAS_clean_linker_0, # of connection points: 2
#     Edge 25, Type (0, 0), BuildingBlock: ZUJKAS_clean_linker_0, # of connection points: 2
#     Edge 26, Type (0, 0), BuildingBlock: ZUJKAS_clean_linker_0, # of connection points: 2
#     Edge 27, Type (0, 0), BuildingBlock: ZUJKAS_clean_linker_0, # of connection points: 2
#     Edge 28, Type (0, 0), BuildingBlock: ZUJKAS_clean_linker_0, # of connection points: 2
#     Edge 29, Type (0, 0), BuildingBlock: ZUJKAS_clean_linker_0, # of connection points: 2
#     Edge 30, Type (0, 0), BuildingBlock: ZUJKAS_clean_linker_0, # of connection points: 2
#     Edge 31, Type (0, 0), BuildingBlock: ZUJKAS_clean_linker_0, # of connection points: 2
# Relax obj value: 0.069
# Max RMSD: 0.133
# Mean RMSD: 0.114
data_MOF--net-snk--node1-CUWYAW_clean_sbu_0--edge1-ZUJKAS_clean_linker_0
_symmetry_space_group_name_H-M    P1
_symmetry_Int_Tables_number       1
_symmetry_cell_setting            triclinic
loop_
_symmetry_equiv_pos_as_xyz
'x, y, z'
_cell_length_a     50.168074
_cell_length_b     49.988025
_cell_length_c     30.140202
_cell_angle_alpha  95.836324
_cell_angle_beta   95.769551
_cell_angle_gamma 90.649043
loop_
_atom_site_label
_atom_site_type_symbol
_atom_site_fract_x
_atom_site_fract_y
_atom_site_fract_z
_atom_type_partial_charge
C0 C 0.0381 0.02093 0.64446 0.0
Eu1 Eu 0.0159 0.01683 0.56176 0.0
C2 C 0.03235 0.01719 0.69049 0.0
C3 C 0.00611 0.01742 0.70289 0.0
C4 C 1.00153 0.01537 0.7476 0.0
C5 C 0.02311 0.01306 0.78067 0.0
C6 C 0.04927 0.01217 0.76758 0.0
C7 C 0.05381 0.01424 0.72302 0.0
C8 C 0.97833 0.04881 0.52533 0.0
C9 C 0.96413 0.97469 0.54687 0.0
C10 C 0.96949 0.99247 0.38358 0.0
Eu11 Eu 0.99159 0.99685 0.46635 0.0
C12 C 0.97522 0.99626 0.33756 0.0
C13 C 1.00146 0.99613 0.32517 0.0
C14 C 0.00604 0.99817 0.28045 0.0
C15 C 0.98444 1.00037 0.24736 0.0
C16 C 0.95827 1.00116 0.26044 0.0
C17 C 0.95375 0.9991 0.305 0.0
C18 C 0.02917 0.965 0.50326 0.0
C19 C 0.04338 0.03891 0.4811 0.0
O20 O 0.03909 0.99924 0.61648 0.0
O21 O 0.02625 0.04075 0.62581 0.0
O22 O 0.99908 0.05789 0.55202 0.0
O23 O 0.97736 0.02347 0.52158 0.0
O24 O 0.98501 0.98517 0.57373 0.0
O25 O 0.96021 0.97948 0.50436 0.0
O26 O 0.9682 0.01414 0.4115 0.0
O27 O 0.98158 0.97281 0.40233 0.0
O28 O 0.0084 0.95577 0.47678 0.0
O29 O 0.03004 0.99031 0.50648 0.0
O30 O 0.02246 0.02848 0.45429 0.0
O31 O 0.04729 0.03417 0.52364 0.0
H32 H 0.98925 0.01961 0.67819 0.0
H33 H 0.98114 0.01628 0.75645 0.0
H34 H 0.06633 0.00985 0.7918 0.0
H35 H 0.07419 0.01386 0.71405 0.0
H36 H 0.01834 0.99402 0.34988 0.0
H37 H 0.02643 0.99733 0.27161 0.0
H38 H 0.9412 1.00339 0.2362 0.0
H39 H 0.93336 0.9994 0.31396 0.0
C40 C 0.25238 0.79541 0.88424 0.0
Eu41 Eu 0.25128 0.77155 0.80296 0.0
C42 C 0.25601 0.78907 0.93113 0.0
C43 C 0.25087 0.76309 0.94248 0.0
C44 C 0.25256 0.75804 0.98755 0.0
C45 C 0.25954 0.77885 0.02206 0.0
C46 C 0.26533 0.80467 1.01029 0.0
C47 C 0.26354 0.8097 0.96528 0.0
C48 C 0.22057 0.72898 0.7654 0.0
C49 C 0.29505 0.72317 0.7958 0.0
C50 C 0.26487 0.72312 0.62784 0.0
Eu51 Eu 0.26536 0.7465 0.70937 0.0
C52 C 0.26152 0.72967 0.58105 0.0
C53 C 0.2667 0.75572 0.57008 0.0
C54 C 0.26511 0.76098 0.5251 0.0
C55 C 0.25817 0.74031 0.49034 0.0
C56 C 0.2524 0.7144 0.50174 0.0
C57 C 0.25409 0.70916 0.54664 0.0
C58 C 0.2957 0.78939 0.74727 0.0
C59 C 0.22083 0.79411 0.71647 0.0
O60 O 0.27345 0.79367 0.86181 0.0
O61 O 0.23046 0.78589 0.86031 0.0
O62 O 0.21156 0.74844 0.79123 0.0
O63 O 0.2453 0.73181 0.76402 0.0
O64 O 0.28625 0.74422 0.82023 0.0
O65 O 0.28634 0.71745 0.75289 0.0
O66 O 0.24362 0.7247 0.64983 0.0
O67 O 0.28663 0.73258 0.65228 0.0
O68 O 0.30511 0.76982 0.7222 0.0
O69 O 0.27098 0.78627 0.74802 0.0
O70 O 0.22992 0.77319 0.69213 0.0
O71 O 0.22965 0.80013 0.75927 0.0
H72 H 0.24516 0.74684 0.91654 0.0
H73 H 0.24835 0.73785 0.99539 0.0
H74 H 0.27048 0.82123 0.0359 0.0
H75 H 0.26753 0.8299 0.95716 0.0
H76 H 0.27233 0.77188 0.59622 0.0
H77 H 0.26933 0.78123 0.51755 0.0
H78 H 0.2473 0.69794 0.47593 0.0
H79 H 0.25007 0.68891 0.55447 0.0
C80 C 0.46976 0.01877 0.88326 0.0
Eu81 Eu 0.49542 0.01314 0.96122 0.0
C82 C 0.47567 0.01764 0.83615 0.0
C83 C 0.46078 0.03316 0.80676 0.0
C84 C 0.46575 0.03212 0.76176 0.0
C85 C 0.48571 0.01544 0.7452 0.0
C86 C 0.50072 1.0 0.77491 0.0
C87 C 0.49583 1.00117 0.82001 0.0
C88 C 0.54122 0.03838 0.99772 0.0
C89 C 0.54278 0.97122 0.97151 0.0
C90 C 0.54175 0.99418 0.13724 0.0
Eu91 Eu 0.51626 0.99997 0.05918 0.0
C92 C 0.53604 0.99604 0.1845 0.0
C93 C 0.55058 0.98042 0.21416 0.0
C94 C 0.54564 0.98194 0.25921 0.0
C95 C 0.52607 0.9992 0.27557 0.0
C96 C 0.51147 0.01481 0.24561 0.0
C97 C 0.51634 0.01317 0.20046 0.0
C98 C 0.47033 0.97506 0.02261 0.0
C99 C 0.46909 0.04201 0.04892 0.0
O100 O 0.47072 0.996 0.90139 0.0
O101 O 0.4805 0.03901 0.91045 0.0
O102 O 0.53538 0.03327 0.95476 0.0
O103 O 0.52149 0.03329 0.01829 0.0
O104 O 0.52324 0.97978 0.94406 0.0
O105 O 0.54548 0.97842 0.01538 0.0
O106 O 0.54166 0.01672 0.11852 0.0
O107 O 0.53015 0.97414 0.11063 0.0
O108 O 0.47591 0.98048 0.06558 0.0
O109 O 0.49018 0.9799 1.00219 0.0
O110 O 0.48925 0.03415 0.07595 0.0
O111 O 0.46586 0.03392 1.00534 0.0
H112 H 0.44514 0.04598 0.81857 0.0
H113 H 0.45363 0.04404 0.73974 0.0
H114 H 0.51645 0.98721 0.76341 0.0
H115 H 0.50773 0.98917 0.84222 0.0
H116 H 0.56587 0.9671 0.20248 0.0
H117 H 0.55748 0.96989 0.28139 0.0
H118 H 0.49604 0.02805 0.25695 0.0
H119 H 0.50472 0.02527 0.17804 0.0
C120 C 0.23339 0.22506 0.13315 0.0
Eu121 Eu 0.24292 0.24464 0.21708 0.0
C122 C 0.23671 0.23111 0.08702 0.0
C123 C 0.21638 0.22298 0.05278 0.0
C124 C 0.21926 0.22714 1.00832 0.0
C125 C 0.24263 0.2395 0.99697 0.0
C126 C 0.26283 0.24812 0.0316 0.0
C127 C 0.25991 0.24395 0.07622 0.0
C128 C 0.21386 0.28155 0.26184 0.0
C129 C 0.2865 0.29521 0.2298 0.0
C130 C 0.27667 0.28627 0.39508 0.0
Eu131 Eu 0.26758 0.26634 0.31129 0.0
C132 C 0.27309 0.28045 0.44123 0.0
C133 C 0.29331 0.28863 0.47563 0.0
C134 C 0.29024 0.28463 0.52008 0.0
C135 C 0.26676 0.27238 0.53127 0.0
C136 C 0.24665 0.26374 0.4965 0.0
C137 C 0.24978 0.26775 0.45188 0.0
C138 C 0.2968 0.22938 0.2667 0.0
C139 C 0.22398 0.21578 0.29845 0.0
O140 O 0.25498 0.22002 0.15887 0.0
O141 O 0.21626 0.23944 0.15473 0.0
O142 O 0.20328 0.26097 0.23613 0.0
O143 O 0.2389 0.28246 0.26109 0.0
O144 O 0.27452 0.275 0.20297 0.0
O145 O 0.28382 0.29834 0.27322 0.0
O146 O 0.25521 0.29124 0.36896 0.0
O147 O 0.29392 0.27178 0.37396 0.0
O148 O 0.3073 0.24972 0.29314 0.0
O149 O 0.27172 0.22856 0.26719 0.0
O150 O 0.23587 0.23604 0.32527 0.0
O151 O 0.22683 0.21255 0.25509 0.0
H152 H 0.19828 0.21313 0.06039 0.0
H153 H 0.20306 0.22071 0.98281 0.0
H154 H 0.28118 0.25754 0.02412 0.0
H155 H 0.2759 0.25042 0.10211 0.0
H156 H 0.3115 0.29838 0.46814 0.0
H157 H 0.30636 0.29108 0.5457 0.0
H158 H 0.22824 0.2544 0.50386 0.0
H159 H 0.23387 0.26124 0.42588 0.0
C160 C 0.74041 0.29185 0.40212 0.0
Eu161 Eu 0.74158 0.26858 0.32091 0.0
C162 C 0.74208 0.28532 0.44916 0.0
C163 C 0.71944 0.28865 0.47283 0.0
C164 C 0.7206 0.28376 0.51779 0.0
C165 C 0.74456 0.27564 0.54046 0.0
C166 C 0.76724 0.2721 0.51662 0.0
C167 C 0.76602 0.27689 0.47146 0.0
C168 C 0.71062 0.2264 0.28202 0.0
C169 C 0.78522 0.2201 0.31658 0.0
C170 C 0.75752 0.21918 0.14785 0.0
Eu171 Eu 0.75686 0.24287 0.2289 0.0
C172 C 0.75555 0.22537 0.1006 0.0
C173 C 0.77831 0.22283 0.07705 0.0
C174 C 0.7769 0.22743 0.03193 0.0
C175 C 0.75259 0.23447 1.00901 0.0
C176 C 0.72979 0.23717 0.03266 0.0
C177 C 0.73123 0.23263 0.07796 0.0
C178 C 0.78796 0.28498 0.26768 0.0
C179 C 0.71377 0.29181 0.23314 0.0
O180 O 0.76221 0.29016 0.38147 0.0
O181 O 0.71895 0.28316 0.37611 0.0
O182 O 0.70135 0.24648 0.30606 0.0
O183 O 0.73552 0.22867 0.28248 0.0
O184 O 0.77631 0.24142 0.34016 0.0
O185 O 0.77675 0.21393 0.2737 0.0
O186 O 0.73586 0.22104 0.16888 0.0
O187 O 0.77911 0.22798 0.17342 0.0
O188 O 0.79705 0.26509 0.24294 0.0
O189 O 0.76306 0.28275 0.26744 0.0
O190 O 0.72243 0.27035 0.20961 0.0
O191 O 0.72217 0.29785 0.2761 0.0
H192 H 0.70076 0.29523 0.45656 0.0
H193 H 0.70262 0.28625 0.53473 0.0
H194 H 0.78611 0.26617 0.53309 0.0
H195 H 0.78391 0.27427 0.45426 0.0
H196 H 0.79728 0.2171 0.09352 0.0
H197 H 0.79496 0.22557 0.01506 0.0
H198 H 0.71067 0.24225 0.01595 0.0
H199 H 0.71324 0.23453 0.09501 0.0
C200 C 0.73486 0.72254 0.62666 0.0
Eu201 Eu 0.74146 0.74301 0.71031 0.0
C202 C 0.73954 0.729 0.58123 0.0
C203 C 0.73173 0.75354 0.56546 0.0
C204 C 0.73474 0.75826 0.52118 0.0
C205 C 0.74575 0.73862 0.49187 0.0
C206 C 0.75413 0.71438 0.50822 0.0
C207 C 0.751 0.70962 0.55236 0.0
C208 C 0.71139 0.7803 0.75178 0.0
C209 C 0.78492 0.79393 0.7242 0.0
C210 C 0.77047 0.78671 0.88876 0.0
Eu211 Eu 0.76431 0.76598 0.80525 0.0
C212 C 0.76567 0.78036 0.93419 0.0
C213 C 0.77359 0.75593 0.95025 0.0
C214 C 0.77053 0.75134 0.99457 0.0
C215 C 0.75937 0.771 0.02364 0.0
C216 C 0.75084 0.79512 1.00698 0.0
C217 C 0.75401 0.79974 0.96279 0.0
C218 C 0.79403 0.72803 0.76407 0.0
C219 C 0.72105 0.71496 0.79153 0.0
O220 O 0.75603 0.71837 0.65399 0.0
O221 O 0.71645 0.73597 0.64675 0.0
O222 O 0.70129 0.75963 0.72572 0.0
O223 O 0.73655 0.78119 0.75271 0.0
O224 O 0.77324 0.77356 0.69731 0.0
O225 O 0.78158 0.79744 0.76734 0.0
O226 O 0.74936 0.79069 0.86117 0.0
O227 O 0.78906 0.77336 0.86901 0.0
O228 O 0.80441 0.74844 0.79053 0.0
O229 O 0.7689 0.72776 0.76304 0.0
O230 O 0.73256 0.73546 0.81831 0.0
O231 O 0.72451 0.71137 0.7484 0.0
H232 H 0.723 0.76894 0.58711 0.0
H233 H 0.72842 0.77729 0.50986 0.0
H234 H 0.76243 0.69871 0.4865 0.0
H235 H 0.7571 0.69053 0.56375 0.0
H236 H 0.78246 0.74053 0.92881 0.0
H237 H 0.77695 0.73239 1.0061 0.0
H238 H 0.74241 0.8108 0.0285 0.0
H239 H 0.7478 0.81875 0.95117 0.0
C240 C 0.53519 0.52465 0.1422 0.0
Eu241 Eu 0.51509 0.5171 0.05839 0.0
C242 C 0.52842 0.52164 0.1881 0.0
C243 C 0.53445 0.54299 0.22169 0.0
C244 C 0.52949 0.54054 0.26593 0.0
C245 C 0.51844 0.51658 0.27772 0.0
C246 C 0.51214 0.49523 0.24387 0.0
C247 C 0.51701 0.49776 0.19944 0.0
C248 C 0.47865 0.54799 0.01653 0.0
C249 C 0.46355 0.47473 0.04542 0.0
C250 C 0.4723 0.48611 0.88036 0.0
Eu251 Eu 0.49226 0.49392 0.96422 0.0
C252 C 0.47907 0.48918 0.83448 0.0
C253 C 0.47307 0.46785 0.80085 0.0
C254 C 0.47804 0.47036 0.75662 0.0
C255 C 0.48907 0.49435 0.7449 0.0
C256 C 0.49533 0.51567 0.77881 0.0
C257 C 0.49045 0.5131 0.82321 0.0
C258 C 0.52884 0.46322 1.00642 0.0
C259 C 0.54367 0.53637 0.97707 0.0
O260 O 0.5385 0.50273 0.11579 0.0
O261 O 0.52268 0.54322 0.12118 0.0
O262 O 0.49934 0.55763 0.04279 0.0
O263 O 0.47716 0.52274 0.01566 0.0
O264 O 0.48416 0.48597 0.07205 0.0
O265 O 0.46012 0.47808 1.00228 0.0
O266 O 0.46872 0.508 0.90668 0.0
O267 O 0.48501 0.46771 0.90148 0.0
O268 O 0.50811 0.45343 0.98043 0.0
O269 O 0.53018 0.48843 1.00683 0.0
O270 O 0.52304 0.52514 0.95051 0.0
O271 O 0.54718 0.53299 0.0202 0.0
H272 H 0.54339 0.56154 0.21378 0.0
H273 H 0.53494 0.55724 0.29114 0.0
H274 H 0.50334 0.47661 0.25168 0.0
H275 H 0.51205 0.48099 0.17414 0.0
H276 H 0.46415 0.44928 0.8087 0.0
H277 H 0.47262 0.45367 0.73137 0.0
H278 H 0.50412 0.53431 0.77105 0.0
H279 H 0.49538 0.52985 0.84856 0.0
C280 C 0.96932 0.51693 0.38956 0.0
Eu281 Eu 0.99523 0.5117 0.46761 0.0
C282 C 0.97458 0.51445 0.34209 0.0
C283 C 1.00081 0.51521 0.32979 0.0
C284 C 0.00531 0.51371 0.28446 0.0
C285 C 0.98366 0.51135 0.25058 0.0
C286 C 0.95745 0.51015 0.26329 0.0
C287 C 0.95299 0.51172 0.30856 0.0
C288 C 0.03727 0.5419 0.50767 0.0
C289 C 0.04566 0.47391 0.47827 0.0
C290 C 0.04144 0.49429 0.64319 0.0
Eu291 Eu 0.01587 0.49963 0.56491 0.0
C292 C 0.03636 0.49786 0.69074 0.0
C293 C 0.01018 0.49759 0.70337 0.0
C294 C 0.00585 0.49974 0.74881 0.0
C295 C 0.02762 0.50228 0.78248 0.0
C296 C 0.05377 0.50309 0.76943 0.0
C297 C 0.05806 0.50087 0.72405 0.0
C298 C 0.97358 0.46977 0.52483 0.0
C299 C 0.96568 0.53761 0.55424 0.0
O300 O 0.96921 0.49462 0.40886 0.0
O301 O 0.98152 0.53692 0.41547 0.0
O302 O 0.03421 0.53455 0.46484 0.0
O303 O 0.01749 0.53456 0.52625 0.0
O304 O 0.02575 0.48116 0.4502 0.0
O305 O 0.04726 0.48088 0.52217 0.0
O306 O 0.04285 0.51615 0.62294 0.0
O307 O 0.02814 0.47466 0.61808 0.0
O308 O 0.97653 0.47737 0.56759 0.0
O309 O 0.99352 0.47682 0.50637 0.0
O310 O 0.98624 0.53122 0.58184 0.0
O311 O 0.96349 0.5295 0.51065 0.0
H312 H 0.01778 0.51726 0.35525 0.0
H313 H 0.02574 0.51495 0.27604 0.0
H314 H 0.94031 0.50784 0.23823 0.0
H315 H 0.93261 0.51092 0.31741 0.0
H316 H 0.99312 0.49534 0.67811 0.0
H317 H 0.98545 0.49878 0.75748 0.0
H318 H 0.071 0.50553 0.79431 0.0
H319 H 0.07841 0.50128 0.71495 0.0
H320 H 0.04654 0.0471 0.39318 0.0
H321 H 0.07859 0.07572 0.36289 0.0
H322 H 0.11631 0.09891 0.49645 0.0
H323 H 0.08479 0.06979 0.52693 0.0
H324 H 0.08705 0.12906 0.37697 0.0
H325 H 0.18073 0.07885 0.43219 0.0
H326 H 0.14804 0.06392 0.4343 0.0
H327 H 0.16146 0.08935 0.47762 0.0
C328 C 0.06177 0.05811 0.41616 0.0
C329 C 0.06315 0.05597 0.46254 0.0
C330 C 0.0801 0.07451 0.39874 0.0
C331 C 0.10023 0.08917 0.42721 0.0
C332 C 0.10148 0.08727 0.47358 0.0
H333 H 0.21757 0.21197 0.387 0.0
H334 H 0.18775 0.18113 0.41789 0.0
C335 C 0.08329 0.07071 0.49102 0.0
C336 C 0.11918 0.10719 0.4085 0.0
H337 H 0.18571 0.12124 0.40384 0.0
C338 C 0.10861 0.1272 0.38263 0.0
C339 C 0.14738 0.10484 0.41583 0.0
C340 C 0.1601 0.08292 0.44111 0.0
C341 C 0.12537 0.14508 0.36458 0.0
C342 C 0.15349 0.14286 0.37228 0.0
C343 C 0.16413 0.12295 0.39814 0.0
C344 C 0.17213 0.161 0.35347 0.0
C345 C 0.11292 0.16656 0.33796 0.0
C346 C 0.17357 0.15961 0.30704 0.0
C347 C 0.1907 0.17709 0.28923 0.0
C348 C 0.20672 0.1964 0.31753 0.0
C349 C 0.20549 0.19745 0.36416 0.0
C350 C 0.18848 0.17981 0.38193 0.0
H351 H 0.09134 0.16899 0.34247 0.0
H352 H 0.12355 0.1862 0.3479 0.0
H353 H 0.11471 0.161 0.30181 0.0
H354 H 0.16135 0.14503 0.28452 0.0
H355 H 0.19109 0.17567 0.25321 0.0
H356 H 0.02711 0.91069 0.50456 0.0
H357 H 0.06008 0.88247 0.54197 0.0
H358 H 0.10935 0.95276 0.58995 0.0
H359 H 0.07648 0.98113 0.55222 0.0
H360 H 0.13759 0.90838 0.55112 0.0
H361 H 0.07384 0.8783 0.67877 0.0
H362 H 0.05858 0.8729 0.62195 0.0
H363 H 0.06636 0.90658 0.64714 0.0
C364 C 0.04496 0.92013 0.52312 0.0
C365 C 0.04921 0.94809 0.52569 0.0
C366 C 0.06369 0.90401 0.54467 0.0
C367 C 0.08698 0.91557 0.56921 0.0
C368 C 0.09143 0.94347 0.57136 0.0
H369 H 0.19708 0.83834 0.7554 0.0
H370 H 0.16534 0.86816 0.71937 0.0
C371 C 0.07265 0.95963 0.54991 0.0
C372 C 0.10685 0.89843 0.59199 0.0
H373 H 0.11471 0.8553 0.67304 0.0
C374 C 0.13266 0.89683 0.57788 0.0
C375 C 0.10042 0.88364 0.62721 0.0
C376 C 0.07338 0.88554 0.64505 0.0
C377 C 0.15207 0.88038 0.59748 0.0
C378 C 0.14537 0.86493 0.63174 0.0
C379 C 0.11972 0.86696 0.64646 0.0
C380 C 0.16479 0.84677 0.65319 0.0
C381 C 0.1797 0.87995 0.58178 0.0
C382 C 0.17479 0.82463 0.62801 0.0
C383 C 0.19296 0.80748 0.6485 0.0
C384 C 0.20141 0.81211 0.69464 0.0
C385 C 0.19112 0.83419 0.71979 0.0
C386 C 0.17293 0.85127 0.69928 0.0
H387 H 0.18357 0.89762 0.56358 0.0
H388 H 0.19537 0.87962 0.61049 0.0
H389 H 0.18155 0.86151 0.55857 0.0
H390 H 0.16839 0.82049 0.59255 0.0
H391 H 0.20036 0.79062 0.62812 0.0
H392 H 0.27691 0.83418 0.79086 0.0
H393 H 0.30293 0.86982 0.83825 0.0
H394 H 0.37596 0.82879 0.81279 0.0
H395 H 0.34999 0.79339 0.76428 0.0
H396 H 0.33499 0.86597 0.91443 0.0
H397 H 0.39318 0.90445 0.78672 0.0
H398 H 0.36449 0.88205 0.77203 0.0
H399 H 0.39676 0.86896 0.78921 0.0
C400 C 0.29855 0.83295 0.79502 0.0
C401 C 0.31158 0.81123 0.77389 0.0
C402 C 0.31333 0.85325 0.82211 0.0
C403 C 0.34133 0.85209 0.82846 0.0
C404 C 0.35439 0.83035 0.80739 0.0
H405 H 0.45216 0.92657 0.04037 0.0
H406 H 0.41691 0.89854 0.99534 0.0
C407 C 0.3396 0.81013 0.77992 0.0
C408 C 0.35679 0.87311 0.85851 0.0
H409 H 0.40888 0.91789 0.86334 0.0
C410 C 0.35098 0.87757 0.90323 0.0
C411 C 0.37723 0.88852 0.8435 0.0
C412 C 0.38311 0.88598 0.79512 0.0
C413 C 0.36575 0.89646 0.93386 0.0
C414 C 0.38726 0.91067 0.91947 0.0
C415 C 0.39247 0.90682 0.87438 0.0
C416 C 0.40554 0.92877 0.95065 0.0
C417 C 0.35808 0.90104 0.98113 0.0
C418 C 0.41075 0.955 0.94054 0.0
C419 C 0.43116 0.97066 0.96563 0.0
C420 C 0.44644 0.96035 1.00119 0.0
C421 C 0.44033 0.93482 1.0131 0.0
C422 C 0.42015 0.91894 0.9876 0.0
H423 H 0.33657 0.89599 0.98248 0.0
H424 H 0.37004 0.88779 1.00248 0.0
H425 H 0.36199 0.92224 0.99548 0.0
H426 H 0.39966 0.96296 0.91225 0.0
H427 H 0.43535 0.99061 0.95676 0.0
H428 H 0.42458 0.06316 1.00574 0.0
H429 H 0.39248 0.09389 0.03852 0.0
H430 H 0.43681 0.09343 0.16862 0.0
H431 H 0.46877 0.06258 0.13651 0.0
H432 H 0.38128 0.08684 0.1695 0.0
H433 H 0.40669 0.17422 0.08013 0.0
H434 H 0.3977 0.1436 0.04495 0.0
H435 H 0.42776 0.14529 0.08298 0.0
C436 C 0.42755 0.06961 0.04132 0.0
C437 C 0.44939 0.06048 0.06839 0.0
C438 C 0.40923 0.08727 0.05995 0.0
C439 C 0.41247 0.0962 0.10589 0.0
C440 C 0.43399 0.08684 0.13306 0.0
H441 H 0.35028 0.231 0.25945 0.0
H442 H 0.37662 0.19786 0.21833 0.0
C443 C 0.45229 0.06923 0.11454 0.0
C444 C 0.39351 0.11526 0.12603 0.0
H445 H 0.3715 0.17968 0.12649 0.0
C446 C 0.379 0.1071 0.15997 0.0
C447 C 0.39081 0.14174 0.11375 0.0
C448 C 0.40669 0.15193 0.07873 0.0
C449 C 0.362 0.12479 0.18228 0.0
C450 C 0.35921 0.15123 0.16986 0.0
C451 C 0.37354 0.15932 0.13566 0.0
C452 C 0.34279 0.17133 0.19383 0.0
C453 C 0.3479 0.11534 0.21996 0.0
C454 C 0.31498 0.16752 0.1933 0.0
C455 C 0.29988 0.18642 0.21694 0.0
C456 C 0.31239 0.20945 0.24122 0.0
C457 C 0.34015 0.21337 0.24117 0.0
C458 C 0.35519 0.19452 0.21759 0.0
H459 H 0.35655 0.09659 0.23155 0.0
H460 H 0.34902 0.13106 0.24894 0.0
H461 H 0.32644 0.11121 0.20814 0.0
H462 H 0.30495 0.14997 0.1746 0.0
H463 H 0.2785 0.18294 0.21639 0.0
H464 H 0.92296 0.94372 0.50056 0.0
H465 H 0.89165 0.91402 0.53058 0.0
H466 H 0.92959 0.9362 0.6642 0.0
H467 H 0.96107 0.9659 0.63461 0.0
H468 H 0.90652 0.86952 0.58464 0.0
H469 H 0.84743 0.94795 0.67259 0.0
H470 H 0.86741 0.95495 0.6283 0.0
H471 H 0.88329 0.95139 0.6834 0.0
C472 C 0.92458 0.94246 0.53639 0.0
C473 C 0.94454 0.9573 0.56514 0.0
C474 C 0.90668 0.92541 0.55345 0.0
C475 C 0.90812 0.92309 0.59964 0.0
C476 C 0.9279 0.93795 0.6285 0.0
H477 H 0.81825 0.83355 0.76976 0.0
H478 H 0.84798 0.86426 0.73876 0.0
C479 C 0.94596 0.95484 0.61145 0.0
C480 C 0.88947 0.90452 0.61748 0.0
H481 H 0.8382 0.90278 0.68373 0.0
C482 C 0.89148 0.87674 0.60615 0.0
C483 C 0.87002 0.91402 0.64575 0.0
C484 C 0.86664 0.94371 0.65811 0.0
C485 C 0.87491 0.85814 0.62304 0.0
C486 C 0.85521 0.86762 0.65104 0.0
C487 C 0.85321 0.89547 0.66225 0.0
C488 C 0.83674 0.84901 0.66953 0.0
C489 C 0.87929 0.8285 0.6118 0.0
C490 C 0.82008 0.83043 0.64101 0.0
C491 C 0.80319 0.81263 0.65867 0.0
C492 C 0.80225 0.81331 0.70529 0.0
C493 C 0.81843 0.83242 0.73372 0.0
C494 C 0.83548 0.85003 0.71602 0.0
H495 H 0.89972 0.82469 0.6017 0.0
H496 H 0.87641 0.81705 0.64072 0.0
H497 H 0.86466 0.82066 0.58325 0.0
H498 H 0.82007 0.8297 0.60498 0.0
H499 H 0.79083 0.7984 0.63572 0.0
H500 H 0.97975 0.10331 0.5275 0.0
H501 H 0.94611 0.13208 0.49313 0.0
H502 H 0.89749 0.062 0.4411 0.0
H503 H 0.93102 0.03308 0.47582 0.0
H504 H 0.92703 0.13112 0.40163 0.0
H505 H 0.84525 0.11173 0.50638 0.0
H506 H 0.8797 0.10361 0.52185 0.0
H507 H 0.85946 0.08217 0.47981 0.0
C508 C 0.96183 0.09404 0.5089 0.0
C509 C 0.95793 0.06599 0.50443 0.0
C510 C 0.94267 0.11049 0.48924 0.0
C511 C 0.91916 0.09921 0.46506 0.0
C512 C 0.91528 0.07115 0.46028 0.0
H513 H 0.80915 0.17577 0.27856 0.0
H514 H 0.84148 0.14672 0.31496 0.0
C515 C 0.9345 0.05466 0.47987 0.0
C516 C 0.89906 0.11688 0.44406 0.0
H517 H 0.83435 0.13734 0.44524 0.0
C518 C 0.90677 0.13251 0.41116 0.0
C519 C 0.87275 0.11888 0.45697 0.0
C520 C 0.86375 0.10341 0.49345 0.0
C521 C 0.88874 0.1498 0.39035 0.0
C522 C 0.86224 0.1513 0.40244 0.0
C523 C 0.85463 0.13599 0.43582 0.0
C524 C 0.84214 0.16866 0.38073 0.0
C525 C 0.89832 0.16663 0.35602 0.0
C526 C 0.83131 0.19031 0.40587 0.0
C527 C 0.81273 0.20702 0.38517 0.0
C528 C 0.80448 0.2022 0.33898 0.0
C529 C 0.81508 0.18017 0.31413 0.0
C530 C 0.83369 0.16358 0.33482 0.0
H531 H 0.92055 0.16799 0.35832 0.0
H532 H 0.89093 0.15734 0.32193 0.0
H533 H 0.8904 0.1873 0.36018 0.0
H534 H 0.8375 0.1945 0.44141 0.0
H535 H 0.80494 0.22373 0.40538 0.0
H536 H 0.72788 0.18091 0.23819 0.0
H537 H 0.70125 0.14818 0.18556 0.0
H538 H 0.63025 0.19403 0.20548 0.0
H539 H 0.65677 0.22654 0.25911 0.0
H540 H 0.622 0.14078 0.20865 0.0
H541 H 0.67217 0.15792 0.05792 0.0
H542 H 0.69501 0.14947 0.10387 0.0
H543 H 0.6769 0.18029 0.10913 0.0
C544 C 0.70657 0.18393 0.23136 0.0
C545 C 0.69427 0.20617 0.2524 0.0
C546 C 0.69147 0.16541 0.20104 0.0
C547 C 0.66396 0.16909 0.19094 0.0
C548 C 0.65155 0.19104 0.21264 0.0
H549 H 0.55624 0.08738 0.97706 0.0
H550 H 0.58858 0.11882 0.02243 0.0
C551 C 0.66662 0.20947 0.24329 0.0
C552 C 0.64793 0.14949 0.15896 0.0
H553 H 0.64261 0.11962 0.05142 0.0
C554 C 0.62641 0.13621 0.17422 0.0
C555 C 0.65361 0.14393 0.11396 0.0
C556 C 0.67551 0.15884 0.09506 0.0
C557 C 0.61052 0.11718 0.1458 0.0
C558 C 0.61691 0.11073 0.10134 0.0
C559 C 0.63816 0.12432 0.08579 0.0
C560 C 0.60092 0.09065 0.07021 0.0
C561 C 0.58671 0.10462 0.16342 0.0
C562 C 0.59828 0.06416 0.08095 0.0
C563 C 0.57969 0.04647 0.0555 0.0
C564 C 0.56403 0.05495 0.01867 0.0
C565 C 0.56827 0.08061 1.00553 0.0
C566 C 0.58661 0.09849 0.03137 0.0
H567 H 0.58053 0.11685 0.19341 0.0
H568 H 0.56929 0.10218 0.13741 0.0
H569 H 0.59209 0.08444 0.17335 0.0
H570 H 0.60976 0.05756 0.11008 0.0
H571 H 0.57707 0.02642 0.06517 0.0
H572 H 0.72586 0.83126 0.78797 0.0
H573 H 0.69849 0.86353 0.82898 0.0
H574 H 0.63452 0.80397 0.81807 0.0
H575 H 0.66125 0.77234 0.77485 0.0
H576 H 0.61456 0.84833 0.79911 0.0
H577 H 0.68216 0.87099 0.95514 0.0
H578 H 0.69828 0.87834 0.90723 0.0
H579 H 0.68844 0.84417 0.91305 0.0
C580 C 0.70598 0.82512 0.79457 0.0
C581 C 0.69556 0.79943 0.77819 0.0
C582 C 0.69045 0.84345 0.81843 0.0
C583 C 0.66456 0.83609 0.82752 0.0
C584 C 0.6544 0.81018 0.81162 0.0
H585 H 0.57131 0.93261 1.01231 0.0
H586 H 0.60072 0.89948 0.97794 0.0
C587 C 0.66966 0.79212 0.7869 0.0
C588 C 0.64735 0.85576 0.85106 0.0
H589 H 0.64596 0.90126 0.94338 0.0
C590 C 0.6214 0.85969 0.83088 0.0
C591 C 0.65597 0.87034 0.89294 0.0
C592 C 0.68262 0.86552 0.91856 0.0
C593 C 0.60403 0.87792 0.85092 0.0
C594 C 0.61325 0.89376 0.89134 0.0
C595 C 0.63901 0.88951 0.91201 0.0
C596 C 0.59635 0.91459 0.91279 0.0
C597 C 0.57574 0.87937 0.82895 0.0
C598 C 0.58463 0.93457 0.88809 0.0
C599 C 0.56736 0.95305 0.90733 0.0
C600 C 0.56216 0.95252 0.95217 0.0
C601 C 0.57496 0.93346 0.97766 0.0
C602 C 0.59176 0.91453 0.95804 0.0
H603 H 0.56937 0.86025 0.80829 0.0
H604 H 0.56127 0.88369 0.85418 0.0
H605 H 0.57475 0.89557 0.8063 0.0
H606 H 0.58863 0.93575 0.8537 0.0
H607 H 0.55814 0.96783 0.88711 0.0
H608 H 0.58428 0.56889 0.02169 0.0
H609 H 0.61469 0.59857 0.98977 0.0
H610 H 0.57814 0.57155 0.85688 0.0
H611 H 0.54723 0.54241 0.88849 0.0
H612 H 0.65204 0.58874 0.93195 0.0
H613 H 0.57319 0.65176 0.85617 0.0
H614 H 0.56634 0.62816 0.89526 0.0
H615 H 0.56852 0.61669 0.83718 0.0
C616 C 0.58269 0.56924 0.98566 0.0
C617 C 0.56313 0.55338 0.95774 0.0
C618 C 0.60011 0.58625 0.96744 0.0
C619 C 0.59838 0.58778 0.92095 0.0
C620 C 0.57941 0.57135 0.89292 0.0
H621 H 0.68865 0.67434 0.74657 0.0
H622 H 0.65972 0.64307 0.77833 0.0
C623 C 0.56184 0.55451 0.9111 0.0
C624 C 0.61657 0.60635 0.90183 0.0
H625 H 0.61728 0.65816 0.83597 0.0
C626 C 0.64441 0.604 0.91116 0.0
C627 C 0.60667 0.62638 0.87476 0.0
C628 C 0.57706 0.63113 0.86558 0.0
C629 C 0.66255 0.62075 0.89358 0.0
C630 C 0.65262 0.64048 0.86615 0.0
C631 C 0.62483 0.64288 0.85679 0.0
C632 C 0.67073 0.65907 0.84719 0.0
C633 C 0.69224 0.61695 0.90383 0.0
C634 C 0.6864 0.67857 0.87538 0.0
C635 C 0.70285 0.6966 0.85735 0.0
C636 C 0.70404 0.69543 0.81071 0.0
C637 C 0.68837 0.67576 0.78261 0.0
C638 C 0.67176 0.65788 0.80068 0.0
H639 H 0.69662 0.59751 0.91763 0.0
H640 H 0.70269 0.61779 0.8732 0.0
H641 H 0.70059 0.63344 0.929 0.0
H642 H 0.68563 0.68008 0.91133 0.0
H643 H 0.71458 0.71149 0.88004 0.0
H644 H 0.6937 0.28774 0.14454 0.0
H645 H 0.66326 0.31834 0.10738 0.0
H646 H 0.66167 0.36827 0.23241 0.0
H647 H 0.69187 0.33773 0.27002 0.0
H648 H 0.61093 0.35706 0.1868 0.0
H649 H 0.6813 0.39379 0.0745 0.0
H650 H 0.6778 0.35781 0.07095 0.0
H651 H 0.69235 0.37615 0.12221 0.0
C652 C 0.68697 0.30527 0.16418 0.0
C653 C 0.69536 0.3103 0.21029 0.0
C654 C 0.66968 0.32283 0.14278 0.0
C655 C 0.66052 0.34581 0.16699 0.0
C656 C 0.66863 0.35074 0.21305 0.0
H657 H 0.57623 0.47983 0.05498 0.0
H658 H 0.60834 0.4521 0.09589 0.0
C659 C 0.68593 0.33324 0.23447 0.0
C660 C 0.64188 0.36432 0.14463 0.0
H661 H 0.63567 0.40582 0.06098 0.0
C662 C 0.61637 0.36781 0.15941 0.0
C663 C 0.64915 0.37861 0.10931 0.0
C664 C 0.67672 0.37667 0.09349 0.0
C665 C 0.59769 0.38469 0.1391 0.0
C666 C 0.60462 0.3982 0.10273 0.0
C667 C 0.63035 0.39526 0.08865 0.0
C668 C 0.58521 0.41506 0.07831 0.0
C669 C 0.57076 0.3881 0.15694 0.0
C670 C 0.56176 0.40336 0.05453 0.0
C671 C 0.5435 0.4191 0.03119 0.0
C672 C 0.54837 0.44683 0.03112 0.0
C673 C 0.57194 0.45853 0.05467 0.0
C674 C 0.59028 0.44272 0.07793 0.0
H675 H 0.57105 0.38203 0.19144 0.0
H676 H 0.56432 0.4093 0.15723 0.0
H677 H 0.5556 0.37526 0.13492 0.0
H678 H 0.55768 0.38199 0.05376 0.0
H679 H 0.52554 0.40954 1.01321 0.0
H680 H 0.92718 0.45598 0.55759 0.0
H681 H 0.89045 0.42712 0.51811 0.0
H682 H 0.93324 0.41756 0.4005 0.0
H683 H 0.96992 0.44598 0.43963 0.0
H684 H 0.87603 0.43043 0.38638 0.0
H685 H 0.8988 0.34373 0.48566 0.0
H686 H 0.89501 0.37619 0.5159 0.0
H687 H 0.92294 0.37054 0.48366 0.0
C688 C 0.92862 0.44772 0.52328 0.0
C689 C 0.9512 0.4532 0.50145 0.0
C690 C 0.90773 0.43133 0.5009 0.0
C691 C 0.90934 0.42029 0.45661 0.0
C692 C 0.9317 0.42608 0.43465 0.0
H693 H 0.84229 0.28825 0.28107 0.0
H694 H 0.86971 0.32273 0.32924 0.0
C695 C 0.95255 0.44232 0.45697 0.0
C696 C 0.88828 0.40194 0.433 0.0
H697 H 0.86473 0.33727 0.42587 0.0
C698 C 0.8732 0.41017 0.39525 0.0
C699 C 0.88505 0.37555 0.44475 0.0
C700 C 0.90134 0.36575 0.48453 0.0
C701 C 0.85531 0.39231 0.36803 0.0
C702 C 0.85252 0.36576 0.37926 0.0
C703 C 0.86705 0.35774 0.41767 0.0
C704 C 0.83583 0.34547 0.34998 0.0
C705 C 0.84035 0.40153 0.32652 0.0
C706 C 0.80787 0.34708 0.34602 0.0
C707 C 0.79224 0.32751 0.31859 0.0
C708 C 0.80446 0.30611 0.295 0.0
C709 C 0.83248 0.30464 0.29885 0.0
C710 C 0.84808 0.32418 0.32636 0.0
H711 H 0.84766 0.42153 0.31925 0.0
H712 H 0.84234 0.38672 0.29703 0.0
H713 H 0.81873 0.40293 0.33116 0.0
H714 H 0.79817 0.36331 0.36442 0.0
H715 H 0.77063 0.329 0.31613 0.0
H716 H 0.84772 0.72865 0.75727 0.0
H717 H 0.87348 0.69486 0.71623 0.0
H718 H 0.80109 0.64789 0.67374 0.0
H719 H 0.77526 0.68145 0.71533 0.0
H720 H 0.84349 0.61766 0.70703 0.0
H721 H 0.87522 0.68085 0.58006 0.0
H722 H 0.8828 0.69588 0.63668 0.0
H723 H 0.84844 0.69005 0.61404 0.0
C724 C 0.83731 0.71115 0.73908 0.0
C725 C 0.80951 0.7077 0.73924 0.0
C726 C 0.852 0.69198 0.71538 0.0
C727 C 0.83912 0.6691 0.69131 0.0
C728 C 0.81137 0.6655 0.6918 0.0
H729 H 0.92185 0.55857 0.50879 0.0
H730 H 0.88875 0.5888 0.53996 0.0
C731 C 0.79666 0.68469 0.71548 0.0
C732 C 0.85484 0.64847 0.66712 0.0
H733 H 0.89821 0.6396 0.58676 0.0
C734 C 0.85526 0.62237 0.68044 0.0
C735 C 0.86982 0.65453 0.63194 0.0
C736 C 0.8689 0.68177 0.61446 0.0
C737 C 0.87113 0.60244 0.66074 0.0
C738 C 0.88728 0.60894 0.62731 0.0
C739 C 0.88602 0.63473 0.61271 0.0
C740 C 0.90653 0.58969 0.60855 0.0
C741 C 0.8705 0.57463 0.67597 0.0
C742 C 0.92756 0.58031 0.63673 0.0
C743 C 0.94646 0.56308 0.61912 0.0
C744 C 0.94485 0.55498 0.57281 0.0
C745 C 0.92366 0.56432 0.54461 0.0
C746 C 0.90475 0.58163 0.56233 0.0
H747 H 0.85176 0.57074 0.69122 0.0
H748 H 0.87226 0.55894 0.64761 0.0
H749 H 0.88762 0.57276 0.70173 0.0
H750 H 0.92965 0.58671 0.67236 0.0
H751 H 0.96252 0.55639 0.64189 0.0
H752 H 0.31934 0.33547 0.27472 0.0
H753 H 0.34812 0.36682 0.24293 0.0
H754 H 0.3211 0.33075 0.10979 0.0
H755 H 0.29225 0.29927 0.14113 0.0
H756 H 0.39 0.35213 0.18487 0.0
H757 H 0.31061 0.41328 0.10454 0.0
H758 H 0.30457 0.39264 0.14851 0.0
H759 H 0.30662 0.37739 0.09245 0.0
C760 C 0.31933 0.33427 0.23864 0.0
C761 C 0.30337 0.31483 0.21052 0.0
C762 C 0.33585 0.3522 0.22055 0.0
C763 C 0.33655 0.35131 0.174 0.0
C764 C 0.32059 0.33204 0.14578 0.0
H765 H 0.42288 0.44242 1.00055 0.0
H766 H 0.39248 0.41258 0.03211 0.0
C767 C 0.30419 0.31397 0.16383 0.0
C768 C 0.35464 0.36995 0.15507 0.0
H769 H 0.35516 0.4221 0.09011 0.0
C770 C 0.38243 0.36752 0.1643 0.0
C771 C 0.34468 0.38985 0.12799 0.0
C772 C 0.31499 0.39371 0.11791 0.0
C773 C 0.40058 0.38416 0.14656 0.0
C774 C 0.39066 0.40435 0.11986 0.0
C775 C 0.36281 0.40672 0.11062 0.0
C776 C 0.40883 0.42306 0.10099 0.0
C777 C 0.43019 0.37938 0.1556 0.0
C778 C 0.42783 0.43937 0.12918 0.0
C779 C 0.44539 0.45632 0.1112 0.0
C780 C 0.44408 0.45767 0.06461 0.0
C781 C 0.4245 0.44192 0.03655 0.0
C782 C 0.40707 0.42481 0.05456 0.0
H783 H 0.43407 0.35869 0.16471 0.0
H784 H 0.44088 0.38252 0.12597 0.0
H785 H 0.43874 0.39371 0.18416 0.0
H786 H 0.42912 0.439 0.16519 0.0
H787 H 0.46002 0.46833 0.13391 0.0
H788 H 0.43136 0.53192 0.96702 0.0
H789 H 0.39953 0.56022 0.92667 0.0
H790 H 0.45034 0.62989 0.9714 0.0
H791 H 0.4822 0.60179 1.01132 0.0
H792 H 0.37219 0.60611 0.96244 0.0
H793 H 0.4376 0.63167 0.83423 0.0
H794 H 0.44414 0.60395 0.86754 0.0
H795 H 0.45286 0.6378 0.89094 0.0
C796 C 0.43575 0.55325 0.968 0.0
C797 C 0.45927 0.56467 0.99211 0.0
C798 C 0.41756 0.56937 0.94506 0.0
C799 C 0.42277 0.59708 0.94558 0.0
C800 C 0.44617 0.60849 0.96991 0.0
H801 H 0.31508 0.7259 0.88433 0.0
H802 H 0.34539 0.69462 0.92011 0.0
C803 C 0.46426 0.59243 0.99291 0.0
C804 C 0.40353 0.61431 0.9216 0.0
H805 H 0.39795 0.65698 0.8397 0.0
C806 C 0.37773 0.61712 0.93542 0.0
C807 C 0.41074 0.62842 0.88606 0.0
C808 C 0.43775 0.62518 0.86844 0.0
C809 C 0.35914 0.63423 0.91538 0.0
C810 C 0.36671 0.64914 0.881 0.0
C811 C 0.39228 0.64577 0.8664 0.0
C812 C 0.34832 0.66817 0.85942 0.0
C813 C 0.33148 0.636 0.93087 0.0
C814 C 0.34043 0.66407 0.81321 0.0
C815 C 0.32322 0.68197 0.79258 0.0
C816 C 0.31368 0.70448 0.81771 0.0
C817 C 0.32192 0.70873 0.86396 0.0
C818 C 0.33912 0.69077 0.88456 0.0
H819 H 0.32666 0.61849 0.94881 0.0
H820 H 0.33043 0.65449 0.9543 0.0
H821 H 0.316 0.63712 0.90211 0.0
H822 H 0.34742 0.64685 0.79313 0.0
H823 H 0.31739 0.67808 0.7569 0.0
H824 H 0.16619 0.72472 0.75413 0.0
H825 H 0.13886 0.6901 0.70602 0.0
H826 H 0.21057 0.65125 0.6674 0.0
H827 H 0.23801 0.68563 0.7156 0.0
H828 H 0.14288 0.67673 0.60882 0.0
H829 H 0.16301 0.59146 0.71224 0.0
H830 H 0.16793 0.62615 0.7353 0.0
H831 H 0.19142 0.61074 0.70006 0.0
C832 C 0.17606 0.70866 0.73564 0.0
C833 C 0.20409 0.70771 0.73844 0.0
C834 C 0.16051 0.68905 0.70816 0.0
C835 C 0.17284 0.66822 0.68356 0.0
C836 C 0.20082 0.66711 0.68657 0.0
H837 H 0.08302 0.5574 0.47452 0.0
H838 H 0.11914 0.58703 0.51413 0.0
C839 C 0.21638 0.68673 0.71394 0.0
C840 C 0.15626 0.64791 0.65417 0.0
H841 H 0.13457 0.58255 0.64516 0.0
C842 C 0.14119 0.65605 0.61636 0.0
C843 C 0.15431 0.62108 0.66449 0.0
C844 C 0.16986 0.6117 0.70534 0.0
C845 C 0.12352 0.63806 0.58898 0.0
C846 C 0.12116 0.61137 0.59981 0.0
C847 C 0.13674 0.60305 0.63698 0.0
C848 C 0.10046 0.59271 0.57598 0.0
C849 C 0.10666 0.64793 0.54984 0.0
C850 C 0.07843 0.58606 0.59807 0.0
C851 C 0.05794 0.5694 0.57569 0.0
C852 C 0.05932 0.55894 0.53101 0.0
C853 C 0.08157 0.5653 0.509 0.0
C854 C 0.1021 0.58214 0.53145 0.0
H855 H 0.10865 0.67005 0.54929 0.0
H856 H 0.11294 0.63798 0.51807 0.0
H857 H 0.08521 0.64259 0.55105 0.0
H858 H 0.07687 0.59421 0.63241 0.0
H859 H 0.04082 0.56507 0.59319 0.0
H860 H 0.22927 0.33255 0.29648 0.0
H861 H 0.20261 0.36575 0.33696 0.0
H862 H 0.13788 0.30726 0.32926 0.0
H863 H 0.16391 0.27466 0.28656 0.0
H864 H 0.11855 0.35169 0.30848 0.0
H865 H 0.1869 0.37537 0.46348 0.0
H866 H 0.20285 0.38168 0.41488 0.0
H867 H 0.19261 0.34787 0.42224 0.0
C868 C 0.20939 0.32683 0.30372 0.0
C869 C 0.19854 0.30115 0.28834 0.0
C870 C 0.19426 0.34571 0.32727 0.0
C871 C 0.16835 0.33894 0.33704 0.0
C872 C 0.15779 0.31303 0.32225 0.0
H873 H 0.07528 0.43642 0.52 0.0
H874 H 0.10544 0.40387 0.48621 0.0
C875 C 0.17265 0.2944 0.29785 0.0
C876 C 0.15152 0.35922 0.36007 0.0
H877 H 0.15087 0.40568 0.45132 0.0
C878 C 0.1256 0.3633 0.33993 0.0
C879 C 0.16043 0.37417 0.40149 0.0
C880 C 0.1871 0.36934 0.427 0.0
C881 C 0.1085 0.38196 0.35963 0.0
C882 C 0.11797 0.39805 0.39967 0.0
C883 C 0.14374 0.39373 0.42023 0.0
C884 C 0.10119 0.419 0.42107 0.0
C885 C 0.0802 0.38358 0.33779 0.0
C886 C 0.08944 0.43892 0.39628 0.0
C887 C 0.07176 0.45709 0.4152 0.0
C888 C 0.06619 0.4563 0.4598 0.0
C889 C 0.07922 0.43748 0.48553 0.0
C890 C 0.09644 0.41887 0.46623 0.0
H891 H 0.07366 0.3645 0.31715 0.0
H892 H 0.06582 0.38801 0.36311 0.0
H893 H 0.07927 0.39979 0.31516 0.0
H894 H 0.09355 0.44014 0.36195 0.0
H895 H 0.06232 0.47168 0.39481 0.0
H896 H 0.98305 0.98629 0.81546 0.0
H897 H 0.97614 0.98483 0.89454 0.0
H898 H 0.04652 0.03529 0.93379 0.0
H899 H 0.05307 0.03762 0.85509 0.0
H900 H 0.01034 0.96584 0.9626 0.0
H901 H 0.99063 0.07398 1.00416 0.0
H902 H 0.98992 0.0587 0.94713 0.0
H903 H 0.02138 0.06789 0.97946 0.0
C904 C 0.99685 0.99739 0.84087 0.0
C905 C 0.0186 0.01211 0.82874 0.0
C906 C 0.99297 0.99639 0.8861 0.0
C907 C 0.01059 0.01025 0.92015 0.0
C908 C 0.03236 0.02483 0.90818 0.0
H909 H 0.02443 0.02722 0.21252 0.0
H910 H 0.03134 0.02865 0.13344 0.0
C911 C 0.03627 0.02585 0.86306 0.0
C912 C 0.0067 0.00888 0.9682 0.0
H913 H 0.99719 0.04754 0.06539 0.0
C914 C 0.00731 0.98368 0.98502 0.0
C915 C 1.00286 0.03218 0.99754 0.0
C916 C 1.00089 0.0597 0.98116 0.0
C917 C 0.00468 0.98119 0.03046 0.0
C918 C 1.00084 1.0045 0.05979 0.0
C919 C 1.00023 0.0297 0.04297 0.0
C920 C 0.99695 1.00313 0.10786 0.0
C921 C 0.00666 0.95368 0.04683 0.0
C922 C 0.97521 0.98851 0.11985 0.0
C923 C 0.97131 0.9875 0.16497 0.0
C924 C 0.98894 1.00131 0.19928 0.0
C925 C 0.01066 0.01607 0.18712 0.0
C926 C 0.01454 0.01706 0.14189 0.0
H927 H 0.01695 0.93941 0.02386 0.0
H928 H 0.01761 0.95468 0.08088 0.0
H929 H 0.98618 0.94546 0.04849 0.0
H930 H 0.96107 0.97801 0.09426 0.0
H931 H 0.95455 0.97569 0.17295 0.0
H932 H 0.22157 0.72161 0.41985 0.0
H933 H 0.22236 0.72803 0.34053 0.0
H934 H 0.29406 0.7774 0.37287 0.0
H935 H 0.29385 0.77052 0.45206 0.0
H936 H 0.22111 0.77585 0.29848 0.0
H937 H 0.31495 0.72076 0.27464 0.0
H938 H 0.29667 0.71827 0.32274 0.0
H939 H 0.31789 0.74716 0.32009 0.0
C940 C 0.23763 0.73368 0.41008 0.0
C941 C 0.25775 0.7454 0.44237 0.0
C942 C 0.23796 0.73745 0.36475 0.0
C943 C 0.25851 0.75283 0.35066 0.0
C944 C 0.27828 0.76505 0.38285 0.0
H945 H 0.29615 0.79782 0.09239 0.0
H946 H 0.2954 0.79167 0.17183 0.0
C947 C 0.27794 0.76135 0.42821 0.0
C948 C 0.25911 0.75621 0.30232 0.0
H949 H 0.2967 0.74397 0.21421 0.0
C950 C 0.23758 0.76879 0.27998 0.0
C951 C 0.28062 0.74699 0.27825 0.0
C952 C 0.30376 0.73232 0.29995 0.0
C953 C 0.23719 0.77283 0.23444 0.0
C954 C 0.2587 0.76361 0.21036 0.0
C955 C 0.28024 0.75104 0.23271 0.0
C956 C 0.25925 0.76689 0.16198 0.0
C957 C 0.21405 0.78749 0.21274 0.0
C958 C 0.23946 0.75458 0.12991 0.0
C959 C 0.23978 0.75812 0.08449 0.0
C960 C 0.25997 0.77398 0.07014 0.0
C961 C 0.28009 0.78581 0.10231 0.0
C962 C 0.27978 0.7822 0.14772 0.0
H963 H 0.2029 0.7991 0.23805 0.0
H964 H 0.22112 0.80149 0.18985 0.0
H965 H 0.19989 0.77264 0.19271 0.0
H966 H 0.22368 0.74228 0.14004 0.0
H967 H 0.22386 0.74889 0.06074 0.0
H968 H 0.49455 0.97068 0.68854 0.0
H969 H 0.50191 0.96837 0.60912 0.0
H970 H 0.49448 0.05439 0.61306 0.0
H971 H 0.48767 0.05695 0.69265 0.0
H972 H 0.46702 0.98549 0.53785 0.0
H973 H 0.56519 0.04008 0.55692 0.0
H974 H 0.55141 0.02648 0.60318 0.0
H975 H 0.53925 0.05749 0.58433 0.0
C976 C 0.49485 0.98915 0.67268 0.0
C977 C 0.49062 0.01402 0.69705 0.0
C978 C 0.49888 0.98777 0.62721 0.0
C979 C 0.49906 0.01123 0.60528 0.0
C980 C 0.49483 0.03607 0.62944 0.0
H981 H 0.5178 0.04435 0.33183 0.0
H982 H 0.51022 0.0471 0.4112 0.0
C983 C 0.49067 0.03747 0.67485 0.0
C984 C 0.50293 0.00963 0.55684 0.0
H985 H 0.54427 0.03021 0.48284 0.0
C986 C 0.48397 0.99515 0.52581 0.0
C987 C 0.52501 0.02234 0.54119 0.0
C988 C 0.54654 0.0373 0.57308 0.0
C989 C 0.48626 0.9934 0.47949 0.0
C990 C 0.50837 1.00605 0.46384 0.0
C991 C 0.52731 0.02057 0.49488 0.0
C992 C 0.51238 1.00423 0.41542 0.0
C993 C 0.46467 0.97849 0.44764 0.0
C994 C 0.5163 0.97924 0.39149 0.0
C995 C 0.52056 0.97759 0.34612 0.0
C996 C 0.52106 1.00093 0.3237 0.0
C997 C 0.51716 0.02596 0.34785 0.0
C998 C 0.513 0.02758 0.39329 0.0
H999 H 0.44592 0.97608 0.46369 0.0
H1000 H 0.46005 0.98911 0.41725 0.0
H1001 H 0.47175 0.95813 0.4369 0.0
H1002 H 0.51633 0.96099 0.40803 0.0
H1003 H 0.52328 0.95798 0.32851 0.0
H1004 H 0.2282 0.20402 0.92267 0.0
H1005 H 0.23247 0.20995 0.84421 0.0
H1006 H 0.26878 0.28842 0.88387 0.0
H1007 H 0.26436 0.28279 0.9626 0.0
H1008 H 0.21071 0.24947 0.79335 0.0
H1009 H 0.32181 0.25243 0.80314 0.0
H1010 H 0.30388 0.24076 0.84675 0.0
H1011 H 0.30795 0.27619 0.84288 0.0
C1012 C 0.23697 0.22265 0.91481 0.0
C1013 C 0.2459 0.24295 0.94914 0.0
C1014 C 0.23951 0.22593 0.86987 0.0
C1015 C 0.25123 0.24948 0.85811 0.0
C1016 C 0.26017 0.26983 0.89217 0.0
H1017 H 0.28104 0.30797 0.6055 0.0
H1018 H 0.27663 0.30215 0.68395 0.0
C1019 C 0.25763 0.26657 0.93721 0.0
C1020 C 0.25343 0.25291 0.8101 0.0
H1021 H 0.29835 0.26266 0.73487 0.0
C1022 C 0.22988 0.25225 0.78051 0.0
C1023 C 0.27844 0.25655 0.79335 0.0
C1024 C 0.3045 0.2563 0.82302 0.0
C1025 C 0.23061 0.25559 0.73486 0.0
C1026 C 0.25563 0.25922 0.71811 0.0
C1027 C 0.27918 0.25989 0.74771 0.0
C1028 C 0.25783 0.26263 0.6701 0.0
C1029 C 0.20455 0.25583 0.70519 0.0
C1030 C 0.2489 0.24226 0.63607 0.0
C1031 C 0.25152 0.24546 0.59102 0.0
C1032 C 0.26332 0.26904 0.57908 0.0
C1033 C 0.27222 0.28938 0.61337 0.0
C1034 C 0.2696 0.28615 0.65831 0.0
H1035 H 0.18725 0.25972 0.72507 0.0
H1036 H 0.20519 0.27136 0.68143 0.0
H1037 H 0.2011 0.23593 0.68536 0.0
H1038 H 0.24027 0.22369 0.64438 0.0
H1039 H 0.24482 0.22922 0.56566 0.0
H1040 H 0.77665 0.20528 0.9427 0.0
H1041 H 0.77551 0.21292 0.86375 0.0
H1042 H 0.72323 0.27979 0.88574 0.0
H1043 H 0.72503 0.27292 0.96524 0.0
H1044 H 0.73202 0.21221 0.79898 0.0
H1045 H 0.78291 0.31261 0.82447 0.0
H1046 H 0.78302 0.29062 0.86843 0.0
H1047 H 0.75402 0.3101 0.85459 0.0
C1048 C 0.76518 0.22186 0.93096 0.0
C1049 C 0.75114 0.23866 0.96054 0.0
C1050 C 0.76439 0.22606 0.8857 0.0
C1051 C 0.74965 0.24719 0.86897 0.0
C1052 C 0.73518 0.26369 0.8981 0.0
H1053 H 0.72119 0.30527 0.60717 0.0
H1054 H 0.7221 0.29742 0.68595 0.0
C1055 C 0.73597 0.25953 0.94345 0.0
C1056 C 0.74914 0.2516 0.82088 0.0
H1057 H 0.76477 0.29748 0.7504 0.0
C1058 C 0.73926 0.23081 0.78831 0.0
C1059 C 0.75861 0.27588 0.80704 0.0
C1060 C 0.77047 0.29852 0.84038 0.0
C1061 C 0.73812 0.23382 0.74231 0.0
C1062 C 0.74761 0.25811 0.72846 0.0
C1063 C 0.7575 0.27888 0.76104 0.0
C1064 C 0.74713 0.26254 0.68036 0.0
C1065 C 0.72615 0.21121 0.70903 0.0
C1066 C 0.7612 0.24574 0.65102 0.0
C1067 C 0.76047 0.24998 0.6057 0.0
C1068 C 0.74583 0.27126 0.58885 0.0
C1069 C 0.73222 0.28835 0.61865 0.0
C1070 C 0.73289 0.28404 0.66386 0.0
H1071 H 0.71345 0.19735 0.72493 0.0
H1072 H 0.71382 0.21912 0.68075 0.0
H1073 H 0.74254 0.19936 0.69519 0.0
H1074 H 0.77281 0.22937 0.66318 0.0
H1075 H 0.77109 0.23634 0.58378 0.0
H1076 H 0.70863 0.76072 0.434 0.0
H1077 H 0.71113 0.76599 0.35466 0.0
H1078 H 0.78973 0.7317 0.36212 0.0
H1079 H 0.78738 0.72632 0.44144 0.0
H1080 H 0.74731 0.7944 0.31298 0.0
H1081 H 0.75026 0.68542 0.25633 0.0
H1082 H 0.74137 0.69785 0.31112 0.0
H1083 H 0.77595 0.69679 0.30021 0.0
C1084 C 0.72656 0.7545 0.41888 0.0
C1085 C 0.74775 0.74294 0.44408 0.0
C1086 C 0.72789 0.7574 0.37344 0.0
C1087 C 0.75039 0.74876 0.35216 0.0
C1088 C 0.77186 0.73785 0.37747 0.0
H1089 H 0.79654 0.74918 0.08177 0.0
H1090 H 0.79401 0.74403 0.16113 0.0
C1091 C 0.77051 0.73485 0.42286 0.0
C1092 C 0.75146 0.75144 0.30365 0.0
H1093 H 0.75774 0.71552 0.20263 0.0
C1094 C 0.74946 0.77715 0.28881 0.0
C1095 C 0.75429 0.72891 0.27211 0.0
C1096 C 0.75535 0.70065 0.28556 0.0
C1097 C 0.75074 0.78101 0.2435 0.0
C1098 C 0.75359 0.75848 0.21196 0.0
C1099 C 0.75558 0.73278 0.2268 0.0
C1100 C 0.7547 0.76116 0.16346 0.0
C1101 C 0.74967 0.80927 0.23003 0.0
C1102 C 0.73322 0.77199 0.13806 0.0
C1103 C 0.73458 0.77492 0.09264 0.0
C1104 C 0.75737 0.76682 0.0715 0.0
C1105 C 0.77859 0.75538 0.09681 0.0
C1106 C 0.77724 0.75255 0.14227 0.0
H1107 H 0.75469 0.82451 0.25926 0.0
H1108 H 0.76369 0.81208 0.20454 0.0
H1109 H 0.72908 0.81309 0.21526 0.0
H1110 H 0.71533 0.77812 0.15335 0.0
H1111 H 0.7177 0.78336 0.07398 0.0
H1112 H 0.47891 0.53788 0.6976 0.0
H1113 H 0.48382 0.5414 0.61834 0.0
H1114 H 0.5138 0.4608 0.60518 0.0
H1115 H 0.50898 0.45711 0.68427 0.0
H1116 H 0.52852 0.53685 0.5709 0.0
H1117 H 0.45288 0.45716 0.50446 0.0
H1118 H 0.45603 0.47162 0.56215 0.0
H1119 H 0.47886 0.44637 0.54367 0.0
C1120 C 0.48678 0.52098 0.67796 0.0
C1121 C 0.49335 0.49713 0.69729 0.0
C1122 C 0.48944 0.52298 0.63257 0.0
C1123 C 0.49865 0.50117 0.60552 0.0
C1124 C 0.50596 0.47763 0.62502 0.0
H1125 H 0.52857 0.47308 0.32511 0.0
H1126 H 0.52367 0.46962 0.40438 0.0
C1127 C 0.50323 0.47558 0.67031 0.0
C1128 C 0.50084 0.50313 0.55706 0.0
H1129 H 0.47898 0.47421 0.45177 0.0
C1130 C 0.51759 0.52324 0.54484 0.0
C1131 C 0.4866 0.48533 0.52302 0.0
C1132 C 0.46739 0.46405 0.53383 0.0
C1133 C 0.5209 0.52573 0.49964 0.0
C1134 C 0.50666 0.50793 0.46561 0.0
C1135 C 0.48991 0.48782 0.47783 0.0
C1136 C 0.50887 0.50987 0.41714 0.0
C1137 C 0.54012 0.54701 0.48883 0.0
C1138 C 0.50159 0.5334 0.39761 0.0
C1139 C 0.50431 0.53542 0.35231 0.0
C1140 C 0.51417 0.51384 0.32536 0.0
C1141 C 0.52072 0.49 0.34473 0.0
C1142 C 0.51806 0.48804 0.39012 0.0
H1143 H 0.55461 0.55391 0.51821 0.0
H1144 H 0.55147 0.53943 0.46052 0.0
H1145 H 0.52864 0.56469 0.47899 0.0
H1146 H 0.49376 0.55025 0.41742 0.0
H1147 H 0.49858 0.55388 0.33831 0.0
H1148 H 0.98819 0.52868 0.82564 0.0
H1149 H 0.981 0.53041 0.90504 0.0
H1150 H 0.04962 0.48074 0.92854 0.0
H1151 H 0.05676 0.47855 0.84928 0.0
H1152 H 0.97182 0.48761 0.95622 0.0
H1153 H 0.06483 0.54513 0.02409 0.0
H1154 H 0.05203 0.54294 0.96564 0.0
H1155 H 0.07015 0.51548 0.9874 0.0
C1156 C 1.00169 0.51799 0.84759 0.0
C1157 C 0.02318 0.50361 0.83093 0.0
C1158 C 0.99762 0.51912 0.89305 0.0
C1159 C 0.01503 0.50607 0.9229 0.0
C1160 C 0.0363 0.49149 0.90637 0.0
H1161 H 0.02333 0.48545 0.20734 0.0
H1162 H 0.03059 0.48409 0.12802 0.0
C1163 C 0.04037 0.4903 0.86096 0.0
C1164 C 0.01059 0.50716 0.9711 0.0
H1165 H 0.03969 0.52696 0.07702 0.0
C1166 C 0.98658 0.49634 0.98264 0.0
C1167 C 0.02991 0.51848 1.00556 0.0
C1168 C 0.05559 0.5314 0.9952 0.0
C1169 C 0.98159 0.49609 0.02768 0.0
C1170 C 1.00092 0.50741 0.06214 0.0
C1171 C 0.02492 0.51824 0.0506 0.0
C1172 C 0.99651 0.5084 0.11035 0.0
C1173 C 0.95592 0.48315 0.03803 0.0
C1174 C 0.9752 0.52287 0.12698 0.0
C1175 C 0.97108 0.52384 0.17235 0.0
C1176 C 0.98826 0.51042 0.20224 0.0
C1177 C 0.00983 0.49622 0.1855 0.0
C1178 C 0.01394 0.4953 0.14008 0.0
H1179 H 0.94667 0.46944 1.00911 0.0
H1180 H 0.95949 0.47158 0.06755 0.0
H1181 H 0.94136 0.49906 0.04588 0.0
H1182 H 0.96186 0.53367 0.10492 0.0
H1183 H 0.95463 0.53546 0.18411 0.0
loop_
_geom_bond_atom_site_label_1
_geom_bond_atom_site_label_2
_geom_bond_distance
_geom_bond_site_symmetry_2
_ccdc_geom_bond_type
C0 Eu1 2.835 1_655 S
C0 C2 1.500 . S
C0 O20 1.270 1_655 S
C0 O21 1.260 . S
Eu1 C0 2.835 1_455 S
Eu1 O20 2.485 . S
Eu1 O21 2.480 1_455 S
Eu1 O22 2.430 1_455 S
Eu1 O23 2.670 1_455 S
Eu1 O24 2.394 1_445 S
Eu1 O29 2.355 1_545 S
Eu1 O31 2.374 . S
C2 C0 1.500 . S
C2 C3 1.377 . S
C2 C7 1.374 1_645 S
C3 C2 1.377 . S
C3 C4 1.395 . S
C3 H32 0.931 . S
C4 C3 1.395 . S
C4 C5 1.383 . S
C4 H33 0.931 . S
C5 C4 1.383 . S
C5 C6 1.394 1_545 S
C6 C5 1.394 1_565 S
C6 C7 1.375 1_655 S
C6 H34 0.931 1_655 S
C7 C2 1.374 1_465 S
C7 C6 1.375 1_455 S
C7 H35 0.936 . S
C8 O22 1.259 . S
C8 O23 1.270 . S
C9 O24 1.251 . S
C9 O25 1.251 . S
C10 Eu11 2.835 1_455 S
C10 C12 1.500 . S
C10 O26 1.264 1_455 S
C10 O27 1.260 . S
Eu11 C10 2.835 1_655 S
Eu11 O23 2.355 1_565 S
Eu11 O25 2.374 . S
Eu11 O26 2.479 . S
Eu11 O27 2.480 1_655 S
Eu11 O28 2.430 1_655 S
Eu11 O29 2.670 1_655 S
Eu11 O30 2.394 1_665 S
C12 C10 1.500 . S
C12 C13 1.377 . S
C12 C17 1.378 1_465 S
C13 C12 1.377 . S
C13 C14 1.395 . S
C13 H36 0.931 . S
C14 C13 1.395 . S
C14 C15 1.383 . S
C14 H37 0.931 . S
C15 C14 1.383 . S
C15 C16 1.394 1_565 S
C16 C15 1.394 1_545 S
C16 C17 1.378 1_455 S
C16 H38 0.931 1_455 S
C17 C12 1.378 1_645 S
C17 C16 1.378 1_655 S
C17 H39 0.930 . S
C18 O28 1.259 . S
C18 O29 1.270 . S
C19 O30 1.251 . S
C19 O31 1.251 . S
O20 C0 1.270 1_455 S
O20 Eu1 2.485 . S
O21 C0 1.260 . S
O21 Eu1 2.480 1_655 S
O22 Eu1 2.430 1_655 S
O22 C8 1.259 . S
O23 Eu1 2.670 1_655 S
O23 C8 1.270 . S
O23 Eu11 2.355 1_545 S
O24 Eu1 2.394 1_665 S
O24 C9 1.251 . S
O25 C9 1.251 . S
O25 Eu11 2.374 . S
O26 C10 1.264 1_655 S
O26 Eu11 2.479 . S
O27 C10 1.260 . S
O27 Eu11 2.480 1_455 S
O28 Eu11 2.430 1_455 S
O28 C18 1.259 . S
O29 Eu1 2.355 1_565 S
O29 Eu11 2.670 1_455 S
O29 C18 1.270 . S
O30 Eu11 2.394 1_445 S
O30 C19 1.251 . S
O31 Eu1 2.374 . S
O31 C19 1.251 . S
H32 C3 0.931 . S
H33 C4 0.931 . S
H34 C6 0.931 1_455 S
H35 C7 0.936 . S
H36 C13 0.931 . S
H37 C14 0.931 . S
H38 C16 0.931 1_655 S
H39 C17 0.930 . S
C40 Eu41 2.835 . S
C40 C42 1.500 . S
C40 O60 1.257 . S
C40 O61 1.260 . S
Eu41 C40 2.835 . S
Eu41 O60 2.473 . S
Eu41 O61 2.480 . S
Eu41 O62 2.430 . S
Eu41 O63 2.670 . S
Eu41 O64 2.394 . S
Eu41 O69 2.355 . S
Eu41 O71 2.374 . S
C42 C40 1.500 . S
C42 C43 1.377 . S
C42 C47 1.377 . S
C43 C42 1.377 . S
C43 C44 1.395 . S
C43 H72 0.931 . S
C44 C43 1.395 . S
C44 C45 1.383 1_556 S
C44 H73 0.931 1_556 S
C45 C44 1.383 1_554 S
C45 C46 1.394 . S
C46 C45 1.394 . S
C46 C47 1.378 1_554 S
C46 H74 0.931 . S
C47 C42 1.377 . S
C47 C46 1.378 1_556 S
C47 H75 0.931 . S
C48 O62 1.259 . S
C48 O63 1.270 . S
C49 O64 1.251 . S
C49 O65 1.251 . S
C50 Eu51 2.835 . S
C50 C52 1.500 . S
C50 O66 1.257 . S
C50 O67 1.260 . S
Eu51 C50 2.835 . S
Eu51 O63 2.355 . S
Eu51 O65 2.374 . S
Eu51 O66 2.473 . S
Eu51 O67 2.480 . S
Eu51 O68 2.430 . S
Eu51 O69 2.670 . S
Eu51 O70 2.394 . S
C52 C50 1.500 . S
C52 C53 1.377 . S
C52 C57 1.377 . S
C53 C52 1.377 . S
C53 C54 1.395 . S
C53 H76 0.931 . S
C54 C53 1.395 . S
C54 C55 1.383 . S
C54 H77 0.931 . S
C55 C54 1.383 . S
C55 C56 1.394 . S
C56 C55 1.394 . S
C56 C57 1.378 . S
C56 H78 0.931 . S
C57 C52 1.377 . S
C57 C56 1.378 . S
C57 H79 0.931 . S
C58 O68 1.259 . S
C58 O69 1.270 . S
C59 O70 1.251 . S
C59 O71 1.251 . S
O60 C40 1.257 . S
O60 Eu41 2.473 . S
O61 C40 1.260 . S
O61 Eu41 2.480 . S
O62 Eu41 2.430 . S
O62 C48 1.259 . S
O63 Eu41 2.670 . S
O63 C48 1.270 . S
O63 Eu51 2.355 . S
O64 Eu41 2.394 . S
O64 C49 1.251 . S
O65 C49 1.251 . S
O65 Eu51 2.374 . S
O66 C50 1.257 . S
O66 Eu51 2.473 . S
O67 C50 1.260 . S
O67 Eu51 2.480 . S
O68 Eu51 2.430 . S
O68 C58 1.259 . S
O69 Eu41 2.355 . S
O69 Eu51 2.670 . S
O69 C58 1.270 . S
O70 Eu51 2.394 . S
O70 C59 1.251 . S
O71 Eu41 2.374 . S
O71 C59 1.251 . S
H72 C43 0.931 . S
H73 C44 0.931 1_554 S
H74 C46 0.931 . S
H75 C47 0.931 . S
H76 C53 0.931 . S
H77 C54 0.931 . S
H78 C56 0.931 . S
H79 C57 0.931 . S
C80 Eu81 2.835 . S
C80 C82 1.500 . S
C80 O100 1.257 1_545 S
C80 O101 1.260 . S
Eu81 C80 2.835 . S
Eu81 O100 2.473 1_545 S
Eu81 O101 2.480 . S
Eu81 O102 2.430 . S
Eu81 O103 2.670 1_556 S
Eu81 O104 2.394 1_545 S
Eu81 O109 2.355 1_545 S
Eu81 O111 2.356 1_556 S
C82 C80 1.500 . S
C82 C83 1.377 . S
C82 C87 1.377 1_545 S
C83 C82 1.377 . S
C83 C84 1.395 . S
C83 H112 0.931 . S
C84 C83 1.395 . S
C84 C85 1.383 1_545 S
C84 H113 0.931 . S
C85 C84 1.383 1_565 S
C85 C86 1.394 . S
C86 C85 1.394 . S
C86 C87 1.378 . S
C86 H114 0.931 . S
C87 C82 1.377 1_565 S
C87 C86 1.378 . S
C87 H115 0.931 . S
C88 O102 1.259 1_554 S
C88 O103 1.270 . S
C89 O104 1.251 . S
C89 O105 1.268 . S
C90 Eu91 2.835 . S
C90 C92 1.500 . S
C90 O106 1.257 1_565 S
C90 O107 1.260 . S
Eu91 C90 2.835 . S
Eu91 O103 2.355 1_565 S
Eu91 O105 2.361 1_554 S
Eu91 O106 2.473 1_565 S
Eu91 O107 2.480 . S
Eu91 O108 2.430 . S
Eu91 O109 2.670 1_554 S
Eu91 O110 2.394 1_565 S
C92 C90 1.500 . S
C92 C93 1.377 . S
C92 C97 1.377 1_565 S
C93 C92 1.377 . S
C93 C94 1.395 . S
C93 H116 0.931 . S
C94 C93 1.395 . S
C94 C95 1.383 1_565 S
C94 H117 0.931 . S
C95 C94 1.383 1_545 S
C95 C96 1.394 . S
C96 C95 1.394 . S
C96 C97 1.378 . S
C96 H118 0.931 . S
C97 C92 1.377 1_545 S
C97 C96 1.378 . S
C97 H119 0.931 . S
C98 O108 1.259 1_556 S
C98 O109 1.270 . S
C99 O110 1.251 . S
C99 O111 1.274 . S
O100 C80 1.257 1_565 S
O100 Eu81 2.473 1_565 S
O101 C80 1.260 . S
O101 Eu81 2.480 . S
O102 Eu81 2.430 . S
O102 C88 1.259 1_556 S
O103 Eu81 2.670 1_554 S
O103 C88 1.270 . S
O103 Eu91 2.355 1_545 S
O104 Eu81 2.394 1_565 S
O104 C89 1.251 . S
O105 C89 1.268 . S
O105 Eu91 2.361 1_556 S
O106 C90 1.257 1_545 S
O106 Eu91 2.473 1_545 S
O107 C90 1.260 . S
O107 Eu91 2.480 . S
O108 Eu91 2.430 . S
O108 C98 1.259 1_554 S
O109 Eu81 2.355 1_565 S
O109 Eu91 2.670 1_556 S
O109 C98 1.270 . S
O110 Eu91 2.394 1_545 S
O110 C99 1.251 . S
O111 Eu81 2.356 1_554 S
O111 C99 1.274 . S
H112 C83 0.931 . S
H113 C84 0.931 . S
H114 C86 0.931 . S
H115 C87 0.931 . S
H116 C93 0.931 . S
H117 C94 0.931 . S
H118 C96 0.931 . S
H119 C97 0.931 . S
C120 Eu121 2.835 . S
C120 C122 1.500 . S
C120 O140 1.257 . S
C120 O141 1.260 . S
Eu121 C120 2.835 . S
Eu121 O140 2.473 . S
Eu121 O141 2.480 . S
Eu121 O142 2.430 . S
Eu121 O143 2.670 . S
Eu121 O144 2.394 . S
Eu121 O149 2.355 . S
Eu121 O151 2.374 . S
C122 C120 1.500 . S
C122 C123 1.377 . S
C122 C127 1.377 . S
C123 C122 1.377 . S
C123 C124 1.395 1_554 S
C123 H152 0.931 . S
C124 C123 1.395 1_556 S
C124 C125 1.383 . S
C124 H153 0.931 . S
C125 C124 1.383 . S
C125 C126 1.404 . S
C126 C125 1.404 . S
C126 C127 1.358 1_556 S
C126 H154 0.941 . S
C127 C122 1.377 . S
C127 C126 1.358 1_554 S
C127 H155 0.931 . S
C128 O142 1.259 . S
C128 O143 1.270 . S
C129 O144 1.251 . S
C129 O145 1.251 . S
C130 Eu131 2.835 . S
C130 C132 1.500 . S
C130 O146 1.257 . S
C130 O147 1.260 . S
Eu131 C130 2.835 . S
Eu131 O143 2.355 . S
Eu131 O145 2.374 . S
Eu131 O146 2.473 . S
Eu131 O147 2.480 . S
Eu131 O148 2.430 . S
Eu131 O149 2.670 . S
Eu131 O150 2.394 . S
C132 C130 1.500 . S
C132 C133 1.377 . S
C132 C137 1.377 . S
C133 C132 1.377 . S
C133 C134 1.395 . S
C133 H156 0.931 . S
C134 C133 1.395 . S
C134 C135 1.383 . S
C134 H157 0.931 . S
C135 C134 1.383 . S
C135 C136 1.394 . S
C136 C135 1.394 . S
C136 C137 1.378 . S
C136 H158 0.931 . S
C137 C132 1.377 . S
C137 C136 1.378 . S
C137 H159 0.931 . S
C138 O148 1.259 . S
C138 O149 1.270 . S
C139 O150 1.251 . S
C139 O151 1.251 . S
O140 C120 1.257 . S
O140 Eu121 2.473 . S
O141 C120 1.260 . S
O141 Eu121 2.480 . S
O142 Eu121 2.430 . S
O142 C128 1.259 . S
O143 Eu121 2.670 . S
O143 C128 1.270 . S
O143 Eu131 2.355 . S
O144 Eu121 2.394 . S
O144 C129 1.251 . S
O145 C129 1.251 . S
O145 Eu131 2.374 . S
O146 C130 1.257 . S
O146 Eu131 2.473 . S
O147 C130 1.260 . S
O147 Eu131 2.480 . S
O148 Eu131 2.430 . S
O148 C138 1.259 . S
O149 Eu121 2.355 . S
O149 Eu131 2.670 . S
O149 C138 1.270 . S
O150 Eu131 2.394 . S
O150 C139 1.251 . S
O151 Eu121 2.374 . S
O151 C139 1.251 . S
H152 C123 0.931 . S
H153 C124 0.931 . S
H154 C126 0.941 . S
H155 C127 0.931 . S
H156 C133 0.931 . S
H157 C134 0.931 . S
H158 C136 0.931 . S
H159 C137 0.931 . S
C160 Eu161 2.835 . S
C160 C162 1.500 . S
C160 O180 1.257 . S
C160 O181 1.260 . S
Eu161 C160 2.835 . S
Eu161 O180 2.473 . S
Eu161 O181 2.480 . S
Eu161 O182 2.430 . S
Eu161 O183 2.670 . S
Eu161 O184 2.394 . S
Eu161 O189 2.355 . S
Eu161 O191 2.374 . S
C162 C160 1.500 . S
C162 C163 1.377 . S
C162 C167 1.377 . S
C163 C162 1.377 . S
C163 C164 1.395 . S
C163 H192 0.931 . S
C164 C163 1.395 . S
C164 C165 1.383 . S
C164 H193 0.931 . S
C165 C164 1.383 . S
C165 C166 1.394 . S
C166 C165 1.394 . S
C166 C167 1.378 . S
C166 H194 0.931 . S
C167 C162 1.377 . S
C167 C166 1.378 . S
C167 H195 0.931 . S
C168 O182 1.259 . S
C168 O183 1.270 . S
C169 O184 1.251 . S
C169 O185 1.251 . S
C170 Eu171 2.835 . S
C170 C172 1.500 . S
C170 O186 1.257 . S
C170 O187 1.260 . S
Eu171 C170 2.835 . S
Eu171 O183 2.355 . S
Eu171 O185 2.374 . S
Eu171 O186 2.473 . S
Eu171 O187 2.480 . S
Eu171 O188 2.430 . S
Eu171 O189 2.670 . S
Eu171 O190 2.394 . S
C172 C170 1.500 . S
C172 C173 1.377 . S
C172 C177 1.377 . S
C173 C172 1.377 . S
C173 C174 1.395 . S
C173 H196 0.931 . S
C174 C173 1.395 . S
C174 C175 1.383 1_554 S
C174 H197 0.931 1_554 S
C175 C174 1.383 1_556 S
C175 C176 1.394 . S
C176 C175 1.394 . S
C176 C177 1.378 1_556 S
C176 H198 0.931 . S
C177 C172 1.377 . S
C177 C176 1.378 1_554 S
C177 H199 0.931 . S
C178 O188 1.259 . S
C178 O189 1.270 . S
C179 O190 1.251 . S
C179 O191 1.251 . S
O180 C160 1.257 . S
O180 Eu161 2.473 . S
O181 C160 1.260 . S
O181 Eu161 2.480 . S
O182 Eu161 2.430 . S
O182 C168 1.259 . S
O183 Eu161 2.670 . S
O183 C168 1.270 . S
O183 Eu171 2.355 . S
O184 Eu161 2.394 . S
O184 C169 1.251 . S
O185 C169 1.251 . S
O185 Eu171 2.374 . S
O186 C170 1.257 . S
O186 Eu171 2.473 . S
O187 C170 1.260 . S
O187 Eu171 2.480 . S
O188 Eu171 2.430 . S
O188 C178 1.259 . S
O189 Eu161 2.355 . S
O189 Eu171 2.670 . S
O189 C178 1.270 . S
O190 Eu171 2.394 . S
O190 C179 1.251 . S
O191 Eu161 2.374 . S
O191 C179 1.251 . S
H192 C163 0.931 . S
H193 C164 0.931 . S
H194 C166 0.931 . S
H195 C167 0.931 . S
H196 C173 0.931 . S
H197 C174 0.931 1_556 S
H198 C176 0.931 . S
H199 C177 0.931 . S
C200 Eu201 2.835 . S
C200 C202 1.500 . S
C200 O220 1.257 . S
C200 O221 1.260 . S
Eu201 C200 2.835 . S
Eu201 O220 2.473 . S
Eu201 O221 2.480 . S
Eu201 O222 2.430 . S
Eu201 O223 2.670 . S
Eu201 O224 2.394 . S
Eu201 O229 2.355 . S
Eu201 O231 2.374 . S
C202 C200 1.500 . S
C202 C203 1.377 . S
C202 C207 1.377 . S
C203 C202 1.377 . S
C203 C204 1.395 . S
C203 H232 0.931 . S
C204 C203 1.395 . S
C204 C205 1.383 . S
C204 H233 0.931 . S
C205 C204 1.383 . S
C205 C206 1.394 . S
C206 C205 1.394 . S
C206 C207 1.378 . S
C206 H234 0.931 . S
C207 C202 1.377 . S
C207 C206 1.378 . S
C207 H235 0.931 . S
C208 O222 1.259 . S
C208 O223 1.270 . S
C209 O224 1.251 . S
C209 O225 1.251 . S
C210 Eu211 2.835 . S
C210 C212 1.500 . S
C210 O226 1.257 . S
C210 O227 1.260 . S
Eu211 C210 2.835 . S
Eu211 O223 2.355 . S
Eu211 O225 2.374 . S
Eu211 O226 2.473 . S
Eu211 O227 2.480 . S
Eu211 O228 2.430 . S
Eu211 O229 2.670 . S
Eu211 O230 2.394 . S
C212 C210 1.500 . S
C212 C213 1.377 . S
C212 C217 1.377 . S
C213 C212 1.377 . S
C213 C214 1.395 1_556 S
C213 H236 0.931 . S
C214 C213 1.395 1_554 S
C214 C215 1.383 . S
C214 H237 0.931 . S
C215 C214 1.383 . S
C215 C216 1.404 . S
C216 C215 1.404 . S
C216 C217 1.358 1_554 S
C216 H238 0.941 . S
C217 C212 1.377 . S
C217 C216 1.358 1_556 S
C217 H239 0.931 . S
C218 O228 1.259 . S
C218 O229 1.270 . S
C219 O230 1.251 . S
C219 O231 1.251 . S
O220 C200 1.257 . S
O220 Eu201 2.473 . S
O221 C200 1.260 . S
O221 Eu201 2.480 . S
O222 Eu201 2.430 . S
O222 C208 1.259 . S
O223 Eu201 2.670 . S
O223 C208 1.270 . S
O223 Eu211 2.355 . S
O224 Eu201 2.394 . S
O224 C209 1.251 . S
O225 C209 1.251 . S
O225 Eu211 2.374 . S
O226 C210 1.257 . S
O226 Eu211 2.473 . S
O227 C210 1.260 . S
O227 Eu211 2.480 . S
O228 Eu211 2.430 . S
O228 C218 1.259 . S
O229 Eu201 2.355 . S
O229 Eu211 2.670 . S
O229 C218 1.270 . S
O230 Eu211 2.394 . S
O230 C219 1.251 . S
O231 Eu201 2.374 . S
O231 C219 1.251 . S
H232 C203 0.931 . S
H233 C204 0.931 . S
H234 C206 0.931 . S
H235 C207 0.931 . S
H236 C213 0.931 . S
H237 C214 0.931 . S
H238 C216 0.941 . S
H239 C217 0.931 . S
C240 Eu241 2.835 . S
C240 C242 1.500 . S
C240 O260 1.257 . S
C240 O261 1.260 . S
Eu241 C240 2.835 . S
Eu241 O260 2.473 . S
Eu241 O261 2.480 . S
Eu241 O262 2.430 . S
Eu241 O263 2.670 1_554 S
Eu241 O264 2.394 . S
Eu241 O269 2.355 . S
Eu241 O271 2.374 . S
C242 C240 1.500 . S
C242 C243 1.377 . S
C242 C247 1.377 . S
C243 C242 1.377 . S
C243 C244 1.395 . S
C243 H272 0.931 . S
C244 C243 1.395 . S
C244 C245 1.383 . S
C244 H273 0.931 . S
C245 C244 1.383 . S
C245 C246 1.394 . S
C246 C245 1.394 . S
C246 C247 1.378 . S
C246 H274 0.931 . S
C247 C242 1.377 . S
C247 C246 1.378 . S
C247 H275 0.931 . S
C248 O262 1.259 1_556 S
C248 O263 1.270 . S
C249 O264 1.251 . S
C249 O265 1.251 1_554 S
C250 Eu251 2.835 . S
C250 C252 1.500 . S
C250 O266 1.257 . S
C250 O267 1.260 . S
Eu251 C250 2.835 . S
Eu251 O263 2.355 . S
Eu251 O265 2.374 . S
Eu251 O266 2.473 . S
Eu251 O267 2.480 . S
Eu251 O268 2.430 . S
Eu251 O269 2.670 1_556 S
Eu251 O270 2.394 . S
C252 C250 1.500 . S
C252 C253 1.377 . S
C252 C257 1.377 . S
C253 C252 1.377 . S
C253 C254 1.395 . S
C253 H276 0.931 . S
C254 C253 1.395 . S
C254 C255 1.383 . S
C254 H277 0.931 . S
C255 C254 1.383 . S
C255 C256 1.394 . S
C256 C255 1.394 . S
C256 C257 1.378 . S
C256 H278 0.931 . S
C257 C252 1.377 . S
C257 C256 1.378 . S
C257 H279 0.931 . S
C258 O268 1.259 1_554 S
C258 O269 1.270 . S
C259 O270 1.251 . S
C259 O271 1.251 1_556 S
O260 C240 1.257 . S
O260 Eu241 2.473 . S
O261 C240 1.260 . S
O261 Eu241 2.480 . S
O262 Eu241 2.430 . S
O262 C248 1.259 1_554 S
O263 Eu241 2.670 1_556 S
O263 C248 1.270 . S
O263 Eu251 2.355 . S
O264 Eu241 2.394 . S
O264 C249 1.251 . S
O265 C249 1.251 1_556 S
O265 Eu251 2.374 . S
O266 C250 1.257 . S
O266 Eu251 2.473 . S
O267 C250 1.260 . S
O267 Eu251 2.480 . S
O268 Eu251 2.430 . S
O268 C258 1.259 1_556 S
O269 Eu241 2.355 . S
O269 Eu251 2.670 1_554 S
O269 C258 1.270 . S
O270 Eu251 2.394 . S
O270 C259 1.251 . S
O271 Eu241 2.374 . S
O271 C259 1.251 1_554 S
H272 C243 0.931 . S
H273 C244 0.931 . S
H274 C246 0.931 . S
H275 C247 0.931 . S
H276 C253 0.931 . S
H277 C254 0.931 . S
H278 C256 0.931 . S
H279 C257 0.931 . S
C280 Eu281 2.835 1_455 S
C280 C282 1.500 . S
C280 O300 1.257 1_455 S
C280 O301 1.260 . S
Eu281 C280 2.835 1_655 S
Eu281 O300 2.473 . S
Eu281 O301 2.480 1_655 S
Eu281 O302 2.430 1_655 S
Eu281 O303 2.670 1_655 S
Eu281 O304 2.394 1_655 S
Eu281 O309 2.355 . S
Eu281 O311 2.374 . S
C282 C280 1.500 . S
C282 C283 1.377 . S
C282 C287 1.373 1_455 S
C283 C282 1.377 . S
C283 C284 1.395 . S
C283 H312 0.931 . S
C284 C283 1.395 . S
C284 C285 1.383 . S
C284 H313 0.931 . S
C285 C284 1.383 . S
C285 C286 1.394 . S
C286 C285 1.394 . S
C286 C287 1.375 1_455 S
C286 H314 0.931 1_455 S
C287 C282 1.373 1_655 S
C287 C286 1.375 1_655 S
C287 H315 0.938 . S
C288 O302 1.259 . S
C288 O303 1.270 . S
C289 O304 1.251 . S
C289 O305 1.251 . S
C290 Eu291 2.835 1_655 S
C290 C292 1.500 . S
C290 O306 1.257 1_655 S
C290 O307 1.260 . S
Eu291 C290 2.835 1_455 S
Eu291 O303 2.355 . S
Eu291 O305 2.374 . S
Eu291 O306 2.473 . S
Eu291 O307 2.480 1_455 S
Eu291 O308 2.430 1_455 S
Eu291 O309 2.670 1_455 S
Eu291 O310 2.394 1_455 S
C292 C290 1.500 . S
C292 C293 1.377 . S
C292 C297 1.370 1_655 S
C293 C292 1.377 . S
C293 C294 1.395 . S
C293 H316 0.931 . S
C294 C293 1.395 . S
C294 C295 1.383 . S
C294 H317 0.931 . S
C295 C294 1.383 . S
C295 C296 1.394 . S
C296 C295 1.394 . S
C296 C297 1.372 1_655 S
C296 H318 0.931 1_655 S
C297 C292 1.370 1_455 S
C297 C296 1.372 1_455 S
C297 H319 0.944 . S
C298 O308 1.259 . S
C298 O309 1.270 . S
C299 O310 1.251 . S
C299 O311 1.251 . S
O300 C280 1.257 1_655 S
O300 Eu281 2.473 . S
O301 C280 1.260 . S
O301 Eu281 2.480 1_455 S
O302 Eu281 2.430 1_455 S
O302 C288 1.259 . S
O303 Eu281 2.670 1_455 S
O303 C288 1.270 . S
O303 Eu291 2.355 . S
O304 Eu281 2.394 1_455 S
O304 C289 1.251 . S
O305 C289 1.251 . S
O305 Eu291 2.374 . S
O306 C290 1.257 1_455 S
O306 Eu291 2.473 . S
O307 C290 1.260 . S
O307 Eu291 2.480 1_655 S
O308 Eu291 2.430 1_655 S
O308 C298 1.259 . S
O309 Eu281 2.355 . S
O309 Eu291 2.670 1_655 S
O309 C298 1.270 . S
O310 Eu291 2.394 1_655 S
O310 C299 1.251 . S
O311 Eu281 2.374 . S
O311 C299 1.251 . S
H312 C283 0.931 . S
H313 C284 0.931 . S
H314 C286 0.931 1_655 S
H315 C287 0.938 . S
H316 C293 0.931 . S
H317 C294 0.931 . S
H318 C296 0.931 1_455 S
H319 C297 0.944 . S
H320 C328 0.929 . S
H321 C330 0.930 . S
H322 C332 0.930 . S
H323 C335 0.929 . S
H324 C338 0.930 . S
H325 C340 0.960 . S
H326 C340 0.960 . S
H327 C340 0.960 . S
C328 H320 0.929 . S
C328 C329 1.377 . S
C328 C330 1.384 . S
C329 C328 1.377 . S
C329 C335 1.390 . S
C330 H321 0.930 . S
C330 C328 1.384 . S
C330 C331 1.372 . S
C331 C330 1.372 . S
C331 C332 1.400 . S
C331 C336 1.490 . S
C332 H322 0.930 . S
C332 C331 1.400 . S
C332 C335 1.386 . S
H333 C349 0.930 . S
H334 C350 0.931 . S
C335 H323 0.929 . S
C335 C329 1.390 . S
C335 C332 1.386 . S
C336 C331 1.490 . S
C336 C338 1.395 . S
C336 C339 1.403 . S
H337 C343 0.930 . S
C338 H324 0.930 . S
C338 C336 1.395 . S
C338 C341 1.403 . S
C339 C336 1.403 . S
C339 C340 1.524 . S
C339 C343 1.400 . S
C340 H325 0.960 . S
C340 H326 0.960 . S
C340 H327 0.960 . S
C340 C339 1.524 . S
C341 C338 1.403 . S
C341 C342 1.392 . S
C341 C345 1.495 . S
C342 C341 1.392 . S
C342 C343 1.385 . S
C342 C344 1.478 . S
C343 H337 0.930 . S
C343 C339 1.400 . S
C343 C342 1.385 . S
C344 C342 1.478 . S
C344 C346 1.381 . S
C344 C350 1.383 . S
C345 C341 1.495 . S
C345 H351 0.959 . S
C345 H352 0.961 . S
C345 H353 0.960 . S
C346 C344 1.381 . S
C346 C347 1.394 . S
C346 H354 0.930 . S
C347 C346 1.394 . S
C347 C348 1.383 . S
C347 H355 0.929 . S
C348 C347 1.383 . S
C348 C349 1.377 . S
C349 H333 0.930 . S
C349 C348 1.377 . S
C349 C350 1.379 . S
C350 H334 0.931 . S
C350 C344 1.383 . S
C350 C349 1.379 . S
H351 C345 0.959 . S
H352 C345 0.961 . S
H353 C345 0.960 . S
H354 C346 0.930 . S
H355 C347 0.929 . S
H356 C364 0.929 . S
H357 C366 0.930 . S
H358 C368 0.930 . S
H359 C371 0.929 . S
H360 C374 0.930 . S
H361 C376 0.960 . S
H362 C376 0.960 . S
H363 C376 0.960 . S
C364 H356 0.929 . S
C364 C365 1.377 . S
C364 C366 1.384 . S
C365 C364 1.377 . S
C365 C371 1.390 . S
C366 H357 0.930 . S
C366 C364 1.384 . S
C366 C367 1.372 . S
C367 C366 1.372 . S
C367 C368 1.400 . S
C367 C372 1.490 . S
C368 H358 0.930 . S
C368 C367 1.400 . S
C368 C371 1.386 . S
H369 C385 0.930 . S
H370 C386 0.931 . S
C371 H359 0.929 . S
C371 C365 1.390 . S
C371 C368 1.386 . S
C372 C367 1.490 . S
C372 C374 1.395 . S
C372 C375 1.403 . S
H373 C379 0.930 . S
C374 H360 0.930 . S
C374 C372 1.395 . S
C374 C377 1.403 . S
C375 C372 1.403 . S
C375 C376 1.524 . S
C375 C379 1.400 . S
C376 H361 0.960 . S
C376 H362 0.960 . S
C376 H363 0.960 . S
C376 C375 1.524 . S
C377 C374 1.403 . S
C377 C378 1.392 . S
C377 C381 1.495 . S
C378 C377 1.392 . S
C378 C379 1.385 . S
C378 C380 1.478 . S
C379 H373 0.930 . S
C379 C375 1.400 . S
C379 C378 1.385 . S
C380 C378 1.478 . S
C380 C382 1.381 . S
C380 C386 1.383 . S
C381 C377 1.495 . S
C381 H387 0.959 . S
C381 H388 0.961 . S
C381 H389 0.960 . S
C382 C380 1.381 . S
C382 C383 1.394 . S
C382 H390 0.930 . S
C383 C382 1.394 . S
C383 C384 1.383 . S
C383 H391 0.929 . S
C384 C383 1.383 . S
C384 C385 1.377 . S
C385 H369 0.930 . S
C385 C384 1.377 . S
C385 C386 1.379 . S
C386 H370 0.931 . S
C386 C380 1.383 . S
C386 C385 1.379 . S
H387 C381 0.959 . S
H388 C381 0.961 . S
H389 C381 0.960 . S
H390 C382 0.930 . S
H391 C383 0.929 . S
H392 C400 0.929 . S
H393 C402 0.930 . S
H394 C404 0.930 . S
H395 C407 0.929 . S
H396 C410 0.930 . S
H397 C412 0.960 . S
H398 C412 0.960 . S
H399 C412 0.960 . S
C400 H392 0.929 . S
C400 C401 1.377 . S
C400 C402 1.384 . S
C401 C400 1.377 . S
C401 C407 1.390 . S
C402 H393 0.930 . S
C402 C400 1.384 . S
C402 C403 1.372 . S
C403 C402 1.372 . S
C403 C404 1.400 . S
C403 C408 1.490 . S
C404 H394 0.930 . S
C404 C403 1.400 . S
C404 C407 1.386 . S
H405 C421 0.930 . S
H406 C422 0.931 . S
C407 H395 0.929 . S
C407 C401 1.390 . S
C407 C404 1.386 . S
C408 C403 1.490 . S
C408 C410 1.395 . S
C408 C411 1.403 . S
H409 C415 0.930 . S
C410 H396 0.930 . S
C410 C408 1.395 . S
C410 C413 1.403 . S
C411 C408 1.403 . S
C411 C412 1.524 . S
C411 C415 1.400 . S
C412 H397 0.960 . S
C412 H398 0.960 . S
C412 H399 0.960 . S
C412 C411 1.524 . S
C413 C410 1.403 . S
C413 C414 1.392 . S
C413 C417 1.495 . S
C414 C413 1.392 . S
C414 C415 1.385 . S
C414 C416 1.478 . S
C415 H409 0.930 . S
C415 C411 1.400 . S
C415 C414 1.385 . S
C416 C414 1.478 . S
C416 C418 1.381 . S
C416 C422 1.383 . S
C417 C413 1.495 . S
C417 H423 0.959 . S
C417 H424 0.961 . S
C417 H425 0.960 . S
C418 C416 1.381 . S
C418 C419 1.394 . S
C418 H426 0.930 . S
C419 C418 1.394 . S
C419 C420 1.383 . S
C419 H427 0.929 . S
C420 C419 1.383 . S
C420 C421 1.377 . S
C421 H405 0.930 . S
C421 C420 1.377 . S
C421 C422 1.379 . S
C422 H406 0.931 . S
C422 C416 1.383 . S
C422 C421 1.379 . S
H423 C417 0.959 . S
H424 C417 0.961 . S
H425 C417 0.960 . S
H426 C418 0.930 . S
H427 C419 0.929 . S
H428 C436 0.929 . S
H429 C438 0.930 . S
H430 C440 0.930 . S
H431 C443 0.929 . S
H432 C446 0.930 . S
H433 C448 0.960 . S
H434 C448 0.960 . S
H435 C448 0.960 . S
C436 H428 0.929 . S
C436 C437 1.377 . S
C436 C438 1.384 . S
C437 C436 1.377 . S
C437 C443 1.390 . S
C438 H429 0.930 . S
C438 C436 1.384 . S
C438 C439 1.372 . S
C439 C438 1.372 . S
C439 C440 1.400 . S
C439 C444 1.490 . S
C440 H430 0.930 . S
C440 C439 1.400 . S
C440 C443 1.386 . S
H441 C457 0.930 . S
H442 C458 0.931 . S
C443 H431 0.929 . S
C443 C437 1.390 . S
C443 C440 1.386 . S
C444 C439 1.490 . S
C444 C446 1.395 . S
C444 C447 1.403 . S
H445 C451 0.930 . S
C446 H432 0.930 . S
C446 C444 1.395 . S
C446 C449 1.403 . S
C447 C444 1.403 . S
C447 C448 1.524 . S
C447 C451 1.400 . S
C448 H433 0.960 . S
C448 H434 0.960 . S
C448 H435 0.960 . S
C448 C447 1.524 . S
C449 C446 1.403 . S
C449 C450 1.392 . S
C449 C453 1.495 . S
C450 C449 1.392 . S
C450 C451 1.385 . S
C450 C452 1.478 . S
C451 H445 0.930 . S
C451 C447 1.400 . S
C451 C450 1.385 . S
C452 C450 1.478 . S
C452 C454 1.381 . S
C452 C458 1.383 . S
C453 C449 1.495 . S
C453 H459 0.959 . S
C453 H460 0.961 . S
C453 H461 0.960 . S
C454 C452 1.381 . S
C454 C455 1.394 . S
C454 H462 0.930 . S
C455 C454 1.394 . S
C455 C456 1.383 . S
C455 H463 0.929 . S
C456 C455 1.383 . S
C456 C457 1.377 . S
C457 H441 0.930 . S
C457 C456 1.377 . S
C457 C458 1.379 . S
C458 H442 0.931 . S
C458 C452 1.383 . S
C458 C457 1.379 . S
H459 C453 0.959 . S
H460 C453 0.961 . S
H461 C453 0.960 . S
H462 C454 0.930 . S
H463 C455 0.929 . S
H464 C472 0.929 . S
H465 C474 0.930 . S
H466 C476 0.930 . S
H467 C479 0.929 . S
H468 C482 0.930 . S
H469 C484 0.960 . S
H470 C484 0.960 . S
H471 C484 0.960 . S
C472 H464 0.929 . S
C472 C473 1.377 . S
C472 C474 1.384 . S
C473 C472 1.377 . S
C473 C479 1.390 . S
C474 H465 0.930 . S
C474 C472 1.384 . S
C474 C475 1.372 . S
C475 C474 1.372 . S
C475 C476 1.400 . S
C475 C480 1.490 . S
C476 H466 0.930 . S
C476 C475 1.400 . S
C476 C479 1.386 . S
H477 C493 0.930 . S
H478 C494 0.931 . S
C479 H467 0.929 . S
C479 C473 1.390 . S
C479 C476 1.386 . S
C480 C475 1.490 . S
C480 C482 1.395 . S
C480 C483 1.403 . S
H481 C487 0.930 . S
C482 H468 0.930 . S
C482 C480 1.395 . S
C482 C485 1.403 . S
C483 C480 1.403 . S
C483 C484 1.524 . S
C483 C487 1.400 . S
C484 H469 0.960 . S
C484 H470 0.960 . S
C484 H471 0.960 . S
C484 C483 1.524 . S
C485 C482 1.403 . S
C485 C486 1.392 . S
C485 C489 1.495 . S
C486 C485 1.392 . S
C486 C487 1.385 . S
C486 C488 1.478 . S
C487 H481 0.930 . S
C487 C483 1.400 . S
C487 C486 1.385 . S
C488 C486 1.478 . S
C488 C490 1.381 . S
C488 C494 1.383 . S
C489 C485 1.495 . S
C489 H495 0.959 . S
C489 H496 0.961 . S
C489 H497 0.960 . S
C490 C488 1.381 . S
C490 C491 1.394 . S
C490 H498 0.930 . S
C491 C490 1.394 . S
C491 C492 1.383 . S
C491 H499 0.929 . S
C492 C491 1.383 . S
C492 C493 1.377 . S
C493 H477 0.930 . S
C493 C492 1.377 . S
C493 C494 1.379 . S
C494 H478 0.931 . S
C494 C488 1.383 . S
C494 C493 1.379 . S
H495 C489 0.959 . S
H496 C489 0.961 . S
H497 C489 0.960 . S
H498 C490 0.930 . S
H499 C491 0.929 . S
H500 C508 0.929 . S
H501 C510 0.930 . S
H502 C512 0.930 . S
H503 C515 0.929 . S
H504 C518 0.930 . S
H505 C520 0.960 . S
H506 C520 0.960 . S
H507 C520 0.960 . S
C508 H500 0.929 . S
C508 C509 1.377 . S
C508 C510 1.384 . S
C509 C508 1.377 . S
C509 C515 1.390 . S
C510 H501 0.930 . S
C510 C508 1.384 . S
C510 C511 1.372 . S
C511 C510 1.372 . S
C511 C512 1.400 . S
C511 C516 1.490 . S
C512 H502 0.930 . S
C512 C511 1.400 . S
C512 C515 1.386 . S
H513 C529 0.930 . S
H514 C530 0.931 . S
C515 H503 0.929 . S
C515 C509 1.390 . S
C515 C512 1.386 . S
C516 C511 1.490 . S
C516 C518 1.395 . S
C516 C519 1.403 . S
H517 C523 0.930 . S
C518 H504 0.930 . S
C518 C516 1.395 . S
C518 C521 1.403 . S
C519 C516 1.403 . S
C519 C520 1.524 . S
C519 C523 1.400 . S
C520 H505 0.960 . S
C520 H506 0.960 . S
C520 H507 0.960 . S
C520 C519 1.524 . S
C521 C518 1.403 . S
C521 C522 1.392 . S
C521 C525 1.495 . S
C522 C521 1.392 . S
C522 C523 1.385 . S
C522 C524 1.478 . S
C523 H517 0.930 . S
C523 C519 1.400 . S
C523 C522 1.385 . S
C524 C522 1.478 . S
C524 C526 1.381 . S
C524 C530 1.383 . S
C525 C521 1.495 . S
C525 H531 0.959 . S
C525 H532 0.961 . S
C525 H533 0.960 . S
C526 C524 1.381 . S
C526 C527 1.394 . S
C526 H534 0.930 . S
C527 C526 1.394 . S
C527 C528 1.383 . S
C527 H535 0.929 . S
C528 C527 1.383 . S
C528 C529 1.377 . S
C529 H513 0.930 . S
C529 C528 1.377 . S
C529 C530 1.379 . S
C530 H514 0.931 . S
C530 C524 1.383 . S
C530 C529 1.379 . S
H531 C525 0.959 . S
H532 C525 0.961 . S
H533 C525 0.960 . S
H534 C526 0.930 . S
H535 C527 0.929 . S
H536 C544 0.929 . S
H537 C546 0.930 . S
H538 C548 0.930 . S
H539 C551 0.929 . S
H540 C554 0.930 . S
H541 C556 0.960 . S
H542 C556 0.960 . S
H543 C556 0.960 . S
C544 H536 0.929 . S
C544 C545 1.377 . S
C544 C546 1.384 . S
C545 C544 1.377 . S
C545 C551 1.390 . S
C546 H537 0.930 . S
C546 C544 1.384 . S
C546 C547 1.372 . S
C547 C546 1.372 . S
C547 C548 1.400 . S
C547 C552 1.490 . S
C548 H538 0.930 . S
C548 C547 1.400 . S
C548 C551 1.386 . S
H549 C565 0.930 . S
H550 C566 0.931 . S
C551 H539 0.929 . S
C551 C545 1.390 . S
C551 C548 1.386 . S
C552 C547 1.490 . S
C552 C554 1.395 . S
C552 C555 1.403 . S
H553 C559 0.930 . S
C554 H540 0.930 . S
C554 C552 1.395 . S
C554 C557 1.403 . S
C555 C552 1.403 . S
C555 C556 1.524 . S
C555 C559 1.400 . S
C556 H541 0.960 . S
C556 H542 0.960 . S
C556 H543 0.960 . S
C556 C555 1.524 . S
C557 C554 1.403 . S
C557 C558 1.392 . S
C557 C561 1.495 . S
C558 C557 1.392 . S
C558 C559 1.385 . S
C558 C560 1.478 . S
C559 H553 0.930 . S
C559 C555 1.400 . S
C559 C558 1.385 . S
C560 C558 1.478 . S
C560 C562 1.381 . S
C560 C566 1.383 . S
C561 C557 1.495 . S
C561 H567 0.959 . S
C561 H568 0.961 . S
C561 H569 0.960 . S
C562 C560 1.381 . S
C562 C563 1.394 . S
C562 H570 0.930 . S
C563 C562 1.394 . S
C563 C564 1.383 . S
C563 H571 0.929 . S
C564 C563 1.383 . S
C564 C565 1.377 . S
C565 H549 0.930 . S
C565 C564 1.377 . S
C565 C566 1.379 . S
C566 H550 0.931 . S
C566 C560 1.383 . S
C566 C565 1.379 . S
H567 C561 0.959 . S
H568 C561 0.961 . S
H569 C561 0.960 . S
H570 C562 0.930 . S
H571 C563 0.929 . S
H572 C580 0.929 . S
H573 C582 0.930 . S
H574 C584 0.930 . S
H575 C587 0.929 . S
H576 C590 0.930 . S
H577 C592 0.960 . S
H578 C592 0.960 . S
H579 C592 0.960 . S
C580 H572 0.929 . S
C580 C581 1.377 . S
C580 C582 1.384 . S
C581 C580 1.377 . S
C581 C587 1.390 . S
C582 H573 0.930 . S
C582 C580 1.384 . S
C582 C583 1.372 . S
C583 C582 1.372 . S
C583 C584 1.400 . S
C583 C588 1.490 . S
C584 H574 0.930 . S
C584 C583 1.400 . S
C584 C587 1.386 . S
H585 C601 0.930 . S
H586 C602 0.931 . S
C587 H575 0.929 . S
C587 C581 1.390 . S
C587 C584 1.386 . S
C588 C583 1.490 . S
C588 C590 1.395 . S
C588 C591 1.403 . S
H589 C595 0.930 . S
C590 H576 0.930 . S
C590 C588 1.395 . S
C590 C593 1.403 . S
C591 C588 1.403 . S
C591 C592 1.524 . S
C591 C595 1.400 . S
C592 H577 0.960 . S
C592 H578 0.960 . S
C592 H579 0.960 . S
C592 C591 1.524 . S
C593 C590 1.403 . S
C593 C594 1.392 . S
C593 C597 1.495 . S
C594 C593 1.392 . S
C594 C595 1.385 . S
C594 C596 1.478 . S
C595 H589 0.930 . S
C595 C591 1.400 . S
C595 C594 1.385 . S
C596 C594 1.478 . S
C596 C598 1.381 . S
C596 C602 1.383 . S
C597 C593 1.495 . S
C597 H603 0.959 . S
C597 H604 0.961 . S
C597 H605 0.960 . S
C598 C596 1.381 . S
C598 C599 1.394 . S
C598 H606 0.930 . S
C599 C598 1.394 . S
C599 C600 1.383 . S
C599 H607 0.929 . S
C600 C599 1.383 . S
C600 C601 1.377 . S
C601 H585 0.930 . S
C601 C600 1.377 . S
C601 C602 1.379 . S
C602 H586 0.931 . S
C602 C596 1.383 . S
C602 C601 1.379 . S
H603 C597 0.959 . S
H604 C597 0.961 . S
H605 C597 0.960 . S
H606 C598 0.930 . S
H607 C599 0.929 . S
H608 C616 0.929 1_554 S
H609 C618 0.930 . S
H610 C620 0.930 . S
H611 C623 0.929 . S
H612 C626 0.930 . S
H613 C628 0.960 . S
H614 C628 0.960 . S
H615 C628 0.960 . S
C616 H608 0.929 1_556 S
C616 C617 1.377 . S
C616 C618 1.384 . S
C617 C616 1.377 . S
C617 C623 1.390 . S
C618 H609 0.930 . S
C618 C616 1.384 . S
C618 C619 1.372 . S
C619 C618 1.372 . S
C619 C620 1.400 . S
C619 C624 1.490 . S
C620 H610 0.930 . S
C620 C619 1.400 . S
C620 C623 1.386 . S
H621 C637 0.930 . S
H622 C638 0.931 . S
C623 H611 0.929 . S
C623 C617 1.390 . S
C623 C620 1.386 . S
C624 C619 1.490 . S
C624 C626 1.395 . S
C624 C627 1.403 . S
H625 C631 0.930 . S
C626 H612 0.930 . S
C626 C624 1.395 . S
C626 C629 1.403 . S
C627 C624 1.403 . S
C627 C628 1.524 . S
C627 C631 1.400 . S
C628 H613 0.960 . S
C628 H614 0.960 . S
C628 H615 0.960 . S
C628 C627 1.524 . S
C629 C626 1.403 . S
C629 C630 1.392 . S
C629 C633 1.495 . S
C630 C629 1.392 . S
C630 C631 1.385 . S
C630 C632 1.478 . S
C631 H625 0.930 . S
C631 C627 1.400 . S
C631 C630 1.385 . S
C632 C630 1.478 . S
C632 C634 1.381 . S
C632 C638 1.383 . S
C633 C629 1.495 . S
C633 H639 0.959 . S
C633 H640 0.961 . S
C633 H641 0.960 . S
C634 C632 1.381 . S
C634 C635 1.394 . S
C634 H642 0.930 . S
C635 C634 1.394 . S
C635 C636 1.383 . S
C635 H643 0.929 . S
C636 C635 1.383 . S
C636 C637 1.377 . S
C637 H621 0.930 . S
C637 C636 1.377 . S
C637 C638 1.379 . S
C638 H622 0.931 . S
C638 C632 1.383 . S
C638 C637 1.379 . S
H639 C633 0.959 . S
H640 C633 0.961 . S
H641 C633 0.960 . S
H642 C634 0.930 . S
H643 C635 0.929 . S
H644 C652 0.929 . S
H645 C654 0.930 . S
H646 C656 0.930 . S
H647 C659 0.929 . S
H648 C662 0.930 . S
H649 C664 0.960 . S
H650 C664 0.960 . S
H651 C664 0.960 . S
C652 H644 0.929 . S
C652 C653 1.377 . S
C652 C654 1.384 . S
C653 C652 1.377 . S
C653 C659 1.390 . S
C654 H645 0.930 . S
C654 C652 1.384 . S
C654 C655 1.372 . S
C655 C654 1.372 . S
C655 C656 1.400 . S
C655 C660 1.490 . S
C656 H646 0.930 . S
C656 C655 1.400 . S
C656 C659 1.386 . S
H657 C673 0.930 . S
H658 C674 0.931 . S
C659 H647 0.929 . S
C659 C653 1.390 . S
C659 C656 1.386 . S
C660 C655 1.490 . S
C660 C662 1.395 . S
C660 C663 1.403 . S
H661 C667 0.930 . S
C662 H648 0.930 . S
C662 C660 1.395 . S
C662 C665 1.403 . S
C663 C660 1.403 . S
C663 C664 1.524 . S
C663 C667 1.400 . S
C664 H649 0.960 . S
C664 H650 0.960 . S
C664 H651 0.960 . S
C664 C663 1.524 . S
C665 C662 1.403 . S
C665 C666 1.392 . S
C665 C669 1.495 . S
C666 C665 1.392 . S
C666 C667 1.385 . S
C666 C668 1.478 . S
C667 H661 0.930 . S
C667 C663 1.400 . S
C667 C666 1.385 . S
C668 C666 1.478 . S
C668 C670 1.381 . S
C668 C674 1.383 . S
C669 C665 1.495 . S
C669 H675 0.959 . S
C669 H676 0.961 . S
C669 H677 0.960 . S
C670 C668 1.381 . S
C670 C671 1.394 . S
C670 H678 0.930 . S
C671 C670 1.394 . S
C671 C672 1.383 . S
C671 H679 0.929 1_554 S
C672 C671 1.383 . S
C672 C673 1.377 . S
C673 H657 0.930 . S
C673 C672 1.377 . S
C673 C674 1.379 . S
C674 H658 0.931 . S
C674 C668 1.383 . S
C674 C673 1.379 . S
H675 C669 0.959 . S
H676 C669 0.961 . S
H677 C669 0.960 . S
H678 C670 0.930 . S
H679 C671 0.929 1_556 S
H680 C688 0.929 . S
H681 C690 0.930 . S
H682 C692 0.930 . S
H683 C695 0.929 . S
H684 C698 0.930 . S
H685 C700 0.960 . S
H686 C700 0.960 . S
H687 C700 0.960 . S
C688 H680 0.929 . S
C688 C689 1.377 . S
C688 C690 1.384 . S
C689 C688 1.377 . S
C689 C695 1.390 . S
C690 H681 0.930 . S
C690 C688 1.384 . S
C690 C691 1.372 . S
C691 C690 1.372 . S
C691 C692 1.400 . S
C691 C696 1.490 . S
C692 H682 0.930 . S
C692 C691 1.400 . S
C692 C695 1.386 . S
H693 C709 0.930 . S
H694 C710 0.931 . S
C695 H683 0.929 . S
C695 C689 1.390 . S
C695 C692 1.386 . S
C696 C691 1.490 . S
C696 C698 1.395 . S
C696 C699 1.403 . S
H697 C703 0.930 . S
C698 H684 0.930 . S
C698 C696 1.395 . S
C698 C701 1.403 . S
C699 C696 1.403 . S
C699 C700 1.524 . S
C699 C703 1.400 . S
C700 H685 0.960 . S
C700 H686 0.960 . S
C700 H687 0.960 . S
C700 C699 1.524 . S
C701 C698 1.403 . S
C701 C702 1.392 . S
C701 C705 1.495 . S
C702 C701 1.392 . S
C702 C703 1.385 . S
C702 C704 1.478 . S
C703 H697 0.930 . S
C703 C699 1.400 . S
C703 C702 1.385 . S
C704 C702 1.478 . S
C704 C706 1.381 . S
C704 C710 1.383 . S
C705 C701 1.495 . S
C705 H711 0.959 . S
C705 H712 0.961 . S
C705 H713 0.960 . S
C706 C704 1.381 . S
C706 C707 1.394 . S
C706 H714 0.930 . S
C707 C706 1.394 . S
C707 C708 1.383 . S
C707 H715 0.929 . S
C708 C707 1.383 . S
C708 C709 1.377 . S
C709 H693 0.930 . S
C709 C708 1.377 . S
C709 C710 1.379 . S
C710 H694 0.931 . S
C710 C704 1.383 . S
C710 C709 1.379 . S
H711 C705 0.959 . S
H712 C705 0.961 . S
H713 C705 0.960 . S
H714 C706 0.930 . S
H715 C707 0.929 . S
H716 C724 0.929 . S
H717 C726 0.930 . S
H718 C728 0.930 . S
H719 C731 0.929 . S
H720 C734 0.930 . S
H721 C736 0.960 . S
H722 C736 0.960 . S
H723 C736 0.960 . S
C724 H716 0.929 . S
C724 C725 1.377 . S
C724 C726 1.384 . S
C725 C724 1.377 . S
C725 C731 1.390 . S
C726 H717 0.930 . S
C726 C724 1.384 . S
C726 C727 1.372 . S
C727 C726 1.372 . S
C727 C728 1.400 . S
C727 C732 1.490 . S
C728 H718 0.930 . S
C728 C727 1.400 . S
C728 C731 1.386 . S
H729 C745 0.930 . S
H730 C746 0.931 . S
C731 H719 0.929 . S
C731 C725 1.390 . S
C731 C728 1.386 . S
C732 C727 1.490 . S
C732 C734 1.395 . S
C732 C735 1.403 . S
H733 C739 0.930 . S
C734 H720 0.930 . S
C734 C732 1.395 . S
C734 C737 1.403 . S
C735 C732 1.403 . S
C735 C736 1.524 . S
C735 C739 1.400 . S
C736 H721 0.960 . S
C736 H722 0.960 . S
C736 H723 0.960 . S
C736 C735 1.524 . S
C737 C734 1.403 . S
C737 C738 1.392 . S
C737 C741 1.495 . S
C738 C737 1.392 . S
C738 C739 1.385 . S
C738 C740 1.478 . S
C739 H733 0.930 . S
C739 C735 1.400 . S
C739 C738 1.385 . S
C740 C738 1.478 . S
C740 C742 1.381 . S
C740 C746 1.383 . S
C741 C737 1.495 . S
C741 H747 0.959 . S
C741 H748 0.961 . S
C741 H749 0.960 . S
C742 C740 1.381 . S
C742 C743 1.394 . S
C742 H750 0.930 . S
C743 C742 1.394 . S
C743 C744 1.383 . S
C743 H751 0.929 . S
C744 C743 1.383 . S
C744 C745 1.377 . S
C745 H729 0.930 . S
C745 C744 1.377 . S
C745 C746 1.379 . S
C746 H730 0.931 . S
C746 C740 1.383 . S
C746 C745 1.379 . S
H747 C741 0.959 . S
H748 C741 0.961 . S
H749 C741 0.960 . S
H750 C742 0.930 . S
H751 C743 0.929 . S
H752 C760 0.929 . S
H753 C762 0.930 . S
H754 C764 0.930 . S
H755 C767 0.929 . S
H756 C770 0.930 . S
H757 C772 0.960 . S
H758 C772 0.960 . S
H759 C772 0.960 . S
C760 H752 0.929 . S
C760 C761 1.377 . S
C760 C762 1.384 . S
C761 C760 1.377 . S
C761 C767 1.390 . S
C762 H753 0.930 . S
C762 C760 1.384 . S
C762 C763 1.372 . S
C763 C762 1.372 . S
C763 C764 1.400 . S
C763 C768 1.490 . S
C764 H754 0.930 . S
C764 C763 1.400 . S
C764 C767 1.386 . S
H765 C781 0.930 . S
H766 C782 0.931 . S
C767 H755 0.929 . S
C767 C761 1.390 . S
C767 C764 1.386 . S
C768 C763 1.490 . S
C768 C770 1.395 . S
C768 C771 1.403 . S
H769 C775 0.930 . S
C770 H756 0.930 . S
C770 C768 1.395 . S
C770 C773 1.403 . S
C771 C768 1.403 . S
C771 C772 1.524 . S
C771 C775 1.400 . S
C772 H757 0.960 . S
C772 H758 0.960 . S
C772 H759 0.960 . S
C772 C771 1.524 . S
C773 C770 1.403 . S
C773 C774 1.392 . S
C773 C777 1.495 . S
C774 C773 1.392 . S
C774 C775 1.385 . S
C774 C776 1.478 . S
C775 H769 0.930 . S
C775 C771 1.400 . S
C775 C774 1.385 . S
C776 C774 1.478 . S
C776 C778 1.381 . S
C776 C782 1.383 . S
C777 C773 1.495 . S
C777 H783 0.959 . S
C777 H784 0.961 . S
C777 H785 0.960 . S
C778 C776 1.381 . S
C778 C779 1.394 . S
C778 H786 0.930 . S
C779 C778 1.394 . S
C779 C780 1.383 . S
C779 H787 0.929 . S
C780 C779 1.383 . S
C780 C781 1.377 . S
C781 H765 0.930 . S
C781 C780 1.377 . S
C781 C782 1.379 . S
C782 H766 0.931 . S
C782 C776 1.383 . S
C782 C781 1.379 . S
H783 C777 0.959 . S
H784 C777 0.961 . S
H785 C777 0.960 . S
H786 C778 0.930 . S
H787 C779 0.929 . S
H788 C796 0.929 . S
H789 C798 0.930 . S
H790 C800 0.930 . S
H791 C803 0.929 . S
H792 C806 0.930 . S
H793 C808 0.960 . S
H794 C808 0.960 . S
H795 C808 0.960 . S
C796 H788 0.929 . S
C796 C797 1.377 . S
C796 C798 1.384 . S
C797 C796 1.377 . S
C797 C803 1.390 . S
C798 H789 0.930 . S
C798 C796 1.384 . S
C798 C799 1.372 . S
C799 C798 1.372 . S
C799 C800 1.400 . S
C799 C804 1.490 . S
C800 H790 0.930 . S
C800 C799 1.400 . S
C800 C803 1.386 . S
H801 C817 0.930 . S
H802 C818 0.931 . S
C803 H791 0.929 . S
C803 C797 1.390 . S
C803 C800 1.386 . S
C804 C799 1.490 . S
C804 C806 1.395 . S
C804 C807 1.403 . S
H805 C811 0.930 . S
C806 H792 0.930 . S
C806 C804 1.395 . S
C806 C809 1.403 . S
C807 C804 1.403 . S
C807 C808 1.524 . S
C807 C811 1.400 . S
C808 H793 0.960 . S
C808 H794 0.960 . S
C808 H795 0.960 . S
C808 C807 1.524 . S
C809 C806 1.403 . S
C809 C810 1.392 . S
C809 C813 1.495 . S
C810 C809 1.392 . S
C810 C811 1.385 . S
C810 C812 1.478 . S
C811 H805 0.930 . S
C811 C807 1.400 . S
C811 C810 1.385 . S
C812 C810 1.478 . S
C812 C814 1.381 . S
C812 C818 1.383 . S
C813 C809 1.495 . S
C813 H819 0.959 . S
C813 H820 0.961 . S
C813 H821 0.960 . S
C814 C812 1.381 . S
C814 C815 1.394 . S
C814 H822 0.930 . S
C815 C814 1.394 . S
C815 C816 1.383 . S
C815 H823 0.929 . S
C816 C815 1.383 . S
C816 C817 1.377 . S
C817 H801 0.930 . S
C817 C816 1.377 . S
C817 C818 1.379 . S
C818 H802 0.931 . S
C818 C812 1.383 . S
C818 C817 1.379 . S
H819 C813 0.959 . S
H820 C813 0.961 . S
H821 C813 0.960 . S
H822 C814 0.930 . S
H823 C815 0.929 . S
H824 C832 0.929 . S
H825 C834 0.930 . S
H826 C836 0.930 . S
H827 C839 0.929 . S
H828 C842 0.930 . S
H829 C844 0.960 . S
H830 C844 0.960 . S
H831 C844 0.960 . S
C832 H824 0.929 . S
C832 C833 1.377 . S
C832 C834 1.384 . S
C833 C832 1.377 . S
C833 C839 1.390 . S
C834 H825 0.930 . S
C834 C832 1.384 . S
C834 C835 1.372 . S
C835 C834 1.372 . S
C835 C836 1.400 . S
C835 C840 1.490 . S
C836 H826 0.930 . S
C836 C835 1.400 . S
C836 C839 1.386 . S
H837 C853 0.930 . S
H838 C854 0.931 . S
C839 H827 0.929 . S
C839 C833 1.390 . S
C839 C836 1.386 . S
C840 C835 1.490 . S
C840 C842 1.395 . S
C840 C843 1.403 . S
H841 C847 0.930 . S
C842 H828 0.930 . S
C842 C840 1.395 . S
C842 C845 1.403 . S
C843 C840 1.403 . S
C843 C844 1.524 . S
C843 C847 1.400 . S
C844 H829 0.960 . S
C844 H830 0.960 . S
C844 H831 0.960 . S
C844 C843 1.524 . S
C845 C842 1.403 . S
C845 C846 1.392 . S
C845 C849 1.495 . S
C846 C845 1.392 . S
C846 C847 1.385 . S
C846 C848 1.478 . S
C847 H841 0.930 . S
C847 C843 1.400 . S
C847 C846 1.385 . S
C848 C846 1.478 . S
C848 C850 1.381 . S
C848 C854 1.383 . S
C849 C845 1.495 . S
C849 H855 0.959 . S
C849 H856 0.961 . S
C849 H857 0.960 . S
C850 C848 1.381 . S
C850 C851 1.394 . S
C850 H858 0.930 . S
C851 C850 1.394 . S
C851 C852 1.383 . S
C851 H859 0.929 . S
C852 C851 1.383 . S
C852 C853 1.377 . S
C853 H837 0.930 . S
C853 C852 1.377 . S
C853 C854 1.379 . S
C854 H838 0.931 . S
C854 C848 1.383 . S
C854 C853 1.379 . S
H855 C849 0.959 . S
H856 C849 0.961 . S
H857 C849 0.960 . S
H858 C850 0.930 . S
H859 C851 0.929 . S
H860 C868 0.929 . S
H861 C870 0.930 . S
H862 C872 0.930 . S
H863 C875 0.929 . S
H864 C878 0.930 . S
H865 C880 0.960 . S
H866 C880 0.960 . S
H867 C880 0.960 . S
C868 H860 0.929 . S
C868 C869 1.377 . S
C868 C870 1.384 . S
C869 C868 1.377 . S
C869 C875 1.390 . S
C870 H861 0.930 . S
C870 C868 1.384 . S
C870 C871 1.372 . S
C871 C870 1.372 . S
C871 C872 1.400 . S
C871 C876 1.490 . S
C872 H862 0.930 . S
C872 C871 1.400 . S
C872 C875 1.386 . S
H873 C889 0.930 . S
H874 C890 0.931 . S
C875 H863 0.929 . S
C875 C869 1.390 . S
C875 C872 1.386 . S
C876 C871 1.490 . S
C876 C878 1.395 . S
C876 C879 1.403 . S
H877 C883 0.930 . S
C878 H864 0.930 . S
C878 C876 1.395 . S
C878 C881 1.403 . S
C879 C876 1.403 . S
C879 C880 1.524 . S
C879 C883 1.400 . S
C880 H865 0.960 . S
C880 H866 0.960 . S
C880 H867 0.960 . S
C880 C879 1.524 . S
C881 C878 1.403 . S
C881 C882 1.392 . S
C881 C885 1.495 . S
C882 C881 1.392 . S
C882 C883 1.385 . S
C882 C884 1.478 . S
C883 H877 0.930 . S
C883 C879 1.400 . S
C883 C882 1.385 . S
C884 C882 1.478 . S
C884 C886 1.381 . S
C884 C890 1.383 . S
C885 C881 1.495 . S
C885 H891 0.959 . S
C885 H892 0.961 . S
C885 H893 0.960 . S
C886 C884 1.381 . S
C886 C887 1.394 . S
C886 H894 0.930 . S
C887 C886 1.394 . S
C887 C888 1.383 . S
C887 H895 0.929 . S
C888 C887 1.383 . S
C888 C889 1.377 . S
C889 H873 0.930 . S
C889 C888 1.377 . S
C889 C890 1.379 . S
C890 H874 0.931 . S
C890 C884 1.383 . S
C890 C889 1.379 . S
H891 C885 0.959 . S
H892 C885 0.961 . S
H893 C885 0.960 . S
H894 C886 0.930 . S
H895 C887 0.929 . S
H896 C904 0.935 . S
H897 C906 0.930 . S
H898 C908 0.930 . S
H899 C911 0.929 . S
H900 C914 0.930 . S
H901 C916 0.960 1_454 S
H902 C916 0.960 . S
H903 C916 0.960 1_455 S
C904 H896 0.935 . S
C904 C905 1.367 1_565 S
C904 C906 1.390 . S
C905 C904 1.367 1_545 S
C905 C911 1.390 1_655 S
C906 H897 0.930 . S
C906 C904 1.390 . S
C906 C907 1.372 1_565 S
C907 C906 1.372 1_545 S
C907 C908 1.400 1_655 S
C907 C912 1.490 . S
C908 H898 0.930 . S
C908 C907 1.400 1_455 S
C908 C911 1.386 . S
H909 C925 0.930 1_545 S
H910 C926 0.931 1_545 S
C911 H899 0.929 . S
C911 C905 1.390 1_455 S
C911 C908 1.386 . S
C912 C907 1.490 . S
C912 C914 1.395 1_545 S
C912 C915 1.403 . S
H913 C919 0.930 . S
C914 H900 0.930 . S
C914 C912 1.395 1_565 S
C914 C917 1.403 1_556 S
C915 C912 1.403 . S
C915 C916 1.524 . S
C915 C919 1.400 1_656 S
C916 H901 0.960 1_656 S
C916 H902 0.960 . S
C916 H903 0.960 1_655 S
C916 C915 1.524 . S
C917 C914 1.403 1_554 S
C917 C918 1.392 1_655 S
C917 C921 1.495 . S
C918 C917 1.392 1_455 S
C918 C919 1.385 1_565 S
C918 C920 1.478 . S
C919 H913 0.930 . S
C919 C915 1.400 1_454 S
C919 C918 1.385 1_545 S
C920 C918 1.478 . S
C920 C922 1.381 1_455 S
C920 C926 1.383 . S
C921 C917 1.495 . S
C921 H927 0.959 1_554 S
C921 H928 0.961 1_655 S
C921 H929 0.960 . S
C922 C920 1.381 1_655 S
C922 C923 1.394 . S
C922 H930 0.930 . S
C923 C922 1.394 . S
C923 C924 1.383 1_655 S
C923 H931 0.929 . S
C924 C923 1.383 1_455 S
C924 C925 1.377 . S
C925 H909 0.930 1_565 S
C925 C924 1.377 . S
C925 C926 1.379 . S
C926 H910 0.931 1_565 S
C926 C920 1.383 . S
C926 C925 1.379 . S
H927 C921 0.959 1_556 S
H928 C921 0.961 1_455 S
H929 C921 0.960 . S
H930 C922 0.930 . S
H931 C923 0.929 . S
H932 C940 0.929 . S
H933 C942 0.930 . S
H934 C944 0.930 . S
H935 C947 0.929 . S
H936 C950 0.930 . S
H937 C952 0.960 . S
H938 C952 0.960 . S
H939 C952 0.960 . S
C940 H932 0.929 . S
C940 C941 1.377 . S
C940 C942 1.384 . S
C941 C940 1.377 . S
C941 C947 1.390 . S
C942 H933 0.930 . S
C942 C940 1.384 . S
C942 C943 1.372 . S
C943 C942 1.372 . S
C943 C944 1.400 . S
C943 C948 1.490 . S
C944 H934 0.930 . S
C944 C943 1.400 . S
C944 C947 1.386 . S
H945 C961 0.930 . S
H946 C962 0.931 . S
C947 H935 0.929 . S
C947 C941 1.390 . S
C947 C944 1.386 . S
C948 C943 1.490 . S
C948 C950 1.395 . S
C948 C951 1.403 . S
H949 C955 0.930 . S
C950 H936 0.930 . S
C950 C948 1.395 . S
C950 C953 1.403 . S
C951 C948 1.403 . S
C951 C952 1.524 . S
C951 C955 1.400 . S
C952 H937 0.960 . S
C952 H938 0.960 . S
C952 H939 0.960 . S
C952 C951 1.524 . S
C953 C950 1.403 . S
C953 C954 1.392 . S
C953 C957 1.495 . S
C954 C953 1.392 . S
C954 C955 1.385 . S
C954 C956 1.478 . S
C955 H949 0.930 . S
C955 C951 1.400 . S
C955 C954 1.385 . S
C956 C954 1.478 . S
C956 C958 1.381 . S
C956 C962 1.383 . S
C957 C953 1.495 . S
C957 H963 0.959 . S
C957 H964 0.961 . S
C957 H965 0.960 . S
C958 C956 1.381 . S
C958 C959 1.394 . S
C958 H966 0.930 . S
C959 C958 1.394 . S
C959 C960 1.383 . S
C959 H967 0.929 . S
C960 C959 1.383 . S
C960 C961 1.377 . S
C961 H945 0.930 . S
C961 C960 1.377 . S
C961 C962 1.379 . S
C962 H946 0.931 . S
C962 C956 1.383 . S
C962 C961 1.379 . S
H963 C957 0.959 . S
H964 C957 0.961 . S
H965 C957 0.960 . S
H966 C958 0.930 . S
H967 C959 0.929 . S
H968 C976 0.929 . S
H969 C978 0.930 . S
H970 C980 0.930 . S
H971 C983 0.929 . S
H972 C986 0.930 . S
H973 C988 0.960 . S
H974 C988 0.960 . S
H975 C988 0.985 . S
C976 H968 0.929 . S
C976 C977 1.377 . S
C976 C978 1.384 . S
C977 C976 1.377 . S
C977 C983 1.390 1_565 S
C978 H969 0.930 . S
C978 C976 1.384 . S
C978 C979 1.372 . S
C979 C978 1.372 . S
C979 C980 1.400 1_565 S
C979 C984 1.490 . S
C980 H970 0.930 . S
C980 C979 1.400 1_545 S
C980 C983 1.386 . S
H981 C997 0.930 . S
H982 C998 0.931 . S
C983 H971 0.929 . S
C983 C977 1.390 1_545 S
C983 C980 1.386 . S
C984 C979 1.490 . S
C984 C986 1.395 1_565 S
C984 C987 1.403 . S
H985 C991 0.930 . S
C986 H972 0.930 . S
C986 C984 1.395 1_545 S
C986 C989 1.403 . S
C987 C984 1.403 . S
C987 C988 1.524 . S
C987 C991 1.400 . S
C988 H973 0.960 . S
C988 H974 0.960 . S
C988 H975 0.985 . S
C988 C987 1.524 . S
C989 C986 1.403 . S
C989 C990 1.392 . S
C989 C993 1.495 . S
C990 C989 1.392 . S
C990 C991 1.385 1_545 S
C990 C992 1.478 . S
C991 H985 0.930 . S
C991 C987 1.400 . S
C991 C990 1.385 1_565 S
C992 C990 1.478 . S
C992 C994 1.381 1_545 S
C992 C998 1.383 . S
C993 C989 1.495 . S
C993 H999 0.959 . S
C993 H1000 0.961 . S
C993 H1001 0.960 1_545 S
C994 C992 1.381 1_565 S
C994 C995 1.394 . S
C994 H1002 0.930 . S
C995 C994 1.394 . S
C995 C996 1.383 1_565 S
C995 H1003 0.929 . S
C996 C995 1.383 1_545 S
C996 C997 1.377 . S
C997 H981 0.930 . S
C997 C996 1.377 . S
C997 C998 1.379 . S
C998 H982 0.931 . S
C998 C992 1.383 . S
C998 C997 1.379 . S
H999 C993 0.959 . S
H1000 C993 0.961 . S
H1001 C993 0.960 1_565 S
H1002 C994 0.930 . S
H1003 C995 0.929 . S
H1004 C1012 0.929 . S
H1005 C1014 0.930 . S
H1006 C1016 0.930 . S
H1007 C1019 0.929 . S
H1008 C1022 0.930 . S
H1009 C1024 0.960 . S
H1010 C1024 0.960 . S
H1011 C1024 0.960 . S
C1012 H1004 0.929 . S
C1012 C1013 1.377 . S
C1012 C1014 1.384 . S
C1013 C1012 1.377 . S
C1013 C1019 1.390 . S
C1014 H1005 0.930 . S
C1014 C1012 1.384 . S
C1014 C1015 1.372 . S
C1015 C1014 1.372 . S
C1015 C1016 1.400 . S
C1015 C1020 1.490 . S
C1016 H1006 0.930 . S
C1016 C1015 1.400 . S
C1016 C1019 1.386 . S
H1017 C1033 0.930 . S
H1018 C1034 0.931 . S
C1019 H1007 0.929 . S
C1019 C1013 1.390 . S
C1019 C1016 1.386 . S
C1020 C1015 1.490 . S
C1020 C1022 1.395 . S
C1020 C1023 1.403 . S
H1021 C1027 0.930 . S
C1022 H1008 0.930 . S
C1022 C1020 1.395 . S
C1022 C1025 1.403 . S
C1023 C1020 1.403 . S
C1023 C1024 1.524 . S
C1023 C1027 1.400 . S
C1024 H1009 0.960 . S
C1024 H1010 0.960 . S
C1024 H1011 0.960 . S
C1024 C1023 1.524 . S
C1025 C1022 1.403 . S
C1025 C1026 1.392 . S
C1025 C1029 1.495 . S
C1026 C1025 1.392 . S
C1026 C1027 1.385 . S
C1026 C1028 1.478 . S
C1027 H1021 0.930 . S
C1027 C1023 1.400 . S
C1027 C1026 1.385 . S
C1028 C1026 1.478 . S
C1028 C1030 1.381 . S
C1028 C1034 1.383 . S
C1029 C1025 1.495 . S
C1029 H1035 0.959 . S
C1029 H1036 0.961 . S
C1029 H1037 0.960 . S
C1030 C1028 1.381 . S
C1030 C1031 1.394 . S
C1030 H1038 0.930 . S
C1031 C1030 1.394 . S
C1031 C1032 1.383 . S
C1031 H1039 0.929 . S
C1032 C1031 1.383 . S
C1032 C1033 1.377 . S
C1033 H1017 0.930 . S
C1033 C1032 1.377 . S
C1033 C1034 1.379 . S
C1034 H1018 0.931 . S
C1034 C1028 1.383 . S
C1034 C1033 1.379 . S
H1035 C1029 0.959 . S
H1036 C1029 0.961 . S
H1037 C1029 0.960 . S
H1038 C1030 0.930 . S
H1039 C1031 0.929 . S
H1040 C1048 0.929 . S
H1041 C1050 0.930 . S
H1042 C1052 0.930 . S
H1043 C1055 0.929 . S
H1044 C1058 0.930 . S
H1045 C1060 0.960 . S
H1046 C1060 0.960 . S
H1047 C1060 0.960 . S
C1048 H1040 0.929 . S
C1048 C1049 1.377 . S
C1048 C1050 1.384 . S
C1049 C1048 1.377 . S
C1049 C1055 1.390 . S
C1050 H1041 0.930 . S
C1050 C1048 1.384 . S
C1050 C1051 1.372 . S
C1051 C1050 1.372 . S
C1051 C1052 1.400 . S
C1051 C1056 1.490 . S
C1052 H1042 0.930 . S
C1052 C1051 1.400 . S
C1052 C1055 1.386 . S
H1053 C1069 0.930 . S
H1054 C1070 0.931 . S
C1055 H1043 0.929 . S
C1055 C1049 1.390 . S
C1055 C1052 1.386 . S
C1056 C1051 1.490 . S
C1056 C1058 1.395 . S
C1056 C1059 1.403 . S
H1057 C1063 0.930 . S
C1058 H1044 0.930 . S
C1058 C1056 1.395 . S
C1058 C1061 1.403 . S
C1059 C1056 1.403 . S
C1059 C1060 1.524 . S
C1059 C1063 1.400 . S
C1060 H1045 0.960 . S
C1060 H1046 0.960 . S
C1060 H1047 0.960 . S
C1060 C1059 1.524 . S
C1061 C1058 1.403 . S
C1061 C1062 1.392 . S
C1061 C1065 1.495 . S
C1062 C1061 1.392 . S
C1062 C1063 1.385 . S
C1062 C1064 1.478 . S
C1063 H1057 0.930 . S
C1063 C1059 1.400 . S
C1063 C1062 1.385 . S
C1064 C1062 1.478 . S
C1064 C1066 1.381 . S
C1064 C1070 1.383 . S
C1065 C1061 1.495 . S
C1065 H1071 0.959 . S
C1065 H1072 0.961 . S
C1065 H1073 0.960 . S
C1066 C1064 1.381 . S
C1066 C1067 1.394 . S
C1066 H1074 0.930 . S
C1067 C1066 1.394 . S
C1067 C1068 1.383 . S
C1067 H1075 0.929 . S
C1068 C1067 1.383 . S
C1068 C1069 1.377 . S
C1069 H1053 0.930 . S
C1069 C1068 1.377 . S
C1069 C1070 1.379 . S
C1070 H1054 0.931 . S
C1070 C1064 1.383 . S
C1070 C1069 1.379 . S
H1071 C1065 0.959 . S
H1072 C1065 0.961 . S
H1073 C1065 0.960 . S
H1074 C1066 0.930 . S
H1075 C1067 0.929 . S
H1076 C1084 0.929 . S
H1077 C1086 0.930 . S
H1078 C1088 0.930 . S
H1079 C1091 0.929 . S
H1080 C1094 0.930 . S
H1081 C1096 0.960 . S
H1082 C1096 0.960 . S
H1083 C1096 0.960 . S
C1084 H1076 0.929 . S
C1084 C1085 1.377 . S
C1084 C1086 1.384 . S
C1085 C1084 1.377 . S
C1085 C1091 1.390 . S
C1086 H1077 0.930 . S
C1086 C1084 1.384 . S
C1086 C1087 1.372 . S
C1087 C1086 1.372 . S
C1087 C1088 1.400 . S
C1087 C1092 1.490 . S
C1088 H1078 0.930 . S
C1088 C1087 1.400 . S
C1088 C1091 1.386 . S
H1089 C1105 0.930 . S
H1090 C1106 0.931 . S
C1091 H1079 0.929 . S
C1091 C1085 1.390 . S
C1091 C1088 1.386 . S
C1092 C1087 1.490 . S
C1092 C1094 1.395 . S
C1092 C1095 1.403 . S
H1093 C1099 0.930 . S
C1094 H1080 0.930 . S
C1094 C1092 1.395 . S
C1094 C1097 1.403 . S
C1095 C1092 1.403 . S
C1095 C1096 1.524 . S
C1095 C1099 1.400 . S
C1096 H1081 0.960 . S
C1096 H1082 0.960 . S
C1096 H1083 0.960 . S
C1096 C1095 1.524 . S
C1097 C1094 1.403 . S
C1097 C1098 1.392 . S
C1097 C1101 1.495 . S
C1098 C1097 1.392 . S
C1098 C1099 1.385 . S
C1098 C1100 1.478 . S
C1099 H1093 0.930 . S
C1099 C1095 1.400 . S
C1099 C1098 1.385 . S
C1100 C1098 1.478 . S
C1100 C1102 1.381 . S
C1100 C1106 1.383 . S
C1101 C1097 1.495 . S
C1101 H1107 0.959 . S
C1101 H1108 0.961 . S
C1101 H1109 0.960 . S
C1102 C1100 1.381 . S
C1102 C1103 1.394 . S
C1102 H1110 0.930 . S
C1103 C1102 1.394 . S
C1103 C1104 1.383 . S
C1103 H1111 0.929 . S
C1104 C1103 1.383 . S
C1104 C1105 1.377 . S
C1105 H1089 0.930 . S
C1105 C1104 1.377 . S
C1105 C1106 1.379 . S
C1106 H1090 0.931 . S
C1106 C1100 1.383 . S
C1106 C1105 1.379 . S
H1107 C1101 0.959 . S
H1108 C1101 0.961 . S
H1109 C1101 0.960 . S
H1110 C1102 0.930 . S
H1111 C1103 0.929 . S
H1112 C1120 0.929 . S
H1113 C1122 0.930 . S
H1114 C1124 0.930 . S
H1115 C1127 0.929 . S
H1116 C1130 0.930 . S
H1117 C1132 0.960 . S
H1118 C1132 0.960 . S
H1119 C1132 0.960 . S
C1120 H1112 0.929 . S
C1120 C1121 1.377 . S
C1120 C1122 1.384 . S
C1121 C1120 1.377 . S
C1121 C1127 1.390 . S
C1122 H1113 0.930 . S
C1122 C1120 1.384 . S
C1122 C1123 1.372 . S
C1123 C1122 1.372 . S
C1123 C1124 1.400 . S
C1123 C1128 1.490 . S
C1124 H1114 0.930 . S
C1124 C1123 1.400 . S
C1124 C1127 1.386 . S
H1125 C1141 0.930 . S
H1126 C1142 0.931 . S
C1127 H1115 0.929 . S
C1127 C1121 1.390 . S
C1127 C1124 1.386 . S
C1128 C1123 1.490 . S
C1128 C1130 1.395 . S
C1128 C1131 1.403 . S
H1129 C1135 0.930 . S
C1130 H1116 0.930 . S
C1130 C1128 1.395 . S
C1130 C1133 1.403 . S
C1131 C1128 1.403 . S
C1131 C1132 1.524 . S
C1131 C1135 1.400 . S
C1132 H1117 0.960 . S
C1132 H1118 0.960 . S
C1132 H1119 0.960 . S
C1132 C1131 1.524 . S
C1133 C1130 1.403 . S
C1133 C1134 1.392 . S
C1133 C1137 1.495 . S
C1134 C1133 1.392 . S
C1134 C1135 1.385 . S
C1134 C1136 1.478 . S
C1135 H1129 0.930 . S
C1135 C1131 1.400 . S
C1135 C1134 1.385 . S
C1136 C1134 1.478 . S
C1136 C1138 1.381 . S
C1136 C1142 1.383 . S
C1137 C1133 1.495 . S
C1137 H1143 0.959 . S
C1137 H1144 0.961 . S
C1137 H1145 0.960 . S
C1138 C1136 1.381 . S
C1138 C1139 1.394 . S
C1138 H1146 0.930 . S
C1139 C1138 1.394 . S
C1139 C1140 1.383 . S
C1139 H1147 0.929 . S
C1140 C1139 1.383 . S
C1140 C1141 1.377 . S
C1141 H1125 0.930 . S
C1141 C1140 1.377 . S
C1141 C1142 1.379 . S
C1142 H1126 0.931 . S
C1142 C1136 1.383 . S
C1142 C1141 1.379 . S
H1143 C1137 0.959 . S
H1144 C1137 0.961 . S
H1145 C1137 0.960 . S
H1146 C1138 0.930 . S
H1147 C1139 0.929 . S
H1148 C1156 0.929 . S
H1149 C1158 0.930 . S
H1150 C1160 0.930 . S
H1151 C1163 0.929 . S
H1152 C1166 0.930 . S
H1153 C1168 0.960 1_554 S
H1154 C1168 0.960 1_655 S
H1155 C1168 0.960 . S
C1156 H1148 0.929 . S
C1156 C1157 1.377 . S
C1156 C1158 1.384 . S
C1157 C1156 1.377 . S
C1157 C1163 1.390 1_655 S
C1158 H1149 0.930 . S
C1158 C1156 1.384 . S
C1158 C1159 1.372 . S
C1159 C1158 1.372 . S
C1159 C1160 1.400 1_655 S
C1159 C1164 1.490 . S
C1160 H1150 0.930 . S
C1160 C1159 1.400 1_455 S
C1160 C1163 1.386 . S
H1161 C1177 0.930 . S
H1162 C1178 0.931 . S
C1163 H1151 0.929 . S
C1163 C1157 1.390 1_455 S
C1163 C1160 1.386 . S
C1164 C1159 1.490 . S
C1164 C1166 1.395 . S
C1164 C1167 1.402 1_655 S
H1165 C1171 0.930 . S
C1166 H1152 0.930 . S
C1166 C1164 1.395 . S
C1166 C1169 1.403 1_556 S
C1167 C1164 1.402 1_455 S
C1167 C1168 1.524 . S
C1167 C1171 1.400 1_556 S
C1168 H1153 0.960 1_556 S
C1168 H1154 0.960 1_455 S
C1168 H1155 0.960 . S
C1168 C1167 1.524 . S
C1169 C1166 1.403 1_554 S
C1169 C1170 1.392 1_655 S
C1169 C1173 1.495 . S
C1170 C1169 1.392 1_455 S
C1170 C1171 1.385 . S
C1170 C1172 1.478 . S
C1171 H1165 0.930 . S
C1171 C1167 1.400 1_554 S
C1171 C1170 1.385 . S
C1172 C1170 1.478 . S
C1172 C1174 1.381 1_455 S
C1172 C1178 1.383 . S
C1173 C1169 1.495 . S
C1173 H1179 0.959 1_554 S
C1173 H1180 0.961 1_655 S
C1173 H1181 0.960 . S
C1174 C1172 1.381 1_655 S
C1174 C1175 1.394 . S
C1174 H1182 0.930 . S
C1175 C1174 1.394 . S
C1175 C1176 1.383 1_655 S
C1175 H1183 0.929 . S
C1176 C1175 1.383 1_455 S
C1176 C1177 1.377 . S
C1177 H1161 0.930 . S
C1177 C1176 1.377 . S
C1177 C1178 1.379 . S
C1178 H1162 0.931 . S
C1178 C1172 1.383 . S
C1178 C1177 1.379 . S
H1179 C1173 0.959 1_556 S
H1180 C1173 0.961 1_455 S
H1181 C1173 0.960 . S
H1182 C1174 0.930 . S
H1183 C1175 0.929 . S
C329 C19 2.052 . S
C348 C139 2.047 . S
C365 C18 1.490 . S
C384 C59 1.521 . S
C401 C58 0.902 . S
C420 C98 0.914 . S
C437 C99 1.522 . S
C456 C138 1.501 . S
C473 C9 2.050 . S
C492 C209 2.058 . S
C509 C8 1.494 . S
C528 C169 1.527 . S
C545 C168 0.912 . S
C564 C88 0.911 . S
C581 C208 1.499 . S
C600 C89 1.534 . S
C617 C259 2.051 . S
C636 C219 2.047 . S
C653 C179 1.525 . S
C672 C258 1.475 . S
C689 C298 0.908 . S
C708 C178 0.884 . S
C725 C218 1.490 . S
C744 C299 1.519 . S
C761 C129 2.050 . S
C780 C249 2.049 . S
C797 C248 1.499 . S
C816 C49 1.526 . S
C833 C48 0.898 . S
C852 C288 0.865 . S
C869 C128 1.499 . S
C888 C289 1.530 . S
C905 C5 1.442 . S
C924 C15 1.442 . S
C941 C55 1.407 . S
C960 C45 1.394 . S
C977 C85 1.408 . S
C996 C95 1.415 . S
C1013 C125 1.437 . S
C1032 C135 1.427 . S
C1049 C175 1.404 . S
C1068 C165 1.408 . S
C1085 C205 1.438 . S
C1104 C215 1.424 . S
C1121 C255 1.437 . S
C1140 C245 1.439 . S
C1157 C295 1.408 . S
C1176 C285 1.410 . S
