# Generated by pormake.
# Topology vmq, (7)-cn, num edge types: 1
# Building blocks:
#     Node 0, Type 0, BuildingBlock: HICVOG_clean_sbu_0, # of connection points: 7
#     Node 1, Type 0, BuildingBlock: HICVOG_clean_sbu_0, # of connection points: 7
#     Node 2, Type 0, BuildingBlock: HICVOG_clean_sbu_0, # of connection points: 7
#     Node 3, Type 0, BuildingBlock: HICVOG_clean_sbu_0, # of connection points: 7
#     Node 4, Type 0, BuildingBlock: HICVOG_clean_sbu_0, # of connection points: 7
#     Node 5, Type 0, BuildingBlock: HICVOG_clean_sbu_0, # of connection points: 7
#     Node 6, Type 0, BuildingBlock: HICVOG_clean_sbu_0, # of connection points: 7
#     Node 7, Type 0, BuildingBlock: HICVOG_clean_sbu_0, # of connection points: 7
#     Edge 8, Type (0, 0), BuildingBlock: UVAHIK_clean_linker_0, # of connection points: 2
#     Edge 9, Type (0, 0), BuildingBlock: UVAHIK_clean_linker_0, # of connection points: 2
#     Edge 10, Type (0, 0), BuildingBlock: UVAHIK_clean_linker_0, # of connection points: 2
#     Edge 11, Type (0, 0), BuildingBlock: UVAHIK_clean_linker_0, # of connection points: 2
#     Edge 12, Type (0, 0), BuildingBlock: UVAHIK_clean_linker_0, # of connection points: 2
#     Edge 13, Type (0, 0), BuildingBlock: UVAHIK_clean_linker_0, # of connection points: 2
#     Edge 14, Type (0, 0), BuildingBlock: UVAHIK_clean_linker_0, # of connection points: 2
#     Edge 15, Type (0, 0), BuildingBlock: UVAHIK_clean_linker_0, # of connection points: 2
#     Edge 16, Type (0, 0), BuildingBlock: UVAHIK_clean_linker_0, # of connection points: 2
#     Edge 17, Type (0, 0), BuildingBlock: UVAHIK_clean_linker_0, # of connection points: 2
#     Edge 18, Type (0, 0), BuildingBlock: UVAHIK_clean_linker_0, # of connection points: 2
#     Edge 19, Type (0, 0), BuildingBlock: UVAHIK_clean_linker_0, # of connection points: 2
#     Edge 20, Type (0, 0), BuildingBlock: UVAHIK_clean_linker_0, # of connection points: 2
#     Edge 21, Type (0, 0), BuildingBlock: UVAHIK_clean_linker_0, # of connection points: 2
#     Edge 22, Type (0, 0), BuildingBlock: UVAHIK_clean_linker_0, # of connection points: 2
#     Edge 23, Type (0, 0), BuildingBlock: UVAHIK_clean_linker_0, # of connection points: 2
#     Edge 24, Type (0, 0), BuildingBlock: UVAHIK_clean_linker_0, # of connection points: 2
#     Edge 25, Type (0, 0), BuildingBlock: UVAHIK_clean_linker_0, # of connection points: 2
#     Edge 26, Type (0, 0), BuildingBlock: UVAHIK_clean_linker_0, # of connection points: 2
#     Edge 27, Type (0, 0), BuildingBlock: UVAHIK_clean_linker_0, # of connection points: 2
#     Edge 28, Type (0, 0), BuildingBlock: UVAHIK_clean_linker_0, # of connection points: 2
#     Edge 29, Type (0, 0), BuildingBlock: UVAHIK_clean_linker_0, # of connection points: 2
#     Edge 30, Type (0, 0), BuildingBlock: UVAHIK_clean_linker_0, # of connection points: 2
#     Edge 31, Type (0, 0), BuildingBlock: UVAHIK_clean_linker_0, # of connection points: 2
#     Edge 32, Type (0, 0), BuildingBlock: UVAHIK_clean_linker_0, # of connection points: 2
#     Edge 33, Type (0, 0), BuildingBlock: UVAHIK_clean_linker_0, # of connection points: 2
#     Edge 34, Type (0, 0), BuildingBlock: UVAHIK_clean_linker_0, # of connection points: 2
#     Edge 35, Type (0, 0), BuildingBlock: UVAHIK_clean_linker_0, # of connection points: 2
# Relax obj value: 0.281
# Max RMSD: 0.256
# Mean RMSD: 0.256
data_MOF--net-vmq--node1-HICVOG_clean_sbu_0--edge1-UVAHIK_clean_linker_0
_symmetry_space_group_name_H-M    P1
_symmetry_Int_Tables_number       1
_symmetry_cell_setting            triclinic
loop_
_symmetry_equiv_pos_as_xyz
'x, y, z'
_cell_length_a     68.873088
_cell_length_b     23.841816
_cell_length_c     43.752413
_cell_angle_alpha  89.959424
_cell_angle_beta   106.94846
_cell_angle_gamma 90.038042
loop_
_atom_site_label
_atom_site_type_symbol
_atom_site_fract_x
_atom_site_fract_y
_atom_site_fract_z
_atom_type_partial_charge
Zn0 Zn 0.41139 0.15339 0.09688 0.0
C1 C 0.43762 0.02557 0.06444 0.0
N2 N 0.45119 0.03049 0.09346 0.0
C3 C 0.44247 0.06805 0.10805 0.0
N4 N 0.42464 0.08648 0.08875 0.0
N5 N 0.42136 0.05911 0.06146 0.0
C6 C 0.39462 0.06372 0.9619 0.0
O7 O 0.38619 0.11228 0.96433 0.0
O8 O 0.41164 0.14982 0.1432 0.0
Zn9 Zn 0.39568 0.05287 0.02872 0.0
N10 N 0.42678 0.21684 0.08846 0.0
C11 C 0.45178 0.25034 0.06513 0.0
C12 C 0.44049 0.20647 0.07222 0.0
C13 C 0.42317 0.27015 0.09656 0.0
N14 N 0.44829 0.30337 0.0733 0.0
C15 C 0.4341 0.31503 0.08851 0.0
O16 O 0.37633 0.11942 0.02318 0.0
C17 C 0.37116 0.15414 0.04158 0.0
O18 O 0.38251 0.16433 0.06967 0.0
H19 H 0.44274 0.16439 0.06481 0.0
H20 H 0.41185 0.27725 0.10885 0.0
C21 C 0.38937 0.93906 0.04683 0.0
C22 C 0.37851 0.89586 0.05669 0.0
C23 C 0.35188 0.96033 0.05484 0.0
C24 C 0.36267 0.00267 0.04519 0.0
N25 N 0.38118 0.99143 0.04139 0.0
N26 N 0.36 0.90825 0.06031 0.0
H27 H 0.40397 0.9315 0.04304 0.0
C28 C 0.40269 0.107 0.15006 0.0
O29 O 0.39367 0.07226 0.12696 0.0
O30 O 0.40008 0.03199 0.98628 0.0
H31 H 0.35622 0.04415 0.04079 0.0
H32 H 0.46298 0.24248 0.05271 0.0
H33 H 0.33714 0.96869 0.05795 0.0
Zn34 Zn 0.63879 0.04535 0.47467 0.0
C35 C 0.59449 0.05681 0.39225 0.0
N36 N 0.58537 0.01816 0.40556 0.0
C37 C 0.59771 0.0147 0.43567 0.0
N38 N 0.61373 0.04986 0.44035 0.0
N39 N 0.61137 0.0771 0.41324 0.0
C40 C 0.63512 0.11816 0.3525 0.0
O41 O 0.64827 0.08918 0.37469 0.0
O42 O 0.63314 0.02468 0.51614 0.0
Zn43 Zn 0.62396 0.14615 0.40749 0.0
N44 N 0.6539 0.98387 0.46368 0.0
C45 C 0.68313 0.95234 0.45025 0.0
C46 C 0.67215 0.99525 0.45891 0.0
C47 C 0.64615 0.93093 0.46011 0.0
N48 N 0.67541 0.89966 0.44658 0.0
C49 C 0.65715 0.88722 0.45114 0.0
O50 O 0.65299 0.15544 0.4341 0.0
C51 C 0.66393 0.14579 0.46253 0.0
O52 O 0.65825 0.11226 0.48102 0.0
H53 H 0.67821 0.03726 0.46174 0.0
H54 H 0.63175 0.92346 0.46461 0.0
C55 C 0.61252 0.26085 0.41337 0.0
C56 C 0.60215 0.30417 0.42393 0.0
C57 C 0.58488 0.23604 0.44588 0.0
C58 C 0.59561 0.19353 0.43623 0.0
N59 N 0.60888 0.20655 0.41957 0.0
N60 N 0.58843 0.29016 0.43962 0.0
H61 H 0.62343 0.26984 0.40055 0.0
C62 C 0.63523 0.05908 0.53906 0.0
O63 O 0.64101 0.11069 0.53576 0.0
O64 O 0.62266 0.14984 0.36072 0.0
H65 H 0.5932 0.15042 0.44177 0.0
H66 H 0.69768 0.96077 0.44639 0.0
H67 H 0.57403 0.2262 0.45866 0.0
Zn68 Zn 0.62466 0.84886 0.90801 0.0
C69 C 0.59924 0.97915 0.93956 0.0
N70 N 0.58814 0.98299 0.90877 0.0
C71 C 0.59652 0.94424 0.89436 0.0
N72 N 0.61192 0.91725 0.91534 0.0
N73 N 0.61401 0.94013 0.94359 0.0
C74 C 0.63241 0.94492 0.03726 0.0
O75 O 0.62978 0.89096 0.03141 0.0
O76 O 0.62451 0.85036 0.86164 0.0
Zn77 Zn 0.64011 0.94884 0.97485 0.0
N78 N 0.609 0.78673 0.91748 0.0
C79 C 0.58265 0.75548 0.9385 0.0
C80 C 0.59392 0.79876 0.93077 0.0
C81 C 0.61367 0.73268 0.91248 0.0
N82 N 0.58726 0.70166 0.9335 0.0
C83 C 0.60259 0.68854 0.92093 0.0
O84 O 0.65946 0.88209 0.9823 0.0
C85 C 0.66469 0.84733 0.96396 0.0
O86 O 0.65349 0.83761 0.93567 0.0
H87 H 0.59049 0.84169 0.93509 0.0
H88 H 0.62583 0.7246 0.90206 0.0
C89 C 0.64667 0.06142 0.9561 0.0
C90 C 0.65654 0.10344 0.94349 0.0
C91 C 0.67998 0.03538 0.93624 0.0
C92 C 0.67013 0.99409 0.94859 0.0
N93 N 0.65373 0.00779 0.95839 0.0
N94 N 0.67301 0.08881 0.93403 0.0
H95 H 0.63372 0.07092 0.96444 0.0
C96 C 0.63265 0.89404 0.85399 0.0
O97 O 0.64128 0.93024 0.87651 0.0
O98 O 0.63679 0.97643 0.01676 0.0
H99 H 0.67558 0.95151 0.95026 0.0
H100 H 0.57046 0.7645 0.94871 0.0
H101 H 0.69307 0.02509 0.92841 0.0
Zn102 Zn 0.41135 0.84641 0.59714 0.0
C103 C 0.43777 0.97184 0.56302 0.0
N104 N 0.45142 0.96796 0.59198 0.0
C105 C 0.4427 0.93177 0.6074 0.0
N106 N 0.4247 0.91313 0.58862 0.0
N107 N 0.42143 0.93895 0.56083 0.0
C108 C 0.39724 0.93646 0.46311 0.0
O109 O 0.39147 0.8847 0.46605 0.0
O110 O 0.40985 0.85185 0.64249 0.0
Zn111 Zn 0.3956 0.94584 0.52862 0.0
N112 N 0.42762 0.78269 0.59181 0.0
C113 C 0.45532 0.7476 0.57533 0.0
C114 C 0.44362 0.7923 0.58021 0.0
C115 C 0.42228 0.72949 0.59737 0.0
N116 N 0.45001 0.69464 0.5808 0.0
C117 C 0.43363 0.68381 0.59132 0.0
O118 O 0.37656 0.87854 0.52184 0.0
C119 C 0.37168 0.84263 0.53994 0.0
O120 O 0.383 0.83283 0.56812 0.0
H121 H 0.4472 0.83425 0.57436 0.0
H122 H 0.40925 0.72323 0.60603 0.0
C123 C 0.38805 0.05913 0.54564 0.0
C124 C 0.37716 0.10113 0.5563 0.0
C125 C 0.35297 0.0328 0.56059 0.0
C126 C 0.36379 0.99156 0.55013 0.0
N127 N 0.38106 0.00537 0.54275 0.0
N128 N 0.35985 0.08634 0.56336 0.0
H129 H 0.40171 0.06875 0.53923 0.0
C130 C 0.39885 0.89128 0.64785 0.0
O131 O 0.38891 0.92309 0.62384 0.0
O132 O 0.39994 0.96982 0.48663 0.0
H133 H 0.35837 0.9489 0.54796 0.0
H134 H 0.46825 0.75478 0.56653 0.0
H135 H 0.3392 0.0224 0.56648 0.0
Zn136 Zn 0.91236 0.64639 0.09724 0.0
C137 C 0.93611 0.51739 0.06159 0.0
N138 N 0.94772 0.51095 0.09186 0.0
C139 C 0.94008 0.54865 0.10799 0.0
N140 N 0.92453 0.57766 0.08837 0.0
N141 N 0.92172 0.55677 0.05943 0.0
C142 C 0.89741 0.56523 0.96221 0.0
O143 O 0.89162 0.61673 0.96568 0.0
O144 O 0.91214 0.64212 0.14326 0.0
Zn145 Zn 0.89581 0.55134 0.0276 0.0
N146 N 0.92857 0.70879 0.08922 0.0
C147 C 0.95689 0.7398 0.07294 0.0
C148 C 0.94522 0.69657 0.0797 0.0
C149 C 0.92278 0.76295 0.09133 0.0
N150 N 0.95118 0.79368 0.0751 0.0
C151 C 0.93433 0.807 0.08385 0.0
O152 O 0.87672 0.61803 0.02277 0.0
C153 C 0.87199 0.65222 0.04184 0.0
O154 O 0.88355 0.66055 0.07005 0.0
H155 H 0.94953 0.65355 0.07754 0.0
H156 H 0.90939 0.7712 0.09875 0.0
C157 C 0.88874 0.43569 0.04182 0.0
C158 C 0.87803 0.39197 0.05152 0.0
C159 C 0.85377 0.4583 0.05792 0.0
C160 C 0.86443 0.50121 0.04845 0.0
N161 N 0.88163 0.48926 0.04047 0.0
N162 N 0.86077 0.40499 0.05918 0.0
H163 H 0.90234 0.42752 0.03498 0.0
C164 C 0.90336 0.59862 0.14968 0.0
O165 O 0.89456 0.56416 0.12629 0.0
O166 O 0.90004 0.53088 0.98527 0.0
H167 H 0.85893 0.5437 0.04748 0.0
H168 H 0.97029 0.73065 0.0657 0.0
H169 H 0.84004 0.46722 0.06424 0.0
Zn170 Zn 0.12405 0.64685 0.40584 0.0
C171 C 0.09888 0.51769 0.43894 0.0
N172 N 0.08786 0.51223 0.40822 0.0
C173 C 0.09613 0.55034 0.3932 0.0
N174 N 0.11143 0.57848 0.41378 0.0
N175 N 0.1135 0.55702 0.44239 0.0
C176 C 0.13187 0.55406 0.5359 0.0
O177 O 0.12914 0.60787 0.52963 0.0
O178 O 0.12435 0.64399 0.35974 0.0
Zn179 Zn 0.13962 0.54879 0.47358 0.0
N180 N 0.10799 0.70897 0.41422 0.0
C181 C 0.08019 0.73997 0.4318 0.0
C182 C 0.09169 0.69675 0.42469 0.0
C183 C 0.11356 0.7631 0.41141 0.0
N184 N 0.0857 0.79385 0.429 0.0
C185 C 0.1022 0.80714 0.41924 0.0
O186 O 0.15895 0.61549 0.48055 0.0
C187 C 0.16405 0.65023 0.46205 0.0
O188 O 0.15278 0.65948 0.43374 0.0
H189 H 0.08753 0.65374 0.42732 0.0
H190 H 0.12664 0.77128 0.40318 0.0
C191 C 0.14672 0.43534 0.45681 0.0
C192 C 0.15676 0.39299 0.44481 0.0
C193 C 0.17929 0.46152 0.43505 0.0
C194 C 0.16927 0.50315 0.44679 0.0
N195 N 0.15327 0.48937 0.4576 0.0
N196 N 0.17286 0.40768 0.43439 0.0
H197 H 0.13405 0.42577 0.46584 0.0
C198 C 0.13249 0.59998 0.35253 0.0
O199 O 0.14096 0.56414 0.37536 0.0
O200 O 0.13632 0.52217 0.51566 0.0
H201 H 0.17428 0.54605 0.44723 0.0
H202 H 0.06707 0.73083 0.43981 0.0
H203 H 0.19208 0.47187 0.42647 0.0
Zn204 Zn 0.12342 0.34782 0.90561 0.0
C205 C 0.09872 0.48051 0.93564 0.0
N206 N 0.08781 0.48417 0.90474 0.0
C207 C 0.09626 0.44496 0.89068 0.0
N208 N 0.11151 0.41792 0.91197 0.0
N209 N 0.11343 0.44131 0.94003 0.0
C210 C 0.135 0.43065 0.03847 0.0
O211 O 0.14086 0.37914 0.03519 0.0
O212 O 0.12282 0.34547 0.85916 0.0
Zn213 Zn 0.13852 0.4455 0.97404 0.0
N214 N 0.10746 0.28789 0.91655 0.0
C215 C 0.08017 0.25968 0.9362 0.0
C216 C 0.09152 0.30177 0.92749 0.0
C217 C 0.11286 0.23333 0.91481 0.0
N218 N 0.08551 0.20533 0.93443 0.0
C219 C 0.10168 0.19053 0.92423 0.0
O220 O 0.15795 0.37896 0.97976 0.0
C221 C 0.16333 0.34507 0.96116 0.0
O222 O 0.15226 0.33598 0.93275 0.0
H223 H 0.0875 0.34518 0.92923 0.0
H224 H 0.12567 0.22383 0.90614 0.0
C225 C 0.1464 0.56135 0.9624 0.0
C226 C 0.15739 0.60553 0.95379 0.0
C227 C 0.18182 0.53967 0.94749 0.0
C228 C 0.17084 0.49627 0.95578 0.0
N229 N 0.15341 0.5078 0.96319 0.0
N230 N 0.17488 0.59297 0.9467 0.0
H231 H 0.13259 0.56902 0.96876 0.0
C232 C 0.13529 0.37772 0.85135 0.0
O233 O 0.1484 0.40624 0.87383 0.0
O234 O 0.13292 0.46518 0.0156 0.0
H235 H 0.17625 0.45376 0.95625 0.0
H236 H 0.06732 0.2701 0.94459 0.0
H237 H 0.19574 0.53112 0.94163 0.0
Zn238 Zn 0.8951 0.44181 0.52719 0.0
C239 C 0.93955 0.44437 0.60786 0.0
N240 N 0.94707 0.48254 0.59178 0.0
C241 C 0.93525 0.47683 0.5616 0.0
N242 N 0.92087 0.43739 0.55944 0.0
N243 N 0.92385 0.41576 0.58826 0.0
C244 C 0.9027 0.39453 0.64951 0.0
O245 O 0.89402 0.42928 0.62621 0.0
O246 O 0.8996 0.46182 0.48495 0.0
Zn247 Zn 0.91161 0.34695 0.59699 0.0
N248 N 0.88065 0.50389 0.53936 0.0
C249 C 0.85258 0.53492 0.5562 0.0
C250 C 0.86338 0.49193 0.54718 0.0
C251 C 0.88767 0.55754 0.54045 0.0
N252 N 0.8595 0.5883 0.5572 0.0
C253 C 0.87682 0.60133 0.5497 0.0
O254 O 0.88278 0.33297 0.56988 0.0
C255 C 0.8713 0.34097 0.54159 0.0
O256 O 0.87611 0.37485 0.52242 0.0
H257 H 0.85795 0.44938 0.54642 0.0
H258 H 0.90133 0.56569 0.53374 0.0
C259 C 0.92173 0.23041 0.59065 0.0
C260 C 0.93318 0.18627 0.58311 0.0
C261 C 0.95603 0.25324 0.57268 0.0
C262 C 0.94444 0.29658 0.57949 0.0
N263 N 0.9277 0.2845 0.58881 0.0
N264 N 0.95014 0.19941 0.57458 0.0
H265 H 0.90827 0.22229 0.59791 0.0
C266 C 0.89685 0.42757 0.46184 0.0
O267 O 0.89073 0.37633 0.46516 0.0
O268 O 0.91135 0.35091 0.64301 0.0
H269 H 0.94889 0.33957 0.57754 0.0
H270 H 0.83879 0.526 0.56239 0.0
H271 H 0.96951 0.26226 0.56562 0.0
C272 C 0.58307 0.05762 0.33307 0.0
C273 C 0.58366 0.08364 0.36198 0.0
C274 C 0.56872 0.07427 0.30475 0.0
C275 C 0.5392 0.12542 0.24577 0.0
H276 H 0.48544 0.138 0.25675 0.0
C277 C 0.46966 0.1327 0.13665 0.0
C278 C 0.45418 0.09526 0.13769 0.0
C279 C 0.48448 0.14792 0.16461 0.0
C280 C 0.50034 0.13481 0.25328 0.0
H281 H 0.57001 0.14718 0.3843 0.0
H282 H 0.54567 0.17832 0.33493 0.0
H283 H 0.51506 0.13345 0.30352 0.0
H284 H 0.44185 0.04401 0.1683 0.0
H285 H 0.46787 0.06991 0.21746 0.0
H286 H 0.52443 0.1231 0.19561 0.0
C287 C 0.55617 0.14507 0.33389 0.0
C288 C 0.51738 0.13289 0.28008 0.0
C289 C 0.57041 0.12813 0.36212 0.0
C290 C 0.45327 0.07457 0.16719 0.0
C291 C 0.46823 0.08935 0.19526 0.0
C292 C 0.52218 0.12717 0.21899 0.0
C293 C 0.55462 0.11686 0.30511 0.0
C294 C 0.53697 0.12688 0.27663 0.0
C295 C 0.48446 0.1245 0.19407 0.0
C296 C 0.50251 0.13063 0.22244 0.0
H297 H 0.59291 0.02235 0.33267 0.0
H298 H 0.56783 0.05123 0.28307 0.0
H299 H 0.55409 0.12131 0.24232 0.0
H300 H 0.47118 0.14719 0.11403 0.0
H301 H 0.49661 0.17555 0.16289 0.0
C302 C 0.45071 0.91996 0.66624 0.0
C303 C 0.45456 0.90607 0.63748 0.0
C304 C 0.4653 0.90894 0.69538 0.0
C305 C 0.5163 0.84389 0.73253 0.0
H306 H 0.52456 0.97829 0.78451 0.0
C307 C 0.57906 0.87341 0.85361 0.0
C308 C 0.58658 0.92793 0.86108 0.0
C309 C 0.5641 0.86267 0.82486 0.0
C310 C 0.52261 0.94066 0.77007 0.0
H311 H 0.47629 0.86939 0.61622 0.0
H312 H 0.50168 0.85034 0.66662 0.0
H313 H 0.49409 0.96905 0.74 0.0
H314 H 0.58599 0.01284 0.84343 0.0
H315 H 0.56047 0.99396 0.79267 0.0
H316 H 0.54539 0.81676 0.76223 0.0
C317 C 0.48728 0.86784 0.66716 0.0
C318 C 0.50487 0.93477 0.74493 0.0
C319 C 0.47269 0.87866 0.63819 0.0
C320 C 0.58038 0.97039 0.83815 0.0
C321 C 0.56561 0.95968 0.80933 0.0
C322 C 0.53415 0.84986 0.75778 0.0
C323 C 0.48415 0.88513 0.69603 0.0
C324 C 0.50159 0.88673 0.72553 0.0
C325 C 0.55648 0.90648 0.80319 0.0
C326 C 0.53765 0.89887 0.77642 0.0
H327 H 0.43723 0.94329 0.66617 0.0
H328 H 0.46235 0.92232 0.71726 0.0
H329 H 0.51418 0.80619 0.71813 0.0
H330 H 0.58334 0.84017 0.87091 0.0
H331 H 0.55741 0.8212 0.82083 0.0
C332 C 0.95662 0.61561 0.15231 0.0
C333 C 0.95086 0.56081 0.14171 0.0
C334 C 0.97267 0.62456 0.18011 0.0
C335 C 0.0198 0.55582 0.21918 0.0
H336 H 0.02411 0.647 0.29412 0.0
C337 C 0.07973 0.51921 0.33801 0.0
C338 C 0.08649 0.56377 0.35933 0.0
C339 C 0.06566 0.52841 0.30832 0.0
C340 C 0.02331 0.62249 0.27296 0.0
H341 H 0.95567 0.47273 0.15361 0.0
H342 H 0.98348 0.48823 0.20204 0.0
H343 H 0.99211 0.64485 0.2509 0.0
H344 H 0.08489 0.65343 0.36544 0.0
H345 H 0.06042 0.67003 0.31337 0.0
H346 H 0.05074 0.53287 0.24092 0.0
C347 C 0.9759 0.52425 0.18866 0.0
C348 C 1.00495 0.62096 0.24843 0.0
C349 C 0.95989 0.51546 0.16113 0.0
C350 C 0.08009 0.61843 0.3495 0.0
C351 C 0.06588 0.62778 0.31976 0.0
C352 C 0.03814 0.55779 0.24339 0.0
C353 C 0.98314 0.57865 0.19739 0.0
C354 C 1.00289 0.58604 0.22192 0.0
C355 C 0.0579 0.58248 0.29943 0.0
C356 C 0.03992 0.58955 0.27109 0.0
H357 H 0.94999 0.6513 0.13802 0.0
H358 H 0.97792 0.66696 0.18662 0.0
H359 H 0.01868 0.5296 0.19851 0.0
H360 H 0.08433 0.47656 0.34518 0.0
H361 H 0.05976 0.49238 0.29345 0.0
C362 C 0.08063 0.47088 0.83434 0.0
C363 C 0.08656 0.42848 0.85734 0.0
C364 C 0.06646 0.45991 0.80495 0.0
C365 C 0.02251 0.36925 0.7731 0.0
H366 H 0.01924 0.45211 0.69552 0.0
C367 C 0.95574 0.3763 0.65191 0.0
C368 C 0.95058 0.43148 0.64141 0.0
C369 C 0.97183 0.36616 0.67951 0.0
C370 C 0.02002 0.42854 0.71704 0.0
H371 H 0.08321 0.34066 0.86703 0.0
H372 H 0.05861 0.32091 0.81553 0.0
H373 H 0.05138 0.44824 0.73785 0.0
H374 H 0.95656 0.51922 0.65335 0.0
H375 H 0.98452 0.50162 0.70131 0.0
H376 H 0.99089 0.3503 0.75197 0.0
C377 C 0.06483 0.36281 0.82027 0.0
C378 C 0.03837 0.42631 0.74122 0.0
C379 C 0.07913 0.3739 0.84967 0.0
C380 C 0.9603 0.47619 0.66075 0.0
C381 C 0.97637 0.46621 0.68803 0.0
C382 C 1.00414 0.37095 0.74861 0.0
C383 C 0.05774 0.40629 0.79812 0.0
C384 C 0.03965 0.39846 0.77004 0.0
C385 C 0.98292 0.41126 0.69666 0.0
C386 C 1.00263 0.40236 0.72095 0.0
H387 H 0.08595 0.51351 0.83991 0.0
H388 H 0.06123 0.49464 0.78867 0.0
H389 H 0.02292 0.34783 0.79511 0.0
H390 H 0.94858 0.34106 0.63773 0.0
H391 H 0.97656 0.32338 0.68598 0.0
C392 C 0.37226 0.79344 0.06135 0.0
C393 C 0.38619 0.83733 0.06287 0.0
C394 C 0.37888 0.73834 0.06813 0.0
C395 C 0.42129 0.64366 0.07096 0.0
H396 H 0.3955 0.54928 0.1201 0.0
C397 C 0.44574 0.41423 0.09886 0.0
C398 C 0.43003 0.3746 0.09423 0.0
C399 C 0.44173 0.47152 0.09969 0.0
C400 C 0.40276 0.57495 0.10617 0.0
H401 H 0.41833 0.85686 0.07355 0.0
H402 H 0.4298 0.76028 0.08482 0.0
H403 H 0.38617 0.64806 0.11202 0.0
H404 H 0.39773 0.36436 0.08742 0.0
H405 H 0.39071 0.46424 0.08874 0.0
H406 H 0.43752 0.57044 0.06441 0.0
C407 C 0.41367 0.76893 0.07801 0.0
C408 C 0.39743 0.63155 0.10156 0.0
C409 C 0.40704 0.82437 0.07133 0.0
C410 C 0.41029 0.39352 0.09167 0.0
C411 C 0.40625 0.45096 0.09233 0.0
C412 C 0.42658 0.58701 0.07548 0.0
C413 C 0.39965 0.72539 0.07665 0.0
C414 C 0.40644 0.66636 0.08354 0.0
C415 C 0.42185 0.4907 0.09563 0.0
C416 C 0.41721 0.55178 0.09283 0.0
H417 H 0.35609 0.80149 0.05472 0.0
H418 H 0.36766 0.70566 0.06628 0.0
H419 H 0.42833 0.66919 0.05665 0.0
H420 H 0.46115 0.401 0.10112 0.0
H421 H 0.45418 0.50087 0.10292 0.0
C422 C 0.66387 0.78464 0.44858 0.0
C423 C 0.64979 0.82822 0.44668 0.0
C424 C 0.65747 0.72907 0.44325 0.0
C425 C 0.616 0.63359 0.44424 0.0
H426 H 0.64002 0.53864 0.39305 0.0
C427 C 0.59083 0.40407 0.41729 0.0
C428 C 0.6063 0.36435 0.41994 0.0
C429 C 0.59494 0.46141 0.41704 0.0
C430 C 0.63329 0.56443 0.40761 0.0
H431 H 0.61761 0.84663 0.4369 0.0
H432 H 0.60658 0.74934 0.4283 0.0
H433 H 0.64939 0.63748 0.40006 0.0
H434 H 0.63832 0.35398 0.42439 0.0
H435 H 0.64551 0.45383 0.42415 0.0
H436 H 0.60027 0.56043 0.45249 0.0
C437 C 0.62265 0.75862 0.43425 0.0
C438 C 0.63863 0.62107 0.41159 0.0
C439 C 0.62904 0.81448 0.43941 0.0
C440 C 0.62592 0.38326 0.42158 0.0
C441 C 0.63006 0.44067 0.42152 0.0
C442 C 0.61073 0.57686 0.44041 0.0
C443 C 0.6368 0.71542 0.4359 0.0
C444 C 0.6302 0.65611 0.43021 0.0
C445 C 0.61468 0.48046 0.41975 0.0
C446 C 0.61945 0.54146 0.42228 0.0
H447 H 0.67998 0.79331 0.45431 0.0
H448 H 0.66878 0.69663 0.44522 0.0
H449 H 0.60943 0.65941 0.45902 0.0
H450 H 0.57553 0.39083 0.41583 0.0
H451 H 0.58266 0.49083 0.41505 0.0
C452 C 0.59196 0.58799 0.91419 0.0
C453 C 0.60733 0.62844 0.91764 0.0
C454 C 0.59638 0.53085 0.91426 0.0
C455 C 0.63488 0.4291 0.90528 0.0
H456 H 0.6113 0.33318 0.95674 0.0
C457 C 0.66411 0.20545 0.94086 0.0
C458 C 0.64985 0.16296 0.9404 0.0
C459 C 0.65819 0.26156 0.93672 0.0
C460 C 0.61779 0.35919 0.94191 0.0
H461 H 0.63954 0.63989 0.92381 0.0
H462 H 0.64718 0.54024 0.92372 0.0
H463 H 0.60233 0.43229 0.95093 0.0
H464 H 0.61791 0.14663 0.93444 0.0
H465 H 0.60764 0.24475 0.92741 0.0
H466 H 0.65046 0.35606 0.89646 0.0
C467 C 0.63161 0.55294 0.92045 0.0
C468 C 0.61265 0.41603 0.93857 0.0
C469 C 0.62719 0.61024 0.92037 0.0
C470 C 0.62944 0.17814 0.93573 0.0
C471 C 0.62351 0.23447 0.93154 0.0
C472 C 0.64 0.37225 0.9086 0.0
C473 C 0.61631 0.51259 0.91791 0.0
C474 C 0.62124 0.45174 0.92039 0.0
C475 C 0.63782 0.27679 0.93182 0.0
C476 C 0.63166 0.3367 0.92718 0.0
H477 H 0.57647 0.60047 0.9118 0.0
H478 H 0.58417 0.5009 0.9117 0.0
H479 H 0.64152 0.45529 0.89073 0.0
H480 H 0.67997 0.19542 0.9446 0.0
H481 H 0.66967 0.29312 0.93766 0.0
C482 C 0.36889 0.20289 0.55701 0.0
C483 C 0.38362 0.16082 0.55982 0.0
C484 C 0.3745 0.25916 0.5617 0.0
C485 C 0.41756 0.35115 0.60043 0.0
H486 H 0.38539 0.46422 0.54425 0.0
C487 C 0.44273 0.58238 0.59955 0.0
C488 C 0.4278 0.62445 0.59408 0.0
C489 C 0.43737 0.52575 0.598 0.0
C490 C 0.39435 0.43329 0.56048 0.0
H491 H 0.41599 0.14539 0.57037 0.0
H492 H 0.42572 0.244 0.57795 0.0
H493 H 0.37642 0.36563 0.5349 0.0
H494 H 0.39537 0.63938 0.58323 0.0
H495 H 0.38611 0.54065 0.58135 0.0
H496 H 0.43554 0.41898 0.62593 0.0
C497 C 0.40979 0.23309 0.57218 0.0
C498 C 0.38926 0.37673 0.55504 0.0
C499 C 0.40417 0.17657 0.56738 0.0
C500 C 0.40737 0.60842 0.58813 0.0
C501 C 0.402 0.55167 0.58655 0.0
C502 C 0.42266 0.40782 0.6059 0.0
C503 C 0.395 0.27497 0.56945 0.0
C504 C 0.40078 0.33499 0.57495 0.0
C505 C 0.41691 0.50969 0.59082 0.0
C506 C 0.41111 0.44955 0.58597 0.0
H507 H 0.35293 0.19237 0.55124 0.0
H508 H 0.36274 0.29024 0.55983 0.0
H509 H 0.42656 0.32007 0.61649 0.0
H510 H 0.45861 0.5932 0.60423 0.0
H511 H 0.44922 0.49457 0.60115 0.0
C512 C 0.87009 0.28963 0.05021 0.0
C513 C 0.88466 0.33235 0.0536 0.0
C514 C 0.87587 0.23339 0.05413 0.0
C515 C 0.9177 0.13581 0.05509 0.0
H516 H 0.89029 0.03945 0.10091 0.0
C517 C 0.94381 0.90857 0.08905 0.0
C518 C 0.92866 0.86715 0.08435 0.0
C519 C 0.93879 0.96547 0.08683 0.0
C520 C 0.89796 0.06563 0.0878 0.0
H521 H 0.91697 0.34881 0.06406 0.0
H522 H 0.92704 0.25042 0.07076 0.0
H523 H 0.88118 0.13835 0.09351 0.0
H524 H 0.89614 0.85384 0.07345 0.0
H525 H 0.88743 0.9531 0.06982 0.0
H526 H 0.93445 0.06301 0.04931 0.0
C527 C 0.91105 0.26067 0.06458 0.0
C528 C 0.89274 0.12237 0.08354 0.0
C529 C 0.90524 0.31718 0.06061 0.0
C530 C 0.90831 0.88428 0.07795 0.0
C531 C 0.90328 0.94136 0.07573 0.0
C532 C 0.92294 0.07906 0.05938 0.0
C533 C 0.89643 0.21815 0.06173 0.0
C534 C 0.90245 0.15812 0.06696 0.0
C535 C 0.91845 0.98261 0.07972 0.0
C536 C 0.91308 0.04321 0.07569 0.0
H537 H 0.85409 0.29961 0.04456 0.0
H538 H 0.86417 0.20175 0.0511 0.0
H539 H 0.9253 0.16194 0.04185 0.0
H540 H 0.95965 0.89702 0.09421 0.0
H541 H 0.95088 0.99609 0.09061 0.0
C542 C 0.13028 0.317 0.43858 0.0
C543 C 0.15059 0.33311 0.44325 0.0
C544 C 0.12475 0.26029 0.4353 0.0
C545 C 0.14248 0.12267 0.41446 0.0
H546 H 0.10335 0.06257 0.45402 0.0
C547 C 0.12794 0.88452 0.423 0.0
C548 C 0.10771 0.86726 0.41808 0.0
C549 C 0.1329 0.94161 0.42457 0.0
C550 C 0.11413 0.07885 0.4425 0.0
H551 H 0.18102 0.30203 0.44869 0.0
H552 H 0.17145 0.20361 0.44345 0.0
H553 H 0.11239 0.16166 0.4604 0.0
H554 H 0.07684 0.89689 0.41017 0.0
H555 H 0.08551 0.99602 0.41278 0.0
H556 H 0.14433 0.03969 0.39679 0.0
C557 C 0.15971 0.23469 0.44172 0.0
C558 C 0.1193 0.13567 0.44615 0.0
C559 C 0.16521 0.29119 0.44489 0.0
C560 C 0.09259 0.90854 0.4142 0.0
C561 C 0.09756 0.96545 0.41583 0.0
C562 C 0.13734 0.06583 0.41088 0.0
C563 C 0.1394 0.2185 0.43657 0.0
C564 C 0.13359 0.15826 0.43226 0.0
C565 C 0.11779 0.98268 0.42144 0.0
C566 C 0.12313 0.04324 0.42489 0.0
H567 H 0.1185 0.34806 0.43647 0.0
H568 H 0.10892 0.24931 0.43094 0.0
H569 H 0.15327 0.13887 0.40295 0.0
H570 H 0.14011 0.85423 0.42685 0.0
H571 H 0.14868 0.95354 0.42931 0.0
C572 C 0.0919 0.0892 0.92062 0.0
C573 C 0.10708 0.13021 0.9241 0.0
C574 C 0.09678 0.03221 0.92272 0.0
C575 C 0.13697 0.93167 0.91905 0.0
H576 H 0.11078 0.83503 0.96654 0.0
C577 C 0.16531 0.70791 0.95575 0.0
C578 C 0.15075 0.66509 0.95212 0.0
C579 C 0.1595 0.76415 0.95225 0.0
C580 C 0.11805 0.86132 0.9529 0.0
H581 H 0.1395 0.14287 0.93303 0.0
H582 H 0.14797 0.04355 0.93658 0.0
H583 H 0.10166 0.9341 0.95982 0.0
H584 H 0.11842 0.64856 0.94165 0.0
H585 H 0.10836 0.74693 0.9359 0.0
H586 H 0.15347 0.859 0.91234 0.0
C587 C 0.13219 0.05557 0.93157 0.0
C588 C 0.11282 0.9181 0.94901 0.0
C589 C 0.1273 0.11268 0.92941 0.0
C590 C 0.13016 0.68017 0.94533 0.0
C591 C 0.12435 0.73667 0.94187 0.0
C592 C 0.14222 0.87496 0.92298 0.0
C593 C 0.117 0.01467 0.92855 0.0
C594 C 0.12228 0.95402 0.93213 0.0
C595 C 0.13896 0.77923 0.94493 0.0
C596 C 0.13291 0.83918 0.94011 0.0
H597 H 0.07616 0.10116 0.91637 0.0
H598 H 0.08467 0.00184 0.91975 0.0
H599 H 0.1443 0.95789 0.90547 0.0
H600 H 0.18131 0.69804 0.96124 0.0
H601 H 0.17117 0.79591 0.95537 0.0
C602 C 0.90392 0.67648 0.55852 0.0
C603 C 0.88335 0.66103 0.55143 0.0
C604 C 0.90961 0.73311 0.56199 0.0
C605 C 0.88919 0.87702 0.54277 0.0
H606 H 0.93556 0.92094 0.61305 0.0
C607 C 0.90684 0.10964 0.57636 0.0
C608 C 0.92727 0.12624 0.58323 0.0
C609 C 0.90158 0.05272 0.57366 0.0
C610 C 0.92268 0.90934 0.59314 0.0
H611 H 0.85272 0.69337 0.54209 0.0
H612 H 0.86265 0.79136 0.54839 0.0
H613 H 0.92668 0.82189 0.60451 0.0
H614 H 0.95817 0.0956 0.59331 0.0
H615 H 0.94898 0.99684 0.58832 0.0
H616 H 0.88517 0.96433 0.53135 0.0
C617 C 0.87437 0.75996 0.55092 0.0
C618 C 0.91762 0.85253 0.58819 0.0
C619 C 0.86869 0.70359 0.54756 0.0
C620 C 0.94228 0.08444 0.58798 0.0
C621 C 0.93703 0.02768 0.58535 0.0
C622 C 0.89423 0.93376 0.54771 0.0
C623 C 0.89489 0.77549 0.55838 0.0
C624 C 0.90078 0.83569 0.56299 0.0
C625 C 0.9166 0.01108 0.57775 0.0
C626 C 0.91101 0.95068 0.57299 0.0
H627 H 0.9157 0.64501 0.56226 0.0
H628 H 0.92556 0.74371 0.56754 0.0
H629 H 0.87629 0.86546 0.52285 0.0
H630 H 0.89479 0.14039 0.57195 0.0
H631 H 0.88571 0.04134 0.56809 0.0
C632 C 0.33625 0.16225 0.00254 0.0
C633 C 0.35044 0.17891 0.03131 0.0
C634 C 0.31611 0.18082 0.99468 0.0
C635 C 0.2826 0.28848 0.01441 0.0
H636 H 0.24024 0.17932 0.97918 0.0
C637 C 0.19817 0.33675 1.00041 0.0
C638 C 0.18404 0.32022 0.97156 0.0
C639 C 0.21832 0.31813 0.00836 0.0
C640 C 0.25186 0.21051 0.98873 0.0
H641 H 0.35455 0.22987 0.07384 0.0
H642 H 0.31953 0.26189 0.06019 0.0
H643 H 0.27573 0.15208 0.99035 0.0
H644 H 0.18001 0.26941 0.92899 0.0
H645 H 0.21502 0.2373 0.9428 0.0
H646 H 0.25873 0.34691 0.01278 0.0
C647 C 0.32398 0.23474 0.04357 0.0
C648 C 0.27224 0.19492 0.99506 0.0
C649 C 0.3441 0.21614 0.05146 0.0
C650 C 0.19042 0.28306 0.95143 0.0
C651 C 0.21054 0.2644 0.95941 0.0
C652 C 0.26222 0.30407 0.00808 0.0
C653 C 0.30963 0.21663 0.01533 0.0
C654 C 0.2879 0.23369 0.00798 0.0
C655 C 0.22484 0.28239 0.98773 0.0
C656 C 0.24657 0.2653 0.99515 0.0
H657 H 0.34055 0.13367 0.9864 0.0
H658 H 0.30556 0.16677 0.97247 0.0
H659 H 0.29423 0.31967 0.02394 0.0
H660 H 0.19384 0.3653 0.01653 0.0
H661 H 0.22883 0.3321 0.03062 0.0
C662 C 0.69128 0.20711 0.45306 0.0
C663 C 0.68473 0.1701 0.47312 0.0
C664 C 0.7114 0.22577 0.46129 0.0
C665 C 0.76302 0.18745 0.51099 0.0
H666 H 0.77612 0.33918 0.49188 0.0
C667 C 0.84473 0.27853 0.55287 0.0
C668 C 0.85076 0.31496 0.53198 0.0
C669 C 0.8247 0.2591 0.54549 0.0
C670 C 0.77275 0.29642 0.49701 0.0
H671 H 0.69427 0.12508 0.51814 0.0
H672 H 0.7293 0.15836 0.5327 0.0
H673 H 0.74073 0.31123 0.48092 0.0
H674 H 0.84045 0.35771 0.48628 0.0
H675 H 0.80568 0.32327 0.4733 0.0
H676 H 0.7951 0.17276 0.52714 0.0
C677 C 0.7189 0.17221 0.51031 0.0
C678 C 0.75242 0.28041 0.49078 0.0
C679 C 0.69873 0.15355 0.5021 0.0
C680 C 0.8364 0.32984 0.503 0.0
C681 C 0.81637 0.31049 0.49567 0.0
C682 C 0.78338 0.20351 0.51727 0.0
C683 C 0.72556 0.20801 0.48981 0.0
C684 C 0.74726 0.22564 0.49756 0.0
C685 C 0.81017 0.27565 0.51707 0.0
C686 C 0.78851 0.25816 0.51023 0.0
H687 H 0.68099 0.22076 0.43052 0.0
H688 H 0.71598 0.2528 0.44472 0.0
H689 H 0.75965 0.14468 0.51605 0.0
H690 H 0.85533 0.26613 0.57541 0.0
H691 H 0.82046 0.23263 0.56263 0.0
C692 C 0.69166 0.78485 0.95425 0.0
C693 C 0.6854 0.82242 0.97431 0.0
C694 C 0.71179 0.76636 0.96201 0.0
C695 C 0.75953 0.75445 0.02848 0.0
H696 H 0.78454 0.74938 0.95976 0.0
C697 C 0.84556 0.71531 0.05295 0.0
C698 C 0.85146 0.67827 0.03224 0.0
C699 C 0.82557 0.73493 0.0456 0.0
C700 C 0.77776 0.74999 0.9792 0.0
H701 H 0.69546 0.86847 0.01893 0.0
H702 H 0.73054 0.83623 0.03241 0.0
H703 H 0.74906 0.77682 0.94836 0.0
H704 H 0.84089 0.63425 0.987 0.0
H705 H 0.80611 0.66818 0.97433 0.0
H706 H 0.78822 0.72742 0.0593 0.0
C707 C 0.71982 0.82082 0.01072 0.0
C708 C 0.75738 0.76567 0.97265 0.0
C709 C 0.69967 0.83939 0.00294 0.0
C710 C 0.83698 0.66289 0.00348 0.0
C711 C 0.81698 0.6825 0.99616 0.0
C712 C 0.77992 0.7387 0.03503 0.0
C713 C 0.72623 0.78486 0.99005 0.0
C714 C 0.74796 0.76796 0.99718 0.0
C715 C 0.81092 0.71807 0.01736 0.0
C716 C 0.78931 0.73616 0.01046 0.0
H717 H 0.68112 0.77055 0.93209 0.0
H718 H 0.71607 0.7378 0.94585 0.0
H719 H 0.75273 0.75509 0.04789 0.0
H720 H 0.85628 0.72833 0.07524 0.0
H721 H 0.82157 0.7631 0.0622 0.0
C722 C 0.19907 0.65849 0.50078 0.0
C723 C 0.18473 0.6754 0.47221 0.0
C724 C 0.21922 0.67704 0.50835 0.0
C725 C 0.2526 0.78483 0.48821 0.0
H726 H 0.29494 0.67512 0.52228 0.0
C727 C 0.33682 0.83353 0.50087 0.0
C728 C 0.35112 0.81673 0.5295 0.0
C729 C 0.31671 0.81461 0.49312 0.0
C730 C 0.28333 0.70646 0.51306 0.0
H731 H 0.18035 0.72692 0.4298 0.0
H732 H 0.21537 0.75894 0.44296 0.0
H733 H 0.25944 0.64814 0.51175 0.0
H734 H 0.35551 0.76489 0.57178 0.0
H735 H 0.32056 0.73223 0.55833 0.0
H736 H 0.27648 0.84316 0.48954 0.0
C737 C 0.21104 0.73156 0.45963 0.0
C738 C 0.26294 0.69102 0.50709 0.0
C739 C 0.19092 0.71297 0.45202 0.0
C740 C 0.34497 0.77877 0.54952 0.0
C741 C 0.32488 0.75982 0.54175 0.0
C742 C 0.27299 0.80027 0.49418 0.0
C743 C 0.22556 0.71309 0.48762 0.0
C744 C 0.2473 0.73 0.4946 0.0
C745 C 0.31038 0.7783 0.51374 0.0
C746 C 0.28864 0.76131 0.50669 0.0
H747 H 0.1949 0.62964 0.51694 0.0
H748 H 0.22989 0.66272 0.53039 0.0
H749 H 0.24099 0.81618 0.479 0.0
H750 H 0.34096 0.86266 0.48482 0.0
H751 H 0.30605 0.82892 0.47107 0.0
C752 C 0.40729 0.99561 0.92817 0.0
C753 C 0.39668 0.04499 0.93067 0.0
C754 C 0.40827 0.97681 0.89831 0.0
C755 C 0.38063 0.98713 0.81268 0.0
H756 H 0.43047 0.93292 0.79887 0.0
C757 C 0.38706 0.95036 0.68619 0.0
C758 C 0.39846 0.90455 0.68079 0.0
C759 C 0.38713 0.96476 0.71715 0.0
C760 C 0.41635 0.94713 0.8024 0.0
H761 H 0.37924 0.11401 0.90383 0.0
H762 H 0.38094 0.08124 0.85198 0.0
H763 H 0.43043 0.96351 0.85218 0.0
H764 H 0.41894 0.83792 0.70384 0.0
H765 H 0.41874 0.8624 0.75801 0.0
H766 H 0.36644 0.97053 0.76321 0.0
C767 C 0.38831 0.05671 0.873 0.0
C768 C 0.41636 0.9648 0.83295 0.0
C769 C 0.38745 0.07568 0.90279 0.0
C770 C 0.40991 0.8733 0.70717 0.0
C771 C 0.40993 0.88765 0.73825 0.0
C772 C 0.38059 0.96919 0.78228 0.0
C773 C 0.39853 0.00675 0.87034 0.0
C774 C 0.39854 0.98569 0.83832 0.0
C775 C 0.39852 0.93362 0.74363 0.0
C776 C 0.39849 0.94964 0.77658 0.0
H777 H 0.41467 0.97115 0.94922 0.0
H778 H 0.41621 0.93808 0.89704 0.0
H779 H 0.36656 0.00189 0.81616 0.0
H780 H 0.3782 0.9757 0.66649 0.0
H781 H 0.37848 0.00108 0.72032 0.0
C782 C 0.62443 0.98661 0.57259 0.0
C783 C 0.63188 0.04063 0.56951 0.0
C784 C 0.62209 0.96861 0.60179 0.0
C785 C 0.61911 0.02164 0.68032 0.0
H786 H 0.63632 0.8712 0.70984 0.0
C787 C 0.63808 0.95896 0.81241 0.0
C788 C 0.6311 0.90701 0.82021 0.0
C789 C 0.63615 0.97294 0.78069 0.0
C790 C 0.63119 0.91305 0.70174 0.0
H791 H 0.64245 0.1183 0.59465 0.0
H792 H 0.6387 0.08679 0.6455 0.0
H793 H 0.63649 0.90038 0.65638 0.0
H794 H 0.61656 0.82891 0.80064 0.0
H795 H 0.61344 0.85321 0.74493 0.0
H796 H 0.61435 0.03476 0.72599 0.0
C797 C 0.63434 0.05849 0.6253 0.0
C798 C 0.63126 0.92982 0.67107 0.0
C799 C 0.63662 0.0765 0.59613 0.0
C800 C 0.6222 0.86912 0.79544 0.0
C801 C 0.62044 0.88299 0.76357 0.0
C802 C 0.61916 0.005 0.71096 0.0
C803 C 0.62716 0.0042 0.6286 0.0
C804 C 0.62554 0.98468 0.66017 0.0
C805 C 0.62729 0.93526 0.75587 0.0
C806 C 0.62553 0.95086 0.72225 0.0
H807 H 0.62048 0.95805 0.55247 0.0
H808 H 0.61626 0.92684 0.60333 0.0
H809 H 0.61416 0.06374 0.67249 0.0
H810 H 0.64496 0.98927 0.83082 0.0
H811 H 0.64184 0.01319 0.77562 0.0
C812 C 0.6501 0.08347 0.31049 0.0
C813 C 0.63407 0.11024 0.31848 0.0
C814 C 0.64882 0.07222 0.27865 0.0
C815 C 0.6124 0.0455 0.2008 0.0
H816 H 0.6588 0.0701 0.16917 0.0
C817 C 0.62281 0.93637 0.08821 0.0
C818 C 0.6305 0.96886 0.06753 0.0
C819 C 0.62165 0.95848 0.11726 0.0
C820 C 0.64564 0.06342 0.17751 0.0
H821 H 0.60417 0.14683 0.2992 0.0
H822 H 0.60177 0.1261 0.24333 0.0
H823 H 0.65998 0.10179 0.22273 0.0
H824 H 0.64258 0.05055 0.06088 0.0
H825 H 0.64076 0.08878 0.11171 0.0
H826 H 0.59822 0.0061 0.15573 0.0
C827 C 0.61536 0.11411 0.26187 0.0
C828 C 0.64638 0.08119 0.20827 0.0
C829 C 0.61678 0.12622 0.2938 0.0
C830 C 0.63667 0.02427 0.07631 0.0
C831 C 0.6357 0.04615 0.10548 0.0
C832 C 0.61175 0.02712 0.17012 0.0
C833 C 0.63137 0.08683 0.254 0.0
C834 C 0.62986 0.07193 0.22039 0.0
C835 C 0.62832 0.01338 0.1264 0.0
C836 C 0.62844 0.03546 0.15825 0.0
H837 H 0.66362 0.07061 0.32891 0.0
H838 H 0.66131 0.05063 0.2734 0.0
H839 H 0.59949 0.03745 0.20958 0.0
H840 H 0.61783 0.89365 0.0821 0.0
H841 H 0.61605 0.93202 0.13298 0.0
C842 C 0.39452 0.9214 0.40537 0.0
C843 C 0.40026 0.95578 0.43259 0.0
C844 C 0.39683 0.93982 0.3763 0.0
C845 C 0.40254 0.06863 0.33228 0.0
H846 H 0.41682 0.96187 0.27559 0.0
C847 C 0.41328 0.12939 0.20894 0.0
C848 C 0.40362 0.09347 0.18355 0.0
C849 C 0.41452 0.11488 0.24053 0.0
C850 C 0.41274 0.99216 0.2911 0.0
H851 H 0.41341 0.03617 0.45078 0.0
H852 H 0.4177 0.06809 0.40006 0.0
H853 H 0.41646 0.9321 0.32867 0.0
H854 H 0.38773 0.01416 0.17155 0.0
H855 H 0.38993 0.98912 0.22629 0.0
H856 H 0.39882 0.12863 0.29442 0.0
C857 C 0.41104 0.02722 0.40105 0.0
C858 C 0.41247 0.97507 0.32153 0.0
C859 C 0.40866 0.00882 0.43017 0.0
C860 C 0.39526 0.04291 0.19045 0.0
C861 C 0.39665 0.02827 0.2219 0.0
C862 C 0.40294 0.08584 0.30184 0.0
C863 C 0.40507 0.99302 0.37369 0.0
C864 C 0.40698 0.01274 0.34232 0.0
C865 C 0.40633 0.06391 0.24734 0.0
C866 C 0.40766 0.04746 0.28069 0.0
H867 H 0.38793 0.88041 0.40633 0.0
H868 H 0.39172 0.91267 0.35568 0.0
H869 H 0.39807 0.09869 0.3475 0.0
H870 H 0.41998 0.1685 0.20444 0.0
H871 H 0.42217 0.14305 0.25967 0.0
C872 C 0.8953 0.45964 0.68937 0.0
C873 C 0.90353 0.40869 0.68283 0.0
C874 C 0.89659 0.47477 0.7207 0.0
C875 C 0.90252 0.41787 0.80072 0.0
H876 H 0.91626 0.57163 0.82728 0.0
C877 C 0.90898 0.49418 0.92898 0.0
C878 C 0.90048 0.54693 0.93161 0.0
C879 C 0.91128 0.47627 0.89979 0.0
C880 C 0.91222 0.52866 0.82019 0.0
H881 H 0.91956 0.33348 0.70415 0.0
H882 H 0.92163 0.35984 0.75915 0.0
H883 H 0.91655 0.54157 0.77421 0.0
H884 H 0.88796 0.62248 0.90571 0.0
H885 H 0.89161 0.59099 0.85478 0.0
H886 H 0.89771 0.40526 0.84642 0.0
C887 C 0.91414 0.38792 0.73985 0.0
C888 C 0.91243 0.51142 0.78979 0.0
C889 C 0.91297 0.37289 0.7084 0.0
C890 C 0.89461 0.58168 0.90454 0.0
C891 C 0.89683 0.5637 0.87535 0.0
C892 C 0.9022 0.4352 0.83113 0.0
C893 C 0.90608 0.43925 0.74632 0.0
C894 C 0.9073 0.45607 0.77952 0.0
C895 C 0.90509 0.51066 0.87253 0.0
C896 C 0.90676 0.49106 0.84107 0.0
H897 H 0.88793 0.48827 0.67029 0.0
H898 H 0.88996 0.51418 0.72484 0.0
H899 H 0.89834 0.37507 0.79339 0.0
H900 H 0.91386 0.4666 0.94949 0.0
H901 H 0.91799 0.43556 0.89862 0.0
C902 C 0.12283 0.56391 0.58724 0.0
C903 C 0.13005 0.53068 0.56635 0.0
C904 C 0.12178 0.54227 0.61647 0.0
C905 C 0.14529 0.43604 0.67639 0.0
H906 H 0.09988 0.46563 0.70964 0.0
C907 C 0.15047 0.41244 0.80955 0.0
C908 C 0.13415 0.38707 0.81742 0.0
C909 C 0.14913 0.42487 0.7778 0.0
C910 C 0.11258 0.45659 0.70054 0.0
H911 H 0.14138 0.44815 0.55951 0.0
H912 H 0.13972 0.4107 0.61059 0.0
H913 H 0.09851 0.49713 0.65577 0.0
H914 H 0.10357 0.35478 0.79814 0.0
H915 H 0.10113 0.37722 0.74249 0.0
H916 H 0.1595 0.39627 0.72124 0.0
C917 C 0.13497 0.45357 0.60442 0.0
C918 C 0.11188 0.47507 0.66984 0.0
C919 C 0.13585 0.47502 0.5751 0.0
C920 C 0.11646 0.37396 0.79279 0.0
C921 C 0.11501 0.38717 0.76098 0.0
C922 C 0.14608 0.41811 0.70714 0.0
C923 C 0.12808 0.48709 0.62556 0.0
C924 C 0.12829 0.46533 0.65752 0.0
C925 C 0.13134 0.41287 0.75318 0.0
C926 C 0.12982 0.42861 0.71969 0.0
H927 H 0.11814 0.60685 0.58116 0.0
H928 H 0.11656 0.56928 0.63234 0.0
H929 H 0.15824 0.42827 0.6677 0.0
H930 H 0.16428 0.42319 0.82798 0.0
H931 H 0.16188 0.44525 0.77262 0.0
C932 C 0.1219 0.62331 0.29381 0.0
C933 C 0.13098 0.58619 0.3189 0.0
C934 C 0.12011 0.60868 0.26206 0.0
C935 C 0.11926 0.48564 0.21047 0.0
H936 H 0.13595 0.58993 0.15494 0.0
C937 C 0.13656 0.41341 0.09564 0.0
C938 C 0.13161 0.44899 0.06888 0.0
C939 C 0.13429 0.43152 0.12478 0.0
C940 C 0.13089 0.56056 0.1699 0.0
H941 H 0.14516 0.50449 0.33023 0.0
H942 H 0.14203 0.47925 0.27521 0.0
H943 H 0.13583 0.61989 0.20825 0.0
H944 H 0.11978 0.53105 0.0515 0.0
H945 H 0.11557 0.56239 0.10228 0.0
H946 H 0.11439 0.42619 0.1724 0.0
C947 C 0.1362 0.51947 0.27994 0.0
C948 C 0.13085 0.57777 0.20048 0.0
C949 C 0.13813 0.53421 0.31155 0.0
C950 C 0.12391 0.50274 0.07175 0.0
C951 C 0.12158 0.52082 0.10091 0.0
C952 C 0.11918 0.46854 0.1799 0.0
C953 C 0.12715 0.55641 0.25481 0.0
C954 C 0.12541 0.54013 0.22132 0.0
C955 C 0.1269 0.4856 0.12788 0.0
C956 C 0.12536 0.50541 0.15941 0.0
H957 H 0.1161 0.66351 0.29866 0.0
H958 H 0.11296 0.63787 0.24316 0.0
H959 H 0.11462 0.45598 0.22577 0.0
H960 H 0.14257 0.37181 0.0943 0.0
H961 H 0.13883 0.40351 0.14511 0.0
C962 C 0.89567 0.53358 0.18938 0.0
C963 C 0.90413 0.58431 0.18296 0.0
C964 C 0.89686 0.51834 0.22067 0.0
C965 C 0.90299 0.57493 0.30079 0.0
H966 H 0.91588 0.42063 0.32705 0.0
C967 C 0.9089 0.49817 0.42885 0.0
C968 C 0.90009 0.44576 0.43132 0.0
C969 C 0.91133 0.51603 0.39972 0.0
C970 C 0.91208 0.46375 0.32004 0.0
H971 H 0.92047 0.65898 0.20447 0.0
H972 H 0.92239 0.63241 0.25938 0.0
H973 H 0.91639 0.45076 0.27407 0.0
H974 H 0.88717 0.37075 0.40522 0.0
H975 H 0.89108 0.40217 0.35442 0.0
H976 H 0.8982 0.58765 0.34649 0.0
C977 C 0.91478 0.6046 0.24003 0.0
C978 C 0.91242 0.48104 0.28969 0.0
C979 C 0.91371 0.61975 0.20861 0.0
C980 C 0.89406 0.41129 0.40417 0.0
C981 C 0.89642 0.42921 0.37505 0.0
C982 C 0.90254 0.55756 0.33115 0.0
C983 C 0.90648 0.55351 0.24637 0.0
C984 C 0.90759 0.53659 0.27954 0.0
C985 C 0.90499 0.48193 0.37238 0.0
C986 C 0.9068 0.50152 0.34098 0.0
H987 H 0.88817 0.50524 0.17023 0.0
H988 H 0.89005 0.47912 0.22471 0.0
H989 H 0.89904 0.61789 0.29355 0.0
H990 H 0.91389 0.52553 0.44942 0.0
H991 H 0.91827 0.55648 0.39866 0.0
C992 C 0.45661 0.957 0.04236 0.0
C993 C 0.4448 0.00596 0.03779 0.0
C994 C 0.47224 0.95145 0.02815 0.0
C995 C 0.50762 0.04702 0.00725 0.0
H996 H 0.5302 0.912 0.98209 0.0
C997 C 0.57781 0.0433 0.96012 0.0
C998 C 0.58946 0.99407 0.96423 0.0
C999 C 0.56121 0.0471 0.97231 0.0
C1000 C 0.52429 0.94992 0.98967 0.0
H1001 H 0.43839 0.08439 0.01185 0.0
H1002 H 0.4652 0.07391 0.98609 0.0
H1003 H 0.49641 0.90944 0.98929 0.0
H1004 H 0.59407 0.9124 0.98683 0.0
H1005 H 0.56593 0.92022 0.00974 0.0
H1006 H 0.53556 0.08739 0.00806 0.0
C1007 C 0.46271 0.0403 0.0012 0.0
C1008 C 0.5048 0.94852 0.99341 0.0
C1009 C 0.44701 0.04569 0.01534 0.0
C1010 C 0.58574 0.95149 0.98398 0.0
C1011 C 0.56921 0.95535 0.99633 0.0
C1012 C 0.52714 0.04838 0.00363 0.0
C1013 C 0.47633 0.99497 0.00921 0.0
C1014 C 0.49622 0.99706 0.00223 0.0
C1015 C 0.556 0.00168 0.98892 0.0
C1016 C 0.53577 -0.00019 0.99488 0.0
H1017 H 0.45536 0.92621 0.05993 0.0
H1018 H 0.48237 0.91587 0.03475 0.0
H1019 H 0.50169 0.08488 0.01487 0.0
H1020 H 0.58019 0.07636 0.94457 0.0
H1021 H 0.55146 0.0835 0.96614 0.0
C1022 C 0.5863 0.03601 0.48291 0.0
C1023 C 0.58897 0.99606 0.4609 0.0
C1024 C 0.56997 0.0315 0.49569 0.0
C1025 C 0.52495 0.04033 0.4883 0.0
H1026 H 0.50106 0.9059 0.51172 0.0
C1027 C 0.45684 0.03829 0.53975 0.0
C1028 C 0.44489 0.98964 0.53596 0.0
C1029 C 0.47253 0.0423 0.52557 0.0
C1030 C 0.50732 0.94366 0.50455 0.0
H1031 H 0.57826 0.91697 0.438 0.0
H1032 H 0.55005 0.90829 0.46072 0.0
H1033 H 0.53483 0.90165 0.50456 0.0
H1034 H 0.4383 0.91009 0.51132 0.0
H1035 H 0.46503 0.91811 0.48524 0.0
H1036 H 0.49745 0.08236 0.48821 0.0
C1037 C 0.56038 0.94331 0.46806 0.0
C1038 C 0.5268 0.94128 0.50082 0.0
C1039 C 0.57669 0.94792 0.45525 0.0
C1040 C 0.44702 0.94858 0.51418 0.0
C1041 C 0.46271 0.95255 0.49992 0.0
C1042 C 0.50545 0.04269 0.49195 0.0
C1043 C 0.55606 0.98693 0.48669 0.0
C1044 C 0.53591 0.98965 0.49282 0.0
C1045 C 0.47651 0.99762 0.50729 0.0
C1046 C 0.49638 0.99442 0.5002 0.0
H1047 H 0.59523 0.07417 0.48718 0.0
H1048 H 0.56733 0.06513 0.51063 0.0
H1049 H 0.53128 0.07813 0.48128 0.0
H1050 H 0.45568 0.07011 0.55682 0.0
H1051 H 0.48276 0.07775 0.53172 0.0
C1052 C 0.94747 0.54578 0.01503 0.0
C1053 C 0.94476 0.50303 0.03551 0.0
C1054 C 0.96332 0.54257 0.00109 0.0
C1055 C 1.00508 0.45126 0.99074 0.0
H1056 H 0.03577 0.59021 0.00584 0.0
C1057 C 0.08595 0.45546 0.98128 0.0
C1058 C 0.08904 0.49672 0.96025 0.0
C1059 C 0.06956 0.45963 0.99397 0.0
C1060 C 0.02737 0.55118 0.00139 0.0
H1061 H 0.95476 0.42069 0.05435 0.0
H1062 H 0.98221 0.4146 0.02993 0.0
H1063 H 1.00212 0.58694 0.01354 0.0
H1064 H 0.07899 0.57748 0.93894 0.0
H1065 H 0.05064 0.58537 0.96144 0.0
H1066 H 0.0304 0.41542 0.97883 0.0
C1067 C 0.97229 0.45078 0.02457 0.0
C1068 C 1.00796 0.54938 0.00545 0.0
C1069 C 0.95644 0.454 0.03844 0.0
C1070 C 0.07704 0.54538 0.95536 0.0
C1071 C 0.06068 0.54963 0.96807 0.0
C1072 C 0.0245 0.45302 0.98677 0.0
C1073 C 0.97673 0.49659 0.00745 0.0
C1074 C 0.99656 0.49936 1.00022 0.0
C1075 C 0.05602 0.50514 0.98585 0.0
C1076 C 0.03593 0.50294 0.99218 0.0
H1077 H 0.93891 0.58447 0.0127 0.0
H1078 H 0.96599 0.57792 0.98728 0.0
H1079 H 0.9967 0.41219 0.98626 0.0
H1080 H 0.09468 0.41698 0.98504 0.0
H1081 H 0.06664 0.42527 0.00824 0.0
C1082 C 0.07795 0.45365 0.46067 0.0
C1083 C 0.08918 0.50358 0.46382 0.0
C1084 C 0.06139 0.44969 0.47294 0.0
C1085 C 0.02345 0.54582 0.48739 0.0
H1086 H 1.00228 0.41228 0.51683 0.0
C1087 C 0.95491 0.54179 0.53811 0.0
C1088 C 0.94368 0.49195 0.53539 0.0
C1089 C 0.97084 0.546 0.52445 0.0
C1090 C 1.0078 0.44967 0.50801 0.0
H1091 H 0.09309 0.58654 0.48482 0.0
H1092 H 0.06491 0.57871 0.50769 0.0
H1093 H 0.03623 0.4108 0.51027 0.0
H1094 H 0.93865 0.41 0.51313 0.0
H1095 H 0.96594 0.41807 0.48823 0.0
H1096 H 0.99506 0.58476 0.4853 0.0
C1097 C 0.06854 0.54303 0.49506 0.0
C1098 C 0.02737 0.44893 0.50457 0.0
C1099 C 0.08508 0.54698 0.48271 0.0
C1100 C 0.94686 0.44928 0.51527 0.0
C1101 C 0.96282 0.45341 0.50161 0.0
C1102 C 1.0039 0.54657 0.49087 0.0
C1103 C 0.05577 0.49572 0.48858 0.0
C1104 C 0.03548 0.49706 0.49433 0.0
C1105 C 0.9758 0.5003 0.50784 0.0
C1106 C 0.99582 0.49852 0.50125 0.0
H1107 H 0.08063 0.41993 0.44579 0.0
H1108 H 0.05195 0.41255 0.46754 0.0
H1109 H 0.02898 0.58327 0.47864 0.0
H1110 H 0.95287 0.57504 0.55378 0.0
H1111 H 0.98044 0.58284 0.52964 0.0
loop_
_geom_bond_atom_site_label_1
_geom_bond_atom_site_label_2
_geom_bond_distance
_geom_bond_site_symmetry_2
_ccdc_geom_bond_type
Zn0 N4 2.020 . S
Zn0 O8 2.019 . S
Zn0 N10 2.119 . S
Zn0 O18 1.975 . S
C1 N2 1.334 . S
C1 N5 1.336 . S
N2 C1 1.334 . S
N2 C3 1.334 . S
C3 N2 1.334 . S
C3 N4 1.336 . S
N4 Zn0 2.020 . S
N4 C3 1.336 . S
N4 N5 1.354 . S
N5 C1 1.336 . S
N5 N4 1.354 . S
N5 Zn9 2.020 . S
C6 O7 1.244 . S
C6 O30 1.257 . S
O7 C6 1.244 . S
O8 Zn0 2.019 . S
O8 C28 1.257 . S
Zn9 N5 2.020 . S
Zn9 O16 1.975 . S
Zn9 N25 2.119 1_545 S
Zn9 O30 2.019 1_554 S
N10 Zn0 2.119 . S
N10 C12 1.334 . S
N10 C13 1.328 . S
C11 C12 1.391 . S
C11 N14 1.329 . S
C11 H32 0.930 . S
C12 N10 1.334 . S
C12 C11 1.391 . S
C12 H19 0.930 . S
C13 N10 1.328 . S
C13 C15 1.392 . S
C13 H20 0.930 . S
N14 C11 1.329 . S
N14 C15 1.331 . S
C15 C13 1.392 . S
C15 N14 1.331 . S
O16 Zn9 1.975 . S
O16 C17 1.252 . S
C17 O16 1.252 . S
C17 O18 1.252 . S
O18 Zn0 1.975 . S
O18 C17 1.252 . S
H19 C12 0.930 . S
H20 C13 0.930 . S
C21 C22 1.392 . S
C21 N25 1.328 . S
C21 H27 0.930 . S
C22 C21 1.392 . S
C22 N26 1.331 . S
C23 C24 1.391 . S
C23 N26 1.329 . S
C23 H33 0.930 . S
C24 C23 1.391 . S
C24 N25 1.334 . S
C24 H31 0.930 . S
N25 Zn9 2.119 1_565 S
N25 C21 1.328 . S
N25 C24 1.334 . S
N26 C22 1.331 . S
N26 C23 1.329 . S
H27 C21 0.930 . S
C28 O8 1.257 . S
C28 O29 1.244 . S
O29 C28 1.244 . S
O30 C6 1.257 . S
O30 Zn9 2.019 1_556 S
H31 C24 0.930 . S
H32 C11 0.930 . S
H33 C23 0.930 . S
Zn34 N38 2.020 . S
Zn34 O42 2.019 . S
Zn34 N44 2.119 1_545 S
Zn34 O52 1.975 . S
C35 N36 1.334 . S
C35 N39 1.336 . S
N36 C35 1.334 . S
N36 C37 1.334 . S
C37 N36 1.334 . S
C37 N38 1.336 . S
N38 Zn34 2.020 . S
N38 C37 1.336 . S
N38 N39 1.354 . S
N39 C35 1.336 . S
N39 N38 1.354 . S
N39 Zn43 2.020 . S
C40 O41 1.244 . S
C40 O64 1.257 . S
O41 C40 1.244 . S
O42 Zn34 2.019 . S
O42 C62 1.257 . S
Zn43 N39 2.020 . S
Zn43 O50 1.975 . S
Zn43 N59 2.119 . S
Zn43 O64 2.019 . S
N44 Zn34 2.119 1_565 S
N44 C46 1.334 . S
N44 C47 1.328 . S
C45 C46 1.391 . S
C45 N48 1.329 . S
C45 H66 0.930 . S
C46 N44 1.334 . S
C46 C45 1.391 . S
C46 H53 0.930 . S
C47 N44 1.328 . S
C47 C49 1.392 . S
C47 H54 0.930 . S
N48 C45 1.329 . S
N48 C49 1.331 . S
C49 C47 1.392 . S
C49 N48 1.331 . S
O50 Zn43 1.975 . S
O50 C51 1.252 . S
C51 O50 1.252 . S
C51 O52 1.252 . S
O52 Zn34 1.975 . S
O52 C51 1.252 . S
H53 C46 0.930 . S
H54 C47 0.930 . S
C55 C56 1.392 . S
C55 N59 1.328 . S
C55 H61 0.930 . S
C56 C55 1.392 . S
C56 N60 1.331 . S
C57 C58 1.391 . S
C57 N60 1.329 . S
C57 H67 0.930 . S
C58 C57 1.391 . S
C58 N59 1.334 . S
C58 H65 0.930 . S
N59 Zn43 2.119 . S
N59 C55 1.328 . S
N59 C58 1.334 . S
N60 C56 1.331 . S
N60 C57 1.329 . S
H61 C55 0.930 . S
C62 O42 1.257 . S
C62 O63 1.244 . S
O63 C62 1.244 . S
O64 C40 1.257 . S
O64 Zn43 2.019 . S
H65 C58 0.930 . S
H66 C45 0.930 . S
H67 C57 0.930 . S
Zn68 N72 2.020 . S
Zn68 O76 2.019 . S
Zn68 N78 2.119 . S
Zn68 O86 1.975 . S
C69 N70 1.334 . S
C69 N73 1.336 . S
N70 C69 1.334 . S
N70 C71 1.334 . S
C71 N70 1.334 . S
C71 N72 1.336 . S
N72 Zn68 2.020 . S
N72 C71 1.336 . S
N72 N73 1.354 . S
N73 C69 1.336 . S
N73 N72 1.354 . S
N73 Zn77 2.020 . S
C74 O75 1.244 . S
C74 O98 1.257 . S
O75 C74 1.244 . S
O76 Zn68 2.019 . S
O76 C96 1.257 . S
Zn77 N73 2.020 . S
Zn77 O84 1.975 . S
Zn77 N93 2.119 1_565 S
Zn77 O98 2.019 1_556 S
N78 Zn68 2.119 . S
N78 C80 1.334 . S
N78 C81 1.328 . S
C79 C80 1.391 . S
C79 N82 1.329 . S
C79 H100 0.930 . S
C80 N78 1.334 . S
C80 C79 1.391 . S
C80 H87 0.930 . S
C81 N78 1.328 . S
C81 C83 1.392 . S
C81 H88 0.930 . S
N82 C79 1.329 . S
N82 C83 1.331 . S
C83 C81 1.392 . S
C83 N82 1.331 . S
O84 Zn77 1.975 . S
O84 C85 1.252 . S
C85 O84 1.252 . S
C85 O86 1.252 . S
O86 Zn68 1.975 . S
O86 C85 1.252 . S
H87 C80 0.930 . S
H88 C81 0.930 . S
C89 C90 1.392 . S
C89 N93 1.328 . S
C89 H95 0.930 . S
C90 C89 1.392 . S
C90 N94 1.331 . S
C91 C92 1.391 . S
C91 N94 1.329 . S
C91 H101 0.930 . S
C92 C91 1.391 . S
C92 N93 1.334 . S
C92 H99 0.930 . S
N93 Zn77 2.119 1_545 S
N93 C89 1.328 . S
N93 C92 1.334 . S
N94 C90 1.331 . S
N94 C91 1.329 . S
H95 C89 0.930 . S
C96 O76 1.257 . S
C96 O97 1.244 . S
O97 C96 1.244 . S
O98 C74 1.257 . S
O98 Zn77 2.019 1_554 S
H99 C92 0.930 . S
H100 C79 0.930 . S
H101 C91 0.930 . S
Zn102 N106 2.020 . S
Zn102 O110 2.019 . S
Zn102 N112 2.119 . S
Zn102 O120 1.975 . S
C103 N104 1.334 . S
C103 N107 1.336 . S
N104 C103 1.334 . S
N104 C105 1.334 . S
C105 N104 1.334 . S
C105 N106 1.336 . S
N106 Zn102 2.020 . S
N106 C105 1.336 . S
N106 N107 1.354 . S
N107 C103 1.336 . S
N107 N106 1.354 . S
N107 Zn111 2.020 . S
C108 O109 1.244 . S
C108 O132 1.257 . S
O109 C108 1.244 . S
O110 Zn102 2.019 . S
O110 C130 1.257 . S
Zn111 N107 2.020 . S
Zn111 O118 1.975 . S
Zn111 N127 2.119 1_565 S
Zn111 O132 2.019 . S
N112 Zn102 2.119 . S
N112 C114 1.334 . S
N112 C115 1.328 . S
C113 C114 1.391 . S
C113 N116 1.329 . S
C113 H134 0.930 . S
C114 N112 1.334 . S
C114 C113 1.391 . S
C114 H121 0.930 . S
C115 N112 1.328 . S
C115 C117 1.392 . S
C115 H122 0.930 . S
N116 C113 1.329 . S
N116 C117 1.331 . S
C117 C115 1.392 . S
C117 N116 1.331 . S
O118 Zn111 1.975 . S
O118 C119 1.252 . S
C119 O118 1.252 . S
C119 O120 1.252 . S
O120 Zn102 1.975 . S
O120 C119 1.252 . S
H121 C114 0.930 . S
H122 C115 0.930 . S
C123 C124 1.392 . S
C123 N127 1.328 . S
C123 H129 0.930 . S
C124 C123 1.392 . S
C124 N128 1.331 . S
C125 C126 1.391 . S
C125 N128 1.329 . S
C125 H135 0.930 . S
C126 C125 1.391 . S
C126 N127 1.334 . S
C126 H133 0.930 . S
N127 Zn111 2.119 1_545 S
N127 C123 1.328 . S
N127 C126 1.334 . S
N128 C124 1.331 . S
N128 C125 1.329 . S
H129 C123 0.930 . S
C130 O110 1.257 . S
C130 O131 1.244 . S
O131 C130 1.244 . S
O132 C108 1.257 . S
O132 Zn111 2.019 . S
H133 C126 0.930 . S
H134 C113 0.930 . S
H135 C125 0.930 . S
Zn136 N140 2.020 . S
Zn136 O144 2.019 . S
Zn136 N146 2.119 . S
Zn136 O154 1.975 . S
C137 N138 1.334 . S
C137 N141 1.336 . S
N138 C137 1.334 . S
N138 C139 1.334 . S
C139 N138 1.334 . S
C139 N140 1.336 . S
N140 Zn136 2.020 . S
N140 C139 1.336 . S
N140 N141 1.354 . S
N141 C137 1.336 . S
N141 N140 1.354 . S
N141 Zn145 2.020 . S
C142 O143 1.244 . S
C142 O166 1.257 . S
O143 C142 1.244 . S
O144 Zn136 2.019 . S
O144 C164 1.257 . S
Zn145 N141 2.020 . S
Zn145 O152 1.975 . S
Zn145 N161 2.119 . S
Zn145 O166 2.019 1_554 S
N146 Zn136 2.119 . S
N146 C148 1.334 . S
N146 C149 1.328 . S
C147 C148 1.391 . S
C147 N150 1.329 . S
C147 H168 0.930 . S
C148 N146 1.334 . S
C148 C147 1.391 . S
C148 H155 0.930 . S
C149 N146 1.328 . S
C149 C151 1.392 . S
C149 H156 0.930 . S
N150 C147 1.329 . S
N150 C151 1.331 . S
C151 C149 1.392 . S
C151 N150 1.331 . S
O152 Zn145 1.975 . S
O152 C153 1.252 . S
C153 O152 1.252 . S
C153 O154 1.252 . S
O154 Zn136 1.975 . S
O154 C153 1.252 . S
H155 C148 0.930 . S
H156 C149 0.930 . S
C157 C158 1.392 . S
C157 N161 1.328 . S
C157 H163 0.930 . S
C158 C157 1.392 . S
C158 N162 1.331 . S
C159 C160 1.391 . S
C159 N162 1.329 . S
C159 H169 0.930 . S
C160 C159 1.391 . S
C160 N161 1.334 . S
C160 H167 0.930 . S
N161 Zn145 2.119 . S
N161 C157 1.328 . S
N161 C160 1.334 . S
N162 C158 1.331 . S
N162 C159 1.329 . S
H163 C157 0.930 . S
C164 O144 1.257 . S
C164 O165 1.244 . S
O165 C164 1.244 . S
O166 C142 1.257 . S
O166 Zn145 2.019 1_556 S
H167 C160 0.930 . S
H168 C147 0.930 . S
H169 C159 0.930 . S
Zn170 N174 2.020 . S
Zn170 O178 2.019 . S
Zn170 N180 2.119 . S
Zn170 O188 1.975 . S
C171 N172 1.334 . S
C171 N175 1.336 . S
N172 C171 1.334 . S
N172 C173 1.334 . S
C173 N172 1.334 . S
C173 N174 1.336 . S
N174 Zn170 2.020 . S
N174 C173 1.336 . S
N174 N175 1.354 . S
N175 C171 1.336 . S
N175 N174 1.354 . S
N175 Zn179 2.020 . S
C176 O177 1.244 . S
C176 O200 1.257 . S
O177 C176 1.244 . S
O178 Zn170 2.019 . S
O178 C198 1.257 . S
Zn179 N175 2.020 . S
Zn179 O186 1.975 . S
Zn179 N195 2.119 . S
Zn179 O200 2.019 . S
N180 Zn170 2.119 . S
N180 C182 1.334 . S
N180 C183 1.328 . S
C181 C182 1.391 . S
C181 N184 1.329 . S
C181 H202 0.930 . S
C182 N180 1.334 . S
C182 C181 1.391 . S
C182 H189 0.930 . S
C183 N180 1.328 . S
C183 C185 1.392 . S
C183 H190 0.930 . S
N184 C181 1.329 . S
N184 C185 1.331 . S
C185 C183 1.392 . S
C185 N184 1.331 . S
O186 Zn179 1.975 . S
O186 C187 1.252 . S
C187 O186 1.252 . S
C187 O188 1.252 . S
O188 Zn170 1.975 . S
O188 C187 1.252 . S
H189 C182 0.930 . S
H190 C183 0.930 . S
C191 C192 1.392 . S
C191 N195 1.328 . S
C191 H197 0.930 . S
C192 C191 1.392 . S
C192 N196 1.331 . S
C193 C194 1.391 . S
C193 N196 1.329 . S
C193 H203 0.930 . S
C194 C193 1.391 . S
C194 N195 1.334 . S
C194 H201 0.930 . S
N195 Zn179 2.119 . S
N195 C191 1.328 . S
N195 C194 1.334 . S
N196 C192 1.331 . S
N196 C193 1.329 . S
H197 C191 0.930 . S
C198 O178 1.257 . S
C198 O199 1.244 . S
O199 C198 1.244 . S
O200 C176 1.257 . S
O200 Zn179 2.019 . S
H201 C194 0.930 . S
H202 C181 0.930 . S
H203 C193 0.930 . S
Zn204 N208 2.020 . S
Zn204 O212 2.019 . S
Zn204 N214 2.119 . S
Zn204 O222 1.975 . S
C205 N206 1.334 . S
C205 N209 1.336 . S
N206 C205 1.334 . S
N206 C207 1.334 . S
C207 N206 1.334 . S
C207 N208 1.336 . S
N208 Zn204 2.020 . S
N208 C207 1.336 . S
N208 N209 1.354 . S
N209 C205 1.336 . S
N209 N208 1.354 . S
N209 Zn213 2.020 . S
C210 O211 1.244 . S
C210 O234 1.257 . S
O211 C210 1.244 . S
O212 Zn204 2.019 . S
O212 C232 1.257 . S
Zn213 N209 2.020 . S
Zn213 O220 1.975 . S
Zn213 N229 2.119 . S
Zn213 O234 2.019 1_556 S
N214 Zn204 2.119 . S
N214 C216 1.334 . S
N214 C217 1.328 . S
C215 C216 1.391 . S
C215 N218 1.329 . S
C215 H236 0.930 . S
C216 N214 1.334 . S
C216 C215 1.391 . S
C216 H223 0.930 . S
C217 N214 1.328 . S
C217 C219 1.392 . S
C217 H224 0.930 . S
N218 C215 1.329 . S
N218 C219 1.331 . S
C219 C217 1.392 . S
C219 N218 1.331 . S
O220 Zn213 1.975 . S
O220 C221 1.252 . S
C221 O220 1.252 . S
C221 O222 1.252 . S
O222 Zn204 1.975 . S
O222 C221 1.252 . S
H223 C216 0.930 . S
H224 C217 0.930 . S
C225 C226 1.392 . S
C225 N229 1.328 . S
C225 H231 0.930 . S
C226 C225 1.392 . S
C226 N230 1.331 . S
C227 C228 1.391 . S
C227 N230 1.329 . S
C227 H237 0.930 . S
C228 C227 1.391 . S
C228 N229 1.334 . S
C228 H235 0.930 . S
N229 Zn213 2.119 . S
N229 C225 1.328 . S
N229 C228 1.334 . S
N230 C226 1.331 . S
N230 C227 1.329 . S
H231 C225 0.930 . S
C232 O212 1.257 . S
C232 O233 1.244 . S
O233 C232 1.244 . S
O234 C210 1.257 . S
O234 Zn213 2.019 1_554 S
H235 C228 0.930 . S
H236 C215 0.930 . S
H237 C227 0.930 . S
Zn238 N242 2.020 . S
Zn238 O246 2.019 . S
Zn238 N248 2.119 . S
Zn238 O256 1.975 . S
C239 N240 1.334 . S
C239 N243 1.336 . S
N240 C239 1.334 . S
N240 C241 1.334 . S
C241 N240 1.334 . S
C241 N242 1.336 . S
N242 Zn238 2.020 . S
N242 C241 1.336 . S
N242 N243 1.354 . S
N243 C239 1.336 . S
N243 N242 1.354 . S
N243 Zn247 2.020 . S
C244 O245 1.244 . S
C244 O268 1.257 . S
O245 C244 1.244 . S
O246 Zn238 2.019 . S
O246 C266 1.257 . S
Zn247 N243 2.020 . S
Zn247 O254 1.975 . S
Zn247 N263 2.119 . S
Zn247 O268 2.019 . S
N248 Zn238 2.119 . S
N248 C250 1.334 . S
N248 C251 1.328 . S
C249 C250 1.391 . S
C249 N252 1.329 . S
C249 H270 0.930 . S
C250 N248 1.334 . S
C250 C249 1.391 . S
C250 H257 0.930 . S
C251 N248 1.328 . S
C251 C253 1.392 . S
C251 H258 0.930 . S
N252 C249 1.329 . S
N252 C253 1.331 . S
C253 C251 1.392 . S
C253 N252 1.331 . S
O254 Zn247 1.975 . S
O254 C255 1.252 . S
C255 O254 1.252 . S
C255 O256 1.252 . S
O256 Zn238 1.975 . S
O256 C255 1.252 . S
H257 C250 0.930 . S
H258 C251 0.930 . S
C259 C260 1.392 . S
C259 N263 1.328 . S
C259 H265 0.930 . S
C260 C259 1.392 . S
C260 N264 1.331 . S
C261 C262 1.391 . S
C261 N264 1.329 . S
C261 H271 0.930 . S
C262 C261 1.391 . S
C262 N263 1.334 . S
C262 H269 0.930 . S
N263 Zn247 2.119 . S
N263 C259 1.328 . S
N263 C262 1.334 . S
N264 C260 1.331 . S
N264 C261 1.329 . S
H265 C259 0.930 . S
C266 O246 1.257 . S
C266 O267 1.244 . S
O267 C266 1.244 . S
O268 C244 1.257 . S
O268 Zn247 2.019 . S
H269 C262 0.930 . S
H270 C249 0.930 . S
H271 C261 0.930 . S
C272 C273 1.349 . S
C272 C274 1.327 . S
C272 H297 0.950 . S
C273 C272 1.349 . S
C273 C289 1.349 . S
C274 C272 1.327 . S
C274 C293 1.429 . S
C274 H298 0.950 . S
C275 C292 1.574 . S
C275 C294 1.368 . S
C275 H299 0.949 . S
H276 C280 0.949 . S
C277 C278 1.349 . S
C277 C279 1.327 . S
C277 H300 0.950 . S
C278 C277 1.349 . S
C278 C290 1.349 . S
C279 C277 1.327 . S
C279 C295 1.429 . S
C279 H301 0.950 . S
C280 H276 0.949 . S
C280 C288 1.574 . S
C280 C296 1.368 . S
H281 C289 0.950 . S
H282 C287 0.950 . S
H283 C288 0.949 . S
H284 C290 0.950 . S
H285 C291 0.950 . S
H286 C292 0.949 . S
C287 H282 0.950 . S
C287 C289 1.327 . S
C287 C293 1.429 . S
C288 C280 1.574 . S
C288 H283 0.949 . S
C288 C294 1.368 . S
C289 C273 1.349 . S
C289 H281 0.950 . S
C289 C287 1.327 . S
C290 C278 1.349 . S
C290 H284 0.950 . S
C290 C291 1.327 . S
C291 H285 0.950 . S
C291 C290 1.327 . S
C291 C295 1.429 . S
C292 C275 1.574 . S
C292 H286 0.949 . S
C292 C296 1.368 . S
C293 C274 1.429 . S
C293 C287 1.429 . S
C293 C294 1.523 . S
C294 C275 1.368 . S
C294 C288 1.368 . S
C294 C293 1.523 . S
C295 C279 1.429 . S
C295 C291 1.429 . S
C295 C296 1.523 . S
C296 C280 1.368 . S
C296 C292 1.368 . S
C296 C295 1.523 . S
H297 C272 0.950 . S
H298 C274 0.950 . S
H299 C275 0.949 . S
H300 C277 0.950 . S
H301 C279 0.950 . S
C302 C303 1.349 . S
C302 C304 1.327 . S
C302 H327 0.950 . S
C303 C302 1.349 . S
C303 C319 1.349 . S
C304 C302 1.327 . S
C304 C323 1.429 . S
C304 H328 0.950 . S
C305 C322 1.574 . S
C305 C324 1.368 . S
C305 H329 0.949 . S
H306 C310 0.949 . S
C307 C308 1.349 . S
C307 C309 1.327 . S
C307 H330 0.950 . S
C308 C307 1.349 . S
C308 C320 1.349 . S
C309 C307 1.327 . S
C309 C325 1.429 . S
C309 H331 0.950 . S
C310 H306 0.949 . S
C310 C318 1.574 . S
C310 C326 1.368 . S
H311 C319 0.950 . S
H312 C317 0.950 . S
H313 C318 0.949 . S
H314 C320 0.950 . S
H315 C321 0.950 . S
H316 C322 0.949 . S
C317 H312 0.950 . S
C317 C319 1.327 . S
C317 C323 1.429 . S
C318 C310 1.574 . S
C318 H313 0.949 . S
C318 C324 1.368 . S
C319 C303 1.349 . S
C319 H311 0.950 . S
C319 C317 1.327 . S
C320 C308 1.349 . S
C320 H314 0.950 . S
C320 C321 1.327 . S
C321 H315 0.950 . S
C321 C320 1.327 . S
C321 C325 1.429 . S
C322 C305 1.574 . S
C322 H316 0.949 . S
C322 C326 1.368 . S
C323 C304 1.429 . S
C323 C317 1.429 . S
C323 C324 1.523 . S
C324 C305 1.368 . S
C324 C318 1.368 . S
C324 C323 1.523 . S
C325 C309 1.429 . S
C325 C321 1.429 . S
C325 C326 1.523 . S
C326 C310 1.368 . S
C326 C322 1.368 . S
C326 C325 1.523 . S
H327 C302 0.950 . S
H328 C304 0.950 . S
H329 C305 0.949 . S
H330 C307 0.950 . S
H331 C309 0.950 . S
C332 C333 1.349 . S
C332 C334 1.327 . S
C332 H357 0.950 . S
C333 C332 1.349 . S
C333 C349 1.349 . S
C334 C332 1.327 . S
C334 C353 1.429 . S
C334 H358 0.950 . S
C335 C352 1.574 1_655 S
C335 C354 1.368 . S
C335 H359 0.949 . S
H336 C340 0.949 . S
C337 C338 1.349 . S
C337 C339 1.327 . S
C337 H360 0.950 . S
C338 C337 1.349 . S
C338 C350 1.349 . S
C339 C337 1.327 . S
C339 C355 1.429 . S
C339 H361 0.950 . S
C340 H336 0.949 . S
C340 C348 1.574 1_455 S
C340 C356 1.368 . S
H341 C349 0.950 . S
H342 C347 0.950 . S
H343 C348 0.949 . S
H344 C350 0.950 . S
H345 C351 0.950 . S
H346 C352 0.949 . S
C347 H342 0.950 . S
C347 C349 1.327 . S
C347 C353 1.429 . S
C348 C340 1.574 1_655 S
C348 H343 0.949 . S
C348 C354 1.368 . S
C349 C333 1.349 . S
C349 H341 0.950 . S
C349 C347 1.327 . S
C350 C338 1.349 . S
C350 H344 0.950 . S
C350 C351 1.327 . S
C351 H345 0.950 . S
C351 C350 1.327 . S
C351 C355 1.429 . S
C352 C335 1.574 1_455 S
C352 H346 0.949 . S
C352 C356 1.368 . S
C353 C334 1.429 . S
C353 C347 1.429 . S
C353 C354 1.523 . S
C354 C335 1.368 . S
C354 C348 1.368 . S
C354 C353 1.523 . S
C355 C339 1.429 . S
C355 C351 1.429 . S
C355 C356 1.523 . S
C356 C340 1.368 . S
C356 C352 1.368 . S
C356 C355 1.523 . S
H357 C332 0.950 . S
H358 C334 0.950 . S
H359 C335 0.949 . S
H360 C337 0.950 . S
H361 C339 0.950 . S
C362 C363 1.349 . S
C362 C364 1.327 . S
C362 H387 0.950 . S
C363 C362 1.349 . S
C363 C379 1.349 . S
C364 C362 1.327 . S
C364 C383 1.429 . S
C364 H388 0.950 . S
C365 C382 1.574 1_455 S
C365 C384 1.368 . S
C365 H389 0.949 . S
H366 C370 0.949 . S
C367 C368 1.349 . S
C367 C369 1.327 . S
C367 H390 0.950 . S
C368 C367 1.349 . S
C368 C380 1.349 . S
C369 C367 1.327 . S
C369 C385 1.429 . S
C369 H391 0.950 . S
C370 H366 0.949 . S
C370 C378 1.574 1_655 S
C370 C386 1.368 . S
H371 C379 0.950 . S
H372 C377 0.950 . S
H373 C378 0.949 . S
H374 C380 0.950 . S
H375 C381 0.950 . S
H376 C382 0.949 . S
C377 H372 0.950 . S
C377 C379 1.327 . S
C377 C383 1.429 . S
C378 C370 1.574 1_455 S
C378 H373 0.949 . S
C378 C384 1.368 . S
C379 C363 1.349 . S
C379 H371 0.950 . S
C379 C377 1.327 . S
C380 C368 1.349 . S
C380 H374 0.950 . S
C380 C381 1.327 . S
C381 H375 0.950 . S
C381 C380 1.327 . S
C381 C385 1.429 . S
C382 C365 1.574 1_655 S
C382 H376 0.949 . S
C382 C386 1.368 . S
C383 C364 1.429 . S
C383 C377 1.429 . S
C383 C384 1.523 . S
C384 C365 1.368 . S
C384 C378 1.368 . S
C384 C383 1.523 . S
C385 C369 1.429 . S
C385 C381 1.429 . S
C385 C386 1.523 . S
C386 C370 1.368 . S
C386 C382 1.368 . S
C386 C385 1.523 . S
H387 C362 0.950 . S
H388 C364 0.950 . S
H389 C365 0.949 . S
H390 C367 0.950 . S
H391 C369 0.950 . S
C392 C393 1.349 . S
C392 C394 1.327 . S
C392 H417 0.950 . S
C393 C392 1.349 . S
C393 C409 1.349 . S
C394 C392 1.327 . S
C394 C413 1.429 . S
C394 H418 0.950 . S
C395 C412 1.574 . S
C395 C414 1.368 . S
C395 H419 0.949 . S
H396 C400 0.949 . S
C397 C398 1.349 . S
C397 C399 1.327 . S
C397 H420 0.950 . S
C398 C397 1.349 . S
C398 C410 1.349 . S
C399 C397 1.327 . S
C399 C415 1.429 . S
C399 H421 0.950 . S
C400 H396 0.949 . S
C400 C408 1.574 . S
C400 C416 1.368 . S
H401 C409 0.950 1_556 S
H402 C407 0.950 . S
H403 C408 0.949 . S
H404 C410 0.950 . S
H405 C411 0.950 . S
H406 C412 0.949 . S
C407 H402 0.950 . S
C407 C409 1.327 . S
C407 C413 1.429 . S
C408 C400 1.574 . S
C408 H403 0.949 . S
C408 C414 1.368 . S
C409 C393 1.349 . S
C409 H401 0.950 1_554 S
C409 C407 1.327 . S
C410 C398 1.349 . S
C410 H404 0.950 . S
C410 C411 1.327 . S
C411 H405 0.950 . S
C411 C410 1.327 . S
C411 C415 1.429 . S
C412 C395 1.574 . S
C412 H406 0.949 . S
C412 C416 1.368 . S
C413 C394 1.429 . S
C413 C407 1.429 . S
C413 C414 1.523 . S
C414 C395 1.368 . S
C414 C408 1.368 . S
C414 C413 1.523 . S
C415 C399 1.429 . S
C415 C411 1.429 . S
C415 C416 1.523 . S
C416 C400 1.368 . S
C416 C412 1.368 . S
C416 C415 1.523 . S
H417 C392 0.950 . S
H418 C394 0.950 . S
H419 C395 0.949 . S
H420 C397 0.950 . S
H421 C399 0.950 . S
C422 C423 1.349 . S
C422 C424 1.327 . S
C422 H447 0.950 . S
C423 C422 1.349 . S
C423 C439 1.349 . S
C424 C422 1.327 . S
C424 C443 1.429 . S
C424 H448 0.950 . S
C425 C442 1.574 . S
C425 C444 1.368 . S
C425 H449 0.949 . S
H426 C430 0.949 . S
C427 C428 1.349 . S
C427 C429 1.327 . S
C427 H450 0.950 . S
C428 C427 1.349 . S
C428 C440 1.349 . S
C429 C427 1.327 . S
C429 C445 1.429 . S
C429 H451 0.950 . S
C430 H426 0.949 . S
C430 C438 1.574 . S
C430 C446 1.368 . S
H431 C439 0.950 . S
H432 C437 0.950 . S
H433 C438 0.949 . S
H434 C440 0.950 . S
H435 C441 0.950 . S
H436 C442 0.949 . S
C437 H432 0.950 . S
C437 C439 1.327 . S
C437 C443 1.429 . S
C438 C430 1.574 . S
C438 H433 0.949 . S
C438 C444 1.368 . S
C439 C423 1.349 . S
C439 H431 0.950 . S
C439 C437 1.327 . S
C440 C428 1.349 . S
C440 H434 0.950 . S
C440 C441 1.327 . S
C441 H435 0.950 . S
C441 C440 1.327 . S
C441 C445 1.429 . S
C442 C425 1.574 . S
C442 H436 0.949 . S
C442 C446 1.368 . S
C443 C424 1.429 . S
C443 C437 1.429 . S
C443 C444 1.523 . S
C444 C425 1.368 . S
C444 C438 1.368 . S
C444 C443 1.523 . S
C445 C429 1.429 . S
C445 C441 1.429 . S
C445 C446 1.523 . S
C446 C430 1.368 . S
C446 C442 1.368 . S
C446 C445 1.523 . S
H447 C422 0.950 . S
H448 C424 0.950 . S
H449 C425 0.949 . S
H450 C427 0.950 . S
H451 C429 0.950 . S
C452 C453 1.349 . S
C452 C454 1.327 . S
C452 H477 0.950 . S
C453 C452 1.349 . S
C453 C469 1.349 . S
C454 C452 1.327 . S
C454 C473 1.429 . S
C454 H478 0.950 . S
C455 C472 1.574 . S
C455 C474 1.368 . S
C455 H479 0.949 . S
H456 C460 0.949 . S
C457 C458 1.349 . S
C457 C459 1.327 . S
C457 H480 0.950 . S
C458 C457 1.349 . S
C458 C470 1.349 . S
C459 C457 1.327 . S
C459 C475 1.429 . S
C459 H481 0.950 . S
C460 H456 0.949 . S
C460 C468 1.574 . S
C460 C476 1.368 . S
H461 C469 0.950 . S
H462 C467 0.950 . S
H463 C468 0.949 . S
H464 C470 0.950 1_554 S
H465 C471 0.950 . S
H466 C472 0.949 . S
C467 H462 0.950 . S
C467 C469 1.327 . S
C467 C473 1.429 . S
C468 C460 1.574 . S
C468 H463 0.949 . S
C468 C474 1.368 . S
C469 C453 1.349 . S
C469 H461 0.950 . S
C469 C467 1.327 . S
C470 C458 1.349 . S
C470 H464 0.950 1_556 S
C470 C471 1.327 . S
C471 H465 0.950 . S
C471 C470 1.327 . S
C471 C475 1.429 . S
C472 C455 1.574 . S
C472 H466 0.949 . S
C472 C476 1.368 . S
C473 C454 1.429 . S
C473 C467 1.429 . S
C473 C474 1.523 . S
C474 C455 1.368 . S
C474 C468 1.368 . S
C474 C473 1.523 . S
C475 C459 1.429 . S
C475 C471 1.429 . S
C475 C476 1.523 . S
C476 C460 1.368 . S
C476 C472 1.368 . S
C476 C475 1.523 . S
H477 C452 0.950 . S
H478 C454 0.950 . S
H479 C455 0.949 . S
H480 C457 0.950 . S
H481 C459 0.950 . S
C482 C483 1.349 . S
C482 C484 1.327 . S
C482 H507 0.950 . S
C483 C482 1.349 . S
C483 C499 1.349 . S
C484 C482 1.327 . S
C484 C503 1.429 . S
C484 H508 0.950 . S
C485 C502 1.574 . S
C485 C504 1.368 . S
C485 H509 0.949 . S
H486 C490 0.949 . S
C487 C488 1.349 . S
C487 C489 1.327 . S
C487 H510 0.950 . S
C488 C487 1.349 . S
C488 C500 1.349 . S
C489 C487 1.327 . S
C489 C505 1.429 . S
C489 H511 0.950 . S
C490 H486 0.949 . S
C490 C498 1.574 . S
C490 C506 1.368 . S
H491 C499 0.950 . S
H492 C497 0.950 . S
H493 C498 0.949 . S
H494 C500 0.950 . S
H495 C501 0.950 . S
H496 C502 0.949 . S
C497 H492 0.950 . S
C497 C499 1.327 . S
C497 C503 1.429 . S
C498 C490 1.574 . S
C498 H493 0.949 . S
C498 C504 1.368 . S
C499 C483 1.349 . S
C499 H491 0.950 . S
C499 C497 1.327 . S
C500 C488 1.349 . S
C500 H494 0.950 . S
C500 C501 1.327 . S
C501 H495 0.950 . S
C501 C500 1.327 . S
C501 C505 1.429 . S
C502 C485 1.574 . S
C502 H496 0.949 . S
C502 C506 1.368 . S
C503 C484 1.429 . S
C503 C497 1.429 . S
C503 C504 1.523 . S
C504 C485 1.368 . S
C504 C498 1.368 . S
C504 C503 1.523 . S
C505 C489 1.429 . S
C505 C501 1.429 . S
C505 C506 1.523 . S
C506 C490 1.368 . S
C506 C502 1.368 . S
C506 C505 1.523 . S
H507 C482 0.950 . S
H508 C484 0.950 . S
H509 C485 0.949 . S
H510 C487 0.950 . S
H511 C489 0.950 . S
C512 C513 1.349 . S
C512 C514 1.327 . S
C512 H537 0.950 . S
C513 C512 1.349 . S
C513 C529 1.349 . S
C514 C512 1.327 . S
C514 C533 1.429 . S
C514 H538 0.950 . S
C515 C532 1.574 . S
C515 C534 1.368 . S
C515 H539 0.949 . S
H516 C520 0.949 . S
C517 C518 1.349 . S
C517 C519 1.327 . S
C517 H540 0.950 . S
C518 C517 1.349 . S
C518 C530 1.349 . S
C519 C517 1.327 . S
C519 C535 1.429 . S
C519 H541 0.950 . S
C520 H516 0.949 . S
C520 C528 1.574 . S
C520 C536 1.368 . S
H521 C529 0.950 1_556 S
H522 C527 0.950 . S
H523 C528 0.949 . S
H524 C530 0.950 . S
H525 C531 0.950 . S
H526 C532 0.949 . S
C527 H522 0.950 . S
C527 C529 1.327 . S
C527 C533 1.429 . S
C528 C520 1.574 . S
C528 H523 0.949 . S
C528 C534 1.368 . S
C529 C513 1.349 . S
C529 H521 0.950 1_554 S
C529 C527 1.327 . S
C530 C518 1.349 . S
C530 H524 0.950 . S
C530 C531 1.327 . S
C531 H525 0.950 . S
C531 C530 1.327 . S
C531 C535 1.429 . S
C532 C515 1.574 . S
C532 H526 0.949 . S
C532 C536 1.368 . S
C533 C514 1.429 . S
C533 C527 1.429 . S
C533 C534 1.523 . S
C534 C515 1.368 . S
C534 C528 1.368 . S
C534 C533 1.523 . S
C535 C519 1.429 . S
C535 C531 1.429 . S
C535 C536 1.523 1_565 S
C536 C520 1.368 . S
C536 C532 1.368 . S
C536 C535 1.523 1_545 S
H537 C512 0.950 . S
H538 C514 0.950 . S
H539 C515 0.949 . S
H540 C517 0.950 . S
H541 C519 0.950 . S
C542 C543 1.349 . S
C542 C544 1.327 . S
C542 H567 0.950 . S
C543 C542 1.349 . S
C543 C559 1.349 . S
C544 C542 1.327 . S
C544 C563 1.429 . S
C544 H568 0.950 . S
C545 C562 1.574 . S
C545 C564 1.368 . S
C545 H569 0.949 . S
H546 C550 0.949 . S
C547 C548 1.349 . S
C547 C549 1.327 . S
C547 H570 0.950 . S
C548 C547 1.349 . S
C548 C560 1.349 . S
C549 C547 1.327 . S
C549 C565 1.429 . S
C549 H571 0.950 . S
C550 H546 0.949 . S
C550 C558 1.574 . S
C550 C566 1.368 . S
H551 C559 0.950 . S
H552 C557 0.950 . S
H553 C558 0.949 . S
H554 C560 0.950 . S
H555 C561 0.950 . S
H556 C562 0.949 . S
C557 H552 0.950 . S
C557 C559 1.327 . S
C557 C563 1.429 . S
C558 C550 1.574 . S
C558 H553 0.949 . S
C558 C564 1.368 . S
C559 C543 1.349 . S
C559 H551 0.950 . S
C559 C557 1.327 . S
C560 C548 1.349 . S
C560 H554 0.950 . S
C560 C561 1.327 . S
C561 H555 0.950 . S
C561 C560 1.327 . S
C561 C565 1.429 . S
C562 C545 1.574 . S
C562 H556 0.949 . S
C562 C566 1.368 . S
C563 C544 1.429 . S
C563 C557 1.429 . S
C563 C564 1.523 . S
C564 C545 1.368 . S
C564 C558 1.368 . S
C564 C563 1.523 . S
C565 C549 1.429 . S
C565 C561 1.429 . S
C565 C566 1.523 1_565 S
C566 C550 1.368 . S
C566 C562 1.368 . S
C566 C565 1.523 1_545 S
H567 C542 0.950 . S
H568 C544 0.950 . S
H569 C545 0.949 . S
H570 C547 0.950 . S
H571 C549 0.950 . S
C572 C573 1.349 . S
C572 C574 1.327 . S
C572 H597 0.950 . S
C573 C572 1.349 . S
C573 C589 1.349 . S
C574 C572 1.327 . S
C574 C593 1.429 . S
C574 H598 0.950 . S
C575 C592 1.574 . S
C575 C594 1.368 . S
C575 H599 0.949 . S
H576 C580 0.949 . S
C577 C578 1.349 . S
C577 C579 1.327 . S
C577 H600 0.950 . S
C578 C577 1.349 . S
C578 C590 1.349 . S
C579 C577 1.327 . S
C579 C595 1.429 . S
C579 H601 0.950 . S
C580 H576 0.949 . S
C580 C588 1.574 . S
C580 C596 1.368 . S
H581 C589 0.950 . S
H582 C587 0.950 . S
H583 C588 0.949 . S
H584 C590 0.950 1_554 S
H585 C591 0.950 . S
H586 C592 0.949 . S
C587 H582 0.950 . S
C587 C589 1.327 . S
C587 C593 1.429 . S
C588 C580 1.574 . S
C588 H583 0.949 . S
C588 C594 1.368 . S
C589 C573 1.349 . S
C589 H581 0.950 . S
C589 C587 1.327 . S
C590 C578 1.349 . S
C590 H584 0.950 1_556 S
C590 C591 1.327 . S
C591 H585 0.950 . S
C591 C590 1.327 . S
C591 C595 1.429 . S
C592 C575 1.574 . S
C592 H586 0.949 . S
C592 C596 1.368 . S
C593 C574 1.429 . S
C593 C587 1.429 . S
C593 C594 1.523 1_545 S
C594 C575 1.368 . S
C594 C588 1.368 . S
C594 C593 1.523 1_565 S
C595 C579 1.429 . S
C595 C591 1.429 . S
C595 C596 1.523 . S
C596 C580 1.368 . S
C596 C592 1.368 . S
C596 C595 1.523 . S
H597 C572 0.950 . S
H598 C574 0.950 . S
H599 C575 0.949 . S
H600 C577 0.950 . S
H601 C579 0.950 . S
C602 C603 1.349 . S
C602 C604 1.327 . S
C602 H627 0.950 . S
C603 C602 1.349 . S
C603 C619 1.349 . S
C604 C602 1.327 . S
C604 C623 1.429 . S
C604 H628 0.950 . S
C605 C622 1.574 . S
C605 C624 1.368 . S
C605 H629 0.949 . S
H606 C610 0.949 . S
C607 C608 1.349 . S
C607 C609 1.327 . S
C607 H630 0.950 . S
C608 C607 1.349 . S
C608 C620 1.349 . S
C609 C607 1.327 . S
C609 C625 1.429 . S
C609 H631 0.950 . S
C610 H606 0.949 . S
C610 C618 1.574 . S
C610 C626 1.368 . S
H611 C619 0.950 . S
H612 C617 0.950 . S
H613 C618 0.949 . S
H614 C620 0.950 . S
H615 C621 0.950 . S
H616 C622 0.949 . S
C617 H612 0.950 . S
C617 C619 1.327 . S
C617 C623 1.429 . S
C618 C610 1.574 . S
C618 H613 0.949 . S
C618 C624 1.368 . S
C619 C603 1.349 . S
C619 H611 0.950 . S
C619 C617 1.327 . S
C620 C608 1.349 . S
C620 H614 0.950 . S
C620 C621 1.327 . S
C621 H615 0.950 . S
C621 C620 1.327 . S
C621 C625 1.429 . S
C622 C605 1.574 . S
C622 H616 0.949 . S
C622 C626 1.368 . S
C623 C604 1.429 . S
C623 C617 1.429 . S
C623 C624 1.523 . S
C624 C605 1.368 . S
C624 C618 1.368 . S
C624 C623 1.523 . S
C625 C609 1.429 . S
C625 C621 1.429 . S
C625 C626 1.523 1_545 S
C626 C610 1.368 . S
C626 C622 1.368 . S
C626 C625 1.523 1_565 S
H627 C602 0.950 . S
H628 C604 0.950 . S
H629 C605 0.949 . S
H630 C607 0.950 . S
H631 C609 0.950 . S
C632 C633 1.349 . S
C632 C634 1.328 . S
C632 H657 0.950 1_554 S
C633 C632 1.349 . S
C633 C649 1.349 . S
C634 C632 1.328 . S
C634 C653 1.436 . S
C634 H658 0.941 1_554 S
C635 C652 1.574 . S
C635 C654 1.368 . S
C635 H659 0.949 . S
H636 C640 0.949 . S
C637 C638 1.349 . S
C637 C639 1.328 . S
C637 H660 0.950 1_556 S
C638 C637 1.349 . S
C638 C650 1.349 . S
C639 C637 1.328 . S
C639 C655 1.436 . S
C639 H661 0.941 1_556 S
C640 H636 0.949 . S
C640 C648 1.574 . S
C640 C656 1.368 . S
H641 C649 0.950 . S
H642 C647 0.950 . S
H643 C648 0.949 . S
H644 C650 0.950 . S
H645 C651 0.950 . S
H646 C652 0.949 . S
C647 H642 0.950 . S
C647 C649 1.327 . S
C647 C653 1.429 . S
C648 C640 1.574 . S
C648 H643 0.949 . S
C648 C654 1.368 1_556 S
C649 C633 1.349 . S
C649 H641 0.950 . S
C649 C647 1.327 . S
C650 C638 1.349 . S
C650 H644 0.950 . S
C650 C651 1.327 . S
C651 H645 0.950 . S
C651 C650 1.327 . S
C651 C655 1.429 . S
C652 C635 1.574 . S
C652 H646 0.949 . S
C652 C656 1.368 1_554 S
C653 C634 1.436 . S
C653 C647 1.429 . S
C653 C654 1.523 . S
C654 C635 1.368 . S
C654 C648 1.368 1_554 S
C654 C653 1.523 . S
C655 C639 1.436 . S
C655 C651 1.429 . S
C655 C656 1.523 . S
C656 C640 1.368 . S
C656 C652 1.368 1_556 S
C656 C655 1.523 . S
H657 C632 0.950 1_556 S
H658 C634 0.941 1_556 S
H659 C635 0.949 . S
H660 C637 0.950 1_554 S
H661 C639 0.941 1_554 S
C662 C663 1.349 . S
C662 C664 1.327 . S
C662 H687 0.950 . S
C663 C662 1.349 . S
C663 C679 1.349 . S
C664 C662 1.327 . S
C664 C683 1.429 . S
C664 H688 0.950 . S
C665 C682 1.574 . S
C665 C684 1.368 . S
C665 H689 0.949 . S
H666 C670 0.949 . S
C667 C668 1.349 . S
C667 C669 1.327 . S
C667 H690 0.950 . S
C668 C667 1.349 . S
C668 C680 1.349 . S
C669 C667 1.327 . S
C669 C685 1.429 . S
C669 H691 0.950 . S
C670 H666 0.949 . S
C670 C678 1.574 . S
C670 C686 1.368 . S
H671 C679 0.950 . S
H672 C677 0.950 . S
H673 C678 0.949 . S
H674 C680 0.950 . S
H675 C681 0.950 . S
H676 C682 0.949 . S
C677 H672 0.950 . S
C677 C679 1.327 . S
C677 C683 1.429 . S
C678 C670 1.574 . S
C678 H673 0.949 . S
C678 C684 1.368 . S
C679 C663 1.349 . S
C679 H671 0.950 . S
C679 C677 1.327 . S
C680 C668 1.349 . S
C680 H674 0.950 . S
C680 C681 1.327 . S
C681 H675 0.950 . S
C681 C680 1.327 . S
C681 C685 1.429 . S
C682 C665 1.574 . S
C682 H676 0.949 . S
C682 C686 1.368 . S
C683 C664 1.429 . S
C683 C677 1.429 . S
C683 C684 1.523 . S
C684 C665 1.368 . S
C684 C678 1.368 . S
C684 C683 1.523 . S
C685 C669 1.429 . S
C685 C681 1.429 . S
C685 C686 1.523 . S
C686 C670 1.368 . S
C686 C682 1.368 . S
C686 C685 1.523 . S
H687 C662 0.950 . S
H688 C664 0.950 . S
H689 C665 0.949 . S
H690 C667 0.950 . S
H691 C669 0.950 . S
C692 C693 1.349 . S
C692 C694 1.327 . S
C692 H717 0.950 . S
C693 C692 1.349 . S
C693 C709 1.349 . S
C694 C692 1.327 . S
C694 C713 1.429 . S
C694 H718 0.950 . S
C695 C712 1.574 . S
C695 C714 1.368 1_554 S
C695 H719 0.949 . S
H696 C700 0.949 . S
C697 C698 1.349 . S
C697 C699 1.327 . S
C697 H720 0.950 . S
C698 C697 1.349 . S
C698 C710 1.349 . S
C699 C697 1.327 . S
C699 C715 1.429 . S
C699 H721 0.950 . S
C700 H696 0.949 . S
C700 C708 1.574 . S
C700 C716 1.368 1_556 S
H701 C709 0.950 . S
H702 C707 0.950 1_554 S
H703 C708 0.949 . S
H704 C710 0.950 . S
H705 C711 0.950 1_556 S
H706 C712 0.949 . S
C707 H702 0.950 1_556 S
C707 C709 1.327 . S
C707 C713 1.429 . S
C708 C700 1.574 . S
C708 H703 0.949 . S
C708 C714 1.368 . S
C709 C693 1.349 . S
C709 H701 0.950 . S
C709 C707 1.327 . S
C710 C698 1.349 . S
C710 H704 0.950 . S
C710 C711 1.327 . S
C711 H705 0.950 1_554 S
C711 C710 1.327 . S
C711 C715 1.429 . S
C712 C695 1.574 . S
C712 H706 0.949 . S
C712 C716 1.368 . S
C713 C694 1.429 . S
C713 C707 1.429 . S
C713 C714 1.523 . S
C714 C695 1.368 1_556 S
C714 C708 1.368 . S
C714 C713 1.523 . S
C715 C699 1.429 . S
C715 C711 1.429 . S
C715 C716 1.523 . S
C716 C700 1.368 1_554 S
C716 C712 1.368 . S
C716 C715 1.523 . S
H717 C692 0.950 . S
H718 C694 0.950 . S
H719 C695 0.949 . S
H720 C697 0.950 . S
H721 C699 0.950 . S
C722 C723 1.349 . S
C722 C724 1.327 . S
C722 H747 0.950 . S
C723 C722 1.349 . S
C723 C739 1.349 . S
C724 C722 1.327 . S
C724 C743 1.429 . S
C724 H748 0.950 . S
C725 C742 1.574 . S
C725 C744 1.368 . S
C725 H749 0.949 . S
H726 C730 0.949 . S
C727 C728 1.349 . S
C727 C729 1.327 . S
C727 H750 0.950 . S
C728 C727 1.349 . S
C728 C740 1.349 . S
C729 C727 1.327 . S
C729 C745 1.429 . S
C729 H751 0.950 . S
C730 H726 0.949 . S
C730 C738 1.574 . S
C730 C746 1.368 . S
H731 C739 0.950 . S
H732 C737 0.950 . S
H733 C738 0.949 . S
H734 C740 0.950 . S
H735 C741 0.950 . S
H736 C742 0.949 . S
C737 H732 0.950 . S
C737 C739 1.327 . S
C737 C743 1.429 . S
C738 C730 1.574 . S
C738 H733 0.949 . S
C738 C744 1.368 . S
C739 C723 1.349 . S
C739 H731 0.950 . S
C739 C737 1.327 . S
C740 C728 1.349 . S
C740 H734 0.950 . S
C740 C741 1.327 . S
C741 H735 0.950 . S
C741 C740 1.327 . S
C741 C745 1.429 . S
C742 C725 1.574 . S
C742 H736 0.949 . S
C742 C746 1.368 . S
C743 C724 1.429 . S
C743 C737 1.429 . S
C743 C744 1.523 . S
C744 C725 1.368 . S
C744 C738 1.368 . S
C744 C743 1.523 . S
C745 C729 1.429 . S
C745 C741 1.429 . S
C745 C746 1.523 . S
C746 C730 1.368 . S
C746 C742 1.368 . S
C746 C745 1.523 . S
H747 C722 0.950 . S
H748 C724 0.950 . S
H749 C725 0.949 . S
H750 C727 0.950 . S
H751 C729 0.950 . S
C752 C753 1.349 . S
C752 C754 1.327 1_545 S
C752 H777 0.950 1_545 S
C753 C752 1.349 . S
C753 C769 1.349 . S
C754 C752 1.327 1_565 S
C754 C773 1.429 1_565 S
C754 H778 0.950 . S
C755 C772 1.573 . S
C755 C774 1.368 1_545 S
C755 H779 0.949 . S
H756 C760 0.949 . S
C757 C758 1.349 . S
C757 C759 1.327 . S
C757 H780 0.950 . S
C758 C757 1.349 . S
C758 C770 1.349 . S
C759 C757 1.327 . S
C759 C775 1.429 . S
C759 H781 0.950 . S
C760 H756 0.949 . S
C760 C768 1.574 . S
C760 C776 1.368 . S
H761 C769 0.950 . S
H762 C767 0.950 . S
H763 C768 0.949 . S
H764 C770 0.950 . S
H765 C771 0.950 . S
H766 C772 0.948 . S
C767 H762 0.950 . S
C767 C769 1.327 . S
C767 C773 1.429 . S
C768 C760 1.574 . S
C768 H763 0.949 . S
C768 C774 1.368 . S
C769 C753 1.349 . S
C769 H761 0.950 . S
C769 C767 1.327 . S
C770 C758 1.349 . S
C770 H764 0.950 . S
C770 C771 1.327 . S
C771 H765 0.950 . S
C771 C770 1.327 . S
C771 C775 1.429 . S
C772 C755 1.573 . S
C772 H766 0.948 . S
C772 C776 1.370 1_545 S
C773 C754 1.429 1_545 S
C773 C767 1.429 . S
C773 C774 1.523 1_545 S
C774 C755 1.368 1_565 S
C774 C768 1.368 . S
C774 C773 1.523 1_565 S
C775 C759 1.429 . S
C775 C771 1.429 . S
C775 C776 1.523 . S
C776 C760 1.368 . S
C776 C772 1.370 1_565 S
C776 C775 1.523 . S
H777 C752 0.950 1_565 S
H778 C754 0.950 . S
H779 C755 0.949 . S
H780 C757 0.950 . S
H781 C759 0.950 . S
C782 C783 1.349 1_565 S
C782 C784 1.327 . S
C782 H807 0.950 . S
C783 C782 1.349 1_545 S
C783 C799 1.349 . S
C784 C782 1.327 . S
C784 C803 1.429 1_565 S
C784 H808 0.950 . S
C785 C802 1.574 . S
C785 C804 1.368 1_545 S
C785 H809 0.949 . S
H786 C790 0.949 . S
C787 C788 1.349 . S
C787 C789 1.327 . S
C787 H810 0.950 . S
C788 C787 1.349 . S
C788 C800 1.349 . S
C789 C787 1.327 . S
C789 C805 1.429 . S
C789 H811 0.950 . S
C790 H786 0.949 . S
C790 C798 1.574 . S
C790 C806 1.368 . S
H791 C799 0.950 . S
H792 C797 0.950 . S
H793 C798 0.949 . S
H794 C800 0.950 . S
H795 C801 0.950 . S
H796 C802 0.949 . S
C797 H792 0.950 . S
C797 C799 1.327 . S
C797 C803 1.429 . S
C798 C790 1.574 . S
C798 H793 0.949 . S
C798 C804 1.368 . S
C799 C783 1.349 . S
C799 H791 0.950 . S
C799 C797 1.327 . S
C800 C788 1.349 . S
C800 H794 0.950 . S
C800 C801 1.327 . S
C801 H795 0.950 . S
C801 C800 1.327 . S
C801 C805 1.429 . S
C802 C785 1.574 . S
C802 H796 0.949 . S
C802 C806 1.368 1_545 S
C803 C784 1.429 1_545 S
C803 C797 1.429 . S
C803 C804 1.523 1_545 S
C804 C785 1.368 1_565 S
C804 C798 1.368 . S
C804 C803 1.523 1_565 S
C805 C789 1.429 . S
C805 C801 1.429 . S
C805 C806 1.523 . S
C806 C790 1.368 . S
C806 C802 1.368 1_565 S
C806 C805 1.523 . S
H807 C782 0.950 . S
H808 C784 0.950 . S
H809 C785 0.949 . S
H810 C787 0.950 . S
H811 C789 0.950 . S
C812 C813 1.349 . S
C812 C814 1.327 . S
C812 H837 0.950 . S
C813 C812 1.349 . S
C813 C829 1.349 . S
C814 C812 1.327 . S
C814 C833 1.429 . S
C814 H838 0.950 . S
C815 C832 1.574 1_545 S
C815 C834 1.368 . S
C815 H839 0.949 . S
H816 C820 0.949 . S
C817 C818 1.349 . S
C817 C819 1.327 . S
C817 H840 0.950 . S
C818 C817 1.349 . S
C818 C830 1.349 . S
C819 C817 1.327 . S
C819 C835 1.429 . S
C819 H841 0.950 . S
C820 H816 0.949 . S
C820 C828 1.574 . S
C820 C836 1.368 . S
H821 C829 0.950 . S
H822 C827 0.950 . S
H823 C828 0.949 . S
H824 C830 0.950 . S
H825 C831 0.950 . S
H826 C832 0.949 . S
C827 H822 0.950 . S
C827 C829 1.327 . S
C827 C833 1.429 . S
C828 C820 1.574 . S
C828 H823 0.949 . S
C828 C834 1.368 . S
C829 C813 1.349 . S
C829 H821 0.950 . S
C829 C827 1.327 . S
C830 C818 1.349 . S
C830 H824 0.950 . S
C830 C831 1.327 1_565 S
C831 H825 0.950 . S
C831 C830 1.327 1_545 S
C831 C835 1.429 1_545 S
C832 C815 1.574 1_565 S
C832 H826 0.949 . S
C832 C836 1.368 1_565 S
C833 C814 1.429 . S
C833 C827 1.429 . S
C833 C834 1.523 . S
C834 C815 1.368 . S
C834 C828 1.368 . S
C834 C833 1.523 . S
C835 C819 1.429 . S
C835 C831 1.429 1_565 S
C835 C836 1.523 1_565 S
C836 C820 1.368 . S
C836 C832 1.368 1_545 S
C836 C835 1.523 1_545 S
H837 C812 0.950 . S
H838 C814 0.950 . S
H839 C815 0.949 . S
H840 C817 0.950 . S
H841 C819 0.950 . S
C842 C843 1.349 . S
C842 C844 1.327 . S
C842 H867 0.950 . S
C843 C842 1.349 . S
C843 C859 1.349 1_565 S
C844 C842 1.327 . S
C844 C863 1.429 . S
C844 H868 0.950 . S
C845 C862 1.574 . S
C845 C864 1.368 . S
C845 H869 0.949 . S
H846 C850 0.949 . S
C847 C848 1.349 . S
C847 C849 1.327 . S
C847 H870 0.950 . S
C848 C847 1.349 . S
C848 C860 1.349 . S
C849 C847 1.327 . S
C849 C865 1.429 . S
C849 H871 0.950 . S
C850 H846 0.949 . S
C850 C858 1.574 . S
C850 C866 1.368 1_565 S
H851 C859 0.950 . S
H852 C857 0.950 . S
H853 C858 0.949 . S
H854 C860 0.950 . S
H855 C861 0.950 . S
H856 C862 0.949 . S
C857 H852 0.950 . S
C857 C859 1.327 . S
C857 C863 1.429 1_545 S
C858 C850 1.574 . S
C858 H853 0.949 . S
C858 C864 1.368 1_565 S
C859 C843 1.349 1_545 S
C859 H851 0.950 . S
C859 C857 1.327 . S
C860 C848 1.349 . S
C860 H854 0.950 . S
C860 C861 1.327 . S
C861 H855 0.950 . S
C861 C860 1.327 . S
C861 C865 1.429 . S
C862 C845 1.574 . S
C862 H856 0.949 . S
C862 C866 1.368 . S
C863 C844 1.429 . S
C863 C857 1.429 1_565 S
C863 C864 1.523 1_565 S
C864 C845 1.368 . S
C864 C858 1.368 1_545 S
C864 C863 1.523 1_545 S
C865 C849 1.429 . S
C865 C861 1.429 . S
C865 C866 1.523 . S
C866 C850 1.368 1_545 S
C866 C862 1.368 . S
C866 C865 1.523 . S
H867 C842 0.950 . S
H868 C844 0.950 . S
H869 C845 0.949 . S
H870 C847 0.950 . S
H871 C849 0.950 . S
C872 C873 1.349 . S
C872 C874 1.327 . S
C872 H897 0.950 . S
C873 C872 1.349 . S
C873 C889 1.349 . S
C874 C872 1.327 . S
C874 C893 1.429 . S
C874 H898 0.950 . S
C875 C892 1.574 . S
C875 C894 1.368 . S
C875 H899 0.949 . S
H876 C880 0.949 . S
C877 C878 1.349 . S
C877 C879 1.327 . S
C877 H900 0.950 . S
C878 C877 1.349 . S
C878 C890 1.349 . S
C879 C877 1.327 . S
C879 C895 1.429 . S
C879 H901 0.950 . S
C880 H876 0.949 . S
C880 C888 1.574 . S
C880 C896 1.368 . S
H881 C889 0.950 . S
H882 C887 0.950 . S
H883 C888 0.949 . S
H884 C890 0.950 . S
H885 C891 0.950 . S
H886 C892 0.949 . S
C887 H882 0.950 . S
C887 C889 1.327 . S
C887 C893 1.429 . S
C888 C880 1.574 . S
C888 H883 0.949 . S
C888 C894 1.368 . S
C889 C873 1.349 . S
C889 H881 0.950 . S
C889 C887 1.327 . S
C890 C878 1.349 . S
C890 H884 0.950 . S
C890 C891 1.327 . S
C891 H885 0.950 . S
C891 C890 1.327 . S
C891 C895 1.429 . S
C892 C875 1.574 . S
C892 H886 0.949 . S
C892 C896 1.368 . S
C893 C874 1.429 . S
C893 C887 1.429 . S
C893 C894 1.523 . S
C894 C875 1.368 . S
C894 C888 1.368 . S
C894 C893 1.523 . S
C895 C879 1.429 . S
C895 C891 1.429 . S
C895 C896 1.523 . S
C896 C880 1.368 . S
C896 C892 1.368 . S
C896 C895 1.523 . S
H897 C872 0.950 . S
H898 C874 0.950 . S
H899 C875 0.949 . S
H900 C877 0.950 . S
H901 C879 0.950 . S
C902 C903 1.349 . S
C902 C904 1.327 . S
C902 H927 0.950 . S
C903 C902 1.349 . S
C903 C919 1.349 . S
C904 C902 1.327 . S
C904 C923 1.429 . S
C904 H928 0.950 . S
C905 C922 1.574 . S
C905 C924 1.368 . S
C905 H929 0.949 . S
H906 C910 0.949 . S
C907 C908 1.349 . S
C907 C909 1.327 . S
C907 H930 0.950 . S
C908 C907 1.349 . S
C908 C920 1.349 . S
C909 C907 1.327 . S
C909 C925 1.429 . S
C909 H931 0.950 . S
C910 H906 0.949 . S
C910 C918 1.574 . S
C910 C926 1.368 . S
H911 C919 0.950 . S
H912 C917 0.950 . S
H913 C918 0.949 . S
H914 C920 0.950 . S
H915 C921 0.950 . S
H916 C922 0.949 . S
C917 H912 0.950 . S
C917 C919 1.327 . S
C917 C923 1.429 . S
C918 C910 1.574 . S
C918 H913 0.949 . S
C918 C924 1.368 . S
C919 C903 1.349 . S
C919 H911 0.950 . S
C919 C917 1.327 . S
C920 C908 1.349 . S
C920 H914 0.950 . S
C920 C921 1.327 . S
C921 H915 0.950 . S
C921 C920 1.327 . S
C921 C925 1.429 . S
C922 C905 1.574 . S
C922 H916 0.949 . S
C922 C926 1.368 . S
C923 C904 1.429 . S
C923 C917 1.429 . S
C923 C924 1.523 . S
C924 C905 1.368 . S
C924 C918 1.368 . S
C924 C923 1.523 . S
C925 C909 1.429 . S
C925 C921 1.429 . S
C925 C926 1.523 . S
C926 C910 1.368 . S
C926 C922 1.368 . S
C926 C925 1.523 . S
H927 C902 0.950 . S
H928 C904 0.950 . S
H929 C905 0.949 . S
H930 C907 0.950 . S
H931 C909 0.950 . S
C932 C933 1.349 . S
C932 C934 1.327 . S
C932 H957 0.950 . S
C933 C932 1.349 . S
C933 C949 1.349 . S
C934 C932 1.327 . S
C934 C953 1.429 . S
C934 H958 0.950 . S
C935 C952 1.574 . S
C935 C954 1.368 . S
C935 H959 0.949 . S
H936 C940 0.949 . S
C937 C938 1.349 . S
C937 C939 1.327 . S
C937 H960 0.950 . S
C938 C937 1.349 . S
C938 C950 1.349 . S
C939 C937 1.327 . S
C939 C955 1.429 . S
C939 H961 0.950 . S
C940 H936 0.949 . S
C940 C948 1.574 . S
C940 C956 1.368 . S
H941 C949 0.950 . S
H942 C947 0.950 . S
H943 C948 0.949 . S
H944 C950 0.950 . S
H945 C951 0.950 . S
H946 C952 0.949 . S
C947 H942 0.950 . S
C947 C949 1.327 . S
C947 C953 1.429 . S
C948 C940 1.574 . S
C948 H943 0.949 . S
C948 C954 1.368 . S
C949 C933 1.349 . S
C949 H941 0.950 . S
C949 C947 1.327 . S
C950 C938 1.349 . S
C950 H944 0.950 . S
C950 C951 1.327 . S
C951 H945 0.950 . S
C951 C950 1.327 . S
C951 C955 1.429 . S
C952 C935 1.574 . S
C952 H946 0.949 . S
C952 C956 1.368 . S
C953 C934 1.429 . S
C953 C947 1.429 . S
C953 C954 1.523 . S
C954 C935 1.368 . S
C954 C948 1.368 . S
C954 C953 1.523 . S
C955 C939 1.429 . S
C955 C951 1.429 . S
C955 C956 1.523 . S
C956 C940 1.368 . S
C956 C952 1.368 . S
C956 C955 1.523 . S
H957 C932 0.950 . S
H958 C934 0.950 . S
H959 C935 0.949 . S
H960 C937 0.950 . S
H961 C939 0.950 . S
C962 C963 1.349 . S
C962 C964 1.327 . S
C962 H987 0.950 . S
C963 C962 1.349 . S
C963 C979 1.349 . S
C964 C962 1.327 . S
C964 C983 1.429 . S
C964 H988 0.950 . S
C965 C982 1.574 . S
C965 C984 1.368 . S
C965 H989 0.949 . S
H966 C970 0.949 . S
C967 C968 1.349 . S
C967 C969 1.327 . S
C967 H990 0.950 . S
C968 C967 1.349 . S
C968 C980 1.349 . S
C969 C967 1.327 . S
C969 C985 1.429 . S
C969 H991 0.950 . S
C970 H966 0.949 . S
C970 C978 1.574 . S
C970 C986 1.368 . S
H971 C979 0.950 . S
H972 C977 0.950 . S
H973 C978 0.949 . S
H974 C980 0.950 . S
H975 C981 0.950 . S
H976 C982 0.949 . S
C977 H972 0.950 . S
C977 C979 1.327 . S
C977 C983 1.429 . S
C978 C970 1.574 . S
C978 H973 0.949 . S
C978 C984 1.368 . S
C979 C963 1.349 . S
C979 H971 0.950 . S
C979 C977 1.327 . S
C980 C968 1.349 . S
C980 H974 0.950 . S
C980 C981 1.327 . S
C981 H975 0.950 . S
C981 C980 1.327 . S
C981 C985 1.429 . S
C982 C965 1.574 . S
C982 H976 0.949 . S
C982 C986 1.368 . S
C983 C964 1.429 . S
C983 C977 1.429 . S
C983 C984 1.523 . S
C984 C965 1.368 . S
C984 C978 1.368 . S
C984 C983 1.523 . S
C985 C969 1.429 . S
C985 C981 1.429 . S
C985 C986 1.523 . S
C986 C970 1.368 . S
C986 C982 1.368 . S
C986 C985 1.523 . S
H987 C962 0.950 . S
H988 C964 0.950 . S
H989 C965 0.949 . S
H990 C967 0.950 . S
H991 C969 0.950 . S
C992 C993 1.349 1_565 S
C992 C994 1.327 . S
C992 H1017 0.950 . S
C993 C992 1.349 1_545 S
C993 C1009 1.349 . S
C994 C992 1.327 . S
C994 C1013 1.429 1_565 S
C994 H1018 0.950 . S
C995 C1012 1.562 1_554 S
C995 C1014 1.368 . S
C995 H1019 0.949 . S
H996 C1000 0.949 . S
C997 C998 1.349 1_545 S
C997 C999 1.327 . S
C997 H1020 0.950 . S
C998 C997 1.349 1_565 S
C998 C1010 1.349 . S
C999 C997 1.327 . S
C999 C1015 1.429 1_545 S
C999 H1021 0.950 . S
C1000 H996 0.949 . S
C1000 C1008 1.562 1_556 S
C1000 C1016 1.368 . S
H1001 C1009 0.950 . S
H1002 C1007 0.950 . S
H1003 C1008 0.954 . S
H1004 C1010 0.950 . S
H1005 C1011 0.950 . S
H1006 C1012 0.954 . S
C1007 H1002 0.950 . S
C1007 C1009 1.327 . S
C1007 C1013 1.429 . S
C1008 C1000 1.562 1_554 S
C1008 H1003 0.954 . S
C1008 C1014 1.375 1_565 S
C1009 C993 1.349 . S
C1009 H1001 0.950 . S
C1009 C1007 1.327 . S
C1010 C998 1.349 . S
C1010 H1004 0.950 . S
C1010 C1011 1.327 . S
C1011 H1005 0.950 . S
C1011 C1010 1.327 . S
C1011 C1015 1.429 . S
C1012 C995 1.562 1_556 S
C1012 H1006 0.954 . S
C1012 C1016 1.375 1_545 S
C1013 C994 1.429 1_545 S
C1013 C1007 1.429 . S
C1013 C1014 1.523 . S
C1014 C995 1.368 . S
C1014 C1008 1.375 1_545 S
C1014 C1013 1.523 . S
C1015 C999 1.429 1_565 S
C1015 C1011 1.429 . S
C1015 C1016 1.523 . S
C1016 C1000 1.368 . S
C1016 C1012 1.375 1_565 S
C1016 C1015 1.523 . S
H1017 C992 0.950 . S
H1018 C994 0.950 . S
H1019 C995 0.949 . S
H1020 C997 0.950 . S
H1021 C999 0.950 . S
C1022 C1023 1.349 . S
C1022 C1024 1.325 1_545 S
C1022 H1047 0.950 1_545 S
C1023 C1022 1.349 . S
C1023 C1039 1.349 . S
C1024 C1022 1.325 1_565 S
C1024 C1043 1.424 1_565 S
C1024 H1048 0.956 . S
C1025 C1042 1.574 . S
C1025 C1044 1.368 . S
C1025 H1049 0.949 . S
H1026 C1030 0.949 . S
C1027 C1028 1.349 . S
C1027 C1029 1.325 1_565 S
C1027 H1050 0.950 1_565 S
C1028 C1027 1.349 . S
C1028 C1040 1.349 . S
C1029 C1027 1.325 1_545 S
C1029 C1045 1.424 1_545 S
C1029 H1051 0.956 . S
C1030 H1026 0.949 . S
C1030 C1038 1.574 . S
C1030 C1046 1.368 . S
H1031 C1039 0.950 . S
H1032 C1037 0.950 . S
H1033 C1038 0.949 . S
H1034 C1040 0.950 . S
H1035 C1041 0.950 . S
H1036 C1042 0.949 . S
C1037 H1032 0.950 . S
C1037 C1039 1.327 . S
C1037 C1043 1.429 . S
C1038 C1030 1.574 . S
C1038 H1033 0.949 . S
C1038 C1044 1.368 1_565 S
C1039 C1023 1.349 . S
C1039 H1031 0.950 . S
C1039 C1037 1.327 . S
C1040 C1028 1.349 . S
C1040 H1034 0.950 . S
C1040 C1041 1.327 . S
C1041 H1035 0.950 . S
C1041 C1040 1.327 . S
C1041 C1045 1.429 . S
C1042 C1025 1.574 . S
C1042 H1036 0.949 . S
C1042 C1046 1.368 1_545 S
C1043 C1024 1.424 1_545 S
C1043 C1037 1.429 . S
C1043 C1044 1.523 . S
C1044 C1025 1.368 . S
C1044 C1038 1.368 1_545 S
C1044 C1043 1.523 . S
C1045 C1029 1.424 1_565 S
C1045 C1041 1.429 . S
C1045 C1046 1.523 . S
C1046 C1030 1.368 . S
C1046 C1042 1.368 1_565 S
C1046 C1045 1.523 . S
H1047 C1022 0.950 1_565 S
H1048 C1024 0.956 . S
H1049 C1025 0.949 . S
H1050 C1027 0.950 1_545 S
H1051 C1029 0.956 . S
C1052 C1053 1.349 . S
C1052 C1054 1.327 . S
C1052 H1077 0.950 . S
C1053 C1052 1.349 . S
C1053 C1069 1.349 . S
C1054 C1052 1.327 . S
C1054 C1073 1.429 . S
C1054 H1078 0.950 . S
C1055 C1072 1.583 1_655 S
C1055 C1074 1.363 1_556 S
C1055 H1079 0.950 . S
H1056 C1060 0.950 . S
C1057 C1058 1.349 . S
C1057 C1059 1.327 . S
C1057 H1080 0.950 . S
C1058 C1057 1.349 . S
C1058 C1070 1.349 . S
C1059 C1057 1.327 . S
C1059 C1075 1.429 . S
C1059 H1081 0.950 . S
C1060 H1056 0.950 . S
C1060 C1068 1.583 1_455 S
C1060 C1076 1.363 1_554 S
H1061 C1069 0.950 . S
H1062 C1067 0.950 . S
H1063 C1068 0.949 . S
H1064 C1070 0.950 . S
H1065 C1071 0.950 . S
H1066 C1072 0.949 . S
C1067 H1062 0.950 . S
C1067 C1069 1.327 . S
C1067 C1073 1.429 . S
C1068 C1060 1.583 1_655 S
C1068 H1063 0.949 . S
C1068 C1074 1.368 . S
C1069 C1053 1.349 . S
C1069 H1061 0.950 . S
C1069 C1067 1.327 . S
C1070 C1058 1.349 . S
C1070 H1064 0.950 . S
C1070 C1071 1.327 . S
C1071 H1065 0.950 . S
C1071 C1070 1.327 . S
C1071 C1075 1.429 . S
C1072 C1055 1.583 1_455 S
C1072 H1066 0.949 . S
C1072 C1076 1.368 . S
C1073 C1054 1.429 . S
C1073 C1067 1.429 . S
C1073 C1074 1.523 . S
C1074 C1055 1.363 1_554 S
C1074 C1068 1.368 . S
C1074 C1073 1.523 . S
C1075 C1059 1.429 . S
C1075 C1071 1.429 . S
C1075 C1076 1.523 . S
C1076 C1060 1.363 1_556 S
C1076 C1072 1.368 . S
C1076 C1075 1.523 . S
H1077 C1052 0.950 . S
H1078 C1054 0.950 . S
H1079 C1055 0.950 . S
H1080 C1057 0.950 . S
H1081 C1059 0.950 . S
C1082 C1083 1.349 . S
C1082 C1084 1.327 . S
C1082 H1107 0.950 . S
C1083 C1082 1.349 . S
C1083 C1099 1.349 . S
C1084 C1082 1.327 . S
C1084 C1103 1.429 . S
C1084 H1108 0.950 . S
C1085 C1102 1.574 1_455 S
C1085 C1104 1.368 . S
C1085 H1109 0.949 . S
H1086 C1090 0.949 . S
C1087 C1088 1.349 . S
C1087 C1089 1.327 . S
C1087 H1110 0.950 . S
C1088 C1087 1.349 . S
C1088 C1100 1.349 . S
C1089 C1087 1.327 . S
C1089 C1105 1.429 . S
C1089 H1111 0.950 . S
C1090 H1086 0.949 . S
C1090 C1098 1.574 1_655 S
C1090 C1106 1.368 . S
H1091 C1099 0.950 . S
H1092 C1097 0.950 . S
H1093 C1098 0.949 . S
H1094 C1100 0.950 . S
H1095 C1101 0.950 . S
H1096 C1102 0.949 . S
C1097 H1092 0.950 . S
C1097 C1099 1.327 . S
C1097 C1103 1.429 . S
C1098 C1090 1.574 1_455 S
C1098 H1093 0.949 . S
C1098 C1104 1.368 . S
C1099 C1083 1.349 . S
C1099 H1091 0.950 . S
C1099 C1097 1.327 . S
C1100 C1088 1.349 . S
C1100 H1094 0.950 . S
C1100 C1101 1.327 . S
C1101 H1095 0.950 . S
C1101 C1100 1.327 . S
C1101 C1105 1.429 . S
C1102 C1085 1.574 1_655 S
C1102 H1096 0.949 . S
C1102 C1106 1.368 . S
C1103 C1084 1.429 . S
C1103 C1097 1.429 . S
C1103 C1104 1.523 . S
C1104 C1085 1.368 . S
C1104 C1098 1.368 . S
C1104 C1103 1.523 . S
C1105 C1089 1.429 . S
C1105 C1101 1.429 . S
C1105 C1106 1.523 . S
C1106 C1090 1.368 . S
C1106 C1102 1.368 . S
C1106 C1105 1.523 . S
H1107 C1082 0.950 . S
H1108 C1084 0.950 . S
H1109 C1085 0.949 . S
H1110 C1087 0.950 . S
H1111 C1089 0.950 . S
C273 C35 1.622 . S
C278 C3 1.622 . S
C303 C105 1.622 . S
C308 C71 1.622 . S
C333 C139 1.622 . S
C338 C173 1.622 . S
C363 C207 1.622 . S
C368 C239 1.622 . S
C393 C22 1.227 . S
C398 C15 1.233 . S
C423 C49 1.227 . S
C428 C56 1.233 . S
C453 C83 1.233 . S
C458 C90 1.227 . S
C483 C124 1.227 . S
C488 C117 1.233 . S
C513 C158 1.227 . S
C518 C151 1.233 . S
C543 C192 1.227 . S
C548 C185 1.233 . S
C573 C219 1.233 . S
C578 C226 1.227 . S
C603 C253 1.227 . S
C608 C260 1.233 . S
C633 C17 1.749 . S
C638 C221 1.749 . S
C663 C51 1.749 . S
C668 C255 1.749 . S
C693 C85 1.749 . S
C698 C153 1.749 . S
C723 C187 1.749 . S
C728 C119 1.749 . S
C753 C6 1.598 . S
C758 C130 1.579 . S
C783 C62 1.598 . S
C788 C96 1.579 . S
C813 C40 1.579 . S
C818 C74 1.598 . S
C843 C108 1.598 . S
C848 C28 1.579 . S
C873 C244 1.579 . S
C878 C142 1.598 . S
C903 C176 1.598 . S
C908 C232 1.579 . S
C933 C198 1.579 . S
C938 C210 1.598 . S
C963 C164 1.579 . S
C968 C266 1.598 . S
C993 C1 1.785 . S
C998 C69 1.785 . S
C1023 C37 1.785 . S
C1028 C103 1.785 . S
C1053 C137 1.785 . S
C1058 C205 1.785 . S
C1083 C171 1.785 . S
C1088 C241 1.785 . S
