# Generated by pormake.
# Topology unf, (4)-cn, num edge types: 1
# Building blocks:
#     Node 0, Type 0, BuildingBlock: QUQFOY_clean_sbu_1, # of connection points: 4
#     Node 1, Type 0, BuildingBlock: QUQFOY_clean_sbu_1, # of connection points: 4
#     Node 2, Type 0, BuildingBlock: QUQFOY_clean_sbu_1, # of connection points: 4
#     Node 3, Type 0, BuildingBlock: QUQFOY_clean_sbu_1, # of connection points: 4
#     Node 4, Type 0, BuildingBlock: QUQFOY_clean_sbu_1, # of connection points: 4
#     Node 5, Type 0, BuildingBlock: QUQFOY_clean_sbu_1, # of connection points: 4
#     Node 6, Type 0, BuildingBlock: QUQFOY_clean_sbu_1, # of connection points: 4
#     Node 7, Type 0, BuildingBlock: QUQFOY_clean_sbu_1, # of connection points: 4
#     Node 8, Type 0, BuildingBlock: QUQFOY_clean_sbu_1, # of connection points: 4
#     Node 9, Type 0, BuildingBlock: QUQFOY_clean_sbu_1, # of connection points: 4
#     Node 10, Type 0, BuildingBlock: QUQFOY_clean_sbu_1, # of connection points: 4
#     Node 11, Type 0, BuildingBlock: QUQFOY_clean_sbu_1, # of connection points: 4
#     Edge 12, Type (0, 0), BuildingBlock: MIFKUJ_clean_linker_0, # of connection points: 2
#     Edge 13, Type (0, 0), BuildingBlock: MIFKUJ_clean_linker_0, # of connection points: 2
#     Edge 14, Type (0, 0), BuildingBlock: MIFKUJ_clean_linker_0, # of connection points: 2
#     Edge 15, Type (0, 0), BuildingBlock: MIFKUJ_clean_linker_0, # of connection points: 2
#     Edge 16, Type (0, 0), BuildingBlock: MIFKUJ_clean_linker_0, # of connection points: 2
#     Edge 17, Type (0, 0), BuildingBlock: MIFKUJ_clean_linker_0, # of connection points: 2
#     Edge 18, Type (0, 0), BuildingBlock: MIFKUJ_clean_linker_0, # of connection points: 2
#     Edge 19, Type (0, 0), BuildingBlock: MIFKUJ_clean_linker_0, # of connection points: 2
#     Edge 20, Type (0, 0), BuildingBlock: MIFKUJ_clean_linker_0, # of connection points: 2
#     Edge 21, Type (0, 0), BuildingBlock: MIFKUJ_clean_linker_0, # of connection points: 2
#     Edge 22, Type (0, 0), BuildingBlock: MIFKUJ_clean_linker_0, # of connection points: 2
#     Edge 23, Type (0, 0), BuildingBlock: MIFKUJ_clean_linker_0, # of connection points: 2
#     Edge 24, Type (0, 0), BuildingBlock: MIFKUJ_clean_linker_0, # of connection points: 2
#     Edge 25, Type (0, 0), BuildingBlock: MIFKUJ_clean_linker_0, # of connection points: 2
#     Edge 26, Type (0, 0), BuildingBlock: MIFKUJ_clean_linker_0, # of connection points: 2
#     Edge 27, Type (0, 0), BuildingBlock: MIFKUJ_clean_linker_0, # of connection points: 2
#     Edge 28, Type (0, 0), BuildingBlock: MIFKUJ_clean_linker_0, # of connection points: 2
#     Edge 29, Type (0, 0), BuildingBlock: MIFKUJ_clean_linker_0, # of connection points: 2
#     Edge 30, Type (0, 0), BuildingBlock: MIFKUJ_clean_linker_0, # of connection points: 2
#     Edge 31, Type (0, 0), BuildingBlock: MIFKUJ_clean_linker_0, # of connection points: 2
#     Edge 32, Type (0, 0), BuildingBlock: MIFKUJ_clean_linker_0, # of connection points: 2
#     Edge 33, Type (0, 0), BuildingBlock: MIFKUJ_clean_linker_0, # of connection points: 2
#     Edge 34, Type (0, 0), BuildingBlock: MIFKUJ_clean_linker_0, # of connection points: 2
#     Edge 35, Type (0, 0), BuildingBlock: MIFKUJ_clean_linker_0, # of connection points: 2
# Relax obj value: 0.139
# Max RMSD: 0.166
# Mean RMSD: 0.165
data_MOF--net-unf--node1-QUQFOY_clean_sbu_1--edge1-MIFKUJ_clean_linker_0
_symmetry_space_group_name_H-M    P1
_symmetry_Int_Tables_number       1
_symmetry_cell_setting            triclinic
loop_
_symmetry_equiv_pos_as_xyz
'x, y, z'
_cell_length_a     51.414131
_cell_length_b     51.411845
_cell_length_c     51.881065
_cell_angle_alpha  89.988293
_cell_angle_beta   90.014553
_cell_angle_gamma 119.95524
loop_
_atom_site_label
_atom_site_type_symbol
_atom_site_fract_x
_atom_site_fract_y
_atom_site_fract_z
_atom_type_partial_charge
O0 O 0.14043 0.38073 0.06058 0.0
Cd1 Cd 0.10834 0.37962 0.08497 0.0
Cd2 Cd 0.10555 0.41318 0.04164 0.0
O3 O 0.14383 0.41274 0.03054 0.0
O4 O 0.11343 0.35924 0.1155 0.0
O5 O 0.12322 0.40618 0.11664 0.0
C6 C 0.12315 0.38389 0.12816 0.0
C7 C 0.09815 0.4535 0.03325 0.0
C8 C 0.15289 0.3961 0.04051 0.0
C9 C 0.05106 0.35325 0.05504 0.0
O10 O 0.06505 0.37423 0.03887 0.0
O11 O 0.06361 0.35212 0.07576 0.0
O12 O 0.10039 0.43788 0.01491 0.0
O13 O 0.10298 0.44802 0.05654 0.0
O14 O 0.60128 0.75572 0.06434 0.0
Cd15 Cd 0.60562 0.72347 0.08499 0.0
Cd16 Cd 0.57897 0.69465 0.03938 0.0
O17 O 0.56843 0.72772 0.03469 0.0
O18 O 0.62694 0.74622 0.11641 0.0
O19 O 0.58061 0.70782 0.11743 0.0
C20 C 0.60322 0.72904 0.12951 0.0
C21 C 0.54628 0.64412 0.03161 0.0
C22 C 0.58358 0.75278 0.046 0.0
C23 C 0.63959 0.70593 0.04916 0.0
O24 O 0.62224 0.70564 0.03168 0.0
O25 O 0.63419 0.70836 0.07265 0.0
O26 O 0.55599 0.66346 0.01312 0.0
O27 O 0.55315 0.65394 0.05499 0.0
O28 O 0.24242 0.84936 0.06627 0.0
Cd29 Cd 0.27555 0.88424 0.08782 0.0
Cd30 Cd 0.30377 0.88486 0.04258 0.0
O31 O 0.26978 0.84174 0.03787 0.0
O32 O 0.25234 0.88312 0.11888 0.0
O33 O 0.28873 0.8722 0.12032 0.0
C34 C 0.26771 0.8743 0.13206 0.0
C35 C 0.35401 0.90147 0.0347 0.0
C36 C 0.24462 0.83358 0.04844 0.0
C37 C 0.29583 0.93613 0.05243 0.0
O38 O 0.29401 0.91809 0.03496 0.0
O39 O 0.29391 0.92861 0.07598 0.0
O40 O 0.33459 0.89209 0.01627 0.0
O41 O 0.34436 0.89883 0.05811 0.0
O42 O 0.68058 0.89888 0.43131 0.0
Cd43 Cd 0.67494 0.91828 0.39891 0.0
Cd44 Cd 0.63877 0.93145 0.43584 0.0
O45 O 0.64662 0.90109 0.45595 0.0
O46 O 0.68427 0.89982 0.36938 0.0
O47 O 0.63905 0.89371 0.37638 0.0
C48 C 0.65645 0.88774 0.3627 0.0
C49 C 0.60141 0.93971 0.4532 0.0
C50 C 0.66548 0.89237 0.45203 0.0
C51 C 0.69503 0.98179 0.4074 0.0
O52 O 0.67301 0.97217 0.42285 0.0
O53 O 0.70087 0.96393 0.39528 0.0
O54 O 0.62609 0.94749 0.46515 0.0
O55 O 0.59695 0.92557 0.43164 0.0
O56 O 0.1057 0.7693 0.43435 0.0
Cd57 Cd 0.08437 0.73841 0.4051 0.0
Cd58 Cd 0.08598 0.70306 0.44301 0.0
O59 O 0.12292 0.74281 0.45366 0.0
O60 O 0.09409 0.76219 0.37281 0.0
O61 O 0.10998 0.73014 0.38098 0.0
C62 C 0.10972 0.75005 0.3659 0.0
C63 C 0.0808 0.65749 0.45686 0.0
C64 C 0.12308 0.76739 0.45071 0.0
C65 C 0.02741 0.69975 0.42915 0.0
O66 O 0.04435 0.6991 0.44661 0.0
O67 O 0.03839 0.71147 0.40745 0.0
O68 O 0.08244 0.67734 0.47283 0.0
O69 O 0.08512 0.66466 0.43275 0.0
O70 O 0.22468 0.34512 0.43131 0.0
Cd71 Cd 0.2569 0.34802 0.40574 0.0
Cd72 Cd 0.29029 0.37183 0.45072 0.0
O73 O 0.2544 0.37667 0.46096 0.0
O74 O 0.23397 0.33482 0.37293 0.0
O75 O 0.272 0.38074 0.37869 0.0
C76 C 0.25073 0.36151 0.36407 0.0
C77 C 0.33873 0.40782 0.46341 0.0
C78 C 0.22835 0.36048 0.45158 0.0
C79 C 0.27975 0.31226 0.43148 0.0
O80 O 0.28408 0.32911 0.45079 0.0
O81 O 0.27263 0.31829 0.40978 0.0
O82 O 0.31879 0.39072 0.4799 0.0
O83 O 0.3308 0.4055 0.43952 0.0
O84 O 0.86724 0.63542 0.94313 0.0
Cd85 Cd 0.89618 0.62683 0.92165 0.0
Cd86 Cd 0.89074 0.59716 0.96574 0.0
O87 O 0.85228 0.59873 0.97141 0.0
O88 O 0.89774 0.64647 0.88826 0.0
O89 O 0.87694 0.59728 0.89246 0.0
C90 C 0.883 0.62016 0.8781 0.0
C91 C 0.8964 0.55567 0.97148 0.0
C92 C 0.84955 0.61961 0.96109 0.0
C93 C 0.94951 0.64886 0.9554 0.0
O94 O 0.93048 0.63542 0.97314 0.0
O95 O 0.94099 0.64507 0.93203 0.0
O96 O 0.89125 0.56833 0.99072 0.0
O97 O 0.89508 0.56469 0.94849 0.0
O98 O 0.3662 0.23016 0.93775 0.0
Cd99 Cd 0.37301 0.26655 0.91549 0.0
Cd100 Cd 0.40226 0.29308 0.95947 0.0
O101 O 0.40181 0.25371 0.96664 0.0
O102 O 0.35407 0.24683 0.88236 0.0
O103 O 0.4028 0.27806 0.88626 0.0
C104 C 0.38038 0.25983 0.87209 0.0
C105 C 0.44362 0.34058 0.96437 0.0
C106 C 0.38193 0.22946 0.95637 0.0
C107 C 0.34802 0.29637 0.94777 0.0
O108 O 0.36328 0.29383 0.9658 0.0
O109 O 0.3515 0.29034 0.92472 0.0
O110 O 0.43079 0.32352 0.984 0.0
O111 O 0.43458 0.32947 0.9416 0.0
O112 O 0.76006 0.12125 0.94161 0.0
Cd113 Cd 0.72484 0.09688 0.91652 0.0
Cd114 Cd 0.69737 0.10642 0.95495 0.0
O115 O 0.73867 0.14398 0.96071 0.0
O116 O 0.7444 0.09703 0.88347 0.0
O117 O 0.71771 0.11967 0.88845 0.0
C118 C 0.73441 0.11355 0.87396 0.0
C119 C 0.65161 0.10465 0.9592 0.0
C120 C 0.76185 0.14197 0.95614 0.0
C121 C 0.68777 0.0452 0.94854 0.0
O122 O 0.6921 0.06525 0.96499 0.0
O123 O 0.69538 0.05259 0.92524 0.0
O124 O 0.66891 0.1096 0.97878 0.0
O125 O 0.66185 0.10396 0.93659 0.0
O126 O 0.35364 0.11454 0.56381 0.0
Cd127 Cd 0.35761 0.09122 0.59425 0.0
Cd128 Cd 0.38552 0.07496 0.55191 0.0
O129 O 0.37704 0.10513 0.53261 0.0
O130 O 0.3427 0.10522 0.62346 0.0
O131 O 0.38895 0.11303 0.6219 0.0
C132 C 0.36882 0.1164 0.63389 0.0
C133 C 0.42457 0.06839 0.53614 0.0
C134 C 0.36286 0.11789 0.54067 0.0
C135 C 0.32949 0.02645 0.57996 0.0
O136 O 0.34967 0.03442 0.56281 0.0
O137 O 0.32861 0.04559 0.59483 0.0
O138 O 0.40061 0.06071 0.52303 0.0
O139 O 0.42722 0.08127 0.5581 0.0
O140 O 0.87146 0.23797 0.56356 0.0
Cd141 Cd 0.89659 0.2648 0.5936 0.0
Cd142 Cd 0.90073 0.30999 0.55644 0.0
O143 O 0.86646 0.27128 0.54035 0.0
O144 O 0.88701 0.23633 0.62276 0.0
O145 O 0.87623 0.27291 0.62324 0.0
C146 C 0.87528 0.25005 0.63454 0.0
C147 C 0.90609 0.35536 0.54125 0.0
C148 C 0.86014 0.2444 0.54454 0.0
C149 C 0.95663 0.30582 0.57253 0.0
O150 O 0.94325 0.31568 0.55848 0.0
O151 O 0.9424 0.2858 0.58942 0.0
O152 O 0.90865 0.33683 0.52639 0.0
O153 O 0.89829 0.34733 0.56484 0.0
O154 O 0.76479 0.63705 0.56835 0.0
Cd155 Cd 0.74249 0.64501 0.59734 0.0
Cd156 Cd 0.69329 0.6144 0.55842 0.0
O157 O 0.72851 0.61381 0.53971 0.0
O158 O 0.7725 0.66031 0.6257 0.0
O159 O 0.72931 0.61782 0.62853 0.0
C160 C 0.75475 0.63674 0.63878 0.0
C161 C 0.64515 0.57706 0.54624 0.0
C162 C 0.7556 0.62417 0.54669 0.0
C163 C 0.71095 0.67725 0.57866 0.0
O164 O 0.69438 0.65432 0.56508 0.0
O165 O 0.73201 0.6786 0.59242 0.0
O166 O 0.66265 0.59786 0.53061 0.0
O167 O 0.65525 0.57666 0.56892 0.0
H168 H 0.18551 0.37334 0.06204 0.0
H169 H 0.22251 0.36405 0.04123 0.0
H170 H 0.21255 0.4024 0.97053 0.0
H171 H 0.17517 0.41187 0.99135 0.0
H172 H 0.20801 0.34642 0.96392 0.0
H173 H 0.27647 0.44028 0.00221 0.0
H174 H 0.29797 0.47816 0.03676 0.0
H175 H 0.31553 0.41867 0.08202 0.0
H176 H 0.29378 0.38026 0.04789 0.0
H177 H 0.32347 0.31947 0.91426 0.0
H178 H 0.29337 0.34277 0.92519 0.0
H179 H 0.29636 0.32263 0.00554 0.0
H180 H 0.32702 0.30022 0.99489 0.0
H181 H 0.30867 0.37832 0.00053 0.0
H182 H 0.23287 0.28205 0.96631 0.0
H183 H 0.20981 0.24269 0.93303 0.0
H184 H 0.20489 0.30539 0.8814 0.0
H185 H 0.22826 0.34522 0.91429 0.0
C186 C 0.19136 0.38013 0.04214 0.0
C187 C 0.17734 0.39328 0.02831 0.0
C188 C 0.21265 0.37494 0.03031 0.0
C189 C 0.22041 0.38275 0.00441 0.0
C190 C 0.2069 0.39634 0.99058 0.0
C191 C 0.18569 0.40183 0.00252 0.0
C192 C 0.24125 0.37476 0.99173 0.0
C193 C 0.23033 0.35392 0.97146 0.0
C194 C 0.27011 0.38421 0.00193 0.0
C195 C 0.28335 0.40732 0.0225 0.0
C196 C 0.28473 0.43519 0.0196 0.0
C197 C 0.297 0.45677 0.0391 0.0
C198 C 0.30808 0.45081 0.06158 0.0
C199 C 0.30696 0.42327 0.06459 0.0
C200 C 0.29471 0.4016 0.04514 0.0
C201 C 0.31745 0.31978 0.93422 0.0
C202 C 0.32765 0.30806 0.95373 0.0
C203 C 0.30025 0.33309 0.94043 0.0
C204 C 0.29256 0.3344 0.96619 0.0
C205 C 0.30221 0.3221 0.98556 0.0
C206 C 0.31963 0.30916 0.97942 0.0
C207 C 0.27497 0.349 0.97341 0.0
C208 C 0.28659 0.37122 0.9926 0.0
C209 C 0.24668 0.34062 0.96236 0.0
C210 C 0.23265 0.31669 0.94262 0.0
C211 C 0.2271 0.2875 0.94778 0.0
C212 C 0.21393 0.26509 0.92901 0.0
C213 C 0.20599 0.27156 0.90508 0.0
C214 C 0.21112 0.30043 0.89991 0.0
C215 C 0.22431 0.32292 0.91861 0.0
H216 H 0.19579 0.25419 0.89058 0.0
H217 H 0.31755 0.46755 0.07666 0.0
H218 H 0.56579 0.7604 0.99836 0.0
H219 H 0.57461 0.80766 0.97927 0.0
H220 H 0.60998 0.8529 0.05163 0.0
H221 H 0.6017 0.80589 0.07081 0.0
H222 H 0.57286 0.87194 0.02187 0.0
H223 H 0.65808 0.85489 0.01391 0.0
H224 H 0.68097 0.82467 0.00087 0.0
H225 H 0.65354 0.82417 0.9226 0.0
H226 H 0.63007 0.85402 0.93529 0.0
H227 H 0.67521 0.02311 0.9975 0.0
H228 H 0.64975 0.97073 0.01095 0.0
H229 H 0.64073 0.94277 0.93147 0.0
H230 H 0.66699 0.99539 0.91781 0.0
H231 H 0.65773 0.91156 0.95987 0.0
H232 H 0.5809 0.93619 0.96525 0.0
H233 H 0.55895 0.96746 0.97694 0.0
H234 H 0.56693 0.95256 0.05725 0.0
H235 H 0.58999 0.92194 0.04606 0.0
C236 C 0.57475 0.78023 0.0104 0.0
C237 C 0.58342 0.77957 0.03599 0.0
C238 C 0.57976 0.80717 0.99945 0.0
C239 C 0.59311 0.83366 0.01404 0.0
C240 C 0.59959 0.8326 0.04014 0.0
C241 C 0.59502 0.80579 0.05099 0.0
C242 C 0.60399 0.86303 0.00144 0.0
C243 C 0.59143 0.88075 0.00836 0.0
C244 C 0.62761 0.87395 0.98326 0.0
C245 C 0.64202 0.85633 0.97559 0.0
C246 C 0.65671 0.8481 0.99396 0.0
C247 C 0.66983 0.83109 0.98663 0.0
C248 C 0.66863 0.82242 0.96094 0.0
C249 C 0.6544 0.83084 0.9425 0.0
C250 C 0.64119 0.84781 0.94975 0.0
C251 C 0.66785 0.00586 0.98283 0.0
C252 C 0.67305 0.0134 0.95657 0.0
C253 C 0.65309 0.97589 0.99056 0.0
C254 C 0.64279 0.95282 0.97219 0.0
C255 C 0.64833 0.96024 0.94595 0.0
C256 C 0.66335 0.9903 0.93819 0.0
C257 C 0.62707 0.92103 0.98062 0.0
C258 C 0.63876 0.90275 0.97297 0.0
C259 C 0.60237 0.90953 0.99784 0.0
C260 C 0.58749 0.92699 0.00479 0.0
C261 C 0.57819 0.93973 0.98542 0.0
C262 C 0.56558 0.95741 0.99197 0.0
C263 C 0.56163 0.96213 0.01784 0.0
C264 C 0.57011 0.94898 0.03722 0.0
C265 C 0.583 0.93148 0.03078 0.0
H266 H 0.55191 0.9759 0.02286 0.0
H267 H 0.6788 0.80925 0.9553 0.0
H268 H 0.23706 0.80501 0.0022 0.0
H269 H 0.18954 0.7671 0.98303 0.0
H270 H 0.14273 0.76553 0.05251 0.0
H271 H 0.18995 0.80339 0.07176 0.0
H272 H 0.12132 0.70831 0.0301 0.0
H273 H 0.14701 0.81012 0.00566 0.0
H274 H 0.18009 0.85976 0.98625 0.0
H275 H 0.17717 0.81786 0.91387 0.0
H276 H 0.14438 0.76792 0.933 0.0
H277 H 0.97361 0.66851 0.003 0.0
H278 H 0.02642 0.69419 0.01506 0.0
H279 H 0.05118 0.69426 0.93558 0.0
H280 H -0.00191 0.66909 0.92319 0.0
H281 H 0.08734 0.74652 0.95718 0.0
H282 H 0.05325 0.64491 0.97968 0.0
H283 H 0.01934 0.59556 0.9991 0.0
H284 H 0.03815 0.63544 0.07442 0.0
H285 H 0.07177 0.68516 0.05544 0.0
C286 C 0.21674 0.79613 0.01359 0.0
C287 C 0.21715 0.80742 0.03838 0.0
C288 C 0.18965 0.77455 0.00259 0.0
C289 C 0.16269 0.76383 0.01629 0.0
C290 C 0.16334 0.77357 0.04165 0.0
C291 C 0.19031 0.79532 0.05255 0.0
C292 C 0.13341 0.7448 0.00364 0.0
C293 C 0.11379 0.71653 0.01415 0.0
C294 C 0.12408 0.75532 0.98235 0.0
C295 C 0.14359 0.78532 0.97083 0.0
C296 C 0.15363 0.8115 0.98567 0.0
C297 C 0.17229 0.83968 0.97471 0.0
C298 C 0.18081 0.84195 0.94886 0.0
C299 C 0.17061 0.81605 0.9339 0.0
C300 C 0.15199 0.78781 0.94479 0.0
C301 C 0.99025 0.67409 0.98802 0.0
C302 C 0.98167 0.66665 0.96215 0.0
C303 C 0.02045 0.68853 0.99499 0.0
C304 C 0.0427 0.6954 0.97632 0.0
C305 C 0.03432 0.68886 0.95033 0.0
C306 C 0.00402 0.6746 0.94328 0.0
C307 C 0.07469 0.71021 0.98412 0.0
C308 C 0.09491 0.73776 0.9727 0.0
C309 C 0.08458 0.69889 0.00449 0.0
C310 C 0.06486 0.66886 0.01607 0.0
C311 C 0.05004 0.64321 0.00037 0.0
C312 C 0.03086 0.61515 0.01131 0.0
C313 C 0.02646 0.61243 0.03797 0.0
C314 C 0.0415 0.63765 0.05377 0.0
C315 C 0.06065 0.66576 0.04293 0.0
H316 H 0.01134 0.59082 0.04643 0.0
H317 H 0.19525 0.86379 0.94041 0.0
H318 H 0.65839 0.677 0.58299 0.0
H319 H 0.64888 0.71761 0.57129 0.0
H320 H 0.74328 0.7753 0.55546 0.0
H321 H 0.753 0.73528 0.56903 0.0
H322 H 0.72192 0.80842 0.57094 0.0
H323 H 0.69003 0.72937 0.50796 0.0
H324 H 0.66198 0.67712 0.49232 0.0
H325 H 0.57867 0.67309 0.51095 0.0
H326 H 0.60627 0.72521 0.52705 0.0
H327 H 0.71469 0.88633 0.45919 0.0
H328 H 0.72064 0.85358 0.48993 0.0
H329 H 0.63161 0.82337 0.51929 0.0
H330 H 0.62569 0.8567 0.48897 0.0
H331 H 0.64594 0.77723 0.50127 0.0
H332 H 0.68177 0.8619 0.55796 0.0
H333 H 0.71295 0.91513 0.57013 0.0
H334 H 0.79282 0.90977 0.5585 0.0
H335 H 0.76212 0.85659 0.54587 0.0
C336 C 0.67716 0.69871 0.57776 0.0
C337 C 0.70636 0.70315 0.5767 0.0
C338 C 0.67172 0.72179 0.57088 0.0
C339 C 0.6952 0.74919 0.56161 0.0
C340 C 0.72475 0.75432 0.56236 0.0
C341 C 0.73032 0.73149 0.57009 0.0
C342 C 0.68869 0.77114 0.54875 0.0
C343 C 0.70539 0.80159 0.55566 0.0
C344 C 0.66686 0.76226 0.52893 0.0
C345 C 0.65021 0.73105 0.51897 0.0
C346 C 0.66573 0.71727 0.50885 0.0
C347 C 0.64992 0.68769 0.4999 0.0
C348 C 0.61857 0.67176 0.50071 0.0
C349 C 0.60296 0.68543 0.51039 0.0
C350 C 0.61867 0.71499 0.51942 0.0
C351 C 0.69648 0.87295 0.47237 0.0
C352 C 0.66966 0.87393 0.47162 0.0
C353 C 0.7 0.85443 0.48999 0.0
C354 C 0.67662 0.83627 0.50688 0.0
C355 C 0.64994 0.83743 0.50646 0.0
C356 C 0.64662 0.85644 0.48917 0.0
C357 C 0.67931 0.81432 0.52336 0.0
C358 C 0.66204 0.78389 0.51693 0.0
C359 C 0.70107 0.82335 0.54309 0.0
C360 C 0.71962 0.8553 0.55076 0.0
C361 C 0.70598 0.87213 0.55777 0.0
C362 C 0.72358 0.90229 0.5648 0.0
C363 C 0.75485 0.91584 0.56503 0.0
C364 C 0.76859 0.89924 0.55829 0.0
C365 C 0.7511 0.86908 0.55122 0.0
H366 H 0.76843 0.93919 0.57049 0.0
H367 H 0.60636 0.64885 0.4938 0.0
H368 H 0.17522 0.77993 0.47467 0.0
H369 H 0.20471 0.8209 0.50461 0.0
H370 H 0.14102 0.85196 0.49685 0.0
H371 H 0.11248 0.81202 0.4657 0.0
H372 H 0.19233 0.89724 0.49693 0.0
H373 H 0.14565 0.81319 0.55268 0.0
H374 H 0.12924 0.76214 0.56869 0.0
H375 H 0.22114 0.78456 0.57779 0.0
H376 H 0.23813 0.83563 0.56148 0.0
H377 H 0.27068 0.00531 0.59214 0.0
H378 H 0.22854 0.95604 0.58026 0.0
H379 H 0.29069 0.92787 0.55543 0.0
H380 H 0.3328 0.97709 0.56678 0.0
H381 H 0.2327 0.88016 0.57816 0.0
H382 H 0.27543 0.96098 0.51269 0.0
H383 H 0.29046 0.01285 0.49991 0.0
H384 H 0.20061 0.99515 0.51314 0.0
H385 H 0.1852 0.94325 0.5264 0.0
C386 C 0.16764 0.79562 0.47929 0.0
C387 C 0.14164 0.79288 0.46787 0.0
C388 C 0.18429 0.81882 0.49665 0.0
C389 C 0.17469 0.83912 0.5036 0.0
C390 C 0.14884 0.83654 0.49194 0.0
C391 C 0.13259 0.81377 0.47408 0.0
C392 C 0.19242 0.86381 0.5221 0.0
C393 C 0.20044 0.89323 0.51496 0.0
C394 C 0.20323 0.85888 0.54572 0.0
C395 C 0.19316 0.82821 0.55569 0.0
C396 C 0.16237 0.80719 0.55794 0.0
C397 C 0.15296 0.77825 0.56709 0.0
C398 C 0.17413 0.7701 0.57422 0.0
C399 C 0.20476 0.7909 0.57226 0.0
C400 C 0.21429 0.81987 0.5631 0.0
C401 C 0.27532 0.9882 0.58509 0.0
C402 C 0.30491 0.99504 0.58 0.0
C403 C 0.25125 0.96012 0.57833 0.0
C404 C 0.25664 0.93856 0.5668 0.0
C405 C 0.28616 0.94424 0.56439 0.0
C406 C 0.31016 0.97241 0.57071 0.0
C407 C 0.23259 0.91299 0.55259 0.0
C408 C 0.22367 0.88366 0.56043 0.0
C409 C 0.22039 0.91781 0.52989 0.0
C410 C 0.22926 0.94843 0.52074 0.0
C411 C 0.25892 0.9682 0.51293 0.0
C412 C 0.26751 0.99758 0.50563 0.0
C413 C 0.24652 0.0073 0.50581 0.0
C414 C 0.21684 0.98758 0.51307 0.0
C415 C 0.20817 0.95819 0.52047 0.0
H416 H 0.25328 0.03011 0.50036 0.0
H417 H 0.1668 0.74768 0.58129 0.0
H418 H 0.99698 0.35811 0.54956 0.0
H419 H 0.04665 0.37148 0.53334 0.0
H420 H 0.03769 0.29017 0.56591 0.0
H421 H 0.98816 0.27705 0.58292 0.0
H422 H 0.09513 0.33498 0.56809 0.0
H423 H 0.01738 0.29126 0.50444 0.0
H424 H 0.97487 0.28626 0.47857 0.0
H425 H 0.03106 0.37392 0.44643 0.0
H426 H 0.07378 0.37968 0.47248 0.0
H427 H 0.16935 0.32047 0.4422 0.0
H428 H 0.12581 0.31407 0.4662 0.0
H429 H 0.18358 0.38883 0.51509 0.0
H430 H 0.22748 0.3948 0.49162 0.0
H431 H 0.10191 0.34725 0.47299 0.0
H432 H 0.15331 0.37754 0.57536 0.0
H433 H 0.19326 0.37623 0.60071 0.0
H434 H 0.18567 0.30391 0.55385 0.0
H435 H 0.14543 0.30454 0.52846 0.0
C436 C 0.00585 0.34338 0.55376 0.0
C437 C 0.98855 0.3163 0.56718 0.0
C438 C 0.03419 0.35103 0.54443 0.0
C439 C 0.04548 0.33144 0.54787 0.0
C440 C 0.02928 0.30551 0.56293 0.0
C441 C 0.001 0.29802 0.57262 0.0
C442 C 0.07258 0.33649 0.53363 0.0
C443 C 0.09674 0.33782 0.54732 0.0
C444 C 0.07431 0.33949 0.50645 0.0
C445 C 0.0487 0.33603 0.49063 0.0
C446 C 0.02061 0.30957 0.49201 0.0
C447 C 0.99648 0.3066 0.47731 0.0
C448 C 0.00023 0.32981 0.46094 0.0
C449 C 0.02817 0.35599 0.45916 0.0
C450 C 0.05235 0.35912 0.47389 0.0
C451 C 0.17285 0.33565 0.458 0.0
C452 C 0.20191 0.35805 0.46508 0.0
C453 C 0.1479 0.33197 0.4717 0.0
C454 C 0.15143 0.35072 0.49266 0.0
C455 C 0.18035 0.37371 0.49932 0.0
C456 C 0.2054 0.3772 0.48579 0.0
C457 C 0.12472 0.346 0.50742 0.0
C458 C 0.10054 0.34471 0.49379 0.0
C459 C 0.12266 0.34215 0.53453 0.0
C460 C 0.1466 0.34133 0.54985 0.0
C461 C 0.16011 0.3613 0.57053 0.0
C462 C 0.18281 0.36069 0.58489 0.0
C463 C 0.19207 0.34007 0.57883 0.0
C464 C 0.17856 0.31995 0.55846 0.0
C465 C 0.15583 0.32045 0.54406 0.0
H466 H 0.20967 0.33965 0.58996 0.0
H467 H 0.98152 0.32747 0.44958 0.0
H468 H 0.66417 0.71125 0.00162 0.0
H469 H 0.70051 0.69644 0.98867 0.0
H470 H 0.70635 0.67235 0.06727 0.0
H471 H 0.67051 0.68799 0.08056 0.0
H472 H 0.75997 0.69787 0.04537 0.0
H473 H 0.66265 0.61842 0.0236 0.0
H474 H 0.61181 0.59472 0.00483 0.0
H475 H 0.64955 0.62243 0.92919 0.0
H476 H 0.70063 0.64665 0.94754 0.0
H477 H 0.82077 0.60447 0.00758 0.0
H478 H 0.7851 0.61881 0.02425 0.0
H479 H 0.79081 0.66436 0.95288 0.0
H480 H 0.82686 0.65062 0.9362 0.0
H481 H 0.73007 0.62477 0.97343 0.0
H482 H 0.82857 0.70599 0.99848 0.0
H483 H 0.87807 0.72659 0.01938 0.0
H484 H 0.83531 0.69034 0.09208 0.0
H485 H 0.78553 0.66915 0.0715 0.0
C486 C 0.67342 0.70312 0.01622 0.0
C487 C 0.66426 0.70048 0.04206 0.0
C488 C 0.69407 0.69451 0.00877 0.0
C489 C 0.70552 0.68257 0.0269 0.0
C490 C 0.69759 0.6813 0.05295 0.0
C491 C 0.67715 0.69026 0.0605 0.0
C492 C 0.72497 0.67056 0.01838 0.0
C493 C 0.75324 0.68156 0.0299 0.0
C494 C 0.71618 0.64927 0.99817 0.0
C495 C 0.68548 0.63458 0.98698 0.0
C496 C 0.66011 0.61964 0.00298 0.0
C497 C 0.63125 0.60608 0.99242 0.0
C498 C 0.62745 0.60713 0.96585 0.0
C499 C 0.65252 0.62166 0.94978 0.0
C500 C 0.68144 0.63527 0.96024 0.0
C501 C 0.81426 0.61735 0.99538 0.0
C502 C 0.82665 0.62652 0.97063 0.0
C503 C 0.794 0.62558 0.00495 0.0
C504 C 0.78555 0.64271 0.98978 0.0
C505 C 0.79715 0.65113 0.96481 0.0
C506 C 0.81778 0.64336 0.95538 0.0
C507 C 0.7651 0.65251 0.00011 0.0
C508 C 0.73663 0.64096 0.98897 0.0
C509 C 0.77345 0.67278 0.021 0.0
C510 C 0.80335 0.6857 0.03339 0.0
C511 C 0.82973 0.70218 0.01887 0.0
C512 C 0.85783 0.71401 0.03067 0.0
C513 C 0.85984 0.7097 0.05703 0.0
C514 C 0.83373 0.69362 0.07166 0.0
C515 C 0.80557 0.68171 0.05994 0.0
H516 H 0.88161 0.71888 0.06613 0.0
H517 H 0.60509 0.59663 0.95771 0.0
H518 H 0.3473 0.17413 0.93498 0.0
H519 H 0.33394 0.1255 0.95363 0.0
H520 H 0.38846 0.16953 0.02032 0.0
H521 H 0.40258 0.21849 0.00146 0.0
H522 H 0.39454 0.1227 0.00623 0.0
H523 H 0.31256 0.13932 0.02267 0.0
H524 H 0.2734 0.15191 0.01197 0.0
H525 H 0.23161 0.07618 0.96092 0.0
H526 H 0.27078 0.06338 0.97103 0.0
H527 H 0.32262 0.98714 0.08175 0.0
H528 H 0.33838 0.03849 0.0676 0.0
H529 H 0.30012 0.00505 0.99258 0.0
H530 H 0.2848 0.9539 0.00634 0.0
H531 H 0.28615 0.04788 0.01475 0.0
H532 H 0.37026 0.03295 0.99785 0.0
H533 H 0.40921 0.02051 0.00979 0.0
H534 H 0.44692 0.09375 0.06356 0.0
H535 H 0.40779 0.10627 0.05232 0.0
C536 C 0.35663 0.17354 0.95355 0.0
C537 C 0.37577 0.20018 0.96686 0.0
C538 C 0.34887 0.1457 0.96423 0.0
C539 C 0.3597 0.14389 0.98861 0.0
C540 C 0.37973 0.17044 0.00154 0.0
C541 C 0.38773 0.19838 0.99075 0.0
C542 C 0.3494 0.11423 0.00075 0.0
C543 C 0.37086 0.10652 0.00849 0.0
C544 C 0.31847 0.09302 0.00348 0.0
C545 C 0.29476 0.10054 0.99745 0.0
C546 C 0.29514 0.12548 0.00902 0.0
C547 C 0.27292 0.13263 0.00309 0.0
C548 C 0.25007 0.11489 0.98574 0.0
C549 C 0.24934 0.08992 0.97434 0.0
C550 C 0.27153 0.08268 0.98018 0.0
C551 C 0.31727 0.99074 0.06235 0.0
C552 C 0.30255 0.96659 0.04511 0.0
C553 C 0.32643 0.02002 0.05428 0.0
C554 C 0.32057 0.02542 0.02902 0.0
C555 C 0.30487 0.00124 0.01213 0.0
C556 C 0.29619 0.9721 0.02001 0.0
C557 C 0.33124 0.05631 0.01984 0.0
C558 C 0.30982 0.06422 0.0127 0.0
C559 C 0.36216 0.0777 0.01787 0.0
C560 C 0.38578 0.07026 0.02454 0.0
C561 C 0.38663 0.04619 0.01244 0.0
C562 C 0.40878 0.03916 0.01904 0.0
C563 C 0.43039 0.05622 0.03754 0.0
C564 C 0.43006 0.08048 0.04933 0.0
C565 C 0.40789 0.08754 0.04286 0.0
H566 H 0.4474 0.05064 0.04274 0.0
H567 H 0.23289 0.12047 0.98116 0.0
H568 H 0.01094 0.36027 0.0263 0.0
H569 H 0.95988 0.32196 0.01457 0.0
H570 H 0.9696 0.25601 0.05834 0.0
H571 H 0.0207 0.2946 0.07085 0.0
H572 H 0.95041 0.24468 0.00064 0.0
H573 H 0.92646 0.26998 0.08387 0.0
H574 H 0.92788 0.30533 0.11671 0.0
H575 H 0.88537 0.33693 0.06398 0.0
H576 H 0.8841 0.30206 0.03068 0.0
H577 H 0.80352 0.12884 0.9739 0.0
H578 H 0.85099 0.16257 0.99519 0.0
H579 H 0.8331 0.23577 0.98647 0.0
H580 H 0.78444 0.20132 0.9669 0.0
H581 H 0.85704 0.24175 0.02968 0.0
H582 H 0.88364 0.22386 0.94587 0.0
H583 H 0.88457 0.194 0.90905 0.0
H584 H 0.92474 0.15533 0.95676 0.0
H585 H 0.9237 0.1847 0.99396 0.0
C586 C 0.00213 0.33767 0.03362 0.0
C587 C 0.01976 0.3303 0.04939 0.0
C588 C 0.97298 0.31591 0.02699 0.0
C589 C 0.96115 0.28634 0.03567 0.0
C590 C 0.97849 0.27885 0.0516 0.0
C591 C 0.00752 0.30083 0.05874 0.0
C592 C 0.93127 0.26311 0.02666 0.0
C593 C 0.92982 0.24347 0.0073 0.0
C594 C 0.90485 0.26275 0.03465 0.0
C595 C 0.90542 0.28358 0.05471 0.0
C596 C 0.91766 0.28465 0.0792 0.0
C597 C 0.91838 0.30456 0.09792 0.0
C598 C 0.90678 0.32341 0.09242 0.0
C599 C 0.89437 0.32233 0.06821 0.0
C600 C 0.8936 0.30247 0.04942 0.0
C601 C 0.80979 0.15215 0.97657 0.0
C602 C 0.79058 0.16265 0.96861 0.0
C603 C 0.837 0.17148 0.9886 0.0
C604 C 0.84611 0.20198 0.9919 0.0
C605 C 0.82668 0.21238 0.98414 0.0
C606 C 0.79897 0.19278 0.97286 0.0
C607 C 0.87586 0.22302 0.00336 0.0
C608 C 0.87742 0.24248 0.0231 0.0
C609 C 0.9026 0.22389 0.99511 0.0
C610 C 0.90329 0.20623 0.97276 0.0
C611 C 0.89247 0.20883 0.94855 0.0
C612 C 0.89305 0.19202 0.92761 0.0
C613 C 0.90463 0.17272 0.93058 0.0
C614 C 0.91573 0.17025 0.95449 0.0
C615 C 0.91518 0.18699 0.97551 0.0
H616 H 0.90506 0.15972 0.91434 0.0
H617 H 0.90737 0.33881 0.10694 0.0
H618 H 0.33047 0.14531 0.55128 0.0
H619 H 0.31415 0.17074 0.52149 0.0
H620 H 0.36051 0.15542 0.45927 0.0
H621 H 0.37718 0.12963 0.48921 0.0
H622 H 0.36907 0.21358 0.45941 0.0
H623 H 0.28714 0.11528 0.45638 0.0
H624 H 0.24877 0.06552 0.47215 0.0
H625 H 0.2099 0.10637 0.5187 0.0
H626 H 0.24798 0.15646 0.50306 0.0
H627 H 0.29469 0.28355 0.39476 0.0
H628 H 0.30555 0.24259 0.40195 0.0
H629 H 0.28338 0.24042 0.4824 0.0
H630 H 0.27309 0.28131 0.47553 0.0
H631 H 0.2607 0.18208 0.45833 0.0
H632 H 0.35217 0.28191 0.46418 0.0
H633 H 0.38802 0.32975 0.44352 0.0
H634 H 0.40851 0.28218 0.38643 0.0
H635 H 0.37186 0.2339 0.40625 0.0
C636 C 0.33739 0.14735 0.53132 0.0
C637 C 0.35504 0.13527 0.52264 0.0
C638 C 0.32784 0.16175 0.51425 0.0
C639 C 0.33563 0.16441 0.4881 0.0
C640 C 0.35405 0.15331 0.47937 0.0
C641 C 0.36356 0.13866 0.4965 0.0
C642 C 0.32452 0.17934 0.47046 0.0
C643 C 0.34531 0.20627 0.4585 0.0
C644 C 0.29352 0.1696 0.46897 0.0
C645 C 0.27051 0.13964 0.47862 0.0
C646 C 0.27051 0.11367 0.4701 0.0
C647 C 0.24879 0.0854 0.479 0.0
C648 C 0.22701 0.08277 0.49656 0.0
C649 C 0.2268 0.10844 0.50512 0.0
C650 C 0.24837 0.13678 0.49614 0.0
C651 C 0.29174 0.27396 0.41386 0.0
C652 C 0.28337 0.28575 0.43466 0.0
C653 C 0.2979 0.25063 0.4179 0.0
C654 C 0.29526 0.23861 0.4427 0.0
C655 C 0.28541 0.24935 0.46311 0.0
C656 C 0.27978 0.27287 0.4592 0.0
C657 C 0.30534 0.21692 0.44851 0.0
C658 C 0.28433 0.18877 0.45837 0.0
C659 C 0.33604 0.22526 0.44753 0.0
C660 C 0.359 0.25432 0.43646 0.0
C661 C 0.36416 0.28164 0.44712 0.0
C662 C 0.38461 0.30883 0.43555 0.0
C663 C 0.40052 0.30902 0.41365 0.0
C664 C 0.3961 0.28199 0.40335 0.0
C665 C 0.37542 0.25471 0.41469 0.0
H666 H 0.41632 0.3301 0.40469 0.0
H667 H 0.21026 0.06084 0.50347 0.0
H668 H 0.85821 0.19109 0.53728 0.0
H669 H 0.83076 0.15353 0.50412 0.0
H670 H 0.79254 0.20614 0.47619 0.0
H671 H 0.82065 0.2445 0.50907 0.0
H672 H 0.75151 0.13825 0.48701 0.0
H673 H 0.83799 0.20998 0.43949 0.0
H674 H 0.89221 0.24425 0.4332 0.0
H675 H 0.90813 0.17003 0.43885 0.0
H676 H 0.85403 0.13536 0.44563 0.0
H677 H 0.68064 0.02476 0.39751 0.0
H678 H 0.71072 0.07781 0.40926 0.0
H679 H 0.78418 0.06394 0.43028 0.0
H680 H 0.75478 0.01146 0.4168 0.0
H681 H 0.80602 0.11973 0.41691 0.0
H682 H 0.72531 0.05087 0.47303 0.0
H683 H 0.67253 0.01433 0.48342 0.0
H684 H 0.64724 0.08042 0.46629 0.0
H685 H 0.69981 0.11721 0.4554 0.0
C686 C 0.84382 0.19465 0.52424 0.0
C687 C 0.84153 0.22073 0.52579 0.0
C688 C 0.82834 0.17327 0.50522 0.0
C689 C 0.80997 0.17735 0.48768 0.0
C690 C 0.80683 0.20284 0.48955 0.0
C691 C 0.82283 0.22462 0.50831 0.0
C692 C 0.79384 0.15441 0.46774 0.0
C693 C 0.76314 0.13458 0.47121 0.0
C694 C 0.80944 0.1494 0.4477 0.0
C695 C 0.84195 0.1701 0.44326 0.0
C696 C 0.85307 0.20099 0.43961 0.0
C697 C 0.88379 0.22049 0.43592 0.0
C698 C 0.90361 0.20934 0.43568 0.0
C699 C 0.89275 0.17864 0.43905 0.0
C700 C 0.86205 0.15905 0.44279 0.0
C701 C 0.70372 0.03352 0.4035 0.0
C702 C 0.71551 0.01428 0.40643 0.0
C703 C 0.72079 0.06369 0.41043 0.0
C704 C 0.74927 0.07455 0.42156 0.0
C705 C 0.76216 0.05603 0.42194 0.0
C706 C 0.74542 0.02606 0.41421 0.0
C707 C 0.76358 0.10306 0.43635 0.0
C708 C 0.79404 0.12382 0.43213 0.0
C709 C 0.7479 0.10861 0.45616 0.0
C710 C 0.71639 0.08666 0.46311 0.0
C711 C 0.70845 0.05755 0.47137 0.0
C712 C 0.67858 0.03679 0.47733 0.0
C713 C 0.65654 0.04503 0.47544 0.0
C714 C 0.66433 0.07406 0.46767 0.0
C715 C 0.69415 0.09486 0.46159 0.0
H716 H 0.63344 0.02896 0.48006 0.0
H717 H 0.92739 0.22447 0.43284 0.0
H718 H 0.98157 0.68985 0.39579 0.0
H719 H 0.92793 0.667 0.40622 0.0
H720 H 0.94722 0.65767 0.48556 0.0
H721 H -5e-05 0.6793 0.47531 0.0
H722 H 0.89912 0.60851 0.47039 0.0
H723 H 0.93731 0.7166 0.46339 0.0
H724 H 0.96011 0.76475 0.43989 0.0
H725 H 0.88924 0.72642 0.38384 0.0
H726 H 0.86621 0.67793 0.40689 0.0
H727 H 0.80925 0.62906 0.55923 0.0
H728 H 0.84721 0.63082 0.52999 0.0
H729 H 0.78952 0.61778 0.46506 0.0
H730 H 0.75104 0.61568 0.49437 0.0
H731 H 0.84747 0.66759 0.46042 0.0
H732 H 0.8028 0.5636 0.47854 0.0
H733 H 0.78139 0.51768 0.50501 0.0
H734 H 0.86607 0.54994 0.54329 0.0
H735 H 0.88787 0.59631 0.51746 0.0
C736 C 0.97425 0.68283 0.41541 0.0
C737 C 0.99504 0.68653 0.43473 0.0
C738 C 0.94366 0.66978 0.42134 0.0
C739 C 0.93358 0.66063 0.44669 0.0
C740 C 0.95437 0.66421 0.46582 0.0
C741 C 0.98465 0.67686 0.45992 0.0
C742 C 0.90176 0.64833 0.4542 0.0
C743 C 0.88773 0.62134 0.46817 0.0
C744 C 0.88647 0.66451 0.45044 0.0
C745 C 0.9003 0.69359 0.43663 0.0
C746 C 0.92674 0.71841 0.44594 0.0
C747 C 0.93967 0.74575 0.43273 0.0
C748 C 0.9262 0.74861 0.41033 0.0
C749 C 0.8997 0.72415 0.40115 0.0
C750 C 0.8867 0.69674 0.41427 0.0
C751 C 0.80443 0.62617 0.53877 0.0
C752 C 0.77722 0.62237 0.52908 0.0
C753 C 0.82606 0.62697 0.5221 0.0
C754 C 0.82103 0.62417 0.4954 0.0
C755 C 0.79368 0.61976 0.48563 0.0
C756 C 0.77176 0.61853 0.50239 0.0
C757 C 0.84573 0.62876 0.47797 0.0
C758 C 0.85834 0.65419 0.46201 0.0
C759 C 0.86 0.61144 0.48033 0.0
C760 C 0.84694 0.58357 0.49608 0.0
C761 C 0.81681 0.56105 0.49276 0.0
C762 C 0.8046 0.53491 0.50764 0.0
C763 C 0.82234 0.53091 0.52585 0.0
C764 C 0.85234 0.55305 0.52919 0.0
C765 C 0.86464 0.57927 0.5144 0.0
H766 H 0.81284 0.51064 0.53733 0.0
H767 H 0.93624 0.7698 0.40014 0.0
H768 H 0.21558 0.32346 0.3265 0.0
H769 H 0.20077 0.33599 0.28589 0.0
H770 H 0.25568 0.43034 0.30291 0.0
H771 H 0.27077 0.41787 0.344 0.0
H772 H 0.1974 0.4142 0.28675 0.0
H773 H 0.27845 0.40301 0.25663 0.0
H774 H 0.30974 0.37934 0.25217 0.0
H775 H 0.23558 0.30133 0.21833 0.0
H776 H 0.20369 0.32433 0.22292 0.0
H777 H 0.15723 0.4352 0.15647 0.0
H778 H 0.18433 0.43941 0.19667 0.0
H779 H 0.14544 0.34316 0.19844 0.0
H780 H 0.11877 0.33883 0.15848 0.0
H781 H 0.20558 0.37148 0.20345 0.0
H782 H 0.12305 0.37984 0.23993 0.0
H783 H 0.09128 0.40291 0.24512 0.0
H784 H 0.16851 0.48635 0.26696 0.0
H785 H 0.20081 0.46384 0.26158 0.0
C786 C 0.22482 0.34691 0.32156 0.0
C787 C 0.24439 0.36968 0.33845 0.0
C788 C 0.21638 0.35404 0.29827 0.0
C789 C 0.22727 0.38409 0.2913 0.0
C790 C 0.2471 0.40701 0.30793 0.0
C791 C 0.25583 0.39986 0.33128 0.0
C792 C 0.21666 0.39093 0.26703 0.0
C793 C 0.19977 0.40552 0.26837 0.0
C794 C 0.2195 0.37931 0.24316 0.0
C795 C 0.23862 0.36537 0.24025 0.0
C796 C 0.26874 0.38072 0.2484 0.0
C797 C 0.2866 0.36743 0.24582 0.0
C798 C 0.27465 0.33884 0.235 0.0
C799 C 0.24482 0.32349 0.2267 0.0
C800 C 0.22685 0.33666 0.22925 0.0
C801 C 0.15409 0.41494 0.16571 0.0
C802 C 0.13601 0.3867 0.15422 0.0
C803 C 0.16961 0.41738 0.18864 0.0
C804 C 0.16707 0.3916 0.20044 0.0
C805 C 0.14799 0.36338 0.18953 0.0
C806 C 0.13264 0.36094 0.16671 0.0
C807 C 0.18523 0.39357 0.22337 0.0
C808 C 0.20369 0.38072 0.2217 0.0
C809 C 0.18379 0.40678 0.24686 0.0
C810 C 0.16439 0.42029 0.25002 0.0
C811 C 0.13329 0.40319 0.2456 0.0
C812 C 0.11518 0.41614 0.24863 0.0
C813 C 0.12788 0.44611 0.25627 0.0
C814 C 0.15871 0.46316 0.26098 0.0
C815 C 0.17693 0.45032 0.25795 0.0
H816 H 0.11382 0.45609 0.25862 0.0
H817 H 0.28851 0.32859 0.23303 0.0
H818 H 0.55352 0.71473 0.15891 0.0
H819 H 0.55302 0.73244 0.20284 0.0
H820 H 0.64957 0.77503 0.20587 0.0
H821 H 0.65024 0.75784 0.16219 0.0
H822 H 0.62124 0.74665 0.25238 0.0
H823 H 0.61934 0.81502 0.18784 0.0
H824 H 0.59698 0.82711 0.15095 0.0
H825 H 0.51594 0.79874 0.19414 0.0
H826 H 0.53773 0.78608 0.23118 0.0
H827 H 0.68856 0.87288 0.33028 0.0
H828 H 0.67003 0.83722 0.29478 0.0
H829 H 0.57987 0.81911 0.30928 0.0
H830 H 0.59844 0.85536 0.34494 0.0
H831 H 0.59255 0.82543 0.2583 0.0
H832 H 0.59898 0.76742 0.32624 0.0
H833 H 0.62157 0.7558 0.36321 0.0
H834 H 0.69269 0.76335 0.31473 0.0
H835 H 0.67079 0.77547 0.27753 0.0
C836 C 0.57453 0.72732 0.16921 0.0
C837 C 0.60194 0.73512 0.15713 0.0
C838 C 0.57422 0.7375 0.19421 0.0
C839 C 0.60129 0.7552 0.20748 0.0
C840 C 0.62845 0.76136 0.19598 0.0
C841 C 0.6288 0.75164 0.17098 0.0
C842 C 0.60212 0.76976 0.23233 0.0
C843 C 0.61489 0.7638 0.25379 0.0
C844 C 0.59297 0.79148 0.23429 0.0
C845 C 0.57999 0.79924 0.21211 0.0
C846 C 0.59666 0.81113 0.18937 0.0
C847 C 0.58411 0.81812 0.16846 0.0
C848 C 0.55501 0.8136 0.17017 0.0
C849 C 0.53844 0.80216 0.19282 0.0
C850 C 0.55088 0.79507 0.21378 0.0
C851 C 0.66477 0.86139 0.32599 0.0
C852 C 0.64495 0.86688 0.34052 0.0
C853 C 0.65417 0.84082 0.30576 0.0
C854 C 0.62347 0.82502 0.29971 0.0
C855 C 0.60362 0.83087 0.31378 0.0
C856 C 0.61426 0.85159 0.3341 0.0
C857 C 0.61269 0.80308 0.27819 0.0
C858 C 0.59811 0.80768 0.2573 0.0
C859 C 0.62005 0.77998 0.27681 0.0
C860 C 0.63328 0.77249 0.29909 0.0
C861 C 0.61954 0.76679 0.32348 0.0
C862 C 0.63221 0.76009 0.34448 0.0
C863 C 0.65857 0.75887 0.34133 0.0
C864 C 0.67227 0.76429 0.31714 0.0
C865 C 0.6597 0.77103 0.29608 0.0
H866 H 0.66835 0.75368 0.35761 0.0
H867 H 0.54534 0.81903 0.15396 0.0
H868 H 0.28394 0.84063 0.16199 0.0
H869 H 0.26417 0.8195 0.20477 0.0
H870 H 0.21281 0.86499 0.20558 0.0
H871 H 0.23242 0.88611 0.16321 0.0
H872 H 0.23764 0.86729 0.25245 0.0
H873 H 0.18107 0.79257 0.18681 0.0
H874 H 0.1757 0.75939 0.1504 0.0
H875 H 0.21222 0.71598 0.19664 0.0
H876 H 0.21816 0.74921 0.23323 0.0
H877 H 0.11198 0.79022 0.33049 0.0
H878 H 0.14532 0.8107 0.29349 0.0
H879 H 0.18309 0.75423 0.31046 0.0
H880 H 0.14938 0.73326 0.34768 0.0
H881 H 0.17341 0.75654 0.25837 0.0
H882 H 0.22222 0.82645 0.32637 0.0
H883 H 0.22635 0.85924 0.36268 0.0
H884 H 0.20446 0.91182 0.3123 0.0
H885 H 0.19974 0.87906 0.27575 0.0
C886 C 0.26887 0.84653 0.17154 0.0
C887 C 0.25958 0.86487 0.15918 0.0
C888 C 0.25747 0.83432 0.19588 0.0
C889 C 0.23674 0.8404 0.2082 0.0
C890 C 0.22874 0.85996 0.19643 0.0
C891 C 0.23991 0.87195 0.17214 0.0
C892 C 0.22178 0.82527 0.2326 0.0
C893 C 0.22359 0.84308 0.25376 0.0
C894 C 0.20409 0.79363 0.23455 0.0
C895 C 0.20042 0.77361 0.21262 0.0
C896 C 0.18818 0.77611 0.18913 0.0
C897 C 0.18499 0.75727 0.16848 0.0
C898 C 0.19371 0.73566 0.17118 0.0
C899 C 0.20554 0.73278 0.19456 0.0
C900 C 0.20882 0.7516 0.21526 0.0
C901 C 0.12719 0.78193 0.32633 0.0
C902 C 0.12815 0.76023 0.34216 0.0
C903 C 0.14637 0.7938 0.30521 0.0
C904 C 0.16711 0.78444 0.29953 0.0
C905 C 0.16739 0.76192 0.31465 0.0
C906 C 0.14812 0.74996 0.33587 0.0
C907 C 0.18856 0.79866 0.27791 0.0
C908 C 0.18797 0.7807 0.25731 0.0
C909 C 0.20739 0.83021 0.27645 0.0
C910 C 0.21046 0.85017 0.29834 0.0
C911 C 0.21809 0.84488 0.32306 0.0
C912 C 0.22057 0.86348 0.34368 0.0
C913 C 0.21563 0.88757 0.33981 0.0
C914 C 0.20828 0.89315 0.31528 0.0
C915 C 0.20574 0.87459 0.29459 0.0
H916 H 0.21755 0.90194 0.3558 0.0
H917 H 0.19122 0.72109 0.15517 0.0
H918 H 0.83814 0.56944 0.85512 0.0
H919 H 0.81309 0.56673 0.81415 0.0
H920 H 0.87585 0.66051 0.80056 0.0
H921 H 0.90046 0.66348 0.84148 0.0
H922 H 0.81991 0.64929 0.79592 0.0
H923 H 0.87668 0.60374 0.76528 0.0
H924 H 0.89339 0.56636 0.76521 0.0
H925 H 0.80248 0.49558 0.75405 0.0
H926 H 0.78517 0.53253 0.75439 0.0
H927 H 0.80354 0.67591 0.66659 0.0
H928 H 0.82092 0.66725 0.70763 0.0
H929 H 0.74525 0.57719 0.71003 0.0
H930 H 0.72756 0.58569 0.66854 0.0
H931 H 0.80008 0.58036 0.72225 0.0
H932 H 0.74431 0.62698 0.74887 0.0
H933 H 0.7282 0.66481 0.74818 0.0
H934 H 0.81782 0.73393 0.76679 0.0
H935 H 0.83458 0.69658 0.76723 0.0
C936 C 0.84695 0.58928 0.84311 0.0
C937 C 0.87114 0.61672 0.85159 0.0
C938 C 0.8326 0.58771 0.81971 0.0
C939 C 0.84249 0.61347 0.80434 0.0
C940 C 0.86764 0.64042 0.81221 0.0
C941 C 0.88178 0.64205 0.83557 0.0
C942 C 0.82562 0.61332 0.78104 0.0
C943 C 0.81585 0.63437 0.77973 0.0
C944 C 0.8192 0.59307 0.76033 0.0
C945 C 0.82959 0.57086 0.76018 0.0
C946 C 0.86022 0.58018 0.76306 0.0
C947 C 0.86981 0.55908 0.76291 0.0
C948 C 0.849 0.5286 0.75971 0.0
C949 C 0.81856 0.51918 0.75658 0.0
C950 C 0.80885 0.5402 0.75673 0.0
C951 C 0.79042 0.65427 0.67583 0.0
C952 C 0.76409 0.63151 0.66434 0.0
C953 C 0.80039 0.64939 0.69935 0.0
C954 C 0.78425 0.62167 0.71196 0.0
C955 C 0.75797 0.59877 0.70059 0.0
C956 C 0.74783 0.60371 0.677 0.0
C957 C 0.7954 0.617 0.73691 0.0
C958 C 0.8039 0.595 0.73859 0.0
C959 C 0.80075 0.63642 0.75803 0.0
C960 C 0.79073 0.65897 0.75792 0.0
C961 C 0.76063 0.65027 0.75264 0.0
C962 C 0.75138 0.67163 0.75232 0.0
C963 C 0.77198 0.70176 0.7574 0.0
C964 C 0.80188 0.71058 0.76285 0.0
C965 C 0.81126 0.68932 0.76318 0.0
H966 H 0.76477 0.71826 0.75714 0.0
H967 H 0.85647 0.5123 0.7596 0.0
H968 H 0.43293 0.27246 0.84779 0.0
H969 H 0.43788 0.25162 0.8067 0.0
H970 H 0.34194 0.20768 0.79602 0.0
H971 H 0.33682 0.22803 0.83684 0.0
H972 H 0.36253 0.16889 0.79166 0.0
H973 H 0.38978 0.26772 0.75954 0.0
H974 H 0.42001 0.32297 0.75807 0.0
H975 H 0.49927 0.31769 0.74248 0.0
H976 H 0.46954 0.26237 0.74419 0.0
H977 H 0.32875 0.12138 0.66458 0.0
H978 H 0.33817 0.1486 0.70501 0.0
H979 H 0.43216 0.17607 0.70004 0.0
H980 H 0.42288 0.14866 0.6591 0.0
H981 H 0.42117 0.22312 0.71422 0.0
H982 H 0.39236 0.12387 0.74154 0.0
H983 H 0.36161 0.06865 0.74235 0.0
H984 H 0.28514 0.07473 0.76713 0.0
H985 H 0.31531 0.13001 0.7661 0.0
C986 C 0.413 0.25883 0.8364 0.0
C987 C 0.38446 0.25169 0.84565 0.0
C988 C 0.41585 0.24693 0.81296 0.0
C989 C 0.39024 0.22792 0.7984 0.0
C990 C 0.36198 0.22207 0.80705 0.0
C991 C 0.35911 0.23382 0.83038 0.0
C992 C 0.39214 0.21226 0.77507 0.0
C993 C 0.37522 0.18079 0.77468 0.0
C994 C 0.40966 0.22771 0.75331 0.0
C995 C 0.42752 0.26093 0.75233 0.0
C996 C 0.41371 0.27835 0.75605 0.0
C997 C 0.43073 0.30967 0.75512 0.0
C998 C 0.46156 0.32384 0.75028 0.0
C999 C 0.4754 0.30669 0.74629 0.0
C1000 C 0.45847 0.27536 0.74722 0.0
C1001 C 0.35147 0.13312 0.67201 0.0
C1002 C 0.37506 0.13273 0.65866 0.0
C1003 C 0.35679 0.14864 0.69518 0.0
C1004 C 0.3858 0.16411 0.70563 0.0
C1005 C 0.4096 0.16418 0.69228 0.0
C1006 C 0.40423 0.14842 0.66901 0.0
C1007 C 0.39065 0.1799 0.73059 0.0
C1008 C 0.40889 0.21127 0.73136 0.0
C1009 C 0.37433 0.1644 0.75281 0.0
C1010 C 0.35609 0.13112 0.7536 0.0
C1011 C 0.36893 0.11345 0.74699 0.0
C1012 C 0.35161 0.08213 0.74751 0.0
C1013 C 0.32143 0.06819 0.75475 0.0
C1014 C 0.30852 0.08556 0.76152 0.0
C1015 C 0.32574 0.11689 0.76101 0.0
H1016 H 0.30805 0.04394 0.75514 0.0
H1017 H 0.4747 0.34809 0.74955 0.0
H1018 H 0.72704 0.15773 0.85132 0.0
H1019 H 0.74883 0.18357 0.81053 0.0
H1020 H 0.78508 0.12502 0.79722 0.0
H1021 H 0.76391 0.09956 0.83793 0.0
H1022 H 0.82724 0.18213 0.7916 0.0
H1023 H 0.7252 0.11926 0.76239 0.0
H1024 H 0.67045 0.09898 0.76304 0.0
H1025 H 0.68379 0.18749 0.75116 0.0
H1026 H 0.73867 0.20836 0.75077 0.0
H1027 H 0.8712 0.20326 0.66232 0.0
H1028 H 0.8457 0.18363 0.70323 0.0
H1029 H 0.82024 0.25184 0.70535 0.0
H1030 H 0.84559 0.27157 0.66389 0.0
H1031 H 0.77341 0.19625 0.7184 0.0
H1032 H 0.8755 0.25834 0.74407 0.0
H1033 H 0.93017 0.27824 0.7429 0.0
H1034 H 0.91671 0.19098 0.76154 0.0
H1035 H 0.86192 0.17045 0.76247 0.0
C1036 C 0.73926 0.15008 0.83948 0.0
C1037 C 0.74388 0.1267 0.84792 0.0
C1038 C 0.75168 0.16486 0.81617 0.0
C1039 C 0.76865 0.15627 0.80083 0.0
C1040 C 0.77226 0.13218 0.80882 0.0
C1041 C 0.76003 0.11757 0.83208 0.0
C1042 C 0.78425 0.17325 0.77722 0.0
C1043 C 0.81539 0.18495 0.7755 0.0
C1044 C 0.76901 0.17794 0.75661 0.0
C1045 C 0.73604 0.16542 0.75686 0.0
C1046 C 0.71647 0.13444 0.76015 0.0
C1047 C 0.68541 0.12282 0.76042 0.0
C1048 C 0.67365 0.14194 0.75723 0.0
C1049 C 0.69293 0.17271 0.75368 0.0
C1050 C 0.72401 0.18444 0.75342 0.0
C1051 C 0.86033 0.21426 0.67146 0.0
C1052 C 0.86057 0.23911 0.65988 0.0
C1053 C 0.8458 0.20303 0.69493 0.0
C1054 C 0.83137 0.21648 0.70751 0.0
C1055 C 0.83133 0.24118 0.69598 0.0
C1056 C 0.84593 0.2525 0.67239 0.0
C1057 C 0.81619 0.20428 0.73257 0.0
C1058 C 0.78525 0.19365 0.73461 0.0
C1059 C 0.83157 0.20051 0.75356 0.0
C1060 C 0.86456 0.21282 0.75317 0.0
C1061 C 0.88417 0.24335 0.74775 0.0
C1062 C 0.91519 0.25475 0.74715 0.0
C1063 C 0.9269 0.23588 0.7521 0.0
C1064 C 0.90761 0.20557 0.75771 0.0
C1065 C 0.87657 0.19405 0.75831 0.0
H1066 H 0.95092 0.24474 0.75163 0.0
H1067 H 0.6496 0.13291 0.75743 0.0
H1068 H 0.0938 0.47554 0.98672 0.0
H1069 H 0.06051 0.49501 0.97589 0.0
H1070 H 0.03781 0.49252 0.05627 0.0
H1071 H 0.07161 0.47369 0.06727 0.0
H1072 H 0.00237 0.46321 0.98167 0.0
H1073 H 0.0104 0.53735 0.06865 0.0
H1074 H 0.04843 0.57633 0.09701 0.0
H1075 H 0.11536 0.60004 0.03824 0.0
H1076 H 0.07767 0.56136 0.00948 0.0
H1077 H 0.89842 0.53028 0.017 0.0
H1078 H 0.93141 0.51035 0.02738 0.0
H1079 H 0.95772 0.51807 0.94754 0.0
H1080 H 0.92448 0.53771 0.93694 0.0
H1081 H 0.99069 0.54408 0.02207 0.0
H1082 H 0.98482 0.47038 0.93532 0.0
H1083 H 0.94726 0.43405 0.90504 0.0
H1084 H 0.87751 0.41234 0.96065 0.0
H1085 H 0.91468 0.44821 0.99139 0.0
C1086 C 0.08248 0.48009 0.00219 0.0
C1087 C 0.08515 0.47288 0.02783 0.0
C1088 C 0.06331 0.49104 0.99595 0.0
C1089 C 0.04641 0.49498 0.0152 0.0
C1090 C 0.05082 0.48999 0.04108 0.0
C1091 C 0.07021 0.47924 0.04737 0.0
C1092 C 0.02179 0.50074 0.00796 0.0
C1093 C 0.00016 0.48131 0.99015 0.0
C1094 C 0.01829 0.52365 0.0196 0.0
C1095 C 0.04129 0.54628 0.03705 0.0
C1096 C 0.03326 0.55082 0.06184 0.0
C1097 C 0.05474 0.57288 0.07796 0.0
C1098 C 0.08431 0.59059 0.06946 0.0
C1099 C 0.09247 0.58623 0.04484 0.0
C1100 C 0.07108 0.56419 0.02865 0.0
C1101 C 0.91046 0.52682 0.00148 0.0
C1102 C 0.90904 0.53583 0.97617 0.0
C1103 C 0.92945 0.51558 0.00749 0.0
C1104 C 0.94723 0.51299 0.98831 0.0
C1105 C 0.94403 0.51965 0.96264 0.0
C1106 C 0.92494 0.53083 0.95659 0.0
C1107 C 0.97158 0.50689 0.9956 0.0
C1108 C 0.99306 0.52616 0.01351 0.0
C1109 C 0.97509 0.48406 0.98382 0.0
C1110 C 0.95253 0.46224 0.96556 0.0
C1111 C 0.96148 0.45778 0.94112 0.0
C1112 C 0.94025 0.43728 0.92387 0.0
C1113 C 0.91 0.42097 0.93088 0.0
C1114 C 0.90093 0.42508 0.9552 0.0
C1115 C 0.92207 0.44554 0.97253 0.0
H1116 H 0.8936 0.40511 0.91749 0.0
H1117 H 0.10088 0.60773 0.08193 0.0
H1118 H 0.52386 0.61713 0.98533 0.0
H1119 H 0.50811 0.56544 0.9734 0.0
H1120 H 0.52038 0.54623 0.05196 0.0
H1121 H 0.53634 0.59813 0.06409 0.0
H1122 H 0.5492 0.52897 0.01733 0.0
H1123 H 0.45105 0.51615 0.02793 0.0
H1124 H 0.41004 0.52726 0.02165 0.0
H1125 H 0.41067 0.51241 0.94027 0.0
H1126 H 0.45196 0.50157 0.94601 0.0
H1127 H 0.4721 0.36887 0.00874 0.0
H1128 H 0.4941 0.42226 0.01823 0.0
H1129 H 0.48211 0.43923 0.93893 0.0
H1130 H 0.46002 0.38573 0.92925 0.0
H1131 H 0.45438 0.45835 0.97284 0.0
H1132 H 0.55149 0.46876 0.96307 0.0
H1133 H 0.59175 0.45676 0.97016 0.0
H1134 H 0.59246 0.47523 0.05094 0.0
H1135 H 0.55187 0.48694 0.04441 0.0
C1136 C 0.52261 0.60177 0.00021 0.0
C1137 C 0.53133 0.61171 0.02567 0.0
C1138 C 0.51362 0.57222 0.99334 0.0
C1139 C 0.51314 0.55203 0.01179 0.0
C1140 C 0.52069 0.56153 0.03744 0.0
C1141 C 0.52953 0.59109 0.04438 0.0
C1142 C 0.50638 0.52159 0.00389 0.0
C1143 C 0.52828 0.5133 0.00795 0.0
C1144 C 0.4795 0.50161 0.99094 0.0
C1145 C 0.45482 0.50836 0.98737 0.0
C1146 C 0.44264 0.51554 0.00865 0.0
C1147 C 0.4193 0.52172 0.0052 0.0
C1148 C 0.40781 0.52062 0.98057 0.0
C1149 C 0.41961 0.51329 0.95933 0.0
C1150 C 0.44297 0.5071 0.96268 0.0
C1151 C 0.47501 0.38408 0.99312 0.0
C1152 C 0.46412 0.37307 0.96829 0.0
C1153 C 0.48763 0.41462 0.99858 0.0
C1154 C 0.48955 0.43467 0.97932 0.0
C1155 C 0.48072 0.42408 0.95408 0.0
C1156 C 0.46832 0.39353 0.94854 0.0
C1157 C 0.49717 0.46563 0.98631 0.0
C1158 C 0.47538 0.47403 0.98211 0.0
C1159 C 0.52408 0.4856 0.99925 0.0
C1160 C 0.54841 0.47845 0.00328 0.0
C1161 C 0.56002 0.46999 0.98239 0.0
C1162 C 0.58295 0.4633 0.9863 0.0
C1163 C 0.5946 0.46516 0.011 0.0
C1164 C 0.58339 0.47377 0.03183 0.0
C1165 C 0.56044 0.48047 0.02803 0.0
H1166 H 0.61236 0.45998 0.01398 0.0
H1167 H 0.38972 0.52539 0.97793 0.0
H1168 H 0.38085 0.90381 0.98884 0.0
H1169 H 0.43189 0.94046 0.97589 0.0
H1170 H 0.45116 0.97616 0.05317 0.0
H1171 H 0.39993 0.93949 0.0663 0.0
H1172 H 0.46516 0.01977 0.01759 0.0
H1173 H 0.48469 0.93946 0.02998 0.0
H1174 H 0.47899 0.88913 0.02584 0.0
H1175 H 0.49171 0.90115 0.94401 0.0
H1176 H 0.4971 0.95146 0.9476 0.0
H1177 H 0.62484 0.10861 0.00325 0.0
H1178 H 0.57192 0.07736 0.01436 0.0
H1179 H 0.55245 0.04384 0.93642 0.0
H1180 H 0.60544 0.07504 0.92514 0.0
H1181 H 0.53783 -0.0003 0.97168 0.0
H1182 H 0.52017 0.0818 0.96076 0.0
H1183 H 0.52777 0.13273 0.96653 0.0
H1184 H 0.51343 0.11761 0.04798 0.0
H1185 H 0.50634 0.0668 0.04279 0.0
C1186 C 0.39616 0.91895 0.00326 0.0
C1187 C 0.38636 0.91879 0.02859 0.0
C1188 C 0.42534 0.93991 0.99582 0.0
C1189 C 0.44528 0.96109 0.01354 0.0
C1190 C 0.43606 0.96003 0.03918 0.0
C1191 C 0.40689 0.93889 0.04671 0.0
C1192 C 0.47483 0.98566 0.00472 0.0
C1193 C 0.48135 0.01545 0.00797 0.0
C1194 C 0.49542 0.97989 0.99145 0.0
C1195 C 0.49094 0.94913 0.98903 0.0
C1196 C 0.48578 0.9312 0.01104 0.0
C1197 C 0.48276 0.90272 0.00881 0.0
C1198 C 0.48489 0.89191 0.98467 0.0
C1199 C 0.49 0.90954 0.96269 0.0
C1200 C 0.49305 0.93804 0.96482 0.0
C1201 C 0.60913 0.09545 0.9882 0.0
C1202 C 0.61939 0.09401 0.9634 0.0
C1203 C 0.57883 0.0776 0.99459 0.0
C1204 C 0.55829 0.05806 0.97627 0.0
C1205 C 0.56799 0.0587 0.95086 0.0
C1206 C 0.59828 0.07671 0.9444 0.0
C1207 C 0.52831 0.03384 0.98465 0.0
C1208 C 0.52168 0.00404 0.98132 0.0
C1209 C 0.50785 0.03966 0.99811 0.0
C1210 C 0.51299 0.07055 0.0014 0.0
C1211 C 0.51902 0.08946 0.97995 0.0
C1212 C 0.52317 0.1183 0.98311 0.0
C1213 C 0.52117 0.12844 0.00761 0.0
C1214 C 0.51506 0.10977 0.02902 0.0
C1215 C 0.51099 0.08095 0.02597 0.0
H1216 H 0.52429 0.15073 0.01001 0.0
H1217 H 0.48267 0.8699 0.98299 0.0
H1218 H 0.60416 0.96592 0.49941 0.0
H1219 H 0.57433 0.98799 0.51373 0.0
H1220 H 0.52208 0.95817 0.44381 0.0
H1221 H 0.55227 0.93621 0.42908 0.0
H1222 H 0.54207 0.01718 0.45375 0.0
H1223 H 0.49174 0.92464 0.50089 0.0
H1224 H 0.48814 0.88503 0.52997 0.0
H1225 H 0.52675 0.94911 0.59144 0.0
H1226 H 0.53097 0.98922 0.56262 0.0
H1227 H 0.42523 0.04431 0.48967 0.0
H1228 H 0.45711 0.02432 0.47619 0.0
H1229 H 0.5058 0.05327 0.54794 0.0
H1230 H 0.47337 0.073 0.56188 0.0
H1231 H 0.489 0.99584 0.53767 0.0
H1232 H 0.53843 0.08821 0.49106 0.0
H1233 H 0.5423 0.12804 0.46213 0.0
H1234 H 0.50597 0.06483 0.39983 0.0
H1235 H 0.50148 0.0245 0.42849 0.0
C1236 C 0.58601 0.96359 0.4872 0.0
C1237 C 0.58053 0.94926 0.46309 0.0
C1238 C 0.56894 0.9762 0.49547 0.0
C1239 C 0.54589 0.97459 0.47991 0.0
C1240 C 0.5398 0.95964 0.4561 0.0
C1241 C 0.5569 0.94693 0.4478 0.0
C1242 C 0.52926 0.98989 0.48801 0.0
C1243 C 0.53005 0.0122 0.47191 0.0
C1244 C 0.51453 0.9841 0.51212 0.0
C1245 C 0.51192 0.95999 0.52952 0.0
C1246 C 0.49968 0.93034 0.52055 0.0
C1247 C 0.49749 0.90779 0.537 0.0
C1248 C 0.50728 0.91456 0.56252 0.0
C1249 C 0.51921 0.9439 0.57166 0.0
C1250 C 0.52147 0.96655 0.55529 0.0
C1251 C 0.44298 0.04687 0.50249 0.0
C1252 C 0.44675 0.06021 0.52689 0.0
C1253 C 0.4613 0.0355 0.49468 0.0
C1254 C 0.48399 0.03747 0.51096 0.0
C1255 C 0.48842 0.05156 0.53506 0.0
C1256 C 0.47002 0.06296 0.54294 0.0
C1257 C 0.50163 0.02304 0.50334 0.0
C1258 C 0.50107 0.0009 0.51953 0.0
C1259 C 0.51663 0.02904 0.47934 0.0
C1260 C 0.51939 0.05327 0.462 0.0
C1261 C 0.53105 0.08274 0.47125 0.0
C1262 C 0.5334 0.10543 0.45488 0.0
C1263 C 0.52433 0.09896 0.42917 0.0
C1264 C 0.51296 0.0698 0.41976 0.0
C1265 C 0.51055 0.04703 0.43605 0.0
H1266 H 0.52616 0.11655 0.41653 0.0
H1267 H 0.50556 0.89707 0.57522 0.0
H1268 H 0.91752 0.37521 0.4918 0.0
H1269 H 0.94603 0.42721 0.47747 0.0
H1270 H 0.94723 0.45754 0.55516 0.0
H1271 H 0.91865 0.40522 0.56985 0.0
H1272 H 0.94108 0.49358 0.51522 0.0
H1273 H 0.00427 0.45352 0.53913 0.0
H1274 H 0.02057 0.41583 0.53901 0.0
H1275 H 0.03585 0.42733 0.4574 0.0
H1276 H 0.01922 0.46484 0.45696 0.0
H1277 H 0.06836 0.63692 0.50615 0.0
H1278 H 0.03766 0.58491 0.51989 0.0
H1279 H 0.03517 0.55503 0.44183 0.0
H1280 H 0.06567 0.60735 0.42766 0.0
H1281 H 0.04154 0.51876 0.48179 0.0
H1282 H 0.98017 0.56132 0.45886 0.0
H1283 H 0.96296 0.59831 0.45983 0.0
H1284 H 0.94367 0.5819 0.54061 0.0
H1285 H 0.96147 0.54534 0.5403 0.0
C1286 C 0.92317 0.39288 0.5058 0.0
C1287 C 0.9162 0.38614 0.53204 0.0
C1288 C 0.93952 0.42258 0.49755 0.0
C1289 C 0.94919 0.44608 0.51536 0.0
C1290 C 0.94004 0.43959 0.54118 0.0
C1291 C 0.92366 0.40973 0.54952 0.0
C1292 C 0.97127 0.47699 0.50734 0.0
C1293 C 0.96318 0.49926 0.50822 0.0
C1294 C -0.00013 0.48406 0.4978 0.0
C1295 C 0.01021 0.46177 0.49797 0.0
C1296 C 0.01087 0.44783 0.52111 0.0
C1297 C 0.02019 0.42653 0.52116 0.0
C1298 C 0.02913 0.41911 0.4982 0.0
C1299 C 0.02886 0.43306 0.47516 0.0
C1300 C 0.01952 0.45437 0.47501 0.0
C1301 C 0.06191 0.61934 0.49192 0.0
C1302 C 0.06917 0.62629 0.46572 0.0
C1303 C 0.04423 0.58963 0.49983 0.0
C1304 C 0.0337 0.56631 0.48177 0.0
C1305 C 0.04296 0.57287 0.45598 0.0
C1306 C 0.06048 0.60273 0.44795 0.0
C1307 C 0.01138 0.53544 0.48965 0.0
C1308 C 0.01945 0.51315 0.48876 0.0
C1309 C 0.98281 0.52844 0.4993 0.0
C1310 C 0.97255 0.55083 0.49962 0.0
C1311 C 0.97267 0.56589 0.47692 0.0
C1312 C 0.96273 0.58673 0.47734 0.0
C1313 C 0.9523 0.59249 0.50028 0.0
C1314 C 0.95183 0.57746 0.52287 0.0
C1315 C 0.96187 0.5567 0.52259 0.0
H1316 H 0.94448 0.60851 0.50055 0.0
H1317 H 0.03638 0.40266 0.49831 0.0
H1318 H 0.38919 0.43505 0.43333 0.0
H1319 H 0.44146 0.46303 0.44804 0.0
H1320 H 0.41133 0.45277 0.5269 0.0
H1321 H 0.35919 0.42477 0.51242 0.0
H1322 H 0.45734 0.5097 0.51693 0.0
H1323 H 0.43578 0.40844 0.50521 0.0
H1324 H 0.42077 0.36038 0.48339 0.0
H1325 H 0.48939 0.40625 0.42642 0.0
H1326 H 0.50464 0.45466 0.44778 0.0
H1327 H 0.59633 0.54546 0.57743 0.0
H1328 H 0.54362 0.51588 0.56385 0.0
H1329 H 0.57116 0.53174 0.48419 0.0
H1330 H 0.6236 0.5616 0.49755 0.0
H1331 H 0.52639 0.47156 0.49558 0.0
H1332 H 0.54789 0.57313 0.5081 0.0
H1333 H 0.56542 0.61998 0.53269 0.0
H1334 H 0.49731 0.57258 0.58971 0.0
H1335 H 0.47972 0.52526 0.5657 0.0
C1336 C 0.39371 0.43912 0.45376 0.0
C1337 C 0.3701 0.42767 0.47172 0.0
C1338 C 0.42356 0.45489 0.46215 0.0
C1339 C 0.43022 0.45963 0.48858 0.0
C1340 C 0.40666 0.44927 0.50643 0.0
C1341 C 0.37689 0.43326 0.49811 0.0
C1342 C 0.46173 0.47492 0.49772 0.0
C1343 C 0.47233 0.50117 0.5125 0.0
C1344 C 0.4814 0.464 0.49166 0.0
C1345 C 0.47112 0.43521 0.47792 0.0
C1346 C 0.44736 0.40834 0.4878 0.0
C1347 C 0.4389 0.38102 0.47559 0.0
C1348 C 0.45412 0.38029 0.45353 0.0
C1349 C 0.47763 0.40688 0.4435 0.0
C1350 C 0.48619 0.43425 0.45566 0.0
C1351 C 0.59112 0.54219 0.55705 0.0
C1352 C 0.61397 0.55585 0.53853 0.0
C1353 C 0.56108 0.5255 0.54934 0.0
C1354 C 0.55362 0.52194 0.52304 0.0
C1355 C 0.57652 0.53433 0.50456 0.0
C1356 C 0.60642 0.55138 0.51223 0.0
C1357 C 0.52192 0.50628 0.5146 0.0
C1358 C 0.51133 0.48003 0.49997 0.0
C1359 C 0.50228 0.51714 0.52086 0.0
C1360 C 0.51272 0.54558 0.53526 0.0
C1361 C 0.53683 0.57263 0.52601 0.0
C1362 C 0.54675 0.59929 0.53982 0.0
C1363 C 0.53254 0.59926 0.56277 0.0
C1364 C 0.50834 0.57256 0.57195 0.0
C1365 C 0.49838 0.54581 0.55825 0.0
H1366 H 0.54024 0.61993 0.57342 0.0
H1367 H 0.44789 0.35911 0.44432 0.0
loop_
_geom_bond_atom_site_label_1
_geom_bond_atom_site_label_2
_geom_bond_distance
_geom_bond_site_symmetry_2
_ccdc_geom_bond_type
O0 Cd1 2.223 . S
O0 C8 1.315 . S
Cd1 O0 2.223 . S
Cd1 O4 2.297 . S
Cd1 O5 2.439 . S
Cd1 O11 2.240 . S
Cd2 O3 2.240 . S
Cd2 O10 2.223 . S
Cd2 O12 2.297 . S
Cd2 O13 2.439 . S
O3 Cd2 2.240 . S
O3 C8 1.279 . S
O4 Cd1 2.297 . S
O4 C6 1.247 . S
O5 Cd1 2.439 . S
O5 C6 1.208 . S
C6 O4 1.247 . S
C6 O5 1.208 . S
C7 O12 1.247 . S
C7 O13 1.208 . S
C8 O0 1.315 . S
C8 O3 1.279 . S
C9 O10 1.315 . S
C9 O11 1.279 . S
O10 Cd2 2.223 . S
O10 C9 1.315 . S
O11 Cd1 2.240 . S
O11 C9 1.279 . S
O12 Cd2 2.297 . S
O12 C7 1.247 . S
O13 Cd2 2.439 . S
O13 C7 1.208 . S
O14 Cd15 2.223 . S
O14 C22 1.315 . S
Cd15 O14 2.223 . S
Cd15 O18 2.297 . S
Cd15 O19 2.439 . S
Cd15 O25 2.240 . S
Cd16 O17 2.240 . S
Cd16 O24 2.223 . S
Cd16 O26 2.297 . S
Cd16 O27 2.439 . S
O17 Cd16 2.240 . S
O17 C22 1.279 . S
O18 Cd15 2.297 . S
O18 C20 1.247 . S
O19 Cd15 2.439 . S
O19 C20 1.208 . S
C20 O18 1.247 . S
C20 O19 1.208 . S
C21 O26 1.247 . S
C21 O27 1.208 . S
C22 O14 1.315 . S
C22 O17 1.279 . S
C23 O24 1.315 . S
C23 O25 1.279 . S
O24 Cd16 2.223 . S
O24 C23 1.315 . S
O25 Cd15 2.240 . S
O25 C23 1.279 . S
O26 Cd16 2.297 . S
O26 C21 1.247 . S
O27 Cd16 2.439 . S
O27 C21 1.208 . S
O28 Cd29 2.223 . S
O28 C36 1.315 . S
Cd29 O28 2.223 . S
Cd29 O32 2.297 . S
Cd29 O33 2.439 . S
Cd29 O39 2.240 . S
Cd30 O31 2.240 . S
Cd30 O38 2.223 . S
Cd30 O40 2.297 . S
Cd30 O41 2.439 . S
O31 Cd30 2.240 . S
O31 C36 1.279 . S
O32 Cd29 2.297 . S
O32 C34 1.247 . S
O33 Cd29 2.439 . S
O33 C34 1.208 . S
C34 O32 1.247 . S
C34 O33 1.208 . S
C35 O40 1.247 . S
C35 O41 1.208 . S
C36 O28 1.315 . S
C36 O31 1.279 . S
C37 O38 1.315 . S
C37 O39 1.279 . S
O38 Cd30 2.223 . S
O38 C37 1.315 . S
O39 Cd29 2.240 . S
O39 C37 1.279 . S
O40 Cd30 2.297 . S
O40 C35 1.247 . S
O41 Cd30 2.439 . S
O41 C35 1.208 . S
O42 Cd43 2.223 . S
O42 C50 1.315 . S
Cd43 O42 2.223 . S
Cd43 O46 2.297 . S
Cd43 O47 2.439 . S
Cd43 O53 2.240 . S
Cd44 O45 2.240 . S
Cd44 O52 2.223 . S
Cd44 O54 2.297 . S
Cd44 O55 2.439 . S
O45 Cd44 2.240 . S
O45 C50 1.279 . S
O46 Cd43 2.297 . S
O46 C48 1.247 . S
O47 Cd43 2.439 . S
O47 C48 1.208 . S
C48 O46 1.247 . S
C48 O47 1.208 . S
C49 O54 1.247 . S
C49 O55 1.208 . S
C50 O42 1.315 . S
C50 O45 1.279 . S
C51 O52 1.315 . S
C51 O53 1.279 . S
O52 Cd44 2.223 . S
O52 C51 1.315 . S
O53 Cd43 2.240 . S
O53 C51 1.279 . S
O54 Cd44 2.297 . S
O54 C49 1.247 . S
O55 Cd44 2.439 . S
O55 C49 1.208 . S
O56 Cd57 2.223 . S
O56 C64 1.315 . S
Cd57 O56 2.223 . S
Cd57 O60 2.297 . S
Cd57 O61 2.439 . S
Cd57 O67 2.240 . S
Cd58 O59 2.240 . S
Cd58 O66 2.223 . S
Cd58 O68 2.297 . S
Cd58 O69 2.439 . S
O59 Cd58 2.240 . S
O59 C64 1.279 . S
O60 Cd57 2.297 . S
O60 C62 1.247 . S
O61 Cd57 2.439 . S
O61 C62 1.208 . S
C62 O60 1.247 . S
C62 O61 1.208 . S
C63 O68 1.247 . S
C63 O69 1.208 . S
C64 O56 1.315 . S
C64 O59 1.279 . S
C65 O66 1.315 . S
C65 O67 1.279 . S
O66 Cd58 2.223 . S
O66 C65 1.315 . S
O67 Cd57 2.240 . S
O67 C65 1.279 . S
O68 Cd58 2.297 . S
O68 C63 1.247 . S
O69 Cd58 2.439 . S
O69 C63 1.208 . S
O70 Cd71 2.223 . S
O70 C78 1.315 . S
Cd71 O70 2.223 . S
Cd71 O74 2.297 . S
Cd71 O75 2.439 . S
Cd71 O81 2.240 . S
Cd72 O73 2.240 . S
Cd72 O80 2.223 . S
Cd72 O82 2.297 . S
Cd72 O83 2.439 . S
O73 Cd72 2.240 . S
O73 C78 1.279 . S
O74 Cd71 2.297 . S
O74 C76 1.247 . S
O75 Cd71 2.439 . S
O75 C76 1.208 . S
C76 O74 1.247 . S
C76 O75 1.208 . S
C77 O82 1.247 . S
C77 O83 1.208 . S
C78 O70 1.315 . S
C78 O73 1.279 . S
C79 O80 1.315 . S
C79 O81 1.279 . S
O80 Cd72 2.223 . S
O80 C79 1.315 . S
O81 Cd71 2.240 . S
O81 C79 1.279 . S
O82 Cd72 2.297 . S
O82 C77 1.247 . S
O83 Cd72 2.439 . S
O83 C77 1.208 . S
O84 Cd85 2.223 . S
O84 C92 1.315 . S
Cd85 O84 2.223 . S
Cd85 O88 2.297 . S
Cd85 O89 2.439 . S
Cd85 O95 2.240 . S
Cd86 O87 2.240 . S
Cd86 O94 2.223 . S
Cd86 O96 2.297 . S
Cd86 O97 2.439 . S
O87 Cd86 2.240 . S
O87 C92 1.279 . S
O88 Cd85 2.297 . S
O88 C90 1.247 . S
O89 Cd85 2.439 . S
O89 C90 1.208 . S
C90 O88 1.247 . S
C90 O89 1.208 . S
C91 O96 1.247 . S
C91 O97 1.208 . S
C92 O84 1.315 . S
C92 O87 1.279 . S
C93 O94 1.315 . S
C93 O95 1.279 . S
O94 Cd86 2.223 . S
O94 C93 1.315 . S
O95 Cd85 2.240 . S
O95 C93 1.279 . S
O96 Cd86 2.297 . S
O96 C91 1.247 . S
O97 Cd86 2.439 . S
O97 C91 1.208 . S
O98 Cd99 2.223 . S
O98 C106 1.315 . S
Cd99 O98 2.223 . S
Cd99 O102 2.297 . S
Cd99 O103 2.439 . S
Cd99 O109 2.240 . S
Cd100 O101 2.240 . S
Cd100 O108 2.223 . S
Cd100 O110 2.297 . S
Cd100 O111 2.439 . S
O101 Cd100 2.240 . S
O101 C106 1.279 . S
O102 Cd99 2.297 . S
O102 C104 1.247 . S
O103 Cd99 2.439 . S
O103 C104 1.208 . S
C104 O102 1.247 . S
C104 O103 1.208 . S
C105 O110 1.247 . S
C105 O111 1.208 . S
C106 O98 1.315 . S
C106 O101 1.279 . S
C107 O108 1.315 . S
C107 O109 1.279 . S
O108 Cd100 2.223 . S
O108 C107 1.315 . S
O109 Cd99 2.240 . S
O109 C107 1.279 . S
O110 Cd100 2.297 . S
O110 C105 1.247 . S
O111 Cd100 2.439 . S
O111 C105 1.208 . S
O112 Cd113 2.223 . S
O112 C120 1.315 . S
Cd113 O112 2.223 . S
Cd113 O116 2.297 . S
Cd113 O117 2.439 . S
Cd113 O123 2.240 . S
Cd114 O115 2.240 . S
Cd114 O122 2.223 . S
Cd114 O124 2.297 . S
Cd114 O125 2.439 . S
O115 Cd114 2.240 . S
O115 C120 1.279 . S
O116 Cd113 2.297 . S
O116 C118 1.247 . S
O117 Cd113 2.439 . S
O117 C118 1.208 . S
C118 O116 1.247 . S
C118 O117 1.208 . S
C119 O124 1.247 . S
C119 O125 1.208 . S
C120 O112 1.315 . S
C120 O115 1.279 . S
C121 O122 1.315 . S
C121 O123 1.279 . S
O122 Cd114 2.223 . S
O122 C121 1.315 . S
O123 Cd113 2.240 . S
O123 C121 1.279 . S
O124 Cd114 2.297 . S
O124 C119 1.247 . S
O125 Cd114 2.439 . S
O125 C119 1.208 . S
O126 Cd127 2.223 . S
O126 C134 1.315 . S
Cd127 O126 2.223 . S
Cd127 O130 2.297 . S
Cd127 O131 2.439 . S
Cd127 O137 2.240 . S
Cd128 O129 2.240 . S
Cd128 O136 2.223 . S
Cd128 O138 2.297 . S
Cd128 O139 2.439 . S
O129 Cd128 2.240 . S
O129 C134 1.279 . S
O130 Cd127 2.297 . S
O130 C132 1.247 . S
O131 Cd127 2.439 . S
O131 C132 1.208 . S
C132 O130 1.247 . S
C132 O131 1.208 . S
C133 O138 1.247 . S
C133 O139 1.208 . S
C134 O126 1.315 . S
C134 O129 1.279 . S
C135 O136 1.315 . S
C135 O137 1.279 . S
O136 Cd128 2.223 . S
O136 C135 1.315 . S
O137 Cd127 2.240 . S
O137 C135 1.279 . S
O138 Cd128 2.297 . S
O138 C133 1.247 . S
O139 Cd128 2.439 . S
O139 C133 1.208 . S
O140 Cd141 2.223 . S
O140 C148 1.315 . S
Cd141 O140 2.223 . S
Cd141 O144 2.297 . S
Cd141 O145 2.439 . S
Cd141 O151 2.240 . S
Cd142 O143 2.240 . S
Cd142 O150 2.223 . S
Cd142 O152 2.297 . S
Cd142 O153 2.439 . S
O143 Cd142 2.240 . S
O143 C148 1.279 . S
O144 Cd141 2.297 . S
O144 C146 1.247 . S
O145 Cd141 2.439 . S
O145 C146 1.208 . S
C146 O144 1.247 . S
C146 O145 1.208 . S
C147 O152 1.247 . S
C147 O153 1.208 . S
C148 O140 1.315 . S
C148 O143 1.279 . S
C149 O150 1.315 . S
C149 O151 1.279 . S
O150 Cd142 2.223 . S
O150 C149 1.315 . S
O151 Cd141 2.240 . S
O151 C149 1.279 . S
O152 Cd142 2.297 . S
O152 C147 1.247 . S
O153 Cd142 2.439 . S
O153 C147 1.208 . S
O154 Cd155 2.223 . S
O154 C162 1.315 . S
Cd155 O154 2.223 . S
Cd155 O158 2.297 . S
Cd155 O159 2.439 . S
Cd155 O165 2.240 . S
Cd156 O157 2.240 . S
Cd156 O164 2.223 . S
Cd156 O166 2.297 . S
Cd156 O167 2.439 . S
O157 Cd156 2.240 . S
O157 C162 1.279 . S
O158 Cd155 2.297 . S
O158 C160 1.247 . S
O159 Cd155 2.439 . S
O159 C160 1.208 . S
C160 O158 1.247 . S
C160 O159 1.208 . S
C161 O166 1.247 . S
C161 O167 1.208 . S
C162 O154 1.315 . S
C162 O157 1.279 . S
C163 O164 1.315 . S
C163 O165 1.279 . S
O164 Cd156 2.223 . S
O164 C163 1.315 . S
O165 Cd155 2.240 . S
O165 C163 1.279 . S
O166 Cd156 2.297 . S
O166 C161 1.247 . S
O167 Cd156 2.439 . S
O167 C161 1.208 . S
H168 C186 0.951 . S
H169 C188 0.951 . S
H170 C190 0.950 . S
H171 C191 0.950 . S
H172 C193 0.950 . S
H173 C196 0.950 . S
H174 C197 0.950 . S
H175 C199 0.950 . S
H176 C200 0.950 . S
H177 C201 0.951 . S
H178 C203 0.951 . S
H179 C205 0.950 . S
H180 C206 0.950 . S
H181 C208 0.950 . S
H182 C211 0.950 . S
H183 C212 0.950 . S
H184 C214 0.950 . S
H185 C215 0.950 . S
C186 H168 0.951 . S
C186 C187 1.366 . S
C186 C188 1.388 . S
C187 C186 1.366 . S
C187 C191 1.385 . S
C188 H169 0.951 . S
C188 C186 1.388 . S
C188 C189 1.366 . S
C189 C188 1.366 . S
C189 C190 1.414 . S
C189 C192 1.499 . S
C190 H170 0.950 . S
C190 C189 1.414 . S
C190 C191 1.374 . S
C191 H171 0.950 . S
C191 C187 1.385 . S
C191 C190 1.374 . S
C192 C189 1.499 . S
C192 C193 1.373 1_554 S
C192 C194 1.389 . S
C193 H172 0.950 . S
C193 C192 1.373 1_556 S
C193 C209 1.377 . S
C194 C192 1.389 . S
C194 C195 1.524 . S
C194 C208 1.377 . S
C195 C194 1.524 . S
C195 C196 1.397 . S
C195 C200 1.363 . S
C196 H173 0.950 . S
C196 C195 1.397 . S
C196 C197 1.334 . S
C197 H174 0.950 . S
C197 C196 1.334 . S
C197 C198 1.287 . S
C198 C197 1.287 . S
C198 C199 1.524 . S
C198 H217 0.913 . S
C199 H175 0.950 . S
C199 C198 1.524 . S
C199 C200 1.415 . S
C200 H176 0.950 . S
C200 C195 1.363 . S
C200 C199 1.415 . S
C201 H177 0.951 . S
C201 C202 1.366 . S
C201 C203 1.388 . S
C202 C201 1.366 . S
C202 C206 1.385 . S
C203 H178 0.951 . S
C203 C201 1.388 . S
C203 C204 1.366 . S
C204 C203 1.366 . S
C204 C205 1.414 . S
C204 C207 1.499 . S
C205 H179 0.950 . S
C205 C204 1.414 . S
C205 C206 1.374 . S
C206 H180 0.950 . S
C206 C202 1.385 . S
C206 C205 1.374 . S
C207 C204 1.499 . S
C207 C208 1.373 1_556 S
C207 C209 1.389 . S
C208 H181 0.950 . S
C208 C194 1.377 . S
C208 C207 1.373 1_554 S
C209 C193 1.377 . S
C209 C207 1.389 . S
C209 C210 1.524 . S
C210 C209 1.524 . S
C210 C211 1.397 . S
C210 C215 1.363 . S
C211 H182 0.950 . S
C211 C210 1.397 . S
C211 C212 1.334 . S
C212 H183 0.950 . S
C212 C211 1.334 . S
C212 C213 1.287 . S
C213 C212 1.287 . S
C213 C214 1.524 . S
C213 H216 0.999 . S
C214 H184 0.950 . S
C214 C213 1.524 . S
C214 C215 1.415 . S
C215 H185 0.950 . S
C215 C210 1.363 . S
C215 C214 1.415 . S
H216 C213 0.999 . S
H217 C198 0.913 . S
H218 C236 0.951 . S
H219 C238 0.951 1_556 S
H220 C240 0.950 . S
H221 C241 0.950 . S
H222 C243 0.950 . S
H223 C246 0.950 . S
H224 C247 0.950 . S
H225 C249 0.950 . S
H226 C250 0.950 . S
H227 C251 0.951 . S
H228 C253 0.951 1_554 S
H229 C255 0.950 . S
H230 C256 0.950 . S
H231 C258 0.950 . S
H232 C261 0.950 . S
H233 C262 0.950 . S
H234 C264 0.950 . S
H235 C265 0.950 . S
C236 H218 0.951 . S
C236 C237 1.366 . S
C236 C238 1.388 . S
C237 C236 1.366 . S
C237 C241 1.385 . S
C238 H219 0.951 1_554 S
C238 C236 1.388 . S
C238 C239 1.366 . S
C239 C238 1.366 . S
C239 C240 1.414 . S
C239 C242 1.499 . S
C240 H220 0.950 . S
C240 C239 1.414 . S
C240 C241 1.374 . S
C241 H221 0.950 . S
C241 C237 1.385 . S
C241 C240 1.374 . S
C242 C239 1.499 . S
C242 C243 1.373 . S
C242 C244 1.389 1_554 S
C243 H222 0.950 . S
C243 C242 1.373 . S
C243 C259 1.377 . S
C244 C242 1.389 1_556 S
C244 C245 1.524 . S
C244 C258 1.377 . S
C245 C244 1.524 . S
C245 C246 1.397 1_556 S
C245 C250 1.363 . S
C246 H223 0.950 . S
C246 C245 1.397 1_554 S
C246 C247 1.334 . S
C247 H224 0.950 . S
C247 C246 1.334 . S
C247 C248 1.287 1_554 S
C248 C247 1.287 1_556 S
C248 C249 1.524 . S
C248 H267 0.913 . S
C249 H225 0.950 . S
C249 C248 1.524 . S
C249 C250 1.415 . S
C250 H226 0.950 . S
C250 C245 1.363 . S
C250 C249 1.415 . S
C251 H227 0.951 . S
C251 C252 1.366 . S
C251 C253 1.388 1_545 S
C252 C251 1.366 . S
C252 C256 1.385 1_545 S
C253 H228 0.951 1_556 S
C253 C251 1.388 1_565 S
C253 C254 1.366 . S
C254 C253 1.366 . S
C254 C255 1.414 . S
C254 C257 1.499 . S
C255 H229 0.950 . S
C255 C254 1.414 . S
C255 C256 1.374 . S
C256 H230 0.950 . S
C256 C252 1.385 1_565 S
C256 C255 1.374 . S
C257 C254 1.499 . S
C257 C258 1.373 . S
C257 C259 1.389 1_556 S
C258 H231 0.950 . S
C258 C244 1.377 . S
C258 C257 1.373 . S
C259 C243 1.377 . S
C259 C257 1.389 1_554 S
C259 C260 1.524 . S
C260 C259 1.524 . S
C260 C261 1.397 1_554 S
C260 C265 1.363 . S
C261 H232 0.950 . S
C261 C260 1.397 1_556 S
C261 C262 1.334 . S
C262 H233 0.950 . S
C262 C261 1.334 . S
C262 C263 1.287 1_556 S
C263 C262 1.287 1_554 S
C263 C264 1.524 . S
C263 H266 0.999 . S
C264 H234 0.950 . S
C264 C263 1.524 . S
C264 C265 1.415 . S
C265 H235 0.950 . S
C265 C260 1.363 . S
C265 C264 1.415 . S
H266 C263 0.999 . S
H267 C248 0.913 . S
H268 C286 0.951 . S
H269 C288 0.951 1_556 S
H270 C290 0.950 . S
H271 C291 0.950 . S
H272 C293 0.950 . S
H273 C296 0.950 . S
H274 C297 0.950 . S
H275 C299 0.950 . S
H276 C300 0.950 . S
H277 C301 0.951 . S
H278 C303 0.951 1_554 S
H279 C305 0.950 . S
H280 C306 0.950 . S
H281 C308 0.950 . S
H282 C311 0.950 . S
H283 C312 0.950 . S
H284 C314 0.950 . S
H285 C315 0.950 . S
C286 H268 0.951 . S
C286 C287 1.366 . S
C286 C288 1.388 . S
C287 C286 1.366 . S
C287 C291 1.385 . S
C288 H269 0.951 1_554 S
C288 C286 1.388 . S
C288 C289 1.366 . S
C289 C288 1.366 . S
C289 C290 1.414 . S
C289 C292 1.499 . S
C290 H270 0.950 . S
C290 C289 1.414 . S
C290 C291 1.374 . S
C291 H271 0.950 . S
C291 C287 1.385 . S
C291 C290 1.374 . S
C292 C289 1.499 . S
C292 C293 1.373 . S
C292 C294 1.389 1_554 S
C293 H272 0.950 . S
C293 C292 1.373 . S
C293 C309 1.377 . S
C294 C292 1.389 1_556 S
C294 C295 1.524 . S
C294 C308 1.377 . S
C295 C294 1.524 . S
C295 C296 1.397 . S
C295 C300 1.363 . S
C296 H273 0.950 . S
C296 C295 1.397 . S
C296 C297 1.334 . S
C297 H274 0.950 . S
C297 C296 1.334 . S
C297 C298 1.287 . S
C298 C297 1.287 . S
C298 C299 1.524 . S
C298 H317 0.913 . S
C299 H275 0.950 . S
C299 C298 1.524 . S
C299 C300 1.415 . S
C300 H276 0.950 . S
C300 C295 1.363 . S
C300 C299 1.415 . S
C301 H277 0.951 . S
C301 C302 1.366 . S
C301 C303 1.388 1_655 S
C302 C301 1.366 . S
C302 C306 1.385 1_655 S
C303 H278 0.951 1_556 S
C303 C301 1.388 1_455 S
C303 C304 1.366 . S
C304 C303 1.366 . S
C304 C305 1.414 . S
C304 C307 1.499 . S
C305 H279 0.950 . S
C305 C304 1.414 . S
C305 C306 1.374 . S
C306 H280 0.950 . S
C306 C302 1.385 1_455 S
C306 C305 1.374 . S
C307 C304 1.499 . S
C307 C308 1.373 . S
C307 C309 1.389 1_556 S
C308 H281 0.950 . S
C308 C294 1.377 . S
C308 C307 1.373 . S
C309 C293 1.377 . S
C309 C307 1.389 1_554 S
C309 C310 1.524 . S
C310 C309 1.524 . S
C310 C311 1.397 . S
C310 C315 1.363 . S
C311 H282 0.950 . S
C311 C310 1.397 . S
C311 C312 1.334 . S
C312 H283 0.950 . S
C312 C311 1.334 . S
C312 C313 1.287 . S
C313 C312 1.287 . S
C313 C314 1.524 . S
C313 H316 0.999 . S
C314 H284 0.950 . S
C314 C313 1.524 . S
C314 C315 1.415 . S
C315 H285 0.950 . S
C315 C310 1.363 . S
C315 C314 1.415 . S
H316 C313 0.999 . S
H317 C298 0.913 . S
H318 C336 0.951 . S
H319 C338 0.951 . S
H320 C340 0.950 . S
H321 C341 0.950 . S
H322 C343 0.950 . S
H323 C346 0.950 . S
H324 C347 0.950 . S
H325 C349 0.950 . S
H326 C350 0.950 . S
H327 C351 0.951 . S
H328 C353 0.951 . S
H329 C355 0.950 . S
H330 C356 0.950 . S
H331 C358 0.950 . S
H332 C361 0.950 . S
H333 C362 0.950 . S
H334 C364 0.950 . S
H335 C365 0.950 . S
C336 H318 0.951 . S
C336 C337 1.366 . S
C336 C338 1.388 . S
C337 C336 1.366 . S
C337 C341 1.385 . S
C338 H319 0.951 . S
C338 C336 1.388 . S
C338 C339 1.366 . S
C339 C338 1.366 . S
C339 C340 1.414 . S
C339 C342 1.499 . S
C340 H320 0.950 . S
C340 C339 1.414 . S
C340 C341 1.374 . S
C341 H321 0.950 . S
C341 C337 1.385 . S
C341 C340 1.374 . S
C342 C339 1.499 . S
C342 C343 1.373 . S
C342 C344 1.389 . S
C343 H322 0.950 . S
C343 C342 1.373 . S
C343 C359 1.377 . S
C344 C342 1.389 . S
C344 C345 1.524 . S
C344 C358 1.377 . S
C345 C344 1.524 . S
C345 C346 1.397 . S
C345 C350 1.363 . S
C346 H323 0.950 . S
C346 C345 1.397 . S
C346 C347 1.334 . S
C347 H324 0.950 . S
C347 C346 1.334 . S
C347 C348 1.287 . S
C348 C347 1.287 . S
C348 C349 1.524 . S
C348 H367 0.913 . S
C349 H325 0.950 . S
C349 C348 1.524 . S
C349 C350 1.415 . S
C350 H326 0.950 . S
C350 C345 1.363 . S
C350 C349 1.415 . S
C351 H327 0.951 . S
C351 C352 1.366 . S
C351 C353 1.388 . S
C352 C351 1.366 . S
C352 C356 1.385 . S
C353 H328 0.951 . S
C353 C351 1.388 . S
C353 C354 1.366 . S
C354 C353 1.366 . S
C354 C355 1.414 . S
C354 C357 1.499 . S
C355 H329 0.950 . S
C355 C354 1.414 . S
C355 C356 1.374 . S
C356 H330 0.950 . S
C356 C352 1.385 . S
C356 C355 1.374 . S
C357 C354 1.499 . S
C357 C358 1.373 . S
C357 C359 1.389 . S
C358 H331 0.950 . S
C358 C344 1.377 . S
C358 C357 1.373 . S
C359 C343 1.377 . S
C359 C357 1.389 . S
C359 C360 1.524 . S
C360 C359 1.524 . S
C360 C361 1.397 . S
C360 C365 1.363 . S
C361 H332 0.950 . S
C361 C360 1.397 . S
C361 C362 1.334 . S
C362 H333 0.950 . S
C362 C361 1.334 . S
C362 C363 1.287 . S
C363 C362 1.287 . S
C363 C364 1.524 . S
C363 H366 0.999 . S
C364 H334 0.950 . S
C364 C363 1.524 . S
C364 C365 1.415 . S
C365 H335 0.950 . S
C365 C360 1.363 . S
C365 C364 1.415 . S
H366 C363 0.999 . S
H367 C348 0.913 . S
H368 C386 0.951 . S
H369 C388 0.951 . S
H370 C390 0.950 . S
H371 C391 0.950 . S
H372 C393 0.950 . S
H373 C396 0.950 . S
H374 C397 0.950 . S
H375 C399 0.950 . S
H376 C400 0.950 . S
H377 C401 0.951 . S
H378 C403 0.951 . S
H379 C405 0.950 . S
H380 C406 0.953 1_545 S
H381 C408 0.950 . S
H382 C411 0.950 . S
H383 C412 0.949 1_545 S
H384 C414 0.950 . S
H385 C415 0.950 . S
C386 H368 0.951 . S
C386 C387 1.366 . S
C386 C388 1.388 . S
C387 C386 1.366 . S
C387 C391 1.385 . S
C388 H369 0.951 . S
C388 C386 1.388 . S
C388 C389 1.366 . S
C389 C388 1.366 . S
C389 C390 1.414 . S
C389 C392 1.499 . S
C390 H370 0.950 . S
C390 C389 1.414 . S
C390 C391 1.374 . S
C391 H371 0.950 . S
C391 C387 1.385 . S
C391 C390 1.374 . S
C392 C389 1.499 . S
C392 C393 1.373 . S
C392 C394 1.389 . S
C393 H372 0.950 . S
C393 C392 1.373 . S
C393 C409 1.377 . S
C394 C392 1.389 . S
C394 C395 1.524 . S
C394 C408 1.377 . S
C395 C394 1.524 . S
C395 C396 1.397 . S
C395 C400 1.363 . S
C396 H373 0.950 . S
C396 C395 1.397 . S
C396 C397 1.334 . S
C397 H374 0.950 . S
C397 C396 1.334 . S
C397 C398 1.287 . S
C398 C397 1.287 . S
C398 C399 1.524 . S
C398 H417 0.913 . S
C399 H375 0.950 . S
C399 C398 1.524 . S
C399 C400 1.415 . S
C400 H376 0.950 . S
C400 C395 1.363 . S
C400 C399 1.415 . S
C401 H377 0.951 . S
C401 C402 1.366 . S
C401 C403 1.388 1_545 S
C402 C401 1.366 . S
C402 C406 1.365 1_545 S
C403 H378 0.951 . S
C403 C401 1.388 1_565 S
C403 C404 1.366 . S
C404 C403 1.366 . S
C404 C405 1.414 . S
C404 C407 1.499 . S
C405 H379 0.950 . S
C405 C404 1.414 . S
C405 C406 1.391 . S
C406 H380 0.953 1_565 S
C406 C402 1.365 1_565 S
C406 C405 1.391 . S
C407 C404 1.499 . S
C407 C408 1.373 . S
C407 C409 1.389 . S
C408 H381 0.950 . S
C408 C394 1.377 . S
C408 C407 1.373 . S
C409 C393 1.377 . S
C409 C407 1.389 . S
C409 C410 1.524 . S
C410 C409 1.524 . S
C410 C411 1.397 . S
C410 C415 1.363 . S
C411 H382 0.950 . S
C411 C410 1.397 . S
C411 C412 1.336 . S
C412 H383 0.949 1_565 S
C412 C411 1.336 . S
C412 C413 1.286 . S
C413 C412 1.286 . S
C413 C414 1.524 . S
C413 H416 0.999 1_565 S
C414 H384 0.950 . S
C414 C413 1.524 . S
C414 C415 1.415 . S
C415 H385 0.950 . S
C415 C410 1.363 . S
C415 C414 1.415 . S
H416 C413 0.999 1_545 S
H417 C398 0.913 . S
H418 C436 0.953 . S
H419 C438 0.951 . S
H420 C440 0.950 . S
H421 C441 0.956 . S
H422 C443 0.950 . S
H423 C446 0.950 . S
H424 C447 0.950 1_655 S
H425 C449 0.950 . S
H426 C450 0.950 . S
H427 C451 0.951 . S
H428 C453 0.951 . S
H429 C455 0.950 . S
H430 C456 0.950 . S
H431 C458 0.950 . S
H432 C461 0.950 . S
H433 C462 0.950 . S
H434 C464 0.950 . S
H435 C465 0.950 . S
C436 H418 0.953 . S
C436 C437 1.366 . S
C436 C438 1.385 1_655 S
C437 C436 1.366 . S
C437 C441 1.421 . S
C438 H419 0.951 . S
C438 C436 1.385 1_455 S
C438 C439 1.366 . S
C439 C438 1.366 . S
C439 C440 1.414 . S
C439 C442 1.499 . S
C440 H420 0.950 . S
C440 C439 1.414 . S
C440 C441 1.333 1_455 S
C441 H421 0.956 . S
C441 C437 1.421 . S
C441 C440 1.333 1_655 S
C442 C439 1.499 . S
C442 C443 1.373 . S
C442 C444 1.389 . S
C443 H422 0.950 . S
C443 C442 1.373 . S
C443 C459 1.377 . S
C444 C442 1.389 . S
C444 C445 1.524 . S
C444 C458 1.377 . S
C445 C444 1.524 . S
C445 C446 1.397 . S
C445 C450 1.363 . S
C446 H423 0.950 . S
C446 C445 1.397 . S
C446 C447 1.334 . S
C447 H424 0.950 1_455 S
C447 C446 1.334 . S
C447 C448 1.287 . S
C448 C447 1.287 . S
C448 C449 1.524 . S
C448 H467 0.913 1_455 S
C449 H425 0.950 . S
C449 C448 1.524 . S
C449 C450 1.415 . S
C450 H426 0.950 . S
C450 C445 1.363 . S
C450 C449 1.415 . S
C451 H427 0.951 . S
C451 C452 1.366 . S
C451 C453 1.388 . S
C452 C451 1.366 . S
C452 C456 1.385 . S
C453 H428 0.951 . S
C453 C451 1.388 . S
C453 C454 1.366 . S
C454 C453 1.366 . S
C454 C455 1.414 . S
C454 C457 1.499 . S
C455 H429 0.950 . S
C455 C454 1.414 . S
C455 C456 1.374 . S
C456 H430 0.950 . S
C456 C452 1.385 . S
C456 C455 1.374 . S
C457 C454 1.499 . S
C457 C458 1.373 . S
C457 C459 1.389 . S
C458 H431 0.950 . S
C458 C444 1.377 . S
C458 C457 1.373 . S
C459 C443 1.377 . S
C459 C457 1.389 . S
C459 C460 1.524 . S
C460 C459 1.524 . S
C460 C461 1.397 . S
C460 C465 1.363 . S
C461 H432 0.950 . S
C461 C460 1.397 . S
C461 C462 1.334 . S
C462 H433 0.950 . S
C462 C461 1.334 . S
C462 C463 1.287 . S
C463 C462 1.287 . S
C463 C464 1.524 . S
C463 H466 0.999 . S
C464 H434 0.950 . S
C464 C463 1.524 . S
C464 C465 1.415 . S
C465 H435 0.950 . S
C465 C460 1.363 . S
C465 C464 1.415 . S
H466 C463 0.999 . S
H467 C448 0.913 1_655 S
H468 C486 0.951 . S
H469 C488 0.951 . S
H470 C490 0.950 . S
H471 C491 0.950 . S
H472 C493 0.950 . S
H473 C496 0.950 . S
H474 C497 0.950 . S
H475 C499 0.950 . S
H476 C500 0.950 . S
H477 C501 0.951 . S
H478 C503 0.951 . S
H479 C505 0.950 . S
H480 C506 0.950 . S
H481 C508 0.950 . S
H482 C511 0.950 . S
H483 C512 0.950 . S
H484 C514 0.950 . S
H485 C515 0.950 . S
C486 H468 0.951 . S
C486 C487 1.366 . S
C486 C488 1.388 . S
C487 C486 1.366 . S
C487 C491 1.385 . S
C488 H469 0.951 . S
C488 C486 1.388 . S
C488 C489 1.366 . S
C489 C488 1.366 . S
C489 C490 1.414 . S
C489 C492 1.499 . S
C490 H470 0.950 . S
C490 C489 1.414 . S
C490 C491 1.374 . S
C491 H471 0.950 . S
C491 C487 1.385 . S
C491 C490 1.374 . S
C492 C489 1.499 . S
C492 C493 1.373 . S
C492 C494 1.389 1_554 S
C493 H472 0.950 . S
C493 C492 1.373 . S
C493 C509 1.377 . S
C494 C492 1.389 1_556 S
C494 C495 1.524 . S
C494 C508 1.377 . S
C495 C494 1.524 . S
C495 C496 1.397 . S
C495 C500 1.363 . S
C496 H473 0.950 . S
C496 C495 1.397 . S
C496 C497 1.334 . S
C497 H474 0.950 . S
C497 C496 1.334 . S
C497 C498 1.287 . S
C498 C497 1.287 . S
C498 C499 1.524 . S
C498 H517 0.913 . S
C499 H475 0.950 . S
C499 C498 1.524 . S
C499 C500 1.415 . S
C500 H476 0.950 . S
C500 C495 1.363 . S
C500 C499 1.415 . S
C501 H477 0.951 . S
C501 C502 1.366 . S
C501 C503 1.388 . S
C502 C501 1.366 . S
C502 C506 1.385 . S
C503 H478 0.951 . S
C503 C501 1.388 . S
C503 C504 1.366 . S
C504 C503 1.366 . S
C504 C505 1.414 . S
C504 C507 1.499 . S
C505 H479 0.950 . S
C505 C504 1.414 . S
C505 C506 1.374 . S
C506 H480 0.950 . S
C506 C502 1.385 . S
C506 C505 1.374 . S
C507 C504 1.499 . S
C507 C508 1.373 . S
C507 C509 1.389 1_556 S
C508 H481 0.950 . S
C508 C494 1.377 . S
C508 C507 1.373 . S
C509 C493 1.377 . S
C509 C507 1.389 1_554 S
C509 C510 1.524 . S
C510 C509 1.524 . S
C510 C511 1.397 . S
C510 C515 1.363 . S
C511 H482 0.950 . S
C511 C510 1.397 . S
C511 C512 1.334 . S
C512 H483 0.950 . S
C512 C511 1.334 . S
C512 C513 1.287 . S
C513 C512 1.287 . S
C513 C514 1.524 . S
C513 H516 0.999 . S
C514 H484 0.950 . S
C514 C513 1.524 . S
C514 C515 1.415 . S
C515 H485 0.950 . S
C515 C510 1.363 . S
C515 C514 1.415 . S
H516 C513 0.999 . S
H517 C498 0.913 . S
H518 C536 0.951 . S
H519 C538 0.951 . S
H520 C540 0.950 1_554 S
H521 C541 0.950 . S
H522 C543 0.950 . S
H523 C546 0.950 . S
H524 C547 0.950 . S
H525 C549 0.950 . S
H526 C550 0.950 . S
H527 C551 0.951 . S
H528 C553 0.951 . S
H529 C555 0.950 1_556 S
H530 C556 0.950 . S
H531 C558 0.950 . S
H532 C561 0.950 . S
H533 C562 0.950 . S
H534 C564 0.950 . S
H535 C565 0.950 . S
C536 H518 0.951 . S
C536 C537 1.366 . S
C536 C538 1.388 . S
C537 C536 1.366 . S
C537 C541 1.385 . S
C538 H519 0.951 . S
C538 C536 1.388 . S
C538 C539 1.366 . S
C539 C538 1.366 . S
C539 C540 1.414 . S
C539 C542 1.499 . S
C540 H520 0.950 1_556 S
C540 C539 1.414 . S
C540 C541 1.374 . S
C541 H521 0.950 . S
C541 C537 1.385 . S
C541 C540 1.374 . S
C542 C539 1.499 . S
C542 C543 1.373 1_556 S
C542 C544 1.389 . S
C543 H522 0.950 . S
C543 C542 1.373 1_554 S
C543 C559 1.377 . S
C544 C542 1.389 . S
C544 C545 1.524 . S
C544 C558 1.377 . S
C545 C544 1.524 . S
C545 C546 1.397 . S
C545 C550 1.363 . S
C546 H523 0.950 . S
C546 C545 1.397 . S
C546 C547 1.334 . S
C547 H524 0.950 . S
C547 C546 1.334 . S
C547 C548 1.287 . S
C548 C547 1.287 . S
C548 C549 1.524 . S
C548 H567 0.913 . S
C549 H525 0.950 . S
C549 C548 1.524 . S
C549 C550 1.415 . S
C550 H526 0.950 . S
C550 C545 1.363 . S
C550 C549 1.415 . S
C551 H527 0.951 . S
C551 C552 1.366 1_545 S
C551 C553 1.388 . S
C552 C551 1.366 1_565 S
C552 C556 1.385 . S
C553 H528 0.951 . S
C553 C551 1.388 . S
C553 C554 1.366 . S
C554 C553 1.366 . S
C554 C555 1.414 . S
C554 C557 1.499 . S
C555 H529 0.950 1_554 S
C555 C554 1.414 . S
C555 C556 1.374 1_545 S
C556 H530 0.950 . S
C556 C552 1.385 . S
C556 C555 1.374 1_565 S
C557 C554 1.499 . S
C557 C558 1.373 1_554 S
C557 C559 1.389 . S
C558 H531 0.950 . S
C558 C544 1.377 . S
C558 C557 1.373 1_556 S
C559 C543 1.377 . S
C559 C557 1.389 . S
C559 C560 1.524 . S
C560 C559 1.524 . S
C560 C561 1.397 . S
C560 C565 1.363 . S
C561 H532 0.950 . S
C561 C560 1.397 . S
C561 C562 1.334 . S
C562 H533 0.950 . S
C562 C561 1.334 . S
C562 C563 1.287 . S
C563 C562 1.287 . S
C563 C564 1.524 . S
C563 H566 0.999 . S
C564 H534 0.950 . S
C564 C563 1.524 . S
C564 C565 1.415 . S
C565 H535 0.950 . S
C565 C560 1.363 . S
C565 C564 1.415 . S
H566 C563 0.999 . S
H567 C548 0.913 . S
H568 C586 0.951 . S
H569 C588 0.951 1_556 S
H570 C590 0.950 . S
H571 C591 0.950 1_455 S
H572 C593 0.950 . S
H573 C596 0.950 . S
H574 C597 0.950 . S
H575 C599 0.950 . S
H576 C600 0.950 . S
H577 C601 0.951 . S
H578 C603 0.951 1_554 S
H579 C605 0.950 . S
H580 C606 0.950 . S
H581 C608 0.950 . S
H582 C611 0.950 . S
H583 C612 0.950 . S
H584 C614 0.950 1_554 S
H585 C615 0.950 . S
C586 H568 0.951 . S
C586 C587 1.366 . S
C586 C588 1.388 1_455 S
C587 C586 1.366 . S
C587 C591 1.385 1_455 S
C588 H569 0.951 1_554 S
C588 C586 1.388 1_655 S
C588 C589 1.366 . S
C589 C588 1.366 . S
C589 C590 1.414 . S
C589 C592 1.499 . S
C590 H570 0.950 . S
C590 C589 1.414 . S
C590 C591 1.374 . S
C591 H571 0.950 1_655 S
C591 C587 1.385 1_655 S
C591 C590 1.374 . S
C592 C589 1.499 . S
C592 C593 1.373 . S
C592 C594 1.389 . S
C593 H572 0.950 . S
C593 C592 1.373 . S
C593 C609 1.377 1_554 S
C594 C592 1.389 . S
C594 C595 1.524 . S
C594 C608 1.377 1_554 S
C595 C594 1.524 . S
C595 C596 1.397 . S
C595 C600 1.363 1_554 S
C596 H573 0.950 . S
C596 C595 1.397 . S
C596 C597 1.334 . S
C597 H574 0.950 . S
C597 C596 1.334 . S
C597 C598 1.287 . S
C598 C597 1.287 . S
C598 C599 1.524 1_554 S
C598 H617 0.913 . S
C599 H575 0.950 . S
C599 C598 1.524 1_556 S
C599 C600 1.415 . S
C600 H576 0.950 . S
C600 C595 1.363 1_556 S
C600 C599 1.415 . S
C601 H577 0.951 . S
C601 C602 1.366 . S
C601 C603 1.388 . S
C602 C601 1.366 . S
C602 C606 1.385 . S
C603 H578 0.951 1_556 S
C603 C601 1.388 . S
C603 C604 1.366 . S
C604 C603 1.366 . S
C604 C605 1.414 . S
C604 C607 1.499 . S
C605 H579 0.950 . S
C605 C604 1.414 . S
C605 C606 1.374 . S
C606 H580 0.950 . S
C606 C602 1.385 . S
C606 C605 1.374 . S
C607 C604 1.499 . S
C607 C608 1.373 . S
C607 C609 1.389 . S
C608 H581 0.950 . S
C608 C594 1.377 1_556 S
C608 C607 1.373 . S
C609 C593 1.377 1_556 S
C609 C607 1.389 . S
C609 C610 1.524 . S
C610 C609 1.524 . S
C610 C611 1.397 . S
C610 C615 1.363 1_556 S
C611 H582 0.950 . S
C611 C610 1.397 . S
C611 C612 1.334 . S
C612 H583 0.950 . S
C612 C611 1.334 . S
C612 C613 1.287 . S
C613 C612 1.287 . S
C613 C614 1.524 . S
C613 H616 0.999 . S
C614 H584 0.950 1_556 S
C614 C613 1.524 . S
C614 C615 1.415 1_556 S
C615 H585 0.950 . S
C615 C610 1.363 1_554 S
C615 C614 1.415 1_554 S
H616 C613 0.999 . S
H617 C598 0.913 . S
H618 C636 0.951 . S
H619 C638 0.951 . S
H620 C640 0.950 . S
H621 C641 0.950 . S
H622 C643 0.950 . S
H623 C646 0.950 . S
H624 C647 0.950 . S
H625 C649 0.950 . S
H626 C650 0.950 . S
H627 C651 0.951 . S
H628 C653 0.951 . S
H629 C655 0.950 . S
H630 C656 0.950 . S
H631 C658 0.950 . S
H632 C661 0.950 . S
H633 C662 0.950 . S
H634 C664 0.950 . S
H635 C665 0.950 . S
C636 H618 0.951 . S
C636 C637 1.366 . S
C636 C638 1.388 . S
C637 C636 1.366 . S
C637 C641 1.385 . S
C638 H619 0.951 . S
C638 C636 1.388 . S
C638 C639 1.366 . S
C639 C638 1.366 . S
C639 C640 1.414 . S
C639 C642 1.499 . S
C640 H620 0.950 . S
C640 C639 1.414 . S
C640 C641 1.374 . S
C641 H621 0.950 . S
C641 C637 1.385 . S
C641 C640 1.374 . S
C642 C639 1.499 . S
C642 C643 1.373 . S
C642 C644 1.389 . S
C643 H622 0.950 . S
C643 C642 1.373 . S
C643 C659 1.377 . S
C644 C642 1.389 . S
C644 C645 1.524 . S
C644 C658 1.377 . S
C645 C644 1.524 . S
C645 C646 1.397 . S
C645 C650 1.363 . S
C646 H623 0.950 . S
C646 C645 1.397 . S
C646 C647 1.334 . S
C647 H624 0.950 . S
C647 C646 1.334 . S
C647 C648 1.287 . S
C648 C647 1.287 . S
C648 C649 1.524 . S
C648 H667 0.913 . S
C649 H625 0.950 . S
C649 C648 1.524 . S
C649 C650 1.415 . S
C650 H626 0.950 . S
C650 C645 1.363 . S
C650 C649 1.415 . S
C651 H627 0.951 . S
C651 C652 1.366 . S
C651 C653 1.388 . S
C652 C651 1.366 . S
C652 C656 1.385 . S
C653 H628 0.951 . S
C653 C651 1.388 . S
C653 C654 1.366 . S
C654 C653 1.366 . S
C654 C655 1.414 . S
C654 C657 1.499 . S
C655 H629 0.950 . S
C655 C654 1.414 . S
C655 C656 1.374 . S
C656 H630 0.950 . S
C656 C652 1.385 . S
C656 C655 1.374 . S
C657 C654 1.499 . S
C657 C658 1.373 . S
C657 C659 1.389 . S
C658 H631 0.950 . S
C658 C644 1.377 . S
C658 C657 1.373 . S
C659 C643 1.377 . S
C659 C657 1.389 . S
C659 C660 1.524 . S
C660 C659 1.524 . S
C660 C661 1.397 . S
C660 C665 1.363 . S
C661 H632 0.950 . S
C661 C660 1.397 . S
C661 C662 1.334 . S
C662 H633 0.950 . S
C662 C661 1.334 . S
C662 C663 1.287 . S
C663 C662 1.287 . S
C663 C664 1.524 . S
C663 H666 0.999 . S
C664 H634 0.950 . S
C664 C663 1.524 . S
C664 C665 1.415 . S
C665 H635 0.950 . S
C665 C660 1.363 . S
C665 C664 1.415 . S
H666 C663 0.999 . S
H667 C648 0.913 . S
H668 C686 0.951 . S
H669 C688 0.951 . S
H670 C690 0.950 . S
H671 C691 0.950 . S
H672 C693 0.950 . S
H673 C696 0.950 . S
H674 C697 0.950 . S
H675 C699 0.950 . S
H676 C700 0.950 . S
H677 C701 0.951 . S
H678 C703 0.951 . S
H679 C705 0.950 . S
H680 C706 0.950 . S
H681 C708 0.950 . S
H682 C711 0.950 . S
H683 C712 0.925 1_565 S
H684 C714 0.950 . S
H685 C715 0.950 . S
C686 H668 0.951 . S
C686 C687 1.366 . S
C686 C688 1.388 . S
C687 C686 1.366 . S
C687 C691 1.385 . S
C688 H669 0.951 . S
C688 C686 1.388 . S
C688 C689 1.366 . S
C689 C688 1.366 . S
C689 C690 1.414 . S
C689 C692 1.499 . S
C690 H670 0.950 . S
C690 C689 1.414 . S
C690 C691 1.374 . S
C691 H671 0.950 . S
C691 C687 1.385 . S
C691 C690 1.374 . S
C692 C689 1.499 . S
C692 C693 1.373 . S
C692 C694 1.389 . S
C693 H672 0.950 . S
C693 C692 1.373 . S
C693 C709 1.377 . S
C694 C692 1.389 . S
C694 C695 1.524 . S
C694 C708 1.377 . S
C695 C694 1.524 . S
C695 C696 1.397 . S
C695 C700 1.363 . S
C696 H673 0.950 . S
C696 C695 1.397 . S
C696 C697 1.334 . S
C697 H674 0.950 . S
C697 C696 1.334 . S
C697 C698 1.287 . S
C698 C697 1.287 . S
C698 C699 1.524 . S
C698 H717 0.913 . S
C699 H675 0.950 . S
C699 C698 1.524 . S
C699 C700 1.415 . S
C700 H676 0.950 . S
C700 C695 1.363 . S
C700 C699 1.415 . S
C701 H677 0.951 . S
C701 C702 1.366 1_545 S
C701 C703 1.388 . S
C702 C701 1.366 1_565 S
C702 C706 1.385 . S
C703 H678 0.951 . S
C703 C701 1.388 . S
C703 C704 1.366 . S
C704 C703 1.366 . S
C704 C705 1.414 . S
C704 C707 1.499 . S
C705 H679 0.950 . S
C705 C704 1.414 . S
C705 C706 1.374 1_545 S
C706 H680 0.950 . S
C706 C702 1.385 . S
C706 C705 1.374 1_565 S
C707 C704 1.499 . S
C707 C708 1.373 . S
C707 C709 1.389 . S
C708 H681 0.950 . S
C708 C694 1.377 . S
C708 C707 1.373 . S
C709 C693 1.377 . S
C709 C707 1.389 . S
C709 C710 1.524 . S
C710 C709 1.524 . S
C710 C711 1.397 . S
C710 C715 1.363 . S
C711 H682 0.950 . S
C711 C710 1.397 . S
C711 C712 1.334 . S
C712 H683 0.925 1_545 S
C712 C711 1.334 . S
C712 C713 1.287 . S
C713 C712 1.287 . S
C713 C714 1.524 . S
C713 H716 0.999 . S
C714 H684 0.950 . S
C714 C713 1.524 . S
C714 C715 1.415 . S
C715 H685 0.950 . S
C715 C710 1.363 . S
C715 C714 1.415 . S
H716 C713 0.999 . S
H717 C698 0.913 . S
H718 C736 0.951 . S
H719 C738 0.951 . S
H720 C740 0.950 . S
H721 C741 0.950 . S
H722 C743 0.950 . S
H723 C746 0.950 . S
H724 C747 0.950 . S
H725 C749 0.950 . S
H726 C750 0.950 . S
H727 C751 0.951 . S
H728 C753 0.951 . S
H729 C755 0.950 . S
H730 C756 0.950 . S
H731 C758 0.950 . S
H732 C761 0.950 . S
H733 C762 0.950 . S
H734 C764 0.950 . S
H735 C765 0.950 . S
C736 H718 0.951 . S
C736 C737 1.366 1_655 S
C736 C738 1.388 . S
C737 C736 1.366 1_455 S
C737 C741 1.385 . S
C738 H719 0.951 . S
C738 C736 1.388 . S
C738 C739 1.366 . S
C739 C738 1.366 . S
C739 C740 1.414 . S
C739 C742 1.499 . S
C740 H720 0.950 . S
C740 C739 1.414 . S
C740 C741 1.374 1_655 S
C741 H721 0.950 . S
C741 C737 1.385 . S
C741 C740 1.374 1_455 S
C742 C739 1.499 . S
C742 C743 1.373 . S
C742 C744 1.389 . S
C743 H722 0.950 . S
C743 C742 1.373 . S
C743 C759 1.377 . S
C744 C742 1.389 . S
C744 C745 1.524 . S
C744 C758 1.377 . S
C745 C744 1.524 . S
C745 C746 1.397 . S
C745 C750 1.363 . S
C746 H723 0.950 . S
C746 C745 1.397 . S
C746 C747 1.334 . S
C747 H724 0.950 . S
C747 C746 1.334 . S
C747 C748 1.287 . S
C748 C747 1.287 . S
C748 C749 1.524 . S
C748 H767 0.913 . S
C749 H725 0.950 . S
C749 C748 1.524 . S
C749 C750 1.415 . S
C750 H726 0.950 . S
C750 C745 1.363 . S
C750 C749 1.415 . S
C751 H727 0.951 . S
C751 C752 1.366 . S
C751 C753 1.388 . S
C752 C751 1.366 . S
C752 C756 1.385 . S
C753 H728 0.951 . S
C753 C751 1.388 . S
C753 C754 1.366 . S
C754 C753 1.366 . S
C754 C755 1.414 . S
C754 C757 1.499 . S
C755 H729 0.950 . S
C755 C754 1.414 . S
C755 C756 1.374 . S
C756 H730 0.950 . S
C756 C752 1.385 . S
C756 C755 1.374 . S
C757 C754 1.499 . S
C757 C758 1.373 . S
C757 C759 1.389 . S
C758 H731 0.950 . S
C758 C744 1.377 . S
C758 C757 1.373 . S
C759 C743 1.377 . S
C759 C757 1.389 . S
C759 C760 1.524 . S
C760 C759 1.524 . S
C760 C761 1.397 . S
C760 C765 1.363 . S
C761 H732 0.950 . S
C761 C760 1.397 . S
C761 C762 1.334 . S
C762 H733 0.950 . S
C762 C761 1.334 . S
C762 C763 1.287 . S
C763 C762 1.287 . S
C763 C764 1.524 . S
C763 H766 0.999 . S
C764 H734 0.950 . S
C764 C763 1.524 . S
C764 C765 1.415 . S
C765 H735 0.950 . S
C765 C760 1.363 . S
C765 C764 1.415 . S
H766 C763 0.999 . S
H767 C748 0.913 . S
H768 C786 0.951 . S
H769 C788 0.951 . S
H770 C790 0.950 . S
H771 C791 0.950 . S
H772 C793 0.950 . S
H773 C796 0.950 . S
H774 C797 0.950 . S
H775 C799 0.950 . S
H776 C800 0.950 . S
H777 C801 0.951 . S
H778 C803 0.951 . S
H779 C805 0.950 . S
H780 C806 0.950 . S
H781 C808 0.950 . S
H782 C811 0.950 . S
H783 C812 0.950 . S
H784 C814 0.950 . S
H785 C815 0.950 . S
C786 H768 0.951 . S
C786 C787 1.366 . S
C786 C788 1.388 . S
C787 C786 1.366 . S
C787 C791 1.385 . S
C788 H769 0.951 . S
C788 C786 1.388 . S
C788 C789 1.366 . S
C789 C788 1.366 . S
C789 C790 1.414 . S
C789 C792 1.499 . S
C790 H770 0.950 . S
C790 C789 1.414 . S
C790 C791 1.374 . S
C791 H771 0.950 . S
C791 C787 1.385 . S
C791 C790 1.374 . S
C792 C789 1.499 . S
C792 C793 1.373 . S
C792 C794 1.389 . S
C793 H772 0.950 . S
C793 C792 1.373 . S
C793 C809 1.377 . S
C794 C792 1.389 . S
C794 C795 1.524 . S
C794 C808 1.377 . S
C795 C794 1.524 . S
C795 C796 1.397 . S
C795 C800 1.363 . S
C796 H773 0.950 . S
C796 C795 1.397 . S
C796 C797 1.334 . S
C797 H774 0.950 . S
C797 C796 1.334 . S
C797 C798 1.287 . S
C798 C797 1.287 . S
C798 C799 1.524 . S
C798 H817 0.913 . S
C799 H775 0.950 . S
C799 C798 1.524 . S
C799 C800 1.415 . S
C800 H776 0.950 . S
C800 C795 1.363 . S
C800 C799 1.415 . S
C801 H777 0.951 . S
C801 C802 1.366 . S
C801 C803 1.388 . S
C802 C801 1.366 . S
C802 C806 1.385 . S
C803 H778 0.951 . S
C803 C801 1.388 . S
C803 C804 1.366 . S
C804 C803 1.366 . S
C804 C805 1.414 . S
C804 C807 1.499 . S
C805 H779 0.950 . S
C805 C804 1.414 . S
C805 C806 1.374 . S
C806 H780 0.950 . S
C806 C802 1.385 . S
C806 C805 1.374 . S
C807 C804 1.499 . S
C807 C808 1.373 . S
C807 C809 1.389 . S
C808 H781 0.950 . S
C808 C794 1.377 . S
C808 C807 1.373 . S
C809 C793 1.377 . S
C809 C807 1.389 . S
C809 C810 1.524 . S
C810 C809 1.524 . S
C810 C811 1.397 . S
C810 C815 1.363 . S
C811 H782 0.950 . S
C811 C810 1.397 . S
C811 C812 1.334 . S
C812 H783 0.950 . S
C812 C811 1.334 . S
C812 C813 1.287 . S
C813 C812 1.287 . S
C813 C814 1.524 . S
C813 H816 0.999 . S
C814 H784 0.950 . S
C814 C813 1.524 . S
C814 C815 1.415 . S
C815 H785 0.950 . S
C815 C810 1.363 . S
C815 C814 1.415 . S
H816 C813 0.999 . S
H817 C798 0.913 . S
H818 C836 0.951 . S
H819 C838 0.951 . S
H820 C840 0.950 . S
H821 C841 0.950 . S
H822 C843 0.950 . S
H823 C846 0.950 . S
H824 C847 0.950 . S
H825 C849 0.950 . S
H826 C850 0.950 . S
H827 C851 0.951 . S
H828 C853 0.951 . S
H829 C855 0.950 . S
H830 C856 0.950 . S
H831 C858 0.950 . S
H832 C861 0.950 . S
H833 C862 0.950 . S
H834 C864 0.950 . S
H835 C865 0.950 . S
C836 H818 0.951 . S
C836 C837 1.366 . S
C836 C838 1.388 . S
C837 C836 1.366 . S
C837 C841 1.385 . S
C838 H819 0.951 . S
C838 C836 1.388 . S
C838 C839 1.366 . S
C839 C838 1.366 . S
C839 C840 1.414 . S
C839 C842 1.499 . S
C840 H820 0.950 . S
C840 C839 1.414 . S
C840 C841 1.374 . S
C841 H821 0.950 . S
C841 C837 1.385 . S
C841 C840 1.374 . S
C842 C839 1.499 . S
C842 C843 1.373 . S
C842 C844 1.389 . S
C843 H822 0.950 . S
C843 C842 1.373 . S
C843 C859 1.377 . S
C844 C842 1.389 . S
C844 C845 1.524 . S
C844 C858 1.377 . S
C845 C844 1.524 . S
C845 C846 1.397 . S
C845 C850 1.363 . S
C846 H823 0.950 . S
C846 C845 1.397 . S
C846 C847 1.334 . S
C847 H824 0.950 . S
C847 C846 1.334 . S
C847 C848 1.287 . S
C848 C847 1.287 . S
C848 C849 1.524 . S
C848 H867 0.913 . S
C849 H825 0.950 . S
C849 C848 1.524 . S
C849 C850 1.415 . S
C850 H826 0.950 . S
C850 C845 1.363 . S
C850 C849 1.415 . S
C851 H827 0.951 . S
C851 C852 1.366 . S
C851 C853 1.388 . S
C852 C851 1.366 . S
C852 C856 1.385 . S
C853 H828 0.951 . S
C853 C851 1.388 . S
C853 C854 1.366 . S
C854 C853 1.366 . S
C854 C855 1.414 . S
C854 C857 1.499 . S
C855 H829 0.950 . S
C855 C854 1.414 . S
C855 C856 1.374 . S
C856 H830 0.950 . S
C856 C852 1.385 . S
C856 C855 1.374 . S
C857 C854 1.499 . S
C857 C858 1.373 . S
C857 C859 1.389 . S
C858 H831 0.950 . S
C858 C844 1.377 . S
C858 C857 1.373 . S
C859 C843 1.377 . S
C859 C857 1.389 . S
C859 C860 1.524 . S
C860 C859 1.524 . S
C860 C861 1.397 . S
C860 C865 1.363 . S
C861 H832 0.950 . S
C861 C860 1.397 . S
C861 C862 1.334 . S
C862 H833 0.950 . S
C862 C861 1.334 . S
C862 C863 1.287 . S
C863 C862 1.287 . S
C863 C864 1.524 . S
C863 H866 0.999 . S
C864 H834 0.950 . S
C864 C863 1.524 . S
C864 C865 1.415 . S
C865 H835 0.950 . S
C865 C860 1.363 . S
C865 C864 1.415 . S
H866 C863 0.999 . S
H867 C848 0.913 . S
H868 C886 0.951 . S
H869 C888 0.951 . S
H870 C890 0.950 . S
H871 C891 0.950 . S
H872 C893 0.950 . S
H873 C896 0.950 . S
H874 C897 0.950 . S
H875 C899 0.950 . S
H876 C900 0.950 . S
H877 C901 0.951 . S
H878 C903 0.951 . S
H879 C905 0.950 . S
H880 C906 0.950 . S
H881 C908 0.950 . S
H882 C911 0.950 . S
H883 C912 0.950 . S
H884 C914 0.950 . S
H885 C915 0.950 . S
C886 H868 0.951 . S
C886 C887 1.366 . S
C886 C888 1.388 . S
C887 C886 1.366 . S
C887 C891 1.385 . S
C888 H869 0.951 . S
C888 C886 1.388 . S
C888 C889 1.366 . S
C889 C888 1.366 . S
C889 C890 1.414 . S
C889 C892 1.499 . S
C890 H870 0.950 . S
C890 C889 1.414 . S
C890 C891 1.374 . S
C891 H871 0.950 . S
C891 C887 1.385 . S
C891 C890 1.374 . S
C892 C889 1.499 . S
C892 C893 1.373 . S
C892 C894 1.389 . S
C893 H872 0.950 . S
C893 C892 1.373 . S
C893 C909 1.377 . S
C894 C892 1.389 . S
C894 C895 1.524 . S
C894 C908 1.377 . S
C895 C894 1.524 . S
C895 C896 1.397 . S
C895 C900 1.363 . S
C896 H873 0.950 . S
C896 C895 1.397 . S
C896 C897 1.334 . S
C897 H874 0.950 . S
C897 C896 1.334 . S
C897 C898 1.287 . S
C898 C897 1.287 . S
C898 C899 1.524 . S
C898 H917 0.913 . S
C899 H875 0.950 . S
C899 C898 1.524 . S
C899 C900 1.415 . S
C900 H876 0.950 . S
C900 C895 1.363 . S
C900 C899 1.415 . S
C901 H877 0.951 . S
C901 C902 1.366 . S
C901 C903 1.388 . S
C902 C901 1.366 . S
C902 C906 1.385 . S
C903 H878 0.951 . S
C903 C901 1.388 . S
C903 C904 1.366 . S
C904 C903 1.366 . S
C904 C905 1.414 . S
C904 C907 1.499 . S
C905 H879 0.950 . S
C905 C904 1.414 . S
C905 C906 1.374 . S
C906 H880 0.950 . S
C906 C902 1.385 . S
C906 C905 1.374 . S
C907 C904 1.499 . S
C907 C908 1.373 . S
C907 C909 1.389 . S
C908 H881 0.950 . S
C908 C894 1.377 . S
C908 C907 1.373 . S
C909 C893 1.377 . S
C909 C907 1.389 . S
C909 C910 1.524 . S
C910 C909 1.524 . S
C910 C911 1.397 . S
C910 C915 1.363 . S
C911 H882 0.950 . S
C911 C910 1.397 . S
C911 C912 1.334 . S
C912 H883 0.950 . S
C912 C911 1.334 . S
C912 C913 1.287 . S
C913 C912 1.287 . S
C913 C914 1.524 . S
C913 H916 0.999 . S
C914 H884 0.950 . S
C914 C913 1.524 . S
C914 C915 1.415 . S
C915 H885 0.950 . S
C915 C910 1.363 . S
C915 C914 1.415 . S
H916 C913 0.999 . S
H917 C898 0.913 . S
H918 C936 0.951 . S
H919 C938 0.951 . S
H920 C940 0.950 . S
H921 C941 0.950 . S
H922 C943 0.950 . S
H923 C946 0.950 . S
H924 C947 0.950 . S
H925 C949 0.950 . S
H926 C950 0.950 . S
H927 C951 0.951 . S
H928 C953 0.951 . S
H929 C955 0.950 . S
H930 C956 0.950 . S
H931 C958 0.950 . S
H932 C961 0.950 . S
H933 C962 0.950 . S
H934 C964 0.950 . S
H935 C965 0.950 . S
C936 H918 0.951 . S
C936 C937 1.366 . S
C936 C938 1.388 . S
C937 C936 1.366 . S
C937 C941 1.385 . S
C938 H919 0.951 . S
C938 C936 1.388 . S
C938 C939 1.366 . S
C939 C938 1.366 . S
C939 C940 1.414 . S
C939 C942 1.499 . S
C940 H920 0.950 . S
C940 C939 1.414 . S
C940 C941 1.374 . S
C941 H921 0.950 . S
C941 C937 1.385 . S
C941 C940 1.374 . S
C942 C939 1.499 . S
C942 C943 1.373 . S
C942 C944 1.389 . S
C943 H922 0.950 . S
C943 C942 1.373 . S
C943 C959 1.377 . S
C944 C942 1.389 . S
C944 C945 1.524 . S
C944 C958 1.377 . S
C945 C944 1.524 . S
C945 C946 1.397 . S
C945 C950 1.363 . S
C946 H923 0.950 . S
C946 C945 1.397 . S
C946 C947 1.334 . S
C947 H924 0.950 . S
C947 C946 1.334 . S
C947 C948 1.287 . S
C948 C947 1.287 . S
C948 C949 1.524 . S
C948 H967 0.913 . S
C949 H925 0.950 . S
C949 C948 1.524 . S
C949 C950 1.415 . S
C950 H926 0.950 . S
C950 C945 1.363 . S
C950 C949 1.415 . S
C951 H927 0.951 . S
C951 C952 1.366 . S
C951 C953 1.388 . S
C952 C951 1.366 . S
C952 C956 1.385 . S
C953 H928 0.951 . S
C953 C951 1.388 . S
C953 C954 1.366 . S
C954 C953 1.366 . S
C954 C955 1.414 . S
C954 C957 1.499 . S
C955 H929 0.950 . S
C955 C954 1.414 . S
C955 C956 1.374 . S
C956 H930 0.950 . S
C956 C952 1.385 . S
C956 C955 1.374 . S
C957 C954 1.499 . S
C957 C958 1.373 . S
C957 C959 1.389 . S
C958 H931 0.950 . S
C958 C944 1.377 . S
C958 C957 1.373 . S
C959 C943 1.377 . S
C959 C957 1.389 . S
C959 C960 1.524 . S
C960 C959 1.524 . S
C960 C961 1.397 . S
C960 C965 1.363 . S
C961 H932 0.950 . S
C961 C960 1.397 . S
C961 C962 1.334 . S
C962 H933 0.950 . S
C962 C961 1.334 . S
C962 C963 1.287 . S
C963 C962 1.287 . S
C963 C964 1.524 . S
C963 H966 0.999 . S
C964 H934 0.950 . S
C964 C963 1.524 . S
C964 C965 1.415 . S
C965 H935 0.950 . S
C965 C960 1.363 . S
C965 C964 1.415 . S
H966 C963 0.999 . S
H967 C948 0.913 . S
H968 C986 0.951 . S
H969 C988 0.951 . S
H970 C990 0.950 . S
H971 C991 0.950 . S
H972 C993 0.950 . S
H973 C996 0.950 . S
H974 C997 0.950 . S
H975 C999 0.950 . S
H976 C1000 0.950 . S
H977 C1001 0.951 . S
H978 C1003 0.951 . S
H979 C1005 0.950 . S
H980 C1006 0.950 . S
H981 C1008 0.950 . S
H982 C1011 0.950 . S
H983 C1012 0.950 . S
H984 C1014 0.950 . S
H985 C1015 0.950 . S
C986 H968 0.951 . S
C986 C987 1.366 . S
C986 C988 1.388 . S
C987 C986 1.366 . S
C987 C991 1.385 . S
C988 H969 0.951 . S
C988 C986 1.388 . S
C988 C989 1.366 . S
C989 C988 1.366 . S
C989 C990 1.414 . S
C989 C992 1.499 . S
C990 H970 0.950 . S
C990 C989 1.414 . S
C990 C991 1.374 . S
C991 H971 0.950 . S
C991 C987 1.385 . S
C991 C990 1.374 . S
C992 C989 1.499 . S
C992 C993 1.373 . S
C992 C994 1.389 . S
C993 H972 0.950 . S
C993 C992 1.373 . S
C993 C1009 1.377 . S
C994 C992 1.389 . S
C994 C995 1.524 . S
C994 C1008 1.377 . S
C995 C994 1.524 . S
C995 C996 1.397 . S
C995 C1000 1.363 . S
C996 H973 0.950 . S
C996 C995 1.397 . S
C996 C997 1.334 . S
C997 H974 0.950 . S
C997 C996 1.334 . S
C997 C998 1.287 . S
C998 C997 1.287 . S
C998 C999 1.524 . S
C998 H1017 0.913 . S
C999 H975 0.950 . S
C999 C998 1.524 . S
C999 C1000 1.415 . S
C1000 H976 0.950 . S
C1000 C995 1.363 . S
C1000 C999 1.415 . S
C1001 H977 0.951 . S
C1001 C1002 1.366 . S
C1001 C1003 1.388 . S
C1002 C1001 1.366 . S
C1002 C1006 1.385 . S
C1003 H978 0.951 . S
C1003 C1001 1.388 . S
C1003 C1004 1.366 . S
C1004 C1003 1.366 . S
C1004 C1005 1.414 . S
C1004 C1007 1.499 . S
C1005 H979 0.950 . S
C1005 C1004 1.414 . S
C1005 C1006 1.374 . S
C1006 H980 0.950 . S
C1006 C1002 1.385 . S
C1006 C1005 1.374 . S
C1007 C1004 1.499 . S
C1007 C1008 1.373 . S
C1007 C1009 1.389 . S
C1008 H981 0.950 . S
C1008 C994 1.377 . S
C1008 C1007 1.373 . S
C1009 C993 1.377 . S
C1009 C1007 1.389 . S
C1009 C1010 1.524 . S
C1010 C1009 1.524 . S
C1010 C1011 1.397 . S
C1010 C1015 1.363 . S
C1011 H982 0.950 . S
C1011 C1010 1.397 . S
C1011 C1012 1.334 . S
C1012 H983 0.950 . S
C1012 C1011 1.334 . S
C1012 C1013 1.287 . S
C1013 C1012 1.287 . S
C1013 C1014 1.524 . S
C1013 H1016 0.999 . S
C1014 H984 0.950 . S
C1014 C1013 1.524 . S
C1014 C1015 1.415 . S
C1015 H985 0.950 . S
C1015 C1010 1.363 . S
C1015 C1014 1.415 . S
H1016 C1013 0.999 . S
H1017 C998 0.913 . S
H1018 C1036 0.951 . S
H1019 C1038 0.951 . S
H1020 C1040 0.950 . S
H1021 C1041 0.950 . S
H1022 C1043 0.950 . S
H1023 C1046 0.950 . S
H1024 C1047 0.950 . S
H1025 C1049 0.950 . S
H1026 C1050 0.950 . S
H1027 C1051 0.951 . S
H1028 C1053 0.951 . S
H1029 C1055 0.950 . S
H1030 C1056 0.950 . S
H1031 C1058 0.950 . S
H1032 C1061 0.950 . S
H1033 C1062 0.950 . S
H1034 C1064 0.950 . S
H1035 C1065 0.950 . S
C1036 H1018 0.951 . S
C1036 C1037 1.366 . S
C1036 C1038 1.388 . S
C1037 C1036 1.366 . S
C1037 C1041 1.385 . S
C1038 H1019 0.951 . S
C1038 C1036 1.388 . S
C1038 C1039 1.366 . S
C1039 C1038 1.366 . S
C1039 C1040 1.414 . S
C1039 C1042 1.499 . S
C1040 H1020 0.950 . S
C1040 C1039 1.414 . S
C1040 C1041 1.374 . S
C1041 H1021 0.950 . S
C1041 C1037 1.385 . S
C1041 C1040 1.374 . S
C1042 C1039 1.499 . S
C1042 C1043 1.373 . S
C1042 C1044 1.389 . S
C1043 H1022 0.950 . S
C1043 C1042 1.373 . S
C1043 C1059 1.377 . S
C1044 C1042 1.389 . S
C1044 C1045 1.524 . S
C1044 C1058 1.377 . S
C1045 C1044 1.524 . S
C1045 C1046 1.397 . S
C1045 C1050 1.363 . S
C1046 H1023 0.950 . S
C1046 C1045 1.397 . S
C1046 C1047 1.334 . S
C1047 H1024 0.950 . S
C1047 C1046 1.334 . S
C1047 C1048 1.287 . S
C1048 C1047 1.287 . S
C1048 C1049 1.524 . S
C1048 H1067 0.913 . S
C1049 H1025 0.950 . S
C1049 C1048 1.524 . S
C1049 C1050 1.415 . S
C1050 H1026 0.950 . S
C1050 C1045 1.363 . S
C1050 C1049 1.415 . S
C1051 H1027 0.951 . S
C1051 C1052 1.366 . S
C1051 C1053 1.388 . S
C1052 C1051 1.366 . S
C1052 C1056 1.385 . S
C1053 H1028 0.951 . S
C1053 C1051 1.388 . S
C1053 C1054 1.366 . S
C1054 C1053 1.366 . S
C1054 C1055 1.414 . S
C1054 C1057 1.499 . S
C1055 H1029 0.950 . S
C1055 C1054 1.414 . S
C1055 C1056 1.374 . S
C1056 H1030 0.950 . S
C1056 C1052 1.385 . S
C1056 C1055 1.374 . S
C1057 C1054 1.499 . S
C1057 C1058 1.373 . S
C1057 C1059 1.389 . S
C1058 H1031 0.950 . S
C1058 C1044 1.377 . S
C1058 C1057 1.373 . S
C1059 C1043 1.377 . S
C1059 C1057 1.389 . S
C1059 C1060 1.524 . S
C1060 C1059 1.524 . S
C1060 C1061 1.397 . S
C1060 C1065 1.363 . S
C1061 H1032 0.950 . S
C1061 C1060 1.397 . S
C1061 C1062 1.334 . S
C1062 H1033 0.950 . S
C1062 C1061 1.334 . S
C1062 C1063 1.287 . S
C1063 C1062 1.287 . S
C1063 C1064 1.524 . S
C1063 H1066 0.999 . S
C1064 H1034 0.950 . S
C1064 C1063 1.524 . S
C1064 C1065 1.415 . S
C1065 H1035 0.950 . S
C1065 C1060 1.363 . S
C1065 C1064 1.415 . S
H1066 C1063 0.999 . S
H1067 C1048 0.913 . S
H1068 C1086 0.951 . S
H1069 C1088 0.951 . S
H1070 C1090 0.950 1_655 S
H1071 C1091 0.950 1_655 S
H1072 C1093 0.950 . S
H1073 C1096 0.950 . S
H1074 C1097 0.950 . S
H1075 C1099 0.950 . S
H1076 C1100 0.950 . S
H1077 C1101 0.951 . S
H1078 C1103 0.951 . S
H1079 C1105 0.950 1_455 S
H1080 C1106 0.950 1_455 S
H1081 C1108 0.950 . S
H1082 C1111 0.950 . S
H1083 C1112 0.950 . S
H1084 C1114 0.950 . S
H1085 C1115 0.950 . S
C1086 H1068 0.951 . S
C1086 C1087 1.366 . S
C1086 C1088 1.388 . S
C1087 C1086 1.366 . S
C1087 C1091 1.385 . S
C1088 H1069 0.951 . S
C1088 C1086 1.388 . S
C1088 C1089 1.366 . S
C1089 C1088 1.366 . S
C1089 C1090 1.414 . S
C1089 C1092 1.499 . S
C1090 H1070 0.950 1_455 S
C1090 C1089 1.414 . S
C1090 C1091 1.374 . S
C1091 H1071 0.950 1_455 S
C1091 C1087 1.385 . S
C1091 C1090 1.374 . S
C1092 C1089 1.499 . S
C1092 C1093 1.373 1_454 S
C1092 C1094 1.389 . S
C1093 H1072 0.950 . S
C1093 C1092 1.373 1_656 S
C1093 C1109 1.377 . S
C1094 C1092 1.389 . S
C1094 C1095 1.524 . S
C1094 C1108 1.377 . S
C1095 C1094 1.524 . S
C1095 C1096 1.397 . S
C1095 C1100 1.363 . S
C1096 H1073 0.950 . S
C1096 C1095 1.397 . S
C1096 C1097 1.334 . S
C1097 H1074 0.950 . S
C1097 C1096 1.334 . S
C1097 C1098 1.287 . S
C1098 C1097 1.287 . S
C1098 C1099 1.524 . S
C1098 H1117 0.913 . S
C1099 H1075 0.950 . S
C1099 C1098 1.524 . S
C1099 C1100 1.415 . S
C1100 H1076 0.950 . S
C1100 C1095 1.363 . S
C1100 C1099 1.415 . S
C1101 H1077 0.951 . S
C1101 C1102 1.366 . S
C1101 C1103 1.388 . S
C1102 C1101 1.366 . S
C1102 C1106 1.385 . S
C1103 H1078 0.951 . S
C1103 C1101 1.388 . S
C1103 C1104 1.366 . S
C1104 C1103 1.366 . S
C1104 C1105 1.414 . S
C1104 C1107 1.499 . S
C1105 H1079 0.950 1_655 S
C1105 C1104 1.414 . S
C1105 C1106 1.374 . S
C1106 H1080 0.950 1_655 S
C1106 C1102 1.385 . S
C1106 C1105 1.374 . S
C1107 C1104 1.499 . S
C1107 C1108 1.373 1_656 S
C1107 C1109 1.389 . S
C1108 H1081 0.950 . S
C1108 C1094 1.377 . S
C1108 C1107 1.373 1_454 S
C1109 C1093 1.377 . S
C1109 C1107 1.389 . S
C1109 C1110 1.524 . S
C1110 C1109 1.524 . S
C1110 C1111 1.397 . S
C1110 C1115 1.363 . S
C1111 H1082 0.950 . S
C1111 C1110 1.397 . S
C1111 C1112 1.334 . S
C1112 H1083 0.950 . S
C1112 C1111 1.334 . S
C1112 C1113 1.287 . S
C1113 C1112 1.287 . S
C1113 C1114 1.524 . S
C1113 H1116 0.999 . S
C1114 H1084 0.950 . S
C1114 C1113 1.524 . S
C1114 C1115 1.415 . S
C1115 H1085 0.950 . S
C1115 C1110 1.363 . S
C1115 C1114 1.415 . S
H1116 C1113 0.999 . S
H1117 C1098 0.913 . S
H1118 C1136 0.951 . S
H1119 C1138 0.951 . S
H1120 C1140 0.950 . S
H1121 C1141 0.950 . S
H1122 C1143 0.950 . S
H1123 C1146 0.950 . S
H1124 C1147 0.950 . S
H1125 C1149 0.950 . S
H1126 C1150 0.950 . S
H1127 C1151 0.951 . S
H1128 C1153 0.951 . S
H1129 C1155 0.950 . S
H1130 C1156 0.950 . S
H1131 C1158 0.950 . S
H1132 C1161 0.950 . S
H1133 C1162 0.950 . S
H1134 C1164 0.950 . S
H1135 C1165 0.950 . S
C1136 H1118 0.951 . S
C1136 C1137 1.366 . S
C1136 C1138 1.388 . S
C1137 C1136 1.366 . S
C1137 C1141 1.385 . S
C1138 H1119 0.951 . S
C1138 C1136 1.388 . S
C1138 C1139 1.366 . S
C1139 C1138 1.366 . S
C1139 C1140 1.414 . S
C1139 C1142 1.499 . S
C1140 H1120 0.950 . S
C1140 C1139 1.414 . S
C1140 C1141 1.374 . S
C1141 H1121 0.950 . S
C1141 C1137 1.385 . S
C1141 C1140 1.374 . S
C1142 C1139 1.499 . S
C1142 C1143 1.373 1_554 S
C1142 C1144 1.389 . S
C1143 H1122 0.950 . S
C1143 C1142 1.373 1_556 S
C1143 C1159 1.377 . S
C1144 C1142 1.389 . S
C1144 C1145 1.524 . S
C1144 C1158 1.377 . S
C1145 C1144 1.524 . S
C1145 C1146 1.397 . S
C1145 C1150 1.363 . S
C1146 H1123 0.950 . S
C1146 C1145 1.397 . S
C1146 C1147 1.334 . S
C1147 H1124 0.950 . S
C1147 C1146 1.334 . S
C1147 C1148 1.287 . S
C1148 C1147 1.287 . S
C1148 C1149 1.524 . S
C1148 H1167 0.913 . S
C1149 H1125 0.950 . S
C1149 C1148 1.524 . S
C1149 C1150 1.415 . S
C1150 H1126 0.950 . S
C1150 C1145 1.363 . S
C1150 C1149 1.415 . S
C1151 H1127 0.951 . S
C1151 C1152 1.366 . S
C1151 C1153 1.388 . S
C1152 C1151 1.366 . S
C1152 C1156 1.385 . S
C1153 H1128 0.951 . S
C1153 C1151 1.388 . S
C1153 C1154 1.366 . S
C1154 C1153 1.366 . S
C1154 C1155 1.414 . S
C1154 C1157 1.499 . S
C1155 H1129 0.950 . S
C1155 C1154 1.414 . S
C1155 C1156 1.374 . S
C1156 H1130 0.950 . S
C1156 C1152 1.385 . S
C1156 C1155 1.374 . S
C1157 C1154 1.499 . S
C1157 C1158 1.373 1_556 S
C1157 C1159 1.389 . S
C1158 H1131 0.950 . S
C1158 C1144 1.377 . S
C1158 C1157 1.373 1_554 S
C1159 C1143 1.377 . S
C1159 C1157 1.389 . S
C1159 C1160 1.524 . S
C1160 C1159 1.524 . S
C1160 C1161 1.397 . S
C1160 C1165 1.363 . S
C1161 H1132 0.950 . S
C1161 C1160 1.397 . S
C1161 C1162 1.334 . S
C1162 H1133 0.950 . S
C1162 C1161 1.334 . S
C1162 C1163 1.287 . S
C1163 C1162 1.287 . S
C1163 C1164 1.524 . S
C1163 H1166 0.999 . S
C1164 H1134 0.950 . S
C1164 C1163 1.524 . S
C1164 C1165 1.415 . S
C1165 H1135 0.950 . S
C1165 C1160 1.363 . S
C1165 C1164 1.415 . S
H1166 C1163 0.999 . S
H1167 C1148 0.913 . S
H1168 C1186 0.951 . S
H1169 C1188 0.951 1_556 S
H1170 C1190 0.950 . S
H1171 C1191 0.950 . S
H1172 C1193 0.950 . S
H1173 C1196 0.950 1_554 S
H1174 C1197 0.950 . S
H1175 C1199 0.950 . S
H1176 C1200 0.950 . S
H1177 C1201 0.951 . S
H1178 C1203 0.951 1_554 S
H1179 C1205 0.950 . S
H1180 C1206 0.950 . S
H1181 C1208 0.950 . S
H1182 C1211 0.950 1_556 S
H1183 C1212 0.950 . S
H1184 C1214 0.950 . S
H1185 C1215 0.950 . S
C1186 H1168 0.951 . S
C1186 C1187 1.366 . S
C1186 C1188 1.388 . S
C1187 C1186 1.366 . S
C1187 C1191 1.385 . S
C1188 H1169 0.951 1_554 S
C1188 C1186 1.388 . S
C1188 C1189 1.366 . S
C1189 C1188 1.366 . S
C1189 C1190 1.414 . S
C1189 C1192 1.499 . S
C1190 H1170 0.950 . S
C1190 C1189 1.414 . S
C1190 C1191 1.374 . S
C1191 H1171 0.950 . S
C1191 C1187 1.385 . S
C1191 C1190 1.374 . S
C1192 C1189 1.499 . S
C1192 C1193 1.373 1_565 S
C1192 C1194 1.389 1_554 S
C1193 H1172 0.950 . S
C1193 C1192 1.373 1_545 S
C1193 C1209 1.377 . S
C1194 C1192 1.389 1_556 S
C1194 C1195 1.524 . S
C1194 C1208 1.377 . S
C1195 C1194 1.524 . S
C1195 C1196 1.397 . S
C1195 C1200 1.363 . S
C1196 H1173 0.950 1_556 S
C1196 C1195 1.397 . S
C1196 C1197 1.334 . S
C1197 H1174 0.950 . S
C1197 C1196 1.334 . S
C1197 C1198 1.287 . S
C1198 C1197 1.287 . S
C1198 C1199 1.524 . S
C1198 H1217 0.913 . S
C1199 H1175 0.950 . S
C1199 C1198 1.524 . S
C1199 C1200 1.415 . S
C1200 H1176 0.950 . S
C1200 C1195 1.363 . S
C1200 C1199 1.415 . S
C1201 H1177 0.951 . S
C1201 C1202 1.366 . S
C1201 C1203 1.388 . S
C1202 C1201 1.366 . S
C1202 C1206 1.385 . S
C1203 H1178 0.951 1_556 S
C1203 C1201 1.388 . S
C1203 C1204 1.366 . S
C1204 C1203 1.366 . S
C1204 C1205 1.414 . S
C1204 C1207 1.499 . S
C1205 H1179 0.950 . S
C1205 C1204 1.414 . S
C1205 C1206 1.374 . S
C1206 H1180 0.950 . S
C1206 C1202 1.385 . S
C1206 C1205 1.374 . S
C1207 C1204 1.499 . S
C1207 C1208 1.373 1_545 S
C1207 C1209 1.389 1_556 S
C1208 H1181 0.950 . S
C1208 C1194 1.377 . S
C1208 C1207 1.373 1_565 S
C1209 C1193 1.377 . S
C1209 C1207 1.389 1_554 S
C1209 C1210 1.524 . S
C1210 C1209 1.524 . S
C1210 C1211 1.397 . S
C1210 C1215 1.363 . S
C1211 H1182 0.950 1_554 S
C1211 C1210 1.397 . S
C1211 C1212 1.334 . S
C1212 H1183 0.950 . S
C1212 C1211 1.334 . S
C1212 C1213 1.287 . S
C1213 C1212 1.287 . S
C1213 C1214 1.524 . S
C1213 H1216 0.999 . S
C1214 H1184 0.950 . S
C1214 C1213 1.524 . S
C1214 C1215 1.415 . S
C1215 H1185 0.950 . S
C1215 C1210 1.363 . S
C1215 C1214 1.415 . S
H1216 C1213 0.999 . S
H1217 C1198 0.913 . S
H1218 C1236 0.951 . S
H1219 C1238 0.951 1_545 S
H1220 C1240 0.950 . S
H1221 C1241 0.950 . S
H1222 C1243 0.950 . S
H1223 C1246 0.950 . S
H1224 C1247 0.950 . S
H1225 C1249 0.950 . S
H1226 C1250 0.950 . S
H1227 C1251 0.951 . S
H1228 C1253 0.951 1_565 S
H1229 C1255 0.950 . S
H1230 C1256 0.950 . S
H1231 C1258 0.950 . S
H1232 C1261 0.950 . S
H1233 C1262 0.950 . S
H1234 C1264 0.950 . S
H1235 C1265 0.950 . S
C1236 H1218 0.951 . S
C1236 C1237 1.366 . S
C1236 C1238 1.388 . S
C1237 C1236 1.366 . S
C1237 C1241 1.385 . S
C1238 H1219 0.951 1_565 S
C1238 C1236 1.388 . S
C1238 C1239 1.366 . S
C1239 C1238 1.366 . S
C1239 C1240 1.414 . S
C1239 C1242 1.499 . S
C1240 H1220 0.950 . S
C1240 C1239 1.414 . S
C1240 C1241 1.374 . S
C1241 H1221 0.950 . S
C1241 C1237 1.385 . S
C1241 C1240 1.374 . S
C1242 C1239 1.499 . S
C1242 C1243 1.373 . S
C1242 C1244 1.396 . S
C1243 H1222 0.950 . S
C1243 C1242 1.373 . S
C1243 C1259 1.362 1_565 S
C1244 C1242 1.396 . S
C1244 C1245 1.533 . S
C1244 C1258 1.362 1_565 S
C1245 C1244 1.533 . S
C1245 C1246 1.397 . S
C1245 C1250 1.363 1_565 S
C1246 H1223 0.950 . S
C1246 C1245 1.397 . S
C1246 C1247 1.334 . S
C1247 H1224 0.950 . S
C1247 C1246 1.334 . S
C1247 C1248 1.287 . S
C1248 C1247 1.287 . S
C1248 C1249 1.524 1_565 S
C1248 H1267 0.913 . S
C1249 H1225 0.950 . S
C1249 C1248 1.524 1_545 S
C1249 C1250 1.415 . S
C1250 H1226 0.950 . S
C1250 C1245 1.363 1_545 S
C1250 C1249 1.415 . S
C1251 H1227 0.951 . S
C1251 C1252 1.366 . S
C1251 C1253 1.388 . S
C1252 C1251 1.366 . S
C1252 C1256 1.385 . S
C1253 H1228 0.951 1_545 S
C1253 C1251 1.388 . S
C1253 C1254 1.366 . S
C1254 C1253 1.366 . S
C1254 C1255 1.414 . S
C1254 C1257 1.499 . S
C1255 H1229 0.950 . S
C1255 C1254 1.414 . S
C1255 C1256 1.374 . S
C1256 H1230 0.950 . S
C1256 C1252 1.385 . S
C1256 C1255 1.374 . S
C1257 C1254 1.499 . S
C1257 C1258 1.373 . S
C1257 C1259 1.396 . S
C1258 H1231 0.950 . S
C1258 C1244 1.362 1_545 S
C1258 C1257 1.373 . S
C1259 C1243 1.362 1_545 S
C1259 C1257 1.396 . S
C1259 C1260 1.533 . S
C1260 C1259 1.533 . S
C1260 C1261 1.397 . S
C1260 C1265 1.363 1_545 S
C1261 H1232 0.950 . S
C1261 C1260 1.397 . S
C1261 C1262 1.334 . S
C1262 H1233 0.950 . S
C1262 C1261 1.334 . S
C1262 C1263 1.287 . S
C1263 C1262 1.287 . S
C1263 C1264 1.524 1_545 S
C1263 H1266 0.999 . S
C1264 H1234 0.950 . S
C1264 C1263 1.524 1_565 S
C1264 C1265 1.415 . S
C1265 H1235 0.950 . S
C1265 C1260 1.363 1_565 S
C1265 C1264 1.415 . S
H1266 C1263 0.999 . S
H1267 C1248 0.913 . S
H1268 C1286 0.951 . S
H1269 C1288 0.951 . S
H1270 C1290 0.951 1_455 S
H1271 C1291 0.950 . S
H1272 C1293 0.950 . S
H1273 C1296 0.950 . S
H1274 C1297 0.950 . S
H1275 C1299 0.950 . S
H1276 C1300 0.950 1_655 S
H1277 C1301 0.951 . S
H1278 C1303 0.951 . S
H1279 C1305 0.951 1_655 S
H1280 C1306 0.950 . S
H1281 C1308 0.950 . S
H1282 C1311 0.950 . S
H1283 C1312 0.950 . S
H1284 C1314 0.950 . S
H1285 C1315 0.950 1_455 S
C1286 H1268 0.951 . S
C1286 C1287 1.366 . S
C1286 C1288 1.388 . S
C1287 C1286 1.366 . S
C1287 C1291 1.385 . S
C1288 H1269 0.951 . S
C1288 C1286 1.388 . S
C1288 C1289 1.366 . S
C1289 C1288 1.366 . S
C1289 C1290 1.414 . S
C1289 C1292 1.499 . S
C1290 H1270 0.951 1_655 S
C1290 C1289 1.414 . S
C1290 C1291 1.374 . S
C1291 H1271 0.950 . S
C1291 C1287 1.385 . S
C1291 C1290 1.374 . S
C1292 C1289 1.499 . S
C1292 C1293 1.373 . S
C1292 C1294 1.389 1_655 S
C1293 H1272 0.950 . S
C1293 C1292 1.373 . S
C1293 C1309 1.377 . S
C1294 C1292 1.389 1_455 S
C1294 C1295 1.524 . S
C1294 C1308 1.377 . S
C1295 C1294 1.524 . S
C1295 C1296 1.397 . S
C1295 C1300 1.363 . S
C1296 H1273 0.950 . S
C1296 C1295 1.397 . S
C1296 C1297 1.334 . S
C1297 H1274 0.950 . S
C1297 C1296 1.334 . S
C1297 C1298 1.287 . S
C1298 C1297 1.287 . S
C1298 C1299 1.524 . S
C1298 H1317 0.913 . S
C1299 H1275 0.950 . S
C1299 C1298 1.524 . S
C1299 C1300 1.415 . S
C1300 H1276 0.950 1_455 S
C1300 C1295 1.363 . S
C1300 C1299 1.415 . S
C1301 H1277 0.951 . S
C1301 C1302 1.366 . S
C1301 C1303 1.388 . S
C1302 C1301 1.366 . S
C1302 C1306 1.385 . S
C1303 H1278 0.951 . S
C1303 C1301 1.388 . S
C1303 C1304 1.366 . S
C1304 C1303 1.366 . S
C1304 C1305 1.414 . S
C1304 C1307 1.499 . S
C1305 H1279 0.951 1_455 S
C1305 C1304 1.414 . S
C1305 C1306 1.374 . S
C1306 H1280 0.950 . S
C1306 C1302 1.385 . S
C1306 C1305 1.374 . S
C1307 C1304 1.499 . S
C1307 C1308 1.373 . S
C1307 C1309 1.389 1_455 S
C1308 H1281 0.950 . S
C1308 C1294 1.377 . S
C1308 C1307 1.373 . S
C1309 C1293 1.377 . S
C1309 C1307 1.389 1_655 S
C1309 C1310 1.524 . S
C1310 C1309 1.524 . S
C1310 C1311 1.397 . S
C1310 C1315 1.363 . S
C1311 H1282 0.950 . S
C1311 C1310 1.397 . S
C1311 C1312 1.334 . S
C1312 H1283 0.950 . S
C1312 C1311 1.334 . S
C1312 C1313 1.287 . S
C1313 C1312 1.287 . S
C1313 C1314 1.524 . S
C1313 H1316 0.999 . S
C1314 H1284 0.950 . S
C1314 C1313 1.524 . S
C1314 C1315 1.415 . S
C1315 H1285 0.950 1_655 S
C1315 C1310 1.363 . S
C1315 C1314 1.415 . S
H1316 C1313 0.999 . S
H1317 C1298 0.913 . S
H1318 C1336 0.951 . S
H1319 C1338 0.951 . S
H1320 C1340 0.950 . S
H1321 C1341 0.950 . S
H1322 C1343 0.950 . S
H1323 C1346 0.950 . S
H1324 C1347 0.950 . S
H1325 C1349 0.950 . S
H1326 C1350 0.950 . S
H1327 C1351 0.951 . S
H1328 C1353 0.951 . S
H1329 C1355 0.950 . S
H1330 C1356 0.950 . S
H1331 C1358 0.950 . S
H1332 C1361 0.950 . S
H1333 C1362 0.950 . S
H1334 C1364 0.950 . S
H1335 C1365 0.950 . S
C1336 H1318 0.951 . S
C1336 C1337 1.366 . S
C1336 C1338 1.388 . S
C1337 C1336 1.366 . S
C1337 C1341 1.385 . S
C1338 H1319 0.951 . S
C1338 C1336 1.388 . S
C1338 C1339 1.366 . S
C1339 C1338 1.366 . S
C1339 C1340 1.414 . S
C1339 C1342 1.499 . S
C1340 H1320 0.950 . S
C1340 C1339 1.414 . S
C1340 C1341 1.374 . S
C1341 H1321 0.950 . S
C1341 C1337 1.385 . S
C1341 C1340 1.374 . S
C1342 C1339 1.499 . S
C1342 C1343 1.373 . S
C1342 C1344 1.389 . S
C1343 H1322 0.950 . S
C1343 C1342 1.373 . S
C1343 C1359 1.377 . S
C1344 C1342 1.389 . S
C1344 C1345 1.524 . S
C1344 C1358 1.377 . S
C1345 C1344 1.524 . S
C1345 C1346 1.397 . S
C1345 C1350 1.363 . S
C1346 H1323 0.950 . S
C1346 C1345 1.397 . S
C1346 C1347 1.334 . S
C1347 H1324 0.950 . S
C1347 C1346 1.334 . S
C1347 C1348 1.287 . S
C1348 C1347 1.287 . S
C1348 C1349 1.524 . S
C1348 H1367 0.913 . S
C1349 H1325 0.950 . S
C1349 C1348 1.524 . S
C1349 C1350 1.415 . S
C1350 H1326 0.950 . S
C1350 C1345 1.363 . S
C1350 C1349 1.415 . S
C1351 H1327 0.951 . S
C1351 C1352 1.366 . S
C1351 C1353 1.388 . S
C1352 C1351 1.366 . S
C1352 C1356 1.385 . S
C1353 H1328 0.951 . S
C1353 C1351 1.388 . S
C1353 C1354 1.366 . S
C1354 C1353 1.366 . S
C1354 C1355 1.414 . S
C1354 C1357 1.499 . S
C1355 H1329 0.950 . S
C1355 C1354 1.414 . S
C1355 C1356 1.374 . S
C1356 H1330 0.950 . S
C1356 C1352 1.385 . S
C1356 C1355 1.374 . S
C1357 C1354 1.499 . S
C1357 C1358 1.373 . S
C1357 C1359 1.389 . S
C1358 H1331 0.950 . S
C1358 C1344 1.377 . S
C1358 C1357 1.373 . S
C1359 C1343 1.377 . S
C1359 C1357 1.389 . S
C1359 C1360 1.524 . S
C1360 C1359 1.524 . S
C1360 C1361 1.397 . S
C1360 C1365 1.363 . S
C1361 H1332 0.950 . S
C1361 C1360 1.397 . S
C1361 C1362 1.334 . S
C1362 H1333 0.950 . S
C1362 C1361 1.334 . S
C1362 C1363 1.287 . S
C1363 C1362 1.287 . S
C1363 C1364 1.524 . S
C1363 H1366 0.999 . S
C1364 H1334 0.950 . S
C1364 C1363 1.524 . S
C1364 C1365 1.415 . S
C1365 H1335 0.950 . S
C1365 C1360 1.363 . S
C1365 C1364 1.415 . S
H1366 C1363 0.999 . S
H1367 C1348 0.913 . S
C187 C8 0.922 . S
C202 C107 0.920 . S
C237 C22 0.921 . S
C252 C121 0.921 . S
C287 C36 0.921 . S
C302 C93 0.922 . S
C337 C163 0.921 . S
C352 C50 0.921 . S
C387 C64 0.921 . S
C402 C135 0.921 . S
C437 C149 0.921 . S
C452 C78 0.921 . S
C487 C23 0.921 . S
C502 C92 0.921 . S
C537 C106 0.922 . S
C552 C37 0.921 . S
C587 C9 0.921 . S
C602 C120 0.922 . S
C637 C134 0.921 . S
C652 C79 0.921 . S
C687 C148 0.921 . S
C702 C51 0.921 . S
C737 C65 0.920 . S
C752 C162 0.921 . S
C787 C76 1.461 . S
C802 C6 1.460 . S
C837 C20 1.460 . S
C852 C48 1.461 . S
C887 C34 1.460 . S
C902 C62 1.461 . S
C937 C90 1.460 . S
C952 C160 1.461 . S
C987 C104 1.460 . S
C1002 C132 1.461 . S
C1037 C118 1.460 . S
C1052 C146 1.461 . S
C1087 C7 1.682 . S
C1102 C91 1.682 . S
C1137 C21 1.683 . S
C1152 C105 1.683 . S
C1187 C35 1.683 . S
C1202 C119 1.683 . S
C1237 C49 1.684 . S
C1252 C133 1.684 . S
C1287 C147 1.683 . S
C1302 C63 1.683 . S
C1337 C77 1.683 . S
C1352 C161 1.683 . S
