# Generated by pormake.
# Topology wln, (5)-cn, num edge types: 1
# Building blocks:
#     Node 0, Type 0, BuildingBlock: XOMCOT_clean_sbu_0, # of connection points: 5
#     Node 1, Type 0, BuildingBlock: XOMCOT_clean_sbu_0, # of connection points: 5
#     Node 2, Type 0, BuildingBlock: XOMCOT_clean_sbu_0, # of connection points: 5
#     Node 3, Type 0, BuildingBlock: XOMCOT_clean_sbu_0, # of connection points: 5
#     Node 4, Type 0, BuildingBlock: XOMCOT_clean_sbu_0, # of connection points: 5
#     Node 5, Type 0, BuildingBlock: XOMCOT_clean_sbu_0, # of connection points: 5
#     Node 6, Type 0, BuildingBlock: XOMCOT_clean_sbu_0, # of connection points: 5
#     Node 7, Type 0, BuildingBlock: XOMCOT_clean_sbu_0, # of connection points: 5
#     Node 8, Type 0, BuildingBlock: XOMCOT_clean_sbu_0, # of connection points: 5
#     Node 9, Type 0, BuildingBlock: XOMCOT_clean_sbu_0, # of connection points: 5
#     Node 10, Type 0, BuildingBlock: XOMCOT_clean_sbu_0, # of connection points: 5
#     Node 11, Type 0, BuildingBlock: XOMCOT_clean_sbu_0, # of connection points: 5
#     Node 12, Type 0, BuildingBlock: XOMCOT_clean_sbu_0, # of connection points: 5
#     Node 13, Type 0, BuildingBlock: XOMCOT_clean_sbu_0, # of connection points: 5
#     Node 14, Type 0, BuildingBlock: XOMCOT_clean_sbu_0, # of connection points: 5
#     Node 15, Type 0, BuildingBlock: XOMCOT_clean_sbu_0, # of connection points: 5
#     Node 16, Type 0, BuildingBlock: XOMCOT_clean_sbu_0, # of connection points: 5
#     Node 17, Type 0, BuildingBlock: XOMCOT_clean_sbu_0, # of connection points: 5
#     Node 18, Type 0, BuildingBlock: XOMCOT_clean_sbu_0, # of connection points: 5
#     Node 19, Type 0, BuildingBlock: XOMCOT_clean_sbu_0, # of connection points: 5
#     Node 20, Type 0, BuildingBlock: XOMCOT_clean_sbu_0, # of connection points: 5
#     Node 21, Type 0, BuildingBlock: XOMCOT_clean_sbu_0, # of connection points: 5
#     Node 22, Type 0, BuildingBlock: XOMCOT_clean_sbu_0, # of connection points: 5
#     Node 23, Type 0, BuildingBlock: XOMCOT_clean_sbu_0, # of connection points: 5
#     Node 24, Type 0, BuildingBlock: XOMCOT_clean_sbu_0, # of connection points: 5
#     Node 25, Type 0, BuildingBlock: XOMCOT_clean_sbu_0, # of connection points: 5
#     Node 26, Type 0, BuildingBlock: XOMCOT_clean_sbu_0, # of connection points: 5
#     Node 27, Type 0, BuildingBlock: XOMCOT_clean_sbu_0, # of connection points: 5
#     Node 28, Type 0, BuildingBlock: XOMCOT_clean_sbu_0, # of connection points: 5
#     Node 29, Type 0, BuildingBlock: XOMCOT_clean_sbu_0, # of connection points: 5
#     Node 30, Type 0, BuildingBlock: XOMCOT_clean_sbu_0, # of connection points: 5
#     Node 31, Type 0, BuildingBlock: XOMCOT_clean_sbu_0, # of connection points: 5
#     Node 32, Type 0, BuildingBlock: XOMCOT_clean_sbu_0, # of connection points: 5
#     Node 33, Type 0, BuildingBlock: XOMCOT_clean_sbu_0, # of connection points: 5
#     Node 34, Type 0, BuildingBlock: XOMCOT_clean_sbu_0, # of connection points: 5
#     Node 35, Type 0, BuildingBlock: XOMCOT_clean_sbu_0, # of connection points: 5
#     Edge 36, Type (0, 0), BuildingBlock: KIFKEQ_clean_linker_1, # of connection points: 2
#     Edge 37, Type (0, 0), BuildingBlock: KIFKEQ_clean_linker_1, # of connection points: 2
#     Edge 38, Type (0, 0), BuildingBlock: KIFKEQ_clean_linker_1, # of connection points: 2
#     Edge 39, Type (0, 0), BuildingBlock: KIFKEQ_clean_linker_1, # of connection points: 2
#     Edge 40, Type (0, 0), BuildingBlock: KIFKEQ_clean_linker_1, # of connection points: 2
#     Edge 41, Type (0, 0), BuildingBlock: KIFKEQ_clean_linker_1, # of connection points: 2
#     Edge 42, Type (0, 0), BuildingBlock: KIFKEQ_clean_linker_1, # of connection points: 2
#     Edge 43, Type (0, 0), BuildingBlock: KIFKEQ_clean_linker_1, # of connection points: 2
#     Edge 44, Type (0, 0), BuildingBlock: KIFKEQ_clean_linker_1, # of connection points: 2
#     Edge 45, Type (0, 0), BuildingBlock: KIFKEQ_clean_linker_1, # of connection points: 2
#     Edge 46, Type (0, 0), BuildingBlock: KIFKEQ_clean_linker_1, # of connection points: 2
#     Edge 47, Type (0, 0), BuildingBlock: KIFKEQ_clean_linker_1, # of connection points: 2
#     Edge 48, Type (0, 0), BuildingBlock: KIFKEQ_clean_linker_1, # of connection points: 2
#     Edge 49, Type (0, 0), BuildingBlock: KIFKEQ_clean_linker_1, # of connection points: 2
#     Edge 50, Type (0, 0), BuildingBlock: KIFKEQ_clean_linker_1, # of connection points: 2
#     Edge 51, Type (0, 0), BuildingBlock: KIFKEQ_clean_linker_1, # of connection points: 2
#     Edge 52, Type (0, 0), BuildingBlock: KIFKEQ_clean_linker_1, # of connection points: 2
#     Edge 53, Type (0, 0), BuildingBlock: KIFKEQ_clean_linker_1, # of connection points: 2
#     Edge 54, Type (0, 0), BuildingBlock: KIFKEQ_clean_linker_1, # of connection points: 2
#     Edge 55, Type (0, 0), BuildingBlock: KIFKEQ_clean_linker_1, # of connection points: 2
#     Edge 56, Type (0, 0), BuildingBlock: KIFKEQ_clean_linker_1, # of connection points: 2
#     Edge 57, Type (0, 0), BuildingBlock: KIFKEQ_clean_linker_1, # of connection points: 2
#     Edge 58, Type (0, 0), BuildingBlock: KIFKEQ_clean_linker_1, # of connection points: 2
#     Edge 59, Type (0, 0), BuildingBlock: KIFKEQ_clean_linker_1, # of connection points: 2
#     Edge 60, Type (0, 0), BuildingBlock: KIFKEQ_clean_linker_1, # of connection points: 2
#     Edge 61, Type (0, 0), BuildingBlock: KIFKEQ_clean_linker_1, # of connection points: 2
#     Edge 62, Type (0, 0), BuildingBlock: KIFKEQ_clean_linker_1, # of connection points: 2
#     Edge 63, Type (0, 0), BuildingBlock: KIFKEQ_clean_linker_1, # of connection points: 2
#     Edge 64, Type (0, 0), BuildingBlock: KIFKEQ_clean_linker_1, # of connection points: 2
#     Edge 65, Type (0, 0), BuildingBlock: KIFKEQ_clean_linker_1, # of connection points: 2
#     Edge 66, Type (0, 0), BuildingBlock: KIFKEQ_clean_linker_1, # of connection points: 2
#     Edge 67, Type (0, 0), BuildingBlock: KIFKEQ_clean_linker_1, # of connection points: 2
#     Edge 68, Type (0, 0), BuildingBlock: KIFKEQ_clean_linker_1, # of connection points: 2
#     Edge 69, Type (0, 0), BuildingBlock: KIFKEQ_clean_linker_1, # of connection points: 2
#     Edge 70, Type (0, 0), BuildingBlock: KIFKEQ_clean_linker_1, # of connection points: 2
#     Edge 71, Type (0, 0), BuildingBlock: KIFKEQ_clean_linker_1, # of connection points: 2
#     Edge 72, Type (0, 0), BuildingBlock: KIFKEQ_clean_linker_1, # of connection points: 2
#     Edge 73, Type (0, 0), BuildingBlock: KIFKEQ_clean_linker_1, # of connection points: 2
#     Edge 74, Type (0, 0), BuildingBlock: KIFKEQ_clean_linker_1, # of connection points: 2
#     Edge 75, Type (0, 0), BuildingBlock: KIFKEQ_clean_linker_1, # of connection points: 2
#     Edge 76, Type (0, 0), BuildingBlock: KIFKEQ_clean_linker_1, # of connection points: 2
#     Edge 77, Type (0, 0), BuildingBlock: KIFKEQ_clean_linker_1, # of connection points: 2
#     Edge 78, Type (0, 0), BuildingBlock: KIFKEQ_clean_linker_1, # of connection points: 2
#     Edge 79, Type (0, 0), BuildingBlock: KIFKEQ_clean_linker_1, # of connection points: 2
#     Edge 80, Type (0, 0), BuildingBlock: KIFKEQ_clean_linker_1, # of connection points: 2
#     Edge 81, Type (0, 0), BuildingBlock: KIFKEQ_clean_linker_1, # of connection points: 2
#     Edge 82, Type (0, 0), BuildingBlock: KIFKEQ_clean_linker_1, # of connection points: 2
#     Edge 83, Type (0, 0), BuildingBlock: KIFKEQ_clean_linker_1, # of connection points: 2
#     Edge 84, Type (0, 0), BuildingBlock: KIFKEQ_clean_linker_1, # of connection points: 2
#     Edge 85, Type (0, 0), BuildingBlock: KIFKEQ_clean_linker_1, # of connection points: 2
#     Edge 86, Type (0, 0), BuildingBlock: KIFKEQ_clean_linker_1, # of connection points: 2
#     Edge 87, Type (0, 0), BuildingBlock: KIFKEQ_clean_linker_1, # of connection points: 2
#     Edge 88, Type (0, 0), BuildingBlock: KIFKEQ_clean_linker_1, # of connection points: 2
#     Edge 89, Type (0, 0), BuildingBlock: KIFKEQ_clean_linker_1, # of connection points: 2
#     Edge 90, Type (0, 0), BuildingBlock: KIFKEQ_clean_linker_1, # of connection points: 2
#     Edge 91, Type (0, 0), BuildingBlock: KIFKEQ_clean_linker_1, # of connection points: 2
#     Edge 92, Type (0, 0), BuildingBlock: KIFKEQ_clean_linker_1, # of connection points: 2
#     Edge 93, Type (0, 0), BuildingBlock: KIFKEQ_clean_linker_1, # of connection points: 2
#     Edge 94, Type (0, 0), BuildingBlock: KIFKEQ_clean_linker_1, # of connection points: 2
#     Edge 95, Type (0, 0), BuildingBlock: KIFKEQ_clean_linker_1, # of connection points: 2
#     Edge 96, Type (0, 0), BuildingBlock: KIFKEQ_clean_linker_1, # of connection points: 2
#     Edge 97, Type (0, 0), BuildingBlock: KIFKEQ_clean_linker_1, # of connection points: 2
#     Edge 98, Type (0, 0), BuildingBlock: KIFKEQ_clean_linker_1, # of connection points: 2
#     Edge 99, Type (0, 0), BuildingBlock: KIFKEQ_clean_linker_1, # of connection points: 2
#     Edge 100, Type (0, 0), BuildingBlock: KIFKEQ_clean_linker_1, # of connection points: 2
#     Edge 101, Type (0, 0), BuildingBlock: KIFKEQ_clean_linker_1, # of connection points: 2
#     Edge 102, Type (0, 0), BuildingBlock: KIFKEQ_clean_linker_1, # of connection points: 2
#     Edge 103, Type (0, 0), BuildingBlock: KIFKEQ_clean_linker_1, # of connection points: 2
#     Edge 104, Type (0, 0), BuildingBlock: KIFKEQ_clean_linker_1, # of connection points: 2
#     Edge 105, Type (0, 0), BuildingBlock: KIFKEQ_clean_linker_1, # of connection points: 2
#     Edge 106, Type (0, 0), BuildingBlock: KIFKEQ_clean_linker_1, # of connection points: 2
#     Edge 107, Type (0, 0), BuildingBlock: KIFKEQ_clean_linker_1, # of connection points: 2
#     Edge 108, Type (0, 0), BuildingBlock: KIFKEQ_clean_linker_1, # of connection points: 2
#     Edge 109, Type (0, 0), BuildingBlock: KIFKEQ_clean_linker_1, # of connection points: 2
#     Edge 110, Type (0, 0), BuildingBlock: KIFKEQ_clean_linker_1, # of connection points: 2
#     Edge 111, Type (0, 0), BuildingBlock: KIFKEQ_clean_linker_1, # of connection points: 2
#     Edge 112, Type (0, 0), BuildingBlock: KIFKEQ_clean_linker_1, # of connection points: 2
#     Edge 113, Type (0, 0), BuildingBlock: KIFKEQ_clean_linker_1, # of connection points: 2
#     Edge 114, Type (0, 0), BuildingBlock: KIFKEQ_clean_linker_1, # of connection points: 2
#     Edge 115, Type (0, 0), BuildingBlock: KIFKEQ_clean_linker_1, # of connection points: 2
#     Edge 116, Type (0, 0), BuildingBlock: KIFKEQ_clean_linker_1, # of connection points: 2
#     Edge 117, Type (0, 0), BuildingBlock: KIFKEQ_clean_linker_1, # of connection points: 2
#     Edge 118, Type (0, 0), BuildingBlock: KIFKEQ_clean_linker_1, # of connection points: 2
#     Edge 119, Type (0, 0), BuildingBlock: KIFKEQ_clean_linker_1, # of connection points: 2
#     Edge 120, Type (0, 0), BuildingBlock: KIFKEQ_clean_linker_1, # of connection points: 2
#     Edge 121, Type (0, 0), BuildingBlock: KIFKEQ_clean_linker_1, # of connection points: 2
#     Edge 122, Type (0, 0), BuildingBlock: KIFKEQ_clean_linker_1, # of connection points: 2
#     Edge 123, Type (0, 0), BuildingBlock: KIFKEQ_clean_linker_1, # of connection points: 2
#     Edge 124, Type (0, 0), BuildingBlock: KIFKEQ_clean_linker_1, # of connection points: 2
#     Edge 125, Type (0, 0), BuildingBlock: KIFKEQ_clean_linker_1, # of connection points: 2
# Relax obj value: 0.163
# Max RMSD: 0.177
# Mean RMSD: 0.177
data_MOF--net-wln--node1-XOMCOT_clean_sbu_0--edge1-KIFKEQ_clean_linker_1
_symmetry_space_group_name_H-M    P1
_symmetry_Int_Tables_number       1
_symmetry_cell_setting            triclinic
loop_
_symmetry_equiv_pos_as_xyz
'x, y, z'
_cell_length_a     128.58972
_cell_length_b     128.5787
_cell_length_c     17.780344
_cell_angle_alpha  90.009587
_cell_angle_beta   89.978126
_cell_angle_gamma 120.00684
loop_
_atom_site_label
_atom_site_type_symbol
_atom_site_fract_x
_atom_site_fract_y
_atom_site_fract_z
_atom_type_partial_charge
Co0 Co 0.11738 0.39117 0.0354 0.0
C1 C 0.11824 0.38839 0.20201 0.0
C2 C 0.10232 0.37428 0.15133 0.0
C3 C 0.10121 0.37291 0.22798 0.0
N4 N 0.11309 0.38386 0.13463 0.0
N5 N 0.11122 0.38181 0.26012 0.0
H6 H 0.1266 0.39663 0.20887 0.0
H7 H 0.09543 0.36904 0.11052 0.0
C8 C 0.11188 0.36601 0.01348 0.0
O9 O 0.1183 0.36739 0.07406 0.0
N10 N 0.12125 0.39843 0.93688 0.0
C11 C 0.12953 0.40987 0.92052 0.0
C12 C 0.13014 0.41128 0.84356 0.0
C13 C 0.11696 0.39302 0.87004 0.0
N14 N 0.12229 0.40066 0.81211 0.0
C15 C 0.14181 0.40189 0.08712 0.0
C16 C 0.14881 0.3902 0.98644 0.0
C17 C 0.15729 0.39833 0.03741 0.0
C18 C 0.15369 0.40434 0.08762 0.0
C19 C 0.13713 0.38819 0.9871 0.0
N20 N 0.13352 0.39345 0.03987 0.0
H21 H 0.13947 0.4072 0.12257 0.0
H22 H 0.13111 0.38259 0.94345 0.0
H23 H 0.13498 0.41662 0.96156 0.0
H24 H 0.11018 0.38368 0.86367 0.0
O25 O 0.12054 0.40619 0.07859 0.0
O26 O 0.10281 0.39198 0.03655 0.0
O27 O 0.1107 0.37472 0.98903 0.0
C28 C 0.10918 0.4024 0.06878 0.0
H29 H 0.09329 0.36628 0.25747 0.0
H30 H 0.13621 0.41936 0.81302 0.0
H31 H 0.15113 0.38542 0.9458 0.0
H32 H 0.16004 0.41114 0.12553 0.0
Co33 Co 0.59922 0.72346 0.01742 0.0
C34 C 0.60148 0.72597 0.18464 0.0
C35 C 0.6173 0.72777 0.13282 0.0
C36 C 0.61867 0.72786 0.20958 0.0
N37 N 0.60665 0.72695 0.11677 0.0
N38 N 0.60867 0.72667 0.24217 0.0
H39 H 0.59238 0.72404 0.19235 0.0
H40 H 0.6234 0.72761 0.09156 0.0
C41 C 0.62369 0.74442 0.99084 0.0
O42 O 0.6223 0.74952 0.0511 0.0
N43 N 0.59184 0.71963 0.91913 0.0
C44 C 0.58044 0.71663 0.90325 0.0
C45 C 0.57892 0.7157 0.82644 0.0
C46 C 0.59709 0.72042 0.85207 0.0
N47 N 0.58943 0.71816 0.79418 0.0
C48 C 0.58793 0.73632 0.07534 0.0
C49 C 0.59827 0.75505 0.97377 0.0
C50 C 0.59107 0.75548 0.03151 0.0
C51 C 0.58561 0.74579 0.08159 0.0
C52 C 0.6003 0.7454 0.96957 0.0
N53 N 0.59584 0.73659 0.02311 0.0
H54 H 0.58309 0.72864 0.11127 0.0
H55 H 0.60548 0.74505 0.92291 0.0
H56 H 0.57379 0.71553 0.94457 0.0
H57 H 0.60644 0.72302 0.84569 0.0
O58 O 0.58458 0.71085 0.06052 0.0
O59 O 0.59975 0.70879 0.01832 0.0
O60 O 0.61534 0.73409 0.96958 0.0
C61 C 0.58927 0.70403 0.05058 0.0
H62 H 0.62612 0.72801 0.23891 0.0
H63 H 0.57073 0.71351 0.79682 0.0
H64 H 0.60249 0.7622 0.93272 0.0
H65 H 0.57948 0.74545 0.12457 0.0
Co66 Co 0.27008 0.87541 0.02375 0.0
C67 C 0.26809 0.87573 0.18876 0.0
C68 C 0.26689 0.89018 0.13714 0.0
C69 C 0.2668 0.89137 0.21407 0.0
N70 N 0.26767 0.88036 0.12159 0.0
N71 N 0.26759 0.88229 0.24673 0.0
H72 H 0.26901 0.86785 0.19444 0.0
H73 H 0.26688 0.89631 0.09552 0.0
C74 C 0.24997 0.87451 0.93489 0.0
O75 O 0.24706 0.86358 0.91394 0.0
N76 N 0.27303 0.87091 0.92429 0.0
C77 C 0.27837 0.86444 0.90738 0.0
C78 C 0.27967 0.86431 0.83054 0.0
C79 C 0.27185 0.87519 0.85721 0.0
N80 N 0.27545 0.87099 0.79917 0.0
C81 C 0.25848 0.84964 0.0402 0.0
C82 C 0.23644 0.84653 0.08321 0.0
C83 C 0.23766 0.83638 0.07326 0.0
C84 C 0.24894 0.83806 0.05332 0.0
C85 C 0.24621 0.85791 0.06994 0.0
N86 N 0.25686 0.85933 0.0442 0.0
H87 H 0.26717 0.85077 0.02818 0.0
H88 H 0.24511 0.86563 0.07871 0.0
H89 H 0.28166 0.86048 0.94763 0.0
H90 H 0.26892 0.88167 0.85058 0.0
O91 O 0.28301 0.87372 0.06451 0.0
O92 O 0.28482 0.89047 0.01514 0.0
O93 O 0.25892 0.88049 0.97857 0.0
C94 C 0.28981 0.88505 0.04846 0.0
H95 H 0.26667 0.89869 0.24322 0.0
H96 H 0.28348 0.8597 0.80022 0.0
H97 H 0.22795 0.84573 0.0991 0.0
H98 H 0.25043 0.8305 0.04824 0.0
Co99 Co 0.38931 0.12019 0.96864 0.0
C100 C 0.3869 0.12019 0.80139 0.0
C101 C 0.37192 0.10517 0.85338 0.0
C102 C 0.37056 0.10385 0.77662 0.0
N103 N 0.38202 0.11559 0.86926 0.0
N104 N 0.38003 0.11328 0.74398 0.0
H105 H 0.39558 0.12804 0.79348 0.0
H106 H 0.36622 0.09863 0.8948 0.0
C107 C 0.36427 0.11512 0.99136 0.0
O108 O 0.36558 0.12146 0.93042 0.0
N109 N 0.39656 0.1244 0.06713 0.0
C110 C 0.40771 0.13335 0.08314 0.0
C111 C 0.40916 0.13411 0.16001 0.0
C112 C 0.39138 0.11979 0.13412 0.0
N113 N 0.39886 0.12561 0.19208 0.0
C114 C 0.40001 0.14422 0.91048 0.0
C115 C 0.38885 0.15218 0.00869 0.0
C116 C 0.39664 0.1601 0.95407 0.0
C117 C 0.40241 0.15604 0.90531 0.0
C118 C 0.38677 0.14046 0.01205 0.0
N119 N 0.39176 0.13637 0.96045 0.0
H120 H 0.40522 0.1416 0.87629 0.0
H121 H 0.38131 0.13478 0.05744 0.0
H122 H 0.41424 0.13911 0.04183 0.0
H123 H 0.3822 0.11261 0.14037 0.0
O124 O 0.4043 0.12307 0.92672 0.0
O125 O 0.38997 0.10554 0.97062 0.0
O126 O 0.37294 0.11385 0.01524 0.0
C127 C 0.40042 0.11174 0.93841 0.0
H128 H 0.36352 0.09618 0.74729 0.0
H129 H 0.41717 0.14049 0.18982 0.0
H130 H 0.38436 0.15497 0.04866 0.0
H131 H 0.40898 0.16202 0.86484 0.0
Co132 Co 0.87402 0.26984 0.98584 0.0
C133 C 0.87436 0.26814 0.82064 0.0
C134 C 0.88771 0.26505 0.87157 0.0
C135 C 0.88874 0.26479 0.79449 0.0
N136 N 0.87866 0.26709 0.88766 0.0
N137 N 0.88037 0.26681 0.76255 0.0
H138 H 0.86708 0.27002 0.81479 0.0
H139 H 0.89341 0.26419 0.91283 0.0
C140 C 0.87317 0.24996 0.07709 0.0
O141 O 0.86237 0.24732 0.09932 0.0
N142 N 0.86977 0.27309 0.08539 0.0
C143 C 0.863 0.27813 0.1017 0.0
C144 C 0.86278 0.27946 0.17834 0.0
C145 C 0.8742 0.27222 0.15273 0.0
N146 N 0.86975 0.27564 0.21056 0.0
C147 C 0.84819 0.25823 0.97121 0.0
C148 C 0.84487 0.2358 0.93731 0.0
C149 C 0.83483 0.23708 0.9496 0.0
C150 C 0.83653 0.24854 0.96358 0.0
C151 C 0.85632 0.24575 0.94449 0.0
N152 N 0.85786 0.25658 0.96735 0.0
H153 H 0.84937 0.26702 0.97993 0.0
H154 H 0.86398 0.24461 0.93455 0.0
H155 H 0.85892 0.28122 0.06115 0.0
H156 H 0.88064 0.26924 0.15958 0.0
O157 O 0.87229 0.2827 0.94441 0.0
O158 O 0.88914 0.28458 0.99236 0.0
O159 O 0.87912 0.25873 0.03197 0.0
C160 C 0.88365 0.28952 0.95942 0.0
H161 H 0.89545 0.26371 0.76443 0.0
H162 H 0.85812 0.28328 0.20779 0.0
H163 H 0.84388 0.22714 0.92348 0.0
H164 H 0.82895 0.24993 0.9709 0.0
Co165 Co 0.72307 0.60098 0.98126 0.0
C166 C 0.72468 0.60331 0.81597 0.0
C167 C 0.72527 0.61864 0.86843 0.0
C168 C 0.72522 0.61995 0.79155 0.0
N169 N 0.72495 0.60823 0.88344 0.0
N170 N 0.72483 0.61029 0.75875 0.0
H171 H 0.72389 0.59457 0.80912 0.0
H172 H 0.72516 0.62468 0.91041 0.0
C173 C 0.74309 0.62104 0.06573 0.0
O174 O 0.74671 0.61352 0.08574 0.0
N175 N 0.7206 0.59364 0.08099 0.0
C176 C 0.71511 0.58181 0.09763 0.0
C177 C 0.71392 0.58034 0.17433 0.0
C178 C 0.72197 0.59907 0.14842 0.0
N179 N 0.71832 0.59123 0.20655 0.0
C180 C 0.73586 0.58799 0.96934 0.0
C181 C 0.75695 0.60695 0.91426 0.0
C182 C 0.75639 0.59601 0.92944 0.0
C183 C 0.74564 0.58639 0.9561 0.0
C184 C 0.74701 0.60822 0.92961 0.0
N185 N 0.7368 0.59896 0.96013 0.0
H186 H 0.72752 0.58033 0.98591 0.0
H187 H 0.7476 0.61676 0.91831 0.0
H188 H 0.71156 0.57458 0.05716 0.0
H189 H 0.72517 0.60853 0.15489 0.0
O190 O 0.71074 0.58606 0.94064 0.0
O191 O 0.70776 0.6002 0.99077 0.0
O192 O 0.73367 0.61744 0.02545 0.0
C193 C 0.70332 0.58981 0.95734 0.0
H194 H 0.72531 0.62736 0.76213 0.0
H195 H 0.70967 0.57182 0.20354 0.0
H196 H 0.7651 0.61454 0.89275 0.0
H197 H 0.7448 0.57768 0.96604 0.0
Co198 Co 0.87239 0.60048 0.97416 0.0
C199 C 0.87334 0.60263 0.80912 0.0
C200 C 0.88754 0.61848 0.86072 0.0
C201 C 0.88877 0.61973 0.78362 0.0
N202 N 0.87785 0.60778 0.87637 0.0
N203 N 0.87986 0.60973 0.75121 0.0
H204 H 0.86552 0.5938 0.80304 0.0
H205 H 0.8935 0.62479 0.90232 0.0
C206 C 0.87273 0.61992 0.06696 0.0
O207 O 0.86174 0.6121 0.08829 0.0
N208 N 0.86722 0.59305 0.07331 0.0
C209 C 0.8587 0.5817 0.09021 0.0
C210 C 0.85829 0.58016 0.16696 0.0
C211 C 0.87233 0.59797 0.14032 0.0
N212 N 0.86679 0.59045 0.1987 0.0
C213 C 0.84705 0.58737 0.94323 0.0
C214 C 0.84461 0.60721 0.91696 0.0
C215 C 0.83431 0.59577 0.9161 0.0
C216 C 0.83574 0.58575 0.92674 0.0
C217 C 0.85578 0.60837 0.93196 0.0
N218 N 0.85676 0.5986 0.95102 0.0
H219 H 0.84801 0.57955 0.94749 0.0
H220 H 0.86364 0.6172 0.92911 0.0
H221 H 0.85338 0.57475 0.05029 0.0
H222 H 0.87991 0.60694 0.14631 0.0
O223 O 0.86988 0.58555 0.93374 0.0
O224 O 0.88688 0.59966 0.98505 0.0
O225 O 0.87829 0.61684 0.02038 0.0
C226 C 0.88101 0.58929 0.95135 0.0
H227 H 0.89593 0.62725 0.75395 0.0
H228 H 0.85233 0.57197 0.19677 0.0
H229 H 0.84412 0.61527 0.9077 0.0
H230 H 0.82821 0.5767 0.9219 0.0
Co231 Co 0.39059 0.27066 0.98598 0.0
C232 C 0.38857 0.26889 0.82079 0.0
C233 C 0.37201 0.26547 0.87174 0.0
C234 C 0.37071 0.26517 0.79466 0.0
N235 N 0.38318 0.26775 0.88782 0.0
N236 N 0.38116 0.26739 0.76272 0.0
H237 H 0.39778 0.27096 0.81491 0.0
H238 H 0.36539 0.26448 0.913 0.0
C239 C 0.37169 0.25064 0.07736 0.0
O240 O 0.37989 0.24803 0.0992 0.0
N241 N 0.3981 0.27406 0.08549 0.0
C242 C 0.40993 0.27935 0.10174 0.0
C243 C 0.41147 0.28068 0.17839 0.0
C244 C 0.39276 0.27304 0.15289 0.0
N245 N 0.40063 0.27661 0.21067 0.0
C246 C 0.40528 0.2596 0.97034 0.0
C247 C 0.38664 0.23714 0.93164 0.0
C248 C 0.39818 0.23876 0.94071 0.0
C249 C 0.40763 0.25025 0.95848 0.0
C250 C 0.38472 0.24675 0.94374 0.0
N251 N 0.39382 0.25762 0.96757 0.0
H252 H 0.41272 0.26845 0.98009 0.0
H253 H 0.37579 0.24535 0.93542 0.0
H254 H 0.41712 0.28261 0.06117 0.0
H255 H 0.3833 0.26986 0.15984 0.0
O256 O 0.40506 0.28367 0.94431 0.0
O257 O 0.38988 0.28523 0.99218 0.0
O258 O 0.37446 0.25938 0.03216 0.0
C259 C 0.40031 0.29032 0.95896 0.0
H260 H 0.36285 0.26391 0.76461 0.0
H261 H 0.41997 0.28468 0.2078 0.0
H262 H 0.37907 0.22847 0.91715 0.0
H263 H 0.41678 0.25203 0.96258 0.0
Co264 Co 0.72219 0.12109 0.98996 0.0
C265 C 0.72432 0.12078 0.82269 0.0
C266 C 0.72542 0.10641 0.87537 0.0
C267 C 0.72539 0.10499 0.79871 0.0
N268 N 0.72512 0.11653 0.89084 0.0
N269 N 0.72465 0.11402 0.76543 0.0
H270 H 0.72246 0.12798 0.81474 0.0
H271 H 0.72506 0.10011 0.91694 0.0
C272 C 0.74183 0.11555 0.01897 0.0
O273 O 0.74744 0.12181 0.95892 0.0
N274 N 0.71894 0.12524 0.08812 0.0
C275 C 0.71776 0.1348 0.10525 0.0
C276 C 0.7169 0.13533 0.18223 0.0
C277 C 0.71867 0.12003 0.15445 0.0
N278 N 0.71754 0.12607 0.21328 0.0
C279 C 0.73645 0.145 0.93086 0.0
C280 C 0.75485 0.15253 0.03429 0.0
C281 C 0.75566 0.16052 0.97783 0.0
C282 C 0.74619 0.15668 0.92638 0.0
C283 C 0.74491 0.141 0.03704 0.0
N284 N 0.73617 0.13711 0.9832 0.0
H285 H 0.72895 0.14252 0.89395 0.0
H286 H 0.74419 0.13529 0.08353 0.0
H287 H 0.71801 0.1412 0.0648 0.0
H288 H 0.71948 0.11209 0.15941 0.0
O289 O 0.71036 0.12426 0.9464 0.0
O290 O 0.70682 0.1066 0.99028 0.0
O291 O 0.73178 0.11445 0.03876 0.0
C292 C 0.70278 0.11292 0.95727 0.0
H293 H 0.72553 0.09763 0.7701 0.0
H294 H 0.7164 0.14234 0.21288 0.0
H295 H 0.76184 0.1551 0.07606 0.0
H296 H 0.74615 0.16271 0.88405 0.0
Co297 Co 0.60036 0.87391 0.0184 0.0
C298 C 0.60249 0.87457 0.1838 0.0
C299 C 0.61902 0.88751 0.13164 0.0
C300 C 0.62045 0.88859 0.20852 0.0
N301 N 0.60777 0.8787 0.11637 0.0
N302 N 0.61002 0.8805 0.24147 0.0
H303 H 0.59319 0.86765 0.19009 0.0
H304 H 0.62566 0.89294 0.08997 0.0
C305 C 0.61998 0.87382 0.92816 0.0
O306 O 0.61239 0.86282 0.906 0.0
N307 N 0.59293 0.86949 0.91895 0.0
C308 C 0.58124 0.86227 0.90152 0.0
C309 C 0.57987 0.86206 0.82468 0.0
C310 C 0.59832 0.87412 0.85219 0.0
N311 N 0.59067 0.86946 0.79349 0.0
C312 C 0.58629 0.84836 0.03736 0.0
C313 C 0.60521 0.84468 0.0692 0.0
C314 C 0.59365 0.83469 0.06149 0.0
C315 C 0.58406 0.8367 0.04813 0.0
C316 C 0.60699 0.85621 0.05883 0.0
N317 N 0.59772 0.85787 0.0372 0.0
H318 H 0.57874 0.8497 0.03071 0.0
H319 H 0.61591 0.86381 0.06626 0.0
H320 H 0.57399 0.85779 0.94122 0.0
H321 H 0.60759 0.88108 0.84665 0.0
O322 O 0.58566 0.87176 0.06015 0.0
O323 O 0.60018 0.88881 0.01178 0.0
O324 O 0.61664 0.87947 0.97209 0.0
C325 C 0.58978 0.88305 0.04524 0.0
H326 H 0.62856 0.89494 0.23753 0.0
H327 H 0.57153 0.85683 0.79448 0.0
H328 H 0.6129 0.84363 0.08107 0.0
H329 H 0.57489 0.82932 0.04619 0.0
Co330 Co 0.12038 0.72546 0.01801 0.0
C331 C 0.11997 0.72762 0.18521 0.0
C332 C 0.10413 0.72573 0.13296 0.0
C333 C 0.10271 0.72561 0.20974 0.0
N334 N 0.11508 0.72728 0.1173 0.0
N335 N 0.11267 0.72674 0.24253 0.0
H336 H 0.12841 0.72794 0.19323 0.0
H337 H 0.0974 0.72425 0.09129 0.0
C338 C 0.11352 0.74433 0.99755 0.0
O339 O 0.11888 0.74916 0.06154 0.0
N340 N 0.12532 0.72331 0.91954 0.0
C341 C 0.13497 0.72224 0.90338 0.0
C342 C 0.13586 0.72175 0.82643 0.0
C343 C 0.12041 0.72337 0.85265 0.0
N344 N 0.12673 0.72251 0.79453 0.0
C345 C 0.14414 0.73919 0.07906 0.0
C346 C 0.15118 0.75949 0.9928 0.0
C347 C 0.15909 0.75949 0.04677 0.0
C348 C 0.15559 0.74908 0.08896 0.0
C349 C 0.13987 0.74935 0.98411 0.0
N350 N 0.13615 0.73964 0.0305 0.0
H351 H 0.14186 0.73107 0.1093 0.0
H352 H 0.13428 0.74927 0.93874 0.0
H353 H 0.14106 0.72207 0.94465 0.0
H354 H 0.1126 0.72437 0.84664 0.0
O355 O 0.12377 0.71358 0.05831 0.0
O356 O 0.10621 0.70982 0.01186 0.0
O357 O 0.11348 0.73502 0.97199 0.0
C358 C 0.11259 0.70582 0.04434 0.0
H359 H 0.0947 0.72414 0.23899 0.0
H360 H 0.14274 0.72093 0.79647 0.0
H361 H 0.15381 0.76718 0.95646 0.0
H362 H 0.16163 0.74859 0.12948 0.0
Co363 Co 0.26943 0.39384 0.01693 0.0
C364 C 0.26811 0.3917 0.18443 0.0
C365 C 0.26445 0.37527 0.13187 0.0
C366 C 0.26461 0.3739 0.20855 0.0
N367 N 0.26621 0.38632 0.11633 0.0
N368 N 0.26691 0.38427 0.24167 0.0
H369 H 0.27137 0.40115 0.1922 0.0
H370 H 0.26375 0.3688 0.09048 0.0
C371 C 0.24901 0.36927 0.98454 0.0
O372 O 0.24329 0.37037 0.0426 0.0
N373 N 0.27307 0.40128 0.91869 0.0
C374 C 0.27477 0.41221 0.90116 0.0
C375 C 0.2759 0.41362 0.82423 0.0
C376 C 0.27332 0.39624 0.85267 0.0
N377 N 0.27492 0.40354 0.79367 0.0
C378 C 0.25465 0.40264 0.0803 0.0
C379 C 0.23787 0.39445 0.96586 0.0
C380 C 0.2363 0.40025 0.02769 0.0
C381 C 0.24486 0.40448 0.08511 0.0
C382 C 0.24765 0.39258 0.96413 0.0
N383 N 0.25565 0.39622 0.02244 0.0
H384 H 0.26155 0.40672 0.12207 0.0
H385 H 0.24882 0.38825 0.91541 0.0
H386 H 0.2747 0.4185 0.94126 0.0
H387 H 0.27216 0.38735 0.84796 0.0
O388 O 0.28135 0.40876 0.06061 0.0
O389 O 0.28467 0.39442 0.01793 0.0
O390 O 0.25954 0.3777 0.9676 0.0
C391 C 0.28883 0.40485 0.05024 0.0
H392 H 0.26345 0.36597 0.23726 0.0
H393 H 0.27684 0.42128 0.79316 0.0
H394 H 0.2315 0.39125 0.91978 0.0
H395 H 0.24413 0.40938 0.13242 0.0
Co396 Co 0.78442 0.72667 0.33477 0.0
C397 C 0.78411 0.72474 0.5024 0.0
C398 C 0.77209 0.70796 0.4504 0.0
C399 C 0.77061 0.70659 0.52698 0.0
N400 N 0.7809 0.71925 0.4345 0.0
N401 N 0.77817 0.71717 0.55981 0.0
H402 H 0.78981 0.7343 0.50977 0.0
H403 H 0.76652 0.70131 0.40929 0.0
C404 C 0.78236 0.70297 0.30522 0.0
O405 O 0.78978 0.70524 0.36176 0.0
N406 N 0.78738 0.73398 0.23638 0.0
C407 C 0.79575 0.74532 0.21896 0.0
C408 C 0.79583 0.74672 0.14218 0.0
C409 C 0.78239 0.72865 0.17039 0.0
N410 N 0.78746 0.73621 0.11155 0.0
C411 C 0.80837 0.73641 0.39607 0.0
C412 C 0.81706 0.72872 0.27942 0.0
C413 C 0.82425 0.73376 0.34326 0.0
C414 C 0.81993 0.73802 0.40104 0.0
C415 C 0.80553 0.72712 0.27744 0.0
N416 N 0.80103 0.73027 0.33734 0.0
H417 H 0.8054 0.74009 0.43961 0.0
H418 H 0.80007 0.72298 0.22827 0.0
H419 H 0.80172 0.75196 0.25904 0.0
H420 H 0.77536 0.71937 0.16559 0.0
O421 O 0.78643 0.74126 0.37818 0.0
O422 O 0.7691 0.72587 0.33875 0.0
O423 O 0.77916 0.71057 0.28671 0.0
C424 C 0.77487 0.73642 0.37014 0.0
H425 H 0.76415 0.69849 0.55578 0.0
H426 H 0.80196 0.75472 0.11125 0.0
H427 H 0.8202 0.72581 0.23174 0.0
H428 H 0.82525 0.74225 0.45072 0.0
Co429 Co 0.26516 0.05652 0.35054 0.0
C430 C 0.26729 0.05782 0.51566 0.0
C431 C 0.28334 0.05994 0.46416 0.0
C432 C 0.28461 0.06005 0.54126 0.0
N433 N 0.2725 0.05858 0.44844 0.0
N434 N 0.27448 0.05866 0.57355 0.0
H435 H 0.25836 0.05656 0.52176 0.0
H436 H 0.28973 0.06046 0.42263 0.0
C437 C 0.28454 0.07605 0.25977 0.0
O438 O 0.27662 0.07914 0.23952 0.0
N439 N 0.2577 0.05397 0.25123 0.0
C440 C 0.24604 0.04989 0.23465 0.0
C441 C 0.24451 0.04871 0.1579 0.0
C442 C 0.26287 0.05441 0.18396 0.0
N443 N 0.25513 0.05165 0.1259 0.0
C444 C 0.25185 0.06882 0.37374 0.0
C445 C 0.27144 0.09067 0.41225 0.0
C446 C 0.2601 0.08969 0.40767 0.0
C447 C 0.25018 0.0785 0.38991 0.0
C448 C 0.27267 0.08074 0.39617 0.0
N449 N 0.26308 0.07019 0.3724 0.0
H450 H 0.24406 0.06018 0.36456 0.0
H451 H 0.28143 0.0816 0.40199 0.0
H452 H 0.2389 0.0473 0.27491 0.0
H453 H 0.2721 0.05662 0.17745 0.0
O454 O 0.25032 0.04408 0.39163 0.0
O455 O 0.26455 0.04128 0.34107 0.0
O456 O 0.2815 0.06717 0.30433 0.0
C457 C 0.25419 0.03676 0.37502 0.0
H458 H 0.29223 0.06066 0.57105 0.0
H459 H 0.23611 0.04554 0.12827 0.0
H460 H 0.27937 0.09908 0.42667 0.0
H461 H 0.24118 0.07718 0.38939 0.0
Co462 Co 0.93371 0.20613 0.36885 0.0
C463 C 0.93226 0.20675 0.53644 0.0
C464 C 0.92841 0.2194 0.48405 0.0
C465 C 0.92853 0.2209 0.56068 0.0
N466 N 0.9303 0.21019 0.4684 0.0
N467 N 0.93097 0.21293 0.59372 0.0
H468 H 0.93565 0.20066 0.54411 0.0
H469 H 0.92765 0.22514 0.44273 0.0
C470 C 0.91285 0.20951 0.33891 0.0
O471 O 0.90745 0.20241 0.39648 0.0
N472 N 0.93755 0.20259 0.27049 0.0
C473 C 0.93975 0.19368 0.25305 0.0
C474 C 0.94092 0.19345 0.17616 0.0
C475 C 0.93752 0.20773 0.20446 0.0
N476 N 0.93946 0.20225 0.14554 0.0
C477 C 0.9192 0.18239 0.43123 0.0
C478 C 0.90253 0.17372 0.31613 0.0
C479 C 0.90091 0.16638 0.37817 0.0
C480 C 0.90945 0.17073 0.43578 0.0
C481 C 0.91228 0.18538 0.3146 0.0
N482 N 0.92018 0.1898 0.37341 0.0
H483 H 0.92605 0.18527 0.47341 0.0
H484 H 0.91344 0.1909 0.266 0.0
H485 H 0.94 0.18749 0.29319 0.0
H486 H 0.93592 0.21519 0.19969 0.0
O487 O 0.94582 0.20343 0.41236 0.0
O488 O 0.94876 0.221 0.37065 0.0
O489 O 0.92346 0.21205 0.32038 0.0
C490 C 0.9531 0.21488 0.40279 0.0
H491 H 0.92728 0.22761 0.5894 0.0
H492 H 0.94222 0.18695 0.14518 0.0
H493 H 0.89618 0.17057 0.26997 0.0
H494 H 0.90867 0.16512 0.4833 0.0
Co495 Co 0.05847 0.45405 0.31979 0.0
C496 C 0.05639 0.45332 0.15466 0.0
C497 C 0.04032 0.43938 0.20601 0.0
C498 C 0.03905 0.43825 0.12893 0.0
N499 N 0.05118 0.44885 0.22181 0.0
N500 N 0.04919 0.44699 0.09674 0.0
H501 H 0.06533 0.46098 0.14862 0.0
H502 H 0.03393 0.43349 0.24748 0.0
C503 C 0.03888 0.45407 0.40954 0.0
O504 O 0.04669 0.46504 0.43109 0.0
N505 N 0.06589 0.4589 0.41921 0.0
C506 C 0.07758 0.46634 0.43578 0.0
C507 C 0.07911 0.46671 0.51251 0.0
C508 C 0.06068 0.45428 0.4865 0.0
N509 N 0.06844 0.45918 0.54452 0.0
C510 C 0.07184 0.4797 0.29846 0.0
C511 C 0.0523 0.48214 0.26173 0.0
C512 C 0.06362 0.49249 0.26839 0.0
C513 C 0.07353 0.49112 0.28476 0.0
C514 C 0.05107 0.4709 0.27513 0.0
N515 N 0.06062 0.46985 0.29854 0.0
H516 H 0.07962 0.47881 0.30722 0.0
H517 H 0.04232 0.46303 0.26817 0.0
H518 H 0.08475 0.47079 0.39548 0.0
H519 H 0.05141 0.44737 0.49309 0.0
O520 O 0.07333 0.45642 0.27888 0.0
O521 O 0.05903 0.4394 0.32904 0.0
O522 O 0.04211 0.44834 0.36538 0.0
C523 C 0.06941 0.44521 0.29541 0.0
H524 H 0.03142 0.43125 0.09907 0.0
H525 H 0.08753 0.47184 0.54215 0.0
H526 H 0.04438 0.48268 0.24811 0.0
H527 H 0.08254 0.4988 0.28651 0.0
Co528 Co 0.54062 0.60514 0.34971 0.0
C529 C 0.53999 0.60215 0.18273 0.0
C530 C 0.55469 0.60145 0.2338 0.0
C531 C 0.55581 0.60119 0.15701 0.0
N532 N 0.54459 0.60174 0.25032 0.0
N533 N 0.54658 0.6017 0.12491 0.0
H534 H 0.53241 0.60344 0.17534 0.0
H535 H 0.56118 0.60205 0.27477 0.0
C536 C 0.54444 0.58432 0.37406 0.0
O537 O 0.53807 0.57934 0.31321 0.0
N538 N 0.53702 0.60885 0.44814 0.0
C539 C 0.52863 0.61186 0.46401 0.0
C540 C 0.52791 0.61263 0.54084 0.0
C541 C 0.54136 0.6079 0.51523 0.0
N542 N 0.53588 0.61007 0.57308 0.0
C543 C 0.51635 0.59284 0.29473 0.0
C544 C 0.50793 0.57362 0.39249 0.0
C545 C 0.50005 0.57383 0.33886 0.0
C546 C 0.50435 0.58376 0.29061 0.0
C547 C 0.51978 0.58297 0.39537 0.0
N548 N 0.52409 0.59205 0.34371 0.0
H549 H 0.51925 0.60069 0.26022 0.0
H550 H 0.5254 0.58293 0.44023 0.0
H551 H 0.52315 0.61306 0.42264 0.0
H552 H 0.54806 0.60523 0.52168 0.0
O553 O 0.53861 0.61778 0.30725 0.0
O554 O 0.55584 0.61985 0.3492 0.0
O555 O 0.54617 0.59449 0.3968 0.0
C556 C 0.5501 0.62462 0.31738 0.0
H557 H 0.56324 0.60138 0.12723 0.0
H558 H 0.52188 0.61478 0.57052 0.0
H559 H 0.50506 0.56627 0.43194 0.0
H560 H 0.49846 0.58466 0.25093 0.0
Co561 Co 0.3903 0.93642 0.32627 0.0
C562 C 0.39221 0.93851 0.15869 0.0
C563 C 0.39485 0.95461 0.21126 0.0
C564 C 0.39484 0.95603 0.1347 0.0
N565 N 0.3936 0.94376 0.22673 0.0
N566 N 0.39313 0.94586 0.1015 0.0
H567 H 0.38951 0.9292 0.15085 0.0
H568 H 0.39514 0.96089 0.25281 0.0
C569 C 0.41151 0.9607 0.35089 0.0
O570 O 0.41644 0.95883 0.29147 0.0
N571 N 0.38666 0.92917 0.42479 0.0
C572 C 0.38429 0.918 0.44189 0.0
C573 C 0.38327 0.91662 0.51876 0.0
C574 C 0.38697 0.93442 0.49101 0.0
N575 N 0.38501 0.92697 0.54974 0.0
C576 C 0.40312 0.92521 0.26624 0.0
C577 C 0.4216 0.93494 0.3697 0.0
C578 C 0.422 0.92778 0.31153 0.0
C579 C 0.41243 0.92265 0.26039 0.0
C580 C 0.41208 0.93716 0.37373 0.0
N581 N 0.40338 0.93297 0.31956 0.0
H582 H 0.39555 0.92065 0.22917 0.0
H583 H 0.41174 0.94231 0.4207 0.0
H584 H 0.38377 0.91148 0.40143 0.0
H585 H 0.38877 0.94355 0.49595 0.0
O586 O 0.37762 0.92172 0.28461 0.0
O587 O 0.37562 0.93695 0.32639 0.0
O588 O 0.40111 0.95262 0.37307 0.0
C589 C 0.37081 0.92639 0.29504 0.0
H590 H 0.39566 0.96383 0.10611 0.0
H591 H 0.38186 0.90875 0.54939 0.0
H592 H 0.42867 0.93898 0.41132 0.0
H593 H 0.41205 0.91659 0.21681 0.0
Co594 Co 0.53968 0.93545 0.29837 0.0
C595 C 0.53979 0.93763 0.1333 0.0
C596 C 0.55345 0.95393 0.184 0.0
C597 C 0.55444 0.9552 0.10686 0.0
N598 N 0.54424 0.94293 0.20031 0.0
N599 N 0.54589 0.9449 0.07503 0.0
H600 H 0.53239 0.92854 0.12756 0.0
H601 H 0.55933 0.96041 0.22511 0.0
C602 C 0.53995 0.95473 0.39314 0.0
O603 O 0.52907 0.9468 0.41564 0.0
N604 N 0.53547 0.92782 0.39771 0.0
C605 C 0.52828 0.91606 0.41381 0.0
C606 C 0.52805 0.91444 0.49042 0.0
C607 C 0.54015 0.93297 0.46509 0.0
N608 N 0.53544 0.92511 0.52285 0.0
C609 C 0.51388 0.92193 0.28487 0.0
C610 C 0.51104 0.94149 0.25623 0.0
C611 C 0.50085 0.9302 0.26698 0.0
C612 C 0.50233 0.92025 0.27837 0.0
C613 C 0.5224 0.94272 0.26209 0.0
N614 N 0.52371 0.93318 0.28245 0.0
H615 H 0.51487 0.91417 0.29134 0.0
H616 H 0.53019 0.95146 0.25292 0.0
H617 H 0.52383 0.90895 0.37316 0.0
H618 H 0.54692 0.94228 0.47207 0.0
O619 O 0.53719 0.92073 0.25463 0.0
O620 O 0.55445 0.93504 0.30208 0.0
O621 O 0.54552 0.95171 0.34624 0.0
C622 C 0.54851 0.92472 0.26788 0.0
H623 H 0.56128 0.9629 0.07669 0.0
H624 H 0.52303 0.90596 0.51968 0.0
H625 H 0.51023 0.94932 0.24438 0.0
H626 H 0.49464 0.91131 0.28447 0.0
Co627 Co 0.05985 0.60495 0.31502 0.0
C628 C 0.05743 0.60327 0.14761 0.0
C629 C 0.04255 0.60333 0.20085 0.0
C630 C 0.04118 0.60349 0.12421 0.0
N631 N 0.05257 0.60283 0.21586 0.0
N632 N 0.05058 0.60348 0.09062 0.0
H633 H 0.06624 0.60442 0.13933 0.0
H634 H 0.03685 0.60404 0.2428 0.0
C635 C 0.03437 0.58578 0.33987 0.0
O636 O 0.03492 0.58061 0.27738 0.0
N637 N 0.06705 0.6074 0.41332 0.0
C638 C 0.07748 0.6079 0.43047 0.0
C639 C 0.07883 0.60861 0.50748 0.0
C640 C 0.06224 0.60792 0.47961 0.0
N641 N 0.06921 0.60857 0.53847 0.0
C642 C 0.06904 0.59054 0.25208 0.0
C643 C 0.05664 0.57107 0.34638 0.0
C644 C 0.06371 0.57041 0.2888 0.0
C645 C 0.07024 0.58042 0.24257 0.0
C646 C 0.05585 0.58142 0.35445 0.0
N647 N 0.06133 0.59068 0.30428 0.0
H648 H 0.07461 0.59836 0.2187 0.0
H649 H 0.05092 0.58201 0.40182 0.0
H650 H 0.08347 0.60736 0.38995 0.0
H651 H 0.05375 0.60769 0.48445 0.0
O652 O 0.07509 0.61664 0.27342 0.0
O653 O 0.06135 0.62059 0.31914 0.0
O654 O 0.04349 0.59549 0.36251 0.0
C655 C 0.07171 0.62447 0.28635 0.0
H656 H 0.03395 0.60389 0.0958 0.0
H657 H 0.08612 0.60867 0.53815 0.0
H658 H 0.05194 0.56372 0.38564 0.0
H659 H 0.07614 0.5804 0.19917 0.0
Co660 Co 0.39045 0.45591 0.31637 0.0
C661 C 0.392 0.45542 0.14878 0.0
C662 C 0.39624 0.44304 0.20107 0.0
C663 C 0.39616 0.44157 0.12445 0.0
N664 N 0.39407 0.45206 0.21679 0.0
N665 N 0.39347 0.44936 0.09145 0.0
H666 H 0.38841 0.46134 0.14116 0.0
H667 H 0.39713 0.43736 0.2423 0.0
C668 C 0.41159 0.453 0.34672 0.0
O669 O 0.41698 0.46028 0.2899 0.0
N670 N 0.3864 0.45924 0.41474 0.0
C671 C 0.38391 0.46794 0.4322 0.0
C672 C 0.38269 0.46812 0.50907 0.0
C673 C 0.38657 0.45416 0.48077 0.0
N674 N 0.38443 0.45949 0.53968 0.0
C675 C 0.40465 0.4798 0.25523 0.0
C676 C 0.42077 0.48875 0.37325 0.0
C677 C 0.42219 0.49622 0.31241 0.0
C678 C 0.414 0.4917 0.25297 0.0
C679 C 0.41148 0.47686 0.37243 0.0
N680 N 0.40378 0.47236 0.31266 0.0
H681 H 0.39797 0.47677 0.21192 0.0
H682 H 0.41042 0.47126 0.42045 0.0
H683 H 0.38348 0.47404 0.39208 0.0
H684 H 0.38843 0.44687 0.48555 0.0
O685 O 0.3782 0.45839 0.27278 0.0
O686 O 0.37555 0.44089 0.31387 0.0
O687 O 0.40088 0.45021 0.36482 0.0
C688 C 0.37106 0.44691 0.28212 0.0
H689 H 0.3976 0.43498 0.0957 0.0
H690 H 0.38118 0.47449 0.54004 0.0
H691 H 0.42688 0.49203 0.42064 0.0
H692 H 0.41466 0.49739 0.20616 0.0
Co693 Co 0.26723 0.2072 0.3697 0.0
C694 C 0.26948 0.20805 0.5373 0.0
C695 C 0.2844 0.22295 0.48391 0.0
C696 C 0.28579 0.2245 0.5605 0.0
N697 N 0.27434 0.21244 0.46907 0.0
N698 N 0.27637 0.21512 0.59416 0.0
H699 H 0.26069 0.20039 0.54568 0.0
H700 H 0.29015 0.22929 0.4418 0.0
C701 C 0.29246 0.21264 0.35022 0.0
O702 O 0.29128 0.2068 0.41323 0.0
N703 N 0.26021 0.2024 0.27112 0.0
C704 C 0.24963 0.19265 0.25401 0.0
C705 C 0.24832 0.192 0.17702 0.0
C706 C 0.26516 0.20762 0.20487 0.0
N707 N 0.25811 0.2014 0.14605 0.0
C708 C 0.25711 0.18358 0.43426 0.0
C709 C 0.26931 0.17584 0.34328 0.0
C710 C 0.26191 0.16829 0.40045 0.0
C711 C 0.25548 0.17211 0.44494 0.0
C712 C 0.27054 0.18715 0.33402 0.0
N713 N 0.26517 0.19125 0.38272 0.0
H714 H 0.25161 0.18611 0.46609 0.0
H715 H 0.27572 0.19253 0.28686 0.0
H716 H 0.24347 0.18628 0.2946 0.0
H717 H 0.27377 0.21575 0.2001 0.0
O718 O 0.25205 0.20423 0.40905 0.0
O719 O 0.26627 0.22164 0.36273 0.0
O720 O 0.28369 0.21357 0.32446 0.0
C721 C 0.25578 0.21547 0.39449 0.0
H722 H 0.29307 0.2321 0.58883 0.0
H723 H 0.24089 0.1849 0.14638 0.0
H724 H 0.27394 0.17294 0.30518 0.0
H725 H 0.24931 0.16632 0.48781 0.0
Co726 Co 0.78286 0.05616 0.35815 0.0
C727 C 0.78297 0.05886 0.52512 0.0
C728 C 0.76739 0.05772 0.4737 0.0
C729 C 0.76613 0.05777 0.55051 0.0
N730 N 0.7781 0.05871 0.45742 0.0
N731 N 0.77591 0.05842 0.58282 0.0
H732 H 0.79115 0.05863 0.53267 0.0
H733 H 0.76066 0.05642 0.4325 0.0
C734 C 0.77662 0.07536 0.33437 0.0
O735 O 0.78249 0.08047 0.39653 0.0
N736 N 0.78727 0.05327 0.2598 0.0
C737 C 0.79657 0.05161 0.24391 0.0
C738 C 0.79742 0.05099 0.16703 0.0
C739 C 0.78253 0.05357 0.19273 0.0
N740 N 0.78862 0.05228 0.13482 0.0
C741 C 0.80691 0.07023 0.41483 0.0
C742 C 0.81377 0.08964 0.32025 0.0
C743 C 0.82188 0.09003 0.374 0.0
C744 C 0.8185 0.08007 0.42042 0.0
C745 C 0.80238 0.07952 0.31553 0.0
N746 N 0.79876 0.0703 0.36591 0.0
H747 H 0.80468 0.06241 0.44831 0.0
H748 H 0.79661 0.07905 0.27012 0.0
H749 H 0.80252 0.05121 0.28528 0.0
H750 H 0.77505 0.05511 0.18637 0.0
O751 O 0.78631 0.04448 0.40077 0.0
O752 O 0.76855 0.04056 0.35684 0.0
O753 O 0.77596 0.06565 0.31087 0.0
C754 C 0.77504 0.03671 0.38971 0.0
H755 H 0.75828 0.05667 0.58014 0.0
H756 H 0.80409 0.04979 0.13732 0.0
H757 H 0.81632 0.09698 0.28106 0.0
H758 H 0.82474 0.07992 0.46074 0.0
Co759 Co 0.93433 0.72517 0.35143 0.0
C760 C 0.93139 0.72233 0.51838 0.0
C761 C 0.93442 0.70905 0.46666 0.0
C762 C 0.93441 0.70772 0.54331 0.0
N763 N 0.93235 0.7181 0.45074 0.0
N764 N 0.93253 0.71611 0.57605 0.0
H765 H 0.93043 0.7301 0.52575 0.0
H766 H 0.9364 0.70412 0.42522 0.0
C767 C 0.91521 0.69964 0.33436 0.0
O768 O 0.91059 0.7008 0.3976 0.0
N769 N 0.93668 0.73219 0.2528 0.0
C770 C 0.93895 0.74336 0.23636 0.0
C771 C 0.9396 0.74473 0.15937 0.0
C772 C 0.93595 0.7269 0.18612 0.0
N773 N 0.93764 0.73434 0.12809 0.0
C774 C 0.9206 0.73551 0.40946 0.0
C775 C 0.90063 0.7223 0.32041 0.0
C776 C 0.9005 0.7303 0.37308 0.0
C777 C 0.91074 0.73722 0.41658 0.0
C778 C 0.91073 0.72105 0.31415 0.0
N779 N 0.92024 0.72696 0.36206 0.0
H780 H 0.92863 0.7413 0.44077 0.0
H781 H 0.91094 0.71551 0.26937 0.0
H782 H 0.93985 0.74997 0.27743 0.0
H783 H 0.93422 0.7178 0.18004 0.0
O784 O 0.94628 0.74042 0.39172 0.0
O785 O 0.94988 0.72644 0.34629 0.0
O786 O 0.9246 0.7086 0.30677 0.0
C787 C 0.95396 0.73687 0.37838 0.0
H788 H 0.93631 0.70146 0.5723 0.0
H789 H 0.94104 0.75262 0.12872 0.0
H790 H 0.89308 0.71726 0.28307 0.0
H791 H 0.9111 0.74385 0.45576 0.0
Co792 Co 0.45255 0.06092 0.69532 0.0
C793 C 0.45165 0.05877 0.86068 0.0
C794 C 0.4385 0.04236 0.80838 0.0
C795 C 0.43733 0.04096 0.88529 0.0
N796 N 0.4475 0.05352 0.79321 0.0
N797 N 0.44557 0.05131 0.91832 0.0
H798 H 0.45873 0.068 0.86702 0.0
H799 H 0.43302 0.03578 0.76659 0.0
C800 C 0.45278 0.04169 0.603 0.0
O801 O 0.46367 0.04969 0.58102 0.0
N802 N 0.45721 0.06837 0.59592 0.0
C803 C 0.46498 0.07993 0.57817 0.0
C804 C 0.46513 0.08131 0.50133 0.0
C805 C 0.45221 0.06313 0.52943 0.0
N806 N 0.45716 0.07068 0.4705 0.0
C807 C 0.47816 0.07459 0.71727 0.0
C808 C 0.48105 0.05515 0.74876 0.0
C809 C 0.49126 0.06656 0.74217 0.0
C810 C 0.48969 0.07642 0.72875 0.0
C811 C 0.46971 0.05376 0.73719 0.0
N812 N 0.46845 0.06328 0.71583 0.0
H813 H 0.47709 0.08231 0.71111 0.0
H814 H 0.46193 0.04493 0.74367 0.0
H815 H 0.46989 0.08712 0.61759 0.0
H816 H 0.44487 0.05401 0.52432 0.0
O817 O 0.45474 0.07568 0.73656 0.0
O818 O 0.43777 0.06123 0.68687 0.0
O819 O 0.44704 0.04465 0.6489 0.0
C820 C 0.4435 0.07162 0.72043 0.0
H821 H 0.43083 0.03291 0.91429 0.0
H822 H 0.47073 0.08954 0.47084 0.0
H823 H 0.48178 0.04728 0.76056 0.0
H824 H 0.49728 0.08548 0.72735 0.0
Co825 Co 0.93372 0.3904 0.68384 0.0
C826 C 0.93565 0.392 0.85145 0.0
C827 C 0.95251 0.39711 0.7993 0.0
C828 C 0.95392 0.39707 0.87589 0.0
N829 N 0.94114 0.39437 0.7835 0.0
N830 N 0.94329 0.39383 0.9088 0.0
H831 H 0.92608 0.38794 0.85895 0.0
H832 H 0.95922 0.39835 0.75814 0.0
C833 C 0.95727 0.41227 0.65358 0.0
O834 O 0.955 0.41743 0.71009 0.0
N835 N 0.92641 0.38602 0.58543 0.0
C836 C 0.91504 0.38291 0.56805 0.0
C837 C 0.91366 0.38162 0.49123 0.0
C838 C 0.93179 0.38647 0.51941 0.0
N839 N 0.92422 0.38391 0.46057 0.0
C840 C 0.92325 0.40389 0.74528 0.0
C841 C 0.93022 0.42023 0.62855 0.0
C842 C 0.92442 0.42164 0.69095 0.0
C843 C 0.92075 0.41326 0.74937 0.0
C844 C 0.93276 0.41089 0.62753 0.0
N845 N 0.92978 0.40318 0.68708 0.0
H846 H 0.91974 0.39716 0.78837 0.0
H847 H 0.93727 0.40996 0.57896 0.0
H848 H 0.90836 0.38213 0.60817 0.0
H849 H 0.94109 0.38883 0.51457 0.0
O850 O 0.91922 0.37764 0.72701 0.0
O851 O 0.93478 0.37601 0.68728 0.0
O852 O 0.94973 0.40143 0.6356 0.0
C853 C 0.92419 0.37104 0.7184 0.0
H854 H 0.96208 0.39891 0.90466 0.0
H855 H 0.90564 0.37967 0.46032 0.0
H856 H 0.93305 0.42647 0.58187 0.0
H857 H 0.91588 0.41388 0.79732 0.0
Co858 Co 0.60137 0.53947 0.69725 0.0
C859 C 0.59801 0.53886 0.86397 0.0
C860 C 0.59884 0.55428 0.81235 0.0
C861 C 0.59873 0.55553 0.88902 0.0
N862 N 0.59815 0.54371 0.79623 0.0
N863 N 0.59825 0.54583 0.92181 0.0
H864 H 0.59849 0.53082 0.87114 0.0
H865 H 0.6001 0.561 0.77115 0.0
C866 C 0.58144 0.54458 0.67208 0.0
O867 O 0.57624 0.5383 0.73288 0.0
N868 N 0.60494 0.53567 0.59898 0.0
C869 C 0.60793 0.52727 0.58247 0.0
C870 C 0.60886 0.52677 0.50547 0.0
C871 C 0.6041 0.54016 0.53227 0.0
N872 N 0.60636 0.53483 0.47418 0.0
C873 C 0.58783 0.51516 0.75134 0.0
C874 C 0.56916 0.50773 0.65014 0.0
C875 C 0.56872 0.49955 0.70392 0.0
C876 C 0.57833 0.50333 0.7542 0.0
C877 C 0.57886 0.5194 0.64905 0.0
N878 N 0.5877 0.52324 0.70218 0.0
H879 H 0.59549 0.51762 0.78688 0.0
H880 H 0.57931 0.52526 0.60421 0.0
H881 H 0.609 0.52165 0.62339 0.0
H882 H 0.60177 0.54712 0.52609 0.0
O883 O 0.61339 0.53662 0.74114 0.0
O884 O 0.61657 0.5542 0.69826 0.0
O885 O 0.59144 0.54583 0.64956 0.0
C886 C 0.62078 0.54803 0.7311 0.0
H887 H 0.59971 0.56337 0.91786 0.0
H888 H 0.61076 0.52063 0.47477 0.0
H889 H 0.56206 0.5052 0.6092 0.0
H890 H 0.57864 0.49716 0.79428 0.0
Co891 Co 0.72478 0.78541 0.66719 0.0
C892 C 0.72252 0.78563 0.49993 0.0
C893 C 0.70682 0.77143 0.55182 0.0
C894 C 0.70544 0.77015 0.47508 0.0
N895 N 0.71739 0.78135 0.5678 0.0
N896 N 0.71536 0.77906 0.44246 0.0
H897 H 0.73154 0.79292 0.49215 0.0
H898 H 0.70078 0.76514 0.59315 0.0
C899 C 0.7003 0.78189 0.69229 0.0
O900 O 0.70176 0.78831 0.63153 0.0
N901 N 0.73211 0.78906 0.76559 0.0
C902 C 0.74349 0.7975 0.78155 0.0
C903 C 0.74498 0.79812 0.85837 0.0
C904 C 0.72684 0.78459 0.83259 0.0
N905 N 0.73448 0.79005 0.89053 0.0
C906 C 0.73624 0.80954 0.60916 0.0
C907 C 0.72582 0.81803 0.70948 0.0
C908 C 0.73325 0.82568 0.65257 0.0
C909 C 0.73872 0.82139 0.60305 0.0
C910 C 0.72365 0.8063 0.71366 0.0
N911 N 0.72817 0.80192 0.66075 0.0
H912 H 0.74112 0.80667 0.57384 0.0
H913 H 0.71835 0.80077 0.76003 0.0
H914 H 0.75015 0.80305 0.74025 0.0
H915 H 0.7175 0.77781 0.83888 0.0
O916 O 0.73945 0.78743 0.62475 0.0
O917 O 0.7243 0.77021 0.66714 0.0
O918 O 0.70862 0.77994 0.71448 0.0
C919 C 0.73481 0.77594 0.63524 0.0
H920 H 0.69804 0.76279 0.44577 0.0
H921 H 0.75315 0.80415 0.88809 0.0
H922 H 0.72157 0.82099 0.75009 0.0
H923 H 0.74503 0.82718 0.56076 0.0
Co924 Co 0.20613 0.93544 0.64521 0.0
C925 C 0.20513 0.9317 0.47865 0.0
C926 C 0.22091 0.93317 0.52921 0.0
C927 C 0.22199 0.93287 0.45256 0.0
N928 N 0.21024 0.93221 0.54601 0.0
N929 N 0.21207 0.93199 0.42048 0.0
H930 H 0.19689 0.93181 0.47185 0.0
H931 H 0.22779 0.93472 0.56994 0.0
C932 C 0.21137 0.91564 0.66811 0.0
O933 O 0.20482 0.91051 0.60808 0.0
N934 N 0.20244 0.93905 0.74371 0.0
C935 C 0.1943 0.9424 0.76009 0.0
C936 C 0.19373 0.94324 0.83706 0.0
C937 C 0.20668 0.93786 0.81055 0.0
N938 N 0.20145 0.9403 0.8685 0.0
C939 C 0.18165 0.92179 0.59437 0.0
C940 C 0.17461 0.90325 0.69632 0.0
C941 C 0.16614 0.90284 0.64501 0.0
C942 C 0.16976 0.91239 0.59427 0.0
C943 C 0.1863 0.9129 0.69528 0.0
N944 N 0.18994 0.92167 0.64183 0.0
H945 H 0.18402 0.92938 0.55835 0.0
H946 H 0.19233 0.91337 0.739 0.0
H947 H 0.1889 0.94379 0.71909 0.0
H948 H 0.21334 0.93514 0.81695 0.0
O949 O 0.20303 0.94731 0.60151 0.0
O950 O 0.22077 0.95076 0.64284 0.0
O951 O 0.21272 0.92563 0.69185 0.0
C952 C 0.21442 0.95482 0.61046 0.0
H953 H 0.22985 0.93401 0.42304 0.0
H954 H 0.18775 0.94537 0.86761 0.0
H955 H 0.17229 0.89621 0.73737 0.0
H956 H 0.16342 0.9128 0.55609 0.0
Co957 Co 0.05575 0.26729 0.6492 0.0
C958 C 0.05699 0.26947 0.48381 0.0
C959 C 0.06003 0.28579 0.53624 0.0
C960 C 0.06024 0.2872 0.45933 0.0
N961 N 0.05803 0.27469 0.55134 0.0
N962 N 0.05827 0.2769 0.42623 0.0
H963 H 0.05496 0.26027 0.47739 0.0
H964 H 0.06104 0.29234 0.57807 0.0
C965 C 0.07488 0.28659 0.74273 0.0
O966 O 0.07791 0.27869 0.76447 0.0
N967 N 0.05306 0.25985 0.74858 0.0
C968 C 0.04977 0.24841 0.76657 0.0
C969 C 0.04853 0.24704 0.84343 0.0
C970 C 0.05299 0.26499 0.81491 0.0
N971 N 0.05069 0.25752 0.87399 0.0
C972 C 0.06787 0.25388 0.62508 0.0
C973 C 0.09023 0.27348 0.59671 0.0
C974 C 0.08905 0.26206 0.60138 0.0
C975 C 0.0776 0.25213 0.61316 0.0
C976 C 0.08023 0.27478 0.60862 0.0
N977 N 0.06942 0.26516 0.62859 0.0
H978 H 0.05907 0.24611 0.62979 0.0
H979 H 0.08125 0.28362 0.60327 0.0
H980 H 0.0479 0.2413 0.7274 0.0
H981 H 0.05441 0.27398 0.81981 0.0
O982 O 0.04334 0.25245 0.60796 0.0
O983 O 0.04053 0.26671 0.6577 0.0
O984 O 0.06628 0.28359 0.69594 0.0
C985 C 0.03601 0.25633 0.62424 0.0
H986 H 0.06167 0.29521 0.43037 0.0
H987 H 0.04629 0.23892 0.87415 0.0
H988 H 0.09884 0.28141 0.58603 0.0
H989 H 0.07615 0.24307 0.61285 0.0
Co990 Co 0.2068 0.26886 0.64625 0.0
C991 C 0.20713 0.2713 0.47895 0.0
C992 C 0.22223 0.28614 0.53134 0.0
C993 C 0.22366 0.28746 0.45457 0.0
N994 N 0.21169 0.27616 0.54696 0.0
N995 N 0.21417 0.27808 0.42167 0.0
H996 H 0.19921 0.26269 0.4709 0.0
H997 H 0.22875 0.29179 0.57297 0.0
C998 C 0.21253 0.29415 0.67012 0.0
O999 O 0.20668 0.29335 0.60778 0.0
N1000 N 0.2023 0.26159 0.74463 0.0
C1001 C 0.193 0.25064 0.76074 0.0
C1002 C 0.19223 0.24919 0.83764 0.0
C1003 C 0.20714 0.26663 0.81155 0.0
N1004 N 0.2011 0.25927 0.86964 0.0
C1005 C 0.18296 0.25885 0.58596 0.0
C1006 C 0.17539 0.27053 0.68277 0.0
C1007 C 0.16752 0.26307 0.62682 0.0
C1008 C 0.17136 0.25702 0.57884 0.0
C1009 C 0.18689 0.27208 0.68787 0.0
N1010 N 0.19083 0.26686 0.63685 0.0
H1011 H 0.18538 0.25343 0.5524 0.0
H1012 H 0.19251 0.27732 0.73405 0.0
H1013 H 0.18701 0.24428 0.71949 0.0
H1014 H 0.21467 0.27562 0.81762 0.0
O1015 O 0.20364 0.25376 0.60441 0.0
O1016 O 0.22122 0.26782 0.64945 0.0
O1017 O 0.21337 0.2852 0.69339 0.0
C1018 C 0.21491 0.25741 0.61702 0.0
H1019 H 0.23142 0.29442 0.42546 0.0
H1020 H 0.18559 0.24132 0.86749 0.0
H1021 H 0.17272 0.27517 0.72232 0.0
H1022 H 0.16535 0.25068 0.53745 0.0
Co1023 Co 0.72602 0.93599 0.66532 0.0
C1024 C 0.72396 0.93405 0.50019 0.0
C1025 C 0.70762 0.93133 0.55086 0.0
C1026 C 0.70632 0.93095 0.47378 0.0
N1027 N 0.71866 0.93323 0.56713 0.0
N1028 N 0.71663 0.93273 0.44204 0.0
H1029 H 0.73306 0.93576 0.4944 0.0
H1030 H 0.70111 0.93067 0.59194 0.0
C1031 C 0.70606 0.91618 0.7536 0.0
O1032 O 0.71344 0.9125 0.77557 0.0
N1033 N 0.73348 0.93918 0.76489 0.0
C1034 C 0.74531 0.9445 0.78117 0.0
C1035 C 0.74683 0.94566 0.85789 0.0
C1036 C 0.7281 0.93791 0.83244 0.0
N1037 N 0.73598 0.94144 0.89016 0.0
C1038 C 0.73994 0.92424 0.65233 0.0
C1039 C 0.72109 0.9019 0.61404 0.0
C1040 C 0.73252 0.90327 0.62502 0.0
C1041 C 0.74208 0.91473 0.64193 0.0
C1042 C 0.7194 0.91171 0.62407 0.0
N1043 N 0.7286 0.9225 0.64826 0.0
H1044 H 0.74749 0.93302 0.66221 0.0
H1045 H 0.71057 0.91053 0.61447 0.0
H1046 H 0.75251 0.94784 0.74057 0.0
H1047 H 0.71864 0.93465 0.83966 0.0
O1048 O 0.74075 0.9484 0.62275 0.0
O1049 O 0.72627 0.95109 0.67022 0.0
O1050 O 0.70969 0.9254 0.71133 0.0
C1051 C 0.73664 0.95562 0.6364 0.0
H1052 H 0.69857 0.92995 0.44355 0.0
H1053 H 0.75533 0.94965 0.88739 0.0
H1054 H 0.71343 0.89327 0.59982 0.0
H1055 H 0.75118 0.91638 0.64688 0.0
Co1056 Co 0.05446 0.78575 0.65828 0.0
C1057 C 0.05611 0.78523 0.49081 0.0
C1058 C 0.05928 0.77211 0.54306 0.0
C1059 C 0.0591 0.7706 0.46633 0.0
N1060 N 0.05784 0.78159 0.55884 0.0
N1061 N 0.05707 0.77885 0.43344 0.0
H1062 H 0.05338 0.79183 0.48313 0.0
H1063 H 0.05966 0.76615 0.58436 0.0
C1064 C 0.0748 0.78151 0.68986 0.0
O1065 O 0.08046 0.78842 0.63204 0.0
N1066 N 0.05065 0.78944 0.75648 0.0
C1067 C 0.04809 0.79814 0.77261 0.0
C1068 C 0.04698 0.79859 0.84939 0.0
C1069 C 0.05097 0.78465 0.82338 0.0
N1070 N 0.04887 0.79015 0.88148 0.0
C1071 C 0.06922 0.80952 0.59763 0.0
C1072 C 0.08596 0.81782 0.71231 0.0
C1073 C 0.08752 0.82535 0.65144 0.0
C1074 C 0.07898 0.82116 0.59394 0.0
C1075 C 0.07621 0.80615 0.71289 0.0
N1076 N 0.06825 0.80193 0.65431 0.0
H1077 H 0.0623 0.80681 0.55611 0.0
H1078 H 0.07503 0.80052 0.76093 0.0
H1079 H 0.04743 0.80398 0.73154 0.0
H1080 H 0.05314 0.77759 0.8295 0.0
O1081 O 0.04267 0.78886 0.61386 0.0
O1082 O 0.03919 0.7711 0.65562 0.0
O1083 O 0.06429 0.7794 0.7075 0.0
C1084 C 0.03515 0.77746 0.623 0.0
H1085 H 0.05966 0.76349 0.43742 0.0
H1086 H 0.04505 0.80478 0.87906 0.0
H1087 H 0.09231 0.82088 0.75849 0.0
H1088 H 0.0797 0.82694 0.5475 0.0
Co1089 Co 0.93449 0.54105 0.68821 0.0
C1090 C 0.93711 0.54061 0.85491 0.0
C1091 C 0.95189 0.55596 0.8039 0.0
C1092 C 0.95321 0.55712 0.88075 0.0
N1093 N 0.94194 0.54545 0.7873 0.0
N1094 N 0.94386 0.54749 0.91284 0.0
H1095 H 0.92851 0.53263 0.8622 0.0
H1096 H 0.95746 0.56268 0.763 0.0
C1097 C 0.95986 0.5471 0.66066 0.0
O1098 O 0.95927 0.54099 0.72136 0.0
N1099 N 0.92704 0.53697 0.59008 0.0
C1100 C 0.91595 0.52788 0.5744 0.0
C1101 C 0.91442 0.52707 0.49755 0.0
C1102 C 0.93209 0.54163 0.52285 0.0
N1103 N 0.92461 0.53568 0.46507 0.0
C1104 C 0.92411 0.51682 0.74194 0.0
C1105 C 0.93575 0.50965 0.64206 0.0
C1106 C 0.92769 0.50127 0.69392 0.0
C1107 C 0.92171 0.50497 0.74367 0.0
C1108 C 0.9377 0.52132 0.64144 0.0
N1109 N 0.93242 0.52501 0.69365 0.0
H1110 H 0.91881 0.51919 0.77723 0.0
H1111 H 0.94321 0.52725 0.59718 0.0
H1112 H 0.90955 0.522 0.61587 0.0
H1113 H 0.9412 0.54892 0.51623 0.0
O1114 O 0.91949 0.5378 0.73231 0.0
O1115 O 0.93354 0.55553 0.68914 0.0
O1116 O 0.95076 0.54786 0.63962 0.0
C1117 C 0.92319 0.54914 0.72216 0.0
H1118 H 0.9601 0.56484 0.91057 0.0
H1119 H 0.90646 0.52052 0.46805 0.0
H1120 H 0.94049 0.50725 0.60168 0.0
H1121 H 0.91496 0.49871 0.78218 0.0
Co1122 Co 0.44985 0.39123 0.68855 0.0
C1123 C 0.44988 0.39356 0.85354 0.0
C1124 C 0.43567 0.39522 0.80224 0.0
C1125 C 0.43457 0.39541 0.87916 0.0
N1126 N 0.44528 0.39408 0.78647 0.0
N1127 N 0.44349 0.39432 0.91163 0.0
H1128 H 0.45758 0.39234 0.85908 0.0
H1129 H 0.42959 0.39535 0.7608 0.0
C1130 C 0.45091 0.41136 0.59855 0.0
O1131 O 0.46171 0.41399 0.57623 0.0
N1132 N 0.45394 0.38785 0.58902 0.0
C1133 C 0.46011 0.38218 0.57218 0.0
C1134 C 0.46016 0.3808 0.49538 0.0
C1135 C 0.44974 0.38913 0.52195 0.0
N1136 N 0.45373 0.38531 0.46397 0.0
C1137 C 0.47563 0.4025 0.70056 0.0
C1138 C 0.47939 0.42498 0.73817 0.0
C1139 C 0.48929 0.42351 0.7247 0.0
C1140 C 0.48736 0.41202 0.70859 0.0
C1141 C 0.46785 0.41519 0.73055 0.0
N1142 N 0.46609 0.40433 0.70637 0.0
H1143 H 0.47428 0.39369 0.68988 0.0
H1144 H 0.46028 0.41645 0.74137 0.0
H1145 H 0.46396 0.37879 0.61249 0.0
H1146 H 0.44348 0.39235 0.51522 0.0
O1147 O 0.45147 0.37834 0.73029 0.0
O1148 O 0.43463 0.37656 0.68269 0.0
O1149 O 0.44489 0.40248 0.64279 0.0
C1150 C 0.44009 0.37158 0.71575 0.0
H1151 H 0.42738 0.39577 0.90846 0.0
H1152 H 0.46459 0.3768 0.46508 0.0
H1153 H 0.48056 0.43366 0.75337 0.0
H1154 H 0.49483 0.41049 0.69996 0.0
Co1155 Co 0.60179 0.05907 0.68886 0.0
C1156 C 0.59985 0.05668 0.85637 0.0
C1157 C 0.60073 0.04218 0.80372 0.0
C1158 C 0.60087 0.04084 0.88043 0.0
N1159 N 0.59978 0.05194 0.78833 0.0
N1160 N 0.60037 0.05001 0.91347 0.0
H1161 H 0.60013 0.06509 0.86467 0.0
H1162 H 0.60181 0.03668 0.76192 0.0
C1163 C 0.58236 0.03371 0.6691 0.0
O1164 O 0.57756 0.03487 0.73156 0.0
N1165 N 0.60417 0.06614 0.59024 0.0
C1166 C 0.60568 0.07704 0.574 0.0
C1167 C 0.60626 0.07843 0.49708 0.0
C1168 C 0.60391 0.06106 0.52343 0.0
N1169 N 0.60509 0.06835 0.46528 0.0
C1170 C 0.58802 0.06906 0.75019 0.0
C1171 C 0.56847 0.05707 0.65608 0.0
C1172 C 0.56825 0.06471 0.71143 0.0
C1173 C 0.57828 0.07091 0.75805 0.0
C1174 C 0.57841 0.05552 0.65016 0.0
N1175 N 0.58773 0.0609 0.69992 0.0
H1176 H 0.59597 0.07461 0.78258 0.0
H1177 H 0.57867 0.05015 0.60432 0.0
H1178 H 0.6061 0.08343 0.61519 0.0
H1179 H 0.60252 0.05209 0.51749 0.0
O1180 O 0.61369 0.0743 0.72909 0.0
O1181 O 0.61737 0.06035 0.68391 0.0
O1182 O 0.59201 0.04257 0.64341 0.0
C1183 C 0.62141 0.0708 0.71577 0.0
H1184 H 0.60193 0.03403 0.90944 0.0
H1185 H 0.6074 0.08625 0.46706 0.0
H1186 H 0.56104 0.05232 0.61754 0.0
H1187 H 0.57876 0.07739 0.79883 0.0
H1188 H 0.08549 0.39598 0.06591 0.0
H1189 H 0.12032 0.42382 0.1423 0.0
H1190 H 0.07618 0.40645 0.12505 0.0
H1191 H 0.111 0.43414 0.20245 0.0
H1192 H 0.09097 0.45531 0.22385 0.0
H1193 H 0.10069 0.44507 0.16827 0.0
H1194 H 0.07229 0.41117 0.2529 0.0
H1195 H 0.06241 0.42142 0.30755 0.0
C1196 C 0.09116 0.40436 0.09497 0.0
C1197 C 0.10362 0.40911 0.09931 0.0
C1198 C 0.08582 0.41028 0.12947 0.0
C1199 C 0.09286 0.42106 0.16882 0.0
C1200 C 0.10536 0.4259 0.17203 0.0
C1201 C 0.11068 0.41998 0.13763 0.0
C1202 C 0.08686 0.44569 0.23134 0.0
C1203 C 0.07592 0.43915 0.2699 0.0
C1204 C 0.09245 0.43983 0.19962 0.0
C1205 C 0.0872 0.42731 0.20579 0.0
C1206 C 0.07643 0.42081 0.24626 0.0
C1207 C 0.07084 0.42668 0.27814 0.0
H1208 H 0.57197 0.63546 0.25161 0.0
H1209 H 0.54226 0.64063 0.30829 0.0
H1210 H 0.58137 0.65424 0.18197 0.0
H1211 H 0.55203 0.65996 0.24421 0.0
H1212 H 0.56545 0.68796 0.06312 0.0
H1213 H 0.55619 0.66868 0.12783 0.0
H1214 H 0.59153 0.67468 0.18516 0.0
H1215 H 0.60058 0.69339 0.11495 0.0
C1216 C 0.56766 0.64086 0.2509 0.0
C1217 C 0.55647 0.63672 0.28529 0.0
C1218 C 0.57304 0.65165 0.21111 0.0
C1219 C 0.56748 0.6587 0.20675 0.0
C1220 C 0.55646 0.65468 0.24418 0.0
C1221 C 0.55091 0.6437 0.28194 0.0
C1222 C 0.57116 0.68497 0.08859 0.0
C1223 C 0.58367 0.692 0.08361 0.0
C1224 C 0.56589 0.67401 0.12669 0.0
C1225 C 0.57307 0.67008 0.16283 0.0
C1226 C 0.58565 0.6772 0.15702 0.0
C1227 C 0.59088 0.68796 0.1169 0.0
H1228 H 0.30127 0.90764 0.10371 0.0
H1229 H 0.30583 0.87722 0.058 0.0
H1230 H 0.32055 0.91768 0.16757 0.0
H1231 H 0.32563 0.88758 0.11603 0.0
H1232 H 0.35463 0.90256 0.29085 0.0
H1233 H 0.33504 0.89283 0.22993 0.0
H1234 H 0.34093 0.92766 0.1603 0.0
H1235 H 0.35998 0.93725 0.22703 0.0
C1236 C 0.30663 0.90329 0.10544 0.0
C1237 C 0.30218 0.89172 0.07603 0.0
C1238 C 0.31771 0.90904 0.14191 0.0
C1239 C 0.32472 0.90346 0.14778 0.0
C1240 C 0.3204 0.89205 0.1149 0.0
C1241 C 0.30914 0.88616 0.08058 0.0
C1242 C 0.35155 0.90806 0.2635 0.0
C1243 C 0.35864 0.9206 0.26409 0.0
C1244 C 0.34042 0.90252 0.22752 0.0
C1245 C 0.33636 0.90941 0.18905 0.0
C1246 C 0.34355 0.92202 0.19034 0.0
C1247 C 0.3545 0.92755 0.22844 0.0
H1248 H 0.41965 0.06441 0.70845 0.0
H1249 H 0.45344 0.09318 0.79175 0.0
H1250 H 0.40929 0.07427 0.76184 0.0
H1251 H 0.44309 0.10288 0.8461 0.0
H1252 H 0.42191 0.1226 0.86593 0.0
H1253 H 0.43224 0.11308 0.80879 0.0
H1254 H 0.4044 0.0785 0.88849 0.0
H1255 H 0.3939 0.08801 0.94463 0.0
C1256 C 0.42486 0.07287 0.73759 0.0
C1257 C 0.43734 0.07804 0.74592 0.0
C1258 C 0.41893 0.07845 0.76876 0.0
C1259 C 0.42538 0.08929 0.80858 0.0
C1260 C 0.43789 0.09458 0.81518 0.0
C1261 C 0.44381 0.08901 0.78416 0.0
C1262 C 0.41803 0.11297 0.87179 0.0
C1263 C 0.40711 0.10604 0.90986 0.0
C1264 C 0.42397 0.10753 0.83913 0.0
C1265 C 0.4191 0.09505 0.84389 0.0
C1266 C 0.40826 0.08812 0.88297 0.0
C1267 C 0.40232 0.09358 0.91574 0.0
H1268 H 0.9353 0.36044 0.78659 0.0
H1269 H 0.90044 0.35462 0.72272 0.0
H1270 H 0.92591 0.34124 0.85193 0.0
H1271 H 0.89093 0.33494 0.78229 0.0
H1272 H 0.87554 0.30532 0.95138 0.0
H1273 H 0.88573 0.32528 0.89542 0.0
H1274 H 0.91618 0.32084 0.84253 0.0
H1275 H 0.90628 0.30136 0.90432 0.0
C1276 C 0.92561 0.35484 0.78502 0.0
C1277 C 0.91855 0.35889 0.74969 0.0
C1278 C 0.92019 0.34381 0.82227 0.0
C1279 C 0.9076 0.33645 0.82305 0.0
C1280 C 0.90061 0.34044 0.7851 0.0
C1281 C 0.90603 0.35164 0.74993 0.0
C1282 C 0.88451 0.30879 0.92886 0.0
C1283 C 0.89021 0.30194 0.9324 0.0
C1284 C 0.89031 0.32015 0.89576 0.0
C1285 C 0.90177 0.3247 0.86314 0.0
C1286 C 0.90749 0.31781 0.868 0.0
C1287 C 0.90182 0.30662 0.90324 0.0
H1288 H 0.69203 0.5679 0.89028 0.0
H1289 H 0.6863 0.59654 0.96709 0.0
H1290 H 0.67203 0.55768 0.83558 0.0
H1291 H 0.6661 0.58614 0.91336 0.0
H1292 H 0.63778 0.57179 0.72556 0.0
H1293 H 0.65748 0.58159 0.78553 0.0
H1294 H 0.65082 0.54727 0.86987 0.0
H1295 H 0.63124 0.53745 0.80883 0.0
C1296 C 0.68642 0.57193 0.89644 0.0
C1297 C 0.69072 0.58304 0.9327 0.0
C1298 C 0.67495 0.56604 0.86528 0.0
C1299 C 0.66754 0.57115 0.86975 0.0
C1300 C 0.6717 0.58209 0.90809 0.0
C1301 C 0.6832 0.58798 0.93943 0.0
C1302 C 0.64057 0.56634 0.75635 0.0
C1303 C 0.63301 0.55386 0.76228 0.0
C1304 C 0.65179 0.57196 0.79134 0.0
C1305 C 0.65564 0.5652 0.83282 0.0
C1306 C 0.64813 0.5527 0.83778 0.0
C1307 C 0.63692 0.54708 0.80284 0.0
H1308 H 0.90477 0.59614 0.96312 0.0
H1309 H 0.87069 0.56755 0.88201 0.0
H1310 H 0.91484 0.58608 0.90848 0.0
H1311 H 0.88076 0.55765 0.82653 0.0
H1312 H 0.902 0.53801 0.79832 0.0
H1313 H 0.89182 0.54736 0.86004 0.0
H1314 H 0.91918 0.58211 0.77944 0.0
H1315 H 0.92949 0.57278 0.71865 0.0
C1316 C 0.89942 0.58765 0.93438 0.0
C1317 C 0.88696 0.58263 0.92665 0.0
C1318 C 0.9052 0.58197 0.90252 0.0
C1319 C 0.8986 0.57115 0.86266 0.0
C1320 C 0.88608 0.56593 0.85735 0.0
C1321 C 0.88032 0.57163 0.88899 0.0
C1322 C 0.90579 0.54763 0.79326 0.0
C1323 C 0.91652 0.55467 0.75354 0.0
C1324 C 0.89996 0.55298 0.8286 0.0
C1325 C 0.90475 0.56547 0.82496 0.0
C1326 C 0.91539 0.57248 0.78422 0.0
C1327 C 0.92122 0.56713 0.74877 0.0
H1328 H 0.44777 0.35544 0.71958 0.0
H1329 H 0.4179 0.36028 0.77753 0.0
H1330 H 0.43775 0.33569 0.77818 0.0
H1331 H 0.40822 0.34101 0.84203 0.0
H1332 H 0.38897 0.30135 0.89994 0.0
H1333 H 0.3981 0.32058 0.83517 0.0
H1334 H 0.43337 0.32638 0.89239 0.0
H1335 H 0.42407 0.30665 0.9513 0.0
C1336 C 0.43902 0.3522 0.74502 0.0
C1337 C 0.43351 0.35923 0.74374 0.0
C1338 C 0.43333 0.34097 0.77971 0.0
C1339 C 0.4222 0.33673 0.81626 0.0
C1340 C 0.41665 0.3438 0.81363 0.0
C1341 C 0.42219 0.35486 0.77678 0.0
C1342 C 0.39867 0.30686 0.89917 0.0
C1343 C 0.40586 0.30263 0.9305 0.0
C1344 C 0.40394 0.3179 0.86216 0.0
C1345 C 0.41653 0.3251 0.85763 0.0
C1346 C 0.42367 0.32099 0.89236 0.0
C1347 C 0.41838 0.30978 0.92722 0.0
H1348 H 0.68561 0.08926 0.96327 0.0
H1349 H 0.69252 0.12367 0.87884 0.0
H1350 H 0.66614 0.07952 0.90063 0.0
H1351 H 0.67312 0.11389 0.81526 0.0
H1352 H 0.63888 0.06467 0.71093 0.0
H1353 H 0.65866 0.07528 0.76982 0.0
H1354 H 0.65151 0.1031 0.84423 0.0
H1355 H 0.63186 0.09262 0.78446 0.0
C1356 C 0.68293 0.09475 0.93181 0.0
C1357 C 0.69056 0.10722 0.92597 0.0
C1358 C 0.67184 0.08916 0.89532 0.0
C1359 C 0.66818 0.09594 0.85241 0.0
C1360 C 0.67569 0.10845 0.84825 0.0
C1361 C 0.68678 0.11404 0.88465 0.0
C1362 C 0.64161 0.07313 0.73896 0.0
C1363 C 0.63383 0.07781 0.74327 0.0
C1364 C 0.65287 0.07914 0.77325 0.0
C1365 C 0.65656 0.08994 0.81227 0.0
C1366 C 0.64894 0.09483 0.8142 0.0
C1367 C 0.63768 0.08881 0.78008 0.0
H1368 H 0.53818 0.90364 0.19109 0.0
H1369 H 0.5723 0.93149 0.27683 0.0
H1370 H 0.5481 0.8938 0.13291 0.0
H1371 H 0.58223 0.92145 0.21961 0.0
H1372 H 0.59715 0.90702 0.0382 0.0
H1373 H 0.5871 0.91713 0.09293 0.0
H1374 H 0.55819 0.88292 0.16978 0.0
H1375 H 0.56804 0.87285 0.11411 0.0
C1376 C 0.54779 0.90758 0.1983 0.0
C1377 C 0.55447 0.91831 0.23872 0.0
C1378 C 0.55346 0.90193 0.16501 0.0
C1379 C 0.56594 0.90688 0.17151 0.0
C1380 C 0.57262 0.91753 0.21278 0.0
C1381 C 0.56692 0.9232 0.24617 0.0
C1382 C 0.58858 0.90167 0.06601 0.0
C1383 C 0.58336 0.88916 0.07178 0.0
C1384 C 0.5829 0.90746 0.09796 0.0
C1385 C 0.5719 0.90082 0.13596 0.0
C1386 C 0.5666 0.88827 0.14022 0.0
C1387 C 0.57226 0.88251 0.10845 0.0
H1388 H 0.08902 0.68838 0.03752 0.0
H1389 H 0.12373 0.69541 0.1168 0.0
H1390 H 0.0796 0.66873 0.09818 0.0
H1391 H 0.11427 0.67584 0.17827 0.0
H1392 H 0.09314 0.63462 0.21256 0.0
H1393 H 0.10332 0.6541 0.15004 0.0
H1394 H 0.07599 0.66156 0.23016 0.0
H1395 H 0.06571 0.64201 0.29187 0.0
C1396 C 0.09465 0.68567 0.06717 0.0
C1397 C 0.1071 0.69342 0.07257 0.0
C1398 C 0.08924 0.67449 0.10252 0.0
C1399 C 0.09619 0.67084 0.1437 0.0
C1400 C 0.1087 0.67841 0.14667 0.0
C1401 C 0.11411 0.68961 0.11151 0.0
C1402 C 0.08939 0.64048 0.21756 0.0
C1403 C 0.07862 0.63679 0.25693 0.0
C1404 C 0.09522 0.65163 0.18179 0.0
C1405 C 0.09036 0.65927 0.18455 0.0
C1406 C 0.0798 0.65574 0.22596 0.0
C1407 C 0.07399 0.64461 0.26191 0.0
H1408 H 0.35445 0.423 0.28623 0.0
H1409 H 0.35998 0.45728 0.20911 0.0
H1410 H 0.33456 0.413 0.22856 0.0
H1411 H 0.34024 0.44728 0.15041 0.0
H1412 H 0.29925 0.42611 0.1257 0.0
H1413 H 0.319 0.43628 0.18441 0.0
H1414 H 0.32597 0.40878 0.10098 0.0
H1415 H 0.30609 0.39845 0.0433 0.0
C1416 C 0.35139 0.42839 0.25731 0.0
C1417 C 0.35874 0.44091 0.25224 0.0
C1418 C 0.34006 0.42267 0.22375 0.0
C1419 C 0.33589 0.42936 0.18461 0.0
C1420 C 0.34317 0.4419 0.18078 0.0
C1421 C 0.35449 0.44762 0.21427 0.0
C1422 C 0.30503 0.42228 0.11935 0.0
C1423 C 0.30115 0.41149 0.07992 0.0
C1424 C 0.31635 0.42812 0.15287 0.0
C1425 C 0.32399 0.42329 0.14758 0.0
C1426 C 0.32018 0.41261 0.10694 0.0
C1427 C 0.30886 0.40676 0.07337 0.0
H1428 H 0.78247 0.76023 0.38038 0.0
H1429 H 0.75313 0.72515 0.43779 0.0
H1430 H 0.77252 0.76955 0.44504 0.0
H1431 H 0.74356 0.73431 0.5079 0.0
H1432 H 0.72377 0.75385 0.57237 0.0
H1433 H 0.73311 0.74432 0.50376 0.0
H1434 H 0.76821 0.77404 0.56129 0.0
H1435 H 0.75868 0.78392 0.6244 0.0
C1436 C 0.77387 0.75455 0.40712 0.0
C1437 C 0.76847 0.74203 0.40369 0.0
C1438 C 0.76822 0.75986 0.44517 0.0
C1439 C 0.75724 0.75273 0.48276 0.0
C1440 C 0.75186 0.74014 0.47862 0.0
C1441 C 0.75734 0.73485 0.43858 0.0
C1442 C 0.73348 0.75823 0.57084 0.0
C1443 C 0.74055 0.76955 0.60361 0.0
C1444 C 0.73888 0.75277 0.53166 0.0
C1445 C 0.75147 0.75839 0.52627 0.0
C1446 C 0.7585 0.76955 0.5621 0.0
C1447 C 0.75308 0.77517 0.59927 0.0
H1448 H 0.23265 0.02543 0.44656 0.0
H1449 H 0.26119 0.01993 0.36468 0.0
H1450 H 0.22298 0.00563 0.50416 0.0
H1451 H 0.25134 -7e-05 0.42132 0.0
H1452 H 0.23816 0.97201 0.61159 0.0
H1453 H 0.24749 0.9916 0.54986 0.0
H1454 H 0.21264 0.98437 0.47249 0.0
H1455 H 0.20331 0.96496 0.53528 0.0
C1456 C 0.23676 0.01991 0.43985 0.0
C1457 C 0.24769 0.02422 0.40124 0.0
C1458 C 0.2312 0.00855 0.47274 0.0
C1459 C 0.23644 0.00127 0.46767 0.0
C1460 C 0.24719 0.00544 0.4271 0.0
C1461 C 0.25276 0.01682 0.39406 0.0
C1462 C 0.2325 0.97467 0.582 0.0
C1463 C 0.22001 0.967 0.57849 0.0
C1464 C 0.23785 0.98582 0.546 0.0
C1465 C 0.2308 0.98947 0.50593 0.0
C1466 C 0.21829 0.98185 0.50346 0.0
C1467 C 0.21296 0.97072 0.5394 0.0
H1468 H 0.01907 0.26315 0.63603 0.0
H1469 H 0.02466 0.23466 0.55424 0.0
H1470 H -0.00117 0.25291 0.58304 0.0
H1471 H 0.0046 0.2246 0.50029 0.0
H1472 H 0.96997 0.23871 0.3981 0.0
H1473 H 0.98984 0.24851 0.45612 0.0
H1474 H 0.98351 0.21413 0.537 0.0
H1475 H 0.9638 0.20432 0.47795 0.0
C1476 C 0.01594 0.25466 0.60734 0.0
C1477 C 0.02343 0.2497 0.59921 0.0
C1478 C 0.00441 0.24887 0.57644 0.0
C1479 C 0.00018 0.23801 0.5371 0.0
C1480 C 0.00758 0.2329 0.53086 0.0
C1481 C 0.01908 0.23869 0.56161 0.0
C1482 C 0.97288 0.23325 0.42776 0.0
C1483 C 0.96537 0.22075 0.43325 0.0
C1484 C 0.98419 0.23887 0.46159 0.0
C1485 C 0.98818 0.23208 0.50142 0.0
C1486 C 0.98072 0.21957 0.50608 0.0
C1487 C 0.96942 0.21396 0.47231 0.0
H1488 H 0.20393 0.2359 0.5442 0.0
H1489 H 0.23851 0.26366 0.62471 0.0
H1490 H 0.21344 0.22558 0.48629 0.0
H1491 H 0.24799 0.25321 0.5677 0.0
H1492 H 0.23408 0.20484 0.46513 0.0
H1493 H 0.22396 0.2147 0.52105 0.0
H1494 H 0.25206 0.24894 0.43879 0.0
H1495 H 0.2623 0.23911 0.38377 0.0
C1496 C 0.21354 0.23972 0.55034 0.0
C1497 C 0.22049 0.25059 0.5889 0.0
C1498 C 0.21897 0.23379 0.51725 0.0
C1499 C 0.23146 0.23865 0.52197 0.0
C1500 C 0.23837 0.24938 0.56209 0.0
C1501 C 0.23293 0.25529 0.59533 0.0
C1502 C 0.23803 0.21445 0.45827 0.0
C1503 C 0.24899 0.22122 0.42029 0.0
C1504 C 0.23222 0.22009 0.4902 0.0
C1505 C 0.23729 0.23259 0.48487 0.0
C1506 C 0.24806 0.23931 0.44487 0.0
C1507 C 0.25386 0.23367 0.41279 0.0
H1508 H 0.75808 0.96685 0.56365 0.0
H1509 H 0.72917 0.97213 0.64084 0.0
H1510 H 0.76738 0.9863 0.50156 0.0
H1511 H 0.73866 0.99179 0.57971 0.0
H1512 H 0.75147 0.01907 0.38678 0.0
H1513 H 0.74241 -0.0004 0.44986 0.0
H1514 H 0.77741 0.00767 0.52961 0.0
H1515 H 0.78647 0.02696 0.46553 0.0
C1516 C 0.7538 0.97226 0.56832 0.0
C1517 C 0.74289 0.96798 0.60705 0.0
C1518 C 0.75915 0.98341 0.53282 0.0
C1519 C 0.75371 0.99053 0.53535 0.0
C1520 C 0.74295 0.9864 0.57583 0.0
C1521 C 0.73759 0.97522 0.61147 0.0
C1522 C 0.75723 0.01661 0.41703 0.0
C1523 C 0.76967 0.0245 0.42106 0.0
C1524 C 0.75203 0.00553 0.45381 0.0
C1525 C 0.7592 0.00216 0.49516 0.0
C1526 C 0.77167 0.00997 0.4977 0.0
C1527 C 0.77685 0.02102 0.461 0.0
H1528 H 0.97135 0.73067 0.37018 0.0
H1529 H 0.96445 0.75832 0.45183 0.0
H1530 H 0.99106 0.74083 0.42994 0.0
H1531 H 0.98406 0.76835 0.51253 0.0
H1532 H 0.02498 0.78857 0.54796 0.0
H1533 H 0.00564 0.77918 0.48399 0.0
H1534 H -0.00143 0.74434 0.5606 0.0
H1535 H 0.01802 0.75372 0.62366 0.0
C1536 C 0.97409 0.73898 0.40022 0.0
C1537 C 0.96637 0.7437 0.40647 0.0
C1538 C 0.98532 0.74472 0.43503 0.0
C1539 C 0.98903 0.7553 0.47657 0.0
C1540 C 0.98147 0.76024 0.48054 0.0
C1541 C 0.97023 0.75449 0.44585 0.0
C1542 C 0.01925 0.77892 0.55173 0.0
C1543 C 0.02299 0.77187 0.59082 0.0
C1544 C 0.00818 0.77355 0.51515 0.0
C1545 C 0.00065 0.76103 0.51685 0.0
C1546 C 0.00429 0.754 0.5573 0.0
C1547 C 0.01536 0.75937 0.594 0.0
H1548 H 0.17079 0.39905 0.91591 0.0
H1549 H 0.17231 0.40291 0.15791 0.0
H1550 H 0.19029 0.40055 0.91636 0.0
H1551 H 0.19239 0.40556 0.15761 0.0
H1552 H 0.21995 0.39297 0.14033 0.0
H1553 H 0.20151 0.39392 0.14409 0.0
H1554 H 0.21087 0.41262 0.93059 0.0
H1555 H 0.22894 0.41094 0.92549 0.0
C1556 C 0.17531 0.4003 0.96931 0.0
C1557 C 0.16982 0.40061 0.03706 0.0
C1558 C 0.18666 0.40141 0.9694 0.0
C1559 C 0.19296 0.40312 0.0371 0.0
C1560 C 0.18772 0.404 0.10453 0.0
C1561 C 0.17625 0.40267 0.10458 0.0
C1562 C 0.21804 0.39734 0.09466 0.0
C1563 C 0.22572 0.4018 0.0324 0.0
C1564 C 0.20753 0.39799 0.09691 0.0
C1565 C 0.20462 0.40332 0.03747 0.0
C1566 C 0.21264 0.4082 0.97653 0.0
C1567 C 0.22302 0.40732 0.97365 0.0
H1568 H 0.58789 0.76828 0.92002 0.0
H1569 H 0.59063 0.7666 0.16149 0.0
H1570 H 0.58744 0.78687 0.93259 0.0
H1571 H 0.58951 0.7849 0.1744 0.0
H1572 H 0.60451 0.8258 0.15376 0.0
H1573 H 0.60251 0.80596 0.14938 0.0
H1574 H 0.57575 0.79546 0.97464 0.0
H1575 H 0.57827 0.81548 0.97572 0.0
C1576 C 0.58829 0.77183 0.97587 0.0
C1577 C 0.58944 0.76604 0.03968 0.0
C1578 C 0.58786 0.7824 0.98318 0.0
C1579 C 0.58848 0.78739 0.05454 0.0
C1580 C 0.58918 0.78137 0.11859 0.0
C1581 C 0.58967 0.77081 0.11123 0.0
C1582 C 0.59824 0.81928 0.11419 0.0
C1583 C 0.59163 0.82228 0.06466 0.0
C1584 C 0.59696 0.80784 0.11243 0.0
C1585 C 0.58901 0.79914 0.06138 0.0
C1586 C 0.58208 0.80201 0.01386 0.0
C1587 C 0.58342 0.81346 0.01523 0.0
H1588 H 0.23183 0.81669 0.98601 0.0
H1589 H 0.21943 0.82843 0.17657 0.0
H1590 H 0.21321 0.7974 0.98791 0.0
H1591 H 0.20069 0.80924 0.17677 0.0
H1592 H 0.16404 0.78248 0.06471 0.0
H1593 H 0.1837 0.80044 0.08022 0.0
H1594 H 0.20062 0.77872 0.06962 0.0
H1595 H 0.18089 0.76069 0.05391 0.0
C1596 C 0.22526 0.81509 0.02925 0.0
C1597 C 0.22706 0.82416 0.08059 0.0
C1598 C 0.21459 0.80405 0.03014 0.0
C1599 C 0.2055 0.80192 0.08197 0.0
C1600 C 0.20751 0.81076 0.1355 0.0
C1601 C 0.21821 0.82174 0.13511 0.0
C1602 C 0.17197 0.78156 0.06579 0.0
C1603 C 0.171 0.77025 0.05794 0.0
C1604 C 0.18318 0.7918 0.07539 0.0
C1605 C 0.19364 0.79092 0.07647 0.0
C1606 C 0.19268 0.7796 0.06889 0.0
C1607 C 0.18142 0.76932 0.06027 0.0
H1608 H 0.4126 0.23373 0.02809 0.0
H1609 H 0.38825 0.2203 0.83901 0.0
H1610 H 0.41429 0.2157 0.02597 0.0
H1611 H 0.38942 0.20201 0.83958 0.0
H1612 H 0.39908 0.17305 0.8267 0.0
H1613 H 0.40172 0.19314 0.81777 0.0
H1614 H 0.40122 0.19511 0.06034 0.0
H1615 H 0.39926 0.17535 0.06928 0.0
C1616 C 0.40773 0.227 0.98545 0.0
C1617 C 0.40019 0.2284 0.93418 0.0
C1618 C 0.40858 0.2166 0.98486 0.0
C1619 C 0.40188 0.20735 0.93322 0.0
C1620 C 0.39477 0.20899 0.87981 0.0
C1621 C 0.39397 0.21941 0.88013 0.0
C1622 C 0.39977 0.17787 0.87811 0.0
C1623 C 0.39886 0.17255 0.9487 0.0
C1624 C 0.40116 0.18933 0.87297 0.0
C1625 C 0.40161 0.1957 0.93829 0.0
C1626 C 0.40103 0.19051 0.00887 0.0
C1627 C 0.39972 0.17909 0.01401 0.0
H1628 H 0.76708 0.17322 0.85095 0.0
H1629 H 0.76839 0.17556 0.09381 0.0
H1630 H 0.78562 0.1926 0.8437 0.0
H1631 H 0.78712 0.19467 0.08601 0.0
H1632 H 0.82791 0.21681 0.0299 0.0
H1633 H 0.80797 0.19903 0.0367 0.0
H1634 H 0.79447 0.2154 0.88229 0.0
H1635 H 0.81455 0.23336 0.8759 0.0
C1636 C 0.7712 0.17792 0.9027 0.0
C1637 C 0.76633 0.17275 0.97301 0.0
C1638 C 0.78181 0.18899 0.89842 0.0
C1639 C 0.78779 0.19501 0.96431 0.0
C1640 C 0.78273 0.19009 0.03445 0.0
C1641 C 0.77206 0.17911 0.03879 0.0
C1642 C 0.82069 0.21658 0.99723 0.0
C1643 C 0.82272 0.22638 0.95208 0.0
C1644 C 0.80929 0.20648 1.00165 0.0
C1645 C 0.79973 0.20592 0.96029 0.0
C1646 C 0.80174 0.21566 0.91459 0.0
C1647 C 0.81315 0.2259 0.91113 0.0
H1648 H 0.76633 0.58844 0.03428 0.0
H1649 H 0.77049 0.60087 0.805 0.0
H1650 H 0.78465 0.58744 0.02397 0.0
H1651 H 0.78856 0.59925 0.79243 0.0
H1652 H 0.82781 0.60951 0.83103 0.0
H1653 H 0.80861 0.60879 0.83038 0.0
H1654 H 0.7937 0.57734 0.97304 0.0
H1655 H 0.81317 0.57879 0.97998 0.0
C1656 C 0.7711 0.59073 0.98113 0.0
C1657 C 0.76708 0.59474 0.92046 0.0
C1658 C 0.78155 0.59008 0.97485 0.0
C1659 C 0.78811 0.59321 0.90716 0.0
C1660 C 0.78388 0.59696 0.84578 0.0
C1661 C 0.77352 0.59783 0.85266 0.0
C1662 C 0.82049 0.60252 0.86305 0.0
C1663 C 0.82217 0.59435 0.9067 0.0
C1664 C 0.80937 0.60196 0.86151 0.0
C1665 C 0.79959 0.59308 0.90238 0.0
C1666 C 0.80109 0.5845 0.94239 0.0
C1667 C 0.81226 0.5852 0.94522 0.0
H1668 H 0.82937 0.71663 0.2969 0.0
H1669 H 0.84534 0.75119 0.40748 0.0
H1670 H 0.84804 0.71653 0.30896 0.0
H1671 H 0.86391 0.75067 0.42448 0.0
H1672 H 0.89905 0.75068 0.36015 0.0
H1673 H 0.88074 0.75205 0.35676 0.0
H1674 H 0.85961 0.71394 0.40171 0.0
H1675 H 0.87783 0.71258 0.4015 0.0
C1676 C 0.83688 0.72425 0.3236 0.0
C1677 C 0.83584 0.73396 0.35071 0.0
C1678 C 0.84755 0.72408 0.33186 0.0
C1679 C 0.85744 0.73351 0.36865 0.0
C1680 C 0.85648 0.74328 0.39558 0.0
C1681 C 0.84578 0.74351 0.38657 0.0
C1682 C 0.89046 0.74267 0.37009 0.0
C1683 C 0.88975 0.73151 0.38028 0.0
C1684 C 0.87999 0.74344 0.36841 0.0
C1685 C 0.86868 0.73306 0.37779 0.0
C1686 C 0.86813 0.72204 0.39211 0.0
C1687 C 0.87854 0.72125 0.39258 0.0
H1688 H 0.24136 0.14658 0.41492 0.0
H1689 H 0.28003 0.16335 0.4122 0.0
H1690 H 0.23973 0.12683 0.42786 0.0
H1691 H 0.27842 0.1437 0.42484 0.0
H1692 H 0.27157 0.10778 0.51086 0.0
H1693 H 0.27116 0.12651 0.51851 0.0
H1694 H 0.24501 0.11443 0.33945 0.0
H1695 H 0.24562 0.09584 0.33013 0.0
C1696 C 0.24949 0.14603 0.41797 0.0
C1697 C 0.26082 0.15642 0.41225 0.0
C1698 C 0.24856 0.13477 0.42498 0.0
C1699 C 0.25895 0.13379 0.42753 0.0
C1700 C 0.27027 0.14423 0.42387 0.0
C1701 C 0.27119 0.15544 0.41592 0.0
C1702 C 0.26573 0.1091 0.47313 0.0
C1703 C 0.25875 0.10038 0.41919 0.0
C1704 C 0.26546 0.11979 0.47783 0.0
C1705 C 0.25811 0.12191 0.42927 0.0
C1706 C 0.25067 0.11296 0.37804 0.0
C1707 C 0.25101 0.10231 0.37284 0.0
H1708 H 0.89258 0.14843 0.27419 0.0
H1709 H 0.88502 0.15749 0.49357 0.0
H1710 H 0.87373 0.12915 0.27899 0.0
H1711 H 0.8661 0.13832 0.49773 0.0
H1712 H 0.82706 0.1129 0.3985 0.0
H1713 H 0.84695 0.13091 0.40576 0.0
H1714 H 0.86351 0.10926 0.36884 0.0
H1715 H 0.84355 0.09116 0.36325 0.0
C1716 C 0.88692 0.14621 0.32355 0.0
C1717 C 0.89016 0.15437 0.38347 0.0
C1718 C 0.87622 0.13521 0.32646 0.0
C1719 C 0.86855 0.13235 0.38866 0.0
C1720 C 0.87191 0.14039 0.44923 0.0
C1721 C 0.88271 0.15128 0.44697 0.0
C1722 C 0.83497 0.11202 0.39246 0.0
C1723 C 0.83388 0.10074 0.38038 0.0
C1724 C 0.84629 0.12226 0.39699 0.0
C1725 C 0.85667 0.12138 0.38804 0.0
C1726 C 0.85559 0.1101 0.37591 0.0
C1727 C 0.84425 0.0998 0.37296 0.0
H1728 H 0.07824 0.51264 0.34983 0.0
H1729 H 0.05201 0.49976 0.17039 0.0
H1730 H 0.0791 0.532 0.34596 0.0
H1731 H 0.05264 0.51904 0.16861 0.0
H1732 H 0.04507 0.54754 0.28084 0.0
H1733 H 0.04598 0.52912 0.26688 0.0
H1734 H 0.08471 0.54998 0.25846 0.0
H1735 H 0.08379 0.56846 0.27255 0.0
C1736 C 0.07282 0.51399 0.30863 0.0
C1737 C 0.06498 0.5046 0.26082 0.0
C1738 C 0.0733 0.52507 0.30664 0.0
C1739 C 0.06588 0.52694 0.25737 0.0
C1740 C 0.05834 0.51774 0.2078 0.0
C1741 C 0.05795 0.5067 0.20916 0.0
C1742 C 0.05376 0.54817 0.27586 0.0
C1743 C 0.06436 0.55937 0.27801 0.0
C1744 C 0.05428 0.53766 0.26717 0.0
C1745 C 0.06541 0.53817 0.26136 0.0
C1746 C 0.07602 0.54938 0.26299 0.0
C1747 C 0.07549 0.55992 0.27067 0.0
H1748 H 0.48636 0.56452 0.21187 0.0
H1749 H 0.48514 0.56027 0.45355 0.0
H1750 H 0.46633 0.54716 0.20228 0.0
H1751 H 0.46567 0.54232 0.44335 0.0
H1752 H 0.42764 0.51363 0.41681 0.0
H1753 H 0.44527 0.53372 0.41972 0.0
H1754 H 0.4574 0.52634 0.20976 0.0
H1755 H 0.43939 0.50659 0.20541 0.0
C1756 C 0.48182 0.55995 0.26307 0.0
C1757 C 0.48747 0.56375 0.33343 0.0
C1758 C 0.47038 0.54985 0.25743 0.0
C1759 C 0.46439 0.54319 0.32186 0.0
C1760 C 0.46989 0.54725 0.39243 0.0
C1761 C 0.48122 0.55745 0.39819 0.0
C1762 C 0.43404 0.51645 0.37099 0.0
C1763 C 0.43228 0.50866 0.31107 0.0
C1764 C 0.44417 0.5279 0.37274 0.0
C1765 C 0.45287 0.53165 0.31542 0.0
C1766 C 0.45084 0.52389 0.25432 0.0
C1767 C 0.44058 0.51254 0.25189 0.0
H1768 H 0.43482 0.92468 0.42371 0.0
H1769 H 0.43291 0.92673 0.18168 0.0
H1770 H 0.45352 0.92434 0.41124 0.0
H1771 H 0.4514 0.92592 0.16969 0.0
H1772 H 0.48048 0.91405 0.19248 0.0
H1773 H 0.46042 0.91187 0.20253 0.0
H1774 H 0.47425 0.94123 0.36105 0.0
H1775 H 0.49419 0.94346 0.35062 0.0
C1776 C 0.43833 0.925 0.36788 0.0
C1777 C 0.43246 0.92594 0.30374 0.0
C1778 C 0.44899 0.92472 0.36086 0.0
C1779 C 0.45389 0.9252 0.28959 0.0
C1780 C 0.44773 0.92547 0.22522 0.0
C1781 C 0.43713 0.9259 0.23222 0.0
C1782 C 0.47917 0.92001 0.22928 0.0
C1783 C 0.48883 0.92896 0.27049 0.0
C1784 C 0.46777 0.91879 0.23487 0.0
C1785 C 0.46585 0.92634 0.28294 0.0
C1786 C 0.4755 0.93523 0.32423 0.0
C1787 C 0.4869 0.93658 0.3177 0.0
H1788 H 0.49938 0.05541 0.83743 0.0
H1789 H 0.51066 0.08102 0.65503 0.0
H1790 H 0.51864 0.05609 0.83267 0.0
H1791 H 0.53012 0.08213 0.6528 0.0
H1792 H 0.55497 0.06701 0.59944 0.0
H1793 H 0.53701 0.06863 0.61247 0.0
H1794 H 0.54008 0.06848 0.85448 0.0
H1795 H 0.55778 0.0663 0.84139 0.0
C1796 C 0.50602 0.06128 0.7969 0.0
C1797 C 0.50345 0.06806 0.74611 0.0
C1798 C 0.51711 0.06178 0.79477 0.0
C1799 C 0.52586 0.0691 0.74196 0.0
C1800 C 0.52348 0.07627 0.69337 0.0
C1801 C 0.51239 0.07574 0.69533 0.0
C1802 C 0.55177 0.06724 0.65543 0.0
C1803 C 0.55773 0.06642 0.71938 0.0
C1804 C 0.54158 0.06835 0.66292 0.0
C1805 C 0.53713 0.0687 0.73455 0.0
C1806 C 0.54323 0.06812 0.79856 0.0
C1807 C 0.55343 0.06699 0.79105 0.0
H1808 H 0.92694 0.48746 0.57403 0.0
H1809 H 0.92305 0.48652 0.81596 0.0
H1810 H 0.9249 0.46772 0.57671 0.0
H1811 H 0.91988 0.46625 0.81783 0.0
H1812 H 0.9316 0.43796 0.80364 0.0
H1813 H 0.93102 0.45659 0.80599 0.0
H1814 H 0.91226 0.44719 0.59276 0.0
H1815 H 0.91354 0.42888 0.58911 0.0
C1816 C 0.92558 0.48303 0.62787 0.0
C1817 C 0.92538 0.48872 0.69493 0.0
C1818 C 0.92416 0.47155 0.62924 0.0
C1819 C 0.92225 0.46533 0.69755 0.0
C1820 C 0.92156 0.47083 0.7643 0.0
C1821 C 0.9232 0.48242 0.76309 0.0
C1822 C 0.92723 0.43986 0.75789 0.0
C1823 C 0.92268 0.4321 0.69603 0.0
C1824 C 0.92683 0.4505 0.75926 0.0
C1825 C 0.92165 0.45348 0.6993 0.0
C1826 C 0.91658 0.44536 0.63905 0.0
C1827 C 0.91721 0.43483 0.63706 0.0
H1828 H 0.5094 0.42646 0.79694 0.0
H1829 H 0.49662 0.44417 0.64799 0.0
H1830 H 0.52968 0.44414 0.79197 0.0
H1831 H 0.51675 0.46168 0.64265 0.0
H1832 H 0.55616 0.48492 0.58617 0.0
H1833 H 0.53742 0.46579 0.5919 0.0
H1834 H 0.53899 0.46682 0.8344 0.0
H1835 H 0.55757 0.48621 0.82923 0.0
C1836 C 0.51096 0.43412 0.76312 0.0
C1837 C 0.5015 0.43404 0.72319 0.0
C1838 C 0.52249 0.44419 0.76046 0.0
C1839 C 0.52472 0.45417 0.71656 0.0
C1840 C 0.51527 0.45402 0.67624 0.0
C1841 C 0.50375 0.44408 0.67987 0.0
C1842 C 0.55252 0.48111 0.64079 0.0
C1843 C 0.55824 0.4872 0.70728 0.0
C1844 C 0.54185 0.47013 0.64394 0.0
C1845 C 0.53677 0.46495 0.71357 0.0
C1846 C 0.5428 0.47064 0.78006 0.0
C1847 C 0.55343 0.48171 0.77698 0.0
H1848 H 0.74715 0.89877 0.71387 0.0
H1849 H 0.72206 0.88397 0.52902 0.0
H1850 H 0.74932 0.88107 0.71441 0.0
H1851 H 0.72363 0.86589 0.53299 0.0
H1852 H 0.73454 0.83773 0.52298 0.0
H1853 H 0.73624 0.85739 0.51081 0.0
H1854 H 0.73723 0.86076 0.75301 0.0
H1855 H 0.73627 0.84149 0.76493 0.0
C1856 C 0.74218 0.8918 0.67278 0.0
C1857 C 0.73438 0.89278 0.62161 0.0
C1858 C 0.74331 0.88157 0.67383 0.0
C1859 C 0.73656 0.87201 0.62433 0.0
C1860 C 0.72904 0.87313 0.57154 0.0
C1861 C 0.728 0.88343 0.57001 0.0
C1862 C 0.73539 0.84279 0.57353 0.0
C1863 C 0.73517 0.838 0.64496 0.0
C1864 C 0.73621 0.85399 0.56657 0.0
C1865 C 0.73677 0.86061 0.6309 0.0
C1866 C 0.73693 0.85597 0.7022 0.0
C1867 C 0.7362 0.84483 0.70912 0.0
H1868 H 0.1512 0.89235 0.52428 0.0
H1869 H 0.1526 0.89004 0.76638 0.0
H1870 H 0.13121 0.87482 0.52416 0.0
H1871 H 0.13319 0.8719 0.76549 0.0
H1872 H 0.09466 0.84322 0.75479 0.0
H1873 H 0.1126 0.86308 0.75076 0.0
H1874 H 0.12235 0.85413 0.53722 0.0
H1875 H 0.10402 0.83464 0.53988 0.0
C1876 C 0.14725 0.88815 0.57756 0.0
C1877 C 0.15363 0.89256 0.64522 0.0
C1878 C 0.13583 0.87796 0.57736 0.0
C1879 C 0.1306 0.87179 0.64466 0.0
C1880 C 0.13683 0.87643 0.71253 0.0
C1881 C 0.14813 0.88674 0.71288 0.0
C1882 C 0.10063 0.84563 0.70688 0.0
C1883 C 0.09807 0.83749 0.64774 0.0
C1884 C 0.11094 0.85695 0.7046 0.0
C1885 C 0.11903 0.86023 0.6439 0.0
C1886 C 0.11627 0.85206 0.5842 0.0
C1887 C 0.10583 0.84085 0.58583 0.0
H1888 H 0.10851 0.27363 0.50777 0.0
H1889 H 0.09382 0.24721 0.68555 0.0
H1890 H 0.127 0.27276 0.51109 0.0
H1891 H 0.11206 0.24591 0.68628 0.0
H1892 H 0.15193 0.26041 0.73954 0.0
H1893 H 0.13246 0.25908 0.72783 0.0
H1894 H 0.13582 0.26021 0.48568 0.0
H1895 H 0.15559 0.26208 0.49755 0.0
C1896 C 0.10918 0.26756 0.54701 0.0
C1897 C 0.09974 0.26058 0.59687 0.0
C1898 C 0.11972 0.26694 0.54827 0.0
C1899 C 0.12101 0.25932 0.59931 0.0
C1900 C 0.11139 0.252 0.64707 0.0
C1901 C 0.10088 0.25263 0.64597 0.0
C1902 C 0.14854 0.26044 0.68382 0.0
C1903 C 0.15533 0.26146 0.6195 0.0
C1904 C 0.13731 0.25951 0.67705 0.0
C1905 C 0.1326 0.25954 0.60579 0.0
C1906 C 0.13927 0.26029 0.54136 0.0
C1907 C 0.15053 0.26123 0.54814 0.0
H1908 H 0.06803 0.30355 0.73424 0.0
H1909 H 0.09512 0.2969 0.8288 0.0
H1910 H 0.07706 0.32288 0.7983 0.0
H1911 H 0.10439 0.31637 0.89065 0.0
H1912 H 0.10915 0.34468 0.06137 0.0
H1913 H 0.10041 0.32578 0.99311 0.0
H1914 H 0.09419 0.34267 0.80156 0.0
H1915 H 0.10258 0.3615 0.87105 0.0
C1916 C 0.07601 0.30629 0.7679 0.0
C1917 C 0.08083 0.29867 0.77685 0.0
C1918 C 0.08122 0.31739 0.80436 0.0
C1919 C 0.09141 0.32116 0.85004 0.0
C1920 C 0.0964 0.31365 0.85719 0.0
C1921 C 0.09113 0.30252 0.82131 0.0
C1922 C 0.10592 0.34436 0.00468 0.0
C1923 C 0.10654 0.35458 0.97164 0.0
C1924 C 0.10098 0.33354 0.9653 0.0
C1925 C 0.09666 0.33271 0.89163 0.0
C1926 C 0.0973 0.34295 0.85854 0.0
C1927 C 0.10214 0.35376 0.89826 0.0
H1928 H 0.62722 0.73992 0.84606 0.0
H1929 H 0.64536 0.76303 0.03546 0.0
H1930 H 0.64582 0.74979 0.77382 0.0
H1931 H 0.66403 0.77287 0.96288 0.0
H1932 H 0.69663 0.77404 0.83755 0.0
H1933 H 0.67804 0.76576 0.90978 0.0
H1934 H 0.66013 0.77071 0.71939 0.0
H1935 H 0.67877 0.77908 0.64686 0.0
C1936 C 0.63517 0.74711 0.87223 0.0
C1937 C 0.63486 0.75067 0.94655 0.0
C1938 C 0.64579 0.75281 0.83065 0.0
C1939 C 0.65632 0.76206 0.86291 0.0
C1940 C 0.65601 0.7657 0.93699 0.0
C1941 C 0.64534 0.76011 0.97829 0.0
C1942 C 0.68874 0.77339 0.81108 0.0
C1943 C 0.68913 0.77716 0.73642 0.0
C1944 C 0.67814 0.76873 0.85265 0.0
C1945 C 0.66769 0.76761 0.82003 0.0
C1946 C 0.66808 0.77143 0.74557 0.0
C1947 C 0.67873 0.77626 0.70429 0.0
H1948 H 0.25639 0.8982 0.94197 0.0
H1949 H 0.22928 0.86399 0.85275 0.0
H1950 H 0.24679 0.90803 0.87939 0.0
H1951 H 0.21943 0.87375 0.79236 0.0
H1952 H 0.21381 0.89682 0.62106 0.0
H1953 H 0.22276 0.88683 0.68894 0.0
H1954 H 0.22951 0.91038 0.87888 0.0
H1955 H 0.22094 0.92065 0.80973 0.0
C1956 C 0.24828 0.89275 0.90984 0.0
C1957 C 0.24363 0.88032 0.90188 0.0
C1958 C 0.24274 0.89838 0.87425 0.0
C1959 C 0.23237 0.89169 0.83048 0.0
C1960 C 0.22754 0.87921 0.82439 0.0
C1961 C 0.23314 0.87359 0.85943 0.0
C1962 C 0.2172 0.89986 0.67734 0.0
C1963 C 0.2167 0.90954 0.70995 0.0
C1964 C 0.22225 0.89407 0.71651 0.0
C1965 C 0.22682 0.89776 0.78953 0.0
C1966 C 0.22624 0.90741 0.82234 0.0
C1967 C 0.22128 0.91328 0.78283 0.0
H1968 H 0.3016 0.06929 0.26361 0.0
H1969 H 0.29487 0.09693 0.17993 0.0
H1970 H 0.32103 0.07891 0.20037 0.0
H1971 H 0.31442 0.10677 0.11893 0.0
H1972 H 0.35966 0.10505 0.13164 0.0
H1973 H 0.34077 0.09617 0.20075 0.0
H1974 H 0.32403 0.10366 0.01378 0.0
H1975 H 0.343 0.11288 0.9459 0.0
C1976 C 0.30434 0.0775 0.23253 0.0
C1977 C 0.29668 0.0823 0.22631 0.0
C1978 C 0.3155 0.08306 0.19654 0.0
C1979 C 0.31926 0.09358 0.15411 0.0
C1980 C 0.31171 0.09854 0.14979 0.0
C1981 C 0.30052 0.09294 0.18519 0.0
C1982 C 0.35195 0.10482 0.10538 0.0
C1983 C 0.35282 0.10969 0.03333 0.0
C1984 C 0.3411 0.09967 0.14486 0.0
C1985 C 0.33088 0.09921 0.11292 0.0
C1986 C 0.33178 0.10406 0.04071 0.0
C1987 C 0.34264 0.10929 1.00153 0.0
H1988 H 0.8621 0.2286 0.15172 0.0
H1989 H 0.89688 0.25641 0.07454 0.0
H1990 H 0.87141 0.21813 0.20982 0.0
H1991 H 0.90627 0.24621 0.1352 0.0
H1992 H 0.91872 0.22014 0.20055 0.0
H1993 H 0.90878 0.22912 0.13184 0.0
H1994 H 0.88357 0.22021 0.31499 0.0
H1995 H 0.89322 0.21084 0.38205 0.0
C1996 C 0.87175 0.23249 0.14735 0.0
C1997 C 0.87877 0.24334 0.1089 0.0
C1998 C 0.8771 0.22652 0.18105 0.0
C1999 C 0.88961 0.23136 0.17781 0.0
C2000 C 0.8966 0.24213 0.13801 0.0
C2001 C 0.89122 0.24802 0.10356 0.0
C2002 C 0.91103 0.22008 0.22593 0.0
C2003 C 0.90676 0.21481 0.29673 0.0
C2004 C 0.90536 0.22528 0.18672 0.0
C2005 C 0.89538 0.22542 0.21785 0.0
C2006 C 0.8911 0.22008 0.28861 0.0
C2007 C 0.89668 0.21477 0.32737 0.0
H2008 H 0.76518 0.63286 0.13145 0.0
H2009 H 0.73528 0.63728 0.0655 0.0
H2010 H 0.77534 0.65308 0.18349 0.0
H2011 H 0.74521 0.65732 0.12015 0.0
H2012 H 0.77033 0.69671 0.17117 0.0
H2013 H 0.76155 0.67732 0.10773 0.0
H2014 H 0.77372 0.66352 0.2884 0.0
H2015 H 0.78285 0.68298 0.35003 0.0
C2016 C 0.76076 0.63814 0.12833 0.0
C2017 C 0.74942 0.63346 0.09473 0.0
C2018 C 0.76656 0.64971 0.15852 0.0
C2019 C 0.76107 0.65682 0.15656 0.0
C2020 C 0.74979 0.65218 0.12177 0.0
C2021 C 0.74405 0.64065 0.09083 0.0
C2022 C 0.77116 0.68953 0.19706 0.0
C2023 C 0.77726 0.69135 0.26562 0.0
C2024 C 0.76608 0.6784 0.16092 0.0
C2025 C 0.7669 0.66883 0.19296 0.0
C2026 C 0.77309 0.67073 0.26133 0.0
C2027 C 0.77827 0.68188 0.29699 0.0
H2028 H 0.89715 0.67814 0.38481 0.0
H2029 H 0.91946 0.69516 0.19042 0.0
H2030 H 0.88698 0.65918 0.31723 0.0
H2031 H 0.90902 0.67624 0.12186 0.0
H2032 H 0.89645 0.63707 0.05548 0.0
H2033 H 0.90678 0.65649 0.11863 0.0
H2034 H 0.87314 0.64967 0.21603 0.0
H2035 H 0.8629 0.63014 0.15489 0.0
C2036 C 0.89983 0.67786 0.32744 0.0
C2037 C 0.90911 0.68815 0.293 0.0
C2038 C 0.89394 0.66699 0.28848 0.0
C2039 C 0.89713 0.6662 0.21394 0.0
C2040 C 0.90643 0.67651 0.17949 0.0
C2041 C 0.91239 0.68737 0.21869 0.0
C2042 C 0.89126 0.63975 0.09006 0.0
C2043 C 0.87887 0.63204 0.10061 0.0
C2044 C 0.89717 0.65091 0.12599 0.0
C2045 C 0.8908 0.6546 0.17282 0.0
C2046 C 0.87836 0.647 0.1816 0.0
C2047 C 0.87247 0.63583 0.14613 0.0
H2048 H 0.35401 0.25645 0.06706 0.0
H2049 H 0.36204 0.23047 0.16455 0.0
H2050 H 0.3347 0.2469 0.13107 0.0
H2051 H 0.34254 0.22066 0.22659 0.0
H2052 H 0.31399 0.21577 0.39806 0.0
H2053 H 0.33279 0.22447 0.32853 0.0
H2054 H 0.31527 0.22931 0.13518 0.0
H2055 H 0.29655 0.22097 0.20569 0.0
C2056 C 0.35158 0.24859 0.10133 0.0
C2057 C 0.35959 0.24426 0.11115 0.0
C2058 C 0.34048 0.24308 0.13776 0.0
C2059 C 0.33709 0.23304 0.18433 0.0
C2060 C 0.34497 0.22851 0.19232 0.0
C2061 C 0.35611 0.23408 0.15635 0.0
C2062 C 0.31415 0.21868 0.34068 0.0
C2063 C 0.30381 0.21773 0.30749 0.0
C2064 C 0.32491 0.22359 0.30059 0.0
C2065 C 0.32555 0.22757 0.22616 0.0
C2066 C 0.31514 0.2265 0.19275 0.0
C2067 C 0.3044 0.22168 0.23309 0.0
H2068 H 0.76922 0.07076 0.18806 0.0
H2069 H 0.77268 0.0935 0.37661 0.0
H2070 H 0.76114 0.08083 0.11165 0.0
H2071 H 0.76456 0.10355 0.29989 0.0
H2072 H 0.73586 0.10712 0.1623 0.0
H2073 H 0.74449 0.09759 0.23864 0.0
H2074 H 0.76862 0.10177 0.05724 0.0
H2075 H 0.75999 0.11136 0.98047 0.0
C2076 C 0.76822 0.07788 0.21328 0.0
C2077 C 0.77156 0.08132 0.28845 0.0
C2078 C 0.76369 0.0837 0.16931 0.0
C2079 C 0.76226 0.09297 0.19991 0.0
C2080 C 0.76551 0.09637 0.27514 0.0
C2081 C 0.77019 0.09065 0.31888 0.0
C2082 C 0.743 0.10601 0.1386 0.0
C2083 C 0.74723 0.10996 0.06528 0.0
C2084 C 0.74799 0.10063 0.18254 0.0
C2085 C 0.75721 0.09895 0.15375 0.0
C2086 C 0.76145 0.10289 0.08048 0.0
C2087 C 0.75656 0.10842 0.03679 0.0
H2088 H 0.69354 0.92616 0.81042 0.0
H2089 H 0.69065 0.89216 0.75549 0.0
H2090 H 0.67292 0.91587 0.85545 0.0
H2091 H 0.66964 0.88174 0.79351 0.0
H2092 H 0.63506 0.86483 0.92641 0.0
H2093 H 0.65605 0.87508 0.88781 0.0
H2094 H 0.65332 0.90618 0.82434 0.0
H2095 H 0.63274 0.89619 0.86997 0.0
C2096 C 0.68835 0.91644 0.80711 0.0
C2097 C 0.69358 0.9099 0.7799 0.0
C2098 C 0.67647 0.9105 0.83213 0.0
C2099 C 0.6694 0.89788 0.82788 0.0
C2100 C 0.67474 0.89141 0.7996 0.0
C2101 C 0.68677 0.89735 0.7771 0.0
C2102 C 0.63906 0.87388 0.90432 0.0
C2103 C 0.63242 0.87979 0.90131 0.0
C2104 C 0.65107 0.87976 0.88148 0.0
C2105 C 0.65657 0.89156 0.85266 0.0
C2106 C 0.64966 0.89728 0.84809 0.0
C2107 C 0.6378 0.89154 0.87345 0.0
H2108 H 0.06833 0.77136 0.82935 0.0
H2109 H 0.09453 0.77982 0.65308 0.0
H2110 H 0.07797 0.76267 0.90424 0.0
H2111 H 0.10413 0.77105 0.72817 0.0
H2112 H 0.10734 0.74075 0.84911 0.0
H2113 H 0.0982 0.75003 0.775 0.0
H2114 H 0.09815 0.77001 0.97009 0.0
H2115 H 0.10735 0.76075 0.04458 0.0
C2116 C 0.07613 0.77136 0.80653 0.0
C2117 C 0.08066 0.77626 0.73522 0.0
C2118 C 0.08169 0.76645 0.84966 0.0
C2119 C 0.09178 0.7662 0.82192 0.0
C2120 C 0.0963 0.77106 0.75058 0.0
C2121 C 0.09084 0.77612 0.70784 0.0
C2122 C 0.10538 0.74711 0.8763 0.0
C2123 C 0.10804 0.75001 0.95275 0.0
C2124 C 0.10022 0.75247 0.8337 0.0
C2125 C 0.09748 0.76073 0.86689 0.0
C2126 C 0.1001 0.7636 0.94334 0.0
C2127 C 0.10542 0.75836 0.98578 0.0
H2128 H 0.21916 0.29677 0.81771 0.0
H2129 H 0.21724 0.31645 0.62618 0.0
H2130 H 0.22754 0.315 0.89357 0.0
H2131 H 0.22571 0.33472 0.70239 0.0
H2132 H 0.25525 0.36632 0.84298 0.0
H2133 H 0.246 0.34816 0.76645 0.0
H2134 H 0.22057 0.32922 0.94419 0.0
H2135 H 0.22978 0.34746 0.02097 0.0
C2136 C 0.22055 0.30499 0.79175 0.0
C2137 C 0.21758 0.30519 0.71589 0.0
C2138 C 0.22526 0.31539 0.83538 0.0
C2139 C 0.22724 0.32623 0.80376 0.0
C2140 C 0.22431 0.32647 0.72791 0.0
C2141 C 0.21944 0.31602 0.68449 0.0
C2142 C 0.24769 0.3583 0.86578 0.0
C2143 C 0.24326 0.3583 0.93809 0.0
C2144 C 0.24235 0.34793 0.82173 0.0
C2145 C 0.23259 0.33732 0.84953 0.0
C2146 C 0.22814 0.33729 0.92175 0.0
C2147 C 0.23337 0.34772 0.96544 0.0
H2148 H 0.0277 0.46462 0.47986 0.0
H2149 H 0.02219 0.43017 0.40703 0.0
H2150 H 0.00757 0.45486 0.53325 0.0
H2151 H 0.00224 0.42032 0.46314 0.0
H2152 H 0.96317 0.40672 0.5177 0.0
H2153 H 0.98248 0.41717 0.45349 0.0
H2154 H -0.00308 0.44264 0.6367 0.0
H2155 H 0.9775 0.43249 0.69908 0.0
C2156 C 0.02219 0.45495 0.47555 0.0
C2157 C 0.02653 0.44816 0.43954 0.0
C2158 C 0.01068 0.44934 0.50654 0.0
C2159 C 0.00329 0.43678 0.50305 0.0
C2160 C 0.0076 0.43001 0.46598 0.0
C2161 C 0.01907 0.43565 0.43418 0.0
C2162 C 0.97047 0.41459 0.54398 0.0
C2163 C 0.96884 0.41878 0.61348 0.0
C2164 C 0.98156 0.42055 0.5074 0.0
C2165 C 0.9913 0.43074 0.53996 0.0
C2166 C 0.98959 0.43496 0.60923 0.0
C2167 C 0.97846 0.42909 0.64531 0.0
H2168 H 0.56343 0.54853 0.71733 0.0
H2169 H 0.58608 0.55257 0.52702 0.0
H2170 H 0.55393 0.55767 0.64476 0.0
H2171 H 0.57655 0.56165 0.45475 0.0
H2172 H 0.54727 0.56559 0.32872 0.0
H2173 H 0.55578 0.55543 0.40097 0.0
H2174 H 0.56109 0.57859 0.59045 0.0
H2175 H 0.55266 0.58876 0.51855 0.0
C2176 C 0.56634 0.55132 0.66 0.0
C2177 C 0.57553 0.54988 0.62797 0.0
C2178 C 0.56094 0.55659 0.61869 0.0
C2179 C 0.56452 0.56035 0.54429 0.0
C2180 C 0.57357 0.55873 0.51184 0.0
C2181 C 0.57907 0.55362 0.55343 0.0
C2182 C 0.55022 0.56848 0.38587 0.0
C2183 C 0.54934 0.578 0.41789 0.0
C2184 C 0.55512 0.5627 0.42699 0.0
C2185 C 0.55907 0.56624 0.50117 0.0
C2186 C 0.55802 0.57563 0.53355 0.0
C2187 C 0.55327 0.5815 0.49217 0.0
H2188 H 0.40664 0.96597 0.49078 0.0
H2189 H 0.43078 0.98151 0.30214 0.0
H2190 H 0.41696 0.98518 0.55619 0.0
H2191 H 0.44081 0.00081 0.36606 0.0
H2192 H 0.46335 0.03127 0.52415 0.0
H2193 H 0.4537 0.01135 0.46787 0.0
H2194 H 0.41932 0.00474 0.55131 0.0
H2195 H 0.42907 0.02449 0.61006 0.0
C2196 C 0.41411 0.97351 0.46315 0.0
C2197 C 0.41789 0.97225 0.3913 0.0
C2198 C 0.42 0.98454 0.50047 0.0
C2199 C 0.42971 0.99457 0.46639 0.0
C2200 C 0.43351 0.99324 0.39462 0.0
C2201 C 0.42771 0.98219 0.35771 0.0
C2202 C 0.45374 0.02553 0.5308 0.0
C2203 C 0.44697 0.02945 0.57133 0.0
C2204 C 0.44819 0.01413 0.49815 0.0
C2205 C 0.43571 0.00645 0.50458 0.0
C2206 C 0.42897 0.01034 0.54608 0.0
C2207 C 0.43455 0.02169 0.57943 0.0
H2208 H 0.53003 0.96494 0.48028 0.0
H2209 H 0.56377 0.97171 0.38474 0.0
H2210 H 0.54026 0.98428 0.54371 0.0
H2211 H 0.57409 0.99093 0.45026 0.0
H2212 H 0.58709 0.02945 0.52595 0.0
H2213 H 0.57669 0.01073 0.45533 0.0
H2214 H 0.55369 0.99344 0.64672 0.0
H2215 H 0.56382 0.01223 0.71629 0.0
C2216 C 0.53964 0.97056 0.47288 0.0
C2217 C 0.5461 0.96678 0.42777 0.0
C2218 C 0.54552 0.98162 0.50968 0.0
C2219 C 0.55802 0.98911 0.50273 0.0
C2220 C 0.56444 0.98543 0.45626 0.0
C2221 C 0.55853 0.9744 0.41893 0.0
C2222 C 0.57982 0.02165 0.55292 0.0
C2223 C 0.57626 0.02232 0.62667 0.0
C2224 C 0.57389 0.0109 0.51253 0.0
C2225 C 0.56433 0.00058 0.54522 0.0
C2226 C 0.56086 0.00127 0.61925 0.0
C2227 C 0.56672 0.01202 0.65938 0.0
H2228 H 0.01204 0.56782 0.2997 0.0
H2229 H 0.03205 0.59057 0.48651 0.0
H2230 H 0.99402 0.55818 0.37807 0.0
H2231 H 0.01405 0.58092 0.56455 0.0
H2232 H 0.98216 0.55105 0.69838 0.0
H2233 H 0.00028 0.56023 0.62056 0.0
H2234 H 0.98041 0.56469 0.43996 0.0
H2235 H 0.96236 0.55558 0.51725 0.0
C2236 C 0.0126 0.57075 0.3574 0.0
C2237 C 0.02345 0.57998 0.38684 0.0
C2238 C 0.00228 0.56527 0.40209 0.0
C2239 C 0.00267 0.56882 0.47728 0.0
C2240 C 0.01354 0.57796 0.50694 0.0
C2241 C 0.02381 0.58353 0.46204 0.0
C2242 C 0.98166 0.55398 0.64205 0.0
C2243 C 0.97083 0.5526 0.61403 0.0
C2244 C 0.99203 0.55927 0.59773 0.0
C2245 C 0.99171 0.56314 0.5243 0.0
C2246 C 0.98087 0.56168 0.49612 0.0
C2247 C 0.97056 0.55653 0.54066 0.0
H2248 H 0.40578 0.44201 0.48401 0.0
H2249 H 0.43122 0.45181 0.30173 0.0
H2250 H 0.41566 0.43274 0.55012 0.0
H2251 H 0.4408 0.44214 0.36606 0.0
H2252 H 0.4621 0.43285 0.5253 0.0
H2253 H 0.45295 0.44364 0.46974 0.0
H2254 H 0.41801 0.41562 0.54367 0.0
H2255 H 0.42726 0.40511 0.6019 0.0
C2256 C 0.41345 0.44213 0.45793 0.0
C2257 C 0.41772 0.44762 0.38766 0.0
C2258 C 0.41908 0.43676 0.49561 0.0
C2259 C 0.42902 0.43664 0.46342 0.0
C2260 C 0.43331 0.44223 0.39327 0.0
C2261 C 0.42777 0.44772 0.35608 0.0
C2262 C 0.45248 0.42904 0.53004 0.0
C2263 C 0.44539 0.41812 0.56771 0.0
C2264 C 0.44721 0.43519 0.49779 0.0
C2265 C 0.43471 0.43047 0.50167 0.0
C2266 C 0.42767 0.41961 0.54046 0.0
C2267 C 0.43296 0.41354 0.5735 0.0
H2268 H 0.12727 0.40306 0.32634 0.0
H2269 H 0.09988 0.36653 0.37639 0.0
H2270 H 0.13027 0.40741 0.45965 0.0
H2271 H 0.10231 0.37116 0.50945 0.0
H2272 H 0.11731 0.37969 0.74662 0.0
H2273 H 0.11515 0.37511 0.61269 0.0
H2274 H 0.12111 0.41067 0.56493 0.0
H2275 H 0.12367 0.4153 0.69898 0.0
C2276 C 0.12188 0.39592 0.3653 0.0
C2277 C 0.11328 0.38441 0.33967 0.0
C2278 C 0.12349 0.39849 0.44221 0.0
C2279 C 0.11648 0.38968 0.49569 0.0
C2280 C 0.10798 0.37816 0.47018 0.0
C2281 C 0.10646 0.37554 0.39337 0.0
C2282 C 0.11807 0.38648 0.7074 0.0
C2283 C 0.12064 0.39785 0.73313 0.0
C2284 C 0.11682 0.38386 0.63055 0.0
C2285 C 0.11795 0.39251 0.57762 0.0
C2286 C 0.12041 0.40386 0.60371 0.0
C2287 C 0.12182 0.40652 0.68053 0.0
H2288 H 0.58656 0.71456 0.30685 0.0
H2289 H 0.62439 0.73556 0.35819 0.0
H2290 H 0.58191 0.71228 0.44056 0.0
H2291 H 0.61974 0.73324 0.49223 0.0
H2292 H 0.60723 0.71611 0.72563 0.0
H2293 H 0.61193 0.71804 0.5917 0.0
H2294 H 0.58247 0.72429 0.5479 0.0
H2295 H 0.57781 0.72242 0.68131 0.0
C2296 C 0.59389 0.71881 0.34649 0.0
C2297 C 0.60587 0.7253 0.3215 0.0
C2298 C 0.59122 0.71747 0.42333 0.0
C2299 C 0.60045 0.72258 0.47721 0.0
C2300 C 0.61242 0.72903 0.4523 0.0
C2301 C 0.61509 0.73038 0.37541 0.0
C2302 C 0.60179 0.71796 0.68761 0.0
C2303 C 0.59211 0.71906 0.71467 0.0
C2304 C 0.6045 0.71908 0.61073 0.0
C2305 C 0.59757 0.72131 0.55898 0.0
C2306 C 0.58787 0.72238 0.58599 0.0
C2307 C 0.58518 0.72128 0.66274 0.0
H2308 H 0.27528 0.86813 0.3126 0.0
H2309 H 0.26211 0.8924 0.3637 0.0
H2310 H 0.27694 0.86531 0.44584 0.0
H2311 H 0.26454 0.89016 0.49671 0.0
H2312 H 0.25841 0.87414 0.73171 0.0
H2313 H 0.25631 0.87665 0.5979 0.0
H2314 H 0.28851 0.87498 0.55367 0.0
H2315 H 0.29034 0.87211 0.68761 0.0
C2316 C 0.27272 0.87289 0.35177 0.0
C2317 C 0.26854 0.88052 0.32635 0.0
C2318 C 0.27386 0.87139 0.42867 0.0
C2319 C 0.27094 0.87755 0.48249 0.0
C2320 C 0.26674 0.88515 0.45719 0.0
C2321 C 0.2655 0.88656 0.38036 0.0
C2322 C 0.26509 0.87442 0.69339 0.0
C2323 C 0.27455 0.87294 0.72019 0.0
C2324 C 0.26391 0.87587 0.61656 0.0
C2325 C 0.27224 0.87603 0.56454 0.0
C2326 C 0.28178 0.87468 0.59167 0.0
C2327 C 0.28288 0.87309 0.66851 0.0
H2328 H 0.3822 0.10506 0.26043 0.0
H2329 H 0.40937 0.14184 0.30467 0.0
H2330 H 0.37758 0.10196 0.39439 0.0
H2331 H 0.40477 0.13874 0.43816 0.0
H2332 H 0.40209 0.12517 0.67879 0.0
H2333 H 0.40662 0.12799 0.54499 0.0
H2334 H 0.3687 0.10806 0.49436 0.0
H2335 H 0.36416 0.10524 0.62854 0.0
C2336 C 0.38715 0.11251 0.29849 0.0
C2337 C 0.39619 0.12369 0.27148 0.0
C2338 C 0.38449 0.11073 0.37536 0.0
C2339 C 0.39082 0.1201 0.42708 0.0
C2340 C 0.39986 0.13127 0.40008 0.0
C2341 C 0.40251 0.13305 0.32334 0.0
C2342 C 0.3947 0.1215 0.63934 0.0
C2343 C 0.38275 0.11502 0.66462 0.0
C2344 C 0.3973 0.1231 0.56247 0.0
C2345 C 0.38802 0.11827 0.50887 0.0
C2346 C 0.37607 0.11175 0.53408 0.0
C2347 C 0.37347 0.11015 0.61101 0.0
H2348 H 0.88573 0.25667 0.64612 0.0
H2349 H 0.87157 0.28 0.69863 0.0
H2350 H 0.8834 0.2591 0.51228 0.0
H2351 H 0.8693 0.28249 0.56502 0.0
H2352 H 0.85479 0.27354 0.32438 0.0
H2353 H 0.85743 0.27148 0.45786 0.0
H2354 H 0.89151 0.27378 0.41193 0.0
H2355 H 0.88884 0.27581 0.27806 0.0
C2356 C 0.8822 0.26238 0.62915 0.0
C2357 C 0.87881 0.2681 0.68331 0.0
C2358 C 0.88089 0.2638 0.55234 0.0
C2359 C 0.87617 0.271 0.52768 0.0
C2360 C 0.87278 0.27672 0.58189 0.0
C2361 C 0.87407 0.27528 0.65868 0.0
C2362 C 0.86293 0.27378 0.34263 0.0
C2363 C 0.87161 0.27487 0.2901 0.0
C2364 C 0.86444 0.27258 0.41939 0.0
C2365 C 0.87468 0.27246 0.44586 0.0
C2366 C 0.88341 0.27364 0.39347 0.0
C2367 C 0.88189 0.27482 0.31657 0.0
H2368 H 0.72173 0.61193 0.27245 0.0
H2369 H 0.71649 0.57672 0.32344 0.0
H2370 H 0.72368 0.61662 0.40539 0.0
H2371 H 0.71773 0.58121 0.45664 0.0
H2372 H 0.73325 0.59752 0.68588 0.0
H2373 H 0.73169 0.59294 0.55179 0.0
H2374 H 0.71244 0.61215 0.51846 0.0
H2375 H 0.71428 0.61691 0.65203 0.0
C2376 C 0.72094 0.60514 0.31151 0.0
C2377 C 0.71895 0.59391 0.28613 0.0
C2378 C 0.72192 0.6078 0.38832 0.0
C2379 C 0.72086 0.59931 0.4421 0.0
C2380 C 0.71877 0.58805 0.41695 0.0
C2381 C 0.71788 0.58541 0.34014 0.0
C2382 C 0.72865 0.60071 0.64981 0.0
C2383 C 0.72393 0.60761 0.67949 0.0
C2384 C 0.72772 0.59807 0.57294 0.0
C2385 C 0.72193 0.60217 0.524 0.0
C2386 C 0.71716 0.60903 0.554 0.0
C2387 C 0.71819 0.61175 0.63069 0.0
H2388 H 0.88717 0.62548 0.63455 0.0
H2389 H 0.86862 0.58759 0.68668 0.0
H2390 H 0.88431 0.62076 0.50068 0.0
H2391 H 0.86576 0.58289 0.5531 0.0
H2392 H 0.85121 0.57925 0.31365 0.0
H2393 H 0.85456 0.58392 0.44684 0.0
H2394 H 0.89063 0.61238 0.39932 0.0
H2395 H 0.88731 0.60769 0.26558 0.0
C2396 C 0.88256 0.61615 0.6176 0.0
C2397 C 0.87809 0.60693 0.67178 0.0
C2398 C 0.88093 0.61344 0.54071 0.0
C2399 C 0.87479 0.60144 0.51592 0.0
C2400 C 0.87036 0.59223 0.57008 0.0
C2401 C 0.87198 0.59494 0.64691 0.0
C2402 C 0.85993 0.58639 0.33131 0.0
C2403 C 0.86899 0.59304 0.27825 0.0
C2404 C 0.86184 0.58909 0.40802 0.0
C2405 C 0.87287 0.59852 0.43405 0.0
C2406 C 0.88197 0.60516 0.38121 0.0
C2407 C 0.88006 0.60245 0.30434 0.0
H2408 H 0.41373 0.27488 0.32436 0.0
H2409 H 0.38146 0.27625 0.27833 0.0
H2410 H 0.40903 0.27271 0.45787 0.0
H2411 H 0.37676 0.27411 0.4122 0.0
H2412 H 0.36573 0.25696 0.64638 0.0
H2413 H 0.37049 0.25946 0.51252 0.0
H2414 H 0.40786 0.28353 0.56509 0.0
H2415 H 0.40309 0.28096 0.69872 0.0
C2416 C 0.40571 0.27489 0.34268 0.0
C2417 C 0.398 0.27577 0.29023 0.0
C2418 C 0.403 0.27363 0.41946 0.0
C2419 C 0.3925 0.27322 0.446 0.0
C2420 C 0.38482 0.27419 0.39368 0.0
C2421 C 0.38753 0.27544 0.31678 0.0
C2422 C 0.37495 0.26283 0.62936 0.0
C2423 C 0.38402 0.26872 0.68347 0.0
C2424 C 0.37768 0.2643 0.55254 0.0
C2425 C 0.38957 0.27171 0.52783 0.0
C2426 C 0.39864 0.2776 0.58201 0.0
C2427 C 0.39591 0.27611 0.6588 0.0
H2428 H 0.72688 0.11334 0.27826 0.0
H2429 H 0.70936 0.13372 0.32973 0.0
H2430 H 0.72832 0.11023 0.41191 0.0
H2431 H 0.71101 0.13075 0.46351 0.0
H2432 H 0.72922 0.13455 0.6937 0.0
H2433 H 0.72704 0.13715 0.56002 0.0
H2434 H 0.71537 0.09974 0.52165 0.0
H2435 H 0.71732 0.09704 0.65523 0.0
C2436 C 0.7232 0.11705 0.3177 0.0
C2437 C 0.718 0.12381 0.29259 0.0
C2438 C 0.72407 0.11528 0.39456 0.0
C2439 C 0.71983 0.12028 0.44838 0.0
C2440 C 0.71454 0.12694 0.42349 0.0
C2441 C 0.7136 0.12864 0.34664 0.0
C2442 C 0.72606 0.12683 0.65714 0.0
C2443 C 0.72345 0.11558 0.6859 0.0
C2444 C 0.72482 0.12833 0.58034 0.0
C2445 C 0.72103 0.11865 0.53018 0.0
C2446 C 0.71846 0.10742 0.55866 0.0
C2447 C 0.71961 0.10589 0.6355 0.0
H2448 H 0.62222 0.89634 0.35416 0.0
H2449 H 0.5916 0.86119 0.3113 0.0
H2450 H 0.61757 0.89383 0.48767 0.0
H2451 H 0.58686 0.85888 0.44497 0.0
H2452 H 0.57524 0.86536 0.67746 0.0
H2453 H 0.57996 0.86798 0.54378 0.0
H2454 H 0.61731 0.88109 0.59447 0.0
H2455 H 0.61263 0.87825 0.72805 0.0
C2456 C 0.61456 0.88803 0.3728 0.0
C2457 C 0.60731 0.87897 0.32111 0.0
C2458 C 0.61188 0.88663 0.44963 0.0
C2459 C 0.60184 0.87618 0.47686 0.0
C2460 C 0.59457 0.86711 0.42554 0.0
C2461 C 0.5973 0.86847 0.34872 0.0
C2462 C 0.58445 0.86872 0.66047 0.0
C2463 C 0.59352 0.87158 0.71424 0.0
C2464 C 0.58715 0.87023 0.58363 0.0
C2465 C 0.59899 0.87472 0.55856 0.0
C2466 C 0.6081 0.87774 0.61208 0.0
C2467 C 0.6054 0.87615 0.68888 0.0
H2468 H 0.1265 0.71878 0.30793 0.0
H2469 H 0.10323 0.73311 0.35789 0.0
H2470 H 0.12975 0.71765 0.4417 0.0
H2471 H 0.10649 0.73198 0.49211 0.0
H2472 H 0.10551 0.71646 0.72662 0.0
H2473 H 0.10199 0.71745 0.59275 0.0
H2474 H 0.13959 0.73072 0.54813 0.0
H2475 H 0.1431 0.72974 0.68158 0.0
C2476 C 0.12218 0.72183 0.34731 0.0
C2477 C 0.11464 0.7261 0.32194 0.0
C2478 C 0.12403 0.72116 0.4242 0.0
C2479 C 0.1184 0.72475 0.47775 0.0
C2480 C 0.11083 0.72899 0.45245 0.0
C2481 C 0.10897 0.72965 0.37549 0.0
C2482 C 0.11304 0.71966 0.6884 0.0
C2483 C 0.12458 0.72297 0.71517 0.0
C2484 C 0.11103 0.72024 0.61156 0.0
C2485 C 0.1205 0.72414 0.55959 0.0
C2486 C 0.13204 0.72747 0.58638 0.0
C2487 C 0.13405 0.72689 0.66309 0.0
H2488 H 0.26437 0.38142 0.72853 0.0
H2489 H 0.28449 0.41936 0.67797 0.0
H2490 H 0.26291 0.37685 0.59485 0.0
H2491 H 0.28291 0.41475 0.54411 0.0
H2492 H 0.26469 0.40172 0.31313 0.0
H2493 H 0.26725 0.40649 0.44673 0.0
H2494 H 0.27515 0.378 0.48532 0.0
H2495 H 0.27273 0.37329 0.35159 0.0
C2496 C 0.26863 0.3888 0.68922 0.0
C2497 C 0.27454 0.40079 0.71449 0.0
C2498 C 0.26777 0.38617 0.61234 0.0
C2499 C 0.27275 0.39544 0.55869 0.0
C2500 C 0.2788 0.4074 0.58388 0.0
C2501 C 0.27971 0.41004 0.66075 0.0
C2502 C 0.26712 0.39655 0.34974 0.0
C2503 C 0.26851 0.38712 0.32106 0.0
C2504 C 0.26858 0.39929 0.42651 0.0
C2505 C 0.27142 0.39264 0.47678 0.0
C2506 C 0.27282 0.38321 0.44828 0.0
C2507 C 0.27141 0.3805 0.37142 0.0
H2508 H 0.77778 0.7142 0.04565 0.0
H2509 H 0.79227 0.75188 0.99651 0.0
H2510 H 0.77512 0.70971 0.91175 0.0
H2511 H 0.78976 0.74736 0.86249 0.0
H2512 H 0.79701 0.73558 0.63177 0.0
H2513 H 0.7987 0.74029 0.76549 0.0
H2514 H 0.76326 0.70994 0.80248 0.0
H2515 H 0.76146 0.70531 0.66884 0.0
C2516 C 0.78026 0.72152 0.00663 0.0
C2517 C 0.78529 0.73343 0.03234 0.0
C2518 C 0.77876 0.71894 0.92968 0.0
C2519 C 0.78229 0.72819 0.87648 0.0
C2520 C 0.78714 0.74006 0.90203 0.0
C2521 C 0.78858 0.74264 0.97897 0.0
C2522 C 0.78951 0.72999 0.66806 0.0
C2523 C 0.7791 0.72004 0.63903 0.0
C2524 C 0.79048 0.73269 0.74483 0.0
C2525 C 0.78112 0.72548 0.7946 0.0
C2526 C 0.7707 0.71557 0.76574 0.0
C2527 C 0.76969 0.71291 0.68893 0.0
H2528 H 0.27322 0.04983 0.05898 0.0
H2529 H 0.24309 0.05487 0.01137 0.0
H2530 H 0.27791 0.05141 0.92519 0.0
H2531 H 0.24778 0.05646 0.87796 0.0
H2532 H 0.25238 0.0468 0.63799 0.0
H2533 H 0.24765 0.04478 0.77161 0.0
H2534 H 0.28545 0.06595 0.82377 0.0
H2535 H 0.29017 0.06793 0.68988 0.0
C2536 C 0.26762 0.05133 0.02023 0.0
C2537 C 0.25775 0.05218 0.04637 0.0
C2538 C 0.27032 0.05225 0.94335 0.0
C2539 C 0.26323 0.05406 0.89057 0.0
C2540 C 0.25333 0.05486 0.91671 0.0
C2541 C 0.25063 0.05393 0.99346 0.0
C2542 C 0.25969 0.05114 0.67778 0.0
C2543 C 0.27167 0.05757 0.65291 0.0
C2544 C 0.25697 0.04996 0.7546 0.0
C2545 C 0.26616 0.0552 0.8087 0.0
C2546 C 0.27815 0.06163 0.78384 0.0
C2547 C 0.28086 0.06279 0.70696 0.0
H2548 H 0.93651 0.2297 0.70341 0.0
H2549 H 0.92922 0.19346 0.6653 0.0
H2550 H 0.93902 0.22754 0.83712 0.0
H2551 H 0.9319 0.1914 0.79895 0.0
H2552 H 0.94949 0.1965 0.03007 0.0
H2553 H 0.94777 0.19935 0.89616 0.0
H2554 H 0.92668 0.21612 0.94636 0.0
H2555 H 0.92825 0.21315 0.08013 0.0
C2556 C 0.93537 0.22125 0.72329 0.0
C2557 C 0.93265 0.21176 0.67305 0.0
C2558 C 0.93683 0.22002 0.80013 0.0
C2559 C 0.93567 0.2093 0.8287 0.0
C2560 C 0.93303 0.19984 0.77859 0.0
C2561 C 0.93151 0.20104 0.70182 0.0
C2562 C 0.94443 0.20074 0.01275 0.0
C2563 C 0.93899 0.20454 0.06635 0.0
C2564 C 0.94345 0.20237 0.93587 0.0
C2565 C 0.93705 0.20792 0.91057 0.0
C2566 C 0.9318 0.21194 0.96403 0.0
C2567 C 0.93273 0.21025 0.04093 0.0
H2568 H 0.05027 0.43935 0.61155 0.0
H2569 H 0.08057 0.47444 0.65878 0.0
H2570 H 0.04561 0.4363 0.74539 0.0
H2571 H 0.0759 0.4714 0.79226 0.0
H2572 H 0.03348 0.44071 0.98064 0.0
H2573 H 0.03819 0.44344 0.84673 0.0
H2574 H 0.07597 0.45981 0.89856 0.0
H2575 H 0.07127 0.45713 0.03223 0.0
C2576 C 0.05591 0.44645 0.65024 0.0
C2577 C 0.06582 0.45714 0.62402 0.0
C2578 C 0.05322 0.4447 0.72714 0.0
C2579 C 0.06037 0.4536 0.7798 0.0
C2580 C 0.07031 0.46426 0.75357 0.0
C2581 C 0.073 0.466 0.67681 0.0
C2582 C 0.04279 0.44482 0.96347 0.0
C2583 C 0.05199 0.44873 0.01741 0.0
C2584 C 0.04549 0.44637 0.8866 0.0
C2585 C 0.05747 0.45185 0.86166 0.0
C2586 C 0.06666 0.45574 0.91566 0.0
C2587 C 0.06396 0.45421 0.99248 0.0
H2588 H 0.55576 0.6124 0.6424 0.0
H2589 H 0.51966 0.60517 0.68469 0.0
H2590 H 0.55837 0.61033 0.77638 0.0
H2591 H 0.52227 0.60312 0.81818 0.0
H2592 H 0.53573 0.61294 0.06012 0.0
H2593 H 0.53326 0.61506 0.92631 0.0
H2594 H 0.55126 0.59515 0.87518 0.0
H2595 H 0.55373 0.59304 0.0093 0.0
C2596 C 0.54836 0.6103 0.68005 0.0
C2597 C 0.53752 0.60901 0.6525 0.0
C2598 C 0.54985 0.6091 0.75692 0.0
C2599 C 0.54053 0.60658 0.80811 0.0
C2600 C 0.5297 0.60527 0.78055 0.0
C2601 C 0.52822 0.60647 0.70381 0.0
C2602 C 0.53903 0.60888 0.02053 0.0
C2603 C 0.5449 0.60277 0.04562 0.0
C2604 C 0.53764 0.61012 0.94366 0.0
C2605 C 0.54206 0.60528 0.88992 0.0
C2606 C 0.54791 0.59915 0.915 0.0
C2607 C 0.54931 0.59792 0.99189 0.0
H2608 H 0.38703 0.95664 0.99187 0.0
H2609 H 0.39588 0.92874 0.02959 0.0
H2610 H 0.38481 0.95207 0.85815 0.0
H2611 H 0.3934 0.92405 0.89577 0.0
H2612 H 0.37522 0.91112 0.66523 0.0
H2613 H 0.37706 0.91567 0.79913 0.0
H2614 H 0.39778 0.95355 0.74929 0.0
H2615 H 0.39618 0.94907 0.61542 0.0
C2616 C 0.38859 0.94959 0.97195 0.0
C2617 C 0.39167 0.94308 0.02209 0.0
C2618 C 0.38727 0.94695 0.89509 0.0
C2619 C 0.38892 0.9377 0.86646 0.0
C2620 C 0.39192 0.93113 0.91635 0.0
C2621 C 0.39332 0.93382 0.99317 0.0
C2622 C 0.38025 0.92042 0.68254 0.0
C2623 C 0.38558 0.9297 0.629 0.0
C2624 C 0.38129 0.92302 0.75942 0.0
C2625 C 0.3876 0.93496 0.78472 0.0
C2626 C 0.39275 0.94426 0.73144 0.0
C2627 C 0.39179 0.94167 0.65453 0.0
H2628 H 0.55476 0.94374 0.59099 0.0
H2629 H 0.52024 0.91251 0.63657 0.0
H2630 H 0.55736 0.9485 0.72475 0.0
H2631 H 0.52282 0.91727 0.76992 0.0
H2632 H 0.53657 0.92278 0.01175 0.0
H2633 H 0.53434 0.91791 0.87832 0.0
H2634 H 0.54949 0.95549 0.82412 0.0
H2635 H 0.55176 0.96036 0.95783 0.0
C2636 C 0.5477 0.9379 0.62927 0.0
C2637 C 0.5373 0.92771 0.60252 0.0
C2638 C 0.54918 0.94065 0.70615 0.0
C2639 C 0.5403 0.93329 0.75836 0.0
C2640 C 0.52995 0.92305 0.73166 0.0
C2641 C 0.52847 0.9203 0.65491 0.0
C2642 C 0.5393 0.93 0.97154 0.0
C2643 C 0.54431 0.94198 0.9958 0.0
C2644 C 0.53804 0.9272 0.89481 0.0
C2645 C 0.54174 0.9363 0.84019 0.0
C2646 C 0.54672 0.94827 0.86446 0.0
C2647 C 0.548 0.95107 0.94123 0.0
H2648 H 0.06539 0.5973 0.01905 0.0
H2649 H 0.04181 0.61166 0.98009 0.0
H2650 H 0.07002 0.59898 0.88532 0.0
H2651 H 0.04631 0.61311 0.84628 0.0
H2652 H 0.04731 0.60057 0.6035 0.0
H2653 H 0.04285 0.59962 0.73716 0.0
H2654 H 0.08051 0.61485 0.78847 0.0
H2655 H 0.08505 0.61602 0.65475 0.0
C2656 C 0.06125 0.6009 0.98236 0.0
C2657 C 0.05323 0.60437 0.01101 0.0
C2658 C 0.06391 0.60185 0.90553 0.0
C2659 C 0.05854 0.60619 0.8552 0.0
C2660 C 0.05048 0.60959 0.8835 0.0
C2661 C 0.04788 0.60873 0.96043 0.0
C2662 C 0.05469 0.60389 0.64287 0.0
C2663 C 0.06656 0.60836 0.61774 0.0
C2664 C 0.05211 0.60331 0.71972 0.0
C2665 C 0.06132 0.60711 0.77343 0.0
C2666 C 0.07319 0.61167 0.74851 0.0
C2667 C 0.07578 0.61233 0.67168 0.0
H2668 H 0.39468 0.46858 0.01977 0.0
H2669 H 0.38828 0.43264 0.98191 0.0
H2670 H 0.39188 0.47051 0.8861 0.0
H2671 H 0.38566 0.43468 0.84823 0.0
H2672 H 0.39613 0.4491 0.60511 0.0
H2673 H 0.39784 0.44627 0.7389 0.0
H2674 H 0.37597 0.46218 0.78905 0.0
H2675 H 0.37409 0.46488 0.65513 0.0
C2676 C 0.39257 0.46104 0.9833 0.0
C2677 C 0.39172 0.45045 0.01214 0.0
C2678 C 0.39097 0.46216 0.90653 0.0
C2679 C 0.38855 0.45275 0.85651 0.0
C2680 C 0.38768 0.44216 0.88515 0.0
C2681 C 0.38921 0.44101 0.96198 0.0
C2682 C 0.39151 0.45183 0.6443 0.0
C2683 C 0.38498 0.45726 0.61887 0.0
C2684 C 0.39253 0.45023 0.72121 0.0
C2685 C 0.38709 0.45405 0.77465 0.0
C2686 C 0.38043 0.45931 0.74935 0.0
C2687 C 0.37936 0.46087 0.67246 0.0
H2688 H 0.24219 0.19337 0.03018 0.0
H2689 H 0.28004 0.21497 0.08079 0.0
H2690 H 0.24668 0.19678 0.89648 0.0
H2691 H 0.28444 0.21855 0.94706 0.0
H2692 H 0.28533 0.23203 0.7049 0.0
H2693 H 0.28096 0.22892 0.83886 0.0
H2694 H 0.25703 0.19112 0.79931 0.0
H2695 H 0.26155 0.19411 0.6655 0.0
C2696 C 0.25146 0.1988 0.01311 0.0
C2697 C 0.26073 0.20384 0.06683 0.0
C2698 C 0.25403 0.20077 0.93632 0.0
C2699 C 0.26591 0.2079 0.91127 0.0
C2700 C 0.27517 0.21311 0.96472 0.0
C2701 C 0.27263 0.21107 0.04155 0.0
C2702 C 0.27924 0.22302 0.72449 0.0
C2703 C 0.27379 0.21333 0.67378 0.0
C2704 C 0.27672 0.22126 0.80145 0.0
C2705 C 0.26863 0.20979 0.82958 0.0
C2706 C 0.26317 0.2001 0.77915 0.0
C2707 C 0.26576 0.20184 0.70229 0.0
H2708 H 0.76782 0.0475 0.0659 0.0
H2709 H 0.80506 0.05881 0.02264 0.0
H2710 H 0.7647 0.04899 0.93198 0.0
H2711 H 0.80193 0.06028 0.88917 0.0
H2712 H 0.78883 0.04934 0.64759 0.0
H2713 H 0.79178 0.04774 0.78134 0.0
H2714 H 0.77015 0.06389 0.83269 0.0
H2715 H 0.7672 0.0655 0.69859 0.0
C2716 C 0.77536 0.05037 0.02807 0.0
C2717 C 0.78668 0.05299 0.05537 0.0
C2718 C 0.77357 0.05124 0.9512 0.0
C2719 C 0.78306 0.05474 0.89971 0.0
C2720 C 0.79437 0.05736 0.92701 0.0
C2721 C 0.79616 0.0565 1.00376 0.0
C2722 C 0.78482 0.05269 0.6872 0.0
C2723 C 0.77781 0.0576 0.66214 0.0
C2724 C 0.78649 0.05175 0.76406 0.0
C2725 C 0.78121 0.05569 0.81788 0.0
C2726 C 0.7742 0.0606 0.79285 0.0
C2727 C 0.77252 0.06154 0.71594 0.0
H2728 H 0.95036 0.74959 0.01587 0.0
H2729 H 0.92324 0.71292 0.06181 0.0
H2730 H 0.94905 0.74505 0.88193 0.0
H2731 H 0.92157 0.7084 0.9278 0.0
H2732 H 0.93001 0.70121 0.69203 0.0
H2733 H 0.93161 0.70569 0.82531 0.0
H2734 H 0.93652 0.74078 0.77604 0.0
H2735 H 0.93577 0.73667 0.6428 0.0
C2736 C 0.94404 0.74058 0.99706 0.0
C2737 C 0.93693 0.73161 0.04915 0.0
C2738 C 0.94323 0.73797 0.92029 0.0
C2739 C 0.93517 0.72635 0.89372 0.0
C2740 C 0.92804 0.71738 0.94612 0.0
C2741 C 0.92896 0.71997 0.02298 0.0
C2742 C 0.93158 0.70995 0.70919 0.0
C2743 C 0.93284 0.71857 0.65568 0.0
C2744 C 0.93233 0.71246 0.78609 0.0
C2745 C 0.93422 0.72361 0.81178 0.0
C2746 C 0.93527 0.73216 0.75847 0.0
C2747 C 0.93465 0.7297 0.68155 0.0
H2748 H 0.4474 0.04861 0.40537 0.0
H2749 H 0.46186 0.08624 0.35438 0.0
H2750 H 0.44439 0.04392 0.2718 0.0
H2751 H 0.45904 0.08151 0.2207 0.0
H2752 H 0.46514 0.06936 0.98834 0.0
H2753 H 0.46754 0.0741 0.12198 0.0
H2754 H 0.43209 0.04412 0.16441 0.0
H2755 H 0.42953 0.03948 0.03086 0.0
C2756 C 0.44981 0.05589 0.36608 0.0
C2757 C 0.45488 0.06783 0.39131 0.0
C2758 C 0.44811 0.05318 0.28928 0.0
C2759 C 0.45152 0.06235 0.2356 0.0
C2760 C 0.45649 0.07426 0.26061 0.0
C2761 C 0.45811 0.07697 0.33744 0.0
C2762 C 0.45778 0.06383 0.0257 0.0
C2763 C 0.44712 0.05402 0.99799 0.0
C2764 C 0.45918 0.06655 0.10253 0.0
C2765 C 0.45 0.05949 0.15383 0.0
C2766 C 0.43939 0.04965 0.12647 0.0
C2767 C 0.43795 0.04698 0.04961 0.0
H2768 H 0.90862 0.37289 0.34547 0.0
H2769 H 0.94621 0.39655 0.39478 0.0
H2770 H 0.91317 0.37496 0.21147 0.0
H2771 H 0.95074 0.39845 0.2609 0.0
H2772 H 0.95539 0.38935 0.01798 0.0
H2773 H 0.95077 0.38651 0.15167 0.0
H2774 H 0.92 0.39088 0.11439 0.0
H2775 H 0.9247 0.39391 0.98067 0.0
C2776 C 0.91785 0.37855 0.32796 0.0
C2777 C 0.92702 0.38458 0.38136 0.0
C2778 C 0.92045 0.37973 0.25104 0.0
C2779 C 0.9323 0.3869 0.22553 0.0
C2780 C 0.94152 0.39274 0.27878 0.0
C2781 C 0.93892 0.39162 0.35572 0.0
C2782 C 0.9477 0.38983 0.03804 0.0
C2783 C 0.94044 0.3919 0.98806 0.0
C2784 C 0.94505 0.38817 0.11487 0.0
C2785 C 0.93502 0.38846 0.14366 0.0
C2786 C 0.9277 0.39043 0.09381 0.0
C2787 C 0.93039 0.39216 0.01703 0.0
H2788 H 0.60351 0.52982 0.98858 0.0
H2789 H 0.59493 0.55762 0.03844 0.0
H2790 H 0.60511 0.52702 0.12165 0.0
H2791 H 0.59737 0.55536 0.17126 0.0
H2792 H 0.59076 0.54035 0.4088 0.0
H2793 H 0.58846 0.54269 0.27501 0.0
H2794 H 0.61755 0.53596 0.22683 0.0
H2795 H 0.61949 0.53322 0.36083 0.0
C2796 C 0.60196 0.53538 0.0273 0.0
C2797 C 0.5991 0.54401 1.0015 0.0
C2798 C 0.60306 0.53387 0.10421 0.0
C2799 C 0.60146 0.541 0.15766 0.0
C2800 C 0.59854 0.54958 0.13206 0.0
C2801 C 0.5973 0.551 0.05525 0.0
C2802 C 0.59671 0.53947 0.36956 0.0
C2803 C 0.60532 0.53662 0.3952 0.0
C2804 C 0.59542 0.54083 0.29274 0.0
C2805 C 0.60282 0.53953 0.23966 0.0
C2806 C 0.61152 0.5368 0.26568 0.0
C2807 C 0.6127 0.53528 0.34249 0.0
H2808 H 0.69957 0.77207 0.32674 0.0
H2809 H 0.73745 0.78936 0.37751 0.0
H2810 H 0.70418 0.77449 0.19262 0.0
H2811 H 0.74205 0.79181 0.24374 0.0
H2812 H 0.74592 0.80601 1.00324 0.0
H2813 H 0.74127 0.80318 0.13668 0.0
H2814 H 0.71213 0.76728 0.09294 0.0
H2815 H 0.71682 0.77009 0.95899 0.0
C2816 C 0.70887 0.77631 0.30936 0.0
C2817 C 0.71813 0.78056 0.36311 0.0
C2818 C 0.71152 0.77769 0.23245 0.0
C2819 C 0.72349 0.78336 0.20739 0.0
C2820 C 0.73274 0.78758 0.26111 0.0
C2821 C 0.7301 0.78619 0.33797 0.0
C2822 C 0.73862 0.79745 0.02186 0.0
C2823 C 0.73179 0.78826 0.96998 0.0
C2824 C 0.73594 0.79583 0.0986 0.0
C2825 C 0.72634 0.785 0.12561 0.0
C2826 C 0.71949 0.7758 0.0739 0.0
C2827 C 0.72218 0.77741 0.99702 0.0
H2828 H 0.19634 0.93763 0.35433 0.0
H2829 H 0.2232 0.92778 0.30413 0.0
H2830 H 0.19343 0.93911 0.22103 0.0
H2831 H 0.22089 0.93011 0.17113 0.0
H2832 H 0.20602 0.92402 0.9338 0.0
H2833 H 0.20805 0.92147 0.0677 0.0
H2834 H 0.20277 0.95149 0.11588 0.0
H2835 H 0.20033 0.95369 0.98183 0.0
C2836 C 0.20164 0.93575 0.31535 0.0
C2837 C 0.21006 0.93261 0.34094 0.0
C2838 C 0.20009 0.93679 0.23844 0.0
C2839 C 0.20698 0.93483 0.18492 0.0
C2840 C 0.21531 0.93157 0.21041 0.0
C2841 C 0.21677 0.9304 0.2872 0.0
C2842 C 0.20538 0.93011 0.9731 0.0
C2843 C 0.20304 0.93907 0.94748 0.0
C2844 C 0.20656 0.92868 0.04994 0.0
C2845 C 0.20559 0.93627 0.103 0.0
C2846 C 0.20334 0.94531 0.07701 0.0
C2847 C 0.20201 0.94663 1.00019 0.0
H2848 H 0.06019 0.2591 0.35589 0.0
H2849 H 0.0537 0.2885 0.31399 0.0
H2850 H 0.0579 0.25438 0.22223 0.0
H2851 H 0.05164 0.28386 0.18041 0.0
H2852 H 0.06246 0.27965 0.93878 0.0
H2853 H 0.0641 0.28435 0.07237 0.0
H2854 H 0.04204 0.24665 0.1239 0.0
H2855 H 0.0402 0.24191 0.99023 0.0
C2856 C 0.05821 0.26453 0.31865 0.0
C2857 C 0.05713 0.2742 0.34654 0.0
C2858 C 0.0569 0.26181 0.24179 0.0
C2859 C 0.05457 0.26873 0.19065 0.0
C2860 C 0.05357 0.27844 0.2182 0.0
C2861 C 0.05479 0.28111 0.29508 0.0
C2862 C 0.05777 0.27235 0.97821 0.0
C2863 C 0.05117 0.26037 0.95313 0.0
C2864 C 0.05875 0.27506 0.05502 0.0
C2865 C 0.05325 0.26587 0.10883 0.0
C2866 C 0.04655 0.25392 0.08393 0.0
C2867 C 0.04549 0.25121 0.00711 0.0
H2868 H 0.2227 0.29391 0.30591 0.0
H2869 H 0.20182 0.25603 0.35653 0.0
H2870 H 0.21976 0.28936 0.17176 0.0
H2871 H 0.19885 0.2515 0.22282 0.0
H2872 H 0.18491 0.24919 0.98306 0.0
H2873 H 0.18827 0.25377 0.11644 0.0
H2874 H 0.22531 0.28005 0.07127 0.0
H2875 H 0.22197 0.27544 0.93743 0.0
C2876 C 0.21755 0.28461 0.28851 0.0
C2877 C 0.21244 0.27536 0.34225 0.0
C2878 C 0.21588 0.282 0.21157 0.0
C2879 C 0.20904 0.27007 0.18647 0.0
C2880 C 0.20399 0.26081 0.24019 0.0
C2881 C 0.20567 0.26342 0.31705 0.0
C2882 C 0.19382 0.25584 1.00134 0.0
C2883 C 0.20317 0.2619 0.94907 0.0
C2884 C 0.19574 0.25848 0.07806 0.0
C2885 C 0.20706 0.26726 0.10468 0.0
C2886 C 0.21643 0.27335 0.05257 0.0
C2887 C 0.21451 0.27069 0.97573 0.0
H2888 H 0.70112 0.92239 0.32612 0.0
H2889 H 0.73861 0.94582 0.3779 0.0
H2890 H 0.70585 0.92467 0.19221 0.0
H2891 H 0.74335 0.94818 0.24421 0.0
H2892 H 0.74893 0.93939 1.0034 0.0
H2893 H 0.74425 0.93724 0.13703 0.0
H2894 H 0.7123 0.93925 0.09186 0.0
H2895 H 0.71696 0.94133 0.95795 0.0
C2896 C 0.71036 0.92809 0.30893 0.0
C2897 C 0.71948 0.93389 0.36285 0.0
C2898 C 0.71308 0.92942 0.2321 0.0
C2899 C 0.72498 0.93663 0.20724 0.0
C2900 C 0.73411 0.94241 0.26126 0.0
C2901 C 0.73139 0.94104 0.33806 0.0
C2902 C 0.74098 0.93952 0.02193 0.0
C2903 C 0.73334 0.94055 0.96967 0.0
C2904 C 0.73829 0.93828 0.09872 0.0
C2905 C 0.72789 0.93806 0.1254 0.0
C2906 C 0.72028 0.93918 0.07322 0.0
C2907 C 0.72296 0.94039 0.99632 0.0
H2908 H 0.04663 0.77008 0.94866 0.0
H2909 H 0.05266 0.80564 0.99636 0.0
H2910 H 0.0483 0.76699 0.08237 0.0
H2911 H 0.05417 0.80247 0.12952 0.0
H2912 H 0.0442 0.7881 0.36912 0.0
H2913 H 0.04185 0.79047 0.2356 0.0
H2914 H 0.06356 0.77448 0.18276 0.0
H2915 H 0.06604 0.7722 0.31662 0.0
C2916 C 0.04835 0.77726 0.98727 0.0
C2917 C 0.04948 0.78812 0.96105 0.0
C2918 C 0.0493 0.77548 0.06409 0.0
C2919 C 0.05135 0.78447 0.11673 0.0
C2920 C 0.05239 0.79527 0.09069 0.0
C2921 C 0.0515 0.79708 0.01399 0.0
C2922 C 0.0486 0.78519 0.32936 0.0
C2923 C 0.0554 0.78002 0.35408 0.0
C2924 C 0.04721 0.78653 0.25258 0.0
C2925 C 0.05254 0.7827 0.1984 0.0
C2926 C 0.0592 0.77739 0.22295 0.0
C2927 C 0.06063 0.77608 0.29979 0.0
H2928 H 0.95959 0.55578 0.02906 0.0
H2929 H 0.92175 0.53516 0.97727 0.0
H2930 H 0.95492 0.55305 0.16306 0.0
H2931 H 0.91709 0.53243 0.11095 0.0
H2932 H 0.91422 0.51925 0.35322 0.0
H2933 H 0.9189 0.52213 0.2198 0.0
H2934 H 0.94585 0.55906 0.26159 0.0
H2935 H 0.94116 0.55618 0.3955 0.0
C2936 C 0.95027 0.55072 0.04619 0.0
C2937 C 0.94106 0.54566 0.99216 0.0
C2938 C 0.94759 0.54917 0.12307 0.0
C2939 C 0.93562 0.54252 0.14792 0.0
C2940 C 0.92641 0.53744 0.09388 0.0
C2941 C 0.9291 0.53899 0.01703 0.0
C2942 C 0.92104 0.52803 0.33415 0.0
C2943 C 0.92727 0.53749 0.38553 0.0
C2944 C 0.92374 0.52968 0.25739 0.0
C2945 C 0.93275 0.54083 0.22978 0.0
C2946 C 0.93898 0.5503 0.28102 0.0
C2947 C 0.93627 0.54865 0.3579 0.0
H2948 H 0.45703 0.38589 0.97731 0.0
H2949 H 0.43382 0.4003 0.02865 0.0
H2950 H 0.45963 0.38394 0.11057 0.0
H2951 H 0.4358 0.39759 0.16157 0.0
H2952 H 0.45143 0.40289 0.39689 0.0
H2953 H 0.44925 0.4053 0.2631 0.0
H2954 H 0.44961 0.37243 0.21799 0.0
H2955 H 0.45217 0.37029 0.35202 0.0
C2956 C 0.45246 0.38866 0.01654 0.0
C2957 C 0.44519 0.39326 0.9912 0.0
C2958 C 0.45382 0.38736 0.09343 0.0
C2959 C 0.44788 0.39054 0.14727 0.0
C2960 C 0.44065 0.39517 0.12204 0.0
C2961 C 0.43938 0.39658 0.04525 0.0
C2962 C 0.45093 0.39613 0.35839 0.0
C2963 C 0.45194 0.38638 0.38497 0.0
C2964 C 0.44966 0.39749 0.28155 0.0
C2965 C 0.44923 0.38906 0.2293 0.0
C2966 C 0.45012 0.37923 0.25619 0.0
C2967 C 0.45153 0.37795 0.33307 0.0
H2968 H 0.59853 0.07804 0.35212 0.0
H2969 H 0.61035 0.05258 0.39771 0.0
H2970 H 0.59751 0.07355 0.21866 0.0
H2971 H 0.60929 0.04805 0.2638 0.0
H2972 H 0.59328 0.03409 0.02854 0.0
H2973 H 0.59457 0.03849 0.16281 0.0
H2974 H 0.61068 0.07632 0.11301 0.0
H2975 H 0.60942 0.07194 0.97917 0.0
C2976 C 0.60105 0.07158 0.33376 0.0
C2977 C 0.60457 0.06572 0.38596 0.0
C2978 C 0.60044 0.06899 0.25706 0.0
C2979 C 0.60334 0.06046 0.23046 0.0
C2980 C 0.60684 0.05456 0.28253 0.0
C2981 C 0.60746 0.05716 0.35936 0.0
C2982 C 0.59718 0.04335 0.04627 0.0
C2983 C 0.60117 0.05264 0.99289 0.0
C2984 C 0.59793 0.04587 0.12325 0.0
C2985 C 0.6027 0.05775 0.14868 0.0
C2986 C 0.60676 0.06705 0.09532 0.0
C2987 C 0.60601 0.06452 0.01843 0.0
loop_
_geom_bond_atom_site_label_1
_geom_bond_atom_site_label_2
_geom_bond_distance
_geom_bond_site_symmetry_2
_ccdc_geom_bond_type
Co0 N4 2.148 . S
Co0 N10 2.128 1_554 S
Co0 N20 2.194 . S
Co0 O25 2.351 . S
Co0 O26 2.155 . S
Co0 O27 2.096 1_554 S
C1 N4 1.301 . S
C1 N5 1.328 . S
C1 H6 0.930 . S
C2 C3 1.333 . S
C2 N4 1.317 . S
C2 H7 0.930 . S
C3 C2 1.333 . S
C3 N5 1.350 . S
C3 H29 0.931 . S
N4 Co0 2.148 . S
N4 C1 1.301 . S
N4 C2 1.317 . S
N5 C1 1.328 . S
N5 C3 1.350 . S
H6 C1 0.930 . S
H7 C2 0.930 . S
C8 O9 1.224 . S
C8 O27 1.247 . S
O9 C8 1.224 . S
N10 Co0 2.128 1_556 S
N10 C11 1.355 . S
N10 C13 1.311 . S
C11 N10 1.355 . S
C11 C12 1.363 . S
C11 H23 0.929 . S
C12 C11 1.363 . S
C12 N14 1.375 . S
C12 H30 0.931 . S
C13 N10 1.311 . S
C13 N14 1.347 . S
C13 H24 0.929 . S
N14 C12 1.375 . S
N14 C13 1.347 . S
C15 C18 1.365 . S
C15 N20 1.328 . S
C15 H21 0.929 . S
C16 C17 1.362 1_556 S
C16 C19 1.378 . S
C16 H31 0.929 . S
C17 C16 1.362 1_554 S
C17 C18 1.366 . S
C18 C15 1.365 . S
C18 C17 1.366 . S
C18 H32 0.930 . S
C19 C16 1.378 . S
C19 N20 1.315 1_556 S
C19 H22 0.930 . S
N20 Co0 2.194 . S
N20 C15 1.328 . S
N20 C19 1.315 1_554 S
H21 C15 0.929 . S
H22 C19 0.930 . S
H23 C11 0.929 . S
H24 C13 0.929 . S
O25 Co0 2.351 . S
O25 C28 1.244 . S
O26 Co0 2.155 . S
O26 C28 1.240 . S
O27 Co0 2.096 1_556 S
O27 C8 1.247 . S
C28 O25 1.244 . S
C28 O26 1.240 . S
H29 C3 0.931 . S
H30 C12 0.931 . S
H31 C16 0.929 . S
H32 C18 0.930 . S
Co33 N37 2.148 . S
Co33 N43 2.128 1_554 S
Co33 N53 2.194 . S
Co33 O58 2.351 . S
Co33 O59 2.155 . S
Co33 O60 2.096 1_554 S
C34 N37 1.301 . S
C34 N38 1.328 . S
C34 H39 0.930 . S
C35 C36 1.333 . S
C35 N37 1.317 . S
C35 H40 0.930 . S
C36 C35 1.333 . S
C36 N38 1.350 . S
C36 H62 0.931 . S
N37 Co33 2.148 . S
N37 C34 1.301 . S
N37 C35 1.317 . S
N38 C34 1.328 . S
N38 C36 1.350 . S
H39 C34 0.930 . S
H40 C35 0.930 . S
C41 O42 1.224 . S
C41 O60 1.247 . S
O42 C41 1.224 . S
N43 Co33 2.128 1_556 S
N43 C44 1.355 . S
N43 C46 1.311 . S
C44 N43 1.355 . S
C44 C45 1.363 . S
C44 H56 0.929 . S
C45 C44 1.363 . S
C45 N47 1.375 . S
C45 H63 0.931 . S
C46 N43 1.311 . S
C46 N47 1.347 . S
C46 H57 0.929 . S
N47 C45 1.375 . S
N47 C46 1.347 . S
C48 C51 1.365 . S
C48 N53 1.328 . S
C48 H54 0.929 . S
C49 C50 1.362 1_556 S
C49 C52 1.378 . S
C49 H64 0.929 . S
C50 C49 1.362 1_554 S
C50 C51 1.366 . S
C51 C48 1.365 . S
C51 C50 1.366 . S
C51 H65 0.930 . S
C52 C49 1.378 . S
C52 N53 1.315 1_556 S
C52 H55 0.930 . S
N53 Co33 2.194 . S
N53 C48 1.328 . S
N53 C52 1.315 1_554 S
H54 C48 0.929 . S
H55 C52 0.930 . S
H56 C44 0.929 . S
H57 C46 0.929 . S
O58 Co33 2.351 . S
O58 C61 1.244 . S
O59 Co33 2.155 . S
O59 C61 1.240 . S
O60 Co33 2.096 1_556 S
O60 C41 1.247 . S
C61 O58 1.244 . S
C61 O59 1.240 . S
H62 C36 0.931 . S
H63 C45 0.931 . S
H64 C49 0.929 . S
H65 C51 0.930 . S
Co66 N70 2.148 . S
Co66 N76 2.128 1_554 S
Co66 N86 2.194 . S
Co66 O91 2.351 . S
Co66 O92 2.155 . S
Co66 O93 2.096 1_554 S
C67 N70 1.301 . S
C67 N71 1.328 . S
C67 H72 0.930 . S
C68 C69 1.333 . S
C68 N70 1.317 . S
C68 H73 0.930 . S
C69 C68 1.333 . S
C69 N71 1.350 . S
C69 H95 0.931 . S
N70 Co66 2.148 . S
N70 C67 1.301 . S
N70 C68 1.317 . S
N71 C67 1.328 . S
N71 C69 1.350 . S
H72 C67 0.930 . S
H73 C68 0.930 . S
C74 O75 1.224 . S
C74 O93 1.247 . S
O75 C74 1.224 . S
N76 Co66 2.128 1_556 S
N76 C77 1.355 . S
N76 C79 1.311 . S
C77 N76 1.355 . S
C77 C78 1.363 . S
C77 H89 0.929 . S
C78 C77 1.363 . S
C78 N80 1.375 . S
C78 H96 0.931 . S
C79 N76 1.311 . S
C79 N80 1.347 . S
C79 H90 0.929 . S
N80 C78 1.375 . S
N80 C79 1.347 . S
C81 C84 1.365 . S
C81 N86 1.328 . S
C81 H87 0.929 . S
C82 C83 1.362 1_556 S
C82 C85 1.378 . S
C82 H97 0.929 . S
C83 C82 1.362 1_554 S
C83 C84 1.366 . S
C84 C81 1.365 . S
C84 C83 1.366 . S
C84 H98 0.930 . S
C85 C82 1.378 . S
C85 N86 1.315 1_556 S
C85 H88 0.930 . S
N86 Co66 2.194 . S
N86 C81 1.328 . S
N86 C85 1.315 1_554 S
H87 C81 0.929 . S
H88 C85 0.930 . S
H89 C77 0.929 . S
H90 C79 0.929 . S
O91 Co66 2.351 . S
O91 C94 1.244 . S
O92 Co66 2.155 . S
O92 C94 1.240 . S
O93 Co66 2.096 1_556 S
O93 C74 1.247 . S
C94 O91 1.244 . S
C94 O92 1.240 . S
H95 C69 0.931 . S
H96 C78 0.931 . S
H97 C82 0.929 . S
H98 C84 0.930 . S
Co99 N103 2.148 . S
Co99 N109 2.128 1_556 S
Co99 N119 2.194 . S
Co99 O124 2.351 . S
Co99 O125 2.155 . S
Co99 O126 2.096 1_556 S
C100 N103 1.301 . S
C100 N104 1.328 . S
C100 H105 0.930 . S
C101 C102 1.333 . S
C101 N103 1.317 . S
C101 H106 0.930 . S
C102 C101 1.333 . S
C102 N104 1.350 . S
C102 H128 0.931 . S
N103 Co99 2.148 . S
N103 C100 1.301 . S
N103 C101 1.317 . S
N104 C100 1.328 . S
N104 C102 1.350 . S
H105 C100 0.930 . S
H106 C101 0.930 . S
C107 O108 1.224 . S
C107 O126 1.247 . S
O108 C107 1.224 . S
N109 Co99 2.128 1_554 S
N109 C110 1.355 . S
N109 C112 1.311 . S
C110 N109 1.355 . S
C110 C111 1.363 . S
C110 H122 0.929 . S
C111 C110 1.363 . S
C111 N113 1.375 . S
C111 H129 0.931 . S
C112 N109 1.311 . S
C112 N113 1.347 . S
C112 H123 0.929 . S
N113 C111 1.375 . S
N113 C112 1.347 . S
C114 C117 1.365 . S
C114 N119 1.328 . S
C114 H120 0.929 . S
C115 C116 1.362 1_554 S
C115 C118 1.378 . S
C115 H130 0.929 . S
C116 C115 1.362 1_556 S
C116 C117 1.366 . S
C117 C114 1.365 . S
C117 C116 1.366 . S
C117 H131 0.930 . S
C118 C115 1.378 . S
C118 N119 1.315 1_554 S
C118 H121 0.930 . S
N119 Co99 2.194 . S
N119 C114 1.328 . S
N119 C118 1.315 1_556 S
H120 C114 0.929 . S
H121 C118 0.930 . S
H122 C110 0.929 . S
H123 C112 0.929 . S
O124 Co99 2.351 . S
O124 C127 1.244 . S
O125 Co99 2.155 . S
O125 C127 1.240 . S
O126 Co99 2.096 1_554 S
O126 C107 1.247 . S
C127 O124 1.244 . S
C127 O125 1.240 . S
H128 C102 0.931 . S
H129 C111 0.931 . S
H130 C115 0.929 . S
H131 C117 0.930 . S
Co132 N136 2.148 . S
Co132 N142 2.128 1_556 S
Co132 N152 2.194 . S
Co132 O157 2.351 . S
Co132 O158 2.155 . S
Co132 O159 2.096 1_556 S
C133 N136 1.301 . S
C133 N137 1.328 . S
C133 H138 0.930 . S
C134 C135 1.333 . S
C134 N136 1.317 . S
C134 H139 0.930 . S
C135 C134 1.333 . S
C135 N137 1.350 . S
C135 H161 0.931 . S
N136 Co132 2.148 . S
N136 C133 1.301 . S
N136 C134 1.317 . S
N137 C133 1.328 . S
N137 C135 1.350 . S
H138 C133 0.930 . S
H139 C134 0.930 . S
C140 O141 1.224 . S
C140 O159 1.247 . S
O141 C140 1.224 . S
N142 Co132 2.128 1_554 S
N142 C143 1.355 . S
N142 C145 1.311 . S
C143 N142 1.355 . S
C143 C144 1.363 . S
C143 H155 0.929 . S
C144 C143 1.363 . S
C144 N146 1.375 . S
C144 H162 0.931 . S
C145 N142 1.311 . S
C145 N146 1.347 . S
C145 H156 0.929 . S
N146 C144 1.375 . S
N146 C145 1.347 . S
C147 C150 1.365 . S
C147 N152 1.328 . S
C147 H153 0.929 . S
C148 C149 1.362 1_554 S
C148 C151 1.378 . S
C148 H163 0.929 . S
C149 C148 1.362 1_556 S
C149 C150 1.366 . S
C150 C147 1.365 . S
C150 C149 1.366 . S
C150 H164 0.930 . S
C151 C148 1.378 . S
C151 N152 1.315 1_554 S
C151 H154 0.930 . S
N152 Co132 2.194 . S
N152 C147 1.328 . S
N152 C151 1.315 1_556 S
H153 C147 0.929 . S
H154 C151 0.930 . S
H155 C143 0.929 . S
H156 C145 0.929 . S
O157 Co132 2.351 . S
O157 C160 1.244 . S
O158 Co132 2.155 . S
O158 C160 1.240 . S
O159 Co132 2.096 1_554 S
O159 C140 1.247 . S
C160 O157 1.244 . S
C160 O158 1.240 . S
H161 C135 0.931 . S
H162 C144 0.931 . S
H163 C148 0.929 . S
H164 C150 0.930 . S
Co165 N169 2.148 . S
Co165 N175 2.128 1_556 S
Co165 N185 2.194 . S
Co165 O190 2.351 . S
Co165 O191 2.155 . S
Co165 O192 2.096 1_556 S
C166 N169 1.301 . S
C166 N170 1.328 . S
C166 H171 0.930 . S
C167 C168 1.333 . S
C167 N169 1.317 . S
C167 H172 0.930 . S
C168 C167 1.333 . S
C168 N170 1.350 . S
C168 H194 0.931 . S
N169 Co165 2.148 . S
N169 C166 1.301 . S
N169 C167 1.317 . S
N170 C166 1.328 . S
N170 C168 1.350 . S
H171 C166 0.930 . S
H172 C167 0.930 . S
C173 O174 1.224 . S
C173 O192 1.247 . S
O174 C173 1.224 . S
N175 Co165 2.128 1_554 S
N175 C176 1.355 . S
N175 C178 1.311 . S
C176 N175 1.355 . S
C176 C177 1.363 . S
C176 H188 0.929 . S
C177 C176 1.363 . S
C177 N179 1.375 . S
C177 H195 0.931 . S
C178 N175 1.311 . S
C178 N179 1.347 . S
C178 H189 0.929 . S
N179 C177 1.375 . S
N179 C178 1.347 . S
C180 C183 1.365 . S
C180 N185 1.328 . S
C180 H186 0.929 . S
C181 C182 1.362 1_554 S
C181 C184 1.378 . S
C181 H196 0.929 . S
C182 C181 1.362 1_556 S
C182 C183 1.366 . S
C183 C180 1.365 . S
C183 C182 1.366 . S
C183 H197 0.930 . S
C184 C181 1.378 . S
C184 N185 1.315 1_554 S
C184 H187 0.930 . S
N185 Co165 2.194 . S
N185 C180 1.328 . S
N185 C184 1.315 1_556 S
H186 C180 0.929 . S
H187 C184 0.930 . S
H188 C176 0.929 . S
H189 C178 0.929 . S
O190 Co165 2.351 . S
O190 C193 1.244 . S
O191 Co165 2.155 . S
O191 C193 1.240 . S
O192 Co165 2.096 1_554 S
O192 C173 1.247 . S
C193 O190 1.244 . S
C193 O191 1.240 . S
H194 C168 0.931 . S
H195 C177 0.931 . S
H196 C181 0.929 . S
H197 C183 0.930 . S
Co198 N202 2.148 . S
Co198 N208 2.128 1_556 S
Co198 N218 2.194 . S
Co198 O223 2.351 . S
Co198 O224 2.155 . S
Co198 O225 2.096 1_556 S
C199 N202 1.301 . S
C199 N203 1.328 . S
C199 H204 0.930 . S
C200 C201 1.333 . S
C200 N202 1.317 . S
C200 H205 0.930 . S
C201 C200 1.333 . S
C201 N203 1.350 . S
C201 H227 0.931 . S
N202 Co198 2.148 . S
N202 C199 1.301 . S
N202 C200 1.317 . S
N203 C199 1.328 . S
N203 C201 1.350 . S
H204 C199 0.930 . S
H205 C200 0.930 . S
C206 O207 1.224 . S
C206 O225 1.247 . S
O207 C206 1.224 . S
N208 Co198 2.128 1_554 S
N208 C209 1.355 . S
N208 C211 1.311 . S
C209 N208 1.355 . S
C209 C210 1.363 . S
C209 H221 0.929 . S
C210 C209 1.363 . S
C210 N212 1.375 . S
C210 H228 0.931 . S
C211 N208 1.311 . S
C211 N212 1.347 . S
C211 H222 0.929 . S
N212 C210 1.375 . S
N212 C211 1.347 . S
C213 C216 1.365 . S
C213 N218 1.328 . S
C213 H219 0.929 . S
C214 C215 1.362 1_554 S
C214 C217 1.378 . S
C214 H229 0.929 . S
C215 C214 1.362 1_556 S
C215 C216 1.366 . S
C216 C213 1.365 . S
C216 C215 1.366 . S
C216 H230 0.930 . S
C217 C214 1.378 . S
C217 N218 1.315 1_554 S
C217 H220 0.930 . S
N218 Co198 2.194 . S
N218 C213 1.328 . S
N218 C217 1.315 1_556 S
H219 C213 0.929 . S
H220 C217 0.930 . S
H221 C209 0.929 . S
H222 C211 0.929 . S
O223 Co198 2.351 . S
O223 C226 1.244 . S
O224 Co198 2.155 . S
O224 C226 1.240 . S
O225 Co198 2.096 1_554 S
O225 C206 1.247 . S
C226 O223 1.244 . S
C226 O224 1.240 . S
H227 C201 0.931 . S
H228 C210 0.931 . S
H229 C214 0.929 . S
H230 C216 0.930 . S
Co231 N235 2.148 . S
Co231 N241 2.128 1_556 S
Co231 N251 2.194 . S
Co231 O256 2.351 . S
Co231 O257 2.155 . S
Co231 O258 2.096 1_556 S
C232 N235 1.301 . S
C232 N236 1.328 . S
C232 H237 0.930 . S
C233 C234 1.333 . S
C233 N235 1.317 . S
C233 H238 0.930 . S
C234 C233 1.333 . S
C234 N236 1.350 . S
C234 H260 0.931 . S
N235 Co231 2.148 . S
N235 C232 1.301 . S
N235 C233 1.317 . S
N236 C232 1.328 . S
N236 C234 1.350 . S
H237 C232 0.930 . S
H238 C233 0.930 . S
C239 O240 1.224 . S
C239 O258 1.247 . S
O240 C239 1.224 . S
N241 Co231 2.128 1_554 S
N241 C242 1.355 . S
N241 C244 1.311 . S
C242 N241 1.355 . S
C242 C243 1.363 . S
C242 H254 0.929 . S
C243 C242 1.363 . S
C243 N245 1.375 . S
C243 H261 0.931 . S
C244 N241 1.311 . S
C244 N245 1.347 . S
C244 H255 0.929 . S
N245 C243 1.375 . S
N245 C244 1.347 . S
C246 C249 1.365 . S
C246 N251 1.328 . S
C246 H252 0.929 . S
C247 C248 1.362 1_554 S
C247 C250 1.378 . S
C247 H262 0.929 . S
C248 C247 1.362 1_556 S
C248 C249 1.366 . S
C249 C246 1.365 . S
C249 C248 1.366 . S
C249 H263 0.930 . S
C250 C247 1.378 . S
C250 N251 1.315 1_554 S
C250 H253 0.930 . S
N251 Co231 2.194 . S
N251 C246 1.328 . S
N251 C250 1.315 1_556 S
H252 C246 0.929 . S
H253 C250 0.930 . S
H254 C242 0.929 . S
H255 C244 0.929 . S
O256 Co231 2.351 . S
O256 C259 1.244 . S
O257 Co231 2.155 . S
O257 C259 1.240 . S
O258 Co231 2.096 1_554 S
O258 C239 1.247 . S
C259 O256 1.244 . S
C259 O257 1.240 . S
H260 C234 0.931 . S
H261 C243 0.931 . S
H262 C247 0.929 . S
H263 C249 0.930 . S
Co264 N268 2.148 . S
Co264 N274 2.128 1_556 S
Co264 N284 2.194 . S
Co264 O289 2.351 . S
Co264 O290 2.155 . S
Co264 O291 2.096 1_556 S
C265 N268 1.301 . S
C265 N269 1.328 . S
C265 H270 0.930 . S
C266 C267 1.333 . S
C266 N268 1.317 . S
C266 H271 0.930 . S
C267 C266 1.333 . S
C267 N269 1.350 . S
C267 H293 0.931 . S
N268 Co264 2.148 . S
N268 C265 1.301 . S
N268 C266 1.317 . S
N269 C265 1.328 . S
N269 C267 1.350 . S
H270 C265 0.930 . S
H271 C266 0.930 . S
C272 O273 1.224 . S
C272 O291 1.247 . S
O273 C272 1.224 . S
N274 Co264 2.128 1_554 S
N274 C275 1.355 . S
N274 C277 1.311 . S
C275 N274 1.355 . S
C275 C276 1.363 . S
C275 H287 0.929 . S
C276 C275 1.363 . S
C276 N278 1.375 . S
C276 H294 0.931 . S
C277 N274 1.311 . S
C277 N278 1.347 . S
C277 H288 0.929 . S
N278 C276 1.375 . S
N278 C277 1.347 . S
C279 C282 1.365 . S
C279 N284 1.328 . S
C279 H285 0.929 . S
C280 C281 1.362 1_554 S
C280 C283 1.378 . S
C280 H295 0.929 . S
C281 C280 1.362 1_556 S
C281 C282 1.366 . S
C282 C279 1.365 . S
C282 C281 1.366 . S
C282 H296 0.930 . S
C283 C280 1.378 . S
C283 N284 1.315 1_554 S
C283 H286 0.930 . S
N284 Co264 2.194 . S
N284 C279 1.328 . S
N284 C283 1.315 1_556 S
H285 C279 0.929 . S
H286 C283 0.930 . S
H287 C275 0.929 . S
H288 C277 0.929 . S
O289 Co264 2.351 . S
O289 C292 1.244 . S
O290 Co264 2.155 . S
O290 C292 1.240 . S
O291 Co264 2.096 1_554 S
O291 C272 1.247 . S
C292 O289 1.244 . S
C292 O290 1.240 . S
H293 C267 0.931 . S
H294 C276 0.931 . S
H295 C280 0.929 . S
H296 C282 0.930 . S
Co297 N301 2.148 . S
Co297 N307 2.128 1_554 S
Co297 N317 2.194 . S
Co297 O322 2.351 . S
Co297 O323 2.155 . S
Co297 O324 2.096 1_554 S
C298 N301 1.301 . S
C298 N302 1.328 . S
C298 H303 0.930 . S
C299 C300 1.333 . S
C299 N301 1.317 . S
C299 H304 0.930 . S
C300 C299 1.333 . S
C300 N302 1.350 . S
C300 H326 0.931 . S
N301 Co297 2.148 . S
N301 C298 1.301 . S
N301 C299 1.317 . S
N302 C298 1.328 . S
N302 C300 1.350 . S
H303 C298 0.930 . S
H304 C299 0.930 . S
C305 O306 1.224 . S
C305 O324 1.247 . S
O306 C305 1.224 . S
N307 Co297 2.128 1_556 S
N307 C308 1.355 . S
N307 C310 1.311 . S
C308 N307 1.355 . S
C308 C309 1.363 . S
C308 H320 0.929 . S
C309 C308 1.363 . S
C309 N311 1.375 . S
C309 H327 0.931 . S
C310 N307 1.311 . S
C310 N311 1.347 . S
C310 H321 0.929 . S
N311 C309 1.375 . S
N311 C310 1.347 . S
C312 C315 1.365 . S
C312 N317 1.328 . S
C312 H318 0.929 . S
C313 C314 1.362 1_556 S
C313 C316 1.378 . S
C313 H328 0.929 . S
C314 C313 1.362 1_554 S
C314 C315 1.366 . S
C315 C312 1.365 . S
C315 C314 1.366 . S
C315 H329 0.930 . S
C316 C313 1.378 . S
C316 N317 1.315 1_556 S
C316 H319 0.930 . S
N317 Co297 2.194 . S
N317 C312 1.328 . S
N317 C316 1.315 1_554 S
H318 C312 0.929 . S
H319 C316 0.930 . S
H320 C308 0.929 . S
H321 C310 0.929 . S
O322 Co297 2.351 . S
O322 C325 1.244 . S
O323 Co297 2.155 . S
O323 C325 1.240 . S
O324 Co297 2.096 1_556 S
O324 C305 1.247 . S
C325 O322 1.244 . S
C325 O323 1.240 . S
H326 C300 0.931 . S
H327 C309 0.931 . S
H328 C313 0.929 . S
H329 C315 0.930 . S
Co330 N334 2.148 . S
Co330 N340 2.128 1_554 S
Co330 N350 2.194 . S
Co330 O355 2.351 . S
Co330 O356 2.155 . S
Co330 O357 2.096 1_554 S
C331 N334 1.301 . S
C331 N335 1.328 . S
C331 H336 0.930 . S
C332 C333 1.333 . S
C332 N334 1.317 . S
C332 H337 0.930 . S
C333 C332 1.333 . S
C333 N335 1.350 . S
C333 H359 0.931 . S
N334 Co330 2.148 . S
N334 C331 1.301 . S
N334 C332 1.317 . S
N335 C331 1.328 . S
N335 C333 1.350 . S
H336 C331 0.930 . S
H337 C332 0.930 . S
C338 O339 1.224 . S
C338 O357 1.247 . S
O339 C338 1.224 . S
N340 Co330 2.128 1_556 S
N340 C341 1.355 . S
N340 C343 1.311 . S
C341 N340 1.355 . S
C341 C342 1.363 . S
C341 H353 0.929 . S
C342 C341 1.363 . S
C342 N344 1.375 . S
C342 H360 0.931 . S
C343 N340 1.311 . S
C343 N344 1.347 . S
C343 H354 0.929 . S
N344 C342 1.375 . S
N344 C343 1.347 . S
C345 C348 1.365 . S
C345 N350 1.328 . S
C345 H351 0.929 . S
C346 C347 1.362 1_556 S
C346 C349 1.378 . S
C346 H361 0.929 . S
C347 C346 1.362 1_554 S
C347 C348 1.366 . S
C348 C345 1.365 . S
C348 C347 1.366 . S
C348 H362 0.930 . S
C349 C346 1.378 . S
C349 N350 1.315 1_556 S
C349 H352 0.930 . S
N350 Co330 2.194 . S
N350 C345 1.328 . S
N350 C349 1.315 1_554 S
H351 C345 0.929 . S
H352 C349 0.930 . S
H353 C341 0.929 . S
H354 C343 0.929 . S
O355 Co330 2.351 . S
O355 C358 1.244 . S
O356 Co330 2.155 . S
O356 C358 1.240 . S
O357 Co330 2.096 1_556 S
O357 C338 1.247 . S
C358 O355 1.244 . S
C358 O356 1.240 . S
H359 C333 0.931 . S
H360 C342 0.931 . S
H361 C346 0.929 . S
H362 C348 0.930 . S
Co363 N367 2.148 . S
Co363 N373 2.128 1_554 S
Co363 N383 2.194 . S
Co363 O388 2.351 . S
Co363 O389 2.155 . S
Co363 O390 2.096 1_554 S
C364 N367 1.301 . S
C364 N368 1.328 . S
C364 H369 0.930 . S
C365 C366 1.333 . S
C365 N367 1.317 . S
C365 H370 0.930 . S
C366 C365 1.333 . S
C366 N368 1.350 . S
C366 H392 0.931 . S
N367 Co363 2.148 . S
N367 C364 1.301 . S
N367 C365 1.317 . S
N368 C364 1.328 . S
N368 C366 1.350 . S
H369 C364 0.930 . S
H370 C365 0.930 . S
C371 O372 1.224 . S
C371 O390 1.247 . S
O372 C371 1.224 . S
N373 Co363 2.128 1_556 S
N373 C374 1.355 . S
N373 C376 1.311 . S
C374 N373 1.355 . S
C374 C375 1.363 . S
C374 H386 0.929 . S
C375 C374 1.363 . S
C375 N377 1.375 . S
C375 H393 0.931 . S
C376 N373 1.311 . S
C376 N377 1.347 . S
C376 H387 0.929 . S
N377 C375 1.375 . S
N377 C376 1.347 . S
C378 C381 1.365 . S
C378 N383 1.328 . S
C378 H384 0.929 . S
C379 C380 1.362 1_556 S
C379 C382 1.378 . S
C379 H394 0.929 . S
C380 C379 1.362 1_554 S
C380 C381 1.366 . S
C381 C378 1.365 . S
C381 C380 1.366 . S
C381 H395 0.930 . S
C382 C379 1.378 . S
C382 N383 1.315 1_556 S
C382 H385 0.930 . S
N383 Co363 2.194 . S
N383 C378 1.328 . S
N383 C382 1.315 1_554 S
H384 C378 0.929 . S
H385 C382 0.930 . S
H386 C374 0.929 . S
H387 C376 0.929 . S
O388 Co363 2.351 . S
O388 C391 1.244 . S
O389 Co363 2.155 . S
O389 C391 1.240 . S
O390 Co363 2.096 1_556 S
O390 C371 1.247 . S
C391 O388 1.244 . S
C391 O389 1.240 . S
H392 C366 0.931 . S
H393 C375 0.931 . S
H394 C379 0.929 . S
H395 C381 0.930 . S
Co396 N400 2.148 . S
Co396 N406 2.128 . S
Co396 N416 2.194 . S
Co396 O421 2.351 . S
Co396 O422 2.155 . S
Co396 O423 2.096 . S
C397 N400 1.301 . S
C397 N401 1.328 . S
C397 H402 0.930 . S
C398 C399 1.333 . S
C398 N400 1.317 . S
C398 H403 0.930 . S
C399 C398 1.333 . S
C399 N401 1.350 . S
C399 H425 0.931 . S
N400 Co396 2.148 . S
N400 C397 1.301 . S
N400 C398 1.317 . S
N401 C397 1.328 . S
N401 C399 1.350 . S
H402 C397 0.930 . S
H403 C398 0.930 . S
C404 O405 1.224 . S
C404 O423 1.247 . S
O405 C404 1.224 . S
N406 Co396 2.128 . S
N406 C407 1.355 . S
N406 C409 1.311 . S
C407 N406 1.355 . S
C407 C408 1.363 . S
C407 H419 0.929 . S
C408 C407 1.363 . S
C408 N410 1.375 . S
C408 H426 0.931 . S
C409 N406 1.311 . S
C409 N410 1.347 . S
C409 H420 0.929 . S
N410 C408 1.375 . S
N410 C409 1.347 . S
C411 C414 1.365 . S
C411 N416 1.328 . S
C411 H417 0.929 . S
C412 C413 1.362 . S
C412 C415 1.378 . S
C412 H427 0.929 . S
C413 C412 1.362 . S
C413 C414 1.366 . S
C414 C411 1.365 . S
C414 C413 1.366 . S
C414 H428 0.930 . S
C415 C412 1.378 . S
C415 N416 1.315 . S
C415 H418 0.930 . S
N416 Co396 2.194 . S
N416 C411 1.328 . S
N416 C415 1.315 . S
H417 C411 0.929 . S
H418 C415 0.930 . S
H419 C407 0.929 . S
H420 C409 0.929 . S
O421 Co396 2.351 . S
O421 C424 1.244 . S
O422 Co396 2.155 . S
O422 C424 1.240 . S
O423 Co396 2.096 . S
O423 C404 1.247 . S
C424 O421 1.244 . S
C424 O422 1.240 . S
H425 C399 0.931 . S
H426 C408 0.931 . S
H427 C412 0.929 . S
H428 C414 0.930 . S
Co429 N433 2.148 . S
Co429 N439 2.128 . S
Co429 N449 2.194 . S
Co429 O454 2.351 . S
Co429 O455 2.155 . S
Co429 O456 2.096 . S
C430 N433 1.301 . S
C430 N434 1.328 . S
C430 H435 0.930 . S
C431 C432 1.333 . S
C431 N433 1.317 . S
C431 H436 0.930 . S
C432 C431 1.333 . S
C432 N434 1.350 . S
C432 H458 0.931 . S
N433 Co429 2.148 . S
N433 C430 1.301 . S
N433 C431 1.317 . S
N434 C430 1.328 . S
N434 C432 1.350 . S
H435 C430 0.930 . S
H436 C431 0.930 . S
C437 O438 1.224 . S
C437 O456 1.247 . S
O438 C437 1.224 . S
N439 Co429 2.128 . S
N439 C440 1.355 . S
N439 C442 1.311 . S
C440 N439 1.355 . S
C440 C441 1.363 . S
C440 H452 0.929 . S
C441 C440 1.363 . S
C441 N443 1.375 . S
C441 H459 0.931 . S
C442 N439 1.311 . S
C442 N443 1.347 . S
C442 H453 0.929 . S
N443 C441 1.375 . S
N443 C442 1.347 . S
C444 C447 1.365 . S
C444 N449 1.328 . S
C444 H450 0.929 . S
C445 C446 1.362 . S
C445 C448 1.378 . S
C445 H460 0.929 . S
C446 C445 1.362 . S
C446 C447 1.366 . S
C447 C444 1.365 . S
C447 C446 1.366 . S
C447 H461 0.930 . S
C448 C445 1.378 . S
C448 N449 1.315 . S
C448 H451 0.930 . S
N449 Co429 2.194 . S
N449 C444 1.328 . S
N449 C448 1.315 . S
H450 C444 0.929 . S
H451 C448 0.930 . S
H452 C440 0.929 . S
H453 C442 0.929 . S
O454 Co429 2.351 . S
O454 C457 1.244 . S
O455 Co429 2.155 . S
O455 C457 1.240 . S
O456 Co429 2.096 . S
O456 C437 1.247 . S
C457 O454 1.244 . S
C457 O455 1.240 . S
H458 C432 0.931 . S
H459 C441 0.931 . S
H460 C445 0.929 . S
H461 C447 0.930 . S
Co462 N466 2.148 . S
Co462 N472 2.128 . S
Co462 N482 2.194 . S
Co462 O487 2.351 . S
Co462 O488 2.155 . S
Co462 O489 2.096 . S
C463 N466 1.301 . S
C463 N467 1.328 . S
C463 H468 0.930 . S
C464 C465 1.333 . S
C464 N466 1.317 . S
C464 H469 0.930 . S
C465 C464 1.333 . S
C465 N467 1.350 . S
C465 H491 0.931 . S
N466 Co462 2.148 . S
N466 C463 1.301 . S
N466 C464 1.317 . S
N467 C463 1.328 . S
N467 C465 1.350 . S
H468 C463 0.930 . S
H469 C464 0.930 . S
C470 O471 1.224 . S
C470 O489 1.247 . S
O471 C470 1.224 . S
N472 Co462 2.128 . S
N472 C473 1.355 . S
N472 C475 1.311 . S
C473 N472 1.355 . S
C473 C474 1.363 . S
C473 H485 0.929 . S
C474 C473 1.363 . S
C474 N476 1.375 . S
C474 H492 0.931 . S
C475 N472 1.311 . S
C475 N476 1.347 . S
C475 H486 0.929 . S
N476 C474 1.375 . S
N476 C475 1.347 . S
C477 C480 1.365 . S
C477 N482 1.328 . S
C477 H483 0.929 . S
C478 C479 1.362 . S
C478 C481 1.378 . S
C478 H493 0.929 . S
C479 C478 1.362 . S
C479 C480 1.366 . S
C480 C477 1.365 . S
C480 C479 1.366 . S
C480 H494 0.930 . S
C481 C478 1.378 . S
C481 N482 1.315 . S
C481 H484 0.930 . S
N482 Co462 2.194 . S
N482 C477 1.328 . S
N482 C481 1.315 . S
H483 C477 0.929 . S
H484 C481 0.930 . S
H485 C473 0.929 . S
H486 C475 0.929 . S
O487 Co462 2.351 . S
O487 C490 1.244 . S
O488 Co462 2.155 . S
O488 C490 1.240 . S
O489 Co462 2.096 . S
O489 C470 1.247 . S
C490 O487 1.244 . S
C490 O488 1.240 . S
H491 C465 0.931 . S
H492 C474 0.931 . S
H493 C478 0.929 . S
H494 C480 0.930 . S
Co495 N499 2.148 . S
Co495 N505 2.128 . S
Co495 N515 2.194 . S
Co495 O520 2.351 . S
Co495 O521 2.155 . S
Co495 O522 2.096 . S
C496 N499 1.301 . S
C496 N500 1.328 . S
C496 H501 0.930 . S
C497 C498 1.333 . S
C497 N499 1.317 . S
C497 H502 0.930 . S
C498 C497 1.333 . S
C498 N500 1.350 . S
C498 H524 0.931 . S
N499 Co495 2.148 . S
N499 C496 1.301 . S
N499 C497 1.317 . S
N500 C496 1.328 . S
N500 C498 1.350 . S
H501 C496 0.930 . S
H502 C497 0.930 . S
C503 O504 1.224 . S
C503 O522 1.247 . S
O504 C503 1.224 . S
N505 Co495 2.128 . S
N505 C506 1.355 . S
N505 C508 1.311 . S
C506 N505 1.355 . S
C506 C507 1.363 . S
C506 H518 0.929 . S
C507 C506 1.363 . S
C507 N509 1.375 . S
C507 H525 0.931 . S
C508 N505 1.311 . S
C508 N509 1.347 . S
C508 H519 0.929 . S
N509 C507 1.375 . S
N509 C508 1.347 . S
C510 C513 1.365 . S
C510 N515 1.328 . S
C510 H516 0.929 . S
C511 C512 1.362 . S
C511 C514 1.378 . S
C511 H526 0.929 . S
C512 C511 1.362 . S
C512 C513 1.366 . S
C513 C510 1.365 . S
C513 C512 1.366 . S
C513 H527 0.930 . S
C514 C511 1.378 . S
C514 N515 1.315 . S
C514 H517 0.930 . S
N515 Co495 2.194 . S
N515 C510 1.328 . S
N515 C514 1.315 . S
H516 C510 0.929 . S
H517 C514 0.930 . S
H518 C506 0.929 . S
H519 C508 0.929 . S
O520 Co495 2.351 . S
O520 C523 1.244 . S
O521 Co495 2.155 . S
O521 C523 1.240 . S
O522 Co495 2.096 . S
O522 C503 1.247 . S
C523 O520 1.244 . S
C523 O521 1.240 . S
H524 C498 0.931 . S
H525 C507 0.931 . S
H526 C511 0.929 . S
H527 C513 0.930 . S
Co528 N532 2.148 . S
Co528 N538 2.128 . S
Co528 N548 2.194 . S
Co528 O553 2.351 . S
Co528 O554 2.155 . S
Co528 O555 2.096 . S
C529 N532 1.301 . S
C529 N533 1.328 . S
C529 H534 0.930 . S
C530 C531 1.333 . S
C530 N532 1.317 . S
C530 H535 0.930 . S
C531 C530 1.333 . S
C531 N533 1.350 . S
C531 H557 0.931 . S
N532 Co528 2.148 . S
N532 C529 1.301 . S
N532 C530 1.317 . S
N533 C529 1.328 . S
N533 C531 1.350 . S
H534 C529 0.930 . S
H535 C530 0.930 . S
C536 O537 1.224 . S
C536 O555 1.247 . S
O537 C536 1.224 . S
N538 Co528 2.128 . S
N538 C539 1.355 . S
N538 C541 1.311 . S
C539 N538 1.355 . S
C539 C540 1.363 . S
C539 H551 0.929 . S
C540 C539 1.363 . S
C540 N542 1.375 . S
C540 H558 0.931 . S
C541 N538 1.311 . S
C541 N542 1.347 . S
C541 H552 0.929 . S
N542 C540 1.375 . S
N542 C541 1.347 . S
C543 C546 1.365 . S
C543 N548 1.328 . S
C543 H549 0.929 . S
C544 C545 1.362 . S
C544 C547 1.378 . S
C544 H559 0.929 . S
C545 C544 1.362 . S
C545 C546 1.366 . S
C546 C543 1.365 . S
C546 C545 1.366 . S
C546 H560 0.930 . S
C547 C544 1.378 . S
C547 N548 1.315 . S
C547 H550 0.930 . S
N548 Co528 2.194 . S
N548 C543 1.328 . S
N548 C547 1.315 . S
H549 C543 0.929 . S
H550 C547 0.930 . S
H551 C539 0.929 . S
H552 C541 0.929 . S
O553 Co528 2.351 . S
O553 C556 1.244 . S
O554 Co528 2.155 . S
O554 C556 1.240 . S
O555 Co528 2.096 . S
O555 C536 1.247 . S
C556 O553 1.244 . S
C556 O554 1.240 . S
H557 C531 0.931 . S
H558 C540 0.931 . S
H559 C544 0.929 . S
H560 C546 0.930 . S
Co561 N565 2.148 . S
Co561 N571 2.128 . S
Co561 N581 2.194 . S
Co561 O586 2.351 . S
Co561 O587 2.155 . S
Co561 O588 2.096 . S
C562 N565 1.301 . S
C562 N566 1.328 . S
C562 H567 0.930 . S
C563 C564 1.333 . S
C563 N565 1.317 . S
C563 H568 0.930 . S
C564 C563 1.333 . S
C564 N566 1.350 . S
C564 H590 0.931 . S
N565 Co561 2.148 . S
N565 C562 1.301 . S
N565 C563 1.317 . S
N566 C562 1.328 . S
N566 C564 1.350 . S
H567 C562 0.930 . S
H568 C563 0.930 . S
C569 O570 1.224 . S
C569 O588 1.247 . S
O570 C569 1.224 . S
N571 Co561 2.128 . S
N571 C572 1.355 . S
N571 C574 1.311 . S
C572 N571 1.355 . S
C572 C573 1.363 . S
C572 H584 0.929 . S
C573 C572 1.363 . S
C573 N575 1.375 . S
C573 H591 0.931 . S
C574 N571 1.311 . S
C574 N575 1.347 . S
C574 H585 0.929 . S
N575 C573 1.375 . S
N575 C574 1.347 . S
C576 C579 1.365 . S
C576 N581 1.328 . S
C576 H582 0.929 . S
C577 C578 1.362 . S
C577 C580 1.378 . S
C577 H592 0.929 . S
C578 C577 1.362 . S
C578 C579 1.366 . S
C579 C576 1.365 . S
C579 C578 1.366 . S
C579 H593 0.930 . S
C580 C577 1.378 . S
C580 N581 1.315 . S
C580 H583 0.930 . S
N581 Co561 2.194 . S
N581 C576 1.328 . S
N581 C580 1.315 . S
H582 C576 0.929 . S
H583 C580 0.930 . S
H584 C572 0.929 . S
H585 C574 0.929 . S
O586 Co561 2.351 . S
O586 C589 1.244 . S
O587 Co561 2.155 . S
O587 C589 1.240 . S
O588 Co561 2.096 . S
O588 C569 1.247 . S
C589 O586 1.244 . S
C589 O587 1.240 . S
H590 C564 0.931 . S
H591 C573 0.931 . S
H592 C577 0.929 . S
H593 C579 0.930 . S
Co594 N598 2.148 . S
Co594 N604 2.128 . S
Co594 N614 2.194 . S
Co594 O619 2.351 . S
Co594 O620 2.155 . S
Co594 O621 2.096 . S
C595 N598 1.301 . S
C595 N599 1.328 . S
C595 H600 0.930 . S
C596 C597 1.333 . S
C596 N598 1.317 . S
C596 H601 0.930 . S
C597 C596 1.333 . S
C597 N599 1.350 . S
C597 H623 0.931 . S
N598 Co594 2.148 . S
N598 C595 1.301 . S
N598 C596 1.317 . S
N599 C595 1.328 . S
N599 C597 1.350 . S
H600 C595 0.930 . S
H601 C596 0.930 . S
C602 O603 1.224 . S
C602 O621 1.247 . S
O603 C602 1.224 . S
N604 Co594 2.128 . S
N604 C605 1.355 . S
N604 C607 1.311 . S
C605 N604 1.355 . S
C605 C606 1.363 . S
C605 H617 0.929 . S
C606 C605 1.363 . S
C606 N608 1.375 . S
C606 H624 0.931 . S
C607 N604 1.311 . S
C607 N608 1.347 . S
C607 H618 0.929 . S
N608 C606 1.375 . S
N608 C607 1.347 . S
C609 C612 1.365 . S
C609 N614 1.328 . S
C609 H615 0.929 . S
C610 C611 1.362 . S
C610 C613 1.378 . S
C610 H625 0.929 . S
C611 C610 1.362 . S
C611 C612 1.366 . S
C612 C609 1.365 . S
C612 C611 1.366 . S
C612 H626 0.930 . S
C613 C610 1.378 . S
C613 N614 1.315 . S
C613 H616 0.930 . S
N614 Co594 2.194 . S
N614 C609 1.328 . S
N614 C613 1.315 . S
H615 C609 0.929 . S
H616 C613 0.930 . S
H617 C605 0.929 . S
H618 C607 0.929 . S
O619 Co594 2.351 . S
O619 C622 1.244 . S
O620 Co594 2.155 . S
O620 C622 1.240 . S
O621 Co594 2.096 . S
O621 C602 1.247 . S
C622 O619 1.244 . S
C622 O620 1.240 . S
H623 C597 0.931 . S
H624 C606 0.931 . S
H625 C610 0.929 . S
H626 C612 0.930 . S
Co627 N631 2.148 . S
Co627 N637 2.128 . S
Co627 N647 2.194 . S
Co627 O652 2.351 . S
Co627 O653 2.155 . S
Co627 O654 2.096 . S
C628 N631 1.301 . S
C628 N632 1.328 . S
C628 H633 0.930 . S
C629 C630 1.333 . S
C629 N631 1.317 . S
C629 H634 0.930 . S
C630 C629 1.333 . S
C630 N632 1.350 . S
C630 H656 0.931 . S
N631 Co627 2.148 . S
N631 C628 1.301 . S
N631 C629 1.317 . S
N632 C628 1.328 . S
N632 C630 1.350 . S
H633 C628 0.930 . S
H634 C629 0.930 . S
C635 O636 1.224 . S
C635 O654 1.247 . S
O636 C635 1.224 . S
N637 Co627 2.128 . S
N637 C638 1.355 . S
N637 C640 1.311 . S
C638 N637 1.355 . S
C638 C639 1.363 . S
C638 H650 0.929 . S
C639 C638 1.363 . S
C639 N641 1.375 . S
C639 H657 0.931 . S
C640 N637 1.311 . S
C640 N641 1.347 . S
C640 H651 0.929 . S
N641 C639 1.375 . S
N641 C640 1.347 . S
C642 C645 1.365 . S
C642 N647 1.328 . S
C642 H648 0.929 . S
C643 C644 1.362 . S
C643 C646 1.378 . S
C643 H658 0.929 . S
C644 C643 1.362 . S
C644 C645 1.366 . S
C645 C642 1.365 . S
C645 C644 1.366 . S
C645 H659 0.930 . S
C646 C643 1.378 . S
C646 N647 1.315 . S
C646 H649 0.930 . S
N647 Co627 2.194 . S
N647 C642 1.328 . S
N647 C646 1.315 . S
H648 C642 0.929 . S
H649 C646 0.930 . S
H650 C638 0.929 . S
H651 C640 0.929 . S
O652 Co627 2.351 . S
O652 C655 1.244 . S
O653 Co627 2.155 . S
O653 C655 1.240 . S
O654 Co627 2.096 . S
O654 C635 1.247 . S
C655 O652 1.244 . S
C655 O653 1.240 . S
H656 C630 0.931 . S
H657 C639 0.931 . S
H658 C643 0.929 . S
H659 C645 0.930 . S
Co660 N664 2.148 . S
Co660 N670 2.128 . S
Co660 N680 2.194 . S
Co660 O685 2.351 . S
Co660 O686 2.155 . S
Co660 O687 2.096 . S
C661 N664 1.301 . S
C661 N665 1.328 . S
C661 H666 0.930 . S
C662 C663 1.333 . S
C662 N664 1.317 . S
C662 H667 0.930 . S
C663 C662 1.333 . S
C663 N665 1.350 . S
C663 H689 0.931 . S
N664 Co660 2.148 . S
N664 C661 1.301 . S
N664 C662 1.317 . S
N665 C661 1.328 . S
N665 C663 1.350 . S
H666 C661 0.930 . S
H667 C662 0.930 . S
C668 O669 1.224 . S
C668 O687 1.247 . S
O669 C668 1.224 . S
N670 Co660 2.128 . S
N670 C671 1.355 . S
N670 C673 1.311 . S
C671 N670 1.355 . S
C671 C672 1.363 . S
C671 H683 0.929 . S
C672 C671 1.363 . S
C672 N674 1.375 . S
C672 H690 0.931 . S
C673 N670 1.311 . S
C673 N674 1.347 . S
C673 H684 0.929 . S
N674 C672 1.375 . S
N674 C673 1.347 . S
C675 C678 1.365 . S
C675 N680 1.328 . S
C675 H681 0.929 . S
C676 C677 1.362 . S
C676 C679 1.378 . S
C676 H691 0.929 . S
C677 C676 1.362 . S
C677 C678 1.366 . S
C678 C675 1.365 . S
C678 C677 1.366 . S
C678 H692 0.930 . S
C679 C676 1.378 . S
C679 N680 1.315 . S
C679 H682 0.930 . S
N680 Co660 2.194 . S
N680 C675 1.328 . S
N680 C679 1.315 . S
H681 C675 0.929 . S
H682 C679 0.930 . S
H683 C671 0.929 . S
H684 C673 0.929 . S
O685 Co660 2.351 . S
O685 C688 1.244 . S
O686 Co660 2.155 . S
O686 C688 1.240 . S
O687 Co660 2.096 . S
O687 C668 1.247 . S
C688 O685 1.244 . S
C688 O686 1.240 . S
H689 C663 0.931 . S
H690 C672 0.931 . S
H691 C676 0.929 . S
H692 C678 0.930 . S
Co693 N697 2.148 . S
Co693 N703 2.128 . S
Co693 N713 2.194 . S
Co693 O718 2.351 . S
Co693 O719 2.155 . S
Co693 O720 2.096 . S
C694 N697 1.301 . S
C694 N698 1.328 . S
C694 H699 0.930 . S
C695 C696 1.333 . S
C695 N697 1.317 . S
C695 H700 0.930 . S
C696 C695 1.333 . S
C696 N698 1.350 . S
C696 H722 0.931 . S
N697 Co693 2.148 . S
N697 C694 1.301 . S
N697 C695 1.317 . S
N698 C694 1.328 . S
N698 C696 1.350 . S
H699 C694 0.930 . S
H700 C695 0.930 . S
C701 O702 1.224 . S
C701 O720 1.247 . S
O702 C701 1.224 . S
N703 Co693 2.128 . S
N703 C704 1.355 . S
N703 C706 1.311 . S
C704 N703 1.355 . S
C704 C705 1.363 . S
C704 H716 0.929 . S
C705 C704 1.363 . S
C705 N707 1.375 . S
C705 H723 0.931 . S
C706 N703 1.311 . S
C706 N707 1.347 . S
C706 H717 0.929 . S
N707 C705 1.375 . S
N707 C706 1.347 . S
C708 C711 1.365 . S
C708 N713 1.328 . S
C708 H714 0.929 . S
C709 C710 1.362 . S
C709 C712 1.378 . S
C709 H724 0.929 . S
C710 C709 1.362 . S
C710 C711 1.366 . S
C711 C708 1.365 . S
C711 C710 1.366 . S
C711 H725 0.930 . S
C712 C709 1.378 . S
C712 N713 1.315 . S
C712 H715 0.930 . S
N713 Co693 2.194 . S
N713 C708 1.328 . S
N713 C712 1.315 . S
H714 C708 0.929 . S
H715 C712 0.930 . S
H716 C704 0.929 . S
H717 C706 0.929 . S
O718 Co693 2.351 . S
O718 C721 1.244 . S
O719 Co693 2.155 . S
O719 C721 1.240 . S
O720 Co693 2.096 . S
O720 C701 1.247 . S
C721 O718 1.244 . S
C721 O719 1.240 . S
H722 C696 0.931 . S
H723 C705 0.931 . S
H724 C709 0.929 . S
H725 C711 0.930 . S
Co726 N730 2.148 . S
Co726 N736 2.128 . S
Co726 N746 2.194 . S
Co726 O751 2.351 . S
Co726 O752 2.155 . S
Co726 O753 2.096 . S
C727 N730 1.301 . S
C727 N731 1.328 . S
C727 H732 0.930 . S
C728 C729 1.333 . S
C728 N730 1.317 . S
C728 H733 0.930 . S
C729 C728 1.333 . S
C729 N731 1.350 . S
C729 H755 0.931 . S
N730 Co726 2.148 . S
N730 C727 1.301 . S
N730 C728 1.317 . S
N731 C727 1.328 . S
N731 C729 1.350 . S
H732 C727 0.930 . S
H733 C728 0.930 . S
C734 O735 1.224 . S
C734 O753 1.247 . S
O735 C734 1.224 . S
N736 Co726 2.128 . S
N736 C737 1.355 . S
N736 C739 1.311 . S
C737 N736 1.355 . S
C737 C738 1.363 . S
C737 H749 0.929 . S
C738 C737 1.363 . S
C738 N740 1.375 . S
C738 H756 0.931 . S
C739 N736 1.311 . S
C739 N740 1.347 . S
C739 H750 0.929 . S
N740 C738 1.375 . S
N740 C739 1.347 . S
C741 C744 1.365 . S
C741 N746 1.328 . S
C741 H747 0.929 . S
C742 C743 1.362 . S
C742 C745 1.378 . S
C742 H757 0.929 . S
C743 C742 1.362 . S
C743 C744 1.366 . S
C744 C741 1.365 . S
C744 C743 1.366 . S
C744 H758 0.930 . S
C745 C742 1.378 . S
C745 N746 1.315 . S
C745 H748 0.930 . S
N746 Co726 2.194 . S
N746 C741 1.328 . S
N746 C745 1.315 . S
H747 C741 0.929 . S
H748 C745 0.930 . S
H749 C737 0.929 . S
H750 C739 0.929 . S
O751 Co726 2.351 . S
O751 C754 1.244 . S
O752 Co726 2.155 . S
O752 C754 1.240 . S
O753 Co726 2.096 . S
O753 C734 1.247 . S
C754 O751 1.244 . S
C754 O752 1.240 . S
H755 C729 0.931 . S
H756 C738 0.931 . S
H757 C742 0.929 . S
H758 C744 0.930 . S
Co759 N763 2.148 . S
Co759 N769 2.128 . S
Co759 N779 2.194 . S
Co759 O784 2.351 . S
Co759 O785 2.155 . S
Co759 O786 2.096 . S
C760 N763 1.301 . S
C760 N764 1.328 . S
C760 H765 0.930 . S
C761 C762 1.333 . S
C761 N763 1.317 . S
C761 H766 0.930 . S
C762 C761 1.333 . S
C762 N764 1.350 . S
C762 H788 0.931 . S
N763 Co759 2.148 . S
N763 C760 1.301 . S
N763 C761 1.317 . S
N764 C760 1.328 . S
N764 C762 1.350 . S
H765 C760 0.930 . S
H766 C761 0.930 . S
C767 O768 1.224 . S
C767 O786 1.247 . S
O768 C767 1.224 . S
N769 Co759 2.128 . S
N769 C770 1.355 . S
N769 C772 1.311 . S
C770 N769 1.355 . S
C770 C771 1.363 . S
C770 H782 0.929 . S
C771 C770 1.363 . S
C771 N773 1.375 . S
C771 H789 0.931 . S
C772 N769 1.311 . S
C772 N773 1.347 . S
C772 H783 0.929 . S
N773 C771 1.375 . S
N773 C772 1.347 . S
C774 C777 1.365 . S
C774 N779 1.328 . S
C774 H780 0.929 . S
C775 C776 1.362 . S
C775 C778 1.378 . S
C775 H790 0.929 . S
C776 C775 1.362 . S
C776 C777 1.366 . S
C777 C774 1.365 . S
C777 C776 1.366 . S
C777 H791 0.930 . S
C778 C775 1.378 . S
C778 N779 1.315 . S
C778 H781 0.930 . S
N779 Co759 2.194 . S
N779 C774 1.328 . S
N779 C778 1.315 . S
H780 C774 0.929 . S
H781 C778 0.930 . S
H782 C770 0.929 . S
H783 C772 0.929 . S
O784 Co759 2.351 . S
O784 C787 1.244 . S
O785 Co759 2.155 . S
O785 C787 1.240 . S
O786 Co759 2.096 . S
O786 C767 1.247 . S
C787 O784 1.244 . S
C787 O785 1.240 . S
H788 C762 0.931 . S
H789 C771 0.931 . S
H790 C775 0.929 . S
H791 C777 0.930 . S
Co792 N796 2.148 . S
Co792 N802 2.128 . S
Co792 N812 2.194 . S
Co792 O817 2.351 . S
Co792 O818 2.155 . S
Co792 O819 2.096 . S
C793 N796 1.301 . S
C793 N797 1.328 . S
C793 H798 0.930 . S
C794 C795 1.333 . S
C794 N796 1.317 . S
C794 H799 0.930 . S
C795 C794 1.333 . S
C795 N797 1.350 . S
C795 H821 0.931 . S
N796 Co792 2.148 . S
N796 C793 1.301 . S
N796 C794 1.317 . S
N797 C793 1.328 . S
N797 C795 1.350 . S
H798 C793 0.930 . S
H799 C794 0.930 . S
C800 O801 1.224 . S
C800 O819 1.247 . S
O801 C800 1.224 . S
N802 Co792 2.128 . S
N802 C803 1.355 . S
N802 C805 1.311 . S
C803 N802 1.355 . S
C803 C804 1.363 . S
C803 H815 0.929 . S
C804 C803 1.363 . S
C804 N806 1.375 . S
C804 H822 0.931 . S
C805 N802 1.311 . S
C805 N806 1.347 . S
C805 H816 0.929 . S
N806 C804 1.375 . S
N806 C805 1.347 . S
C807 C810 1.365 . S
C807 N812 1.328 . S
C807 H813 0.929 . S
C808 C809 1.362 . S
C808 C811 1.378 . S
C808 H823 0.929 . S
C809 C808 1.362 . S
C809 C810 1.366 . S
C810 C807 1.365 . S
C810 C809 1.366 . S
C810 H824 0.930 . S
C811 C808 1.378 . S
C811 N812 1.315 . S
C811 H814 0.930 . S
N812 Co792 2.194 . S
N812 C807 1.328 . S
N812 C811 1.315 . S
H813 C807 0.929 . S
H814 C811 0.930 . S
H815 C803 0.929 . S
H816 C805 0.929 . S
O817 Co792 2.351 . S
O817 C820 1.244 . S
O818 Co792 2.155 . S
O818 C820 1.240 . S
O819 Co792 2.096 . S
O819 C800 1.247 . S
C820 O817 1.244 . S
C820 O818 1.240 . S
H821 C795 0.931 . S
H822 C804 0.931 . S
H823 C808 0.929 . S
H824 C810 0.930 . S
Co825 N829 2.148 . S
Co825 N835 2.128 . S
Co825 N845 2.194 . S
Co825 O850 2.351 . S
Co825 O851 2.155 . S
Co825 O852 2.096 . S
C826 N829 1.301 . S
C826 N830 1.328 . S
C826 H831 0.930 . S
C827 C828 1.333 . S
C827 N829 1.317 . S
C827 H832 0.930 . S
C828 C827 1.333 . S
C828 N830 1.350 . S
C828 H854 0.931 . S
N829 Co825 2.148 . S
N829 C826 1.301 . S
N829 C827 1.317 . S
N830 C826 1.328 . S
N830 C828 1.350 . S
H831 C826 0.930 . S
H832 C827 0.930 . S
C833 O834 1.224 . S
C833 O852 1.247 . S
O834 C833 1.224 . S
N835 Co825 2.128 . S
N835 C836 1.355 . S
N835 C838 1.311 . S
C836 N835 1.355 . S
C836 C837 1.363 . S
C836 H848 0.929 . S
C837 C836 1.363 . S
C837 N839 1.375 . S
C837 H855 0.931 . S
C838 N835 1.311 . S
C838 N839 1.347 . S
C838 H849 0.929 . S
N839 C837 1.375 . S
N839 C838 1.347 . S
C840 C843 1.365 . S
C840 N845 1.328 . S
C840 H846 0.929 . S
C841 C842 1.362 . S
C841 C844 1.378 . S
C841 H856 0.929 . S
C842 C841 1.362 . S
C842 C843 1.366 . S
C843 C840 1.365 . S
C843 C842 1.366 . S
C843 H857 0.930 . S
C844 C841 1.378 . S
C844 N845 1.315 . S
C844 H847 0.930 . S
N845 Co825 2.194 . S
N845 C840 1.328 . S
N845 C844 1.315 . S
H846 C840 0.929 . S
H847 C844 0.930 . S
H848 C836 0.929 . S
H849 C838 0.929 . S
O850 Co825 2.351 . S
O850 C853 1.244 . S
O851 Co825 2.155 . S
O851 C853 1.240 . S
O852 Co825 2.096 . S
O852 C833 1.247 . S
C853 O850 1.244 . S
C853 O851 1.240 . S
H854 C828 0.931 . S
H855 C837 0.931 . S
H856 C841 0.929 . S
H857 C843 0.930 . S
Co858 N862 2.148 . S
Co858 N868 2.128 . S
Co858 N878 2.194 . S
Co858 O883 2.351 . S
Co858 O884 2.155 . S
Co858 O885 2.096 . S
C859 N862 1.301 . S
C859 N863 1.328 . S
C859 H864 0.930 . S
C860 C861 1.333 . S
C860 N862 1.317 . S
C860 H865 0.930 . S
C861 C860 1.333 . S
C861 N863 1.350 . S
C861 H887 0.931 . S
N862 Co858 2.148 . S
N862 C859 1.301 . S
N862 C860 1.317 . S
N863 C859 1.328 . S
N863 C861 1.350 . S
H864 C859 0.930 . S
H865 C860 0.930 . S
C866 O867 1.224 . S
C866 O885 1.247 . S
O867 C866 1.224 . S
N868 Co858 2.128 . S
N868 C869 1.355 . S
N868 C871 1.311 . S
C869 N868 1.355 . S
C869 C870 1.363 . S
C869 H881 0.929 . S
C870 C869 1.363 . S
C870 N872 1.375 . S
C870 H888 0.931 . S
C871 N868 1.311 . S
C871 N872 1.347 . S
C871 H882 0.929 . S
N872 C870 1.375 . S
N872 C871 1.347 . S
C873 C876 1.365 . S
C873 N878 1.328 . S
C873 H879 0.929 . S
C874 C875 1.362 . S
C874 C877 1.378 . S
C874 H889 0.929 . S
C875 C874 1.362 . S
C875 C876 1.366 . S
C876 C873 1.365 . S
C876 C875 1.366 . S
C876 H890 0.930 . S
C877 C874 1.378 . S
C877 N878 1.315 . S
C877 H880 0.930 . S
N878 Co858 2.194 . S
N878 C873 1.328 . S
N878 C877 1.315 . S
H879 C873 0.929 . S
H880 C877 0.930 . S
H881 C869 0.929 . S
H882 C871 0.929 . S
O883 Co858 2.351 . S
O883 C886 1.244 . S
O884 Co858 2.155 . S
O884 C886 1.240 . S
O885 Co858 2.096 . S
O885 C866 1.247 . S
C886 O883 1.244 . S
C886 O884 1.240 . S
H887 C861 0.931 . S
H888 C870 0.931 . S
H889 C874 0.929 . S
H890 C876 0.930 . S
Co891 N895 2.148 . S
Co891 N901 2.128 . S
Co891 N911 2.194 . S
Co891 O916 2.351 . S
Co891 O917 2.155 . S
Co891 O918 2.096 . S
C892 N895 1.301 . S
C892 N896 1.328 . S
C892 H897 0.930 . S
C893 C894 1.333 . S
C893 N895 1.317 . S
C893 H898 0.930 . S
C894 C893 1.333 . S
C894 N896 1.350 . S
C894 H920 0.931 . S
N895 Co891 2.148 . S
N895 C892 1.301 . S
N895 C893 1.317 . S
N896 C892 1.328 . S
N896 C894 1.350 . S
H897 C892 0.930 . S
H898 C893 0.930 . S
C899 O900 1.224 . S
C899 O918 1.247 . S
O900 C899 1.224 . S
N901 Co891 2.128 . S
N901 C902 1.355 . S
N901 C904 1.311 . S
C902 N901 1.355 . S
C902 C903 1.363 . S
C902 H914 0.929 . S
C903 C902 1.363 . S
C903 N905 1.375 . S
C903 H921 0.931 . S
C904 N901 1.311 . S
C904 N905 1.347 . S
C904 H915 0.929 . S
N905 C903 1.375 . S
N905 C904 1.347 . S
C906 C909 1.365 . S
C906 N911 1.328 . S
C906 H912 0.929 . S
C907 C908 1.362 . S
C907 C910 1.378 . S
C907 H922 0.929 . S
C908 C907 1.362 . S
C908 C909 1.366 . S
C909 C906 1.365 . S
C909 C908 1.366 . S
C909 H923 0.930 . S
C910 C907 1.378 . S
C910 N911 1.315 . S
C910 H913 0.930 . S
N911 Co891 2.194 . S
N911 C906 1.328 . S
N911 C910 1.315 . S
H912 C906 0.929 . S
H913 C910 0.930 . S
H914 C902 0.929 . S
H915 C904 0.929 . S
O916 Co891 2.351 . S
O916 C919 1.244 . S
O917 Co891 2.155 . S
O917 C919 1.240 . S
O918 Co891 2.096 . S
O918 C899 1.247 . S
C919 O916 1.244 . S
C919 O917 1.240 . S
H920 C894 0.931 . S
H921 C903 0.931 . S
H922 C907 0.929 . S
H923 C909 0.930 . S
Co924 N928 2.148 . S
Co924 N934 2.128 . S
Co924 N944 2.194 . S
Co924 O949 2.351 . S
Co924 O950 2.155 . S
Co924 O951 2.096 . S
C925 N928 1.301 . S
C925 N929 1.328 . S
C925 H930 0.930 . S
C926 C927 1.333 . S
C926 N928 1.317 . S
C926 H931 0.930 . S
C927 C926 1.333 . S
C927 N929 1.350 . S
C927 H953 0.931 . S
N928 Co924 2.148 . S
N928 C925 1.301 . S
N928 C926 1.317 . S
N929 C925 1.328 . S
N929 C927 1.350 . S
H930 C925 0.930 . S
H931 C926 0.930 . S
C932 O933 1.224 . S
C932 O951 1.247 . S
O933 C932 1.224 . S
N934 Co924 2.128 . S
N934 C935 1.355 . S
N934 C937 1.311 . S
C935 N934 1.355 . S
C935 C936 1.363 . S
C935 H947 0.929 . S
C936 C935 1.363 . S
C936 N938 1.375 . S
C936 H954 0.931 . S
C937 N934 1.311 . S
C937 N938 1.347 . S
C937 H948 0.929 . S
N938 C936 1.375 . S
N938 C937 1.347 . S
C939 C942 1.365 . S
C939 N944 1.328 . S
C939 H945 0.929 . S
C940 C941 1.362 . S
C940 C943 1.378 . S
C940 H955 0.929 . S
C941 C940 1.362 . S
C941 C942 1.366 . S
C942 C939 1.365 . S
C942 C941 1.366 . S
C942 H956 0.930 . S
C943 C940 1.378 . S
C943 N944 1.315 . S
C943 H946 0.930 . S
N944 Co924 2.194 . S
N944 C939 1.328 . S
N944 C943 1.315 . S
H945 C939 0.929 . S
H946 C943 0.930 . S
H947 C935 0.929 . S
H948 C937 0.929 . S
O949 Co924 2.351 . S
O949 C952 1.244 . S
O950 Co924 2.155 . S
O950 C952 1.240 . S
O951 Co924 2.096 . S
O951 C932 1.247 . S
C952 O949 1.244 . S
C952 O950 1.240 . S
H953 C927 0.931 . S
H954 C936 0.931 . S
H955 C940 0.929 . S
H956 C942 0.930 . S
Co957 N961 2.148 . S
Co957 N967 2.128 . S
Co957 N977 2.194 . S
Co957 O982 2.351 . S
Co957 O983 2.155 . S
Co957 O984 2.096 . S
C958 N961 1.301 . S
C958 N962 1.328 . S
C958 H963 0.930 . S
C959 C960 1.333 . S
C959 N961 1.317 . S
C959 H964 0.930 . S
C960 C959 1.333 . S
C960 N962 1.350 . S
C960 H986 0.931 . S
N961 Co957 2.148 . S
N961 C958 1.301 . S
N961 C959 1.317 . S
N962 C958 1.328 . S
N962 C960 1.350 . S
H963 C958 0.930 . S
H964 C959 0.930 . S
C965 O966 1.224 . S
C965 O984 1.247 . S
O966 C965 1.224 . S
N967 Co957 2.128 . S
N967 C968 1.355 . S
N967 C970 1.311 . S
C968 N967 1.355 . S
C968 C969 1.363 . S
C968 H980 0.929 . S
C969 C968 1.363 . S
C969 N971 1.375 . S
C969 H987 0.931 . S
C970 N967 1.311 . S
C970 N971 1.347 . S
C970 H981 0.929 . S
N971 C969 1.375 . S
N971 C970 1.347 . S
C972 C975 1.365 . S
C972 N977 1.328 . S
C972 H978 0.929 . S
C973 C974 1.362 . S
C973 C976 1.378 . S
C973 H988 0.929 . S
C974 C973 1.362 . S
C974 C975 1.366 . S
C975 C972 1.365 . S
C975 C974 1.366 . S
C975 H989 0.930 . S
C976 C973 1.378 . S
C976 N977 1.315 . S
C976 H979 0.930 . S
N977 Co957 2.194 . S
N977 C972 1.328 . S
N977 C976 1.315 . S
H978 C972 0.929 . S
H979 C976 0.930 . S
H980 C968 0.929 . S
H981 C970 0.929 . S
O982 Co957 2.351 . S
O982 C985 1.244 . S
O983 Co957 2.155 . S
O983 C985 1.240 . S
O984 Co957 2.096 . S
O984 C965 1.247 . S
C985 O982 1.244 . S
C985 O983 1.240 . S
H986 C960 0.931 . S
H987 C969 0.931 . S
H988 C973 0.929 . S
H989 C975 0.930 . S
Co990 N994 2.148 . S
Co990 N1000 2.128 . S
Co990 N1010 2.194 . S
Co990 O1015 2.351 . S
Co990 O1016 2.155 . S
Co990 O1017 2.096 . S
C991 N994 1.301 . S
C991 N995 1.328 . S
C991 H996 0.930 . S
C992 C993 1.333 . S
C992 N994 1.317 . S
C992 H997 0.930 . S
C993 C992 1.333 . S
C993 N995 1.350 . S
C993 H1019 0.931 . S
N994 Co990 2.148 . S
N994 C991 1.301 . S
N994 C992 1.317 . S
N995 C991 1.328 . S
N995 C993 1.350 . S
H996 C991 0.930 . S
H997 C992 0.930 . S
C998 O999 1.224 . S
C998 O1017 1.247 . S
O999 C998 1.224 . S
N1000 Co990 2.128 . S
N1000 C1001 1.355 . S
N1000 C1003 1.311 . S
C1001 N1000 1.355 . S
C1001 C1002 1.363 . S
C1001 H1013 0.929 . S
C1002 C1001 1.363 . S
C1002 N1004 1.375 . S
C1002 H1020 0.931 . S
C1003 N1000 1.311 . S
C1003 N1004 1.347 . S
C1003 H1014 0.929 . S
N1004 C1002 1.375 . S
N1004 C1003 1.347 . S
C1005 C1008 1.365 . S
C1005 N1010 1.328 . S
C1005 H1011 0.929 . S
C1006 C1007 1.362 . S
C1006 C1009 1.378 . S
C1006 H1021 0.929 . S
C1007 C1006 1.362 . S
C1007 C1008 1.366 . S
C1008 C1005 1.365 . S
C1008 C1007 1.366 . S
C1008 H1022 0.930 . S
C1009 C1006 1.378 . S
C1009 N1010 1.315 . S
C1009 H1012 0.930 . S
N1010 Co990 2.194 . S
N1010 C1005 1.328 . S
N1010 C1009 1.315 . S
H1011 C1005 0.929 . S
H1012 C1009 0.930 . S
H1013 C1001 0.929 . S
H1014 C1003 0.929 . S
O1015 Co990 2.351 . S
O1015 C1018 1.244 . S
O1016 Co990 2.155 . S
O1016 C1018 1.240 . S
O1017 Co990 2.096 . S
O1017 C998 1.247 . S
C1018 O1015 1.244 . S
C1018 O1016 1.240 . S
H1019 C993 0.931 . S
H1020 C1002 0.931 . S
H1021 C1006 0.929 . S
H1022 C1008 0.930 . S
Co1023 N1027 2.148 . S
Co1023 N1033 2.128 . S
Co1023 N1043 2.194 . S
Co1023 O1048 2.351 . S
Co1023 O1049 2.155 . S
Co1023 O1050 2.096 . S
C1024 N1027 1.301 . S
C1024 N1028 1.328 . S
C1024 H1029 0.930 . S
C1025 C1026 1.333 . S
C1025 N1027 1.317 . S
C1025 H1030 0.930 . S
C1026 C1025 1.333 . S
C1026 N1028 1.350 . S
C1026 H1052 0.931 . S
N1027 Co1023 2.148 . S
N1027 C1024 1.301 . S
N1027 C1025 1.317 . S
N1028 C1024 1.328 . S
N1028 C1026 1.350 . S
H1029 C1024 0.930 . S
H1030 C1025 0.930 . S
C1031 O1032 1.224 . S
C1031 O1050 1.247 . S
O1032 C1031 1.224 . S
N1033 Co1023 2.128 . S
N1033 C1034 1.355 . S
N1033 C1036 1.311 . S
C1034 N1033 1.355 . S
C1034 C1035 1.363 . S
C1034 H1046 0.929 . S
C1035 C1034 1.363 . S
C1035 N1037 1.375 . S
C1035 H1053 0.931 . S
C1036 N1033 1.311 . S
C1036 N1037 1.347 . S
C1036 H1047 0.929 . S
N1037 C1035 1.375 . S
N1037 C1036 1.347 . S
C1038 C1041 1.365 . S
C1038 N1043 1.328 . S
C1038 H1044 0.929 . S
C1039 C1040 1.362 . S
C1039 C1042 1.378 . S
C1039 H1054 0.929 . S
C1040 C1039 1.362 . S
C1040 C1041 1.366 . S
C1041 C1038 1.365 . S
C1041 C1040 1.366 . S
C1041 H1055 0.930 . S
C1042 C1039 1.378 . S
C1042 N1043 1.315 . S
C1042 H1045 0.930 . S
N1043 Co1023 2.194 . S
N1043 C1038 1.328 . S
N1043 C1042 1.315 . S
H1044 C1038 0.929 . S
H1045 C1042 0.930 . S
H1046 C1034 0.929 . S
H1047 C1036 0.929 . S
O1048 Co1023 2.351 . S
O1048 C1051 1.244 . S
O1049 Co1023 2.155 . S
O1049 C1051 1.240 . S
O1050 Co1023 2.096 . S
O1050 C1031 1.247 . S
C1051 O1048 1.244 . S
C1051 O1049 1.240 . S
H1052 C1026 0.931 . S
H1053 C1035 0.931 . S
H1054 C1039 0.929 . S
H1055 C1041 0.930 . S
Co1056 N1060 2.148 . S
Co1056 N1066 2.128 . S
Co1056 N1076 2.194 . S
Co1056 O1081 2.351 . S
Co1056 O1082 2.155 . S
Co1056 O1083 2.096 . S
C1057 N1060 1.301 . S
C1057 N1061 1.328 . S
C1057 H1062 0.930 . S
C1058 C1059 1.333 . S
C1058 N1060 1.317 . S
C1058 H1063 0.930 . S
C1059 C1058 1.333 . S
C1059 N1061 1.350 . S
C1059 H1085 0.931 . S
N1060 Co1056 2.148 . S
N1060 C1057 1.301 . S
N1060 C1058 1.317 . S
N1061 C1057 1.328 . S
N1061 C1059 1.350 . S
H1062 C1057 0.930 . S
H1063 C1058 0.930 . S
C1064 O1065 1.224 . S
C1064 O1083 1.247 . S
O1065 C1064 1.224 . S
N1066 Co1056 2.128 . S
N1066 C1067 1.355 . S
N1066 C1069 1.311 . S
C1067 N1066 1.355 . S
C1067 C1068 1.363 . S
C1067 H1079 0.929 . S
C1068 C1067 1.363 . S
C1068 N1070 1.375 . S
C1068 H1086 0.931 . S
C1069 N1066 1.311 . S
C1069 N1070 1.347 . S
C1069 H1080 0.929 . S
N1070 C1068 1.375 . S
N1070 C1069 1.347 . S
C1071 C1074 1.365 . S
C1071 N1076 1.328 . S
C1071 H1077 0.929 . S
C1072 C1073 1.362 . S
C1072 C1075 1.378 . S
C1072 H1087 0.929 . S
C1073 C1072 1.362 . S
C1073 C1074 1.366 . S
C1074 C1071 1.365 . S
C1074 C1073 1.366 . S
C1074 H1088 0.930 . S
C1075 C1072 1.378 . S
C1075 N1076 1.315 . S
C1075 H1078 0.930 . S
N1076 Co1056 2.194 . S
N1076 C1071 1.328 . S
N1076 C1075 1.315 . S
H1077 C1071 0.929 . S
H1078 C1075 0.930 . S
H1079 C1067 0.929 . S
H1080 C1069 0.929 . S
O1081 Co1056 2.351 . S
O1081 C1084 1.244 . S
O1082 Co1056 2.155 . S
O1082 C1084 1.240 . S
O1083 Co1056 2.096 . S
O1083 C1064 1.247 . S
C1084 O1081 1.244 . S
C1084 O1082 1.240 . S
H1085 C1059 0.931 . S
H1086 C1068 0.931 . S
H1087 C1072 0.929 . S
H1088 C1074 0.930 . S
Co1089 N1093 2.148 . S
Co1089 N1099 2.128 . S
Co1089 N1109 2.194 . S
Co1089 O1114 2.351 . S
Co1089 O1115 2.155 . S
Co1089 O1116 2.096 . S
C1090 N1093 1.301 . S
C1090 N1094 1.328 . S
C1090 H1095 0.930 . S
C1091 C1092 1.333 . S
C1091 N1093 1.317 . S
C1091 H1096 0.930 . S
C1092 C1091 1.333 . S
C1092 N1094 1.350 . S
C1092 H1118 0.931 . S
N1093 Co1089 2.148 . S
N1093 C1090 1.301 . S
N1093 C1091 1.317 . S
N1094 C1090 1.328 . S
N1094 C1092 1.350 . S
H1095 C1090 0.930 . S
H1096 C1091 0.930 . S
C1097 O1098 1.224 . S
C1097 O1116 1.247 . S
O1098 C1097 1.224 . S
N1099 Co1089 2.128 . S
N1099 C1100 1.355 . S
N1099 C1102 1.311 . S
C1100 N1099 1.355 . S
C1100 C1101 1.363 . S
C1100 H1112 0.929 . S
C1101 C1100 1.363 . S
C1101 N1103 1.375 . S
C1101 H1119 0.931 . S
C1102 N1099 1.311 . S
C1102 N1103 1.347 . S
C1102 H1113 0.929 . S
N1103 C1101 1.375 . S
N1103 C1102 1.347 . S
C1104 C1107 1.365 . S
C1104 N1109 1.328 . S
C1104 H1110 0.929 . S
C1105 C1106 1.362 . S
C1105 C1108 1.378 . S
C1105 H1120 0.929 . S
C1106 C1105 1.362 . S
C1106 C1107 1.366 . S
C1107 C1104 1.365 . S
C1107 C1106 1.366 . S
C1107 H1121 0.930 . S
C1108 C1105 1.378 . S
C1108 N1109 1.315 . S
C1108 H1111 0.930 . S
N1109 Co1089 2.194 . S
N1109 C1104 1.328 . S
N1109 C1108 1.315 . S
H1110 C1104 0.929 . S
H1111 C1108 0.930 . S
H1112 C1100 0.929 . S
H1113 C1102 0.929 . S
O1114 Co1089 2.351 . S
O1114 C1117 1.244 . S
O1115 Co1089 2.155 . S
O1115 C1117 1.240 . S
O1116 Co1089 2.096 . S
O1116 C1097 1.247 . S
C1117 O1114 1.244 . S
C1117 O1115 1.240 . S
H1118 C1092 0.931 . S
H1119 C1101 0.931 . S
H1120 C1105 0.929 . S
H1121 C1107 0.930 . S
Co1122 N1126 2.148 . S
Co1122 N1132 2.128 . S
Co1122 N1142 2.194 . S
Co1122 O1147 2.351 . S
Co1122 O1148 2.155 . S
Co1122 O1149 2.096 . S
C1123 N1126 1.301 . S
C1123 N1127 1.328 . S
C1123 H1128 0.930 . S
C1124 C1125 1.333 . S
C1124 N1126 1.317 . S
C1124 H1129 0.930 . S
C1125 C1124 1.333 . S
C1125 N1127 1.350 . S
C1125 H1151 0.931 . S
N1126 Co1122 2.148 . S
N1126 C1123 1.301 . S
N1126 C1124 1.317 . S
N1127 C1123 1.328 . S
N1127 C1125 1.350 . S
H1128 C1123 0.930 . S
H1129 C1124 0.930 . S
C1130 O1131 1.224 . S
C1130 O1149 1.247 . S
O1131 C1130 1.224 . S
N1132 Co1122 2.128 . S
N1132 C1133 1.355 . S
N1132 C1135 1.311 . S
C1133 N1132 1.355 . S
C1133 C1134 1.363 . S
C1133 H1145 0.929 . S
C1134 C1133 1.363 . S
C1134 N1136 1.375 . S
C1134 H1152 0.931 . S
C1135 N1132 1.311 . S
C1135 N1136 1.347 . S
C1135 H1146 0.929 . S
N1136 C1134 1.375 . S
N1136 C1135 1.347 . S
C1137 C1140 1.365 . S
C1137 N1142 1.328 . S
C1137 H1143 0.929 . S
C1138 C1139 1.362 . S
C1138 C1141 1.378 . S
C1138 H1153 0.929 . S
C1139 C1138 1.362 . S
C1139 C1140 1.366 . S
C1140 C1137 1.365 . S
C1140 C1139 1.366 . S
C1140 H1154 0.930 . S
C1141 C1138 1.378 . S
C1141 N1142 1.315 . S
C1141 H1144 0.930 . S
N1142 Co1122 2.194 . S
N1142 C1137 1.328 . S
N1142 C1141 1.315 . S
H1143 C1137 0.929 . S
H1144 C1141 0.930 . S
H1145 C1133 0.929 . S
H1146 C1135 0.929 . S
O1147 Co1122 2.351 . S
O1147 C1150 1.244 . S
O1148 Co1122 2.155 . S
O1148 C1150 1.240 . S
O1149 Co1122 2.096 . S
O1149 C1130 1.247 . S
C1150 O1147 1.244 . S
C1150 O1148 1.240 . S
H1151 C1125 0.931 . S
H1152 C1134 0.931 . S
H1153 C1138 0.929 . S
H1154 C1140 0.930 . S
Co1155 N1159 2.148 . S
Co1155 N1165 2.128 . S
Co1155 N1175 2.194 . S
Co1155 O1180 2.351 . S
Co1155 O1181 2.155 . S
Co1155 O1182 2.096 . S
C1156 N1159 1.301 . S
C1156 N1160 1.328 . S
C1156 H1161 0.930 . S
C1157 C1158 1.333 . S
C1157 N1159 1.317 . S
C1157 H1162 0.930 . S
C1158 C1157 1.333 . S
C1158 N1160 1.350 . S
C1158 H1184 0.931 . S
N1159 Co1155 2.148 . S
N1159 C1156 1.301 . S
N1159 C1157 1.317 . S
N1160 C1156 1.328 . S
N1160 C1158 1.350 . S
H1161 C1156 0.930 . S
H1162 C1157 0.930 . S
C1163 O1164 1.224 . S
C1163 O1182 1.247 . S
O1164 C1163 1.224 . S
N1165 Co1155 2.128 . S
N1165 C1166 1.355 . S
N1165 C1168 1.311 . S
C1166 N1165 1.355 . S
C1166 C1167 1.363 . S
C1166 H1178 0.929 . S
C1167 C1166 1.363 . S
C1167 N1169 1.375 . S
C1167 H1185 0.931 . S
C1168 N1165 1.311 . S
C1168 N1169 1.347 . S
C1168 H1179 0.929 . S
N1169 C1167 1.375 . S
N1169 C1168 1.347 . S
C1170 C1173 1.365 . S
C1170 N1175 1.328 . S
C1170 H1176 0.929 . S
C1171 C1172 1.362 . S
C1171 C1174 1.378 . S
C1171 H1186 0.929 . S
C1172 C1171 1.362 . S
C1172 C1173 1.366 . S
C1173 C1170 1.365 . S
C1173 C1172 1.366 . S
C1173 H1187 0.930 . S
C1174 C1171 1.378 . S
C1174 N1175 1.315 . S
C1174 H1177 0.930 . S
N1175 Co1155 2.194 . S
N1175 C1170 1.328 . S
N1175 C1174 1.315 . S
H1176 C1170 0.929 . S
H1177 C1174 0.930 . S
H1178 C1166 0.929 . S
H1179 C1168 0.929 . S
O1180 Co1155 2.351 . S
O1180 C1183 1.244 . S
O1181 Co1155 2.155 . S
O1181 C1183 1.240 . S
O1182 Co1155 2.096 . S
O1182 C1163 1.247 . S
C1183 O1180 1.244 . S
C1183 O1181 1.240 . S
H1184 C1158 0.931 . S
H1185 C1167 0.931 . S
H1186 C1171 0.929 . S
H1187 C1173 0.930 . S
H1188 C1196 0.950 . S
H1189 C1201 0.950 . S
H1190 C1198 0.950 . S
H1191 C1200 0.950 . S
H1192 C1202 0.950 . S
H1193 C1204 0.950 . S
H1194 C1206 0.950 . S
H1195 C1207 0.950 . S
C1196 H1188 0.950 . S
C1196 C1197 1.386 . S
C1196 C1198 1.391 . S
C1197 C1196 1.386 . S
C1197 C1201 1.393 . S
C1198 H1190 0.950 . S
C1198 C1196 1.391 . S
C1198 C1199 1.400 . S
C1199 C1198 1.400 . S
C1199 C1200 1.398 . S
C1199 C1205 1.491 . S
C1200 H1191 0.950 . S
C1200 C1199 1.398 . S
C1200 C1201 1.391 . S
C1201 H1189 0.950 . S
C1201 C1197 1.393 . S
C1201 C1200 1.391 . S
C1202 H1192 0.950 . S
C1202 C1203 1.386 . S
C1202 C1204 1.391 . S
C1203 C1202 1.386 . S
C1203 C1207 1.393 . S
C1204 H1193 0.950 . S
C1204 C1202 1.391 . S
C1204 C1205 1.400 . S
C1205 C1199 1.491 . S
C1205 C1204 1.400 . S
C1205 C1206 1.398 . S
C1206 H1194 0.950 . S
C1206 C1205 1.398 . S
C1206 C1207 1.391 . S
C1207 H1195 0.950 . S
C1207 C1203 1.393 . S
C1207 C1206 1.391 . S
H1208 C1216 0.950 . S
H1209 C1221 0.950 . S
H1210 C1218 0.950 . S
H1211 C1220 0.950 . S
H1212 C1222 0.950 1_556 S
H1213 C1224 0.950 . S
H1214 C1226 0.950 . S
H1215 C1227 0.950 . S
C1216 H1208 0.950 . S
C1216 C1217 1.386 . S
C1216 C1218 1.391 . S
C1217 C1216 1.386 . S
C1217 C1221 1.393 . S
C1218 H1210 0.950 . S
C1218 C1216 1.391 . S
C1218 C1219 1.400 . S
C1219 C1218 1.400 . S
C1219 C1220 1.398 . S
C1219 C1225 1.491 . S
C1220 H1211 0.950 . S
C1220 C1219 1.398 . S
C1220 C1221 1.391 . S
C1221 H1209 0.950 . S
C1221 C1217 1.393 . S
C1221 C1220 1.391 . S
C1222 H1212 0.950 1_554 S
C1222 C1223 1.386 . S
C1222 C1224 1.391 . S
C1223 C1222 1.386 . S
C1223 C1227 1.393 . S
C1224 H1213 0.950 . S
C1224 C1222 1.391 . S
C1224 C1225 1.400 . S
C1225 C1219 1.491 . S
C1225 C1224 1.400 . S
C1225 C1226 1.398 . S
C1226 H1214 0.950 . S
C1226 C1225 1.398 . S
C1226 C1227 1.391 . S
C1227 H1215 0.950 . S
C1227 C1223 1.393 . S
C1227 C1226 1.391 . S
H1228 C1236 0.960 . S
H1229 C1241 0.950 . S
H1230 C1238 0.950 . S
H1231 C1240 0.950 . S
H1232 C1242 0.950 . S
H1233 C1244 0.950 . S
H1234 C1246 0.950 . S
H1235 C1247 0.950 . S
C1236 H1228 0.960 . S
C1236 C1237 1.386 . S
C1236 C1238 1.391 . S
C1237 C1236 1.386 . S
C1237 C1241 1.393 . S
C1238 H1230 0.950 . S
C1238 C1236 1.391 . S
C1238 C1239 1.400 . S
C1239 C1238 1.400 . S
C1239 C1240 1.398 . S
C1239 C1245 1.491 . S
C1240 H1231 0.950 . S
C1240 C1239 1.398 . S
C1240 C1241 1.391 . S
C1241 H1229 0.950 . S
C1241 C1237 1.393 . S
C1241 C1240 1.391 . S
C1242 H1232 0.950 . S
C1242 C1243 1.386 . S
C1242 C1244 1.391 . S
C1243 C1242 1.386 . S
C1243 C1247 1.393 . S
C1244 H1233 0.950 . S
C1244 C1242 1.391 . S
C1244 C1245 1.400 . S
C1245 C1239 1.491 . S
C1245 C1244 1.400 . S
C1245 C1246 1.398 . S
C1246 H1234 0.950 . S
C1246 C1245 1.398 . S
C1246 C1247 1.391 . S
C1247 H1235 0.950 . S
C1247 C1243 1.393 . S
C1247 C1246 1.391 . S
H1248 C1256 0.950 . S
H1249 C1261 0.950 . S
H1250 C1258 0.950 . S
H1251 C1260 0.950 . S
H1252 C1262 0.950 . S
H1253 C1264 0.950 . S
H1254 C1266 0.950 . S
H1255 C1267 0.950 . S
C1256 H1248 0.950 . S
C1256 C1257 1.386 . S
C1256 C1258 1.391 . S
C1257 C1256 1.386 . S
C1257 C1261 1.393 . S
C1258 H1250 0.950 . S
C1258 C1256 1.391 . S
C1258 C1259 1.400 . S
C1259 C1258 1.400 . S
C1259 C1260 1.398 . S
C1259 C1265 1.491 . S
C1260 H1251 0.950 . S
C1260 C1259 1.398 . S
C1260 C1261 1.391 . S
C1261 H1249 0.950 . S
C1261 C1257 1.393 . S
C1261 C1260 1.391 . S
C1262 H1252 0.950 . S
C1262 C1263 1.386 . S
C1262 C1264 1.391 . S
C1263 C1262 1.386 . S
C1263 C1267 1.393 . S
C1264 H1253 0.950 . S
C1264 C1262 1.391 . S
C1264 C1265 1.400 . S
C1265 C1259 1.491 . S
C1265 C1264 1.400 . S
C1265 C1266 1.398 . S
C1266 H1254 0.950 . S
C1266 C1265 1.398 . S
C1266 C1267 1.391 . S
C1267 H1255 0.950 . S
C1267 C1263 1.393 . S
C1267 C1266 1.391 . S
H1268 C1276 0.950 . S
H1269 C1281 0.950 . S
H1270 C1278 0.950 . S
H1271 C1280 0.950 . S
H1272 C1282 0.950 1_554 S
H1273 C1284 0.950 . S
H1274 C1286 0.950 . S
H1275 C1287 0.950 . S
C1276 H1268 0.950 . S
C1276 C1277 1.386 . S
C1276 C1278 1.391 . S
C1277 C1276 1.386 . S
C1277 C1281 1.393 . S
C1278 H1270 0.950 . S
C1278 C1276 1.391 . S
C1278 C1279 1.400 . S
C1279 C1278 1.400 . S
C1279 C1280 1.398 . S
C1279 C1285 1.491 . S
C1280 H1271 0.950 . S
C1280 C1279 1.398 . S
C1280 C1281 1.391 . S
C1281 H1269 0.950 . S
C1281 C1277 1.393 . S
C1281 C1280 1.391 . S
C1282 H1272 0.950 1_556 S
C1282 C1283 1.386 . S
C1282 C1284 1.391 . S
C1283 C1282 1.386 . S
C1283 C1287 1.393 . S
C1284 H1273 0.950 . S
C1284 C1282 1.391 . S
C1284 C1285 1.400 . S
C1285 C1279 1.491 . S
C1285 C1284 1.400 . S
C1285 C1286 1.398 . S
C1286 H1274 0.950 . S
C1286 C1285 1.398 . S
C1286 C1287 1.391 . S
C1287 H1275 0.950 . S
C1287 C1283 1.393 . S
C1287 C1286 1.391 . S
H1288 C1296 0.950 . S
H1289 C1301 0.950 . S
H1290 C1298 0.950 . S
H1291 C1300 0.950 . S
H1292 C1302 0.950 . S
H1293 C1304 0.950 . S
H1294 C1306 0.950 . S
H1295 C1307 0.950 . S
C1296 H1288 0.950 . S
C1296 C1297 1.386 . S
C1296 C1298 1.391 . S
C1297 C1296 1.386 . S
C1297 C1301 1.393 . S
C1298 H1290 0.950 . S
C1298 C1296 1.391 . S
C1298 C1299 1.400 . S
C1299 C1298 1.400 . S
C1299 C1300 1.398 . S
C1299 C1305 1.491 . S
C1300 H1291 0.950 . S
C1300 C1299 1.398 . S
C1300 C1301 1.391 . S
C1301 H1289 0.950 . S
C1301 C1297 1.393 . S
C1301 C1300 1.391 . S
C1302 H1292 0.950 . S
C1302 C1303 1.386 . S
C1302 C1304 1.391 . S
C1303 C1302 1.386 . S
C1303 C1307 1.393 . S
C1304 H1293 0.950 . S
C1304 C1302 1.391 . S
C1304 C1305 1.400 . S
C1305 C1299 1.491 . S
C1305 C1304 1.400 . S
C1305 C1306 1.398 . S
C1306 H1294 0.950 . S
C1306 C1305 1.398 . S
C1306 C1307 1.391 . S
C1307 H1295 0.950 . S
C1307 C1303 1.393 . S
C1307 C1306 1.391 . S
H1308 C1316 0.950 . S
H1309 C1321 0.950 . S
H1310 C1318 0.950 . S
H1311 C1320 0.950 . S
H1312 C1322 0.950 . S
H1313 C1324 0.950 . S
H1314 C1326 0.950 . S
H1315 C1327 0.950 . S
C1316 H1308 0.950 . S
C1316 C1317 1.386 . S
C1316 C1318 1.391 . S
C1317 C1316 1.386 . S
C1317 C1321 1.393 . S
C1318 H1310 0.950 . S
C1318 C1316 1.391 . S
C1318 C1319 1.400 . S
C1319 C1318 1.400 . S
C1319 C1320 1.398 . S
C1319 C1325 1.491 . S
C1320 H1311 0.950 . S
C1320 C1319 1.398 . S
C1320 C1321 1.391 . S
C1321 H1309 0.950 . S
C1321 C1317 1.393 . S
C1321 C1320 1.391 . S
C1322 H1312 0.950 . S
C1322 C1323 1.386 . S
C1322 C1324 1.391 . S
C1323 C1322 1.386 . S
C1323 C1327 1.393 . S
C1324 H1313 0.950 . S
C1324 C1322 1.391 . S
C1324 C1325 1.400 . S
C1325 C1319 1.491 . S
C1325 C1324 1.400 . S
C1325 C1326 1.398 . S
C1326 H1314 0.950 . S
C1326 C1325 1.398 . S
C1326 C1327 1.391 . S
C1327 H1315 0.950 . S
C1327 C1323 1.393 . S
C1327 C1326 1.391 . S
H1328 C1336 0.950 . S
H1329 C1341 0.950 . S
H1330 C1338 0.950 . S
H1331 C1340 0.950 . S
H1332 C1342 0.950 1_554 S
H1333 C1344 0.950 . S
H1334 C1346 0.950 . S
H1335 C1347 0.950 . S
C1336 H1328 0.950 . S
C1336 C1337 1.386 . S
C1336 C1338 1.391 . S
C1337 C1336 1.386 . S
C1337 C1341 1.393 . S
C1338 H1330 0.950 . S
C1338 C1336 1.391 . S
C1338 C1339 1.400 . S
C1339 C1338 1.400 . S
C1339 C1340 1.398 . S
C1339 C1345 1.491 . S
C1340 H1331 0.950 . S
C1340 C1339 1.398 . S
C1340 C1341 1.391 . S
C1341 H1329 0.950 . S
C1341 C1337 1.393 . S
C1341 C1340 1.391 . S
C1342 H1332 0.950 1_556 S
C1342 C1343 1.386 . S
C1342 C1344 1.391 . S
C1343 C1342 1.386 . S
C1343 C1347 1.393 . S
C1344 H1333 0.950 . S
C1344 C1342 1.391 . S
C1344 C1345 1.400 . S
C1345 C1339 1.491 . S
C1345 C1344 1.400 . S
C1345 C1346 1.398 . S
C1346 H1334 0.950 . S
C1346 C1345 1.398 . S
C1346 C1347 1.391 . S
C1347 H1335 0.950 . S
C1347 C1343 1.393 . S
C1347 C1346 1.391 . S
H1348 C1356 0.950 1_554 S
H1349 C1361 0.950 . S
H1350 C1358 0.950 . S
H1351 C1360 0.950 . S
H1352 C1362 0.950 . S
H1353 C1364 0.950 . S
H1354 C1366 0.950 . S
H1355 C1367 0.950 . S
C1356 H1348 0.950 1_556 S
C1356 C1357 1.386 . S
C1356 C1358 1.391 . S
C1357 C1356 1.386 . S
C1357 C1361 1.393 . S
C1358 H1350 0.950 . S
C1358 C1356 1.391 . S
C1358 C1359 1.400 . S
C1359 C1358 1.400 . S
C1359 C1360 1.398 . S
C1359 C1365 1.491 . S
C1360 H1351 0.950 . S
C1360 C1359 1.398 . S
C1360 C1361 1.391 . S
C1361 H1349 0.950 . S
C1361 C1357 1.393 . S
C1361 C1360 1.391 . S
C1362 H1352 0.950 . S
C1362 C1363 1.386 . S
C1362 C1364 1.391 . S
C1363 C1362 1.386 . S
C1363 C1367 1.393 . S
C1364 H1353 0.950 . S
C1364 C1362 1.391 . S
C1364 C1365 1.400 . S
C1365 C1359 1.491 . S
C1365 C1364 1.400 . S
C1365 C1366 1.398 . S
C1366 H1354 0.950 . S
C1366 C1365 1.398 . S
C1366 C1367 1.391 . S
C1367 H1355 0.950 . S
C1367 C1363 1.393 . S
C1367 C1366 1.391 . S
H1368 C1376 0.950 . S
H1369 C1381 0.950 . S
H1370 C1378 0.950 . S
H1371 C1380 0.950 . S
H1372 C1382 0.950 . S
H1373 C1384 0.950 . S
H1374 C1386 0.950 . S
H1375 C1387 0.950 . S
C1376 H1368 0.950 . S
C1376 C1377 1.386 . S
C1376 C1378 1.391 . S
C1377 C1376 1.386 . S
C1377 C1381 1.393 . S
C1378 H1370 0.950 . S
C1378 C1376 1.391 . S
C1378 C1379 1.400 . S
C1379 C1378 1.400 . S
C1379 C1380 1.398 . S
C1379 C1385 1.491 . S
C1380 H1371 0.950 . S
C1380 C1379 1.398 . S
C1380 C1381 1.391 . S
C1381 H1369 0.950 . S
C1381 C1377 1.393 . S
C1381 C1380 1.391 . S
C1382 H1372 0.950 . S
C1382 C1383 1.386 . S
C1382 C1384 1.391 . S
C1383 C1382 1.386 . S
C1383 C1387 1.393 . S
C1384 H1373 0.950 . S
C1384 C1382 1.391 . S
C1384 C1385 1.400 . S
C1385 C1379 1.491 . S
C1385 C1384 1.400 . S
C1385 C1386 1.398 . S
C1386 H1374 0.950 . S
C1386 C1385 1.398 . S
C1386 C1387 1.391 . S
C1387 H1375 0.950 . S
C1387 C1383 1.393 . S
C1387 C1386 1.391 . S
H1388 C1396 0.950 . S
H1389 C1401 0.950 . S
H1390 C1398 0.950 . S
H1391 C1400 0.950 . S
H1392 C1402 0.950 . S
H1393 C1404 0.950 . S
H1394 C1406 0.950 . S
H1395 C1407 0.950 . S
C1396 H1388 0.950 . S
C1396 C1397 1.386 . S
C1396 C1398 1.391 . S
C1397 C1396 1.386 . S
C1397 C1401 1.393 . S
C1398 H1390 0.950 . S
C1398 C1396 1.391 . S
C1398 C1399 1.400 . S
C1399 C1398 1.400 . S
C1399 C1400 1.398 . S
C1399 C1405 1.491 . S
C1400 H1391 0.950 . S
C1400 C1399 1.398 . S
C1400 C1401 1.391 . S
C1401 H1389 0.950 . S
C1401 C1397 1.393 . S
C1401 C1400 1.391 . S
C1402 H1392 0.950 . S
C1402 C1403 1.386 . S
C1402 C1404 1.391 . S
C1403 C1402 1.386 . S
C1403 C1407 1.393 . S
C1404 H1393 0.950 . S
C1404 C1402 1.391 . S
C1404 C1405 1.400 . S
C1405 C1399 1.491 . S
C1405 C1404 1.400 . S
C1405 C1406 1.398 . S
C1406 H1394 0.950 . S
C1406 C1405 1.398 . S
C1406 C1407 1.391 . S
C1407 H1395 0.950 . S
C1407 C1403 1.393 . S
C1407 C1406 1.391 . S
H1408 C1416 0.950 . S
H1409 C1421 0.950 . S
H1410 C1418 0.950 . S
H1411 C1420 0.950 . S
H1412 C1422 0.950 . S
H1413 C1424 0.950 . S
H1414 C1426 0.950 . S
H1415 C1427 0.950 . S
C1416 H1408 0.950 . S
C1416 C1417 1.386 . S
C1416 C1418 1.391 . S
C1417 C1416 1.386 . S
C1417 C1421 1.393 . S
C1418 H1410 0.950 . S
C1418 C1416 1.391 . S
C1418 C1419 1.400 . S
C1419 C1418 1.400 . S
C1419 C1420 1.398 . S
C1419 C1425 1.491 . S
C1420 H1411 0.950 . S
C1420 C1419 1.398 . S
C1420 C1421 1.391 . S
C1421 H1409 0.950 . S
C1421 C1417 1.393 . S
C1421 C1420 1.391 . S
C1422 H1412 0.950 . S
C1422 C1423 1.386 . S
C1422 C1424 1.391 . S
C1423 C1422 1.386 . S
C1423 C1427 1.393 . S
C1424 H1413 0.950 . S
C1424 C1422 1.391 . S
C1424 C1425 1.400 . S
C1425 C1419 1.491 . S
C1425 C1424 1.400 . S
C1425 C1426 1.398 . S
C1426 H1414 0.950 . S
C1426 C1425 1.398 . S
C1426 C1427 1.391 . S
C1427 H1415 0.950 . S
C1427 C1423 1.393 . S
C1427 C1426 1.391 . S
H1428 C1436 0.950 . S
H1429 C1441 0.950 . S
H1430 C1438 0.950 . S
H1431 C1440 0.950 . S
H1432 C1442 0.950 . S
H1433 C1444 0.950 . S
H1434 C1446 0.950 . S
H1435 C1447 0.950 . S
C1436 H1428 0.950 . S
C1436 C1437 1.386 . S
C1436 C1438 1.391 . S
C1437 C1436 1.386 . S
C1437 C1441 1.393 . S
C1438 H1430 0.950 . S
C1438 C1436 1.391 . S
C1438 C1439 1.400 . S
C1439 C1438 1.400 . S
C1439 C1440 1.398 . S
C1439 C1445 1.491 . S
C1440 H1431 0.950 . S
C1440 C1439 1.398 . S
C1440 C1441 1.391 . S
C1441 H1429 0.950 . S
C1441 C1437 1.393 . S
C1441 C1440 1.391 . S
C1442 H1432 0.950 . S
C1442 C1443 1.386 . S
C1442 C1444 1.391 . S
C1443 C1442 1.386 . S
C1443 C1447 1.393 . S
C1444 H1433 0.950 . S
C1444 C1442 1.391 . S
C1444 C1445 1.400 . S
C1445 C1439 1.491 . S
C1445 C1444 1.400 . S
C1445 C1446 1.398 . S
C1446 H1434 0.950 . S
C1446 C1445 1.398 . S
C1446 C1447 1.391 . S
C1447 H1435 0.950 . S
C1447 C1443 1.393 . S
C1447 C1446 1.391 . S
H1448 C1456 0.950 . S
H1449 C1461 0.950 . S
H1450 C1458 0.950 . S
H1451 C1460 0.950 . S
H1452 C1462 0.950 . S
H1453 C1464 0.950 . S
H1454 C1466 0.950 . S
H1455 C1467 0.950 . S
C1456 H1448 0.950 . S
C1456 C1457 1.386 . S
C1456 C1458 1.391 . S
C1457 C1456 1.386 . S
C1457 C1461 1.393 . S
C1458 H1450 0.950 . S
C1458 C1456 1.391 . S
C1458 C1459 1.400 . S
C1459 C1458 1.400 . S
C1459 C1460 1.398 . S
C1459 C1465 1.491 1_545 S
C1460 H1451 0.950 . S
C1460 C1459 1.398 . S
C1460 C1461 1.391 . S
C1461 H1449 0.950 . S
C1461 C1457 1.393 . S
C1461 C1460 1.391 . S
C1462 H1452 0.950 . S
C1462 C1463 1.386 . S
C1462 C1464 1.391 . S
C1463 C1462 1.386 . S
C1463 C1467 1.393 . S
C1464 H1453 0.950 . S
C1464 C1462 1.391 . S
C1464 C1465 1.400 . S
C1465 C1459 1.491 1_565 S
C1465 C1464 1.400 . S
C1465 C1466 1.398 . S
C1466 H1454 0.950 . S
C1466 C1465 1.398 . S
C1466 C1467 1.391 . S
C1467 H1455 0.950 . S
C1467 C1463 1.393 . S
C1467 C1466 1.391 . S
H1468 C1476 0.950 . S
H1469 C1481 0.950 . S
H1470 C1478 0.950 1_655 S
H1471 C1480 0.950 . S
H1472 C1482 0.950 . S
H1473 C1484 0.950 1_455 S
H1474 C1486 0.950 . S
H1475 C1487 0.950 . S
C1476 H1468 0.950 . S
C1476 C1477 1.386 . S
C1476 C1478 1.391 . S
C1477 C1476 1.386 . S
C1477 C1481 1.393 . S
C1478 H1470 0.950 1_455 S
C1478 C1476 1.391 . S
C1478 C1479 1.400 . S
C1479 C1478 1.400 . S
C1479 C1480 1.398 . S
C1479 C1485 1.491 1_455 S
C1480 H1471 0.950 . S
C1480 C1479 1.398 . S
C1480 C1481 1.391 . S
C1481 H1469 0.950 . S
C1481 C1477 1.393 . S
C1481 C1480 1.391 . S
C1482 H1472 0.950 . S
C1482 C1483 1.386 . S
C1482 C1484 1.391 . S
C1483 C1482 1.386 . S
C1483 C1487 1.393 . S
C1484 H1473 0.950 1_655 S
C1484 C1482 1.391 . S
C1484 C1485 1.400 . S
C1485 C1479 1.491 1_655 S
C1485 C1484 1.400 . S
C1485 C1486 1.398 . S
C1486 H1474 0.950 . S
C1486 C1485 1.398 . S
C1486 C1487 1.391 . S
C1487 H1475 0.950 . S
C1487 C1483 1.393 . S
C1487 C1486 1.391 . S
H1488 C1496 0.950 . S
H1489 C1501 0.950 . S
H1490 C1498 0.950 . S
H1491 C1500 0.950 . S
H1492 C1502 0.950 . S
H1493 C1504 0.950 . S
H1494 C1506 0.950 . S
H1495 C1507 0.950 . S
C1496 H1488 0.950 . S
C1496 C1497 1.386 . S
C1496 C1498 1.391 . S
C1497 C1496 1.386 . S
C1497 C1501 1.393 . S
C1498 H1490 0.950 . S
C1498 C1496 1.391 . S
C1498 C1499 1.400 . S
C1499 C1498 1.400 . S
C1499 C1500 1.398 . S
C1499 C1505 1.491 . S
C1500 H1491 0.950 . S
C1500 C1499 1.398 . S
C1500 C1501 1.391 . S
C1501 H1489 0.950 . S
C1501 C1497 1.393 . S
C1501 C1500 1.391 . S
C1502 H1492 0.950 . S
C1502 C1503 1.386 . S
C1502 C1504 1.391 . S
C1503 C1502 1.386 . S
C1503 C1507 1.393 . S
C1504 H1493 0.950 . S
C1504 C1502 1.391 . S
C1504 C1505 1.400 . S
C1505 C1499 1.491 . S
C1505 C1504 1.400 . S
C1505 C1506 1.398 . S
C1506 H1494 0.950 . S
C1506 C1505 1.398 . S
C1506 C1507 1.391 . S
C1507 H1495 0.950 . S
C1507 C1503 1.393 . S
C1507 C1506 1.391 . S
H1508 C1516 0.950 . S
H1509 C1521 0.950 . S
H1510 C1518 0.950 . S
H1511 C1520 0.950 . S
H1512 C1522 0.950 . S
H1513 C1524 0.950 . S
H1514 C1526 0.950 . S
H1515 C1527 0.950 . S
C1516 H1508 0.950 . S
C1516 C1517 1.386 . S
C1516 C1518 1.391 . S
C1517 C1516 1.386 . S
C1517 C1521 1.393 . S
C1518 H1510 0.950 . S
C1518 C1516 1.391 . S
C1518 C1519 1.400 . S
C1519 C1518 1.400 . S
C1519 C1520 1.398 . S
C1519 C1525 1.491 1_565 S
C1520 H1511 0.950 . S
C1520 C1519 1.398 . S
C1520 C1521 1.391 . S
C1521 H1509 0.950 . S
C1521 C1517 1.393 . S
C1521 C1520 1.391 . S
C1522 H1512 0.950 . S
C1522 C1523 1.386 . S
C1522 C1524 1.391 . S
C1523 C1522 1.386 . S
C1523 C1527 1.393 . S
C1524 H1513 0.950 . S
C1524 C1522 1.391 . S
C1524 C1525 1.400 . S
C1525 C1519 1.491 1_545 S
C1525 C1524 1.400 . S
C1525 C1526 1.398 . S
C1526 H1514 0.950 . S
C1526 C1525 1.398 . S
C1526 C1527 1.391 . S
C1527 H1515 0.950 . S
C1527 C1523 1.393 . S
C1527 C1526 1.391 . S
H1528 C1536 0.950 . S
H1529 C1541 0.950 . S
H1530 C1538 0.950 . S
H1531 C1540 0.950 . S
H1532 C1542 0.950 . S
H1533 C1544 0.950 . S
H1534 C1546 0.950 . S
H1535 C1547 0.950 . S
C1536 H1528 0.950 . S
C1536 C1537 1.386 . S
C1536 C1538 1.391 . S
C1537 C1536 1.386 . S
C1537 C1541 1.393 . S
C1538 H1530 0.950 . S
C1538 C1536 1.391 . S
C1538 C1539 1.400 . S
C1539 C1538 1.400 . S
C1539 C1540 1.398 . S
C1539 C1545 1.491 1_655 S
C1540 H1531 0.950 . S
C1540 C1539 1.398 . S
C1540 C1541 1.391 . S
C1541 H1529 0.950 . S
C1541 C1537 1.393 . S
C1541 C1540 1.391 . S
C1542 H1532 0.950 . S
C1542 C1543 1.386 . S
C1542 C1544 1.391 . S
C1543 C1542 1.386 . S
C1543 C1547 1.393 . S
C1544 H1533 0.950 . S
C1544 C1542 1.391 . S
C1544 C1545 1.400 . S
C1545 C1539 1.491 1_455 S
C1545 C1544 1.400 . S
C1545 C1546 1.398 . S
C1546 H1534 0.950 . S
C1546 C1545 1.398 . S
C1546 C1547 1.391 . S
C1547 H1535 0.950 . S
C1547 C1543 1.393 . S
C1547 C1546 1.391 . S
H1548 C1556 0.950 . S
H1549 C1561 0.950 . S
H1550 C1558 0.950 . S
H1551 C1560 0.950 . S
H1552 C1562 0.950 . S
H1553 C1564 0.950 . S
H1554 C1566 0.950 . S
H1555 C1567 0.950 . S
C1556 H1548 0.950 . S
C1556 C1557 1.386 1_556 S
C1556 C1558 1.391 . S
C1557 C1556 1.386 1_554 S
C1557 C1561 1.393 . S
C1558 H1550 0.950 . S
C1558 C1556 1.391 . S
C1558 C1559 1.400 1_556 S
C1559 C1558 1.400 1_554 S
C1559 C1560 1.398 . S
C1559 C1565 1.491 . S
C1560 H1551 0.950 . S
C1560 C1559 1.398 . S
C1560 C1561 1.391 . S
C1561 H1549 0.950 . S
C1561 C1557 1.393 . S
C1561 C1560 1.391 . S
C1562 H1552 0.950 . S
C1562 C1563 1.386 . S
C1562 C1564 1.391 . S
C1563 C1562 1.386 . S
C1563 C1567 1.393 1_554 S
C1564 H1553 0.950 . S
C1564 C1562 1.391 . S
C1564 C1565 1.400 . S
C1565 C1559 1.491 . S
C1565 C1564 1.400 . S
C1565 C1566 1.398 1_554 S
C1566 H1554 0.950 . S
C1566 C1565 1.398 1_556 S
C1566 C1567 1.391 . S
C1567 H1555 0.950 . S
C1567 C1563 1.393 1_556 S
C1567 C1566 1.391 . S
H1568 C1576 0.950 . S
H1569 C1581 0.950 . S
H1570 C1578 0.950 . S
H1571 C1580 0.950 . S
H1572 C1582 0.950 . S
H1573 C1584 0.950 . S
H1574 C1586 0.950 . S
H1575 C1587 0.950 . S
C1576 H1568 0.950 . S
C1576 C1577 1.386 1_556 S
C1576 C1578 1.391 . S
C1577 C1576 1.386 1_554 S
C1577 C1581 1.393 . S
C1578 H1570 0.950 . S
C1578 C1576 1.391 . S
C1578 C1579 1.400 1_556 S
C1579 C1578 1.400 1_554 S
C1579 C1580 1.398 . S
C1579 C1585 1.491 . S
C1580 H1571 0.950 . S
C1580 C1579 1.398 . S
C1580 C1581 1.391 . S
C1581 H1569 0.950 . S
C1581 C1577 1.393 . S
C1581 C1580 1.391 . S
C1582 H1572 0.950 . S
C1582 C1583 1.386 . S
C1582 C1584 1.391 . S
C1583 C1582 1.386 . S
C1583 C1587 1.393 1_554 S
C1584 H1573 0.950 . S
C1584 C1582 1.391 . S
C1584 C1585 1.400 . S
C1585 C1579 1.491 . S
C1585 C1584 1.400 . S
C1585 C1586 1.398 1_554 S
C1586 H1574 0.950 . S
C1586 C1585 1.398 1_556 S
C1586 C1587 1.391 . S
C1587 H1575 0.950 . S
C1587 C1583 1.393 1_556 S
C1587 C1586 1.391 . S
H1588 C1596 0.950 . S
H1589 C1601 0.950 . S
H1590 C1598 0.950 . S
H1591 C1600 0.950 . S
H1592 C1602 0.950 . S
H1593 C1604 0.950 . S
H1594 C1606 0.950 . S
H1595 C1607 0.950 . S
C1596 H1588 0.950 . S
C1596 C1597 1.386 1_556 S
C1596 C1598 1.391 . S
C1597 C1596 1.386 1_554 S
C1597 C1601 1.393 . S
C1598 H1590 0.950 . S
C1598 C1596 1.391 . S
C1598 C1599 1.400 1_556 S
C1599 C1598 1.400 1_554 S
C1599 C1600 1.398 . S
C1599 C1605 1.491 . S
C1600 H1591 0.950 . S
C1600 C1599 1.398 . S
C1600 C1601 1.391 . S
C1601 H1589 0.950 . S
C1601 C1597 1.393 . S
C1601 C1600 1.391 . S
C1602 H1592 0.950 . S
C1602 C1603 1.386 . S
C1602 C1604 1.391 . S
C1603 C1602 1.386 . S
C1603 C1607 1.393 1_554 S
C1604 H1593 0.950 . S
C1604 C1602 1.391 . S
C1604 C1605 1.400 . S
C1605 C1599 1.491 . S
C1605 C1604 1.400 . S
C1605 C1606 1.398 1_554 S
C1606 H1594 0.950 . S
C1606 C1605 1.398 1_556 S
C1606 C1607 1.391 . S
C1607 H1595 0.950 . S
C1607 C1603 1.393 1_556 S
C1607 C1606 1.391 . S
H1608 C1616 0.950 . S
H1609 C1621 0.950 . S
H1610 C1618 0.950 . S
H1611 C1620 0.950 . S
H1612 C1622 0.950 . S
H1613 C1624 0.950 . S
H1614 C1626 0.950 . S
H1615 C1627 0.950 . S
C1616 H1608 0.950 . S
C1616 C1617 1.386 1_554 S
C1616 C1618 1.391 . S
C1617 C1616 1.386 1_556 S
C1617 C1621 1.393 . S
C1618 H1610 0.950 . S
C1618 C1616 1.391 . S
C1618 C1619 1.400 1_554 S
C1619 C1618 1.400 1_556 S
C1619 C1620 1.398 . S
C1619 C1625 1.491 . S
C1620 H1611 0.950 . S
C1620 C1619 1.398 . S
C1620 C1621 1.391 . S
C1621 H1609 0.950 . S
C1621 C1617 1.393 . S
C1621 C1620 1.391 . S
C1622 H1612 0.950 . S
C1622 C1623 1.386 . S
C1622 C1624 1.391 . S
C1623 C1622 1.386 . S
C1623 C1627 1.393 1_556 S
C1624 H1613 0.950 . S
C1624 C1622 1.391 . S
C1624 C1625 1.400 . S
C1625 C1619 1.491 . S
C1625 C1624 1.400 . S
C1625 C1626 1.398 1_556 S
C1626 H1614 0.950 . S
C1626 C1625 1.398 1_554 S
C1626 C1627 1.391 . S
C1627 H1615 0.950 . S
C1627 C1623 1.393 1_554 S
C1627 C1626 1.391 . S
H1628 C1636 0.950 . S
H1629 C1641 0.950 . S
H1630 C1638 0.950 . S
H1631 C1640 0.950 . S
H1632 C1642 0.950 . S
H1633 C1644 0.950 . S
H1634 C1646 0.950 . S
H1635 C1647 0.950 . S
C1636 H1628 0.950 . S
C1636 C1637 1.386 . S
C1636 C1638 1.391 . S
C1637 C1636 1.386 . S
C1637 C1641 1.393 1_556 S
C1638 H1630 0.950 . S
C1638 C1636 1.391 . S
C1638 C1639 1.400 . S
C1639 C1638 1.400 . S
C1639 C1640 1.398 1_556 S
C1639 C1645 1.491 . S
C1640 H1631 0.950 . S
C1640 C1639 1.398 1_554 S
C1640 C1641 1.391 . S
C1641 H1629 0.950 . S
C1641 C1637 1.393 1_554 S
C1641 C1640 1.391 . S
C1642 H1632 0.950 . S
C1642 C1643 1.386 1_554 S
C1642 C1644 1.391 . S
C1643 C1642 1.386 1_556 S
C1643 C1647 1.393 . S
C1644 H1633 0.950 . S
C1644 C1642 1.391 . S
C1644 C1645 1.400 1_554 S
C1645 C1639 1.491 . S
C1645 C1644 1.400 1_556 S
C1645 C1646 1.398 . S
C1646 H1634 0.950 . S
C1646 C1645 1.398 . S
C1646 C1647 1.391 . S
C1647 H1635 0.950 . S
C1647 C1643 1.393 . S
C1647 C1646 1.391 . S
H1648 C1656 0.950 . S
H1649 C1661 0.950 . S
H1650 C1658 0.950 . S
H1651 C1660 0.950 . S
H1652 C1662 0.950 . S
H1653 C1664 0.950 . S
H1654 C1666 0.950 . S
H1655 C1667 0.950 . S
C1656 H1648 0.950 . S
C1656 C1657 1.386 1_554 S
C1656 C1658 1.391 . S
C1657 C1656 1.386 1_556 S
C1657 C1661 1.393 . S
C1658 H1650 0.950 . S
C1658 C1656 1.391 . S
C1658 C1659 1.400 1_554 S
C1659 C1658 1.400 1_556 S
C1659 C1660 1.398 . S
C1659 C1665 1.491 . S
C1660 H1651 0.950 . S
C1660 C1659 1.398 . S
C1660 C1661 1.391 . S
C1661 H1649 0.950 . S
C1661 C1657 1.393 . S
C1661 C1660 1.391 . S
C1662 H1652 0.950 . S
C1662 C1663 1.386 . S
C1662 C1664 1.391 . S
C1663 C1662 1.386 . S
C1663 C1667 1.393 1_556 S
C1664 H1653 0.950 . S
C1664 C1662 1.391 . S
C1664 C1665 1.400 . S
C1665 C1659 1.491 . S
C1665 C1664 1.400 . S
C1665 C1666 1.398 1_556 S
C1666 H1654 0.950 . S
C1666 C1665 1.398 1_554 S
C1666 C1667 1.391 . S
C1667 H1655 0.950 . S
C1667 C1663 1.393 1_554 S
C1667 C1666 1.391 . S
H1668 C1676 0.950 . S
H1669 C1681 0.950 . S
H1670 C1678 0.950 . S
H1671 C1680 0.950 . S
H1672 C1682 0.950 . S
H1673 C1684 0.950 . S
H1674 C1686 0.950 . S
H1675 C1687 0.950 . S
C1676 H1668 0.950 . S
C1676 C1677 1.386 . S
C1676 C1678 1.391 . S
C1677 C1676 1.386 . S
C1677 C1681 1.393 . S
C1678 H1670 0.950 . S
C1678 C1676 1.391 . S
C1678 C1679 1.400 . S
C1679 C1678 1.400 . S
C1679 C1680 1.398 . S
C1679 C1685 1.491 . S
C1680 H1671 0.950 . S
C1680 C1679 1.398 . S
C1680 C1681 1.391 . S
C1681 H1669 0.950 . S
C1681 C1677 1.393 . S
C1681 C1680 1.391 . S
C1682 H1672 0.950 . S
C1682 C1683 1.386 . S
C1682 C1684 1.391 . S
C1683 C1682 1.386 . S
C1683 C1687 1.393 . S
C1684 H1673 0.950 . S
C1684 C1682 1.391 . S
C1684 C1685 1.400 . S
C1685 C1679 1.491 . S
C1685 C1684 1.400 . S
C1685 C1686 1.398 . S
C1686 H1674 0.950 . S
C1686 C1685 1.398 . S
C1686 C1687 1.391 . S
C1687 H1675 0.950 . S
C1687 C1683 1.393 . S
C1687 C1686 1.391 . S
H1688 C1696 0.950 . S
H1689 C1701 0.950 . S
H1690 C1698 0.950 . S
H1691 C1700 0.950 . S
H1692 C1702 0.950 . S
H1693 C1704 0.950 . S
H1694 C1706 0.950 . S
H1695 C1707 0.950 . S
C1696 H1688 0.950 . S
C1696 C1697 1.386 . S
C1696 C1698 1.391 . S
C1697 C1696 1.386 . S
C1697 C1701 1.393 . S
C1698 H1690 0.950 . S
C1698 C1696 1.391 . S
C1698 C1699 1.400 . S
C1699 C1698 1.400 . S
C1699 C1700 1.398 . S
C1699 C1705 1.491 . S
C1700 H1691 0.950 . S
C1700 C1699 1.398 . S
C1700 C1701 1.391 . S
C1701 H1689 0.950 . S
C1701 C1697 1.393 . S
C1701 C1700 1.391 . S
C1702 H1692 0.950 . S
C1702 C1703 1.386 . S
C1702 C1704 1.391 . S
C1703 C1702 1.386 . S
C1703 C1707 1.393 . S
C1704 H1693 0.950 . S
C1704 C1702 1.391 . S
C1704 C1705 1.400 . S
C1705 C1699 1.491 . S
C1705 C1704 1.400 . S
C1705 C1706 1.398 . S
C1706 H1694 0.950 . S
C1706 C1705 1.398 . S
C1706 C1707 1.391 . S
C1707 H1695 0.950 . S
C1707 C1703 1.393 . S
C1707 C1706 1.391 . S
H1708 C1716 0.950 . S
H1709 C1721 0.950 . S
H1710 C1718 0.950 . S
H1711 C1720 0.950 . S
H1712 C1722 0.950 . S
H1713 C1724 0.950 . S
H1714 C1726 0.950 . S
H1715 C1727 0.950 . S
C1716 H1708 0.950 . S
C1716 C1717 1.386 . S
C1716 C1718 1.391 . S
C1717 C1716 1.386 . S
C1717 C1721 1.393 . S
C1718 H1710 0.950 . S
C1718 C1716 1.391 . S
C1718 C1719 1.400 . S
C1719 C1718 1.400 . S
C1719 C1720 1.398 . S
C1719 C1725 1.491 . S
C1720 H1711 0.950 . S
C1720 C1719 1.398 . S
C1720 C1721 1.391 . S
C1721 H1709 0.950 . S
C1721 C1717 1.393 . S
C1721 C1720 1.391 . S
C1722 H1712 0.950 . S
C1722 C1723 1.386 . S
C1722 C1724 1.391 . S
C1723 C1722 1.386 . S
C1723 C1727 1.393 . S
C1724 H1713 0.950 . S
C1724 C1722 1.391 . S
C1724 C1725 1.400 . S
C1725 C1719 1.491 . S
C1725 C1724 1.400 . S
C1725 C1726 1.398 . S
C1726 H1714 0.950 . S
C1726 C1725 1.398 . S
C1726 C1727 1.391 . S
C1727 H1715 0.950 . S
C1727 C1723 1.393 . S
C1727 C1726 1.391 . S
H1728 C1736 0.950 . S
H1729 C1741 0.950 . S
H1730 C1738 0.950 . S
H1731 C1740 0.950 . S
H1732 C1742 0.950 . S
H1733 C1744 0.950 . S
H1734 C1746 0.950 . S
H1735 C1747 0.950 . S
C1736 H1728 0.950 . S
C1736 C1737 1.386 . S
C1736 C1738 1.391 . S
C1737 C1736 1.386 . S
C1737 C1741 1.393 . S
C1738 H1730 0.950 . S
C1738 C1736 1.391 . S
C1738 C1739 1.400 . S
C1739 C1738 1.400 . S
C1739 C1740 1.398 . S
C1739 C1745 1.491 . S
C1740 H1731 0.950 . S
C1740 C1739 1.398 . S
C1740 C1741 1.391 . S
C1741 H1729 0.950 . S
C1741 C1737 1.393 . S
C1741 C1740 1.391 . S
C1742 H1732 0.950 . S
C1742 C1743 1.386 . S
C1742 C1744 1.391 . S
C1743 C1742 1.386 . S
C1743 C1747 1.393 . S
C1744 H1733 0.950 . S
C1744 C1742 1.391 . S
C1744 C1745 1.400 . S
C1745 C1739 1.491 . S
C1745 C1744 1.400 . S
C1745 C1746 1.398 . S
C1746 H1734 0.950 . S
C1746 C1745 1.398 . S
C1746 C1747 1.391 . S
C1747 H1735 0.950 . S
C1747 C1743 1.393 . S
C1747 C1746 1.391 . S
H1748 C1756 0.950 . S
H1749 C1761 0.950 . S
H1750 C1758 0.950 . S
H1751 C1760 0.950 . S
H1752 C1762 0.950 . S
H1753 C1764 0.950 . S
H1754 C1766 0.950 . S
H1755 C1767 0.950 . S
C1756 H1748 0.950 . S
C1756 C1757 1.386 . S
C1756 C1758 1.391 . S
C1757 C1756 1.386 . S
C1757 C1761 1.393 . S
C1758 H1750 0.950 . S
C1758 C1756 1.391 . S
C1758 C1759 1.400 . S
C1759 C1758 1.400 . S
C1759 C1760 1.398 . S
C1759 C1765 1.491 . S
C1760 H1751 0.950 . S
C1760 C1759 1.398 . S
C1760 C1761 1.391 . S
C1761 H1749 0.950 . S
C1761 C1757 1.393 . S
C1761 C1760 1.391 . S
C1762 H1752 0.950 . S
C1762 C1763 1.386 . S
C1762 C1764 1.391 . S
C1763 C1762 1.386 . S
C1763 C1767 1.393 . S
C1764 H1753 0.950 . S
C1764 C1762 1.391 . S
C1764 C1765 1.400 . S
C1765 C1759 1.491 . S
C1765 C1764 1.400 . S
C1765 C1766 1.398 . S
C1766 H1754 0.950 . S
C1766 C1765 1.398 . S
C1766 C1767 1.391 . S
C1767 H1755 0.950 . S
C1767 C1763 1.393 . S
C1767 C1766 1.391 . S
H1768 C1776 0.950 . S
H1769 C1781 0.950 . S
H1770 C1778 0.950 . S
H1771 C1780 0.950 . S
H1772 C1782 0.950 . S
H1773 C1784 0.950 . S
H1774 C1786 0.950 . S
H1775 C1787 0.950 . S
C1776 H1768 0.950 . S
C1776 C1777 1.386 . S
C1776 C1778 1.391 . S
C1777 C1776 1.386 . S
C1777 C1781 1.393 . S
C1778 H1770 0.950 . S
C1778 C1776 1.391 . S
C1778 C1779 1.400 . S
C1779 C1778 1.400 . S
C1779 C1780 1.398 . S
C1779 C1785 1.491 . S
C1780 H1771 0.950 . S
C1780 C1779 1.398 . S
C1780 C1781 1.391 . S
C1781 H1769 0.950 . S
C1781 C1777 1.393 . S
C1781 C1780 1.391 . S
C1782 H1772 0.950 . S
C1782 C1783 1.386 . S
C1782 C1784 1.391 . S
C1783 C1782 1.386 . S
C1783 C1787 1.393 . S
C1784 H1773 0.950 . S
C1784 C1782 1.391 . S
C1784 C1785 1.400 . S
C1785 C1779 1.491 . S
C1785 C1784 1.400 . S
C1785 C1786 1.398 . S
C1786 H1774 0.950 . S
C1786 C1785 1.398 . S
C1786 C1787 1.391 . S
C1787 H1775 0.950 . S
C1787 C1783 1.393 . S
C1787 C1786 1.391 . S
H1788 C1796 0.950 . S
H1789 C1801 0.950 . S
H1790 C1798 0.950 . S
H1791 C1800 0.950 . S
H1792 C1802 0.950 . S
H1793 C1804 0.950 . S
H1794 C1806 0.950 . S
H1795 C1807 0.950 . S
C1796 H1788 0.950 . S
C1796 C1797 1.386 . S
C1796 C1798 1.391 . S
C1797 C1796 1.386 . S
C1797 C1801 1.393 . S
C1798 H1790 0.950 . S
C1798 C1796 1.391 . S
C1798 C1799 1.400 . S
C1799 C1798 1.400 . S
C1799 C1800 1.398 . S
C1799 C1805 1.491 . S
C1800 H1791 0.950 . S
C1800 C1799 1.398 . S
C1800 C1801 1.391 . S
C1801 H1789 0.950 . S
C1801 C1797 1.393 . S
C1801 C1800 1.391 . S
C1802 H1792 0.950 . S
C1802 C1803 1.386 . S
C1802 C1804 1.391 . S
C1803 C1802 1.386 . S
C1803 C1807 1.393 . S
C1804 H1793 0.950 . S
C1804 C1802 1.391 . S
C1804 C1805 1.400 . S
C1805 C1799 1.491 . S
C1805 C1804 1.400 . S
C1805 C1806 1.398 . S
C1806 H1794 0.950 . S
C1806 C1805 1.398 . S
C1806 C1807 1.391 . S
C1807 H1795 0.950 . S
C1807 C1803 1.393 . S
C1807 C1806 1.391 . S
H1808 C1816 0.950 . S
H1809 C1821 0.950 . S
H1810 C1818 0.950 . S
H1811 C1820 0.950 . S
H1812 C1822 0.950 . S
H1813 C1824 0.950 . S
H1814 C1826 0.950 . S
H1815 C1827 0.950 . S
C1816 H1808 0.950 . S
C1816 C1817 1.386 . S
C1816 C1818 1.391 . S
C1817 C1816 1.386 . S
C1817 C1821 1.393 . S
C1818 H1810 0.950 . S
C1818 C1816 1.391 . S
C1818 C1819 1.400 . S
C1819 C1818 1.400 . S
C1819 C1820 1.398 . S
C1819 C1825 1.491 . S
C1820 H1811 0.950 . S
C1820 C1819 1.398 . S
C1820 C1821 1.391 . S
C1821 H1809 0.950 . S
C1821 C1817 1.393 . S
C1821 C1820 1.391 . S
C1822 H1812 0.950 . S
C1822 C1823 1.386 . S
C1822 C1824 1.391 . S
C1823 C1822 1.386 . S
C1823 C1827 1.393 . S
C1824 H1813 0.950 . S
C1824 C1822 1.391 . S
C1824 C1825 1.400 . S
C1825 C1819 1.491 . S
C1825 C1824 1.400 . S
C1825 C1826 1.398 . S
C1826 H1814 0.950 . S
C1826 C1825 1.398 . S
C1826 C1827 1.391 . S
C1827 H1815 0.950 . S
C1827 C1823 1.393 . S
C1827 C1826 1.391 . S
H1828 C1836 0.950 . S
H1829 C1841 0.950 . S
H1830 C1838 0.950 . S
H1831 C1840 0.950 . S
H1832 C1842 0.950 . S
H1833 C1844 0.950 . S
H1834 C1846 0.950 . S
H1835 C1847 0.950 . S
C1836 H1828 0.950 . S
C1836 C1837 1.386 . S
C1836 C1838 1.391 . S
C1837 C1836 1.386 . S
C1837 C1841 1.393 . S
C1838 H1830 0.950 . S
C1838 C1836 1.391 . S
C1838 C1839 1.400 . S
C1839 C1838 1.400 . S
C1839 C1840 1.398 . S
C1839 C1845 1.491 . S
C1840 H1831 0.950 . S
C1840 C1839 1.398 . S
C1840 C1841 1.391 . S
C1841 H1829 0.950 . S
C1841 C1837 1.393 . S
C1841 C1840 1.391 . S
C1842 H1832 0.950 . S
C1842 C1843 1.386 . S
C1842 C1844 1.391 . S
C1843 C1842 1.386 . S
C1843 C1847 1.393 . S
C1844 H1833 0.950 . S
C1844 C1842 1.391 . S
C1844 C1845 1.400 . S
C1845 C1839 1.491 . S
C1845 C1844 1.400 . S
C1845 C1846 1.398 . S
C1846 H1834 0.950 . S
C1846 C1845 1.398 . S
C1846 C1847 1.391 . S
C1847 H1835 0.950 . S
C1847 C1843 1.393 . S
C1847 C1846 1.391 . S
H1848 C1856 0.950 . S
H1849 C1861 0.950 . S
H1850 C1858 0.950 . S
H1851 C1860 0.950 . S
H1852 C1862 0.950 . S
H1853 C1864 0.950 . S
H1854 C1866 0.950 . S
H1855 C1867 0.950 . S
C1856 H1848 0.950 . S
C1856 C1857 1.386 . S
C1856 C1858 1.391 . S
C1857 C1856 1.386 . S
C1857 C1861 1.393 . S
C1858 H1850 0.950 . S
C1858 C1856 1.391 . S
C1858 C1859 1.400 . S
C1859 C1858 1.400 . S
C1859 C1860 1.398 . S
C1859 C1865 1.491 . S
C1860 H1851 0.950 . S
C1860 C1859 1.398 . S
C1860 C1861 1.391 . S
C1861 H1849 0.950 . S
C1861 C1857 1.393 . S
C1861 C1860 1.391 . S
C1862 H1852 0.950 . S
C1862 C1863 1.386 . S
C1862 C1864 1.391 . S
C1863 C1862 1.386 . S
C1863 C1867 1.393 . S
C1864 H1853 0.950 . S
C1864 C1862 1.391 . S
C1864 C1865 1.400 . S
C1865 C1859 1.491 . S
C1865 C1864 1.400 . S
C1865 C1866 1.398 . S
C1866 H1854 0.950 . S
C1866 C1865 1.398 . S
C1866 C1867 1.391 . S
C1867 H1855 0.950 . S
C1867 C1863 1.393 . S
C1867 C1866 1.391 . S
H1868 C1876 0.950 . S
H1869 C1881 0.950 . S
H1870 C1878 0.950 . S
H1871 C1880 0.950 . S
H1872 C1882 0.950 . S
H1873 C1884 0.950 . S
H1874 C1886 0.950 . S
H1875 C1887 0.950 . S
C1876 H1868 0.950 . S
C1876 C1877 1.386 . S
C1876 C1878 1.391 . S
C1877 C1876 1.386 . S
C1877 C1881 1.393 . S
C1878 H1870 0.950 . S
C1878 C1876 1.391 . S
C1878 C1879 1.400 . S
C1879 C1878 1.400 . S
C1879 C1880 1.398 . S
C1879 C1885 1.491 . S
C1880 H1871 0.950 . S
C1880 C1879 1.398 . S
C1880 C1881 1.391 . S
C1881 H1869 0.950 . S
C1881 C1877 1.393 . S
C1881 C1880 1.391 . S
C1882 H1872 0.950 . S
C1882 C1883 1.386 . S
C1882 C1884 1.391 . S
C1883 C1882 1.386 . S
C1883 C1887 1.393 . S
C1884 H1873 0.950 . S
C1884 C1882 1.391 . S
C1884 C1885 1.400 . S
C1885 C1879 1.491 . S
C1885 C1884 1.400 . S
C1885 C1886 1.398 . S
C1886 H1874 0.950 . S
C1886 C1885 1.398 . S
C1886 C1887 1.391 . S
C1887 H1875 0.950 . S
C1887 C1883 1.393 . S
C1887 C1886 1.391 . S
H1888 C1896 0.950 . S
H1889 C1901 0.950 . S
H1890 C1898 0.950 . S
H1891 C1900 0.950 . S
H1892 C1902 0.950 . S
H1893 C1904 0.950 . S
H1894 C1906 0.950 . S
H1895 C1907 0.950 . S
C1896 H1888 0.950 . S
C1896 C1897 1.386 . S
C1896 C1898 1.391 . S
C1897 C1896 1.386 . S
C1897 C1901 1.393 . S
C1898 H1890 0.950 . S
C1898 C1896 1.391 . S
C1898 C1899 1.400 . S
C1899 C1898 1.400 . S
C1899 C1900 1.398 . S
C1899 C1905 1.491 . S
C1900 H1891 0.950 . S
C1900 C1899 1.398 . S
C1900 C1901 1.391 . S
C1901 H1889 0.950 . S
C1901 C1897 1.393 . S
C1901 C1900 1.391 . S
C1902 H1892 0.950 . S
C1902 C1903 1.386 . S
C1902 C1904 1.391 . S
C1903 C1902 1.386 . S
C1903 C1907 1.393 . S
C1904 H1893 0.950 . S
C1904 C1902 1.391 . S
C1904 C1905 1.400 . S
C1905 C1899 1.491 . S
C1905 C1904 1.400 . S
C1905 C1906 1.398 . S
C1906 H1894 0.950 . S
C1906 C1905 1.398 . S
C1906 C1907 1.391 . S
C1907 H1895 0.950 . S
C1907 C1903 1.393 . S
C1907 C1906 1.391 . S
H1908 C1916 0.950 . S
H1909 C1921 0.950 . S
H1910 C1918 0.950 . S
H1911 C1920 0.950 . S
H1912 C1922 0.950 . S
H1913 C1924 0.950 . S
H1914 C1926 0.950 . S
H1915 C1927 0.950 . S
C1916 H1908 0.950 . S
C1916 C1917 1.386 . S
C1916 C1918 1.391 . S
C1917 C1916 1.386 . S
C1917 C1921 1.393 . S
C1918 H1910 0.950 . S
C1918 C1916 1.391 . S
C1918 C1919 1.400 . S
C1919 C1918 1.400 . S
C1919 C1920 1.398 . S
C1919 C1925 1.491 . S
C1920 H1911 0.950 . S
C1920 C1919 1.398 . S
C1920 C1921 1.391 . S
C1921 H1909 0.950 . S
C1921 C1917 1.393 . S
C1921 C1920 1.391 . S
C1922 H1912 0.950 . S
C1922 C1923 1.386 . S
C1922 C1924 1.391 . S
C1923 C1922 1.386 . S
C1923 C1927 1.393 . S
C1924 H1913 0.950 . S
C1924 C1922 1.391 . S
C1924 C1925 1.400 . S
C1925 C1919 1.491 . S
C1925 C1924 1.400 . S
C1925 C1926 1.398 . S
C1926 H1914 0.950 . S
C1926 C1925 1.398 . S
C1926 C1927 1.391 . S
C1927 H1915 0.950 . S
C1927 C1923 1.393 . S
C1927 C1926 1.391 . S
H1928 C1936 0.950 . S
H1929 C1941 0.950 1_554 S
H1930 C1938 0.950 . S
H1931 C1940 0.950 . S
H1932 C1942 0.950 . S
H1933 C1944 0.950 . S
H1934 C1946 0.950 . S
H1935 C1947 0.950 . S
C1936 H1928 0.950 . S
C1936 C1937 1.386 . S
C1936 C1938 1.391 . S
C1937 C1936 1.386 . S
C1937 C1941 1.393 . S
C1938 H1930 0.950 . S
C1938 C1936 1.391 . S
C1938 C1939 1.400 . S
C1939 C1938 1.400 . S
C1939 C1940 1.398 . S
C1939 C1945 1.491 . S
C1940 H1931 0.950 . S
C1940 C1939 1.398 . S
C1940 C1941 1.391 . S
C1941 H1929 0.950 1_556 S
C1941 C1937 1.393 . S
C1941 C1940 1.391 . S
C1942 H1932 0.950 . S
C1942 C1943 1.386 . S
C1942 C1944 1.391 . S
C1943 C1942 1.386 . S
C1943 C1947 1.393 . S
C1944 H1933 0.950 . S
C1944 C1942 1.391 . S
C1944 C1945 1.400 . S
C1945 C1939 1.491 . S
C1945 C1944 1.400 . S
C1945 C1946 1.398 . S
C1946 H1934 0.950 . S
C1946 C1945 1.398 . S
C1946 C1947 1.391 . S
C1947 H1935 0.950 . S
C1947 C1943 1.393 . S
C1947 C1946 1.391 . S
H1948 C1956 0.950 . S
H1949 C1961 0.950 . S
H1950 C1958 0.950 . S
H1951 C1960 0.950 . S
H1952 C1962 0.950 . S
H1953 C1964 0.950 . S
H1954 C1966 0.950 . S
H1955 C1967 0.950 . S
C1956 H1948 0.950 . S
C1956 C1957 1.386 . S
C1956 C1958 1.391 . S
C1957 C1956 1.386 . S
C1957 C1961 1.393 . S
C1958 H1950 0.950 . S
C1958 C1956 1.391 . S
C1958 C1959 1.400 . S
C1959 C1958 1.400 . S
C1959 C1960 1.398 . S
C1959 C1965 1.491 . S
C1960 H1951 0.950 . S
C1960 C1959 1.398 . S
C1960 C1961 1.391 . S
C1961 H1949 0.950 . S
C1961 C1957 1.393 . S
C1961 C1960 1.391 . S
C1962 H1952 0.950 . S
C1962 C1963 1.386 . S
C1962 C1964 1.391 . S
C1963 C1962 1.386 . S
C1963 C1967 1.393 . S
C1964 H1953 0.950 . S
C1964 C1962 1.391 . S
C1964 C1965 1.400 . S
C1965 C1959 1.491 . S
C1965 C1964 1.400 . S
C1965 C1966 1.398 . S
C1966 H1954 0.950 . S
C1966 C1965 1.398 . S
C1966 C1967 1.391 . S
C1967 H1955 0.950 . S
C1967 C1963 1.393 . S
C1967 C1966 1.391 . S
H1968 C1976 0.950 . S
H1969 C1981 0.950 . S
H1970 C1978 0.950 . S
H1971 C1980 0.950 . S
H1972 C1982 0.950 . S
H1973 C1984 0.950 . S
H1974 C1986 0.950 . S
H1975 C1987 0.950 . S
C1976 H1968 0.950 . S
C1976 C1977 1.386 . S
C1976 C1978 1.391 . S
C1977 C1976 1.386 . S
C1977 C1981 1.393 . S
C1978 H1970 0.950 . S
C1978 C1976 1.391 . S
C1978 C1979 1.400 . S
C1979 C1978 1.400 . S
C1979 C1980 1.398 . S
C1979 C1985 1.491 . S
C1980 H1971 0.950 . S
C1980 C1979 1.398 . S
C1980 C1981 1.391 . S
C1981 H1969 0.950 . S
C1981 C1977 1.393 . S
C1981 C1980 1.391 . S
C1982 H1972 0.950 . S
C1982 C1983 1.386 . S
C1982 C1984 1.391 . S
C1983 C1982 1.386 . S
C1983 C1987 1.393 . S
C1984 H1973 0.950 . S
C1984 C1982 1.391 . S
C1984 C1985 1.400 . S
C1985 C1979 1.491 . S
C1985 C1984 1.400 . S
C1985 C1986 1.398 . S
C1986 H1974 0.950 . S
C1986 C1985 1.398 . S
C1986 C1987 1.391 . S
C1987 H1975 0.950 . S
C1987 C1983 1.393 . S
C1987 C1986 1.391 . S
H1988 C1996 0.950 . S
H1989 C2001 0.950 . S
H1990 C1998 0.950 . S
H1991 C2000 0.950 . S
H1992 C2002 0.950 . S
H1993 C2004 0.950 . S
H1994 C2006 0.950 . S
H1995 C2007 0.950 . S
C1996 H1988 0.950 . S
C1996 C1997 1.386 . S
C1996 C1998 1.391 . S
C1997 C1996 1.386 . S
C1997 C2001 1.393 . S
C1998 H1990 0.950 . S
C1998 C1996 1.391 . S
C1998 C1999 1.400 . S
C1999 C1998 1.400 . S
C1999 C2000 1.398 . S
C1999 C2005 1.491 . S
C2000 H1991 0.950 . S
C2000 C1999 1.398 . S
C2000 C2001 1.391 . S
C2001 H1989 0.950 . S
C2001 C1997 1.393 . S
C2001 C2000 1.391 . S
C2002 H1992 0.950 . S
C2002 C2003 1.386 . S
C2002 C2004 1.391 . S
C2003 C2002 1.386 . S
C2003 C2007 1.393 . S
C2004 H1993 0.950 . S
C2004 C2002 1.391 . S
C2004 C2005 1.400 . S
C2005 C1999 1.491 . S
C2005 C2004 1.400 . S
C2005 C2006 1.398 . S
C2006 H1994 0.950 . S
C2006 C2005 1.398 . S
C2006 C2007 1.391 . S
C2007 H1995 0.950 . S
C2007 C2003 1.393 . S
C2007 C2006 1.391 . S
H2008 C2016 0.950 . S
H2009 C2021 0.950 . S
H2010 C2018 0.950 . S
H2011 C2020 0.950 . S
H2012 C2022 0.950 . S
H2013 C2024 0.950 . S
H2014 C2026 0.950 . S
H2015 C2027 0.950 . S
C2016 H2008 0.950 . S
C2016 C2017 1.386 . S
C2016 C2018 1.391 . S
C2017 C2016 1.386 . S
C2017 C2021 1.393 . S
C2018 H2010 0.950 . S
C2018 C2016 1.391 . S
C2018 C2019 1.400 . S
C2019 C2018 1.400 . S
C2019 C2020 1.398 . S
C2019 C2025 1.491 . S
C2020 H2011 0.950 . S
C2020 C2019 1.398 . S
C2020 C2021 1.391 . S
C2021 H2009 0.950 . S
C2021 C2017 1.393 . S
C2021 C2020 1.391 . S
C2022 H2012 0.950 . S
C2022 C2023 1.386 . S
C2022 C2024 1.391 . S
C2023 C2022 1.386 . S
C2023 C2027 1.393 . S
C2024 H2013 0.950 . S
C2024 C2022 1.391 . S
C2024 C2025 1.400 . S
C2025 C2019 1.491 . S
C2025 C2024 1.400 . S
C2025 C2026 1.398 . S
C2026 H2014 0.950 . S
C2026 C2025 1.398 . S
C2026 C2027 1.391 . S
C2027 H2015 0.950 . S
C2027 C2023 1.393 . S
C2027 C2026 1.391 . S
H2028 C2036 0.950 . S
H2029 C2041 0.950 . S
H2030 C2038 0.950 . S
H2031 C2040 0.950 . S
H2032 C2042 0.950 . S
H2033 C2044 0.950 . S
H2034 C2046 0.950 . S
H2035 C2047 0.950 . S
C2036 H2028 0.950 . S
C2036 C2037 1.386 . S
C2036 C2038 1.391 . S
C2037 C2036 1.386 . S
C2037 C2041 1.393 . S
C2038 H2030 0.950 . S
C2038 C2036 1.391 . S
C2038 C2039 1.400 . S
C2039 C2038 1.400 . S
C2039 C2040 1.398 . S
C2039 C2045 1.491 . S
C2040 H2031 0.950 . S
C2040 C2039 1.398 . S
C2040 C2041 1.391 . S
C2041 H2029 0.950 . S
C2041 C2037 1.393 . S
C2041 C2040 1.391 . S
C2042 H2032 0.950 . S
C2042 C2043 1.386 . S
C2042 C2044 1.391 . S
C2043 C2042 1.386 . S
C2043 C2047 1.393 . S
C2044 H2033 0.950 . S
C2044 C2042 1.391 . S
C2044 C2045 1.400 . S
C2045 C2039 1.491 . S
C2045 C2044 1.400 . S
C2045 C2046 1.398 . S
C2046 H2034 0.950 . S
C2046 C2045 1.398 . S
C2046 C2047 1.391 . S
C2047 H2035 0.950 . S
C2047 C2043 1.393 . S
C2047 C2046 1.391 . S
H2048 C2056 0.950 . S
H2049 C2061 0.950 . S
H2050 C2058 0.950 . S
H2051 C2060 0.950 . S
H2052 C2062 0.950 . S
H2053 C2064 0.950 . S
H2054 C2066 0.950 . S
H2055 C2067 0.950 . S
C2056 H2048 0.950 . S
C2056 C2057 1.386 . S
C2056 C2058 1.391 . S
C2057 C2056 1.386 . S
C2057 C2061 1.393 . S
C2058 H2050 0.950 . S
C2058 C2056 1.391 . S
C2058 C2059 1.400 . S
C2059 C2058 1.400 . S
C2059 C2060 1.398 . S
C2059 C2065 1.491 . S
C2060 H2051 0.950 . S
C2060 C2059 1.398 . S
C2060 C2061 1.391 . S
C2061 H2049 0.950 . S
C2061 C2057 1.393 . S
C2061 C2060 1.391 . S
C2062 H2052 0.950 . S
C2062 C2063 1.386 . S
C2062 C2064 1.391 . S
C2063 C2062 1.386 . S
C2063 C2067 1.393 . S
C2064 H2053 0.950 . S
C2064 C2062 1.391 . S
C2064 C2065 1.400 . S
C2065 C2059 1.491 . S
C2065 C2064 1.400 . S
C2065 C2066 1.398 . S
C2066 H2054 0.950 . S
C2066 C2065 1.398 . S
C2066 C2067 1.391 . S
C2067 H2055 0.950 . S
C2067 C2063 1.393 . S
C2067 C2066 1.391 . S
H2068 C2076 0.950 . S
H2069 C2081 0.950 . S
H2070 C2078 0.950 . S
H2071 C2080 0.950 . S
H2072 C2082 0.950 . S
H2073 C2084 0.950 . S
H2074 C2086 0.950 . S
H2075 C2087 0.950 1_556 S
C2076 H2068 0.950 . S
C2076 C2077 1.386 . S
C2076 C2078 1.391 . S
C2077 C2076 1.386 . S
C2077 C2081 1.393 . S
C2078 H2070 0.950 . S
C2078 C2076 1.391 . S
C2078 C2079 1.400 . S
C2079 C2078 1.400 . S
C2079 C2080 1.398 . S
C2079 C2085 1.491 . S
C2080 H2071 0.950 . S
C2080 C2079 1.398 . S
C2080 C2081 1.391 . S
C2081 H2069 0.950 . S
C2081 C2077 1.393 . S
C2081 C2080 1.391 . S
C2082 H2072 0.950 . S
C2082 C2083 1.386 . S
C2082 C2084 1.391 . S
C2083 C2082 1.386 . S
C2083 C2087 1.393 . S
C2084 H2073 0.950 . S
C2084 C2082 1.391 . S
C2084 C2085 1.400 . S
C2085 C2079 1.491 . S
C2085 C2084 1.400 . S
C2085 C2086 1.398 . S
C2086 H2074 0.950 . S
C2086 C2085 1.398 . S
C2086 C2087 1.391 . S
C2087 H2075 0.950 1_554 S
C2087 C2083 1.393 . S
C2087 C2086 1.391 . S
H2088 C2096 0.950 . S
H2089 C2101 0.950 . S
H2090 C2098 0.950 . S
H2091 C2100 0.950 . S
H2092 C2102 0.950 . S
H2093 C2104 0.950 . S
H2094 C2106 0.950 . S
H2095 C2107 0.950 . S
C2096 H2088 0.950 . S
C2096 C2097 1.386 . S
C2096 C2098 1.391 . S
C2097 C2096 1.386 . S
C2097 C2101 1.393 . S
C2098 H2090 0.950 . S
C2098 C2096 1.391 . S
C2098 C2099 1.400 . S
C2099 C2098 1.400 . S
C2099 C2100 1.398 . S
C2099 C2105 1.491 . S
C2100 H2091 0.950 . S
C2100 C2099 1.398 . S
C2100 C2101 1.391 . S
C2101 H2089 0.950 . S
C2101 C2097 1.393 . S
C2101 C2100 1.391 . S
C2102 H2092 0.950 . S
C2102 C2103 1.386 . S
C2102 C2104 1.391 . S
C2103 C2102 1.386 . S
C2103 C2107 1.393 . S
C2104 H2093 0.950 . S
C2104 C2102 1.391 . S
C2104 C2105 1.400 . S
C2105 C2099 1.491 . S
C2105 C2104 1.400 . S
C2105 C2106 1.398 . S
C2106 H2094 0.950 . S
C2106 C2105 1.398 . S
C2106 C2107 1.391 . S
C2107 H2095 0.950 . S
C2107 C2103 1.393 . S
C2107 C2106 1.391 . S
H2108 C2116 0.950 . S
H2109 C2121 0.950 . S
H2110 C2118 0.950 . S
H2111 C2120 0.950 . S
H2112 C2122 0.950 . S
H2113 C2124 0.950 . S
H2114 C2126 0.950 . S
H2115 C2127 0.950 1_554 S
C2116 H2108 0.950 . S
C2116 C2117 1.386 . S
C2116 C2118 1.391 . S
C2117 C2116 1.386 . S
C2117 C2121 1.393 . S
C2118 H2110 0.950 . S
C2118 C2116 1.391 . S
C2118 C2119 1.400 . S
C2119 C2118 1.400 . S
C2119 C2120 1.398 . S
C2119 C2125 1.491 . S
C2120 H2111 0.950 . S
C2120 C2119 1.398 . S
C2120 C2121 1.391 . S
C2121 H2109 0.950 . S
C2121 C2117 1.393 . S
C2121 C2120 1.391 . S
C2122 H2112 0.950 . S
C2122 C2123 1.386 . S
C2122 C2124 1.391 . S
C2123 C2122 1.386 . S
C2123 C2127 1.393 . S
C2124 H2113 0.950 . S
C2124 C2122 1.391 . S
C2124 C2125 1.400 . S
C2125 C2119 1.491 . S
C2125 C2124 1.400 . S
C2125 C2126 1.398 . S
C2126 H2114 0.950 . S
C2126 C2125 1.398 . S
C2126 C2127 1.391 . S
C2127 H2115 0.950 1_556 S
C2127 C2123 1.393 . S
C2127 C2126 1.391 . S
H2128 C2136 0.950 . S
H2129 C2141 0.950 . S
H2130 C2138 0.950 . S
H2131 C2140 0.950 . S
H2132 C2142 0.950 . S
H2133 C2144 0.950 . S
H2134 C2146 0.950 . S
H2135 C2147 0.950 1_554 S
C2136 H2128 0.950 . S
C2136 C2137 1.386 . S
C2136 C2138 1.391 . S
C2137 C2136 1.386 . S
C2137 C2141 1.393 . S
C2138 H2130 0.950 . S
C2138 C2136 1.391 . S
C2138 C2139 1.400 . S
C2139 C2138 1.400 . S
C2139 C2140 1.398 . S
C2139 C2145 1.491 . S
C2140 H2131 0.950 . S
C2140 C2139 1.398 . S
C2140 C2141 1.391 . S
C2141 H2129 0.950 . S
C2141 C2137 1.393 . S
C2141 C2140 1.391 . S
C2142 H2132 0.950 . S
C2142 C2143 1.386 . S
C2142 C2144 1.391 . S
C2143 C2142 1.386 . S
C2143 C2147 1.393 . S
C2144 H2133 0.950 . S
C2144 C2142 1.391 . S
C2144 C2145 1.400 . S
C2145 C2139 1.491 . S
C2145 C2144 1.400 . S
C2145 C2146 1.398 . S
C2146 H2134 0.950 . S
C2146 C2145 1.398 . S
C2146 C2147 1.391 . S
C2147 H2135 0.950 1_556 S
C2147 C2143 1.393 . S
C2147 C2146 1.391 . S
H2148 C2156 0.950 . S
H2149 C2161 0.950 . S
H2150 C2158 0.950 . S
H2151 C2160 0.950 . S
H2152 C2162 0.950 . S
H2153 C2164 0.950 . S
H2154 C2166 0.950 . S
H2155 C2167 0.950 . S
C2156 H2148 0.950 . S
C2156 C2157 1.386 . S
C2156 C2158 1.391 . S
C2157 C2156 1.386 . S
C2157 C2161 1.393 . S
C2158 H2150 0.950 . S
C2158 C2156 1.391 . S
C2158 C2159 1.400 . S
C2159 C2158 1.400 . S
C2159 C2160 1.398 . S
C2159 C2165 1.491 1_455 S
C2160 H2151 0.950 . S
C2160 C2159 1.398 . S
C2160 C2161 1.391 . S
C2161 H2149 0.950 . S
C2161 C2157 1.393 . S
C2161 C2160 1.391 . S
C2162 H2152 0.950 . S
C2162 C2163 1.386 . S
C2162 C2164 1.391 . S
C2163 C2162 1.386 . S
C2163 C2167 1.393 . S
C2164 H2153 0.950 . S
C2164 C2162 1.391 . S
C2164 C2165 1.400 . S
C2165 C2159 1.491 1_655 S
C2165 C2164 1.400 . S
C2165 C2166 1.398 . S
C2166 H2154 0.950 . S
C2166 C2165 1.398 . S
C2166 C2167 1.391 . S
C2167 H2155 0.950 . S
C2167 C2163 1.393 . S
C2167 C2166 1.391 . S
H2168 C2176 0.950 . S
H2169 C2181 0.950 . S
H2170 C2178 0.950 . S
H2171 C2180 0.950 . S
H2172 C2182 0.950 . S
H2173 C2184 0.950 . S
H2174 C2186 0.950 . S
H2175 C2187 0.950 . S
C2176 H2168 0.950 . S
C2176 C2177 1.386 . S
C2176 C2178 1.391 . S
C2177 C2176 1.386 . S
C2177 C2181 1.393 . S
C2178 H2170 0.950 . S
C2178 C2176 1.391 . S
C2178 C2179 1.400 . S
C2179 C2178 1.400 . S
C2179 C2180 1.398 . S
C2179 C2185 1.491 . S
C2180 H2171 0.950 . S
C2180 C2179 1.398 . S
C2180 C2181 1.391 . S
C2181 H2169 0.950 . S
C2181 C2177 1.393 . S
C2181 C2180 1.391 . S
C2182 H2172 0.950 . S
C2182 C2183 1.386 . S
C2182 C2184 1.391 . S
C2183 C2182 1.386 . S
C2183 C2187 1.393 . S
C2184 H2173 0.950 . S
C2184 C2182 1.391 . S
C2184 C2185 1.400 . S
C2185 C2179 1.491 . S
C2185 C2184 1.400 . S
C2185 C2186 1.398 . S
C2186 H2174 0.950 . S
C2186 C2185 1.398 . S
C2186 C2187 1.391 . S
C2187 H2175 0.950 . S
C2187 C2183 1.393 . S
C2187 C2186 1.391 . S
H2188 C2196 0.950 . S
H2189 C2201 0.950 . S
H2190 C2198 0.950 . S
H2191 C2200 0.950 . S
H2192 C2202 0.950 . S
H2193 C2204 0.950 . S
H2194 C2206 0.950 . S
H2195 C2207 0.950 . S
C2196 H2188 0.950 . S
C2196 C2197 1.386 . S
C2196 C2198 1.391 . S
C2197 C2196 1.386 . S
C2197 C2201 1.393 . S
C2198 H2190 0.950 . S
C2198 C2196 1.391 . S
C2198 C2199 1.400 . S
C2199 C2198 1.400 . S
C2199 C2200 1.398 . S
C2199 C2205 1.491 1_565 S
C2200 H2191 0.950 . S
C2200 C2199 1.398 . S
C2200 C2201 1.391 . S
C2201 H2189 0.950 . S
C2201 C2197 1.393 . S
C2201 C2200 1.391 . S
C2202 H2192 0.950 . S
C2202 C2203 1.386 . S
C2202 C2204 1.391 . S
C2203 C2202 1.386 . S
C2203 C2207 1.393 . S
C2204 H2193 0.950 . S
C2204 C2202 1.391 . S
C2204 C2205 1.400 . S
C2205 C2199 1.491 1_545 S
C2205 C2204 1.400 . S
C2205 C2206 1.398 . S
C2206 H2194 0.950 . S
C2206 C2205 1.398 . S
C2206 C2207 1.391 . S
C2207 H2195 0.950 . S
C2207 C2203 1.393 . S
C2207 C2206 1.391 . S
H2208 C2216 0.950 . S
H2209 C2221 0.950 . S
H2210 C2218 0.950 . S
H2211 C2220 0.950 . S
H2212 C2222 0.950 . S
H2213 C2224 0.950 . S
H2214 C2226 0.950 . S
H2215 C2227 0.950 . S
C2216 H2208 0.950 . S
C2216 C2217 1.386 . S
C2216 C2218 1.391 . S
C2217 C2216 1.386 . S
C2217 C2221 1.393 . S
C2218 H2210 0.950 . S
C2218 C2216 1.391 . S
C2218 C2219 1.400 . S
C2219 C2218 1.400 . S
C2219 C2220 1.398 . S
C2219 C2225 1.491 1_565 S
C2220 H2211 0.950 . S
C2220 C2219 1.398 . S
C2220 C2221 1.391 . S
C2221 H2209 0.950 . S
C2221 C2217 1.393 . S
C2221 C2220 1.391 . S
C2222 H2212 0.950 . S
C2222 C2223 1.386 . S
C2222 C2224 1.391 . S
C2223 C2222 1.386 . S
C2223 C2227 1.393 . S
C2224 H2213 0.950 . S
C2224 C2222 1.391 . S
C2224 C2225 1.400 . S
C2225 C2219 1.491 1_545 S
C2225 C2224 1.400 . S
C2225 C2226 1.398 . S
C2226 H2214 0.950 . S
C2226 C2225 1.398 . S
C2226 C2227 1.391 . S
C2227 H2215 0.950 . S
C2227 C2223 1.393 . S
C2227 C2226 1.391 . S
H2228 C2236 0.950 . S
H2229 C2241 0.950 . S
H2230 C2238 0.953 . S
H2231 C2240 0.950 . S
H2232 C2242 0.950 . S
H2233 C2244 0.956 . S
H2234 C2246 0.950 . S
H2235 C2247 0.950 . S
C2236 H2228 0.950 . S
C2236 C2237 1.386 . S
C2236 C2238 1.391 . S
C2237 C2236 1.386 . S
C2237 C2241 1.393 . S
C2238 H2230 0.953 . S
C2238 C2236 1.391 . S
C2238 C2239 1.400 . S
C2239 C2238 1.400 . S
C2239 C2240 1.398 . S
C2239 C2245 1.491 1_455 S
C2240 H2231 0.950 . S
C2240 C2239 1.398 . S
C2240 C2241 1.391 . S
C2241 H2229 0.950 . S
C2241 C2237 1.393 . S
C2241 C2240 1.391 . S
C2242 H2232 0.950 . S
C2242 C2243 1.386 . S
C2242 C2244 1.391 . S
C2243 C2242 1.386 . S
C2243 C2247 1.393 . S
C2244 H2233 0.956 . S
C2244 C2242 1.391 . S
C2244 C2245 1.400 . S
C2245 C2239 1.491 1_655 S
C2245 C2244 1.400 . S
C2245 C2246 1.398 . S
C2246 H2234 0.950 . S
C2246 C2245 1.398 . S
C2246 C2247 1.391 . S
C2247 H2235 0.950 . S
C2247 C2243 1.393 . S
C2247 C2246 1.391 . S
H2248 C2256 0.950 . S
H2249 C2261 0.950 . S
H2250 C2258 0.950 . S
H2251 C2260 0.950 . S
H2252 C2262 0.950 . S
H2253 C2264 0.950 . S
H2254 C2266 0.950 . S
H2255 C2267 0.950 . S
C2256 H2248 0.950 . S
C2256 C2257 1.386 . S
C2256 C2258 1.391 . S
C2257 C2256 1.386 . S
C2257 C2261 1.393 . S
C2258 H2250 0.950 . S
C2258 C2256 1.391 . S
C2258 C2259 1.400 . S
C2259 C2258 1.400 . S
C2259 C2260 1.398 . S
C2259 C2265 1.491 . S
C2260 H2251 0.950 . S
C2260 C2259 1.398 . S
C2260 C2261 1.391 . S
C2261 H2249 0.950 . S
C2261 C2257 1.393 . S
C2261 C2260 1.391 . S
C2262 H2252 0.950 . S
C2262 C2263 1.386 . S
C2262 C2264 1.391 . S
C2263 C2262 1.386 . S
C2263 C2267 1.393 . S
C2264 H2253 0.950 . S
C2264 C2262 1.391 . S
C2264 C2265 1.400 . S
C2265 C2259 1.491 . S
C2265 C2264 1.400 . S
C2265 C2266 1.398 . S
C2266 H2254 0.950 . S
C2266 C2265 1.398 . S
C2266 C2267 1.391 . S
C2267 H2255 0.950 . S
C2267 C2263 1.393 . S
C2267 C2266 1.391 . S
H2268 C2276 0.950 . S
H2269 C2281 0.950 . S
H2270 C2278 0.950 . S
H2271 C2280 0.950 . S
H2272 C2282 0.950 . S
H2273 C2284 0.950 . S
H2274 C2286 0.950 . S
H2275 C2287 0.950 . S
C2276 H2268 0.950 . S
C2276 C2277 1.386 . S
C2276 C2278 1.391 . S
C2277 C2276 1.386 . S
C2277 C2281 1.393 . S
C2278 H2270 0.950 . S
C2278 C2276 1.391 . S
C2278 C2279 1.400 . S
C2279 C2278 1.400 . S
C2279 C2280 1.398 . S
C2279 C2285 1.491 . S
C2280 H2271 0.950 . S
C2280 C2279 1.398 . S
C2280 C2281 1.391 . S
C2281 H2269 0.950 . S
C2281 C2277 1.393 . S
C2281 C2280 1.391 . S
C2282 H2272 0.950 . S
C2282 C2283 1.386 . S
C2282 C2284 1.391 . S
C2283 C2282 1.386 . S
C2283 C2287 1.393 . S
C2284 H2273 0.950 . S
C2284 C2282 1.391 . S
C2284 C2285 1.400 . S
C2285 C2279 1.491 . S
C2285 C2284 1.400 . S
C2285 C2286 1.398 . S
C2286 H2274 0.950 . S
C2286 C2285 1.398 . S
C2286 C2287 1.391 . S
C2287 H2275 0.950 . S
C2287 C2283 1.393 . S
C2287 C2286 1.391 . S
H2288 C2296 0.950 . S
H2289 C2301 0.950 . S
H2290 C2298 0.950 . S
H2291 C2300 0.950 . S
H2292 C2302 0.950 . S
H2293 C2304 0.950 . S
H2294 C2306 0.950 . S
H2295 C2307 0.950 . S
C2296 H2288 0.950 . S
C2296 C2297 1.386 . S
C2296 C2298 1.391 . S
C2297 C2296 1.386 . S
C2297 C2301 1.393 . S
C2298 H2290 0.950 . S
C2298 C2296 1.391 . S
C2298 C2299 1.400 . S
C2299 C2298 1.400 . S
C2299 C2300 1.398 . S
C2299 C2305 1.491 . S
C2300 H2291 0.950 . S
C2300 C2299 1.398 . S
C2300 C2301 1.391 . S
C2301 H2289 0.950 . S
C2301 C2297 1.393 . S
C2301 C2300 1.391 . S
C2302 H2292 0.950 . S
C2302 C2303 1.386 . S
C2302 C2304 1.391 . S
C2303 C2302 1.386 . S
C2303 C2307 1.393 . S
C2304 H2293 0.950 . S
C2304 C2302 1.391 . S
C2304 C2305 1.400 . S
C2305 C2299 1.491 . S
C2305 C2304 1.400 . S
C2305 C2306 1.398 . S
C2306 H2294 0.950 . S
C2306 C2305 1.398 . S
C2306 C2307 1.391 . S
C2307 H2295 0.950 . S
C2307 C2303 1.393 . S
C2307 C2306 1.391 . S
H2308 C2316 0.950 . S
H2309 C2321 0.950 . S
H2310 C2318 0.950 . S
H2311 C2320 0.950 . S
H2312 C2322 0.950 . S
H2313 C2324 0.950 . S
H2314 C2326 0.950 . S
H2315 C2327 0.950 . S
C2316 H2308 0.950 . S
C2316 C2317 1.386 . S
C2316 C2318 1.391 . S
C2317 C2316 1.386 . S
C2317 C2321 1.393 . S
C2318 H2310 0.950 . S
C2318 C2316 1.391 . S
C2318 C2319 1.400 . S
C2319 C2318 1.400 . S
C2319 C2320 1.398 . S
C2319 C2325 1.491 . S
C2320 H2311 0.950 . S
C2320 C2319 1.398 . S
C2320 C2321 1.391 . S
C2321 H2309 0.950 . S
C2321 C2317 1.393 . S
C2321 C2320 1.391 . S
C2322 H2312 0.950 . S
C2322 C2323 1.386 . S
C2322 C2324 1.391 . S
C2323 C2322 1.386 . S
C2323 C2327 1.393 . S
C2324 H2313 0.950 . S
C2324 C2322 1.391 . S
C2324 C2325 1.400 . S
C2325 C2319 1.491 . S
C2325 C2324 1.400 . S
C2325 C2326 1.398 . S
C2326 H2314 0.950 . S
C2326 C2325 1.398 . S
C2326 C2327 1.391 . S
C2327 H2315 0.950 . S
C2327 C2323 1.393 . S
C2327 C2326 1.391 . S
H2328 C2336 0.950 . S
H2329 C2341 0.950 . S
H2330 C2338 0.950 . S
H2331 C2340 0.950 . S
H2332 C2342 0.950 . S
H2333 C2344 0.950 . S
H2334 C2346 0.950 . S
H2335 C2347 0.950 . S
C2336 H2328 0.950 . S
C2336 C2337 1.386 . S
C2336 C2338 1.391 . S
C2337 C2336 1.386 . S
C2337 C2341 1.393 . S
C2338 H2330 0.950 . S
C2338 C2336 1.391 . S
C2338 C2339 1.400 . S
C2339 C2338 1.400 . S
C2339 C2340 1.398 . S
C2339 C2345 1.491 . S
C2340 H2331 0.950 . S
C2340 C2339 1.398 . S
C2340 C2341 1.391 . S
C2341 H2329 0.950 . S
C2341 C2337 1.393 . S
C2341 C2340 1.391 . S
C2342 H2332 0.950 . S
C2342 C2343 1.386 . S
C2342 C2344 1.391 . S
C2343 C2342 1.386 . S
C2343 C2347 1.393 . S
C2344 H2333 0.950 . S
C2344 C2342 1.391 . S
C2344 C2345 1.400 . S
C2345 C2339 1.491 . S
C2345 C2344 1.400 . S
C2345 C2346 1.398 . S
C2346 H2334 0.950 . S
C2346 C2345 1.398 . S
C2346 C2347 1.391 . S
C2347 H2335 0.950 . S
C2347 C2343 1.393 . S
C2347 C2346 1.391 . S
H2348 C2356 0.950 . S
H2349 C2361 0.950 . S
H2350 C2358 0.950 . S
H2351 C2360 0.950 . S
H2352 C2362 0.950 . S
H2353 C2364 0.950 . S
H2354 C2366 0.950 . S
H2355 C2367 0.950 . S
C2356 H2348 0.950 . S
C2356 C2357 1.386 . S
C2356 C2358 1.391 . S
C2357 C2356 1.386 . S
C2357 C2361 1.393 . S
C2358 H2350 0.950 . S
C2358 C2356 1.391 . S
C2358 C2359 1.400 . S
C2359 C2358 1.400 . S
C2359 C2360 1.398 . S
C2359 C2365 1.491 . S
C2360 H2351 0.950 . S
C2360 C2359 1.398 . S
C2360 C2361 1.391 . S
C2361 H2349 0.950 . S
C2361 C2357 1.393 . S
C2361 C2360 1.391 . S
C2362 H2352 0.950 . S
C2362 C2363 1.386 . S
C2362 C2364 1.391 . S
C2363 C2362 1.386 . S
C2363 C2367 1.393 . S
C2364 H2353 0.950 . S
C2364 C2362 1.391 . S
C2364 C2365 1.400 . S
C2365 C2359 1.491 . S
C2365 C2364 1.400 . S
C2365 C2366 1.398 . S
C2366 H2354 0.950 . S
C2366 C2365 1.398 . S
C2366 C2367 1.391 . S
C2367 H2355 0.950 . S
C2367 C2363 1.393 . S
C2367 C2366 1.391 . S
H2368 C2376 0.950 . S
H2369 C2381 0.950 . S
H2370 C2378 0.950 . S
H2371 C2380 0.950 . S
H2372 C2382 0.950 . S
H2373 C2384 0.950 . S
H2374 C2386 0.950 . S
H2375 C2387 0.950 . S
C2376 H2368 0.950 . S
C2376 C2377 1.386 . S
C2376 C2378 1.391 . S
C2377 C2376 1.386 . S
C2377 C2381 1.393 . S
C2378 H2370 0.950 . S
C2378 C2376 1.391 . S
C2378 C2379 1.400 . S
C2379 C2378 1.400 . S
C2379 C2380 1.398 . S
C2379 C2385 1.491 . S
C2380 H2371 0.950 . S
C2380 C2379 1.398 . S
C2380 C2381 1.391 . S
C2381 H2369 0.950 . S
C2381 C2377 1.393 . S
C2381 C2380 1.391 . S
C2382 H2372 0.950 . S
C2382 C2383 1.386 . S
C2382 C2384 1.391 . S
C2383 C2382 1.386 . S
C2383 C2387 1.393 . S
C2384 H2373 0.950 . S
C2384 C2382 1.391 . S
C2384 C2385 1.400 . S
C2385 C2379 1.491 . S
C2385 C2384 1.400 . S
C2385 C2386 1.398 . S
C2386 H2374 0.950 . S
C2386 C2385 1.398 . S
C2386 C2387 1.391 . S
C2387 H2375 0.950 . S
C2387 C2383 1.393 . S
C2387 C2386 1.391 . S
H2388 C2396 0.950 . S
H2389 C2401 0.950 . S
H2390 C2398 0.950 . S
H2391 C2400 0.950 . S
H2392 C2402 0.950 . S
H2393 C2404 0.950 . S
H2394 C2406 0.950 . S
H2395 C2407 0.950 . S
C2396 H2388 0.950 . S
C2396 C2397 1.386 . S
C2396 C2398 1.391 . S
C2397 C2396 1.386 . S
C2397 C2401 1.393 . S
C2398 H2390 0.950 . S
C2398 C2396 1.391 . S
C2398 C2399 1.400 . S
C2399 C2398 1.400 . S
C2399 C2400 1.398 . S
C2399 C2405 1.491 . S
C2400 H2391 0.950 . S
C2400 C2399 1.398 . S
C2400 C2401 1.391 . S
C2401 H2389 0.950 . S
C2401 C2397 1.393 . S
C2401 C2400 1.391 . S
C2402 H2392 0.950 . S
C2402 C2403 1.386 . S
C2402 C2404 1.391 . S
C2403 C2402 1.386 . S
C2403 C2407 1.393 . S
C2404 H2393 0.950 . S
C2404 C2402 1.391 . S
C2404 C2405 1.400 . S
C2405 C2399 1.491 . S
C2405 C2404 1.400 . S
C2405 C2406 1.398 . S
C2406 H2394 0.950 . S
C2406 C2405 1.398 . S
C2406 C2407 1.391 . S
C2407 H2395 0.950 . S
C2407 C2403 1.393 . S
C2407 C2406 1.391 . S
H2408 C2416 0.950 . S
H2409 C2421 0.950 . S
H2410 C2418 0.950 . S
H2411 C2420 0.950 . S
H2412 C2422 0.950 . S
H2413 C2424 0.950 . S
H2414 C2426 0.950 . S
H2415 C2427 0.950 . S
C2416 H2408 0.950 . S
C2416 C2417 1.386 . S
C2416 C2418 1.391 . S
C2417 C2416 1.386 . S
C2417 C2421 1.393 . S
C2418 H2410 0.950 . S
C2418 C2416 1.391 . S
C2418 C2419 1.400 . S
C2419 C2418 1.400 . S
C2419 C2420 1.398 . S
C2419 C2425 1.491 . S
C2420 H2411 0.950 . S
C2420 C2419 1.398 . S
C2420 C2421 1.391 . S
C2421 H2409 0.950 . S
C2421 C2417 1.393 . S
C2421 C2420 1.391 . S
C2422 H2412 0.950 . S
C2422 C2423 1.386 . S
C2422 C2424 1.391 . S
C2423 C2422 1.386 . S
C2423 C2427 1.393 . S
C2424 H2413 0.950 . S
C2424 C2422 1.391 . S
C2424 C2425 1.400 . S
C2425 C2419 1.491 . S
C2425 C2424 1.400 . S
C2425 C2426 1.398 . S
C2426 H2414 0.950 . S
C2426 C2425 1.398 . S
C2426 C2427 1.391 . S
C2427 H2415 0.950 . S
C2427 C2423 1.393 . S
C2427 C2426 1.391 . S
H2428 C2436 0.950 . S
H2429 C2441 0.950 . S
H2430 C2438 0.950 . S
H2431 C2440 0.950 . S
H2432 C2442 0.950 . S
H2433 C2444 0.950 . S
H2434 C2446 0.950 . S
H2435 C2447 0.950 . S
C2436 H2428 0.950 . S
C2436 C2437 1.386 . S
C2436 C2438 1.391 . S
C2437 C2436 1.386 . S
C2437 C2441 1.393 . S
C2438 H2430 0.950 . S
C2438 C2436 1.391 . S
C2438 C2439 1.400 . S
C2439 C2438 1.400 . S
C2439 C2440 1.398 . S
C2439 C2445 1.491 . S
C2440 H2431 0.950 . S
C2440 C2439 1.398 . S
C2440 C2441 1.391 . S
C2441 H2429 0.950 . S
C2441 C2437 1.393 . S
C2441 C2440 1.391 . S
C2442 H2432 0.950 . S
C2442 C2443 1.386 . S
C2442 C2444 1.391 . S
C2443 C2442 1.386 . S
C2443 C2447 1.393 . S
C2444 H2433 0.950 . S
C2444 C2442 1.391 . S
C2444 C2445 1.400 . S
C2445 C2439 1.491 . S
C2445 C2444 1.400 . S
C2445 C2446 1.398 . S
C2446 H2434 0.950 . S
C2446 C2445 1.398 . S
C2446 C2447 1.391 . S
C2447 H2435 0.950 . S
C2447 C2443 1.393 . S
C2447 C2446 1.391 . S
H2448 C2456 0.950 . S
H2449 C2461 0.950 . S
H2450 C2458 0.950 . S
H2451 C2460 0.950 . S
H2452 C2462 0.950 . S
H2453 C2464 0.950 . S
H2454 C2466 0.950 . S
H2455 C2467 0.950 . S
C2456 H2448 0.950 . S
C2456 C2457 1.386 . S
C2456 C2458 1.391 . S
C2457 C2456 1.386 . S
C2457 C2461 1.393 . S
C2458 H2450 0.950 . S
C2458 C2456 1.391 . S
C2458 C2459 1.400 . S
C2459 C2458 1.400 . S
C2459 C2460 1.398 . S
C2459 C2465 1.491 . S
C2460 H2451 0.950 . S
C2460 C2459 1.398 . S
C2460 C2461 1.391 . S
C2461 H2449 0.950 . S
C2461 C2457 1.393 . S
C2461 C2460 1.391 . S
C2462 H2452 0.950 . S
C2462 C2463 1.386 . S
C2462 C2464 1.391 . S
C2463 C2462 1.386 . S
C2463 C2467 1.393 . S
C2464 H2453 0.950 . S
C2464 C2462 1.391 . S
C2464 C2465 1.400 . S
C2465 C2459 1.491 . S
C2465 C2464 1.400 . S
C2465 C2466 1.398 . S
C2466 H2454 0.950 . S
C2466 C2465 1.398 . S
C2466 C2467 1.391 . S
C2467 H2455 0.950 . S
C2467 C2463 1.393 . S
C2467 C2466 1.391 . S
H2468 C2476 0.950 . S
H2469 C2481 0.950 . S
H2470 C2478 0.950 . S
H2471 C2480 0.950 . S
H2472 C2482 0.950 . S
H2473 C2484 0.950 . S
H2474 C2486 0.950 . S
H2475 C2487 0.950 . S
C2476 H2468 0.950 . S
C2476 C2477 1.386 . S
C2476 C2478 1.391 . S
C2477 C2476 1.386 . S
C2477 C2481 1.393 . S
C2478 H2470 0.950 . S
C2478 C2476 1.391 . S
C2478 C2479 1.400 . S
C2479 C2478 1.400 . S
C2479 C2480 1.398 . S
C2479 C2485 1.491 . S
C2480 H2471 0.950 . S
C2480 C2479 1.398 . S
C2480 C2481 1.391 . S
C2481 H2469 0.950 . S
C2481 C2477 1.393 . S
C2481 C2480 1.391 . S
C2482 H2472 0.950 . S
C2482 C2483 1.386 . S
C2482 C2484 1.391 . S
C2483 C2482 1.386 . S
C2483 C2487 1.393 . S
C2484 H2473 0.950 . S
C2484 C2482 1.391 . S
C2484 C2485 1.400 . S
C2485 C2479 1.491 . S
C2485 C2484 1.400 . S
C2485 C2486 1.398 . S
C2486 H2474 0.950 . S
C2486 C2485 1.398 . S
C2486 C2487 1.391 . S
C2487 H2475 0.950 . S
C2487 C2483 1.393 . S
C2487 C2486 1.391 . S
H2488 C2496 0.950 . S
H2489 C2501 0.950 . S
H2490 C2498 0.950 . S
H2491 C2500 0.950 . S
H2492 C2502 0.950 . S
H2493 C2504 0.950 . S
H2494 C2506 0.950 . S
H2495 C2507 0.950 . S
C2496 H2488 0.950 . S
C2496 C2497 1.386 . S
C2496 C2498 1.391 . S
C2497 C2496 1.386 . S
C2497 C2501 1.393 . S
C2498 H2490 0.950 . S
C2498 C2496 1.391 . S
C2498 C2499 1.400 . S
C2499 C2498 1.400 . S
C2499 C2500 1.398 . S
C2499 C2505 1.491 . S
C2500 H2491 0.950 . S
C2500 C2499 1.398 . S
C2500 C2501 1.391 . S
C2501 H2489 0.950 . S
C2501 C2497 1.393 . S
C2501 C2500 1.391 . S
C2502 H2492 0.950 . S
C2502 C2503 1.386 . S
C2502 C2504 1.391 . S
C2503 C2502 1.386 . S
C2503 C2507 1.393 . S
C2504 H2493 0.950 . S
C2504 C2502 1.391 . S
C2504 C2505 1.400 . S
C2505 C2499 1.491 . S
C2505 C2504 1.400 . S
C2505 C2506 1.398 . S
C2506 H2494 0.950 . S
C2506 C2505 1.398 . S
C2506 C2507 1.391 . S
C2507 H2495 0.950 . S
C2507 C2503 1.393 . S
C2507 C2506 1.391 . S
H2508 C2516 0.950 . S
H2509 C2521 0.950 1_554 S
H2510 C2518 0.950 . S
H2511 C2520 0.950 . S
H2512 C2522 0.950 . S
H2513 C2524 0.950 . S
H2514 C2526 0.950 . S
H2515 C2527 0.950 . S
C2516 H2508 0.950 . S
C2516 C2517 1.386 . S
C2516 C2518 1.391 1_554 S
C2517 C2516 1.386 . S
C2517 C2521 1.393 1_554 S
C2518 H2510 0.950 . S
C2518 C2516 1.391 1_556 S
C2518 C2519 1.400 . S
C2519 C2518 1.400 . S
C2519 C2520 1.398 . S
C2519 C2525 1.491 . S
C2520 H2511 0.950 . S
C2520 C2519 1.398 . S
C2520 C2521 1.391 . S
C2521 H2509 0.950 1_556 S
C2521 C2517 1.393 1_556 S
C2521 C2520 1.391 . S
C2522 H2512 0.950 . S
C2522 C2523 1.386 . S
C2522 C2524 1.391 . S
C2523 C2522 1.386 . S
C2523 C2527 1.393 . S
C2524 H2513 0.950 . S
C2524 C2522 1.391 . S
C2524 C2525 1.400 . S
C2525 C2519 1.491 . S
C2525 C2524 1.400 . S
C2525 C2526 1.398 . S
C2526 H2514 0.950 . S
C2526 C2525 1.398 . S
C2526 C2527 1.391 . S
C2527 H2515 0.950 . S
C2527 C2523 1.393 . S
C2527 C2526 1.391 . S
H2528 C2536 0.950 1_554 S
H2529 C2541 0.950 1_554 S
H2530 C2538 0.950 . S
H2531 C2540 0.950 . S
H2532 C2542 0.950 . S
H2533 C2544 0.950 . S
H2534 C2546 0.950 . S
H2535 C2547 0.950 . S
C2536 H2528 0.950 1_556 S
C2536 C2537 1.386 1_556 S
C2536 C2538 1.391 . S
C2537 C2536 1.386 1_554 S
C2537 C2541 1.393 1_554 S
C2538 H2530 0.950 . S
C2538 C2536 1.391 . S
C2538 C2539 1.400 . S
C2539 C2538 1.400 . S
C2539 C2540 1.398 . S
C2539 C2545 1.491 . S
C2540 H2531 0.950 . S
C2540 C2539 1.398 . S
C2540 C2541 1.391 . S
C2541 H2529 0.950 1_556 S
C2541 C2537 1.393 1_556 S
C2541 C2540 1.391 . S
C2542 H2532 0.950 . S
C2542 C2543 1.386 . S
C2542 C2544 1.391 . S
C2543 C2542 1.386 . S
C2543 C2547 1.393 . S
C2544 H2533 0.950 . S
C2544 C2542 1.391 . S
C2544 C2545 1.400 . S
C2545 C2539 1.491 . S
C2545 C2544 1.400 . S
C2545 C2546 1.398 . S
C2546 H2534 0.950 . S
C2546 C2545 1.398 . S
C2546 C2547 1.391 . S
C2547 H2535 0.950 . S
C2547 C2543 1.393 . S
C2547 C2546 1.391 . S
H2548 C2556 0.950 . S
H2549 C2561 0.950 . S
H2550 C2558 0.950 . S
H2551 C2560 0.950 . S
H2552 C2562 0.950 1_554 S
H2553 C2564 0.950 . S
H2554 C2566 0.950 . S
H2555 C2567 0.950 . S
C2556 H2548 0.950 . S
C2556 C2557 1.386 . S
C2556 C2558 1.391 . S
C2557 C2556 1.386 . S
C2557 C2561 1.393 . S
C2558 H2550 0.950 . S
C2558 C2556 1.391 . S
C2558 C2559 1.400 . S
C2559 C2558 1.400 . S
C2559 C2560 1.398 . S
C2559 C2565 1.491 . S
C2560 H2551 0.950 . S
C2560 C2559 1.398 . S
C2560 C2561 1.391 . S
C2561 H2549 0.950 . S
C2561 C2557 1.393 . S
C2561 C2560 1.391 . S
C2562 H2552 0.950 1_556 S
C2562 C2563 1.386 1_556 S
C2562 C2564 1.391 . S
C2563 C2562 1.386 1_554 S
C2563 C2567 1.393 . S
C2564 H2553 0.950 . S
C2564 C2562 1.391 . S
C2564 C2565 1.400 . S
C2565 C2559 1.491 . S
C2565 C2564 1.400 . S
C2565 C2566 1.398 . S
C2566 H2554 0.950 . S
C2566 C2565 1.398 . S
C2566 C2567 1.391 1_556 S
C2567 H2555 0.950 . S
C2567 C2563 1.393 . S
C2567 C2566 1.391 1_554 S
H2568 C2576 0.950 . S
H2569 C2581 0.950 . S
H2570 C2578 0.950 . S
H2571 C2580 0.950 . S
H2572 C2582 0.950 1_554 S
H2573 C2584 0.950 . S
H2574 C2586 0.950 . S
H2575 C2587 0.950 1_554 S
C2576 H2568 0.950 . S
C2576 C2577 1.386 . S
C2576 C2578 1.391 . S
C2577 C2576 1.386 . S
C2577 C2581 1.393 . S
C2578 H2570 0.950 . S
C2578 C2576 1.391 . S
C2578 C2579 1.400 . S
C2579 C2578 1.400 . S
C2579 C2580 1.398 . S
C2579 C2585 1.491 . S
C2580 H2571 0.950 . S
C2580 C2579 1.398 . S
C2580 C2581 1.391 . S
C2581 H2569 0.950 . S
C2581 C2577 1.393 . S
C2581 C2580 1.391 . S
C2582 H2572 0.950 1_556 S
C2582 C2583 1.386 1_556 S
C2582 C2584 1.391 . S
C2583 C2582 1.386 1_554 S
C2583 C2587 1.393 1_554 S
C2584 H2573 0.950 . S
C2584 C2582 1.391 . S
C2584 C2585 1.400 . S
C2585 C2579 1.491 . S
C2585 C2584 1.400 . S
C2585 C2586 1.398 . S
C2586 H2574 0.950 . S
C2586 C2585 1.398 . S
C2586 C2587 1.391 . S
C2587 H2575 0.950 1_556 S
C2587 C2583 1.393 1_556 S
C2587 C2586 1.391 . S
H2588 C2596 0.950 . S
H2589 C2601 0.950 . S
H2590 C2598 0.950 . S
H2591 C2600 0.950 . S
H2592 C2602 0.950 1_554 S
H2593 C2604 0.950 . S
H2594 C2606 0.950 . S
H2595 C2607 0.950 1_554 S
C2596 H2588 0.950 . S
C2596 C2597 1.386 . S
C2596 C2598 1.391 . S
C2597 C2596 1.386 . S
C2597 C2601 1.393 . S
C2598 H2590 0.950 . S
C2598 C2596 1.391 . S
C2598 C2599 1.400 . S
C2599 C2598 1.400 . S
C2599 C2600 1.398 . S
C2599 C2605 1.491 . S
C2600 H2591 0.950 . S
C2600 C2599 1.398 . S
C2600 C2601 1.391 . S
C2601 H2589 0.950 . S
C2601 C2597 1.393 . S
C2601 C2600 1.391 . S
C2602 H2592 0.950 1_556 S
C2602 C2603 1.386 1_556 S
C2602 C2604 1.391 . S
C2603 C2602 1.386 1_554 S
C2603 C2607 1.393 1_554 S
C2604 H2593 0.950 . S
C2604 C2602 1.391 . S
C2604 C2605 1.400 . S
C2605 C2599 1.491 . S
C2605 C2604 1.400 . S
C2605 C2606 1.398 . S
C2606 H2594 0.950 . S
C2606 C2605 1.398 . S
C2606 C2607 1.391 . S
C2607 H2595 0.950 1_556 S
C2607 C2603 1.393 1_556 S
C2607 C2606 1.391 . S
H2608 C2616 0.950 1_554 S
H2609 C2621 0.950 1_554 S
H2610 C2618 0.950 . S
H2611 C2620 0.950 . S
H2612 C2622 0.950 . S
H2613 C2624 0.950 . S
H2614 C2626 0.950 . S
H2615 C2627 0.950 . S
C2616 H2608 0.950 1_556 S
C2616 C2617 1.386 1_556 S
C2616 C2618 1.391 . S
C2617 C2616 1.386 1_554 S
C2617 C2621 1.393 1_554 S
C2618 H2610 0.950 . S
C2618 C2616 1.391 . S
C2618 C2619 1.400 . S
C2619 C2618 1.400 . S
C2619 C2620 1.398 . S
C2619 C2625 1.491 . S
C2620 H2611 0.950 . S
C2620 C2619 1.398 . S
C2620 C2621 1.391 . S
C2621 H2609 0.950 1_556 S
C2621 C2617 1.393 1_556 S
C2621 C2620 1.391 . S
C2622 H2612 0.950 . S
C2622 C2623 1.386 . S
C2622 C2624 1.391 . S
C2623 C2622 1.386 . S
C2623 C2627 1.393 . S
C2624 H2613 0.950 . S
C2624 C2622 1.391 . S
C2624 C2625 1.400 . S
C2625 C2619 1.491 . S
C2625 C2624 1.400 . S
C2625 C2626 1.398 . S
C2626 H2614 0.950 . S
C2626 C2625 1.398 . S
C2626 C2627 1.391 . S
C2627 H2615 0.950 . S
C2627 C2623 1.393 . S
C2627 C2626 1.391 . S
H2628 C2636 0.950 . S
H2629 C2641 0.950 . S
H2630 C2638 0.950 . S
H2631 C2640 0.950 . S
H2632 C2642 0.950 1_554 S
H2633 C2644 0.950 . S
H2634 C2646 0.950 . S
H2635 C2647 0.950 1_554 S
C2636 H2628 0.950 . S
C2636 C2637 1.386 . S
C2636 C2638 1.391 . S
C2637 C2636 1.386 . S
C2637 C2641 1.393 . S
C2638 H2630 0.950 . S
C2638 C2636 1.391 . S
C2638 C2639 1.400 . S
C2639 C2638 1.400 . S
C2639 C2640 1.398 . S
C2639 C2645 1.491 . S
C2640 H2631 0.950 . S
C2640 C2639 1.398 . S
C2640 C2641 1.391 . S
C2641 H2629 0.950 . S
C2641 C2637 1.393 . S
C2641 C2640 1.391 . S
C2642 H2632 0.950 1_556 S
C2642 C2643 1.386 1_556 S
C2642 C2644 1.391 . S
C2643 C2642 1.386 1_554 S
C2643 C2647 1.393 1_554 S
C2644 H2633 0.950 . S
C2644 C2642 1.391 . S
C2644 C2645 1.400 . S
C2645 C2639 1.491 . S
C2645 C2644 1.400 . S
C2645 C2646 1.398 . S
C2646 H2634 0.950 . S
C2646 C2645 1.398 . S
C2646 C2647 1.391 . S
C2647 H2635 0.950 1_556 S
C2647 C2643 1.393 1_556 S
C2647 C2646 1.391 . S
H2648 C2656 0.950 1_554 S
H2649 C2661 0.950 1_554 S
H2650 C2658 0.950 . S
H2651 C2660 0.950 . S
H2652 C2662 0.950 . S
H2653 C2664 0.950 . S
H2654 C2666 0.950 . S
H2655 C2667 0.950 . S
C2656 H2648 0.950 1_556 S
C2656 C2657 1.386 1_556 S
C2656 C2658 1.391 . S
C2657 C2656 1.386 1_554 S
C2657 C2661 1.393 1_554 S
C2658 H2650 0.950 . S
C2658 C2656 1.391 . S
C2658 C2659 1.400 . S
C2659 C2658 1.400 . S
C2659 C2660 1.398 . S
C2659 C2665 1.491 . S
C2660 H2651 0.950 . S
C2660 C2659 1.398 . S
C2660 C2661 1.391 . S
C2661 H2649 0.950 1_556 S
C2661 C2657 1.393 1_556 S
C2661 C2660 1.391 . S
C2662 H2652 0.950 . S
C2662 C2663 1.386 . S
C2662 C2664 1.391 . S
C2663 C2662 1.386 . S
C2663 C2667 1.393 . S
C2664 H2653 0.950 . S
C2664 C2662 1.391 . S
C2664 C2665 1.400 . S
C2665 C2659 1.491 . S
C2665 C2664 1.400 . S
C2665 C2666 1.398 . S
C2666 H2654 0.950 . S
C2666 C2665 1.398 . S
C2666 C2667 1.391 . S
C2667 H2655 0.950 . S
C2667 C2663 1.393 . S
C2667 C2666 1.391 . S
H2668 C2676 0.950 1_554 S
H2669 C2681 0.950 1_554 S
H2670 C2678 0.950 . S
H2671 C2680 0.950 . S
H2672 C2682 0.950 . S
H2673 C2684 0.950 . S
H2674 C2686 0.950 . S
H2675 C2687 0.950 . S
C2676 H2668 0.950 1_556 S
C2676 C2677 1.386 1_556 S
C2676 C2678 1.391 . S
C2677 C2676 1.386 1_554 S
C2677 C2681 1.393 1_554 S
C2678 H2670 0.950 . S
C2678 C2676 1.391 . S
C2678 C2679 1.400 . S
C2679 C2678 1.400 . S
C2679 C2680 1.398 . S
C2679 C2685 1.491 . S
C2680 H2671 0.950 . S
C2680 C2679 1.398 . S
C2680 C2681 1.391 . S
C2681 H2669 0.950 1_556 S
C2681 C2677 1.393 1_556 S
C2681 C2680 1.391 . S
C2682 H2672 0.950 . S
C2682 C2683 1.386 . S
C2682 C2684 1.391 . S
C2683 C2682 1.386 . S
C2683 C2687 1.393 . S
C2684 H2673 0.950 . S
C2684 C2682 1.391 . S
C2684 C2685 1.400 . S
C2685 C2679 1.491 . S
C2685 C2684 1.400 . S
C2685 C2686 1.398 . S
C2686 H2674 0.950 . S
C2686 C2685 1.398 . S
C2686 C2687 1.391 . S
C2687 H2675 0.950 . S
C2687 C2683 1.393 . S
C2687 C2686 1.391 . S
H2688 C2696 0.950 1_554 S
H2689 C2701 0.950 . S
H2690 C2698 0.950 . S
H2691 C2700 0.950 . S
H2692 C2702 0.950 . S
H2693 C2704 0.950 . S
H2694 C2706 0.950 . S
H2695 C2707 0.950 . S
C2696 H2688 0.950 1_556 S
C2696 C2697 1.386 1_556 S
C2696 C2698 1.391 . S
C2697 C2696 1.386 1_554 S
C2697 C2701 1.393 . S
C2698 H2690 0.950 . S
C2698 C2696 1.391 . S
C2698 C2699 1.400 . S
C2699 C2698 1.400 . S
C2699 C2700 1.398 . S
C2699 C2705 1.491 . S
C2700 H2691 0.950 . S
C2700 C2699 1.398 . S
C2700 C2701 1.391 1_556 S
C2701 H2689 0.950 . S
C2701 C2697 1.393 . S
C2701 C2700 1.391 1_554 S
C2702 H2692 0.950 . S
C2702 C2703 1.386 . S
C2702 C2704 1.391 . S
C2703 C2702 1.386 . S
C2703 C2707 1.393 . S
C2704 H2693 0.950 . S
C2704 C2702 1.391 . S
C2704 C2705 1.400 . S
C2705 C2699 1.491 . S
C2705 C2704 1.400 . S
C2705 C2706 1.398 . S
C2706 H2694 0.950 . S
C2706 C2705 1.398 . S
C2706 C2707 1.391 . S
C2707 H2695 0.950 . S
C2707 C2703 1.393 . S
C2707 C2706 1.391 . S
H2708 C2716 0.950 . S
H2709 C2721 0.950 1_554 S
H2710 C2718 0.950 . S
H2711 C2720 0.950 . S
H2712 C2722 0.950 . S
H2713 C2724 0.950 . S
H2714 C2726 0.950 . S
H2715 C2727 0.950 . S
C2716 H2708 0.950 . S
C2716 C2717 1.386 . S
C2716 C2718 1.391 1_554 S
C2717 C2716 1.386 . S
C2717 C2721 1.393 1_554 S
C2718 H2710 0.950 . S
C2718 C2716 1.391 1_556 S
C2718 C2719 1.400 . S
C2719 C2718 1.400 . S
C2719 C2720 1.398 . S
C2719 C2725 1.491 . S
C2720 H2711 0.950 . S
C2720 C2719 1.398 . S
C2720 C2721 1.391 . S
C2721 H2709 0.950 1_556 S
C2721 C2717 1.393 1_556 S
C2721 C2720 1.391 . S
C2722 H2712 0.950 . S
C2722 C2723 1.386 . S
C2722 C2724 1.391 . S
C2723 C2722 1.386 . S
C2723 C2727 1.393 . S
C2724 H2713 0.950 . S
C2724 C2722 1.391 . S
C2724 C2725 1.400 . S
C2725 C2719 1.491 . S
C2725 C2724 1.400 . S
C2725 C2726 1.398 . S
C2726 H2714 0.950 . S
C2726 C2725 1.398 . S
C2726 C2727 1.391 . S
C2727 H2715 0.950 . S
C2727 C2723 1.393 . S
C2727 C2726 1.391 . S
H2728 C2736 0.950 1_554 S
H2729 C2741 0.950 . S
H2730 C2738 0.950 . S
H2731 C2740 0.950 . S
H2732 C2742 0.950 . S
H2733 C2744 0.950 . S
H2734 C2746 0.950 . S
H2735 C2747 0.950 . S
C2736 H2728 0.950 1_556 S
C2736 C2737 1.386 1_556 S
C2736 C2738 1.391 . S
C2737 C2736 1.386 1_554 S
C2737 C2741 1.393 . S
C2738 H2730 0.950 . S
C2738 C2736 1.391 . S
C2738 C2739 1.400 . S
C2739 C2738 1.400 . S
C2739 C2740 1.398 . S
C2739 C2745 1.491 . S
C2740 H2731 0.950 . S
C2740 C2739 1.398 . S
C2740 C2741 1.391 1_556 S
C2741 H2729 0.950 . S
C2741 C2737 1.393 . S
C2741 C2740 1.391 1_554 S
C2742 H2732 0.950 . S
C2742 C2743 1.386 . S
C2742 C2744 1.391 . S
C2743 C2742 1.386 . S
C2743 C2747 1.393 . S
C2744 H2733 0.950 . S
C2744 C2742 1.391 . S
C2744 C2745 1.400 . S
C2745 C2739 1.491 . S
C2745 C2744 1.400 . S
C2745 C2746 1.398 . S
C2746 H2734 0.950 . S
C2746 C2745 1.398 . S
C2746 C2747 1.391 . S
C2747 H2735 0.950 . S
C2747 C2743 1.393 . S
C2747 C2746 1.391 . S
H2748 C2756 0.950 . S
H2749 C2761 0.950 . S
H2750 C2758 0.950 . S
H2751 C2760 0.950 . S
H2752 C2762 0.950 1_556 S
H2753 C2764 0.950 . S
H2754 C2766 0.950 . S
H2755 C2767 0.950 1_556 S
C2756 H2748 0.950 . S
C2756 C2757 1.386 . S
C2756 C2758 1.391 . S
C2757 C2756 1.386 . S
C2757 C2761 1.393 . S
C2758 H2750 0.950 . S
C2758 C2756 1.391 . S
C2758 C2759 1.400 . S
C2759 C2758 1.400 . S
C2759 C2760 1.398 . S
C2759 C2765 1.491 . S
C2760 H2751 0.950 . S
C2760 C2759 1.398 . S
C2760 C2761 1.391 . S
C2761 H2749 0.950 . S
C2761 C2757 1.393 . S
C2761 C2760 1.391 . S
C2762 H2752 0.950 1_554 S
C2762 C2763 1.386 1_554 S
C2762 C2764 1.391 . S
C2763 C2762 1.386 1_556 S
C2763 C2767 1.393 1_556 S
C2764 H2753 0.950 . S
C2764 C2762 1.391 . S
C2764 C2765 1.400 . S
C2765 C2759 1.491 . S
C2765 C2764 1.400 . S
C2765 C2766 1.398 . S
C2766 H2754 0.950 . S
C2766 C2765 1.398 . S
C2766 C2767 1.391 . S
C2767 H2755 0.950 1_554 S
C2767 C2763 1.393 1_554 S
C2767 C2766 1.391 . S
H2768 C2776 0.950 . S
H2769 C2781 0.950 . S
H2770 C2778 0.950 . S
H2771 C2780 0.950 . S
H2772 C2782 0.950 1_556 S
H2773 C2784 0.950 . S
H2774 C2786 0.950 . S
H2775 C2787 0.950 1_556 S
C2776 H2768 0.950 . S
C2776 C2777 1.386 . S
C2776 C2778 1.391 . S
C2777 C2776 1.386 . S
C2777 C2781 1.393 . S
C2778 H2770 0.950 . S
C2778 C2776 1.391 . S
C2778 C2779 1.400 . S
C2779 C2778 1.400 . S
C2779 C2780 1.398 . S
C2779 C2785 1.491 . S
C2780 H2771 0.950 . S
C2780 C2779 1.398 . S
C2780 C2781 1.391 . S
C2781 H2769 0.950 . S
C2781 C2777 1.393 . S
C2781 C2780 1.391 . S
C2782 H2772 0.950 1_554 S
C2782 C2783 1.386 1_554 S
C2782 C2784 1.391 . S
C2783 C2782 1.386 1_556 S
C2783 C2787 1.393 1_556 S
C2784 H2773 0.950 . S
C2784 C2782 1.391 . S
C2784 C2785 1.400 . S
C2785 C2779 1.491 . S
C2785 C2784 1.400 . S
C2785 C2786 1.398 . S
C2786 H2774 0.950 . S
C2786 C2785 1.398 . S
C2786 C2787 1.391 . S
C2787 H2775 0.950 1_554 S
C2787 C2783 1.393 1_554 S
C2787 C2786 1.391 . S
H2788 C2796 0.950 1_556 S
H2789 C2801 0.950 1_556 S
H2790 C2798 0.950 . S
H2791 C2800 0.950 . S
H2792 C2802 0.950 . S
H2793 C2804 0.950 . S
H2794 C2806 0.950 . S
H2795 C2807 0.950 . S
C2796 H2788 0.950 1_554 S
C2796 C2797 1.386 1_554 S
C2796 C2798 1.391 . S
C2797 C2796 1.386 1_556 S
C2797 C2801 1.393 1_556 S
C2798 H2790 0.950 . S
C2798 C2796 1.391 . S
C2798 C2799 1.400 . S
C2799 C2798 1.400 . S
C2799 C2800 1.398 . S
C2799 C2805 1.491 . S
C2800 H2791 0.950 . S
C2800 C2799 1.398 . S
C2800 C2801 1.391 . S
C2801 H2789 0.950 1_554 S
C2801 C2797 1.393 1_554 S
C2801 C2800 1.391 . S
C2802 H2792 0.950 . S
C2802 C2803 1.386 . S
C2802 C2804 1.391 . S
C2803 C2802 1.386 . S
C2803 C2807 1.393 . S
C2804 H2793 0.950 . S
C2804 C2802 1.391 . S
C2804 C2805 1.400 . S
C2805 C2799 1.491 . S
C2805 C2804 1.400 . S
C2805 C2806 1.398 . S
C2806 H2794 0.950 . S
C2806 C2805 1.398 . S
C2806 C2807 1.391 . S
C2807 H2795 0.950 . S
C2807 C2803 1.393 . S
C2807 C2806 1.391 . S
H2808 C2816 0.950 . S
H2809 C2821 0.950 . S
H2810 C2818 0.950 . S
H2811 C2820 0.950 . S
H2812 C2822 0.950 1_556 S
H2813 C2824 0.950 . S
H2814 C2826 0.950 . S
H2815 C2827 0.950 . S
C2816 H2808 0.950 . S
C2816 C2817 1.386 . S
C2816 C2818 1.391 . S
C2817 C2816 1.386 . S
C2817 C2821 1.393 . S
C2818 H2810 0.950 . S
C2818 C2816 1.391 . S
C2818 C2819 1.400 . S
C2819 C2818 1.400 . S
C2819 C2820 1.398 . S
C2819 C2825 1.491 . S
C2820 H2811 0.950 . S
C2820 C2819 1.398 . S
C2820 C2821 1.391 . S
C2821 H2809 0.950 . S
C2821 C2817 1.393 . S
C2821 C2820 1.391 . S
C2822 H2812 0.950 1_554 S
C2822 C2823 1.386 1_554 S
C2822 C2824 1.391 . S
C2823 C2822 1.386 1_556 S
C2823 C2827 1.393 . S
C2824 H2813 0.950 . S
C2824 C2822 1.391 . S
C2824 C2825 1.400 . S
C2825 C2819 1.491 . S
C2825 C2824 1.400 . S
C2825 C2826 1.398 . S
C2826 H2814 0.950 . S
C2826 C2825 1.398 . S
C2826 C2827 1.391 1_554 S
C2827 H2815 0.950 . S
C2827 C2823 1.393 . S
C2827 C2826 1.391 1_556 S
H2828 C2836 0.950 . S
H2829 C2841 0.950 . S
H2830 C2838 0.950 . S
H2831 C2840 0.950 . S
H2832 C2842 0.950 . S
H2833 C2844 0.950 . S
H2834 C2846 0.950 . S
H2835 C2847 0.950 1_556 S
C2836 H2828 0.950 . S
C2836 C2837 1.386 . S
C2836 C2838 1.391 . S
C2837 C2836 1.386 . S
C2837 C2841 1.393 . S
C2838 H2830 0.950 . S
C2838 C2836 1.391 . S
C2838 C2839 1.400 . S
C2839 C2838 1.400 . S
C2839 C2840 1.398 . S
C2839 C2845 1.491 . S
C2840 H2831 0.950 . S
C2840 C2839 1.398 . S
C2840 C2841 1.391 . S
C2841 H2829 0.950 . S
C2841 C2837 1.393 . S
C2841 C2840 1.391 . S
C2842 H2832 0.950 . S
C2842 C2843 1.386 . S
C2842 C2844 1.391 1_556 S
C2843 C2842 1.386 . S
C2843 C2847 1.393 1_556 S
C2844 H2833 0.950 . S
C2844 C2842 1.391 1_554 S
C2844 C2845 1.400 . S
C2845 C2839 1.491 . S
C2845 C2844 1.400 . S
C2845 C2846 1.398 . S
C2846 H2834 0.950 . S
C2846 C2845 1.398 . S
C2846 C2847 1.391 . S
C2847 H2835 0.950 1_554 S
C2847 C2843 1.393 1_554 S
C2847 C2846 1.391 . S
H2848 C2856 0.950 . S
H2849 C2861 0.950 . S
H2850 C2858 0.950 . S
H2851 C2860 0.950 . S
H2852 C2862 0.950 . S
H2853 C2864 0.950 . S
H2854 C2866 0.950 . S
H2855 C2867 0.950 1_556 S
C2856 H2848 0.950 . S
C2856 C2857 1.386 . S
C2856 C2858 1.391 . S
C2857 C2856 1.386 . S
C2857 C2861 1.393 . S
C2858 H2850 0.950 . S
C2858 C2856 1.391 . S
C2858 C2859 1.400 . S
C2859 C2858 1.400 . S
C2859 C2860 1.398 . S
C2859 C2865 1.491 . S
C2860 H2851 0.950 . S
C2860 C2859 1.398 . S
C2860 C2861 1.391 . S
C2861 H2849 0.950 . S
C2861 C2857 1.393 . S
C2861 C2860 1.391 . S
C2862 H2852 0.950 . S
C2862 C2863 1.386 . S
C2862 C2864 1.391 1_556 S
C2863 C2862 1.386 . S
C2863 C2867 1.393 1_556 S
C2864 H2853 0.950 . S
C2864 C2862 1.391 1_554 S
C2864 C2865 1.400 . S
C2865 C2859 1.491 . S
C2865 C2864 1.400 . S
C2865 C2866 1.398 . S
C2866 H2854 0.950 . S
C2866 C2865 1.398 . S
C2866 C2867 1.391 . S
C2867 H2855 0.950 1_554 S
C2867 C2863 1.393 1_554 S
C2867 C2866 1.391 . S
H2868 C2876 0.950 . S
H2869 C2881 0.950 . S
H2870 C2878 0.950 . S
H2871 C2880 0.950 . S
H2872 C2882 0.950 1_556 S
H2873 C2884 0.950 . S
H2874 C2886 0.950 . S
H2875 C2887 0.953 . S
C2876 H2868 0.950 . S
C2876 C2877 1.386 . S
C2876 C2878 1.391 . S
C2877 C2876 1.386 . S
C2877 C2881 1.393 . S
C2878 H2870 0.950 . S
C2878 C2876 1.391 . S
C2878 C2879 1.400 . S
C2879 C2878 1.400 . S
C2879 C2880 1.398 . S
C2879 C2885 1.491 . S
C2880 H2871 0.950 . S
C2880 C2879 1.398 . S
C2880 C2881 1.391 . S
C2881 H2869 0.950 . S
C2881 C2877 1.393 . S
C2881 C2880 1.391 . S
C2882 H2872 0.950 1_554 S
C2882 C2883 1.386 1_554 S
C2882 C2884 1.391 . S
C2883 C2882 1.386 1_556 S
C2883 C2887 1.395 . S
C2884 H2873 0.950 . S
C2884 C2882 1.391 . S
C2884 C2885 1.400 . S
C2885 C2879 1.491 . S
C2885 C2884 1.400 . S
C2885 C2886 1.398 . S
C2886 H2874 0.950 . S
C2886 C2885 1.398 . S
C2886 C2887 1.385 1_554 S
C2887 H2875 0.953 . S
C2887 C2883 1.395 . S
C2887 C2886 1.385 1_556 S
H2888 C2896 0.950 . S
H2889 C2901 0.950 . S
H2890 C2898 0.950 . S
H2891 C2900 0.950 . S
H2892 C2902 0.950 1_556 S
H2893 C2904 0.950 . S
H2894 C2906 0.950 . S
H2895 C2907 0.950 . S
C2896 H2888 0.950 . S
C2896 C2897 1.386 . S
C2896 C2898 1.391 . S
C2897 C2896 1.386 . S
C2897 C2901 1.393 . S
C2898 H2890 0.950 . S
C2898 C2896 1.391 . S
C2898 C2899 1.400 . S
C2899 C2898 1.400 . S
C2899 C2900 1.398 . S
C2899 C2905 1.491 . S
C2900 H2891 0.950 . S
C2900 C2899 1.398 . S
C2900 C2901 1.391 . S
C2901 H2889 0.950 . S
C2901 C2897 1.393 . S
C2901 C2900 1.391 . S
C2902 H2892 0.950 1_554 S
C2902 C2903 1.386 1_554 S
C2902 C2904 1.391 . S
C2903 C2902 1.386 1_556 S
C2903 C2907 1.393 . S
C2904 H2893 0.950 . S
C2904 C2902 1.391 . S
C2904 C2905 1.400 . S
C2905 C2899 1.491 . S
C2905 C2904 1.400 . S
C2905 C2906 1.398 . S
C2906 H2894 0.950 . S
C2906 C2905 1.398 . S
C2906 C2907 1.391 1_554 S
C2907 H2895 0.950 . S
C2907 C2903 1.393 . S
C2907 C2906 1.391 1_556 S
H2908 C2916 0.950 . S
H2909 C2921 0.950 1_556 S
H2910 C2918 0.950 . S
H2911 C2920 0.950 . S
H2912 C2922 0.950 . S
H2913 C2924 0.950 . S
H2914 C2926 0.950 . S
H2915 C2927 0.950 . S
C2916 H2908 0.950 . S
C2916 C2917 1.386 . S
C2916 C2918 1.391 1_556 S
C2917 C2916 1.386 . S
C2917 C2921 1.393 1_556 S
C2918 H2910 0.950 . S
C2918 C2916 1.391 1_554 S
C2918 C2919 1.400 . S
C2919 C2918 1.400 . S
C2919 C2920 1.398 . S
C2919 C2925 1.491 . S
C2920 H2911 0.950 . S
C2920 C2919 1.398 . S
C2920 C2921 1.391 . S
C2921 H2909 0.950 1_554 S
C2921 C2917 1.393 1_554 S
C2921 C2920 1.391 . S
C2922 H2912 0.950 . S
C2922 C2923 1.386 . S
C2922 C2924 1.391 . S
C2923 C2922 1.386 . S
C2923 C2927 1.393 . S
C2924 H2913 0.950 . S
C2924 C2922 1.391 . S
C2924 C2925 1.400 . S
C2925 C2919 1.491 . S
C2925 C2924 1.400 . S
C2925 C2926 1.398 . S
C2926 H2914 0.950 . S
C2926 C2925 1.398 . S
C2926 C2927 1.391 . S
C2927 H2915 0.950 . S
C2927 C2923 1.393 . S
C2927 C2926 1.391 . S
H2928 C2936 0.950 1_556 S
H2929 C2941 0.950 1_556 S
H2930 C2938 0.950 . S
H2931 C2940 0.950 . S
H2932 C2942 0.950 . S
H2933 C2944 0.950 . S
H2934 C2946 0.950 . S
H2935 C2947 0.950 . S
C2936 H2928 0.950 1_554 S
C2936 C2937 1.386 1_554 S
C2936 C2938 1.391 . S
C2937 C2936 1.386 1_556 S
C2937 C2941 1.393 1_556 S
C2938 H2930 0.950 . S
C2938 C2936 1.391 . S
C2938 C2939 1.400 . S
C2939 C2938 1.400 . S
C2939 C2940 1.398 . S
C2939 C2945 1.491 . S
C2940 H2931 0.950 . S
C2940 C2939 1.398 . S
C2940 C2941 1.391 . S
C2941 H2929 0.950 1_554 S
C2941 C2937 1.393 1_554 S
C2941 C2940 1.391 . S
C2942 H2932 0.950 . S
C2942 C2943 1.386 . S
C2942 C2944 1.391 . S
C2943 C2942 1.386 . S
C2943 C2947 1.393 . S
C2944 H2933 0.950 . S
C2944 C2942 1.391 . S
C2944 C2945 1.400 . S
C2945 C2939 1.491 . S
C2945 C2944 1.400 . S
C2945 C2946 1.398 . S
C2946 H2934 0.950 . S
C2946 C2945 1.398 . S
C2946 C2947 1.391 . S
C2947 H2935 0.950 . S
C2947 C2943 1.393 . S
C2947 C2946 1.391 . S
H2948 C2956 0.950 1_556 S
H2949 C2961 0.950 1_556 S
H2950 C2958 0.950 . S
H2951 C2960 0.950 . S
H2952 C2962 0.950 . S
H2953 C2964 0.950 . S
H2954 C2966 0.950 . S
H2955 C2967 0.950 . S
C2956 H2948 0.950 1_554 S
C2956 C2957 1.386 1_554 S
C2956 C2958 1.391 . S
C2957 C2956 1.386 1_556 S
C2957 C2961 1.393 1_556 S
C2958 H2950 0.950 . S
C2958 C2956 1.391 . S
C2958 C2959 1.400 . S
C2959 C2958 1.400 . S
C2959 C2960 1.398 . S
C2959 C2965 1.491 . S
C2960 H2951 0.950 . S
C2960 C2959 1.398 . S
C2960 C2961 1.391 . S
C2961 H2949 0.950 1_554 S
C2961 C2957 1.393 1_554 S
C2961 C2960 1.391 . S
C2962 H2952 0.950 . S
C2962 C2963 1.386 . S
C2962 C2964 1.391 . S
C2963 C2962 1.386 . S
C2963 C2967 1.393 . S
C2964 H2953 0.950 . S
C2964 C2962 1.391 . S
C2964 C2965 1.400 . S
C2965 C2959 1.491 . S
C2965 C2964 1.400 . S
C2965 C2966 1.398 . S
C2966 H2954 0.950 . S
C2966 C2965 1.398 . S
C2966 C2967 1.391 . S
C2967 H2955 0.950 . S
C2967 C2963 1.393 . S
C2967 C2966 1.391 . S
H2968 C2976 0.950 . S
H2969 C2981 0.950 . S
H2970 C2978 0.950 . S
H2971 C2980 0.950 . S
H2972 C2982 0.952 . S
H2973 C2984 0.950 . S
H2974 C2986 0.950 . S
H2975 C2987 0.950 1_556 S
C2976 H2968 0.950 . S
C2976 C2977 1.386 . S
C2976 C2978 1.391 . S
C2977 C2976 1.386 . S
C2977 C2981 1.393 . S
C2978 H2970 0.950 . S
C2978 C2976 1.391 . S
C2978 C2979 1.400 . S
C2979 C2978 1.400 . S
C2979 C2980 1.398 . S
C2979 C2985 1.491 . S
C2980 H2971 0.950 . S
C2980 C2979 1.398 . S
C2980 C2981 1.391 . S
C2981 H2969 0.950 . S
C2981 C2977 1.393 . S
C2981 C2980 1.391 . S
C2982 H2972 0.952 . S
C2982 C2983 1.386 1_554 S
C2982 C2984 1.391 . S
C2983 C2982 1.386 1_556 S
C2983 C2987 1.393 1_556 S
C2984 H2973 0.950 . S
C2984 C2982 1.391 . S
C2984 C2985 1.400 . S
C2985 C2979 1.491 . S
C2985 C2984 1.400 . S
C2985 C2986 1.398 . S
C2986 H2974 0.950 . S
C2986 C2985 1.398 . S
C2986 C2987 1.391 . S
C2987 H2975 0.950 1_554 S
C2987 C2983 1.393 1_554 S
C2987 C2986 1.391 . S
C1197 C28 1.013 . S
C1203 C523 1.013 . S
C1217 C556 1.008 . S
C1223 C61 1.020 . S
C1237 C94 1.009 . S
C1243 C589 1.020 . S
C1257 C820 1.015 . S
C1263 C127 1.011 . S
C1277 C853 1.009 . S
C1283 C160 1.023 . S
C1297 C193 1.029 . S
C1303 C886 1.026 . S
C1317 C226 1.032 . S
C1323 C1117 1.022 . S
C1337 C1150 1.021 . S
C1343 C259 1.008 . S
C1357 C292 1.028 . S
C1363 C1183 1.011 . S
C1377 C622 1.010 . S
C1383 C325 1.017 . S
C1397 C358 1.023 . S
C1403 C655 1.031 . S
C1417 C688 1.027 . S
C1423 C391 1.028 . S
C1437 C424 1.015 . S
C1443 C919 1.031 . S
C1457 C457 1.027 . S
C1463 C952 1.029 . S
C1477 C985 1.011 . S
C1483 C490 1.027 . S
C1497 C1018 1.014 . S
C1503 C721 1.030 . S
C1517 C1051 1.009 . S
C1523 C754 1.018 . S
C1537 C787 1.026 . S
C1543 C1084 1.030 . S
C1557 C17 1.473 . S
C1563 C380 1.463 . S
C1577 C50 1.472 . S
C1583 C314 1.464 . S
C1597 C83 1.469 . S
C1603 C347 1.467 . S
C1617 C248 1.463 . S
C1623 C116 1.472 . S
C1637 C281 1.472 . S
C1643 C149 1.464 . S
C1657 C182 1.471 . S
C1663 C215 1.464 . S
C1677 C413 1.470 . S
C1683 C776 1.466 . S
C1697 C710 1.469 . S
C1703 C446 1.467 . S
C1717 C479 1.468 . S
C1723 C743 1.467 . S
C1737 C512 1.467 . S
C1743 C644 1.469 . S
C1757 C545 1.460 . S
C1763 C677 1.475 . S
C1777 C578 1.475 . S
C1783 C611 1.461 . S
C1797 C809 1.462 . S
C1803 C1172 1.474 . S
C1817 C1106 1.460 . S
C1823 C842 1.476 . S
C1837 C1139 1.475 . S
C1843 C875 1.460 . S
C1857 C1040 1.464 . S
C1863 C908 1.472 . S
C1877 C941 1.460 . S
C1883 C1073 1.476 . S
C1897 C974 1.462 . S
C1903 C1007 1.474 . S
C1917 C965 1.524 . S
C1923 C8 1.530 . S
C1937 C41 1.525 . S
C1943 C899 1.537 . S
C1957 C74 1.537 . S
C1963 C932 1.527 . S
C1977 C437 1.523 . S
C1983 C107 1.531 . S
C1997 C140 1.537 . S
C2003 C470 1.530 . S
C2017 C173 1.536 . S
C2023 C404 1.531 . S
C2037 C767 1.528 . S
C2043 C206 1.525 . S
C2057 C239 1.536 . S
C2063 C701 1.532 . S
C2077 C734 1.536 . S
C2083 C272 1.524 . S
C2097 C1031 1.533 . S
C2103 C305 1.535 . S
C2117 C1064 1.537 . S
C2123 C338 1.527 . S
C2137 C998 1.535 . S
C2143 C371 1.523 . S
C2157 C503 1.537 . S
C2163 C833 1.531 . S
C2177 C866 1.536 . S
C2183 C536 1.524 . S
C2197 C569 1.529 . S
C2203 C800 1.525 . S
C2217 C602 1.525 . S
C2223 C1163 1.528 . S
C2237 C635 1.524 . S
C2243 C1097 1.536 . S
C2257 C668 1.531 . S
C2263 C1130 1.536 . S
C2277 N5 1.243 . S
C2283 N14 1.238 . S
C2297 N38 1.248 . S
C2303 N47 1.244 . S
C2317 N71 1.245 . S
C2323 N80 1.241 . S
C2337 N113 1.240 . S
C2343 N104 1.244 . S
C2357 N137 1.253 . S
C2363 N146 1.252 . S
C2377 N179 1.239 . S
C2383 N170 1.243 . S
C2397 N203 1.250 . S
C2403 N212 1.246 . S
C2417 N245 1.244 . S
C2423 N236 1.247 . S
C2437 N278 1.250 . S
C2443 N269 1.253 . S
C2457 N302 1.249 . S
C2463 N311 1.245 . S
C2477 N335 1.244 . S
C2483 N344 1.241 . S
C2497 N377 1.250 . S
C2503 N368 1.253 . S
C2517 N410 1.252 . S
C2523 N401 1.254 . S
C2537 N443 1.241 . S
C2543 N434 1.245 . S
C2557 N467 1.254 . S
C2563 N476 1.252 . S
C2577 N509 1.238 . S
C2583 N500 1.243 . S
C2597 N542 1.239 . S
C2603 N533 1.244 . S
C2617 N566 1.250 . S
C2623 N575 1.248 . S
C2637 N608 1.249 . S
C2643 N599 1.252 . S
C2657 N632 1.248 . S
C2663 N641 1.245 . S
C2677 N665 1.244 . S
C2683 N674 1.239 . S
C2697 N707 1.247 . S
C2703 N698 1.250 . S
C2717 N740 1.245 . S
C2723 N731 1.249 . S
C2737 N773 1.252 . S
C2743 N764 1.254 . S
C2757 N806 1.239 . S
C2763 N797 1.243 . S
C2777 N839 1.251 . S
C2783 N830 1.253 . S
C2797 N863 1.243 . S
C2803 N872 1.239 . S
C2817 N896 1.248 . S
C2823 N905 1.246 . S
C2837 N929 1.243 . S
C2843 N938 1.238 . S
C2857 N962 1.247 . S
C2863 N971 1.242 . S
C2877 N995 1.251 . S
C2883 N1004 1.248 . S
C2897 N1028 1.250 . S
C2903 N1037 1.246 . S
C2917 N1070 1.240 . S
C2923 N1061 1.245 . S
C2937 N1094 1.253 . S
C2943 N1103 1.251 . S
C2957 N1127 1.253 . S
C2963 N1136 1.252 . S
C2977 N1169 1.251 . S
C2983 N1160 1.253 . S
