# Generated by pormake.
# Topology wjg, (4)-cn, num edge types: 1
# Building blocks:
#     Node 0, Type 0, BuildingBlock: QUQFOY_clean_sbu_3, # of connection points: 4
#     Node 1, Type 0, BuildingBlock: QUQFOY_clean_sbu_3, # of connection points: 4
#     Node 2, Type 0, BuildingBlock: QUQFOY_clean_sbu_3, # of connection points: 4
#     Node 3, Type 0, BuildingBlock: QUQFOY_clean_sbu_3, # of connection points: 4
#     Node 4, Type 0, BuildingBlock: QUQFOY_clean_sbu_3, # of connection points: 4
#     Node 5, Type 0, BuildingBlock: QUQFOY_clean_sbu_3, # of connection points: 4
#     Node 6, Type 0, BuildingBlock: QUQFOY_clean_sbu_3, # of connection points: 4
#     Node 7, Type 0, BuildingBlock: QUQFOY_clean_sbu_3, # of connection points: 4
#     Node 8, Type 0, BuildingBlock: QUQFOY_clean_sbu_3, # of connection points: 4
#     Node 9, Type 0, BuildingBlock: QUQFOY_clean_sbu_3, # of connection points: 4
#     Node 10, Type 0, BuildingBlock: QUQFOY_clean_sbu_3, # of connection points: 4
#     Node 11, Type 0, BuildingBlock: QUQFOY_clean_sbu_3, # of connection points: 4
#     Edge 12, Type (0, 0), BuildingBlock: UVAHIK_clean_linker_0, # of connection points: 2
#     Edge 13, Type (0, 0), BuildingBlock: UVAHIK_clean_linker_0, # of connection points: 2
#     Edge 14, Type (0, 0), BuildingBlock: UVAHIK_clean_linker_0, # of connection points: 2
#     Edge 15, Type (0, 0), BuildingBlock: UVAHIK_clean_linker_0, # of connection points: 2
#     Edge 16, Type (0, 0), BuildingBlock: UVAHIK_clean_linker_0, # of connection points: 2
#     Edge 17, Type (0, 0), BuildingBlock: UVAHIK_clean_linker_0, # of connection points: 2
#     Edge 18, Type (0, 0), BuildingBlock: UVAHIK_clean_linker_0, # of connection points: 2
#     Edge 19, Type (0, 0), BuildingBlock: UVAHIK_clean_linker_0, # of connection points: 2
#     Edge 20, Type (0, 0), BuildingBlock: UVAHIK_clean_linker_0, # of connection points: 2
#     Edge 21, Type (0, 0), BuildingBlock: UVAHIK_clean_linker_0, # of connection points: 2
#     Edge 22, Type (0, 0), BuildingBlock: UVAHIK_clean_linker_0, # of connection points: 2
#     Edge 23, Type (0, 0), BuildingBlock: UVAHIK_clean_linker_0, # of connection points: 2
#     Edge 24, Type (0, 0), BuildingBlock: UVAHIK_clean_linker_0, # of connection points: 2
#     Edge 25, Type (0, 0), BuildingBlock: UVAHIK_clean_linker_0, # of connection points: 2
#     Edge 26, Type (0, 0), BuildingBlock: UVAHIK_clean_linker_0, # of connection points: 2
#     Edge 27, Type (0, 0), BuildingBlock: UVAHIK_clean_linker_0, # of connection points: 2
#     Edge 28, Type (0, 0), BuildingBlock: UVAHIK_clean_linker_0, # of connection points: 2
#     Edge 29, Type (0, 0), BuildingBlock: UVAHIK_clean_linker_0, # of connection points: 2
#     Edge 30, Type (0, 0), BuildingBlock: UVAHIK_clean_linker_0, # of connection points: 2
#     Edge 31, Type (0, 0), BuildingBlock: UVAHIK_clean_linker_0, # of connection points: 2
#     Edge 32, Type (0, 0), BuildingBlock: UVAHIK_clean_linker_0, # of connection points: 2
#     Edge 33, Type (0, 0), BuildingBlock: UVAHIK_clean_linker_0, # of connection points: 2
#     Edge 34, Type (0, 0), BuildingBlock: UVAHIK_clean_linker_0, # of connection points: 2
#     Edge 35, Type (0, 0), BuildingBlock: UVAHIK_clean_linker_0, # of connection points: 2
# Relax obj value: 0.324
# Max RMSD: 0.112
# Mean RMSD: 0.104
data_MOF--net-wjg--node1-QUQFOY_clean_sbu_3--edge1-UVAHIK_clean_linker_0
_symmetry_space_group_name_H-M    P1
_symmetry_Int_Tables_number       1
_symmetry_cell_setting            triclinic
loop_
_symmetry_equiv_pos_as_xyz
'x, y, z'
_cell_length_a     41.196344
_cell_length_b     40.968382
_cell_length_c     53.408997
_cell_angle_alpha  89.958015
_cell_angle_beta   89.756902
_cell_angle_gamma 120.1216
loop_
_atom_site_label
_atom_site_type_symbol
_atom_site_fract_x
_atom_site_fract_y
_atom_site_fract_z
_atom_type_partial_charge
C0 C 0.25084 0.41641 0.30507 0.0
O1 O 0.25009 0.3851 0.30657 0.0
Cd2 Cd 0.19376 0.32693 0.31543 0.0
O3 O 0.2204 0.41739 0.30457 0.0
Cd4 Cd 0.15137 0.3745 0.30333 0.0
C5 C 0.16481 0.36403 0.364 0.0
O6 O 0.14621 0.31736 0.28705 0.0
O7 O 0.09957 0.30951 0.30972 0.0
O8 O 0.15249 0.40115 0.26298 0.0
C9 C 0.11429 0.29473 0.29636 0.0
O10 O 0.1761 0.34229 0.35553 0.0
C11 C 0.12519 0.40665 0.26685 0.0
O12 O 0.15584 0.38285 0.34929 0.0
O13 O 0.11065 0.39903 0.28872 0.0
C14 C 0.81423 0.23802 0.62818 0.0
O15 O 0.84688 0.24214 0.62704 0.0
Cd16 Cd 0.85915 0.19368 0.64015 0.0
O17 O 0.78562 0.20557 0.63219 0.0
Cd18 Cd 0.76735 0.13783 0.63632 0.0
C19 C 0.8017 0.16821 0.69395 0.0
O20 O 0.82073 0.13817 0.61751 0.0
O21 O 0.78891 0.09255 0.64324 0.0
O22 O 0.73281 0.13058 0.59852 0.0
C23 C 0.81676 0.1089 0.62845 0.0
O24 O 0.83324 0.18327 0.68253 0.0
C25 C 0.7035 0.10002 0.60459 0.0
O26 O 0.77086 0.14976 0.68197 0.0
O27 O 0.70258 0.08725 0.62651 0.0
C28 C 0.52389 0.75075 0.977 0.0
O29 O 0.54217 0.78639 0.97944 0.0
Cd30 Cd 0.6079 0.822 0.98796 0.0
O31 O 0.54061 0.73167 0.97668 0.0
Cd32 Cd 0.6041 0.73875 0.97805 0.0
C33 C 0.60302 0.76446 0.03817 0.0
O34 O 0.63913 0.80144 0.96059 0.0
O35 O 0.67217 0.78071 0.9782 0.0
O36 O 0.58087 0.70071 0.94067 0.0
C37 C 0.67129 0.8077 0.96722 0.0
O38 O 0.60668 0.79454 0.02842 0.0
C39 C 0.59555 0.68044 0.94474 0.0
O40 O 0.60044 0.7375 0.02461 0.0
O41 O 0.6134 0.68596 0.96517 0.0
C42 C 0.7626 0.58262 0.2977 0.0
O43 O 0.76055 0.61252 0.29848 0.0
Cd44 Cd 0.81306 0.67399 0.30581 0.0
O45 O 0.79443 0.58443 0.29741 0.0
Cd46 Cd 0.86259 0.63243 0.29571 0.0
C47 C 0.84734 0.64492 0.35582 0.0
O48 O 0.86175 0.68605 0.27765 0.0
O49 O 0.91013 0.69928 0.29992 0.0
O50 O 0.8628 0.60116 0.25747 0.0
C51 C 0.89287 0.71117 0.2865 0.0
O52 O 0.83356 0.66393 0.3464 0.0
C53 C 0.89444 0.60362 0.26073 0.0
O54 O 0.85825 0.6267 0.34201 0.0
O55 O 0.91095 0.61757 0.28139 0.0
C56 C 0.15307 0.77685 0.62784 0.0
O57 O 0.12111 0.77364 0.62427 0.0
Cd58 Cd 0.10788 0.8238 0.63116 0.0
O59 O 0.18184 0.80912 0.63176 0.0
Cd60 Cd 0.20189 0.87723 0.633 0.0
C61 C 0.156 0.85079 0.68844 0.0
O62 O 0.15236 0.87913 0.61088 0.0
O63 O 0.18356 0.92537 0.63608 0.0
O64 O 0.23778 0.88223 0.59629 0.0
C65 C 0.15625 0.90885 0.62107 0.0
O66 O 0.12681 0.83747 0.67473 0.0
C67 C 0.2682 0.91107 0.60293 0.0
O68 O 0.18895 0.86525 0.6788 0.0
O69 O 0.26903 0.92375 0.62489 0.0
C70 C 0.46165 0.22609 0.95974 0.0
O71 O 0.44691 0.19105 0.95533 0.0
Cd72 Cd 0.38174 0.148 0.96128 0.0
O73 O 0.44131 0.24098 0.96348 0.0
Cd74 Cd 0.37408 0.22342 0.9606 0.0
C75 C 0.36999 0.18534 0.01739 0.0
O76 O 0.34998 0.16821 0.93447 0.0
O77 O 0.30829 0.17256 0.95624 0.0
O78 O 0.39386 0.26822 0.92664 0.0
C79 C 0.31569 0.15436 0.94019 0.0
O80 O 0.3722 0.16001 0.00487 0.0
C81 C 0.37741 0.28564 0.93405 0.0
O82 O 0.37083 0.21349 0.00639 0.0
O83 O 0.36 0.27516 0.95492 0.0
C84 C 0.59568 0.7504 0.36736 0.0
O85 O 0.62533 0.74817 0.36825 0.0
Cd86 Cd 0.68569 0.79974 0.35641 0.0
O87 O 0.59763 0.78224 0.36447 0.0
Cd88 Cd 0.64267 0.851 0.36177 0.0
C89 C 0.65046 0.82307 0.3036 0.0
O90 O 0.69842 0.8547 0.37815 0.0
O91 O 0.70753 0.90158 0.35502 0.0
O92 O 0.61688 0.85643 0.40098 0.0
C93 C 0.72168 0.88533 0.36738 0.0
O94 O 0.66905 0.81003 0.31458 0.0
C95 C 0.61192 0.88346 0.3946 0.0
O96 O 0.63552 0.83897 0.31601 0.0
O97 O 0.61972 0.89488 0.37197 0.0
C98 C 0.81084 0.58043 0.67521 0.0
O99 O 0.8423 0.61066 0.67308 0.0
Cd100 Cd 0.84946 0.6717 0.66604 0.0
O101 O 0.78052 0.58154 0.67683 0.0
Cd102 Cd 0.75863 0.62799 0.67912 0.0
C103 C 0.78326 0.64084 0.6181 0.0
O104 O 0.81344 0.68274 0.69542 0.0
O105 O 0.77482 0.69411 0.67566 0.0
O106 O 0.72897 0.59708 0.71816 0.0
C107 C 0.80545 0.70705 0.68749 0.0
O108 O 0.81657 0.66079 0.62638 0.0
C109 C 0.69884 0.5978 0.71486 0.0
O110 O 0.75528 0.62223 0.63283 0.0
O111 O 0.69514 0.61057 0.69396 0.0
C112 C 0.15426 0.65895 0.94807 0.0
O113 O 0.1597 0.67415 0.92652 0.0
Cd114 Cd 0.12359 0.69772 0.90779 0.0
O115 O 0.12904 0.65715 0.96304 0.0
Cd116 Cd 0.08022 0.67695 0.96717 0.0
C117 C 0.03963 0.64658 0.91398 0.0
O118 O 0.11822 0.73278 0.94224 0.0
O119 O 0.1025 0.74359 0.97829 0.0
O120 O 0.07927 0.65442 0.00991 0.0
C121 C 0.11884 0.75667 0.95747 0.0
O122 O 0.06613 0.63954 0.9139 0.0
C123 C 0.04844 0.65226 0.01613 0.0
O124 O 0.02962 0.65231 0.93525 0.0
O125 O 0.03217 0.66104 -0.00053 0.0
C126 C 0.41528 0.24221 0.34757 0.0
O127 O 0.38683 0.24655 0.34747 0.0
Cd128 Cd 0.32503 0.19676 0.33802 0.0
O129 O 0.41128 0.20927 0.34657 0.0
Cd130 Cd 0.36115 0.14132 0.34742 0.0
C131 C 0.3522 0.1606 0.28734 0.0
O132 O 0.30959 0.14568 0.36507 0.0
O133 O 0.29388 0.09485 0.34447 0.0
O134 O 0.38955 0.14057 0.38655 0.0
C135 C 0.28351 0.11437 0.35698 0.0
O136 O 0.33698 0.17795 0.29732 0.0
C137 C 0.38835 0.10929 0.38341 0.0
O138 O 0.36561 0.14438 0.30089 0.0
O139 O 0.37621 0.09304 0.36239 0.0
C140 C 0.15743 0.43589 0.68354 0.0
O141 O 0.12711 0.40537 0.67918 0.0
Cd142 Cd 0.12261 0.34556 0.67218 0.0
O143 O 0.18783 0.43564 0.68742 0.0
Cd144 Cd 0.20954 0.38894 0.69122 0.0
C145 C 0.19608 0.37937 0.62901 0.0
O146 O 0.15312 0.33239 0.7044 0.0
O147 O 0.19442 0.32325 0.68604 0.0
O148 O 0.2318 0.41224 0.73286 0.0
C149 C 0.1627 0.30908 0.69684 0.0
O150 O 0.16161 0.35843 0.63493 0.0
C151 C 0.26374 0.415 0.73038 0.0
O152 O 0.22111 0.39767 0.64552 0.0
O153 O 0.27195 0.40802 0.70876 0.0
C154 C 0.77964 0.23711 0.02651 0.0
O155 O 0.76447 0.20165 0.02951 0.0
Cd156 Cd 0.79537 0.16807 0.01679 0.0
O157 O 0.81442 0.25712 0.02116 0.0
Cd158 Cd 0.87297 0.25425 0.0177 0.0
C159 C 0.83483 0.22014 0.96117 0.0
O160 O 0.85324 0.1947 0.03738 0.0
O161 O 0.90271 0.21536 0.01437 0.0
O162 O 0.88694 0.29129 0.05491 0.0
C163 C 0.87796 0.18876 0.02769 0.0
O164 O 0.8118 0.19107 0.97377 0.0
C165 C 0.92041 0.31584 0.04925 0.0
O166 O 0.861 0.24942 0.97196 0.0
O167 O 0.93256 0.31284 0.02785 0.0
C168 C 0.32063 0.45127 0.31042 0.0
C169 C 0.2872 0.45207 0.30711 0.0
C170 C 0.35402 0.4842 0.31622 0.0
C171 C 0.38734 0.57704 0.34525 0.0
H172 H 0.48424 0.59786 0.31993 0.0
C173 C 0.52583 0.71727 0.36234 0.0
C174 C 0.55864 0.71538 0.366 0.0
C175 C 0.49195 0.68482 0.35658 0.0
C176 C 0.45742 0.59216 0.32743 0.0
H177 H 0.26316 0.48861 0.30592 0.0
H178 H 0.32161 0.54616 0.31565 0.0
H179 H 0.42734 0.54318 0.30454 0.0
H180 H 0.58091 0.67737 0.36805 0.0
H181 H 0.5217 0.62076 0.35832 0.0
H182 H 0.41751 0.62615 0.36809 0.0
C183 C 0.32177 0.51987 0.31428 0.0
C184 C 0.42481 0.5609 0.31853 0.0
C185 C 0.28835 0.48691 0.30847 0.0
C186 C 0.55628 0.67994 0.36522 0.0
C187 C 0.52241 0.64752 0.35941 0.0
C188 C 0.41997 0.60836 0.35411 0.0
C189 C 0.35477 0.51872 0.31881 0.0
C190 C 0.38939 0.55289 0.32739 0.0
C191 C 0.49015 0.64978 0.35434 0.0
C192 C 0.45538 0.61616 0.34538 0.0
H193 H 0.3208 0.42494 0.30953 0.0
H194 H 0.37887 0.48226 0.31975 0.0
H195 H 0.36053 0.5713 0.35279 0.0
H196 H 0.5266 0.74409 0.36282 0.0
H197 H 0.46761 0.68752 0.35271 0.0
C198 C 0.77493 0.26878 0.63222 0.0
C199 C 0.81002 0.27186 0.62765 0.0
C200 C 0.77203 0.30112 0.63534 0.0
C201 C 0.82378 0.40514 0.62627 0.0
H202 H 0.76415 0.40432 0.68294 0.0
C203 C 0.842 0.54218 0.668 0.0
C204 C 0.80915 0.54356 0.6729 0.0
C205 C 0.84006 0.50799 0.66237 0.0
C206 C 0.7806 0.40485 0.66691 0.0
H207 H 0.86925 0.31145 0.62154 0.0
H208 H 0.86426 0.36755 0.62719 0.0
H209 H 0.76344 0.34643 0.6711 0.0
H210 H 0.7486 0.50967 0.67689 0.0
H211 H 0.74535 0.44987 0.6672 0.0
H212 H 0.84152 0.46373 0.62242 0.0
C213 C 0.83888 0.34024 0.62818 0.0
C214 C 0.78008 0.37167 0.66004 0.0
C215 C 0.84178 0.30798 0.62505 0.0
C216 C 0.77446 0.50964 0.67319 0.0
C217 C 0.77256 0.47536 0.66766 0.0
C218 C 0.82442 0.43829 0.63321 0.0
C219 C 0.80414 0.33721 0.63392 0.0
C220 C 0.80206 0.37156 0.63983 0.0
C221 C 0.80528 0.47435 0.66163 0.0
C222 C 0.80325 0.43864 0.65381 0.0
H223 H 0.74984 0.24139 0.63424 0.0
H224 H 0.74476 0.29785 0.63933 0.0
H225 H 0.84049 0.40587 0.61034 0.0
H226 H 0.86921 0.56768 0.66771 0.0
H227 H 0.86583 0.50796 0.65828 0.0
C228 C 0.46222 0.69558 0.96429 0.0
C229 C 0.48256 0.73098 0.97591 0.0
C230 C 0.42301 0.67697 0.96353 0.0
C231 C 0.34028 0.66721 -0.00523 0.0
H232 H 0.29638 0.65497 0.92902 0.0
C233 C 0.20021 0.66196 0.97924 0.0
C234 C 0.18117 0.64783 0.95663 0.0
C235 C 0.23288 0.66074 0.98417 0.0
C236 C 0.30758 0.65688 0.9476 0.0
H237 H 0.47794 0.77412 -0.00352 0.0
H238 H 0.40941 0.7411 -0.00435 0.0
H239 H 0.36233 0.67451 0.9327 0.0
H240 H 0.17834 0.61772 0.92272 0.0
H241 H 0.23355 0.61279 0.9321 0.0
H242 H 0.28576 0.64949 0.00986 0.0
C243 C 0.42387 0.72804 0.98696 0.0
C244 C 0.3456 0.66842 0.9496 0.0
C245 C 0.463 0.74704 0.98719 0.0
C246 C 0.19289 0.62905 0.94021 0.0
C247 C 0.22484 0.62676 0.94548 0.0
C248 C 0.30198 0.65477 -0.00719 0.0
C249 C 0.40361 0.69303 0.975 0.0
C250 C 0.36244 0.67483 0.97317 0.0
C251 C 0.24657 0.64455 0.9668 0.0
C252 C 0.28534 0.65074 0.96917 0.0
H253 H 0.47663 0.68258 0.95547 0.0
H254 H 0.40781 0.65006 0.95408 0.0
H255 H 0.35281 0.67174 0.01316 0.0
H256 H 0.19181 0.67691 -0.00796 0.0
H257 H 0.24872 0.67505 0.0007 0.0
C258 C 0.45774 0.31229 0.34692 0.0
C259 C 0.45335 0.27598 0.34666 0.0
C260 C 0.49299 0.34415 0.34323 0.0
C261 C 0.5851 0.37359 0.31456 0.0
H262 H 0.61317 0.46757 0.34864 0.0
C263 C 0.72909 0.51194 0.30177 0.0
C264 C 0.72772 0.5455 0.30002 0.0
C265 C 0.69663 0.47765 0.30734 0.0
C266 C 0.60558 0.44158 0.33883 0.0
H267 H 0.483 0.24487 0.34327 0.0
H268 H 0.54477 0.30072 0.33718 0.0
H269 H 0.55573 0.41038 0.36077 0.0
H270 H 0.6907 0.56889 0.30153 0.0
H271 H 0.63436 0.50926 0.31107 0.0
H272 H 0.63517 0.40511 0.2926 0.0
C273 C 0.52071 0.30439 0.33984 0.0
C274 C 0.57269 0.40881 0.3458 0.0
C275 C 0.48535 0.27241 0.34353 0.0
C276 C 0.69291 0.5437 0.30288 0.0
C277 C 0.66062 0.50956 0.30855 0.0
C278 C 0.61819 0.40644 0.30767 0.0
C279 C 0.52483 0.3406 0.33926 0.0
C280 C 0.56167 0.37455 0.33345 0.0
C281 C 0.66227 0.47634 0.31139 0.0
C282 C 0.62838 0.4409 0.31943 0.0
H283 H 0.43375 0.31616 0.34923 0.0
H284 H 0.49499 0.37153 0.3426 0.0
H285 H 0.57723 0.34776 0.30447 0.0
H286 H 0.75543 0.5123 0.29967 0.0
H287 H 0.69873 0.45247 0.30942 0.0
C288 C 0.12413 0.70648 0.62813 0.0
C289 C 0.15624 0.74247 0.62993 0.0
C290 C 0.1262 0.67409 0.63308 0.0
C291 C 0.18319 0.64282 0.66755 0.0
H292 H 0.12408 0.55029 0.63039 0.0
C293 C 0.192 0.5068 0.68227 0.0
C294 C 0.15799 0.47225 0.68129 0.0
C295 C 0.19297 0.54068 0.67672 0.0
C296 C 0.14045 0.57582 0.64111 0.0
H297 H 0.2161 0.77245 0.63734 0.0
H298 H 0.21973 0.71582 0.64558 0.0
H299 H 0.12461 0.60757 0.61744 0.0
H300 H 0.09806 0.44655 0.67501 0.0
H301 H 0.0998 0.5055 0.66563 0.0
H302 H 0.199 0.61087 0.69122 0.0
C303 C 0.19281 0.71275 0.6408 0.0
C304 C 0.1408 0.60867 0.63366 0.0
C305 C 0.19075 0.74518 0.63586 0.0
C306 C 0.1248 0.47256 0.67577 0.0
C307 C 0.12581 0.50634 0.67019 0.0
C308 C 0.18293 0.60993 0.67497 0.0
C309 C 0.16043 0.67686 0.63989 0.0
C310 C 0.16187 0.64249 0.64693 0.0
C311 C 0.15999 0.54067 0.67004 0.0
C312 C 0.16121 0.57597 0.66198 0.0
H313 H 0.09707 0.70329 0.62368 0.0
H314 H 0.10062 0.64693 0.63245 0.0
H315 H 0.19932 0.66826 0.67841 0.0
H316 H 0.2181 0.5076 0.68643 0.0
H317 H 0.21976 0.56669 0.67671 0.0
C318 C 0.7686 0.28999 0.01504 0.0
C319 C 0.75581 0.25462 0.02647 0.0
C320 C 0.74386 0.30334 0.01071 0.0
C321 C 0.6769 0.29894 0.98342 0.0
H322 H 0.59414 0.2813 0.02705 0.0
C323 C 0.52597 0.23701 0.95196 0.0
C324 C 0.50259 0.24851 0.96331 0.0
C325 C 0.56348 0.25329 0.95893 0.0
C326 C 0.61749 0.28733 0.01475 0.0
H327 H 0.70803 0.20715 0.04431 0.0
H328 H 0.66502 0.23053 0.0369 0.0
H329 H 0.64896 0.28157 0.04455 0.0
H330 H 0.50052 0.28765 -0.01031 0.0
H331 H 0.56622 0.31555 0.00239 0.0
H332 H 0.64428 0.30205 0.95336 0.0
C333 C 0.69408 0.24791 0.03122 0.0
C334 C 0.64869 0.28717 0.02474 0.0
C335 C 0.71865 0.23435 0.03529 0.0
C336 C 0.518 0.27834 0.98059 0.0
C337 C 0.55547 0.29419 0.98793 0.0
C338 C 0.64556 0.29873 0.9734 0.0
C339 C 0.70608 0.28183 0.01806 0.0
C340 C 0.67793 0.29138 0.00899 0.0
C341 C 0.57818 0.28098 0.97768 0.0
C342 C 0.61491 0.29131 -0.01118 0.0
H343 H 0.79713 0.30637 0.0081 0.0
H344 H 0.75384 0.32968 0.00066 0.0
H345 H 0.69893 0.30204 0.97079 0.0
H346 H 0.51482 0.21418 0.93851 0.0
H347 H 0.58022 0.24227 0.95089 0.0
C348 C 0.10592 0.2339 0.28052 0.0
C349 C 0.10396 0.2552 0.30034 0.0
C350 C 0.10557 0.20018 0.28531 0.0
C351 C 0.10647 0.1394 0.33868 0.0
H352 H 0.18248 0.13806 0.29643 0.0
C353 C 0.23322 0.12806 0.3697 0.0
C354 C 0.24498 0.10777 0.35468 0.0
C355 C 0.20069 0.12895 0.36377 0.0
C356 C 0.16056 0.13729 0.30815 0.0
H357 H 0.09783 0.25735 0.34046 0.0
H358 H 0.09997 0.20056 0.34913 0.0
H359 H 0.15211 0.17207 0.28275 0.0
H360 H 0.23016 0.0697 0.32307 0.0
H361 H 0.17401 0.07243 0.31226 0.0
H362 H 0.11894 0.10793 0.36532 0.0
C363 C 0.10004 0.20819 0.32974 0.0
C364 C 0.14277 0.15676 0.30025 0.0
C365 C 0.09897 0.2411 0.32483 0.0
C366 C 0.22187 0.08569 0.33496 0.0
C367 C 0.18972 0.08717 0.32876 0.0
C368 C 0.12516 0.12077 0.34689 0.0
C369 C 0.10521 0.18817 0.31014 0.0
C370 C 0.11661 0.15958 0.31586 0.0
C371 C 0.17977 0.11005 0.34251 0.0
C372 C 0.15329 0.12076 0.33201 0.0
H373 H 0.10954 0.24426 0.26146 0.0
H374 H 0.10797 0.18489 0.26957 0.0
H375 H 0.08559 0.13964 0.35091 0.0
H376 H 0.2504 0.14513 0.38508 0.0
H377 H 0.19377 0.14708 0.37453 0.0
C378 C 0.85893 0.09771 0.65568 0.0
C379 C 0.84955 0.10406 0.63167 0.0
C380 C 0.89466 0.1033 0.66037 0.0
C381 C 0.98987 0.16053 0.63307 0.0
H382 H 0.01667 0.13372 0.69619 0.0
C383 C 0.13681 0.24979 0.67186 0.0
C384 C 0.13386 0.26934 0.69257 0.0
C385 C 0.10567 0.21621 0.66392 0.0
C386 C 0.00964 0.14088 0.67826 0.0
H387 H 0.868 0.1166 0.59312 0.0
H388 H 0.92934 0.12322 0.60071 0.0
H389 H 0.95304 0.09529 0.68012 0.0
H390 H 0.09761 0.26723 0.72278 0.0
H391 H 0.04344 0.20797 0.70927 0.0
H392 H 0.04648 0.20616 0.63141 0.0
C393 C 0.91021 0.11627 0.61637 0.0
C394 C 0.97308 0.11925 0.66914 0.0
C395 C 0.87487 0.11198 0.61187 0.0
C396 C 0.10054 0.25277 0.70671 0.0
C397 C 0.06967 0.21878 0.69908 0.0
C398 C 0.02654 0.18134 0.64182 0.0
C399 C 0.92153 0.11446 0.64099 0.0
C400 C 0.96207 0.13012 0.64713 0.0
C401 C 0.07147 0.20126 0.67694 0.0
C402 C 0.03622 0.17285 0.66505 0.0
H403 H 0.83994 0.09179 0.67133 0.0
H404 H 0.90183 0.10183 0.67963 0.0
H405 H 0.98303 0.17053 0.61627 0.0
H406 H 0.16214 0.26191 0.66056 0.0
H407 H 0.10757 0.2032 0.64674 0.0
C408 C 0.84189 0.12022 0.03857 0.0
C409 C 0.871 0.14989 0.02497 0.0
C410 C 0.83019 0.08276 0.03256 0.0
C411 C 0.81806 0.00474 0.02021 0.0
H412 H 0.79421 0.98545 0.94961 0.0
C413 C 0.73606 0.85368 0.98181 0.0
C414 C 0.70372 0.84647 0.96854 0.0
C415 C 0.7642 0.8907 0.98666 0.0
C416 C 0.80102 0.99044 0.96931 0.0
H417 H 0.91255 0.16365 -0.00439 0.0
H418 H 0.89178 0.09812 0.98499 0.0
H419 H 0.83091 0.0504 0.96443 0.0
H420 H 0.67671 0.87232 0.94846 0.0
H421 H 0.72606 0.93702 0.95676 0.0
H422 H 0.78685 0.94483 0.02524 0.0
C423 C 0.87793 0.10393 0.00019 0.0
C424 C 0.82228 0.02755 0.97778 0.0
C425 C 0.88992 0.1414 0.00639 0.0
C426 C 0.70124 0.87699 0.9588 0.0
C427 C 0.72957 0.91403 0.96346 0.0
C428 C 0.79713 0.96762 0.0117 0.0
C429 C 0.84721 0.0743 0.0127 0.0
C430 C 0.83013 0.03507 0.0034 0.0
C431 C 0.76076 0.92121 0.97808 0.0
C432 C 0.78755 0.96016 0.98628 0.0
H433 H 0.82687 0.12588 0.05303 0.0
H434 H 0.80628 0.06049 0.04243 0.0
H435 H 0.82386 0.00978 0.04003 0.0
H436 H 0.73892 0.83076 -0.01055 0.0
H437 H 0.78817 0.89548 -0.00227 0.0
C438 C 0.77833 0.91337 0.33965 0.0
C439 C 0.75995 0.89304 0.36144 0.0
C440 C 0.80913 0.91186 0.33005 0.0
C441 C 0.83396 0.85963 0.30649 0.0
H442 H 0.92135 0.8673 0.33905 0.0
C443 C 0.90953 0.76643 0.3137 0.0
C444 C 0.89965 0.74972 0.28997 0.0
C445 C 0.90641 0.79803 0.31922 0.0
C446 C 0.89691 0.86467 0.32968 0.0
H447 H 0.76205 0.85912 0.39185 0.0
H448 H 0.8165 0.85726 0.37533 0.0
H449 H 0.88948 0.89826 0.35753 0.0
H450 H 0.883 0.75505 0.25256 0.0
H451 H 0.8806 0.81219 0.2614 0.0
H452 H 0.83792 0.82285 0.28033 0.0
C453 C 0.8068 0.87396 0.36558 0.0
C454 C 0.87904 0.88287 0.34017 0.0
C455 C 0.77554 0.87485 0.37495 0.0
C456 C 0.8904 0.76733 0.27109 0.0
C457 C 0.88856 0.79979 0.27634 0.0
C458 C 0.85102 0.84058 0.29643 0.0
C459 C 0.82255 0.89079 0.3424 0.0
C460 C 0.84677 0.8795 0.32902 0.0
C461 C 0.89425 0.81424 0.3009 0.0
C462 C 0.88192 0.84155 0.30839 0.0
H463 H 0.76709 0.92778 0.32883 0.0
H464 H 0.82087 0.92498 0.31212 0.0
H465 H 0.80877 0.85623 0.29771 0.0
H466 H 0.91646 0.75318 0.3287 0.0
H467 H 0.91075 0.80761 0.33842 0.0
C468 C 0.09801 0.905 0.60437 0.0
C469 C 0.12319 0.91332 0.62414 0.0
C470 C 0.06235 0.90004 0.60891 0.0
C471 C -0.00161 0.89598 0.6617 0.0
H472 H 0.92592 0.80927 0.62395 0.0
C473 C 0.86839 0.76154 0.69805 0.0
C474 C 0.83542 0.74661 0.68382 0.0
C475 C 0.90015 0.79529 0.69084 0.0
C476 C 0.94565 0.834 0.63437 0.0
H477 H 0.13208 0.92541 0.6638 0.0
H478 H 0.06976 0.91426 0.67213 0.0
H479 H 0.98975 0.84511 0.60897 0.0
H480 H 0.80879 0.75683 0.65215 0.0
H481 H 0.86487 0.81504 0.63907 0.0
H482 H 0.95416 0.88121 0.6886 0.0
C483 C 0.07726 0.91304 0.65287 0.0
C484 C 0.9825 0.85494 0.6257 0.0
C485 C 0.11326 0.91931 0.64814 0.0
C486 C 0.83381 0.76762 0.66351 0.0
C487 C 0.86581 0.80093 0.65599 0.0
C488 C 0.96165 0.87418 0.67076 0.0
C489 C 0.05059 0.90155 0.63353 0.0
C490 C 0.00991 0.88539 0.63973 0.0
C491 C 0.89956 0.81421 0.66907 0.0
C492 C 0.9354 0.84238 0.65748 0.0
H493 H 0.10525 0.90055 0.58565 0.0
H494 H 0.04336 0.89282 0.59327 0.0
H495 H 0.01812 0.91992 0.67267 0.0
H496 H 0.87032 0.74598 0.71383 0.0
H497 H 0.92605 0.80486 0.70105 0.0
C498 C 0.29648 0.09593 0.91534 0.0
C499 C 0.28825 0.11478 0.93406 0.0
C500 C 0.27373 0.05701 0.91219 0.0
C501 C 0.18331 0.97308 0.93271 0.0
H502 H 0.23989 0.92138 0.92476 0.0
C503 C 0.13104 0.8215 0.96697 0.0
C504 C 0.13593 0.79704 0.95103 0.0
C505 C 0.14645 0.85954 0.96075 0.0
C506 C 0.22362 0.93538 0.9266 0.0
H507 H 0.24858 0.10812 0.96321 0.0
H508 H 0.2096 0.04023 0.95834 0.0
H509 H 0.27174 0.98968 0.92054 0.0
H510 H 0.16045 0.79306 0.91595 0.0
H511 H 0.18821 0.86002 0.90538 0.0
H512 H 0.13559 0.91857 0.94012 0.0
C513 C 0.23313 0.05537 0.94569 0.0
C514 C 0.2418 0.97457 0.92407 0.0
C515 C 0.25562 0.09437 0.94859 0.0
C516 C 0.15646 0.81134 0.92868 0.0
C517 C 0.17229 0.84957 0.92261 0.0
C518 C 0.16524 0.93391 0.93554 0.0
C519 C 0.24253 0.03603 0.92794 0.0
C520 C 0.22204 -0.00597 0.92756 0.0
C521 C 0.16738 0.87399 0.9386 0.0
C522 C 0.18541 0.91481 0.93296 0.0
H523 H 0.32126 0.11106 0.90366 0.0
H524 H 0.28128 0.04323 0.89792 0.0
H525 H 0.16704 0.987 0.93504 0.0
H526 H 0.1152 0.81126 0.98425 0.0
H527 H 0.14265 0.87787 0.97356 0.0
C528 C 0.92748 0.3514 0.08853 0.0
C529 C 0.94441 0.34385 0.06817 0.0
C530 C 0.94859 0.37109 0.10932 0.0
C531 C 0.04513 0.42641 0.13519 0.0
H532 H -0.00351 0.37083 0.19582 0.0
C533 C 0.12577 0.42402 0.22198 0.0
C534 C 0.10869 0.41684 0.24576 0.0
C535 C 0.10709 0.42607 0.20083 0.0
C536 C 0.01033 0.38745 0.1793 0.0
H537 H -0.00276 0.35349 0.05278 0.0
H538 H 0.03426 0.3875 0.08941 0.0
H539 H 0.96165 0.35486 0.15706 0.0
H540 H 0.05992 0.40943 0.26625 0.0
H541 H 0.02747 0.41378 0.22929 0.0
H542 H 0.09428 0.45824 0.1575 0.0
C543 C 0.00465 0.3785 0.08918 0.0
C544 C -0.00972 0.37818 0.15694 0.0
C545 C 0.98347 0.35898 0.06818 0.0
C546 C 0.07372 0.41473 0.24817 0.0
C547 C 0.05502 0.41692 0.22695 0.0
C548 C 0.06522 0.43585 0.15767 0.0
C549 C 0.98711 0.38339 0.11039 0.0
C550 C 0.00761 0.39695 0.13449 0.0
C551 C 0.07087 0.42114 0.20288 0.0
C552 C 0.04832 0.41582 0.1799 0.0
H553 H 0.89747 0.34053 0.08891 0.0
H554 H 0.93437 0.37519 0.12507 0.0
H555 H 0.05915 0.44172 0.11829 0.0
H556 H 0.15281 0.42601 0.21945 0.0
H557 H 0.12016 0.42905 0.18269 0.0
C558 C 0.65373 0.03887 0.58648 0.0
C559 C 0.67472 0.07845 0.58548 0.0
C560 C 0.63395 0.01822 0.56539 0.0
C561 C 0.64223 0.03009 0.49706 0.0
H562 H 0.55564 0.92918 0.49699 0.0
C563 C 0.60655 0.93898 0.40901 0.0
C564 C 0.60178 0.90308 0.4137 0.0
C565 C 0.6043 0.96041 0.42866 0.0
C566 C 0.57981 0.95741 0.49668 0.0
H567 H 0.68819 0.12754 0.56276 0.0
H568 H 0.65274 0.09171 0.52643 0.0
H569 H 0.57165 0.96728 0.53502 0.0
H570 H 0.58767 0.86022 0.44224 0.0
H571 H 0.58417 0.89748 0.47631 0.0
H572 H 0.65151 0.01989 0.45925 0.0
C573 C 0.65254 0.07645 0.54305 0.0
C574 C 0.589 0.97921 0.51849 0.0
C575 C 0.67264 0.09701 0.56395 0.0
C576 C 0.59179 0.88792 0.438 0.0
C577 C 0.58948 0.90924 0.45758 0.0
C578 C 0.63306 0.00838 0.47534 0.0
C579 C 0.63453 0.03682 0.54305 0.0
C580 C 0.62093 0.01549 0.51914 0.0
C581 C 0.59713 0.94631 0.45336 0.0
C582 C 0.60237 0.97136 0.47504 0.0
H583 H 0.65495 0.02381 0.60279 0.0
H584 H 0.62054 0.98775 0.56609 0.0
H585 H 0.66742 0.05759 0.49688 0.0
H586 H 0.61411 0.95138 0.39047 0.0
H587 H 0.60971 0.98865 0.4247 0.0
C588 C 0.56513 0.63792 0.90832 0.0
C589 C 0.59532 0.6551 0.92501 0.0
C590 C 0.56761 0.61982 0.88682 0.0
C591 C 0.58871 0.61016 0.83446 0.0
H592 H 0.66061 0.57617 0.82777 0.0
C593 C 0.65531 0.61136 0.73935 0.0
C594 C 0.67253 0.58958 0.73596 0.0
C595 C 0.63796 0.61035 0.76214 0.0
C596 C 0.6397 0.58468 0.82912 0.0
H597 H 0.65128 0.66582 0.93287 0.0
H598 H 0.65678 0.63641 0.89486 0.0
H599 H 0.64417 0.58764 0.86895 0.0
H600 H 0.68222 0.54714 0.75272 0.0
H601 H 0.6495 0.54303 0.79172 0.0
H602 H 0.58277 0.60533 0.79475 0.0
C603 C 0.6304 0.63528 0.89855 0.0
C604 C 0.63082 0.59212 0.85296 0.0
C605 C 0.62741 0.65238 0.92044 0.0
C606 C 0.66935 0.56443 0.75495 0.0
C607 C 0.65104 0.56257 0.77748 0.0
C608 C 0.59681 0.60172 0.81068 0.0
C609 C 0.60092 0.61961 0.881 0.0
C610 C 0.60617 0.60625 0.85599 0.0
C611 C 0.63657 0.58677 0.78191 0.0
C612 C 0.62343 0.59011 0.8075 0.0
H613 H 0.53993 0.63943 0.91153 0.0
H614 H 0.54372 0.60704 0.87441 0.0
H615 H 0.56983 0.62126 0.83565 0.0
H616 H 0.65775 0.63135 0.72512 0.0
H617 H 0.62778 0.62987 0.76462 0.0
C618 C 0.04721 0.62529 0.05862 0.0
C619 C 0.03266 0.64099 0.04174 0.0
C620 C 0.03263 0.61534 0.08296 0.0
C621 C 0.01164 0.61655 0.13761 0.0
H622 H 0.90662 0.58319 0.149 0.0
C623 C 0.95149 0.61946 0.23523 0.0
C624 C 0.91293 0.59583 0.2397 0.0
C625 C 0.96717 0.61875 0.21204 0.0
C626 C 0.93587 0.59168 0.14632 0.0
H627 H -0.00826 0.65899 0.03725 0.0
H628 H 0.96726 0.64302 0.07969 0.0
H629 H 0.93064 0.59309 0.10666 0.0
H630 H 0.86129 0.55042 0.2246 0.0
H631 H 0.8889 0.54724 0.18494 0.0
H632 H 0.01648 0.61393 0.17737 0.0
C633 C 0.9891 0.63716 0.07408 0.0
C634 C 0.94989 0.59816 0.12187 0.0
C635 C 0.00333 0.64661 0.04971 0.0
C636 C 0.89107 0.56916 0.22153 0.0
C637 C 0.90688 0.56777 0.19864 0.0
C638 C -0.00254 0.60952 0.16214 0.0
C639 C 0.00342 0.62126 0.09107 0.0
C640 C 0.98813 0.61148 0.11714 0.0
C641 C 0.94471 0.59386 0.19304 0.0
C642 C 0.95946 0.59761 0.1669 0.0
H643 H 0.06976 0.62048 0.053 0.0
H644 H 0.04408 0.60272 0.09531 0.0
H645 H 0.0413 0.627 0.13482 0.0
H646 H 0.9689 0.64058 0.24883 0.0
H647 H -0.00369 0.63947 0.20856 0.0
C648 C 0.41471 0.11257 0.4259 0.0
C649 C 0.39596 0.09103 0.40476 0.0
C650 C 0.4146 0.09502 0.44835 0.0
C651 C 0.388 0.00263 0.47858 0.0
H652 H 0.35764 0.04383 0.53326 0.0
C653 C 0.29703 0.91394 0.56124 0.0
C654 C 0.29883 0.93113 0.58437 0.0
C655 C 0.32029 0.93486 0.54134 0.0
C656 C 0.36701 0.03232 0.51851 0.0
H657 H 0.36489 0.03426 0.39 0.0
H658 H 0.36416 0.00343 0.42935 0.0
H659 H 0.37789 0.07783 0.49392 0.0
H660 H 0.32881 0.98305 0.60542 0.0
H661 H 0.37006 0.01967 0.57069 0.0
H662 H 0.37568 0.95633 0.5031 0.0
C663 C 0.37931 0.03397 0.42855 0.0
C664 C 0.37862 0.05188 0.4958 0.0
C665 C 0.37968 0.05162 0.40596 0.0
C666 C 0.32663 0.96903 0.58781 0.0
C667 C 0.35001 0.99007 0.56781 0.0
C668 C 0.37647 0.98306 0.5014 0.0
C669 C 0.39543 0.05545 0.45029 0.0
C670 C 0.38836 0.03687 0.47532 0.0
C671 C 0.34606 0.97359 0.54404 0.0
C672 C 0.3648 -0.00284 0.52144 0.0
H673 H 0.4279 0.14305 0.42549 0.0
H674 H 0.42809 0.11246 0.46454 0.0
H675 H 0.39583 0.99053 0.46332 0.0
H676 H 0.27607 0.8847 0.558 0.0
H677 H 0.31614 0.92114 0.52337 0.0
C678 C 0.35334 0.32966 0.92373 0.0
C679 C 0.37608 0.31422 0.91772 0.0
C680 C 0.34813 0.35227 0.90634 0.0
C681 C 0.38248 0.40232 0.84467 0.0
H682 H 0.27838 0.37495 0.83686 0.0
C683 C 0.31717 0.41324 0.75154 0.0
C684 C 0.28742 0.42072 0.75261 0.0
C685 C 0.33406 0.41064 0.77358 0.0
C686 C 0.30774 0.38359 0.839 0.0
H687 H 0.41293 0.31226 0.88934 0.0
H688 H 0.40332 0.35068 0.85911 0.0
H689 H 0.29667 0.35161 0.87273 0.0
H690 H 0.25439 0.43468 0.77746 0.0
H691 H 0.28408 0.43058 0.81573 0.0
H692 H 0.39296 0.43287 0.81013 0.0
C693 C 0.3898 0.34596 0.87724 0.0
C694 C 0.31829 0.37023 0.85968 0.0
C695 C 0.39509 0.32357 0.89458 0.0
C696 C 0.27697 0.42847 0.77598 0.0
C697 C 0.29383 0.42591 0.79795 0.0
C698 C 0.37184 0.41551 0.82385 0.0
C699 C 0.36547 0.35981 0.88258 0.0
C700 C 0.35564 0.37869 0.86254 0.0
C701 C 0.32154 0.41551 0.7971 0.0
C702 C 0.33419 0.40568 0.82054 0.0
H703 H 0.33846 0.32315 0.94144 0.0
H704 H 0.32969 0.363 0.91128 0.0
H705 H 0.41162 0.40998 0.84647 0.0
H706 H 0.32585 0.40708 0.73384 0.0
H707 H 0.35524 0.40244 0.77226 0.0
C708 C 0.15962 0.33885 0.40703 0.0
C709 C 0.16547 0.36893 0.39143 0.0
C710 C 0.16663 0.34432 0.43262 0.0
C711 C 0.18399 0.40958 0.48556 0.0
H712 H 0.22829 0.35395 0.51423 0.0
C713 C 0.2247 0.41894 0.59069 0.0
C714 C 0.20562 0.38326 0.60218 0.0
C715 C 0.22621 0.422 0.56449 0.0
C716 C 0.21617 0.36985 0.50645 0.0
H717 H 0.18169 0.42804 0.39052 0.0
H718 H 0.19467 0.43796 0.43551 0.0
H719 H 0.21608 0.35014 0.46946 0.0
H720 H 0.17487 0.323 0.59571 0.0
H721 H 0.1789 0.32823 0.55016 0.0
H722 H 0.18421 0.42914 0.52289 0.0
C723 C 0.18422 0.40995 0.42792 0.0
C724 C 0.20878 0.3674 0.48084 0.0
C725 C 0.17668 0.4043 0.40218 0.0
C726 C 0.19005 0.35079 0.58723 0.0
C727 C 0.19232 0.35381 0.5612 0.0
C728 C 0.19182 0.41236 0.51124 0.0
C729 C 0.18034 0.38021 0.4433 0.0
C730 C 0.19149 0.38626 0.47016 0.0
C731 C 0.20945 0.38939 0.54955 0.0
C732 C 0.20705 0.39168 0.52199 0.0
H733 H 0.15059 0.31116 0.39929 0.0
H734 H 0.16201 0.32042 0.44397 0.0
H735 H 0.17064 0.42443 0.47801 0.0
H736 H 0.23636 0.44434 0.6019 0.0
H737 H 0.23963 0.44973 0.55591 0.0
C738 C 0.85921 0.2431 0.91744 0.0
C739 C 0.82997 0.21886 0.93362 0.0
C740 C 0.8545 0.23917 0.89139 0.0
C741 C 0.79509 0.16843 0.84361 0.0
H742 H 0.83954 0.25429 0.79851 0.0
C743 C 0.76945 0.1543 0.73618 0.0
C744 C 0.80196 0.17415 0.72139 0.0
C745 C 0.77083 0.16045 0.7621 0.0
C746 C 0.82705 0.23002 0.8109 0.0
H747 H 0.77221 0.17285 0.93511 0.0
H748 H 0.76381 0.16678 0.89017 0.0
H749 H 0.84662 0.2646 0.84365 0.0
H750 H 0.86128 0.21647 0.72232 0.0
H751 H 0.86345 0.22701 0.76706 0.0
H752 H 0.77552 0.13391 0.8108 0.0
C753 C 0.7908 0.18797 0.89736 0.0
C754 C 0.83126 0.23592 0.83676 0.0
C755 C 0.7956 0.19164 0.92322 0.0
C756 C 0.83563 0.2005 0.73305 0.0
C757 C 0.83689 0.20687 0.75875 0.0
C758 C 0.79068 0.16257 0.81777 0.0
C759 C 0.82034 0.21114 0.88105 0.0
C760 C 0.81553 0.20519 0.85347 0.0
C761 C 0.80461 0.18692 0.77362 0.0
C762 C 0.80689 0.19326 0.80111 0.0
H763 H 0.88603 0.26429 0.92487 0.0
H764 H 0.87798 0.25737 0.8794 0.0
H765 H 0.78313 0.144 0.85583 0.0
H766 H 0.74308 0.13386 0.7278 0.0
H767 H 0.74543 0.14476 0.77311 0.0
C768 C 0.66029 0.79787 0.26346 0.0
C769 C 0.64482 0.81705 0.27617 0.0
C770 C 0.65379 0.78981 0.23804 0.0
C771 C 0.58943 0.78012 0.18683 0.0
H772 H 0.66932 0.78598 0.14486 0.0
C773 C 0.58704 0.78156 0.07915 0.0
C774 C 0.60123 0.7618 0.0658 0.0
C775 C 0.58901 0.78366 0.10517 0.0
C776 C 0.64655 0.78359 0.15642 0.0
H777 H 0.61078 0.84332 0.27176 0.0
H778 H 0.60006 0.82993 0.22691 0.0
H779 H 0.681 0.80224 0.18903 0.0
H780 H 0.62738 0.72752 0.06929 0.0
H781 H 0.63135 0.7316 0.11523 0.0
H782 H 0.55538 0.76245 0.15387 0.0
C783 C 0.61671 0.82054 0.23693 0.0
C784 C 0.65323 0.79303 0.18175 0.0
C785 C 0.6231 0.82851 0.26258 0.0
C786 C 0.61616 0.74285 0.07913 0.0
C787 C 0.61865 0.74543 0.10533 0.0
C788 C 0.58285 0.77094 0.16142 0.0
C789 C 0.63188 0.8009 0.22439 0.0
C790 C 0.62479 0.79149 0.19729 0.0
C791 C 0.60559 0.76639 0.11854 0.0
C792 C 0.6114 0.77274 0.14593 0.0
H793 H 0.67706 0.78838 0.27322 0.0
H794 H 0.6654 0.77409 0.22921 0.0
H795 H 0.56668 0.77793 0.1983 0.0
H796 H 0.57511 0.79626 0.06939 0.0
H797 H 0.579 0.80026 0.11473 0.0
C798 C 0.85547 0.67422 0.39757 0.0
C799 C 0.84692 0.64213 0.38336 0.0
C800 C 0.84692 0.67103 0.42305 0.0
C801 C 0.81624 0.60669 0.47827 0.0
H802 H 0.77861 0.67202 0.49995 0.0
C803 C 0.75946 0.60242 0.579 0.0
C804 C 0.77878 0.6378 0.59069 0.0
C805 C 0.76273 0.59944 0.55304 0.0
C806 C 0.78892 0.65351 0.49415 0.0
H807 H 0.82435 0.58174 0.38474 0.0
H808 H 0.80856 0.57584 0.42946 0.0
H809 H 0.79724 0.67361 0.45649 0.0
H810 H 0.81493 0.6978 0.58459 0.0
H811 H 0.81938 0.69285 0.53936 0.0
H812 H 0.80752 0.5866 0.51624 0.0
C813 C 0.82247 0.60363 0.42099 0.0
C814 C 0.80001 0.65465 0.46929 0.0
C815 C 0.83166 0.60697 0.39541 0.0
C816 C 0.7995 0.67025 0.57595 0.0
C817 C 0.80208 0.66738 0.55009 0.0
C818 C 0.80472 0.60528 0.50319 0.0
C819 C 0.82876 0.63551 0.43489 0.0
C820 C 0.81476 0.63201 0.46113 0.0
C821 C 0.78465 0.63191 0.53845 0.0
C822 C 0.79173 0.6293 0.51146 0.0
H823 H 0.8674 0.70169 0.3887 0.0
H824 H 0.85342 0.6964 0.43328 0.0
H825 H 0.82748 0.5889 0.4727 0.0
H826 H 0.74382 0.57696 0.59007 0.0
H827 H 0.7489 0.57178 0.54447 0.0
C828 C 0.03795 0.65696 0.86839 0.0
C829 C 0.04046 0.67028 0.8929 0.0
C830 C 0.04815 0.68164 0.84802 0.0
C831 C 0.11375 0.77846 0.83117 0.0
H832 H 0.05575 0.75509 0.77013 0.0
C833 C 0.11624 0.84121 0.72591 0.0
C834 C 0.14961 0.84516 0.71579 0.0
C835 C 0.10439 0.8267 0.74994 0.0
C836 C 0.07219 0.76225 0.78712 0.0
H837 H 0.0548 0.71977 0.91536 0.0
H838 H 0.07342 0.76318 0.87963 0.0
H839 H 0.02854 0.71505 0.80699 0.0
H840 H 0.1984 0.84011 0.72379 0.0
H841 H 0.17765 0.81473 0.76623 0.0
H842 H 0.15797 0.82497 0.81085 0.0
C843 C 0.06303 0.73349 0.87624 0.0
C844 C 0.05663 0.73921 0.80815 0.0
C845 C 0.05194 0.70857 0.89662 0.0
C846 C 0.17264 0.83749 0.73112 0.0
C847 C 0.1607 0.82288 0.75536 0.0
C848 C 0.12961 0.80125 0.80992 0.0
C849 C 0.06196 0.72034 0.8518 0.0
C850 C 0.0773 0.74688 0.83032 0.0
C851 C 0.12563 0.81581 0.76451 0.0
C852 C 0.10898 0.79325 0.78765 0.0
H853 H 0.02988 0.62775 0.8651 0.0
H854 H 0.04728 0.6708 0.82938 0.0
H855 H 0.13042 0.78474 0.848 0.0
H856 H 0.09811 0.8474 0.71469 0.0
H857 H 0.07763 0.82228 0.7567 0.0
C858 C 0.34657 0.18536 0.24589 0.0
C859 C 0.35491 0.16113 0.25957 0.0
C860 C 0.34822 0.18639 0.21984 0.0
C861 C 0.38713 0.16236 0.165 0.0
H862 H 0.31249 0.17574 0.12963 0.0
C863 C 0.37274 0.15423 0.0571 0.0
C864 C 0.36768 0.182 0.04513 0.0
C865 C 0.37124 0.15094 0.08316 0.0
C866 C 0.33374 0.17237 0.13924 0.0
H867 H 0.37199 0.11916 0.25635 0.0
H868 H 0.37424 0.12042 0.21041 0.0
H869 H 0.30906 0.1694 0.17503 0.0
H870 H 0.35696 0.22805 0.05138 0.0
H871 H 0.35403 0.22204 0.09706 0.0
H872 H 0.41144 0.16489 0.12896 0.0
C873 C 0.36681 0.13898 0.22009 0.0
C874 C 0.33182 0.16872 0.16529 0.0
C875 C 0.36539 0.13811 0.2464 0.0
C876 C 0.36092 0.20633 0.05995 0.0
C877 C 0.35909 0.20279 0.08611 0.0
C878 C 0.38886 0.16571 0.13886 0.0
C879 C 0.35793 0.16298 0.2065 0.0
C880 C 0.35877 0.16418 0.17858 0.0
C881 C 0.36436 0.1751 0.09798 0.0
C882 C 0.36238 0.17113 0.12572 0.0
H883 H 0.3389 0.20395 0.25529 0.0
H884 H 0.34219 0.20597 0.21015 0.0
H885 H 0.40859 0.15933 0.17458 0.0
H886 H 0.37807 0.13499 0.04634 0.0
H887 H 0.37499 0.12906 0.0917 0.0
loop_
_geom_bond_atom_site_label_1
_geom_bond_atom_site_label_2
_geom_bond_distance
_geom_bond_site_symmetry_2
_ccdc_geom_bond_type
C0 O1 1.306 . S
C0 O3 1.160 . S
O1 C0 1.306 . S
O1 Cd2 2.228 . S
Cd2 O1 2.228 . S
Cd2 O6 2.273 . S
Cd2 O10 2.277 . S
O3 C0 1.160 . S
O3 Cd4 2.203 . S
Cd4 O3 2.203 . S
Cd4 O6 2.411 . S
Cd4 O7 2.333 . S
Cd4 O8 2.352 . S
Cd4 O12 2.277 . S
Cd4 O13 2.356 . S
C5 O10 1.209 . S
C5 O12 1.226 . S
O6 Cd2 2.273 . S
O6 Cd4 2.411 . S
O6 C9 1.320 . S
O7 Cd4 2.333 . S
O7 C9 1.214 . S
O8 Cd4 2.352 . S
O8 C11 1.258 . S
C9 O6 1.320 . S
C9 O7 1.214 . S
O10 Cd2 2.277 . S
O10 C5 1.209 . S
C11 O8 1.258 . S
C11 O13 1.282 . S
O12 Cd4 2.277 . S
O12 C5 1.226 . S
O13 Cd4 2.356 . S
O13 C11 1.282 . S
C14 O15 1.306 . S
C14 O17 1.160 . S
O15 C14 1.306 . S
O15 Cd16 2.228 . S
Cd16 O15 2.228 . S
Cd16 O20 2.273 . S
Cd16 O24 2.277 . S
O17 C14 1.160 . S
O17 Cd18 2.203 . S
Cd18 O17 2.203 . S
Cd18 O20 2.411 . S
Cd18 O21 2.333 . S
Cd18 O22 2.352 . S
Cd18 O26 2.277 . S
Cd18 O27 2.356 . S
C19 O24 1.209 . S
C19 O26 1.226 . S
O20 Cd16 2.273 . S
O20 Cd18 2.411 . S
O20 C23 1.320 . S
O21 Cd18 2.333 . S
O21 C23 1.214 . S
O22 Cd18 2.352 . S
O22 C25 1.258 . S
C23 O20 1.320 . S
C23 O21 1.214 . S
O24 Cd16 2.277 . S
O24 C19 1.209 . S
C25 O22 1.258 . S
C25 O27 1.282 . S
O26 Cd18 2.277 . S
O26 C19 1.226 . S
O27 Cd18 2.356 . S
O27 C25 1.282 . S
C28 O29 1.306 1_556 S
C28 O31 1.160 . S
O29 C28 1.306 1_554 S
O29 Cd30 2.228 . S
Cd30 O29 2.228 . S
Cd30 O34 2.273 1_554 S
Cd30 O38 2.277 . S
O31 C28 1.160 . S
O31 Cd32 2.203 . S
Cd32 O31 2.203 . S
Cd32 O34 2.411 . S
Cd32 O35 2.333 . S
Cd32 O36 2.352 . S
Cd32 O40 2.277 1_556 S
Cd32 O41 2.356 . S
C33 O38 1.209 . S
C33 O40 1.226 . S
O34 Cd30 2.273 1_556 S
O34 Cd32 2.411 . S
O34 C37 1.320 . S
O35 Cd32 2.333 . S
O35 C37 1.214 . S
O36 Cd32 2.352 . S
O36 C39 1.258 . S
C37 O34 1.320 . S
C37 O35 1.214 . S
O38 Cd30 2.277 . S
O38 C33 1.209 . S
C39 O36 1.258 . S
C39 O41 1.282 . S
O40 Cd32 2.277 1_554 S
O40 C33 1.226 . S
O41 Cd32 2.356 . S
O41 C39 1.282 . S
C42 O43 1.306 . S
C42 O45 1.160 . S
O43 C42 1.306 . S
O43 Cd44 2.228 . S
Cd44 O43 2.228 . S
Cd44 O48 2.273 . S
Cd44 O52 2.277 . S
O45 C42 1.160 . S
O45 Cd46 2.203 . S
Cd46 O45 2.203 . S
Cd46 O48 2.411 . S
Cd46 O49 2.333 . S
Cd46 O50 2.352 . S
Cd46 O54 2.277 . S
Cd46 O55 2.356 . S
C47 O52 1.209 . S
C47 O54 1.226 . S
O48 Cd44 2.273 . S
O48 Cd46 2.411 . S
O48 C51 1.320 . S
O49 Cd46 2.333 . S
O49 C51 1.214 . S
O50 Cd46 2.352 . S
O50 C53 1.258 . S
C51 O48 1.320 . S
C51 O49 1.214 . S
O52 Cd44 2.277 . S
O52 C47 1.209 . S
C53 O50 1.258 . S
C53 O55 1.282 . S
O54 Cd46 2.277 . S
O54 C47 1.226 . S
O55 Cd46 2.356 . S
O55 C53 1.282 . S
C56 O57 1.306 . S
C56 O59 1.160 . S
O57 C56 1.306 . S
O57 Cd58 2.228 . S
Cd58 O57 2.228 . S
Cd58 O62 2.273 . S
Cd58 O66 2.277 . S
O59 C56 1.160 . S
O59 Cd60 2.203 . S
Cd60 O59 2.203 . S
Cd60 O62 2.411 . S
Cd60 O63 2.333 . S
Cd60 O64 2.352 . S
Cd60 O68 2.277 . S
Cd60 O69 2.356 . S
C61 O66 1.209 . S
C61 O68 1.226 . S
O62 Cd58 2.273 . S
O62 Cd60 2.411 . S
O62 C65 1.320 . S
O63 Cd60 2.333 . S
O63 C65 1.214 . S
O64 Cd60 2.352 . S
O64 C67 1.258 . S
C65 O62 1.320 . S
C65 O63 1.214 . S
O66 Cd58 2.277 . S
O66 C61 1.209 . S
C67 O64 1.258 . S
C67 O69 1.282 . S
O68 Cd60 2.277 . S
O68 C61 1.226 . S
O69 Cd60 2.356 . S
O69 C67 1.282 . S
C70 O71 1.306 1_556 S
C70 O73 1.160 . S
O71 C70 1.306 1_554 S
O71 Cd72 2.228 . S
Cd72 O71 2.228 . S
Cd72 O76 2.273 1_554 S
Cd72 O80 2.277 . S
O73 C70 1.160 . S
O73 Cd74 2.203 . S
Cd74 O73 2.203 . S
Cd74 O76 2.411 . S
Cd74 O77 2.333 . S
Cd74 O78 2.352 . S
Cd74 O82 2.277 1_556 S
Cd74 O83 2.356 . S
C75 O80 1.209 . S
C75 O82 1.226 . S
O76 Cd72 2.273 1_556 S
O76 Cd74 2.411 . S
O76 C79 1.320 . S
O77 Cd74 2.333 . S
O77 C79 1.214 . S
O78 Cd74 2.352 . S
O78 C81 1.258 . S
C79 O76 1.320 . S
C79 O77 1.214 . S
O80 Cd72 2.277 . S
O80 C75 1.209 . S
C81 O78 1.258 . S
C81 O83 1.282 . S
O82 Cd74 2.277 1_554 S
O82 C75 1.226 . S
O83 Cd74 2.356 . S
O83 C81 1.282 . S
C84 O85 1.306 . S
C84 O87 1.160 . S
O85 C84 1.306 . S
O85 Cd86 2.228 . S
Cd86 O85 2.228 . S
Cd86 O90 2.273 . S
Cd86 O94 2.277 . S
O87 C84 1.160 . S
O87 Cd88 2.203 . S
Cd88 O87 2.203 . S
Cd88 O90 2.411 . S
Cd88 O91 2.333 . S
Cd88 O92 2.352 . S
Cd88 O96 2.277 . S
Cd88 O97 2.356 . S
C89 O94 1.209 . S
C89 O96 1.226 . S
O90 Cd86 2.273 . S
O90 Cd88 2.411 . S
O90 C93 1.320 . S
O91 Cd88 2.333 . S
O91 C93 1.214 . S
O92 Cd88 2.352 . S
O92 C95 1.258 . S
C93 O90 1.320 . S
C93 O91 1.214 . S
O94 Cd86 2.277 . S
O94 C89 1.209 . S
C95 O92 1.258 . S
C95 O97 1.282 . S
O96 Cd88 2.277 . S
O96 C89 1.226 . S
O97 Cd88 2.356 . S
O97 C95 1.282 . S
C98 O99 1.306 . S
C98 O101 1.160 . S
O99 C98 1.306 . S
O99 Cd100 2.228 . S
Cd100 O99 2.228 . S
Cd100 O104 2.273 . S
Cd100 O108 2.277 . S
O101 C98 1.160 . S
O101 Cd102 2.203 . S
Cd102 O101 2.203 . S
Cd102 O104 2.411 . S
Cd102 O105 2.333 . S
Cd102 O106 2.352 . S
Cd102 O110 2.277 . S
Cd102 O111 2.356 . S
C103 O108 1.209 . S
C103 O110 1.226 . S
O104 Cd100 2.273 . S
O104 Cd102 2.411 . S
O104 C107 1.320 . S
O105 Cd102 2.333 . S
O105 C107 1.214 . S
O106 Cd102 2.352 . S
O106 C109 1.258 . S
C107 O104 1.320 . S
C107 O105 1.214 . S
O108 Cd100 2.277 . S
O108 C103 1.209 . S
C109 O106 1.258 . S
C109 O111 1.282 . S
O110 Cd102 2.277 . S
O110 C103 1.226 . S
O111 Cd102 2.356 . S
O111 C109 1.282 . S
C112 O113 1.306 1_554 S
C112 O115 1.160 . S
O113 C112 1.306 1_556 S
O113 Cd114 2.228 . S
Cd114 O113 2.228 . S
Cd114 O118 2.273 1_556 S
Cd114 O122 2.277 . S
O115 C112 1.160 . S
O115 Cd116 2.203 . S
Cd116 O115 2.203 . S
Cd116 O118 2.411 . S
Cd116 O119 2.333 . S
Cd116 O120 2.352 . S
Cd116 O124 2.277 1_554 S
Cd116 O125 2.356 . S
C117 O122 1.209 . S
C117 O124 1.226 . S
O118 Cd114 2.273 1_554 S
O118 Cd116 2.411 . S
O118 C121 1.320 . S
O119 Cd116 2.333 . S
O119 C121 1.214 . S
O120 Cd116 2.352 . S
O120 C123 1.258 . S
C121 O118 1.320 . S
C121 O119 1.214 . S
O122 Cd114 2.277 . S
O122 C117 1.209 . S
C123 O120 1.258 . S
C123 O125 1.282 . S
O124 Cd116 2.277 1_556 S
O124 C117 1.226 . S
O125 Cd116 2.356 . S
O125 C123 1.282 . S
C126 O127 1.306 . S
C126 O129 1.160 . S
O127 C126 1.306 . S
O127 Cd128 2.228 . S
Cd128 O127 2.228 . S
Cd128 O132 2.273 . S
Cd128 O136 2.277 . S
O129 C126 1.160 . S
O129 Cd130 2.203 . S
Cd130 O129 2.203 . S
Cd130 O132 2.411 . S
Cd130 O133 2.333 . S
Cd130 O134 2.352 . S
Cd130 O138 2.277 . S
Cd130 O139 2.356 . S
C131 O136 1.209 . S
C131 O138 1.226 . S
O132 Cd128 2.273 . S
O132 Cd130 2.411 . S
O132 C135 1.320 . S
O133 Cd130 2.333 . S
O133 C135 1.214 . S
O134 Cd130 2.352 . S
O134 C137 1.258 . S
C135 O132 1.320 . S
C135 O133 1.214 . S
O136 Cd128 2.277 . S
O136 C131 1.209 . S
C137 O134 1.258 . S
C137 O139 1.282 . S
O138 Cd130 2.277 . S
O138 C131 1.226 . S
O139 Cd130 2.356 . S
O139 C137 1.282 . S
C140 O141 1.306 . S
C140 O143 1.160 . S
O141 C140 1.306 . S
O141 Cd142 2.228 . S
Cd142 O141 2.228 . S
Cd142 O146 2.273 . S
Cd142 O150 2.277 . S
O143 C140 1.160 . S
O143 Cd144 2.203 . S
Cd144 O143 2.203 . S
Cd144 O146 2.411 . S
Cd144 O147 2.333 . S
Cd144 O148 2.352 . S
Cd144 O152 2.277 . S
Cd144 O153 2.356 . S
C145 O150 1.209 . S
C145 O152 1.226 . S
O146 Cd142 2.273 . S
O146 Cd144 2.411 . S
O146 C149 1.320 . S
O147 Cd144 2.333 . S
O147 C149 1.214 . S
O148 Cd144 2.352 . S
O148 C151 1.258 . S
C149 O146 1.320 . S
C149 O147 1.214 . S
O150 Cd142 2.277 . S
O150 C145 1.209 . S
C151 O148 1.258 . S
C151 O153 1.282 . S
O152 Cd144 2.277 . S
O152 C145 1.226 . S
O153 Cd144 2.356 . S
O153 C151 1.282 . S
C154 O155 1.306 1_554 S
C154 O157 1.160 . S
O155 C154 1.306 1_556 S
O155 Cd156 2.228 . S
Cd156 O155 2.228 . S
Cd156 O160 2.273 1_556 S
Cd156 O164 2.277 . S
O157 C154 1.160 . S
O157 Cd158 2.203 . S
Cd158 O157 2.203 . S
Cd158 O160 2.411 . S
Cd158 O161 2.333 . S
Cd158 O162 2.352 . S
Cd158 O166 2.277 1_554 S
Cd158 O167 2.356 . S
C159 O164 1.209 . S
C159 O166 1.226 . S
O160 Cd156 2.273 1_554 S
O160 Cd158 2.411 . S
O160 C163 1.320 . S
O161 Cd158 2.333 . S
O161 C163 1.214 . S
O162 Cd158 2.352 . S
O162 C165 1.258 . S
C163 O160 1.320 . S
C163 O161 1.214 . S
O164 Cd156 2.277 . S
O164 C159 1.209 . S
C165 O162 1.258 . S
C165 O167 1.282 . S
O166 Cd158 2.277 1_556 S
O166 C159 1.226 . S
O167 Cd158 2.356 . S
O167 C165 1.282 . S
C168 C169 1.349 . S
C168 C170 1.327 . S
C168 H193 0.950 . S
C169 C168 1.349 . S
C169 C185 1.349 . S
C170 C168 1.327 . S
C170 C189 1.429 . S
C170 H194 0.950 . S
C171 C188 1.574 . S
C171 C190 1.368 . S
C171 H195 0.949 . S
H172 C176 0.949 . S
C173 C174 1.349 . S
C173 C175 1.327 . S
C173 H196 0.950 . S
C174 C173 1.349 . S
C174 C186 1.349 . S
C175 C173 1.327 . S
C175 C191 1.429 . S
C175 H197 0.950 . S
C176 H172 0.949 . S
C176 C184 1.574 . S
C176 C192 1.368 . S
H177 C185 0.950 . S
H178 C183 0.950 . S
H179 C184 0.949 . S
H180 C186 0.950 . S
H181 C187 0.950 . S
H182 C188 0.949 . S
C183 H178 0.950 . S
C183 C185 1.327 . S
C183 C189 1.429 . S
C184 C176 1.574 . S
C184 H179 0.949 . S
C184 C190 1.368 . S
C185 C169 1.349 . S
C185 H177 0.950 . S
C185 C183 1.327 . S
C186 C174 1.349 . S
C186 H180 0.950 . S
C186 C187 1.327 . S
C187 H181 0.950 . S
C187 C186 1.327 . S
C187 C191 1.429 . S
C188 C171 1.574 . S
C188 H182 0.949 . S
C188 C192 1.368 . S
C189 C170 1.429 . S
C189 C183 1.429 . S
C189 C190 1.523 . S
C190 C171 1.368 . S
C190 C184 1.368 . S
C190 C189 1.523 . S
C191 C175 1.429 . S
C191 C187 1.429 . S
C191 C192 1.523 . S
C192 C176 1.368 . S
C192 C188 1.368 . S
C192 C191 1.523 . S
H193 C168 0.950 . S
H194 C170 0.950 . S
H195 C171 0.949 . S
H196 C173 0.950 . S
H197 C175 0.950 . S
C198 C199 1.349 . S
C198 C200 1.327 . S
C198 H223 0.950 . S
C199 C198 1.349 . S
C199 C215 1.349 . S
C200 C198 1.327 . S
C200 C219 1.429 . S
C200 H224 0.950 . S
C201 C218 1.574 . S
C201 C220 1.368 . S
C201 H225 0.949 . S
H202 C206 0.949 . S
C203 C204 1.349 . S
C203 C205 1.327 . S
C203 H226 0.950 . S
C204 C203 1.349 . S
C204 C216 1.349 . S
C205 C203 1.327 . S
C205 C221 1.429 . S
C205 H227 0.950 . S
C206 H202 0.949 . S
C206 C214 1.574 . S
C206 C222 1.368 . S
H207 C215 0.950 . S
H208 C213 0.950 . S
H209 C214 0.949 . S
H210 C216 0.950 . S
H211 C217 0.950 . S
H212 C218 0.949 . S
C213 H208 0.950 . S
C213 C215 1.327 . S
C213 C219 1.429 . S
C214 C206 1.574 . S
C214 H209 0.949 . S
C214 C220 1.368 . S
C215 C199 1.349 . S
C215 H207 0.950 . S
C215 C213 1.327 . S
C216 C204 1.349 . S
C216 H210 0.950 . S
C216 C217 1.327 . S
C217 H211 0.950 . S
C217 C216 1.327 . S
C217 C221 1.429 . S
C218 C201 1.574 . S
C218 H212 0.949 . S
C218 C222 1.368 . S
C219 C200 1.429 . S
C219 C213 1.429 . S
C219 C220 1.523 . S
C220 C201 1.368 . S
C220 C214 1.368 . S
C220 C219 1.523 . S
C221 C205 1.429 . S
C221 C217 1.429 . S
C221 C222 1.523 . S
C222 C206 1.368 . S
C222 C218 1.368 . S
C222 C221 1.523 . S
H223 C198 0.950 . S
H224 C200 0.950 . S
H225 C201 0.949 . S
H226 C203 0.950 . S
H227 C205 0.950 . S
C228 C229 1.349 . S
C228 C230 1.327 . S
C228 H253 0.950 . S
C229 C228 1.349 . S
C229 C245 1.349 1_556 S
C230 C228 1.327 . S
C230 C249 1.429 . S
C230 H254 0.950 . S
C231 C248 1.574 . S
C231 C250 1.368 1_554 S
C231 H255 0.949 . S
H232 C236 0.949 . S
C233 C234 1.349 . S
C233 C235 1.327 . S
C233 H256 0.950 . S
C234 C233 1.349 . S
C234 C246 1.349 1_554 S
C235 C233 1.327 . S
C235 C251 1.429 . S
C235 H257 0.950 . S
C236 H232 0.949 . S
C236 C244 1.574 . S
C236 C252 1.342 1_556 S
H237 C245 0.950 . S
H238 C243 0.950 . S
H239 C244 0.949 . S
H240 C246 0.950 . S
H241 C247 0.950 . S
H242 C248 0.949 . S
C243 H238 0.950 . S
C243 C245 1.327 . S
C243 C249 1.429 1_554 S
C244 C236 1.574 . S
C244 H239 0.949 . S
C244 C250 1.368 . S
C245 C229 1.349 1_554 S
C245 H237 0.950 . S
C245 C243 1.327 . S
C246 C234 1.349 1_556 S
C246 H240 0.950 . S
C246 C247 1.327 . S
C247 H241 0.950 . S
C247 C246 1.327 . S
C247 C251 1.429 1_556 S
C248 C231 1.574 . S
C248 H242 0.949 . S
C248 C252 1.394 . S
C249 C230 1.429 . S
C249 C243 1.429 1_556 S
C249 C250 1.523 . S
C250 C231 1.368 1_556 S
C250 C244 1.368 . S
C250 C249 1.523 . S
C251 C235 1.429 . S
C251 C247 1.429 1_554 S
C251 C252 1.525 . S
C252 C236 1.342 1_554 S
C252 C248 1.394 . S
C252 C251 1.525 . S
H253 C228 0.950 . S
H254 C230 0.950 . S
H255 C231 0.949 . S
H256 C233 0.950 . S
H257 C235 0.950 . S
C258 C259 1.349 . S
C258 C260 1.327 . S
C258 H283 0.950 . S
C259 C258 1.349 . S
C259 C275 1.349 . S
C260 C258 1.327 . S
C260 C279 1.429 . S
C260 H284 0.950 . S
C261 C278 1.574 . S
C261 C280 1.368 . S
C261 H285 0.949 . S
H262 C266 0.949 . S
C263 C264 1.349 . S
C263 C265 1.327 . S
C263 H286 0.950 . S
C264 C263 1.349 . S
C264 C276 1.349 . S
C265 C263 1.327 . S
C265 C281 1.429 . S
C265 H287 0.950 . S
C266 H262 0.949 . S
C266 C274 1.574 . S
C266 C282 1.368 . S
H267 C275 0.950 . S
H268 C273 0.950 . S
H269 C274 0.949 . S
H270 C276 0.950 . S
H271 C277 0.950 . S
H272 C278 0.949 . S
C273 H268 0.950 . S
C273 C275 1.327 . S
C273 C279 1.429 . S
C274 C266 1.574 . S
C274 H269 0.949 . S
C274 C280 1.368 . S
C275 C259 1.349 . S
C275 H267 0.950 . S
C275 C273 1.327 . S
C276 C264 1.349 . S
C276 H270 0.950 . S
C276 C277 1.327 . S
C277 H271 0.950 . S
C277 C276 1.327 . S
C277 C281 1.429 . S
C278 C261 1.574 . S
C278 H272 0.949 . S
C278 C282 1.368 . S
C279 C260 1.429 . S
C279 C273 1.429 . S
C279 C280 1.523 . S
C280 C261 1.368 . S
C280 C274 1.368 . S
C280 C279 1.523 . S
C281 C265 1.429 . S
C281 C277 1.429 . S
C281 C282 1.523 . S
C282 C266 1.368 . S
C282 C278 1.368 . S
C282 C281 1.523 . S
H283 C258 0.950 . S
H284 C260 0.950 . S
H285 C261 0.949 . S
H286 C263 0.950 . S
H287 C265 0.950 . S
C288 C289 1.349 . S
C288 C290 1.327 . S
C288 H313 0.950 . S
C289 C288 1.349 . S
C289 C305 1.349 . S
C290 C288 1.327 . S
C290 C309 1.429 . S
C290 H314 0.950 . S
C291 C308 1.574 . S
C291 C310 1.368 . S
C291 H315 0.949 . S
H292 C296 0.949 . S
C293 C294 1.349 . S
C293 C295 1.327 . S
C293 H316 0.950 . S
C294 C293 1.349 . S
C294 C306 1.349 . S
C295 C293 1.327 . S
C295 C311 1.429 . S
C295 H317 0.950 . S
C296 H292 0.949 . S
C296 C304 1.574 . S
C296 C312 1.368 . S
H297 C305 0.950 . S
H298 C303 0.950 . S
H299 C304 0.949 . S
H300 C306 0.950 . S
H301 C307 0.950 . S
H302 C308 0.949 . S
C303 H298 0.950 . S
C303 C305 1.327 . S
C303 C309 1.429 . S
C304 C296 1.574 . S
C304 H299 0.949 . S
C304 C310 1.368 . S
C305 C289 1.349 . S
C305 H297 0.950 . S
C305 C303 1.327 . S
C306 C294 1.349 . S
C306 H300 0.950 . S
C306 C307 1.327 . S
C307 H301 0.950 . S
C307 C306 1.327 . S
C307 C311 1.429 . S
C308 C291 1.574 . S
C308 H302 0.949 . S
C308 C312 1.368 . S
C309 C290 1.429 . S
C309 C303 1.429 . S
C309 C310 1.523 . S
C310 C291 1.368 . S
C310 C304 1.368 . S
C310 C309 1.523 . S
C311 C295 1.429 . S
C311 C307 1.429 . S
C311 C312 1.523 . S
C312 C296 1.368 . S
C312 C308 1.368 . S
C312 C311 1.523 . S
H313 C288 0.950 . S
H314 C290 0.950 . S
H315 C291 0.949 . S
H316 C293 0.950 . S
H317 C295 0.950 . S
C318 C319 1.349 . S
C318 C320 1.327 . S
C318 H343 0.950 . S
C319 C318 1.349 . S
C319 C335 1.349 1_554 S
C320 C318 1.327 . S
C320 C339 1.429 . S
C320 H344 0.950 . S
C321 C338 1.574 . S
C321 C340 1.368 1_556 S
C321 H345 0.949 . S
H322 C326 0.949 . S
C323 C324 1.349 . S
C323 C325 1.327 . S
C323 H346 0.950 . S
C324 C323 1.349 . S
C324 C336 1.349 1_556 S
C325 C323 1.327 . S
C325 C341 1.429 . S
C325 H347 0.950 . S
C326 H322 0.949 . S
C326 C334 1.574 . S
C326 C342 1.343 1_554 S
H327 C335 0.950 . S
H328 C333 0.950 . S
H329 C334 0.949 . S
H330 C336 0.950 . S
H331 C337 0.950 . S
H332 C338 0.949 . S
C333 H328 0.950 . S
C333 C335 1.327 . S
C333 C339 1.429 1_556 S
C334 C326 1.574 . S
C334 H329 0.949 . S
C334 C340 1.368 . S
C335 C319 1.349 1_556 S
C335 H327 0.950 . S
C335 C333 1.327 . S
C336 C324 1.349 1_554 S
C336 H330 0.950 . S
C336 C337 1.327 . S
C337 H331 0.950 . S
C337 C336 1.327 . S
C337 C341 1.429 1_554 S
C338 C321 1.574 . S
C338 H332 0.949 . S
C338 C342 1.393 . S
C339 C320 1.429 . S
C339 C333 1.429 1_554 S
C339 C340 1.523 . S
C340 C321 1.368 1_554 S
C340 C334 1.368 . S
C340 C339 1.523 . S
C341 C325 1.429 . S
C341 C337 1.429 1_556 S
C341 C342 1.525 . S
C342 C326 1.343 1_556 S
C342 C338 1.393 . S
C342 C341 1.525 . S
H343 C318 0.950 . S
H344 C320 0.950 . S
H345 C321 0.949 . S
H346 C323 0.950 . S
H347 C325 0.950 . S
C348 C349 1.349 . S
C348 C350 1.327 . S
C348 H373 0.950 . S
C349 C348 1.349 . S
C349 C365 1.349 . S
C350 C348 1.327 . S
C350 C369 1.429 . S
C350 H374 0.950 . S
C351 C368 1.574 . S
C351 C370 1.368 . S
C351 H375 0.949 . S
H352 C356 0.949 . S
C353 C354 1.349 . S
C353 C355 1.327 . S
C353 H376 0.950 . S
C354 C353 1.349 . S
C354 C366 1.349 . S
C355 C353 1.327 . S
C355 C371 1.429 . S
C355 H377 0.950 . S
C356 H352 0.949 . S
C356 C364 1.574 . S
C356 C372 1.368 . S
H357 C365 0.950 . S
H358 C363 0.950 . S
H359 C364 0.949 . S
H360 C366 0.950 . S
H361 C367 0.950 . S
H362 C368 0.949 . S
C363 H358 0.950 . S
C363 C365 1.327 . S
C363 C369 1.429 . S
C364 C356 1.574 . S
C364 H359 0.949 . S
C364 C370 1.368 . S
C365 C349 1.349 . S
C365 H357 0.950 . S
C365 C363 1.327 . S
C366 C354 1.349 . S
C366 H360 0.950 . S
C366 C367 1.327 . S
C367 H361 0.950 . S
C367 C366 1.327 . S
C367 C371 1.429 . S
C368 C351 1.574 . S
C368 H362 0.949 . S
C368 C372 1.368 . S
C369 C350 1.429 . S
C369 C363 1.429 . S
C369 C370 1.523 . S
C370 C351 1.368 . S
C370 C364 1.368 . S
C370 C369 1.523 . S
C371 C355 1.429 . S
C371 C367 1.429 . S
C371 C372 1.523 . S
C372 C356 1.368 . S
C372 C368 1.368 . S
C372 C371 1.523 . S
H373 C348 0.950 . S
H374 C350 0.950 . S
H375 C351 0.949 . S
H376 C353 0.950 . S
H377 C355 0.950 . S
C378 C379 1.349 . S
C378 C380 1.327 . S
C378 H403 0.950 . S
C379 C378 1.349 . S
C379 C395 1.349 . S
C380 C378 1.327 . S
C380 C399 1.429 . S
C380 H404 0.950 . S
C381 C398 1.574 1_655 S
C381 C400 1.368 . S
C381 H405 0.949 . S
H382 C386 0.949 . S
C383 C384 1.349 . S
C383 C385 1.327 . S
C383 H406 0.950 . S
C384 C383 1.349 . S
C384 C396 1.349 . S
C385 C383 1.327 . S
C385 C401 1.429 . S
C385 H407 0.950 . S
C386 H382 0.949 . S
C386 C394 1.574 1_455 S
C386 C402 1.368 . S
H387 C395 0.950 . S
H388 C393 0.950 . S
H389 C394 0.949 . S
H390 C396 0.950 . S
H391 C397 0.950 . S
H392 C398 0.949 . S
C393 H388 0.950 . S
C393 C395 1.327 . S
C393 C399 1.429 . S
C394 C386 1.574 1_655 S
C394 H389 0.949 . S
C394 C400 1.368 . S
C395 C379 1.349 . S
C395 H387 0.950 . S
C395 C393 1.327 . S
C396 C384 1.349 . S
C396 H390 0.950 . S
C396 C397 1.327 . S
C397 H391 0.950 . S
C397 C396 1.327 . S
C397 C401 1.429 . S
C398 C381 1.574 1_455 S
C398 H392 0.949 . S
C398 C402 1.368 . S
C399 C380 1.429 . S
C399 C393 1.429 . S
C399 C400 1.523 . S
C400 C381 1.368 . S
C400 C394 1.368 . S
C400 C399 1.523 . S
C401 C385 1.429 . S
C401 C397 1.429 . S
C401 C402 1.523 . S
C402 C386 1.368 . S
C402 C398 1.368 . S
C402 C401 1.523 . S
H403 C378 0.950 . S
H404 C380 0.950 . S
H405 C381 0.949 . S
H406 C383 0.950 . S
H407 C385 0.950 . S
C408 C409 1.349 . S
C408 C410 1.327 . S
C408 H433 0.950 . S
C409 C408 1.349 . S
C409 C425 1.349 1_554 S
C410 C408 1.327 . S
C410 C429 1.429 . S
C410 H434 0.950 . S
C411 C428 1.574 1_545 S
C411 C430 1.368 1_556 S
C411 H435 0.949 . S
H412 C416 0.949 . S
C413 C414 1.349 . S
C413 C415 1.327 . S
C413 H436 0.950 . S
C414 C413 1.349 . S
C414 C426 1.349 1_556 S
C415 C413 1.327 . S
C415 C431 1.429 . S
C415 H437 0.950 . S
C416 H412 0.949 . S
C416 C424 1.574 1_565 S
C416 C432 1.368 1_554 S
H417 C425 0.950 . S
H418 C423 0.950 . S
H419 C424 0.949 . S
H420 C426 0.950 . S
H421 C427 0.950 . S
H422 C428 0.949 . S
C423 H418 0.950 . S
C423 C425 1.327 . S
C423 C429 1.429 1_556 S
C424 C416 1.574 1_545 S
C424 H419 0.949 . S
C424 C430 1.368 . S
C425 C409 1.349 1_556 S
C425 H417 0.950 . S
C425 C423 1.327 . S
C426 C414 1.349 1_554 S
C426 H420 0.950 . S
C426 C427 1.327 . S
C427 H421 0.950 . S
C427 C426 1.327 . S
C427 C431 1.429 1_554 S
C428 C411 1.574 1_565 S
C428 H422 0.949 . S
C428 C432 1.368 . S
C429 C410 1.429 . S
C429 C423 1.429 1_554 S
C429 C430 1.523 . S
C430 C411 1.368 1_554 S
C430 C424 1.368 . S
C430 C429 1.523 . S
C431 C415 1.429 . S
C431 C427 1.429 1_556 S
C431 C432 1.523 . S
C432 C416 1.368 1_556 S
C432 C428 1.368 . S
C432 C431 1.523 . S
H433 C408 0.950 . S
H434 C410 0.950 . S
H435 C411 0.949 . S
H436 C413 0.950 . S
H437 C415 0.950 . S
C438 C439 1.349 . S
C438 C440 1.327 . S
C438 H463 0.950 . S
C439 C438 1.349 . S
C439 C455 1.349 . S
C440 C438 1.327 . S
C440 C459 1.429 . S
C440 H464 0.950 . S
C441 C458 1.574 . S
C441 C460 1.368 . S
C441 H465 0.949 . S
H442 C446 0.949 . S
C443 C444 1.349 . S
C443 C445 1.327 . S
C443 H466 0.950 . S
C444 C443 1.349 . S
C444 C456 1.349 . S
C445 C443 1.327 . S
C445 C461 1.429 . S
C445 H467 0.950 . S
C446 H442 0.949 . S
C446 C454 1.574 . S
C446 C462 1.368 . S
H447 C455 0.950 . S
H448 C453 0.950 . S
H449 C454 0.949 . S
H450 C456 0.950 . S
H451 C457 0.950 . S
H452 C458 0.949 . S
C453 H448 0.950 . S
C453 C455 1.327 . S
C453 C459 1.429 . S
C454 C446 1.574 . S
C454 H449 0.949 . S
C454 C460 1.368 . S
C455 C439 1.349 . S
C455 H447 0.950 . S
C455 C453 1.327 . S
C456 C444 1.349 . S
C456 H450 0.950 . S
C456 C457 1.327 . S
C457 H451 0.950 . S
C457 C456 1.327 . S
C457 C461 1.429 . S
C458 C441 1.574 . S
C458 H452 0.949 . S
C458 C462 1.368 . S
C459 C440 1.429 . S
C459 C453 1.429 . S
C459 C460 1.523 . S
C460 C441 1.368 . S
C460 C454 1.368 . S
C460 C459 1.523 . S
C461 C445 1.429 . S
C461 C457 1.429 . S
C461 C462 1.523 . S
C462 C446 1.368 . S
C462 C458 1.368 . S
C462 C461 1.523 . S
H463 C438 0.950 . S
H464 C440 0.950 . S
H465 C441 0.949 . S
H466 C443 0.950 . S
H467 C445 0.950 . S
C468 C469 1.349 . S
C468 C470 1.327 . S
C468 H493 0.950 . S
C469 C468 1.349 . S
C469 C485 1.349 . S
C470 C468 1.327 . S
C470 C489 1.429 . S
C470 H494 0.950 . S
C471 C488 1.574 1_455 S
C471 C490 1.368 . S
C471 H495 0.949 . S
H472 C476 0.949 . S
C473 C474 1.349 . S
C473 C475 1.327 . S
C473 H496 0.950 . S
C474 C473 1.349 . S
C474 C486 1.349 . S
C475 C473 1.327 . S
C475 C491 1.429 . S
C475 H497 0.950 . S
C476 H472 0.949 . S
C476 C484 1.574 1_655 S
C476 C492 1.368 . S
H477 C485 0.950 . S
H478 C483 0.950 . S
H479 C484 0.949 . S
H480 C486 0.950 . S
H481 C487 0.950 . S
H482 C488 0.949 . S
C483 H478 0.950 . S
C483 C485 1.327 . S
C483 C489 1.429 . S
C484 C476 1.574 1_455 S
C484 H479 0.949 . S
C484 C490 1.368 . S
C485 C469 1.349 . S
C485 H477 0.950 . S
C485 C483 1.327 . S
C486 C474 1.349 . S
C486 H480 0.950 . S
C486 C487 1.327 . S
C487 H481 0.950 . S
C487 C486 1.327 . S
C487 C491 1.429 . S
C488 C471 1.574 1_655 S
C488 H482 0.949 . S
C488 C492 1.368 . S
C489 C470 1.429 . S
C489 C483 1.429 . S
C489 C490 1.523 . S
C490 C471 1.368 . S
C490 C484 1.368 . S
C490 C489 1.523 . S
C491 C475 1.429 . S
C491 C487 1.429 . S
C491 C492 1.523 . S
C492 C476 1.368 . S
C492 C488 1.368 . S
C492 C491 1.523 . S
H493 C468 0.950 . S
H494 C470 0.950 . S
H495 C471 0.949 . S
H496 C473 0.950 . S
H497 C475 0.950 . S
C498 C499 1.349 . S
C498 C500 1.327 . S
C498 H523 0.950 . S
C499 C498 1.349 . S
C499 C515 1.349 1_556 S
C500 C498 1.327 . S
C500 C519 1.429 . S
C500 H524 0.950 . S
C501 C518 1.574 1_545 S
C501 C520 1.368 1_554 S
C501 H525 0.949 . S
H502 C506 0.949 . S
C503 C504 1.349 . S
C503 C505 1.327 . S
C503 H526 0.950 . S
C504 C503 1.349 . S
C504 C516 1.349 1_554 S
C505 C503 1.327 . S
C505 C521 1.429 . S
C505 H527 0.950 . S
C506 H502 0.949 . S
C506 C514 1.574 1_565 S
C506 C522 1.368 1_556 S
H507 C515 0.950 . S
H508 C513 0.950 . S
H509 C514 0.949 . S
H510 C516 0.950 . S
H511 C517 0.950 . S
H512 C518 0.949 . S
C513 H508 0.950 . S
C513 C515 1.327 . S
C513 C519 1.429 1_554 S
C514 C506 1.574 1_545 S
C514 H509 0.949 . S
C514 C520 1.368 . S
C515 C499 1.349 1_554 S
C515 H507 0.950 . S
C515 C513 1.327 . S
C516 C504 1.349 1_556 S
C516 H510 0.950 . S
C516 C517 1.327 . S
C517 H511 0.950 . S
C517 C516 1.327 . S
C517 C521 1.429 1_556 S
C518 C501 1.574 1_565 S
C518 H512 0.949 . S
C518 C522 1.368 . S
C519 C500 1.429 . S
C519 C513 1.429 1_556 S
C519 C520 1.523 . S
C520 C501 1.368 1_556 S
C520 C514 1.368 . S
C520 C519 1.523 . S
C521 C505 1.429 . S
C521 C517 1.429 1_554 S
C521 C522 1.523 . S
C522 C506 1.368 1_554 S
C522 C518 1.368 . S
C522 C521 1.523 . S
H523 C498 0.950 . S
H524 C500 0.950 . S
H525 C501 0.949 . S
H526 C503 0.950 . S
H527 C505 0.950 . S
C528 C529 1.349 . S
C528 C530 1.327 . S
C528 H553 0.950 . S
C529 C528 1.349 . S
C529 C545 1.349 . S
C530 C528 1.327 . S
C530 C549 1.429 . S
C530 H554 0.950 . S
C531 C548 1.574 . S
C531 C550 1.368 1_455 S
C531 H555 0.949 . S
H532 C536 0.949 . S
C533 C534 1.349 . S
C533 C535 1.327 . S
C533 H556 0.950 . S
C534 C533 1.349 . S
C534 C546 1.349 . S
C535 C533 1.327 . S
C535 C551 1.429 . S
C535 H557 0.950 . S
C536 H532 0.949 . S
C536 C544 1.574 . S
C536 C552 1.368 1_655 S
H537 C545 0.950 . S
H538 C543 0.950 1_455 S
H539 C544 0.949 . S
H540 C546 0.950 . S
H541 C547 0.950 1_655 S
H542 C548 0.949 . S
C543 H538 0.950 1_655 S
C543 C545 1.327 . S
C543 C549 1.429 . S
C544 C536 1.574 . S
C544 H539 0.949 . S
C544 C550 1.368 . S
C545 C529 1.349 . S
C545 H537 0.950 . S
C545 C543 1.327 . S
C546 C534 1.349 . S
C546 H540 0.950 . S
C546 C547 1.327 . S
C547 H541 0.950 1_455 S
C547 C546 1.327 . S
C547 C551 1.429 . S
C548 C531 1.574 . S
C548 H542 0.949 . S
C548 C552 1.368 . S
C549 C530 1.429 . S
C549 C543 1.429 . S
C549 C550 1.523 . S
C550 C531 1.368 1_655 S
C550 C544 1.368 . S
C550 C549 1.523 . S
C551 C535 1.429 . S
C551 C547 1.429 . S
C551 C552 1.523 . S
C552 C536 1.368 1_455 S
C552 C548 1.368 . S
C552 C551 1.523 . S
H553 C528 0.950 . S
H554 C530 0.950 . S
H555 C531 0.949 . S
H556 C533 0.950 . S
H557 C535 0.950 . S
C558 C559 1.349 . S
C558 C560 1.327 . S
C558 H583 0.950 . S
C559 C558 1.349 . S
C559 C575 1.349 . S
C560 C558 1.327 . S
C560 C579 1.429 . S
C560 H584 0.950 1_545 S
C561 C578 1.574 . S
C561 C580 1.368 . S
C561 H585 0.949 . S
H562 C566 0.949 . S
C563 C564 1.349 . S
C563 C565 1.327 . S
C563 H586 0.950 . S
C564 C563 1.349 . S
C564 C576 1.349 . S
C565 C563 1.327 . S
C565 C581 1.429 . S
C565 H587 0.950 1_565 S
C566 H562 0.949 . S
C566 C574 1.574 . S
C566 C582 1.368 . S
H567 C575 0.950 . S
H568 C573 0.950 . S
H569 C574 0.949 . S
H570 C576 0.950 . S
H571 C577 0.950 . S
H572 C578 0.949 . S
C573 H568 0.950 . S
C573 C575 1.327 . S
C573 C579 1.429 . S
C574 C566 1.574 . S
C574 H569 0.949 . S
C574 C580 1.368 1_565 S
C575 C559 1.349 . S
C575 H567 0.950 . S
C575 C573 1.327 . S
C576 C564 1.349 . S
C576 H570 0.950 . S
C576 C577 1.327 . S
C577 H571 0.950 . S
C577 C576 1.327 . S
C577 C581 1.429 . S
C578 C561 1.574 . S
C578 H572 0.949 . S
C578 C582 1.368 1_545 S
C579 C560 1.429 . S
C579 C573 1.429 . S
C579 C580 1.523 . S
C580 C561 1.368 . S
C580 C574 1.368 1_545 S
C580 C579 1.523 . S
C581 C565 1.429 . S
C581 C577 1.429 . S
C581 C582 1.523 . S
C582 C566 1.368 . S
C582 C578 1.368 1_565 S
C582 C581 1.523 . S
H583 C558 0.950 . S
H584 C560 0.950 1_565 S
H585 C561 0.949 . S
H586 C563 0.950 . S
H587 C565 0.950 1_545 S
C588 C589 1.349 . S
C588 C590 1.327 . S
C588 H613 0.950 . S
C589 C588 1.349 . S
C589 C605 1.349 . S
C590 C588 1.327 . S
C590 C609 1.429 . S
C590 H614 0.950 . S
C591 C608 1.574 . S
C591 C610 1.368 . S
C591 H615 0.949 . S
H592 C596 0.949 . S
C593 C594 1.349 . S
C593 C595 1.327 . S
C593 H616 0.950 . S
C594 C593 1.349 . S
C594 C606 1.349 . S
C595 C593 1.327 . S
C595 C611 1.429 . S
C595 H617 0.950 . S
C596 H592 0.949 . S
C596 C604 1.574 . S
C596 C612 1.368 . S
H597 C605 0.950 . S
H598 C603 0.950 . S
H599 C604 0.949 . S
H600 C606 0.950 . S
H601 C607 0.950 . S
H602 C608 0.949 . S
C603 H598 0.950 . S
C603 C605 1.327 . S
C603 C609 1.429 . S
C604 C596 1.574 . S
C604 H599 0.949 . S
C604 C610 1.368 . S
C605 C589 1.349 . S
C605 H597 0.950 . S
C605 C603 1.327 . S
C606 C594 1.349 . S
C606 H600 0.950 . S
C606 C607 1.327 . S
C607 H601 0.950 . S
C607 C606 1.327 . S
C607 C611 1.429 . S
C608 C591 1.574 . S
C608 H602 0.949 . S
C608 C612 1.368 . S
C609 C590 1.429 . S
C609 C603 1.429 . S
C609 C610 1.523 . S
C610 C591 1.368 . S
C610 C604 1.368 . S
C610 C609 1.523 . S
C611 C595 1.429 . S
C611 C607 1.429 . S
C611 C612 1.523 . S
C612 C596 1.368 . S
C612 C608 1.368 . S
C612 C611 1.523 . S
H613 C588 0.950 . S
H614 C590 0.950 . S
H615 C591 0.949 . S
H616 C593 0.950 . S
H617 C595 0.950 . S
C618 C619 1.349 . S
C618 C620 1.327 . S
C618 H643 0.950 . S
C619 C618 1.349 . S
C619 C635 1.349 . S
C620 C618 1.327 . S
C620 C639 1.429 . S
C620 H644 0.950 . S
C621 C638 1.574 1_455 S
C621 C640 1.368 . S
C621 H645 0.949 . S
H622 C626 0.949 . S
C623 C624 1.349 . S
C623 C625 1.327 . S
C623 H646 0.950 . S
C624 C623 1.349 . S
C624 C636 1.349 . S
C625 C623 1.327 . S
C625 C641 1.429 . S
C625 H647 0.950 . S
C626 H622 0.949 . S
C626 C634 1.574 1_655 S
C626 C642 1.368 . S
H627 C635 0.950 . S
H628 C633 0.950 . S
H629 C634 0.949 . S
H630 C636 0.950 . S
H631 C637 0.950 . S
H632 C638 0.949 . S
C633 H628 0.950 . S
C633 C635 1.327 . S
C633 C639 1.429 . S
C634 C626 1.574 1_455 S
C634 H629 0.949 . S
C634 C640 1.368 . S
C635 C619 1.349 . S
C635 H627 0.950 . S
C635 C633 1.327 . S
C636 C624 1.349 . S
C636 H630 0.950 . S
C636 C637 1.327 . S
C637 H631 0.950 . S
C637 C636 1.327 . S
C637 C641 1.429 . S
C638 C621 1.574 1_655 S
C638 H632 0.949 . S
C638 C642 1.368 . S
C639 C620 1.429 . S
C639 C633 1.429 . S
C639 C640 1.523 . S
C640 C621 1.368 . S
C640 C634 1.368 . S
C640 C639 1.523 . S
C641 C625 1.429 . S
C641 C637 1.429 . S
C641 C642 1.523 . S
C642 C626 1.368 . S
C642 C638 1.368 . S
C642 C641 1.523 . S
H643 C618 0.950 . S
H644 C620 0.950 . S
H645 C621 0.949 . S
H646 C623 0.950 . S
H647 C625 0.950 . S
C648 C649 1.349 . S
C648 C650 1.327 . S
C648 H673 0.950 . S
C649 C648 1.349 . S
C649 C665 1.349 . S
C650 C648 1.327 . S
C650 C669 1.429 . S
C650 H674 0.950 . S
C651 C668 1.574 . S
C651 C670 1.368 1_565 S
C651 H675 0.949 . S
H652 C656 0.949 . S
C653 C654 1.349 . S
C653 C655 1.327 . S
C653 H676 0.950 . S
C654 C653 1.349 . S
C654 C666 1.349 . S
C655 C653 1.327 . S
C655 C671 1.429 . S
C655 H677 0.950 . S
C656 H652 0.949 . S
C656 C664 1.574 . S
C656 C672 1.368 1_545 S
H657 C665 0.950 . S
H658 C663 0.950 1_565 S
H659 C664 0.949 . S
H660 C666 0.950 . S
H661 C667 0.950 1_545 S
H662 C668 0.949 . S
C663 H658 0.950 1_545 S
C663 C665 1.327 . S
C663 C669 1.429 . S
C664 C656 1.574 . S
C664 H659 0.949 . S
C664 C670 1.368 . S
C665 C649 1.349 . S
C665 H657 0.950 . S
C665 C663 1.327 . S
C666 C654 1.349 . S
C666 H660 0.950 . S
C666 C667 1.327 . S
C667 H661 0.950 1_565 S
C667 C666 1.327 . S
C667 C671 1.429 . S
C668 C651 1.574 . S
C668 H662 0.949 . S
C668 C672 1.368 . S
C669 C650 1.429 . S
C669 C663 1.429 . S
C669 C670 1.523 . S
C670 C651 1.368 1_545 S
C670 C664 1.368 . S
C670 C669 1.523 . S
C671 C655 1.429 . S
C671 C667 1.429 . S
C671 C672 1.523 . S
C672 C656 1.368 1_565 S
C672 C668 1.368 . S
C672 C671 1.523 . S
H673 C648 0.950 . S
H674 C650 0.950 . S
H675 C651 0.949 . S
H676 C653 0.950 . S
H677 C655 0.950 . S
C678 C679 1.349 . S
C678 C680 1.327 . S
C678 H703 0.950 . S
C679 C678 1.349 . S
C679 C695 1.349 . S
C680 C678 1.327 . S
C680 C699 1.429 . S
C680 H704 0.950 . S
C681 C698 1.574 . S
C681 C700 1.368 . S
C681 H705 0.949 . S
H682 C686 0.949 . S
C683 C684 1.349 . S
C683 C685 1.327 . S
C683 H706 0.950 . S
C684 C683 1.349 . S
C684 C696 1.349 . S
C685 C683 1.327 . S
C685 C701 1.429 . S
C685 H707 0.950 . S
C686 H682 0.949 . S
C686 C694 1.574 . S
C686 C702 1.368 . S
H687 C695 0.950 . S
H688 C693 0.950 . S
H689 C694 0.949 . S
H690 C696 0.950 . S
H691 C697 0.950 . S
H692 C698 0.949 . S
C693 H688 0.950 . S
C693 C695 1.327 . S
C693 C699 1.429 . S
C694 C686 1.574 . S
C694 H689 0.949 . S
C694 C700 1.368 . S
C695 C679 1.349 . S
C695 H687 0.950 . S
C695 C693 1.327 . S
C696 C684 1.349 . S
C696 H690 0.950 . S
C696 C697 1.327 . S
C697 H691 0.950 . S
C697 C696 1.327 . S
C697 C701 1.429 . S
C698 C681 1.574 . S
C698 H692 0.949 . S
C698 C702 1.368 . S
C699 C680 1.429 . S
C699 C693 1.429 . S
C699 C700 1.523 . S
C700 C681 1.368 . S
C700 C694 1.368 . S
C700 C699 1.523 . S
C701 C685 1.429 . S
C701 C697 1.429 . S
C701 C702 1.523 . S
C702 C686 1.368 . S
C702 C698 1.368 . S
C702 C701 1.523 . S
H703 C678 0.950 . S
H704 C680 0.950 . S
H705 C681 0.949 . S
H706 C683 0.950 . S
H707 C685 0.950 . S
C708 C709 1.349 . S
C708 C710 1.327 . S
C708 H733 0.950 . S
C709 C708 1.349 . S
C709 C725 1.349 . S
C710 C708 1.327 . S
C710 C729 1.429 . S
C710 H734 0.950 . S
C711 C728 1.574 . S
C711 C730 1.368 . S
C711 H735 0.949 . S
H712 C716 0.949 . S
C713 C714 1.349 . S
C713 C715 1.327 . S
C713 H736 0.950 . S
C714 C713 1.349 . S
C714 C726 1.349 . S
C715 C713 1.327 . S
C715 C731 1.429 . S
C715 H737 0.950 . S
C716 H712 0.949 . S
C716 C724 1.574 . S
C716 C732 1.368 . S
H717 C725 0.950 . S
H718 C723 0.950 . S
H719 C724 0.949 . S
H720 C726 0.950 . S
H721 C727 0.950 . S
H722 C728 0.949 . S
C723 H718 0.950 . S
C723 C725 1.327 . S
C723 C729 1.429 . S
C724 C716 1.574 . S
C724 H719 0.949 . S
C724 C730 1.368 . S
C725 C709 1.349 . S
C725 H717 0.950 . S
C725 C723 1.327 . S
C726 C714 1.349 . S
C726 H720 0.950 . S
C726 C727 1.327 . S
C727 H721 0.950 . S
C727 C726 1.327 . S
C727 C731 1.429 . S
C728 C711 1.574 . S
C728 H722 0.949 . S
C728 C732 1.368 . S
C729 C710 1.429 . S
C729 C723 1.429 . S
C729 C730 1.523 . S
C730 C711 1.368 . S
C730 C724 1.368 . S
C730 C729 1.523 . S
C731 C715 1.429 . S
C731 C727 1.429 . S
C731 C732 1.523 . S
C732 C716 1.368 . S
C732 C728 1.368 . S
C732 C731 1.523 . S
H733 C708 0.950 . S
H734 C710 0.950 . S
H735 C711 0.949 . S
H736 C713 0.950 . S
H737 C715 0.950 . S
C738 C739 1.349 . S
C738 C740 1.327 . S
C738 H763 0.950 . S
C739 C738 1.349 . S
C739 C755 1.349 . S
C740 C738 1.327 . S
C740 C759 1.429 . S
C740 H764 0.950 . S
C741 C758 1.574 . S
C741 C760 1.368 . S
C741 H765 0.949 . S
H742 C746 0.949 . S
C743 C744 1.349 . S
C743 C745 1.327 . S
C743 H766 0.950 . S
C744 C743 1.349 . S
C744 C756 1.349 . S
C745 C743 1.327 . S
C745 C761 1.429 . S
C745 H767 0.950 . S
C746 H742 0.949 . S
C746 C754 1.574 . S
C746 C762 1.368 . S
H747 C755 0.950 . S
H748 C753 0.950 . S
H749 C754 0.949 . S
H750 C756 0.950 . S
H751 C757 0.950 . S
H752 C758 0.949 . S
C753 H748 0.950 . S
C753 C755 1.327 . S
C753 C759 1.429 . S
C754 C746 1.574 . S
C754 H749 0.949 . S
C754 C760 1.368 . S
C755 C739 1.349 . S
C755 H747 0.950 . S
C755 C753 1.327 . S
C756 C744 1.349 . S
C756 H750 0.950 . S
C756 C757 1.327 . S
C757 H751 0.950 . S
C757 C756 1.327 . S
C757 C761 1.429 . S
C758 C741 1.574 . S
C758 H752 0.949 . S
C758 C762 1.368 . S
C759 C740 1.429 . S
C759 C753 1.429 . S
C759 C760 1.523 . S
C760 C741 1.368 . S
C760 C754 1.368 . S
C760 C759 1.523 . S
C761 C745 1.429 . S
C761 C757 1.429 . S
C761 C762 1.523 . S
C762 C746 1.368 . S
C762 C758 1.368 . S
C762 C761 1.523 . S
H763 C738 0.950 . S
H764 C740 0.950 . S
H765 C741 0.949 . S
H766 C743 0.950 . S
H767 C745 0.950 . S
C768 C769 1.349 . S
C768 C770 1.327 . S
C768 H793 0.950 . S
C769 C768 1.349 . S
C769 C785 1.349 . S
C770 C768 1.327 . S
C770 C789 1.429 . S
C770 H794 0.950 . S
C771 C788 1.574 . S
C771 C790 1.368 . S
C771 H795 0.949 . S
H772 C776 0.949 . S
C773 C774 1.349 . S
C773 C775 1.327 . S
C773 H796 0.950 . S
C774 C773 1.349 . S
C774 C786 1.349 . S
C775 C773 1.327 . S
C775 C791 1.429 . S
C775 H797 0.950 . S
C776 H772 0.949 . S
C776 C784 1.574 . S
C776 C792 1.368 . S
H777 C785 0.950 . S
H778 C783 0.950 . S
H779 C784 0.949 . S
H780 C786 0.950 . S
H781 C787 0.950 . S
H782 C788 0.949 . S
C783 H778 0.950 . S
C783 C785 1.327 . S
C783 C789 1.429 . S
C784 C776 1.574 . S
C784 H779 0.949 . S
C784 C790 1.368 . S
C785 C769 1.349 . S
C785 H777 0.950 . S
C785 C783 1.327 . S
C786 C774 1.349 . S
C786 H780 0.950 . S
C786 C787 1.327 . S
C787 H781 0.950 . S
C787 C786 1.327 . S
C787 C791 1.429 . S
C788 C771 1.574 . S
C788 H782 0.949 . S
C788 C792 1.368 . S
C789 C770 1.429 . S
C789 C783 1.429 . S
C789 C790 1.523 . S
C790 C771 1.368 . S
C790 C784 1.368 . S
C790 C789 1.523 . S
C791 C775 1.429 . S
C791 C787 1.429 . S
C791 C792 1.523 . S
C792 C776 1.368 . S
C792 C788 1.368 . S
C792 C791 1.523 . S
H793 C768 0.950 . S
H794 C770 0.950 . S
H795 C771 0.949 . S
H796 C773 0.950 . S
H797 C775 0.950 . S
C798 C799 1.349 . S
C798 C800 1.327 . S
C798 H823 0.950 . S
C799 C798 1.349 . S
C799 C815 1.349 . S
C800 C798 1.327 . S
C800 C819 1.429 . S
C800 H824 0.950 . S
C801 C818 1.574 . S
C801 C820 1.368 . S
C801 H825 0.949 . S
H802 C806 0.949 . S
C803 C804 1.349 . S
C803 C805 1.327 . S
C803 H826 0.950 . S
C804 C803 1.349 . S
C804 C816 1.349 . S
C805 C803 1.327 . S
C805 C821 1.429 . S
C805 H827 0.950 . S
C806 H802 0.949 . S
C806 C814 1.574 . S
C806 C822 1.368 . S
H807 C815 0.950 . S
H808 C813 0.950 . S
H809 C814 0.949 . S
H810 C816 0.950 . S
H811 C817 0.950 . S
H812 C818 0.949 . S
C813 H808 0.950 . S
C813 C815 1.327 . S
C813 C819 1.429 . S
C814 C806 1.574 . S
C814 H809 0.949 . S
C814 C820 1.368 . S
C815 C799 1.349 . S
C815 H807 0.950 . S
C815 C813 1.327 . S
C816 C804 1.349 . S
C816 H810 0.950 . S
C816 C817 1.327 . S
C817 H811 0.950 . S
C817 C816 1.327 . S
C817 C821 1.429 . S
C818 C801 1.574 . S
C818 H812 0.949 . S
C818 C822 1.368 . S
C819 C800 1.429 . S
C819 C813 1.429 . S
C819 C820 1.523 . S
C820 C801 1.368 . S
C820 C814 1.368 . S
C820 C819 1.523 . S
C821 C805 1.429 . S
C821 C817 1.429 . S
C821 C822 1.523 . S
C822 C806 1.368 . S
C822 C818 1.368 . S
C822 C821 1.523 . S
H823 C798 0.950 . S
H824 C800 0.950 . S
H825 C801 0.949 . S
H826 C803 0.950 . S
H827 C805 0.950 . S
C828 C829 1.349 . S
C828 C830 1.327 . S
C828 H853 0.950 . S
C829 C828 1.349 . S
C829 C845 1.349 . S
C830 C828 1.327 . S
C830 C849 1.429 . S
C830 H854 0.950 . S
C831 C848 1.574 . S
C831 C850 1.368 . S
C831 H855 0.949 . S
H832 C836 0.949 . S
C833 C834 1.349 . S
C833 C835 1.327 . S
C833 H856 0.950 . S
C834 C833 1.349 . S
C834 C846 1.349 . S
C835 C833 1.327 . S
C835 C851 1.429 . S
C835 H857 0.950 . S
C836 H832 0.949 . S
C836 C844 1.574 . S
C836 C852 1.368 . S
H837 C845 0.950 . S
H838 C843 0.950 . S
H839 C844 0.949 . S
H840 C846 0.950 . S
H841 C847 0.950 . S
H842 C848 0.949 . S
C843 H838 0.950 . S
C843 C845 1.327 . S
C843 C849 1.429 . S
C844 C836 1.574 . S
C844 H839 0.949 . S
C844 C850 1.368 . S
C845 C829 1.349 . S
C845 H837 0.950 . S
C845 C843 1.327 . S
C846 C834 1.349 . S
C846 H840 0.950 . S
C846 C847 1.327 . S
C847 H841 0.950 . S
C847 C846 1.327 . S
C847 C851 1.429 . S
C848 C831 1.574 . S
C848 H842 0.949 . S
C848 C852 1.368 . S
C849 C830 1.429 . S
C849 C843 1.429 . S
C849 C850 1.523 . S
C850 C831 1.368 . S
C850 C844 1.368 . S
C850 C849 1.523 . S
C851 C835 1.429 . S
C851 C847 1.429 . S
C851 C852 1.523 . S
C852 C836 1.368 . S
C852 C848 1.368 . S
C852 C851 1.523 . S
H853 C828 0.950 . S
H854 C830 0.950 . S
H855 C831 0.949 . S
H856 C833 0.950 . S
H857 C835 0.950 . S
C858 C859 1.349 . S
C858 C860 1.327 . S
C858 H883 0.950 . S
C859 C858 1.349 . S
C859 C875 1.349 . S
C860 C858 1.327 . S
C860 C879 1.429 . S
C860 H884 0.950 . S
C861 C878 1.574 . S
C861 C880 1.368 . S
C861 H885 0.949 . S
H862 C866 0.949 . S
C863 C864 1.349 . S
C863 C865 1.327 . S
C863 H886 0.950 . S
C864 C863 1.349 . S
C864 C876 1.349 . S
C865 C863 1.327 . S
C865 C881 1.429 . S
C865 H887 0.950 . S
C866 H862 0.949 . S
C866 C874 1.574 . S
C866 C882 1.368 . S
H867 C875 0.950 . S
H868 C873 0.950 . S
H869 C874 0.949 . S
H870 C876 0.950 . S
H871 C877 0.950 . S
H872 C878 0.949 . S
C873 H868 0.950 . S
C873 C875 1.327 . S
C873 C879 1.429 . S
C874 C866 1.574 . S
C874 H869 0.949 . S
C874 C880 1.368 . S
C875 C859 1.349 . S
C875 H867 0.950 . S
C875 C873 1.327 . S
C876 C864 1.349 . S
C876 H870 0.950 . S
C876 C877 1.327 . S
C877 H871 0.950 . S
C877 C876 1.327 . S
C877 C881 1.429 . S
C878 C861 1.574 . S
C878 H872 0.949 . S
C878 C882 1.368 . S
C879 C860 1.429 . S
C879 C873 1.429 . S
C879 C880 1.523 . S
C880 C861 1.368 . S
C880 C874 1.368 . S
C880 C879 1.523 . S
C881 C865 1.429 . S
C881 C877 1.429 . S
C881 C882 1.523 . S
C882 C866 1.368 . S
C882 C878 1.368 . S
C882 C881 1.523 . S
H883 C858 0.950 . S
H884 C860 0.950 . S
H885 C861 0.949 . S
H886 C863 0.950 . S
H887 C865 0.950 . S
C169 C0 1.497 . S
C174 C84 1.503 . S
C199 C14 1.503 . S
C204 C98 1.497 . S
C229 C28 1.393 . S
C234 C112 1.392 . S
C259 C126 1.503 . S
C264 C42 1.497 . S
C289 C56 1.503 . S
C294 C140 1.497 . S
C319 C154 1.393 . S
C324 C70 1.392 . S
C349 C9 0.965 . S
C354 C135 0.965 . S
C379 C23 0.965 . S
C384 C149 0.965 . S
C409 C163 0.895 . S
C414 C37 0.895 . S
C439 C93 0.965 . S
C444 C51 0.965 . S
C469 C65 0.965 . S
C474 C107 0.965 . S
C499 C79 0.895 . S
C504 C121 0.895 . S
C529 C165 1.723 . S
C534 C11 1.715 . S
C559 C25 1.925 . S
C564 C95 1.925 . S
C589 C39 1.723 . S
C594 C109 1.715 . S
C619 C123 1.723 . S
C624 C53 1.715 . S
C649 C137 1.925 . S
C654 C67 1.925 . S
C679 C81 1.723 . S
C684 C151 1.715 . S
C709 C5 0.678 . S
C714 C145 0.678 . S
C739 C159 0.836 . S
C744 C19 0.841 . S
C769 C89 0.836 . S
C774 C33 0.841 . S
C799 C47 0.678 . S
C804 C103 0.678 . S
C829 C117 0.836 . S
C834 C61 0.841 . S
C859 C131 0.836 . S
C864 C75 0.841 . S
