# Generated by pormake.
# Topology vby, (6)-cn, num edge types: 1
# Building blocks:
#     Node 0, Type 0, BuildingBlock: BETGAK_clean_sbu_0, # of connection points: 6
#     Node 1, Type 0, BuildingBlock: BETGAK_clean_sbu_0, # of connection points: 6
#     Node 2, Type 0, BuildingBlock: BETGAK_clean_sbu_0, # of connection points: 6
#     Node 3, Type 0, BuildingBlock: BETGAK_clean_sbu_0, # of connection points: 6
#     Node 4, Type 0, BuildingBlock: BETGAK_clean_sbu_0, # of connection points: 6
#     Node 5, Type 0, BuildingBlock: BETGAK_clean_sbu_0, # of connection points: 6
#     Node 6, Type 0, BuildingBlock: BETGAK_clean_sbu_0, # of connection points: 6
#     Node 7, Type 0, BuildingBlock: BETGAK_clean_sbu_0, # of connection points: 6
#     Edge 8, Type (0, 0), BuildingBlock: XUDNAN_clean_linker_2, # of connection points: 2
#     Edge 9, Type (0, 0), BuildingBlock: XUDNAN_clean_linker_2, # of connection points: 2
#     Edge 10, Type (0, 0), BuildingBlock: XUDNAN_clean_linker_2, # of connection points: 2
#     Edge 11, Type (0, 0), BuildingBlock: XUDNAN_clean_linker_2, # of connection points: 2
#     Edge 12, Type (0, 0), BuildingBlock: XUDNAN_clean_linker_2, # of connection points: 2
#     Edge 13, Type (0, 0), BuildingBlock: XUDNAN_clean_linker_2, # of connection points: 2
#     Edge 14, Type (0, 0), BuildingBlock: XUDNAN_clean_linker_2, # of connection points: 2
#     Edge 15, Type (0, 0), BuildingBlock: XUDNAN_clean_linker_2, # of connection points: 2
#     Edge 16, Type (0, 0), BuildingBlock: XUDNAN_clean_linker_2, # of connection points: 2
#     Edge 17, Type (0, 0), BuildingBlock: XUDNAN_clean_linker_2, # of connection points: 2
#     Edge 18, Type (0, 0), BuildingBlock: XUDNAN_clean_linker_2, # of connection points: 2
#     Edge 19, Type (0, 0), BuildingBlock: XUDNAN_clean_linker_2, # of connection points: 2
#     Edge 20, Type (0, 0), BuildingBlock: XUDNAN_clean_linker_2, # of connection points: 2
#     Edge 21, Type (0, 0), BuildingBlock: XUDNAN_clean_linker_2, # of connection points: 2
#     Edge 22, Type (0, 0), BuildingBlock: XUDNAN_clean_linker_2, # of connection points: 2
#     Edge 23, Type (0, 0), BuildingBlock: XUDNAN_clean_linker_2, # of connection points: 2
#     Edge 24, Type (0, 0), BuildingBlock: XUDNAN_clean_linker_2, # of connection points: 2
#     Edge 25, Type (0, 0), BuildingBlock: XUDNAN_clean_linker_2, # of connection points: 2
#     Edge 26, Type (0, 0), BuildingBlock: XUDNAN_clean_linker_2, # of connection points: 2
#     Edge 27, Type (0, 0), BuildingBlock: XUDNAN_clean_linker_2, # of connection points: 2
#     Edge 28, Type (0, 0), BuildingBlock: XUDNAN_clean_linker_2, # of connection points: 2
#     Edge 29, Type (0, 0), BuildingBlock: XUDNAN_clean_linker_2, # of connection points: 2
#     Edge 30, Type (0, 0), BuildingBlock: XUDNAN_clean_linker_2, # of connection points: 2
#     Edge 31, Type (0, 0), BuildingBlock: XUDNAN_clean_linker_2, # of connection points: 2
# Relax obj value: 0.195
# Max RMSD: 0.212
# Mean RMSD: 0.212
data_MOF--net-vby--node1-BETGAK_clean_sbu_0--edge1-XUDNAN_clean_linker_2
_symmetry_space_group_name_H-M    P1
_symmetry_Int_Tables_number       1
_symmetry_cell_setting            triclinic
loop_
_symmetry_equiv_pos_as_xyz
'x, y, z'
_cell_length_a     15.424643
_cell_length_b     103.10445
_cell_length_c     29.182704
_cell_angle_alpha  89.956778
_cell_angle_beta   85.666172
_cell_angle_gamma 89.713975
loop_
_atom_site_label
_atom_site_type_symbol
_atom_site_fract_x
_atom_site_fract_y
_atom_site_fract_z
_atom_type_partial_charge
La0 La 0.07828 0.41347 0.02788 0.0
La1 La 0.07788 0.38464 0.02164 0.0
C2 C 0.06625 0.43762 0.0212 0.0
C3 C 0.05904 0.45191 0.01736 0.0
C4 C 1.0249 0.45942 0.05476 0.0
C5 C 1.0189 0.47295 0.05101 0.0
C6 C 0.0465 0.47923 1.00968 0.0
C7 C 0.08204 0.47167 0.97265 0.0
C8 C 0.08817 0.45819 0.97644 0.0
C9 C 0.10348 0.40143 0.10664 0.0
C10 C 0.89627 0.39965 0.02612 0.0
C11 C 0.06614 0.3604 0.03462 0.0
C12 C 0.11688 0.34805 0.03124 0.0
C13 C 0.10766 0.3393 0.99489 0.0
C14 C 0.14174 0.32664 0.9964 0.0
C15 C 0.1848 0.32242 0.03459 0.0
C16 C 0.19875 0.33146 0.06937 0.0
C17 C 0.16509 0.34405 0.06783 0.0
C18 C 0.09987 0.39679 0.94085 0.0
C19 C 0.25578 0.39924 0.01704 0.0
O20 O 1.03043 0.43113 0.05623 0.0
O21 O 0.10716 0.43041 0.98934 0.0
O22 O 0.14016 0.4121 0.09265 0.0
O23 O 0.05242 0.39807 0.07706 0.0
O24 O 0.94097 0.41053 0.02356 0.0
O25 O 0.9355 0.38816 0.02763 0.0
O26 O 0.04605 0.36614 0.99677 0.0
O27 O 0.08614 0.36877 0.0658 0.0
O28 O 0.13925 0.38616 0.95128 0.0
O29 O 0.05042 0.40005 0.97523 0.0
O30 O 0.21544 0.38856 0.03202 0.0
O31 O 0.21139 0.40936 1.00386 0.0
H32 H 1.00261 0.45485 0.08692 0.0
H33 H 0.99079 0.47846 0.08009 0.0
H34 H 0.10541 0.47618 0.94057 0.0
H35 H 0.11551 0.45268 0.94717 0.0
H36 H 0.07043 0.34202 0.96634 0.0
H37 H 0.12976 0.31994 0.96905 0.0
H38 H 0.23304 0.32862 0.09888 0.0
H39 H 0.17353 0.35045 0.09655 0.0
La40 La 1.0045 0.66933 0.02472 0.0
La41 La 0.9985 0.64091 0.01958 0.0
C42 C 0.99623 0.69369 0.01296 0.0
C43 C 0.94053 0.70553 0.01316 0.0
C44 C 0.92807 0.71336 0.05268 0.0
C45 C 0.88747 0.72556 0.05075 0.0
C46 C 0.85881 0.73028 1.00916 0.0
C47 C 0.87059 0.72232 0.96989 0.0
C48 C 0.91069 0.71015 0.97188 0.0
C49 C 1.0235 0.65787 0.10463 0.0
C50 C 0.81971 0.65525 0.02757 0.0
C51 C 1.0141 0.61667 0.02324 0.0
C52 C 1.02527 0.60238 0.02268 0.0
C53 C 0.06197 0.59631 0.98268 0.0
C54 C 0.06402 0.58282 0.9791 0.0
C55 C 1.02912 0.575 0.01533 0.0
C56 C 0.99623 0.58102 0.05636 0.0
C57 C 0.99407 0.59461 0.05995 0.0
C58 C 0.98914 0.65296 0.93934 0.0
C59 C 0.18033 0.6552 0.0198 0.0
O60 O 1.00891 0.68816 0.0522 0.0
O61 O 0.99054 0.68515 0.98011 0.0
O62 O 0.06162 0.66839 0.09013 0.0
O63 O 0.97167 0.65427 0.0754 0.0
O64 O 0.86521 0.66607 0.02217 0.0
O65 O 0.85799 0.64382 0.03093 0.0
O66 O 0.04371 0.62372 0.98838 0.0
O67 O 0.97691 0.62336 0.05753 0.0
O68 O 0.94404 0.64292 0.95267 0.0
O69 O 1.03738 0.65584 0.97076 0.0
O70 O 0.13587 0.6447 0.03297 0.0
O71 O 0.14001 0.6656 1.00575 0.0
H72 H 0.95179 0.71023 0.08491 0.0
H73 H 0.87897 0.7313 0.08183 0.0
H74 H 0.85138 0.72565 0.93694 0.0
H75 H 0.92109 0.70457 0.94051 0.0
H76 H 0.08697 0.60197 0.95337 0.0
H77 H 0.09147 0.57852 0.94737 0.0
H78 H 0.96881 0.57526 0.08487 0.0
H79 H 0.9655 0.59903 0.09123 0.0
La80 La 0.0754 0.66815 0.51968 0.0
La81 La 0.07492 0.63931 0.52237 0.0
C82 C 0.08715 0.69241 0.53186 0.0
C83 C 0.14089 0.70436 0.53249 0.0
C84 C 0.14384 0.71298 0.49492 0.0
C85 C 0.17638 0.72559 0.49877 0.0
C86 C 0.2064 0.72993 0.54042 0.0
C87 C 0.20874 0.72099 0.5769 0.0
C88 C 0.17587 0.70842 0.57312 0.0
C89 C 0.05508 0.65712 0.43924 0.0
C90 C 0.25649 0.65231 0.51831 0.0
C91 C 0.0456 0.61552 0.5093 0.0
C92 C 0.06558 0.6017 0.51779 0.0
C93 C 0.07472 0.59688 0.5622 0.0
C94 C 0.07604 0.58346 0.5702 0.0
C95 C 0.06718 0.57456 0.53412 0.0
C96 C 0.06284 0.57948 0.48935 0.0
C97 C 0.06212 0.59288 0.48137 0.0
C98 C 0.09011 0.65059 0.60307 0.0
C99 C 0.89691 0.65456 0.52294 0.0
O100 O 0.07671 0.68699 0.49226 0.0
O101 O 0.09025 0.68384 0.56489 0.0
O102 O 1.02022 0.66794 0.45344 0.0
O103 O 0.10515 0.65313 0.46874 0.0
O104 O 0.21582 0.6637 0.52341 0.0
O105 O 0.21386 0.64142 0.51256 0.0
O106 O 1.00938 0.62233 0.54342 0.0
O107 O 0.09952 0.62238 0.48242 0.0
O108 O 0.12487 0.63956 0.59061 0.0
O109 O 1.042 0.65427 0.57237 0.0
O110 O 0.94261 0.64442 0.50757 0.0
O111 O 0.93607 0.66507 0.53683 0.0
H112 H 0.11634 0.71025 0.46326 0.0
H113 H 0.17303 0.73215 0.46996 0.0
H114 H 0.23327 0.72383 0.60919 0.0
H115 H 0.17411 0.70211 0.60286 0.0
H116 H 0.07743 0.60345 0.591 0.0
H117 H 0.08167 0.58008 0.60499 0.0
H118 H 0.0552 0.57304 0.46069 0.0
H119 H 0.05414 0.59636 0.44689 0.0
La120 La 1.01301 0.41262 0.5252 0.0
La121 La 1.02141 0.38408 0.52764 0.0
C122 C 1.02639 0.43678 0.53417 0.0
C123 C 1.03414 0.45106 0.53797 0.0
C124 C 1.03477 0.45897 0.49864 0.0
C125 C 1.03591 0.47253 0.5025 0.0
C126 C 1.03719 0.47852 0.54582 0.0
C127 C 1.04007 0.47049 0.58487 0.0
C128 C 1.03775 0.45696 0.58102 0.0
C129 C 1.00229 0.40132 0.44407 0.0
C130 C 0.19584 0.39821 0.5203 0.0
C131 C 1.01319 0.35985 0.51347 0.0
C132 C 0.96276 0.34772 0.52029 0.0
C133 C 0.91284 0.34494 0.56133 0.0
C134 C 0.87715 0.33253 0.56887 0.0
C135 C 0.89151 0.32258 0.53581 0.0
C136 C 0.93846 0.32569 0.49401 0.0
C137 C 0.97328 0.33809 0.4864 0.0
C138 C 1.03666 0.39513 0.6086 0.0
C139 C 0.83531 0.39817 0.53203 0.0
O140 O 0.04579 0.43069 0.49551 0.0
O141 O 1.00099 0.42917 0.56855 0.0
O142 O 0.95993 0.4116 0.45809 0.0
O143 O 0.05141 0.39794 0.47469 0.0
O144 O 0.15175 0.40859 0.53574 0.0
O145 O 0.15455 0.38817 0.50472 0.0
O146 O 0.04525 0.36505 0.5493 0.0
O147 O 0.98626 0.36862 0.48537 0.0
O148 O 0.07729 0.3848 0.59378 0.0
O149 O 0.98503 0.39867 0.57918 0.0
O150 O 0.88198 0.3874 0.52678 0.0
O151 O 0.87242 0.40962 0.53605 0.0
H152 H 1.0319 0.45469 0.4649 0.0
H153 H 1.03296 0.47829 0.47162 0.0
H154 H 0.04369 0.47464 0.61873 0.0
H155 H 1.03827 0.45112 0.61187 0.0
H156 H 0.90351 0.35221 0.58805 0.0
H157 H 0.83961 0.3307 0.60105 0.0
H158 H 0.95215 0.3184 0.46777 0.0
H159 H 1.01196 0.33999 0.45457 0.0
La160 La 0.56534 0.9142 0.02357 0.0
La161 La 0.57085 0.88499 0.02272 0.0
C162 C 0.53816 0.93787 1.00778 0.0
C163 C 0.55904 0.95161 0.01623 0.0
C164 C 0.56772 0.95637 0.06075 0.0
C165 C 0.56866 0.96976 0.06893 0.0
C166 C 0.56008 0.9787 0.0329 0.0
C167 C 0.55637 0.97385 0.98803 0.0
C168 C 0.55589 0.96047 0.97987 0.0
C169 C 0.58406 0.90366 0.10553 0.0
C170 C 0.38744 0.89869 0.02809 0.0
C171 C 0.56256 0.86083 0.03719 0.0
C172 C 0.60802 0.84826 0.02742 0.0
C173 C 0.61554 0.84286 0.98309 0.0
C174 C 0.64586 0.83011 0.97614 0.0
C175 C 0.66867 0.82239 0.01334 0.0
C176 C 0.66561 0.82808 0.05724 0.0
C177 C 0.63548 0.84084 0.06415 0.0
C178 C 0.59466 0.89645 0.94027 0.0
C179 C 0.74574 0.89999 0.02508 0.0
O180 O 0.49961 0.93136 0.04203 0.0
O181 O 0.59287 0.93071 0.98189 0.0
O182 O 0.61542 0.91474 0.09174 0.0
O183 O 0.53888 0.89932 0.07467 0.0
O184 O 0.42686 0.90982 0.01807 0.0
O185 O 0.43188 0.88802 0.03575 0.0
O186 O 0.52632 0.8667 1.00357 0.0
O187 O 0.59876 0.86902 0.06416 0.0
O188 O 0.63376 0.88595 0.95209 0.0
O189 O 0.544 0.89972 0.9739 0.0
O190 O 0.70072 0.88968 0.03876 0.0
O191 O 0.70667 0.91046 1.00947 0.0
H192 H 0.57007 0.94976 0.08952 0.0
H193 H 0.57369 0.97309 0.1038 0.0
H194 H 0.54895 0.98035 0.95942 0.0
H195 H 0.54815 0.95704 0.94533 0.0
H196 H 0.59532 0.84829 0.95393 0.0
H197 H 0.64926 0.8262 0.94162 0.0
H198 H 0.68211 0.82248 0.08678 0.0
H199 H 0.63003 0.84472 0.09875 0.0
La200 La 0.51175 0.16911 0.02379 0.0
La201 La 0.50617 0.14053 0.02318 0.0
C202 C 0.49929 0.19307 1.00545 0.0
C203 C 0.44962 0.20525 0.01612 0.0
C204 C 0.4504 0.21133 0.0592 0.0
C205 C 0.41369 0.22369 0.06646 0.0
C206 C 0.37478 0.23034 0.03096 0.0
C207 C 0.37251 0.22409 0.98817 0.0
C208 C 0.40966 0.21174 0.98087 0.0
C209 C 0.52574 0.1588 0.10619 0.0
C210 C 0.32725 0.15489 0.02781 0.0
C211 C 0.52042 0.11639 0.03226 0.0
C212 C 0.52873 0.10212 0.03629 0.0
C213 C 0.53048 0.0942 0.99703 0.0
C214 C 0.5312 0.08064 1.0011 0.0
C215 C 0.53099 0.07469 0.04456 0.0
C216 C 0.53279 0.08273 0.08359 0.0
C217 C 0.53082 0.09625 0.07953 0.0
C218 C 0.49597 0.15168 0.94138 0.0
C219 C 0.68701 0.15494 0.01713 0.0
O220 O 0.5466 0.18832 0.03688 0.0
O221 O 0.46211 0.18392 0.98293 0.0
O222 O 0.56035 0.16956 0.09162 0.0
O223 O 0.4771 0.15466 0.07635 0.0
O224 O 0.37302 0.16567 0.02289 0.0
O225 O 0.36507 0.14349 0.03305 0.0
O226 O 0.54355 0.12251 0.99412 0.0
O227 O 0.4911 0.12395 0.06604 0.0
O228 O 0.45215 0.14164 0.95593 0.0
O229 O 0.54451 0.15497 0.97212 0.0
O230 O 0.64415 0.14475 0.03468 0.0
O231 O 0.64385 0.16463 0.99995 0.0
H232 H 0.48158 0.20672 0.08703 0.0
H233 H 0.41832 0.22818 0.0997 0.0
H234 H 0.34222 0.22874 0.96015 0.0
H235 H 0.40899 0.20738 0.94713 0.0
H236 H 0.52858 0.09847 0.96319 0.0
H237 H 0.52903 0.07487 0.97023 0.0
H238 H 0.5352 0.0786 0.11758 0.0
H239 H 0.53029 0.10212 0.11033 0.0
La240 La 0.58658 0.16824 0.51992 0.0
La241 La 0.59225 0.13789 0.52044 0.0
C242 C 0.59266 0.19263 0.52685 0.0
C243 C 0.63852 0.20509 0.53192 0.0
C244 C 0.61932 0.21529 0.5024 0.0
C245 C 0.65418 0.22765 0.50757 0.0
C246 C 0.71035 0.23019 0.5423 0.0
C247 C 0.73208 0.21975 0.5709 0.0
C248 C 0.69607 0.20735 0.56599 0.0
C249 C 0.56306 0.15653 0.44065 0.0
C250 C 0.76898 0.15354 0.51529 0.0
C251 C 0.60302 0.11442 0.49564 0.0
C252 C 0.57961 0.1009 0.50824 0.0
C253 C 0.58082 0.0963 0.5535 0.0
C254 C 0.56799 0.08308 0.5632 0.0
C255 C 0.55366 0.07418 0.52787 0.0
C256 C 0.55096 0.07893 0.48278 0.0
C257 C 0.56382 0.09212 0.47316 0.0
C258 C 0.5742 0.1473 0.60622 0.0
C259 C 0.41077 0.15276 0.52405 0.0
O260 O 0.60932 0.18627 0.48841 0.0
O261 O 0.57518 0.18493 0.56231 0.0
O262 O 0.52688 0.16724 0.45501 0.0
O263 O 0.61534 0.15291 0.46966 0.0
O264 O 0.72688 0.16456 0.52551 0.0
O265 O 0.72781 0.14272 0.50642 0.0
O266 O 0.65956 0.1202 0.51995 0.0
O267 O 0.54102 0.1223 0.48435 0.0
O268 O 0.57332 0.13508 0.59602 0.0
O269 O 0.58272 0.1532 0.56863 0.0
O270 O 0.45674 0.14224 0.51194 0.0
O271 O 0.44794 0.16373 0.53639 0.0
H272 H 0.57488 0.21379 0.47586 0.0
H273 H 0.6342 0.2353 0.48518 0.0
H274 H 0.77659 0.22112 0.5974 0.0
H275 H 0.71242 0.19963 0.58903 0.0
H276 H 0.59358 0.10285 0.58118 0.0
H277 H 0.57148 0.07981 0.59827 0.0
H278 H 0.53869 0.07246 0.45481 0.0
H279 H 0.56314 0.09544 0.43794 0.0
La280 La 0.50877 0.91221 0.52481 0.0
La281 La 0.5166 0.88367 0.526 0.0
C282 C 0.52171 0.93636 0.53428 0.0
C283 C 0.52921 0.95066 0.53791 0.0
C284 C 0.53189 0.95849 0.49831 0.0
C285 C 0.53222 0.97206 0.50181 0.0
C286 C 0.53064 0.97816 0.54504 0.0
C287 C 0.5314 0.97022 0.58445 0.0
C288 C 0.52986 0.95667 0.58094 0.0
C289 C 0.49591 0.90107 0.44323 0.0
C290 C 0.69083 0.89786 0.5172 0.0
C291 C 0.50678 0.85954 0.51015 0.0
C292 C 0.45781 0.84739 0.52096 0.0
C293 C 0.45675 0.84154 0.56454 0.0
C294 C 0.42109 0.82917 0.57206 0.0
C295 C 0.38523 0.82229 0.5363 0.0
C296 C 0.38473 0.82831 0.49298 0.0
C297 C 0.42076 0.84066 0.48544 0.0
C298 C 0.53085 0.89436 0.60774 0.0
C299 C 0.33094 0.89787 0.52939 0.0
O300 O 0.54402 0.93026 0.49597 0.0
O301 O 0.49413 0.92875 0.56828 0.0
O302 O 0.45542 0.91148 0.45752 0.0
O303 O 0.54567 0.89765 0.47345 0.0
O304 O 0.64752 0.90801 0.53518 0.0
O305 O 0.64787 0.88811 0.50071 0.0
O306 O 0.55137 0.86457 0.54202 0.0
O307 O 0.47042 0.86847 0.48605 0.0
O308 O 0.57015 0.88393 0.59285 0.0
O309 O 0.48013 0.89809 0.57818 0.0
O310 O 0.37734 0.88706 0.52481 0.0
O311 O 0.36798 0.90926 0.5347 0.0
H312 H 0.53116 0.95412 0.46457 0.0
H313 H 0.53086 0.97773 0.47064 0.0
H314 H 0.53275 0.97444 0.61832 0.0
H315 H 0.52857 0.9509 0.61202 0.0
H316 H 0.48576 0.84634 0.59259 0.0
H317 H 0.42422 0.82486 0.60573 0.0
H318 H 0.35675 0.82347 0.46473 0.0
H319 H 0.42161 0.84484 0.45133 0.0
H320 H 0.38602 0.38037 0.02524 0.0
H321 H 0.34299 0.42189 1.01122 0.0
H322 H 0.49847 0.42569 0.01256 0.0
H323 H 0.56149 0.3828 0.10172 0.0
H324 H 0.6252 0.36969 0.07557 0.0
H325 H 0.5086 0.36971 0.07401 0.0
H326 H 0.52544 0.36781 0.98531 0.0
H327 H 0.64208 0.36781 0.98669 0.0
H328 H 0.58964 0.37961 0.95238 0.0
H329 H 0.65299 0.42577 0.01569 0.0
H330 H 0.80786 0.4222 0.01913 0.0
H331 H 0.76563 0.38052 0.02985 0.0
C332 C 0.40966 0.39023 0.02246 0.0
C333 C 0.3515 0.4008 0.0178 0.0
C334 C 0.38528 0.41356 0.01426 0.0
C335 C 0.47396 0.41588 0.01517 0.0
C336 C 0.52927 0.40537 0.01945 0.0
C337 C 0.49954 0.39278 0.02289 0.0
C338 C 0.57586 0.38343 0.02647 0.0
C339 C 0.56724 0.37596 0.07217 0.0
C340 C 0.58371 0.37411 0.98525 0.0
C341 C 0.6521 0.39284 0.02489 0.0
C342 C 0.62229 0.40541 0.02085 0.0
C343 C 0.6775 0.41598 0.0188 0.0
C344 C 0.76611 0.41377 0.02086 0.0
C345 C 0.80024 0.40103 0.02485 0.0
C346 C 0.74201 0.39037 0.02687 0.0
H347 H 0.31342 0.63664 1.00778 0.0
H348 H 0.25968 0.67678 0.04552 0.0
H349 H 0.4146 0.68039 0.05363 0.0
H350 H 0.48934 0.63122 0.0832 0.0
H351 H 0.55549 0.62177 0.04189 0.0
H352 H 0.43885 0.62182 0.04055 0.0
H353 H 0.45392 0.62914 0.95555 0.0
H354 H 0.57059 0.6291 0.95658 0.0
H355 H 0.51484 0.64356 0.93989 0.0
H356 H 0.57094 0.68037 0.05619 0.0
H357 H 0.72822 0.67686 0.05214 0.0
H358 H 0.69238 0.63677 1.01169 0.0
C359 C 0.33467 0.64611 0.01823 0.0
C360 C 0.27435 0.65645 0.02604 0.0
C361 C 0.30453 0.66876 0.03902 0.0
C362 C 0.39252 0.67091 0.04392 0.0
C363 C 0.45047 0.66068 0.03545 0.0
C364 C 0.42371 0.64853 0.02271 0.0
C365 C 0.50209 0.63954 0.0139 0.0
C366 C 0.49607 0.6279 0.04687 0.0
C367 C 0.51087 0.63507 0.96349 0.0
C368 C 0.5762 0.64858 0.02435 0.0
C369 C 0.5438 0.6607 0.03657 0.0
C370 C 0.59743 0.67092 0.04678 0.0
C371 C 0.68706 0.66881 0.04422 0.0
C372 C 0.72328 0.65655 0.03159 0.0
C373 C 0.66676 0.64622 0.02188 0.0
H374 H 0.76529 0.67276 0.50974 0.0
H375 H 0.81224 0.63266 0.54669 0.0
H376 H 0.65576 0.62838 0.55045 0.0
H377 H 0.56057 0.67699 0.58098 0.0
H378 H 0.50849 0.68645 0.53883 0.0
H379 H 0.62501 0.68688 0.54055 0.0
H380 H 0.64344 0.68009 0.45505 0.0
H381 H 0.52701 0.6796 0.45302 0.0
H382 H 0.59184 0.66551 0.4369 0.0
H383 H 0.4992 0.62769 0.54772 0.0
H384 H 0.34352 0.63068 0.54053 0.0
H385 H 0.38651 0.67124 0.50531 0.0
C386 C 0.74202 0.66317 0.5193 0.0
C387 C 0.80111 0.65304 0.52807 0.0
C388 C 0.76849 0.64055 0.53963 0.0
C389 C 0.67954 0.638 0.54195 0.0
C390 C 0.62311 0.64802 0.5324 0.0
C391 C 0.65218 0.66037 0.52132 0.0
C392 C 0.57574 0.6691 0.51112 0.0
C393 C 0.56694 0.68053 0.5449 0.0
C394 C 0.58509 0.67386 0.46105 0.0
C395 C 0.49983 0.6597 0.51888 0.0
C396 C 0.52984 0.64761 0.5308 0.0
C397 C 0.47459 0.63711 0.53856 0.0
C398 C 0.3859 0.63893 0.5341 0.0
C399 C 0.35205 0.65119 0.52216 0.0
C400 C 0.41009 0.66177 0.51471 0.0
H401 H 0.70486 0.41719 0.52664 0.0
H402 H 0.74657 0.37566 0.54134 0.0
H403 H 0.59086 0.37198 0.54063 0.0
H404 H 0.49966 0.41852 0.59909 0.0
H405 H 0.44828 0.43013 0.56356 0.0
H406 H 0.56478 0.4301 0.56563 0.0
H407 H 0.58342 0.42771 0.4772 0.0
H408 H 0.467 0.42773 0.47487 0.0
H409 H 0.53109 0.41448 0.45005 0.0
H410 H 0.43604 0.37194 0.536 0.0
H411 H 0.28084 0.37571 0.53002 0.0
H412 H 0.32564 0.41725 0.52027 0.0
C413 C 0.68087 0.40737 0.53014 0.0
C414 C 0.739 0.39673 0.53397 0.0
C415 C 0.70461 0.38401 0.53811 0.0
C416 C 0.6157 0.38177 0.53783 0.0
C417 C 0.56062 0.39231 0.53357 0.0
C418 C 0.5908 0.40488 0.52998 0.0
C419 C 0.51493 0.41426 0.52534 0.0
C420 C 0.50643 0.42382 0.56583 0.0
C421 C 0.52473 0.42147 0.47911 0.0
C422 C 0.43841 0.40489 0.52704 0.0
C423 C 0.46761 0.3923 0.53153 0.0
C424 C 0.41199 0.38175 0.53263 0.0
C425 C 0.32369 0.38402 0.52895 0.0
C426 C 0.29071 0.39676 0.52444 0.0
C427 C 0.34889 0.40741 0.52391 0.0
H428 H 0.88377 0.91616 0.98984 0.0
H429 H 0.82581 0.88185 0.07363 0.0
H430 H 0.97927 0.8786 0.08242 0.0
H431 H 0.08307 0.90341 0.93174 0.0
H432 H 0.14272 0.91839 0.93235 0.0
H433 H 1.02598 0.91872 0.93171 0.0
H434 H 1.01514 0.93281 1.0053 0.0
H435 H 0.1319 0.93251 1.00603 0.0
H436 H 0.06485 0.92716 0.05565 0.0
H437 H 0.13432 0.87779 0.08168 0.0
H438 H 0.29224 0.88022 0.07361 0.0
H439 H 0.26429 0.91523 0.99276 0.0
C440 C 0.90362 0.90805 1.01025 0.0
C441 C 0.84124 0.89924 0.03059 0.0
C442 C 0.87071 0.88873 0.057 0.0
C443 C 0.95851 0.88675 0.06251 0.0
C444 C 1.01787 0.89536 0.04184 0.0
C445 C 0.99284 0.90587 0.01644 0.0
C446 C 0.07322 0.91343 0.99818 0.0
C447 C 0.08171 0.91349 0.94535 0.0
C448 C 0.07112 0.9273 0.01745 0.0
C449 C 0.14578 0.90541 0.01741 0.0
C450 C 0.11113 0.89503 0.04224 0.0
C451 C 0.16267 0.88592 0.06257 0.0
C452 C 0.25266 0.88737 0.05761 0.0
C453 C 0.29112 0.89791 0.03266 0.0
C454 C 0.23676 0.90713 0.01241 0.0
H455 H 0.19284 0.13681 0.04842 0.0
H456 H 0.24403 0.17607 0.99861 0.0
H457 H 0.08991 0.17943 0.99083 0.0
H458 H 1.01743 0.13013 0.97401 0.0
H459 H 0.95064 0.12142 0.0169 0.0
H460 H 0.06718 0.12142 0.01884 0.0
H461 H 0.05021 0.13014 0.10218 0.0
H462 H 0.93365 0.13017 0.10042 0.0
H463 H 0.98901 0.14484 0.11439 0.0
H464 H 0.93609 0.17935 0.98727 0.0
H465 H 0.7801 0.17598 0.98951 0.0
H466 H 0.8128 0.13693 0.04263 0.0
C467 C 0.17127 0.14609 0.03593 0.0
C468 C 0.23164 0.15618 0.02448 0.0
C469 C 0.20034 0.16817 1.0082 0.0
C470 C 0.11233 0.17021 1.00337 0.0
C471 C 0.05493 0.16023 0.01501 0.0
C472 C 0.08192 0.1484 0.03108 0.0
C473 C 1.00343 0.13959 0.04143 0.0
C474 C 1.0101 0.12742 1.01097 0.0
C475 C 0.99351 0.13597 0.09266 0.0
C476 C 0.92934 0.14843 0.02855 0.0
C477 C 0.96203 0.16023 0.01327 0.0
C478 C 0.90929 0.17016 0.99911 0.0
C479 C 0.82014 0.16808 1.0005 0.0
C480 C 0.78319 0.15614 0.01609 0.0
C481 C 0.83883 0.14614 0.03045 0.0
H482 H 0.27362 0.16944 0.55688 0.0
H483 H 0.33048 0.13421 0.4778 0.0
H484 H 0.17697 0.13161 0.46707 0.0
H485 H 0.0713 0.1578 0.6142 0.0
H486 H 1.01363 0.17301 0.61189 0.0
H487 H 0.1302 0.17287 0.61364 0.0
H488 H 0.14593 0.18648 0.539 0.0
H489 H 1.02936 0.18672 0.53713 0.0
H490 H 0.09717 0.18079 0.48854 0.0
H491 H 1.02225 0.13184 0.46454 0.0
H492 H 0.86537 0.135 0.47014 0.0
H493 H 0.89331 0.17003 0.55071 0.0
C494 C 0.25348 0.16122 0.53728 0.0
C495 C 0.31535 0.15198 0.51871 0.0
C496 C 0.28571 0.14138 0.49317 0.0
C497 C 0.198 0.1398 0.48652 0.0
C498 C 0.13907 0.14887 0.50542 0.0
C499 C 0.16445 0.1594 0.53026 0.0
C500 C 0.08463 0.16742 0.54705 0.0
C501 C 0.07434 0.1678 0.59984 0.0
C502 C 0.08961 0.18117 0.52671 0.0
C503 C 1.01162 0.15966 0.52758 0.0
C504 C 0.04594 0.14903 0.50376 0.0
C505 C 0.99425 0.14015 0.48295 0.0
C506 C 0.90458 0.14207 0.48652 0.0
C507 C 0.86591 0.15279 0.51086 0.0
C508 C 0.9206 0.16181 0.53149 0.0
H509 H 0.81423 0.91506 0.54917 0.0
H510 H 0.7873 0.87805 0.48012 0.0
H511 H 0.94394 0.87484 0.4767 0.0
H512 H 1.0176 0.92426 0.48434 0.0
H513 H 0.0655 0.93143 0.5327 0.0
H514 H 0.94901 0.93136 0.53053 0.0
H515 H 0.93265 0.91983 0.60942 0.0
H516 H 0.04905 0.91989 0.6119 0.0
H517 H 0.99023 0.90483 0.61737 0.0
H518 H 0.09823 0.87468 0.48086 0.0
H519 H 0.25193 0.87782 0.49093 0.0
H520 H 0.19389 0.91515 0.55601 0.0
C521 C 0.84166 0.90635 0.53311 0.0
C522 C 0.78742 0.89684 0.51481 0.0
C523 C 0.8262 0.88554 0.49435 0.0
C524 C 0.91574 0.88357 0.49219 0.0
C525 C 0.96704 0.89298 0.51043 0.0
C526 C 0.93254 0.90419 0.53039 0.0
C527 C 1.00524 0.91255 0.54721 0.0
C528 C 1.00959 0.92568 0.52219 0.0
C529 C 0.99357 0.91438 0.59959 0.0
C530 C 0.08504 0.90418 0.53343 0.0
C531 C 0.06 0.89295 0.51248 0.0
C532 C 0.11907 0.88343 0.49719 0.0
C533 C 0.2067 0.88532 0.50339 0.0
C534 C 0.23583 0.8967 0.52464 0.0
C535 C 0.17389 0.90636 0.53963 0.0
H536 H 0.06358 0.55502 0.07539 0.0
H537 H 0.97786 0.56269 0.93956 0.0
H538 H 0.97127 0.53926 0.92487 0.0
H539 H 0.19867 0.52765 0.04398 0.0
H540 H 0.17016 0.51857 0.0957 0.0
H541 H 0.16611 0.53603 0.09674 0.0
H542 H 1.00517 0.53527 0.12898 0.0
H543 H 1.00882 0.5178 0.12809 0.0
H544 H 0.92759 0.52635 0.09839 0.0
H545 H 0.97602 0.51537 0.9233 0.0
H546 H 0.99143 0.49189 0.93505 0.0
H547 H 0.07487 0.49891 0.07171 0.0
C548 C 1.04264 0.55174 0.04278 0.0
C549 C 1.0222 0.56074 1.00841 0.0
C550 C 0.99552 0.55603 0.96608 0.0
C551 C 0.99095 0.54273 0.95748 0.0
C552 C 1.01269 0.53415 0.99162 0.0
C553 C 1.03773 0.53839 0.03351 0.0
C554 C 0.05873 0.52695 0.06376 0.0
C555 C 0.15409 0.52733 0.07573 0.0
C556 C 0.99635 0.52657 0.10739 0.0
C557 C 1.04252 0.51569 0.03194 0.0
C558 C 1.01562 0.52014 0.99066 0.0
C559 C 0.99721 0.51174 0.95543 0.0
C560 C 1.00685 0.4984 0.96234 0.0
C561 C 1.03522 0.4935 1.00408 0.0
C562 C 0.05259 0.50232 0.0395 0.0
H563 H 0.10702 0.49768 0.48651 0.0
H564 H 0.95258 0.4924 0.61602 0.0
H565 H 0.94605 0.51599 0.62673 0.0
H566 H 0.23068 0.52481 0.51813 0.0
H567 H 0.22629 0.53324 0.4642 0.0
H568 H 0.21967 0.51581 0.46595 0.0
H569 H 0.07433 0.51678 0.42717 0.0
H570 H 0.08051 0.53422 0.42524 0.0
H571 H 0.98583 0.52646 0.45268 0.0
H572 H 0.95663 0.54004 0.62481 0.0
H573 H 0.97985 0.56323 0.60904 0.0
H574 H 0.12556 0.55353 0.4802 0.0
C575 C 0.07114 0.50145 0.51696 0.0
C576 C 1.03183 0.49299 0.55085 0.0
C577 C 0.98579 0.49849 0.59015 0.0
C578 C 0.98081 0.51195 0.5964 0.0
C579 C 1.02104 0.51994 0.56282 0.0
C580 C 0.0646 0.51494 0.52361 0.0
C581 C 0.10076 0.52581 0.49259 0.0
C582 C 0.20027 0.52486 0.48479 0.0
C583 C 0.0578 0.52582 0.4467 0.0
C584 C 0.07294 0.53763 0.52132 0.0
C585 C 1.02642 0.53396 0.56147 0.0
C586 C 0.99334 0.54304 0.59357 0.0
C587 C 1.00785 0.55624 0.58446 0.0
C588 C 0.05573 0.56036 0.54364 0.0
C589 C 0.08846 0.55081 0.51168 0.0
H590 H 0.62022 0.99964 0.9797 0.0
H591 H 0.47071 0.99007 0.10734 0.0
H592 H 0.44724 1.01329 0.12312 0.0
H593 H 0.72447 0.02794 0.01885 0.0
H594 H 0.71584 0.037 0.9665 0.0
H595 H 0.72134 1.01955 0.96481 0.0
H596 H 0.57745 1.01891 0.92458 0.0
H597 H 0.57158 0.03636 0.92614 0.0
H598 H 0.48214 0.02688 0.95101 0.0
H599 H 0.43681 0.03738 0.12497 0.0
H600 H 0.44404 0.06098 0.11424 0.0
H601 H 0.60244 0.05544 0.98601 0.0
C602 C 0.58221 1.00239 1.0109 0.0
C603 C 0.54841 0.99289 0.04253 0.0
C604 C 0.49941 0.99704 0.08303 0.0
C605 C 0.48478 1.01025 0.09212 0.0
C606 C 0.51891 1.0193 0.06032 0.0
C607 C 0.56652 1.01559 0.02049 0.0
C608 C 0.59553 0.02737 0.99206 0.0
C609 C 0.69523 0.028 0.98518 0.0
C610 C 0.55421 0.02738 0.9457 0.0
C611 C 0.55868 0.03826 0.02284 0.0
C612 C 0.51378 0.03333 0.06169 0.0
C613 C 0.4726 0.04137 0.09493 0.0
C614 C 0.47796 0.05483 0.08867 0.0
C615 C 0.52528 0.06025 0.04972 0.0
C616 C 0.56555 0.05173 0.01619 0.0
H617 H 0.61378 0.05304 0.47569 0.0
H618 H 0.46463 0.06317 0.60298 0.0
H619 H 0.44349 0.03997 0.62036 0.0
H620 H 0.48056 1.0255 0.44849 0.0
H621 H 0.57127 1.01595 0.42475 0.0
H622 H 0.57558 0.03339 0.42196 0.0
H623 H 0.71853 0.03314 0.46304 0.0
H624 H 0.71477 1.0157 0.46582 0.0
H625 H 0.72156 1.02502 0.51765 0.0
H626 H 0.43445 1.01584 0.62343 0.0
H627 H 0.4429 0.99221 0.61393 0.0
H628 H 0.60188 0.99722 0.4857 0.0
C629 C 0.57601 0.0504 0.50706 0.0
C630 C 0.54109 0.06005 0.53802 0.0
C631 C 0.49323 0.05607 0.57898 0.0
C632 C 0.48025 0.04288 0.58902 0.0
C633 C 0.5153 0.03369 0.55782 0.0
C634 C 0.56235 0.03724 0.51769 0.0
C635 C 0.5931 1.02533 0.49018 0.0
C636 C 0.55271 1.02503 0.44359 0.0
C637 C 0.69292 1.02477 0.48383 0.0
C638 C 0.557 1.01455 0.52158 0.0
C639 C 0.51165 1.01965 0.5601 0.0
C640 C 0.47075 1.01173 0.59369 0.0
C641 C 0.47681 0.99825 0.58813 0.0
C642 C 0.52457 0.99265 0.54952 0.0
C643 C 0.56466 1.00104 0.51565 0.0
H644 H 0.26192 0.30482 0.97117 0.0
H645 H 0.15558 0.30822 0.11274 0.0
H646 H 0.19012 0.28528 0.12594 0.0
H647 H 0.1851 0.27189 0.95319 0.0
H648 H 0.28121 0.26697 0.91845 0.0
H649 H 0.24696 0.28371 0.91915 0.0
H650 H 0.39817 0.29062 0.94302 0.0
H651 H 0.43285 0.27391 0.94245 0.0
H652 H 0.43984 0.28356 0.99351 0.0
H653 H 0.23392 0.2621 0.12468 0.0
H654 H 0.28951 0.24001 0.10977 0.0
H655 H 0.37398 0.25112 0.96979 0.0
C656 C 0.2457 0.3007 1.00485 0.0
C657 C 0.20686 0.30843 0.0411 0.0
C658 C 0.18689 0.30264 0.08468 0.0
C659 C 0.20563 0.28955 0.09247 0.0
C660 C 0.24446 0.28226 0.05638 0.0
C661 C 0.26459 0.28757 0.01341 0.0
C662 C 0.30767 0.27747 0.98104 0.0
C663 C 0.2519 0.27486 0.94056 0.0
C664 C 0.40013 0.28164 0.96402 0.0
C665 C 0.30913 0.26576 0.0128 0.0
C666 C 0.27152 0.26877 0.05591 0.0
C667 C 0.26419 0.25963 0.09114 0.0
C668 C 0.29678 0.24709 0.08236 0.0
C669 C 0.33742 0.2437 0.03875 0.0
C670 C 0.34286 0.25324 1.00345 0.0
H671 H 0.78883 0.80696 0.05547 0.0
H672 H 0.59031 0.80544 0.9576 0.0
H673 H 0.61717 0.78209 0.94722 0.0
H674 H 0.9366 0.78391 0.99893 0.0
H675 H 0.96697 0.77643 0.05127 0.0
H676 H 0.93315 0.79317 0.05142 0.0
H677 H 0.81416 0.78832 0.11639 0.0
H678 H 0.84773 0.77155 0.11646 0.0
H679 H 0.73622 0.7757 0.10849 0.0
H680 H 0.66145 0.75895 0.94795 0.0
H681 H 0.7248 0.73731 0.95759 0.0
H682 H 0.89774 0.75317 0.05402 0.0
C683 C 0.75084 0.80172 0.03193 0.0
C684 C 0.68808 0.80821 1.00687 0.0
C685 C 0.64023 0.8009 0.97636 0.0
C686 C 0.65435 0.78755 0.97054 0.0
C687 C 0.71636 0.7815 0.99558 0.0
C688 C 0.76405 0.7883 0.02566 0.0
C689 C 0.82674 0.77929 0.04824 0.0
C690 C 0.92148 0.78345 0.03675 0.0
C691 C 0.80489 0.77868 0.1005 0.0
C692 C 0.80737 0.76644 0.02555 0.0
C693 C 0.74286 0.76799 0.99565 0.0
C694 C 0.71257 0.75762 0.97098 0.0
C695 C 0.74963 0.74534 0.97648 0.0
C696 C 0.8174 0.74342 1.00609 0.0
C697 C 0.84584 0.75419 0.03129 0.0
H698 H 0.2892 0.74741 0.47869 0.0
H699 H 0.16859 0.7445 0.61775 0.0
H700 H 0.20019 0.76747 0.63073 0.0
H701 H 0.46073 0.7691 0.50312 0.0
H702 H 0.45558 0.77852 0.45133 0.0
H703 H 0.42359 0.76174 0.45214 0.0
H704 H 0.27333 0.76821 0.42513 0.0
H705 H 0.30497 0.78502 0.42414 0.0
H706 H 0.20767 0.78004 0.45747 0.0
H707 H 0.24262 0.79071 0.62944 0.0
H708 H 0.29622 0.81284 0.61428 0.0
H709 H 0.39188 0.80124 0.47639 0.0
C710 C 0.26916 0.7516 0.51183 0.0
C711 C 0.22755 0.74394 0.54744 0.0
C712 C 0.20267 0.74992 0.59025 0.0
C713 C 0.21951 0.76306 0.59788 0.0
C714 C 0.26085 0.77026 0.56235 0.0
C715 C 0.28532 0.7648 0.5201 0.0
C716 C 0.32887 0.77484 0.48791 0.0
C717 C 0.42278 0.77081 0.47275 0.0
C718 C 0.27552 0.77716 0.44619 0.0
C719 C 0.32631 0.78668 0.51909 0.0
C720 C 0.28597 0.7838 0.56169 0.0
C721 C 0.27487 0.79308 0.59629 0.0
C722 C 0.30631 0.80564 0.58739 0.0
C723 C 0.3494 0.80891 0.54428 0.0
C724 C 0.35876 0.79921 0.50963 0.0
H725 H 0.83782 0.30385 0.4753 0.0
H726 H 0.88267 0.30983 0.61902 0.0
H727 H 0.84088 0.28724 0.63574 0.0
H728 H 0.65547 0.28236 0.49285 0.0
H729 H 0.68852 0.27207 0.44471 0.0
H730 H 0.71863 0.28893 0.44381 0.0
H731 H 0.88086 0.28253 0.42941 0.0
H732 H 0.85119 0.26565 0.42993 0.0
H733 H 0.92862 0.27146 0.46831 0.0
H734 H 0.79266 0.26399 0.6376 0.0
H735 H 0.74522 0.24169 0.62419 0.0
H736 H 0.74546 0.24992 0.47799 0.0
C737 C 0.83946 0.30046 0.51032 0.0
C738 C 0.86284 0.30888 0.54586 0.0
C739 C 0.86288 0.30387 0.5912 0.0
C740 C 0.84004 0.29094 0.60107 0.0
C741 C 0.8179 0.28297 0.56528 0.0
C742 C 0.81787 0.2875 0.52075 0.0
C743 C 0.79326 0.27678 0.48848 0.0
C744 C 0.70896 0.28024 0.46616 0.0
C745 C 0.86795 0.27394 0.45188 0.0
C746 C 0.77947 0.26554 0.52193 0.0
C747 C 0.79352 0.26936 0.56606 0.0
C748 C 0.78257 0.26083 0.60306 0.0
C749 C 0.75637 0.24807 0.59491 0.0
C750 C 0.74213 0.24375 0.5499 0.0
C751 C 0.75463 0.25274 0.51299 0.0
H752 H 0.08301 0.41862 0.17763 0.0
H753 H 0.08878 0.37747 0.14792 0.0
H754 H 0.06675 0.37269 0.23129 0.0
H755 H 0.19122 0.4177 0.2818 0.0
H756 H 0.12308 0.42996 0.31022 0.0
H757 H 0.14174 0.43007 0.24855 0.0
H758 H 0.97568 0.42949 0.2403 0.0
H759 H 0.95651 0.42957 0.30194 0.0
H760 H 0.91136 0.41687 0.26874 0.0
H761 H 0.05319 0.3727 0.31993 0.0
H762 H 1.02938 0.37745 0.40332 0.0
H763 H 1.0174 0.41853 0.37311 0.0
C764 C 0.08014 0.4086 0.18869 0.0
C765 C 0.08886 0.39838 0.15634 0.0
C766 C 0.08268 0.38541 0.17207 0.0
C767 C 0.07048 0.38263 0.21941 0.0
C768 C 0.06279 0.39295 0.25051 0.0
C769 C 0.06579 0.40568 0.23557 0.0
C770 C 0.05159 0.41504 0.27547 0.0
C771 C 0.13168 0.4237 0.27922 0.0
C772 C 0.96886 0.42322 0.27135 0.0
C773 C 1.04062 0.40564 0.31534 0.0
C774 C 0.0488 0.39293 0.30051 0.0
C775 C 0.04529 0.38262 0.33171 0.0
C776 C 1.03186 0.38539 0.37902 0.0
C777 C 1.01979 0.39831 0.39455 0.0
C778 C 1.02461 0.40852 0.36214 0.0
H779 H 0.04459 0.674 0.1755 0.0
H780 H 0.99535 0.63368 0.14561 0.0
H781 H 1.00532 0.62828 0.22844 0.0
H782 H 0.19746 0.66931 0.25804 0.0
H783 H 0.15766 0.68267 0.29362 0.0
H784 H 0.1459 0.68301 0.23272 0.0
H785 H 0.97912 0.68627 0.24757 0.0
H786 H 0.9907 0.6862 0.30847 0.0
H787 H 0.91747 0.675 0.28416 0.0
H788 H 1.02972 0.62778 0.31759 0.0
H789 H 0.0448 0.63268 0.40032 0.0
H790 H 0.07041 0.67347 0.36728 0.0
C791 C 1.0355 0.664 0.1862 0.0
C792 C 1.01974 0.65424 0.15406 0.0
C793 C 1.0072 0.64133 0.16973 0.0
C794 C 1.0134 0.63819 0.21666 0.0
C795 C 1.03094 0.64812 0.24738 0.0
C796 C 1.04005 0.66081 0.23245 0.0
C797 C 0.05557 0.66994 0.27136 0.0
C798 C 0.14442 0.67662 0.26344 0.0
C799 C 0.98129 0.67994 0.27829 0.0
C800 C 0.05467 0.66052 0.31094 0.0
C801 C 1.04149 0.64791 0.29693 0.0
C802 C 1.03958 0.63766 0.32856 0.0
C803 C 0.049 0.64048 0.3754 0.0
C804 C 0.05901 0.65345 0.39002 0.0
C805 C 0.06281 0.66346 0.35709 0.0
H806 H 0.9087 0.64372 0.86538 0.0
H807 H 0.11694 0.66896 0.90142 0.0
H808 H 0.15978 0.67238 0.81877 0.0
H809 H 1.02415 0.62812 0.77208 0.0
H810 H 0.9327 0.62711 0.7373 0.0
H811 H 0.91506 0.62752 0.79894 0.0
H812 H 0.81353 0.64745 0.79322 0.0
H813 H 0.83117 0.64715 0.73146 0.0
H814 H 0.85319 0.6617 0.76269 0.0
H815 H 0.18629 0.67168 0.73123 0.0
H816 H 0.19287 0.66703 0.64753 0.0
H817 H 0.96666 0.64247 0.66881 0.0
C818 C 0.96242 0.65015 0.85588 0.0
C819 C 1.00919 0.65614 0.88993 0.0
C820 C 0.0797 0.66436 0.876 0.0
C821 C 0.10457 0.66633 0.82908 0.0
C822 C 0.05788 0.66011 0.79634 0.0
C823 C 0.98791 0.65224 0.80922 0.0
C824 C 0.95047 0.64627 0.76752 0.0
C825 C 0.95597 0.63137 0.76907 0.0
C826 C 0.85651 0.65092 0.76349 0.0
C827 C 1.01124 0.65176 0.7291 0.0
C828 C 0.07251 0.65981 0.74634 0.0
C829 C 0.13783 0.66555 0.71744 0.0
C830 C 0.14105 0.66289 0.66999 0.0
C831 C 0.07933 0.65461 0.65187 0.0
C832 C 1.0134 0.64906 0.68181 0.0
H833 H 0.15583 0.38903 0.66859 0.0
H834 H 0.91298 0.40985 0.65982 0.0
H835 H 0.90697 0.41401 0.74404 0.0
H836 H 0.1021 0.37303 0.77204 0.0
H837 H 0.2089 0.37423 0.79282 0.0
H838 H 0.19674 0.37409 0.73201 0.0
H839 H 0.27968 0.39588 0.72304 0.0
H840 H 0.29239 0.39605 0.78394 0.0
H841 H 0.24221 0.40964 0.75724 0.0
H842 H 0.9257 0.41455 0.83159 0.0
H843 H 0.96451 0.41121 0.9116 0.0
H844 H 0.19403 0.38962 0.86131 0.0
C845 C 0.10185 0.39464 0.68421 0.0
C846 C 1.03492 0.39915 0.65763 0.0
C847 C 0.96536 0.40641 0.67943 0.0
C848 C 0.96147 0.40877 0.72726 0.0
C849 C 1.02815 0.40394 0.75262 0.0
C850 C 0.09731 0.3971 0.73152 0.0
C851 C 0.15929 0.39246 0.76603 0.0
C852 C 0.16715 0.37757 0.7657 0.0
C853 C 0.24869 0.39889 0.75702 0.0
C854 C 0.11321 0.39734 0.81038 0.0
C855 C 1.03832 0.40412 0.80207 0.0
C856 C 0.98454 0.40933 0.83816 0.0
C857 C 1.00729 0.40741 0.88357 0.0
C858 C 0.08251 0.40017 0.89275 0.0
C859 C 0.1364 0.39524 0.85544 0.0
H860 H 0.61139 0.91885 0.17967 0.0
H861 H 0.52801 0.88037 0.14338 0.0
H862 H 0.50493 0.87482 0.22622 0.0
H863 H 0.71969 0.91031 0.28164 0.0
H864 H 0.68153 0.92459 0.31268 0.0
H865 H 0.69824 0.92502 0.25092 0.0
H866 H 0.53888 0.93263 0.24537 0.0
H867 H 0.52205 0.93233 0.30707 0.0
H868 H 0.45158 0.92318 0.27277 0.0
H869 H 0.49115 0.87374 0.31518 0.0
H870 H 0.47398 0.87795 0.39924 0.0
H871 H 0.55425 0.9177 0.37539 0.0
C872 C 0.58938 0.90918 0.18906 0.0
C873 C 0.57287 0.89996 0.15496 0.0
C874 C 0.54215 0.88753 0.16885 0.0
C875 C 0.52888 0.88431 0.21586 0.0
C876 C 0.54537 0.89369 0.24866 0.0
C877 C 0.574 0.90593 0.23563 0.0
C878 C 0.5812 0.91461 0.27705 0.0
C879 C 0.67579 0.91888 0.28078 0.0
C880 C 0.51976 0.92638 0.27545 0.0
C881 C 0.55178 0.90543 0.3156 0.0
C882 C 0.53282 0.89331 0.29881 0.0
C883 C 0.50553 0.88322 0.32846 0.0
C884 C 0.49622 0.88566 0.37616 0.0
C885 C 0.51245 0.89814 0.39361 0.0
C886 C 0.54098 0.90808 0.36285 0.0
H887 H 0.54913 0.17464 0.17782 0.0
H888 H 0.49818 0.13448 0.14645 0.0
H889 H 0.51034 0.12873 0.22862 0.0
H890 H 0.70371 0.16958 0.2593 0.0
H891 H 0.66451 0.18277 0.29586 0.0
H892 H 0.65144 0.1834 0.23512 0.0
H893 H 0.48481 0.18657 0.25109 0.0
H894 H 0.49775 0.18623 0.31185 0.0
H895 H 0.42404 0.17513 0.2874 0.0
H896 H 0.537 0.12778 0.31727 0.0
H897 H 0.55344 0.13224 0.40009 0.0
H898 H 0.57856 0.17319 0.36956 0.0
C899 C 0.54016 0.16461 0.18806 0.0
C900 C 0.52343 0.15499 0.15552 0.0
C901 C 0.51102 0.14202 0.17069 0.0
C902 C 0.51838 0.13868 0.21732 0.0
C903 C 0.53686 0.14846 0.2484 0.0
C904 C 0.54573 0.1612 0.23411 0.0
C905 C 0.56201 0.17015 0.27348 0.0
C906 C 0.65069 0.17687 0.26544 0.0
C907 C 0.48773 0.1801 0.28142 0.0
C908 C 0.56201 0.16053 0.3125 0.0
C909 C 0.54847 0.148 0.29782 0.0
C910 C 0.54708 0.13759 0.3288 0.0
C911 C 0.55722 0.14017 0.37575 0.0
C912 C 0.56739 0.15305 0.39118 0.0
C913 C 0.5709 0.16324 0.3588 0.0
H914 H 0.41503 0.14145 0.86994 0.0
H915 H 0.61464 0.16886 0.90059 0.0
H916 H 0.64818 0.17259 0.81707 0.0
H917 H 0.52973 0.1266 0.77631 0.0
H918 H 0.43587 0.12436 0.74397 0.0
H919 H 0.42309 0.12512 0.80566 0.0
H920 H 0.31202 0.14394 0.80064 0.0
H921 H 0.32514 0.14333 0.73877 0.0
H922 H 0.34301 0.15831 0.76835 0.0
H923 H 0.66267 0.17245 0.72769 0.0
H924 H 0.66468 0.16699 0.64451 0.0
H925 H 0.46119 0.13884 0.67497 0.0
C926 C 0.46486 0.14841 0.85916 0.0
C927 C 0.51169 0.15494 0.8918 0.0
C928 C 0.57725 0.16384 0.87619 0.0
C929 C 0.59668 0.16602 0.82878 0.0
C930 C 0.54972 0.15927 0.79736 0.0
C931 C 0.48524 0.15062 0.81219 0.0
C932 C 0.44754 0.14393 0.77211 0.0
C933 C 0.45986 0.12913 0.77468 0.0
C934 C 0.35121 0.14759 0.76984 0.0
C935 C 0.50268 0.14976 0.73227 0.0
C936 C 0.5599 0.15885 0.74712 0.0
C937 C 0.61764 0.16539 0.7159 0.0
C938 C 0.61805 0.16232 0.6687 0.0
C939 C 0.56263 0.15258 0.6535 0.0
C940 C 0.50376 0.1464 0.68572 0.0
H941 H 0.64935 0.88802 0.66784 0.0
H942 H 0.40817 0.90926 0.65889 0.0
H943 H 0.40254 0.91348 0.74305 0.0
H944 H 0.59526 0.87222 0.77167 0.0
H945 H 0.70222 0.87333 0.79233 0.0
H946 H 0.68984 0.87313 0.73154 0.0
H947 H 0.77382 0.89482 0.72208 0.0
H948 H 0.78677 0.89506 0.78295 0.0
H949 H 0.7371 0.90866 0.75604 0.0
H950 H 0.42165 0.91411 0.83043 0.0
H951 H 0.46055 0.91091 0.91038 0.0
H952 H 0.68829 0.88881 0.86072 0.0
C953 C 0.5958 0.89372 0.68342 0.0
C954 C 0.52923 0.89834 0.6568 0.0
C955 C 0.46026 0.90573 0.67853 0.0
C956 C 0.45659 0.90813 0.72634 0.0
C957 C 0.52296 0.90321 0.75172 0.0
C958 C 0.59155 0.89623 0.7307 0.0
C959 C 0.65342 0.89157 0.76526 0.0
C960 C 0.66054 0.87668 0.76519 0.0
C961 C 0.7431 0.8979 0.75603 0.0
C962 C 0.6078 0.89655 0.80957 0.0
C963 C 0.53335 0.90344 0.80114 0.0
C964 C 0.48011 0.90881 0.83709 0.0
C965 C 0.50292 0.90695 0.88249 0.0
C966 C 0.57765 0.89961 0.89189 0.0
C967 C 0.63103 0.8945 0.85471 0.0
loop_
_geom_bond_atom_site_label_1
_geom_bond_atom_site_label_2
_geom_bond_distance
_geom_bond_site_symmetry_2
_ccdc_geom_bond_type
La0 C2 2.928 1_455 S
La0 O20 2.521 . S
La0 O21 2.628 1_454 S
La0 O22 2.554 . S
La0 O23 2.757 . S
La0 O24 2.470 1_455 S
La0 O29 2.482 1_554 S
La0 O31 2.503 . S
La1 C11 2.928 . S
La1 O23 2.482 . S
La1 O25 2.503 1_455 S
La1 O26 2.521 1_554 S
La1 O27 2.628 . S
La1 O28 2.554 1_554 S
La1 O29 2.757 1_554 S
La1 O30 2.470 1_554 S
C2 La0 2.928 1_655 S
C2 C3 1.503 . S
C2 O20 1.261 1_655 S
C2 O21 1.243 1_554 S
C3 C2 1.503 . S
C3 C4 1.394 . S
C3 C8 1.373 1_554 S
C4 C3 1.394 . S
C4 C5 1.380 . S
C4 H32 0.930 . S
C5 C4 1.380 . S
C5 C6 1.376 . S
C5 H33 0.930 . S
C6 C5 1.376 . S
C6 C7 1.370 1_554 S
C7 C6 1.370 1_556 S
C7 C8 1.396 . S
C7 H34 0.929 . S
C8 C3 1.373 1_556 S
C8 C7 1.396 . S
C8 H35 0.929 . S
C9 O22 1.240 . S
C9 O23 1.289 . S
C10 O24 1.258 . S
C10 O25 1.256 . S
C11 La1 2.928 . S
C11 C12 1.503 . S
C11 O26 1.261 1_554 S
C11 O27 1.243 . S
C12 C11 1.503 . S
C12 C13 1.394 1_554 S
C12 C17 1.373 . S
C13 C12 1.394 1_556 S
C13 C14 1.380 . S
C13 H36 0.930 . S
C14 C13 1.380 . S
C14 C15 1.376 1_556 S
C14 H37 0.930 . S
C15 C14 1.376 1_554 S
C15 C16 1.370 . S
C16 C15 1.370 . S
C16 C17 1.396 . S
C16 H38 0.929 . S
C17 C12 1.373 . S
C17 C16 1.396 . S
C17 H39 0.929 . S
C18 O28 1.240 . S
C18 O29 1.289 . S
C19 O30 1.258 1_554 S
C19 O31 1.256 . S
O20 La0 2.521 . S
O20 C2 1.261 1_455 S
O21 La0 2.628 1_656 S
O21 C2 1.243 1_556 S
O22 La0 2.554 . S
O22 C9 1.240 . S
O23 La0 2.757 . S
O23 La1 2.482 . S
O23 C9 1.289 . S
O24 La0 2.470 1_655 S
O24 C10 1.258 . S
O25 La1 2.503 1_655 S
O25 C10 1.256 . S
O26 La1 2.521 1_556 S
O26 C11 1.261 1_556 S
O27 La1 2.628 . S
O27 C11 1.243 . S
O28 La1 2.554 1_556 S
O28 C18 1.240 . S
O29 La0 2.482 1_556 S
O29 La1 2.757 1_556 S
O29 C18 1.289 . S
O30 La1 2.470 1_556 S
O30 C19 1.258 1_556 S
O31 La0 2.503 . S
O31 C19 1.256 . S
H32 C4 0.930 . S
H33 C5 0.930 . S
H34 C7 0.929 . S
H35 C8 0.929 . S
H36 C13 0.930 . S
H37 C14 0.930 . S
H38 C16 0.929 . S
H39 C17 0.929 . S
La40 C42 2.928 . S
La40 O60 2.521 . S
La40 O61 2.628 1_554 S
La40 O62 2.554 . S
La40 O63 2.757 . S
La40 O64 2.470 . S
La40 O69 2.482 1_554 S
La40 O71 2.503 1_655 S
La41 C51 2.928 1_655 S
La41 O63 2.482 . S
La41 O65 2.503 . S
La41 O66 2.521 1_554 S
La41 O67 2.628 1_655 S
La41 O68 2.554 1_554 S
La41 O69 2.757 1_554 S
La41 O70 2.470 1_654 S
C42 La40 2.928 . S
C42 C43 1.503 . S
C42 O60 1.261 . S
C42 O61 1.243 1_554 S
C43 C42 1.503 . S
C43 C44 1.394 . S
C43 C48 1.373 1_554 S
C44 C43 1.394 . S
C44 C45 1.380 . S
C44 H72 0.930 . S
C45 C44 1.380 . S
C45 C46 1.376 . S
C45 H73 0.930 . S
C46 C45 1.376 . S
C46 C47 1.370 1_554 S
C47 C46 1.370 1_556 S
C47 C48 1.396 . S
C47 H74 0.929 . S
C48 C43 1.373 1_556 S
C48 C47 1.396 . S
C48 H75 0.929 . S
C49 O62 1.240 . S
C49 O63 1.289 . S
C50 O64 1.258 . S
C50 O65 1.256 . S
C51 La41 2.928 1_455 S
C51 C52 1.503 . S
C51 O66 1.261 1_454 S
C51 O67 1.243 . S
C52 C51 1.503 . S
C52 C53 1.394 1_554 S
C52 C57 1.373 . S
C53 C52 1.394 1_556 S
C53 C54 1.380 . S
C53 H76 0.930 . S
C54 C53 1.380 . S
C54 C55 1.376 1_556 S
C54 H77 0.930 . S
C55 C54 1.376 1_554 S
C55 C56 1.370 . S
C56 C55 1.370 . S
C56 C57 1.396 . S
C56 H78 0.929 . S
C57 C52 1.373 . S
C57 C56 1.396 . S
C57 H79 0.929 . S
C58 O68 1.240 . S
C58 O69 1.289 . S
C59 O70 1.258 1_554 S
C59 O71 1.256 . S
O60 La40 2.521 . S
O60 C42 1.261 . S
O61 La40 2.628 1_556 S
O61 C42 1.243 1_556 S
O62 La40 2.554 . S
O62 C49 1.240 . S
O63 La40 2.757 . S
O63 La41 2.482 . S
O63 C49 1.289 . S
O64 La40 2.470 . S
O64 C50 1.258 . S
O65 La41 2.503 . S
O65 C50 1.256 . S
O66 La41 2.521 1_556 S
O66 C51 1.261 1_656 S
O67 La41 2.628 1_455 S
O67 C51 1.243 . S
O68 La41 2.554 1_556 S
O68 C58 1.240 . S
O69 La40 2.482 1_556 S
O69 La41 2.757 1_556 S
O69 C58 1.289 . S
O70 La41 2.470 1_456 S
O70 C59 1.258 1_556 S
O71 La40 2.503 1_455 S
O71 C59 1.256 . S
H72 C44 0.930 . S
H73 C45 0.930 . S
H74 C47 0.929 . S
H75 C48 0.929 . S
H76 C53 0.930 . S
H77 C54 0.930 . S
H78 C56 0.929 . S
H79 C57 0.929 . S
La80 C82 2.928 . S
La80 O100 2.521 . S
La80 O101 2.628 . S
La80 O102 2.554 . S
La80 O103 2.757 . S
La80 O104 2.470 . S
La80 O109 2.482 . S
La80 O111 2.503 1_455 S
La81 C91 2.928 1_455 S
La81 O103 2.482 . S
La81 O105 2.503 . S
La81 O106 2.521 . S
La81 O107 2.628 1_455 S
La81 O108 2.554 . S
La81 O109 2.757 . S
La81 O110 2.470 1_455 S
C82 La80 2.928 . S
C82 C83 1.503 . S
C82 O100 1.261 . S
C82 O101 1.243 . S
C83 C82 1.503 . S
C83 C84 1.394 . S
C83 C88 1.373 . S
C84 C83 1.394 . S
C84 C85 1.380 . S
C84 H112 0.930 . S
C85 C84 1.380 . S
C85 C86 1.376 . S
C85 H113 0.930 . S
C86 C85 1.376 . S
C86 C87 1.370 . S
C87 C86 1.370 . S
C87 C88 1.396 . S
C87 H114 0.929 . S
C88 C83 1.373 . S
C88 C87 1.396 . S
C88 H115 0.929 . S
C89 O102 1.240 . S
C89 O103 1.289 . S
C90 O104 1.258 . S
C90 O105 1.256 . S
C91 La81 2.928 1_655 S
C91 C92 1.503 . S
C91 O106 1.261 1_655 S
C91 O107 1.243 . S
C92 C91 1.503 . S
C92 C93 1.394 . S
C92 C97 1.373 . S
C93 C92 1.394 . S
C93 C94 1.380 . S
C93 H116 0.930 . S
C94 C93 1.380 . S
C94 C95 1.376 . S
C94 H117 0.930 . S
C95 C94 1.376 . S
C95 C96 1.370 . S
C96 C95 1.370 . S
C96 C97 1.396 . S
C96 H118 0.929 . S
C97 C92 1.373 . S
C97 C96 1.396 . S
C97 H119 0.929 . S
C98 O108 1.240 . S
C98 O109 1.289 . S
C99 O110 1.258 . S
C99 O111 1.256 . S
O100 La80 2.521 . S
O100 C82 1.261 . S
O101 La80 2.628 . S
O101 C82 1.243 . S
O102 La80 2.554 . S
O102 C89 1.240 . S
O103 La80 2.757 . S
O103 La81 2.482 . S
O103 C89 1.289 . S
O104 La80 2.470 . S
O104 C90 1.258 . S
O105 La81 2.503 . S
O105 C90 1.256 . S
O106 La81 2.521 . S
O106 C91 1.261 1_455 S
O107 La81 2.628 1_655 S
O107 C91 1.243 . S
O108 La81 2.554 . S
O108 C98 1.240 . S
O109 La80 2.482 . S
O109 La81 2.757 . S
O109 C98 1.289 . S
O110 La81 2.470 1_655 S
O110 C99 1.258 . S
O111 La80 2.503 1_655 S
O111 C99 1.256 . S
H112 C84 0.930 . S
H113 C85 0.930 . S
H114 C87 0.929 . S
H115 C88 0.929 . S
H116 C93 0.930 . S
H117 C94 0.930 . S
H118 C96 0.929 . S
H119 C97 0.929 . S
La120 C122 2.928 1_655 S
La120 O140 2.521 . S
La120 O141 2.628 1_655 S
La120 O142 2.554 . S
La120 O143 2.757 . S
La120 O144 2.470 1_655 S
La120 O149 2.482 . S
La120 O151 2.503 . S
La121 C131 2.928 . S
La121 O143 2.482 . S
La121 O145 2.503 1_655 S
La121 O146 2.521 . S
La121 O147 2.628 . S
La121 O148 2.554 . S
La121 O149 2.757 . S
La121 O150 2.470 . S
C122 La120 2.928 1_455 S
C122 C123 1.503 . S
C122 O140 1.261 1_455 S
C122 O141 1.243 . S
C123 C122 1.503 . S
C123 C124 1.394 . S
C123 C128 1.373 . S
C124 C123 1.394 . S
C124 C125 1.380 . S
C124 H152 0.930 . S
C125 C124 1.380 . S
C125 C126 1.376 . S
C125 H153 0.930 . S
C126 C125 1.376 . S
C126 C127 1.370 . S
C127 C126 1.370 . S
C127 C128 1.396 . S
C127 H154 0.929 . S
C128 C123 1.373 . S
C128 C127 1.396 . S
C128 H155 0.929 . S
C129 O142 1.240 . S
C129 O143 1.289 . S
C130 O144 1.258 . S
C130 O145 1.256 . S
C131 La121 2.928 . S
C131 C132 1.503 . S
C131 O146 1.261 . S
C131 O147 1.243 . S
C132 C131 1.503 . S
C132 C133 1.394 . S
C132 C137 1.373 . S
C133 C132 1.394 . S
C133 C134 1.380 . S
C133 H156 0.930 . S
C134 C133 1.380 . S
C134 C135 1.376 . S
C134 H157 0.930 . S
C135 C134 1.376 . S
C135 C136 1.370 . S
C136 C135 1.370 . S
C136 C137 1.396 . S
C136 H158 0.929 . S
C137 C132 1.373 . S
C137 C136 1.396 . S
C137 H159 0.929 . S
C138 O148 1.240 . S
C138 O149 1.289 . S
C139 O150 1.258 . S
C139 O151 1.256 . S
O140 La120 2.521 . S
O140 C122 1.261 1_655 S
O141 La120 2.628 1_455 S
O141 C122 1.243 . S
O142 La120 2.554 . S
O142 C129 1.240 . S
O143 La120 2.757 . S
O143 La121 2.482 . S
O143 C129 1.289 . S
O144 La120 2.470 1_455 S
O144 C130 1.258 . S
O145 La121 2.503 1_455 S
O145 C130 1.256 . S
O146 La121 2.521 . S
O146 C131 1.261 . S
O147 La121 2.628 . S
O147 C131 1.243 . S
O148 La121 2.554 . S
O148 C138 1.240 . S
O149 La120 2.482 . S
O149 La121 2.757 . S
O149 C138 1.289 . S
O150 La121 2.470 . S
O150 C139 1.258 . S
O151 La120 2.503 . S
O151 C139 1.256 . S
H152 C124 0.930 . S
H153 C125 0.930 . S
H154 C127 0.929 . S
H155 C128 0.929 . S
H156 C133 0.930 . S
H157 C134 0.930 . S
H158 C136 0.929 . S
H159 C137 0.929 . S
La160 C162 2.928 . S
La160 O180 2.521 . S
La160 O181 2.628 1_554 S
La160 O182 2.554 . S
La160 O183 2.757 . S
La160 O184 2.470 . S
La160 O189 2.482 1_554 S
La160 O191 2.503 . S
La161 C171 2.928 . S
La161 O183 2.482 . S
La161 O185 2.503 . S
La161 O186 2.521 1_554 S
La161 O187 2.628 . S
La161 O188 2.554 1_554 S
La161 O189 2.757 1_554 S
La161 O190 2.470 1_554 S
C162 La160 2.928 . S
C162 C163 1.503 . S
C162 O180 1.261 . S
C162 O181 1.243 1_554 S
C163 C162 1.503 . S
C163 C164 1.394 . S
C163 C168 1.373 1_554 S
C164 C163 1.394 . S
C164 C165 1.380 . S
C164 H192 0.930 . S
C165 C164 1.380 . S
C165 C166 1.376 . S
C165 H193 0.930 . S
C166 C165 1.376 . S
C166 C167 1.370 1_554 S
C167 C166 1.370 1_556 S
C167 C168 1.396 . S
C167 H194 0.929 . S
C168 C163 1.373 1_556 S
C168 C167 1.396 . S
C168 H195 0.929 . S
C169 O182 1.240 . S
C169 O183 1.289 . S
C170 O184 1.258 . S
C170 O185 1.256 . S
C171 La161 2.928 . S
C171 C172 1.503 . S
C171 O186 1.261 1_554 S
C171 O187 1.243 . S
C172 C171 1.503 . S
C172 C173 1.394 1_554 S
C172 C177 1.373 . S
C173 C172 1.394 1_556 S
C173 C174 1.380 . S
C173 H196 0.930 . S
C174 C173 1.380 . S
C174 C175 1.376 1_556 S
C174 H197 0.930 . S
C175 C174 1.376 1_554 S
C175 C176 1.370 . S
C176 C175 1.370 . S
C176 C177 1.396 . S
C176 H198 0.929 . S
C177 C172 1.373 . S
C177 C176 1.396 . S
C177 H199 0.929 . S
C178 O188 1.240 . S
C178 O189 1.289 . S
C179 O190 1.258 1_554 S
C179 O191 1.256 . S
O180 La160 2.521 . S
O180 C162 1.261 . S
O181 La160 2.628 1_556 S
O181 C162 1.243 1_556 S
O182 La160 2.554 . S
O182 C169 1.240 . S
O183 La160 2.757 . S
O183 La161 2.482 . S
O183 C169 1.289 . S
O184 La160 2.470 . S
O184 C170 1.258 . S
O185 La161 2.503 . S
O185 C170 1.256 . S
O186 La161 2.521 1_556 S
O186 C171 1.261 1_556 S
O187 La161 2.628 . S
O187 C171 1.243 . S
O188 La161 2.554 1_556 S
O188 C178 1.240 . S
O189 La160 2.482 1_556 S
O189 La161 2.757 1_556 S
O189 C178 1.289 . S
O190 La161 2.470 1_556 S
O190 C179 1.258 1_556 S
O191 La160 2.503 . S
O191 C179 1.256 . S
H192 C164 0.930 . S
H193 C165 0.930 . S
H194 C167 0.929 . S
H195 C168 0.929 . S
H196 C173 0.930 . S
H197 C174 0.930 . S
H198 C176 0.929 . S
H199 C177 0.929 . S
La200 C202 2.928 . S
La200 O220 2.521 . S
La200 O221 2.628 1_554 S
La200 O222 2.554 . S
La200 O223 2.757 . S
La200 O224 2.470 . S
La200 O229 2.482 1_554 S
La200 O231 2.503 . S
La201 C211 2.928 . S
La201 O223 2.482 . S
La201 O225 2.503 . S
La201 O226 2.521 1_554 S
La201 O227 2.628 . S
La201 O228 2.554 1_554 S
La201 O229 2.757 1_554 S
La201 O230 2.470 1_554 S
C202 La200 2.928 . S
C202 C203 1.503 . S
C202 O220 1.261 . S
C202 O221 1.243 1_554 S
C203 C202 1.503 . S
C203 C204 1.394 . S
C203 C208 1.373 1_554 S
C204 C203 1.394 . S
C204 C205 1.380 . S
C204 H232 0.930 . S
C205 C204 1.380 . S
C205 C206 1.376 . S
C205 H233 0.930 . S
C206 C205 1.376 . S
C206 C207 1.370 1_554 S
C207 C206 1.370 1_556 S
C207 C208 1.396 . S
C207 H234 0.929 . S
C208 C203 1.373 1_556 S
C208 C207 1.396 . S
C208 H235 0.929 . S
C209 O222 1.240 . S
C209 O223 1.289 . S
C210 O224 1.258 . S
C210 O225 1.256 . S
C211 La201 2.928 . S
C211 C212 1.503 . S
C211 O226 1.261 1_554 S
C211 O227 1.243 . S
C212 C211 1.503 . S
C212 C213 1.394 1_554 S
C212 C217 1.373 . S
C213 C212 1.394 1_556 S
C213 C214 1.380 . S
C213 H236 0.930 . S
C214 C213 1.380 . S
C214 C215 1.376 1_556 S
C214 H237 0.930 . S
C215 C214 1.376 1_554 S
C215 C216 1.370 . S
C216 C215 1.370 . S
C216 C217 1.396 . S
C216 H238 0.929 . S
C217 C212 1.373 . S
C217 C216 1.396 . S
C217 H239 0.929 . S
C218 O228 1.240 . S
C218 O229 1.289 . S
C219 O230 1.258 1_554 S
C219 O231 1.256 . S
O220 La200 2.521 . S
O220 C202 1.261 . S
O221 La200 2.628 1_556 S
O221 C202 1.243 1_556 S
O222 La200 2.554 . S
O222 C209 1.240 . S
O223 La200 2.757 . S
O223 La201 2.482 . S
O223 C209 1.289 . S
O224 La200 2.470 . S
O224 C210 1.258 . S
O225 La201 2.503 . S
O225 C210 1.256 . S
O226 La201 2.521 1_556 S
O226 C211 1.261 1_556 S
O227 La201 2.628 . S
O227 C211 1.243 . S
O228 La201 2.554 1_556 S
O228 C218 1.240 . S
O229 La200 2.482 1_556 S
O229 La201 2.757 1_556 S
O229 C218 1.289 . S
O230 La201 2.470 1_556 S
O230 C219 1.258 1_556 S
O231 La200 2.503 . S
O231 C219 1.256 . S
H232 C204 0.930 . S
H233 C205 0.930 . S
H234 C207 0.929 . S
H235 C208 0.929 . S
H236 C213 0.930 . S
H237 C214 0.930 . S
H238 C216 0.929 . S
H239 C217 0.929 . S
La240 C242 2.928 . S
La240 O260 2.521 . S
La240 O261 2.628 . S
La240 O262 2.554 . S
La240 O263 2.757 . S
La240 O264 2.470 . S
La240 O269 2.482 . S
La240 O271 2.503 . S
La241 C251 2.928 . S
La241 O263 2.482 . S
La241 O265 2.503 . S
La241 O266 2.521 . S
La241 O267 2.628 . S
La241 O268 2.554 . S
La241 O269 2.757 . S
La241 O270 2.470 . S
C242 La240 2.928 . S
C242 C243 1.503 . S
C242 O260 1.261 . S
C242 O261 1.243 . S
C243 C242 1.503 . S
C243 C244 1.394 . S
C243 C248 1.373 . S
C244 C243 1.394 . S
C244 C245 1.380 . S
C244 H272 0.930 . S
C245 C244 1.380 . S
C245 C246 1.376 . S
C245 H273 0.930 . S
C246 C245 1.376 . S
C246 C247 1.370 . S
C247 C246 1.370 . S
C247 C248 1.396 . S
C247 H274 0.929 . S
C248 C243 1.373 . S
C248 C247 1.396 . S
C248 H275 0.929 . S
C249 O262 1.240 . S
C249 O263 1.289 . S
C250 O264 1.258 . S
C250 O265 1.256 . S
C251 La241 2.928 . S
C251 C252 1.503 . S
C251 O266 1.261 . S
C251 O267 1.243 . S
C252 C251 1.503 . S
C252 C253 1.394 . S
C252 C257 1.373 . S
C253 C252 1.394 . S
C253 C254 1.380 . S
C253 H276 0.930 . S
C254 C253 1.380 . S
C254 C255 1.376 . S
C254 H277 0.930 . S
C255 C254 1.376 . S
C255 C256 1.370 . S
C256 C255 1.370 . S
C256 C257 1.396 . S
C256 H278 0.929 . S
C257 C252 1.373 . S
C257 C256 1.396 . S
C257 H279 0.929 . S
C258 O268 1.240 . S
C258 O269 1.289 . S
C259 O270 1.258 . S
C259 O271 1.256 . S
O260 La240 2.521 . S
O260 C242 1.261 . S
O261 La240 2.628 . S
O261 C242 1.243 . S
O262 La240 2.554 . S
O262 C249 1.240 . S
O263 La240 2.757 . S
O263 La241 2.482 . S
O263 C249 1.289 . S
O264 La240 2.470 . S
O264 C250 1.258 . S
O265 La241 2.503 . S
O265 C250 1.256 . S
O266 La241 2.521 . S
O266 C251 1.261 . S
O267 La241 2.628 . S
O267 C251 1.243 . S
O268 La241 2.554 . S
O268 C258 1.240 . S
O269 La240 2.482 . S
O269 La241 2.757 . S
O269 C258 1.289 . S
O270 La241 2.470 . S
O270 C259 1.258 . S
O271 La240 2.503 . S
O271 C259 1.256 . S
H272 C244 0.930 . S
H273 C245 0.930 . S
H274 C247 0.929 . S
H275 C248 0.929 . S
H276 C253 0.930 . S
H277 C254 0.930 . S
H278 C256 0.929 . S
H279 C257 0.929 . S
La280 C282 2.928 . S
La280 O300 2.521 . S
La280 O301 2.628 . S
La280 O302 2.554 . S
La280 O303 2.757 . S
La280 O304 2.470 . S
La280 O309 2.482 . S
La280 O311 2.503 . S
La281 C291 2.928 . S
La281 O303 2.482 . S
La281 O305 2.503 . S
La281 O306 2.521 . S
La281 O307 2.628 . S
La281 O308 2.554 . S
La281 O309 2.757 . S
La281 O310 2.470 . S
C282 La280 2.928 . S
C282 C283 1.503 . S
C282 O300 1.261 . S
C282 O301 1.243 . S
C283 C282 1.503 . S
C283 C284 1.394 . S
C283 C288 1.373 . S
C284 C283 1.394 . S
C284 C285 1.380 . S
C284 H312 0.930 . S
C285 C284 1.380 . S
C285 C286 1.376 . S
C285 H313 0.930 . S
C286 C285 1.376 . S
C286 C287 1.370 . S
C287 C286 1.370 . S
C287 C288 1.396 . S
C287 H314 0.929 . S
C288 C283 1.373 . S
C288 C287 1.396 . S
C288 H315 0.929 . S
C289 O302 1.240 . S
C289 O303 1.289 . S
C290 O304 1.258 . S
C290 O305 1.256 . S
C291 La281 2.928 . S
C291 C292 1.503 . S
C291 O306 1.261 . S
C291 O307 1.243 . S
C292 C291 1.503 . S
C292 C293 1.394 . S
C292 C297 1.373 . S
C293 C292 1.394 . S
C293 C294 1.380 . S
C293 H316 0.930 . S
C294 C293 1.380 . S
C294 C295 1.376 . S
C294 H317 0.930 . S
C295 C294 1.376 . S
C295 C296 1.370 . S
C296 C295 1.370 . S
C296 C297 1.396 . S
C296 H318 0.929 . S
C297 C292 1.373 . S
C297 C296 1.396 . S
C297 H319 0.929 . S
C298 O308 1.240 . S
C298 O309 1.289 . S
C299 O310 1.258 . S
C299 O311 1.256 . S
O300 La280 2.521 . S
O300 C282 1.261 . S
O301 La280 2.628 . S
O301 C282 1.243 . S
O302 La280 2.554 . S
O302 C289 1.240 . S
O303 La280 2.757 . S
O303 La281 2.482 . S
O303 C289 1.289 . S
O304 La280 2.470 . S
O304 C290 1.258 . S
O305 La281 2.503 . S
O305 C290 1.256 . S
O306 La281 2.521 . S
O306 C291 1.261 . S
O307 La281 2.628 . S
O307 C291 1.243 . S
O308 La281 2.554 . S
O308 C298 1.240 . S
O309 La280 2.482 . S
O309 La281 2.757 . S
O309 C298 1.289 . S
O310 La281 2.470 . S
O310 C299 1.258 . S
O311 La280 2.503 . S
O311 C299 1.256 . S
H312 C284 0.930 . S
H313 C285 0.930 . S
H314 C287 0.929 . S
H315 C288 0.929 . S
H316 C293 0.930 . S
H317 C294 0.930 . S
H318 C296 0.929 . S
H319 C297 0.929 . S
H320 C332 0.932 . S
H321 C334 0.930 . S
H322 C335 0.930 . S
H323 C339 0.959 . S
H324 C339 0.959 1_556 S
H325 C339 0.961 . S
H326 C340 0.960 . S
H327 C340 0.961 . S
H328 C340 0.959 . S
H329 C343 0.929 . S
H330 C344 0.931 . S
H331 C346 0.930 1_556 S
C332 H320 0.932 . S
C332 C333 1.398 1_556 S
C332 C337 1.398 1_556 S
C333 C332 1.398 1_554 S
C333 C334 1.376 . S
C334 H321 0.930 . S
C334 C333 1.376 . S
C334 C335 1.388 . S
C335 H322 0.930 . S
C335 C334 1.388 . S
C335 C336 1.390 . S
C336 C335 1.390 . S
C336 C337 1.394 . S
C336 C342 1.465 . S
C337 C332 1.398 1_554 S
C337 C336 1.394 . S
C337 C338 1.516 1_554 S
C338 C337 1.516 1_556 S
C338 C339 1.502 1_556 S
C338 C340 1.561 . S
C338 C341 1.526 1_556 S
C339 H323 0.959 . S
C339 H324 0.959 1_554 S
C339 H325 0.961 . S
C339 C338 1.502 1_554 S
C340 H326 0.960 . S
C340 H327 0.961 . S
C340 H328 0.959 . S
C340 C338 1.561 . S
C341 C338 1.526 1_554 S
C341 C342 1.396 . S
C341 C346 1.390 . S
C342 C336 1.465 . S
C342 C341 1.396 . S
C342 C343 1.399 . S
C343 H329 0.929 . S
C343 C342 1.399 . S
C343 C344 1.385 . S
C344 H330 0.931 . S
C344 C343 1.385 . S
C344 C345 1.389 . S
C345 C344 1.389 . S
C345 C346 1.387 . S
C346 H331 0.930 1_554 S
C346 C341 1.390 . S
C346 C345 1.387 . S
H347 C359 0.930 . S
H348 C361 0.930 . S
H349 C362 0.930 . S
H350 C366 0.959 . S
H351 C366 0.959 . S
H352 C366 0.961 . S
H353 C367 0.960 . S
H354 C367 0.961 . S
H355 C367 0.959 . S
H356 C370 0.929 . S
H357 C371 0.931 . S
H358 C373 0.930 . S
C359 H347 0.930 . S
C359 C360 1.399 1_556 S
C359 C364 1.399 . S
C360 C359 1.399 1_554 S
C360 C361 1.376 . S
C361 H348 0.930 . S
C361 C360 1.376 . S
C361 C362 1.388 . S
C362 H349 0.930 . S
C362 C361 1.388 . S
C362 C363 1.390 . S
C363 C362 1.390 . S
C363 C364 1.394 1_554 S
C363 C369 1.465 . S
C364 C359 1.399 . S
C364 C363 1.394 1_556 S
C364 C365 1.516 . S
C365 C364 1.516 . S
C365 C366 1.502 . S
C365 C367 1.561 . S
C365 C368 1.526 . S
C366 H350 0.959 . S
C366 H351 0.959 . S
C366 H352 0.961 . S
C366 C365 1.502 . S
C367 H353 0.960 . S
C367 H354 0.961 . S
C367 H355 0.959 . S
C367 C365 1.561 . S
C368 C365 1.526 . S
C368 C369 1.396 1_556 S
C368 C373 1.390 . S
C369 C363 1.465 . S
C369 C368 1.396 1_554 S
C369 C370 1.399 . S
C370 H356 0.929 . S
C370 C369 1.399 . S
C370 C371 1.385 . S
C371 H357 0.931 . S
C371 C370 1.385 . S
C371 C372 1.389 . S
C372 C371 1.389 . S
C372 C373 1.387 1_554 S
C373 H358 0.930 . S
C373 C368 1.390 . S
C373 C372 1.387 1_556 S
H374 C386 0.930 . S
H375 C388 0.930 . S
H376 C389 0.930 . S
H377 C393 0.959 . S
H378 C393 0.959 . S
H379 C393 0.961 . S
H380 C394 0.960 . S
H381 C394 0.961 . S
H382 C394 0.959 . S
H383 C397 0.929 . S
H384 C398 0.931 . S
H385 C400 0.930 . S
C386 H374 0.930 . S
C386 C387 1.399 . S
C386 C391 1.399 . S
C387 C386 1.399 . S
C387 C388 1.376 . S
C388 H375 0.930 . S
C388 C387 1.376 . S
C388 C389 1.388 . S
C389 H376 0.930 . S
C389 C388 1.388 . S
C389 C390 1.390 . S
C390 C389 1.390 . S
C390 C391 1.394 . S
C390 C396 1.465 . S
C391 C386 1.399 . S
C391 C390 1.394 . S
C391 C392 1.516 . S
C392 C391 1.516 . S
C392 C393 1.502 . S
C392 C394 1.561 . S
C392 C395 1.526 . S
C393 H377 0.959 . S
C393 H378 0.959 . S
C393 H379 0.961 . S
C393 C392 1.502 . S
C394 H380 0.960 . S
C394 H381 0.961 . S
C394 H382 0.959 . S
C394 C392 1.561 . S
C395 C392 1.526 . S
C395 C396 1.396 . S
C395 C400 1.390 . S
C396 C390 1.465 . S
C396 C395 1.396 . S
C396 C397 1.399 . S
C397 H383 0.929 . S
C397 C396 1.399 . S
C397 C398 1.385 . S
C398 H384 0.931 . S
C398 C397 1.385 . S
C398 C399 1.389 . S
C399 C398 1.389 . S
C399 C400 1.387 . S
C400 H385 0.930 . S
C400 C395 1.390 . S
C400 C399 1.387 . S
H401 C413 0.930 . S
H402 C415 0.930 . S
H403 C416 0.930 . S
H404 C420 0.959 . S
H405 C420 0.959 . S
H406 C420 0.961 . S
H407 C421 0.960 . S
H408 C421 0.961 . S
H409 C421 0.959 . S
H410 C424 0.929 . S
H411 C425 0.931 . S
H412 C427 0.930 . S
C413 H401 0.930 . S
C413 C414 1.399 . S
C413 C418 1.399 . S
C414 C413 1.399 . S
C414 C415 1.376 . S
C415 H402 0.930 . S
C415 C414 1.376 . S
C415 C416 1.388 . S
C416 H403 0.930 . S
C416 C415 1.388 . S
C416 C417 1.390 . S
C417 C416 1.390 . S
C417 C418 1.394 . S
C417 C423 1.465 . S
C418 C413 1.399 . S
C418 C417 1.394 . S
C418 C419 1.516 . S
C419 C418 1.516 . S
C419 C420 1.502 . S
C419 C421 1.561 . S
C419 C422 1.526 . S
C420 H404 0.959 . S
C420 H405 0.959 . S
C420 H406 0.961 . S
C420 C419 1.502 . S
C421 H407 0.960 . S
C421 H408 0.961 . S
C421 H409 0.959 . S
C421 C419 1.561 . S
C422 C419 1.526 . S
C422 C423 1.396 . S
C422 C427 1.390 . S
C423 C417 1.465 . S
C423 C422 1.396 . S
C423 C424 1.399 . S
C424 H410 0.929 . S
C424 C423 1.399 . S
C424 C425 1.385 . S
C425 H411 0.931 . S
C425 C424 1.385 . S
C425 C426 1.389 . S
C426 C425 1.389 . S
C426 C427 1.387 . S
C427 H412 0.930 . S
C427 C422 1.390 . S
C427 C426 1.387 . S
H428 C440 0.930 . S
H429 C442 0.930 . S
H430 C443 0.930 . S
H431 C447 0.959 . S
H432 C447 0.959 . S
H433 C447 0.961 . S
H434 C448 0.960 . S
H435 C448 0.961 . S
H436 C448 0.959 . S
H437 C451 0.929 . S
H438 C452 0.931 . S
H439 C454 0.930 . S
C440 H428 0.930 . S
C440 C441 1.399 1_556 S
C440 C445 1.399 . S
C441 C440 1.399 1_554 S
C441 C442 1.376 . S
C442 H429 0.930 . S
C442 C441 1.376 . S
C442 C443 1.388 . S
C443 H430 0.930 . S
C443 C442 1.388 . S
C443 C444 1.390 1_655 S
C444 C443 1.390 1_455 S
C444 C445 1.394 1_454 S
C444 C450 1.465 . S
C445 C440 1.399 . S
C445 C444 1.394 1_656 S
C445 C446 1.516 1_655 S
C446 C445 1.516 1_455 S
C446 C447 1.502 . S
C446 C448 1.561 . S
C446 C449 1.526 . S
C447 H431 0.959 . S
C447 H432 0.959 . S
C447 H433 0.961 . S
C447 C446 1.502 . S
C448 H434 0.960 . S
C448 H435 0.961 . S
C448 H436 0.959 . S
C448 C446 1.561 . S
C449 C446 1.526 . S
C449 C450 1.396 1_556 S
C449 C454 1.390 . S
C450 C444 1.465 . S
C450 C449 1.396 1_554 S
C450 C451 1.399 . S
C451 H437 0.929 . S
C451 C450 1.399 . S
C451 C452 1.385 . S
C452 H438 0.931 . S
C452 C451 1.385 . S
C452 C453 1.389 . S
C453 C452 1.389 . S
C453 C454 1.387 1_554 S
C454 H439 0.930 . S
C454 C449 1.390 . S
C454 C453 1.387 1_556 S
H455 C467 0.930 . S
H456 C469 0.930 . S
H457 C470 0.930 . S
H458 C474 0.959 . S
H459 C474 0.959 . S
H460 C474 0.961 1_455 S
H461 C475 0.960 . S
H462 C475 0.961 . S
H463 C475 0.959 . S
H464 C478 0.929 . S
H465 C479 0.931 . S
H466 C481 0.930 . S
C467 H455 0.930 . S
C467 C468 1.399 . S
C467 C472 1.399 . S
C468 C467 1.399 . S
C468 C469 1.376 1_554 S
C469 H456 0.930 . S
C469 C468 1.376 1_556 S
C469 C470 1.388 . S
C470 H457 0.930 . S
C470 C469 1.388 . S
C470 C471 1.390 1_456 S
C471 C470 1.390 1_654 S
C471 C472 1.394 1_655 S
C471 C477 1.465 . S
C472 C467 1.399 . S
C472 C471 1.394 1_455 S
C472 C473 1.516 1_455 S
C473 C472 1.516 1_655 S
C473 C474 1.502 . S
C473 C475 1.561 . S
C473 C476 1.526 . S
C474 H458 0.959 . S
C474 H459 0.959 . S
C474 H460 0.961 1_655 S
C474 C473 1.502 . S
C475 H461 0.960 . S
C475 H462 0.961 . S
C475 H463 0.959 . S
C475 C473 1.561 . S
C476 C473 1.526 . S
C476 C477 1.396 . S
C476 C481 1.390 . S
C477 C471 1.465 . S
C477 C476 1.396 . S
C477 C478 1.399 1_554 S
C478 H464 0.929 . S
C478 C477 1.399 1_556 S
C478 C479 1.385 . S
C479 H465 0.931 . S
C479 C478 1.385 . S
C479 C480 1.389 1_556 S
C480 C479 1.389 1_554 S
C480 C481 1.387 . S
C481 H466 0.930 . S
C481 C476 1.390 . S
C481 C480 1.387 . S
H482 C494 0.930 . S
H483 C496 0.930 . S
H484 C497 0.930 . S
H485 C501 0.959 . S
H486 C501 0.959 1_655 S
H487 C501 0.961 . S
H488 C502 0.960 . S
H489 C502 0.961 . S
H490 C502 0.959 . S
H491 C505 0.929 1_455 S
H492 C506 0.931 . S
H493 C508 0.930 . S
C494 H482 0.930 . S
C494 C495 1.399 . S
C494 C499 1.399 . S
C495 C494 1.399 . S
C495 C496 1.376 . S
C496 H483 0.930 . S
C496 C495 1.376 . S
C496 C497 1.388 . S
C497 H484 0.930 . S
C497 C496 1.388 . S
C497 C498 1.390 . S
C498 C497 1.390 . S
C498 C499 1.394 . S
C498 C504 1.465 . S
C499 C494 1.399 . S
C499 C498 1.394 . S
C499 C500 1.516 . S
C500 C499 1.516 . S
C500 C501 1.502 . S
C500 C502 1.561 . S
C500 C503 1.526 1_455 S
C501 H485 0.959 . S
C501 H486 0.959 1_455 S
C501 H487 0.961 . S
C501 C500 1.502 . S
C502 H488 0.960 . S
C502 H489 0.961 . S
C502 H490 0.959 . S
C502 C500 1.561 . S
C503 C500 1.526 1_655 S
C503 C504 1.396 1_655 S
C503 C508 1.390 . S
C504 C498 1.465 . S
C504 C503 1.396 1_455 S
C504 C505 1.399 1_455 S
C505 H491 0.929 1_655 S
C505 C504 1.399 1_655 S
C505 C506 1.385 . S
C506 H492 0.931 . S
C506 C505 1.385 . S
C506 C507 1.389 . S
C507 C506 1.389 . S
C507 C508 1.387 . S
C508 H493 0.930 . S
C508 C503 1.390 . S
C508 C507 1.387 . S
H509 C521 0.930 . S
H510 C523 0.930 . S
H511 C524 0.930 . S
H512 C528 0.959 . S
H513 C528 0.959 . S
H514 C528 0.961 . S
H515 C529 0.960 . S
H516 C529 0.961 . S
H517 C529 0.959 . S
H518 C532 0.929 . S
H519 C533 0.931 . S
H520 C535 0.930 . S
C521 H509 0.930 . S
C521 C522 1.399 . S
C521 C526 1.399 . S
C522 C521 1.399 . S
C522 C523 1.376 . S
C523 H510 0.930 . S
C523 C522 1.376 . S
C523 C524 1.388 . S
C524 H511 0.930 . S
C524 C523 1.388 . S
C524 C525 1.390 . S
C525 C524 1.390 . S
C525 C526 1.394 . S
C525 C531 1.465 . S
C526 C521 1.399 . S
C526 C525 1.394 . S
C526 C527 1.516 . S
C527 C526 1.516 . S
C527 C528 1.502 . S
C527 C529 1.561 . S
C527 C530 1.526 1_655 S
C528 H512 0.959 . S
C528 H513 0.959 . S
C528 H514 0.961 . S
C528 C527 1.502 . S
C529 H515 0.960 . S
C529 H516 0.961 . S
C529 H517 0.959 . S
C529 C527 1.561 . S
C530 C527 1.526 1_455 S
C530 C531 1.396 1_455 S
C530 C535 1.390 . S
C531 C525 1.465 . S
C531 C530 1.396 1_655 S
C531 C532 1.399 1_655 S
C532 H518 0.929 . S
C532 C531 1.399 1_455 S
C532 C533 1.385 . S
C533 H519 0.931 . S
C533 C532 1.385 . S
C533 C534 1.389 . S
C534 C533 1.389 . S
C534 C535 1.387 . S
C535 H520 0.930 . S
C535 C530 1.390 . S
C535 C534 1.387 . S
H536 C548 0.930 . S
H537 C550 0.930 . S
H538 C551 0.930 . S
H539 C555 0.959 . S
H540 C555 0.959 . S
H541 C555 0.961 . S
H542 C556 0.960 . S
H543 C556 0.961 1_655 S
H544 C556 0.959 1_655 S
H545 C559 0.929 . S
H546 C560 0.931 . S
H547 C562 0.930 . S
C548 H536 0.930 . S
C548 C549 1.399 . S
C548 C553 1.399 . S
C549 C548 1.399 . S
C549 C550 1.376 1_554 S
C550 H537 0.930 . S
C550 C549 1.376 1_556 S
C550 C551 1.388 1_455 S
C551 H538 0.930 . S
C551 C550 1.388 1_655 S
C551 C552 1.390 1_556 S
C552 C551 1.390 1_554 S
C552 C553 1.394 1_655 S
C552 C558 1.465 1_554 S
C553 C548 1.399 . S
C553 C552 1.394 1_455 S
C553 C554 1.516 . S
C554 C553 1.516 . S
C554 C555 1.502 . S
C554 C556 1.561 . S
C554 C557 1.526 1_455 S
C555 H539 0.959 . S
C555 H540 0.959 . S
C555 H541 0.961 . S
C555 C554 1.502 . S
C556 H542 0.960 . S
C556 H543 0.961 1_455 S
C556 H544 0.959 1_455 S
C556 C554 1.561 . S
C557 C554 1.526 1_655 S
C557 C558 1.396 1_554 S
C557 C562 1.390 . S
C558 C552 1.465 1_556 S
C558 C557 1.396 1_556 S
C558 C559 1.399 . S
C559 H545 0.929 . S
C559 C558 1.399 . S
C559 C560 1.385 . S
C560 H546 0.931 . S
C560 C559 1.385 . S
C560 C561 1.389 1_556 S
C561 C560 1.389 1_554 S
C561 C562 1.387 . S
C562 H547 0.930 . S
C562 C557 1.390 . S
C562 C561 1.387 . S
H563 C575 0.930 . S
H564 C577 0.930 . S
H565 C578 0.930 1_655 S
H566 C582 0.959 . S
H567 C582 0.959 . S
H568 C582 0.961 . S
H569 C583 0.960 . S
H570 C583 0.961 . S
H571 C583 0.959 . S
H572 C586 0.929 . S
H573 C587 0.931 . S
H574 C589 0.930 . S
C575 H563 0.930 . S
C575 C576 1.399 . S
C575 C580 1.399 . S
C576 C575 1.399 . S
C576 C577 1.376 . S
C577 H564 0.930 . S
C577 C576 1.376 . S
C577 C578 1.388 . S
C578 H565 0.930 1_455 S
C578 C577 1.388 . S
C578 C579 1.390 1_455 S
C579 C578 1.390 1_655 S
C579 C580 1.393 1_655 S
C579 C585 1.466 . S
C580 C575 1.399 . S
C580 C579 1.393 1_455 S
C580 C581 1.516 . S
C581 C580 1.516 . S
C581 C582 1.502 . S
C581 C583 1.561 1_455 S
C581 C584 1.526 1_455 S
C582 H566 0.959 . S
C582 H567 0.959 . S
C582 H568 0.961 . S
C582 C581 1.502 . S
C583 H569 0.960 . S
C583 H570 0.961 . S
C583 H571 0.959 . S
C583 C581 1.561 1_655 S
C584 C581 1.526 1_655 S
C584 C585 1.396 . S
C584 C589 1.390 . S
C585 C579 1.466 . S
C585 C584 1.396 . S
C585 C586 1.399 . S
C586 H572 0.929 . S
C586 C585 1.399 . S
C586 C587 1.385 . S
C587 H573 0.931 . S
C587 C586 1.385 . S
C587 C588 1.389 . S
C588 C587 1.389 . S
C588 C589 1.387 . S
C589 H574 0.930 . S
C589 C584 1.390 . S
C589 C588 1.387 . S
H590 C602 0.930 . S
H591 C604 0.930 . S
H592 C605 0.930 . S
H593 C609 0.959 . S
H594 C609 0.914 1_545 S
H595 C609 0.961 . S
H596 C610 0.960 1_565 S
H597 C610 0.961 . S
H598 C610 0.959 . S
H599 C613 0.929 . S
H600 C614 0.931 . S
H601 C616 0.930 . S
C602 H590 0.930 . S
C602 C603 1.399 1_556 S
C602 C607 1.399 . S
C603 C602 1.399 1_554 S
C603 C604 1.376 . S
C604 H591 0.930 . S
C604 C603 1.376 . S
C604 C605 1.388 . S
C605 H592 0.930 . S
C605 C604 1.388 . S
C605 C606 1.390 . S
C606 C605 1.390 . S
C606 C607 1.394 1_554 S
C606 C612 1.465 1_565 S
C607 C602 1.399 . S
C607 C606 1.394 1_556 S
C607 C608 1.531 . S
C608 C607 1.531 . S
C608 C609 1.510 . S
C608 C610 1.553 1_565 S
C608 C611 1.510 1_565 S
C609 H593 0.959 . S
C609 H594 0.914 1_565 S
C609 H595 0.961 . S
C609 C608 1.510 . S
C610 H596 0.960 1_545 S
C610 H597 0.961 . S
C610 H598 0.959 . S
C610 C608 1.553 1_545 S
C611 C608 1.510 1_545 S
C611 C612 1.396 1_556 S
C611 C616 1.390 . S
C612 C606 1.465 1_545 S
C612 C611 1.396 1_554 S
C612 C613 1.399 . S
C613 H599 0.929 . S
C613 C612 1.399 . S
C613 C614 1.385 . S
C614 H600 0.931 . S
C614 C613 1.385 . S
C614 C615 1.389 . S
C615 C614 1.389 . S
C615 C616 1.387 1_554 S
C616 H601 0.930 . S
C616 C611 1.390 . S
C616 C615 1.387 1_556 S
H617 C629 0.930 . S
H618 C631 0.930 . S
H619 C632 0.930 . S
H620 C636 0.974 . S
H621 C636 0.974 . S
H622 C636 0.939 1_545 S
H623 C637 0.960 . S
H624 C637 0.961 . S
H625 C637 0.959 . S
H626 C640 0.929 . S
H627 C641 0.931 . S
H628 C643 0.930 . S
C629 H617 0.930 . S
C629 C630 1.399 . S
C629 C634 1.399 . S
C630 C629 1.399 . S
C630 C631 1.376 . S
C631 H618 0.930 . S
C631 C630 1.376 . S
C631 C632 1.388 . S
C632 H619 0.930 . S
C632 C631 1.388 . S
C632 C633 1.390 . S
C633 C632 1.390 . S
C633 C634 1.394 . S
C633 C639 1.465 1_545 S
C634 C629 1.399 . S
C634 C633 1.394 . S
C634 C635 1.516 . S
C635 C634 1.516 . S
C635 C636 1.496 1_545 S
C635 C637 1.561 . S
C635 C638 1.526 1_545 S
C636 H620 0.974 . S
C636 H621 0.974 . S
C636 H622 0.939 1_565 S
C636 C635 1.496 1_565 S
C637 H623 0.960 . S
C637 H624 0.961 . S
C637 H625 0.959 . S
C637 C635 1.561 . S
C638 C635 1.526 1_565 S
C638 C639 1.396 . S
C638 C643 1.390 . S
C639 C633 1.465 1_565 S
C639 C638 1.396 . S
C639 C640 1.399 . S
C640 H626 0.929 . S
C640 C639 1.399 . S
C640 C641 1.385 . S
C641 H627 0.931 . S
C641 C640 1.385 . S
C641 C642 1.389 . S
C642 C641 1.389 . S
C642 C643 1.387 . S
C643 H628 0.930 . S
C643 C638 1.390 . S
C643 C642 1.387 . S
H644 C656 0.930 . S
H645 C658 0.930 . S
H646 C659 0.930 . S
H647 C663 0.959 . S
H648 C663 0.959 . S
H649 C663 0.961 . S
H650 C664 0.960 . S
H651 C664 0.961 . S
H652 C664 0.959 . S
H653 C667 0.929 . S
H654 C668 0.931 . S
H655 C670 0.930 . S
C656 H644 0.930 . S
C656 C657 1.399 1_556 S
C656 C661 1.399 . S
C657 C656 1.399 1_554 S
C657 C658 1.376 . S
C658 H645 0.930 . S
C658 C657 1.376 . S
C658 C659 1.388 . S
C659 H646 0.930 . S
C659 C658 1.388 . S
C659 C660 1.390 . S
C660 C659 1.390 . S
C660 C661 1.394 1_554 S
C660 C666 1.465 . S
C661 C656 1.399 . S
C661 C660 1.394 1_556 S
C661 C662 1.516 . S
C662 C661 1.516 . S
C662 C663 1.502 . S
C662 C664 1.561 . S
C662 C665 1.526 . S
C663 H647 0.959 . S
C663 H648 0.959 . S
C663 H649 0.961 . S
C663 C662 1.502 . S
C664 H650 0.960 . S
C664 H651 0.961 . S
C664 H652 0.959 . S
C664 C662 1.561 . S
C665 C662 1.526 . S
C665 C666 1.396 1_556 S
C665 C670 1.390 . S
C666 C660 1.465 . S
C666 C665 1.396 1_554 S
C666 C667 1.399 . S
C667 H653 0.929 . S
C667 C666 1.399 . S
C667 C668 1.385 . S
C668 H654 0.931 . S
C668 C667 1.385 . S
C668 C669 1.389 . S
C669 C668 1.389 . S
C669 C670 1.387 1_554 S
C670 H655 0.930 . S
C670 C665 1.390 . S
C670 C669 1.387 1_556 S
H671 C683 0.930 . S
H672 C685 0.930 . S
H673 C686 0.930 . S
H674 C690 0.959 . S
H675 C690 0.959 . S
H676 C690 0.961 . S
H677 C691 0.960 . S
H678 C691 0.961 . S
H679 C691 0.959 . S
H680 C694 0.929 . S
H681 C695 0.931 . S
H682 C697 0.930 . S
C683 H671 0.930 . S
C683 C684 1.399 . S
C683 C688 1.399 . S
C684 C683 1.399 . S
C684 C685 1.376 1_554 S
C685 H672 0.930 . S
C685 C684 1.376 1_556 S
C685 C686 1.388 . S
C686 H673 0.930 . S
C686 C685 1.388 . S
C686 C687 1.390 1_556 S
C687 C686 1.390 1_554 S
C687 C688 1.394 . S
C687 C693 1.465 . S
C688 C683 1.399 . S
C688 C687 1.394 . S
C688 C689 1.516 . S
C689 C688 1.516 . S
C689 C690 1.502 . S
C689 C691 1.561 . S
C689 C692 1.526 . S
C690 H674 0.959 . S
C690 H675 0.959 . S
C690 H676 0.961 . S
C690 C689 1.502 . S
C691 H677 0.960 . S
C691 H678 0.961 . S
C691 H679 0.959 . S
C691 C689 1.561 . S
C692 C689 1.526 . S
C692 C693 1.396 . S
C692 C697 1.390 . S
C693 C687 1.465 . S
C693 C692 1.396 . S
C693 C694 1.399 1_554 S
C694 H680 0.929 . S
C694 C693 1.399 1_556 S
C694 C695 1.385 . S
C695 H681 0.931 . S
C695 C694 1.385 . S
C695 C696 1.389 1_556 S
C696 C695 1.389 1_554 S
C696 C697 1.387 . S
C697 H682 0.930 . S
C697 C692 1.390 . S
C697 C696 1.387 . S
H698 C710 0.930 . S
H699 C712 0.930 . S
H700 C713 0.930 . S
H701 C717 0.959 . S
H702 C717 0.959 . S
H703 C717 0.961 . S
H704 C718 0.960 . S
H705 C718 0.961 . S
H706 C718 0.959 . S
H707 C721 0.929 . S
H708 C722 0.931 . S
H709 C724 0.930 . S
C710 H698 0.930 . S
C710 C711 1.399 . S
C710 C715 1.399 . S
C711 C710 1.399 . S
C711 C712 1.376 . S
C712 H699 0.930 . S
C712 C711 1.376 . S
C712 C713 1.388 . S
C713 H700 0.930 . S
C713 C712 1.388 . S
C713 C714 1.390 . S
C714 C713 1.390 . S
C714 C715 1.394 . S
C714 C720 1.465 . S
C715 C710 1.399 . S
C715 C714 1.394 . S
C715 C716 1.516 . S
C716 C715 1.516 . S
C716 C717 1.502 . S
C716 C718 1.561 . S
C716 C719 1.526 . S
C717 H701 0.959 . S
C717 H702 0.959 . S
C717 H703 0.961 . S
C717 C716 1.502 . S
C718 H704 0.960 . S
C718 H705 0.961 . S
C718 H706 0.959 . S
C718 C716 1.561 . S
C719 C716 1.526 . S
C719 C720 1.396 . S
C719 C724 1.390 . S
C720 C714 1.465 . S
C720 C719 1.396 . S
C720 C721 1.399 . S
C721 H707 0.929 . S
C721 C720 1.399 . S
C721 C722 1.385 . S
C722 H708 0.931 . S
C722 C721 1.385 . S
C722 C723 1.389 . S
C723 C722 1.389 . S
C723 C724 1.387 . S
C724 H709 0.930 . S
C724 C719 1.390 . S
C724 C723 1.387 . S
H725 C737 0.930 . S
H726 C739 0.930 . S
H727 C740 0.930 . S
H728 C744 0.959 . S
H729 C744 0.959 . S
H730 C744 0.961 . S
H731 C745 0.960 . S
H732 C745 0.961 . S
H733 C745 0.959 . S
H734 C748 0.929 . S
H735 C749 0.931 . S
H736 C751 0.930 . S
C737 H725 0.930 . S
C737 C738 1.399 . S
C737 C742 1.399 . S
C738 C737 1.399 . S
C738 C739 1.376 . S
C739 H726 0.930 . S
C739 C738 1.376 . S
C739 C740 1.388 . S
C740 H727 0.930 . S
C740 C739 1.388 . S
C740 C741 1.390 . S
C741 C740 1.390 . S
C741 C742 1.394 . S
C741 C747 1.465 . S
C742 C737 1.399 . S
C742 C741 1.394 . S
C742 C743 1.516 . S
C743 C742 1.516 . S
C743 C744 1.502 . S
C743 C745 1.561 . S
C743 C746 1.526 . S
C744 H728 0.959 . S
C744 H729 0.959 . S
C744 H730 0.961 . S
C744 C743 1.502 . S
C745 H731 0.960 . S
C745 H732 0.961 . S
C745 H733 0.959 . S
C745 C743 1.561 . S
C746 C743 1.526 . S
C746 C747 1.396 . S
C746 C751 1.390 . S
C747 C741 1.465 . S
C747 C746 1.396 . S
C747 C748 1.399 . S
C748 H734 0.929 . S
C748 C747 1.399 . S
C748 C749 1.385 . S
C749 H735 0.931 . S
C749 C748 1.385 . S
C749 C750 1.389 . S
C750 C749 1.389 . S
C750 C751 1.387 . S
C751 H736 0.930 . S
C751 C746 1.390 . S
C751 C750 1.387 . S
H752 C764 0.930 . S
H753 C766 0.930 . S
H754 C767 0.930 . S
H755 C771 0.959 . S
H756 C771 0.959 . S
H757 C771 0.961 . S
H758 C772 0.960 . S
H759 C772 0.961 . S
H760 C772 0.959 . S
H761 C775 0.929 . S
H762 C776 0.931 . S
H763 C778 0.930 . S
C764 H752 0.930 . S
C764 C765 1.399 . S
C764 C769 1.399 . S
C765 C764 1.399 . S
C765 C766 1.376 . S
C766 H753 0.930 . S
C766 C765 1.376 . S
C766 C767 1.388 1_455 S
C767 H754 0.930 . S
C767 C766 1.388 1_655 S
C767 C768 1.390 . S
C768 C767 1.390 . S
C768 C769 1.394 1_655 S
C768 C774 1.465 . S
C769 C764 1.399 . S
C769 C768 1.394 1_455 S
C769 C770 1.516 . S
C770 C769 1.516 . S
C770 C771 1.502 . S
C770 C772 1.561 1_455 S
C770 C773 1.526 1_455 S
C771 H755 0.959 . S
C771 H756 0.959 . S
C771 H757 0.961 . S
C771 C770 1.502 . S
C772 H758 0.960 . S
C772 H759 0.961 . S
C772 H760 0.959 . S
C772 C770 1.561 1_655 S
C773 C770 1.526 1_655 S
C773 C774 1.396 . S
C773 C778 1.390 . S
C774 C768 1.465 . S
C774 C773 1.396 . S
C774 C775 1.399 . S
C775 H761 0.929 . S
C775 C774 1.399 . S
C775 C776 1.385 . S
C776 H762 0.931 . S
C776 C775 1.385 . S
C776 C777 1.389 . S
C777 C776 1.389 . S
C777 C778 1.387 . S
C778 H763 0.930 . S
C778 C773 1.390 . S
C778 C777 1.387 . S
H779 C791 0.930 . S
H780 C793 0.930 . S
H781 C794 0.930 . S
H782 C798 0.959 . S
H783 C798 0.959 . S
H784 C798 0.961 . S
H785 C799 0.960 . S
H786 C799 0.961 . S
H787 C799 0.959 . S
H788 C802 0.929 . S
H789 C803 0.931 . S
H790 C805 0.930 . S
C791 H779 0.930 . S
C791 C792 1.399 . S
C791 C796 1.399 . S
C792 C791 1.399 . S
C792 C793 1.376 . S
C793 H780 0.930 . S
C793 C792 1.376 . S
C793 C794 1.388 . S
C794 H781 0.930 . S
C794 C793 1.388 . S
C794 C795 1.390 . S
C795 C794 1.390 . S
C795 C796 1.394 . S
C795 C801 1.465 . S
C796 C791 1.399 . S
C796 C795 1.394 . S
C796 C797 1.516 1_655 S
C797 C796 1.516 1_455 S
C797 C798 1.502 . S
C797 C799 1.561 1_455 S
C797 C800 1.526 . S
C798 H782 0.959 . S
C798 H783 0.959 . S
C798 H784 0.961 . S
C798 C797 1.502 . S
C799 H785 0.960 . S
C799 H786 0.961 . S
C799 H787 0.959 . S
C799 C797 1.561 1_655 S
C800 C797 1.526 . S
C800 C801 1.396 1_455 S
C800 C805 1.390 . S
C801 C795 1.465 . S
C801 C800 1.396 1_655 S
C801 C802 1.399 . S
C802 H788 0.929 . S
C802 C801 1.399 . S
C802 C803 1.385 1_655 S
C803 H789 0.931 . S
C803 C802 1.385 1_455 S
C803 C804 1.389 . S
C804 C803 1.389 . S
C804 C805 1.387 . S
C805 H790 0.930 . S
C805 C800 1.390 . S
C805 C804 1.387 . S
H806 C818 0.930 . S
H807 C820 0.930 . S
H808 C821 0.930 . S
H809 C825 0.959 . S
H810 C825 0.959 . S
H811 C825 0.961 . S
H812 C826 0.960 . S
H813 C826 0.961 . S
H814 C826 0.959 . S
H815 C829 0.929 . S
H816 C830 0.931 . S
H817 C832 0.930 . S
C818 H806 0.930 . S
C818 C819 1.399 . S
C818 C823 1.399 . S
C819 C818 1.399 . S
C819 C820 1.376 1_655 S
C820 H807 0.930 . S
C820 C819 1.376 1_455 S
C820 C821 1.388 . S
C821 H808 0.930 . S
C821 C820 1.388 . S
C821 C822 1.390 . S
C822 C821 1.390 . S
C822 C823 1.394 1_455 S
C822 C828 1.465 . S
C823 C818 1.399 . S
C823 C822 1.394 1_655 S
C823 C824 1.516 . S
C824 C823 1.516 . S
C824 C825 1.502 . S
C824 C826 1.561 . S
C824 C827 1.526 . S
C825 H809 0.959 . S
C825 H810 0.959 . S
C825 H811 0.961 . S
C825 C824 1.502 . S
C826 H812 0.960 . S
C826 H813 0.961 . S
C826 H814 0.959 . S
C826 C824 1.561 . S
C827 C824 1.526 . S
C827 C828 1.396 1_655 S
C827 C832 1.390 . S
C828 C822 1.465 . S
C828 C827 1.396 1_455 S
C828 C829 1.399 . S
C829 H815 0.929 . S
C829 C828 1.399 . S
C829 C830 1.385 . S
C830 H816 0.931 . S
C830 C829 1.385 . S
C830 C831 1.389 . S
C831 C830 1.389 . S
C831 C832 1.387 1_455 S
C832 H817 0.930 . S
C832 C827 1.390 . S
C832 C831 1.387 1_655 S
H833 C845 0.930 . S
H834 C847 0.930 . S
H835 C848 0.930 . S
H836 C852 0.959 . S
H837 C852 0.959 . S
H838 C852 0.961 . S
H839 C853 0.960 . S
H840 C853 0.961 . S
H841 C853 0.959 . S
H842 C856 0.929 . S
H843 C857 0.931 . S
H844 C859 0.930 . S
C845 H833 0.930 . S
C845 C846 1.399 . S
C845 C850 1.399 . S
C846 C845 1.399 . S
C846 C847 1.376 . S
C847 H834 0.930 . S
C847 C846 1.376 . S
C847 C848 1.388 . S
C848 H835 0.930 . S
C848 C847 1.388 . S
C848 C849 1.390 . S
C849 C848 1.390 . S
C849 C850 1.394 . S
C849 C855 1.465 . S
C850 C845 1.399 . S
C850 C849 1.394 . S
C850 C851 1.516 1_655 S
C851 C850 1.516 1_455 S
C851 C852 1.502 . S
C851 C853 1.561 1_455 S
C851 C854 1.526 . S
C852 H836 0.959 . S
C852 H837 0.959 . S
C852 H838 0.961 . S
C852 C851 1.502 . S
C853 H839 0.960 . S
C853 H840 0.961 . S
C853 H841 0.959 . S
C853 C851 1.561 1_655 S
C854 C851 1.526 . S
C854 C855 1.396 1_455 S
C854 C859 1.390 . S
C855 C849 1.465 . S
C855 C854 1.396 1_655 S
C855 C856 1.399 . S
C856 H842 0.929 . S
C856 C855 1.399 . S
C856 C857 1.385 1_655 S
C857 H843 0.931 . S
C857 C856 1.385 1_455 S
C857 C858 1.389 . S
C858 C857 1.389 . S
C858 C859 1.387 . S
C859 H844 0.930 . S
C859 C854 1.390 . S
C859 C858 1.387 . S
H860 C872 0.930 . S
H861 C874 0.930 . S
H862 C875 0.930 . S
H863 C879 0.959 . S
H864 C879 0.959 . S
H865 C879 0.961 . S
H866 C880 0.960 . S
H867 C880 0.961 . S
H868 C880 0.959 . S
H869 C883 0.929 . S
H870 C884 0.931 . S
H871 C886 0.930 . S
C872 H860 0.930 . S
C872 C873 1.399 . S
C872 C877 1.399 . S
C873 C872 1.399 . S
C873 C874 1.376 . S
C874 H861 0.930 . S
C874 C873 1.376 . S
C874 C875 1.388 . S
C875 H862 0.930 . S
C875 C874 1.388 . S
C875 C876 1.390 . S
C876 C875 1.390 . S
C876 C877 1.394 . S
C876 C882 1.465 . S
C877 C872 1.399 . S
C877 C876 1.394 . S
C877 C878 1.516 . S
C878 C877 1.516 . S
C878 C879 1.502 . S
C878 C880 1.561 . S
C878 C881 1.526 . S
C879 H863 0.959 . S
C879 H864 0.959 . S
C879 H865 0.961 . S
C879 C878 1.502 . S
C880 H866 0.960 . S
C880 H867 0.961 . S
C880 H868 0.959 . S
C880 C878 1.561 . S
C881 C878 1.526 . S
C881 C882 1.396 . S
C881 C886 1.390 . S
C882 C876 1.465 . S
C882 C881 1.396 . S
C882 C883 1.399 . S
C883 H869 0.929 . S
C883 C882 1.399 . S
C883 C884 1.385 . S
C884 H870 0.931 . S
C884 C883 1.385 . S
C884 C885 1.389 . S
C885 C884 1.389 . S
C885 C886 1.387 . S
C886 H871 0.930 . S
C886 C881 1.390 . S
C886 C885 1.387 . S
H887 C899 0.930 . S
H888 C901 0.930 . S
H889 C902 0.930 . S
H890 C906 0.959 . S
H891 C906 0.959 . S
H892 C906 0.961 . S
H893 C907 0.960 . S
H894 C907 0.961 . S
H895 C907 0.959 . S
H896 C910 0.929 . S
H897 C911 0.931 . S
H898 C913 0.930 . S
C899 H887 0.930 . S
C899 C900 1.399 . S
C899 C904 1.399 . S
C900 C899 1.399 . S
C900 C901 1.376 . S
C901 H888 0.930 . S
C901 C900 1.376 . S
C901 C902 1.388 . S
C902 H889 0.930 . S
C902 C901 1.388 . S
C902 C903 1.390 . S
C903 C902 1.390 . S
C903 C904 1.394 . S
C903 C909 1.465 . S
C904 C899 1.399 . S
C904 C903 1.394 . S
C904 C905 1.516 . S
C905 C904 1.516 . S
C905 C906 1.502 . S
C905 C907 1.561 . S
C905 C908 1.526 . S
C906 H890 0.959 . S
C906 H891 0.959 . S
C906 H892 0.961 . S
C906 C905 1.502 . S
C907 H893 0.960 . S
C907 H894 0.961 . S
C907 H895 0.959 . S
C907 C905 1.561 . S
C908 C905 1.526 . S
C908 C909 1.396 . S
C908 C913 1.390 . S
C909 C903 1.465 . S
C909 C908 1.396 . S
C909 C910 1.399 . S
C910 H896 0.929 . S
C910 C909 1.399 . S
C910 C911 1.385 . S
C911 H897 0.931 . S
C911 C910 1.385 . S
C911 C912 1.389 . S
C912 C911 1.389 . S
C912 C913 1.387 . S
C913 H898 0.930 . S
C913 C908 1.390 . S
C913 C912 1.387 . S
H914 C926 0.930 . S
H915 C928 0.930 . S
H916 C929 0.930 . S
H917 C933 0.959 . S
H918 C933 0.959 . S
H919 C933 0.961 . S
H920 C934 0.960 . S
H921 C934 0.961 . S
H922 C934 0.959 . S
H923 C937 0.929 . S
H924 C938 0.931 . S
H925 C940 0.930 . S
C926 H914 0.930 . S
C926 C927 1.399 . S
C926 C931 1.399 . S
C927 C926 1.399 . S
C927 C928 1.376 . S
C928 H915 0.930 . S
C928 C927 1.376 . S
C928 C929 1.388 . S
C929 H916 0.930 . S
C929 C928 1.388 . S
C929 C930 1.390 . S
C930 C929 1.390 . S
C930 C931 1.394 . S
C930 C936 1.465 . S
C931 C926 1.399 . S
C931 C930 1.394 . S
C931 C932 1.516 . S
C932 C931 1.516 . S
C932 C933 1.502 . S
C932 C934 1.561 . S
C932 C935 1.526 . S
C933 H917 0.959 . S
C933 H918 0.959 . S
C933 H919 0.961 . S
C933 C932 1.502 . S
C934 H920 0.960 . S
C934 H921 0.961 . S
C934 H922 0.959 . S
C934 C932 1.561 . S
C935 C932 1.526 . S
C935 C936 1.396 . S
C935 C940 1.390 . S
C936 C930 1.465 . S
C936 C935 1.396 . S
C936 C937 1.399 . S
C937 H923 0.929 . S
C937 C936 1.399 . S
C937 C938 1.385 . S
C938 H924 0.931 . S
C938 C937 1.385 . S
C938 C939 1.389 . S
C939 C938 1.389 . S
C939 C940 1.387 . S
C940 H925 0.930 . S
C940 C935 1.390 . S
C940 C939 1.387 . S
H941 C953 0.930 . S
H942 C955 0.930 . S
H943 C956 0.930 . S
H944 C960 0.959 . S
H945 C960 0.959 . S
H946 C960 0.961 . S
H947 C961 0.960 . S
H948 C961 0.961 . S
H949 C961 0.959 . S
H950 C964 0.929 . S
H951 C965 0.931 . S
H952 C967 0.930 . S
C953 H941 0.930 . S
C953 C954 1.399 . S
C953 C958 1.399 . S
C954 C953 1.399 . S
C954 C955 1.376 . S
C955 H942 0.930 . S
C955 C954 1.376 . S
C955 C956 1.388 . S
C956 H943 0.930 . S
C956 C955 1.388 . S
C956 C957 1.390 . S
C957 C956 1.390 . S
C957 C958 1.394 . S
C957 C963 1.465 . S
C958 C953 1.399 . S
C958 C957 1.394 . S
C958 C959 1.516 . S
C959 C958 1.516 . S
C959 C960 1.502 . S
C959 C961 1.561 . S
C959 C962 1.526 . S
C960 H944 0.959 . S
C960 H945 0.959 . S
C960 H946 0.961 . S
C960 C959 1.502 . S
C961 H947 0.960 . S
C961 H948 0.961 . S
C961 H949 0.959 . S
C961 C959 1.561 . S
C962 C959 1.526 . S
C962 C963 1.396 . S
C962 C967 1.390 . S
C963 C957 1.465 . S
C963 C962 1.396 . S
C963 C964 1.399 . S
C964 H950 0.929 . S
C964 C963 1.399 . S
C964 C965 1.385 . S
C965 H951 0.931 . S
C965 C964 1.385 . S
C965 C966 1.389 . S
C966 C965 1.389 . S
C966 C967 1.387 . S
C967 H952 0.930 . S
C967 C962 1.390 . S
C967 C966 1.387 . S
C333 C19 2.254 . S
C345 C10 2.297 . S
C360 C59 2.272 . S
C372 C50 2.276 . S
C387 C99 2.285 . S
C399 C90 2.279 . S
C414 C139 2.291 . S
C426 C130 2.273 . S
C441 C179 2.275 . S
C453 C170 2.273 . S
C468 C210 2.303 . S
C480 C219 2.254 . S
C495 C259 2.275 . S
C507 C250 2.273 . S
C522 C290 2.256 . S
C534 C299 2.294 . S
C549 C55 2.585 . S
C561 C6 2.645 . S
C576 C126 2.598 . S
C588 C95 2.624 . S
C603 C166 2.635 . S
C615 C215 2.606 . S
C630 C255 2.614 . S
C642 C286 2.611 . S
C657 C15 1.833 . S
C669 C206 1.827 . S
C684 C175 1.794 . S
C696 C46 1.853 . S
C711 C86 1.810 . S
C723 C295 1.831 . S
C738 C135 1.798 . S
C750 C246 1.846 . S
C765 C9 1.497 . S
C777 C129 1.506 . S
C792 C49 1.620 . S
C804 C89 1.599 . S
C819 C58 1.469 . S
C831 C98 1.468 . S
C846 C138 1.567 . S
C858 C18 1.537 . S
C873 C169 1.470 . S
C885 C289 1.491 . S
C900 C209 1.620 . S
C912 C249 1.599 . S
C927 C218 1.436 . S
C939 C258 1.437 . S
C954 C298 1.571 . S
C966 C178 1.537 . S
