# Generated by pormake.
# Topology ske, (6)-cn, num edge types: 1
# Building blocks:
#     Node 0, Type 0, BuildingBlock: BETDEL_clean_sbu_0, # of connection points: 6
#     Node 1, Type 0, BuildingBlock: BETDEL_clean_sbu_0, # of connection points: 6
#     Node 2, Type 0, BuildingBlock: BETDEL_clean_sbu_0, # of connection points: 6
#     Node 3, Type 0, BuildingBlock: BETDEL_clean_sbu_0, # of connection points: 6
#     Node 4, Type 0, BuildingBlock: BETDEL_clean_sbu_0, # of connection points: 6
#     Node 5, Type 0, BuildingBlock: BETDEL_clean_sbu_0, # of connection points: 6
#     Node 6, Type 0, BuildingBlock: BETDEL_clean_sbu_0, # of connection points: 6
#     Node 7, Type 0, BuildingBlock: BETDEL_clean_sbu_0, # of connection points: 6
#     Edge 8, Type (0, 0), BuildingBlock: AJUNOK_clean_linker_0, # of connection points: 2
#     Edge 9, Type (0, 0), BuildingBlock: AJUNOK_clean_linker_0, # of connection points: 2
#     Edge 10, Type (0, 0), BuildingBlock: AJUNOK_clean_linker_0, # of connection points: 2
#     Edge 11, Type (0, 0), BuildingBlock: AJUNOK_clean_linker_0, # of connection points: 2
#     Edge 12, Type (0, 0), BuildingBlock: AJUNOK_clean_linker_0, # of connection points: 2
#     Edge 13, Type (0, 0), BuildingBlock: AJUNOK_clean_linker_0, # of connection points: 2
#     Edge 14, Type (0, 0), BuildingBlock: AJUNOK_clean_linker_0, # of connection points: 2
#     Edge 15, Type (0, 0), BuildingBlock: AJUNOK_clean_linker_0, # of connection points: 2
#     Edge 16, Type (0, 0), BuildingBlock: AJUNOK_clean_linker_0, # of connection points: 2
#     Edge 17, Type (0, 0), BuildingBlock: AJUNOK_clean_linker_0, # of connection points: 2
#     Edge 18, Type (0, 0), BuildingBlock: AJUNOK_clean_linker_0, # of connection points: 2
#     Edge 19, Type (0, 0), BuildingBlock: AJUNOK_clean_linker_0, # of connection points: 2
#     Edge 20, Type (0, 0), BuildingBlock: AJUNOK_clean_linker_0, # of connection points: 2
#     Edge 21, Type (0, 0), BuildingBlock: AJUNOK_clean_linker_0, # of connection points: 2
#     Edge 22, Type (0, 0), BuildingBlock: AJUNOK_clean_linker_0, # of connection points: 2
#     Edge 23, Type (0, 0), BuildingBlock: AJUNOK_clean_linker_0, # of connection points: 2
#     Edge 24, Type (0, 0), BuildingBlock: AJUNOK_clean_linker_0, # of connection points: 2
#     Edge 25, Type (0, 0), BuildingBlock: AJUNOK_clean_linker_0, # of connection points: 2
#     Edge 26, Type (0, 0), BuildingBlock: AJUNOK_clean_linker_0, # of connection points: 2
#     Edge 27, Type (0, 0), BuildingBlock: AJUNOK_clean_linker_0, # of connection points: 2
#     Edge 28, Type (0, 0), BuildingBlock: AJUNOK_clean_linker_0, # of connection points: 2
#     Edge 29, Type (0, 0), BuildingBlock: AJUNOK_clean_linker_0, # of connection points: 2
#     Edge 30, Type (0, 0), BuildingBlock: AJUNOK_clean_linker_0, # of connection points: 2
#     Edge 31, Type (0, 0), BuildingBlock: AJUNOK_clean_linker_0, # of connection points: 2
# Relax obj value: 0.151
# Max RMSD: 0.162
# Mean RMSD: 0.159
data_MOF--net-ske--node1-BETDEL_clean_sbu_0--edge1-AJUNOK_clean_linker_0
_symmetry_space_group_name_H-M    P1
_symmetry_Int_Tables_number       1
_symmetry_cell_setting            triclinic
loop_
_symmetry_equiv_pos_as_xyz
'x, y, z'
_cell_length_a     55.459098
_cell_length_b     20.807461
_cell_length_c     11.414777
_cell_angle_alpha  89.854726
_cell_angle_beta   89.98118
_cell_angle_gamma 83.584277
loop_
_atom_site_label
_atom_site_type_symbol
_atom_site_fract_x
_atom_site_fract_y
_atom_site_fract_z
_atom_type_partial_charge
Dy0 Dy 0.17363 0.26607 0.56537 0.0
C1 C 0.07111 0.27091 0.55429 0.0
C2 C 0.22095 0.27435 0.62659 0.0
Dy3 Dy 0.12015 0.27495 0.56684 0.0
O4 O 0.21339 0.22989 0.56112 0.0
O5 O 0.2028 0.31706 0.65136 0.0
O6 O 0.17758 0.16676 0.49379 0.0
O7 O 0.14795 0.19484 0.60592 0.0
C8 C 0.15745 0.15144 0.5371 0.0
C9 C 0.13716 0.39197 0.57109 0.0
O10 O 0.1275 0.24705 0.75406 0.0
O11 O 0.16471 0.28444 0.75277 0.0
O12 O 0.08272 0.29102 0.64261 0.0
O13 O 0.08638 0.25104 0.47232 0.0
O14 O 0.11759 0.3789 0.62275 0.0
O15 O 0.14577 0.34331 0.51381 0.0
O16 O 0.16695 0.28906 0.37688 0.0
O17 O 0.12881 0.25384 0.37723 0.0
C18 C 0.14611 0.26653 0.81058 0.0
C19 C 0.14804 0.27045 0.32011 0.0
Dy20 Dy 0.8619 0.27806 0.55566 0.0
C21 C 0.96617 0.28873 0.54917 0.0
C22 C 0.81542 0.2863 0.63731 0.0
Dy23 Dy 0.91851 0.26863 0.55385 0.0
O24 O 0.83165 0.32311 0.66816 0.0
O25 O 0.82431 0.24545 0.55717 0.0
O26 O 0.86037 0.37164 0.45915 0.0
O27 O 0.88905 0.34713 0.57757 0.0
C28 C 0.88069 0.38726 0.50017 0.0
C29 C 0.90468 0.14843 0.5459 0.0
O30 O 0.91042 0.28365 0.74511 0.0
O31 O 0.87249 0.24827 0.73808 0.0
O32 O 0.95148 0.29739 0.46035 0.0
O33 O 0.95456 0.27164 0.64075 0.0
O34 O 0.92716 0.15984 0.54546 0.0
O35 O 0.89163 0.20172 0.55207 0.0
O36 O 0.86894 0.24832 0.36972 0.0
O37 O 0.90775 0.28161 0.36432 0.0
C38 C 0.89116 0.26465 0.79815 0.0
C39 C 0.88839 0.26277 0.31088 0.0
Dy40 Dy 0.11804 0.77706 0.43614 0.0
C41 C 0.21966 0.76293 0.35717 0.0
C42 C 0.06893 0.77144 0.45403 0.0
Dy43 Dy 0.17254 0.76648 0.43233 0.0
O44 O 0.07934 0.81354 0.39438 0.0
O45 O 0.08546 0.73118 0.50395 0.0
O46 O 0.11586 0.88131 0.38037 0.0
O47 O 0.14461 0.84302 0.48463 0.0
C48 C 0.13594 0.89268 0.42971 0.0
C49 C 0.15516 0.65442 0.47069 0.0
O50 O 0.16774 0.78166 0.62508 0.0
O51 O 0.127 0.76373 0.62775 0.0
O52 O 0.2051 0.71989 0.33626 0.0
O53 O 0.20869 0.80803 0.42374 0.0
O54 O 0.17524 0.66991 0.5149 0.0
O55 O 0.14606 0.69699 0.39852 0.0
O56 O 0.12576 0.75246 0.24827 0.0
O57 O 0.16096 0.79991 0.25332 0.0
C58 C 0.14757 0.7721 0.68276 0.0
C59 C 0.14366 0.77673 0.19322 0.0
Dy60 Dy 0.91488 0.76881 0.44063 0.0
C61 C 0.81332 0.77355 0.36809 0.0
C62 C 0.96377 0.77518 0.46831 0.0
Dy63 Dy 0.86043 0.77661 0.43756 0.0
O64 O 0.95183 0.72984 0.50861 0.0
O65 O 0.94886 0.81802 0.4145 0.0
O66 O 0.91678 0.66849 0.36542 0.0
O67 O 0.889 0.69983 0.48204 0.0
C68 C 0.89756 0.6533 0.41889 0.0
C69 C 0.87645 0.89028 0.48015 0.0
O70 O 0.86597 0.75782 0.62808 0.0
O71 O 0.90492 0.78895 0.6291 0.0
O72 O 0.82623 0.82087 0.3514 0.0
O73 O 0.82588 0.72799 0.42805 0.0
O74 O 0.85665 0.87237 0.52379 0.0
O75 O 0.88611 0.84837 0.40834 0.0
O76 O 0.90891 0.78495 0.24905 0.0
O77 O 0.87103 0.75019 0.25418 0.0
C78 C 0.8854 0.77313 0.68509 0.0
C79 C 0.88975 0.7668 0.19495 0.0
Dy80 Dy 0.67324 0.76756 0.06221 0.0
C81 C 0.5697 0.77244 0.04501 0.0
C82 C 0.72062 0.76424 0.1323 0.0
Dy83 Dy 0.61886 0.77798 0.0627 0.0
O84 O 0.70696 0.71826 0.14507 0.0
O85 O 0.70864 0.81227 0.07601 0.0
O86 O 0.67582 0.67331 0.974 0.0
O87 O 0.64713 0.69656 0.09495 0.0
C88 C 0.65637 0.65514 0.02062 0.0
C89 C 0.6372 0.89353 0.07143 0.0
O90 O 0.62675 0.74819 0.2466 0.0
O91 O 0.66237 0.79397 0.2466 0.0
O92 O 0.58018 0.81129 0.11149 0.0
O93 O 0.58618 0.73543 0.98832 0.0
O94 O 0.61717 0.8822 0.12158 0.0
O95 O 0.64521 0.84436 0.01417 0.0
O96 O 0.66769 0.78334 0.86887 0.0
O97 O 0.62708 0.76488 0.87215 0.0
C98 C 0.64455 0.771 0.30392 0.0
C99 C 0.64722 0.77323 0.81412 0.0
Dy100 Dy 0.3608 0.77378 0.06104 0.0
C101 C 0.46451 0.77488 0.02844 0.0
C102 C 0.31364 0.7713 0.13132 0.0
Dy103 Dy 0.41572 0.76561 0.05511 0.0
O104 O 0.32718 0.81651 0.15401 0.0
O105 O 0.32564 0.72752 0.06559 0.0
O106 O 0.35687 0.87046 0.97743 0.0
O107 O 0.38687 0.8449 0.08917 0.0
C108 C 0.37692 0.88765 0.01924 0.0
C109 C 0.39829 0.64972 0.07501 0.0
O110 O 0.40977 0.77941 0.24746 0.0
O111 O 0.37178 0.74505 0.24329 0.0
O112 O 0.45264 0.73156 0.98054 0.0
O113 O 0.44955 0.8142 0.08919 0.0
O114 O 0.41842 0.66295 0.1223 0.0
O115 O 0.38946 0.69774 0.01576 0.0
O116 O 0.36645 0.75538 0.86998 0.0
O117 O 0.40529 0.7875 0.8676 0.0
C118 C 0.39064 0.7611 0.30201 0.0
C119 C 0.38578 0.7712 0.81226 0.0
Dy120 Dy 0.61779 0.27539 0.94322 0.0
C121 C 0.7208 0.28155 0.85689 0.0
C122 C 0.56907 0.27216 0.92787 0.0
Dy123 Dy 0.67479 0.27186 0.93361 0.0
O124 O 0.58137 0.31116 0.86985 0.0
O125 O 0.58357 0.23303 0.99214 0.0
O126 O 0.61556 0.37098 0.03222 0.0
O127 O 0.64364 0.34653 0.91161 0.0
C128 C 0.63509 0.38834 0.98556 0.0
C129 C 0.66171 0.15058 0.95425 0.0
O130 O 0.6674 0.28509 0.12722 0.0
O131 O 0.62892 0.24881 0.12639 0.0
O132 O 0.70578 0.24449 0.8141 0.0
O133 O 0.71079 0.31433 0.94583 0.0
O134 O 0.68399 0.16359 0.95394 0.0
O135 O 0.64845 0.20326 0.94493 0.0
O136 O 0.62576 0.25275 0.75396 0.0
O137 O 0.66295 0.29279 0.74899 0.0
C138 C 0.6483 0.26521 0.18276 0.0
C139 C 0.6444 0.27122 0.69502 0.0
Dy140 Dy 0.41698 0.26952 0.94684 0.0
C141 C 0.31238 0.24954 0.87972 0.0
C142 C 0.46423 0.29231 0.95697 0.0
Dy143 Dy 0.35798 0.27399 0.94164 0.0
O144 O 0.45313 0.2614 0.03568 0.0
O145 O 0.44915 0.31338 0.87445 0.0
O146 O 0.42534 0.16068 0.9529 0.0
O147 O 0.38984 0.20266 0.94771 0.0
C148 C 0.40284 0.14908 0.95538 0.0
C149 C 0.3728 0.39397 0.95426 0.0
O150 O 0.36711 0.25019 0.12917 0.0
O151 O 0.40466 0.2919 0.13109 0.0
O152 O 0.31741 0.28422 0.96966 0.0
O153 O 0.33234 0.22556 0.82939 0.0
O154 O 0.35018 0.38329 0.95175 0.0
O155 O 0.3853 0.34001 0.94503 0.0
O156 O 0.40991 0.27598 0.7529 0.0
O157 O 0.3682 0.26781 0.7528 0.0
C158 C 0.38594 0.27023 0.18603 0.0
C159 C 0.38908 0.27071 0.69798 0.0
C160 C 0.24879 0.311 0.77912 0.0
C161 C 0.24464 0.26808 0.68798 0.0
C162 C 0.27025 0.30272 0.84552 0.0
C163 C 0.28837 0.25143 0.82271 0.0
H164 H 0.2353 0.3511 0.79994 0.0
H165 H 0.27293 0.33783 0.91285 0.0
S166 S 0.28571 0.12324 0.59931 0.0
N167 N 0.26001 0.17061 0.58248 0.0
N168 N 0.30032 0.15553 0.70631 0.0
C169 C 0.28426 0.20756 0.73339 0.0
C170 C 0.26242 0.21582 0.66618 0.0
C171 C 0.75188 0.24646 0.70601 0.0
C172 C 0.74513 0.28498 0.80486 0.0
C173 C 0.7745 0.24759 0.65183 0.0
C174 C 0.79129 0.28755 0.69382 0.0
H175 H 0.73958 0.21481 0.66966 0.0
H176 H 0.77884 0.21679 0.57663 0.0
S177 S 0.78286 0.39695 0.95128 0.0
N178 N 0.75724 0.36363 0.94331 0.0
N179 N 0.79985 0.36622 0.84174 0.0
C180 C 0.78485 0.32641 0.79275 0.0
C181 C 0.76176 0.32503 0.84823 0.0
C182 C 0.27966 0.8182 0.26009 0.0
C183 C 0.2894 0.76817 0.18494 0.0
C184 C 0.25732 0.8158 0.31713 0.0
C185 C 0.24385 0.7632 0.30138 0.0
H186 H 0.28942 0.85966 0.27557 0.0
H187 H 0.25051 0.85565 0.37327 0.0
S188 S 0.26137 0.61937 0.11464 0.0
N189 N 0.28387 0.66433 0.09864 0.0
N190 N 0.24196 0.65951 0.20518 0.0
C191 C 0.25341 0.71273 0.22662 0.0
C192 C 0.27614 0.71528 0.16852 0.0
C193 C 0.757 0.81985 0.18362 0.0
C194 C 0.74465 0.76457 0.18927 0.0
C195 C 0.77897 0.82246 0.24365 0.0
C196 C 0.7894 0.77001 0.31193 0.0
H197 H 0.74957 0.86165 0.13332 0.0
H198 H 0.78787 0.86605 0.23601 0.0
S199 S 0.76444 0.61364 0.35448 0.0
N200 N 0.74462 0.65566 0.26811 0.0
N201 N 0.78582 0.66097 0.38058 0.0
C202 C 0.7773 0.71439 0.31808 0.0
C203 C 0.75496 0.71158 0.25674 0.0
C204 C 0.12411 1.01247 0.4401 0.0
C205 C 0.14129 0.95851 0.46156 0.0
C206 C 0.12864 0.07508 0.47282 0.0
C207 C 0.1506 0.08558 0.52655 0.0
H208 H 0.10708 1.00644 0.39732 0.0
H209 H 0.11538 0.11568 0.45138 0.0
S210 S 0.2011 0.96121 0.60583 0.0
N211 N 0.18066 0.92009 0.54463 0.0
N212 N 0.1894 0.03775 0.60237 0.0
C213 C 0.16771 0.03224 0.55005 0.0
C214 C 0.163 0.96863 0.51854 0.0
C215 C 0.89659 0.47247 0.37891 0.0
C216 C 0.88743 0.45313 0.48656 0.0
C217 C 0.89998 0.53742 0.35793 0.0
C218 C 0.89353 0.58532 0.44255 0.0
H219 H 0.90088 0.43727 0.31005 0.0
H220 H 0.90722 0.55046 0.27407 0.0
S221 S 0.86843 0.55855 0.73837 0.0
N222 N 0.87208 0.48588 0.67866 0.0
N223 N 0.8777 0.60818 0.63906 0.0
C224 C 0.88427 0.56622 0.55066 0.0
C225 C 0.88139 0.49997 0.5727 0.0
C226 C 0.90655 0.97108 0.4666 0.0
C227 C 0.88304 0.95688 0.49368 0.0
C228 C 0.91331 0.03332 0.48436 0.0
C229 C 0.89667 0.08387 0.52761 0.0
H230 H 0.91992 0.93367 0.43344 0.0
H231 H 0.93174 0.04191 0.4635 0.0
S232 S 0.83262 0.07268 0.60828 0.0
N233 N 0.84288 0.99908 0.56452 0.0
N234 N 0.85566 0.11603 0.5951 0.0
C235 C 0.87301 0.07074 0.55292 0.0
C236 C 0.86619 1.0072 0.53673 0.0
C237 C 0.12764 0.5747 0.53489 0.0
C238 C 0.14904 0.58776 0.47871 0.0
C239 C 0.12399 0.5111 0.56555 0.0
C240 C 0.14157 0.45867 0.54 0.0
H241 H 0.11416 0.614 0.55993 0.0
H242 H 0.10735 0.50311 0.61031 0.0
S243 S 0.20036 0.46829 0.38983 0.0
N244 N 0.18781 0.54401 0.39663 0.0
N245 N 0.18082 0.42446 0.45201 0.0
C246 C 0.16277 0.47133 0.48105 0.0
C247 C 0.16654 0.53595 0.45103 0.0
C248 C 0.63352 0.56319 0.08273 0.0
C249 C 0.65066 0.58753 0.00926 0.0
C250 C 0.62902 0.49825 0.07556 0.0
C251 C 0.64145 0.45532 0.99466 0.0
H252 H 0.62366 0.59428 0.1467 0.0
H253 H 0.61557 0.48164 0.13382 0.0
S254 S 0.68783 0.49525 0.78094 0.0
N255 N 0.6799 0.56362 0.85112 0.0
N256 N 0.67148 0.44188 0.83944 0.0
C257 C 0.65862 0.47899 0.9208 0.0
C258 C 0.66315 0.54506 0.92748 0.0
C259 C 0.40721 0.96831 0.01471 0.0
C260 C 0.38302 0.95496 0.00932 0.0
C261 C 0.41324 0.03137 0.99662 0.0
C262 C 0.39529 0.08366 0.97463 0.0
H263 H 0.42161 0.9296 0.02986 0.0
H264 H 0.43223 0.03906 0.99968 0.0
S265 S 0.32901 0.07498 0.96294 0.0
N266 N 0.34079 0.99959 0.98585 0.0
N267 N 0.35225 0.11803 0.95667 0.0
C268 C 0.37099 0.07121 0.97322 0.0
C269 C 0.36484 1.00686 0.98927 0.0
C270 C 0.36395 0.51326 0.97023 0.0
C271 C 0.38081 0.45783 0.98221 0.0
C272 C 0.36974 0.57461 0.00241 0.0
C273 C 0.39252 0.58314 0.04992 0.0
H274 H 0.346 0.50933 0.93538 0.0
H275 H 0.35621 0.61578 0.98984 0.0
S276 S 0.44325 0.45361 0.1 0.0
N277 N 0.42138 0.41539 0.04412 0.0
N278 N 0.43224 0.53064 0.10715 0.0
C279 C 0.4096 0.52809 0.0632 0.0
C280 C 0.40378 0.46547 0.02844 0.0
C281 C 0.633 0.07712 0.03922 0.0
C282 C 0.65453 0.08562 0.97885 0.0
C283 C 0.62769 1.01486 0.07182 0.0
C284 C 0.64353 0.95926 0.04331 0.0
H285 H 0.62054 0.1187 0.06379 0.0
H286 H 0.61098 1.01029 0.11871 0.0
S287 S 0.70162 0.95621 0.88079 0.0
N288 N 0.69142 0.03364 0.88971 0.0
N289 N 0.6812 0.91743 0.94797 0.0
C290 C 0.66485 0.96756 0.98122 0.0
C291 C 0.67037 0.03055 0.94967 0.0
C292 C 0.13001 0.24066 0.12946 0.0
C293 C 0.14785 0.27039 0.19045 0.0
C294 C 0.12944 0.23975 0.00669 0.0
C295 C 0.14671 0.26849 0.94028 0.0
H296 H 0.11641 0.21738 0.1767 0.0
H297 H 0.11547 0.21592 0.96381 0.0
S298 S 0.19653 0.35577 0.05771 0.0
N299 N 0.18271 0.3313 0.17488 0.0
N300 N 0.18175 0.32977 0.94519 0.0
C301 C 0.16451 0.2991 0.00035 0.0
C302 C 0.16507 0.29998 0.12511 0.0
C303 C 0.90976 0.27209 0.11865 0.0
C304 C 0.88857 0.26074 0.18026 0.0
C305 C 0.9105 0.27275 0.9958 0.0
C306 C 0.8901 0.262 0.92861 0.0
H307 H 0.92605 0.28091 0.16541 0.0
H308 H 0.92726 0.282 0.95344 0.0
S309 S 0.82987 0.23043 0.04608 0.0
N310 N 0.84654 0.23858 0.16366 0.0
N311 N 0.84783 0.23983 0.93358 0.0
C312 C 0.86876 0.25018 0.98891 0.0
C313 C 0.86803 0.24952 0.11424 0.0
C314 C 0.12645 0.75389 0.99669 0.0
C315 C 0.145 0.77677 0.06326 0.0
C316 C 0.12756 0.75232 0.87408 0.0
C317 C 0.14732 0.77335 0.81275 0.0
H318 H 0.11089 0.7369 0.03934 0.0
H319 H 0.11277 0.73412 0.82725 0.0
S320 S 0.20076 0.83803 0.94542 0.0
N321 N 0.18392 0.82111 0.0581 0.0
N322 N 0.18586 0.81827 0.82824 0.0
C323 C 0.16605 0.7963 0.8781 0.0
C324 C 0.16492 0.79806 0.00305 0.0
C325 C 0.90567 0.79207 0.87583 0.0
C326 C 0.88592 0.77091 0.81493 0.0
C327 C 0.90698 0.78964 0.99831 0.0
C328 C 0.8886 0.76587 0.0651 0.0
H329 H 0.92031 0.81107 0.82883 0.0
H330 H 0.92243 0.80719 0.04071 0.0
S331 S 0.83325 0.70234 0.94829 0.0
N332 N 0.84775 0.72408 0.83106 0.0
N333 N 0.85016 0.71908 0.06053 0.0
C334 C 0.86883 0.7438 0.00525 0.0
C335 C 0.86748 0.74648 0.88051 0.0
C336 C 0.66573 0.78437 0.49454 0.0
C337 C 0.64475 0.7711 0.43367 0.0
C338 C 0.66647 0.78475 0.61731 0.0
C339 C 0.64622 0.7721 0.68414 0.0
H340 H 0.68185 0.79428 0.44719 0.0
H341 H 0.68303 0.79523 0.65981 0.0
S342 S 0.58661 0.73529 0.56666 0.0
N343 N 0.60314 0.7456 0.44944 0.0
N344 N 0.60436 0.74594 0.67912 0.0
C345 C 0.62506 0.75877 0.62403 0.0
C346 C 0.62437 0.75833 0.49918 0.0
C347 C 0.40568 0.79139 0.62058 0.0
C348 C 0.38637 0.76822 0.68227 0.0
C349 C 0.40721 0.78771 0.49815 0.0
C350 C 0.3895 0.76068 0.43208 0.0
H351 H 0.41979 0.81294 0.6669 0.0
H352 H 0.42226 0.80705 0.45516 0.0
S353 S 0.33566 0.69047 0.55117 0.0
N354 N 0.34945 0.71559 0.66766 0.0
N355 N 0.35225 0.70847 0.43834 0.0
C356 C 0.3702 0.73655 0.49275 0.0
C357 C 0.36864 0.74046 0.61744 0.0
C358 C 0.66386 0.2963 0.37918 0.0
C359 C 0.64772 0.26335 0.31334 0.0
C360 C 0.66253 0.29868 0.50198 0.0
C361 C 0.64497 0.26828 0.56457 0.0
H362 H 0.67741 0.32153 0.33568 0.0
H363 H 0.67532 0.32523 0.54793 0.0
S364 S 0.59946 0.17148 0.43467 0.0
N365 N 0.61432 0.19647 0.32113 0.0
N366 N 0.61179 0.20157 0.55093 0.0
C367 C 0.62898 0.23419 0.50004 0.0
C368 C 0.63037 0.2315 0.37496 0.0
C369 C 0.40489 0.29638 0.37781 0.0
C370 C 0.38645 0.26887 0.31659 0.0
C371 C 0.40597 0.29577 0.50076 0.0
C372 C 0.38855 0.26803 0.56781 0.0
H373 H 0.41863 0.31915 0.33071 0.0
H374 H 0.42029 0.31833 0.54344 0.0
S375 S 0.33756 0.18521 0.45142 0.0
N376 N 0.35106 0.21012 0.33367 0.0
N377 N 0.35302 0.20898 0.56368 0.0
C378 C 0.37027 0.23927 0.5079 0.0
C379 C 0.36922 0.23972 0.3828 0.0
C380 C 0.03091 0.28641 0.6517 0.0
C381 C 0.04442 0.275 0.54815 0.0
C382 C 1.00555 0.29235 0.65027 0.0
C383 C 0.99274 0.28835 0.54496 0.0
H384 H 0.03998 0.29016 0.73506 0.0
H385 H 0.99591 0.29982 0.73257 0.0
S386 S 0.01955 0.26019 0.24924 0.0
N387 N 0.04321 0.26032 0.33712 0.0
N388 N 0.99533 0.27281 0.33402 0.0
C389 C 1.00596 0.27804 0.44027 0.0
C390 C 0.03189 0.27087 0.442 0.0
C391 C 1.00161 0.82256 0.41232 0.0
C392 C 0.99054 0.77457 0.4722 0.0
C393 C 0.02694 0.82098 0.40777 0.0
C394 C 0.04225 0.77147 0.46317 0.0
H395 H 0.99065 0.86123 0.36699 0.0
H396 H 0.03457 0.85883 0.35957 0.0
S397 S 0.02239 0.63525 0.6347 0.0
N398 N 0.99685 0.67665 0.59049 0.0
N399 N 0.04448 0.67402 0.58216 0.0
C400 C 0.03146 0.72371 0.52503 0.0
C401 C 1.0056 0.7252 0.52949 0.0
C402 C 0.52763 0.81769 0.10038 0.0
C403 C 0.54299 0.77249 0.03548 0.0
C404 C 0.50229 0.81906 0.09523 0.0
C405 C 0.49127 0.77514 0.02526 0.0
H406 H 0.53521 0.85223 0.1565 0.0
H407 H 0.49129 0.85424 0.14804 0.0
S408 S 0.52327 0.64839 0.83518 0.0
N409 N 0.5453 0.6838 0.89644 0.0
N410 N 0.4977 0.68597 0.88716 0.0
C411 C 0.50639 0.73022 0.9585 0.0
C412 C 0.53224 0.72898 0.96351 0.0
C413 C 0.50544 0.25121 0.02831 0.0
C414 C 0.49081 0.29166 0.9515 0.0
C415 C 0.53075 0.24409 0.01832 0.0
C416 C 0.54234 0.27769 0.93193 0.0
H417 H 0.49729 0.22371 0.09543 0.0
H418 H 0.54129 0.21239 0.07935 0.0
S419 S 0.51229 0.3912 0.71141 0.0
N420 N 0.48969 0.36655 0.78741 0.0
N421 N 0.53735 0.35399 0.76938 0.0
C422 C 0.52796 0.31906 0.85554 0.0
C423 C 0.50215 0.32592 0.86522 0.0
loop_
_geom_bond_atom_site_label_1
_geom_bond_atom_site_label_2
_geom_bond_distance
_geom_bond_site_symmetry_2
_ccdc_geom_bond_type
Dy0 O4 2.398 . S
Dy0 O5 2.491 . S
Dy0 O6 2.403 . S
Dy0 O7 2.664 . S
Dy0 O11 2.326 . S
Dy0 O15 2.310 . S
Dy0 O16 2.351 . S
C1 O12 1.185 . S
C1 O13 1.355 . S
C2 O4 1.185 . S
C2 O5 1.355 . S
Dy3 O7 2.310 . S
Dy3 O10 2.351 . S
Dy3 O12 2.398 . S
Dy3 O13 2.491 . S
Dy3 O14 2.403 . S
Dy3 O15 2.664 . S
Dy3 O17 2.326 . S
O4 Dy0 2.398 . S
O4 C2 1.185 . S
O5 Dy0 2.491 . S
O5 C2 1.355 . S
O6 Dy0 2.403 . S
O6 C8 1.254 . S
O7 Dy0 2.664 . S
O7 Dy3 2.310 . S
O7 C8 1.268 . S
C8 O6 1.254 . S
C8 O7 1.268 . S
C9 O14 1.254 . S
C9 O15 1.268 . S
O10 Dy3 2.351 . S
O10 C18 1.249 . S
O11 Dy0 2.326 . S
O11 C18 1.267 . S
O12 C1 1.185 . S
O12 Dy3 2.398 . S
O13 C1 1.355 . S
O13 Dy3 2.491 . S
O14 Dy3 2.403 . S
O14 C9 1.254 . S
O15 Dy0 2.310 . S
O15 Dy3 2.664 . S
O15 C9 1.268 . S
O16 Dy0 2.351 . S
O16 C19 1.249 . S
O17 Dy3 2.326 . S
O17 C19 1.267 . S
C18 O10 1.249 . S
C18 O11 1.267 . S
C19 O16 1.249 . S
C19 O17 1.267 . S
Dy20 O24 2.398 . S
Dy20 O25 2.491 . S
Dy20 O26 2.403 . S
Dy20 O27 2.664 . S
Dy20 O31 2.326 . S
Dy20 O35 2.310 . S
Dy20 O36 2.351 . S
C21 O32 1.185 . S
C21 O33 1.355 . S
C22 O24 1.185 . S
C22 O25 1.355 . S
Dy23 O27 2.310 . S
Dy23 O30 2.351 . S
Dy23 O32 2.398 . S
Dy23 O33 2.491 . S
Dy23 O34 2.403 . S
Dy23 O35 2.664 . S
Dy23 O37 2.326 . S
O24 Dy20 2.398 . S
O24 C22 1.185 . S
O25 Dy20 2.491 . S
O25 C22 1.355 . S
O26 Dy20 2.403 . S
O26 C28 1.254 . S
O27 Dy20 2.664 . S
O27 Dy23 2.310 . S
O27 C28 1.268 . S
C28 O26 1.254 . S
C28 O27 1.268 . S
C29 O34 1.254 . S
C29 O35 1.268 . S
O30 Dy23 2.351 . S
O30 C38 1.249 . S
O31 Dy20 2.326 . S
O31 C38 1.267 . S
O32 C21 1.185 . S
O32 Dy23 2.398 . S
O33 C21 1.355 . S
O33 Dy23 2.491 . S
O34 Dy23 2.403 . S
O34 C29 1.254 . S
O35 Dy20 2.310 . S
O35 Dy23 2.664 . S
O35 C29 1.268 . S
O36 Dy20 2.351 . S
O36 C39 1.249 . S
O37 Dy23 2.326 . S
O37 C39 1.267 . S
C38 O30 1.249 . S
C38 O31 1.267 . S
C39 O36 1.249 . S
C39 O37 1.267 . S
Dy40 O44 2.398 . S
Dy40 O45 2.491 . S
Dy40 O46 2.403 . S
Dy40 O47 2.664 . S
Dy40 O51 2.326 . S
Dy40 O55 2.310 . S
Dy40 O56 2.351 . S
C41 O52 1.185 . S
C41 O53 1.355 . S
C42 O44 1.185 . S
C42 O45 1.355 . S
Dy43 O47 2.310 . S
Dy43 O50 2.351 . S
Dy43 O52 2.398 . S
Dy43 O53 2.491 . S
Dy43 O54 2.403 . S
Dy43 O55 2.664 . S
Dy43 O57 2.326 . S
O44 Dy40 2.398 . S
O44 C42 1.185 . S
O45 Dy40 2.491 . S
O45 C42 1.355 . S
O46 Dy40 2.403 . S
O46 C48 1.254 . S
O47 Dy40 2.664 . S
O47 Dy43 2.310 . S
O47 C48 1.268 . S
C48 O46 1.254 . S
C48 O47 1.268 . S
C49 O54 1.254 . S
C49 O55 1.268 . S
O50 Dy43 2.351 . S
O50 C58 1.249 . S
O51 Dy40 2.326 . S
O51 C58 1.267 . S
O52 C41 1.185 . S
O52 Dy43 2.398 . S
O53 C41 1.355 . S
O53 Dy43 2.491 . S
O54 Dy43 2.403 . S
O54 C49 1.254 . S
O55 Dy40 2.310 . S
O55 Dy43 2.664 . S
O55 C49 1.268 . S
O56 Dy40 2.351 . S
O56 C59 1.249 . S
O57 Dy43 2.326 . S
O57 C59 1.267 . S
C58 O50 1.249 . S
C58 O51 1.267 . S
C59 O56 1.249 . S
C59 O57 1.267 . S
Dy60 O64 2.398 . S
Dy60 O65 2.491 . S
Dy60 O66 2.403 . S
Dy60 O67 2.664 . S
Dy60 O71 2.326 . S
Dy60 O75 2.310 . S
Dy60 O76 2.351 . S
C61 O72 1.185 . S
C61 O73 1.355 . S
C62 O64 1.185 . S
C62 O65 1.355 . S
Dy63 O67 2.310 . S
Dy63 O70 2.351 . S
Dy63 O72 2.398 . S
Dy63 O73 2.491 . S
Dy63 O74 2.403 . S
Dy63 O75 2.664 . S
Dy63 O77 2.326 . S
O64 Dy60 2.398 . S
O64 C62 1.185 . S
O65 Dy60 2.491 . S
O65 C62 1.355 . S
O66 Dy60 2.403 . S
O66 C68 1.254 . S
O67 Dy60 2.664 . S
O67 Dy63 2.310 . S
O67 C68 1.268 . S
C68 O66 1.254 . S
C68 O67 1.268 . S
C69 O74 1.254 . S
C69 O75 1.268 . S
O70 Dy63 2.351 . S
O70 C78 1.249 . S
O71 Dy60 2.326 . S
O71 C78 1.267 . S
O72 C61 1.185 . S
O72 Dy63 2.398 . S
O73 C61 1.355 . S
O73 Dy63 2.491 . S
O74 Dy63 2.403 . S
O74 C69 1.254 . S
O75 Dy60 2.310 . S
O75 Dy63 2.664 . S
O75 C69 1.268 . S
O76 Dy60 2.351 . S
O76 C79 1.249 . S
O77 Dy63 2.326 . S
O77 C79 1.267 . S
C78 O70 1.249 . S
C78 O71 1.267 . S
C79 O76 1.249 . S
C79 O77 1.267 . S
Dy80 O84 2.398 1_556 S
Dy80 O85 2.491 1_556 S
Dy80 O86 2.403 . S
Dy80 O87 2.664 . S
Dy80 O91 2.326 1_556 S
Dy80 O95 2.310 1_556 S
Dy80 O96 2.351 . S
C81 O92 1.185 . S
C81 O93 1.355 . S
C82 O84 1.185 . S
C82 O85 1.355 . S
Dy83 O87 2.310 1_554 S
Dy83 O90 2.351 . S
Dy83 O92 2.398 1_554 S
Dy83 O93 2.491 1_554 S
Dy83 O94 2.403 . S
Dy83 O95 2.664 . S
Dy83 O97 2.326 1_554 S
O84 Dy80 2.398 1_554 S
O84 C82 1.185 . S
O85 Dy80 2.491 1_554 S
O85 C82 1.355 . S
O86 Dy80 2.403 . S
O86 C88 1.254 . S
O87 Dy80 2.664 . S
O87 Dy83 2.310 1_556 S
O87 C88 1.268 . S
C88 O86 1.254 . S
C88 O87 1.268 . S
C89 O94 1.254 . S
C89 O95 1.268 . S
O90 Dy83 2.351 . S
O90 C98 1.249 . S
O91 Dy80 2.326 1_554 S
O91 C98 1.267 . S
O92 C81 1.185 . S
O92 Dy83 2.398 1_556 S
O93 C81 1.355 . S
O93 Dy83 2.491 1_556 S
O94 Dy83 2.403 . S
O94 C89 1.254 . S
O95 Dy80 2.310 1_554 S
O95 Dy83 2.664 . S
O95 C89 1.268 . S
O96 Dy80 2.351 . S
O96 C99 1.249 . S
O97 Dy83 2.326 1_556 S
O97 C99 1.267 . S
C98 O90 1.249 . S
C98 O91 1.267 . S
C99 O96 1.249 . S
C99 O97 1.267 . S
Dy100 O104 2.398 1_556 S
Dy100 O105 2.491 1_556 S
Dy100 O106 2.403 . S
Dy100 O107 2.664 . S
Dy100 O111 2.326 1_556 S
Dy100 O115 2.310 1_556 S
Dy100 O116 2.351 . S
C101 O112 1.185 . S
C101 O113 1.355 . S
C102 O104 1.185 . S
C102 O105 1.355 . S
Dy103 O107 2.310 1_554 S
Dy103 O110 2.351 . S
Dy103 O112 2.398 1_554 S
Dy103 O113 2.491 1_554 S
Dy103 O114 2.403 . S
Dy103 O115 2.664 . S
Dy103 O117 2.326 1_554 S
O104 Dy100 2.398 1_554 S
O104 C102 1.185 . S
O105 Dy100 2.491 1_554 S
O105 C102 1.355 . S
O106 Dy100 2.403 . S
O106 C108 1.254 . S
O107 Dy100 2.664 . S
O107 Dy103 2.310 1_556 S
O107 C108 1.268 . S
C108 O106 1.254 . S
C108 O107 1.268 . S
C109 O114 1.254 . S
C109 O115 1.268 . S
O110 Dy103 2.351 . S
O110 C118 1.249 . S
O111 Dy100 2.326 1_554 S
O111 C118 1.267 . S
O112 C101 1.185 . S
O112 Dy103 2.398 1_556 S
O113 C101 1.355 . S
O113 Dy103 2.491 1_556 S
O114 Dy103 2.403 . S
O114 C109 1.254 . S
O115 Dy100 2.310 1_554 S
O115 Dy103 2.664 . S
O115 C109 1.268 . S
O116 Dy100 2.351 . S
O116 C119 1.249 . S
O117 Dy103 2.326 1_556 S
O117 C119 1.267 . S
C118 O110 1.249 . S
C118 O111 1.267 . S
C119 O116 1.249 . S
C119 O117 1.267 . S
Dy120 O124 2.398 1_556 S
Dy120 O125 2.491 1_556 S
Dy120 O126 2.403 . S
Dy120 O127 2.664 . S
Dy120 O131 2.326 1_556 S
Dy120 O135 2.310 1_556 S
Dy120 O136 2.351 . S
C121 O132 1.185 . S
C121 O133 1.355 . S
C122 O124 1.185 . S
C122 O125 1.355 . S
Dy123 O127 2.310 1_554 S
Dy123 O130 2.351 . S
Dy123 O132 2.398 1_554 S
Dy123 O133 2.491 1_554 S
Dy123 O134 2.403 . S
Dy123 O135 2.664 . S
Dy123 O137 2.326 1_554 S
O124 Dy120 2.398 1_554 S
O124 C122 1.185 . S
O125 Dy120 2.491 1_554 S
O125 C122 1.355 . S
O126 Dy120 2.403 . S
O126 C128 1.254 . S
O127 Dy120 2.664 . S
O127 Dy123 2.310 1_556 S
O127 C128 1.268 . S
C128 O126 1.254 . S
C128 O127 1.268 . S
C129 O134 1.254 . S
C129 O135 1.268 . S
O130 Dy123 2.351 . S
O130 C138 1.249 . S
O131 Dy120 2.326 1_554 S
O131 C138 1.267 . S
O132 C121 1.185 . S
O132 Dy123 2.398 1_556 S
O133 C121 1.355 . S
O133 Dy123 2.491 1_556 S
O134 Dy123 2.403 . S
O134 C129 1.254 . S
O135 Dy120 2.310 1_554 S
O135 Dy123 2.664 . S
O135 C129 1.268 . S
O136 Dy120 2.351 . S
O136 C139 1.249 . S
O137 Dy123 2.326 1_556 S
O137 C139 1.267 . S
C138 O130 1.249 . S
C138 O131 1.267 . S
C139 O136 1.249 . S
C139 O137 1.267 . S
Dy140 O144 2.398 1_556 S
Dy140 O145 2.491 1_556 S
Dy140 O146 2.403 . S
Dy140 O147 2.664 . S
Dy140 O151 2.326 1_556 S
Dy140 O155 2.310 1_556 S
Dy140 O156 2.351 . S
C141 O152 1.185 . S
C141 O153 1.355 . S
C142 O144 1.185 . S
C142 O145 1.355 . S
Dy143 O147 2.310 1_554 S
Dy143 O150 2.351 . S
Dy143 O152 2.398 1_554 S
Dy143 O153 2.491 1_554 S
Dy143 O154 2.403 . S
Dy143 O155 2.664 . S
Dy143 O157 2.326 1_554 S
O144 Dy140 2.398 1_554 S
O144 C142 1.185 . S
O145 Dy140 2.491 1_554 S
O145 C142 1.355 . S
O146 Dy140 2.403 . S
O146 C148 1.254 . S
O147 Dy140 2.664 . S
O147 Dy143 2.310 1_556 S
O147 C148 1.268 . S
C148 O146 1.254 . S
C148 O147 1.268 . S
C149 O154 1.254 . S
C149 O155 1.268 . S
O150 Dy143 2.351 . S
O150 C158 1.249 . S
O151 Dy140 2.326 1_554 S
O151 C158 1.267 . S
O152 C141 1.185 . S
O152 Dy143 2.398 1_556 S
O153 C141 1.355 . S
O153 Dy143 2.491 1_556 S
O154 Dy143 2.403 . S
O154 C149 1.254 . S
O155 Dy140 2.310 1_554 S
O155 Dy143 2.664 . S
O155 C149 1.268 . S
O156 Dy140 2.351 . S
O156 C159 1.249 . S
O157 Dy143 2.326 1_556 S
O157 C159 1.267 . S
C158 O150 1.249 . S
C158 O151 1.267 . S
C159 O156 1.249 . S
C159 O157 1.267 . S
C160 C161 1.369 . S
C160 C162 1.419 . S
C160 H164 0.930 . S
C161 C160 1.369 . S
C161 C170 1.429 . S
C162 C160 1.419 . S
C162 C163 1.363 . S
C162 H165 0.929 . S
C163 C162 1.363 . S
C163 C169 1.428 . S
H164 C160 0.930 . S
H165 C162 0.929 . S
S166 N167 1.613 . S
S166 N168 1.610 . S
N167 S166 1.613 . S
N167 C170 1.350 . S
N168 S166 1.610 . S
N168 C169 1.351 . S
C169 C163 1.428 . S
C169 N168 1.351 . S
C169 C170 1.434 . S
C170 C161 1.429 . S
C170 N167 1.350 . S
C170 C169 1.434 . S
C171 C172 1.369 . S
C171 C173 1.419 . S
C171 H175 0.930 . S
C172 C171 1.369 . S
C172 C181 1.429 . S
C173 C171 1.419 . S
C173 C174 1.363 . S
C173 H176 0.929 . S
C174 C173 1.363 . S
C174 C180 1.428 . S
H175 C171 0.930 . S
H176 C173 0.929 . S
S177 N178 1.613 . S
S177 N179 1.610 . S
N178 S177 1.613 . S
N178 C181 1.350 . S
N179 S177 1.610 . S
N179 C180 1.351 . S
C180 C174 1.428 . S
C180 N179 1.351 . S
C180 C181 1.434 . S
C181 C172 1.429 . S
C181 N178 1.350 . S
C181 C180 1.434 . S
C182 C183 1.369 . S
C182 C184 1.419 . S
C182 H186 0.930 . S
C183 C182 1.369 . S
C183 C192 1.429 . S
C184 C182 1.419 . S
C184 C185 1.363 . S
C184 H187 0.929 . S
C185 C184 1.363 . S
C185 C191 1.428 . S
H186 C182 0.930 . S
H187 C184 0.929 . S
S188 N189 1.613 . S
S188 N190 1.610 . S
N189 S188 1.613 . S
N189 C192 1.350 . S
N190 S188 1.610 . S
N190 C191 1.351 . S
C191 C185 1.428 . S
C191 N190 1.351 . S
C191 C192 1.434 . S
C192 C183 1.429 . S
C192 N189 1.350 . S
C192 C191 1.434 . S
C193 C194 1.369 . S
C193 C195 1.419 . S
C193 H197 0.930 . S
C194 C193 1.369 . S
C194 C203 1.429 . S
C195 C193 1.419 . S
C195 C196 1.363 . S
C195 H198 0.929 . S
C196 C195 1.363 . S
C196 C202 1.428 . S
H197 C193 0.930 . S
H198 C195 0.929 . S
S199 N200 1.613 . S
S199 N201 1.610 . S
N200 S199 1.613 . S
N200 C203 1.350 . S
N201 S199 1.610 . S
N201 C202 1.351 . S
C202 C196 1.428 . S
C202 N201 1.351 . S
C202 C203 1.434 . S
C203 C194 1.429 . S
C203 N200 1.350 . S
C203 C202 1.434 . S
C204 C205 1.369 . S
C204 C206 1.419 1_565 S
C204 H208 0.930 . S
C205 C204 1.369 . S
C205 C214 1.429 . S
C206 C204 1.419 1_545 S
C206 C207 1.363 . S
C206 H209 0.929 . S
C207 C206 1.363 . S
C207 C213 1.428 . S
H208 C204 0.930 . S
H209 C206 0.929 . S
S210 N211 1.613 1_545 S
S210 N212 1.610 . S
N211 S210 1.613 1_565 S
N211 C214 1.350 . S
N212 S210 1.610 . S
N212 C213 1.351 . S
C213 C207 1.428 . S
C213 N212 1.351 . S
C213 C214 1.434 1_545 S
C214 C205 1.429 . S
C214 N211 1.350 . S
C214 C213 1.434 1_565 S
C215 C216 1.369 . S
C215 C217 1.419 . S
C215 H219 0.930 . S
C216 C215 1.369 . S
C216 C225 1.429 . S
C217 C215 1.419 . S
C217 C218 1.363 . S
C217 H220 0.929 . S
C218 C217 1.363 . S
C218 C224 1.428 . S
H219 C215 0.930 . S
H220 C217 0.929 . S
S221 N222 1.613 . S
S221 N223 1.610 . S
N222 S221 1.613 . S
N222 C225 1.350 . S
N223 S221 1.610 . S
N223 C224 1.351 . S
C224 C218 1.428 . S
C224 N223 1.351 . S
C224 C225 1.434 . S
C225 C216 1.429 . S
C225 N222 1.350 . S
C225 C224 1.434 . S
C226 C227 1.369 . S
C226 C228 1.419 1_565 S
C226 H230 0.930 . S
C227 C226 1.369 . S
C227 C236 1.429 . S
C228 C226 1.419 1_545 S
C228 C229 1.363 . S
C228 H231 0.929 . S
C229 C228 1.363 . S
C229 C235 1.428 . S
H230 C226 0.930 . S
H231 C228 0.929 . S
S232 N233 1.613 1_545 S
S232 N234 1.610 . S
N233 S232 1.613 1_565 S
N233 C236 1.350 . S
N234 S232 1.610 . S
N234 C235 1.351 . S
C235 C229 1.428 . S
C235 N234 1.351 . S
C235 C236 1.434 1_545 S
C236 C227 1.429 . S
C236 N233 1.350 . S
C236 C235 1.434 1_565 S
C237 C238 1.369 . S
C237 C239 1.419 . S
C237 H241 0.930 . S
C238 C237 1.369 . S
C238 C247 1.429 . S
C239 C237 1.419 . S
C239 C240 1.363 . S
C239 H242 0.929 . S
C240 C239 1.363 . S
C240 C246 1.428 . S
H241 C237 0.930 . S
H242 C239 0.929 . S
S243 N244 1.613 . S
S243 N245 1.610 . S
N244 S243 1.613 . S
N244 C247 1.350 . S
N245 S243 1.610 . S
N245 C246 1.351 . S
C246 C240 1.428 . S
C246 N245 1.351 . S
C246 C247 1.434 . S
C247 C238 1.429 . S
C247 N244 1.350 . S
C247 C246 1.434 . S
C248 C249 1.369 1_554 S
C248 C250 1.419 . S
C248 H252 0.930 . S
C249 C248 1.369 1_556 S
C249 C258 1.429 . S
C250 C248 1.419 . S
C250 C251 1.363 1_554 S
C250 H253 0.929 . S
C251 C250 1.363 1_556 S
C251 C257 1.428 . S
H252 C248 0.930 . S
H253 C250 0.929 . S
S254 N255 1.613 . S
S254 N256 1.610 . S
N255 S254 1.613 . S
N255 C258 1.350 . S
N256 S254 1.610 . S
N256 C257 1.351 . S
C257 C251 1.428 . S
C257 N256 1.351 . S
C257 C258 1.434 . S
C258 C249 1.429 . S
C258 N255 1.350 . S
C258 C257 1.434 . S
C259 C260 1.369 1_554 S
C259 C261 1.419 1_565 S
C259 H263 0.930 . S
C260 C259 1.369 1_556 S
C260 C269 1.429 . S
C261 C259 1.419 1_545 S
C261 C262 1.363 1_554 S
C261 H264 0.929 . S
C262 C261 1.363 1_556 S
C262 C268 1.428 . S
H263 C259 0.930 . S
H264 C261 0.929 . S
S265 N266 1.613 1_545 S
S265 N267 1.610 . S
N266 S265 1.613 1_565 S
N266 C269 1.350 . S
N267 S265 1.610 . S
N267 C268 1.351 . S
C268 C262 1.428 . S
C268 N267 1.351 . S
C268 C269 1.434 1_545 S
C269 C260 1.429 . S
C269 N266 1.350 . S
C269 C268 1.434 1_565 S
C270 C271 1.369 1_556 S
C270 C272 1.419 . S
C270 H274 0.930 . S
C271 C270 1.369 1_554 S
C271 C280 1.429 . S
C272 C270 1.419 . S
C272 C273 1.363 1_556 S
C272 H275 0.929 . S
C273 C272 1.363 1_554 S
C273 C279 1.428 . S
H274 C270 0.930 . S
H275 C272 0.929 . S
S276 N277 1.613 . S
S276 N278 1.610 . S
N277 S276 1.613 . S
N277 C280 1.350 . S
N278 S276 1.610 . S
N278 C279 1.351 . S
C279 C273 1.428 . S
C279 N278 1.351 . S
C279 C280 1.434 . S
C280 C271 1.429 . S
C280 N277 1.350 . S
C280 C279 1.434 . S
C281 C282 1.369 . S
C281 C283 1.419 1_545 S
C281 H285 0.930 . S
C282 C281 1.369 . S
C282 C291 1.429 1_554 S
C283 C281 1.419 1_565 S
C283 C284 1.363 . S
C283 H286 0.929 . S
C284 C283 1.363 . S
C284 C290 1.428 1_554 S
H285 C281 0.930 . S
H286 C283 0.929 . S
S287 N288 1.613 1_565 S
S287 N289 1.610 . S
N288 S287 1.613 1_545 S
N288 C291 1.350 . S
N289 S287 1.610 . S
N289 C290 1.351 . S
C290 C284 1.428 1_556 S
C290 N289 1.351 . S
C290 C291 1.434 1_565 S
C291 C282 1.429 1_556 S
C291 N288 1.350 . S
C291 C290 1.434 1_545 S
C292 C293 1.369 . S
C292 C294 1.419 1_554 S
C292 H296 0.930 . S
C293 C292 1.369 . S
C293 C302 1.429 . S
C294 C292 1.419 1_556 S
C294 C295 1.363 . S
C294 H297 0.929 . S
C295 C294 1.363 . S
C295 C301 1.428 . S
H296 C292 0.930 . S
H297 C294 0.929 . S
S298 N299 1.613 1_556 S
S298 N300 1.610 . S
N299 S298 1.613 1_554 S
N299 C302 1.350 . S
N300 S298 1.610 . S
N300 C301 1.351 . S
C301 C295 1.428 . S
C301 N300 1.351 . S
C301 C302 1.434 1_556 S
C302 C293 1.429 . S
C302 N299 1.350 . S
C302 C301 1.434 1_554 S
C303 C304 1.369 . S
C303 C305 1.419 1_554 S
C303 H307 0.930 . S
C304 C303 1.369 . S
C304 C313 1.429 . S
C305 C303 1.419 1_556 S
C305 C306 1.363 . S
C305 H308 0.929 . S
C306 C305 1.363 . S
C306 C312 1.428 . S
H307 C303 0.930 . S
H308 C305 0.929 . S
S309 N310 1.616 . S
S309 N311 1.608 1_554 S
N310 S309 1.616 . S
N310 C313 1.350 . S
N311 S309 1.608 1_556 S
N311 C312 1.351 . S
C312 C306 1.428 . S
C312 N311 1.351 . S
C312 C313 1.434 1_556 S
C313 C304 1.429 . S
C313 N310 1.350 . S
C313 C312 1.434 1_554 S
C314 C315 1.369 . S
C314 C316 1.419 1_554 S
C314 H318 0.930 . S
C315 C314 1.369 . S
C315 C324 1.429 . S
C316 C314 1.419 1_556 S
C316 C317 1.363 . S
C316 H319 0.929 . S
C317 C316 1.363 . S
C317 C323 1.428 . S
H318 C314 0.930 . S
H319 C316 0.929 . S
S320 N321 1.613 . S
S320 N322 1.610 1_554 S
N321 S320 1.613 . S
N321 C324 1.350 . S
N322 S320 1.610 1_556 S
N322 C323 1.351 . S
C323 C317 1.428 . S
C323 N322 1.351 . S
C323 C324 1.434 1_556 S
C324 C315 1.429 . S
C324 N321 1.350 . S
C324 C323 1.434 1_554 S
C325 C326 1.369 . S
C325 C327 1.419 1_556 S
C325 H329 0.930 . S
C326 C325 1.369 . S
C326 C335 1.429 . S
C327 C325 1.419 1_554 S
C327 C328 1.363 . S
C327 H330 0.929 . S
C328 C327 1.363 . S
C328 C334 1.428 . S
H329 C325 0.930 . S
H330 C327 0.929 . S
S331 N332 1.613 . S
S331 N333 1.610 1_556 S
N332 S331 1.613 . S
N332 C335 1.350 . S
N333 S331 1.610 1_554 S
N333 C334 1.351 . S
C334 C328 1.428 . S
C334 N333 1.351 . S
C334 C335 1.434 1_554 S
C335 C326 1.429 . S
C335 N332 1.350 . S
C335 C334 1.434 1_556 S
C336 C337 1.369 . S
C336 C338 1.419 . S
C336 H340 0.930 . S
C337 C336 1.369 . S
C337 C346 1.429 . S
C338 C336 1.419 . S
C338 C339 1.363 . S
C338 H341 0.929 . S
C339 C338 1.363 . S
C339 C345 1.428 . S
H340 C336 0.930 . S
H341 C338 0.929 . S
S342 N343 1.613 . S
S342 N344 1.610 . S
N343 S342 1.613 . S
N343 C346 1.350 . S
N344 S342 1.610 . S
N344 C345 1.351 . S
C345 C339 1.428 . S
C345 N344 1.351 . S
C345 C346 1.434 . S
C346 C337 1.429 . S
C346 N343 1.350 . S
C346 C345 1.434 . S
C347 C348 1.369 . S
C347 C349 1.419 . S
C347 H351 0.930 . S
C348 C347 1.369 . S
C348 C357 1.429 . S
C349 C347 1.419 . S
C349 C350 1.363 . S
C349 H352 0.929 . S
C350 C349 1.363 . S
C350 C356 1.428 . S
H351 C347 0.930 . S
H352 C349 0.929 . S
S353 N354 1.613 . S
S353 N355 1.610 . S
N354 S353 1.613 . S
N354 C357 1.350 . S
N355 S353 1.610 . S
N355 C356 1.351 . S
C356 C350 1.428 . S
C356 N355 1.351 . S
C356 C357 1.434 . S
C357 C348 1.429 . S
C357 N354 1.350 . S
C357 C356 1.434 . S
C358 C359 1.369 . S
C358 C360 1.419 . S
C358 H362 0.930 . S
C359 C358 1.369 . S
C359 C368 1.429 . S
C360 C358 1.419 . S
C360 C361 1.363 . S
C360 H363 0.929 . S
C361 C360 1.363 . S
C361 C367 1.428 . S
H362 C358 0.930 . S
H363 C360 0.929 . S
S364 N365 1.613 . S
S364 N366 1.610 . S
N365 S364 1.613 . S
N365 C368 1.350 . S
N366 S364 1.610 . S
N366 C367 1.351 . S
C367 C361 1.428 . S
C367 N366 1.351 . S
C367 C368 1.434 . S
C368 C359 1.429 . S
C368 N365 1.350 . S
C368 C367 1.434 . S
C369 C370 1.369 . S
C369 C371 1.419 . S
C369 H373 0.930 . S
C370 C369 1.369 . S
C370 C379 1.429 . S
C371 C369 1.419 . S
C371 C372 1.363 . S
C371 H374 0.929 . S
C372 C371 1.363 . S
C372 C378 1.428 . S
H373 C369 0.930 . S
H374 C371 0.929 . S
S375 N376 1.613 . S
S375 N377 1.610 . S
N376 S375 1.613 . S
N376 C379 1.350 . S
N377 S375 1.610 . S
N377 C378 1.351 . S
C378 C372 1.428 . S
C378 N377 1.351 . S
C378 C379 1.434 . S
C379 C370 1.429 . S
C379 N376 1.350 . S
C379 C378 1.434 . S
C380 C381 1.369 . S
C380 C382 1.419 1_455 S
C380 H384 0.930 . S
C381 C380 1.369 . S
C381 C390 1.429 . S
C382 C380 1.419 1_655 S
C382 C383 1.363 . S
C382 H385 0.929 . S
C383 C382 1.363 . S
C383 C389 1.428 . S
H384 C380 0.930 . S
H385 C382 0.929 . S
S386 N387 1.613 . S
S386 N388 1.610 1_455 S
N387 S386 1.613 . S
N387 C390 1.350 . S
N388 S386 1.610 1_655 S
N388 C389 1.351 . S
C389 C383 1.428 . S
C389 N388 1.351 . S
C389 C390 1.434 1_655 S
C390 C381 1.429 . S
C390 N387 1.350 . S
C390 C389 1.434 1_455 S
C391 C392 1.369 . S
C391 C393 1.419 1_655 S
C391 H395 0.930 . S
C392 C391 1.369 . S
C392 C401 1.429 . S
C393 C391 1.419 1_455 S
C393 C394 1.363 . S
C393 H396 0.929 . S
C394 C393 1.363 . S
C394 C400 1.428 . S
H395 C391 0.930 . S
H396 C393 0.929 . S
S397 N398 1.613 1_455 S
S397 N399 1.610 . S
N398 S397 1.613 1_655 S
N398 C401 1.350 . S
N399 S397 1.610 . S
N399 C400 1.351 . S
C400 C394 1.428 . S
C400 N399 1.351 . S
C400 C401 1.434 1_455 S
C401 C392 1.429 . S
C401 N398 1.350 . S
C401 C400 1.434 1_655 S
C402 C403 1.369 . S
C402 C404 1.419 . S
C402 H406 0.930 . S
C403 C402 1.369 . S
C403 C412 1.429 . S
C404 C402 1.419 . S
C404 C405 1.363 . S
C404 H407 0.929 . S
C405 C404 1.363 . S
C405 C411 1.428 . S
H406 C402 0.930 . S
H407 C404 0.929 . S
S408 N409 1.613 . S
S408 N410 1.610 . S
N409 S408 1.613 . S
N409 C412 1.350 . S
N410 S408 1.610 . S
N410 C411 1.351 . S
C411 C405 1.428 . S
C411 N410 1.351 . S
C411 C412 1.434 . S
C412 C403 1.429 . S
C412 N409 1.350 . S
C412 C411 1.434 . S
C413 C414 1.369 . S
C413 C415 1.419 . S
C413 H417 0.930 . S
C414 C413 1.369 . S
C414 C423 1.429 . S
C415 C413 1.419 . S
C415 C416 1.363 . S
C415 H418 0.929 . S
C416 C415 1.363 . S
C416 C422 1.428 . S
H417 C413 0.930 . S
H418 C415 0.929 . S
S419 N420 1.613 . S
S419 N421 1.610 . S
N420 S419 1.613 . S
N420 C423 1.350 . S
N421 S419 1.610 . S
N421 C422 1.351 . S
C422 C416 1.428 . S
C422 N421 1.351 . S
C422 C423 1.434 . S
C423 C414 1.429 . S
C423 N420 1.350 . S
C423 C422 1.434 . S
C161 C2 1.621 . S
C163 C141 1.621 . S
C172 C121 1.622 . S
C174 C22 1.620 . S
C183 C102 1.622 . S
C185 C41 1.620 . S
C194 C82 1.620 . S
C196 C61 1.621 . S
C205 C48 1.467 . S
C207 C8 1.472 . S
C216 C28 1.470 . S
C218 C68 1.467 . S
C227 C69 1.468 . S
C229 C29 1.468 . S
C238 C49 1.472 . S
C240 C9 1.467 . S
C249 C88 1.460 . S
C251 C128 1.458 . S
C260 C108 1.456 . S
C262 C148 1.460 . S
C271 C149 1.460 . S
C273 C109 1.457 . S
C282 C129 1.458 . S
C284 C89 1.461 . S
C293 C19 1.649 . S
C295 C18 1.649 . S
C304 C39 1.647 . S
C306 C38 1.650 . S
C315 C59 1.649 . S
C317 C58 1.648 . S
C326 C78 1.644 . S
C328 C79 1.652 . S
C337 C98 1.649 . S
C339 C99 1.649 . S
C348 C119 1.645 . S
C350 C118 1.651 . S
C359 C138 1.652 . S
C361 C139 1.646 . S
C370 C158 1.646 . S
C372 C159 1.650 . S
C381 C1 1.836 . S
C383 C21 1.834 . S
C392 C62 1.835 . S
C394 C42 1.834 . S
C403 C81 1.835 . S
C405 C101 1.833 . S
C414 C142 1.829 . S
C416 C122 1.829 . S
