# Generated by pormake.
# Topology umw, (4)-cn, num edge types: 1
# Building blocks:
#     Node 0, Type 0, BuildingBlock: NAHDIM_clean_sbu_0, # of connection points: 4
#     Node 1, Type 0, BuildingBlock: NAHDIM_clean_sbu_0, # of connection points: 4
#     Node 2, Type 0, BuildingBlock: NAHDIM_clean_sbu_0, # of connection points: 4
#     Node 3, Type 0, BuildingBlock: NAHDIM_clean_sbu_0, # of connection points: 4
#     Node 4, Type 0, BuildingBlock: NAHDIM_clean_sbu_0, # of connection points: 4
#     Node 5, Type 0, BuildingBlock: NAHDIM_clean_sbu_0, # of connection points: 4
#     Node 6, Type 0, BuildingBlock: NAHDIM_clean_sbu_0, # of connection points: 4
#     Node 7, Type 0, BuildingBlock: NAHDIM_clean_sbu_0, # of connection points: 4
#     Edge 8, Type (0, 0), BuildingBlock: EZIPEK_clean_linker_0, # of connection points: 2
#     Edge 9, Type (0, 0), BuildingBlock: EZIPEK_clean_linker_0, # of connection points: 2
#     Edge 10, Type (0, 0), BuildingBlock: EZIPEK_clean_linker_0, # of connection points: 2
#     Edge 11, Type (0, 0), BuildingBlock: EZIPEK_clean_linker_0, # of connection points: 2
#     Edge 12, Type (0, 0), BuildingBlock: EZIPEK_clean_linker_0, # of connection points: 2
#     Edge 13, Type (0, 0), BuildingBlock: EZIPEK_clean_linker_0, # of connection points: 2
#     Edge 14, Type (0, 0), BuildingBlock: EZIPEK_clean_linker_0, # of connection points: 2
#     Edge 15, Type (0, 0), BuildingBlock: EZIPEK_clean_linker_0, # of connection points: 2
#     Edge 16, Type (0, 0), BuildingBlock: EZIPEK_clean_linker_0, # of connection points: 2
#     Edge 17, Type (0, 0), BuildingBlock: EZIPEK_clean_linker_0, # of connection points: 2
#     Edge 18, Type (0, 0), BuildingBlock: EZIPEK_clean_linker_0, # of connection points: 2
#     Edge 19, Type (0, 0), BuildingBlock: EZIPEK_clean_linker_0, # of connection points: 2
#     Edge 20, Type (0, 0), BuildingBlock: EZIPEK_clean_linker_0, # of connection points: 2
#     Edge 21, Type (0, 0), BuildingBlock: EZIPEK_clean_linker_0, # of connection points: 2
#     Edge 22, Type (0, 0), BuildingBlock: EZIPEK_clean_linker_0, # of connection points: 2
#     Edge 23, Type (0, 0), BuildingBlock: EZIPEK_clean_linker_0, # of connection points: 2
# Relax obj value: 0.141
# Max RMSD: 0.107
# Mean RMSD: 0.107
data_MOF--net-umw--node1-NAHDIM_clean_sbu_0--edge1-EZIPEK_clean_linker_0
_symmetry_space_group_name_H-M    P1
_symmetry_Int_Tables_number       1
_symmetry_cell_setting            triclinic
loop_
_symmetry_equiv_pos_as_xyz
'x, y, z'
_cell_length_a     32.727801
_cell_length_b     32.607014
_cell_length_c     17.253589
_cell_angle_alpha  89.869527
_cell_angle_beta   89.819936
_cell_angle_gamma 89.578298
loop_
_atom_site_label
_atom_site_type_symbol
_atom_site_fract_x
_atom_site_fract_y
_atom_site_fract_z
_atom_type_partial_charge
C0 C 0.34952 0.23915 0.3312 0.0
O1 O 0.38915 0.24471 0.33513 0.0
O2 O 0.40031 0.18034 0.15833 0.0
Zn3 Zn 0.37655 0.16483 0.26343 0.0
O4 O 0.4208 0.1656 0.34477 0.0
C5 C 0.3685 0.07892 0.23005 0.0
O6 O 0.40039 0.0864 0.18607 0.0
O7 O 0.33562 0.20714 0.29895 0.0
C8 C 0.44373 0.13579 0.3644 0.0
O9 O 0.44025 0.10014 0.33004 0.0
C10 C 0.43745 0.17183 0.1428 0.0
O11 O 0.4599 0.15239 0.19403 0.0
O12 O 0.35061 0.10858 0.2639 0.0
C13 C 0.74809 0.346 0.57958 0.0
O14 O 0.73416 0.38308 0.56483 0.0
O15 O 0.80789 0.41729 0.44526 0.0
Zn16 Zn 0.82252 0.38382 0.54009 0.0
O17 O 0.81947 0.4194 0.63355 0.0
C18 C 0.90611 0.39457 0.51795 0.0
O19 O 0.8918 0.43178 0.50622 0.0
O20 O 0.78516 0.33729 0.56453 0.0
C21 C 0.83104 0.40424 0.69773 0.0
O22 O 0.84493 0.36637 0.70024 0.0
C23 C 0.79053 0.45217 0.45122 0.0
O24 O 0.77728 0.46479 0.51908 0.0
O25 O 0.88133 0.36557 0.53146 0.0
C26 C 0.64248 0.74935 0.81927 0.0
O27 O 0.6034 0.74284 0.83085 0.0
O28 O 0.5832 0.81592 0.65462 0.0
Zn29 Zn 0.61093 0.82435 0.75756 0.0
O30 O 0.56728 0.82326 0.83878 0.0
C31 C 0.60861 0.90947 0.7419 0.0
O32 O 0.57257 0.89921 0.7153 0.0
O33 O 0.65384 0.78176 0.78448 0.0
C34 C 0.57669 0.83132 0.90828 0.0
O35 O 0.61481 0.83889 0.92619 0.0
C36 C 0.55049 0.79521 0.65136 0.0
O37 O 0.53756 0.77547 0.71305 0.0
O38 O 0.63371 0.88155 0.76204 0.0
C39 C 0.22341 0.65012 0.09927 0.0
O40 O 0.23453 0.61343 0.12291 0.0
O41 O 0.18165 0.58229 0.91257 0.0
Zn42 Zn 0.16354 0.60369 0.01809 0.0
O43 O 0.1731 0.55973 0.09783 0.0
C44 C 0.07637 0.62417 0.97761 0.0
O45 O 0.08781 0.63347 0.90672 0.0
O46 O 0.19421 0.65407 0.05132 0.0
C47 C 0.16226 0.52275 0.08877 0.0
O48 O 0.14688 0.51078 0.0226 0.0
C49 C 0.15811 0.56043 0.87148 0.0
O50 O 0.12047 0.55386 0.89439 0.0
O51 O 0.103 0.61422 0.02771 0.0
C52 C 0.31283 0.78197 0.23849 0.0
O53 O 0.29729 0.81558 0.26865 0.0
O54 O 0.41742 0.81013 0.36398 0.0
Zn55 Zn 0.3918 0.82106 0.25851 0.0
O56 O 0.4351 0.81599 0.17549 0.0
C57 C 0.37925 0.90824 0.28251 0.0
O58 O 0.41124 0.90398 0.32758 0.0
O59 O 0.35124 0.77773 0.23175 0.0
C60 C 0.4553 0.84608 0.14916 0.0
O61 O 0.44872 0.88307 0.17646 0.0
C62 C 0.4542 0.82072 0.37611 0.0
O63 O 0.47463 0.8399 0.32173 0.0
O64 O 0.36417 0.87679 0.25054 0.0
C65 C 0.24282 0.35678 0.48114 0.0
O66 O 0.25387 0.39516 0.48971 0.0
O67 O 0.17599 0.42697 0.60719 0.0
Zn68 Zn 0.16595 0.39248 0.51204 0.0
O69 O 0.17088 0.42796 0.41819 0.0
C70 C 0.08075 0.39973 0.52302 0.0
O71 O 0.0919 0.43798 0.53221 0.0
O72 O 0.20611 0.34675 0.49521 0.0
C73 C 0.15597 0.41562 0.3547 0.0
O74 O 0.13779 0.37987 0.35178 0.0
C75 C 0.19068 0.46287 0.6015 0.0
O76 O 0.20352 0.47641 0.53404 0.0
O77 O 0.1079 0.37204 0.51446 0.0
C78 C 0.65549 0.22782 0.75624 0.0
O79 O 0.66561 0.21645 0.82671 0.0
O80 O 0.56184 0.17552 0.86148 0.0
Zn81 Zn 0.59059 0.16549 0.76014 0.0
O82 O 0.54814 0.15881 0.67942 0.0
C83 C 0.59829 0.08169 0.77801 0.0
O84 O 0.55999 0.08836 0.79742 0.0
O85 O 0.62573 0.21115 0.72218 0.0
C86 C 0.56072 0.15601 0.61004 0.0
O87 O 0.60002 0.15799 0.59489 0.0
C88 C 0.52973 0.19763 0.86336 0.0
O89 O 0.51809 0.21759 0.80092 0.0
O90 O 0.62111 0.11191 0.76231 0.0
C91 C 0.74685 0.62953 0.9682 0.0
O92 O 0.73456 0.59131 0.97206 0.0
O93 O 0.79539 0.56909 0.13458 0.0
Zn94 Zn 0.8179 0.59379 0.03481 0.0
O95 O 0.81777 0.55142 0.94985 0.0
C96 C 0.90571 0.59172 0.03276 0.0
O97 O 0.89864 0.55265 0.02183 0.0
O98 O 0.78155 0.63895 -0.00449 0.0
C99 C 0.82479 0.51346 0.96014 0.0
O100 O 0.83179 0.49933 0.03019 0.0
C101 C 0.81955 0.55179 0.18225 0.0
O102 O 0.85901 0.55263 0.1691 0.0
O103 O 0.87578 0.61588 0.04562 0.0
C104 C 0.50274 0.17338 0.42299 0.0
C105 C 0.47382 0.14115 0.42716 0.0
C106 C 0.5052 0.1162 0.54696 0.0
C107 C 0.53125 0.15071 0.54677 0.0
N108 N 0.54969 0.21649 0.49319 0.0
N109 N 0.44163 0.08771 0.50239 0.0
C110 C 0.52868 0.18054 0.48713 0.0
C111 C 0.47344 0.11405 0.49163 0.0
N112 N 0.5066 0.19623 0.3569 0.0
N113 N 0.51149 0.08486 0.59844 0.0
H114 H 0.41669 0.0866 0.46521 0.0
H115 H 0.43778 0.07025 0.55249 0.0
H116 H 0.53466 0.08508 0.63974 0.0
H117 H 0.49622 0.05699 0.59539 0.0
H118 H 0.53027 0.21687 0.3477 0.0
H119 H 0.48845 0.19204 0.30824 0.0
H120 H 0.54536 0.24122 0.4557 0.0
H121 H 0.56863 0.22324 0.53989 0.0
C122 C 0.85535 0.4669 0.76596 0.0
C123 C 0.83199 0.43041 0.76739 0.0
C124 C 0.80208 0.44995 0.89229 0.0
C125 C 0.82688 0.48544 0.89295 0.0
N126 N 0.88191 0.52482 0.83651 0.0
N127 N 0.78966 0.3828 0.83841 0.0
C128 C 0.85468 0.49332 0.83124 0.0
C129 C 0.80758 0.42044 0.83278 0.0
N130 N 0.87857 0.47617 0.70227 0.0
N131 N 0.7715 0.44564 0.9459 0.0
H132 H 0.79137 0.36072 0.79503 0.0
H133 H 0.77562 0.37217 0.88876 0.0
H134 H 0.76545 0.46727 0.98893 0.0
H135 H 0.74947 0.42282 0.94319 0.0
H136 H 0.89109 0.50495 0.69211 0.0
H137 H 0.88427 0.45542 0.6576 0.0
H138 H 0.9064 0.5288 0.79868 0.0
H139 H 0.88214 0.5457 0.88187 0.0
C140 C 0.519 0.81293 0.09572 0.0
C141 C 0.48511 0.83988 0.08574 0.0
C142 C 0.51237 0.86245 0.96073 0.0
C143 C 0.54471 0.83356 0.9683 0.0
N144 N 0.57461 0.77552 0.03465 0.0
N145 N 0.44419 0.88218 0.0007 0.0
C146 C 0.54685 0.80708 0.03343 0.0
C147 C 0.48023 0.86234 0.01587 0.0
N148 N 0.52562 0.79418 0.16552 0.0
N149 N 0.51311 0.89114 0.90281 0.0
H150 H 0.41924 0.88129 0.03833 0.0
H151 H 0.43746 0.89565 0.9474 0.0
H152 H 0.53629 0.89265 0.8614 0.0
H153 H 0.49272 0.91578 0.90002 0.0
H154 H 0.55239 0.77827 0.17896 0.0
H155 H 0.50578 0.79709 0.21241 0.0
H156 H 0.57464 0.75253 0.07665 0.0
H157 H 0.59536 0.77005 0.98978 0.0
C158 C 0.13649 0.48108 0.28799 0.0
C159 C 0.15694 0.44251 0.2858 0.0
C160 C 0.18335 0.45794 0.15591 0.0
C161 C 0.16068 0.49512 0.15633 0.0
N162 N 0.10863 0.53802 0.21475 0.0
N163 N 0.19492 0.3912 0.21402 0.0
C164 C 0.13542 0.50571 0.22027 0.0
C165 C 0.1787 0.4299 0.21843 0.0
N166 N 0.11791 0.49432 0.35461 0.0
N167 N 0.21067 0.45031 0.09745 0.0
H168 H 0.19417 0.37032 0.25977 0.0
H169 H 0.20686 0.3787 0.16323 0.0
H170 H 0.21503 0.47032 0.05096 0.0
H171 H 0.23148 0.42602 0.09808 0.0
H172 H 0.1076 0.52431 0.36259 0.0
H173 H 0.11484 0.47625 0.40402 0.0
H174 H 0.08594 0.54412 0.25566 0.0
H175 H 0.10625 0.55665 0.1658 0.0
C176 C 0.31536 0.30793 0.33448 0.0
C177 C 0.32163 0.26889 0.36878 0.0
C178 C 0.27996 0.2892 0.48096 0.0
C179 C 0.27082 0.32693 0.44356 0.0
N180 N 0.27353 0.3693 0.32838 0.0
N181 N 0.30718 0.22003 0.47033 0.0
C182 C 0.287 0.33569 0.36875 0.0
C183 C 0.30293 0.25875 0.44061 0.0
N184 N 0.33659 0.31857 0.26913 0.0
N185 N 0.26835 0.28329 0.55637 0.0
H186 H 0.32557 0.19752 0.44485 0.0
H187 H 0.29045 0.20926 0.51749 0.0
H188 H 0.25213 0.30522 0.58816 0.0
H189 H 0.27773 0.25835 0.58978 0.0
H190 H 0.33732 0.34831 0.24707 0.0
H191 H 0.35585 0.29827 0.2396 0.0
H192 H 0.28079 0.37479 0.27051 0.0
H193 H 0.25184 0.38993 0.34981 0.0
C194 C 0.71866 0.2758 0.59587 0.0
C195 C 0.72295 0.31639 0.62381 0.0
C196 C 0.68062 0.29953 0.73711 0.0
C197 C 0.6801 0.25806 0.71307 0.0
N198 N 0.70428 0.20489 0.62693 0.0
N199 N 0.71421 0.36514 0.72848 0.0
C200 C 0.70071 0.24565 0.64443 0.0
C201 C 0.70549 0.32792 0.69636 0.0
N202 N 0.73027 0.26641 0.52176 0.0
N203 N 0.65639 0.31211 0.79739 0.0
H204 H 0.73363 0.38643 0.70289 0.0
H205 H 0.70562 0.37334 0.78455 0.0
H206 H 0.63809 0.29212 0.82925 0.0
H207 H 0.65174 0.34283 0.8116 0.0
H208 H 0.72397 0.23845 0.49547 0.0
H209 H 0.74261 0.28797 0.48372 0.0
H210 H 0.7226 0.19376 0.5821 0.0
H211 H 0.69204 0.18178 0.66166 0.0
C212 C 0.71213 0.69844 0.96591 0.0
C213 C 0.72157 0.66093 0.92817 0.0
C214 C 0.67956 0.68184 0.8171 0.0
C215 C 0.67275 0.72044 0.85255 0.0
N216 N 0.69041 0.76908 0.95192 0.0
N217 N 0.7225 0.62118 0.81004 0.0
C218 C 0.69165 0.72993 0.92409 0.0
C219 C 0.70753 0.6537 0.85152 0.0
N220 N 0.72067 0.70326 0.04287 0.0
N221 N 0.65918 0.67196 0.75075 0.0
H222 H 0.74444 0.60087 0.83166 0.0
H223 H 0.7164 0.61675 0.75146 0.0
H224 H 0.64016 0.69263 0.7216 0.0
H225 H 0.65916 0.64252 0.72742 0.0
H226 H 0.71047 0.72828 0.07523 0.0
H227 H 0.7343 0.68041 0.07658 0.0
H228 H 0.70696 0.77857 5e-05 0.0
H229 H 0.67638 0.79309 0.92214 0.0
C230 C 0.23959 0.69301 0.21489 0.0
C231 C 0.24275 0.68659 0.13368 0.0
C232 C 0.28463 0.74814 0.12094 0.0
C233 C 0.28599 0.75117 0.20291 0.0
N234 N 0.26784 0.72525 0.32917 0.0
N235 N 0.27112 0.70532 0.00943 0.0
C236 C 0.26406 0.72345 0.25036 0.0
C237 C 0.26571 0.71365 0.08645 0.0
N238 N 0.21223 0.67084 0.25762 0.0
N239 N 0.30075 0.77872 0.07618 0.0
H240 H 0.25772 0.68038 0.98192 0.0
H241 H 0.29138 0.72122 0.97395 0.0
H242 H 0.31481 0.80449 0.09961 0.0
H243 H 0.29699 0.78049 0.01637 0.0
H244 H 0.20556 0.67686 0.31554 0.0
H245 H 0.19325 0.64877 0.23334 0.0
H246 H 0.2566 0.70288 0.36658 0.0
H247 H 0.28475 0.74778 0.35717 0.0
C248 C 0.36157 0.96626 0.19047 0.0
C249 C 0.3629 0.95004 0.26701 0.0
C250 C 0.35549 0.01909 0.32103 0.0
C251 C 0.35691 0.03556 0.24453 0.0
N252 N 0.34593 0.02484 0.10844 0.0
N253 N 0.34601 0.95872 0.40159 0.0
C254 C 0.35472 0.00899 0.17991 0.0
C255 C 0.3547 0.97583 0.3311 0.0
N256 N 0.36943 0.94173 0.12804 0.0
N257 N 0.35774 0.04413 0.38424 0.0
H258 H 0.34471 0.92703 0.40989 0.0
H259 H 0.33585 0.97559 0.44918 0.0
H260 H 0.35724 0.07594 0.38132 0.0
H261 H 0.36244 0.03321 0.4403 0.0
H262 H 0.3746 0.95308 0.07242 0.0
H263 H 0.37295 0.91009 0.13186 0.0
H264 H 0.34021 0.00681 0.05996 0.0
H265 H 0.34004 0.05603 0.09978 0.0
C266 C 0.97223 0.39671 0.44622 0.0
C267 C 0.9508 0.38744 0.51547 0.0
C268 C 0.01578 0.37454 0.58218 0.0
C269 C 0.03683 0.39018 0.5168 0.0
N270 N 0.03601 0.41717 0.38657 0.0
N271 N 0.95155 0.3704 0.65171 0.0
C272 C 0.01532 0.40124 0.44849 0.0
C273 C 0.97235 0.37637 0.58386 0.0
N274 N 0.95129 0.40036 0.37805 0.0
N275 N 0.03734 0.35847 0.64294 0.0
H276 H 0.91984 0.37156 0.65546 0.0
H277 H 0.96568 0.36725 0.70538 0.0
H278 H 0.0692 0.35769 0.6442 0.0
H279 H 0.02383 0.34281 0.6889 0.0
H280 H 0.96538 0.40327 0.32416 0.0
H281 H 0.9197 0.39659 0.37451 0.0
H282 H 0.02178 0.43074 0.33901 0.0
H283 H 0.06776 0.41874 0.3845 0.0
C284 C 0.62303 0.97861 0.68726 0.0
C285 C 0.61779 0.95335 0.7533 0.0
C286 C 0.61529 0.01407 0.83663 0.0
C287 C 0.61297 0.03901 0.76961 0.0
N288 N 0.61533 0.04629 0.63048 0.0
N289 N 0.60926 0.946 0.89153 0.0
C290 C 0.61791 0.02176 0.69465 0.0
C291 C 0.61486 0.97075 0.82849 0.0
N292 N 0.63298 0.96112 0.61773 0.0
N293 N 0.61803 0.03206 0.90791 0.0
H294 H 0.61031 0.91419 0.88805 0.0
H295 H 0.6015 0.95679 0.94641 0.0
H296 H 0.6186 0.06384 0.91499 0.0
H297 H 0.6235 0.01585 0.95892 0.0
H298 H 0.64083 0.97783 0.5685 0.0
H299 H 0.63698 0.92951 0.61126 0.0
H300 H 0.61329 0.03514 0.57416 0.0
H301 H 0.61316 0.07812 0.63367 0.0
C302 C 0.96057 0.63916 0.98053 0.0
C303 C 0.94859 0.60611 0.02937 0.0
C304 C 0.0196 0.58378 0.03923 0.0
C305 C 0.03238 0.6189 -0.00317 0.0
N306 N 0.01495 0.68568 0.94515 0.0
N307 N 0.96869 0.55619 0.12564 0.0
C308 C 0.00285 0.64846 0.97307 0.0
C309 C 0.97883 0.58163 0.06572 0.0
N310 N 0.93231 0.66017 0.93759 0.0
N311 N 0.04509 0.55083 0.04932 0.0
H312 H 0.9392 0.55503 0.14856 0.0
H313 H 0.99048 0.5402 0.15798 0.0
H314 H 0.07388 0.54862 0.02392 0.0
H315 H 0.03553 0.52341 0.07449 0.0
H316 H 0.94037 0.68139 0.89503 0.0
H317 H 0.90117 0.654 0.93909 0.0
H318 H -0.00551 0.70958 0.93374 0.0
H319 H 0.04555 0.69416 0.94139 0.0
C320 C 0.5147 0.2152 0.00186 0.0
C321 C 0.50271 0.19584 0.93214 0.0
C322 C 0.44432 0.16429 -0.00144 0.0
C323 C 0.45625 0.18389 0.06814 0.0
N324 N 0.49634 0.23489 0.13314 0.0
N325 N 0.45296 0.15745 0.85951 0.0
C326 C 0.48956 0.21147 0.06884 0.0
C327 C 0.46627 0.17243 0.92893 0.0
N328 N 0.55052 0.23648 0.00428 0.0
N329 N 0.41368 0.13598 1e-05 0.0
H330 H 0.46944 0.16018 0.808 0.0
H331 H 0.42429 0.14454 0.85161 0.0
H332 H 0.39625 0.12984 0.04926 0.0
H333 H 0.40697 0.11665 0.95394 0.0
H334 H 0.56359 0.24712 0.05528 0.0
H335 H 0.56855 0.24171 0.95531 0.0
H336 H 0.51773 0.25831 0.13542 0.0
H337 H 0.47783 0.23345 0.18242 0.0
C338 C 0.77927 0.49566 0.24785 0.0
C339 C 0.80437 0.53096 0.25311 0.0
C340 C 0.81778 0.5162 0.38992 0.0
C341 C 0.79239 0.48115 0.38517 0.0
N342 N 0.74196 0.44241 0.31609 0.0
N343 N 0.83745 0.58114 0.33294 0.0
C344 C 0.77088 0.47245 0.31603 0.0
C345 C 0.82035 0.54322 0.32555 0.0
N346 N 0.7652 0.48305 0.1774 0.0
N347 N 0.84144 0.52246 0.45399 0.0
H348 H 0.83905 0.60195 0.28699 0.0
H349 H 0.84604 0.59354 0.38597 0.0
H350 H 0.84109 0.50334 0.50246 0.0
H351 H 0.86409 0.54468 0.45659 0.0
H352 H 0.75148 0.45477 0.16832 0.0
H353 H 0.76912 0.49989 0.12665 0.0
H354 H 0.72221 0.43723 0.26999 0.0
H355 H 0.73525 0.42489 0.36514 0.0
C356 C 0.48802 0.82398 0.58693 0.0
C357 C 0.52377 0.799 0.58268 0.0
C358 C 0.50833 0.78203 0.44768 0.0
C359 C 0.47514 0.81026 0.44949 0.0
N360 N 0.43439 0.86043 0.51765 0.0
N361 N 0.57013 0.75644 0.5091 0.0
C362 C 0.46488 0.8315 0.51857 0.0
C363 C 0.53453 0.77859 0.51302 0.0
N364 N 0.47642 0.84083 0.65624 0.0
N365 N 0.51386 0.75754 0.38418 0.0
H366 H 0.58905 0.75164 0.55687 0.0
H367 H 0.58226 0.74484 0.45774 0.0
H368 H 0.49455 0.75866 0.33621 0.0
H369 H 0.53504 0.73362 0.38154 0.0
H370 H 0.44828 0.85508 0.66554 0.0
H371 H 0.49396 0.83869 0.70644 0.0
H372 H 0.42862 0.88076 0.56284 0.0
H373 H 0.41602 0.86592 0.46942 0.0
C374 C 0.20104 0.5071 0.80386 0.0
C375 C 0.17286 0.54038 0.79973 0.0
C376 C 0.15842 0.52443 0.66402 0.0
C377 C 0.18693 0.49141 0.66769 0.0
N378 N 0.24154 0.45638 0.73423 0.0
N379 N 0.13269 0.58707 0.72269 0.0
C380 C 0.21021 0.48434 0.73561 0.0
C381 C 0.15411 0.55104 0.72859 0.0
N382 N 0.21748 0.49596 0.87362 0.0
N383 N 0.13381 0.52907 0.6006 0.0
H384 H 0.12945 0.60739 0.76898 0.0
H385 H 0.12166 0.59873 0.6705 0.0
H386 H 0.13584 0.51042 0.55174 0.0
H387 H 0.10915 0.54939 0.59858 0.0
H388 H 0.23396 0.46893 0.8824 0.0
H389 H 0.21276 0.51265 0.92432 0.0
H390 H 0.26239 0.45266 0.77919 0.0
H391 H 0.24886 0.43917 0.68512 0.0
loop_
_geom_bond_atom_site_label_1
_geom_bond_atom_site_label_2
_geom_bond_distance
_geom_bond_site_symmetry_2
_ccdc_geom_bond_type
C0 O1 1.160 . S
C0 O7 1.185 . S
O1 C0 1.160 . S
O2 Zn3 1.899 . S
O2 C10 1.284 . S
Zn3 O2 1.899 . S
Zn3 O4 2.032 . S
Zn3 O7 2.086 . S
Zn3 O12 1.977 . S
O4 Zn3 2.032 . S
O4 C8 1.278 . S
C5 O6 1.203 . S
C5 O12 1.267 . S
O6 C5 1.203 . S
O7 C0 1.185 . S
O7 Zn3 2.086 . S
C8 O4 1.278 . S
C8 O9 1.211 . S
O9 C8 1.211 . S
C10 O2 1.284 . S
C10 O11 1.273 . S
O11 C10 1.273 . S
O12 Zn3 1.977 . S
O12 C5 1.267 . S
C13 O14 1.160 . S
C13 O20 1.185 . S
O14 C13 1.160 . S
O15 Zn16 1.899 . S
O15 C23 1.284 . S
Zn16 O15 1.899 . S
Zn16 O17 2.032 . S
Zn16 O20 2.086 . S
Zn16 O25 1.977 . S
O17 Zn16 2.032 . S
O17 C21 1.278 . S
C18 O19 1.203 . S
C18 O25 1.267 . S
O19 C18 1.203 . S
O20 C13 1.185 . S
O20 Zn16 2.086 . S
C21 O17 1.278 . S
C21 O22 1.211 . S
O22 C21 1.211 . S
C23 O15 1.284 . S
C23 O24 1.273 . S
O24 C23 1.273 . S
O25 Zn16 1.977 . S
O25 C18 1.267 . S
C26 O27 1.160 . S
C26 O33 1.185 . S
O27 C26 1.160 . S
O28 Zn29 1.899 . S
O28 C36 1.284 . S
Zn29 O28 1.899 . S
Zn29 O30 2.032 . S
Zn29 O33 2.086 . S
Zn29 O38 1.977 . S
O30 Zn29 2.032 . S
O30 C34 1.278 . S
C31 O32 1.203 . S
C31 O38 1.267 . S
O32 C31 1.203 . S
O33 C26 1.185 . S
O33 Zn29 2.086 . S
C34 O30 1.278 . S
C34 O35 1.211 . S
O35 C34 1.211 . S
C36 O28 1.284 . S
C36 O37 1.273 . S
O37 C36 1.273 . S
O38 Zn29 1.977 . S
O38 C31 1.267 . S
C39 O40 1.160 . S
C39 O46 1.185 . S
O40 C39 1.160 . S
O41 Zn42 1.899 1_556 S
O41 C49 1.284 . S
Zn42 O41 1.899 1_554 S
Zn42 O43 2.032 . S
Zn42 O46 2.086 . S
Zn42 O51 1.977 . S
O43 Zn42 2.032 . S
O43 C47 1.278 . S
C44 O45 1.203 1_554 S
C44 O51 1.267 . S
O45 C44 1.203 1_556 S
O46 C39 1.185 . S
O46 Zn42 2.086 . S
C47 O43 1.278 . S
C47 O48 1.211 . S
O48 C47 1.211 . S
C49 O41 1.284 . S
C49 O50 1.273 . S
O50 C49 1.273 . S
O51 Zn42 1.977 . S
O51 C44 1.267 . S
C52 O53 1.160 . S
C52 O59 1.185 . S
O53 C52 1.160 . S
O54 Zn55 1.899 . S
O54 C62 1.284 . S
Zn55 O54 1.899 . S
Zn55 O56 2.032 . S
Zn55 O59 2.086 . S
Zn55 O64 1.977 . S
O56 Zn55 2.032 . S
O56 C60 1.278 . S
C57 O58 1.203 . S
C57 O64 1.267 . S
O58 C57 1.203 . S
O59 C52 1.185 . S
O59 Zn55 2.086 . S
C60 O56 1.278 . S
C60 O61 1.211 . S
O61 C60 1.211 . S
C62 O54 1.284 . S
C62 O63 1.273 . S
O63 C62 1.273 . S
O64 Zn55 1.977 . S
O64 C57 1.267 . S
C65 O66 1.160 . S
C65 O72 1.185 . S
O66 C65 1.160 . S
O67 Zn68 1.899 . S
O67 C75 1.284 . S
Zn68 O67 1.899 . S
Zn68 O69 2.032 . S
Zn68 O72 2.086 . S
Zn68 O77 1.977 . S
O69 Zn68 2.032 . S
O69 C73 1.278 . S
C70 O71 1.203 . S
C70 O77 1.267 . S
O71 C70 1.203 . S
O72 C65 1.185 . S
O72 Zn68 2.086 . S
C73 O69 1.278 . S
C73 O74 1.211 . S
O74 C73 1.211 . S
C75 O67 1.284 . S
C75 O76 1.273 . S
O76 C75 1.273 . S
O77 Zn68 1.977 . S
O77 C70 1.267 . S
C78 O79 1.160 . S
C78 O85 1.185 . S
O79 C78 1.160 . S
O80 Zn81 1.899 . S
O80 C88 1.284 . S
Zn81 O80 1.899 . S
Zn81 O82 2.032 . S
Zn81 O85 2.086 . S
Zn81 O90 1.977 . S
O82 Zn81 2.032 . S
O82 C86 1.278 . S
C83 O84 1.203 . S
C83 O90 1.267 . S
O84 C83 1.203 . S
O85 C78 1.185 . S
O85 Zn81 2.086 . S
C86 O82 1.278 . S
C86 O87 1.211 . S
O87 C86 1.211 . S
C88 O80 1.284 . S
C88 O89 1.273 . S
O89 C88 1.273 . S
O90 Zn81 1.977 . S
O90 C83 1.267 . S
C91 O92 1.160 1_556 S
C91 O98 1.185 . S
O92 C91 1.160 1_554 S
O93 Zn94 1.899 . S
O93 C101 1.284 . S
Zn94 O93 1.899 . S
Zn94 O95 2.032 1_554 S
Zn94 O98 2.086 1_554 S
Zn94 O103 1.977 . S
O95 Zn94 2.032 1_556 S
O95 C99 1.278 . S
C96 O97 1.203 . S
C96 O103 1.267 . S
O97 C96 1.203 . S
O98 C91 1.185 . S
O98 Zn94 2.086 1_556 S
C99 O95 1.278 . S
C99 O100 1.211 . S
O100 C99 1.211 . S
C101 O93 1.284 . S
C101 O102 1.273 . S
O102 C101 1.273 . S
O103 Zn94 1.977 . S
O103 C96 1.267 . S
C104 C105 1.363 . S
C104 C110 1.379 . S
C104 N112 1.356 . S
C105 C104 1.363 . S
C105 C111 1.363 . S
C106 C107 1.363 . S
C106 C111 1.379 . S
C106 N113 1.356 . S
C107 C106 1.363 . S
C107 C110 1.363 . S
N108 C110 1.356 . S
N108 H120 0.984 . S
N108 H121 0.985 . S
N109 C111 1.356 . S
N109 H114 0.984 . S
N109 H115 0.985 . S
C110 C104 1.379 . S
C110 C107 1.363 . S
C110 N108 1.356 . S
C111 C105 1.363 . S
C111 C106 1.379 . S
C111 N109 1.356 . S
N112 C104 1.356 . S
N112 H118 0.984 . S
N112 H119 0.984 . S
N113 C106 1.356 . S
N113 H116 0.984 . S
N113 H117 0.985 . S
H114 N109 0.984 . S
H115 N109 0.985 . S
H116 N113 0.984 . S
H117 N113 0.985 . S
H118 N112 0.984 . S
H119 N112 0.984 . S
H120 N108 0.984 . S
H121 N108 0.985 . S
C122 C123 1.363 . S
C122 C128 1.379 . S
C122 N130 1.356 . S
C123 C122 1.363 . S
C123 C129 1.363 . S
C124 C125 1.363 . S
C124 C129 1.379 . S
C124 N131 1.356 . S
C125 C124 1.363 . S
C125 C128 1.363 . S
N126 C128 1.356 . S
N126 H138 0.984 . S
N126 H139 0.985 . S
N127 C129 1.356 . S
N127 H132 0.984 . S
N127 H133 0.985 . S
C128 C122 1.379 . S
C128 C125 1.363 . S
C128 N126 1.356 . S
C129 C123 1.363 . S
C129 C124 1.379 . S
C129 N127 1.356 . S
N130 C122 1.356 . S
N130 H136 0.984 . S
N130 H137 0.984 . S
N131 C124 1.356 . S
N131 H134 0.984 . S
N131 H135 0.985 . S
H132 N127 0.984 . S
H133 N127 0.985 . S
H134 N131 0.984 . S
H135 N131 0.985 . S
H136 N130 0.984 . S
H137 N130 0.984 . S
H138 N126 0.984 . S
H139 N126 0.985 . S
C140 C141 1.363 . S
C140 C146 1.379 . S
C140 N148 1.356 . S
C141 C140 1.363 . S
C141 C147 1.363 . S
C142 C143 1.363 . S
C142 C147 1.379 1_556 S
C142 N149 1.356 . S
C143 C142 1.363 . S
C143 C146 1.363 1_556 S
N144 C146 1.356 1_556 S
N144 H156 0.984 1_556 S
N144 H157 0.985 . S
N145 C147 1.356 . S
N145 H150 0.984 . S
N145 H151 0.985 . S
C146 C140 1.379 . S
C146 C143 1.363 1_554 S
C146 N144 1.356 1_554 S
C147 C141 1.363 . S
C147 C142 1.379 1_554 S
C147 N145 1.356 . S
N148 C140 1.356 . S
N148 H154 0.984 . S
N148 H155 0.984 . S
N149 C142 1.356 . S
N149 H152 0.984 . S
N149 H153 0.985 . S
H150 N145 0.984 . S
H151 N145 0.985 . S
H152 N149 0.984 . S
H153 N149 0.985 . S
H154 N148 0.984 . S
H155 N148 0.984 . S
H156 N144 0.984 1_554 S
H157 N144 0.985 . S
C158 C159 1.363 . S
C158 C164 1.379 . S
C158 N166 1.356 . S
C159 C158 1.363 . S
C159 C165 1.363 . S
C160 C161 1.363 . S
C160 C165 1.379 . S
C160 N167 1.356 . S
C161 C160 1.363 . S
C161 C164 1.363 . S
N162 C164 1.356 . S
N162 H174 0.984 . S
N162 H175 0.985 . S
N163 C165 1.356 . S
N163 H168 0.984 . S
N163 H169 0.985 . S
C164 C158 1.379 . S
C164 C161 1.363 . S
C164 N162 1.356 . S
C165 C159 1.363 . S
C165 C160 1.379 . S
C165 N163 1.356 . S
N166 C158 1.356 . S
N166 H172 0.984 . S
N166 H173 0.984 . S
N167 C160 1.356 . S
N167 H170 0.984 . S
N167 H171 0.985 . S
H168 N163 0.984 . S
H169 N163 0.985 . S
H170 N167 0.984 . S
H171 N167 0.985 . S
H172 N166 0.984 . S
H173 N166 0.984 . S
H174 N162 0.984 . S
H175 N162 0.985 . S
C176 C177 1.363 . S
C176 C182 1.379 . S
C176 N184 1.356 . S
C177 C176 1.363 . S
C177 C183 1.363 . S
C178 C179 1.363 . S
C178 C183 1.379 . S
C178 N185 1.356 . S
C179 C178 1.363 . S
C179 C182 1.363 . S
N180 C182 1.356 . S
N180 H192 0.984 . S
N180 H193 0.985 . S
N181 C183 1.356 . S
N181 H186 0.984 . S
N181 H187 0.985 . S
C182 C176 1.379 . S
C182 C179 1.363 . S
C182 N180 1.356 . S
C183 C177 1.363 . S
C183 C178 1.379 . S
C183 N181 1.356 . S
N184 C176 1.356 . S
N184 H190 0.984 . S
N184 H191 0.984 . S
N185 C178 1.356 . S
N185 H188 0.984 . S
N185 H189 0.985 . S
H186 N181 0.984 . S
H187 N181 0.985 . S
H188 N185 0.984 . S
H189 N185 0.985 . S
H190 N184 0.984 . S
H191 N184 0.984 . S
H192 N180 0.984 . S
H193 N180 0.985 . S
C194 C195 1.363 . S
C194 C200 1.379 . S
C194 N202 1.356 . S
C195 C194 1.363 . S
C195 C201 1.363 . S
C196 C197 1.363 . S
C196 C201 1.379 . S
C196 N203 1.356 . S
C197 C196 1.363 . S
C197 C200 1.363 . S
N198 C200 1.356 . S
N198 H210 0.984 . S
N198 H211 0.985 . S
N199 C201 1.356 . S
N199 H204 0.984 . S
N199 H205 0.985 . S
C200 C194 1.379 . S
C200 C197 1.363 . S
C200 N198 1.356 . S
C201 C195 1.363 . S
C201 C196 1.379 . S
C201 N199 1.356 . S
N202 C194 1.356 . S
N202 H208 0.984 . S
N202 H209 0.984 . S
N203 C196 1.356 . S
N203 H206 0.984 . S
N203 H207 0.985 . S
H204 N199 0.984 . S
H205 N199 0.985 . S
H206 N203 0.984 . S
H207 N203 0.985 . S
H208 N202 0.984 . S
H209 N202 0.984 . S
H210 N198 0.984 . S
H211 N198 0.985 . S
C212 C213 1.363 . S
C212 C218 1.379 . S
C212 N220 1.356 1_556 S
C213 C212 1.363 . S
C213 C219 1.363 . S
C214 C215 1.363 . S
C214 C219 1.379 . S
C214 N221 1.356 . S
C215 C214 1.363 . S
C215 C218 1.363 . S
N216 C218 1.356 . S
N216 H228 0.984 . S
N216 H229 0.985 . S
N217 C219 1.356 . S
N217 H222 0.984 . S
N217 H223 0.985 . S
C218 C212 1.379 . S
C218 C215 1.363 . S
C218 N216 1.356 . S
C219 C213 1.363 . S
C219 C214 1.379 . S
C219 N217 1.356 . S
N220 C212 1.356 1_554 S
N220 H226 0.984 . S
N220 H227 0.984 . S
N221 C214 1.356 . S
N221 H224 0.984 . S
N221 H225 0.985 . S
H222 N217 0.984 . S
H223 N217 0.985 . S
H224 N221 0.984 . S
H225 N221 0.985 . S
H226 N220 0.984 . S
H227 N220 0.984 . S
H228 N216 0.984 . S
H229 N216 0.985 . S
C230 C231 1.363 . S
C230 C236 1.379 . S
C230 N238 1.356 . S
C231 C230 1.363 . S
C231 C237 1.363 . S
C232 C233 1.363 . S
C232 C237 1.379 . S
C232 N239 1.356 . S
C233 C232 1.363 . S
C233 C236 1.363 . S
N234 C236 1.356 . S
N234 H246 0.984 . S
N234 H247 0.985 . S
N235 C237 1.356 . S
N235 H240 0.984 . S
N235 H241 0.985 . S
C236 C230 1.379 . S
C236 C233 1.363 . S
C236 N234 1.356 . S
C237 C231 1.363 . S
C237 C232 1.379 . S
C237 N235 1.356 . S
N238 C230 1.356 . S
N238 H244 0.984 . S
N238 H245 0.984 . S
N239 C232 1.356 . S
N239 H242 0.984 . S
N239 H243 0.985 . S
H240 N235 0.984 . S
H241 N235 0.985 . S
H242 N239 0.984 . S
H243 N239 0.985 . S
H244 N238 0.984 . S
H245 N238 0.984 . S
H246 N234 0.984 . S
H247 N234 0.985 . S
C248 C249 1.363 . S
C248 C254 1.379 1_565 S
C248 N256 1.356 . S
C249 C248 1.363 . S
C249 C255 1.363 . S
C250 C251 1.363 . S
C250 C255 1.379 1_545 S
C250 N257 1.356 . S
C251 C250 1.363 . S
C251 C254 1.363 . S
N252 C254 1.356 . S
N252 H264 0.984 . S
N252 H265 0.985 . S
N253 C255 1.356 . S
N253 H258 0.984 . S
N253 H259 0.985 . S
C254 C248 1.379 1_545 S
C254 C251 1.363 . S
C254 N252 1.356 . S
C255 C249 1.363 . S
C255 C250 1.379 1_565 S
C255 N253 1.356 . S
N256 C248 1.356 . S
N256 H262 0.984 . S
N256 H263 0.984 . S
N257 C250 1.356 . S
N257 H260 0.984 . S
N257 H261 0.985 . S
H258 N253 0.984 . S
H259 N253 0.985 . S
H260 N257 0.984 . S
H261 N257 0.985 . S
H262 N256 0.984 . S
H263 N256 0.984 . S
H264 N252 0.984 . S
H265 N252 0.985 . S
C266 C267 1.363 . S
C266 C272 1.379 1_655 S
C266 N274 1.356 . S
C267 C266 1.363 . S
C267 C273 1.363 . S
C268 C269 1.363 . S
C268 C273 1.379 1_455 S
C268 N275 1.356 . S
C269 C268 1.363 . S
C269 C272 1.363 . S
N270 C272 1.356 . S
N270 H282 0.984 . S
N270 H283 0.985 . S
N271 C273 1.356 . S
N271 H276 0.984 . S
N271 H277 0.985 . S
C272 C266 1.379 1_455 S
C272 C269 1.363 . S
C272 N270 1.356 . S
C273 C267 1.363 . S
C273 C268 1.379 1_655 S
C273 N271 1.356 . S
N274 C266 1.356 . S
N274 H280 0.984 . S
N274 H281 0.984 . S
N275 C268 1.356 . S
N275 H278 0.984 . S
N275 H279 0.985 . S
H276 N271 0.984 . S
H277 N271 0.985 . S
H278 N275 0.984 . S
H279 N275 0.985 . S
H280 N274 0.984 . S
H281 N274 0.984 . S
H282 N270 0.984 . S
H283 N270 0.985 . S
C284 C285 1.363 . S
C284 C290 1.379 1_565 S
C284 N292 1.356 . S
C285 C284 1.363 . S
C285 C291 1.363 . S
C286 C287 1.363 . S
C286 C291 1.379 1_545 S
C286 N293 1.356 . S
C287 C286 1.363 . S
C287 C290 1.363 . S
N288 C290 1.356 . S
N288 H300 0.984 . S
N288 H301 0.985 . S
N289 C291 1.356 . S
N289 H294 0.984 . S
N289 H295 0.985 . S
C290 C284 1.379 1_545 S
C290 C287 1.363 . S
C290 N288 1.356 . S
C291 C285 1.363 . S
C291 C286 1.379 1_565 S
C291 N289 1.356 . S
N292 C284 1.356 . S
N292 H298 0.984 . S
N292 H299 0.984 . S
N293 C286 1.356 . S
N293 H296 0.984 . S
N293 H297 0.985 . S
H294 N289 0.984 . S
H295 N289 0.985 . S
H296 N293 0.984 . S
H297 N293 0.985 . S
H298 N292 0.984 . S
H299 N292 0.984 . S
H300 N288 0.984 . S
H301 N288 0.985 . S
C302 C303 1.363 1_556 S
C302 C308 1.379 1_655 S
C302 N310 1.356 . S
C303 C302 1.363 1_554 S
C303 C309 1.363 . S
C304 C305 1.363 . S
C304 C309 1.379 1_455 S
C304 N311 1.356 . S
C305 C304 1.363 . S
C305 C308 1.363 1_554 S
N306 C308 1.356 . S
N306 H318 0.984 . S
N306 H319 0.985 . S
N307 C309 1.356 . S
N307 H312 0.984 . S
N307 H313 0.985 . S
C308 C302 1.379 1_455 S
C308 C305 1.363 1_556 S
C308 N306 1.356 . S
C309 C303 1.363 . S
C309 C304 1.379 1_655 S
C309 N307 1.356 . S
N310 C302 1.356 . S
N310 H316 0.984 . S
N310 H317 0.984 . S
N311 C304 1.356 . S
N311 H314 0.984 . S
N311 H315 0.985 . S
H312 N307 0.984 . S
H313 N307 0.985 . S
H314 N311 0.984 . S
H315 N311 0.985 . S
H316 N310 0.984 . S
H317 N310 0.984 . S
H318 N306 0.984 . S
H319 N306 0.985 . S
C320 C321 1.363 1_554 S
C320 C326 1.379 . S
C320 N328 1.354 1_554 S
C321 C320 1.363 1_556 S
C321 C327 1.363 . S
C322 C323 1.363 . S
C322 C327 1.379 1_554 S
C322 N329 1.356 . S
C323 C322 1.363 . S
C323 C326 1.363 . S
N324 C326 1.356 . S
N324 H336 0.984 . S
N324 H337 0.985 . S
N325 C327 1.356 . S
N325 H330 0.984 . S
N325 H331 0.985 . S
C326 C320 1.379 . S
C326 C323 1.363 . S
C326 N324 1.356 . S
C327 C321 1.363 . S
C327 C322 1.379 1_556 S
C327 N325 1.356 . S
N328 C320 1.354 1_556 S
N328 H334 0.980 1_556 S
N328 H335 0.992 . S
N329 C322 1.356 . S
N329 H332 0.984 . S
N329 H333 0.985 . S
H330 N325 0.984 . S
H331 N325 0.985 . S
H332 N329 0.984 . S
H333 N329 0.985 . S
H334 N328 0.980 1_554 S
H335 N328 0.992 . S
H336 N324 0.984 . S
H337 N324 0.985 . S
C338 C339 1.363 . S
C338 C344 1.379 . S
C338 N346 1.356 . S
C339 C338 1.363 . S
C339 C345 1.363 . S
C340 C341 1.363 . S
C340 C345 1.379 . S
C340 N347 1.356 . S
C341 C340 1.363 . S
C341 C344 1.363 . S
N342 C344 1.356 . S
N342 H354 0.984 . S
N342 H355 0.985 . S
N343 C345 1.356 . S
N343 H348 0.984 . S
N343 H349 0.985 . S
C344 C338 1.379 . S
C344 C341 1.363 . S
C344 N342 1.356 . S
C345 C339 1.363 . S
C345 C340 1.379 . S
C345 N343 1.356 . S
N346 C338 1.356 . S
N346 H352 0.984 . S
N346 H353 0.984 . S
N347 C340 1.356 . S
N347 H350 0.984 . S
N347 H351 0.985 . S
H348 N343 0.984 . S
H349 N343 0.985 . S
H350 N347 0.984 . S
H351 N347 0.985 . S
H352 N346 0.984 . S
H353 N346 0.984 . S
H354 N342 0.984 . S
H355 N342 0.985 . S
C356 C357 1.363 . S
C356 C362 1.379 . S
C356 N364 1.356 . S
C357 C356 1.363 . S
C357 C363 1.363 . S
C358 C359 1.363 . S
C358 C363 1.379 . S
C358 N365 1.356 . S
C359 C358 1.363 . S
C359 C362 1.363 . S
N360 C362 1.356 . S
N360 H372 0.984 . S
N360 H373 0.985 . S
N361 C363 1.356 . S
N361 H366 0.984 . S
N361 H367 0.985 . S
C362 C356 1.379 . S
C362 C359 1.363 . S
C362 N360 1.356 . S
C363 C357 1.363 . S
C363 C358 1.379 . S
C363 N361 1.356 . S
N364 C356 1.356 . S
N364 H370 0.984 . S
N364 H371 0.984 . S
N365 C358 1.356 . S
N365 H368 0.984 . S
N365 H369 0.985 . S
H366 N361 0.984 . S
H367 N361 0.985 . S
H368 N365 0.984 . S
H369 N365 0.985 . S
H370 N364 0.984 . S
H371 N364 0.984 . S
H372 N360 0.984 . S
H373 N360 0.985 . S
C374 C375 1.363 . S
C374 C380 1.379 . S
C374 N382 1.356 . S
C375 C374 1.363 . S
C375 C381 1.363 . S
C376 C377 1.363 . S
C376 C381 1.379 . S
C376 N383 1.356 . S
C377 C376 1.363 . S
C377 C380 1.363 . S
N378 C380 1.356 . S
N378 H390 0.984 . S
N378 H391 0.985 . S
N379 C381 1.356 . S
N379 H384 0.984 . S
N379 H385 0.985 . S
C380 C374 1.379 . S
C380 C377 1.363 . S
C380 N378 1.356 . S
C381 C375 1.363 . S
C381 C376 1.379 . S
C381 N379 1.356 . S
N382 C374 1.356 . S
N382 H388 0.984 . S
N382 H389 0.984 . S
N383 C376 1.356 . S
N383 H386 0.984 . S
N383 H387 0.985 . S
H384 N379 0.984 . S
H385 N379 0.985 . S
H386 N383 0.984 . S
H387 N383 0.985 . S
H388 N382 0.984 . S
H389 N382 0.984 . S
H390 N378 0.984 . S
H391 N378 0.985 . S
C105 C8 1.145 . S
C107 C86 1.145 . S
C123 C21 1.145 . S
C125 C99 1.145 . S
C141 C60 1.145 . S
C143 C34 1.145 . S
C159 C73 1.145 . S
C161 C47 1.146 . S
C177 C0 1.436 . S
C179 C65 1.436 . S
C195 C13 1.436 . S
C197 C78 1.436 . S
C213 C91 1.436 . S
C215 C26 1.436 . S
C231 C39 1.436 . S
C233 C52 1.436 . S
C249 C57 1.384 . S
C251 C5 1.384 . S
C267 C18 1.384 . S
C269 C70 1.384 . S
C285 C31 1.384 . S
C287 C83 1.384 . S
C303 C96 1.384 . S
C305 C44 1.384 . S
C321 C88 1.502 . S
C323 C10 1.502 . S
C339 C101 1.502 . S
C341 C23 1.502 . S
C357 C36 1.502 . S
C359 C62 1.502 . S
C375 C49 1.502 . S
C377 C75 1.502 . S
