# Generated by pormake.
# Topology zni, (4)-cn, num edge types: 1
# Building blocks:
#     Node 0, Type 0, BuildingBlock: AZAVOO_clean_sbu_0, # of connection points: 4
#     Node 1, Type 0, BuildingBlock: AZAVOO_clean_sbu_0, # of connection points: 4
#     Node 2, Type 0, BuildingBlock: AZAVOO_clean_sbu_0, # of connection points: 4
#     Node 3, Type 0, BuildingBlock: AZAVOO_clean_sbu_0, # of connection points: 4
#     Node 4, Type 0, BuildingBlock: AZAVOO_clean_sbu_0, # of connection points: 4
#     Node 5, Type 0, BuildingBlock: AZAVOO_clean_sbu_0, # of connection points: 4
#     Node 6, Type 0, BuildingBlock: AZAVOO_clean_sbu_0, # of connection points: 4
#     Node 7, Type 0, BuildingBlock: AZAVOO_clean_sbu_0, # of connection points: 4
#     Node 8, Type 0, BuildingBlock: AZAVOO_clean_sbu_0, # of connection points: 4
#     Node 9, Type 0, BuildingBlock: AZAVOO_clean_sbu_0, # of connection points: 4
#     Node 10, Type 0, BuildingBlock: AZAVOO_clean_sbu_0, # of connection points: 4
#     Node 11, Type 0, BuildingBlock: AZAVOO_clean_sbu_0, # of connection points: 4
#     Node 12, Type 0, BuildingBlock: AZAVOO_clean_sbu_0, # of connection points: 4
#     Node 13, Type 0, BuildingBlock: AZAVOO_clean_sbu_0, # of connection points: 4
#     Node 14, Type 0, BuildingBlock: AZAVOO_clean_sbu_0, # of connection points: 4
#     Node 15, Type 0, BuildingBlock: AZAVOO_clean_sbu_0, # of connection points: 4
#     Node 16, Type 0, BuildingBlock: AZAVOO_clean_sbu_0, # of connection points: 4
#     Node 17, Type 0, BuildingBlock: AZAVOO_clean_sbu_0, # of connection points: 4
#     Node 18, Type 0, BuildingBlock: AZAVOO_clean_sbu_0, # of connection points: 4
#     Node 19, Type 0, BuildingBlock: AZAVOO_clean_sbu_0, # of connection points: 4
#     Node 20, Type 0, BuildingBlock: AZAVOO_clean_sbu_0, # of connection points: 4
#     Node 21, Type 0, BuildingBlock: AZAVOO_clean_sbu_0, # of connection points: 4
#     Node 22, Type 0, BuildingBlock: AZAVOO_clean_sbu_0, # of connection points: 4
#     Node 23, Type 0, BuildingBlock: AZAVOO_clean_sbu_0, # of connection points: 4
#     Node 24, Type 0, BuildingBlock: AZAVOO_clean_sbu_0, # of connection points: 4
#     Node 25, Type 0, BuildingBlock: AZAVOO_clean_sbu_0, # of connection points: 4
#     Node 26, Type 0, BuildingBlock: AZAVOO_clean_sbu_0, # of connection points: 4
#     Node 27, Type 0, BuildingBlock: AZAVOO_clean_sbu_0, # of connection points: 4
#     Node 28, Type 0, BuildingBlock: AZAVOO_clean_sbu_0, # of connection points: 4
#     Node 29, Type 0, BuildingBlock: AZAVOO_clean_sbu_0, # of connection points: 4
#     Node 30, Type 0, BuildingBlock: AZAVOO_clean_sbu_0, # of connection points: 4
#     Node 31, Type 0, BuildingBlock: AZAVOO_clean_sbu_0, # of connection points: 4
#     Edge 32, Type (0, 0), None
#     Edge 33, Type (0, 0), None
#     Edge 34, Type (0, 0), None
#     Edge 35, Type (0, 0), None
#     Edge 36, Type (0, 0), None
#     Edge 37, Type (0, 0), None
#     Edge 38, Type (0, 0), None
#     Edge 39, Type (0, 0), None
#     Edge 40, Type (0, 0), None
#     Edge 41, Type (0, 0), None
#     Edge 42, Type (0, 0), None
#     Edge 43, Type (0, 0), None
#     Edge 44, Type (0, 0), None
#     Edge 45, Type (0, 0), None
#     Edge 46, Type (0, 0), None
#     Edge 47, Type (0, 0), None
#     Edge 48, Type (0, 0), None
#     Edge 49, Type (0, 0), None
#     Edge 50, Type (0, 0), None
#     Edge 51, Type (0, 0), None
#     Edge 52, Type (0, 0), None
#     Edge 53, Type (0, 0), None
#     Edge 54, Type (0, 0), None
#     Edge 55, Type (0, 0), None
#     Edge 56, Type (0, 0), None
#     Edge 57, Type (0, 0), None
#     Edge 58, Type (0, 0), None
#     Edge 59, Type (0, 0), None
#     Edge 60, Type (0, 0), None
#     Edge 61, Type (0, 0), None
#     Edge 62, Type (0, 0), None
#     Edge 63, Type (0, 0), None
#     Edge 64, Type (0, 0), None
#     Edge 65, Type (0, 0), None
#     Edge 66, Type (0, 0), None
#     Edge 67, Type (0, 0), None
#     Edge 68, Type (0, 0), None
#     Edge 69, Type (0, 0), None
#     Edge 70, Type (0, 0), None
#     Edge 71, Type (0, 0), None
#     Edge 72, Type (0, 0), None
#     Edge 73, Type (0, 0), None
#     Edge 74, Type (0, 0), None
#     Edge 75, Type (0, 0), None
#     Edge 76, Type (0, 0), None
#     Edge 77, Type (0, 0), None
#     Edge 78, Type (0, 0), None
#     Edge 79, Type (0, 0), None
#     Edge 80, Type (0, 0), None
#     Edge 81, Type (0, 0), None
#     Edge 82, Type (0, 0), None
#     Edge 83, Type (0, 0), None
#     Edge 84, Type (0, 0), None
#     Edge 85, Type (0, 0), None
#     Edge 86, Type (0, 0), None
#     Edge 87, Type (0, 0), None
#     Edge 88, Type (0, 0), None
#     Edge 89, Type (0, 0), None
#     Edge 90, Type (0, 0), None
#     Edge 91, Type (0, 0), None
#     Edge 92, Type (0, 0), None
#     Edge 93, Type (0, 0), None
#     Edge 94, Type (0, 0), None
#     Edge 95, Type (0, 0), None
# Relax obj value: 0.212
# Max RMSD: 0.145
# Mean RMSD: 0.136
data_MOF--net-zni--node1-AZAVOO_clean_sbu_0--edge1-none
_symmetry_space_group_name_H-M    P1
_symmetry_Int_Tables_number       1
_symmetry_cell_setting            triclinic
loop_
_symmetry_equiv_pos_as_xyz
'x, y, z'
_cell_length_a     24.487892
_cell_length_b     22.48196
_cell_length_c     16.433945
_cell_angle_alpha  89.99976
_cell_angle_beta   90.000002
_cell_angle_gamma 87.856025
loop_
_atom_site_label
_atom_site_type_symbol
_atom_site_fract_x
_atom_site_fract_y
_atom_site_fract_z
_atom_type_partial_charge
Mg0 Mg 0.11686 0.07518 0.39428 0.0
O1 O 0.11207 0.17452 0.34201 0.0
O2 O 0.06173 0.17138 0.22737 0.0
Mg3 Mg 0.0618 0.07607 0.1879 0.0
C4 C 0.08535 0.2003 0.28328 0.0
C5 C 0.15672 0.06626 0.56632 0.0
O6 O 0.12296 0.02261 0.55808 0.0
O7 O 0.19 0.03981 0.31575 0.0
O8 O 0.15395 0.08105 0.21087 0.0
O9 O 0.03449 0.09179 0.44577 0.0
O10 O 0.04862 0.05744 0.32076 0.0
C11 C 0.17677 0.03481 0.24136 0.0
C12 C 0.01483 0.07587 0.37655 0.0
O13 O 0.16857 0.09713 0.50414 0.0
Mg14 Mg 0.14909 0.82541 0.65574 0.0
O15 O 0.07409 0.86676 0.58887 0.0
O16 O 0.06092 0.82285 0.46848 0.0
Mg17 Mg 0.13242 0.75491 0.45677 0.0
C18 C 0.04706 0.86091 0.52284 0.0
C19 C 0.1637 0.88156 0.82263 0.0
O20 O 0.19045 0.83006 0.8295 0.0
O21 O 0.20564 0.87576 0.57447 0.0
O22 O 0.19346 0.83124 0.45412 0.0
O23 O 0.09687 0.7593 0.71025 0.0
O24 O 0.13891 0.74682 0.59122 0.0
C25 C 0.21566 0.87026 0.4987 0.0
C26 C 0.10533 0.72789 0.64526 0.0
O27 O 0.14481 0.89729 0.75344 0.0
Mg28 Mg 0.34837 0.91257 0.89427 0.0
O29 O 0.35316 0.81323 0.842 0.0
O30 O 0.4035 0.81637 0.72736 0.0
Mg31 Mg 0.40343 0.91168 0.68789 0.0
C32 C 0.37988 0.78745 0.78328 0.0
C33 C 0.30851 0.9215 0.06632 0.0
O34 O 0.34227 0.96515 0.05808 0.0
O35 O 0.27524 0.94794 0.81575 0.0
O36 O 0.31128 0.9067 0.71087 0.0
O37 O 0.43075 0.89596 0.94576 0.0
O38 O 0.41662 0.93031 0.82075 0.0
C39 C 0.28846 0.95294 0.74136 0.0
C40 C 0.45041 0.91188 0.87654 0.0
O41 O 0.29666 0.89062 0.00414 0.0
Mg42 Mg 0.31614 0.16234 0.15575 0.0
O43 O 0.39114 0.121 0.08887 0.0
O44 O 0.40431 0.16491 0.96848 0.0
Mg45 Mg 0.33281 0.23284 0.95678 0.0
C46 C 0.41817 0.12684 0.02284 0.0
C47 C 0.30153 0.10619 0.32263 0.0
O48 O 0.27478 0.15768 0.3295 0.0
O49 O 0.25959 0.11199 0.07447 0.0
O50 O 0.27177 0.15652 0.95412 0.0
O51 O 0.36837 0.22845 0.21026 0.0
O52 O 0.32632 0.24093 0.09123 0.0
C53 C 0.24957 0.1175 -0.0013 0.0
C54 C 0.3599 0.25986 0.14527 0.0
O55 O 0.32043 0.09046 0.25344 0.0
Mg56 Mg 0.0913 0.91551 0.0645 0.0
O57 O 0.10344 0.82402 0.12998 0.0
O58 O 0.05952 0.83283 0.24909 0.0
Mg59 Mg 0.02467 0.92691 0.26386 0.0
C60 C 0.08667 0.80197 0.19697 0.0
C61 C 0.144 0.9124 0.89629 0.0
O62 O 0.10715 0.95609 0.88966 0.0
O63 O 0.15268 0.96345 0.14443 0.0
O64 O 0.10792 0.96886 0.26273 0.0
O65 O 0.01308 0.88426 0.01264 0.0
O66 O 0.02052 0.93152 0.13034 0.0
C67 C 0.14863 0.9809 0.21836 0.0
C68 C -0.0092 0.90374 0.07931 0.0
O69 O 0.15238 0.88841 0.96555 0.0
Mg70 Mg 0.31851 0.8573 0.31751 0.0
O71 O 0.39826 0.89242 0.37886 0.0
O72 O 0.41691 0.8389 0.49221 0.0
Mg73 Mg 0.33603 0.79933 0.52301 0.0
C74 C 0.42998 0.8767 0.43823 0.0
C75 C 0.2957 0.90003 0.14807 0.0
O76 O 0.26804 0.85143 0.15604 0.0
O77 O 0.25659 0.91597 0.38865 0.0
O78 O 0.30689 0.89336 0.49194 0.0
O79 O 0.37063 0.78475 0.27191 0.0
O80 O 0.32683 0.77837 0.39017 0.0
C81 C 0.25953 0.90457 0.46405 0.0
C82 C 0.3613 0.75565 0.33797 0.0
O83 O 0.32039 0.92041 0.20978 0.0
Mg84 Mg 0.37394 0.07223 0.56449 0.0
O85 O 0.36179 0.16373 0.62997 0.0
O86 O 0.40571 0.15492 0.74908 0.0
Mg87 Mg 0.44057 0.06084 0.76386 0.0
C88 C 0.37856 0.18578 0.69697 0.0
C89 C 0.32123 0.07535 0.39629 0.0
O90 O 0.35809 0.03165 0.38965 0.0
O91 O 0.31256 0.02429 0.64442 0.0
O92 O 0.35731 0.01889 0.76273 0.0
O93 O 0.45216 0.10349 0.51264 0.0
O94 O 0.44471 0.05622 0.63033 0.0
C95 C 0.31661 0.00685 0.71835 0.0
C96 C 0.47444 0.08401 0.57931 0.0
O97 O 0.31286 0.09934 0.46555 0.0
Mg98 Mg 0.14672 0.13045 0.81752 0.0
O99 O 0.06697 0.09534 0.87887 0.0
O100 O 0.04832 0.14885 -0.00778 0.0
Mg101 Mg 0.1292 0.18843 0.02302 0.0
C102 C 0.03525 0.11106 0.93824 0.0
C103 C 0.16954 0.08773 0.64808 0.0
O104 O 0.1972 0.13633 0.65604 0.0
O105 O 0.20864 0.07178 0.88865 0.0
O106 O 0.15835 0.0944 -0.00806 0.0
O107 O 0.0946 0.20301 0.77192 0.0
O108 O 0.1384 0.20938 0.89018 0.0
C109 C 0.2057 0.08319 0.96405 0.0
C110 C 0.10393 0.23211 0.83798 0.0
O111 O 0.14484 0.06735 0.70978 0.0
Mg112 Mg 0.89822 0.94016 0.52871 0.0
O113 O 0.87366 0.8502 0.57732 0.0
O114 O 0.92827 0.82522 0.68202 0.0
Mg115 Mg -0.01199 0.89896 0.70234 0.0
C116 C 0.8892 0.81447 0.6335 0.0
C117 C 0.79082 0.93459 0.40345 0.0
O118 O 0.73975 0.95076 0.38916 0.0
O119 O 0.86062 0.98708 0.63723 0.0
O120 O 0.91642 0.96058 0.74011 0.0
O121 O 0.96363 0.89155 0.45201 0.0
O122 O 0.97773 0.92627 0.57465 0.0
C123 C 0.87384 0.98784 0.71207 0.0
C124 C -0.00425 0.89623 0.5139 0.0
O125 O 0.81257 0.94991 0.47009 0.0
Mg126 Mg 0.8557 0.08544 0.33372 0.0
O127 O 0.85969 0.18829 0.32486 0.0
O128 O 0.92024 0.20104 0.2251 0.0
Mg129 Mg 0.95718 0.11287 0.17725 0.0
C130 C 0.88649 0.22197 0.27811 0.0
C131 C 0.77121 0.10722 0.47616 0.0
O132 O 0.81478 0.11874 0.51912 0.0
O133 O 0.80916 0.08262 0.2162 0.0
O134 O 0.87395 0.09188 0.12171 0.0
O135 O 0.92251 0.08329 0.42519 0.0
O136 O 0.93545 0.07229 0.29272 0.0
C137 C 0.82468 0.08363 0.14235 0.0
C138 C 0.9558 0.07701 0.36423 0.0
O139 O 0.77575 0.09437 0.4014 0.0
Mg140 Mg 0.56701 0.04759 0.0287 0.0
O141 O 0.59157 0.13755 0.07732 0.0
O142 O 0.53695 0.16252 0.18203 0.0
Mg143 Mg 0.47721 0.08877 0.20233 0.0
C144 C 0.57602 0.17327 0.13351 0.0
C145 C 0.67441 0.05318 0.90345 0.0
O146 O 0.72549 0.03702 0.88916 0.0
O147 O 0.60461 0.00067 0.13721 0.0
O148 O 0.54881 0.02716 0.2401 0.0
O149 O 0.5016 0.09621 0.95201 0.0
O150 O 0.4875 0.06148 0.07464 0.0
C151 C 0.59139 -0.0001 0.21205 0.0
C152 C 0.46949 0.09152 0.01389 0.0
O153 O 0.65266 0.03786 0.97009 0.0
Mg154 Mg 0.60954 0.9023 0.8337 0.0
O155 O 0.60553 0.79945 0.82484 0.0
O156 O 0.54498 0.78671 0.72509 0.0
Mg157 Mg 0.50805 0.87488 0.67723 0.0
C158 C 0.57873 0.76578 0.7781 0.0
C159 C 0.69402 0.88054 0.97616 0.0
O160 O 0.65045 0.86906 0.01913 0.0
O161 O 0.65607 0.90512 0.71618 0.0
O162 O 0.59128 0.89586 0.6217 0.0
O163 O 0.54273 0.90446 0.92518 0.0
O164 O 0.52979 0.91546 0.79271 0.0
C165 C 0.64056 0.90411 0.64234 0.0
C166 C 0.50944 0.91074 0.86422 0.0
O167 O 0.68949 0.89336 0.90139 0.0
Mg168 Mg 0.87916 0.06101 0.93639 0.0
O169 O 0.86203 0.15773 0.89031 0.0
O170 O 0.9276 0.18292 0.80248 0.0
Mg171 Mg 0.95689 0.09339 0.75449 0.0
C172 C 0.88645 0.19624 0.8476 0.0
C173 C 0.78387 0.07614 0.0791 0.0
O174 O 0.73187 0.07645 0.09877 0.0
O175 O 0.83398 0.01399 0.83449 0.0
O176 O 0.86526 0.08304 0.75946 0.0
O177 O 0.94951 0.09743 0.00578 0.0
O178 O 0.95967 0.06017 0.88263 0.0
C179 C 0.84679 0.03162 0.76416 0.0
C180 C 0.98057 0.08667 0.94357 0.0
O181 O 0.79749 0.06876 0.00518 0.0
Mg182 Mg 0.62849 0.10252 0.64444 0.0
O183 O 0.61701 0.20377 0.66088 0.0
O184 O 0.55258 0.21582 0.75599 0.0
Mg185 Mg 0.51528 0.12663 0.78546 0.0
C186 C 0.58774 0.23697 0.70767 0.0
C187 C 0.71765 0.10449 0.51475 0.0
O188 O 0.67588 0.08595 0.47293 0.0
O189 O 0.66487 0.08833 0.76964 0.0
O190 O 0.59139 0.09126 0.85102 0.0
O191 O 0.56714 0.10489 0.54271 0.0
O192 O 0.54806 0.08789 0.67194 0.0
C193 C 0.64213 0.08097 0.83863 0.0
C194 C 0.53152 0.09366 0.59835 0.0
O195 O 0.71176 0.11661 0.58956 0.0
Mg196 Mg 0.58607 0.92673 0.43638 0.0
O197 O 0.6032 0.83001 0.39029 0.0
O198 O 0.53762 0.80483 0.30247 0.0
Mg199 Mg 0.50834 0.89436 0.25448 0.0
C200 C 0.57878 0.7915 0.34759 0.0
C201 C 0.68137 0.91159 0.57908 0.0
O202 O 0.73337 0.91128 0.59875 0.0
O203 O 0.63125 0.97374 0.33447 0.0
O204 O 0.59997 0.9047 0.25945 0.0
O205 O 0.51573 0.89032 0.50577 0.0
O206 O 0.50556 0.92758 0.38262 0.0
C207 C 0.61844 0.95612 0.26414 0.0
C208 C 0.48466 0.90108 0.44356 0.0
O209 O 0.66775 0.91898 0.50516 0.0
Mg210 Mg 0.83674 0.88524 0.14444 0.0
O211 O 0.84821 0.78399 0.16088 0.0
O212 O 0.91264 0.77194 0.256 0.0
Mg213 Mg 0.94995 0.86112 0.28547 0.0
C214 C 0.87748 0.75079 0.20768 0.0
C215 C 0.74758 0.88326 0.01474 0.0
O216 O 0.78937 0.90176 0.97291 0.0
O217 O 0.80036 0.89944 0.26965 0.0
O218 O 0.87384 0.8965 0.35103 0.0
O219 O 0.8981 0.88287 0.04272 0.0
O220 O 0.91717 0.89986 0.17195 0.0
C221 C 0.8231 0.9068 0.33864 0.0
C222 C 0.93372 0.89409 0.09835 0.0
O223 O 0.75347 0.87116 0.08956 0.0
Mg224 Mg 0.61685 0.5752 0.89427 0.0
O225 O 0.61206 0.67455 0.84201 0.0
O226 O 0.56172 0.67142 0.72736 0.0
Mg227 Mg 0.56179 0.57611 0.68788 0.0
C228 C 0.58535 0.70033 0.78328 0.0
C229 C 0.65672 0.56626 0.06631 0.0
O230 O 0.62296 0.52261 0.05806 0.0
O231 O 0.68999 0.53984 0.81574 0.0
O232 O 0.65395 0.58108 0.71086 0.0
O233 O 0.53447 0.59181 0.94576 0.0
O234 O 0.5486 0.55747 0.82075 0.0
C235 C 0.67676 0.53484 0.74136 0.0
C236 C 0.51482 0.5759 0.87654 0.0
O237 O 0.66856 0.59714 0.00414 0.0
Mg238 Mg 0.64908 0.32543 0.15575 0.0
O239 O 0.57408 0.36677 0.08886 0.0
O240 O 0.56091 0.32286 0.96848 0.0
Mg241 Mg 0.63241 0.25492 0.95678 0.0
C242 C 0.54705 0.36093 0.02284 0.0
C243 C 0.66368 0.38158 0.32263 0.0
O244 O 0.69043 0.33009 0.3295 0.0
O245 O 0.70563 0.37578 0.07447 0.0
O246 O 0.69345 0.33125 0.95412 0.0
O247 O 0.59685 0.25932 0.21026 0.0
O248 O 0.6389 0.24683 0.09123 0.0
C249 C 0.71565 0.37027 -0.0013 0.0
C250 C 0.60532 0.22791 0.14527 0.0
O251 O 0.64479 0.39732 0.25343 0.0
Mg252 Mg 0.84836 0.41254 0.39427 0.0
O253 O 0.85315 0.3132 0.34202 0.0
O254 O 0.90349 0.31633 0.22737 0.0
Mg255 Mg 0.90342 0.41164 0.18789 0.0
C256 C 0.87987 0.28742 0.28329 0.0
C257 C 0.8085 0.42149 0.56632 0.0
O258 O 0.84226 0.46513 0.55807 0.0
O259 O 0.77523 0.44791 0.31574 0.0
O260 O 0.81127 0.40667 0.21087 0.0
O261 O 0.93074 0.39593 0.44576 0.0
O262 O 0.91661 0.43028 0.32076 0.0
C263 C 0.78845 0.45292 0.24136 0.0
C264 C 0.95039 0.41185 0.37655 0.0
O265 O 0.79665 0.3906 0.50414 0.0
Mg266 Mg 0.81614 0.66232 0.65574 0.0
O267 O 0.89114 0.62098 0.58886 0.0
O268 O 0.90431 0.66489 0.46848 0.0
Mg269 Mg 0.83281 0.73283 0.45678 0.0
C270 C 0.91817 0.62682 0.52284 0.0
C271 C 0.80153 0.60617 0.82263 0.0
O272 O 0.77478 0.65767 0.8295 0.0
O273 O 0.75959 0.61197 0.57447 0.0
O274 O 0.77177 0.6565 0.45412 0.0
O275 O 0.86836 0.72843 0.71026 0.0
O276 O 0.82632 0.74092 0.59122 0.0
C277 C 0.74957 0.61748 0.4987 0.0
C278 C 0.8599 0.75984 0.64527 0.0
O279 O 0.82042 0.59044 0.75343 0.0
Mg280 Mg 0.59128 0.41555 0.56449 0.0
O281 O 0.60343 0.32406 0.62997 0.0
O282 O 0.55952 0.33286 0.74909 0.0
Mg283 Mg 0.52465 0.42694 0.76386 0.0
C284 C 0.58667 0.30201 0.69698 0.0
C285 C 0.64398 0.41243 0.39628 0.0
O286 O 0.60712 0.45612 0.38965 0.0
O287 O 0.65266 0.46349 0.64442 0.0
O288 O 0.60791 0.46889 0.76272 0.0
O289 O 0.51306 0.38429 0.51264 0.0
O290 O 0.52051 0.43155 0.63034 0.0
C291 C 0.64861 0.48093 0.71835 0.0
C292 C 0.49078 0.40377 0.57931 0.0
O293 O 0.65236 0.38844 0.46554 0.0
Mg294 Mg 0.8185 0.35731 0.81751 0.0
O295 O 0.89825 0.39242 0.87886 0.0
O296 O 0.9169 0.3389 -0.00779 0.0
Mg297 Mg 0.83602 0.29932 0.023 0.0
C298 C 0.92997 0.3767 0.93823 0.0
C299 C 0.79568 0.40003 0.64808 0.0
O300 O 0.76802 0.35143 0.65605 0.0
O301 O 0.75658 0.41598 0.88865 0.0
O302 O 0.80688 0.39335 -0.00807 0.0
O303 O 0.87062 0.28475 0.7719 0.0
O304 O 0.82682 0.27837 0.89016 0.0
C305 C 0.75952 0.40457 0.96405 0.0
C306 C 0.86129 0.25564 0.83795 0.0
O307 O 0.82038 0.42041 0.70978 0.0
Mg308 Mg 0.87393 0.57221 0.06449 0.0
O309 O 0.86178 0.6637 0.12997 0.0
O310 O 0.9057 0.65489 0.2491 0.0
Mg311 Mg 0.94056 0.56082 0.26387 0.0
C312 C 0.87854 0.68575 0.19699 0.0
C313 C 0.82123 0.57533 0.89628 0.0
O314 O 0.85809 0.53164 0.88965 0.0
O315 O 0.81255 0.52427 0.14442 0.0
O316 O 0.8573 0.51886 0.26273 0.0
O317 O 0.95215 0.60346 0.01265 0.0
O318 O 0.9447 0.5562 0.13034 0.0
C319 C 0.8166 0.50682 0.21836 0.0
C320 C 0.97443 0.58398 0.07931 0.0
O321 O 0.81286 0.59931 0.96555 0.0
Mg322 Mg 0.64671 0.63043 0.31751 0.0
O323 O 0.56697 0.59533 0.37885 0.0
O324 O 0.54832 0.64884 0.4922 0.0
Mg325 Mg 0.62919 0.68842 0.523 0.0
C326 C 0.53525 0.61104 0.43823 0.0
C327 C 0.66953 0.58772 0.14807 0.0
O328 O 0.69719 0.63632 0.15605 0.0
O329 O 0.70863 0.57177 0.38865 0.0
O330 O 0.65834 0.59439 0.49193 0.0
O331 O 0.5946 0.70299 0.2719 0.0
O332 O 0.6384 0.70937 0.39015 0.0
C333 C 0.7057 0.58317 0.46405 0.0
C334 C 0.60393 0.7321 0.33794 0.0
O335 O 0.64484 0.56733 0.20977 0.0
Mg336 Mg 0.39821 0.44018 0.02869 0.0
O337 O 0.37366 0.35022 0.07732 0.0
O338 O 0.42828 0.32525 0.18202 0.0
Mg339 Mg 0.48801 0.39899 0.20233 0.0
C340 C 0.3892 0.31449 0.13349 0.0
C341 C 0.29081 0.4346 0.90345 0.0
O342 O 0.23973 0.45076 0.88917 0.0
O343 O 0.36061 0.4871 0.13721 0.0
O344 O 0.41641 0.46061 0.2401 0.0
O345 O 0.46362 0.39156 0.952 0.0
O346 O 0.47772 0.42629 0.07463 0.0
C347 C 0.37384 0.48787 0.21205 0.0
C348 C 0.49574 0.39625 0.01389 0.0
O349 O 0.31256 0.44992 0.97009 0.0
Mg350 Mg 0.35568 0.58548 0.8337 0.0
O351 O 0.35969 0.68833 0.82483 0.0
O352 O 0.42025 0.70107 0.72508 0.0
Mg353 Mg 0.45718 0.61289 0.67723 0.0
C354 C 0.3865 0.722 0.77809 0.0
C355 C 0.27121 0.60721 0.97616 0.0
O356 O 0.31478 0.61865 0.01914 0.0
O357 O 0.30915 0.58266 0.71618 0.0
O358 O 0.37394 0.59191 0.62169 0.0
O359 O 0.4225 0.58333 0.92517 0.0
O360 O 0.43543 0.57232 0.79271 0.0
C361 C 0.32467 0.58366 0.64233 0.0
C362 C 0.45579 0.57704 0.86422 0.0
O363 O 0.27573 0.59443 0.90138 0.0
Mg364 Mg 0.067 0.54757 0.5287 0.0
O365 O 0.09157 0.63753 0.57731 0.0
O366 O 0.03695 0.66251 0.68202 0.0
Mg367 Mg 0.97721 0.58877 0.70233 0.0
C368 C 0.07602 0.67326 0.63349 0.0
C369 C 0.17441 0.55314 0.40345 0.0
O370 O 0.22548 0.53696 0.38917 0.0
O371 O 0.1046 0.50065 0.63723 0.0
O372 O 0.04881 0.52715 0.74011 0.0
O373 O 0.0016 0.59619 0.45201 0.0
O374 O -0.0125 0.56146 0.57464 0.0
C375 C 0.09138 0.49989 0.71206 0.0
C376 C 0.96948 0.5915 0.51389 0.0
O377 O 0.15266 0.53782 0.4701 0.0
Mg378 Mg 0.10953 0.40227 0.33371 0.0
O379 O 0.10553 0.29942 0.32485 0.0
O380 O 0.04498 0.28668 0.22509 0.0
Mg381 Mg 0.00804 0.37485 0.17724 0.0
C382 C 0.07873 0.26575 0.2781 0.0
C383 C 0.19401 0.38053 0.47617 0.0
O384 O 0.15044 0.36905 0.51914 0.0
O385 O 0.15606 0.4051 0.21619 0.0
O386 O 0.09127 0.39585 0.12171 0.0
O387 O 0.04271 0.40442 0.42519 0.0
O388 O 0.02978 0.41543 0.29272 0.0
C389 C 0.14055 0.4041 0.14235 0.0
C390 C 0.00942 0.4107 0.36423 0.0
O391 O 0.18948 0.39334 0.40139 0.0
Mg392 Mg 0.37916 0.56102 0.43638 0.0
O393 O 0.36203 0.65774 0.39031 0.0
O394 O 0.42762 0.68293 0.30249 0.0
Mg395 Mg 0.45689 0.5934 0.25448 0.0
C396 C 0.38647 0.69626 0.34764 0.0
C397 C 0.28386 0.57616 0.57908 0.0
O398 O 0.23186 0.57648 0.59875 0.0
O399 O 0.33397 0.51402 0.33446 0.0
O400 O 0.36525 0.58306 0.25945 0.0
O401 O 0.44951 0.59741 0.50577 0.0
O402 O 0.45966 0.56017 0.38261 0.0
C403 C 0.34679 0.53164 0.26414 0.0
C404 C 0.48057 0.58665 0.44355 0.0
O405 O 0.29748 0.56877 0.50516 0.0
Mg406 Mg 0.12849 0.60248 0.14444 0.0
O407 O 0.11701 0.70373 0.16088 0.0
O408 O 0.05259 0.71578 0.25601 0.0
Mg409 Mg 0.01528 0.6266 0.28547 0.0
C410 C 0.08776 0.73693 0.20769 0.0
C411 C 0.21764 0.60449 0.01474 0.0
O412 O 0.17585 0.58604 0.97288 0.0
O413 O 0.16487 0.58828 0.26965 0.0
O414 O 0.09139 0.59122 0.35103 0.0
O415 O 0.06713 0.60485 0.04272 0.0
O416 O 0.04806 0.58786 0.17195 0.0
C417 C 0.14213 0.58092 0.33864 0.0
C418 C 0.03151 0.59363 0.09835 0.0
O419 O 0.21176 0.61655 0.08957 0.0
Mg420 Mg 0.08606 0.42674 0.93639 0.0
O421 O 0.10319 0.33002 0.89032 0.0
O422 O 0.03761 0.30483 0.8025 0.0
Mg423 Mg 0.00833 0.39435 0.75449 0.0
C424 C 0.07875 0.2915 0.84765 0.0
C425 C 0.18135 0.4116 0.0791 0.0
O426 O 0.23335 0.41129 0.09877 0.0
O427 O 0.13125 0.47375 0.83448 0.0
O428 O 0.09997 0.4047 0.75947 0.0
O429 O 0.01571 0.39034 0.00578 0.0
O430 O 0.00555 0.42758 0.88262 0.0
C431 C 0.11843 0.45612 0.76416 0.0
C432 C -0.01535 0.40109 0.94357 0.0
O433 O 0.16773 0.41899 0.00518 0.0
Mg434 Mg 0.33672 0.38526 0.64444 0.0
O435 O 0.34821 0.28401 0.66088 0.0
O436 O 0.41264 0.27197 0.756 0.0
Mg437 Mg 0.44994 0.36115 0.78547 0.0
C438 C 0.37747 0.25082 0.70769 0.0
C439 C 0.24757 0.38326 0.51474 0.0
O440 O 0.28936 0.40174 0.4729 0.0
O441 O 0.30035 0.39945 0.76965 0.0
O442 O 0.37383 0.39652 0.85103 0.0
O443 O 0.39808 0.38289 0.54272 0.0
O444 O 0.41715 0.39988 0.67195 0.0
C445 C 0.32309 0.40681 0.83864 0.0
C446 C 0.4337 0.39412 0.59835 0.0
O447 O 0.25346 0.37117 0.58957 0.0
loop_
_geom_bond_atom_site_label_1
_geom_bond_atom_site_label_2
_geom_bond_distance
_geom_bond_site_symmetry_2
_ccdc_geom_bond_type
Mg0 O1 2.028 . S
Mg0 O7 1.986 . S
Mg0 O9 2.114 . S
Mg0 O10 2.251 . S
Mg0 O13 2.010 . S
O1 Mg0 2.028 . S
O1 C4 1.250 . S
O2 Mg3 2.028 . S
O2 C4 1.248 . S
Mg3 O2 2.028 . S
Mg3 O8 2.032 . S
Mg3 O10 2.079 . S
C4 O1 1.250 . S
C4 O2 1.248 . S
C5 O6 1.264 . S
C5 O13 1.249 . S
O6 C5 1.264 . S
O7 Mg0 1.986 . S
O7 C11 1.246 . S
O8 Mg3 2.032 . S
O8 C11 1.259 . S
O9 Mg0 2.114 . S
O9 C12 1.252 . S
O10 Mg0 2.251 . S
O10 Mg3 2.079 . S
O10 C12 1.273 . S
C11 O7 1.246 . S
C11 O8 1.259 . S
C12 O9 1.252 . S
C12 O10 1.273 . S
O13 Mg0 2.010 . S
O13 C5 1.249 . S
Mg14 O15 2.028 . S
Mg14 O21 1.986 . S
Mg14 O23 2.114 . S
Mg14 O24 2.251 . S
Mg14 O27 2.010 . S
O15 Mg14 2.028 . S
O15 C18 1.250 . S
O16 Mg17 2.028 . S
O16 C18 1.248 . S
Mg17 O16 2.028 . S
Mg17 O22 2.032 . S
Mg17 O24 2.079 . S
C18 O15 1.250 . S
C18 O16 1.248 . S
C19 O20 1.264 . S
C19 O27 1.249 . S
O20 C19 1.264 . S
O21 Mg14 1.986 . S
O21 C25 1.246 . S
O22 Mg17 2.032 . S
O22 C25 1.259 . S
O23 Mg14 2.114 . S
O23 C26 1.252 . S
O24 Mg14 2.251 . S
O24 Mg17 2.079 . S
O24 C26 1.273 . S
C25 O21 1.246 . S
C25 O22 1.259 . S
C26 O23 1.252 . S
C26 O24 1.273 . S
O27 Mg14 2.010 . S
O27 C19 1.249 . S
Mg28 O29 2.028 . S
Mg28 O35 1.986 . S
Mg28 O37 2.114 . S
Mg28 O38 2.251 . S
Mg28 O41 2.010 1_556 S
O29 Mg28 2.028 . S
O29 C32 1.250 . S
O30 Mg31 2.028 . S
O30 C32 1.248 . S
Mg31 O30 2.028 . S
Mg31 O36 2.032 . S
Mg31 O38 2.079 . S
C32 O29 1.250 . S
C32 O30 1.248 . S
C33 O34 1.264 . S
C33 O41 1.249 . S
O34 C33 1.264 . S
O35 Mg28 1.986 . S
O35 C39 1.246 . S
O36 Mg31 2.032 . S
O36 C39 1.259 . S
O37 Mg28 2.114 . S
O37 C40 1.252 . S
O38 Mg28 2.251 . S
O38 Mg31 2.079 . S
O38 C40 1.273 . S
C39 O35 1.246 . S
C39 O36 1.259 . S
C40 O37 1.252 . S
C40 O38 1.273 . S
O41 Mg28 2.010 1_554 S
O41 C33 1.249 . S
Mg42 O43 2.028 . S
Mg42 O49 1.986 . S
Mg42 O51 2.114 . S
Mg42 O52 2.251 . S
Mg42 O55 2.010 . S
O43 Mg42 2.028 . S
O43 C46 1.250 . S
O44 Mg45 2.028 1_554 S
O44 C46 1.248 . S
Mg45 O44 2.028 1_556 S
Mg45 O50 2.032 . S
Mg45 O52 2.079 1_556 S
C46 O43 1.250 . S
C46 O44 1.248 . S
C47 O48 1.264 . S
C47 O55 1.249 . S
O48 C47 1.264 . S
O49 Mg42 1.986 . S
O49 C53 1.246 . S
O50 Mg45 2.032 . S
O50 C53 1.259 1_556 S
O51 Mg42 2.114 . S
O51 C54 1.252 . S
O52 Mg42 2.251 . S
O52 Mg45 2.079 1_554 S
O52 C54 1.273 . S
C53 O49 1.246 . S
C53 O50 1.259 1_554 S
C54 O51 1.252 . S
C54 O52 1.273 . S
O55 Mg42 2.010 . S
O55 C47 1.249 . S
Mg56 O57 2.028 . S
Mg56 O63 1.986 . S
Mg56 O65 2.114 . S
Mg56 O66 2.251 . S
Mg56 O69 2.010 1_554 S
O57 Mg56 2.028 . S
O57 C60 1.250 . S
O58 Mg59 2.028 . S
O58 C60 1.248 . S
Mg59 O58 2.028 . S
Mg59 O64 2.032 . S
Mg59 O66 2.079 . S
C60 O57 1.250 . S
C60 O58 1.248 . S
C61 O62 1.264 . S
C61 O69 1.249 . S
O62 C61 1.264 . S
O63 Mg56 1.986 . S
O63 C67 1.246 . S
O64 Mg59 2.032 . S
O64 C67 1.259 . S
O65 Mg56 2.114 . S
O65 C68 1.252 . S
O66 Mg56 2.251 . S
O66 Mg59 2.079 . S
O66 C68 1.273 . S
C67 O63 1.246 . S
C67 O64 1.259 . S
C68 O65 1.252 . S
C68 O66 1.273 . S
O69 Mg56 2.010 1_556 S
O69 C61 1.249 . S
Mg70 O71 2.028 . S
Mg70 O77 1.986 . S
Mg70 O79 2.114 . S
Mg70 O80 2.251 . S
Mg70 O83 2.010 . S
O71 Mg70 2.028 . S
O71 C74 1.250 . S
O72 Mg73 2.028 . S
O72 C74 1.248 . S
Mg73 O72 2.028 . S
Mg73 O78 2.032 . S
Mg73 O80 2.079 . S
C74 O71 1.250 . S
C74 O72 1.248 . S
C75 O76 1.264 . S
C75 O83 1.249 . S
O76 C75 1.264 . S
O77 Mg70 1.986 . S
O77 C81 1.246 . S
O78 Mg73 2.032 . S
O78 C81 1.259 . S
O79 Mg70 2.114 . S
O79 C82 1.252 . S
O80 Mg70 2.251 . S
O80 Mg73 2.079 . S
O80 C82 1.273 . S
C81 O77 1.246 . S
C81 O78 1.259 . S
C82 O79 1.252 . S
C82 O80 1.273 . S
O83 Mg70 2.010 . S
O83 C75 1.249 . S
Mg84 O85 2.028 . S
Mg84 O91 1.986 . S
Mg84 O93 2.114 . S
Mg84 O94 2.251 . S
Mg84 O97 2.010 . S
O85 Mg84 2.028 . S
O85 C88 1.250 . S
O86 Mg87 2.028 . S
O86 C88 1.248 . S
Mg87 O86 2.028 . S
Mg87 O92 2.032 . S
Mg87 O94 2.079 . S
C88 O85 1.250 . S
C88 O86 1.248 . S
C89 O90 1.264 . S
C89 O97 1.249 . S
O90 C89 1.264 . S
O91 Mg84 1.986 . S
O91 C95 1.246 . S
O92 Mg87 2.032 . S
O92 C95 1.259 . S
O93 Mg84 2.114 . S
O93 C96 1.252 . S
O94 Mg84 2.251 . S
O94 Mg87 2.079 . S
O94 C96 1.273 . S
C95 O91 1.246 . S
C95 O92 1.259 . S
C96 O93 1.252 . S
C96 O94 1.273 . S
O97 Mg84 2.010 . S
O97 C89 1.249 . S
Mg98 O99 2.028 . S
Mg98 O105 1.986 . S
Mg98 O107 2.114 . S
Mg98 O108 2.251 . S
Mg98 O111 2.010 . S
O99 Mg98 2.028 . S
O99 C102 1.250 . S
O100 Mg101 2.028 1_556 S
O100 C102 1.248 . S
Mg101 O100 2.028 1_554 S
Mg101 O106 2.032 . S
Mg101 O108 2.079 1_554 S
C102 O99 1.250 . S
C102 O100 1.248 . S
C103 O104 1.264 . S
C103 O111 1.249 . S
O104 C103 1.264 . S
O105 Mg98 1.986 . S
O105 C109 1.246 . S
O106 Mg101 2.032 . S
O106 C109 1.259 1_554 S
O107 Mg98 2.114 . S
O107 C110 1.252 . S
O108 Mg98 2.251 . S
O108 Mg101 2.079 1_556 S
O108 C110 1.273 . S
C109 O105 1.246 . S
C109 O106 1.259 1_556 S
C110 O107 1.252 . S
C110 O108 1.273 . S
O111 Mg98 2.010 . S
O111 C103 1.249 . S
Mg112 O113 2.028 . S
Mg112 O119 1.986 . S
Mg112 O121 2.114 . S
Mg112 O122 2.251 . S
Mg112 O125 2.010 . S
O113 Mg112 2.028 . S
O113 C116 1.250 . S
O114 Mg115 2.028 . S
O114 C116 1.248 . S
Mg115 O114 2.028 . S
Mg115 O120 2.032 . S
Mg115 O122 2.079 . S
C116 O113 1.250 . S
C116 O114 1.248 . S
C117 O118 1.264 . S
C117 O125 1.249 . S
O118 C117 1.264 . S
O119 Mg112 1.986 . S
O119 C123 1.246 . S
O120 Mg115 2.032 . S
O120 C123 1.259 . S
O121 Mg112 2.114 . S
O121 C124 1.252 . S
O122 Mg112 2.251 . S
O122 Mg115 2.079 . S
O122 C124 1.273 . S
C123 O119 1.246 . S
C123 O120 1.259 . S
C124 O121 1.252 . S
C124 O122 1.273 . S
O125 Mg112 2.010 . S
O125 C117 1.249 . S
Mg126 O127 2.028 . S
Mg126 O133 1.986 . S
Mg126 O135 2.114 . S
Mg126 O136 2.251 . S
Mg126 O139 2.010 . S
O127 Mg126 2.028 . S
O127 C130 1.250 . S
O128 Mg129 2.028 . S
O128 C130 1.248 . S
Mg129 O128 2.028 . S
Mg129 O134 2.032 . S
Mg129 O136 2.079 . S
C130 O127 1.250 . S
C130 O128 1.248 . S
C131 O132 1.264 1_545 S
C131 O139 1.249 . S
O132 C131 1.264 1_565 S
O133 Mg126 1.986 . S
O133 C137 1.246 . S
O134 Mg129 2.032 . S
O134 C137 1.259 . S
O135 Mg126 2.114 . S
O135 C138 1.252 . S
O136 Mg126 2.251 . S
O136 Mg129 2.079 . S
O136 C138 1.273 . S
C137 O133 1.246 . S
C137 O134 1.259 . S
C138 O135 1.252 . S
C138 O136 1.273 . S
O139 Mg126 2.010 . S
O139 C131 1.249 . S
Mg140 O141 2.028 . S
Mg140 O147 1.986 . S
Mg140 O149 2.114 . S
Mg140 O150 2.251 . S
Mg140 O153 2.010 1_554 S
O141 Mg140 2.028 . S
O141 C144 1.250 . S
O142 Mg143 2.028 . S
O142 C144 1.248 . S
Mg143 O142 2.028 . S
Mg143 O148 2.032 . S
Mg143 O150 2.079 . S
C144 O141 1.250 . S
C144 O142 1.248 . S
C145 O146 1.264 . S
C145 O153 1.249 . S
O146 C145 1.264 . S
O147 Mg140 1.986 . S
O147 C151 1.246 . S
O148 Mg143 2.032 . S
O148 C151 1.259 . S
O149 Mg140 2.114 . S
O149 C152 1.252 . S
O150 Mg140 2.251 . S
O150 Mg143 2.079 . S
O150 C152 1.273 . S
C151 O147 1.246 . S
C151 O148 1.259 . S
C152 O149 1.252 . S
C152 O150 1.273 . S
O153 Mg140 2.010 1_556 S
O153 C145 1.249 . S
Mg154 O155 2.028 . S
Mg154 O161 1.986 . S
Mg154 O163 2.114 . S
Mg154 O164 2.251 . S
Mg154 O167 2.010 . S
O155 Mg154 2.028 . S
O155 C158 1.250 . S
O156 Mg157 2.028 . S
O156 C158 1.248 . S
Mg157 O156 2.028 . S
Mg157 O162 2.032 . S
Mg157 O164 2.079 . S
C158 O155 1.250 . S
C158 O156 1.248 . S
C159 O160 1.264 1_565 S
C159 O167 1.249 . S
O160 C159 1.264 1_545 S
O161 Mg154 1.986 . S
O161 C165 1.246 . S
O162 Mg157 2.032 . S
O162 C165 1.259 . S
O163 Mg154 2.114 . S
O163 C166 1.252 . S
O164 Mg154 2.251 . S
O164 Mg157 2.079 . S
O164 C166 1.273 . S
C165 O161 1.246 . S
C165 O162 1.259 . S
C166 O163 1.252 . S
C166 O164 1.273 . S
O167 Mg154 2.010 . S
O167 C159 1.249 . S
Mg168 O169 2.028 . S
Mg168 O175 1.986 . S
Mg168 O177 2.114 . S
Mg168 O178 2.251 . S
Mg168 O181 2.010 1_556 S
O169 Mg168 2.028 . S
O169 C172 1.250 . S
O170 Mg171 2.028 . S
O170 C172 1.248 . S
Mg171 O170 2.028 . S
Mg171 O176 2.032 . S
Mg171 O178 2.079 . S
C172 O169 1.250 . S
C172 O170 1.248 . S
C173 O174 1.264 . S
C173 O181 1.249 . S
O174 C173 1.264 . S
O175 Mg168 1.986 . S
O175 C179 1.246 . S
O176 Mg171 2.032 . S
O176 C179 1.259 . S
O177 Mg168 2.114 . S
O177 C180 1.252 . S
O178 Mg168 2.251 . S
O178 Mg171 2.079 . S
O178 C180 1.273 . S
C179 O175 1.246 . S
C179 O176 1.259 . S
C180 O177 1.252 . S
C180 O178 1.273 . S
O181 Mg168 2.010 1_554 S
O181 C173 1.249 . S
Mg182 O183 2.028 . S
Mg182 O189 1.986 . S
Mg182 O191 2.114 . S
Mg182 O192 2.251 . S
Mg182 O195 2.010 . S
O183 Mg182 2.028 . S
O183 C186 1.250 . S
O184 Mg185 2.028 . S
O184 C186 1.248 . S
Mg185 O184 2.028 . S
Mg185 O190 2.032 . S
Mg185 O192 2.079 . S
C186 O183 1.250 . S
C186 O184 1.248 . S
C187 O188 1.264 1_545 S
C187 O195 1.249 . S
O188 C187 1.264 1_565 S
O189 Mg182 1.986 . S
O189 C193 1.246 . S
O190 Mg185 2.032 . S
O190 C193 1.259 . S
O191 Mg182 2.114 . S
O191 C194 1.252 . S
O192 Mg182 2.251 . S
O192 Mg185 2.079 . S
O192 C194 1.273 . S
C193 O189 1.246 . S
C193 O190 1.259 . S
C194 O191 1.252 . S
C194 O192 1.273 . S
O195 Mg182 2.010 . S
O195 C187 1.249 . S
Mg196 O197 2.028 . S
Mg196 O203 1.986 . S
Mg196 O205 2.114 . S
Mg196 O206 2.251 . S
Mg196 O209 2.010 . S
O197 Mg196 2.028 . S
O197 C200 1.250 . S
O198 Mg199 2.028 . S
O198 C200 1.248 . S
Mg199 O198 2.028 . S
Mg199 O204 2.032 . S
Mg199 O206 2.079 . S
C200 O197 1.250 . S
C200 O198 1.248 . S
C201 O202 1.264 . S
C201 O209 1.249 . S
O202 C201 1.264 . S
O203 Mg196 1.986 . S
O203 C207 1.246 . S
O204 Mg199 2.032 . S
O204 C207 1.259 . S
O205 Mg196 2.114 . S
O205 C208 1.252 . S
O206 Mg196 2.251 . S
O206 Mg199 2.079 . S
O206 C208 1.273 . S
C207 O203 1.246 . S
C207 O204 1.259 . S
C208 O205 1.252 . S
C208 O206 1.273 . S
O209 Mg196 2.010 . S
O209 C201 1.249 . S
Mg210 O211 2.028 . S
Mg210 O217 1.986 . S
Mg210 O219 2.114 . S
Mg210 O220 2.251 . S
Mg210 O223 2.010 . S
O211 Mg210 2.028 . S
O211 C214 1.250 . S
O212 Mg213 2.028 . S
O212 C214 1.248 . S
Mg213 O212 2.028 . S
Mg213 O218 2.032 . S
Mg213 O220 2.079 . S
C214 O211 1.250 . S
C214 O212 1.248 . S
C215 O216 1.264 1_565 S
C215 O223 1.249 . S
O216 C215 1.264 1_545 S
O217 Mg210 1.986 . S
O217 C221 1.246 . S
O218 Mg213 2.032 . S
O218 C221 1.259 . S
O219 Mg210 2.114 . S
O219 C222 1.252 . S
O220 Mg210 2.251 . S
O220 Mg213 2.079 . S
O220 C222 1.273 . S
C221 O217 1.246 . S
C221 O218 1.259 . S
C222 O219 1.252 . S
C222 O220 1.273 . S
O223 Mg210 2.010 . S
O223 C215 1.249 . S
Mg224 O225 2.028 . S
Mg224 O231 1.986 . S
Mg224 O233 2.114 . S
Mg224 O234 2.251 . S
Mg224 O237 2.010 1_556 S
O225 Mg224 2.028 . S
O225 C228 1.250 . S
O226 Mg227 2.028 . S
O226 C228 1.248 . S
Mg227 O226 2.028 . S
Mg227 O232 2.032 . S
Mg227 O234 2.079 . S
C228 O225 1.250 . S
C228 O226 1.248 . S
C229 O230 1.264 . S
C229 O237 1.249 . S
O230 C229 1.264 . S
O231 Mg224 1.986 . S
O231 C235 1.246 . S
O232 Mg227 2.032 . S
O232 C235 1.259 . S
O233 Mg224 2.114 . S
O233 C236 1.252 . S
O234 Mg224 2.251 . S
O234 Mg227 2.079 . S
O234 C236 1.273 . S
C235 O231 1.246 . S
C235 O232 1.259 . S
C236 O233 1.252 . S
C236 O234 1.273 . S
O237 Mg224 2.010 1_554 S
O237 C229 1.249 . S
Mg238 O239 2.028 . S
Mg238 O245 1.986 . S
Mg238 O247 2.114 . S
Mg238 O248 2.251 . S
Mg238 O251 2.010 . S
O239 Mg238 2.028 . S
O239 C242 1.250 . S
O240 Mg241 2.028 1_554 S
O240 C242 1.248 . S
Mg241 O240 2.028 1_556 S
Mg241 O246 2.032 . S
Mg241 O248 2.079 1_556 S
C242 O239 1.250 . S
C242 O240 1.248 . S
C243 O244 1.264 . S
C243 O251 1.249 . S
O244 C243 1.264 . S
O245 Mg238 1.986 . S
O245 C249 1.246 . S
O246 Mg241 2.032 . S
O246 C249 1.259 1_556 S
O247 Mg238 2.114 . S
O247 C250 1.252 . S
O248 Mg238 2.251 . S
O248 Mg241 2.079 1_554 S
O248 C250 1.273 . S
C249 O245 1.246 . S
C249 O246 1.259 1_554 S
C250 O247 1.252 . S
C250 O248 1.273 . S
O251 Mg238 2.010 . S
O251 C243 1.249 . S
Mg252 O253 2.028 . S
Mg252 O259 1.986 . S
Mg252 O261 2.114 . S
Mg252 O262 2.251 . S
Mg252 O265 2.010 . S
O253 Mg252 2.028 . S
O253 C256 1.250 . S
O254 Mg255 2.028 . S
O254 C256 1.248 . S
Mg255 O254 2.028 . S
Mg255 O260 2.032 . S
Mg255 O262 2.079 . S
C256 O253 1.250 . S
C256 O254 1.248 . S
C257 O258 1.264 . S
C257 O265 1.249 . S
O258 C257 1.264 . S
O259 Mg252 1.986 . S
O259 C263 1.246 . S
O260 Mg255 2.032 . S
O260 C263 1.259 . S
O261 Mg252 2.114 . S
O261 C264 1.252 . S
O262 Mg252 2.251 . S
O262 Mg255 2.079 . S
O262 C264 1.273 . S
C263 O259 1.246 . S
C263 O260 1.259 . S
C264 O261 1.252 . S
C264 O262 1.273 . S
O265 Mg252 2.010 . S
O265 C257 1.249 . S
Mg266 O267 2.028 . S
Mg266 O273 1.986 . S
Mg266 O275 2.114 . S
Mg266 O276 2.251 . S
Mg266 O279 2.010 . S
O267 Mg266 2.028 . S
O267 C270 1.250 . S
O268 Mg269 2.028 . S
O268 C270 1.248 . S
Mg269 O268 2.028 . S
Mg269 O274 2.032 . S
Mg269 O276 2.079 . S
C270 O267 1.250 . S
C270 O268 1.248 . S
C271 O272 1.264 . S
C271 O279 1.249 . S
O272 C271 1.264 . S
O273 Mg266 1.986 . S
O273 C277 1.246 . S
O274 Mg269 2.032 . S
O274 C277 1.259 . S
O275 Mg266 2.114 . S
O275 C278 1.252 . S
O276 Mg266 2.251 . S
O276 Mg269 2.079 . S
O276 C278 1.273 . S
C277 O273 1.246 . S
C277 O274 1.259 . S
C278 O275 1.252 . S
C278 O276 1.273 . S
O279 Mg266 2.010 . S
O279 C271 1.249 . S
Mg280 O281 2.028 . S
Mg280 O287 1.986 . S
Mg280 O289 2.114 . S
Mg280 O290 2.251 . S
Mg280 O293 2.010 . S
O281 Mg280 2.028 . S
O281 C284 1.250 . S
O282 Mg283 2.028 . S
O282 C284 1.248 . S
Mg283 O282 2.028 . S
Mg283 O288 2.032 . S
Mg283 O290 2.079 . S
C284 O281 1.250 . S
C284 O282 1.248 . S
C285 O286 1.264 . S
C285 O293 1.249 . S
O286 C285 1.264 . S
O287 Mg280 1.986 . S
O287 C291 1.246 . S
O288 Mg283 2.032 . S
O288 C291 1.259 . S
O289 Mg280 2.114 . S
O289 C292 1.252 . S
O290 Mg280 2.251 . S
O290 Mg283 2.079 . S
O290 C292 1.273 . S
C291 O287 1.246 . S
C291 O288 1.259 . S
C292 O289 1.252 . S
C292 O290 1.273 . S
O293 Mg280 2.010 . S
O293 C285 1.249 . S
Mg294 O295 2.028 . S
Mg294 O301 1.986 . S
Mg294 O303 2.114 . S
Mg294 O304 2.251 . S
Mg294 O307 2.010 . S
O295 Mg294 2.028 . S
O295 C298 1.250 . S
O296 Mg297 2.028 1_556 S
O296 C298 1.248 . S
Mg297 O296 2.028 1_554 S
Mg297 O302 2.032 . S
Mg297 O304 2.079 1_554 S
C298 O295 1.250 . S
C298 O296 1.248 . S
C299 O300 1.264 . S
C299 O307 1.249 . S
O300 C299 1.264 . S
O301 Mg294 1.986 . S
O301 C305 1.246 . S
O302 Mg297 2.032 . S
O302 C305 1.259 1_554 S
O303 Mg294 2.114 . S
O303 C306 1.252 . S
O304 Mg294 2.251 . S
O304 Mg297 2.079 1_556 S
O304 C306 1.273 . S
C305 O301 1.246 . S
C305 O302 1.259 1_556 S
C306 O303 1.252 . S
C306 O304 1.273 . S
O307 Mg294 2.010 . S
O307 C299 1.249 . S
Mg308 O309 2.028 . S
Mg308 O315 1.986 . S
Mg308 O317 2.114 . S
Mg308 O318 2.251 . S
Mg308 O321 2.010 1_554 S
O309 Mg308 2.028 . S
O309 C312 1.250 . S
O310 Mg311 2.028 . S
O310 C312 1.248 . S
Mg311 O310 2.028 . S
Mg311 O316 2.032 . S
Mg311 O318 2.079 . S
C312 O309 1.250 . S
C312 O310 1.248 . S
C313 O314 1.264 . S
C313 O321 1.249 . S
O314 C313 1.264 . S
O315 Mg308 1.986 . S
O315 C319 1.246 . S
O316 Mg311 2.032 . S
O316 C319 1.259 . S
O317 Mg308 2.114 . S
O317 C320 1.252 . S
O318 Mg308 2.251 . S
O318 Mg311 2.079 . S
O318 C320 1.273 . S
C319 O315 1.246 . S
C319 O316 1.259 . S
C320 O317 1.252 . S
C320 O318 1.273 . S
O321 Mg308 2.010 1_556 S
O321 C313 1.249 . S
Mg322 O323 2.028 . S
Mg322 O329 1.986 . S
Mg322 O331 2.114 . S
Mg322 O332 2.251 . S
Mg322 O335 2.010 . S
O323 Mg322 2.028 . S
O323 C326 1.250 . S
O324 Mg325 2.028 . S
O324 C326 1.248 . S
Mg325 O324 2.028 . S
Mg325 O330 2.032 . S
Mg325 O332 2.079 . S
C326 O323 1.250 . S
C326 O324 1.248 . S
C327 O328 1.264 . S
C327 O335 1.249 . S
O328 C327 1.264 . S
O329 Mg322 1.986 . S
O329 C333 1.246 . S
O330 Mg325 2.032 . S
O330 C333 1.259 . S
O331 Mg322 2.114 . S
O331 C334 1.252 . S
O332 Mg322 2.251 . S
O332 Mg325 2.079 . S
O332 C334 1.273 . S
C333 O329 1.246 . S
C333 O330 1.259 . S
C334 O331 1.252 . S
C334 O332 1.273 . S
O335 Mg322 2.010 . S
O335 C327 1.249 . S
Mg336 O337 2.028 . S
Mg336 O343 1.986 . S
Mg336 O345 2.114 . S
Mg336 O346 2.251 . S
Mg336 O349 2.010 1_554 S
O337 Mg336 2.028 . S
O337 C340 1.250 . S
O338 Mg339 2.028 . S
O338 C340 1.248 . S
Mg339 O338 2.028 . S
Mg339 O344 2.032 . S
Mg339 O346 2.079 . S
C340 O337 1.250 . S
C340 O338 1.248 . S
C341 O342 1.264 . S
C341 O349 1.249 . S
O342 C341 1.264 . S
O343 Mg336 1.986 . S
O343 C347 1.246 . S
O344 Mg339 2.032 . S
O344 C347 1.259 . S
O345 Mg336 2.114 . S
O345 C348 1.252 . S
O346 Mg336 2.251 . S
O346 Mg339 2.079 . S
O346 C348 1.273 . S
C347 O343 1.246 . S
C347 O344 1.259 . S
C348 O345 1.252 . S
C348 O346 1.273 . S
O349 Mg336 2.010 1_556 S
O349 C341 1.249 . S
Mg350 O351 2.028 . S
Mg350 O357 1.986 . S
Mg350 O359 2.114 . S
Mg350 O360 2.251 . S
Mg350 O363 2.010 . S
O351 Mg350 2.028 . S
O351 C354 1.250 . S
O352 Mg353 2.028 . S
O352 C354 1.248 . S
Mg353 O352 2.028 . S
Mg353 O358 2.032 . S
Mg353 O360 2.079 . S
C354 O351 1.250 . S
C354 O352 1.248 . S
C355 O356 1.264 . S
C355 O363 1.249 . S
O356 C355 1.264 . S
O357 Mg350 1.986 . S
O357 C361 1.246 . S
O358 Mg353 2.032 . S
O358 C361 1.259 . S
O359 Mg350 2.114 . S
O359 C362 1.252 . S
O360 Mg350 2.251 . S
O360 Mg353 2.079 . S
O360 C362 1.273 . S
C361 O357 1.246 . S
C361 O358 1.259 . S
C362 O359 1.252 . S
C362 O360 1.273 . S
O363 Mg350 2.010 . S
O363 C355 1.249 . S
Mg364 O365 2.028 . S
Mg364 O371 1.986 . S
Mg364 O373 2.114 . S
Mg364 O374 2.251 . S
Mg364 O377 2.010 . S
O365 Mg364 2.028 . S
O365 C368 1.250 . S
O366 Mg367 2.028 . S
O366 C368 1.248 . S
Mg367 O366 2.028 . S
Mg367 O372 2.032 . S
Mg367 O374 2.079 . S
C368 O365 1.250 . S
C368 O366 1.248 . S
C369 O370 1.264 . S
C369 O377 1.249 . S
O370 C369 1.264 . S
O371 Mg364 1.986 . S
O371 C375 1.246 . S
O372 Mg367 2.032 . S
O372 C375 1.259 . S
O373 Mg364 2.114 . S
O373 C376 1.252 . S
O374 Mg364 2.251 . S
O374 Mg367 2.079 . S
O374 C376 1.273 . S
C375 O371 1.246 . S
C375 O372 1.259 . S
C376 O373 1.252 . S
C376 O374 1.273 . S
O377 Mg364 2.010 . S
O377 C369 1.249 . S
Mg378 O379 2.028 . S
Mg378 O385 1.986 . S
Mg378 O387 2.114 . S
Mg378 O388 2.251 . S
Mg378 O391 2.010 . S
O379 Mg378 2.028 . S
O379 C382 1.250 . S
O380 Mg381 2.028 . S
O380 C382 1.248 . S
Mg381 O380 2.028 . S
Mg381 O386 2.032 . S
Mg381 O388 2.079 . S
C382 O379 1.250 . S
C382 O380 1.248 . S
C383 O384 1.264 . S
C383 O391 1.249 . S
O384 C383 1.264 . S
O385 Mg378 1.986 . S
O385 C389 1.246 . S
O386 Mg381 2.032 . S
O386 C389 1.259 . S
O387 Mg378 2.114 . S
O387 C390 1.252 . S
O388 Mg378 2.251 . S
O388 Mg381 2.079 . S
O388 C390 1.273 . S
C389 O385 1.246 . S
C389 O386 1.259 . S
C390 O387 1.252 . S
C390 O388 1.273 . S
O391 Mg378 2.010 . S
O391 C383 1.249 . S
Mg392 O393 2.028 . S
Mg392 O399 1.986 . S
Mg392 O401 2.114 . S
Mg392 O402 2.251 . S
Mg392 O405 2.010 . S
O393 Mg392 2.028 . S
O393 C396 1.250 . S
O394 Mg395 2.028 . S
O394 C396 1.248 . S
Mg395 O394 2.028 . S
Mg395 O400 2.032 . S
Mg395 O402 2.079 . S
C396 O393 1.250 . S
C396 O394 1.248 . S
C397 O398 1.264 . S
C397 O405 1.249 . S
O398 C397 1.264 . S
O399 Mg392 1.986 . S
O399 C403 1.246 . S
O400 Mg395 2.032 . S
O400 C403 1.259 . S
O401 Mg392 2.114 . S
O401 C404 1.252 . S
O402 Mg392 2.251 . S
O402 Mg395 2.079 . S
O402 C404 1.273 . S
C403 O399 1.246 . S
C403 O400 1.259 . S
C404 O401 1.252 . S
C404 O402 1.273 . S
O405 Mg392 2.010 . S
O405 C397 1.249 . S
Mg406 O407 2.028 . S
Mg406 O413 1.986 . S
Mg406 O415 2.114 . S
Mg406 O416 2.251 . S
Mg406 O419 2.010 . S
O407 Mg406 2.028 . S
O407 C410 1.250 . S
O408 Mg409 2.028 . S
O408 C410 1.248 . S
Mg409 O408 2.028 . S
Mg409 O414 2.032 . S
Mg409 O416 2.079 . S
C410 O407 1.250 . S
C410 O408 1.248 . S
C411 O412 1.264 . S
C411 O419 1.249 . S
O412 C411 1.264 . S
O413 Mg406 1.986 . S
O413 C417 1.246 . S
O414 Mg409 2.032 . S
O414 C417 1.259 . S
O415 Mg406 2.114 . S
O415 C418 1.252 . S
O416 Mg406 2.251 . S
O416 Mg409 2.079 . S
O416 C418 1.273 . S
C417 O413 1.246 . S
C417 O414 1.259 . S
C418 O415 1.252 . S
C418 O416 1.273 . S
O419 Mg406 2.010 . S
O419 C411 1.249 . S
Mg420 O421 2.028 . S
Mg420 O427 1.986 . S
Mg420 O429 2.114 . S
Mg420 O430 2.251 . S
Mg420 O433 2.010 1_556 S
O421 Mg420 2.028 . S
O421 C424 1.250 . S
O422 Mg423 2.028 . S
O422 C424 1.248 . S
Mg423 O422 2.028 . S
Mg423 O428 2.032 . S
Mg423 O430 2.079 . S
C424 O421 1.250 . S
C424 O422 1.248 . S
C425 O426 1.264 . S
C425 O433 1.249 . S
O426 C425 1.264 . S
O427 Mg420 1.986 . S
O427 C431 1.246 . S
O428 Mg423 2.032 . S
O428 C431 1.259 . S
O429 Mg420 2.114 . S
O429 C432 1.252 . S
O430 Mg420 2.251 . S
O430 Mg423 2.079 . S
O430 C432 1.273 . S
C431 O427 1.246 . S
C431 O428 1.259 . S
C432 O429 1.252 . S
C432 O430 1.273 . S
O433 Mg420 2.010 1_554 S
O433 C425 1.249 . S
Mg434 O435 2.028 . S
Mg434 O441 1.986 . S
Mg434 O443 2.114 . S
Mg434 O444 2.251 . S
Mg434 O447 2.010 . S
O435 Mg434 2.028 . S
O435 C438 1.250 . S
O436 Mg437 2.028 . S
O436 C438 1.248 . S
Mg437 O436 2.028 . S
Mg437 O442 2.032 . S
Mg437 O444 2.079 . S
C438 O435 1.250 . S
C438 O436 1.248 . S
C439 O440 1.264 . S
C439 O447 1.249 . S
O440 C439 1.264 . S
O441 Mg434 1.986 . S
O441 C445 1.246 . S
O442 Mg437 2.032 . S
O442 C445 1.259 . S
O443 Mg434 2.114 . S
O443 C446 1.252 . S
O444 Mg434 2.251 . S
O444 Mg437 2.079 . S
O444 C446 1.273 . S
C445 O441 1.246 . S
C445 O442 1.259 . S
C446 O443 1.252 . S
C446 O444 1.273 . S
O447 Mg434 2.010 . S
O447 C439 1.249 . S
C11 C67 1.357 1_545 S
C25 C81 1.328 . S
C95 C39 1.357 1_545 S
C109 C53 1.328 1_556 S
C123 C179 1.245 1_565 S
C131 C187 1.194 . S
C207 C151 1.245 1_565 S
C159 C215 1.194 1_556 S
C291 C235 1.357 . S
C305 C249 1.328 1_556 S
C263 C319 1.357 . S
C333 C277 1.328 . S
C347 C403 1.245 . S
C411 C355 1.194 1_554 S
C431 C375 1.245 . S
C383 C439 1.194 . S
C4 C382 1.604 . S
C124 C18 1.652 1_655 S
C32 C354 1.604 . S
C46 C152 1.652 . S
C410 C60 1.604 . S
C208 C74 1.652 . S
C88 C438 1.604 . S
C102 C180 1.652 1_455 S
C278 C116 1.398 . S
C138 C12 1.491 1_655 S
C250 C144 1.398 . S
C166 C40 1.491 . S
C306 C172 1.398 . S
C194 C96 1.491 . S
C334 C200 1.398 . S
C222 C68 1.491 1_655 S
C158 C228 1.604 . S
C348 C242 1.652 . S
C130 C256 1.604 . S
C270 C376 1.652 1_655 S
C186 C284 1.604 . S
C432 C298 1.652 1_455 S
C214 C312 1.604 . S
C326 C404 1.652 . S
C340 C54 1.398 . S
C362 C236 1.491 . S
C368 C26 1.398 . S
C390 C264 1.491 1_455 S
C396 C82 1.398 . S
C320 C418 1.491 1_655 S
C110 C424 1.398 . S
C446 C292 1.491 . S
C5 C103 1.166 . S
C19 C61 1.166 . S
C33 C75 1.166 . S
C89 C47 1.166 . S
C221 C117 1.353 . S
C173 C137 1.353 . S
C193 C145 1.353 . S
C201 C165 1.353 . S
C229 C327 1.166 . S
C285 C243 1.166 . S
C299 C257 1.166 . S
C313 C271 1.166 . S
C445 C341 1.353 . S
C361 C397 1.353 . S
C369 C417 1.353 . S
C389 C425 1.353 . S
