# Generated by pormake.
# Topology sxg, (6)-cn, num edge types: 1
# Building blocks:
#     Node 0, Type 0, BuildingBlock: VOLQOD_clean_sbu_1, # of connection points: 6
#     Node 1, Type 0, BuildingBlock: VOLQOD_clean_sbu_1, # of connection points: 6
#     Node 2, Type 0, BuildingBlock: VOLQOD_clean_sbu_1, # of connection points: 6
#     Node 3, Type 0, BuildingBlock: VOLQOD_clean_sbu_1, # of connection points: 6
#     Node 4, Type 0, BuildingBlock: VOLQOD_clean_sbu_1, # of connection points: 6
#     Node 5, Type 0, BuildingBlock: VOLQOD_clean_sbu_1, # of connection points: 6
#     Node 6, Type 0, BuildingBlock: VOLQOD_clean_sbu_1, # of connection points: 6
#     Node 7, Type 0, BuildingBlock: VOLQOD_clean_sbu_1, # of connection points: 6
#     Node 8, Type 0, BuildingBlock: VOLQOD_clean_sbu_1, # of connection points: 6
#     Node 9, Type 0, BuildingBlock: VOLQOD_clean_sbu_1, # of connection points: 6
#     Node 10, Type 0, BuildingBlock: VOLQOD_clean_sbu_1, # of connection points: 6
#     Node 11, Type 0, BuildingBlock: VOLQOD_clean_sbu_1, # of connection points: 6
#     Node 12, Type 0, BuildingBlock: VOLQOD_clean_sbu_1, # of connection points: 6
#     Node 13, Type 0, BuildingBlock: VOLQOD_clean_sbu_1, # of connection points: 6
#     Node 14, Type 0, BuildingBlock: VOLQOD_clean_sbu_1, # of connection points: 6
#     Node 15, Type 0, BuildingBlock: VOLQOD_clean_sbu_1, # of connection points: 6
#     Node 16, Type 0, BuildingBlock: VOLQOD_clean_sbu_1, # of connection points: 6
#     Node 17, Type 0, BuildingBlock: VOLQOD_clean_sbu_1, # of connection points: 6
#     Node 18, Type 0, BuildingBlock: VOLQOD_clean_sbu_1, # of connection points: 6
#     Node 19, Type 0, BuildingBlock: VOLQOD_clean_sbu_1, # of connection points: 6
#     Node 20, Type 0, BuildingBlock: VOLQOD_clean_sbu_1, # of connection points: 6
#     Node 21, Type 0, BuildingBlock: VOLQOD_clean_sbu_1, # of connection points: 6
#     Node 22, Type 0, BuildingBlock: VOLQOD_clean_sbu_1, # of connection points: 6
#     Node 23, Type 0, BuildingBlock: VOLQOD_clean_sbu_1, # of connection points: 6
#     Edge 24, Type (0, 0), BuildingBlock: XIVTED_clean_linker_0, # of connection points: 2
#     Edge 25, Type (0, 0), BuildingBlock: XIVTED_clean_linker_0, # of connection points: 2
#     Edge 26, Type (0, 0), BuildingBlock: XIVTED_clean_linker_0, # of connection points: 2
#     Edge 27, Type (0, 0), BuildingBlock: XIVTED_clean_linker_0, # of connection points: 2
#     Edge 28, Type (0, 0), BuildingBlock: XIVTED_clean_linker_0, # of connection points: 2
#     Edge 29, Type (0, 0), BuildingBlock: XIVTED_clean_linker_0, # of connection points: 2
#     Edge 30, Type (0, 0), BuildingBlock: XIVTED_clean_linker_0, # of connection points: 2
#     Edge 31, Type (0, 0), BuildingBlock: XIVTED_clean_linker_0, # of connection points: 2
#     Edge 32, Type (0, 0), BuildingBlock: XIVTED_clean_linker_0, # of connection points: 2
#     Edge 33, Type (0, 0), BuildingBlock: XIVTED_clean_linker_0, # of connection points: 2
#     Edge 34, Type (0, 0), BuildingBlock: XIVTED_clean_linker_0, # of connection points: 2
#     Edge 35, Type (0, 0), BuildingBlock: XIVTED_clean_linker_0, # of connection points: 2
#     Edge 36, Type (0, 0), BuildingBlock: XIVTED_clean_linker_0, # of connection points: 2
#     Edge 37, Type (0, 0), BuildingBlock: XIVTED_clean_linker_0, # of connection points: 2
#     Edge 38, Type (0, 0), BuildingBlock: XIVTED_clean_linker_0, # of connection points: 2
#     Edge 39, Type (0, 0), BuildingBlock: XIVTED_clean_linker_0, # of connection points: 2
#     Edge 40, Type (0, 0), BuildingBlock: XIVTED_clean_linker_0, # of connection points: 2
#     Edge 41, Type (0, 0), BuildingBlock: XIVTED_clean_linker_0, # of connection points: 2
#     Edge 42, Type (0, 0), BuildingBlock: XIVTED_clean_linker_0, # of connection points: 2
#     Edge 43, Type (0, 0), BuildingBlock: XIVTED_clean_linker_0, # of connection points: 2
#     Edge 44, Type (0, 0), BuildingBlock: XIVTED_clean_linker_0, # of connection points: 2
#     Edge 45, Type (0, 0), BuildingBlock: XIVTED_clean_linker_0, # of connection points: 2
#     Edge 46, Type (0, 0), BuildingBlock: XIVTED_clean_linker_0, # of connection points: 2
#     Edge 47, Type (0, 0), BuildingBlock: XIVTED_clean_linker_0, # of connection points: 2
#     Edge 48, Type (0, 0), BuildingBlock: XIVTED_clean_linker_0, # of connection points: 2
#     Edge 49, Type (0, 0), BuildingBlock: XIVTED_clean_linker_0, # of connection points: 2
#     Edge 50, Type (0, 0), BuildingBlock: XIVTED_clean_linker_0, # of connection points: 2
#     Edge 51, Type (0, 0), BuildingBlock: XIVTED_clean_linker_0, # of connection points: 2
#     Edge 52, Type (0, 0), BuildingBlock: XIVTED_clean_linker_0, # of connection points: 2
#     Edge 53, Type (0, 0), BuildingBlock: XIVTED_clean_linker_0, # of connection points: 2
#     Edge 54, Type (0, 0), BuildingBlock: XIVTED_clean_linker_0, # of connection points: 2
#     Edge 55, Type (0, 0), BuildingBlock: XIVTED_clean_linker_0, # of connection points: 2
#     Edge 56, Type (0, 0), BuildingBlock: XIVTED_clean_linker_0, # of connection points: 2
#     Edge 57, Type (0, 0), BuildingBlock: XIVTED_clean_linker_0, # of connection points: 2
#     Edge 58, Type (0, 0), BuildingBlock: XIVTED_clean_linker_0, # of connection points: 2
#     Edge 59, Type (0, 0), BuildingBlock: XIVTED_clean_linker_0, # of connection points: 2
#     Edge 60, Type (0, 0), BuildingBlock: XIVTED_clean_linker_0, # of connection points: 2
#     Edge 61, Type (0, 0), BuildingBlock: XIVTED_clean_linker_0, # of connection points: 2
#     Edge 62, Type (0, 0), BuildingBlock: XIVTED_clean_linker_0, # of connection points: 2
#     Edge 63, Type (0, 0), BuildingBlock: XIVTED_clean_linker_0, # of connection points: 2
#     Edge 64, Type (0, 0), BuildingBlock: XIVTED_clean_linker_0, # of connection points: 2
#     Edge 65, Type (0, 0), BuildingBlock: XIVTED_clean_linker_0, # of connection points: 2
#     Edge 66, Type (0, 0), BuildingBlock: XIVTED_clean_linker_0, # of connection points: 2
#     Edge 67, Type (0, 0), BuildingBlock: XIVTED_clean_linker_0, # of connection points: 2
#     Edge 68, Type (0, 0), BuildingBlock: XIVTED_clean_linker_0, # of connection points: 2
#     Edge 69, Type (0, 0), BuildingBlock: XIVTED_clean_linker_0, # of connection points: 2
#     Edge 70, Type (0, 0), BuildingBlock: XIVTED_clean_linker_0, # of connection points: 2
#     Edge 71, Type (0, 0), BuildingBlock: XIVTED_clean_linker_0, # of connection points: 2
#     Edge 72, Type (0, 0), BuildingBlock: XIVTED_clean_linker_0, # of connection points: 2
#     Edge 73, Type (0, 0), BuildingBlock: XIVTED_clean_linker_0, # of connection points: 2
#     Edge 74, Type (0, 0), BuildingBlock: XIVTED_clean_linker_0, # of connection points: 2
#     Edge 75, Type (0, 0), BuildingBlock: XIVTED_clean_linker_0, # of connection points: 2
#     Edge 76, Type (0, 0), BuildingBlock: XIVTED_clean_linker_0, # of connection points: 2
#     Edge 77, Type (0, 0), BuildingBlock: XIVTED_clean_linker_0, # of connection points: 2
#     Edge 78, Type (0, 0), BuildingBlock: XIVTED_clean_linker_0, # of connection points: 2
#     Edge 79, Type (0, 0), BuildingBlock: XIVTED_clean_linker_0, # of connection points: 2
#     Edge 80, Type (0, 0), BuildingBlock: XIVTED_clean_linker_0, # of connection points: 2
#     Edge 81, Type (0, 0), BuildingBlock: XIVTED_clean_linker_0, # of connection points: 2
#     Edge 82, Type (0, 0), BuildingBlock: XIVTED_clean_linker_0, # of connection points: 2
#     Edge 83, Type (0, 0), BuildingBlock: XIVTED_clean_linker_0, # of connection points: 2
#     Edge 84, Type (0, 0), BuildingBlock: XIVTED_clean_linker_0, # of connection points: 2
#     Edge 85, Type (0, 0), BuildingBlock: XIVTED_clean_linker_0, # of connection points: 2
#     Edge 86, Type (0, 0), BuildingBlock: XIVTED_clean_linker_0, # of connection points: 2
#     Edge 87, Type (0, 0), BuildingBlock: XIVTED_clean_linker_0, # of connection points: 2
#     Edge 88, Type (0, 0), BuildingBlock: XIVTED_clean_linker_0, # of connection points: 2
#     Edge 89, Type (0, 0), BuildingBlock: XIVTED_clean_linker_0, # of connection points: 2
#     Edge 90, Type (0, 0), BuildingBlock: XIVTED_clean_linker_0, # of connection points: 2
#     Edge 91, Type (0, 0), BuildingBlock: XIVTED_clean_linker_0, # of connection points: 2
#     Edge 92, Type (0, 0), BuildingBlock: XIVTED_clean_linker_0, # of connection points: 2
#     Edge 93, Type (0, 0), BuildingBlock: XIVTED_clean_linker_0, # of connection points: 2
#     Edge 94, Type (0, 0), BuildingBlock: XIVTED_clean_linker_0, # of connection points: 2
#     Edge 95, Type (0, 0), BuildingBlock: XIVTED_clean_linker_0, # of connection points: 2
# Relax obj value: 0.328
# Max RMSD: 0.256
# Mean RMSD: 0.256
data_MOF--net-sxg--node1-VOLQOD_clean_sbu_1--edge1-XIVTED_clean_linker_0
_symmetry_space_group_name_H-M    P1
_symmetry_Int_Tables_number       1
_symmetry_cell_setting            triclinic
loop_
_symmetry_equiv_pos_as_xyz
'x, y, z'
_cell_length_a     47.365096
_cell_length_b     47.544512
_cell_length_c     47.412915
_cell_angle_alpha  90.005332
_cell_angle_beta   90.094208
_cell_angle_gamma 89.961523
loop_
_atom_site_label
_atom_site_type_symbol
_atom_site_fract_x
_atom_site_fract_y
_atom_site_fract_z
_atom_type_partial_charge
O0 O 0.07615 0.25524 0.22772 0.0
Zn1 Zn 0.06866 0.2963 0.23144 0.0
O2 O 0.05008 0.3095 0.19821 0.0
Zn3 Zn 0.07057 0.33944 0.18054 0.0
Zn4 Zn 0.04526 0.27949 0.17177 0.0
Zn5 Zn 0.01446 0.32506 0.20838 0.0
O6 O 0.04286 0.37039 0.16901 0.0
O7 O 0.01725 0.36681 0.20794 0.0
O8 O 0.10305 0.31973 0.24021 0.0
O9 O 0.09787 0.35463 0.20918 0.0
O10 O 0.09423 0.32385 0.14842 0.0
O11 O 0.07707 0.28058 0.14408 0.0
O12 O 0.0084 0.28468 0.15122 0.0
O13 O 0.04256 0.29773 0.26472 0.0
O14 O 0.98583 0.31532 0.1786 0.0
O15 O 0.00192 0.3126 0.24675 0.0
C16 C 0.06366 0.23634 0.21326 0.0
C17 C 0.02458 0.38042 0.18607 0.0
C18 C 0.09471 0.29951 0.13705 0.0
C19 C 0.11011 0.34376 0.23055 0.0
C20 C 0.98681 0.29977 0.15671 0.0
C21 C 0.01638 0.30315 0.26733 0.0
O22 O 0.04819 0.24233 0.19203 0.0
O23 O 0.41626 0.72189 0.71647 0.0
Zn24 Zn 0.42975 0.68257 0.72112 0.0
O25 O 0.44311 0.66899 0.68569 0.0
Zn26 Zn 0.42381 0.63551 0.6732 0.0
Zn27 Zn 0.44114 0.69781 0.65762 0.0
Zn28 Zn 0.48124 0.65853 0.6905 0.0
O29 O 0.45232 0.60382 0.66537 0.0
O30 O 0.48275 0.61773 0.6982 0.0
O31 O 0.40039 0.65659 0.73745 0.0
O32 O 0.40007 0.62227 0.70544 0.0
O33 O 0.39671 0.64522 0.64097 0.0
O34 O 0.40734 0.69034 0.6342 0.0
O35 O 0.47423 0.69493 0.63113 0.0
O36 O 0.46172 0.68703 0.7486 0.0
O37 O 0.50144 0.66445 0.65404 0.0
O38 O 0.49975 0.67844 0.72271 0.0
C39 C 0.42311 0.74122 0.69915 0.0
C40 C 0.47287 0.59874 0.68214 0.0
C41 C 0.39233 0.66882 0.62879 0.0
C42 C 0.39199 0.63258 0.7289 0.0
C43 C 0.49605 0.67928 0.63231 0.0
C44 C 0.48841 0.68685 0.74552 0.0
O45 O 0.43568 0.73587 0.67595 0.0
O46 O 0.53638 0.20968 0.71483 0.0
Zn47 Zn 0.52592 0.16927 0.71915 0.0
O48 O 0.51747 0.16222 0.75748 0.0
Zn49 Zn 0.54164 0.13485 0.77516 0.0
Zn50 Zn 0.51624 0.19592 0.77831 0.0
Zn51 Zn 0.48189 0.14506 0.75911 0.0
O52 O 0.51765 0.10404 0.79304 0.0
O53 O 0.48919 0.10428 0.7562 0.0
O54 O 0.55618 0.14292 0.70572 0.0
O55 O 0.56417 0.11712 0.74429 0.0
O56 O 0.56823 0.15406 0.80268 0.0
O57 O 0.55154 0.19774 0.80052 0.0
O58 O 0.48564 0.19384 0.80749 0.0
O59 O 0.4911 0.16501 0.69568 0.0
O60 O 0.46544 0.15281 0.79759 0.0
O61 O 0.45714 0.15697 0.72689 0.0
C62 C 0.52854 0.23147 0.72843 0.0
C63 C 0.49932 0.09182 0.77762 0.0
C64 C 0.56958 0.18001 0.80946 0.0
C65 C 0.56839 0.12256 0.7183 0.0
C66 C 0.46911 0.17371 0.81407 0.0
C67 C 0.46506 0.16239 0.7018 0.0
O68 O 0.51665 0.22966 0.75253 0.0
O69 O 0.92534 0.78199 0.21042 0.0
Zn70 Zn 0.94216 0.82009 0.21698 0.0
O71 O 0.95402 0.82351 0.25487 0.0
Zn72 Zn 0.93343 0.85064 0.27695 0.0
Zn73 Zn 0.95483 0.78787 0.27208 0.0
Zn74 Zn 0.99048 0.83908 0.25496 0.0
O75 O 0.9616 0.87635 0.29705 0.0
O76 O 0.98593 0.88032 0.2578 0.0
O77 O 0.91664 0.85219 0.20793 0.0
O78 O 0.91174 0.87442 0.24916 0.0
O79 O 0.90798 0.83048 0.30494 0.0
O80 O 0.92315 0.78652 0.29929 0.0
O81 O 0.98923 0.78419 0.29657 0.0
O82 O 0.9756 0.82152 0.19134 0.0
O83 O 0.00982 0.8257 0.29015 0.0
O84 O 0.01176 0.82997 0.21994 0.0
C85 C 0.93301 0.7585 0.22097 0.0
C86 C 0.9796 0.8895 0.28209 0.0
C87 C 0.90693 0.80433 0.31107 0.0
C88 C 0.90721 0.87257 0.22265 0.0
C89 C 0.00713 0.80285 0.30394 0.0
C90 C 0.00197 0.82453 0.19554 0.0
O91 O 0.94805 0.75727 0.24334 0.0
O92 O 0.24661 0.06115 0.27843 0.0
Zn93 Zn 0.23719 0.05321 0.319 0.0
O94 O 0.20252 0.03342 0.32092 0.0
Zn95 Zn 0.17357 0.05052 0.34345 0.0
Zn96 Zn 0.18863 0.02511 0.28438 0.0
Zn97 Zn 0.20872 0.00018 0.3414 0.0
O98 O 0.15874 0.0227 0.37278 0.0
O99 O 0.20185 0.00836 0.38177 0.0
O100 O 0.23391 0.08814 0.3426 0.0
O101 O 0.19132 0.08375 0.36237 0.0
O102 O 0.14259 0.06484 0.31836 0.0
O103 O 0.15687 0.05159 0.27573 0.0
O104 O 0.1712 0.98688 0.28495 0.0
O105 O 0.26922 0.02851 0.33218 0.0
O106 O 0.17971 0.9721 0.32867 0.0
O107 O 0.24817 0.98713 0.33782 0.0
C108 C 0.23939 0.04857 0.25575 0.0
C109 C 0.1761 0.00984 0.38878 0.0
C110 C 0.13968 0.06473 0.29162 0.0
C111 C 0.21465 0.0968 0.35932 0.0
C112 C 0.16691 0.96966 0.30513 0.0
C113 C 0.2704 0.00207 0.33652 0.0
O114 O 0.21879 0.03128 0.25515 0.0
O115 O 0.22888 0.91947 0.76473 0.0
Zn116 Zn 0.23959 0.92966 0.8045 0.0
O117 O 0.27552 0.94738 0.80378 0.0
Zn118 Zn 0.30516 0.93061 0.82564 0.0
Zn119 Zn 0.28838 0.95346 0.76648 0.0
Zn120 Zn 0.2721 0.98127 0.82327 0.0
O121 O 0.32201 0.95817 0.85434 0.0
O122 O 0.27977 0.97476 0.8637 0.0
O123 O 0.24254 0.89597 0.83035 0.0
O124 O 0.28694 0.89918 0.84627 0.0
O125 O 0.33464 0.91402 0.8002 0.0
O126 O 0.31816 0.92487 0.75767 0.0
O127 O 0.30877 0.99043 0.76517 0.0
O128 O 0.20932 0.95735 0.81706 0.0
O129 O 0.30213 0.0065 0.80874 0.0
O130 O 0.23398 -0.00303 0.82081 0.0
C131 C 0.23571 0.93034 0.74108 0.0
C132 C 0.30537 0.97145 0.87068 0.0
C133 C 0.33589 0.91222 0.77341 0.0
C134 C 0.26283 0.88727 0.84591 0.0
C135 C 0.3148 0.00748 0.7851 0.0
C136 C 0.2106 0.9839 0.82085 0.0
O137 O 0.25664 0.94716 0.73879 0.0
O138 O 0.7453 0.41501 0.70254 0.0
Zn139 Zn 0.73976 0.42963 0.66438 0.0
O140 O 0.70087 0.43846 0.66022 0.0
Zn141 Zn 0.68351 0.4166 0.63089 0.0
Zn142 Zn 0.68083 0.4368 0.69524 0.0
Zn143 Zn 0.69977 0.47573 0.64815 0.0
O144 O 0.67976 0.43841 0.59411 0.0
O145 O 0.70537 0.47538 0.60718 0.0
O146 O 0.7519 0.39945 0.63743 0.0
O147 O 0.71016 0.38619 0.62019 0.0
O148 O 0.64789 0.39858 0.64559 0.0
O149 O 0.65313 0.40528 0.69193 0.0
O150 O 0.65464 0.4706 0.69908 0.0
O151 O 0.76408 0.46443 0.66435 0.0
O152 O 0.66225 0.4915 0.65785 0.0
O153 O 0.73099 0.49755 0.66527 0.0
C154 C 0.73306 0.41812 0.72614 0.0
C155 C 0.69459 0.45996 0.58814 0.0
C156 C 0.64025 0.3942 0.67105 0.0
C157 C 0.73672 0.38297 0.62262 0.0
C158 C 0.6474 0.48813 0.67995 0.0
C159 C 0.75657 0.48992 0.66814 0.0
O160 O 0.70845 0.42917 0.728 0.0
O161 O 0.74515 0.54769 0.18564 0.0
Zn162 Zn 0.74901 0.53537 0.1457 0.0
O163 O 0.78841 0.53097 0.1364 0.0
Zn164 Zn 0.79907 0.55805 0.10762 0.0
Zn165 Zn 0.81134 0.53533 0.16957 0.0
Zn166 Zn 0.79424 0.49355 0.12249 0.0
O167 O 0.80663 0.53939 0.07025 0.0
O168 O 0.79231 0.49598 0.0807 0.0
O169 O 0.72914 0.56352 0.12094 0.0
O170 O 0.76572 0.58151 0.09784 0.0
O171 O 0.83002 0.58418 0.12112 0.0
O172 O 0.83365 0.57059 0.16588 0.0
O173 O 0.84095 0.50503 0.17218 0.0
O174 O 0.72946 0.49821 0.1443 0.0
O175 O 0.8327 0.47957 0.13378 0.0
O176 O 0.76353 0.46709 0.1364 0.0
C177 C 0.76138 0.5461 0.20698 0.0
C178 C 0.79931 0.51472 0.06285 0.0
C179 C 0.84038 0.58704 0.14581 0.0
C180 C 0.73948 0.58086 0.10335 0.0
C181 C 0.84812 0.48576 0.15493 0.0
C182 C 0.73798 0.47285 0.14263 0.0
O183 O 0.78728 0.53908 0.20454 0.0
O184 O 0.29671 0.23264 0.06862 0.0
Zn185 Zn 0.33653 0.2275 0.05471 0.0
O186 O 0.341 0.19043 0.04064 0.0
Zn187 Zn 0.37004 0.16841 0.05899 0.0
Zn188 Zn 0.30615 0.17087 0.04004 0.0
Zn189 Zn 0.35505 0.19381 0.00363 0.0
O190 O 0.39718 0.15293 0.02865 0.0
O191 O 0.39664 0.19359 0.00659 0.0
O192 O 0.36627 0.23475 0.08393 0.0
O193 O 0.3905 0.19437 0.08574 0.0
O194 O 0.35184 0.13799 0.08275 0.0
O195 O 0.30642 0.14338 0.0718 0.0
O196 O 0.30412 0.14722 0.0049 0.0
O197 O 0.33998 0.25581 0.02358 0.0
O198 O 0.34285 0.15988 0.98165 0.0
O199 O 0.34373 0.2296 0.98508 0.0
C200 C 0.27373 0.2209 0.06085 0.0
C201 C 0.408 0.16983 0.01076 0.0
C202 C 0.32589 0.13157 0.08608 0.0
C203 C 0.38639 0.21973 0.09363 0.0
C204 C 0.32163 0.1437 0.98477 0.0
C205 C 0.34062 0.25343 -0.00316 0.0
O206 O 0.27376 0.19801 0.04666 0.0
O207 O 0.74857 0.25051 0.92797 0.0
Zn208 Zn 0.77952 0.26011 0.95526 0.0
O209 O 0.78685 0.29983 0.95669 0.0
Zn210 Zn 0.82553 0.30885 0.94783 0.0
Zn211 Zn 0.76432 0.31675 0.92817 0.0
Zn212 Zn 0.77743 0.31571 0.99284 0.0
O213 O 0.84656 0.32086 0.98249 0.0
O214 O 0.81307 0.32206 0.01516 0.0
O215 O 0.81438 0.23869 0.94406 0.0
O216 O 0.84475 0.27347 0.93564 0.0
O217 O 0.82777 0.33771 0.91618 0.0
O218 O 0.78802 0.3247 0.89492 0.0
O219 O 0.75086 0.35428 0.9409 0.0
O220 O 0.76425 0.24825 0.99248 0.0
O221 O 0.75791 0.35301 0.98727 0.0
O222 O 0.75476 0.28819 0.01543 0.0
C223 C 0.73036 0.26585 0.91561 0.0
C224 C 0.83892 0.32384 0.00806 0.0
C225 C 0.81154 0.33749 0.89473 0.0
C226 C 0.83855 0.2474 0.93616 0.0
C227 C 0.74952 0.36572 0.96508 0.0
C228 C 0.75346 0.26152 0.01319 0.0
O229 O 0.73231 0.29253 0.91585 0.0
O230 O 0.7363 0.7301 0.43233 0.0
Zn231 Zn 0.69731 0.72094 0.44523 0.0
O232 O 0.69224 0.68098 0.44609 0.0
Zn233 Zn 0.66047 0.66894 0.42289 0.0
Zn234 Zn 0.72659 0.66199 0.43553 0.0
Zn235 Zn 0.68518 0.67108 0.48414 0.0
O236 O 0.62752 0.65527 0.44689 0.0
O237 O 0.64438 0.66622 0.48937 0.0
O238 O 0.66979 0.73918 0.41904 0.0
O239 O 0.645 0.70266 0.40323 0.0
O240 O 0.67345 0.64097 0.39296 0.0
O241 O 0.72005 0.64417 0.39856 0.0
O242 O 0.73457 0.62787 0.45974 0.0
O243 O 0.69264 0.73729 0.48387 0.0
O244 O 0.70039 0.63333 0.49118 0.0
O245 O 0.6979 0.70015 0.51187 0.0
C246 C 0.7588 0.7159 0.4287 0.0
C247 C 0.62442 0.65816 0.47344 0.0
C248 C 0.6986 0.63506 0.38525 0.0
C249 C 0.6502 0.72891 0.40384 0.0
C250 C 0.71961 0.61853 0.47992 0.0
C251 C 0.69585 0.72659 0.50828 0.0
O252 O 0.75904 0.68917 0.43117 0.0
O253 O 0.19008 0.72986 0.55693 0.0
Zn254 Zn 0.15131 0.73469 0.54044 0.0
O255 O 0.14608 0.77229 0.52827 0.0
Zn256 Zn 0.11553 0.79214 0.54623 0.0
Zn257 Zn 0.18034 0.79245 0.53045 0.0
Zn258 Zn 0.13377 0.77107 0.4906 0.0
O259 O 0.08901 0.80853 0.51606 0.0
O260 O 0.09217 0.76957 0.49119 0.0
O261 O 0.1203 0.72449 0.56699 0.0
O262 O 0.09406 0.76349 0.56876 0.0
O263 O 0.13157 0.82178 0.57264 0.0
O264 O 0.17753 0.81862 0.56312 0.0
O265 O 0.18373 0.81797 0.49692 0.0
O266 O 0.15117 0.70856 0.50728 0.0
O267 O 0.14549 0.80705 0.47196 0.0
O268 O 0.14754 0.73718 0.47047 0.0
C269 C 0.21303 0.74234 0.55053 0.0
C270 C 0.07929 0.79217 0.49706 0.0
C271 C 0.15713 0.82913 0.57707 0.0
C272 C 0.09857 0.73787 0.57546 0.0
C273 C 0.16648 0.82309 0.47687 0.0
C274 C 0.15153 0.71281 0.48077 0.0
O275 O 0.21299 0.76573 0.53722 0.0
O276 O 0.91056 0.71361 0.75565 0.0
Zn277 Zn 0.92242 0.6737 0.75867 0.0
O278 O 0.94053 0.66727 0.79383 0.0
Zn279 Zn 0.92171 0.63942 0.81655 0.0
Zn280 Zn 0.94471 0.70193 0.8139 0.0
Zn281 Zn 0.97603 0.65082 0.78627 0.0
O282 O 0.95086 0.61119 0.8318 0.0
O283 O 0.97325 0.60954 0.79098 0.0
O284 O 0.89096 0.64649 0.75341 0.0
O285 O 0.89451 0.61864 0.7911 0.0
O286 O 0.89901 0.65937 0.84689 0.0
O287 O 0.91398 0.70358 0.84283 0.0
O288 O 0.98228 0.70145 0.8346 0.0
O289 O 0.94938 0.6693 0.72642 0.0
O290 O 0.00361 0.6647 0.81474 0.0
O291 O 0.98966 0.65839 0.74759 0.0
C292 C 0.92184 0.7358 0.76566 0.0
C293 C 0.96785 0.59891 0.81491 0.0
C294 C 0.89788 0.68527 0.85406 0.0
C295 C 0.88356 0.62476 0.76725 0.0
C296 C 0.00323 0.68462 0.83269 0.0
C297 C 0.97575 0.66438 0.72548 0.0
O298 O 0.93853 0.73492 0.7869 0.0
O299 O 0.5784 0.26238 0.27084 0.0
Zn300 Zn 0.56999 0.30306 0.26437 0.0
O301 O 0.55767 0.31894 0.29969 0.0
Zn302 Zn 0.58068 0.35069 0.31039 0.0
Zn303 Zn 0.55616 0.29161 0.32945 0.0
Zn304 Zn 0.52058 0.33224 0.29427 0.0
O305 O 0.5558 0.38562 0.31651 0.0
O306 O 0.523 0.37277 0.28542 0.0
O307 O 0.60241 0.325 0.24699 0.0
O308 O 0.60486 0.3606 0.27734 0.0
O309 O 0.60788 0.3389 0.34198 0.0
O310 O 0.59062 0.29664 0.35242 0.0
O311 O 0.52207 0.29733 0.35497 0.0
O312 O 0.53825 0.30208 0.23607 0.0
O313 O 0.49792 0.3283 0.32959 0.0
O314 O 0.50115 0.31234 0.26273 0.0
C315 C 0.57069 0.24484 0.28969 0.0
C316 C 0.53566 0.3917 0.29952 0.0
C317 C 0.60916 0.31571 0.35563 0.0
C318 C 0.61236 0.3488 0.25442 0.0
C319 C 0.5009 0.31366 0.35187 0.0
C320 C 0.51169 0.30362 0.2397 0.0
O321 O 0.55927 0.25258 0.31281 0.0
O322 O 0.43945 0.78954 0.26712 0.0
Zn323 Zn 0.45498 0.82874 0.26419 0.0
O324 O 0.46505 0.83648 0.2264 0.0
Zn325 Zn 0.44336 0.86597 0.20871 0.0
Zn326 Zn 0.46484 0.80309 0.20523 0.0
Zn327 Zn 0.5017 0.85141 0.22591 0.0
O328 O 0.47055 0.89459 0.19107 0.0
O329 O 0.49716 0.89253 0.22912 0.0
O330 O 0.42836 0.85835 0.27788 0.0
O331 O 0.42245 0.8855 0.23988 0.0
O332 O 0.41547 0.84881 0.18074 0.0
O333 O 0.43104 0.80463 0.18102 0.0
O334 O 0.49717 0.80234 0.17819 0.0
O335 O 0.48965 0.82867 0.28818 0.0
O336 O 0.51906 0.84248 0.18811 0.0
O337 O 0.52465 0.83792 0.2585 0.0
C338 C 0.44621 0.76755 0.25322 0.0
C339 C 0.48936 0.90539 0.20703 0.0
C340 C 0.41375 0.82327 0.17253 0.0
C341 C 0.41816 0.88012 0.26591 0.0
C342 C 0.5151 0.82135 0.17201 0.0
C343 C 0.51588 0.83111 0.28292 0.0
O344 O 0.45994 0.76915 0.23012 0.0
O345 O 0.04769 0.21725 0.79012 0.0
Zn346 Zn 0.03389 0.17789 0.78389 0.0
O347 O 0.02013 0.17537 0.74642 0.0
Zn348 Zn 0.04107 0.15049 0.72255 0.0
Zn349 Zn 0.01752 0.21114 0.72901 0.0
Zn350 Zn 0.98466 0.15764 0.74784 0.0
O351 O 0.01431 0.12424 0.70197 0.0
O352 O 0.9904 0.11686 0.74119 0.0
O353 O 0.06255 0.14717 0.79044 0.0
O354 O 0.06427 0.12666 0.74813 0.0
O355 O 0.0661 0.17229 0.69593 0.0
O356 O 0.05041 0.2157 0.70333 0.0
O357 O 0.98361 0.21143 0.70275 0.0
O358 O 0.00218 0.17285 0.81154 0.0
O359 O 0.96242 0.1715 0.71501 0.0
O360 O 0.9651 0.16305 0.78464 0.0
C361 C 0.03833 0.24055 0.7804 0.0
C362 C -0.00234 0.10914 0.71661 0.0
C363 C 0.06731 0.1987 0.69135 0.0
C364 C 0.07112 0.12761 0.77411 0.0
C365 C 0.96473 0.19266 0.69869 0.0
C366 C 0.9759 0.16793 0.80874 0.0
O367 O 0.02222 0.24152 0.75868 0.0
O368 O 0.73017 0.93129 0.70628 0.0
Zn369 Zn 0.73752 0.93619 0.66493 0.0
O370 O 0.7763 0.94661 0.65887 0.0
Zn371 Zn 0.79514 0.9219 0.6321 0.0
Zn372 Zn 0.79625 0.94723 0.69398 0.0
Zn373 Zn 0.77629 0.98396 0.64447 0.0
O374 O 0.79997 0.94107 0.59323 0.0
O375 O 0.77849 0.98148 0.60334 0.0
O376 O 0.7283 0.90006 0.64517 0.0
O377 O 0.76961 0.88906 0.62569 0.0
O378 O 0.83059 0.90464 0.64957 0.0
O379 O 0.82323 0.91534 0.69471 0.0
O380 O 0.82107 0.98094 0.69632 0.0
O381 O 0.71135 0.96702 0.65293 0.0
O382 O 0.81025 0.00525 0.65787 0.0
O383 O 0.74008 0.00392 0.65251 0.0
C384 C 0.74443 0.9362 0.72853 0.0
C385 C 0.78906 0.96448 0.58564 0.0
C386 C 0.83672 0.90203 0.67573 0.0
C387 C 0.744 0.88327 0.63135 0.0
C388 C 0.82566 0.00127 0.67951 0.0
C389 C 0.71533 -0.00651 0.65198 0.0
O390 O 0.77016 0.9439 0.72728 0.0
O391 O 0.76283 0.07097 0.21755 0.0
Zn392 Zn 0.74734 0.06485 0.17883 0.0
O393 O 0.71348 0.04416 0.1818 0.0
Zn394 Zn 0.6808 0.05956 0.16377 0.0
Zn395 Zn 0.70501 0.03509 0.21979 0.0
Zn396 Zn 0.71807 0.01193 0.16 0.0
O397 O 0.6644 0.03232 0.13431 0.0
O398 O 0.70703 0.02038 0.12069 0.0
O399 O 0.73872 0.10085 0.15823 0.0
O400 O 0.69365 0.09508 0.14528 0.0
O401 O 0.65253 0.07068 0.19319 0.0
O402 O 0.67548 0.06241 0.23336 0.0
O403 O 0.68522 -0.00242 0.21938 0.0
O404 O 0.77822 0.0416 0.16054 0.0
O405 O 0.69086 0.98374 0.17487 0.0
O406 O 0.75751 -0.00036 0.15944 0.0
C407 C 0.76061 0.05674 0.24026 0.0
C408 C 0.6807 0.02126 0.11604 0.0
C409 C 0.65455 0.07278 0.21994 0.0
C410 C 0.71643 0.10941 0.14564 0.0
C411 C 0.67916 0.98115 0.19891 0.0
C412 C 0.77933 0.01501 0.15707 0.0
O413 O 0.7405 0.03913 0.24391 0.0
O414 O 0.25151 0.54591 0.2761 0.0
Zn415 Zn 0.26011 0.53494 0.31495 0.0
O416 O 0.30004 0.53248 0.31872 0.0
Zn417 Zn 0.31259 0.55772 0.3483 0.0
Zn418 Zn 0.31943 0.53979 0.28352 0.0
Zn419 Zn 0.30741 0.49465 0.32926 0.0
O420 O 0.32171 0.53672 0.38424 0.0
O421 O 0.30934 0.49356 0.37077 0.0
O422 O 0.24255 0.56298 0.34081 0.0
O423 O 0.28055 0.58161 0.3609 0.0
O424 O 0.34286 0.58393 0.33392 0.0
O425 O 0.33927 0.57677 0.28756 0.0
O426 O 0.35258 0.51245 0.27877 0.0
O427 O 0.2414 0.4978 0.31955 0.0
O428 O 0.34521 0.48443 0.31553 0.0
O429 O 0.27694 0.46765 0.31646 0.0
C430 C 0.26417 0.54683 0.25254 0.0
C431 C 0.31656 0.51102 0.38977 0.0
C432 C 0.34906 0.59046 0.30855 0.0
C433 C 0.25397 0.58061 0.35739 0.0
C434 C 0.36079 0.49303 0.29552 0.0
C435 C 0.25054 0.47282 0.31663 0.0
O436 O 0.29085 0.54271 0.2507 0.0
O437 O 0.25005 0.43338 0.7988 0.0
Zn438 Zn 0.24674 0.447 0.83822 0.0
O439 O 0.20791 0.45439 0.84671 0.0
Zn440 Zn 0.19507 0.43155 0.87801 0.0
Zn441 Zn 0.18465 0.44982 0.81405 0.0
Zn442 Zn 0.20538 0.49269 0.85742 0.0
O443 O 0.19258 0.45411 0.91449 0.0
O444 O 0.21203 0.49356 0.89834 0.0
O445 O 0.26359 0.41819 0.86416 0.0
O446 O 0.22549 0.40438 0.88779 0.0
O447 O 0.16031 0.409 0.86687 0.0
O448 O 0.16012 0.41639 0.82039 0.0
O449 O 0.15613 0.48137 0.81125 0.0
O450 O 0.2692 0.48267 0.83836 0.0
O451 O 0.16674 0.50742 0.84867 0.0
O452 O 0.23603 0.51567 0.83946 0.0
C453 C 0.23433 0.43534 0.77711 0.0
C454 C 0.2047 0.4777 0.9186 0.0
C455 C 0.15065 0.40391 0.8422 0.0
C456 C 0.25166 0.40234 0.88218 0.0
C457 C 0.1501 0.50104 0.82854 0.0
C458 C 0.26162 0.50826 0.83581 0.0
O459 O 0.20872 0.4437 0.77891 0.0
O460 O 0.70148 0.75702 0.92561 0.0
Zn461 Zn 0.66084 0.76137 0.93644 0.0
O462 O 0.65497 0.79792 0.95118 0.0
Zn463 Zn 0.62599 0.81909 0.93192 0.0
Zn464 Zn 0.68921 0.81865 0.95288 0.0
Zn465 Zn 0.63973 0.7937 0.98772 0.0
O466 O 0.59815 0.83464 0.96115 0.0
O467 O 0.59815 0.79411 0.98351 0.0
O468 O 0.63395 0.75454 0.90444 0.0
O469 O 0.60621 0.79251 0.90526 0.0
O470 O 0.64416 0.84952 0.90823 0.0
O471 O 0.68932 0.84571 0.92069 0.0
O472 O 0.68884 0.84263 0.98791 0.0
O473 O 0.65515 0.73216 0.96653 0.0
O474 O 0.65075 0.82748 0.01074 0.0
O475 O 0.65041 0.75724 0.0057 0.0
C476 C 0.72386 0.76939 0.93405 0.0
C477 C 0.58684 0.8178 0.97874 0.0
C478 C 0.66998 0.85668 0.90557 0.0
C479 C 0.61257 0.76827 0.89553 0.0
C480 C 0.67099 0.84492 0.00794 0.0
C481 C 0.65353 0.7337 0.99331 0.0
O482 O 0.72282 0.79254 0.94777 0.0
O483 O 0.23054 0.7432 0.06895 0.0
Zn484 Zn 0.19817 0.73222 0.0442 0.0
O485 O 0.19488 0.69226 0.04077 0.0
Zn486 Zn 0.1575 0.6791 0.04999 0.0
Zn487 Zn 0.21981 0.67555 0.06749 0.0
Zn488 Zn 0.20468 0.68024 0.00341 0.0
O489 O 0.13596 0.66925 0.01471 0.0
O490 O 0.16933 0.67157 0.98196 0.0
O491 O 0.16285 0.74878 0.06004 0.0
O492 O 0.13598 0.71101 0.06721 0.0
O493 O 0.16004 0.64671 0.07799 0.0
O494 O 0.19771 0.66298 0.10071 0.0
O495 O 0.23623 0.64027 0.05127 0.0
O496 O 0.20766 0.74848 0.0068 0.0
O497 O 0.22842 0.64528 0.00525 0.0
O498 O 0.22253 0.71163 0.98172 0.0
C499 C 0.25031 0.72904 0.08028 0.0
C500 C 0.14367 0.66803 0.98901 0.0
C501 C 0.17632 0.64688 0.09944 0.0
C502 C 0.14017 0.73744 0.0688 0.0
C503 C 0.23834 0.63138 0.02604 0.0
C504 C 0.21923 0.73803 0.98495 0.0
O505 O 0.25013 0.70225 0.07999 0.0
O506 O 0.24189 0.26633 0.56868 0.0
Zn507 Zn 0.2768 0.27019 0.54594 0.0
O508 O 0.2849 0.30915 0.53785 0.0
Zn509 Zn 0.32171 0.31994 0.55359 0.0
Zn510 Zn 0.25455 0.33175 0.55328 0.0
Zn511 Zn 0.28484 0.31465 0.49759 0.0
O512 O 0.34985 0.32986 0.52241 0.0
O513 O 0.3241 0.32076 0.48421 0.0
O514 O 0.30827 0.25146 0.56693 0.0
O515 O 0.33891 0.28643 0.57262 0.0
O516 O 0.31692 0.35052 0.5838 0.0
O517 O 0.26996 0.35341 0.58497 0.0
O518 O 0.24219 0.36224 0.52691 0.0
O519 O 0.26866 0.24919 0.51056 0.0
O520 O 0.26418 0.34973 0.48765 0.0
O521 O 0.26931 0.28151 0.47671 0.0
C522 C 0.22141 0.28255 0.57456 0.0
C523 C 0.34742 0.32748 0.49569 0.0
C524 C 0.29412 0.36048 0.59418 0.0
C525 C 0.33165 0.26089 0.57611 0.0
C526 C 0.24873 0.36681 0.50135 0.0
C527 C 0.26512 0.2564 0.48497 0.0
O528 O 0.22202 0.30859 0.56818 0.0
O529 O 0.80634 0.23242 0.42307 0.0
Zn530 Zn 0.84028 0.2216 0.44559 0.0
O531 O 0.84173 0.18204 0.45112 0.0
Zn532 Zn 0.87934 0.16756 0.44457 0.0
Zn533 Zn 0.81684 0.16485 0.42506 0.0
Zn534 Zn 0.82803 0.17315 0.48785 0.0
O535 O 0.89827 0.1594 0.4828 0.0
O536 O 0.86104 0.1635 0.51115 0.0
O537 O 0.87491 0.23545 0.42624 0.0
O538 O 0.90236 0.19752 0.42475 0.0
O539 O 0.87579 0.13432 0.41698 0.0
O540 O 0.83993 0.15256 0.39251 0.0
O541 O 0.80188 0.12896 0.44194 0.0
O542 O 0.83433 0.24054 0.48238 0.0
O543 O 0.80319 0.13878 0.48772 0.0
O544 O 0.81157 0.20734 0.50656 0.0
C545 C 0.78553 0.21857 0.41334 0.0
C546 C 0.88718 0.15893 0.50737 0.0
C547 C 0.8605 0.13543 0.39471 0.0
C548 C 0.89781 0.22338 0.41913 0.0
C549 C 0.79695 0.12231 0.46745 0.0
C550 C 0.81945 0.23279 0.50333 0.0
O551 O 0.78536 0.19172 0.41369 0.0
H552 H 0.15474 0.32474 0.2625 0.0
H553 H 0.19333 0.47776 0.31599 0.0
H554 H 0.11435 0.40054 0.23263 0.0
H555 H 0.26006 0.41724 0.30229 0.0
H556 H 0.1594 0.4441 0.29773 0.0
H557 H 0.1897 0.3539 0.28768 0.0
C558 C 0.15323 0.34744 0.26129 0.0
C559 C 0.13177 0.36033 0.2454 0.0
C560 C 0.18144 0.43812 0.29898 0.0
C561 C 0.17081 0.39331 0.27445 0.0
C562 C 0.20089 0.45726 0.30949 0.0
C563 C 0.22975 0.45054 0.31016 0.0
C564 C 0.19073 0.4119 0.2893 0.0
C565 C 0.23805 0.42339 0.30183 0.0
C566 C 0.17312 0.36393 0.27555 0.0
C567 C 0.13069 0.38976 0.24443 0.0
N568 N 0.21858 0.405 0.29146 0.0
N569 N 0.14979 0.40524 0.25895 0.0
H570 H 0.25547 0.56551 0.82929 0.0
H571 H 0.38693 0.57579 0.72858 0.0
H572 H 0.31539 0.49781 0.81837 0.0
H573 H 0.35554 0.65013 0.77046 0.0
H574 H 0.35687 0.54695 0.7584 0.0
H575 H 0.28874 0.5975 0.80594 0.0
C576 C 0.27568 0.55745 0.82234 0.0
C577 C 0.2825 0.52885 0.82549 0.0
C578 C 0.35664 0.56956 0.7612 0.0
C579 C 0.32016 0.56508 0.79861 0.0
C580 C 0.3736 0.58606 0.74402 0.0
C581 C 0.37361 0.61538 0.74701 0.0
C582 C 0.33912 0.58244 0.78121 0.0
C583 C 0.35613 0.62755 0.76757 0.0
C584 C 0.2946 0.5757 0.80909 0.0
C585 C 0.30906 0.51959 0.81622 0.0
N586 N 0.33926 0.61099 0.78379 0.0
N587 N 0.32671 0.53755 0.80286 0.0
H588 H 0.60377 0.13624 0.67477 0.0
H589 H 0.66032 0.97897 0.66078 0.0
H590 H 0.57515 0.06659 0.72559 0.0
H591 H 0.71405 0.05086 0.64583 0.0
H592 H 0.62112 0.01077 0.67034 0.0
H593 H 0.63719 0.1044 0.65101 0.0
C594 C 0.60434 0.11422 0.68063 0.0
C595 C 0.58716 0.10395 0.70236 0.0
C596 C 0.64143 0.0195 0.66456 0.0
C597 C 0.62432 0.06779 0.67511 0.0
C598 C 0.66381 0.00142 0.65905 0.0
C599 C 0.69066 0.01233 0.65314 0.0
C600 C 0.64589 0.04862 0.66395 0.0
C601 C 0.6938 0.04161 0.65086 0.0
C602 C 0.6233 0.0962 0.66715 0.0
C603 C 0.58846 0.07535 0.70924 0.0
N604 N 0.67168 0.05885 0.65659 0.0
N605 N 0.60677 0.05823 0.69565 0.0
H606 H 0.88513 0.87264 0.16934 0.0
H607 H 0.82807 0.02951 0.1838 0.0
H608 H 0.89765 0.92575 0.24223 0.0
H609 H 0.79189 0.96744 0.12811 0.0
H610 H 0.86652 -0.0032 0.19466 0.0
H611 H 0.86224 0.91194 0.14517 0.0
C612 C 0.88308 0.89256 0.18025 0.0
C613 C 0.89276 0.8958 0.20805 0.0
C614 C 0.85058 0.9907 0.17943 0.0
C615 C 0.8673 0.94082 0.1803 0.0
C616 C 0.82889 0.00945 0.17297 0.0
C617 C 0.80668 0.00077 0.15548 0.0
C618 C 0.84989 0.96341 0.16812 0.0
C619 C 0.80852 0.97458 0.14209 0.0
C620 C 0.87024 0.91498 0.16636 0.0
C621 C 0.88993 0.92216 0.22103 0.0
N622 N 0.82953 0.95653 0.14908 0.0
N623 N 0.8773 0.94366 0.20707 0.0
H624 H 0.27304 0.25552 0.42779 0.0
H625 H 0.18644 0.11367 0.40643 0.0
H626 H 0.23556 0.20886 0.49629 0.0
H627 H 0.25414 0.1379 0.35052 0.0
H628 H 0.19647 0.15476 0.43557 0.0
H629 H 0.25855 0.2181 0.39512 0.0
C630 C 0.2616 0.23753 0.43587 0.0
C631 C 0.25565 0.23505 0.46472 0.0
C632 C 0.20902 0.15109 0.41684 0.0
C633 C 0.23889 0.19279 0.42776 0.0
C634 C 0.20328 0.12774 0.40016 0.0
C635 C 0.21968 0.12227 0.37618 0.0
C636 C 0.23105 0.16924 0.40929 0.0
C637 C 0.24122 0.14122 0.36904 0.0
C638 C 0.25348 0.21624 0.41731 0.0
C639 C 0.24083 0.21138 0.47422 0.0
N640 N 0.24632 0.16396 0.38558 0.0
N641 N 0.23288 0.19116 0.45574 0.0
H642 H 0.29191 0.87544 0.89375 0.0
H643 H 0.21702 0.73051 0.92788 0.0
H644 H 0.22405 0.84465 0.84117 0.0
H645 H 0.24258 0.78933 0.99236 0.0
H646 H 0.22943 0.76557 0.89172 0.0
H647 H 0.28395 0.83652 0.92621 0.0
C648 C 0.27546 0.86035 0.88893 0.0
C649 C 0.25842 0.86331 0.8649 0.0
C650 C 0.23244 0.77053 0.91382 0.0
C651 C 0.24957 0.81878 0.90172 0.0
C652 C 0.22561 0.75063 0.93431 0.0
C653 C 0.22875 0.75731 0.96293 0.0
C654 C 0.2431 0.79672 0.92226 0.0
C655 C 0.2397 0.7836 0.97043 0.0
C656 C 0.27094 0.83826 0.90747 0.0
C657 C 0.23739 0.8432 0.85968 0.0
N658 N 0.24663 0.80238 0.95016 0.0
N659 N 0.23354 0.82159 0.87802 0.0
H660 H 0.80876 0.22787 0.55993 0.0
H661 H 0.72246 0.3664 0.57013 0.0
H662 H 0.80728 0.28683 0.49068 0.0
H663 H 0.78093 0.34899 0.63786 0.0
H664 H 0.74453 0.32925 0.54216 0.0
H665 H 0.79029 0.2651 0.59115 0.0
C666 C 0.8046 0.2486 0.55141 0.0
C667 C 0.80945 0.25447 0.52284 0.0
C668 C 0.75243 0.3336 0.56318 0.0
C669 C 0.78819 0.29621 0.55778 0.0
C670 C 0.73987 0.35459 0.57912 0.0
C671 C 0.75007 0.36062 0.60617 0.0
C672 C 0.77479 0.31814 0.57469 0.0
C673 C 0.77273 0.34492 0.61692 0.0
C674 C 0.79433 0.26969 0.56914 0.0
C675 C 0.80393 0.28158 0.51265 0.0
N676 N 0.7843 0.324 0.60116 0.0
N677 N 0.79316 0.3014 0.53005 0.0
H678 H 0.74276 0.59161 0.04776 0.0
H679 H 0.65054 0.72741 0.05087 0.0
H680 H 0.69427 0.61188 0.12194 0.0
H681 H 0.66687 0.68127 0.97408 0.0
H682 H 0.66536 0.68616 0.07813 0.0
H683 H 0.71495 0.62526 0.02074 0.0
C684 C 0.72605 0.60314 0.05826 0.0
C685 C 0.72085 0.59935 0.08705 0.0
C686 C 0.66514 0.685 0.05532 0.0
C687 C 0.68919 0.63805 0.05645 0.0
C688 C 0.65682 0.70852 0.03974 0.0
C689 C 0.65802 0.70798 0.01014 0.0
C690 C 0.67505 0.66108 0.04112 0.0
C691 C 0.66601 0.68285 -0.00316 0.0
C692 C 0.71006 0.62216 0.04283 0.0
C693 C 0.69882 0.61442 0.09972 0.0
N694 N 0.67468 0.66058 0.01243 0.0
N695 N 0.68403 0.63366 0.0844 0.0
H696 H 0.40804 0.19436 0.14031 0.0
H697 H 0.51742 0.30946 0.18275 0.0
H698 H 0.40745 0.27293 0.09479 0.0
H699 H 0.46368 0.27336 0.24657 0.0
H700 H 0.48638 0.28943 0.14619 0.0
H701 H 0.43848 0.21601 0.17633 0.0
C702 C 0.41454 0.21607 0.13785 0.0
C703 C 0.4053 0.23204 0.11479 0.0
C704 C 0.48149 0.2861 0.16825 0.0
C705 C 0.44018 0.25638 0.15512 0.0
C706 C 0.49907 0.29738 0.18897 0.0
C707 C 0.49283 0.2931 0.21753 0.0
C708 C 0.45829 0.26972 0.17633 0.0
C709 C 0.46893 0.27729 0.22471 0.0
C710 C 0.43166 0.22835 0.15835 0.0
C711 C 0.41408 0.2601 0.11248 0.0
N712 N 0.45266 0.26577 0.20417 0.0
N713 N 0.43138 0.2714 0.13232 0.0
H714 H 0.82903 0.19709 0.90982 0.0
H715 H 0.98978 0.1864 0.8616 0.0
H716 H 0.89564 0.25228 0.93802 0.0
H717 H 0.91972 0.15471 0.81256 0.0
H718 H 0.95719 0.19751 0.89982 0.0
H719 H 0.86419 0.16888 0.88443 0.0
C720 C 0.85112 0.20284 0.91121 0.0
C721 C 0.85951 0.22728 0.92549 0.0
C722 C 0.94908 0.18769 0.88085 0.0
C723 C 0.89949 0.19527 0.89687 0.0
C724 C 0.96763 0.18134 0.85902 0.0
C725 C 0.95732 0.17028 0.83356 0.0
C726 C 0.92009 0.18288 0.87722 0.0
C727 C 0.92847 0.1638 0.83159 0.0
C728 C 0.87108 0.18684 0.89668 0.0
C729 C 0.88831 0.23386 0.92674 0.0
N730 N 0.91075 0.17057 0.85302 0.0
N731 N 0.90727 0.21809 0.91235 0.0
H732 H 0.50445 0.80841 0.3344 0.0
H733 H 0.66342 0.77947 0.37949 0.0
H734 H 0.57371 0.83536 0.28164 0.0
H735 H 0.59467 0.72153 0.3932 0.0
H736 H 0.63096 0.81033 0.35307 0.0
H737 H 0.53825 0.78792 0.3672 0.0
C738 C 0.52677 0.81043 0.32988 0.0
C739 C 0.53629 0.82306 0.30491 0.0
C740 C 0.62316 0.79089 0.36207 0.0
C741 C 0.57486 0.79975 0.34243 0.0
C742 C 0.64152 0.77338 0.37703 0.0
C743 C 0.63162 0.74789 0.38812 0.0
C744 C 0.59479 0.78303 0.35912 0.0
C745 C 0.60315 0.74083 0.38457 0.0
C746 C 0.54598 0.79867 0.34859 0.0
C747 C 0.5655 0.82535 0.30042 0.0
N748 N 0.58567 0.7584 0.37045 0.0
N749 N 0.58388 0.81348 0.31894 0.0
H750 H 0.04473 0.75414 0.58805 0.0
H751 H 0.02833 0.6453 0.71193 0.0
H752 H 0.10564 0.68827 0.60372 0.0
H753 H 0.95808 0.69291 0.67868 0.0
H754 H 0.05629 0.65884 0.67098 0.0
H755 H 0.01198 0.73088 0.62009 0.0
C756 C 0.05117 0.73473 0.59816 0.0
C757 C 0.07807 0.72331 0.59356 0.0
C758 C 0.03461 0.66594 0.67241 0.0
C759 C 0.04075 0.69664 0.63012 0.0
C760 C 0.01868 0.65829 0.6958 0.0
C761 C 0.99104 0.66838 0.69885 0.0
C762 C 0.02293 0.6842 0.65228 0.0
C763 C 0.97941 0.68484 0.67721 0.0
C764 C 0.03239 0.72135 0.61625 0.0
C765 C 0.08517 0.69791 0.60686 0.0
N766 N -0.00438 0.69268 0.65502 0.0
N767 N 0.06673 0.68559 0.62486 0.0
H768 H 0.87581 0.56896 0.77899 0.0
H769 H 0.75357 0.54717 0.6661 0.0
H770 H 0.84631 0.63585 0.72477 0.0
H771 H 0.80556 0.47893 0.69651 0.0
H772 H 0.7843 0.58048 0.69059 0.0
H773 H 0.84587 0.53589 0.75306 0.0
C774 C 0.86279 0.57674 0.76187 0.0
C775 C 0.86353 0.60515 0.75396 0.0
C776 C 0.78911 0.55823 0.69165 0.0
C777 C 0.82958 0.56754 0.72425 0.0
C778 C 0.77165 0.53925 0.67766 0.0
C779 C 0.77708 0.5103 0.67931 0.0
C780 C 0.81181 0.54811 0.70777 0.0
C781 C 0.80075 0.50111 0.69456 0.0
C782 C 0.84598 0.55783 0.74693 0.0
C783 C 0.84644 0.61408 0.73147 0.0
N784 N 0.81711 0.51998 0.70851 0.0
N785 N 0.8301 0.59532 0.71741 0.0
H786 H 0.61708 0.40531 0.25093 0.0
H787 H 0.74917 0.41673 0.15346 0.0
H788 H 0.64935 0.32881 0.21395 0.0
H789 H 0.68173 0.47796 0.15299 0.0
H790 H 0.71747 0.38344 0.17752 0.0
H791 H 0.64627 0.43253 0.21893 0.0
C792 C 0.63049 0.3942 0.23615 0.0
C793 C 0.63088 0.36474 0.23516 0.0
C794 C 0.70965 0.40402 0.17158 0.0
C795 C 0.66447 0.39595 0.19836 0.0
C796 C 0.72764 0.423 0.15786 0.0
C797 C 0.71829 0.45041 0.15169 0.0
C798 C 0.68247 0.41282 0.1794 0.0
C799 C 0.69013 0.45732 0.15779 0.0
C800 C 0.64695 0.40978 0.2177 0.0
C801 C 0.64847 0.35152 0.21531 0.0
N802 N 0.67345 0.43887 0.17173 0.0
N803 N 0.66493 0.36727 0.19778 0.0
H804 H 0.39123 0.87033 0.31595 0.0
H805 H 0.32057 0.02244 0.31683 0.0
H806 H 0.40751 0.93523 0.25436 0.0
H807 H 0.28284 0.94922 0.35528 0.0
H808 H 0.36269 -0.00533 0.30644 0.0
H809 H 0.36097 0.9032 0.34179 0.0
C810 C 0.38865 0.89155 0.30803 0.0
C811 C 0.40134 0.89996 0.28269 0.0
C812 C 0.34537 0.9849 0.31765 0.0
C813 C 0.3674 0.93752 0.31228 0.0
C814 C 0.32141 0.00073 0.32372 0.0
C815 C 0.29796 0.98785 0.33628 0.0
C816 C 0.34581 0.95617 0.32436 0.0
C817 C 0.30026 0.95974 0.34496 0.0
C818 C 0.37149 0.91024 0.3228 0.0
C819 C 0.39757 0.92773 0.27348 0.0
N820 N 0.32365 0.94465 0.33845 0.0
N821 N 0.38077 0.9455 0.2882 0.0
H822 H 0.20367 0.03322 0.84877 0.0
H823 H 0.0767 0.07517 0.7521 0.0
H824 H 0.1591 0.97299 0.79724 0.0
H825 H 0.10247 0.12634 0.82285 0.0
H826 H 0.10487 0.03653 0.77048 0.0
H827 H 0.16456 0.06613 0.84316 0.0
C828 C 0.18532 0.02676 0.83673 0.0
C829 C 0.1847 0.00066 0.82297 0.0
C830 C 0.10416 0.05608 0.78219 0.0
C831 C 0.14029 0.03827 0.81605 0.0
C832 C 0.08837 0.07829 0.77153 0.0
C833 C 0.08775 0.10418 0.78571 0.0
C834 C 0.11989 0.05989 0.80696 0.0
C835 C 0.10269 0.10681 0.81112 0.0
C836 C 0.16301 0.04551 0.83358 0.0
C837 C 0.1604 -0.00695 0.80797 0.0
N838 N 0.11856 0.08502 0.82075 0.0
N839 N 0.13934 0.01209 0.80436 0.0
H840 H 0.68973 0.87248 0.61513 0.0
H841 H 0.72623 0.71928 0.55679 0.0
H842 H 0.77185 0.83396 0.62349 0.0
H843 H 0.66956 0.77686 0.51485 0.0
H844 H 0.73349 0.75442 0.59411 0.0
H845 H 0.67279 0.82996 0.59107 0.0
C846 C 0.70397 0.85486 0.6124 0.0
C847 C 0.73231 0.85675 0.62072 0.0
C848 C 0.7191 0.75902 0.57694 0.0
C849 C 0.71311 0.8084 0.59392 0.0
C850 C 0.71495 0.73909 0.55576 0.0
C851 C 0.69773 0.74556 0.5326 0.0
C852 C 0.70544 0.78515 0.57504 0.0
C853 C 0.68346 0.7714 0.53216 0.0
C854 C 0.69435 0.83075 0.5987 0.0
C855 C 0.74998 0.83341 0.61683 0.0
N856 N 0.68775 0.79039 0.55304 0.0
N857 N 0.74013 0.81018 0.6035 0.0
H858 H 0.71786 0.21772 0.00644 0.0
H859 H 0.75474 0.1522 0.15094 0.0
H860 H 0.75973 0.2675 0.06998 0.0
H861 H 0.67919 0.12799 0.10591 0.0
H862 H 0.75721 0.19492 0.12226 0.0
H863 H 0.70268 0.18483 0.04293 0.0
C864 C 0.72336 0.2219 0.02825 0.0
C865 C 0.74013 0.24502 0.03543 0.0
C866 C 0.73985 0.18045 0.11908 0.0
C867 C 0.72363 0.20739 0.07692 0.0
C868 C 0.73858 0.15598 0.13519 0.0
C869 C 0.71702 0.13634 0.13041 0.0
C870 C 0.71975 0.18487 0.09777 0.0
C871 C 0.69635 0.14244 0.11008 0.0
C872 C 0.71466 0.20326 0.04902 0.0
C873 C 0.74675 0.24978 0.06383 0.0
N874 N 0.69852 0.16597 0.09413 0.0
N875 N 0.73902 0.23065 0.08362 0.0
H876 H 0.14613 0.7098 0.42327 0.0
H877 H 0.26533 0.59844 0.41029 0.0
H878 H 0.17642 0.66336 0.4956 0.0
H879 H 0.20201 0.60275 0.34483 0.0
H880 H 0.23535 0.62718 0.44051 0.0
H881 H 0.16757 0.67438 0.39235 0.0
C882 C 0.15689 0.69197 0.43263 0.0
C883 C 0.1599 0.68968 0.462 0.0
C884 C 0.22797 0.6217 0.41958 0.0
C885 C 0.18455 0.64978 0.42699 0.0
C886 C 0.24515 0.60564 0.40225 0.0
C887 C 0.2361 0.59852 0.37505 0.0
C888 C 0.20187 0.63121 0.4094 0.0
C889 C 0.20962 0.60795 0.36573 0.0
C890 C 0.16896 0.67182 0.41501 0.0
C891 C 0.17379 0.66607 0.47308 0.0
N892 N 0.19344 0.62427 0.38283 0.0
N893 N 0.18611 0.6473 0.45551 0.0
H894 H 0.34481 0.25871 0.93933 0.0
H895 H 0.24289 0.3873 0.93634 0.0
H896 H 0.32284 0.30497 0.01463 0.0
H897 H 0.29906 0.37317 0.86615 0.0
H898 H 0.27025 0.3542 0.96441 0.0
H899 H 0.32768 0.29821 0.91078 0.0
C900 C 0.33679 0.27728 0.94985 0.0
C901 C 0.33477 0.27838 0.97938 0.0
C902 C 0.27677 0.35848 0.94294 0.0
C903 C 0.31506 0.32311 0.947 0.0
C904 C 0.26101 0.37712 0.92684 0.0
C905 C 0.26866 0.38265 0.89888 0.0
C906 C 0.29998 0.34481 0.93082 0.0
C907 C 0.29254 0.36928 0.88767 0.0
C908 C 0.32716 0.29978 0.93357 0.0
C909 C 0.3245 0.30304 0.99195 0.0
N910 N 0.30724 0.35051 0.90362 0.0
N911 N 0.31455 0.32424 0.97565 0.0
H912 H 0.47221 0.71848 0.79076 0.0
H913 H 0.62501 0.72387 0.86097 0.0
H914 H 0.54546 0.68022 0.75246 0.0
H915 H 0.55914 0.78379 0.87999 0.0
H916 H 0.59467 0.70311 0.82478 0.0
H917 H 0.50244 0.73788 0.82768 0.0
C918 C 0.49463 0.71401 0.79021 0.0
C919 C 0.50637 0.69773 0.76849 0.0
C920 C 0.58694 0.72083 0.83687 0.0
C921 C 0.54098 0.71986 0.81065 0.0
C922 C 0.60416 0.73264 0.85758 0.0
C923 C 0.59459 0.75563 0.87349 0.0
C924 C 0.55983 0.73186 0.83234 0.0
C925 C 0.56743 0.76618 0.86812 0.0
C926 C 0.51186 0.72522 0.81119 0.0
C927 C 0.53557 0.69276 0.76875 0.0
N928 N 0.55094 0.75412 0.84807 0.0
N929 N 0.55191 0.70373 0.78959 0.0
H930 H 0.05859 0.83591 0.19318 0.0
H931 H 0.08389 0.72677 0.0728 0.0
H932 H 0.98998 0.80045 0.1447 0.0
H933 H 0.14729 0.78824 0.09473 0.0
H934 H 0.04892 0.75413 0.09874 0.0
H935 H 0.09164 0.81998 0.15699 0.0
C936 C 0.05045 0.82512 0.17476 0.0
C937 C 0.02159 0.81903 0.17216 0.0
C938 C 0.07039 0.76186 0.09753 0.0
C939 C 0.05915 0.80064 0.13103 0.0
C940 C 0.09036 0.74616 0.08292 0.0
C941 C 0.1185 0.75515 0.08199 0.0
C942 C 0.07881 0.78633 0.11178 0.0
C943 C 0.12577 0.78058 0.09511 0.0
C944 C 0.06928 0.81617 0.15408 0.0
C945 C 0.0121 0.80532 0.14772 0.0
N946 N 0.1061 0.7951 0.10995 0.0
N947 N 0.03093 0.79611 0.12831 0.0
H948 H 0.40712 0.16085 0.7057 0.0
H949 H 0.38878 0.2643 0.5788 0.0
H950 H 0.47499 0.17971 0.64791 0.0
H951 H 0.31831 0.21454 0.60761 0.0
H952 H 0.42062 0.23435 0.60592 0.0
H953 H 0.37348 0.1802 0.67146 0.0
C954 C 0.41491 0.1686 0.6857 0.0
C955 C 0.44396 0.16915 0.67989 0.0
C956 C 0.39822 0.22977 0.60608 0.0
C957 C 0.40582 0.19147 0.64108 0.0
C958 C 0.38006 0.24697 0.5908 0.0
C959 C 0.35095 0.24192 0.5912 0.0
C960 C 0.38712 0.20777 0.62237 0.0
C961 C 0.34069 0.21905 0.60683 0.0
C962 C 0.39572 0.17957 0.6662 0.0
C963 C 0.45286 0.17922 0.65353 0.0
N964 N 0.35877 0.20298 0.62224 0.0
N965 N 0.4339 0.19045 0.63532 0.0
H966 H 0.89145 0.27577 0.39617 0.0
H967 H 0.03602 0.26982 0.31011 0.0
H968 H 0.95094 0.20713 0.40264 0.0
H969 H 0.96411 0.31998 0.28525 0.0
H970 H 0.00982 0.25383 0.35148 0.0
H971 H 0.923 0.29916 0.36306 0.0
C972 C 0.9113 0.26574 0.39094 0.0
C973 C 0.91838 0.23922 0.40193 0.0
C974 C -6e-05 0.26856 0.33709 0.0
C975 C 0.95453 0.266 0.36404 0.0
C976 C 0.01489 0.27781 0.31355 0.0
C977 C 0.00209 0.29605 0.29404 0.0
C978 C 0.97216 0.27785 0.34129 0.0
C979 C 0.97466 0.30567 0.29958 0.0
C980 C 0.92924 0.2791 0.37195 0.0
C981 C 0.94448 0.22739 0.39444 0.0
N982 N 0.96054 0.29634 0.32265 0.0
N983 N 0.96156 0.24079 0.37578 0.0
H984 H 0.09971 0.09647 0.31842 0.0
H985 H 0.06676 0.18817 0.18141 0.0
H986 H 0.13035 0.0749 0.23539 0.0
H987 H 0.06542 0.21843 0.26718 0.0
H988 H 0.07602 0.14036 0.19928 0.0
H989 H 0.07174 0.13417 0.29761 0.0
C990 C 0.1002 0.09931 0.29576 0.0
C991 C 0.11808 0.08307 0.27872 0.0
C992 C 0.07322 0.15748 0.21409 0.0
C993 C 0.08627 0.12627 0.25489 0.0
C994 C 0.06798 0.18461 0.20395 0.0
C995 C 0.06602 0.20713 0.22291 0.0
C996 C 0.07586 0.1531 0.24329 0.0
C997 C 0.06751 0.20163 0.25189 0.0
C998 C 0.08424 0.12086 0.28391 0.0
C999 C 0.11734 0.08735 0.2494 0.0
N1000 N 0.0725 0.17519 0.26119 0.0
N1001 N 0.10211 0.10895 0.23842 0.0
H1002 H 0.37761 0.8824 0.79984 0.0
H1003 H 0.41 0.78646 0.66537 0.0
H1004 H 0.34154 0.8981 0.71756 0.0
H1005 H 0.42361 0.7622 0.75203 0.0
H1006 H 0.39565 0.83355 0.68163 0.0
H1007 H 0.40619 0.84495 0.77956 0.0
C1008 C 0.37593 0.87823 0.77743 0.0
C1009 C 0.35664 0.89296 0.76051 0.0
C1010 C 0.40216 0.81794 0.69696 0.0
C1011 C 0.38917 0.84995 0.73724 0.0
C1012 C 0.41034 0.79121 0.68771 0.0
C1013 C 0.41738 0.77043 0.70748 0.0
C1014 C 0.40157 0.82377 0.72603 0.0
C1015 C 0.41769 0.77751 0.73617 0.0
C1016 C 0.39225 0.85682 0.76587 0.0
C1017 C 0.35579 0.88694 0.7315 0.0
N1018 N 0.40974 0.80352 0.74457 0.0
N1019 N 0.37152 0.86555 0.72081 0.0
H1020 H 0.61066 0.38913 0.72007 0.0
H1021 H 0.54314 0.24423 0.67429 0.0
H1022 H 0.61555 0.35595 0.63543 0.0
H1023 H 0.53061 0.28201 0.75615 0.0
H1024 H 0.56319 0.28828 0.65743 0.0
H1025 H 0.57542 0.3537 0.7315 0.0
C1026 C 0.60415 0.3745 0.7038 0.0
C1027 C 0.61649 0.37509 0.67691 0.0
C1028 C 0.55567 0.28712 0.67896 0.0
C1029 C 0.57619 0.33439 0.68992 0.0
C1030 C 0.54427 0.26194 0.68863 0.0
C1031 C 0.53578 0.2593 0.71685 0.0
C1032 C 0.55895 0.30968 0.69775 0.0
C1033 C 0.53721 0.28304 0.73432 0.0
C1034 C 0.5839 0.35435 0.71031 0.0
C1035 C 0.60683 0.35602 0.65652 0.0
N1036 N 0.54911 0.30713 0.72462 0.0
N1037 N 0.58754 0.33612 0.66358 0.0
H1038 H 0.84766 0.63624 0.11626 0.0
H1039 H 0.94216 0.70433 0.23847 0.0
H1040 H 0.87631 0.59174 0.19036 0.0
H1041 H 0.90313 0.75263 0.17178 0.0
H1042 H 0.92455 0.66135 0.2166 0.0
H1043 H 0.87463 0.67749 0.13167 0.0
C1044 C 0.85995 0.635 0.13551 0.0
C1045 C 0.85944 0.61071 0.15227 0.0
C1046 C 0.91997 0.68136 0.20667 0.0
C1047 C 0.89011 0.65762 0.17001 0.0
C1048 C 0.93001 0.70592 0.21916 0.0
C1049 C 0.92381 0.73218 0.20716 0.0
C1050 C 0.90361 0.68301 0.18198 0.0
C1051 C 0.90815 0.73288 0.18197 0.0
C1052 C 0.87521 0.65856 0.14436 0.0
C1053 C 0.87575 0.6102 0.17701 0.0
N1054 N 0.89842 0.70866 0.17031 0.0
N1055 N 0.89023 0.63337 0.18522 0.0
H1056 H 0.2241 0.03607 0.2014 0.0
H1057 H 0.3554 0.11732 0.13378 0.0
H1058 H 0.29042 0.07489 0.2504 0.0
H1059 H 0.27712 0.10145 0.08983 0.0
H1060 H 0.3372 0.09117 0.17441 0.0
H1061 H 0.24871 0.04983 0.15826 0.0
C1062 C 0.24395 0.04725 0.20311 0.0
C1063 C 0.255 0.05474 0.22953 0.0
C1064 C 0.32422 0.09312 0.15569 0.0
C1065 C 0.28329 0.07032 0.18032 0.0
C1066 C 0.33464 0.10786 0.13246 0.0
C1067 C 0.31756 0.11188 0.10861 0.0
C1068 C 0.29669 0.08216 0.15483 0.0
C1069 C 0.29081 0.09921 0.10801 0.0
C1070 C 0.25796 0.0551 0.17849 0.0
C1071 C 0.2809 0.06908 0.23046 0.0
N1072 N 0.2811 0.0851 0.13088 0.0
N1073 N 0.29409 0.07655 0.2062 0.0
H1074 H 0.24936 0.94047 0.68587 0.0
H1075 H 0.1266 0.84232 0.62451 0.0
H1076 H 0.18625 0.90068 0.73801 0.0
H1077 H 0.20324 0.86294 0.57995 0.0
H1078 H 0.14196 0.87269 0.66353 0.0
H1079 H 0.22607 0.9213 0.64411 0.0
C1080 C 0.23043 0.928 0.68855 0.0
C1081 C 0.22002 0.92179 0.71552 0.0
C1082 C 0.15519 0.87076 0.64503 0.0
C1083 C 0.19331 0.8998 0.66782 0.0
C1084 C 0.14641 0.85356 0.62277 0.0
C1085 C 0.1639 0.84982 0.59923 0.0
C1086 C 0.18142 0.88448 0.64342 0.0
C1087 C 0.18934 0.86487 0.59796 0.0
C1088 C 0.21719 0.91701 0.6647 0.0
C1089 C 0.19527 0.90565 0.71765 0.0
N1090 N 0.1974 0.8814 0.61982 0.0
N1091 N 0.18288 0.895 0.69411 0.0
H1092 H 0.77797 0.38287 0.72735 0.0
H1093 H 0.80209 0.39334 0.89311 0.0
H1094 H 0.72576 0.43374 0.78191 0.0
H1095 H 0.82762 0.32292 0.84211 0.0
H1096 H 0.7864 0.418 0.85039 0.0
H1097 H 0.80675 0.3697 0.76754 0.0
C1098 C 0.77249 0.39133 0.74784 0.0
C1099 C 0.74916 0.40928 0.75131 0.0
C1100 C 0.79633 0.39756 0.8485 0.0
C1101 C 0.7825 0.3943 0.7975 0.0
C1102 C 0.80574 0.38375 0.87272 0.0
C1103 C 0.81616 0.35622 0.87086 0.0
C1104 C 0.79777 0.38366 0.82246 0.0
C1105 C 0.81996 0.34429 0.84421 0.0
C1106 C 0.7891 0.38384 0.77075 0.0
C1107 C 0.74328 0.41954 0.7784 0.0
N1108 N 0.81038 0.35794 0.82099 0.0
N1109 N 0.75986 0.41181 0.8006 0.0
H1110 H 0.7883 0.54437 0.25814 0.0
H1111 H 0.66396 0.62388 0.33973 0.0
H1112 H 0.70834 0.56532 0.21946 0.0
H1113 H 0.74564 0.60435 0.37529 0.0
H1114 H 0.6769 0.5971 0.2973 0.0
H1115 H 0.77014 0.56092 0.30322 0.0
C1116 C 0.76687 0.55228 0.25914 0.0
C1117 C 0.74999 0.5538 0.2349 0.0
C1118 C 0.69182 0.59852 0.31457 0.0
C1119 C 0.72904 0.57296 0.28645 0.0
C1120 C 0.68441 0.61371 0.33874 0.0
C1121 C 0.70395 0.61675 0.36075 0.0
C1122 C 0.71882 0.58628 0.3127 0.0
C1123 C 0.73013 0.60307 0.35854 0.0
C1124 C 0.75647 0.56173 0.28491 0.0
C1125 C 0.72224 0.56401 0.23756 0.0
N1126 N 0.73684 0.58864 0.33489 0.0
N1127 N 0.71272 0.57347 0.26283 0.0
H1128 H 0.26554 0.27268 0.08474 0.0
H1129 H 0.09984 0.25218 0.10456 0.0
H1130 H 0.2199 0.20046 0.05355 0.0
H1131 H 0.14436 0.32788 0.12806 0.0
H1132 H 0.14263 0.23473 0.08197 0.0
H1133 H 0.22087 0.29449 0.09783 0.0
C1134 C 0.24613 0.26137 0.0806 0.0
C1135 C 0.24656 0.23452 0.06824 0.0
C1136 C 0.14296 0.25532 0.09173 0.0
C1137 C 0.19516 0.25955 0.08317 0.0
C1138 C 0.11848 0.26537 0.10457 0.0
C1139 C 0.11854 0.29144 0.11853 0.0
C1140 C 0.16784 0.27129 0.09304 0.0
C1141 C 0.14331 0.30763 0.11766 0.0
C1142 C 0.22058 0.27395 0.08798 0.0
C1143 C 0.22065 0.2211 0.06316 0.0
N1144 N 0.16706 0.29712 0.10551 0.0
N1145 N 0.19602 0.23366 0.07084 0.0
H1146 H 0.68479 0.29179 0.89191 0.0
H1147 H 0.61615 0.15142 0.8297 0.0
H1148 H 0.72129 0.20964 0.90585 0.0
H1149 H 0.57582 0.23299 0.83 0.0
H1150 H 0.65545 0.17148 0.8569 0.0
H1151 H 0.64534 0.26982 0.86772 0.0
C1152 C 0.68453 0.2691 0.88988 0.0
C1153 C 0.7064 0.25254 0.90091 0.0
C1154 C 0.63785 0.18483 0.85107 0.0
C1155 C 0.66113 0.22714 0.87316 0.0
C1156 C 0.61545 0.17341 0.8356 0.0
C1157 C 0.59277 0.19058 0.82737 0.0
C1158 C 0.63745 0.21354 0.85815 0.0
C1159 C 0.59292 0.21893 0.83562 0.0
C1160 C 0.66191 0.25652 0.87612 0.0
C1161 C 0.70484 0.2232 0.89768 0.0
N1162 N 0.61494 0.22949 0.85038 0.0
N1163 N 0.68258 0.21139 0.88398 0.0
H1164 H 0.81052 0.69339 0.41586 0.0
H1165 H 0.86314 0.83241 0.33713 0.0
H1166 H 0.76487 0.77208 0.41756 0.0
H1167 H 0.90607 0.75223 0.33472 0.0
H1168 H 0.82984 0.81276 0.37146 0.0
H1169 H 0.84924 0.71694 0.3917 0.0
C1170 C 0.80877 0.71569 0.41151 0.0
C1171 C 0.7842 0.73064 0.41835 0.0
C1172 C 0.84671 0.79961 0.3635 0.0
C1173 C 0.8283 0.7577 0.39032 0.0
C1174 C 0.86565 0.81079 0.34389 0.0
C1175 C 0.88715 0.79385 0.3327 0.0
C1176 C 0.84944 0.77137 0.37194 0.0
C1177 C 0.88957 0.76602 0.34238 0.0
C1178 C 0.83086 0.72914 0.39761 0.0
C1179 C 0.78326 0.7596 0.41237 0.0
N1180 N 0.87088 0.75566 0.36127 0.0
N1181 N 0.80483 0.77211 0.39836 0.0
H1182 H 0.34222 0.63963 0.62827 0.0
H1183 H 0.26661 0.76046 0.5384 0.0
H1184 H 0.38589 0.70826 0.58785 0.0
H1185 H 0.22142 0.69323 0.57972 0.0
H1186 H 0.31102 0.73811 0.5517 0.0
H1187 H 0.29843 0.65459 0.60498 0.0
C1188 C 0.34274 0.65738 0.61396 0.0
C1189 C 0.36759 0.67298 0.61028 0.0
C1190 C 0.29139 0.72815 0.55776 0.0
C1191 C 0.31771 0.69047 0.58405 0.0
C1192 C 0.26599 0.74101 0.55027 0.0
C1193 C 0.2402 0.72892 0.55821 0.0
C1194 C 0.29108 0.70306 0.57344 0.0
C1195 C 0.24078 0.70348 0.57334 0.0
C1196 C 0.31772 0.66609 0.60088 0.0
C1197 C 0.36708 0.6959 0.59162 0.0
N1198 N 0.26581 0.6915 0.58062 0.0
N1199 N 0.3425 0.70414 0.5795 0.0
H1200 H 0.8571 0.85618 0.64698 0.0
H1201 H 0.92739 0.78998 0.78573 0.0
H1202 H 0.86425 0.90036 0.72622 0.0
H1203 H 0.90334 0.74256 0.71185 0.0
H1204 H 0.91395 0.83343 0.76102 0.0
H1205 H 0.88464 0.81744 0.66706 0.0
C1206 C 0.86497 0.858 0.66837 0.0
C1207 C 0.85795 0.88126 0.68511 0.0
C1208 C 0.91189 0.81347 0.75022 0.0
C1209 C 0.88911 0.83702 0.7083 0.0
C1210 C 0.91953 0.78874 0.7643 0.0
C1211 C 0.91594 0.76262 0.75104 0.0
C1212 C 0.90093 0.81197 0.72265 0.0
C1213 C 0.90588 0.76219 0.72314 0.0
C1214 C 0.88051 0.83582 0.67991 0.0
C1215 C 0.86874 0.88254 0.71273 0.0
N1216 N 0.8986 0.78643 0.70997 0.0
N1217 N 0.88348 0.86057 0.72358 0.0
H1218 H 0.60536 0.09459 0.19926 0.0
H1219 H 0.58731 0.20323 0.32623 0.0
H1220 H 0.65654 0.09172 0.27471 0.0
H1221 H 0.56362 0.21855 0.23971 0.0
H1222 H 0.60057 0.15479 0.31329 0.0
H1223 H 0.577 0.13169 0.22048 0.0
C1224 C 0.61038 0.10142 0.22049 0.0
C1225 C 0.63387 0.09059 0.23493 0.0
C1226 C 0.59197 0.16869 0.29735 0.0
C1227 C 0.60153 0.13316 0.25921 0.0
C1228 C 0.58438 0.19617 0.3047 0.0
C1229 C 0.57487 0.21481 0.28383 0.0
C1230 C 0.5894 0.15996 0.26915 0.0
C1231 C 0.57138 0.20486 0.25626 0.0
C1232 C 0.59417 0.12261 0.23256 0.0
C1233 C 0.63893 0.09985 0.26262 0.0
N1234 N 0.57878 0.17815 0.24968 0.0
N1235 N 0.62319 0.12104 0.27372 0.0
H1236 H 0.44957 0.71685 0.22601 0.0
H1237 H 0.36409 0.63307 0.34471 0.0
H1238 H 0.42093 0.75493 0.30361 0.0
H1239 H 0.37614 0.60329 0.25951 0.0
H1240 H 0.39191 0.67496 0.33324 0.0
H1241 H 0.42989 0.67205 0.24151 0.0
C1242 C 0.43937 0.71577 0.24641 0.0
C1243 C 0.43661 0.73979 0.26339 0.0
C1244 C 0.38857 0.65913 0.31716 0.0
C1245 C 0.41401 0.68855 0.2812 0.0
C1246 C 0.37279 0.6352 0.3237 0.0
C1247 C 0.36753 0.61482 0.30294 0.0
C1248 C 0.39933 0.66248 0.28977 0.0
C1249 C 0.37935 0.61863 0.27608 0.0
C1250 C 0.42807 0.69019 0.25521 0.0
C1251 C 0.42327 0.73704 0.28969 0.0
N1252 N 0.3946 0.64204 0.27026 0.0
N1253 N 0.41231 0.7119 0.29773 0.0
H1254 H 0.03175 0.29455 0.76104 0.0
H1255 H 0.13636 0.35955 0.87659 0.0
H1256 H 0.06731 0.24678 0.82998 0.0
H1257 H 0.11402 0.40009 0.79819 0.0
H1258 H 0.10302 0.32162 0.86544 0.0
H1259 H 0.05354 0.33697 0.78029 0.0
C1260 C 0.04382 0.29301 0.7804 0.0
C1261 C 0.04811 0.26697 0.79363 0.0
C1262 C 0.10524 0.33902 0.85088 0.0
C1263 C 0.07318 0.3154 0.8157 0.0
C1264 C 0.12416 0.36068 0.85728 0.0
C1265 C 0.12829 0.3827 0.83805 0.0
C1266 C 0.09027 0.33966 0.82524 0.0
C1267 C 0.11189 0.38321 0.81336 0.0
C1268 C 0.05632 0.31723 0.79135 0.0
C1269 C 0.06382 0.26633 0.8188 0.0
N1270 N 0.09378 0.36192 0.80759 0.0
N1271 N 0.07602 0.29013 0.82887 0.0
H1272 H 0.72049 0.8836 0.89927 0.0
H1273 H 0.68909 0.92384 0.7396 0.0
H1274 H 0.63878 0.87397 0.85991 0.0
H1275 H 0.76928 0.93779 0.7808 0.0
H1276 H 0.66857 0.91124 0.78499 0.0
H1277 H 0.73675 0.90944 0.85804 0.0
C1278 C 0.70583 0.88721 0.88208 0.0
C1279 C 0.67836 0.8762 0.88284 0.0
C1280 C 0.69057 0.91734 0.78416 0.0
C1281 C 0.69698 0.90556 0.83538 0.0
C1282 C 0.70236 0.92448 0.75822 0.0
C1283 C 0.7311 0.93146 0.7563 0.0
C1284 C 0.70767 0.91697 0.80836 0.0
C1285 C 0.74711 0.93227 0.78121 0.0
C1286 C 0.71515 0.902 0.85852 0.0
C1287 C 0.6602 0.88189 0.86013 0.0
N1288 N 0.73525 0.92477 0.80616 0.0
N1289 N 0.66998 0.89583 0.83711 0.0
H1290 H 0.81089 0.08394 0.23475 0.0
H1291 H 0.84363 0.08131 0.39917 0.0
H1292 H 0.76094 0.03823 0.29551 0.0
H1293 H 0.87705 0.1418 0.34057 0.0
H1294 H 0.82487 0.05397 0.35947 0.0
H1295 H 0.84535 0.09419 0.27134 0.0
C1296 C 0.80715 0.07595 0.25581 0.0
C1297 C 0.78252 0.0608 0.26222 0.0
C1298 C 0.83721 0.07266 0.35525 0.0
C1299 C 0.82228 0.07241 0.30431 0.0
C1300 C 0.84833 0.08797 0.37785 0.0
C1301 C 0.86195 0.11367 0.37295 0.0
C1302 C 0.8399 0.08327 0.32775 0.0
C1303 C 0.86686 0.12192 0.34508 0.0
C1304 C 0.82701 0.08169 0.27666 0.0
C1305 C 0.77935 0.05039 0.28974 0.0
N1306 N 0.85544 0.107 0.32349 0.0
N1307 N 0.79882 0.05675 0.30993 0.0
H1308 H 0.16252 0.65131 0.15461 0.0
H1309 H 0.27937 0.54883 0.19608 0.0
H1310 H 0.19129 0.59278 0.09167 0.0
H1311 H 0.2088 0.56174 0.25237 0.0
H1312 H 0.24976 0.56598 0.15688 0.0
H1313 H 0.17972 0.61951 0.19147 0.0
C1314 C 0.1714 0.63115 0.14867 0.0
C1315 C 0.17539 0.62433 0.12029 0.0
C1316 C 0.24082 0.56445 0.17784 0.0
C1317 C 0.19676 0.58906 0.16185 0.0
C1318 C 0.25772 0.55492 0.20017 0.0
C1319 C 0.24679 0.55425 0.22764 0.0
C1320 C 0.21319 0.57379 0.18332 0.0
C1321 C 0.21842 0.56219 0.23168 0.0
C1322 C 0.18153 0.61321 0.16959 0.0
C1323 C 0.18785 0.59847 0.11346 0.0
N1324 N 0.20283 0.57211 0.20991 0.0
N1325 N 0.19899 0.58203 0.13413 0.0
H1326 H 0.28542 0.41063 0.76689 0.0
H1327 H 0.26194 0.40676 0.60052 0.0
H1328 H 0.21212 0.44422 0.72425 0.0
H1329 H 0.3252 0.35708 0.64297 0.0
H1330 H 0.25085 0.43002 0.64496 0.0
H1331 H 0.30598 0.39879 0.7213 0.0
C1332 C 0.27363 0.41561 0.74794 0.0
C1333 C 0.24679 0.42823 0.74944 0.0
C1334 C 0.26752 0.41443 0.64455 0.0
C1335 C 0.27054 0.41495 0.69715 0.0
C1336 C 0.27405 0.40135 0.61917 0.0
C1337 C 0.29432 0.37986 0.61829 0.0
C1338 C 0.28116 0.40572 0.66931 0.0
C1339 C 0.30948 0.37362 0.64287 0.0
C1340 C 0.28549 0.40889 0.72193 0.0
C1341 C 0.23268 0.43426 0.72415 0.0
N1342 N 0.30222 0.38617 0.66763 0.0
N1343 N 0.2447 0.42749 0.69905 0.0
H1344 H 0.85202 0.65586 0.87352 0.0
H1345 H 0.77694 0.79275 0.93733 0.0
H1346 H 0.89196 0.73737 0.87798 0.0
H1347 H 0.73357 0.71561 0.9165 0.0
H1348 H 0.82168 0.77056 0.92384 0.0
H1349 H 0.81115 0.67513 0.89827 0.0
C1350 C 0.85244 0.67767 0.88011 0.0
C1351 C 0.87532 0.69511 0.87327 0.0
C1352 C 0.80235 0.75848 0.92243 0.0
C1353 C 0.82847 0.71736 0.90138 0.0
C1354 C 0.77683 0.77113 0.93014 0.0
C1355 C 0.75142 0.75616 0.92768 0.0
C1356 C 0.80243 0.73063 0.91246 0.0
C1357 C 0.75257 0.72813 0.91835 0.0
C1358 C 0.82901 0.68871 0.8941 0.0
C1359 C 0.87465 0.72322 0.88245 0.0
N1360 N 0.77759 0.71635 0.91098 0.0
N1361 N 0.85148 0.73354 0.89578 0.0
H1362 H 0.30111 0.70717 0.09631 0.0
H1363 H 0.36198 0.84827 0.16285 0.0
H1364 H 0.25454 0.78524 0.09266 0.0
H1365 H 0.41274 0.77616 0.14052 0.0
H1366 H 0.32164 0.82661 0.13835 0.0
H1367 H 0.34141 0.73251 0.11547 0.0
C1368 C 0.29932 0.72964 0.09964 0.0
C1369 C 0.27444 0.74409 0.09288 0.0
C1370 C 0.34177 0.81581 0.1386 0.0
C1371 C 0.3206 0.77335 0.11472 0.0
C1372 C 0.36476 0.8282 0.15241 0.0
C1373 C 0.39056 0.81377 0.15409 0.0
C1374 C 0.3448 0.78889 0.12667 0.0
C1375 C 0.39308 0.78781 0.14024 0.0
C1376 C 0.32242 0.74417 0.11039 0.0
C1377 C 0.27339 0.77329 0.09753 0.0
N1378 N 0.37044 0.7761 0.12742 0.0
N1379 N 0.29615 0.78699 0.10832 0.0
H1380 H 0.17519 0.31021 0.59605 0.0
H1381 H 0.1091 0.17034 0.66305 0.0
H1382 H 0.21172 0.22741 0.58706 0.0
H1383 H 0.07447 0.2535 0.67558 0.0
H1384 H 0.14523 0.19061 0.63247 0.0
H1385 H 0.13618 0.28947 0.62264 0.0
C1386 C 0.17495 0.2877 0.59953 0.0
C1387 C 0.19686 0.27058 0.58947 0.0
C1388 C 0.12965 0.20439 0.64186 0.0
C1389 C 0.15242 0.24674 0.61985 0.0
C1390 C 0.10902 0.19282 0.65932 0.0
C1391 C 0.08882 0.21024 0.67204 0.0
C1392 C 0.13006 0.23357 0.63711 0.0
C1393 C 0.0897 0.23924 0.66637 0.0
C1394 C 0.15272 0.27587 0.61473 0.0
C1395 C 0.19543 0.2415 0.59457 0.0
N1396 N 0.11003 0.24999 0.6494 0.0
N1397 N 0.17366 0.23054 0.60947 0.0
H1398 H 0.61423 0.27476 0.39536 0.0
H1399 H 0.7825 0.27366 0.39695 0.0
H1400 H 0.66292 0.33728 0.35084 0.0
H1401 H 0.7309 0.20003 0.4101 0.0
H1402 H 0.73976 0.30105 0.38715 0.0
H1403 H 0.6579 0.25227 0.41052 0.0
C1404 C 0.63414 0.28418 0.3893 0.0
C1405 C 0.6349 0.30775 0.37145 0.0
C1406 C 0.73787 0.27889 0.39208 0.0
C1407 C 0.68501 0.28172 0.38844 0.0
C1408 C 0.7622 0.26319 0.39756 0.0
C1409 C 0.76025 0.23444 0.40424 0.0
C1410 C 0.7114 0.26586 0.39379 0.0
C1411 C 0.73342 0.22203 0.4048 0.0
C1412 C 0.65905 0.27112 0.39773 0.0
C1413 C 0.66134 0.31914 0.36455 0.0
N1414 N 0.71004 0.23787 0.39987 0.0
N1415 N 0.68545 0.30579 0.37277 0.0
H1416 H 0.98634 0.27968 0.10267 0.0
H1417 H 0.83206 0.33424 0.06465 0.0
H1418 H 0.93523 0.32547 0.1625 0.0
H1419 H 0.89567 0.31538 0.00225 0.0
H1420 H 0.86772 0.32851 0.10168 0.0
H1421 H 0.95062 0.28815 0.06657 0.0
C1422 C 0.96747 0.29122 0.10834 0.0
C1423 C 0.96381 0.30188 0.13569 0.0
C1424 C 0.87385 0.32593 0.07984 0.0
C1425 C 0.92295 0.31189 0.0943 0.0
C1426 C 0.85356 0.32929 0.05869 0.0
C1427 C 0.86083 0.32516 0.03028 0.0
C1428 C 0.90142 0.31797 0.07251 0.0
C1429 C 0.88904 0.31877 0.02382 0.0
C1430 C 0.94721 0.2963 0.08762 0.0
C1431 C 0.93895 0.31688 0.14169 0.0
N1432 N 0.9082 0.31504 0.04479 0.0
N1433 N 0.91942 0.32142 0.12115 0.0
H1434 H 0.57706 0.69017 0.4696 0.0
H1435 H 0.53782 0.64063 0.62435 0.0
H1436 H 0.61221 0.61727 0.51057 0.0
H1437 H 0.49259 0.70702 0.58144 0.0
H1438 H 0.56263 0.63007 0.58092 0.0
H1439 H 0.54137 0.6934 0.50695 0.0
C1440 C 0.57631 0.67405 0.48574 0.0
C1441 C 0.59727 0.6533 0.48712 0.0
C1442 C 0.54727 0.64695 0.58089 0.0
C1443 C 0.55777 0.65755 0.53031 0.0
C1444 C 0.5333 0.65325 0.60586 0.0
C1445 C 0.51326 0.67498 0.60669 0.0
C1446 C 0.54148 0.66262 0.55645 0.0
C1447 C 0.50805 0.69025 0.58184 0.0
C1448 C 0.55631 0.67615 0.5073 0.0
C1449 C 0.59613 0.6334 0.50879 0.0
N1450 N 0.52222 0.68388 0.55773 0.0
N1451 N 0.57701 0.63628 0.52982 0.0
H1452 H 0.40041 0.12451 0.97645 0.0
H1453 H 0.47765 0.21166 0.85644 0.0
H1454 H 0.45502 0.19532 0.99159 0.0
H1455 H 0.43849 0.13137 0.83946 0.0
H1456 H 0.46898 0.20491 0.90638 0.0
H1457 H 0.41652 0.12321 0.92728 0.0
C1458 C 0.4169 0.13881 0.96979 0.0
C1459 C 0.42648 0.16007 0.98797 0.0
C1460 C 0.46224 0.1887 0.8918 0.0
C1461 C 0.44394 0.15958 0.9318 0.0
C1462 C 0.46684 0.19273 0.86311 0.0
C1463 C 0.45885 0.17205 0.84356 0.0
C1464 C 0.44929 0.16388 0.90126 0.0
C1465 C 0.44501 0.14792 0.85373 0.0
C1466 C 0.42566 0.13845 0.94159 0.0
C1467 C 0.44725 0.17857 0.97818 0.0
N1468 N 0.44067 0.14447 0.88191 0.0
N1469 N 0.45487 0.17826 0.95064 0.0
H1470 H 0.08203 0.84031 0.46626 0.0
H1471 H -0.00018 0.7611 0.34283 0.0
H1472 H 0.03399 0.76422 0.47717 0.0
H1473 H 0.04215 0.84062 0.33057 0.0
H1474 H 0.01143 0.7632 0.39267 0.0
H1475 H 0.06365 0.84433 0.41804 0.0
C1476 C 0.06649 0.82527 0.45895 0.0
C1477 C 0.0594 0.80192 0.47553 0.0
C1478 C 0.01827 0.78021 0.37912 0.0
C1479 C 0.03941 0.80556 0.42037 0.0
C1480 C 0.01199 0.77882 0.35048 0.0
C1481 C 0.01983 0.80082 0.33239 0.0
C1482 C 0.03266 0.80368 0.38991 0.0
C1483 C 0.03552 0.82325 0.34373 0.0
C1484 C 0.05648 0.8272 0.43126 0.0
C1485 C 0.0398 0.78257 0.46496 0.0
N1486 N 0.0413 0.82418 0.37182 0.0
N1487 N 0.03086 0.78454 0.43787 0.0
H1488 H 0.14163 0.93892 0.34742 0.0
H1489 H -0.00164 0.93802 0.25984 0.0
H1490 H 0.13294 0.96119 0.25948 0.0
H1491 H 0.00903 0.88281 0.33111 0.0
H1492 H 0.04548 0.95688 0.26805 0.0
H1493 H 0.09218 0.92345 0.34754 0.0
C1494 C 0.12961 0.94 0.32801 0.0
C1495 C 0.14133 0.95196 0.30354 0.0
C1496 C 0.03735 0.94103 0.28229 0.0
C1497 C 0.08489 0.93524 0.30392 0.0
C1498 C 0.01027 0.93076 0.27798 0.0
C1499 C 0.00011 0.90876 0.29469 0.0
C1500 C 0.0544 0.929 0.30332 0.0
C1501 C 0.01632 0.89981 0.3178 0.0
C1502 C 0.10135 0.93149 0.32824 0.0
C1503 C 0.1248 0.95258 0.27898 0.0
N1504 N 0.04314 0.90954 0.32114 0.0
N1505 N 0.09733 0.94483 0.27995 0.0
H1506 H 0.47129 0.08945 0.82728 0.0
H1507 H 0.35308 0.00762 0.74202 0.0
H1508 H 0.48621 0.0439 0.75023 0.0
H1509 H 0.3393 0.04022 0.826 0.0
H1510 H 0.40249 0.02076 0.74567 0.0
H1511 H 0.42479 0.06738 0.83084 0.0
C1512 C 0.46539 0.07356 0.812 0.0
C1513 C 0.48222 0.06865 0.78823 0.0
C1514 C 0.38866 0.02512 0.7633 0.0
C1515 C 0.429 0.04452 0.79132 0.0
C1516 C 0.36025 0.0181 0.76102 0.0
C1517 C 0.34194 0.02263 0.7838 0.0
C1518 C 0.39888 0.03701 0.78843 0.0
C1519 C 0.35262 0.03625 0.8079 0.0
C1520 C 0.4386 0.06147 0.81364 0.0
C1521 C 0.47361 0.04825 0.76877 0.0
N1522 N 0.38046 0.04281 0.80965 0.0
N1523 N 0.4472 0.03746 0.7703 0.0
H1524 H 0.60952 0.48891 0.72396 0.0
H1525 H 0.49321 0.57319 0.63488 0.0
H1526 H 0.62087 0.51775 0.63832 0.0
H1527 H 0.49215 0.56727 0.72557 0.0
H1528 H 0.5341 0.5415 0.63396 0.0
H1529 H 0.56167 0.50862 0.72341 0.0
C1530 C 0.60208 0.49952 0.70515 0.0
C1531 C 0.61943 0.50197 0.6813 0.0
C1532 C 0.52445 0.54658 0.65401 0.0
C1533 C 0.56454 0.52376 0.68027 0.0
C1534 C 0.50085 0.56423 0.65447 0.0
C1535 C 0.48948 0.57274 0.68033 0.0
C1536 C 0.53648 0.53746 0.67959 0.0
C1537 C 0.50048 0.5611 0.70522 0.0
C1538 C 0.57471 0.51054 0.70477 0.0
C1539 C 0.60848 0.51564 0.65736 0.0
N1540 N 0.52364 0.54432 0.7043 0.0
N1541 N 0.58177 0.52596 0.65746 0.0
H1542 H 0.00457 0.42138 0.22035 0.0
H1543 H 0.87458 0.44956 0.11842 0.0
H1544 H 0.00182 0.39183 0.13445 0.0
H1545 H 0.8859 0.49179 0.19831 0.0
H1546 H 0.92199 0.42978 0.12295 0.0
H1547 H 0.96334 0.45077 0.21107 0.0
C1548 C -0.00424 0.42184 0.19924 0.0
C1549 C 0.00653 0.40428 0.1781 0.0
C1550 C 0.91414 0.44349 0.13941 0.0
C1551 C 0.95866 0.43683 0.16761 0.0
C1552 C 0.88694 0.45457 0.13699 0.0
C1553 C 0.87608 0.47219 0.15815 0.0
C1554 C 0.93056 0.4499 0.16324 0.0
C1555 C 0.89325 0.47818 0.18156 0.0
C1556 C 0.97206 0.43839 0.19401 0.0
C1557 C -0.00575 0.40534 0.1512 0.0
N1558 N 0.91954 0.46694 0.18352 0.0
N1559 N 0.97054 0.42091 0.14685 0.0
H1560 H 0.28308 0.10127 0.98948 0.0
H1561 H 0.35217 0.005 0.87023 0.0
H1562 H 0.35666 0.12629 0.94197 0.0
H1563 H 0.2807 0.9811 0.92101 0.0
H1564 H 0.35839 0.04691 0.89979 0.0
H1565 H 0.2842 0.05579 0.96621 0.0
C1566 C 0.29931 0.09737 0.97389 0.0
C1567 C 0.31977 0.11775 0.96767 0.0
C1568 C 0.34179 0.03213 0.90489 0.0
C1569 C 0.32149 0.06523 0.94117 0.0
C1570 C 0.33856 0.00799 0.88833 0.0
C1571 C 0.31586 0.98975 0.89329 0.0
C1572 C 0.32213 0.03781 0.92636 0.0
C1573 C 0.29842 -0.00522 0.91657 0.0
C1574 C 0.30014 0.07119 0.9608 0.0
C1575 C 0.34042 0.11125 0.94741 0.0
N1576 N 0.30167 0.01854 0.93199 0.0
N1577 N 0.34076 0.08553 0.93487 0.0
H1578 H 0.766 0.40499 0.92703 0.0
H1579 H 0.83106 0.49048 0.02157 0.0
H1580 H 0.72418 0.39566 0.0072 0.0
H1581 H 0.7487 0.52419 0.03984 0.0
H1582 H 0.81052 0.46332 0.9827 0.0
H1583 H 0.77508 0.45454 0.9381 0.0
C1584 C 0.75754 0.4137 0.94635 0.0
C1585 C 0.74496 0.39622 0.96664 0.0
C1586 C 0.79721 0.47788 -0.00579 0.0
C1587 C 0.7546 0.45247 0.97883 0.0
C1588 C 0.80898 0.49334 0.0163 0.0
C1589 C 0.79141 0.50937 0.03363 0.0
C1590 C 0.76773 0.47768 0.99067 0.0
C1591 C 0.76276 0.51193 0.02666 0.0
C1592 C 0.76279 0.44187 0.95256 0.0
C1593 C 0.73438 0.40842 0.99129 0.0
N1594 N 0.75148 0.49519 0.00643 0.0
N1595 N 0.73981 0.43585 -0.00309 0.0
H1596 H 0.76391 0.58092 0.48527 0.0
H1597 H 0.65621 0.46948 0.54612 0.0
H1598 H 0.67305 0.5872 0.48548 0.0
H1599 H 0.74523 0.47049 0.56489 0.0
H1600 H 0.66489 0.50088 0.50608 0.0
H1601 H 0.75963 0.53088 0.49845 0.0
C1602 C 0.74318 0.57167 0.48785 0.0
C1603 C 0.71885 0.58823 0.48562 0.0
C1604 C 0.68269 0.49346 0.51838 0.0
C1605 C 0.7137 0.53155 0.49946 0.0
C1606 C 0.6777 0.47535 0.541 0.0
C1607 C 0.69997 0.46826 0.55897 0.0
C1608 C 0.70997 0.5046 0.51438 0.0
C1609 C 0.72748 0.47627 0.55165 0.0
C1610 C 0.74069 0.54321 0.49507 0.0
C1611 C 0.69238 0.57531 0.48826 0.0
N1612 N 0.73169 0.49469 0.5303 0.0
N1613 N 0.69052 0.54786 0.49533 0.0
H1614 H 0.20582 0.86433 0.4847 0.0
H1615 H 0.12928 0.97638 0.38557 0.0
H1616 H 0.12946 0.84574 0.43834 0.0
H1617 H 0.20245 -0.00608 0.43682 0.0
H1618 H 0.12511 0.93034 0.40841 0.0
H1619 H 0.20313 0.91271 0.46856 0.0
C1620 C 0.18867 0.87029 0.47079 0.0
C1621 C 0.16784 0.85084 0.4629 0.0
C1622 C 0.14165 0.94456 0.41516 0.0
C1623 C 0.1643 0.90666 0.44472 0.0
C1624 C 0.14373 0.97101 0.40247 0.0
C1625 C 0.16644 0.98871 0.40918 0.0
C1626 C 0.1624 0.93607 0.43462 0.0
C1627 C 0.18479 0.98069 0.43094 0.0
C1628 C 0.18695 0.89809 0.46184 0.0
C1629 C 0.14604 0.85997 0.44492 0.0
N1630 N 0.18266 0.95475 0.44255 0.0
N1631 N 0.1448 0.88727 0.43647 0.0
H1632 H 0.05569 0.6611 0.82925 0.0
H1633 H 0.08692 0.678 -0.00646 0.0
H1634 H 0.00179 0.70835 0.88531 0.0
H1635 H 0.15146 0.65627 0.93309 0.0
H1636 H 0.05323 0.6835 0.95481 0.0
H1637 H 0.08967 0.65525 0.86756 0.0
C1638 C 0.0512 0.67062 0.84951 0.0
C1639 C 0.02589 0.6853 0.85409 0.0
C1640 C 0.07474 0.67738 0.95009 0.0
C1641 C 0.06438 0.67807 0.89817 0.0
C1642 C 0.0939 0.67389 0.97219 0.0
C1643 C 0.12209 0.66672 0.96653 0.0
C1644 C 0.08376 0.67338 0.92219 0.0
C1645 C 0.12997 0.66192 0.93841 0.0
C1646 C 0.07055 0.66715 0.87139 0.0
C1647 C 0.02113 0.69708 0.8808 0.0
N1648 N 0.11092 0.66539 0.91727 0.0
N1649 N 0.04008 0.69294 0.90196 0.0
H1650 H 0.50217 0.29206 0.40595 0.0
H1651 H 0.34755 0.34763 0.44228 0.0
H1652 H 0.4513 0.34277 0.3499 0.0
H1653 H 0.403 0.31396 0.50615 0.0
H1654 H 0.38614 0.34607 0.4085 0.0
H1655 H 0.46668 0.29887 0.44307 0.0
C1656 C 0.48357 0.30453 0.4014 0.0
C1657 C 0.47968 0.3167 0.37465 0.0
C1658 C 0.3901 0.33929 0.42995 0.0
C1659 C 0.4392 0.32469 0.417 0.0
C1660 C 0.36805 0.34024 0.44927 0.0
C1661 C 0.37211 0.33087 0.47701 0.0
C1662 C 0.41642 0.32839 0.43818 0.0
C1663 C 0.3991 0.32155 0.48497 0.0
C1664 C 0.46345 0.30856 0.42265 0.0
C1665 C 0.45527 0.33286 0.37008 0.0
N1666 N 0.42021 0.32016 0.4655 0.0
N1667 N 0.436 0.33624 0.39093 0.0
H1668 H 0.59232 0.86415 0.01196 0.0
H1669 H 0.50666 0.7825 0.13052 0.0
H1670 H 0.53965 0.79186 -0.00314 0.0
H1671 H 0.54943 0.86103 0.14711 0.0
H1672 H 0.51814 0.78714 0.08096 0.0
H1673 H 0.57357 0.86717 0.06008 0.0
C1674 C 0.57573 0.84982 0.01834 0.0
C1675 C 0.56741 0.82772 0.00058 0.0
C1676 C 0.52506 0.80342 0.09536 0.0
C1677 C 0.5469 0.83022 0.05558 0.0
C1678 C 0.51882 0.8006 0.12385 0.0
C1679 C 0.52695 0.82148 0.14314 0.0
C1680 C 0.53979 0.82721 0.08586 0.0
C1681 C 0.54263 0.84445 0.13302 0.0
C1682 C 0.56546 0.85118 0.04596 0.0
C1683 C 0.54647 0.80924 0.00998 0.0
N1684 N 0.54851 0.84675 0.10501 0.0
N1685 N 0.5373 0.81059 0.037 0.0
H1686 H 0.93685 0.18617 0.51844 0.0
H1687 H 0.91992 0.15949 0.68439 0.0
H1688 H 0.87516 0.13071 0.55533 0.0
H1689 H 0.97753 0.2207 0.6497 0.0
H1690 H 0.90443 0.14782 0.63687 0.0
H1691 H 0.95559 0.19587 0.56583 0.0
C1692 C 0.92799 0.17523 0.53641 0.0
C1693 C 0.90455 0.15754 0.53309 0.0
C1694 C 0.92024 0.16405 0.63959 0.0
C1695 C 0.92498 0.16927 0.58714 0.0
C1696 C 0.92885 0.17099 0.66682 0.0
C1697 C 0.95004 0.19118 0.67115 0.0
C1698 C 0.93291 0.17729 0.61636 0.0
C1699 C 0.96097 0.20518 0.64744 0.0
C1700 C 0.93829 0.18118 0.56347 0.0
C1701 C 0.89333 0.14443 0.55706 0.0
N1702 N 0.95247 0.19778 0.62103 0.0
N1703 N 0.90345 0.15076 0.58306 0.0
H1704 H 0.84719 0.04239 0.64488 0.0
H1705 H 0.98652 0.05797 0.73825 0.0
H1706 H 0.86457 -0.00357 0.72161 0.0
H1707 H 0.96847 0.11168 0.66724 0.0
H1708 H 0.94585 0.02904 0.72605 0.0
H1709 H 0.89385 0.06429 0.64843 0.0
C1710 C 0.86063 0.03713 0.66261 0.0
C1711 C 0.85187 0.01763 0.68306 0.0
C1712 C 0.95103 0.04679 0.71271 0.0
C1713 C 0.90537 0.04197 0.68677 0.0
C1714 C 0.97446 0.063 0.71946 0.0
C1715 C 0.98066 0.08703 0.70366 0.0
C1716 C 0.93337 0.05513 0.69039 0.0
C1717 C 0.96437 0.09303 0.67971 0.0
C1718 C 0.88736 0.04939 0.66443 0.0
C1719 C 0.87029 0.01139 0.7054 0.0
N1720 N 0.94097 0.07747 0.67408 0.0
N1721 N 0.89613 0.02347 0.70658 0.0
H1722 H 0.65594 0.94677 0.15847 0.0
H1723 H 0.50562 0.95262 0.23383 0.0
H1724 H 0.64036 0.98074 0.24154 0.0
H1725 H 0.52049 0.9034 0.15908 0.0
H1726 H 0.55344 0.97123 0.23068 0.0
H1727 H 0.60602 0.9342 0.1549 0.0
C1728 C 0.64224 0.95099 0.17625 0.0
C1729 C 0.65241 0.96519 0.20024 0.0
C1730 C 0.54613 0.95686 0.21453 0.0
C1731 C 0.59518 0.95162 0.19583 0.0
C1732 C 0.51859 0.94683 0.21593 0.0
C1733 C 0.50934 0.92641 0.19677 0.0
C1734 C 0.5645 0.94612 0.19395 0.0
C1735 C 0.52699 0.91919 0.1742 0.0
C1736 C 0.61366 0.94416 0.17398 0.0
C1737 C 0.63361 0.96999 0.22258 0.0
N1738 N 0.55414 0.9285 0.17377 0.0
N1739 N 0.60587 0.96356 0.21965 0.0
H1740 H 0.5205 0.42195 0.25362 0.0
H1741 H 0.38904 0.46879 0.33886 0.0
H1742 H 0.51819 0.4228 0.34442 0.0
H1743 H 0.40079 0.49676 0.253 0.0
H1744 H 0.43813 0.45509 0.34096 0.0
H1745 H 0.48085 0.45485 0.2525 0.0
C1746 C 0.51242 0.43016 0.27335 0.0
C1747 C 0.52231 0.41954 0.29917 0.0
C1748 C 0.43018 0.46438 0.32166 0.0
C1749 C 0.47635 0.45604 0.29806 0.0
C1750 C 0.40189 0.47183 0.32023 0.0
C1751 C 0.39051 0.48343 0.29544 0.0
C1752 C 0.44742 0.46791 0.29796 0.0
C1753 C 0.40858 0.48749 0.27236 0.0
C1754 C 0.48962 0.4487 0.2727 0.0
C1755 C 0.51113 0.43053 0.32412 0.0
N1756 N 0.43613 0.47929 0.27402 0.0
N1757 N 0.48814 0.44761 0.32295 0.0
H1758 H 0.10746 0.49052 0.79089 0.0
H1759 H -0.00114 0.59702 0.86336 0.0
H1760 H 0.12746 0.54029 0.86448 0.0
H1761 H 0.98235 0.55203 0.78618 0.0
H1762 H 0.04276 0.57019 0.86911 0.0
H1763 H 0.0593 0.50849 0.79237 0.0
C1764 C 0.10184 0.50543 0.80722 0.0
C1765 C 0.12171 0.51407 0.82743 0.0
C1766 C 0.02916 0.56566 0.85131 0.0
C1767 C 0.06625 0.5344 0.82954 0.0
C1768 C 0.00386 0.58058 0.84834 0.0
C1769 C 0.98706 0.57656 0.82432 0.0
C1770 C 0.03748 0.54672 0.83008 0.0
C1771 C -0.0052 0.55561 0.80503 0.0
C1772 C 0.07421 0.51551 0.8082 0.0
C1773 C 0.11298 0.53321 0.84829 0.0
N1774 N 0.01964 0.54174 0.8081 0.0
N1775 N 0.08592 0.54276 0.84878 0.0
H1776 H 0.63444 0.8601 0.05043 0.0
H1777 H 0.70178 0.01358 0.06372 0.0
H1778 H 0.70669 0.88981 0.00361 0.0
H1779 H 0.63736 0.98351 0.12026 0.0
H1780 H 0.6968 0.97088 0.03576 0.0
H1781 H 0.63067 0.90636 0.07287 0.0
C1782 C 0.64972 0.87617 0.0451 0.0
C1783 C 0.67099 0.87095 0.0251 0.0
C1784 C 0.68333 0.97373 0.05397 0.0
C1785 C 0.66632 0.92405 0.05021 0.0
C1786 C 0.68586 -0.00167 0.06965 0.0
C1787 C 0.67007 0.0019 0.09434 0.0
C1788 C 0.66515 0.95236 0.06329 0.0
C1789 C 0.64987 0.98149 0.10127 0.0
C1790 C 0.64736 0.90265 0.05773 0.0
C1791 C 0.69003 0.89269 0.01894 0.0
N1792 N 0.64837 0.9572 0.08613 0.0
N1793 N 0.68715 0.91823 0.03135 0.0
H1794 H 0.1741 0.49047 0.96607 0.0
H1795 H 0.22812 0.58648 0.06006 0.0
H1796 H 0.25868 0.48478 0.93328 0.0
H1797 H 0.26545 0.60927 0.98045 0.0
H1798 H 0.22506 0.53747 0.04404 0.0
H1799 H 0.19184 0.52053 0.0044 0.0
C1800 C 0.19656 0.49441 0.96782 0.0
C1801 C 0.21501 0.48566 0.94657 0.0
C1802 C 0.23478 0.55312 0.03059 0.0
C1803 C 0.23517 0.52007 0.98937 0.0
C1804 C 0.23667 0.58097 0.03968 0.0
C1805 C 0.24631 0.60192 0.02116 0.0
C1806 C 0.24347 0.54638 0.0032 0.0
C1807 C 0.25742 0.59376 -0.00489 0.0
C1808 C 0.20671 0.51149 0.98962 0.0
C1809 C 0.24387 0.49157 0.9493 0.0
N1810 N 0.25541 0.56657 0.98674 0.0
N1811 N 0.25297 0.50926 0.96974 0.0
H1812 H 0.24813 0.41636 0.53061 0.0
H1813 H 0.3435 0.46858 0.41619 0.0
H1814 H 0.24577 0.38225 0.44626 0.0
H1815 H 0.27787 0.53044 0.42684 0.0
H1816 H 0.31997 0.43862 0.45083 0.0
H1817 H 0.26602 0.46091 0.51137 0.0
C1818 C 0.24996 0.41866 0.50795 0.0
C1819 C 0.24603 0.39544 0.48994 0.0
C1820 C 0.31147 0.45935 0.44649 0.0
C1821 C 0.26673 0.44558 0.46842 0.0
C1822 C 0.32507 0.47654 0.42712 0.0
C1823 C 0.31249 0.50182 0.41882 0.0
C1824 C 0.28513 0.46749 0.45714 0.0
C1825 C 0.28818 0.51105 0.43302 0.0
C1826 C 0.26046 0.44394 0.49716 0.0
C1827 C 0.24896 0.39949 0.46085 0.0
N1828 N 0.27453 0.49333 0.45094 0.0
N1829 N 0.25997 0.42386 0.45104 0.0
H1830 H 0.81744 0.07448 0.44355 0.0
H1831 H 0.83261 0.97182 0.54815 0.0
H1832 H 0.76051 0.10398 0.50795 0.0
H1833 H 0.74254 0.9802 0.55753 0.0
H1834 H 0.83081 0.00531 0.50863 0.0
H1835 H 0.81368 0.02661 0.46286 0.0
C1836 C 0.8034 0.07068 0.46114 0.0
C1837 C 0.78926 0.0931 0.4743 0.0
C1838 C 0.81129 -0.00124 0.51851 0.0
C1839 C 0.78494 0.03885 0.49623 0.0
C1840 C 0.81233 0.97952 0.54089 0.0
C1841 C 0.7877 0.97345 0.55602 0.0
C1842 C 0.78556 0.01211 0.51192 0.0
C1843 C 0.76198 0.98453 0.54633 0.0
C1844 C 0.80155 0.0435 0.47225 0.0
C1845 C 0.77176 0.08724 0.4973 0.0
N1846 N 0.76169 0.00405 0.52552 0.0
N1847 N 0.77012 0.06064 0.50757 0.0
loop_
_geom_bond_atom_site_label_1
_geom_bond_atom_site_label_2
_geom_bond_distance
_geom_bond_site_symmetry_2
_ccdc_geom_bond_type
O0 Zn1 1.953 . S
O0 C16 1.225 . S
Zn1 O0 1.953 . S
Zn1 O2 1.949 . S
Zn1 O8 1.919 . S
Zn1 O13 1.924 . S
O2 Zn1 1.949 . S
O2 Zn3 1.923 . S
O2 Zn4 1.950 . S
O2 Zn5 1.945 . S
Zn3 O2 1.923 . S
Zn3 O6 1.933 . S
Zn3 O9 1.941 . S
Zn3 O10 1.965 . S
Zn4 O2 1.950 . S
Zn4 O11 1.938 . S
Zn4 O12 1.906 . S
Zn4 O22 1.953 . S
Zn5 O2 1.945 . S
Zn5 O7 1.932 1_455 S
Zn5 O14 1.977 1_455 S
Zn5 O15 1.910 1_455 S
O6 Zn3 1.933 . S
O6 C17 1.226 . S
O7 Zn5 1.932 1_655 S
O7 C17 1.307 1_655 S
O8 Zn1 1.919 . S
O8 C19 1.253 . S
O9 Zn3 1.941 . S
O9 C19 1.283 . S
O10 Zn3 1.965 . S
O10 C18 1.303 . S
O11 Zn4 1.938 . S
O11 C18 1.247 . S
O12 Zn4 1.906 . S
O12 C20 1.304 1_455 S
O13 Zn1 1.924 . S
O13 C21 1.273 1_455 S
O14 Zn5 1.977 1_655 S
O14 C20 1.272 . S
O15 Zn5 1.910 1_655 S
O15 C21 1.251 . S
C16 O0 1.225 . S
C16 O22 1.298 . S
C17 O6 1.226 . S
C17 O7 1.307 1_455 S
C18 O10 1.303 . S
C18 O11 1.247 . S
C19 O8 1.253 . S
C19 O9 1.283 . S
C20 O12 1.304 1_655 S
C20 O14 1.272 . S
C21 O13 1.273 1_655 S
C21 O15 1.251 . S
O22 Zn4 1.953 . S
O22 C16 1.298 . S
O23 Zn24 1.953 . S
O23 C39 1.225 . S
Zn24 O23 1.953 . S
Zn24 O25 1.949 . S
Zn24 O31 1.919 . S
Zn24 O36 1.924 . S
O25 Zn24 1.949 . S
O25 Zn26 1.923 . S
O25 Zn27 1.950 . S
O25 Zn28 1.945 . S
Zn26 O25 1.923 . S
Zn26 O29 1.933 . S
Zn26 O32 1.941 . S
Zn26 O33 1.965 . S
Zn27 O25 1.950 . S
Zn27 O34 1.938 . S
Zn27 O35 1.906 . S
Zn27 O45 1.953 . S
Zn28 O25 1.945 . S
Zn28 O30 1.932 . S
Zn28 O37 1.977 . S
Zn28 O38 1.910 . S
O29 Zn26 1.933 . S
O29 C40 1.226 . S
O30 Zn28 1.932 . S
O30 C40 1.307 . S
O31 Zn24 1.919 . S
O31 C42 1.253 . S
O32 Zn26 1.941 . S
O32 C42 1.283 . S
O33 Zn26 1.965 . S
O33 C41 1.303 . S
O34 Zn27 1.938 . S
O34 C41 1.247 . S
O35 Zn27 1.906 . S
O35 C43 1.304 . S
O36 Zn24 1.924 . S
O36 C44 1.311 . S
O37 Zn28 1.977 . S
O37 C43 1.272 . S
O38 Zn28 1.910 . S
O38 C44 1.231 . S
C39 O23 1.225 . S
C39 O45 1.298 . S
C40 O29 1.226 . S
C40 O30 1.307 . S
C41 O33 1.303 . S
C41 O34 1.247 . S
C42 O31 1.253 . S
C42 O32 1.283 . S
C43 O35 1.304 . S
C43 O37 1.272 . S
C44 O36 1.311 . S
C44 O38 1.231 . S
O45 Zn27 1.953 . S
O45 C39 1.298 . S
O46 Zn47 1.953 . S
O46 C62 1.225 . S
Zn47 O46 1.953 . S
Zn47 O48 1.949 . S
Zn47 O54 1.919 . S
Zn47 O59 1.924 . S
O48 Zn47 1.949 . S
O48 Zn49 1.923 . S
O48 Zn50 1.950 . S
O48 Zn51 1.945 . S
Zn49 O48 1.923 . S
Zn49 O52 1.933 . S
Zn49 O55 1.941 . S
Zn49 O56 1.965 . S
Zn50 O48 1.950 . S
Zn50 O57 1.938 . S
Zn50 O58 1.906 . S
Zn50 O68 1.953 . S
Zn51 O48 1.945 . S
Zn51 O53 1.932 . S
Zn51 O60 1.977 . S
Zn51 O61 1.910 . S
O52 Zn49 1.933 . S
O52 C63 1.226 . S
O53 Zn51 1.932 . S
O53 C63 1.307 . S
O54 Zn47 1.919 . S
O54 C65 1.253 . S
O55 Zn49 1.941 . S
O55 C65 1.283 . S
O56 Zn49 1.965 . S
O56 C64 1.303 . S
O57 Zn50 1.938 . S
O57 C64 1.247 . S
O58 Zn50 1.906 . S
O58 C66 1.304 . S
O59 Zn47 1.924 . S
O59 C67 1.311 . S
O60 Zn51 1.977 . S
O60 C66 1.272 . S
O61 Zn51 1.910 . S
O61 C67 1.231 . S
C62 O46 1.225 . S
C62 O68 1.298 . S
C63 O52 1.226 . S
C63 O53 1.307 . S
C64 O56 1.303 . S
C64 O57 1.247 . S
C65 O54 1.253 . S
C65 O55 1.283 . S
C66 O58 1.304 . S
C66 O60 1.272 . S
C67 O59 1.311 . S
C67 O61 1.231 . S
O68 Zn50 1.953 . S
O68 C62 1.298 . S
O69 Zn70 1.953 . S
O69 C85 1.225 . S
Zn70 O69 1.953 . S
Zn70 O71 1.949 . S
Zn70 O77 1.919 . S
Zn70 O82 1.924 . S
O71 Zn70 1.949 . S
O71 Zn72 1.923 . S
O71 Zn73 1.950 . S
O71 Zn74 1.945 . S
Zn72 O71 1.923 . S
Zn72 O75 1.933 . S
Zn72 O78 1.941 . S
Zn72 O79 1.965 . S
Zn73 O71 1.950 . S
Zn73 O80 1.938 . S
Zn73 O81 1.906 . S
Zn73 O91 1.953 . S
Zn74 O71 1.945 . S
Zn74 O76 1.932 1_655 S
Zn74 O83 1.977 1_655 S
Zn74 O84 1.910 1_655 S
O75 Zn72 1.933 . S
O75 C86 1.226 . S
O76 Zn74 1.932 1_455 S
O76 C86 1.307 1_455 S
O77 Zn70 1.919 . S
O77 C88 1.253 . S
O78 Zn72 1.941 . S
O78 C88 1.283 . S
O79 Zn72 1.965 . S
O79 C87 1.303 . S
O80 Zn73 1.938 . S
O80 C87 1.247 . S
O81 Zn73 1.906 . S
O81 C89 1.304 1_655 S
O82 Zn70 1.924 . S
O82 C90 1.273 1_655 S
O83 Zn74 1.977 1_455 S
O83 C89 1.272 . S
O84 Zn74 1.910 1_455 S
O84 C90 1.251 . S
C85 O69 1.225 . S
C85 O91 1.298 . S
C86 O75 1.226 . S
C86 O76 1.307 1_655 S
C87 O79 1.303 . S
C87 O80 1.247 . S
C88 O77 1.253 . S
C88 O78 1.283 . S
C89 O81 1.304 1_455 S
C89 O83 1.272 . S
C90 O82 1.273 1_455 S
C90 O84 1.251 . S
O91 Zn73 1.953 . S
O91 C85 1.298 . S
O92 Zn93 1.953 . S
O92 C108 1.225 . S
Zn93 O92 1.953 . S
Zn93 O94 1.949 . S
Zn93 O100 1.919 . S
Zn93 O105 1.924 . S
O94 Zn93 1.949 . S
O94 Zn95 1.923 . S
O94 Zn96 1.950 . S
O94 Zn97 1.945 . S
Zn95 O94 1.923 . S
Zn95 O98 1.933 . S
Zn95 O101 1.941 . S
Zn95 O102 1.965 . S
Zn96 O94 1.950 . S
Zn96 O103 1.938 . S
Zn96 O104 1.906 . S
Zn96 O114 1.953 . S
Zn97 O94 1.945 . S
Zn97 O99 1.932 1_545 S
Zn97 O106 1.977 1_545 S
Zn97 O107 1.910 1_545 S
O98 Zn95 1.933 . S
O98 C109 1.226 . S
O99 Zn97 1.932 1_565 S
O99 C109 1.307 1_565 S
O100 Zn93 1.919 . S
O100 C111 1.253 . S
O101 Zn95 1.941 . S
O101 C111 1.283 . S
O102 Zn95 1.965 . S
O102 C110 1.303 . S
O103 Zn96 1.938 . S
O103 C110 1.247 . S
O104 Zn96 1.906 . S
O104 C112 1.304 1_545 S
O105 Zn93 1.924 . S
O105 C113 1.273 1_545 S
O106 Zn97 1.977 1_565 S
O106 C112 1.272 . S
O107 Zn97 1.910 1_565 S
O107 C113 1.251 . S
C108 O92 1.225 . S
C108 O114 1.298 . S
C109 O98 1.226 . S
C109 O99 1.307 1_545 S
C110 O102 1.303 . S
C110 O103 1.247 . S
C111 O100 1.253 . S
C111 O101 1.283 . S
C112 O104 1.304 1_565 S
C112 O106 1.272 . S
C113 O105 1.273 1_565 S
C113 O107 1.251 . S
O114 Zn96 1.953 . S
O114 C108 1.298 . S
O115 Zn116 1.953 . S
O115 C131 1.225 . S
Zn116 O115 1.953 . S
Zn116 O117 1.949 . S
Zn116 O123 1.919 . S
Zn116 O128 1.924 . S
O117 Zn116 1.949 . S
O117 Zn118 1.923 . S
O117 Zn119 1.950 . S
O117 Zn120 1.945 . S
Zn118 O117 1.923 . S
Zn118 O121 1.933 . S
Zn118 O124 1.941 . S
Zn118 O125 1.965 . S
Zn119 O117 1.950 . S
Zn119 O126 1.938 . S
Zn119 O127 1.906 . S
Zn119 O137 1.953 . S
Zn120 O117 1.945 . S
Zn120 O122 1.932 1_565 S
Zn120 O129 1.977 1_565 S
Zn120 O130 1.910 1_565 S
O121 Zn118 1.933 . S
O121 C132 1.226 . S
O122 Zn120 1.932 1_545 S
O122 C132 1.307 1_545 S
O123 Zn116 1.919 . S
O123 C134 1.253 . S
O124 Zn118 1.941 . S
O124 C134 1.283 . S
O125 Zn118 1.965 . S
O125 C133 1.303 . S
O126 Zn119 1.938 . S
O126 C133 1.247 . S
O127 Zn119 1.906 . S
O127 C135 1.304 1_565 S
O128 Zn116 1.924 . S
O128 C136 1.273 1_565 S
O129 Zn120 1.977 1_545 S
O129 C135 1.272 . S
O130 Zn120 1.910 1_545 S
O130 C136 1.251 . S
C131 O115 1.225 . S
C131 O137 1.298 . S
C132 O121 1.226 . S
C132 O122 1.307 1_565 S
C133 O125 1.303 . S
C133 O126 1.247 . S
C134 O123 1.253 . S
C134 O124 1.283 . S
C135 O127 1.304 1_545 S
C135 O129 1.272 . S
C136 O128 1.273 1_545 S
C136 O130 1.251 . S
O137 Zn119 1.953 . S
O137 C131 1.298 . S
O138 Zn139 1.953 . S
O138 C154 1.225 . S
Zn139 O138 1.953 . S
Zn139 O140 1.949 . S
Zn139 O146 1.919 . S
Zn139 O151 1.924 . S
O140 Zn139 1.949 . S
O140 Zn141 1.923 . S
O140 Zn142 1.950 . S
O140 Zn143 1.945 . S
Zn141 O140 1.923 . S
Zn141 O144 1.933 . S
Zn141 O147 1.941 . S
Zn141 O148 1.965 . S
Zn142 O140 1.950 . S
Zn142 O149 1.938 . S
Zn142 O150 1.906 . S
Zn142 O160 1.953 . S
Zn143 O140 1.945 . S
Zn143 O145 1.932 . S
Zn143 O152 1.977 . S
Zn143 O153 1.910 . S
O144 Zn141 1.933 . S
O144 C155 1.226 . S
O145 Zn143 1.932 . S
O145 C155 1.307 . S
O146 Zn139 1.919 . S
O146 C157 1.253 . S
O147 Zn141 1.941 . S
O147 C157 1.283 . S
O148 Zn141 1.965 . S
O148 C156 1.303 . S
O149 Zn142 1.938 . S
O149 C156 1.247 . S
O150 Zn142 1.906 . S
O150 C158 1.304 . S
O151 Zn139 1.924 . S
O151 C159 1.311 . S
O152 Zn143 1.977 . S
O152 C158 1.272 . S
O153 Zn143 1.910 . S
O153 C159 1.231 . S
C154 O138 1.225 . S
C154 O160 1.298 . S
C155 O144 1.226 . S
C155 O145 1.307 . S
C156 O148 1.303 . S
C156 O149 1.247 . S
C157 O146 1.253 . S
C157 O147 1.283 . S
C158 O150 1.304 . S
C158 O152 1.272 . S
C159 O151 1.311 . S
C159 O153 1.231 . S
O160 Zn142 1.953 . S
O160 C154 1.298 . S
O161 Zn162 1.953 . S
O161 C177 1.225 . S
Zn162 O161 1.953 . S
Zn162 O163 1.949 . S
Zn162 O169 1.919 . S
Zn162 O174 1.924 . S
O163 Zn162 1.949 . S
O163 Zn164 1.923 . S
O163 Zn165 1.950 . S
O163 Zn166 1.945 . S
Zn164 O163 1.923 . S
Zn164 O167 1.933 . S
Zn164 O170 1.941 . S
Zn164 O171 1.965 . S
Zn165 O163 1.950 . S
Zn165 O172 1.938 . S
Zn165 O173 1.906 . S
Zn165 O183 1.953 . S
Zn166 O163 1.945 . S
Zn166 O168 1.932 . S
Zn166 O175 1.977 . S
Zn166 O176 1.910 . S
O167 Zn164 1.933 . S
O167 C178 1.226 . S
O168 Zn166 1.932 . S
O168 C178 1.307 . S
O169 Zn162 1.919 . S
O169 C180 1.253 . S
O170 Zn164 1.941 . S
O170 C180 1.283 . S
O171 Zn164 1.965 . S
O171 C179 1.303 . S
O172 Zn165 1.938 . S
O172 C179 1.247 . S
O173 Zn165 1.906 . S
O173 C181 1.304 . S
O174 Zn162 1.924 . S
O174 C182 1.311 . S
O175 Zn166 1.977 . S
O175 C181 1.272 . S
O176 Zn166 1.910 . S
O176 C182 1.231 . S
C177 O161 1.225 . S
C177 O183 1.298 . S
C178 O167 1.226 . S
C178 O168 1.307 . S
C179 O171 1.303 . S
C179 O172 1.247 . S
C180 O169 1.253 . S
C180 O170 1.283 . S
C181 O173 1.304 . S
C181 O175 1.272 . S
C182 O174 1.311 . S
C182 O176 1.231 . S
O183 Zn165 1.953 . S
O183 C177 1.298 . S
O184 Zn185 1.953 . S
O184 C200 1.225 . S
Zn185 O184 1.953 . S
Zn185 O186 1.949 . S
Zn185 O192 1.919 . S
Zn185 O197 1.924 . S
O186 Zn185 1.949 . S
O186 Zn187 1.923 . S
O186 Zn188 1.950 . S
O186 Zn189 1.945 . S
Zn187 O186 1.923 . S
Zn187 O190 1.933 . S
Zn187 O193 1.941 . S
Zn187 O194 1.965 . S
Zn188 O186 1.950 . S
Zn188 O195 1.938 . S
Zn188 O196 1.906 . S
Zn188 O206 1.953 . S
Zn189 O186 1.945 . S
Zn189 O191 1.932 1_554 S
Zn189 O198 1.977 1_554 S
Zn189 O199 1.910 1_554 S
O190 Zn187 1.933 . S
O190 C201 1.226 . S
O191 Zn189 1.932 1_556 S
O191 C201 1.307 1_556 S
O192 Zn185 1.919 . S
O192 C203 1.253 . S
O193 Zn187 1.941 . S
O193 C203 1.283 . S
O194 Zn187 1.965 . S
O194 C202 1.303 . S
O195 Zn188 1.938 . S
O195 C202 1.247 . S
O196 Zn188 1.906 . S
O196 C204 1.304 1_554 S
O197 Zn185 1.924 . S
O197 C205 1.273 1_554 S
O198 Zn189 1.977 1_556 S
O198 C204 1.272 . S
O199 Zn189 1.910 1_556 S
O199 C205 1.251 . S
C200 O184 1.225 . S
C200 O206 1.298 . S
C201 O190 1.226 . S
C201 O191 1.307 1_554 S
C202 O194 1.303 . S
C202 O195 1.247 . S
C203 O192 1.253 . S
C203 O193 1.283 . S
C204 O196 1.304 1_556 S
C204 O198 1.272 . S
C205 O197 1.273 1_556 S
C205 O199 1.251 . S
O206 Zn188 1.953 . S
O206 C200 1.298 . S
O207 Zn208 1.953 . S
O207 C223 1.225 . S
Zn208 O207 1.953 . S
Zn208 O209 1.949 . S
Zn208 O215 1.919 . S
Zn208 O220 1.924 . S
O209 Zn208 1.949 . S
O209 Zn210 1.923 . S
O209 Zn211 1.950 . S
O209 Zn212 1.945 . S
Zn210 O209 1.923 . S
Zn210 O213 1.933 . S
Zn210 O216 1.941 . S
Zn210 O217 1.965 . S
Zn211 O209 1.950 . S
Zn211 O218 1.938 . S
Zn211 O219 1.906 . S
Zn211 O229 1.953 . S
Zn212 O209 1.945 . S
Zn212 O214 1.932 1_556 S
Zn212 O221 1.977 1_556 S
Zn212 O222 1.910 1_556 S
O213 Zn210 1.933 . S
O213 C224 1.226 . S
O214 Zn212 1.932 1_554 S
O214 C224 1.307 1_554 S
O215 Zn208 1.919 . S
O215 C226 1.253 . S
O216 Zn210 1.941 . S
O216 C226 1.283 . S
O217 Zn210 1.965 . S
O217 C225 1.303 . S
O218 Zn211 1.938 . S
O218 C225 1.247 . S
O219 Zn211 1.906 . S
O219 C227 1.304 1_556 S
O220 Zn208 1.924 . S
O220 C228 1.273 1_556 S
O221 Zn212 1.977 1_554 S
O221 C227 1.272 . S
O222 Zn212 1.910 1_554 S
O222 C228 1.251 . S
C223 O207 1.225 . S
C223 O229 1.298 . S
C224 O213 1.226 . S
C224 O214 1.307 1_556 S
C225 O217 1.303 . S
C225 O218 1.247 . S
C226 O215 1.253 . S
C226 O216 1.283 . S
C227 O219 1.304 1_554 S
C227 O221 1.272 . S
C228 O220 1.273 1_554 S
C228 O222 1.251 . S
O229 Zn211 1.953 . S
O229 C223 1.298 . S
O230 Zn231 1.953 . S
O230 C246 1.225 . S
Zn231 O230 1.953 . S
Zn231 O232 1.949 . S
Zn231 O238 1.919 . S
Zn231 O243 1.924 . S
O232 Zn231 1.949 . S
O232 Zn233 1.923 . S
O232 Zn234 1.950 . S
O232 Zn235 1.945 . S
Zn233 O232 1.923 . S
Zn233 O236 1.933 . S
Zn233 O239 1.941 . S
Zn233 O240 1.965 . S
Zn234 O232 1.950 . S
Zn234 O241 1.938 . S
Zn234 O242 1.906 . S
Zn234 O252 1.953 . S
Zn235 O232 1.945 . S
Zn235 O237 1.932 . S
Zn235 O244 1.977 . S
Zn235 O245 1.910 . S
O236 Zn233 1.933 . S
O236 C247 1.226 . S
O237 Zn235 1.932 . S
O237 C247 1.307 . S
O238 Zn231 1.919 . S
O238 C249 1.253 . S
O239 Zn233 1.941 . S
O239 C249 1.283 . S
O240 Zn233 1.965 . S
O240 C248 1.303 . S
O241 Zn234 1.938 . S
O241 C248 1.247 . S
O242 Zn234 1.906 . S
O242 C250 1.304 . S
O243 Zn231 1.924 . S
O243 C251 1.311 . S
O244 Zn235 1.977 . S
O244 C250 1.272 . S
O245 Zn235 1.910 . S
O245 C251 1.231 . S
C246 O230 1.225 . S
C246 O252 1.298 . S
C247 O236 1.226 . S
C247 O237 1.307 . S
C248 O240 1.303 . S
C248 O241 1.247 . S
C249 O238 1.253 . S
C249 O239 1.283 . S
C250 O242 1.304 . S
C250 O244 1.272 . S
C251 O243 1.311 . S
C251 O245 1.231 . S
O252 Zn234 1.953 . S
O252 C246 1.298 . S
O253 Zn254 1.953 . S
O253 C269 1.225 . S
Zn254 O253 1.953 . S
Zn254 O255 1.949 . S
Zn254 O261 1.919 . S
Zn254 O266 1.924 . S
O255 Zn254 1.949 . S
O255 Zn256 1.923 . S
O255 Zn257 1.950 . S
O255 Zn258 1.945 . S
Zn256 O255 1.923 . S
Zn256 O259 1.933 . S
Zn256 O262 1.941 . S
Zn256 O263 1.965 . S
Zn257 O255 1.950 . S
Zn257 O264 1.938 . S
Zn257 O265 1.906 . S
Zn257 O275 1.953 . S
Zn258 O255 1.945 . S
Zn258 O260 1.932 . S
Zn258 O267 1.977 . S
Zn258 O268 1.910 . S
O259 Zn256 1.933 . S
O259 C270 1.226 . S
O260 Zn258 1.932 . S
O260 C270 1.307 . S
O261 Zn254 1.919 . S
O261 C272 1.253 . S
O262 Zn256 1.941 . S
O262 C272 1.283 . S
O263 Zn256 1.965 . S
O263 C271 1.303 . S
O264 Zn257 1.938 . S
O264 C271 1.247 . S
O265 Zn257 1.906 . S
O265 C273 1.304 . S
O266 Zn254 1.924 . S
O266 C274 1.311 . S
O267 Zn258 1.977 . S
O267 C273 1.272 . S
O268 Zn258 1.910 . S
O268 C274 1.231 . S
C269 O253 1.225 . S
C269 O275 1.298 . S
C270 O259 1.226 . S
C270 O260 1.307 . S
C271 O263 1.303 . S
C271 O264 1.247 . S
C272 O261 1.253 . S
C272 O262 1.283 . S
C273 O265 1.304 . S
C273 O267 1.272 . S
C274 O266 1.311 . S
C274 O268 1.231 . S
O275 Zn257 1.953 . S
O275 C269 1.298 . S
O276 Zn277 1.953 . S
O276 C292 1.225 . S
Zn277 O276 1.953 . S
Zn277 O278 1.949 . S
Zn277 O284 1.919 . S
Zn277 O289 1.924 . S
O278 Zn277 1.949 . S
O278 Zn279 1.923 . S
O278 Zn280 1.950 . S
O278 Zn281 1.945 . S
Zn279 O278 1.923 . S
Zn279 O282 1.933 . S
Zn279 O285 1.941 . S
Zn279 O286 1.965 . S
Zn280 O278 1.950 . S
Zn280 O287 1.938 . S
Zn280 O288 1.906 . S
Zn280 O298 1.953 . S
Zn281 O278 1.945 . S
Zn281 O283 1.932 1_655 S
Zn281 O290 1.977 1_655 S
Zn281 O291 1.910 1_655 S
O282 Zn279 1.933 . S
O282 C293 1.226 . S
O283 Zn281 1.932 1_455 S
O283 C293 1.307 1_455 S
O284 Zn277 1.919 . S
O284 C295 1.253 . S
O285 Zn279 1.941 . S
O285 C295 1.283 . S
O286 Zn279 1.965 . S
O286 C294 1.303 . S
O287 Zn280 1.938 . S
O287 C294 1.247 . S
O288 Zn280 1.906 . S
O288 C296 1.304 1_655 S
O289 Zn277 1.924 . S
O289 C297 1.273 1_655 S
O290 Zn281 1.977 1_455 S
O290 C296 1.272 . S
O291 Zn281 1.910 1_455 S
O291 C297 1.251 . S
C292 O276 1.225 . S
C292 O298 1.298 . S
C293 O282 1.226 . S
C293 O283 1.307 1_655 S
C294 O286 1.303 . S
C294 O287 1.247 . S
C295 O284 1.253 . S
C295 O285 1.283 . S
C296 O288 1.304 1_455 S
C296 O290 1.272 . S
C297 O289 1.273 1_455 S
C297 O291 1.251 . S
O298 Zn280 1.953 . S
O298 C292 1.298 . S
O299 Zn300 1.953 . S
O299 C315 1.225 . S
Zn300 O299 1.953 . S
Zn300 O301 1.949 . S
Zn300 O307 1.919 . S
Zn300 O312 1.924 . S
O301 Zn300 1.949 . S
O301 Zn302 1.923 . S
O301 Zn303 1.950 . S
O301 Zn304 1.945 . S
Zn302 O301 1.923 . S
Zn302 O305 1.933 . S
Zn302 O308 1.941 . S
Zn302 O309 1.965 . S
Zn303 O301 1.950 . S
Zn303 O310 1.938 . S
Zn303 O311 1.906 . S
Zn303 O321 1.953 . S
Zn304 O301 1.945 . S
Zn304 O306 1.932 . S
Zn304 O313 1.977 . S
Zn304 O314 1.910 . S
O305 Zn302 1.933 . S
O305 C316 1.226 . S
O306 Zn304 1.932 . S
O306 C316 1.307 . S
O307 Zn300 1.919 . S
O307 C318 1.253 . S
O308 Zn302 1.941 . S
O308 C318 1.283 . S
O309 Zn302 1.965 . S
O309 C317 1.303 . S
O310 Zn303 1.938 . S
O310 C317 1.247 . S
O311 Zn303 1.906 . S
O311 C319 1.304 . S
O312 Zn300 1.924 . S
O312 C320 1.311 . S
O313 Zn304 1.977 . S
O313 C319 1.272 . S
O314 Zn304 1.910 . S
O314 C320 1.231 . S
C315 O299 1.225 . S
C315 O321 1.298 . S
C316 O305 1.226 . S
C316 O306 1.307 . S
C317 O309 1.303 . S
C317 O310 1.247 . S
C318 O307 1.253 . S
C318 O308 1.283 . S
C319 O311 1.304 . S
C319 O313 1.272 . S
C320 O312 1.311 . S
C320 O314 1.231 . S
O321 Zn303 1.953 . S
O321 C315 1.298 . S
O322 Zn323 1.953 . S
O322 C338 1.225 . S
Zn323 O322 1.953 . S
Zn323 O324 1.949 . S
Zn323 O330 1.919 . S
Zn323 O335 1.924 . S
O324 Zn323 1.949 . S
O324 Zn325 1.923 . S
O324 Zn326 1.950 . S
O324 Zn327 1.945 . S
Zn325 O324 1.923 . S
Zn325 O328 1.933 . S
Zn325 O331 1.941 . S
Zn325 O332 1.965 . S
Zn326 O324 1.950 . S
Zn326 O333 1.938 . S
Zn326 O334 1.906 . S
Zn326 O344 1.953 . S
Zn327 O324 1.945 . S
Zn327 O329 1.932 . S
Zn327 O336 1.977 . S
Zn327 O337 1.910 . S
O328 Zn325 1.933 . S
O328 C339 1.226 . S
O329 Zn327 1.932 . S
O329 C339 1.307 . S
O330 Zn323 1.919 . S
O330 C341 1.253 . S
O331 Zn325 1.941 . S
O331 C341 1.283 . S
O332 Zn325 1.965 . S
O332 C340 1.303 . S
O333 Zn326 1.938 . S
O333 C340 1.247 . S
O334 Zn326 1.906 . S
O334 C342 1.304 . S
O335 Zn323 1.924 . S
O335 C343 1.311 . S
O336 Zn327 1.977 . S
O336 C342 1.272 . S
O337 Zn327 1.910 . S
O337 C343 1.231 . S
C338 O322 1.225 . S
C338 O344 1.298 . S
C339 O328 1.226 . S
C339 O329 1.307 . S
C340 O332 1.303 . S
C340 O333 1.247 . S
C341 O330 1.253 . S
C341 O331 1.283 . S
C342 O334 1.304 . S
C342 O336 1.272 . S
C343 O335 1.311 . S
C343 O337 1.231 . S
O344 Zn326 1.953 . S
O344 C338 1.298 . S
O345 Zn346 1.953 . S
O345 C361 1.225 . S
Zn346 O345 1.953 . S
Zn346 O347 1.949 . S
Zn346 O353 1.919 . S
Zn346 O358 1.924 . S
O347 Zn346 1.949 . S
O347 Zn348 1.923 . S
O347 Zn349 1.950 . S
O347 Zn350 1.945 . S
Zn348 O347 1.923 . S
Zn348 O351 1.933 . S
Zn348 O354 1.941 . S
Zn348 O355 1.965 . S
Zn349 O347 1.950 . S
Zn349 O356 1.938 . S
Zn349 O357 1.906 . S
Zn349 O367 1.953 . S
Zn350 O347 1.945 . S
Zn350 O352 1.932 1_455 S
Zn350 O359 1.977 1_455 S
Zn350 O360 1.910 1_455 S
O351 Zn348 1.933 . S
O351 C362 1.226 . S
O352 Zn350 1.932 1_655 S
O352 C362 1.307 1_655 S
O353 Zn346 1.919 . S
O353 C364 1.253 . S
O354 Zn348 1.941 . S
O354 C364 1.283 . S
O355 Zn348 1.965 . S
O355 C363 1.303 . S
O356 Zn349 1.938 . S
O356 C363 1.247 . S
O357 Zn349 1.906 . S
O357 C365 1.304 1_455 S
O358 Zn346 1.924 . S
O358 C366 1.273 1_455 S
O359 Zn350 1.977 1_655 S
O359 C365 1.272 . S
O360 Zn350 1.910 1_655 S
O360 C366 1.251 . S
C361 O345 1.225 . S
C361 O367 1.298 . S
C362 O351 1.226 . S
C362 O352 1.307 1_455 S
C363 O355 1.303 . S
C363 O356 1.247 . S
C364 O353 1.253 . S
C364 O354 1.283 . S
C365 O357 1.304 1_655 S
C365 O359 1.272 . S
C366 O358 1.273 1_655 S
C366 O360 1.251 . S
O367 Zn349 1.953 . S
O367 C361 1.298 . S
O368 Zn369 1.953 . S
O368 C384 1.225 . S
Zn369 O368 1.953 . S
Zn369 O370 1.949 . S
Zn369 O376 1.919 . S
Zn369 O381 1.924 . S
O370 Zn369 1.949 . S
O370 Zn371 1.923 . S
O370 Zn372 1.950 . S
O370 Zn373 1.945 . S
Zn371 O370 1.923 . S
Zn371 O374 1.933 . S
Zn371 O377 1.941 . S
Zn371 O378 1.965 . S
Zn372 O370 1.950 . S
Zn372 O379 1.938 . S
Zn372 O380 1.906 . S
Zn372 O390 1.953 . S
Zn373 O370 1.945 . S
Zn373 O375 1.932 1_565 S
Zn373 O382 1.977 1_565 S
Zn373 O383 1.910 1_565 S
O374 Zn371 1.933 . S
O374 C385 1.226 . S
O375 Zn373 1.932 1_545 S
O375 C385 1.307 1_545 S
O376 Zn369 1.919 . S
O376 C387 1.253 . S
O377 Zn371 1.941 . S
O377 C387 1.283 . S
O378 Zn371 1.965 . S
O378 C386 1.303 . S
O379 Zn372 1.938 . S
O379 C386 1.247 . S
O380 Zn372 1.906 . S
O380 C388 1.304 1_565 S
O381 Zn369 1.924 . S
O381 C389 1.273 1_565 S
O382 Zn373 1.977 1_545 S
O382 C388 1.272 . S
O383 Zn373 1.910 1_545 S
O383 C389 1.251 . S
C384 O368 1.225 . S
C384 O390 1.298 . S
C385 O374 1.226 . S
C385 O375 1.307 1_565 S
C386 O378 1.303 . S
C386 O379 1.247 . S
C387 O376 1.253 . S
C387 O377 1.283 . S
C388 O380 1.304 1_545 S
C388 O382 1.272 . S
C389 O381 1.273 1_545 S
C389 O383 1.251 . S
O390 Zn372 1.953 . S
O390 C384 1.298 . S
O391 Zn392 1.953 . S
O391 C407 1.225 . S
Zn392 O391 1.953 . S
Zn392 O393 1.949 . S
Zn392 O399 1.919 . S
Zn392 O404 1.924 . S
O393 Zn392 1.949 . S
O393 Zn394 1.923 . S
O393 Zn395 1.950 . S
O393 Zn396 1.945 . S
Zn394 O393 1.923 . S
Zn394 O397 1.933 . S
Zn394 O400 1.941 . S
Zn394 O401 1.965 . S
Zn395 O393 1.950 . S
Zn395 O402 1.938 . S
Zn395 O403 1.906 . S
Zn395 O413 1.953 . S
Zn396 O393 1.945 . S
Zn396 O398 1.932 1_545 S
Zn396 O405 1.977 1_545 S
Zn396 O406 1.910 1_545 S
O397 Zn394 1.933 . S
O397 C408 1.226 . S
O398 Zn396 1.932 1_565 S
O398 C408 1.307 1_565 S
O399 Zn392 1.919 . S
O399 C410 1.253 . S
O400 Zn394 1.941 . S
O400 C410 1.283 . S
O401 Zn394 1.965 . S
O401 C409 1.303 . S
O402 Zn395 1.938 . S
O402 C409 1.247 . S
O403 Zn395 1.906 . S
O403 C411 1.304 1_545 S
O404 Zn392 1.924 . S
O404 C412 1.273 1_545 S
O405 Zn396 1.977 1_565 S
O405 C411 1.272 . S
O406 Zn396 1.910 1_565 S
O406 C412 1.251 . S
C407 O391 1.225 . S
C407 O413 1.298 . S
C408 O397 1.226 . S
C408 O398 1.307 1_545 S
C409 O401 1.303 . S
C409 O402 1.247 . S
C410 O399 1.253 . S
C410 O400 1.283 . S
C411 O403 1.304 1_565 S
C411 O405 1.272 . S
C412 O404 1.273 1_565 S
C412 O406 1.251 . S
O413 Zn395 1.953 . S
O413 C407 1.298 . S
O414 Zn415 1.953 . S
O414 C430 1.225 . S
Zn415 O414 1.953 . S
Zn415 O416 1.949 . S
Zn415 O422 1.919 . S
Zn415 O427 1.924 . S
O416 Zn415 1.949 . S
O416 Zn417 1.923 . S
O416 Zn418 1.950 . S
O416 Zn419 1.945 . S
Zn417 O416 1.923 . S
Zn417 O420 1.933 . S
Zn417 O423 1.941 . S
Zn417 O424 1.965 . S
Zn418 O416 1.950 . S
Zn418 O425 1.938 . S
Zn418 O426 1.906 . S
Zn418 O436 1.953 . S
Zn419 O416 1.945 . S
Zn419 O421 1.932 . S
Zn419 O428 1.977 . S
Zn419 O429 1.910 . S
O420 Zn417 1.933 . S
O420 C431 1.226 . S
O421 Zn419 1.932 . S
O421 C431 1.307 . S
O422 Zn415 1.919 . S
O422 C433 1.253 . S
O423 Zn417 1.941 . S
O423 C433 1.283 . S
O424 Zn417 1.965 . S
O424 C432 1.303 . S
O425 Zn418 1.938 . S
O425 C432 1.247 . S
O426 Zn418 1.906 . S
O426 C434 1.304 . S
O427 Zn415 1.924 . S
O427 C435 1.311 . S
O428 Zn419 1.977 . S
O428 C434 1.272 . S
O429 Zn419 1.910 . S
O429 C435 1.231 . S
C430 O414 1.225 . S
C430 O436 1.298 . S
C431 O420 1.226 . S
C431 O421 1.307 . S
C432 O424 1.303 . S
C432 O425 1.247 . S
C433 O422 1.253 . S
C433 O423 1.283 . S
C434 O426 1.304 . S
C434 O428 1.272 . S
C435 O427 1.311 . S
C435 O429 1.231 . S
O436 Zn418 1.953 . S
O436 C430 1.298 . S
O437 Zn438 1.953 . S
O437 C453 1.225 . S
Zn438 O437 1.953 . S
Zn438 O439 1.949 . S
Zn438 O445 1.919 . S
Zn438 O450 1.924 . S
O439 Zn438 1.949 . S
O439 Zn440 1.923 . S
O439 Zn441 1.950 . S
O439 Zn442 1.945 . S
Zn440 O439 1.923 . S
Zn440 O443 1.933 . S
Zn440 O446 1.941 . S
Zn440 O447 1.965 . S
Zn441 O439 1.950 . S
Zn441 O448 1.938 . S
Zn441 O449 1.906 . S
Zn441 O459 1.953 . S
Zn442 O439 1.945 . S
Zn442 O444 1.932 . S
Zn442 O451 1.977 . S
Zn442 O452 1.910 . S
O443 Zn440 1.933 . S
O443 C454 1.226 . S
O444 Zn442 1.932 . S
O444 C454 1.307 . S
O445 Zn438 1.919 . S
O445 C456 1.253 . S
O446 Zn440 1.941 . S
O446 C456 1.283 . S
O447 Zn440 1.965 . S
O447 C455 1.303 . S
O448 Zn441 1.938 . S
O448 C455 1.247 . S
O449 Zn441 1.906 . S
O449 C457 1.304 . S
O450 Zn438 1.924 . S
O450 C458 1.311 . S
O451 Zn442 1.977 . S
O451 C457 1.272 . S
O452 Zn442 1.910 . S
O452 C458 1.231 . S
C453 O437 1.225 . S
C453 O459 1.298 . S
C454 O443 1.226 . S
C454 O444 1.307 . S
C455 O447 1.303 . S
C455 O448 1.247 . S
C456 O445 1.253 . S
C456 O446 1.283 . S
C457 O449 1.304 . S
C457 O451 1.272 . S
C458 O450 1.311 . S
C458 O452 1.231 . S
O459 Zn441 1.953 . S
O459 C453 1.298 . S
O460 Zn461 1.953 . S
O460 C476 1.225 . S
Zn461 O460 1.953 . S
Zn461 O462 1.949 . S
Zn461 O468 1.919 . S
Zn461 O473 1.924 . S
O462 Zn461 1.949 . S
O462 Zn463 1.923 . S
O462 Zn464 1.950 . S
O462 Zn465 1.945 . S
Zn463 O462 1.923 . S
Zn463 O466 1.933 . S
Zn463 O469 1.941 . S
Zn463 O470 1.965 . S
Zn464 O462 1.950 . S
Zn464 O471 1.938 . S
Zn464 O472 1.906 . S
Zn464 O482 1.953 . S
Zn465 O462 1.945 . S
Zn465 O467 1.932 1_556 S
Zn465 O474 1.977 1_556 S
Zn465 O475 1.910 1_556 S
O466 Zn463 1.933 . S
O466 C477 1.226 . S
O467 Zn465 1.932 1_554 S
O467 C477 1.307 1_554 S
O468 Zn461 1.919 . S
O468 C479 1.253 . S
O469 Zn463 1.941 . S
O469 C479 1.283 . S
O470 Zn463 1.965 . S
O470 C478 1.303 . S
O471 Zn464 1.938 . S
O471 C478 1.247 . S
O472 Zn464 1.906 . S
O472 C480 1.304 1_556 S
O473 Zn461 1.924 . S
O473 C481 1.273 1_556 S
O474 Zn465 1.977 1_554 S
O474 C480 1.272 . S
O475 Zn465 1.910 1_554 S
O475 C481 1.251 . S
C476 O460 1.225 . S
C476 O482 1.298 . S
C477 O466 1.226 . S
C477 O467 1.307 1_556 S
C478 O470 1.303 . S
C478 O471 1.247 . S
C479 O468 1.253 . S
C479 O469 1.283 . S
C480 O472 1.304 1_554 S
C480 O474 1.272 . S
C481 O473 1.273 1_554 S
C481 O475 1.251 . S
O482 Zn464 1.953 . S
O482 C476 1.298 . S
O483 Zn484 1.953 . S
O483 C499 1.225 . S
Zn484 O483 1.953 . S
Zn484 O485 1.949 . S
Zn484 O491 1.919 . S
Zn484 O496 1.924 . S
O485 Zn484 1.949 . S
O485 Zn486 1.923 . S
O485 Zn487 1.950 . S
O485 Zn488 1.945 . S
Zn486 O485 1.923 . S
Zn486 O489 1.933 . S
Zn486 O492 1.941 . S
Zn486 O493 1.965 . S
Zn487 O485 1.950 . S
Zn487 O494 1.938 . S
Zn487 O495 1.906 . S
Zn487 O505 1.953 . S
Zn488 O485 1.945 . S
Zn488 O490 1.932 1_554 S
Zn488 O497 1.977 1_554 S
Zn488 O498 1.910 1_554 S
O489 Zn486 1.933 . S
O489 C500 1.226 . S
O490 Zn488 1.932 1_556 S
O490 C500 1.307 1_556 S
O491 Zn484 1.919 . S
O491 C502 1.253 . S
O492 Zn486 1.941 . S
O492 C502 1.283 . S
O493 Zn486 1.965 . S
O493 C501 1.303 . S
O494 Zn487 1.938 . S
O494 C501 1.247 . S
O495 Zn487 1.906 . S
O495 C503 1.304 1_554 S
O496 Zn484 1.924 . S
O496 C504 1.273 1_554 S
O497 Zn488 1.977 1_556 S
O497 C503 1.272 . S
O498 Zn488 1.910 1_556 S
O498 C504 1.251 . S
C499 O483 1.225 . S
C499 O505 1.298 . S
C500 O489 1.226 . S
C500 O490 1.307 1_554 S
C501 O493 1.303 . S
C501 O494 1.247 . S
C502 O491 1.253 . S
C502 O492 1.283 . S
C503 O495 1.304 1_556 S
C503 O497 1.272 . S
C504 O496 1.273 1_556 S
C504 O498 1.251 . S
O505 Zn487 1.953 . S
O505 C499 1.298 . S
O506 Zn507 1.953 . S
O506 C522 1.225 . S
Zn507 O506 1.953 . S
Zn507 O508 1.949 . S
Zn507 O514 1.919 . S
Zn507 O519 1.924 . S
O508 Zn507 1.949 . S
O508 Zn509 1.923 . S
O508 Zn510 1.950 . S
O508 Zn511 1.945 . S
Zn509 O508 1.923 . S
Zn509 O512 1.933 . S
Zn509 O515 1.941 . S
Zn509 O516 1.965 . S
Zn510 O508 1.950 . S
Zn510 O517 1.938 . S
Zn510 O518 1.906 . S
Zn510 O528 1.953 . S
Zn511 O508 1.945 . S
Zn511 O513 1.932 . S
Zn511 O520 1.977 . S
Zn511 O521 1.910 . S
O512 Zn509 1.933 . S
O512 C523 1.226 . S
O513 Zn511 1.932 . S
O513 C523 1.307 . S
O514 Zn507 1.919 . S
O514 C525 1.253 . S
O515 Zn509 1.941 . S
O515 C525 1.283 . S
O516 Zn509 1.965 . S
O516 C524 1.303 . S
O517 Zn510 1.938 . S
O517 C524 1.247 . S
O518 Zn510 1.906 . S
O518 C526 1.304 . S
O519 Zn507 1.924 . S
O519 C527 1.311 . S
O520 Zn511 1.977 . S
O520 C526 1.272 . S
O521 Zn511 1.910 . S
O521 C527 1.231 . S
C522 O506 1.225 . S
C522 O528 1.298 . S
C523 O512 1.226 . S
C523 O513 1.307 . S
C524 O516 1.303 . S
C524 O517 1.247 . S
C525 O514 1.253 . S
C525 O515 1.283 . S
C526 O518 1.304 . S
C526 O520 1.272 . S
C527 O519 1.311 . S
C527 O521 1.231 . S
O528 Zn510 1.953 . S
O528 C522 1.298 . S
O529 Zn530 1.953 . S
O529 C545 1.225 . S
Zn530 O529 1.953 . S
Zn530 O531 1.949 . S
Zn530 O537 1.919 . S
Zn530 O542 1.924 . S
O531 Zn530 1.949 . S
O531 Zn532 1.923 . S
O531 Zn533 1.950 . S
O531 Zn534 1.945 . S
Zn532 O531 1.923 . S
Zn532 O535 1.933 . S
Zn532 O538 1.941 . S
Zn532 O539 1.965 . S
Zn533 O531 1.950 . S
Zn533 O540 1.938 . S
Zn533 O541 1.906 . S
Zn533 O551 1.953 . S
Zn534 O531 1.945 . S
Zn534 O536 1.932 . S
Zn534 O543 1.977 . S
Zn534 O544 1.910 . S
O535 Zn532 1.933 . S
O535 C546 1.226 . S
O536 Zn534 1.932 . S
O536 C546 1.307 . S
O537 Zn530 1.919 . S
O537 C548 1.253 . S
O538 Zn532 1.941 . S
O538 C548 1.283 . S
O539 Zn532 1.965 . S
O539 C547 1.303 . S
O540 Zn533 1.938 . S
O540 C547 1.247 . S
O541 Zn533 1.906 . S
O541 C549 1.304 . S
O542 Zn530 1.924 . S
O542 C550 1.311 . S
O543 Zn534 1.977 . S
O543 C549 1.272 . S
O544 Zn534 1.910 . S
O544 C550 1.231 . S
C545 O529 1.225 . S
C545 O551 1.298 . S
C546 O535 1.226 . S
C546 O536 1.307 . S
C547 O539 1.303 . S
C547 O540 1.247 . S
C548 O537 1.253 . S
C548 O538 1.283 . S
C549 O541 1.304 . S
C549 O543 1.272 . S
C550 O542 1.311 . S
C550 O544 1.231 . S
O551 Zn533 1.953 . S
O551 C545 1.298 . S
H552 C558 0.930 . S
H553 C562 0.930 . S
H554 C567 0.929 . S
H555 C565 0.929 . S
H556 C560 0.929 . S
H557 C566 0.929 . S
C558 H552 0.930 . S
C558 C559 1.367 . S
C558 C566 1.378 . S
C559 C558 1.367 . S
C559 C567 1.433 . S
C560 H556 0.929 . S
C560 C562 1.378 . S
C560 C564 1.350 . S
C561 C564 1.463 . S
C561 C566 1.350 . S
C561 N569 1.427 . S
C562 H553 0.930 . S
C562 C560 1.378 . S
C562 C563 1.367 . S
C563 C562 1.367 . S
C563 C565 1.433 . S
C564 C560 1.350 . S
C564 C561 1.463 . S
C564 N568 1.427 . S
C565 H555 0.929 . S
C565 C563 1.433 . S
C565 N568 1.384 . S
C566 H557 0.929 . S
C566 C558 1.378 . S
C566 C561 1.350 . S
C567 H554 0.929 . S
C567 C559 1.433 . S
C567 N569 1.384 . S
N568 C564 1.427 . S
N568 C565 1.384 . S
N569 C561 1.427 . S
N569 C567 1.384 . S
H570 C576 0.930 . S
H571 C580 0.930 . S
H572 C585 0.929 . S
H573 C583 0.929 . S
H574 C578 0.929 . S
H575 C584 0.929 . S
C576 H570 0.930 . S
C576 C577 1.367 . S
C576 C584 1.378 . S
C577 C576 1.367 . S
C577 C585 1.433 . S
C578 H574 0.929 . S
C578 C580 1.378 . S
C578 C582 1.350 . S
C579 C582 1.463 . S
C579 C584 1.350 . S
C579 N587 1.427 . S
C580 H571 0.930 . S
C580 C578 1.378 . S
C580 C581 1.367 . S
C581 C580 1.367 . S
C581 C583 1.433 . S
C582 C578 1.350 . S
C582 C579 1.463 . S
C582 N586 1.427 . S
C583 H573 0.929 . S
C583 C581 1.433 . S
C583 N586 1.384 . S
C584 H575 0.929 . S
C584 C576 1.378 . S
C584 C579 1.350 . S
C585 H572 0.929 . S
C585 C577 1.433 . S
C585 N587 1.384 . S
N586 C582 1.427 . S
N586 C583 1.384 . S
N587 C579 1.427 . S
N587 C585 1.384 . S
H588 C594 0.930 . S
H589 C598 0.930 1_565 S
H590 C603 0.929 . S
H591 C601 0.929 . S
H592 C596 0.929 . S
H593 C602 0.929 . S
C594 H588 0.930 . S
C594 C595 1.367 . S
C594 C602 1.378 . S
C595 C594 1.367 . S
C595 C603 1.433 . S
C596 H592 0.929 . S
C596 C598 1.378 . S
C596 C600 1.350 . S
C597 C600 1.463 . S
C597 C602 1.350 . S
C597 N605 1.427 . S
C598 H589 0.930 1_545 S
C598 C596 1.378 . S
C598 C599 1.367 . S
C599 C598 1.367 . S
C599 C601 1.433 . S
C600 C596 1.350 . S
C600 C597 1.463 . S
C600 N604 1.427 . S
C601 H591 0.929 . S
C601 C599 1.433 . S
C601 N604 1.384 . S
C602 H593 0.929 . S
C602 C594 1.378 . S
C602 C597 1.350 . S
C603 H590 0.929 . S
C603 C595 1.433 . S
C603 N605 1.384 . S
N604 C600 1.427 . S
N604 C601 1.384 . S
N605 C597 1.427 . S
N605 C603 1.384 . S
H606 C612 0.930 . S
H607 C616 0.930 1_545 S
H608 C621 0.929 . S
H609 C619 0.929 . S
H610 C614 0.929 . S
H611 C620 0.929 . S
C612 H606 0.930 . S
C612 C613 1.367 . S
C612 C620 1.378 . S
C613 C612 1.367 . S
C613 C621 1.433 . S
C614 H610 0.929 . S
C614 C616 1.378 . S
C614 C618 1.350 . S
C615 C618 1.463 . S
C615 C620 1.350 . S
C615 N623 1.427 . S
C616 H607 0.930 1_565 S
C616 C614 1.378 . S
C616 C617 1.367 . S
C617 C616 1.367 . S
C617 C619 1.433 . S
C618 C614 1.350 . S
C618 C615 1.463 . S
C618 N622 1.427 . S
C619 H609 0.929 . S
C619 C617 1.433 . S
C619 N622 1.384 . S
C620 H611 0.929 . S
C620 C612 1.378 . S
C620 C615 1.350 . S
C621 H608 0.929 . S
C621 C613 1.433 . S
C621 N623 1.384 . S
N622 C618 1.427 . S
N622 C619 1.384 . S
N623 C615 1.427 . S
N623 C621 1.384 . S
H624 C630 0.930 . S
H625 C634 0.930 . S
H626 C639 0.929 . S
H627 C637 0.929 . S
H628 C632 0.929 . S
H629 C638 0.929 . S
C630 H624 0.930 . S
C630 C631 1.367 . S
C630 C638 1.378 . S
C631 C630 1.367 . S
C631 C639 1.433 . S
C632 H628 0.929 . S
C632 C634 1.378 . S
C632 C636 1.350 . S
C633 C636 1.463 . S
C633 C638 1.350 . S
C633 N641 1.427 . S
C634 H625 0.930 . S
C634 C632 1.378 . S
C634 C635 1.367 . S
C635 C634 1.367 . S
C635 C637 1.433 . S
C636 C632 1.350 . S
C636 C633 1.463 . S
C636 N640 1.427 . S
C637 H627 0.929 . S
C637 C635 1.433 . S
C637 N640 1.384 . S
C638 H629 0.929 . S
C638 C630 1.378 . S
C638 C633 1.350 . S
C639 H626 0.929 . S
C639 C631 1.433 . S
C639 N641 1.384 . S
N640 C636 1.427 . S
N640 C637 1.384 . S
N641 C633 1.427 . S
N641 C639 1.384 . S
H642 C648 0.930 . S
H643 C652 0.930 . S
H644 C657 0.929 . S
H645 C655 0.929 1_554 S
H646 C650 0.929 . S
H647 C656 0.929 . S
C648 H642 0.930 . S
C648 C649 1.367 . S
C648 C656 1.378 . S
C649 C648 1.367 . S
C649 C657 1.433 . S
C650 H646 0.929 . S
C650 C652 1.378 . S
C650 C654 1.350 . S
C651 C654 1.463 . S
C651 C656 1.350 . S
C651 N659 1.427 . S
C652 H643 0.930 . S
C652 C650 1.378 . S
C652 C653 1.367 . S
C653 C652 1.367 . S
C653 C655 1.433 . S
C654 C650 1.350 . S
C654 C651 1.463 . S
C654 N658 1.427 . S
C655 H645 0.929 1_556 S
C655 C653 1.433 . S
C655 N658 1.384 . S
C656 H647 0.929 . S
C656 C648 1.378 . S
C656 C651 1.350 . S
C657 H644 0.929 . S
C657 C649 1.433 . S
C657 N659 1.384 . S
N658 C654 1.427 . S
N658 C655 1.384 . S
N659 C651 1.427 . S
N659 C657 1.384 . S
H660 C666 0.930 . S
H661 C670 0.930 . S
H662 C675 0.929 . S
H663 C673 0.929 . S
H664 C668 0.929 . S
H665 C674 0.929 . S
C666 H660 0.930 . S
C666 C667 1.367 . S
C666 C674 1.378 . S
C667 C666 1.367 . S
C667 C675 1.433 . S
C668 H664 0.929 . S
C668 C670 1.378 . S
C668 C672 1.350 . S
C669 C672 1.463 . S
C669 C674 1.350 . S
C669 N677 1.427 . S
C670 H661 0.930 . S
C670 C668 1.378 . S
C670 C671 1.367 . S
C671 C670 1.367 . S
C671 C673 1.433 . S
C672 C668 1.350 . S
C672 C669 1.463 . S
C672 N676 1.427 . S
C673 H663 0.929 . S
C673 C671 1.433 . S
C673 N676 1.384 . S
C674 H665 0.929 . S
C674 C666 1.378 . S
C674 C669 1.350 . S
C675 H662 0.929 . S
C675 C667 1.433 . S
C675 N677 1.384 . S
N676 C672 1.427 . S
N676 C673 1.384 . S
N677 C669 1.427 . S
N677 C675 1.384 . S
H678 C684 0.930 . S
H679 C688 0.930 . S
H680 C693 0.929 . S
H681 C691 0.929 1_556 S
H682 C686 0.929 . S
H683 C692 0.929 . S
C684 H678 0.930 . S
C684 C685 1.367 . S
C684 C692 1.378 . S
C685 C684 1.367 . S
C685 C693 1.433 . S
C686 H682 0.929 . S
C686 C688 1.378 . S
C686 C690 1.350 . S
C687 C690 1.463 . S
C687 C692 1.350 . S
C687 N695 1.427 . S
C688 H679 0.930 . S
C688 C686 1.378 . S
C688 C689 1.367 . S
C689 C688 1.367 . S
C689 C691 1.433 . S
C690 C686 1.350 . S
C690 C687 1.463 . S
C690 N694 1.427 . S
C691 H681 0.929 1_554 S
C691 C689 1.433 . S
C691 N694 1.384 . S
C692 H683 0.929 . S
C692 C684 1.378 . S
C692 C687 1.350 . S
C693 H680 0.929 . S
C693 C685 1.433 . S
C693 N695 1.384 . S
N694 C690 1.427 . S
N694 C691 1.384 . S
N695 C687 1.427 . S
N695 C693 1.384 . S
H696 C702 0.930 . S
H697 C706 0.930 . S
H698 C711 0.929 . S
H699 C709 0.929 . S
H700 C704 0.929 . S
H701 C710 0.929 . S
C702 H696 0.930 . S
C702 C703 1.367 . S
C702 C710 1.378 . S
C703 C702 1.367 . S
C703 C711 1.433 . S
C704 H700 0.929 . S
C704 C706 1.378 . S
C704 C708 1.350 . S
C705 C708 1.463 . S
C705 C710 1.350 . S
C705 N713 1.427 . S
C706 H697 0.930 . S
C706 C704 1.378 . S
C706 C707 1.367 . S
C707 C706 1.367 . S
C707 C709 1.433 . S
C708 C704 1.350 . S
C708 C705 1.463 . S
C708 N712 1.427 . S
C709 H699 0.929 . S
C709 C707 1.433 . S
C709 N712 1.384 . S
C710 H701 0.929 . S
C710 C702 1.378 . S
C710 C705 1.350 . S
C711 H698 0.929 . S
C711 C703 1.433 . S
C711 N713 1.384 . S
N712 C708 1.427 . S
N712 C709 1.384 . S
N713 C705 1.427 . S
N713 C711 1.384 . S
H714 C720 0.930 . S
H715 C724 0.930 1_455 S
H716 C729 0.929 . S
H717 C727 0.929 . S
H718 C722 0.929 . S
H719 C728 0.929 . S
C720 H714 0.930 . S
C720 C721 1.367 . S
C720 C728 1.378 . S
C721 C720 1.367 . S
C721 C729 1.433 . S
C722 H718 0.929 . S
C722 C724 1.378 . S
C722 C726 1.350 . S
C723 C726 1.463 . S
C723 C728 1.350 . S
C723 N731 1.427 . S
C724 H715 0.930 1_655 S
C724 C722 1.378 . S
C724 C725 1.367 . S
C725 C724 1.367 . S
C725 C727 1.433 . S
C726 C722 1.350 . S
C726 C723 1.463 . S
C726 N730 1.427 . S
C727 H717 0.929 . S
C727 C725 1.433 . S
C727 N730 1.384 . S
C728 H719 0.929 . S
C728 C720 1.378 . S
C728 C723 1.350 . S
C729 H716 0.929 . S
C729 C721 1.433 . S
C729 N731 1.384 . S
N730 C726 1.427 . S
N730 C727 1.384 . S
N731 C723 1.427 . S
N731 C729 1.384 . S
H732 C738 0.930 . S
H733 C742 0.930 . S
H734 C747 0.929 . S
H735 C745 0.929 . S
H736 C740 0.929 . S
H737 C746 0.929 . S
C738 H732 0.930 . S
C738 C739 1.367 . S
C738 C746 1.378 . S
C739 C738 1.367 . S
C739 C747 1.433 . S
C740 H736 0.929 . S
C740 C742 1.378 . S
C740 C744 1.350 . S
C741 C744 1.463 . S
C741 C746 1.350 . S
C741 N749 1.427 . S
C742 H733 0.930 . S
C742 C740 1.378 . S
C742 C743 1.367 . S
C743 C742 1.367 . S
C743 C745 1.433 . S
C744 C740 1.350 . S
C744 C741 1.463 . S
C744 N748 1.427 . S
C745 H735 0.929 . S
C745 C743 1.433 . S
C745 N748 1.384 . S
C746 H737 0.929 . S
C746 C738 1.378 . S
C746 C741 1.350 . S
C747 H734 0.929 . S
C747 C739 1.433 . S
C747 N749 1.384 . S
N748 C744 1.427 . S
N748 C745 1.384 . S
N749 C741 1.427 . S
N749 C747 1.384 . S
H750 C756 0.930 . S
H751 C760 0.930 . S
H752 C765 0.929 . S
H753 C763 0.929 . S
H754 C758 0.929 . S
H755 C764 0.929 . S
C756 H750 0.930 . S
C756 C757 1.367 . S
C756 C764 1.378 . S
C757 C756 1.367 . S
C757 C765 1.433 . S
C758 H754 0.929 . S
C758 C760 1.378 . S
C758 C762 1.350 . S
C759 C762 1.463 . S
C759 C764 1.350 . S
C759 N767 1.427 . S
C760 H751 0.930 . S
C760 C758 1.378 . S
C760 C761 1.367 . S
C761 C760 1.367 . S
C761 C763 1.433 . S
C762 C758 1.350 . S
C762 C759 1.463 . S
C762 N766 1.427 . S
C763 H753 0.929 . S
C763 C761 1.433 . S
C763 N766 1.384 . S
C764 H755 0.929 . S
C764 C756 1.378 . S
C764 C759 1.350 . S
C765 H752 0.929 . S
C765 C757 1.433 . S
C765 N767 1.384 . S
N766 C762 1.427 . S
N766 C763 1.384 . S
N767 C759 1.427 . S
N767 C765 1.384 . S
H768 C774 0.930 . S
H769 C778 0.930 . S
H770 C783 0.929 . S
H771 C781 0.929 . S
H772 C776 0.929 . S
H773 C782 0.929 . S
C774 H768 0.930 . S
C774 C775 1.367 . S
C774 C782 1.378 . S
C775 C774 1.367 . S
C775 C783 1.433 . S
C776 H772 0.929 . S
C776 C778 1.378 . S
C776 C780 1.350 . S
C777 C780 1.463 . S
C777 C782 1.350 . S
C777 N785 1.427 . S
C778 H769 0.930 . S
C778 C776 1.378 . S
C778 C779 1.367 . S
C779 C778 1.367 . S
C779 C781 1.433 . S
C780 C776 1.350 . S
C780 C777 1.463 . S
C780 N784 1.427 . S
C781 H771 0.929 . S
C781 C779 1.433 . S
C781 N784 1.384 . S
C782 H773 0.929 . S
C782 C774 1.378 . S
C782 C777 1.350 . S
C783 H770 0.929 . S
C783 C775 1.433 . S
C783 N785 1.384 . S
N784 C780 1.427 . S
N784 C781 1.384 . S
N785 C777 1.427 . S
N785 C783 1.384 . S
H786 C792 0.930 . S
H787 C796 0.930 . S
H788 C801 0.929 . S
H789 C799 0.929 . S
H790 C794 0.929 . S
H791 C800 0.929 . S
C792 H786 0.930 . S
C792 C793 1.367 . S
C792 C800 1.378 . S
C793 C792 1.367 . S
C793 C801 1.433 . S
C794 H790 0.929 . S
C794 C796 1.378 . S
C794 C798 1.350 . S
C795 C798 1.463 . S
C795 C800 1.350 . S
C795 N803 1.427 . S
C796 H787 0.930 . S
C796 C794 1.378 . S
C796 C797 1.367 . S
C797 C796 1.367 . S
C797 C799 1.433 . S
C798 C794 1.350 . S
C798 C795 1.463 . S
C798 N802 1.427 . S
C799 H789 0.929 . S
C799 C797 1.433 . S
C799 N802 1.384 . S
C800 H791 0.929 . S
C800 C792 1.378 . S
C800 C795 1.350 . S
C801 H788 0.929 . S
C801 C793 1.433 . S
C801 N803 1.384 . S
N802 C798 1.427 . S
N802 C799 1.384 . S
N803 C795 1.427 . S
N803 C801 1.384 . S
H804 C810 0.930 . S
H805 C814 0.930 1_545 S
H806 C819 0.929 . S
H807 C817 0.929 . S
H808 C812 0.929 . S
H809 C818 0.929 . S
C810 H804 0.930 . S
C810 C811 1.367 . S
C810 C818 1.378 . S
C811 C810 1.367 . S
C811 C819 1.433 . S
C812 H808 0.929 . S
C812 C814 1.378 . S
C812 C816 1.350 . S
C813 C816 1.463 . S
C813 C818 1.350 . S
C813 N821 1.427 . S
C814 H805 0.930 1_565 S
C814 C812 1.378 . S
C814 C815 1.367 . S
C815 C814 1.367 . S
C815 C817 1.433 . S
C816 C812 1.350 . S
C816 C813 1.463 . S
C816 N820 1.427 . S
C817 H807 0.929 . S
C817 C815 1.433 . S
C817 N820 1.384 . S
C818 H809 0.929 . S
C818 C810 1.378 . S
C818 C813 1.350 . S
C819 H806 0.929 . S
C819 C811 1.433 . S
C819 N821 1.384 . S
N820 C816 1.427 . S
N820 C817 1.384 . S
N821 C813 1.427 . S
N821 C819 1.384 . S
H822 C828 0.930 . S
H823 C832 0.930 . S
H824 C837 0.929 1_565 S
H825 C835 0.929 . S
H826 C830 0.929 . S
H827 C836 0.929 . S
C828 H822 0.930 . S
C828 C829 1.367 . S
C828 C836 1.378 . S
C829 C828 1.367 . S
C829 C837 1.433 . S
C830 H826 0.929 . S
C830 C832 1.378 . S
C830 C834 1.350 . S
C831 C834 1.463 . S
C831 C836 1.350 . S
C831 N839 1.427 . S
C832 H823 0.930 . S
C832 C830 1.378 . S
C832 C833 1.367 . S
C833 C832 1.367 . S
C833 C835 1.433 . S
C834 C830 1.350 . S
C834 C831 1.463 . S
C834 N838 1.427 . S
C835 H825 0.929 . S
C835 C833 1.433 . S
C835 N838 1.384 . S
C836 H827 0.929 . S
C836 C828 1.378 . S
C836 C831 1.350 . S
C837 H824 0.929 1_545 S
C837 C829 1.433 . S
C837 N839 1.384 . S
N838 C834 1.427 . S
N838 C835 1.384 . S
N839 C831 1.427 . S
N839 C837 1.384 . S
H840 C846 0.930 . S
H841 C850 0.930 . S
H842 C855 0.929 . S
H843 C853 0.929 . S
H844 C848 0.929 . S
H845 C854 0.929 . S
C846 H840 0.930 . S
C846 C847 1.367 . S
C846 C854 1.378 . S
C847 C846 1.367 . S
C847 C855 1.433 . S
C848 H844 0.929 . S
C848 C850 1.378 . S
C848 C852 1.350 . S
C849 C852 1.463 . S
C849 C854 1.350 . S
C849 N857 1.427 . S
C850 H841 0.930 . S
C850 C848 1.378 . S
C850 C851 1.367 . S
C851 C850 1.367 . S
C851 C853 1.433 . S
C852 C848 1.350 . S
C852 C849 1.463 . S
C852 N856 1.427 . S
C853 H843 0.929 . S
C853 C851 1.433 . S
C853 N856 1.384 . S
C854 H845 0.929 . S
C854 C846 1.378 . S
C854 C849 1.350 . S
C855 H842 0.929 . S
C855 C847 1.433 . S
C855 N857 1.384 . S
N856 C852 1.427 . S
N856 C853 1.384 . S
N857 C849 1.427 . S
N857 C855 1.384 . S
H858 C864 0.930 1_556 S
H859 C868 0.930 . S
H860 C873 0.929 . S
H861 C871 0.929 . S
H862 C866 0.929 . S
H863 C872 0.929 . S
C864 H858 0.930 1_554 S
C864 C865 1.367 . S
C864 C872 1.378 . S
C865 C864 1.367 . S
C865 C873 1.433 . S
C866 H862 0.929 . S
C866 C868 1.378 . S
C866 C870 1.350 . S
C867 C870 1.463 . S
C867 C872 1.350 . S
C867 N875 1.427 . S
C868 H859 0.930 . S
C868 C866 1.378 . S
C868 C869 1.367 . S
C869 C868 1.367 . S
C869 C871 1.433 . S
C870 C866 1.350 . S
C870 C867 1.463 . S
C870 N874 1.427 . S
C871 H861 0.929 . S
C871 C869 1.433 . S
C871 N874 1.384 . S
C872 H863 0.929 . S
C872 C864 1.378 . S
C872 C867 1.350 . S
C873 H860 0.929 . S
C873 C865 1.433 . S
C873 N875 1.384 . S
N874 C870 1.427 . S
N874 C871 1.384 . S
N875 C867 1.427 . S
N875 C873 1.384 . S
H876 C882 0.930 . S
H877 C886 0.930 . S
H878 C891 0.929 . S
H879 C889 0.929 . S
H880 C884 0.929 . S
H881 C890 0.929 . S
C882 H876 0.930 . S
C882 C883 1.367 . S
C882 C890 1.378 . S
C883 C882 1.367 . S
C883 C891 1.433 . S
C884 H880 0.929 . S
C884 C886 1.378 . S
C884 C888 1.350 . S
C885 C888 1.463 . S
C885 C890 1.350 . S
C885 N893 1.427 . S
C886 H877 0.930 . S
C886 C884 1.378 . S
C886 C887 1.367 . S
C887 C886 1.367 . S
C887 C889 1.433 . S
C888 C884 1.350 . S
C888 C885 1.463 . S
C888 N892 1.427 . S
C889 H879 0.929 . S
C889 C887 1.433 . S
C889 N892 1.384 . S
C890 H881 0.929 . S
C890 C882 1.378 . S
C890 C885 1.350 . S
C891 H878 0.929 . S
C891 C883 1.433 . S
C891 N893 1.384 . S
N892 C888 1.427 . S
N892 C889 1.384 . S
N893 C885 1.427 . S
N893 C891 1.384 . S
H894 C900 0.930 . S
H895 C904 0.930 . S
H896 C909 0.929 1_554 S
H897 C907 0.929 . S
H898 C902 0.929 . S
H899 C908 0.929 . S
C900 H894 0.930 . S
C900 C901 1.367 . S
C900 C908 1.378 . S
C901 C900 1.367 . S
C901 C909 1.433 . S
C902 H898 0.929 . S
C902 C904 1.378 . S
C902 C906 1.350 . S
C903 C906 1.463 . S
C903 C908 1.350 . S
C903 N911 1.427 . S
C904 H895 0.930 . S
C904 C902 1.378 . S
C904 C905 1.367 . S
C905 C904 1.367 . S
C905 C907 1.433 . S
C906 C902 1.350 . S
C906 C903 1.463 . S
C906 N910 1.427 . S
C907 H897 0.929 . S
C907 C905 1.433 . S
C907 N910 1.384 . S
C908 H899 0.929 . S
C908 C900 1.378 . S
C908 C903 1.350 . S
C909 H896 0.929 1_556 S
C909 C901 1.433 . S
C909 N911 1.384 . S
N910 C906 1.427 . S
N910 C907 1.384 . S
N911 C903 1.427 . S
N911 C909 1.384 . S
H912 C918 0.930 . S
H913 C922 0.930 . S
H914 C927 0.929 . S
H915 C925 0.929 . S
H916 C920 0.929 . S
H917 C926 0.929 . S
C918 H912 0.930 . S
C918 C919 1.367 . S
C918 C926 1.378 . S
C919 C918 1.367 . S
C919 C927 1.433 . S
C920 H916 0.929 . S
C920 C922 1.378 . S
C920 C924 1.350 . S
C921 C924 1.463 . S
C921 C926 1.350 . S
C921 N929 1.427 . S
C922 H913 0.930 . S
C922 C920 1.378 . S
C922 C923 1.367 . S
C923 C922 1.367 . S
C923 C925 1.433 . S
C924 C920 1.350 . S
C924 C921 1.463 . S
C924 N928 1.427 . S
C925 H915 0.929 . S
C925 C923 1.433 . S
C925 N928 1.384 . S
C926 H917 0.929 . S
C926 C918 1.378 . S
C926 C921 1.350 . S
C927 H914 0.929 . S
C927 C919 1.433 . S
C927 N929 1.384 . S
N928 C924 1.427 . S
N928 C925 1.384 . S
N929 C921 1.427 . S
N929 C927 1.384 . S
H930 C936 0.930 . S
H931 C940 0.930 . S
H932 C945 0.929 1_655 S
H933 C943 0.929 . S
H934 C938 0.929 . S
H935 C944 0.929 . S
C936 H930 0.930 . S
C936 C937 1.367 . S
C936 C944 1.378 . S
C937 C936 1.367 . S
C937 C945 1.433 . S
C938 H934 0.929 . S
C938 C940 1.378 . S
C938 C942 1.350 . S
C939 C942 1.463 . S
C939 C944 1.350 . S
C939 N947 1.427 . S
C940 H931 0.930 . S
C940 C938 1.378 . S
C940 C941 1.367 . S
C941 C940 1.367 . S
C941 C943 1.433 . S
C942 C938 1.350 . S
C942 C939 1.463 . S
C942 N946 1.427 . S
C943 H933 0.929 . S
C943 C941 1.433 . S
C943 N946 1.384 . S
C944 H935 0.929 . S
C944 C936 1.378 . S
C944 C939 1.350 . S
C945 H932 0.929 1_455 S
C945 C937 1.433 . S
C945 N947 1.384 . S
N946 C942 1.427 . S
N946 C943 1.384 . S
N947 C939 1.427 . S
N947 C945 1.384 . S
H948 C954 0.930 . S
H949 C958 0.930 . S
H950 C963 0.929 . S
H951 C961 0.929 . S
H952 C956 0.929 . S
H953 C962 0.929 . S
C954 H948 0.930 . S
C954 C955 1.367 . S
C954 C962 1.378 . S
C955 C954 1.367 . S
C955 C963 1.433 . S
C956 H952 0.929 . S
C956 C958 1.378 . S
C956 C960 1.350 . S
C957 C960 1.463 . S
C957 C962 1.350 . S
C957 N965 1.427 . S
C958 H949 0.930 . S
C958 C956 1.378 . S
C958 C959 1.367 . S
C959 C958 1.367 . S
C959 C961 1.433 . S
C960 C956 1.350 . S
C960 C957 1.463 . S
C960 N964 1.427 . S
C961 H951 0.929 . S
C961 C959 1.433 . S
C961 N964 1.384 . S
C962 H953 0.929 . S
C962 C954 1.378 . S
C962 C957 1.350 . S
C963 H950 0.929 . S
C963 C955 1.433 . S
C963 N965 1.384 . S
N964 C960 1.427 . S
N964 C961 1.384 . S
N965 C957 1.427 . S
N965 C963 1.384 . S
H966 C972 0.930 . S
H967 C976 0.930 1_455 S
H968 C981 0.929 . S
H969 C979 0.929 . S
H970 C974 0.929 . S
H971 C980 0.929 . S
C972 H966 0.930 . S
C972 C973 1.367 . S
C972 C980 1.378 . S
C973 C972 1.367 . S
C973 C981 1.433 . S
C974 H970 0.929 . S
C974 C976 1.378 . S
C974 C978 1.350 . S
C975 C978 1.463 . S
C975 C980 1.350 . S
C975 N983 1.427 . S
C976 H967 0.930 1_655 S
C976 C974 1.378 . S
C976 C977 1.367 . S
C977 C976 1.367 . S
C977 C979 1.433 . S
C978 C974 1.350 . S
C978 C975 1.463 . S
C978 N982 1.427 . S
C979 H969 0.929 . S
C979 C977 1.433 . S
C979 N982 1.384 . S
C980 H971 0.929 . S
C980 C972 1.378 . S
C980 C975 1.350 . S
C981 H968 0.929 . S
C981 C973 1.433 . S
C981 N983 1.384 . S
N982 C978 1.427 . S
N982 C979 1.384 . S
N983 C975 1.427 . S
N983 C981 1.384 . S
H984 C990 0.930 . S
H985 C994 0.930 . S
H986 C999 0.929 . S
H987 C997 0.929 . S
H988 C992 0.929 . S
H989 C998 0.929 . S
C990 H984 0.930 . S
C990 C991 1.367 . S
C990 C998 1.378 . S
C991 C990 1.367 . S
C991 C999 1.433 . S
C992 H988 0.929 . S
C992 C994 1.378 . S
C992 C996 1.350 . S
C993 C996 1.463 . S
C993 C998 1.350 . S
C993 N1001 1.427 . S
C994 H985 0.930 . S
C994 C992 1.378 . S
C994 C995 1.367 . S
C995 C994 1.367 . S
C995 C997 1.433 . S
C996 C992 1.350 . S
C996 C993 1.463 . S
C996 N1000 1.427 . S
C997 H987 0.929 . S
C997 C995 1.433 . S
C997 N1000 1.384 . S
C998 H989 0.929 . S
C998 C990 1.378 . S
C998 C993 1.350 . S
C999 H986 0.929 . S
C999 C991 1.433 . S
C999 N1001 1.384 . S
N1000 C996 1.427 . S
N1000 C997 1.384 . S
N1001 C993 1.427 . S
N1001 C999 1.384 . S
H1002 C1008 0.930 . S
H1003 C1012 0.930 . S
H1004 C1017 0.929 . S
H1005 C1015 0.929 . S
H1006 C1010 0.929 . S
H1007 C1016 0.929 . S
C1008 H1002 0.930 . S
C1008 C1009 1.367 . S
C1008 C1016 1.378 . S
C1009 C1008 1.367 . S
C1009 C1017 1.433 . S
C1010 H1006 0.929 . S
C1010 C1012 1.378 . S
C1010 C1014 1.350 . S
C1011 C1014 1.463 . S
C1011 C1016 1.350 . S
C1011 N1019 1.427 . S
C1012 H1003 0.930 . S
C1012 C1010 1.378 . S
C1012 C1013 1.367 . S
C1013 C1012 1.367 . S
C1013 C1015 1.433 . S
C1014 C1010 1.350 . S
C1014 C1011 1.463 . S
C1014 N1018 1.427 . S
C1015 H1005 0.929 . S
C1015 C1013 1.433 . S
C1015 N1018 1.384 . S
C1016 H1007 0.929 . S
C1016 C1008 1.378 . S
C1016 C1011 1.350 . S
C1017 H1004 0.929 . S
C1017 C1009 1.433 . S
C1017 N1019 1.384 . S
N1018 C1014 1.427 . S
N1018 C1015 1.384 . S
N1019 C1011 1.427 . S
N1019 C1017 1.384 . S
H1020 C1026 0.930 . S
H1021 C1030 0.930 . S
H1022 C1035 0.929 . S
H1023 C1033 0.929 . S
H1024 C1028 0.929 . S
H1025 C1034 0.929 . S
C1026 H1020 0.930 . S
C1026 C1027 1.367 . S
C1026 C1034 1.378 . S
C1027 C1026 1.367 . S
C1027 C1035 1.433 . S
C1028 H1024 0.929 . S
C1028 C1030 1.378 . S
C1028 C1032 1.350 . S
C1029 C1032 1.463 . S
C1029 C1034 1.350 . S
C1029 N1037 1.427 . S
C1030 H1021 0.930 . S
C1030 C1028 1.378 . S
C1030 C1031 1.367 . S
C1031 C1030 1.367 . S
C1031 C1033 1.433 . S
C1032 C1028 1.350 . S
C1032 C1029 1.463 . S
C1032 N1036 1.427 . S
C1033 H1023 0.929 . S
C1033 C1031 1.433 . S
C1033 N1036 1.384 . S
C1034 H1025 0.929 . S
C1034 C1026 1.378 . S
C1034 C1029 1.350 . S
C1035 H1022 0.929 . S
C1035 C1027 1.433 . S
C1035 N1037 1.384 . S
N1036 C1032 1.427 . S
N1036 C1033 1.384 . S
N1037 C1029 1.427 . S
N1037 C1035 1.384 . S
H1038 C1044 0.930 . S
H1039 C1048 0.930 . S
H1040 C1053 0.929 . S
H1041 C1051 0.929 . S
H1042 C1046 0.929 . S
H1043 C1052 0.929 . S
C1044 H1038 0.930 . S
C1044 C1045 1.367 . S
C1044 C1052 1.378 . S
C1045 C1044 1.367 . S
C1045 C1053 1.433 . S
C1046 H1042 0.929 . S
C1046 C1048 1.378 . S
C1046 C1050 1.350 . S
C1047 C1050 1.463 . S
C1047 C1052 1.350 . S
C1047 N1055 1.427 . S
C1048 H1039 0.930 . S
C1048 C1046 1.378 . S
C1048 C1049 1.367 . S
C1049 C1048 1.367 . S
C1049 C1051 1.433 . S
C1050 C1046 1.350 . S
C1050 C1047 1.463 . S
C1050 N1054 1.427 . S
C1051 H1041 0.929 . S
C1051 C1049 1.433 . S
C1051 N1054 1.384 . S
C1052 H1043 0.929 . S
C1052 C1044 1.378 . S
C1052 C1047 1.350 . S
C1053 H1040 0.929 . S
C1053 C1045 1.433 . S
C1053 N1055 1.384 . S
N1054 C1050 1.427 . S
N1054 C1051 1.384 . S
N1055 C1047 1.427 . S
N1055 C1053 1.384 . S
H1056 C1062 0.930 . S
H1057 C1066 0.930 . S
H1058 C1071 0.929 . S
H1059 C1069 0.929 . S
H1060 C1064 0.929 . S
H1061 C1070 0.929 . S
C1062 H1056 0.930 . S
C1062 C1063 1.367 . S
C1062 C1070 1.378 . S
C1063 C1062 1.367 . S
C1063 C1071 1.433 . S
C1064 H1060 0.929 . S
C1064 C1066 1.378 . S
C1064 C1068 1.350 . S
C1065 C1068 1.463 . S
C1065 C1070 1.350 . S
C1065 N1073 1.427 . S
C1066 H1057 0.930 . S
C1066 C1064 1.378 . S
C1066 C1067 1.367 . S
C1067 C1066 1.367 . S
C1067 C1069 1.433 . S
C1068 C1064 1.350 . S
C1068 C1065 1.463 . S
C1068 N1072 1.427 . S
C1069 H1059 0.929 . S
C1069 C1067 1.433 . S
C1069 N1072 1.384 . S
C1070 H1061 0.929 . S
C1070 C1062 1.378 . S
C1070 C1065 1.350 . S
C1071 H1058 0.929 . S
C1071 C1063 1.433 . S
C1071 N1073 1.384 . S
N1072 C1068 1.427 . S
N1072 C1069 1.384 . S
N1073 C1065 1.427 . S
N1073 C1071 1.384 . S
H1074 C1080 0.930 . S
H1075 C1084 0.930 . S
H1076 C1089 0.929 . S
H1077 C1087 0.929 . S
H1078 C1082 0.929 . S
H1079 C1088 0.929 . S
C1080 H1074 0.930 . S
C1080 C1081 1.367 . S
C1080 C1088 1.378 . S
C1081 C1080 1.367 . S
C1081 C1089 1.433 . S
C1082 H1078 0.929 . S
C1082 C1084 1.378 . S
C1082 C1086 1.350 . S
C1083 C1086 1.463 . S
C1083 C1088 1.350 . S
C1083 N1091 1.427 . S
C1084 H1075 0.930 . S
C1084 C1082 1.378 . S
C1084 C1085 1.367 . S
C1085 C1084 1.367 . S
C1085 C1087 1.433 . S
C1086 C1082 1.350 . S
C1086 C1083 1.463 . S
C1086 N1090 1.427 . S
C1087 H1077 0.929 . S
C1087 C1085 1.433 . S
C1087 N1090 1.384 . S
C1088 H1079 0.929 . S
C1088 C1080 1.378 . S
C1088 C1083 1.350 . S
C1089 H1076 0.929 . S
C1089 C1081 1.433 . S
C1089 N1091 1.384 . S
N1090 C1086 1.427 . S
N1090 C1087 1.384 . S
N1091 C1083 1.427 . S
N1091 C1089 1.384 . S
H1092 C1098 0.930 . S
H1093 C1102 0.930 . S
H1094 C1107 0.929 . S
H1095 C1105 0.929 . S
H1096 C1100 0.929 . S
H1097 C1106 0.929 . S
C1098 H1092 0.930 . S
C1098 C1099 1.367 . S
C1098 C1106 1.378 . S
C1099 C1098 1.367 . S
C1099 C1107 1.433 . S
C1100 H1096 0.929 . S
C1100 C1102 1.378 . S
C1100 C1104 1.350 . S
C1101 C1104 1.463 . S
C1101 C1106 1.350 . S
C1101 N1109 1.427 . S
C1102 H1093 0.930 . S
C1102 C1100 1.378 . S
C1102 C1103 1.367 . S
C1103 C1102 1.367 . S
C1103 C1105 1.433 . S
C1104 C1100 1.350 . S
C1104 C1101 1.463 . S
C1104 N1108 1.427 . S
C1105 H1095 0.929 . S
C1105 C1103 1.433 . S
C1105 N1108 1.384 . S
C1106 H1097 0.929 . S
C1106 C1098 1.378 . S
C1106 C1101 1.350 . S
C1107 H1094 0.929 . S
C1107 C1099 1.433 . S
C1107 N1109 1.384 . S
N1108 C1104 1.427 . S
N1108 C1105 1.384 . S
N1109 C1101 1.427 . S
N1109 C1107 1.384 . S
H1110 C1116 0.930 . S
H1111 C1120 0.930 . S
H1112 C1125 0.929 . S
H1113 C1123 0.929 . S
H1114 C1118 0.929 . S
H1115 C1124 0.929 . S
C1116 H1110 0.930 . S
C1116 C1117 1.367 . S
C1116 C1124 1.378 . S
C1117 C1116 1.367 . S
C1117 C1125 1.433 . S
C1118 H1114 0.929 . S
C1118 C1120 1.378 . S
C1118 C1122 1.350 . S
C1119 C1122 1.463 . S
C1119 C1124 1.350 . S
C1119 N1127 1.427 . S
C1120 H1111 0.930 . S
C1120 C1118 1.378 . S
C1120 C1121 1.367 . S
C1121 C1120 1.367 . S
C1121 C1123 1.433 . S
C1122 C1118 1.350 . S
C1122 C1119 1.463 . S
C1122 N1126 1.427 . S
C1123 H1113 0.929 . S
C1123 C1121 1.433 . S
C1123 N1126 1.384 . S
C1124 H1115 0.929 . S
C1124 C1116 1.378 . S
C1124 C1119 1.350 . S
C1125 H1112 0.929 . S
C1125 C1117 1.433 . S
C1125 N1127 1.384 . S
N1126 C1122 1.427 . S
N1126 C1123 1.384 . S
N1127 C1119 1.427 . S
N1127 C1125 1.384 . S
H1128 C1134 0.930 . S
H1129 C1138 0.930 . S
H1130 C1143 0.929 . S
H1131 C1141 0.929 . S
H1132 C1136 0.929 . S
H1133 C1142 0.929 . S
C1134 H1128 0.930 . S
C1134 C1135 1.367 . S
C1134 C1142 1.378 . S
C1135 C1134 1.367 . S
C1135 C1143 1.433 . S
C1136 H1132 0.929 . S
C1136 C1138 1.378 . S
C1136 C1140 1.350 . S
C1137 C1140 1.463 . S
C1137 C1142 1.350 . S
C1137 N1145 1.427 . S
C1138 H1129 0.930 . S
C1138 C1136 1.378 . S
C1138 C1139 1.367 . S
C1139 C1138 1.367 . S
C1139 C1141 1.433 . S
C1140 C1136 1.350 . S
C1140 C1137 1.463 . S
C1140 N1144 1.427 . S
C1141 H1131 0.929 . S
C1141 C1139 1.433 . S
C1141 N1144 1.384 . S
C1142 H1133 0.929 . S
C1142 C1134 1.378 . S
C1142 C1137 1.350 . S
C1143 H1130 0.929 . S
C1143 C1135 1.433 . S
C1143 N1145 1.384 . S
N1144 C1140 1.427 . S
N1144 C1141 1.384 . S
N1145 C1137 1.427 . S
N1145 C1143 1.384 . S
H1146 C1152 0.930 . S
H1147 C1156 0.930 . S
H1148 C1161 0.929 . S
H1149 C1159 0.929 . S
H1150 C1154 0.929 . S
H1151 C1160 0.929 . S
C1152 H1146 0.930 . S
C1152 C1153 1.367 . S
C1152 C1160 1.378 . S
C1153 C1152 1.367 . S
C1153 C1161 1.433 . S
C1154 H1150 0.929 . S
C1154 C1156 1.378 . S
C1154 C1158 1.350 . S
C1155 C1158 1.463 . S
C1155 C1160 1.350 . S
C1155 N1163 1.427 . S
C1156 H1147 0.930 . S
C1156 C1154 1.378 . S
C1156 C1157 1.367 . S
C1157 C1156 1.367 . S
C1157 C1159 1.433 . S
C1158 C1154 1.350 . S
C1158 C1155 1.463 . S
C1158 N1162 1.427 . S
C1159 H1149 0.929 . S
C1159 C1157 1.433 . S
C1159 N1162 1.384 . S
C1160 H1151 0.929 . S
C1160 C1152 1.378 . S
C1160 C1155 1.350 . S
C1161 H1148 0.929 . S
C1161 C1153 1.433 . S
C1161 N1163 1.384 . S
N1162 C1158 1.427 . S
N1162 C1159 1.384 . S
N1163 C1155 1.427 . S
N1163 C1161 1.384 . S
H1164 C1170 0.930 . S
H1165 C1174 0.930 . S
H1166 C1179 0.929 . S
H1167 C1177 0.929 . S
H1168 C1172 0.929 . S
H1169 C1178 0.929 . S
C1170 H1164 0.930 . S
C1170 C1171 1.367 . S
C1170 C1178 1.378 . S
C1171 C1170 1.367 . S
C1171 C1179 1.433 . S
C1172 H1168 0.929 . S
C1172 C1174 1.378 . S
C1172 C1176 1.350 . S
C1173 C1176 1.463 . S
C1173 C1178 1.350 . S
C1173 N1181 1.427 . S
C1174 H1165 0.930 . S
C1174 C1172 1.378 . S
C1174 C1175 1.367 . S
C1175 C1174 1.367 . S
C1175 C1177 1.433 . S
C1176 C1172 1.350 . S
C1176 C1173 1.463 . S
C1176 N1180 1.427 . S
C1177 H1167 0.929 . S
C1177 C1175 1.433 . S
C1177 N1180 1.384 . S
C1178 H1169 0.929 . S
C1178 C1170 1.378 . S
C1178 C1173 1.350 . S
C1179 H1166 0.929 . S
C1179 C1171 1.433 . S
C1179 N1181 1.384 . S
N1180 C1176 1.427 . S
N1180 C1177 1.384 . S
N1181 C1173 1.427 . S
N1181 C1179 1.384 . S
H1182 C1188 0.930 . S
H1183 C1192 0.930 . S
H1184 C1197 0.929 . S
H1185 C1195 0.929 . S
H1186 C1190 0.929 . S
H1187 C1196 0.929 . S
C1188 H1182 0.930 . S
C1188 C1189 1.367 . S
C1188 C1196 1.378 . S
C1189 C1188 1.367 . S
C1189 C1197 1.433 . S
C1190 H1186 0.929 . S
C1190 C1192 1.378 . S
C1190 C1194 1.350 . S
C1191 C1194 1.463 . S
C1191 C1196 1.350 . S
C1191 N1199 1.427 . S
C1192 H1183 0.930 . S
C1192 C1190 1.378 . S
C1192 C1193 1.367 . S
C1193 C1192 1.367 . S
C1193 C1195 1.433 . S
C1194 C1190 1.350 . S
C1194 C1191 1.463 . S
C1194 N1198 1.427 . S
C1195 H1185 0.929 . S
C1195 C1193 1.433 . S
C1195 N1198 1.384 . S
C1196 H1187 0.929 . S
C1196 C1188 1.378 . S
C1196 C1191 1.350 . S
C1197 H1184 0.929 . S
C1197 C1189 1.433 . S
C1197 N1199 1.384 . S
N1198 C1194 1.427 . S
N1198 C1195 1.384 . S
N1199 C1191 1.427 . S
N1199 C1197 1.384 . S
H1200 C1206 0.930 . S
H1201 C1210 0.930 . S
H1202 C1215 0.929 . S
H1203 C1213 0.929 . S
H1204 C1208 0.929 . S
H1205 C1214 0.929 . S
C1206 H1200 0.930 . S
C1206 C1207 1.367 . S
C1206 C1214 1.378 . S
C1207 C1206 1.367 . S
C1207 C1215 1.433 . S
C1208 H1204 0.929 . S
C1208 C1210 1.378 . S
C1208 C1212 1.350 . S
C1209 C1212 1.463 . S
C1209 C1214 1.350 . S
C1209 N1217 1.427 . S
C1210 H1201 0.930 . S
C1210 C1208 1.378 . S
C1210 C1211 1.367 . S
C1211 C1210 1.367 . S
C1211 C1213 1.433 . S
C1212 C1208 1.350 . S
C1212 C1209 1.463 . S
C1212 N1216 1.427 . S
C1213 H1203 0.929 . S
C1213 C1211 1.433 . S
C1213 N1216 1.384 . S
C1214 H1205 0.929 . S
C1214 C1206 1.378 . S
C1214 C1209 1.350 . S
C1215 H1202 0.929 . S
C1215 C1207 1.433 . S
C1215 N1217 1.384 . S
N1216 C1212 1.427 . S
N1216 C1213 1.384 . S
N1217 C1209 1.427 . S
N1217 C1215 1.384 . S
H1218 C1224 0.930 . S
H1219 C1228 0.930 . S
H1220 C1233 0.929 . S
H1221 C1231 0.929 . S
H1222 C1226 0.929 . S
H1223 C1232 0.929 . S
C1224 H1218 0.930 . S
C1224 C1225 1.367 . S
C1224 C1232 1.378 . S
C1225 C1224 1.367 . S
C1225 C1233 1.433 . S
C1226 H1222 0.929 . S
C1226 C1228 1.378 . S
C1226 C1230 1.350 . S
C1227 C1230 1.463 . S
C1227 C1232 1.350 . S
C1227 N1235 1.427 . S
C1228 H1219 0.930 . S
C1228 C1226 1.378 . S
C1228 C1229 1.367 . S
C1229 C1228 1.367 . S
C1229 C1231 1.433 . S
C1230 C1226 1.350 . S
C1230 C1227 1.463 . S
C1230 N1234 1.427 . S
C1231 H1221 0.929 . S
C1231 C1229 1.433 . S
C1231 N1234 1.384 . S
C1232 H1223 0.929 . S
C1232 C1224 1.378 . S
C1232 C1227 1.350 . S
C1233 H1220 0.929 . S
C1233 C1225 1.433 . S
C1233 N1235 1.384 . S
N1234 C1230 1.427 . S
N1234 C1231 1.384 . S
N1235 C1227 1.427 . S
N1235 C1233 1.384 . S
H1236 C1242 0.930 . S
H1237 C1246 0.930 . S
H1238 C1251 0.929 . S
H1239 C1249 0.929 . S
H1240 C1244 0.929 . S
H1241 C1250 0.929 . S
C1242 H1236 0.930 . S
C1242 C1243 1.367 . S
C1242 C1250 1.378 . S
C1243 C1242 1.367 . S
C1243 C1251 1.433 . S
C1244 H1240 0.929 . S
C1244 C1246 1.378 . S
C1244 C1248 1.350 . S
C1245 C1248 1.463 . S
C1245 C1250 1.350 . S
C1245 N1253 1.427 . S
C1246 H1237 0.930 . S
C1246 C1244 1.378 . S
C1246 C1247 1.367 . S
C1247 C1246 1.367 . S
C1247 C1249 1.433 . S
C1248 C1244 1.350 . S
C1248 C1245 1.463 . S
C1248 N1252 1.427 . S
C1249 H1239 0.929 . S
C1249 C1247 1.433 . S
C1249 N1252 1.384 . S
C1250 H1241 0.929 . S
C1250 C1242 1.378 . S
C1250 C1245 1.350 . S
C1251 H1238 0.929 . S
C1251 C1243 1.433 . S
C1251 N1253 1.384 . S
N1252 C1248 1.427 . S
N1252 C1249 1.384 . S
N1253 C1245 1.427 . S
N1253 C1251 1.384 . S
H1254 C1260 0.930 . S
H1255 C1264 0.930 . S
H1256 C1269 0.929 . S
H1257 C1267 0.929 . S
H1258 C1262 0.929 . S
H1259 C1268 0.929 . S
C1260 H1254 0.930 . S
C1260 C1261 1.367 . S
C1260 C1268 1.378 . S
C1261 C1260 1.367 . S
C1261 C1269 1.433 . S
C1262 H1258 0.929 . S
C1262 C1264 1.378 . S
C1262 C1266 1.350 . S
C1263 C1266 1.463 . S
C1263 C1268 1.350 . S
C1263 N1271 1.427 . S
C1264 H1255 0.930 . S
C1264 C1262 1.378 . S
C1264 C1265 1.367 . S
C1265 C1264 1.367 . S
C1265 C1267 1.433 . S
C1266 C1262 1.350 . S
C1266 C1263 1.463 . S
C1266 N1270 1.427 . S
C1267 H1257 0.929 . S
C1267 C1265 1.433 . S
C1267 N1270 1.384 . S
C1268 H1259 0.929 . S
C1268 C1260 1.378 . S
C1268 C1263 1.350 . S
C1269 H1256 0.929 . S
C1269 C1261 1.433 . S
C1269 N1271 1.384 . S
N1270 C1266 1.427 . S
N1270 C1267 1.384 . S
N1271 C1263 1.427 . S
N1271 C1269 1.384 . S
H1272 C1278 0.930 . S
H1273 C1282 0.930 . S
H1274 C1287 0.929 . S
H1275 C1285 0.929 . S
H1276 C1280 0.929 . S
H1277 C1286 0.929 . S
C1278 H1272 0.930 . S
C1278 C1279 1.367 . S
C1278 C1286 1.378 . S
C1279 C1278 1.367 . S
C1279 C1287 1.433 . S
C1280 H1276 0.929 . S
C1280 C1282 1.378 . S
C1280 C1284 1.350 . S
C1281 C1284 1.463 . S
C1281 C1286 1.350 . S
C1281 N1289 1.427 . S
C1282 H1273 0.930 . S
C1282 C1280 1.378 . S
C1282 C1283 1.367 . S
C1283 C1282 1.367 . S
C1283 C1285 1.433 . S
C1284 C1280 1.350 . S
C1284 C1281 1.463 . S
C1284 N1288 1.427 . S
C1285 H1275 0.929 . S
C1285 C1283 1.433 . S
C1285 N1288 1.384 . S
C1286 H1277 0.929 . S
C1286 C1278 1.378 . S
C1286 C1281 1.350 . S
C1287 H1274 0.929 . S
C1287 C1279 1.433 . S
C1287 N1289 1.384 . S
N1288 C1284 1.427 . S
N1288 C1285 1.384 . S
N1289 C1281 1.427 . S
N1289 C1287 1.384 . S
H1290 C1296 0.930 . S
H1291 C1300 0.930 . S
H1292 C1305 0.929 . S
H1293 C1303 0.929 . S
H1294 C1298 0.929 . S
H1295 C1304 0.929 . S
C1296 H1290 0.930 . S
C1296 C1297 1.367 . S
C1296 C1304 1.378 . S
C1297 C1296 1.367 . S
C1297 C1305 1.433 . S
C1298 H1294 0.929 . S
C1298 C1300 1.378 . S
C1298 C1302 1.350 . S
C1299 C1302 1.463 . S
C1299 C1304 1.350 . S
C1299 N1307 1.427 . S
C1300 H1291 0.930 . S
C1300 C1298 1.378 . S
C1300 C1301 1.367 . S
C1301 C1300 1.367 . S
C1301 C1303 1.433 . S
C1302 C1298 1.350 . S
C1302 C1299 1.463 . S
C1302 N1306 1.427 . S
C1303 H1293 0.929 . S
C1303 C1301 1.433 . S
C1303 N1306 1.384 . S
C1304 H1295 0.929 . S
C1304 C1296 1.378 . S
C1304 C1299 1.350 . S
C1305 H1292 0.929 . S
C1305 C1297 1.433 . S
C1305 N1307 1.384 . S
N1306 C1302 1.427 . S
N1306 C1303 1.384 . S
N1307 C1299 1.427 . S
N1307 C1305 1.384 . S
H1308 C1314 0.930 . S
H1309 C1318 0.930 . S
H1310 C1323 0.929 . S
H1311 C1321 0.929 . S
H1312 C1316 0.929 . S
H1313 C1322 0.929 . S
C1314 H1308 0.930 . S
C1314 C1315 1.367 . S
C1314 C1322 1.378 . S
C1315 C1314 1.367 . S
C1315 C1323 1.433 . S
C1316 H1312 0.929 . S
C1316 C1318 1.378 . S
C1316 C1320 1.350 . S
C1317 C1320 1.463 . S
C1317 C1322 1.350 . S
C1317 N1325 1.427 . S
C1318 H1309 0.930 . S
C1318 C1316 1.378 . S
C1318 C1319 1.367 . S
C1319 C1318 1.367 . S
C1319 C1321 1.433 . S
C1320 C1316 1.350 . S
C1320 C1317 1.463 . S
C1320 N1324 1.427 . S
C1321 H1311 0.929 . S
C1321 C1319 1.433 . S
C1321 N1324 1.384 . S
C1322 H1313 0.929 . S
C1322 C1314 1.378 . S
C1322 C1317 1.350 . S
C1323 H1310 0.929 . S
C1323 C1315 1.433 . S
C1323 N1325 1.384 . S
N1324 C1320 1.427 . S
N1324 C1321 1.384 . S
N1325 C1317 1.427 . S
N1325 C1323 1.384 . S
H1326 C1332 0.930 . S
H1327 C1336 0.930 . S
H1328 C1341 0.929 . S
H1329 C1339 0.929 . S
H1330 C1334 0.929 . S
H1331 C1340 0.929 . S
C1332 H1326 0.930 . S
C1332 C1333 1.367 . S
C1332 C1340 1.378 . S
C1333 C1332 1.367 . S
C1333 C1341 1.433 . S
C1334 H1330 0.929 . S
C1334 C1336 1.378 . S
C1334 C1338 1.350 . S
C1335 C1338 1.463 . S
C1335 C1340 1.350 . S
C1335 N1343 1.427 . S
C1336 H1327 0.930 . S
C1336 C1334 1.378 . S
C1336 C1337 1.367 . S
C1337 C1336 1.367 . S
C1337 C1339 1.433 . S
C1338 C1334 1.350 . S
C1338 C1335 1.463 . S
C1338 N1342 1.427 . S
C1339 H1329 0.929 . S
C1339 C1337 1.433 . S
C1339 N1342 1.384 . S
C1340 H1331 0.929 . S
C1340 C1332 1.378 . S
C1340 C1335 1.350 . S
C1341 H1328 0.929 . S
C1341 C1333 1.433 . S
C1341 N1343 1.384 . S
N1342 C1338 1.427 . S
N1342 C1339 1.384 . S
N1343 C1335 1.427 . S
N1343 C1341 1.384 . S
H1344 C1350 0.930 . S
H1345 C1354 0.930 . S
H1346 C1359 0.929 . S
H1347 C1357 0.929 . S
H1348 C1352 0.929 . S
H1349 C1358 0.929 . S
C1350 H1344 0.930 . S
C1350 C1351 1.367 . S
C1350 C1358 1.378 . S
C1351 C1350 1.367 . S
C1351 C1359 1.433 . S
C1352 H1348 0.929 . S
C1352 C1354 1.378 . S
C1352 C1356 1.350 . S
C1353 C1356 1.463 . S
C1353 C1358 1.350 . S
C1353 N1361 1.427 . S
C1354 H1345 0.930 . S
C1354 C1352 1.378 . S
C1354 C1355 1.367 . S
C1355 C1354 1.367 . S
C1355 C1357 1.433 . S
C1356 C1352 1.350 . S
C1356 C1353 1.463 . S
C1356 N1360 1.427 . S
C1357 H1347 0.929 . S
C1357 C1355 1.433 . S
C1357 N1360 1.384 . S
C1358 H1349 0.929 . S
C1358 C1350 1.378 . S
C1358 C1353 1.350 . S
C1359 H1346 0.929 . S
C1359 C1351 1.433 . S
C1359 N1361 1.384 . S
N1360 C1356 1.427 . S
N1360 C1357 1.384 . S
N1361 C1353 1.427 . S
N1361 C1359 1.384 . S
H1362 C1368 0.930 . S
H1363 C1372 0.930 . S
H1364 C1377 0.929 . S
H1365 C1375 0.929 . S
H1366 C1370 0.929 . S
H1367 C1376 0.929 . S
C1368 H1362 0.930 . S
C1368 C1369 1.367 . S
C1368 C1376 1.378 . S
C1369 C1368 1.367 . S
C1369 C1377 1.433 . S
C1370 H1366 0.929 . S
C1370 C1372 1.378 . S
C1370 C1374 1.350 . S
C1371 C1374 1.463 . S
C1371 C1376 1.350 . S
C1371 N1379 1.427 . S
C1372 H1363 0.930 . S
C1372 C1370 1.378 . S
C1372 C1373 1.367 . S
C1373 C1372 1.367 . S
C1373 C1375 1.433 . S
C1374 C1370 1.350 . S
C1374 C1371 1.463 . S
C1374 N1378 1.427 . S
C1375 H1365 0.929 . S
C1375 C1373 1.433 . S
C1375 N1378 1.384 . S
C1376 H1367 0.929 . S
C1376 C1368 1.378 . S
C1376 C1371 1.350 . S
C1377 H1364 0.929 . S
C1377 C1369 1.433 . S
C1377 N1379 1.384 . S
N1378 C1374 1.427 . S
N1378 C1375 1.384 . S
N1379 C1371 1.427 . S
N1379 C1377 1.384 . S
H1380 C1386 0.930 . S
H1381 C1390 0.930 . S
H1382 C1395 0.929 . S
H1383 C1393 0.929 . S
H1384 C1388 0.929 . S
H1385 C1394 0.929 . S
C1386 H1380 0.930 . S
C1386 C1387 1.367 . S
C1386 C1394 1.378 . S
C1387 C1386 1.367 . S
C1387 C1395 1.433 . S
C1388 H1384 0.929 . S
C1388 C1390 1.378 . S
C1388 C1392 1.350 . S
C1389 C1392 1.463 . S
C1389 C1394 1.350 . S
C1389 N1397 1.427 . S
C1390 H1381 0.930 . S
C1390 C1388 1.378 . S
C1390 C1391 1.367 . S
C1391 C1390 1.367 . S
C1391 C1393 1.433 . S
C1392 C1388 1.350 . S
C1392 C1389 1.463 . S
C1392 N1396 1.427 . S
C1393 H1383 0.929 . S
C1393 C1391 1.433 . S
C1393 N1396 1.384 . S
C1394 H1385 0.929 . S
C1394 C1386 1.378 . S
C1394 C1389 1.350 . S
C1395 H1382 0.929 . S
C1395 C1387 1.433 . S
C1395 N1397 1.384 . S
N1396 C1392 1.427 . S
N1396 C1393 1.384 . S
N1397 C1389 1.427 . S
N1397 C1395 1.384 . S
H1398 C1404 0.930 . S
H1399 C1408 0.930 . S
H1400 C1413 0.929 . S
H1401 C1411 0.929 . S
H1402 C1406 0.929 . S
H1403 C1412 0.929 . S
C1404 H1398 0.930 . S
C1404 C1405 1.367 . S
C1404 C1412 1.378 . S
C1405 C1404 1.367 . S
C1405 C1413 1.433 . S
C1406 H1402 0.929 . S
C1406 C1408 1.378 . S
C1406 C1410 1.350 . S
C1407 C1410 1.463 . S
C1407 C1412 1.350 . S
C1407 N1415 1.427 . S
C1408 H1399 0.930 . S
C1408 C1406 1.378 . S
C1408 C1409 1.367 . S
C1409 C1408 1.367 . S
C1409 C1411 1.433 . S
C1410 C1406 1.350 . S
C1410 C1407 1.463 . S
C1410 N1414 1.427 . S
C1411 H1401 0.929 . S
C1411 C1409 1.433 . S
C1411 N1414 1.384 . S
C1412 H1403 0.929 . S
C1412 C1404 1.378 . S
C1412 C1407 1.350 . S
C1413 H1400 0.929 . S
C1413 C1405 1.433 . S
C1413 N1415 1.384 . S
N1414 C1410 1.427 . S
N1414 C1411 1.384 . S
N1415 C1407 1.427 . S
N1415 C1413 1.384 . S
H1416 C1422 0.930 . S
H1417 C1426 0.930 . S
H1418 C1431 0.929 . S
H1419 C1429 0.929 . S
H1420 C1424 0.929 . S
H1421 C1430 0.929 . S
C1422 H1416 0.930 . S
C1422 C1423 1.367 . S
C1422 C1430 1.378 . S
C1423 C1422 1.367 . S
C1423 C1431 1.433 . S
C1424 H1420 0.929 . S
C1424 C1426 1.378 . S
C1424 C1428 1.350 . S
C1425 C1428 1.463 . S
C1425 C1430 1.350 . S
C1425 N1433 1.427 . S
C1426 H1417 0.930 . S
C1426 C1424 1.378 . S
C1426 C1427 1.367 . S
C1427 C1426 1.367 . S
C1427 C1429 1.433 . S
C1428 C1424 1.350 . S
C1428 C1425 1.463 . S
C1428 N1432 1.427 . S
C1429 H1419 0.929 . S
C1429 C1427 1.433 . S
C1429 N1432 1.384 . S
C1430 H1421 0.929 . S
C1430 C1422 1.378 . S
C1430 C1425 1.350 . S
C1431 H1418 0.929 . S
C1431 C1423 1.433 . S
C1431 N1433 1.384 . S
N1432 C1428 1.427 . S
N1432 C1429 1.384 . S
N1433 C1425 1.427 . S
N1433 C1431 1.384 . S
H1434 C1440 0.930 . S
H1435 C1444 0.930 . S
H1436 C1449 0.929 . S
H1437 C1447 0.929 . S
H1438 C1442 0.929 . S
H1439 C1448 0.929 . S
C1440 H1434 0.930 . S
C1440 C1441 1.367 . S
C1440 C1448 1.378 . S
C1441 C1440 1.367 . S
C1441 C1449 1.433 . S
C1442 H1438 0.929 . S
C1442 C1444 1.378 . S
C1442 C1446 1.350 . S
C1443 C1446 1.463 . S
C1443 C1448 1.350 . S
C1443 N1451 1.427 . S
C1444 H1435 0.930 . S
C1444 C1442 1.378 . S
C1444 C1445 1.367 . S
C1445 C1444 1.367 . S
C1445 C1447 1.433 . S
C1446 C1442 1.350 . S
C1446 C1443 1.463 . S
C1446 N1450 1.427 . S
C1447 H1437 0.929 . S
C1447 C1445 1.433 . S
C1447 N1450 1.384 . S
C1448 H1439 0.929 . S
C1448 C1440 1.378 . S
C1448 C1443 1.350 . S
C1449 H1436 0.929 . S
C1449 C1441 1.433 . S
C1449 N1451 1.384 . S
N1450 C1446 1.427 . S
N1450 C1447 1.384 . S
N1451 C1443 1.427 . S
N1451 C1449 1.384 . S
H1452 C1458 0.930 . S
H1453 C1462 0.930 . S
H1454 C1467 0.929 . S
H1455 C1465 0.929 . S
H1456 C1460 0.929 . S
H1457 C1466 0.929 . S
C1458 H1452 0.930 . S
C1458 C1459 1.367 . S
C1458 C1466 1.378 . S
C1459 C1458 1.367 . S
C1459 C1467 1.433 . S
C1460 H1456 0.929 . S
C1460 C1462 1.378 . S
C1460 C1464 1.350 . S
C1461 C1464 1.463 . S
C1461 C1466 1.350 . S
C1461 N1469 1.427 . S
C1462 H1453 0.930 . S
C1462 C1460 1.378 . S
C1462 C1463 1.367 . S
C1463 C1462 1.367 . S
C1463 C1465 1.433 . S
C1464 C1460 1.350 . S
C1464 C1461 1.463 . S
C1464 N1468 1.427 . S
C1465 H1455 0.929 . S
C1465 C1463 1.433 . S
C1465 N1468 1.384 . S
C1466 H1457 0.929 . S
C1466 C1458 1.378 . S
C1466 C1461 1.350 . S
C1467 H1454 0.929 . S
C1467 C1459 1.433 . S
C1467 N1469 1.384 . S
N1468 C1464 1.427 . S
N1468 C1465 1.384 . S
N1469 C1461 1.427 . S
N1469 C1467 1.384 . S
H1470 C1476 0.930 . S
H1471 C1480 0.930 . S
H1472 C1485 0.929 . S
H1473 C1483 0.929 . S
H1474 C1478 0.929 . S
H1475 C1484 0.929 . S
C1476 H1470 0.930 . S
C1476 C1477 1.367 . S
C1476 C1484 1.378 . S
C1477 C1476 1.367 . S
C1477 C1485 1.433 . S
C1478 H1474 0.929 . S
C1478 C1480 1.378 . S
C1478 C1482 1.350 . S
C1479 C1482 1.463 . S
C1479 C1484 1.350 . S
C1479 N1487 1.427 . S
C1480 H1471 0.930 . S
C1480 C1478 1.378 . S
C1480 C1481 1.367 . S
C1481 C1480 1.367 . S
C1481 C1483 1.433 . S
C1482 C1478 1.350 . S
C1482 C1479 1.463 . S
C1482 N1486 1.427 . S
C1483 H1473 0.929 . S
C1483 C1481 1.433 . S
C1483 N1486 1.384 . S
C1484 H1475 0.929 . S
C1484 C1476 1.378 . S
C1484 C1479 1.350 . S
C1485 H1472 0.929 . S
C1485 C1477 1.433 . S
C1485 N1487 1.384 . S
N1486 C1482 1.427 . S
N1486 C1483 1.384 . S
N1487 C1479 1.427 . S
N1487 C1485 1.384 . S
H1488 C1494 0.930 1_545 S
H1489 C1498 0.930 . S
H1490 C1503 0.929 . S
H1491 C1501 0.929 . S
H1492 C1496 0.929 . S
H1493 C1502 0.929 . S
C1494 H1488 0.930 1_565 S
C1494 C1495 1.367 . S
C1494 C1502 1.378 . S
C1495 C1494 1.367 . S
C1495 C1503 1.433 . S
C1496 H1492 0.929 . S
C1496 C1498 1.378 . S
C1496 C1500 1.350 . S
C1497 C1500 1.463 . S
C1497 C1502 1.350 . S
C1497 N1505 1.427 . S
C1498 H1489 0.930 . S
C1498 C1496 1.378 . S
C1498 C1499 1.367 . S
C1499 C1498 1.367 . S
C1499 C1501 1.433 . S
C1500 C1496 1.350 . S
C1500 C1497 1.463 . S
C1500 N1504 1.427 . S
C1501 H1491 0.929 . S
C1501 C1499 1.433 . S
C1501 N1504 1.384 . S
C1502 H1493 0.929 . S
C1502 C1494 1.378 . S
C1502 C1497 1.350 . S
C1503 H1490 0.929 . S
C1503 C1495 1.433 . S
C1503 N1505 1.384 . S
N1504 C1500 1.427 . S
N1504 C1501 1.384 . S
N1505 C1497 1.427 . S
N1505 C1503 1.384 . S
H1506 C1512 0.930 . S
H1507 C1516 0.930 . S
H1508 C1521 0.929 . S
H1509 C1519 0.929 . S
H1510 C1514 0.929 . S
H1511 C1520 0.929 . S
C1512 H1506 0.930 . S
C1512 C1513 1.367 . S
C1512 C1520 1.378 . S
C1513 C1512 1.367 . S
C1513 C1521 1.433 . S
C1514 H1510 0.929 . S
C1514 C1516 1.378 . S
C1514 C1518 1.350 . S
C1515 C1518 1.463 . S
C1515 C1520 1.350 . S
C1515 N1523 1.427 . S
C1516 H1507 0.930 . S
C1516 C1514 1.378 . S
C1516 C1517 1.367 . S
C1517 C1516 1.367 . S
C1517 C1519 1.433 . S
C1518 C1514 1.350 . S
C1518 C1515 1.463 . S
C1518 N1522 1.427 . S
C1519 H1509 0.929 . S
C1519 C1517 1.433 . S
C1519 N1522 1.384 . S
C1520 H1511 0.929 . S
C1520 C1512 1.378 . S
C1520 C1515 1.350 . S
C1521 H1508 0.929 . S
C1521 C1513 1.433 . S
C1521 N1523 1.384 . S
N1522 C1518 1.427 . S
N1522 C1519 1.384 . S
N1523 C1515 1.427 . S
N1523 C1521 1.384 . S
H1524 C1530 0.930 . S
H1525 C1534 0.930 . S
H1526 C1539 0.929 . S
H1527 C1537 0.929 . S
H1528 C1532 0.929 . S
H1529 C1538 0.929 . S
C1530 H1524 0.930 . S
C1530 C1531 1.367 . S
C1530 C1538 1.378 . S
C1531 C1530 1.367 . S
C1531 C1539 1.433 . S
C1532 H1528 0.929 . S
C1532 C1534 1.378 . S
C1532 C1536 1.350 . S
C1533 C1536 1.463 . S
C1533 C1538 1.350 . S
C1533 N1541 1.427 . S
C1534 H1525 0.930 . S
C1534 C1532 1.378 . S
C1534 C1535 1.367 . S
C1535 C1534 1.367 . S
C1535 C1537 1.433 . S
C1536 C1532 1.350 . S
C1536 C1533 1.463 . S
C1536 N1540 1.427 . S
C1537 H1527 0.929 . S
C1537 C1535 1.433 . S
C1537 N1540 1.384 . S
C1538 H1529 0.929 . S
C1538 C1530 1.378 . S
C1538 C1533 1.350 . S
C1539 H1526 0.929 . S
C1539 C1531 1.433 . S
C1539 N1541 1.384 . S
N1540 C1536 1.427 . S
N1540 C1537 1.384 . S
N1541 C1533 1.427 . S
N1541 C1539 1.384 . S
H1542 C1548 0.930 . S
H1543 C1552 0.930 . S
H1544 C1557 0.929 . S
H1545 C1555 0.929 . S
H1546 C1550 0.929 . S
H1547 C1556 0.929 . S
C1548 H1542 0.930 . S
C1548 C1549 1.367 . S
C1548 C1556 1.378 . S
C1549 C1548 1.367 . S
C1549 C1557 1.433 . S
C1550 H1546 0.929 . S
C1550 C1552 1.378 . S
C1550 C1554 1.350 . S
C1551 C1554 1.463 . S
C1551 C1556 1.350 . S
C1551 N1559 1.427 . S
C1552 H1543 0.930 . S
C1552 C1550 1.378 . S
C1552 C1553 1.367 . S
C1553 C1552 1.367 . S
C1553 C1555 1.433 . S
C1554 C1550 1.350 . S
C1554 C1551 1.463 . S
C1554 N1558 1.427 . S
C1555 H1545 0.929 . S
C1555 C1553 1.433 . S
C1555 N1558 1.384 . S
C1556 H1547 0.929 . S
C1556 C1548 1.378 . S
C1556 C1551 1.350 . S
C1557 H1544 0.929 . S
C1557 C1549 1.433 . S
C1557 N1559 1.384 . S
N1558 C1554 1.427 . S
N1558 C1555 1.384 . S
N1559 C1551 1.427 . S
N1559 C1557 1.384 . S
H1560 C1566 0.930 1_554 S
H1561 C1570 0.930 . S
H1562 C1575 0.929 . S
H1563 C1573 0.931 . S
H1564 C1568 0.929 . S
H1565 C1574 0.929 . S
C1566 H1560 0.930 1_556 S
C1566 C1567 1.367 . S
C1566 C1574 1.378 . S
C1567 C1566 1.367 . S
C1567 C1575 1.433 . S
C1568 H1564 0.929 . S
C1568 C1570 1.378 . S
C1568 C1572 1.350 . S
C1569 C1572 1.463 . S
C1569 C1574 1.350 . S
C1569 N1577 1.427 . S
C1570 H1561 0.930 . S
C1570 C1568 1.378 . S
C1570 C1571 1.367 . S
C1571 C1570 1.367 . S
C1571 C1573 1.433 . S
C1572 C1568 1.350 . S
C1572 C1569 1.463 . S
C1572 N1576 1.427 . S
C1573 H1563 0.931 . S
C1573 C1571 1.433 . S
C1573 N1576 1.384 . S
C1574 H1565 0.929 . S
C1574 C1566 1.378 . S
C1574 C1569 1.350 . S
C1575 H1562 0.929 . S
C1575 C1567 1.433 . S
C1575 N1577 1.384 . S
N1576 C1572 1.427 . S
N1576 C1573 1.384 . S
N1577 C1569 1.427 . S
N1577 C1575 1.384 . S
H1578 C1584 0.930 1_556 S
H1579 C1588 0.930 . S
H1580 C1593 0.929 . S
H1581 C1591 0.929 . S
H1582 C1586 0.929 . S
H1583 C1592 0.929 . S
C1584 H1578 0.930 1_554 S
C1584 C1585 1.367 . S
C1584 C1592 1.378 . S
C1585 C1584 1.367 . S
C1585 C1593 1.433 . S
C1586 H1582 0.929 . S
C1586 C1588 1.378 . S
C1586 C1590 1.350 . S
C1587 C1590 1.463 . S
C1587 C1592 1.350 . S
C1587 N1595 1.427 . S
C1588 H1579 0.930 . S
C1588 C1586 1.378 . S
C1588 C1589 1.367 . S
C1589 C1588 1.367 . S
C1589 C1591 1.433 . S
C1590 C1586 1.350 . S
C1590 C1587 1.463 . S
C1590 N1594 1.427 . S
C1591 H1581 0.929 . S
C1591 C1589 1.433 . S
C1591 N1594 1.384 . S
C1592 H1583 0.929 . S
C1592 C1584 1.378 . S
C1592 C1587 1.350 . S
C1593 H1580 0.929 . S
C1593 C1585 1.433 . S
C1593 N1595 1.384 . S
N1594 C1590 1.427 . S
N1594 C1591 1.384 . S
N1595 C1587 1.427 . S
N1595 C1593 1.384 . S
H1596 C1602 0.930 . S
H1597 C1606 0.930 . S
H1598 C1611 0.929 . S
H1599 C1609 0.929 . S
H1600 C1604 0.929 . S
H1601 C1610 0.929 . S
C1602 H1596 0.930 . S
C1602 C1603 1.367 . S
C1602 C1610 1.378 . S
C1603 C1602 1.367 . S
C1603 C1611 1.433 . S
C1604 H1600 0.929 . S
C1604 C1606 1.378 . S
C1604 C1608 1.350 . S
C1605 C1608 1.463 . S
C1605 C1610 1.350 . S
C1605 N1613 1.427 . S
C1606 H1597 0.930 . S
C1606 C1604 1.378 . S
C1606 C1607 1.367 . S
C1607 C1606 1.367 . S
C1607 C1609 1.433 . S
C1608 C1604 1.350 . S
C1608 C1605 1.463 . S
C1608 N1612 1.427 . S
C1609 H1599 0.929 . S
C1609 C1607 1.433 . S
C1609 N1612 1.384 . S
C1610 H1601 0.929 . S
C1610 C1602 1.378 . S
C1610 C1605 1.350 . S
C1611 H1598 0.929 . S
C1611 C1603 1.433 . S
C1611 N1613 1.384 . S
N1612 C1608 1.427 . S
N1612 C1609 1.384 . S
N1613 C1605 1.427 . S
N1613 C1611 1.384 . S
H1614 C1620 0.930 . S
H1615 C1624 0.930 . S
H1616 C1629 0.929 . S
H1617 C1627 0.929 . S
H1618 C1622 0.929 . S
H1619 C1628 0.929 . S
C1620 H1614 0.930 . S
C1620 C1621 1.367 . S
C1620 C1628 1.378 . S
C1621 C1620 1.367 . S
C1621 C1629 1.433 . S
C1622 H1618 0.929 . S
C1622 C1624 1.378 . S
C1622 C1626 1.350 . S
C1623 C1626 1.463 . S
C1623 C1628 1.350 . S
C1623 N1631 1.427 . S
C1624 H1615 0.930 . S
C1624 C1622 1.378 . S
C1624 C1625 1.367 . S
C1625 C1624 1.367 . S
C1625 C1627 1.433 . S
C1626 C1622 1.350 . S
C1626 C1623 1.463 . S
C1626 N1630 1.427 . S
C1627 H1617 0.929 . S
C1627 C1625 1.433 . S
C1627 N1630 1.384 . S
C1628 H1619 0.929 . S
C1628 C1620 1.378 . S
C1628 C1623 1.350 . S
C1629 H1616 0.929 . S
C1629 C1621 1.433 . S
C1629 N1631 1.384 . S
N1630 C1626 1.427 . S
N1630 C1627 1.384 . S
N1631 C1623 1.427 . S
N1631 C1629 1.384 . S
H1632 C1638 0.930 . S
H1633 C1642 0.930 . S
H1634 C1647 0.929 1_655 S
H1635 C1645 0.929 . S
H1636 C1640 0.929 . S
H1637 C1646 0.929 . S
C1638 H1632 0.930 . S
C1638 C1639 1.367 . S
C1638 C1646 1.378 . S
C1639 C1638 1.367 . S
C1639 C1647 1.433 . S
C1640 H1636 0.929 . S
C1640 C1642 1.378 . S
C1640 C1644 1.350 . S
C1641 C1644 1.463 . S
C1641 C1646 1.350 . S
C1641 N1649 1.427 . S
C1642 H1633 0.930 . S
C1642 C1640 1.378 . S
C1642 C1643 1.367 . S
C1643 C1642 1.367 . S
C1643 C1645 1.433 . S
C1644 C1640 1.350 . S
C1644 C1641 1.463 . S
C1644 N1648 1.427 . S
C1645 H1635 0.929 . S
C1645 C1643 1.433 . S
C1645 N1648 1.384 . S
C1646 H1637 0.929 . S
C1646 C1638 1.378 . S
C1646 C1641 1.350 . S
C1647 H1634 0.929 1_455 S
C1647 C1639 1.433 . S
C1647 N1649 1.384 . S
N1648 C1644 1.427 . S
N1648 C1645 1.384 . S
N1649 C1641 1.427 . S
N1649 C1647 1.384 . S
H1650 C1656 0.930 . S
H1651 C1660 0.930 . S
H1652 C1665 0.929 . S
H1653 C1663 0.929 . S
H1654 C1658 0.929 . S
H1655 C1664 0.929 . S
C1656 H1650 0.930 . S
C1656 C1657 1.367 . S
C1656 C1664 1.378 . S
C1657 C1656 1.367 . S
C1657 C1665 1.433 . S
C1658 H1654 0.929 . S
C1658 C1660 1.378 . S
C1658 C1662 1.350 . S
C1659 C1662 1.463 . S
C1659 C1664 1.350 . S
C1659 N1667 1.427 . S
C1660 H1651 0.930 . S
C1660 C1658 1.378 . S
C1660 C1661 1.367 . S
C1661 C1660 1.367 . S
C1661 C1663 1.433 . S
C1662 C1658 1.350 . S
C1662 C1659 1.463 . S
C1662 N1666 1.427 . S
C1663 H1653 0.929 . S
C1663 C1661 1.433 . S
C1663 N1666 1.384 . S
C1664 H1655 0.929 . S
C1664 C1656 1.378 . S
C1664 C1659 1.350 . S
C1665 H1652 0.929 . S
C1665 C1657 1.433 . S
C1665 N1667 1.384 . S
N1666 C1662 1.427 . S
N1666 C1663 1.384 . S
N1667 C1659 1.427 . S
N1667 C1665 1.384 . S
H1668 C1674 0.930 . S
H1669 C1678 0.930 . S
H1670 C1683 0.929 . S
H1671 C1681 0.929 . S
H1672 C1676 0.929 . S
H1673 C1682 0.929 . S
C1674 H1668 0.930 . S
C1674 C1675 1.367 . S
C1674 C1682 1.378 . S
C1675 C1674 1.367 . S
C1675 C1683 1.433 . S
C1676 H1672 0.929 . S
C1676 C1678 1.378 . S
C1676 C1680 1.350 . S
C1677 C1680 1.463 . S
C1677 C1682 1.350 . S
C1677 N1685 1.427 . S
C1678 H1669 0.930 . S
C1678 C1676 1.378 . S
C1678 C1679 1.367 . S
C1679 C1678 1.367 . S
C1679 C1681 1.433 . S
C1680 C1676 1.350 . S
C1680 C1677 1.463 . S
C1680 N1684 1.427 . S
C1681 H1671 0.929 . S
C1681 C1679 1.433 . S
C1681 N1684 1.384 . S
C1682 H1673 0.929 . S
C1682 C1674 1.378 . S
C1682 C1677 1.350 . S
C1683 H1670 0.929 . S
C1683 C1675 1.433 . S
C1683 N1685 1.384 . S
N1684 C1680 1.427 . S
N1684 C1681 1.384 . S
N1685 C1677 1.427 . S
N1685 C1683 1.384 . S
H1686 C1692 0.930 . S
H1687 C1696 0.930 . S
H1688 C1701 0.929 . S
H1689 C1699 0.929 1_455 S
H1690 C1694 0.929 . S
H1691 C1700 0.929 . S
C1692 H1686 0.930 . S
C1692 C1693 1.367 . S
C1692 C1700 1.378 . S
C1693 C1692 1.367 . S
C1693 C1701 1.433 . S
C1694 H1690 0.929 . S
C1694 C1696 1.378 . S
C1694 C1698 1.350 . S
C1695 C1698 1.463 . S
C1695 C1700 1.350 . S
C1695 N1703 1.427 . S
C1696 H1687 0.930 . S
C1696 C1694 1.378 . S
C1696 C1697 1.367 . S
C1697 C1696 1.367 . S
C1697 C1699 1.433 . S
C1698 C1694 1.350 . S
C1698 C1695 1.463 . S
C1698 N1702 1.427 . S
C1699 H1689 0.929 1_655 S
C1699 C1697 1.433 . S
C1699 N1702 1.384 . S
C1700 H1691 0.929 . S
C1700 C1692 1.378 . S
C1700 C1695 1.350 . S
C1701 H1688 0.929 . S
C1701 C1693 1.433 . S
C1701 N1703 1.384 . S
N1702 C1698 1.427 . S
N1702 C1699 1.384 . S
N1703 C1695 1.427 . S
N1703 C1701 1.384 . S
H1704 C1710 0.930 . S
H1705 C1714 0.930 . S
H1706 C1719 0.929 . S
H1707 C1717 0.929 . S
H1708 C1712 0.929 . S
H1709 C1718 0.929 . S
C1710 H1704 0.930 . S
C1710 C1711 1.367 . S
C1710 C1718 1.378 . S
C1711 C1710 1.367 . S
C1711 C1719 1.433 . S
C1712 H1708 0.929 . S
C1712 C1714 1.378 . S
C1712 C1716 1.350 . S
C1713 C1716 1.463 . S
C1713 C1718 1.350 . S
C1713 N1721 1.427 . S
C1714 H1705 0.930 . S
C1714 C1712 1.378 . S
C1714 C1715 1.367 . S
C1715 C1714 1.367 . S
C1715 C1717 1.433 . S
C1716 C1712 1.350 . S
C1716 C1713 1.463 . S
C1716 N1720 1.427 . S
C1717 H1707 0.929 . S
C1717 C1715 1.433 . S
C1717 N1720 1.384 . S
C1718 H1709 0.929 . S
C1718 C1710 1.378 . S
C1718 C1713 1.350 . S
C1719 H1706 0.929 . S
C1719 C1711 1.433 . S
C1719 N1721 1.384 . S
N1720 C1716 1.427 . S
N1720 C1717 1.384 . S
N1721 C1713 1.427 . S
N1721 C1719 1.384 . S
H1722 C1728 0.930 . S
H1723 C1732 0.930 . S
H1724 C1737 0.929 1_545 S
H1725 C1735 0.929 . S
H1726 C1730 0.929 . S
H1727 C1736 0.929 . S
C1728 H1722 0.930 . S
C1728 C1729 1.367 . S
C1728 C1736 1.378 . S
C1729 C1728 1.367 . S
C1729 C1737 1.433 . S
C1730 H1726 0.929 . S
C1730 C1732 1.378 . S
C1730 C1734 1.350 . S
C1731 C1734 1.463 . S
C1731 C1736 1.350 . S
C1731 N1739 1.427 . S
C1732 H1723 0.930 . S
C1732 C1730 1.378 . S
C1732 C1733 1.367 . S
C1733 C1732 1.367 . S
C1733 C1735 1.433 . S
C1734 C1730 1.350 . S
C1734 C1731 1.463 . S
C1734 N1738 1.427 . S
C1735 H1725 0.929 . S
C1735 C1733 1.433 . S
C1735 N1738 1.384 . S
C1736 H1727 0.929 . S
C1736 C1728 1.378 . S
C1736 C1731 1.350 . S
C1737 H1724 0.929 1_565 S
C1737 C1729 1.433 . S
C1737 N1739 1.384 . S
N1738 C1734 1.427 . S
N1738 C1735 1.384 . S
N1739 C1731 1.427 . S
N1739 C1737 1.384 . S
H1740 C1746 0.930 . S
H1741 C1750 0.930 . S
H1742 C1755 0.929 . S
H1743 C1753 0.929 . S
H1744 C1748 0.929 . S
H1745 C1754 0.929 . S
C1746 H1740 0.930 . S
C1746 C1747 1.367 . S
C1746 C1754 1.378 . S
C1747 C1746 1.367 . S
C1747 C1755 1.433 . S
C1748 H1744 0.929 . S
C1748 C1750 1.378 . S
C1748 C1752 1.350 . S
C1749 C1752 1.463 . S
C1749 C1754 1.350 . S
C1749 N1757 1.427 . S
C1750 H1741 0.930 . S
C1750 C1748 1.378 . S
C1750 C1751 1.367 . S
C1751 C1750 1.367 . S
C1751 C1753 1.433 . S
C1752 C1748 1.350 . S
C1752 C1749 1.463 . S
C1752 N1756 1.427 . S
C1753 H1743 0.929 . S
C1753 C1751 1.433 . S
C1753 N1756 1.384 . S
C1754 H1745 0.929 . S
C1754 C1746 1.378 . S
C1754 C1749 1.350 . S
C1755 H1742 0.929 . S
C1755 C1747 1.433 . S
C1755 N1757 1.384 . S
N1756 C1752 1.427 . S
N1756 C1753 1.384 . S
N1757 C1749 1.427 . S
N1757 C1755 1.384 . S
H1758 C1764 0.930 . S
H1759 C1768 0.930 . S
H1760 C1773 0.929 . S
H1761 C1771 0.929 . S
H1762 C1766 0.929 . S
H1763 C1772 0.929 . S
C1764 H1758 0.930 . S
C1764 C1765 1.367 . S
C1764 C1772 1.378 . S
C1765 C1764 1.367 . S
C1765 C1773 1.433 . S
C1766 H1762 0.929 . S
C1766 C1768 1.378 . S
C1766 C1770 1.350 . S
C1767 C1770 1.463 . S
C1767 C1772 1.350 . S
C1767 N1775 1.427 . S
C1768 H1759 0.930 . S
C1768 C1766 1.378 . S
C1768 C1769 1.367 . S
C1769 C1768 1.367 . S
C1769 C1771 1.433 . S
C1770 C1766 1.350 . S
C1770 C1767 1.463 . S
C1770 N1774 1.427 . S
C1771 H1761 0.929 . S
C1771 C1769 1.433 . S
C1771 N1774 1.384 . S
C1772 H1763 0.929 . S
C1772 C1764 1.378 . S
C1772 C1767 1.350 . S
C1773 H1760 0.929 . S
C1773 C1765 1.433 . S
C1773 N1775 1.384 . S
N1774 C1770 1.427 . S
N1774 C1771 1.384 . S
N1775 C1767 1.427 . S
N1775 C1773 1.384 . S
H1776 C1782 0.930 . S
H1777 C1786 0.930 . S
H1778 C1791 0.929 . S
H1779 C1789 0.929 . S
H1780 C1784 0.929 . S
H1781 C1790 0.929 . S
C1782 H1776 0.930 . S
C1782 C1783 1.367 . S
C1782 C1790 1.378 . S
C1783 C1782 1.367 . S
C1783 C1791 1.433 . S
C1784 H1780 0.929 . S
C1784 C1786 1.378 . S
C1784 C1788 1.350 . S
C1785 C1788 1.463 . S
C1785 C1790 1.350 . S
C1785 N1793 1.427 . S
C1786 H1777 0.930 . S
C1786 C1784 1.378 . S
C1786 C1787 1.367 . S
C1787 C1786 1.367 . S
C1787 C1789 1.433 . S
C1788 C1784 1.350 . S
C1788 C1785 1.463 . S
C1788 N1792 1.427 . S
C1789 H1779 0.929 . S
C1789 C1787 1.433 . S
C1789 N1792 1.384 . S
C1790 H1781 0.929 . S
C1790 C1782 1.378 . S
C1790 C1785 1.350 . S
C1791 H1778 0.929 . S
C1791 C1783 1.433 . S
C1791 N1793 1.384 . S
N1792 C1788 1.427 . S
N1792 C1789 1.384 . S
N1793 C1785 1.427 . S
N1793 C1791 1.384 . S
H1794 C1800 0.930 . S
H1795 C1804 0.930 1_554 S
H1796 C1809 0.929 . S
H1797 C1807 0.929 . S
H1798 C1802 0.929 . S
H1799 C1808 0.929 . S
C1800 H1794 0.930 . S
C1800 C1801 1.367 . S
C1800 C1808 1.378 . S
C1801 C1800 1.367 . S
C1801 C1809 1.433 . S
C1802 H1798 0.929 . S
C1802 C1804 1.378 . S
C1802 C1806 1.350 . S
C1803 C1806 1.463 . S
C1803 C1808 1.350 . S
C1803 N1811 1.427 . S
C1804 H1795 0.930 1_556 S
C1804 C1802 1.378 . S
C1804 C1805 1.367 . S
C1805 C1804 1.367 . S
C1805 C1807 1.433 . S
C1806 C1802 1.350 . S
C1806 C1803 1.463 . S
C1806 N1810 1.427 . S
C1807 H1797 0.929 . S
C1807 C1805 1.433 . S
C1807 N1810 1.384 . S
C1808 H1799 0.929 . S
C1808 C1800 1.378 . S
C1808 C1803 1.350 . S
C1809 H1796 0.929 . S
C1809 C1801 1.433 . S
C1809 N1811 1.384 . S
N1810 C1806 1.427 . S
N1810 C1807 1.384 . S
N1811 C1803 1.427 . S
N1811 C1809 1.384 . S
H1812 C1818 0.930 . S
H1813 C1822 0.930 . S
H1814 C1827 0.929 . S
H1815 C1825 0.929 . S
H1816 C1820 0.929 . S
H1817 C1826 0.929 . S
C1818 H1812 0.930 . S
C1818 C1819 1.367 . S
C1818 C1826 1.378 . S
C1819 C1818 1.367 . S
C1819 C1827 1.433 . S
C1820 H1816 0.929 . S
C1820 C1822 1.378 . S
C1820 C1824 1.350 . S
C1821 C1824 1.463 . S
C1821 C1826 1.350 . S
C1821 N1829 1.427 . S
C1822 H1813 0.930 . S
C1822 C1820 1.378 . S
C1822 C1823 1.367 . S
C1823 C1822 1.367 . S
C1823 C1825 1.433 . S
C1824 C1820 1.350 . S
C1824 C1821 1.463 . S
C1824 N1828 1.427 . S
C1825 H1815 0.929 . S
C1825 C1823 1.433 . S
C1825 N1828 1.384 . S
C1826 H1817 0.929 . S
C1826 C1818 1.378 . S
C1826 C1821 1.350 . S
C1827 H1814 0.929 . S
C1827 C1819 1.433 . S
C1827 N1829 1.384 . S
N1828 C1824 1.427 . S
N1828 C1825 1.384 . S
N1829 C1821 1.427 . S
N1829 C1827 1.384 . S
H1830 C1836 0.930 . S
H1831 C1840 0.930 . S
H1832 C1845 0.929 . S
H1833 C1843 0.932 . S
H1834 C1838 0.929 . S
H1835 C1844 0.929 . S
C1836 H1830 0.930 . S
C1836 C1837 1.367 . S
C1836 C1844 1.378 . S
C1837 C1836 1.367 . S
C1837 C1845 1.433 . S
C1838 H1834 0.929 . S
C1838 C1840 1.378 . S
C1838 C1842 1.350 . S
C1839 C1842 1.463 . S
C1839 C1844 1.350 . S
C1839 N1847 1.427 . S
C1840 H1831 0.930 . S
C1840 C1838 1.378 . S
C1840 C1841 1.367 . S
C1841 C1840 1.367 . S
C1841 C1843 1.433 . S
C1842 C1838 1.350 . S
C1842 C1839 1.463 . S
C1842 N1846 1.427 . S
C1843 H1833 0.932 . S
C1843 C1841 1.433 . S
C1843 N1846 1.384 . S
C1844 H1835 0.929 . S
C1844 C1836 1.378 . S
C1844 C1839 1.350 . S
C1845 H1832 0.929 . S
C1845 C1837 1.433 . S
C1845 N1847 1.384 . S
N1846 C1842 1.427 . S
N1846 C1843 1.384 . S
N1847 C1839 1.427 . S
N1847 C1845 1.384 . S
C559 C19 1.033 . S
C563 C435 1.071 . S
C577 C458 1.062 . S
C581 C42 1.034 . S
C595 C65 1.034 . S
C599 C389 1.093 . S
C613 C88 1.040 . S
C617 C412 1.096 . S
C631 C527 1.065 . S
C635 C111 1.047 . S
C649 C134 1.051 . S
C653 C504 1.092 . S
C667 C550 1.062 . S
C671 C157 1.041 . S
C685 C180 1.044 . S
C689 C481 1.086 . S
C703 C203 1.030 . S
C707 C320 1.063 . S
C721 C226 1.030 . S
C725 C366 1.090 . S
C739 C343 1.070 . S
C743 C249 1.031 . S
C757 C272 1.034 . S
C761 C297 1.084 . S
C775 C295 1.049 . S
C779 C159 1.066 . S
C793 C318 1.029 . S
C797 C182 1.064 . S
C811 C341 1.034 . S
C815 C113 1.093 . S
C829 C136 1.084 . S
C833 C364 1.037 . S
C847 C387 1.042 . S
C851 C251 1.063 . S
C865 C228 1.087 . S
C869 C410 1.029 . S
C883 C274 1.066 . S
C887 C433 1.049 . S
C901 C205 1.093 . S
C905 C456 1.051 . S
C919 C44 1.074 . S
C923 C479 1.049 . S
C937 C90 1.085 . S
C941 C502 1.038 . S
C955 C67 1.067 . S
C959 C525 1.050 . S
C973 C548 1.034 . S
C977 C21 1.093 . S
C991 C110 1.366 . S
C995 C16 1.384 . S
C1009 C133 1.365 . S
C1013 C39 1.384 . S
C1027 C156 1.354 . S
C1031 C62 1.379 . S
C1045 C179 1.366 . S
C1049 C85 1.384 . S
C1063 C108 1.381 . S
C1067 C202 1.359 . S
C1081 C131 1.383 . S
C1085 C271 1.364 . S
C1099 C154 1.382 . S
C1103 C225 1.359 . S
C1117 C177 1.381 . S
C1121 C248 1.360 . S
C1135 C200 1.380 . S
C1139 C18 1.355 . S
C1153 C223 1.385 . S
C1157 C64 1.366 . S
C1171 C246 1.382 . S
C1175 C87 1.361 . S
C1189 C41 1.364 . S
C1193 C269 1.384 . S
C1207 C386 1.365 . S
C1211 C292 1.384 . S
C1225 C409 1.365 . S
C1229 C315 1.384 . S
C1243 C338 1.385 . S
C1247 C432 1.366 . S
C1261 C361 1.385 . S
C1265 C455 1.366 . S
C1279 C478 1.356 . S
C1283 C384 1.380 . S
C1297 C407 1.383 . S
C1301 C547 1.361 . S
C1315 C501 1.365 . S
C1319 C430 1.384 . S
C1333 C453 1.382 . S
C1337 C524 1.360 . S
C1351 C294 1.365 . S
C1355 C476 1.384 . S
C1369 C499 1.384 . S
C1373 C340 1.363 . S
C1387 C522 1.380 . S
C1391 C363 1.358 . S
C1405 C317 1.360 . S
C1409 C545 1.382 . S
C1423 C20 1.543 . S
C1427 C224 1.471 1_554 S
C1441 C247 1.473 . S
C1445 C43 1.542 . S
C1459 C201 1.471 1_556 S
C1463 C66 1.543 . S
C1477 C270 1.464 . S
C1481 C89 1.541 . S
C1495 C112 1.535 . S
C1499 C86 1.455 1_455 S
C1513 C63 1.465 . S
C1517 C135 1.542 . S
C1531 C158 1.542 . S
C1535 C40 1.466 . S
C1549 C17 1.463 1_655 S
C1553 C181 1.537 . S
C1567 C204 1.539 . S
C1571 C132 1.459 1_545 S
C1585 C227 1.536 . S
C1589 C178 1.455 . S
C1603 C250 1.537 . S
C1607 C155 1.455 . S
C1621 C273 1.540 . S
C1625 C109 1.460 1_565 S
C1639 C296 1.543 . S
C1643 C500 1.473 1_556 S
C1657 C319 1.540 . S
C1661 C523 1.462 . S
C1675 C477 1.468 1_554 S
C1679 C342 1.543 . S
C1693 C546 1.471 . S
C1697 C365 1.541 . S
C1711 C388 1.537 . S
C1715 C362 1.462 1_655 S
C1729 C411 1.540 . S
C1733 C339 1.469 . S
C1747 C316 1.455 . S
C1751 C434 1.536 . S
C1765 C457 1.543 . S
C1769 C293 1.469 1_455 S
C1783 C480 1.535 . S
C1787 C408 1.456 1_565 S
C1801 C454 1.455 . S
C1805 C503 1.536 . S
C1819 C526 1.536 . S
C1823 C431 1.455 . S
C1837 C549 1.536 . S
C1841 C385 1.455 1_545 S
