# Generated by pormake.
# Topology umf, (4)-cn, num edge types: 1
# Building blocks:
#     Node 0, Type 0, BuildingBlock: CEKHIL_clean_sbu_0, # of connection points: 4
#     Node 1, Type 0, BuildingBlock: CEKHIL_clean_sbu_0, # of connection points: 4
#     Node 2, Type 0, BuildingBlock: CEKHIL_clean_sbu_0, # of connection points: 4
#     Node 3, Type 0, BuildingBlock: CEKHIL_clean_sbu_0, # of connection points: 4
#     Node 4, Type 0, BuildingBlock: CEKHIL_clean_sbu_0, # of connection points: 4
#     Node 5, Type 0, BuildingBlock: CEKHIL_clean_sbu_0, # of connection points: 4
#     Node 6, Type 0, BuildingBlock: CEKHIL_clean_sbu_0, # of connection points: 4
#     Node 7, Type 0, BuildingBlock: CEKHIL_clean_sbu_0, # of connection points: 4
#     Edge 8, Type (0, 0), BuildingBlock: XUDNAN_clean_linker_2, # of connection points: 2
#     Edge 9, Type (0, 0), BuildingBlock: XUDNAN_clean_linker_2, # of connection points: 2
#     Edge 10, Type (0, 0), BuildingBlock: XUDNAN_clean_linker_2, # of connection points: 2
#     Edge 11, Type (0, 0), BuildingBlock: XUDNAN_clean_linker_2, # of connection points: 2
#     Edge 12, Type (0, 0), BuildingBlock: XUDNAN_clean_linker_2, # of connection points: 2
#     Edge 13, Type (0, 0), BuildingBlock: XUDNAN_clean_linker_2, # of connection points: 2
#     Edge 14, Type (0, 0), BuildingBlock: XUDNAN_clean_linker_2, # of connection points: 2
#     Edge 15, Type (0, 0), BuildingBlock: XUDNAN_clean_linker_2, # of connection points: 2
#     Edge 16, Type (0, 0), BuildingBlock: XUDNAN_clean_linker_2, # of connection points: 2
#     Edge 17, Type (0, 0), BuildingBlock: XUDNAN_clean_linker_2, # of connection points: 2
#     Edge 18, Type (0, 0), BuildingBlock: XUDNAN_clean_linker_2, # of connection points: 2
#     Edge 19, Type (0, 0), BuildingBlock: XUDNAN_clean_linker_2, # of connection points: 2
#     Edge 20, Type (0, 0), BuildingBlock: XUDNAN_clean_linker_2, # of connection points: 2
#     Edge 21, Type (0, 0), BuildingBlock: XUDNAN_clean_linker_2, # of connection points: 2
#     Edge 22, Type (0, 0), BuildingBlock: XUDNAN_clean_linker_2, # of connection points: 2
#     Edge 23, Type (0, 0), BuildingBlock: XUDNAN_clean_linker_2, # of connection points: 2
# Relax obj value: 0.165
# Max RMSD: 0.289
# Mean RMSD: 0.281
data_MOF--net-umf--node1-CEKHIL_clean_sbu_0--edge1-XUDNAN_clean_linker_2
_symmetry_space_group_name_H-M    P1
_symmetry_Int_Tables_number       1
_symmetry_cell_setting            triclinic
loop_
_symmetry_equiv_pos_as_xyz
'x, y, z'
_cell_length_a     27.946706
_cell_length_b     26.537385
_cell_length_c     52.730979
_cell_angle_alpha  90.003933
_cell_angle_beta   89.988822
_cell_angle_gamma 90.028886
loop_
_atom_site_label
_atom_site_type_symbol
_atom_site_fract_x
_atom_site_fract_y
_atom_site_fract_z
_atom_type_partial_charge
Co0 Co 0.09934 0.26755 0.14571 0.0
O1 O 0.11955 0.27849 0.17973 0.0
O2 O 0.15059 0.22065 0.15418 0.0
C3 C 0.09764 0.34869 0.13454 0.0
O4 O 0.08443 0.24822 0.10886 0.0
Co5 Co 0.9977 0.30777 0.13367 0.0
O6 O 0.01952 0.29463 0.0985 0.0
C7 C 0.00685 0.21446 0.16234 0.0
C8 C 0.14893 0.24148 0.17659 0.0
C9 C 0.05382 0.26519 0.09259 0.0
O10 O 0.05194 0.21717 0.15826 0.0
O11 O 0.97755 0.24883 0.15536 0.0
O12 O 0.1377 0.32395 0.13382 0.0
O13 O 0.06185 0.32526 0.14475 0.0
Co14 Co 0.71769 0.08052 0.63636 0.0
O15 O 0.65833 0.11641 0.63452 0.0
O16 O 0.66621 0.03437 0.62814 0.0
C17 C 0.74272 0.11205 0.67334 0.0
O18 O 0.77521 0.0322 0.63786 0.0
Co19 Co 0.80994 0.14072 0.63118 0.0
O20 O 0.83585 0.08244 0.64969 0.0
C21 C 0.76404 0.1041 0.58504 0.0
C22 C 0.63823 0.0736 0.62961 0.0
C23 C 0.81807 0.0388 0.64648 0.0
O24 O 0.72874 0.09122 0.59912 0.0
O25 O 0.80201 0.12445 0.5939 0.0
O26 O 0.71207 0.07557 0.67244 0.0
O27 O 0.75209 0.13425 0.6518 0.0
Co28 Co 0.94704 0.75416 0.15558 0.0
O29 O 0.9396 0.74498 0.19122 0.0
O30 O 0.87967 0.76077 0.16505 0.0
C31 C 0.99323 0.68734 0.14846 0.0
O32 O 0.94583 0.76301 0.11679 0.0
Co33 Co 0.05058 0.78187 0.13976 0.0
O34 O 0.02424 0.76489 0.10595 0.0
C35 C 0.99146 0.85839 0.16376 0.0
C36 C 0.89432 0.75224 0.18818 0.0
C37 C 0.98001 0.762 0.10018 0.0
O38 O 0.95591 0.82831 0.16117 0.0
O39 O 0.03446 0.84568 0.15848 0.0
O40 O 0.94716 0.6826 0.15017 0.0
O41 O 0.01032 0.73075 0.15527 0.0
Co42 Co 0.23931 0.92201 0.64311 0.0
O43 O 0.30625 0.92549 0.64817 0.0
O44 O 0.26069 0.9923 0.64162 0.0
C45 C 0.22476 0.86927 0.67538 0.0
O46 O 0.16667 0.92826 0.63792 0.0
Co47 Co 0.20635 0.82245 0.62289 0.0
O48 O 0.14203 0.84905 0.62976 0.0
C49 C 0.24589 0.89101 0.58649 0.0
C50 C 0.30351 0.97347 0.64463 0.0
C51 C 0.13335 0.89529 0.63406 0.0
O52 O 0.25037 0.91971 0.60572 0.0
O53 O 0.22892 0.84651 0.58844 0.0
O54 O 0.22802 0.91753 0.67862 0.0
O55 O 0.23699 0.85268 0.65295 0.0
Co56 Co 0.05561 0.74473 0.8643 0.0
O57 O 0.07413 0.72845 0.83045 0.0
O58 O 0.12257 0.76281 0.85888 0.0
C59 C 0.01851 0.67211 0.87227 0.0
O60 O 0.04585 0.76225 0.90186 0.0
Co61 Co 0.94695 0.75688 0.87257 0.0
O62 O 0.96606 0.75791 0.90877 0.0
C63 C 0.99828 0.83527 0.84554 0.0
C64 C 0.11611 0.7455 0.83596 0.0
C65 C 0.00894 0.76239 0.91669 0.0
O66 O 0.03703 0.8143 0.85306 0.0
O67 O 0.95703 0.81557 0.84899 0.0
O68 O 0.06463 0.6758 0.87447 0.0
O69 O 0.99713 0.71046 0.86207 0.0
Co70 Co 0.24008 0.05045 0.36951 0.0
O71 O 0.30726 0.05242 0.37431 0.0
O72 O 0.26586 0.98219 0.36859 0.0
C73 C 0.23744 0.11141 0.34032 0.0
O74 O 0.16898 0.03831 0.363 0.0
Co75 Co 0.18751 0.14462 0.38835 0.0
O76 O 0.13215 0.11219 0.37143 0.0
C77 C 0.22331 0.07343 0.42561 0.0
C78 C 0.3072 0.00396 0.37224 0.0
C79 C 0.13162 0.06693 0.36329 0.0
O80 O 0.23084 0.04321 0.40714 0.0
O81 O 0.2106 0.11928 0.42236 0.0
O82 O 0.24765 0.06553 0.33404 0.0
O83 O 0.23567 0.12083 0.36448 0.0
Co84 Co 0.92498 0.23972 0.86376 0.0
O85 O 0.89199 0.25054 0.83263 0.0
O86 O 0.87293 0.19154 0.86062 0.0
C87 C 0.93018 0.32065 0.87448 0.0
O88 O 0.95265 0.22126 0.89865 0.0
Co89 Co 0.02884 0.27797 0.86538 0.0
O90 O 0.01817 0.27037 0.90231 0.0
C91 C 0.00943 0.18577 0.83795 0.0
C92 C 0.86567 0.21222 0.83847 0.0
C93 C 0.98673 0.24119 0.91185 0.0
O94 O 0.96667 0.18953 0.84631 0.0
O95 O 0.04189 0.21849 0.8425 0.0
O96 O 0.8914 0.29537 0.87933 0.0
O97 O 0.96203 0.2978 0.86073 0.0
Co98 Co 0.72336 0.89276 0.37323 0.0
O99 O 0.66372 0.86156 0.3815 0.0
O100 O 0.67217 0.94183 0.37083 0.0
C101 C 0.74753 0.83267 0.34624 0.0
O102 O 0.78066 0.93585 0.36227 0.0
Co103 Co 0.81348 0.84242 0.39164 0.0
O104 O 0.84274 0.88234 0.36418 0.0
C105 C 0.76364 0.90679 0.42743 0.0
C106 C 0.64392 0.90464 0.37697 0.0
C107 C 0.824 0.92337 0.35676 0.0
O108 O 0.73288 0.91273 0.40966 0.0
O109 O 0.80026 0.8784 0.42476 0.0
O110 O 0.71876 0.86819 0.33927 0.0
O111 O 0.75692 0.83011 0.37048 0.0
H112 H 0.0186 0.40128 0.12114 0.0
H113 H 0.17096 0.41646 0.13414 0.0
H114 H 0.16372 0.50911 0.13127 0.0
H115 H 0.00715 0.516 0.07749 0.0
H116 H 0.94918 0.53012 0.09068 0.0
H117 H 0.96865 0.46557 0.08794 0.0
H118 H 0.95328 0.4527 0.13601 0.0
H119 H 0.93429 0.51693 0.13895 0.0
H120 H 0.98237 0.49373 0.15851 0.0
H121 H 0.13639 0.59896 0.13699 0.0
H122 H 0.09172 0.67699 0.14776 0.0
H123 H 0.95895 0.6018 0.1282 0.0
C124 C 0.0506 0.42416 0.12248 0.0
C125 C 0.09515 0.40225 0.12792 0.0
C126 C 0.13646 0.4329 0.12978 0.0
C127 C 0.13272 0.48547 0.12812 0.0
C128 C 0.08769 0.50633 0.12386 0.0
C129 C 0.04755 0.47642 0.1204 0.0
C130 C 0.00257 0.50755 0.11883 0.0
C131 C 0.98061 0.50464 0.09214 0.0
C132 C 0.96605 0.4918 0.1393 0.0
C133 C 0.02312 0.55914 0.12397 0.0
C134 C 0.07232 0.5582 0.12636 0.0
C135 C 0.09801 0.60054 0.1344 0.0
C136 C 0.0725 0.64454 0.1406 0.0
C137 C 0.02206 0.64514 0.1389 0.0
C138 C 0.9976 0.60251 0.12962 0.0
H139 H 0.39035 0.9326 0.63711 0.0
H140 H 0.31884 0.07727 0.64325 0.0
H141 H 0.39735 0.12012 0.63688 0.0
H142 H 0.49431 0.96279 0.6704 0.0
H143 H 0.53279 0.92574 0.65028 0.0
H144 H 0.47106 0.90826 0.65414 0.0
H145 H 0.45927 0.91153 0.60537 0.0
H146 H 0.52103 0.92932 0.60134 0.0
H147 H 0.47426 0.96828 0.58834 0.0
H148 H 0.48581 0.14528 0.63216 0.0
H149 H 0.5739 0.15121 0.63004 0.0
H150 H 0.58373 0.98825 0.62608 0.0
C151 C 0.39072 0.97341 0.63721 0.0
C152 C 0.34852 0.00174 0.64101 0.0
C153 C 0.35086 0.05495 0.64053 0.0
C154 C 0.39518 0.07941 0.63684 0.0
C155 C 0.43615 0.04986 0.63328 0.0
C156 C 0.43391 -0.00204 0.63331 0.0
C157 C 0.48243 0.974 0.62963 0.0
C158 C 0.49592 0.94077 0.65248 0.0
C159 C 0.48434 0.94403 0.60468 0.0
C160 C 0.51319 0.02051 0.62824 0.0
C161 C 0.486 0.064 0.63013 0.0
C162 C 0.50719 0.11146 0.63043 0.0
C163 C 0.55729 0.11437 0.62921 0.0
C164 C 0.58563 0.07007 0.62782 0.0
C165 C 0.56306 0.02272 0.62686 0.0
H166 H 0.0113 0.37644 0.87937 0.0
H167 H 0.85653 0.38565 0.88265 0.0
H168 H 0.86165 0.47815 0.88715 0.0
H169 H 0.03348 0.48161 0.9255 0.0
H170 H 0.08564 0.50207 0.90822 0.0
H171 H 0.06941 0.43632 0.90858 0.0
H172 H 0.06847 0.43576 0.85938 0.0
H173 H 0.08425 0.50137 0.85887 0.0
H174 H 0.0311 0.48013 0.84271 0.0
H175 H 0.88369 0.57015 0.88373 0.0
H176 H 0.92189 0.65364 0.87708 0.0
H177 H 0.06153 0.58243 0.87946 0.0
C178 C 0.97863 0.39794 0.88161 0.0
C179 C 0.93364 0.37439 0.88056 0.0
C180 C 0.89144 0.40331 0.88353 0.0
C181 C 0.89396 0.45578 0.8861 0.0
C182 C 0.93896 0.47824 0.88633 0.0
C183 C 0.98056 0.45008 0.88476 0.0
C184 C 0.02434 0.48326 0.88418 0.0
C185 C 0.05502 0.47535 0.90805 0.0
C186 C 0.05372 0.47461 0.85984 0.0
C187 C 0.00079 0.53444 0.88427 0.0
C188 C 0.95155 0.53105 0.88565 0.0
C189 C 0.92228 0.57346 0.88333 0.0
C190 C 0.94411 0.62053 0.87941 0.0
C191 C 0.99448 0.6243 0.87802 0.0
C192 C 0.0229 0.58082 0.88094 0.0
H193 H 0.3946 0.04654 0.37661 0.0
H194 H 0.32406 0.9011 0.37114 0.0
H195 H 0.40349 0.85912 0.37326 0.0
H196 H 0.49303 0.01844 0.33754 0.0
H197 H 0.53492 0.05475 0.35604 0.0
H198 H 0.47274 0.07226 0.35542 0.0
H199 H 0.4693 0.06706 0.40449 0.0
H200 H 0.53156 0.04961 0.40529 0.0
H201 H 0.48745 0.0098 0.42016 0.0
H202 H 0.49115 0.83442 0.37569 0.0
H203 H 0.57917 0.82808 0.37633 0.0
H204 H 0.59033 0.99114 0.37871 0.0
C205 C 0.39546 0.00576 0.37598 0.0
C206 C 0.35315 0.97691 0.37377 0.0
C207 C 0.35612 0.92377 0.37287 0.0
C208 C 0.40097 0.89977 0.37411 0.0
C209 C 0.44197 0.9297 0.37621 0.0
C210 C 0.43943 0.98155 0.37707 0.0
C211 C 0.48837 0.00565 0.37859 0.0
C212 C 0.4978 0.03976 0.35552 0.0
C213 C 0.49451 0.03473 0.40362 0.0
C214 C 0.51938 0.95922 0.37802 0.0
C215 C 0.49201 0.91574 0.37699 0.0
C216 C 0.51283 0.86819 0.3765 0.0
C217 C 0.56284 0.86507 0.37692 0.0
C218 C 0.59144 0.90925 0.37752 0.0
C219 C 0.56934 0.95684 0.37813 0.0
H220 H -3e-05 0.31169 0.94772 0.0
H221 H 0.98523 0.1505 0.93754 0.0
H222 H 0.00764 0.13732 0.98279 0.0
H223 H 0.1006 0.31038 0.98764 0.0
H224 H 0.08065 0.36187 0.00726 0.0
H225 H 0.06176 0.3581 0.97467 0.0
H226 H 0.97268 0.36078 0.98838 0.0
H227 H 0.99131 0.36612 0.02094 0.0
H228 H 0.95118 0.31629 0.01158 0.0
H229 H 0.03714 0.14353 0.02942 0.0
H230 H 0.05664 0.16877 0.07368 0.0
H231 H 0.04945 0.32576 0.05171 0.0
C232 C 0.0007 0.27361 0.95515 0.0
C233 C 0.99078 0.23206 0.93935 0.0
C234 C 0.99211 0.18279 0.94956 0.0
C235 C 0.00536 0.17505 0.9751 0.0
C236 C 0.0166 0.21707 0.98999 0.0
C237 C 0.01323 0.26542 0.9804 0.0
C238 C 0.02584 0.30464 1.00004 0.0
C239 C 0.06983 0.33555 0.9919 0.0
C240 C 0.98268 0.33896 0.00557 0.0
C241 C 0.03726 0.27107 0.02233 0.0
C242 C 0.03243 0.2206 0.01628 0.0
C243 C 0.04096 0.18296 0.03427 0.0
C244 C 0.05267 0.1975 0.05924 0.0
C245 C 0.05518 0.24912 0.06585 0.0
C246 C 0.04844 0.28603 0.04699 0.0
H247 H 0.832 0.05581 0.55597 0.0
H248 H 0.68701 0.11378 0.55444 0.0
H249 H 0.67269 0.07024 0.51385 0.0
H250 H 0.85243 0.05867 0.48538 0.0
H251 H 0.88575 0.00055 0.48588 0.0
H252 H 0.88707 0.04197 0.51297 0.0
H253 H 0.85903 0.96827 0.54149 0.0
H254 H 0.85655 0.92692 0.51444 0.0
H255 H 0.80424 0.93568 0.53395 0.0
H256 H 0.67018 0.0137 0.47689 0.0
H257 H 0.68191 0.95424 0.4419 0.0
H258 H 0.82899 0.93021 0.46584 0.0
C259 C 0.79804 0.06104 0.54645 0.0
C260 C 0.76086 0.08917 0.55804 0.0
C261 C 0.71613 0.09326 0.54564 0.0
C262 C 0.70759 0.06835 0.52268 0.0
C263 C 0.74409 0.03918 0.5123 0.0
C264 C 0.78873 0.03589 0.52344 0.0
C265 C 0.82046 -0.0007 0.50883 0.0
C266 C 0.86401 0.02677 0.4976 0.0
C267 C 0.83597 0.95492 0.52569 0.0
C268 C 0.78629 0.98202 0.48809 0.0
C269 C 0.74253 0.00571 0.49063 0.0
C270 C 0.7045 0.99545 0.47446 0.0
C271 C 0.71159 0.96127 0.45463 0.0
C272 C 0.7565 0.93742 0.45086 0.0
C273 C 0.79419 0.9475 0.46817 0.0
H274 H 0.95153 0.82584 0.06183 0.0
H275 H 0.99469 0.67256 0.07833 0.0
H276 H 0.01083 0.65794 0.03294 0.0
H277 H 0.89374 0.79446 0.99854 0.0
H278 H 0.91289 0.85345 0.98496 0.0
H279 H 0.89957 0.84952 0.01834 0.0
H280 H 0.98392 0.88491 0.02814 0.0
H281 H 0.99824 0.88703 0.99487 0.0
H282 H 0.03596 0.85227 0.01636 0.0
H283 H 0.03557 0.66445 0.98754 0.0
H284 H 0.04634 0.68368 0.94198 0.0
H285 H 0.98056 0.82979 0.95319 0.0
C286 C 0.96184 0.7885 0.0556 0.0
C287 C 0.97073 0.74982 0.07341 0.0
C288 C 0.9864 0.70208 0.06482 0.0
C289 C 0.99637 0.69371 0.03914 0.0
C290 C 0.98982 0.7333 0.02218 0.0
C291 C 0.97106 0.77913 0.02979 0.0
C292 C 0.96782 0.81523 0.00748 0.0
C293 C 0.91539 0.82896 1.002 0.0
C294 C 0.9983 0.86266 0.012 0.0
C295 C 0.98884 0.78296 0.98645 0.0
C296 C 0.00217 0.7362 0.99553 0.0
C297 C 0.02462 0.70066 0.9801 0.0
C298 C 0.03141 0.71219 0.95439 0.0
C299 C 0.01518 0.75847 0.94432 0.0
C300 C 0.99413 0.79453 0.96062 0.0
H301 H 0.18901 0.98555 0.44557 0.0
H302 H 0.27682 0.11557 0.46325 0.0
H303 H 0.29938 0.07642 0.50422 0.0
H304 H 0.14343 0.96996 0.50962 0.0
H305 H 0.1416 0.90218 0.50763 0.0
H306 H 0.13456 0.93959 0.4794 0.0
H307 H 0.20495 0.89128 0.45864 0.0
H308 H 0.21292 0.85451 0.48706 0.0
H309 H 0.26233 0.89001 0.47425 0.0
H310 H 0.31545 0.02173 0.54171 0.0
H311 H 0.31049 0.96513 0.57841 0.0
H312 H 0.20596 0.87287 0.53891 0.0
C313 C 0.2127 0.00582 0.45824 0.0
C314 C 0.23138 0.05352 0.45139 0.0
C315 C 0.26194 0.07925 0.46834 0.0
C316 C 0.27532 0.057 0.49144 0.0
C317 C 0.2571 0.00944 0.49741 0.0
C318 C 0.22536 0.98475 0.48168 0.0
C319 C 0.20817 0.93579 0.49359 0.0
C320 C 0.15371 0.93697 0.49782 0.0
C321 C 0.22298 0.8902 0.47741 0.0
C322 C 0.2352 0.93678 0.51856 0.0
C323 C 0.2641 0.97908 0.51994 0.0
C324 C 0.29261 0.98882 0.54095 0.0
C325 C 0.28962 0.95615 0.56168 0.0
C326 C 0.25756 0.91459 0.56168 0.0
C327 C 0.23121 0.9038 0.53941 0.0
H328 H 0.10625 0.21383 0.21985 0.0
H329 H 0.24527 0.22543 0.18399 0.0
H330 H 0.28419 0.20474 0.22517 0.0
H331 H 0.13667 0.26725 0.27963 0.0
H332 H 0.10022 0.22436 0.2978 0.0
H333 H 0.08364 0.24011 0.26575 0.0
H334 H 0.08327 0.14556 0.25324 0.0
H335 H 0.09815 0.12955 0.28544 0.0
H336 H 0.13529 0.10757 0.25978 0.0
H337 H 0.30679 0.18394 0.27056 0.0
H338 H 0.31162 0.14928 0.31402 0.0
H339 H 0.15719 0.15087 0.31956 0.0
C340 C 0.14494 0.21145 0.22068 0.0
C341 C 0.17309 0.22101 0.19901 0.0
C342 C 0.2234 0.21756 0.20048 0.0
C343 C 0.2456 0.20655 0.2238 0.0
C344 C 0.21668 0.19894 0.24513 0.0
C345 C 0.16738 0.20007 0.24356 0.0
C346 C 0.14407 0.18786 0.26873 0.0
C347 C 0.1144 0.23258 0.27854 0.0
C348 C 0.11342 0.13978 0.26667 0.0
C349 C 0.18798 0.17952 0.28492 0.0
C350 C 0.22954 0.18691 0.27107 0.0
C351 C 0.27455 0.17868 0.28162 0.0
C352 C 0.277 0.15976 0.30641 0.0
C353 C 0.23481 0.14942 0.3203 0.0
C354 C 0.18989 0.16083 0.30972 0.0
H355 H 0.82605 0.25869 0.7977 0.0
H356 H 0.84581 0.11211 0.83254 0.0
H357 H 0.82012 0.0712 0.79264 0.0
H358 H 0.72051 0.22446 0.7586 0.0
H359 H 0.7399 0.26379 0.73268 0.0
H360 H 0.7549 0.28062 0.76481 0.0
H361 H 0.84441 0.28345 0.7521 0.0
H362 H 0.82993 0.26488 0.72016 0.0
H363 H 0.87189 0.2283 0.73845 0.0
H364 H 0.80141 0.04685 0.74814 0.0
H365 H 0.77527 0.03895 0.70378 0.0
H366 H 0.76665 0.20163 0.69728 0.0
C367 C 0.82332 0.21798 0.79719 0.0
C368 C 0.83731 0.18841 0.81824 0.0
C369 C 0.83419 0.13534 0.81682 0.0
C370 C 0.82035 0.11188 0.79412 0.0
C371 C 0.80934 0.14219 0.77328 0.0
C372 C 0.80937 0.19408 0.77478 0.0
C373 C 0.79683 0.21793 0.74947 0.0
C374 C 0.75026 0.24849 0.75151 0.0
C375 C 0.83824 0.25056 0.73947 0.0
C376 C 0.79013 0.17126 0.73333 0.0
C377 C 0.79809 0.1281 0.7475 0.0
C378 C 0.79453 0.0803 0.73698 0.0
C379 C 0.77998 0.07629 0.71173 0.0
C380 C 0.76902 0.11973 0.69721 0.0
C381 C 0.77552 0.16796 0.70787 0.0
H382 H 0.83823 0.80224 0.33285 0.0
H383 H 0.68815 0.78468 0.31454 0.0
H384 H 0.70938 0.75177 0.27239 0.0
H385 H 0.87468 0.84888 0.27802 0.0
H386 H 0.9309 0.8163 0.275 0.0
H387 H 0.90559 0.82606 0.30587 0.0
H388 H 0.90777 0.7303 0.31484 0.0
H389 H 0.93428 0.72026 0.28407 0.0
H390 H 0.88032 0.68727 0.29274 0.0
H391 H 0.74546 0.74302 0.22914 0.0
H392 H 0.79577 0.74322 0.1903 0.0
H393 H 0.92219 0.76163 0.23711 0.0
C394 C 0.81013 0.78842 0.32056 0.0
C395 C 0.76162 0.79522 0.32703 0.0
C396 C 0.72558 0.77885 0.31002 0.0
C397 C 0.73727 0.76043 0.28595 0.0
C398 C 0.78531 0.7576 0.27929 0.0
C399 C 0.82135 0.76937 0.29639 0.0
C400 C 0.86989 0.76718 0.28363 0.0
C401 C 0.89676 0.81764 0.28577 0.0
C402 C 0.89983 0.72365 0.29446 0.0
C403 C 0.85504 0.75654 0.25651 0.0
C404 C 0.8062 0.75056 0.25435 0.0
C405 C 0.78397 0.74595 0.23067 0.0
C406 C 0.81262 0.74666 0.20871 0.0
C407 C 0.8628 0.75185 0.2107 0.0
C408 C 0.88395 0.75655 0.23496 0.0
H409 H 0.21635 0.90183 0.72374 0.0
H410 H 0.21642 0.76501 0.67863 0.0
H411 H 0.20239 0.71514 0.71792 0.0
H412 H 0.27475 0.84994 0.78037 0.0
H413 H 0.23832 0.88745 0.80133 0.0
H414 H 0.2534 0.91079 0.77024 0.0
H415 H 0.16334 0.92285 0.76 0.0
H416 H 0.14819 0.90028 0.79108 0.0
H417 H 0.12305 0.87022 0.76348 0.0
H418 H 0.17846 0.68278 0.76148 0.0
H419 H 0.14268 0.67111 0.80394 0.0
H420 H 0.1627 0.82949 0.82017 0.0
C421 C 0.21412 0.86125 0.72194 0.0
C422 C 0.21759 0.83719 0.69805 0.0
C423 C 0.21403 0.78413 0.69673 0.0
C424 C 0.20638 0.75565 0.71896 0.0
C425 C 0.20314 0.78093 0.74222 0.0
C426 C 0.20699 0.83265 0.74372 0.0
C427 C 0.19857 0.85181 0.7704 0.0
C428 C 0.24398 0.87644 0.78122 0.0
C429 C 0.15575 0.8884 0.77127 0.0
C430 C 0.18752 0.80288 0.78379 0.0
C431 C 0.19095 0.76227 0.76732 0.0
C432 C 0.17696 0.71404 0.77464 0.0
C433 C 0.15702 0.70768 0.79884 0.0
C434 C 0.15159 0.74916 0.81549 0.0
C435 C 0.16871 0.79686 0.80824 0.0
H436 H 0.06022 0.14144 0.18457 0.0
H437 H 0.91444 0.17766 0.16293 0.0
H438 H 0.89117 0.08906 0.17045 0.0
H439 H 0.06852 0.03972 0.1498 0.0
H440 H 0.10499 0.00236 0.17081 0.0
H441 H 0.10722 0.06977 0.17263 0.0
H442 H 0.08506 0.06686 0.22017 0.0
H443 H 0.08337 -0.00101 0.21886 0.0
H444 H 0.03219 0.03352 0.23029 0.0
H445 H 0.888 0.9953 0.17083 0.0
H446 H 0.90453 0.90551 0.16335 0.0
H447 H 0.05441 0.93007 0.18105 0.0
C448 C 0.02292 0.13131 0.18231 0.0
C449 C 0.98913 0.16643 0.17304 0.0
C450 C 0.94084 0.15153 0.1702 0.0
C451 C 0.92735 0.10123 0.17446 0.0
C452 C 0.96251 0.0667 0.18172 0.0
C453 C 0.0093 0.08134 0.18592 0.0
C454 C 0.04217 0.03641 0.18903 0.0
C455 C 0.08307 0.03714 0.16939 0.0
C456 C 0.06183 0.03378 0.21621 0.0
C457 C 0.00731 0.99407 0.18397 0.0
C458 C 0.96125 0.01217 0.1808 0.0
C459 C 0.92369 0.98064 0.17381 0.0
C460 C 0.93358 0.92965 0.16947 0.0
C461 C 0.98093 0.9108 0.17149 0.0
C462 C 0.01792 0.94335 0.17942 0.0
H463 H 0.08588 0.96266 0.66509 0.0
H464 H 0.06567 0.85857 0.60256 0.0
H465 H 0.97868 0.87304 0.604 0.0
H466 H 0.97633 0.92731 0.69922 0.0
H467 H 0.96388 0.99084 0.70933 0.0
H468 H 0.02484 0.97094 0.70436 0.0
H469 H 0.03834 0.04412 0.67251 0.0
H470 H 0.97804 0.06493 0.67807 0.0
H471 H 0.99773 0.05158 0.64621 0.0
H472 H 0.8947 0.90239 0.61018 0.0
H473 H 0.82177 0.9531 0.61751 0.0
H474 H 0.89473 0.0337 0.6777 0.0
C475 C 0.06305 0.94337 0.65163 0.0
C476 C 0.08238 0.90965 0.63369 0.0
C477 C 0.05144 0.88452 0.61652 0.0
C478 C 0.00195 0.89211 0.6173 0.0
C479 C 0.9837 0.92443 0.63563 0.0
C480 C 0.01322 0.94995 0.65238 0.0
C481 C 0.98441 0.98435 0.66941 0.0
C482 C 0.98757 0.96732 0.69723 0.0
C483 C 0.00057 0.0395 0.66634 0.0
C484 C 0.93461 0.97578 0.65881 0.0
C485 C 0.93476 0.94032 0.63967 0.0
C486 C 0.89379 0.92961 0.62546 0.0
C487 C 0.85229 0.95811 0.62992 0.0
C488 C 0.85258 -0.00304 0.64825 0.0
C489 C 0.8934 0.0037 0.66378 0.0
H490 H 0.07946 0.11701 0.84773 0.0
H491 H 0.95795 0.1478 0.79934 0.0
H492 H 0.95174 0.05786 0.78874 0.0
H493 H 0.12515 -0.0014 0.80891 0.0
H494 H 0.14181 0.96833 0.83819 0.0
H495 H 0.14767 0.03573 0.83494 0.0
H496 H 0.09591 0.04754 0.8752 0.0
H497 H 0.08866 0.98072 0.8783 0.0
H498 H 0.03664 0.02064 0.87624 0.0
H499 H 0.94155 0.96665 0.7948 0.0
H500 H 0.93709 0.87969 0.81151 0.0
H501 H 0.06736 0.90537 0.85425 0.0
C502 C 0.05402 0.10504 0.83346 0.0
C503 C 0.01978 0.13911 0.82397 0.0
C504 C 0.98509 0.12217 0.80636 0.0
C505 C 0.98117 0.07106 0.80031 0.0
C506 C 0.0128 0.03744 0.81168 0.0
C507 C 0.04977 0.05378 0.8272 0.0
C508 C 0.07405 0.00949 0.84003 0.0
C509 C 0.12521 0.00264 0.82991 0.0
C510 C 0.07372 0.01496 0.86915 0.0
C511 C 0.042 0.96679 0.83135 0.0
C512 C 0.00747 0.98345 0.81461 0.0
C513 C 0.96954 0.95258 0.80708 0.0
C514 C 0.96692 0.90348 0.81687 0.0
C515 C 0.00213 0.88575 0.83391 0.0
C516 C 0.04059 0.91757 0.84073 0.0
H517 H 0.85586 0.0118 0.37589 0.0
H518 H 0.8703 0.90965 0.31266 0.0
H519 H 0.95044 0.94418 0.30328 0.0
H520 H 0.93334 0.12024 0.34689 0.0
H521 H 0.95693 0.13403 0.37794 0.0
H522 H 0.89611 0.11233 0.37453 0.0
H523 H 0.9142 0.04037 0.40622 0.0
H524 H 0.97534 0.06025 0.40902 0.0
H525 H 0.96188 0.99665 0.39937 0.0
H526 H 0.03549 0.97105 0.30898 0.0
H527 H 0.11458 0.00112 0.3241 0.0
H528 H 0.04413 0.08871 0.38257 0.0
C529 C 0.87452 -0.00038 0.35896 0.0
C530 C 0.85704 0.95883 0.34462 0.0
C531 C 0.88323 0.94153 0.32343 0.0
C532 C 0.92882 0.96076 0.31813 0.0
C533 C 0.94715 -0.00198 0.334 0.0
C534 C 0.92013 0.01871 0.35345 0.0
C535 C 0.95019 0.05348 0.36974 0.0
C536 C 0.93313 0.10828 0.3671 0.0
C537 C 0.95039 0.03662 0.39771 0.0
C538 C -0.00126 0.04621 0.35758 0.0
C539 C 0.99635 0.01447 0.33686 0.0
C540 C 0.03763 -0.00264 0.32462 0.0
C541 C 0.08236 0.01397 0.33351 0.0
C542 C 0.08522 0.04744 0.3543 0.0
C543 C 0.04282 0.06388 0.36628 0.0
loop_
_geom_bond_atom_site_label_1
_geom_bond_atom_site_label_2
_geom_bond_distance
_geom_bond_site_symmetry_2
_ccdc_geom_bond_type
Co0 O1 2.216 . S
Co0 O2 2.091 . S
Co0 O4 2.004 . S
Co0 O10 2.021 . S
Co0 O12 2.137 . S
Co0 O13 2.244 . S
O1 Co0 2.216 . S
O1 C8 1.247 . S
O2 Co0 2.091 . S
O2 C8 1.261 . S
C3 O12 1.247 . S
C3 O13 1.272 . S
O4 Co0 2.004 . S
O4 C9 1.259 . S
Co5 O6 2.061 1_655 S
Co5 O11 2.052 1_655 S
Co5 O13 2.135 1_655 S
O6 Co5 2.061 1_455 S
O6 C9 1.235 . S
C7 O10 1.238 . S
C7 O11 1.241 . S
C8 O1 1.247 . S
C8 O2 1.261 . S
C9 O4 1.259 . S
C9 O6 1.235 . S
O10 Co0 2.021 . S
O10 C7 1.238 . S
O11 Co5 2.052 1_455 S
O11 C7 1.241 . S
O12 Co0 2.137 . S
O12 C3 1.247 . S
O13 Co0 2.244 . S
O13 C3 1.272 . S
O13 Co5 2.135 1_455 S
Co14 O15 2.216 . S
Co14 O16 2.091 . S
Co14 O18 2.004 . S
Co14 O24 2.021 . S
Co14 O26 2.137 . S
Co14 O27 2.244 . S
O15 Co14 2.216 . S
O15 C22 1.247 . S
O16 Co14 2.091 . S
O16 C22 1.261 . S
C17 O26 1.247 . S
C17 O27 1.272 . S
O18 Co14 2.004 . S
O18 C23 1.259 . S
Co19 O20 2.061 . S
Co19 O25 2.052 . S
Co19 O27 2.135 . S
O20 Co19 2.061 . S
O20 C23 1.235 . S
C21 O24 1.238 . S
C21 O25 1.241 . S
C22 O15 1.247 . S
C22 O16 1.261 . S
C23 O18 1.259 . S
C23 O20 1.235 . S
O24 Co14 2.021 . S
O24 C21 1.238 . S
O25 Co19 2.052 . S
O25 C21 1.241 . S
O26 Co14 2.137 . S
O26 C17 1.247 . S
O27 Co14 2.244 . S
O27 C17 1.272 . S
O27 Co19 2.135 . S
Co28 O29 2.216 . S
Co28 O30 2.091 . S
Co28 O32 2.004 . S
Co28 O38 2.021 . S
Co28 O40 2.137 . S
Co28 O41 2.244 . S
O29 Co28 2.216 . S
O29 C36 1.247 . S
O30 Co28 2.091 . S
O30 C36 1.261 . S
C31 O40 1.247 . S
C31 O41 1.272 . S
O32 Co28 2.004 . S
O32 C37 1.259 . S
Co33 O34 2.061 1_455 S
Co33 O39 2.052 1_455 S
Co33 O41 2.135 1_455 S
O34 Co33 2.061 1_655 S
O34 C37 1.235 . S
C35 O38 1.238 . S
C35 O39 1.241 . S
C36 O29 1.247 . S
C36 O30 1.261 . S
C37 O32 1.259 . S
C37 O34 1.235 . S
O38 Co28 2.021 . S
O38 C35 1.238 . S
O39 Co33 2.052 1_655 S
O39 C35 1.241 . S
O40 Co28 2.137 . S
O40 C31 1.247 . S
O41 Co28 2.244 . S
O41 C31 1.272 . S
O41 Co33 2.135 1_655 S
Co42 O43 2.216 . S
Co42 O44 2.091 . S
Co42 O46 2.004 . S
Co42 O52 2.021 . S
Co42 O54 2.137 . S
Co42 O55 2.244 . S
O43 Co42 2.216 . S
O43 C50 1.247 . S
O44 Co42 2.091 . S
O44 C50 1.261 . S
C45 O54 1.247 . S
C45 O55 1.272 . S
O46 Co42 2.004 . S
O46 C51 1.259 . S
Co47 O48 2.061 . S
Co47 O53 2.052 . S
Co47 O55 2.135 . S
O48 Co47 2.061 . S
O48 C51 1.235 . S
C49 O52 1.238 . S
C49 O53 1.241 . S
C50 O43 1.247 . S
C50 O44 1.261 . S
C51 O46 1.259 . S
C51 O48 1.235 . S
O52 Co42 2.021 . S
O52 C49 1.238 . S
O53 Co47 2.052 . S
O53 C49 1.241 . S
O54 Co42 2.137 . S
O54 C45 1.247 . S
O55 Co42 2.244 . S
O55 C45 1.272 . S
O55 Co47 2.135 . S
Co56 O57 2.216 . S
Co56 O58 2.091 . S
Co56 O60 2.004 . S
Co56 O66 2.021 . S
Co56 O68 2.137 . S
Co56 O69 2.244 . S
O57 Co56 2.216 . S
O57 C64 1.247 . S
O58 Co56 2.091 . S
O58 C64 1.261 . S
C59 O68 1.247 . S
C59 O69 1.272 . S
O60 Co56 2.004 . S
O60 C65 1.259 . S
Co61 O62 2.061 1_655 S
Co61 O67 2.052 1_655 S
Co61 O69 2.135 1_655 S
O62 Co61 2.061 1_455 S
O62 C65 1.235 . S
C63 O66 1.238 . S
C63 O67 1.241 . S
C64 O57 1.247 . S
C64 O58 1.261 . S
C65 O60 1.259 . S
C65 O62 1.235 . S
O66 Co56 2.021 . S
O66 C63 1.238 . S
O67 Co61 2.052 1_455 S
O67 C63 1.241 . S
O68 Co56 2.137 . S
O68 C59 1.247 . S
O69 Co56 2.244 . S
O69 C59 1.272 . S
O69 Co61 2.135 1_455 S
Co70 O71 2.216 . S
Co70 O72 2.091 . S
Co70 O74 2.004 . S
Co70 O80 2.021 . S
Co70 O82 2.137 . S
Co70 O83 2.244 . S
O71 Co70 2.216 . S
O71 C78 1.247 . S
O72 Co70 2.091 . S
O72 C78 1.261 . S
C73 O82 1.247 . S
C73 O83 1.272 . S
O74 Co70 2.004 . S
O74 C79 1.259 . S
Co75 O76 2.061 . S
Co75 O81 2.052 . S
Co75 O83 2.135 . S
O76 Co75 2.061 . S
O76 C79 1.235 . S
C77 O80 1.238 . S
C77 O81 1.241 . S
C78 O71 1.247 . S
C78 O72 1.261 . S
C79 O74 1.259 . S
C79 O76 1.235 . S
O80 Co70 2.021 . S
O80 C77 1.238 . S
O81 Co75 2.052 . S
O81 C77 1.241 . S
O82 Co70 2.137 . S
O82 C73 1.247 . S
O83 Co70 2.244 . S
O83 C73 1.272 . S
O83 Co75 2.135 . S
Co84 O85 2.216 . S
Co84 O86 2.091 . S
Co84 O88 2.004 . S
Co84 O94 2.021 . S
Co84 O96 2.137 . S
Co84 O97 2.244 . S
O85 Co84 2.216 . S
O85 C92 1.247 . S
O86 Co84 2.091 . S
O86 C92 1.261 . S
C87 O96 1.247 . S
C87 O97 1.272 . S
O88 Co84 2.004 . S
O88 C93 1.259 . S
Co89 O90 2.061 1_455 S
Co89 O95 2.052 1_455 S
Co89 O97 2.135 1_455 S
O90 Co89 2.061 1_655 S
O90 C93 1.235 . S
C91 O94 1.238 . S
C91 O95 1.241 . S
C92 O85 1.247 . S
C92 O86 1.261 . S
C93 O88 1.259 . S
C93 O90 1.235 . S
O94 Co84 2.021 . S
O94 C91 1.238 . S
O95 Co89 2.052 1_655 S
O95 C91 1.241 . S
O96 Co84 2.137 . S
O96 C87 1.247 . S
O97 Co84 2.244 . S
O97 C87 1.272 . S
O97 Co89 2.135 1_655 S
Co98 O99 2.216 . S
Co98 O100 2.091 . S
Co98 O102 2.004 . S
Co98 O108 2.021 . S
Co98 O110 2.137 . S
Co98 O111 2.244 . S
O99 Co98 2.216 . S
O99 C106 1.247 . S
O100 Co98 2.091 . S
O100 C106 1.261 . S
C101 O110 1.247 . S
C101 O111 1.272 . S
O102 Co98 2.004 . S
O102 C107 1.259 . S
Co103 O104 2.061 . S
Co103 O109 2.052 . S
Co103 O111 2.135 . S
O104 Co103 2.061 . S
O104 C107 1.235 . S
C105 O108 1.238 . S
C105 O109 1.241 . S
C106 O99 1.247 . S
C106 O100 1.261 . S
C107 O102 1.259 . S
C107 O104 1.235 . S
O108 Co98 2.021 . S
O108 C105 1.238 . S
O109 Co103 2.052 . S
O109 C105 1.241 . S
O110 Co98 2.137 . S
O110 C101 1.247 . S
O111 Co98 2.244 . S
O111 C101 1.272 . S
O111 Co103 2.135 . S
H112 C124 0.930 1_655 S
H113 C126 0.930 . S
H114 C127 0.930 . S
H115 C131 0.959 . S
H116 C131 0.959 . S
H117 C131 0.961 . S
H118 C132 0.960 . S
H119 C132 0.961 . S
H120 C132 0.959 1_455 S
H121 C135 0.929 . S
H122 C136 0.934 . S
H123 C138 0.930 . S
C124 H112 0.930 1_455 S
C124 C125 1.399 . S
C124 C129 1.399 . S
C125 C124 1.399 . S
C125 C126 1.376 . S
C126 H113 0.930 . S
C126 C125 1.376 . S
C126 C127 1.388 . S
C127 H114 0.930 . S
C127 C126 1.388 . S
C127 C128 1.390 . S
C128 C127 1.390 . S
C128 C129 1.394 . S
C128 C134 1.465 . S
C129 C124 1.399 . S
C129 C128 1.394 . S
C129 C130 1.516 1_455 S
C130 C129 1.516 1_655 S
C130 C131 1.502 . S
C130 C132 1.561 . S
C130 C133 1.526 . S
C131 H115 0.959 . S
C131 H116 0.959 . S
C131 H117 0.961 . S
C131 C130 1.502 . S
C132 H118 0.960 . S
C132 H119 0.961 . S
C132 H120 0.959 1_655 S
C132 C130 1.561 . S
C133 C130 1.526 . S
C133 C134 1.396 1_655 S
C133 C138 1.390 . S
C134 C128 1.465 . S
C134 C133 1.396 1_455 S
C134 C135 1.399 . S
C135 H121 0.929 . S
C135 C134 1.399 . S
C135 C136 1.391 . S
C136 H122 0.934 . S
C136 C135 1.391 . S
C136 C137 1.381 1_455 S
C137 C136 1.381 1_655 S
C137 C138 1.387 . S
C138 H123 0.930 . S
C138 C133 1.390 . S
C138 C137 1.387 . S
H139 C151 0.930 . S
H140 C153 0.930 . S
H141 C154 0.930 . S
H142 C158 0.959 . S
H143 C158 0.959 . S
H144 C158 0.961 . S
H145 C159 0.960 . S
H146 C159 0.961 . S
H147 C159 0.959 1_545 S
H148 C162 0.929 . S
H149 C163 0.931 . S
H150 C165 0.930 1_565 S
C151 H139 0.930 . S
C151 C152 1.399 . S
C151 C156 1.399 . S
C152 C151 1.399 . S
C152 C153 1.376 1_565 S
C153 H140 0.930 . S
C153 C152 1.376 1_545 S
C153 C154 1.388 . S
C154 H141 0.930 . S
C154 C153 1.388 . S
C154 C155 1.390 . S
C155 C154 1.390 . S
C155 C156 1.394 1_545 S
C155 C161 1.465 . S
C156 C151 1.399 . S
C156 C155 1.394 1_565 S
C156 C157 1.516 . S
C157 C156 1.516 . S
C157 C158 1.502 . S
C157 C159 1.561 . S
C157 C160 1.526 1_565 S
C158 H142 0.959 . S
C158 H143 0.959 . S
C158 H144 0.961 . S
C158 C157 1.502 . S
C159 H145 0.960 . S
C159 H146 0.961 . S
C159 H147 0.959 1_565 S
C159 C157 1.561 . S
C160 C157 1.526 1_545 S
C160 C161 1.396 . S
C160 C165 1.390 . S
C161 C155 1.465 . S
C161 C160 1.396 . S
C161 C162 1.399 . S
C162 H148 0.929 . S
C162 C161 1.399 . S
C162 C163 1.385 . S
C163 H149 0.931 . S
C163 C162 1.385 . S
C163 C164 1.389 . S
C164 C163 1.389 . S
C164 C165 1.387 . S
C165 H150 0.930 1_545 S
C165 C160 1.390 . S
C165 C164 1.387 . S
H166 C178 0.930 . S
H167 C180 0.930 . S
H168 C181 0.930 . S
H169 C185 0.959 . S
H170 C185 0.959 . S
H171 C185 0.961 . S
H172 C186 0.960 . S
H173 C186 0.961 1_455 S
H174 C186 0.959 . S
H175 C189 0.929 . S
H176 C190 0.931 . S
H177 C192 0.930 . S
C178 H166 0.930 . S
C178 C179 1.399 . S
C178 C183 1.399 . S
C179 C178 1.399 . S
C179 C180 1.376 . S
C180 H167 0.930 . S
C180 C179 1.376 . S
C180 C181 1.388 . S
C181 H168 0.930 . S
C181 C180 1.388 . S
C181 C182 1.390 . S
C182 C181 1.390 . S
C182 C183 1.394 . S
C182 C188 1.465 . S
C183 C178 1.399 . S
C183 C182 1.394 . S
C183 C184 1.516 1_655 S
C184 C183 1.516 1_455 S
C184 C185 1.502 . S
C184 C186 1.561 1_455 S
C184 C187 1.526 . S
C185 H169 0.959 . S
C185 H170 0.959 . S
C185 H171 0.961 . S
C185 C184 1.502 . S
C186 H172 0.960 . S
C186 H173 0.961 1_655 S
C186 H174 0.959 . S
C186 C184 1.561 1_655 S
C187 C184 1.526 . S
C187 C188 1.396 1_455 S
C187 C192 1.390 . S
C188 C182 1.465 . S
C188 C187 1.396 1_655 S
C188 C189 1.399 . S
C189 H175 0.929 . S
C189 C188 1.399 . S
C189 C190 1.385 1_655 S
C190 H176 0.931 . S
C190 C189 1.385 1_455 S
C190 C191 1.389 . S
C191 C190 1.389 . S
C191 C192 1.387 . S
C192 H177 0.930 . S
C192 C187 1.390 . S
C192 C191 1.387 . S
H193 C205 0.930 . S
H194 C207 0.933 . S
H195 C208 0.930 . S
H196 C212 0.959 . S
H197 C212 0.959 . S
H198 C212 0.961 . S
H199 C213 0.961 . S
H200 C213 0.961 . S
H201 C213 0.957 1_565 S
H202 C216 0.929 . S
H203 C217 0.931 . S
H204 C219 0.930 1_545 S
C205 H193 0.930 . S
C205 C206 1.399 . S
C205 C210 1.399 . S
C206 C205 1.399 . S
C206 C207 1.370 1_545 S
C207 H194 0.933 . S
C207 C206 1.370 1_565 S
C207 C208 1.393 . S
C208 H195 0.930 . S
C208 C207 1.393 . S
C208 C209 1.390 . S
C209 C208 1.390 . S
C209 C210 1.394 1_565 S
C209 C215 1.465 . S
C210 C205 1.399 . S
C210 C209 1.394 1_545 S
C210 C211 1.516 . S
C211 C210 1.516 . S
C211 C212 1.502 . S
C211 C213 1.562 . S
C211 C214 1.526 1_545 S
C212 H196 0.959 . S
C212 H197 0.959 . S
C212 H198 0.961 . S
C212 C211 1.502 . S
C213 H199 0.961 . S
C213 H200 0.961 . S
C213 H201 0.957 1_545 S
C213 C211 1.562 . S
C214 C211 1.526 1_565 S
C214 C215 1.396 . S
C214 C219 1.390 . S
C215 C209 1.465 . S
C215 C214 1.396 . S
C215 C216 1.399 . S
C216 H202 0.929 . S
C216 C215 1.399 . S
C216 C217 1.385 . S
C217 H203 0.931 . S
C217 C216 1.385 . S
C217 C218 1.389 . S
C218 C217 1.389 . S
C218 C219 1.387 . S
C219 H204 0.930 1_565 S
C219 C214 1.390 . S
C219 C218 1.387 . S
H220 C232 0.930 . S
H221 C234 0.930 . S
H222 C235 0.930 . S
H223 C239 0.959 . S
H224 C239 0.948 1_554 S
H225 C239 0.961 . S
H226 C240 0.960 . S
H227 C240 0.961 . S
H228 C240 0.959 . S
H229 C243 0.929 . S
H230 C244 0.931 . S
H231 C246 0.930 . S
C232 H220 0.930 . S
C232 C233 1.399 . S
C232 C237 1.399 . S
C233 C232 1.399 . S
C233 C234 1.376 . S
C234 H221 0.930 . S
C234 C233 1.376 . S
C234 C235 1.388 . S
C235 H222 0.930 . S
C235 C234 1.388 . S
C235 C236 1.390 . S
C236 C235 1.390 . S
C236 C237 1.394 . S
C236 C242 1.465 1_656 S
C237 C232 1.399 . S
C237 C236 1.394 . S
C237 C238 1.516 1_556 S
C238 C237 1.516 1_554 S
C238 C239 1.502 1_654 S
C238 C240 1.561 . S
C238 C241 1.526 1_655 S
C239 H223 0.959 . S
C239 H224 0.948 1_556 S
C239 H225 0.961 . S
C239 C238 1.502 1_456 S
C240 H226 0.960 . S
C240 H227 0.961 . S
C240 H228 0.959 . S
C240 C238 1.561 . S
C241 C238 1.526 1_455 S
C241 C242 1.396 . S
C241 C246 1.390 . S
C242 C236 1.465 1_454 S
C242 C241 1.396 . S
C242 C243 1.399 . S
C243 H229 0.929 . S
C243 C242 1.399 . S
C243 C244 1.385 . S
C244 H230 0.931 . S
C244 C243 1.385 . S
C244 C245 1.389 . S
C245 C244 1.389 . S
C245 C246 1.387 . S
C246 H231 0.930 . S
C246 C241 1.390 . S
C246 C245 1.387 . S
H247 C259 0.930 . S
H248 C261 0.930 . S
H249 C262 0.930 . S
H250 C266 0.959 1_545 S
H251 C266 0.959 . S
H252 C266 0.961 . S
H253 C267 0.960 . S
H254 C267 0.961 . S
H255 C267 0.959 . S
H256 C270 0.926 1_545 S
H257 C271 0.931 . S
H258 C273 0.930 . S
C259 H247 0.930 . S
C259 C260 1.399 . S
C259 C264 1.399 . S
C260 C259 1.399 . S
C260 C261 1.376 . S
C261 H248 0.930 . S
C261 C260 1.376 . S
C261 C262 1.388 . S
C262 H249 0.930 . S
C262 C261 1.388 . S
C262 C263 1.390 . S
C263 C262 1.390 . S
C263 C264 1.394 . S
C263 C269 1.465 1_545 S
C264 C259 1.399 . S
C264 C263 1.394 . S
C264 C265 1.516 1_545 S
C265 C264 1.516 1_565 S
C265 C266 1.502 . S
C265 C267 1.561 . S
C265 C268 1.526 . S
C266 H250 0.959 1_565 S
C266 H251 0.959 . S
C266 H252 0.961 . S
C266 C265 1.502 . S
C267 H253 0.960 . S
C267 H254 0.961 . S
C267 H255 0.959 . S
C267 C265 1.561 . S
C268 C265 1.526 . S
C268 C269 1.396 . S
C268 C273 1.390 . S
C269 C263 1.465 1_565 S
C269 C268 1.396 . S
C269 C270 1.399 . S
C270 H256 0.926 1_565 S
C270 C269 1.399 . S
C270 C271 1.385 . S
C271 H257 0.931 . S
C271 C270 1.385 . S
C271 C272 1.389 . S
C272 C271 1.389 . S
C272 C273 1.387 . S
C273 H258 0.930 . S
C273 C268 1.390 . S
C273 C272 1.387 . S
H274 C286 0.930 . S
H275 C288 0.930 . S
H276 C289 0.930 1_455 S
H277 C293 0.959 . S
H278 C293 0.959 . S
H279 C293 0.961 . S
H280 C294 0.960 1_655 S
H281 C294 0.961 1_556 S
H282 C294 0.959 . S
H283 C297 0.929 . S
H284 C298 0.931 . S
H285 C300 0.930 . S
C286 H274 0.930 . S
C286 C287 1.399 . S
C286 C291 1.399 . S
C287 C286 1.399 . S
C287 C288 1.376 . S
C288 H275 0.930 . S
C288 C287 1.376 . S
C288 C289 1.388 . S
C289 H276 0.930 1_655 S
C289 C288 1.388 . S
C289 C290 1.390 . S
C290 C289 1.390 . S
C290 C291 1.394 . S
C290 C296 1.465 1_654 S
C291 C286 1.399 . S
C291 C290 1.394 . S
C291 C292 1.516 1_554 S
C292 C291 1.516 1_556 S
C292 C293 1.502 . S
C292 C294 1.561 1_656 S
C292 C295 1.526 1_655 S
C293 H277 0.959 . S
C293 H278 0.959 . S
C293 H279 0.961 . S
C293 C292 1.502 . S
C294 H280 0.960 1_455 S
C294 H281 0.961 1_554 S
C294 H282 0.959 . S
C294 C292 1.561 1_454 S
C295 C292 1.526 1_455 S
C295 C296 1.396 . S
C295 C300 1.390 . S
C296 C290 1.465 1_456 S
C296 C295 1.396 . S
C296 C297 1.399 . S
C297 H283 0.929 . S
C297 C296 1.399 . S
C297 C298 1.385 . S
C298 H284 0.931 . S
C298 C297 1.385 . S
C298 C299 1.389 . S
C299 C298 1.389 . S
C299 C300 1.387 . S
C300 H285 0.930 . S
C300 C295 1.390 . S
C300 C299 1.387 . S
H301 C313 0.930 . S
H302 C315 0.930 . S
H303 C316 0.930 . S
H304 C320 0.959 . S
H305 C320 0.959 . S
H306 C320 0.961 . S
H307 C321 0.960 . S
H308 C321 0.961 . S
H309 C321 0.959 . S
H310 C324 0.929 1_545 S
H311 C325 0.931 . S
H312 C327 0.930 . S
C313 H301 0.930 . S
C313 C314 1.399 . S
C313 C318 1.399 . S
C314 C313 1.399 . S
C314 C315 1.376 . S
C315 H302 0.930 . S
C315 C314 1.376 . S
C315 C316 1.388 . S
C316 H303 0.930 . S
C316 C315 1.388 . S
C316 C317 1.390 . S
C317 C316 1.390 . S
C317 C318 1.394 . S
C317 C323 1.465 1_545 S
C318 C313 1.399 . S
C318 C317 1.394 . S
C318 C319 1.516 1_545 S
C319 C318 1.516 1_565 S
C319 C320 1.502 . S
C319 C321 1.561 . S
C319 C322 1.526 . S
C320 H304 0.959 . S
C320 H305 0.959 . S
C320 H306 0.961 . S
C320 C319 1.502 . S
C321 H307 0.960 . S
C321 H308 0.961 . S
C321 H309 0.959 . S
C321 C319 1.561 . S
C322 C319 1.526 . S
C322 C323 1.396 . S
C322 C327 1.390 . S
C323 C317 1.465 1_565 S
C323 C322 1.396 . S
C323 C324 1.399 . S
C324 H310 0.929 1_565 S
C324 C323 1.399 . S
C324 C325 1.385 . S
C325 H311 0.931 . S
C325 C324 1.385 . S
C325 C326 1.389 . S
C326 C325 1.389 . S
C326 C327 1.387 . S
C327 H312 0.930 . S
C327 C322 1.390 . S
C327 C326 1.387 . S
H328 C340 0.930 . S
H329 C342 0.930 . S
H330 C343 0.930 . S
H331 C347 0.959 . S
H332 C347 0.959 . S
H333 C347 0.961 . S
H334 C348 0.960 . S
H335 C348 0.961 . S
H336 C348 0.959 . S
H337 C351 0.929 . S
H338 C352 0.931 . S
H339 C354 0.930 . S
C340 H328 0.930 . S
C340 C341 1.399 . S
C340 C345 1.399 . S
C341 C340 1.399 . S
C341 C342 1.376 . S
C342 H329 0.930 . S
C342 C341 1.376 . S
C342 C343 1.388 . S
C343 H330 0.930 . S
C343 C342 1.388 . S
C343 C344 1.390 . S
C344 C343 1.390 . S
C344 C345 1.394 . S
C344 C350 1.465 . S
C345 C340 1.399 . S
C345 C344 1.394 . S
C345 C346 1.516 . S
C346 C345 1.516 . S
C346 C347 1.502 . S
C346 C348 1.561 . S
C346 C349 1.526 . S
C347 H331 0.959 . S
C347 H332 0.959 . S
C347 H333 0.961 . S
C347 C346 1.502 . S
C348 H334 0.960 . S
C348 H335 0.961 . S
C348 H336 0.959 . S
C348 C346 1.561 . S
C349 C346 1.526 . S
C349 C350 1.396 . S
C349 C354 1.390 . S
C350 C344 1.465 . S
C350 C349 1.396 . S
C350 C351 1.399 . S
C351 H337 0.929 . S
C351 C350 1.399 . S
C351 C352 1.385 . S
C352 H338 0.931 . S
C352 C351 1.385 . S
C352 C353 1.389 . S
C353 C352 1.389 . S
C353 C354 1.387 . S
C354 H339 0.930 . S
C354 C349 1.390 . S
C354 C353 1.387 . S
H355 C367 0.930 . S
H356 C369 0.930 . S
H357 C370 0.930 . S
H358 C374 0.959 . S
H359 C374 0.959 . S
H360 C374 0.961 . S
H361 C375 0.960 . S
H362 C375 0.961 . S
H363 C375 0.959 . S
H364 C378 0.929 . S
H365 C379 0.931 . S
H366 C381 0.930 . S
C367 H355 0.930 . S
C367 C368 1.399 . S
C367 C372 1.399 . S
C368 C367 1.399 . S
C368 C369 1.376 . S
C369 H356 0.930 . S
C369 C368 1.376 . S
C369 C370 1.388 . S
C370 H357 0.930 . S
C370 C369 1.388 . S
C370 C371 1.390 . S
C371 C370 1.390 . S
C371 C372 1.394 . S
C371 C377 1.465 . S
C372 C367 1.399 . S
C372 C371 1.394 . S
C372 C373 1.516 . S
C373 C372 1.516 . S
C373 C374 1.502 . S
C373 C375 1.561 . S
C373 C376 1.526 . S
C374 H358 0.959 . S
C374 H359 0.959 . S
C374 H360 0.961 . S
C374 C373 1.502 . S
C375 H361 0.960 . S
C375 H362 0.961 . S
C375 H363 0.959 . S
C375 C373 1.561 . S
C376 C373 1.526 . S
C376 C377 1.396 . S
C376 C381 1.390 . S
C377 C371 1.465 . S
C377 C376 1.396 . S
C377 C378 1.399 . S
C378 H364 0.929 . S
C378 C377 1.399 . S
C378 C379 1.385 . S
C379 H365 0.931 . S
C379 C378 1.385 . S
C379 C380 1.389 . S
C380 C379 1.389 . S
C380 C381 1.387 . S
C381 H366 0.930 . S
C381 C376 1.390 . S
C381 C380 1.387 . S
H382 C394 0.930 . S
H383 C396 0.930 . S
H384 C397 0.930 . S
H385 C401 0.959 . S
H386 C401 0.959 . S
H387 C401 0.961 . S
H388 C402 0.960 . S
H389 C402 0.961 . S
H390 C402 0.959 . S
H391 C405 0.929 . S
H392 C406 0.931 . S
H393 C408 0.930 . S
C394 H382 0.930 . S
C394 C395 1.399 . S
C394 C399 1.399 . S
C395 C394 1.399 . S
C395 C396 1.376 . S
C396 H383 0.930 . S
C396 C395 1.376 . S
C396 C397 1.388 . S
C397 H384 0.930 . S
C397 C396 1.388 . S
C397 C398 1.390 . S
C398 C397 1.390 . S
C398 C399 1.394 . S
C398 C404 1.465 . S
C399 C394 1.399 . S
C399 C398 1.394 . S
C399 C400 1.516 . S
C400 C399 1.516 . S
C400 C401 1.502 . S
C400 C402 1.561 . S
C400 C403 1.526 . S
C401 H385 0.959 . S
C401 H386 0.959 . S
C401 H387 0.961 . S
C401 C400 1.502 . S
C402 H388 0.960 . S
C402 H389 0.961 . S
C402 H390 0.959 . S
C402 C400 1.561 . S
C403 C400 1.526 . S
C403 C404 1.396 . S
C403 C408 1.390 . S
C404 C398 1.465 . S
C404 C403 1.396 . S
C404 C405 1.399 . S
C405 H391 0.929 . S
C405 C404 1.399 . S
C405 C406 1.385 . S
C406 H392 0.931 . S
C406 C405 1.385 . S
C406 C407 1.389 . S
C407 C406 1.389 . S
C407 C408 1.387 . S
C408 H393 0.930 . S
C408 C403 1.390 . S
C408 C407 1.387 . S
H409 C421 0.930 . S
H410 C423 0.930 . S
H411 C424 0.930 . S
H412 C428 0.959 . S
H413 C428 0.959 . S
H414 C428 0.961 . S
H415 C429 0.960 . S
H416 C429 0.961 . S
H417 C429 0.959 . S
H418 C432 0.929 . S
H419 C433 0.931 . S
H420 C435 0.930 . S
C421 H409 0.930 . S
C421 C422 1.399 . S
C421 C426 1.399 . S
C422 C421 1.399 . S
C422 C423 1.376 . S
C423 H410 0.930 . S
C423 C422 1.376 . S
C423 C424 1.388 . S
C424 H411 0.930 . S
C424 C423 1.388 . S
C424 C425 1.390 . S
C425 C424 1.390 . S
C425 C426 1.394 . S
C425 C431 1.465 . S
C426 C421 1.399 . S
C426 C425 1.394 . S
C426 C427 1.516 . S
C427 C426 1.516 . S
C427 C428 1.502 . S
C427 C429 1.561 . S
C427 C430 1.526 . S
C428 H412 0.959 . S
C428 H413 0.959 . S
C428 H414 0.961 . S
C428 C427 1.502 . S
C429 H415 0.960 . S
C429 H416 0.961 . S
C429 H417 0.959 . S
C429 C427 1.561 . S
C430 C427 1.526 . S
C430 C431 1.396 . S
C430 C435 1.390 . S
C431 C425 1.465 . S
C431 C430 1.396 . S
C431 C432 1.399 . S
C432 H418 0.929 . S
C432 C431 1.399 . S
C432 C433 1.385 . S
C433 H419 0.931 . S
C433 C432 1.385 . S
C433 C434 1.389 . S
C434 C433 1.389 . S
C434 C435 1.387 . S
C435 H420 0.930 . S
C435 C430 1.390 . S
C435 C434 1.387 . S
H436 C448 0.930 . S
H437 C450 0.930 . S
H438 C451 0.930 . S
H439 C455 0.959 . S
H440 C455 0.959 . S
H441 C455 0.961 1_545 S
H442 C456 0.960 . S
H443 C456 0.961 1_565 S
H444 C456 0.959 . S
H445 C459 0.929 . S
H446 C460 0.931 . S
H447 C462 0.930 . S
C448 H436 0.930 . S
C448 C449 1.399 . S
C448 C453 1.399 . S
C449 C448 1.399 . S
C449 C450 1.376 . S
C450 H437 0.930 . S
C450 C449 1.376 . S
C450 C451 1.388 1_455 S
C451 H438 0.930 . S
C451 C450 1.388 1_655 S
C451 C452 1.390 . S
C452 C451 1.390 . S
C452 C453 1.394 1_655 S
C452 C458 1.465 1_545 S
C453 C448 1.399 . S
C453 C452 1.394 1_455 S
C453 C454 1.516 1_545 S
C454 C453 1.516 1_565 S
C454 C455 1.502 . S
C454 C456 1.561 1_465 S
C454 C457 1.526 1_455 S
C455 H439 0.959 . S
C455 H440 0.959 . S
C455 H441 0.961 1_565 S
C455 C454 1.502 . S
C456 H442 0.960 . S
C456 H443 0.961 1_545 S
C456 H444 0.959 . S
C456 C454 1.561 1_645 S
C457 C454 1.526 1_655 S
C457 C458 1.396 . S
C457 C462 1.390 . S
C458 C452 1.465 1_565 S
C458 C457 1.396 . S
C458 C459 1.399 . S
C459 H445 0.929 . S
C459 C458 1.399 . S
C459 C460 1.385 . S
C460 H446 0.931 . S
C460 C459 1.385 . S
C460 C461 1.389 . S
C461 C460 1.389 . S
C461 C462 1.387 . S
C462 H447 0.930 . S
C462 C457 1.390 . S
C462 C461 1.387 . S
H463 C475 0.930 . S
H464 C477 0.930 . S
H465 C478 0.930 . S
H466 C482 0.959 . S
H467 C482 0.959 . S
H468 C482 0.961 1_455 S
H469 C483 0.961 1_465 S
H470 C483 0.960 1_565 S
H471 C483 0.959 1_455 S
H472 C486 0.929 . S
H473 C487 0.931 . S
H474 C489 0.930 1_565 S
C475 H463 0.930 . S
C475 C476 1.399 . S
C475 C480 1.399 . S
C476 C475 1.399 . S
C476 C477 1.376 1_565 S
C477 H464 0.930 . S
C477 C476 1.376 1_545 S
C477 C478 1.388 . S
C478 H465 0.930 . S
C478 C477 1.388 . S
C478 C479 1.390 . S
C479 C478 1.390 . S
C479 C480 1.394 1_545 S
C479 C485 1.465 1_455 S
C480 C475 1.399 . S
C480 C479 1.394 1_565 S
C480 C481 1.516 1_455 S
C481 C480 1.516 1_655 S
C481 C482 1.502 . S
C481 C483 1.561 1_565 S
C481 C484 1.519 1_565 S
C482 H466 0.959 . S
C482 H467 0.959 . S
C482 H468 0.961 1_655 S
C482 C481 1.502 . S
C483 H469 0.961 1_645 S
C483 H470 0.960 1_545 S
C483 H471 0.959 1_655 S
C483 C481 1.561 1_545 S
C484 C481 1.519 1_545 S
C484 C485 1.402 . S
C484 C489 1.391 . S
C485 C479 1.465 1_655 S
C485 C484 1.402 . S
C485 C486 1.399 . S
C486 H472 0.929 . S
C486 C485 1.399 . S
C486 C487 1.385 . S
C487 H473 0.931 . S
C487 C486 1.385 . S
C487 C488 1.389 . S
C488 C487 1.389 . S
C488 C489 1.387 . S
C489 H474 0.930 1_545 S
C489 C484 1.391 . S
C489 C488 1.387 . S
H490 C502 0.930 . S
H491 C504 0.930 . S
H492 C505 0.930 . S
H493 C509 0.959 . S
H494 C509 0.959 1_565 S
H495 C509 0.961 . S
H496 C510 0.960 1_545 S
H497 C510 0.961 . S
H498 C510 0.959 . S
H499 C513 0.929 . S
H500 C514 0.931 . S
H501 C516 0.930 . S
C502 H490 0.930 . S
C502 C503 1.399 . S
C502 C507 1.399 . S
C503 C502 1.399 . S
C503 C504 1.376 . S
C504 H491 0.930 . S
C504 C503 1.376 . S
C504 C505 1.388 . S
C505 H492 0.930 . S
C505 C504 1.388 . S
C505 C506 1.390 . S
C506 C505 1.390 . S
C506 C507 1.394 . S
C506 C512 1.465 1_545 S
C507 C502 1.399 . S
C507 C506 1.394 . S
C507 C508 1.516 1_655 S
C508 C507 1.516 1_455 S
C508 C509 1.502 . S
C508 C510 1.561 1_445 S
C508 C511 1.526 1_545 S
C509 H493 0.959 . S
C509 H494 0.959 1_545 S
C509 H495 0.961 . S
C509 C508 1.502 . S
C510 H496 0.960 1_565 S
C510 H497 0.961 . S
C510 H498 0.959 . S
C510 C508 1.561 1_665 S
C511 C508 1.526 1_565 S
C511 C512 1.396 1_455 S
C511 C516 1.390 . S
C512 C506 1.465 1_565 S
C512 C511 1.396 1_655 S
C512 C513 1.399 . S
C513 H499 0.929 . S
C513 C512 1.399 . S
C513 C514 1.385 1_655 S
C514 H500 0.931 . S
C514 C513 1.385 1_455 S
C514 C515 1.389 . S
C515 C514 1.389 . S
C515 C516 1.387 . S
C516 H501 0.930 . S
C516 C511 1.390 . S
C516 C515 1.387 . S
H517 C529 0.930 . S
H518 C531 0.930 . S
H519 C532 0.930 . S
H520 C536 0.959 . S
H521 C536 0.959 1_455 S
H522 C536 0.961 . S
H523 C537 0.960 1_655 S
H524 C537 0.961 . S
H525 C537 0.959 . S
H526 C540 0.929 . S
H527 C541 0.931 . S
H528 C543 0.930 . S
C529 H517 0.930 . S
C529 C530 1.399 . S
C529 C534 1.399 . S
C530 C529 1.399 . S
C530 C531 1.376 . S
C531 H518 0.930 . S
C531 C530 1.376 . S
C531 C532 1.388 . S
C532 H519 0.930 . S
C532 C531 1.388 . S
C532 C533 1.390 . S
C533 C532 1.390 . S
C533 C534 1.394 . S
C533 C539 1.465 1_655 S
C534 C529 1.399 . S
C534 C533 1.394 . S
C534 C535 1.516 1_565 S
C535 C534 1.516 1_545 S
C535 C536 1.502 . S
C535 C537 1.561 1_645 S
C535 C538 1.526 1_655 S
C536 H520 0.959 . S
C536 H521 0.959 1_655 S
C536 H522 0.961 . S
C536 C535 1.502 . S
C537 H523 0.960 1_455 S
C537 H524 0.961 . S
C537 H525 0.959 . S
C537 C535 1.561 1_465 S
C538 C535 1.526 1_455 S
C538 C539 1.396 1_545 S
C538 C543 1.390 . S
C539 C533 1.465 1_455 S
C539 C538 1.396 1_565 S
C539 C540 1.399 . S
C540 H526 0.929 . S
C540 C539 1.399 . S
C540 C541 1.385 1_565 S
C541 H527 0.931 . S
C541 C540 1.385 1_545 S
C541 C542 1.389 . S
C542 C541 1.389 . S
C542 C543 1.387 . S
C543 H528 0.930 . S
C543 C538 1.390 . S
C543 C542 1.387 . S
C125 C3 1.355 . S
C137 C31 1.374 . S
C152 C50 1.401 . S
C164 C22 1.402 . S
C179 C87 1.354 . S
C191 C59 1.369 . S
C206 C78 1.401 . S
C218 C106 1.402 . S
C233 C93 1.549 . S
C245 C9 1.511 . S
C260 C21 1.626 . S
C272 C105 1.609 . S
C287 C37 1.470 . S
C299 C65 1.551 . S
C314 C77 1.638 . S
C326 C49 1.592 . S
C341 C8 1.468 . S
C353 C73 1.378 . S
C368 C92 1.435 . S
C380 C17 1.373 . S
C395 C101 1.381 . S
C407 C36 1.472 . S
C422 C45 1.447 . S
C434 C64 1.437 . S
C449 C7 0.913 . S
C461 C35 0.922 . S
C476 C51 0.991 . S
C488 C23 0.904 . S
C503 C91 0.978 . S
C515 C63 0.970 . S
C530 C107 0.921 . S
C542 C79 0.983 . S
