# Generated by pormake.
# Topology uoc, (4)-cn, num edge types: 1
# Building blocks:
#     Node 0, Type 0, BuildingBlock: ESEHIV_clean_sbu_0, # of connection points: 4
#     Node 1, Type 0, BuildingBlock: ESEHIV_clean_sbu_0, # of connection points: 4
#     Node 2, Type 0, BuildingBlock: ESEHIV_clean_sbu_0, # of connection points: 4
#     Node 3, Type 0, BuildingBlock: ESEHIV_clean_sbu_0, # of connection points: 4
#     Node 4, Type 0, BuildingBlock: ESEHIV_clean_sbu_0, # of connection points: 4
#     Node 5, Type 0, BuildingBlock: ESEHIV_clean_sbu_0, # of connection points: 4
#     Node 6, Type 0, BuildingBlock: ESEHIV_clean_sbu_0, # of connection points: 4
#     Node 7, Type 0, BuildingBlock: ESEHIV_clean_sbu_0, # of connection points: 4
#     Edge 8, Type (0, 0), BuildingBlock: KIFKEQ_clean_linker_1, # of connection points: 2
#     Edge 9, Type (0, 0), BuildingBlock: KIFKEQ_clean_linker_1, # of connection points: 2
#     Edge 10, Type (0, 0), BuildingBlock: KIFKEQ_clean_linker_1, # of connection points: 2
#     Edge 11, Type (0, 0), BuildingBlock: KIFKEQ_clean_linker_1, # of connection points: 2
#     Edge 12, Type (0, 0), BuildingBlock: KIFKEQ_clean_linker_1, # of connection points: 2
#     Edge 13, Type (0, 0), BuildingBlock: KIFKEQ_clean_linker_1, # of connection points: 2
#     Edge 14, Type (0, 0), BuildingBlock: KIFKEQ_clean_linker_1, # of connection points: 2
#     Edge 15, Type (0, 0), BuildingBlock: KIFKEQ_clean_linker_1, # of connection points: 2
#     Edge 16, Type (0, 0), BuildingBlock: KIFKEQ_clean_linker_1, # of connection points: 2
#     Edge 17, Type (0, 0), BuildingBlock: KIFKEQ_clean_linker_1, # of connection points: 2
#     Edge 18, Type (0, 0), BuildingBlock: KIFKEQ_clean_linker_1, # of connection points: 2
#     Edge 19, Type (0, 0), BuildingBlock: KIFKEQ_clean_linker_1, # of connection points: 2
#     Edge 20, Type (0, 0), BuildingBlock: KIFKEQ_clean_linker_1, # of connection points: 2
#     Edge 21, Type (0, 0), BuildingBlock: KIFKEQ_clean_linker_1, # of connection points: 2
#     Edge 22, Type (0, 0), BuildingBlock: KIFKEQ_clean_linker_1, # of connection points: 2
#     Edge 23, Type (0, 0), BuildingBlock: KIFKEQ_clean_linker_1, # of connection points: 2
# Relax obj value: 0.054
# Max RMSD: 0.263
# Mean RMSD: 0.263
data_MOF--net-uoc--node1-ESEHIV_clean_sbu_0--edge1-KIFKEQ_clean_linker_1
_symmetry_space_group_name_H-M    P1
_symmetry_Int_Tables_number       1
_symmetry_cell_setting            triclinic
loop_
_symmetry_equiv_pos_as_xyz
'x, y, z'
_cell_length_a     33.293356
_cell_length_b     33.267037
_cell_length_c     51.984719
_cell_angle_alpha  89.812899
_cell_angle_beta   90.223661
_cell_angle_gamma 91.768889
loop_
_atom_site_label
_atom_site_type_symbol
_atom_site_fract_x
_atom_site_fract_y
_atom_site_fract_z
_atom_type_partial_charge
Cu0 Cu 0.10053 0.26621 0.15868 0.0
N1 N 0.07112 0.22246 0.17207 0.0
N2 N 0.04763 0.16049 0.18127 0.0
C3 C 0.07274 0.18308 0.16634 0.0
C4 C 0.02942 0.18681 0.19674 0.0
C5 C 0.04396 0.22491 0.19101 0.0
O6 O 0.12771 0.25275 0.12699 0.0
C7 C 0.15384 0.26451 0.20125 0.0
O8 O 0.14982 0.22532 0.19871 0.0
H9 H 0.09255 0.17118 0.152 0.0
H10 H 0.03565 0.25259 0.20015 0.0
N11 N 0.0642 0.30561 0.15046 0.0
N12 N 0.03634 0.36518 0.14486 0.0
C13 C 0.06833 0.34557 0.15407 0.0
C14 C 0.02848 0.29965 0.13871 0.0
C15 C 1.01121 0.33635 0.1352 0.0
C16 C 0.15403 0.22619 0.12425 0.0
O17 O 0.16585 0.20556 0.14433 0.0
H18 H 0.09466 0.35996 0.16271 0.0
H19 H 1.01607 0.2706 0.13296 0.0
O20 O 0.13661 0.28728 0.18517 0.0
H21 H 1.00703 0.17919 0.21114 0.0
H22 H 0.9823 0.34136 0.12635 0.0
Cu23 Cu 0.77987 0.61067 0.42732 0.0
N24 N 0.73856 0.57213 0.42205 0.0
N25 N 0.67855 0.54189 0.41546 0.0
C26 C 0.69877 0.57724 0.41926 0.0
C27 C 0.70668 0.51358 0.41585 0.0
C28 C 0.74356 0.53229 0.41997 0.0
O29 O 0.76695 0.64502 0.45604 0.0
C30 C 0.79086 0.62275 0.37436 0.0
O31 O 0.7827 0.58387 0.37387 0.0
H32 H 0.68496 0.60619 0.41945 0.0
H33 H 0.77217 0.51786 0.42121 0.0
N34 N 0.82543 0.58352 0.43724 0.0
N35 N 0.88691 0.5586 0.4389 0.0
C36 C 0.86112 0.58117 0.42532 0.0
C37 C 0.82869 0.56196 0.45901 0.0
C38 C 0.86648 0.54655 0.4601 0.0
C39 C 0.73765 0.66857 0.4568 0.0
O40 O 0.71459 0.67248 0.43645 0.0
H41 H 0.86785 0.59551 0.40706 0.0
H42 H 0.80515 0.55803 0.47317 0.0
O43 O 0.79089 0.64095 0.39588 0.0
H44 H 0.701 0.48158 0.41359 0.0
H45 H 0.87822 0.52861 0.47565 0.0
Cu46 Cu 0.4356 0.27329 0.65753 0.0
N47 N 0.47341 0.3119 0.66847 0.0
N48 N 0.50117 0.3722 0.67732 0.0
C49 C 0.46736 0.35154 0.6704 0.0
C50 C 0.52965 0.34441 0.67978 0.0
C51 C 0.51235 0.30713 0.67436 0.0
O52 O 0.4033 0.29817 0.63118 0.0
C53 C 0.38702 0.27658 0.70202 0.0
O54 O 0.38643 0.31519 0.69669 0.0
H55 H 0.439 0.36508 0.66594 0.0
H56 H 0.52722 0.27868 0.67424 0.0
N57 N 0.46173 0.23115 0.64206 0.0
N58 N 0.48331 0.17004 0.63301 0.0
C59 C 0.46651 0.19349 0.65092 0.0
C60 C 0.47622 0.23158 0.61795 0.0
C61 C 0.48946 0.19387 0.61227 0.0
C62 C 0.3788 0.27852 0.61681 0.0
O63 O 0.37084 0.24036 0.62179 0.0
H64 H 0.45631 0.18307 0.6696 0.0
H65 H 0.47598 0.25728 0.60515 0.0
O66 O 0.40513 0.2533 0.68689 0.0
H67 H 0.56072 0.35058 0.68503 0.0
H68 H 0.50216 0.18451 0.59419 0.0
Cu69 Cu 0.76835 0.9332 0.91855 0.0
N70 N 0.80749 0.97066 0.90784 0.0
N71 N 0.86703 1.00026 0.89939 0.0
C72 C 0.8471 0.97185 0.91339 0.0
C73 C 0.83896 1.01761 0.88465 0.0
C74 C 0.80224 0.99936 0.88997 0.0
O75 O 0.79021 0.90097 0.94621 0.0
C76 C 0.7224 0.87879 0.88601 0.0
O77 O 0.6974 0.87453 0.90537 0.0
H78 H 0.86128 0.951 0.92634 0.0
H79 H 0.77386 1.00546 0.88077 0.0
N80 N 0.72456 0.96077 0.93117 0.0
N81 N 0.66302 0.98417 0.937 0.0
C82 C 0.68754 0.96449 0.92098 0.0
C83 C 0.72362 0.97927 0.9541 0.0
C84 C 0.68578 0.99365 0.95779 0.0
C85 C 0.76759 0.88048 0.96135 0.0
O86 O 0.72861 0.87923 0.9573 0.0
H87 H 0.67837 0.95188 0.90265 0.0
H88 H 0.74859 0.98129 0.96745 0.0
O89 O 0.75385 0.90116 0.88848 0.0
H90 H 0.84477 0.04118 0.87062 0.0
H91 H 0.67574 1.00955 0.97459 0.0
Cu92 Cu 0.59061 0.77549 0.66625 0.0
N93 N 0.5539 0.73464 0.67509 0.0
N94 N 0.52754 0.67294 0.68146 0.0
C95 C 0.56114 0.69512 0.67614 0.0
C96 C 0.49809 0.69967 0.68391 0.0
C97 C 0.5145 0.73776 0.68 0.0
O98 O 0.62726 0.7534 0.64159 0.0
C99 C 0.64425 0.77902 0.70899 0.0
O100 O 0.65956 0.74673 0.69893 0.0
H101 H 0.5902 0.68284 0.67216 0.0
H102 H 0.49874 0.76571 0.68023 0.0
N103 N 0.56373 0.81618 0.64947 0.0
N104 N 0.54151 0.87633 0.63828 0.0
C105 C 0.5589 0.85445 0.65695 0.0
C106 C 0.5487 0.81374 0.62546 0.0
C107 C 0.53505 0.85083 0.61846 0.0
C108 C 0.65169 0.77502 0.62836 0.0
O109 O 0.6566 0.8134 0.63378 0.0
H110 H 0.56949 0.86643 0.67518 0.0
H111 H 0.54888 0.78706 0.61362 0.0
O112 O 0.61584 0.79622 0.69733 0.0
H113 H 0.46691 0.69223 0.68808 0.0
H114 H 0.52188 0.85865 0.60011 0.0
Cu115 Cu 0.27368 0.10154 0.90694 0.0
N116 N 0.22704 0.07885 0.89219 0.0
N117 N 0.16338 0.05886 0.88514 0.0
C118 C 0.19101 0.07019 0.90299 0.0
C119 C 0.1828 0.05988 0.86243 0.0
C120 C 0.22209 0.07192 0.86688 0.0
O121 O 0.26246 0.12698 0.93972 0.0
C122 C 0.27723 0.16312 0.86896 0.0
O123 O 0.23884 0.16626 0.874 0.0
H124 H 0.18461 0.0741 0.92321 0.0
H125 H 0.24516 0.07691 0.85252 0.0
N126 N 0.31001 0.06109 0.91292 0.0
N127 N 0.36782 0.02958 0.91807 0.0
C128 C 0.35037 0.06447 0.91185 0.0
C129 C 0.30149 0.02286 0.91995 0.0
C130 C 0.3371 1.00333 0.92319 0.0
C131 C 0.23222 0.14854 0.94378 0.0
O132 O 0.20748 0.156 0.92474 0.0
H133 H 0.36656 0.09225 0.90721 0.0
H134 H 0.27148 1.01023 0.92271 0.0
O135 O 0.29783 0.13866 0.88202 0.0
H136 H 0.16924 0.05328 0.8439 0.0
H137 H 0.34008 0.97219 0.92878 0.0
Cu138 Cu 0.93632 0.76086 0.16572 0.0
N139 N 0.97092 0.80112 0.17828 0.0
N140 N 1.00028 0.86144 0.18501 0.0
C141 C 0.9706 0.8406 0.17264 0.0
C142 C 0.01992 0.83381 0.19892 0.0
C143 C 1.00176 0.79663 0.19469 0.0
O144 O 0.90287 0.78339 0.13905 0.0
C145 C 0.88901 0.75855 0.21098 0.0
O146 O 0.89061 0.79792 0.20876 0.0
H147 H 0.94865 0.85372 0.15999 0.0
H148 H 1.01045 0.76824 0.20288 0.0
N149 N 0.96702 0.72135 0.15102 0.0
N150 N 0.99251 0.66177 0.14207 0.0
C151 C 0.96783 0.6822 0.15751 0.0
C152 C 0.99203 0.726 0.13092 0.0
C153 C 1.00779 0.68926 0.12531 0.0
C154 C 0.88225 0.76111 0.12381 0.0
O155 O 0.88109 0.722 0.12751 0.0
H156 H 0.94987 0.66886 0.1728 0.0
H157 H 0.99803 0.75411 0.12094 0.0
O158 O 0.90554 0.73736 0.19392 0.0
H159 H 0.0459 0.83986 0.21104 0.0
H160 H 0.02896 0.68331 0.11014 0.0
Cu161 Cu 0.27519 0.43865 0.40501 0.0
N162 N 0.32127 0.46476 0.39207 0.0
N163 N 0.38377 0.48974 0.38684 0.0
C164 C 0.35733 0.47192 0.4033 0.0
C165 C 0.36326 0.49446 0.36464 0.0
C166 C 0.32479 0.47916 0.36797 0.0
O167 O 0.28554 0.40882 0.43651 0.0
C168 C 0.27363 0.38227 0.3642 0.0
O169 O 0.31217 0.37974 0.36924 0.0
H170 H 0.36441 0.46314 0.42282 0.0
H171 H 0.30109 0.47789 0.35368 0.0
N172 N 0.23805 0.47739 0.4126 0.0
N173 N 0.17963 0.50788 0.41712 0.0
C174 C 0.19809 0.47476 0.40873 0.0
C175 C 0.24538 0.51328 0.42373 0.0
C176 C 0.20943 0.53218 0.42656 0.0
C177 C 0.31636 0.38802 0.44061 0.0
O178 O 0.34325 0.38455 0.4224 0.0
H179 H 0.18304 0.44897 0.39994 0.0
H180 H 0.27477 0.52457 0.42969 0.0
O181 O 0.25231 0.40456 0.37814 0.0
H182 H 0.37524 0.5078 0.34716 0.0
H183 H 0.20556 0.5611 0.43553 0.0
H184 H 0.19902 0.16275 0.1093 0.0
H185 H 0.1433 0.2693 0.08008 0.0
H186 H 0.21969 0.14575 0.06581 0.0
H187 H 0.16502 0.25309 1.03682 0.0
H188 H 0.16534 0.1863 0.96022 0.0
H189 H 0.14886 0.20612 1.0038 0.0
H190 H 0.26304 0.16365 1.03069 0.0
H191 H 0.27899 0.14261 0.98709 0.0
C192 C 0.19163 0.18283 0.09365 0.0
C193 C 0.16926 0.21723 0.09817 0.0
C194 C 0.20367 0.1732 0.06869 0.0
C195 C 0.19383 0.19789 0.04768 0.0
C196 C 0.17244 0.2329 0.05239 0.0
C197 C 0.16018 0.24236 0.07728 0.0
C198 C 0.18707 0.18137 0.97538 0.0
C199 C 0.22346 0.16279 0.97013 0.0
C200 C 0.17771 0.19297 1.00042 0.0
C201 C 0.20461 0.18656 1.02088 0.0
C202 C 0.24133 0.16854 1.01553 0.0
C203 C 0.2506 0.15671 0.99047 0.0
H204 H 0.78354 0.59465 0.32531 0.0
H205 H 0.82235 0.6995 0.36863 0.0
H206 H 0.80365 0.62817 0.28557 0.0
H207 H 0.84376 0.73274 0.32881 0.0
H208 H 0.8486 0.79411 0.25026 0.0
H209 H 0.82184 0.76243 0.28925 0.0
H210 H 0.86347 0.64762 0.26349 0.0
H211 H 0.88903 0.67899 0.2243 0.0
C212 C 0.79646 0.62488 0.32637 0.0
C213 C 0.80151 0.64431 0.35019 0.0
C214 C 0.80824 0.64405 0.30354 0.0
C215 C 0.82572 0.68308 0.3039 0.0
C216 C 0.83003 0.70286 0.32772 0.0
C217 C 0.81794 0.68373 0.35059 0.0
C218 C 0.85174 0.76204 0.25284 0.0
C219 C 0.87093 0.73911 0.23411 0.0
C220 C 0.83665 0.74391 0.27531 0.0
C221 C 0.8405 0.70242 0.27963 0.0
C222 C 0.85932 0.67949 0.26071 0.0
C223 C 0.87421 0.69756 0.23823 0.0
H224 H 0.31828 0.25133 0.58475 0.0
H225 H 0.40889 0.34627 0.59321 0.0
H226 H 0.30096 0.27769 0.54214 0.0
H227 H 0.39202 0.37185 0.55061 0.0
H228 H 0.38744 0.36473 0.46127 0.0
H229 H 0.39966 0.33934 0.50467 0.0
H230 H 0.27329 0.34564 0.5217 0.0
H231 H 0.26097 0.37188 0.47835 0.0
C232 C 0.33419 0.27799 0.57766 0.0
C233 C 0.36497 0.29666 0.59236 0.0
C234 C 0.32425 0.29304 0.55332 0.0
C235 C 0.34545 0.32653 0.54306 0.0
C236 C 0.37551 0.34574 0.55799 0.0
C237 C 0.38492 0.33122 0.58246 0.0
C238 C 0.3622 0.36051 0.47418 0.0
C239 C 0.32325 0.37038 0.46639 0.0
C240 C 0.36926 0.34622 0.49906 0.0
C241 C 0.33743 0.34075 0.51652 0.0
C242 C 0.2983 0.34954 0.50857 0.0
C243 C 0.29133 0.36463 0.48382 0.0
H244 H 0.77209 0.87027 0.84471 0.0
H245 H 0.64998 0.84697 0.86982 0.0
H246 H 0.75428 0.84501 0.80191 0.0
H247 H 0.63227 0.82202 0.82698 0.0
H248 H 0.60774 0.83328 0.73969 0.0
H249 H 0.62752 0.85497 0.78279 0.0
H250 H 0.73054 0.77952 0.77978 0.0
H251 H 0.71063 0.75739 0.73656 0.0
C252 C 0.74154 0.85951 0.84116 0.0
C253 C 0.71242 0.86072 0.86066 0.0
C254 C 0.73142 0.84492 0.81668 0.0
C255 C 0.69185 0.83179 0.81109 0.0
C256 C 0.66291 0.83234 0.83069 0.0
C257 C 0.67314 0.84639 0.85527 0.0
C258 C 0.63471 0.82138 0.74812 0.0
C259 C 0.65761 0.79356 0.73467 0.0
C260 C 0.64584 0.8336 0.7729 0.0
C261 C 0.6804 0.81873 0.7847 0.0
C262 C 0.70381 0.79154 0.7711 0.0
C263 C 0.69235 0.77883 0.7464 0.0
H264 H 0.30904 0.32915 0.33192 0.0
H265 H 0.19868 0.39154 0.3437 0.0
H266 H 0.28176 0.3007 0.29203 0.0
H267 H 0.17149 0.36294 0.30391 0.0
H268 H 0.15559 0.34279 0.21735 0.0
H269 H 0.185 0.3701 0.25691 0.0
H270 H 0.22759 0.2527 0.27687 0.0
H271 H 0.19834 0.2253 0.23726 0.0
C272 C 0.27888 0.33657 0.32612 0.0
C273 C 0.25608 0.36267 0.341 0.0
C274 C 0.26324 0.32018 0.30329 0.0
C275 C 0.2246 0.32983 0.29473 0.0
C276 C 0.20159 0.35543 0.30981 0.0
C277 C 0.21707 0.37154 0.33272 0.0
C278 C 0.17153 0.32284 0.23004 0.0
C279 C 0.17454 0.28183 0.22415 0.0
C280 C 0.18809 0.33844 0.25281 0.0
C281 C 0.20833 0.31348 0.2701 0.0
C282 C 0.21234 0.27272 0.26387 0.0
C283 C 0.19548 0.25703 0.2412 0.0
H284 H 0.71474 0.80554 0.59981 0.0
H285 H 0.62603 0.70799 0.60234 0.0
H286 H 0.73771 0.78161 0.55789 0.0
H287 H 0.64838 0.68499 0.5604 0.0
H288 H 0.66471 0.69541 0.47169 0.0
H289 H 0.6464 0.72143 0.51388 0.0
H290 H 0.7691 0.71204 0.53963 0.0
H291 H 0.78742 0.68506 0.4976 0.0
C292 C 0.70041 0.77888 0.59155 0.0
C293 C 0.66864 0.75864 0.60441 0.0
C294 C 0.71353 0.76527 0.56762 0.0
C295 C 0.69447 0.73176 0.55591 0.0
C296 C 0.66326 0.71113 0.56895 0.0
C297 C 0.65074 0.72417 0.59305 0.0
C298 C 0.68788 0.69929 0.48623 0.0
C299 C 0.72747 0.6881 0.48136 0.0
C300 C 0.67734 0.71394 0.51039 0.0
C301 C 0.70635 0.7185 0.52994 0.0
C302 C 0.74626 0.70885 0.52481 0.0
C303 C 0.75664 0.69335 0.50082 0.0
H304 H 0.39016 0.2001 0.72131 0.0
H305 H 0.3451 0.31752 0.73822 0.0
H306 H 0.36459 0.17505 0.7624 0.0
H307 H 0.31989 0.29246 0.77948 0.0
H308 H 0.24185 0.21739 0.83713 0.0
H309 H 0.26811 0.24562 0.79701 0.0
H310 H 0.37868 0.18338 0.80867 0.0
H311 H 0.35231 0.15474 0.84867 0.0
C312 C 0.37471 0.22057 0.73374 0.0
C313 C 0.36968 0.26084 0.72644 0.0
C314 C 0.36036 0.20628 0.75742 0.0
C315 C 0.34045 0.23183 0.77431 0.0
C316 C 0.33487 0.27194 0.76684 0.0
C317 C 0.34941 0.28631 0.74321 0.0
C318 C 0.27192 0.21001 0.83129 0.0
C319 C 0.29489 0.18365 0.84609 0.0
C320 C 0.28702 0.22631 0.80831 0.0
C321 C 0.32535 0.21648 0.79952 0.0
C322 C 0.34877 0.19103 0.81469 0.0
C323 C 0.33377 0.17488 0.83774 0.0
H324 H 0.88908 0.83864 0.10626 0.0
H325 H 0.83258 0.72315 0.08886 0.0
H326 H 0.86126 0.86635 0.06675 0.0
H327 H 0.80495 0.75095 0.04927 0.0
H328 H 0.72884 0.82971 0.99518 0.0
H329 H 0.75542 0.80083 1.03471 0.0
H330 H 0.87102 0.8583 1.0196 0.0
H331 H 0.84446 0.88741 0.98011 0.0
C332 C 0.87053 0.8192 0.09411 0.0
C333 C 0.86308 0.77864 0.10073 0.0
C334 C 0.85487 0.83503 0.07135 0.0
C335 C 0.83114 0.81077 0.0548 0.0
C336 C 0.82293 0.77046 0.0617 0.0
C337 C 0.83886 0.75453 0.08436 0.0
C338 C 0.75999 0.83603 1.00019 0.0
C339 C 0.7845 0.86093 0.98448 0.0
C340 C 0.77524 0.81935 1.02281 0.0
C341 C 0.81525 0.82746 1.03035 0.0
C342 C 0.83991 0.85193 1.01448 0.0
C343 C 0.82477 0.86835 0.99175 0.0
H344 H 0.02397 0.11347 0.22141 0.0
H345 H 0.05904 0.10926 0.14157 0.0
H346 H 1.0132 0.04089 0.22165 0.0
H347 H 0.0496 0.03616 0.14207 0.0
H348 H 0.9825 0.91261 0.14607 0.0
H349 H 0.99491 0.98519 0.14489 0.0
H350 H 0.05126 0.97983 0.21976 0.0
H351 H 0.03754 0.9076 0.22137 0.0
C352 C 0.02933 0.0971 0.20387 0.0
C353 C 0.04218 0.1173 0.18143 0.0
C354 C 0.02364 0.05536 0.20411 0.0
C355 C 0.03064 0.0327 0.1819 0.0
C356 C 0.04361 0.0528 0.15944 0.0
C357 C 0.04942 0.09464 0.15923 0.0
C358 C 0.99725 0.92692 0.16237 0.0
C359 C 1.00881 0.9042 0.18388 0.0
C360 C 1.00481 0.96848 0.16155 0.0
C361 C 0.02401 0.98831 0.18225 0.0
C362 C 0.03599 0.96555 0.20362 0.0
C363 C 0.0285 0.92402 0.20442 0.0
H364 H 0.14354 0.57989 0.42038 0.0
H365 H 0.11835 0.45203 0.4141 0.0
H366 H 0.07196 0.59136 0.42356 0.0
H367 H 0.04683 0.46377 0.41593 0.0
H368 H 0.929 0.49488 0.45518 0.0
H369 H 0.99954 0.48282 0.44786 0.0
H370 H 1.00886 0.58959 0.40043 0.0
H371 H 0.93842 0.60272 0.40879 0.0
C372 C 0.12286 0.5542 0.41954 0.0
C373 C 0.13703 0.51497 0.41724 0.0
C374 C 0.08168 0.56087 0.421 0.0
C375 C 0.05358 0.52848 0.4201 0.0
C376 C 0.06765 0.48938 0.41707 0.0
C377 C 0.1088 0.48269 0.41571 0.0
C378 C 0.94605 0.51598 0.44331 0.0
C379 C 0.92802 0.55003 0.43282 0.0
C380 C 0.98647 0.50873 0.43881 0.0
C381 C 1.00997 0.53525 0.42357 0.0
C382 C 0.99175 0.56882 0.41252 0.0
C383 C 0.95122 0.57611 0.41708 0.0
H384 H 0.56772 0.41833 0.66728 0.0
H385 H 0.44523 0.42337 0.69357 0.0
H386 H 0.57431 0.49145 0.66948 0.0
H387 H 0.45186 0.49636 0.69642 0.0
H388 H 0.46223 0.62669 0.66873 0.0
H389 H 0.45644 0.55359 0.66904 0.0
H390 H 0.57826 0.54791 0.69761 0.0
H391 H 0.58415 0.62117 0.69671 0.0
C392 C 0.54242 0.43507 0.67392 0.0
C393 C 0.50589 0.41516 0.6801 0.0
C394 C 0.54616 0.477 0.67524 0.0
C395 C 0.51354 0.49995 0.68301 0.0
C396 C 0.47734 0.47981 0.68982 0.0
C397 C 0.47353 0.43796 0.68826 0.0
C398 C 0.4876 0.60984 0.67533 0.0
C399 C 0.52366 0.62971 0.68266 0.0
C400 C 0.4843 0.56787 0.67556 0.0
C401 C 0.51688 0.54471 0.68337 0.0
C402 C 0.55279 0.56469 0.69106 0.0
C403 C 0.55617 0.60669 0.69061 0.0
H404 H 0.60719 0.99007 0.97442 0.0
H405 H 0.6226 0.99339 0.89199 0.0
H406 H 0.53577 1.00123 0.96904 0.0
H407 H 0.55059 1.00368 0.88655 0.0
H408 H 0.42804 0.06681 0.89118 0.0
H409 H 0.50004 0.05581 0.89522 0.0
H410 H 0.47578 0.96427 0.95265 0.0
H411 H 0.40408 0.97589 0.94905 0.0
C412 C 0.59541 0.9934 0.95513 0.0
C413 C 0.62071 0.99098 0.93363 0.0
C414 C 0.55432 0.99933 0.95204 0.0
C415 C 0.53746 1.00318 0.92737 0.0
C416 C 0.56273 1.00107 0.90582 0.0
C417 C 0.60389 0.99483 0.90892 0.0
C418 C 0.43811 0.0445 0.90475 0.0
C419 C 0.41026 0.02233 0.91985 0.0
C420 C 0.47932 0.03791 0.90687 0.0
C421 C 0.49363 1.00925 0.9243 0.0
C422 C 0.46576 0.98687 0.93923 0.0
C423 C 0.4246 0.99324 0.93698 0.0
H424 H 1.01192 0.61458 0.10193 0.0
H425 H 0.98979 0.61258 0.18372 0.0
H426 H 0.02381 0.54265 0.10292 0.0
H427 H 1.00078 0.54032 0.18462 0.0
H428 H 0.06567 0.4199 0.1792 0.0
H429 H 0.05612 0.49245 0.17865 0.0
H430 H 0.9837 0.47974 0.10988 0.0
H431 H 0.99399 0.40754 0.1101 0.0
C432 C 1.0098 0.59884 0.12014 0.0
C433 C 0.9999 0.61932 0.14275 0.0
C434 C 1.01621 0.55755 0.12066 0.0
C435 C 1.01311 0.53581 0.14383 0.0
C436 C 1.00366 0.55632 0.1665 0.0
C437 C 0.99697 0.5976 0.16595 0.0
C438 C 0.04799 0.43267 0.16387 0.0
C439 C 0.03059 0.40795 0.1447 0.0
C440 C 0.0422 0.47413 0.1637 0.0
C441 C 0.01918 0.49179 0.14421 0.0
C442 C 1.0019 0.46708 0.12501 0.0
C443 C 1.00745 0.42565 0.1253 0.0
H444 H 0.44311 0.49074 0.35142 0.0
H445 H 0.42007 0.50926 0.43214 0.0
H446 H 0.51436 0.50513 0.3586 0.0
H447 H 0.4919 0.52293 0.43946 0.0
H448 H 0.61849 0.58595 0.43472 0.0
H449 H 0.5462 0.57452 0.42804 0.0
H450 H 0.57009 0.47138 0.3809 0.0
H451 H 0.64204 0.4832 0.3872 0.0
C452 C 0.45319 0.49819 0.37068 0.0
C453 C 0.42585 0.49893 0.39121 0.0
C454 C 0.49412 0.50602 0.37484 0.0
C455 C 0.50875 0.515 0.3996 0.0
C456 C 0.48144 0.51633 0.42012 0.0
C457 C 0.44041 0.50815 0.41599 0.0
C458 C 0.60824 0.56106 0.42279 0.0
C459 C 0.63596 0.53549 0.41148 0.0
C460 C 0.56689 0.55428 0.41918 0.0
C461 C 0.5525 0.52208 0.40393 0.0
C462 C 0.58026 0.49665 0.39257 0.0
C463 C 0.62147 0.5032 0.39637 0.0
H464 H 0.47219 0.11508 0.59559 0.0
H465 H 0.51039 0.12946 0.67442 0.0
H466 H 0.48537 0.0437 0.59782 0.0
H467 H 0.52571 0.05807 0.67657 0.0
H468 H 0.51541 0.92011 0.67827 0.0
H469 H 0.49992 0.99152 0.67787 0.0
H470 H 0.53784 0.99957 0.59845 0.0
H471 H 0.55122 0.92817 0.59879 0.0
C472 C 0.48393 0.10289 0.61333 0.0
C473 C 0.49058 0.12773 0.63476 0.0
C474 C 0.49174 0.06197 0.61463 0.0
C475 C 0.50722 0.04492 0.63728 0.0
C476 C 0.51341 0.06986 0.65888 0.0
C477 C 0.50484 0.11079 0.65768 0.0
C478 C 0.52039 0.9374 0.66083 0.0
C479 C 0.53405 0.91867 0.63849 0.0
C480 C 0.51171 0.97834 0.66057 0.0
C481 C 0.5172 1.0015 0.63804 0.0
C482 C 0.53203 0.98268 0.61595 0.0
C483 C 0.53994 0.94175 0.61612 0.0
H484 H 0.91118 1.01294 0.8568 0.0
H485 H 0.91924 1.00403 0.93933 0.0
H486 H 0.98322 0.02612 0.85428 0.0
H487 H 0.99148 0.01976 0.9373 0.0
H488 H 0.12732 1.01409 0.92243 0.0
H489 H 0.05527 0.99845 0.92663 0.0
H490 H 0.0322 0.07479 0.86095 0.0
H491 H 0.10398 0.08785 0.85613 0.0
C492 C 0.92852 1.01444 0.87446 0.0
C493 C 0.90976 1.0078 0.89825 0.0
C494 C 0.96987 0.02229 0.87311 0.0
C495 C 0.99353 0.02474 0.89562 0.0
C496 C 0.97459 1.01771 0.9195 0.0
C497 C 0.93319 1.00891 0.92076 0.0
C498 C 0.10654 0.02735 0.90901 0.0
C499 C 0.12099 0.05166 0.88877 0.0
C500 C 0.06524 0.01865 0.91143 0.0
C501 C 0.03753 0.03486 0.89393 0.0
C502 C 0.05235 0.06053 0.87431 0.0
C503 C 0.09352 0.06836 0.87159 0.0
loop_
_geom_bond_atom_site_label_1
_geom_bond_atom_site_label_2
_geom_bond_distance
_geom_bond_site_symmetry_2
_ccdc_geom_bond_type
Cu0 N1 1.999 . S
Cu0 O6 1.974 . S
Cu0 N11 1.985 . S
Cu0 O20 1.959 . S
N1 Cu0 1.999 . S
N1 C3 1.263 . S
N1 C5 1.389 . S
N2 C3 1.358 . S
N2 C4 1.400 . S
C3 N1 1.263 . S
C3 N2 1.358 . S
C3 H9 0.930 . S
C4 N2 1.400 . S
C4 C5 1.351 . S
C4 H21 0.930 . S
C5 N1 1.389 . S
C5 C4 1.351 . S
C5 H10 0.930 . S
O6 Cu0 1.974 . S
O6 C16 1.282 . S
C7 O8 1.261 . S
C7 O20 1.251 . S
O8 C7 1.261 . S
H9 C3 0.930 . S
H10 C5 0.930 . S
N11 Cu0 1.985 . S
N11 C13 1.335 . S
N11 C14 1.390 . S
N12 C13 1.345 . S
N12 C15 1.336 . S
C13 N11 1.335 . S
C13 N12 1.345 . S
C13 H18 0.930 . S
C14 N11 1.390 . S
C14 C15 1.346 . S
C14 H19 0.930 . S
C15 N12 1.336 . S
C15 C14 1.346 . S
C15 H22 0.929 . S
C16 O6 1.282 . S
C16 O17 1.216 . S
O17 C16 1.216 . S
H18 C13 0.930 . S
H19 C14 0.930 . S
O20 Cu0 1.959 . S
O20 C7 1.251 . S
H21 C4 0.930 . S
H22 C15 0.929 . S
Cu23 N24 1.999 . S
Cu23 O29 1.974 . S
Cu23 N34 1.985 . S
Cu23 O43 1.959 . S
N24 Cu23 1.999 . S
N24 C26 1.263 . S
N24 C28 1.389 . S
N25 C26 1.358 . S
N25 C27 1.400 . S
C26 N24 1.263 . S
C26 N25 1.358 . S
C26 H32 0.930 . S
C27 N25 1.400 . S
C27 C28 1.351 . S
C27 H44 0.930 . S
C28 N24 1.389 . S
C28 C27 1.351 . S
C28 H33 0.930 . S
O29 Cu23 1.974 . S
O29 C39 1.282 . S
C30 O31 1.261 . S
C30 O43 1.251 . S
O31 C30 1.261 . S
H32 C26 0.930 . S
H33 C28 0.930 . S
N34 Cu23 1.985 . S
N34 C36 1.335 . S
N34 C37 1.390 . S
N35 C36 1.345 . S
N35 C38 1.336 . S
C36 N34 1.335 . S
C36 N35 1.345 . S
C36 H41 0.930 . S
C37 N34 1.390 . S
C37 C38 1.346 . S
C37 H42 0.930 . S
C38 N35 1.336 . S
C38 C37 1.346 . S
C38 H45 0.929 . S
C39 O29 1.282 . S
C39 O40 1.216 . S
O40 C39 1.216 . S
H41 C36 0.930 . S
H42 C37 0.930 . S
O43 Cu23 1.959 . S
O43 C30 1.251 . S
H44 C27 0.930 . S
H45 C38 0.929 . S
Cu46 N47 1.999 . S
Cu46 O52 1.974 . S
Cu46 N57 1.985 . S
Cu46 O66 1.959 . S
N47 Cu46 1.999 . S
N47 C49 1.263 . S
N47 C51 1.389 . S
N48 C49 1.358 . S
N48 C50 1.400 . S
C49 N47 1.263 . S
C49 N48 1.358 . S
C49 H55 0.930 . S
C50 N48 1.400 . S
C50 C51 1.351 . S
C50 H67 0.930 . S
C51 N47 1.389 . S
C51 C50 1.351 . S
C51 H56 0.930 . S
O52 Cu46 1.974 . S
O52 C62 1.282 . S
C53 O54 1.261 . S
C53 O66 1.251 . S
O54 C53 1.261 . S
H55 C49 0.930 . S
H56 C51 0.930 . S
N57 Cu46 1.985 . S
N57 C59 1.335 . S
N57 C60 1.390 . S
N58 C59 1.345 . S
N58 C61 1.336 . S
C59 N57 1.335 . S
C59 N58 1.345 . S
C59 H64 0.930 . S
C60 N57 1.390 . S
C60 C61 1.346 . S
C60 H65 0.930 . S
C61 N58 1.336 . S
C61 C60 1.346 . S
C61 H68 0.929 . S
C62 O52 1.282 . S
C62 O63 1.216 . S
O63 C62 1.216 . S
H64 C59 0.930 . S
H65 C60 0.930 . S
O66 Cu46 1.959 . S
O66 C53 1.251 . S
H67 C50 0.930 . S
H68 C61 0.929 . S
Cu69 N70 1.999 . S
Cu69 O75 1.974 . S
Cu69 N80 1.985 . S
Cu69 O89 1.959 . S
N70 Cu69 1.999 . S
N70 C72 1.263 . S
N70 C74 1.389 . S
N71 C72 1.358 . S
N71 C73 1.400 . S
C72 N70 1.263 . S
C72 N71 1.358 . S
C72 H78 0.930 . S
C73 N71 1.400 . S
C73 C74 1.351 . S
C73 H90 0.930 . S
C74 N70 1.389 . S
C74 C73 1.351 . S
C74 H79 0.930 . S
O75 Cu69 1.974 . S
O75 C85 1.282 . S
C76 O77 1.261 . S
C76 O89 1.251 . S
O77 C76 1.261 . S
H78 C72 0.930 . S
H79 C74 0.930 . S
N80 Cu69 1.985 . S
N80 C82 1.335 . S
N80 C83 1.390 . S
N81 C82 1.345 . S
N81 C84 1.336 . S
C82 N80 1.335 . S
C82 N81 1.345 . S
C82 H87 0.930 . S
C83 N80 1.390 . S
C83 C84 1.346 . S
C83 H88 0.930 . S
C84 N81 1.336 . S
C84 C83 1.346 . S
C84 H91 0.929 . S
C85 O75 1.282 . S
C85 O86 1.216 . S
O86 C85 1.216 . S
H87 C82 0.930 . S
H88 C83 0.930 . S
O89 Cu69 1.959 . S
O89 C76 1.251 . S
H90 C73 0.930 . S
H91 C84 0.929 . S
Cu92 N93 1.999 . S
Cu92 O98 1.974 . S
Cu92 N103 1.985 . S
Cu92 O112 1.959 . S
N93 Cu92 1.999 . S
N93 C95 1.263 . S
N93 C97 1.389 . S
N94 C95 1.358 . S
N94 C96 1.400 . S
C95 N93 1.263 . S
C95 N94 1.358 . S
C95 H101 0.930 . S
C96 N94 1.400 . S
C96 C97 1.351 . S
C96 H113 0.930 . S
C97 N93 1.389 . S
C97 C96 1.351 . S
C97 H102 0.930 . S
O98 Cu92 1.974 . S
O98 C108 1.282 . S
C99 O100 1.261 . S
C99 O112 1.251 . S
O100 C99 1.261 . S
H101 C95 0.930 . S
H102 C97 0.930 . S
N103 Cu92 1.985 . S
N103 C105 1.335 . S
N103 C106 1.390 . S
N104 C105 1.345 . S
N104 C107 1.336 . S
C105 N103 1.335 . S
C105 N104 1.345 . S
C105 H110 0.930 . S
C106 N103 1.390 . S
C106 C107 1.346 . S
C106 H111 0.930 . S
C107 N104 1.336 . S
C107 C106 1.346 . S
C107 H114 0.929 . S
C108 O98 1.282 . S
C108 O109 1.216 . S
O109 C108 1.216 . S
H110 C105 0.930 . S
H111 C106 0.930 . S
O112 Cu92 1.959 . S
O112 C99 1.251 . S
H113 C96 0.930 . S
H114 C107 0.929 . S
Cu115 N116 1.999 . S
Cu115 O121 1.974 . S
Cu115 N126 1.985 . S
Cu115 O135 1.959 . S
N116 Cu115 1.999 . S
N116 C118 1.263 . S
N116 C120 1.389 . S
N117 C118 1.358 . S
N117 C119 1.400 . S
C118 N116 1.263 . S
C118 N117 1.358 . S
C118 H124 0.930 . S
C119 N117 1.400 . S
C119 C120 1.351 . S
C119 H136 0.930 . S
C120 N116 1.389 . S
C120 C119 1.351 . S
C120 H125 0.930 . S
O121 Cu115 1.974 . S
O121 C131 1.282 . S
C122 O123 1.261 . S
C122 O135 1.251 . S
O123 C122 1.261 . S
H124 C118 0.930 . S
H125 C120 0.930 . S
N126 Cu115 1.985 . S
N126 C128 1.335 . S
N126 C129 1.390 . S
N127 C128 1.345 . S
N127 C130 1.336 . S
C128 N126 1.335 . S
C128 N127 1.345 . S
C128 H133 0.930 . S
C129 N126 1.390 . S
C129 C130 1.346 . S
C129 H134 0.930 . S
C130 N127 1.336 . S
C130 C129 1.346 . S
C130 H137 0.929 . S
C131 O121 1.282 . S
C131 O132 1.216 . S
O132 C131 1.216 . S
H133 C128 0.930 . S
H134 C129 0.930 . S
O135 Cu115 1.959 . S
O135 C122 1.251 . S
H136 C119 0.930 . S
H137 C130 0.929 . S
Cu138 N139 1.999 . S
Cu138 O144 1.974 . S
Cu138 N149 1.985 . S
Cu138 O158 1.959 . S
N139 Cu138 1.999 . S
N139 C141 1.263 . S
N139 C143 1.389 . S
N140 C141 1.358 . S
N140 C142 1.400 . S
C141 N139 1.263 . S
C141 N140 1.358 . S
C141 H147 0.930 . S
C142 N140 1.400 . S
C142 C143 1.351 . S
C142 H159 0.930 . S
C143 N139 1.389 . S
C143 C142 1.351 . S
C143 H148 0.930 . S
O144 Cu138 1.974 . S
O144 C154 1.282 . S
C145 O146 1.261 . S
C145 O158 1.251 . S
O146 C145 1.261 . S
H147 C141 0.930 . S
H148 C143 0.930 . S
N149 Cu138 1.985 . S
N149 C151 1.335 . S
N149 C152 1.390 . S
N150 C151 1.345 . S
N150 C153 1.336 . S
C151 N149 1.335 . S
C151 N150 1.345 . S
C151 H156 0.930 . S
C152 N149 1.390 . S
C152 C153 1.346 . S
C152 H157 0.930 . S
C153 N150 1.336 . S
C153 C152 1.346 . S
C153 H160 0.929 . S
C154 O144 1.282 . S
C154 O155 1.216 . S
O155 C154 1.216 . S
H156 C151 0.930 . S
H157 C152 0.930 . S
O158 Cu138 1.959 . S
O158 C145 1.251 . S
H159 C142 0.930 . S
H160 C153 0.929 . S
Cu161 N162 1.999 . S
Cu161 O167 1.974 . S
Cu161 N172 1.985 . S
Cu161 O181 1.959 . S
N162 Cu161 1.999 . S
N162 C164 1.263 . S
N162 C166 1.389 . S
N163 C164 1.358 . S
N163 C165 1.400 . S
C164 N162 1.263 . S
C164 N163 1.358 . S
C164 H170 0.930 . S
C165 N163 1.400 . S
C165 C166 1.351 . S
C165 H182 0.930 . S
C166 N162 1.389 . S
C166 C165 1.351 . S
C166 H171 0.930 . S
O167 Cu161 1.974 . S
O167 C177 1.282 . S
C168 O169 1.261 . S
C168 O181 1.251 . S
O169 C168 1.261 . S
H170 C164 0.930 . S
H171 C166 0.930 . S
N172 Cu161 1.985 . S
N172 C174 1.335 . S
N172 C175 1.390 . S
N173 C174 1.345 . S
N173 C176 1.336 . S
C174 N172 1.335 . S
C174 N173 1.345 . S
C174 H179 0.930 . S
C175 N172 1.390 . S
C175 C176 1.346 . S
C175 H180 0.930 . S
C176 N173 1.336 . S
C176 C175 1.346 . S
C176 H183 0.929 . S
C177 O167 1.282 . S
C177 O178 1.216 . S
O178 C177 1.216 . S
H179 C174 0.930 . S
H180 C175 0.930 . S
O181 Cu161 1.959 . S
O181 C168 1.251 . S
H182 C165 0.930 . S
H183 C176 0.929 . S
H184 C192 0.950 . S
H185 C197 0.950 . S
H186 C194 0.950 . S
H187 C196 0.950 1_556 S
H188 C198 0.950 . S
H189 C200 0.950 . S
H190 C202 0.950 1_554 S
H191 C203 0.950 . S
C192 H184 0.950 . S
C192 C193 1.386 . S
C192 C194 1.391 . S
C193 C192 1.386 . S
C193 C197 1.393 . S
C194 H186 0.950 . S
C194 C192 1.391 . S
C194 C195 1.400 . S
C195 C194 1.400 . S
C195 C196 1.398 . S
C195 C201 1.491 1_554 S
C196 H187 0.950 1_554 S
C196 C195 1.398 . S
C196 C197 1.391 . S
C197 H185 0.950 . S
C197 C193 1.393 . S
C197 C196 1.391 . S
C198 H188 0.950 . S
C198 C199 1.386 . S
C198 C200 1.391 . S
C199 C198 1.386 . S
C199 C203 1.393 . S
C200 H189 0.950 . S
C200 C198 1.391 . S
C200 C201 1.400 . S
C201 C195 1.491 1_556 S
C201 C200 1.400 . S
C201 C202 1.398 . S
C202 H190 0.950 1_556 S
C202 C201 1.398 . S
C202 C203 1.391 . S
C203 H191 0.950 . S
C203 C199 1.393 . S
C203 C202 1.391 . S
H204 C212 0.950 . S
H205 C217 0.950 . S
H206 C214 0.950 . S
H207 C216 0.950 . S
H208 C218 0.950 . S
H209 C220 0.950 . S
H210 C222 0.950 . S
H211 C223 0.950 . S
C212 H204 0.950 . S
C212 C213 1.386 . S
C212 C214 1.391 . S
C213 C212 1.386 . S
C213 C217 1.393 . S
C214 H206 0.950 . S
C214 C212 1.391 . S
C214 C215 1.400 . S
C215 C214 1.400 . S
C215 C216 1.398 . S
C215 C221 1.491 . S
C216 H207 0.950 . S
C216 C215 1.398 . S
C216 C217 1.391 . S
C217 H205 0.950 . S
C217 C213 1.393 . S
C217 C216 1.391 . S
C218 H208 0.950 . S
C218 C219 1.386 . S
C218 C220 1.391 . S
C219 C218 1.386 . S
C219 C223 1.393 . S
C220 H209 0.950 . S
C220 C218 1.391 . S
C220 C221 1.400 . S
C221 C215 1.491 . S
C221 C220 1.400 . S
C221 C222 1.398 . S
C222 H210 0.950 . S
C222 C221 1.398 . S
C222 C223 1.391 . S
C223 H211 0.950 . S
C223 C219 1.393 . S
C223 C222 1.391 . S
H224 C232 0.950 . S
H225 C237 0.950 . S
H226 C234 0.950 . S
H227 C236 0.950 . S
H228 C238 0.950 . S
H229 C240 0.950 . S
H230 C242 0.950 . S
H231 C243 0.950 . S
C232 H224 0.950 . S
C232 C233 1.386 . S
C232 C234 1.391 . S
C233 C232 1.386 . S
C233 C237 1.393 . S
C234 H226 0.950 . S
C234 C232 1.391 . S
C234 C235 1.400 . S
C235 C234 1.400 . S
C235 C236 1.398 . S
C235 C241 1.491 . S
C236 H227 0.950 . S
C236 C235 1.398 . S
C236 C237 1.391 . S
C237 H225 0.950 . S
C237 C233 1.393 . S
C237 C236 1.391 . S
C238 H228 0.950 . S
C238 C239 1.386 . S
C238 C240 1.391 . S
C239 C238 1.386 . S
C239 C243 1.393 . S
C240 H229 0.950 . S
C240 C238 1.391 . S
C240 C241 1.400 . S
C241 C235 1.491 . S
C241 C240 1.400 . S
C241 C242 1.398 . S
C242 H230 0.950 . S
C242 C241 1.398 . S
C242 C243 1.391 . S
C243 H231 0.950 . S
C243 C239 1.393 . S
C243 C242 1.391 . S
H244 C252 0.950 . S
H245 C257 0.950 . S
H246 C254 0.950 . S
H247 C256 0.950 . S
H248 C258 0.950 . S
H249 C260 0.950 . S
H250 C262 0.950 . S
H251 C263 0.950 . S
C252 H244 0.950 . S
C252 C253 1.386 . S
C252 C254 1.391 . S
C253 C252 1.386 . S
C253 C257 1.393 . S
C254 H246 0.950 . S
C254 C252 1.391 . S
C254 C255 1.400 . S
C255 C254 1.400 . S
C255 C256 1.398 . S
C255 C261 1.491 . S
C256 H247 0.950 . S
C256 C255 1.398 . S
C256 C257 1.391 . S
C257 H245 0.950 . S
C257 C253 1.393 . S
C257 C256 1.391 . S
C258 H248 0.950 . S
C258 C259 1.386 . S
C258 C260 1.391 . S
C259 C258 1.386 . S
C259 C263 1.393 . S
C260 H249 0.950 . S
C260 C258 1.391 . S
C260 C261 1.400 . S
C261 C255 1.491 . S
C261 C260 1.400 . S
C261 C262 1.398 . S
C262 H250 0.950 . S
C262 C261 1.398 . S
C262 C263 1.391 . S
C263 H251 0.950 . S
C263 C259 1.393 . S
C263 C262 1.391 . S
H264 C272 0.950 . S
H265 C277 0.950 . S
H266 C274 0.950 . S
H267 C276 0.950 . S
H268 C278 0.950 . S
H269 C280 0.950 . S
H270 C282 0.950 . S
H271 C283 0.950 . S
C272 H264 0.950 . S
C272 C273 1.386 . S
C272 C274 1.391 . S
C273 C272 1.386 . S
C273 C277 1.393 . S
C274 H266 0.950 . S
C274 C272 1.391 . S
C274 C275 1.400 . S
C275 C274 1.400 . S
C275 C276 1.398 . S
C275 C281 1.491 . S
C276 H267 0.950 . S
C276 C275 1.398 . S
C276 C277 1.391 . S
C277 H265 0.950 . S
C277 C273 1.393 . S
C277 C276 1.391 . S
C278 H268 0.950 . S
C278 C279 1.386 . S
C278 C280 1.391 . S
C279 C278 1.386 . S
C279 C283 1.393 . S
C280 H269 0.950 . S
C280 C278 1.391 . S
C280 C281 1.400 . S
C281 C275 1.491 . S
C281 C280 1.400 . S
C281 C282 1.398 . S
C282 H270 0.950 . S
C282 C281 1.398 . S
C282 C283 1.391 . S
C283 H271 0.950 . S
C283 C279 1.393 . S
C283 C282 1.391 . S
H284 C292 0.950 . S
H285 C297 0.950 . S
H286 C294 0.950 . S
H287 C296 0.950 . S
H288 C298 0.950 . S
H289 C300 0.950 . S
H290 C302 0.950 . S
H291 C303 0.950 . S
C292 H284 0.950 . S
C292 C293 1.386 . S
C292 C294 1.391 . S
C293 C292 1.386 . S
C293 C297 1.393 . S
C294 H286 0.950 . S
C294 C292 1.391 . S
C294 C295 1.400 . S
C295 C294 1.400 . S
C295 C296 1.398 . S
C295 C301 1.491 . S
C296 H287 0.950 . S
C296 C295 1.398 . S
C296 C297 1.391 . S
C297 H285 0.950 . S
C297 C293 1.393 . S
C297 C296 1.391 . S
C298 H288 0.950 . S
C298 C299 1.386 . S
C298 C300 1.391 . S
C299 C298 1.386 . S
C299 C303 1.393 . S
C300 H289 0.950 . S
C300 C298 1.391 . S
C300 C301 1.400 . S
C301 C295 1.491 . S
C301 C300 1.400 . S
C301 C302 1.398 . S
C302 H290 0.950 . S
C302 C301 1.398 . S
C302 C303 1.391 . S
C303 H291 0.950 . S
C303 C299 1.393 . S
C303 C302 1.391 . S
H304 C312 0.950 . S
H305 C317 0.950 . S
H306 C314 0.950 . S
H307 C316 0.950 . S
H308 C318 0.950 . S
H309 C320 0.950 . S
H310 C322 0.950 . S
H311 C323 0.950 . S
C312 H304 0.950 . S
C312 C313 1.386 . S
C312 C314 1.391 . S
C313 C312 1.386 . S
C313 C317 1.393 . S
C314 H306 0.950 . S
C314 C312 1.391 . S
C314 C315 1.400 . S
C315 C314 1.400 . S
C315 C316 1.398 . S
C315 C321 1.491 . S
C316 H307 0.950 . S
C316 C315 1.398 . S
C316 C317 1.391 . S
C317 H305 0.950 . S
C317 C313 1.393 . S
C317 C316 1.391 . S
C318 H308 0.950 . S
C318 C319 1.386 . S
C318 C320 1.391 . S
C319 C318 1.386 . S
C319 C323 1.393 . S
C320 H309 0.950 . S
C320 C318 1.391 . S
C320 C321 1.400 . S
C321 C315 1.491 . S
C321 C320 1.400 . S
C321 C322 1.398 . S
C322 H310 0.950 . S
C322 C321 1.398 . S
C322 C323 1.391 . S
C323 H311 0.950 . S
C323 C319 1.393 . S
C323 C322 1.391 . S
H324 C332 0.950 . S
H325 C337 0.950 . S
H326 C334 0.950 . S
H327 C336 0.950 . S
H328 C338 0.950 . S
H329 C340 0.950 . S
H330 C342 0.950 . S
H331 C343 0.950 . S
C332 H324 0.950 . S
C332 C333 1.386 . S
C332 C334 1.391 . S
C333 C332 1.386 . S
C333 C337 1.393 . S
C334 H326 0.950 . S
C334 C332 1.391 . S
C334 C335 1.400 . S
C335 C334 1.400 . S
C335 C336 1.398 . S
C335 C341 1.491 1_554 S
C336 H327 0.950 . S
C336 C335 1.398 . S
C336 C337 1.391 . S
C337 H325 0.950 . S
C337 C333 1.393 . S
C337 C336 1.391 . S
C338 H328 0.950 . S
C338 C339 1.386 . S
C338 C340 1.391 . S
C339 C338 1.386 . S
C339 C343 1.393 . S
C340 H329 0.950 . S
C340 C338 1.391 . S
C340 C341 1.400 . S
C341 C335 1.491 1_556 S
C341 C340 1.400 . S
C341 C342 1.398 . S
C342 H330 0.950 . S
C342 C341 1.398 . S
C342 C343 1.391 . S
C343 H331 0.950 . S
C343 C339 1.393 . S
C343 C342 1.391 . S
H344 C352 0.950 . S
H345 C357 0.950 . S
H346 C354 0.950 1_565 S
H347 C356 0.950 . S
H348 C358 0.950 . S
H349 C360 0.950 1_545 S
H350 C362 0.950 . S
H351 C363 0.950 . S
C352 H344 0.950 . S
C352 C353 1.386 . S
C352 C354 1.391 . S
C353 C352 1.386 . S
C353 C357 1.393 . S
C354 H346 0.950 1_545 S
C354 C352 1.391 . S
C354 C355 1.400 . S
C355 C354 1.400 . S
C355 C356 1.398 1_455 S
C355 C361 1.491 1_445 S
C356 H347 0.950 . S
C356 C355 1.398 1_655 S
C356 C357 1.391 1_655 S
C357 H345 0.950 . S
C357 C353 1.393 . S
C357 C356 1.391 1_455 S
C358 H348 0.950 . S
C358 C359 1.386 . S
C358 C360 1.391 . S
C359 C358 1.386 . S
C359 C363 1.393 . S
C360 H349 0.950 1_565 S
C360 C358 1.391 . S
C360 C361 1.400 . S
C361 C355 1.491 1_665 S
C361 C360 1.400 . S
C361 C362 1.398 1_655 S
C362 H350 0.950 . S
C362 C361 1.398 1_455 S
C362 C363 1.391 1_455 S
C363 H351 0.950 . S
C363 C359 1.393 . S
C363 C362 1.391 1_655 S
H364 C372 0.950 . S
H365 C377 0.950 . S
H366 C374 0.950 . S
H367 C376 0.950 1_655 S
H368 C378 0.950 . S
H369 C380 0.950 . S
H370 C382 0.950 1_455 S
H371 C383 0.950 . S
C372 H364 0.950 . S
C372 C373 1.386 . S
C372 C374 1.391 . S
C373 C372 1.386 . S
C373 C377 1.393 . S
C374 H366 0.950 . S
C374 C372 1.391 . S
C374 C375 1.400 . S
C375 C374 1.400 . S
C375 C376 1.398 . S
C375 C381 1.491 1_455 S
C376 H367 0.950 1_455 S
C376 C375 1.398 . S
C376 C377 1.391 . S
C377 H365 0.950 . S
C377 C373 1.393 . S
C377 C376 1.391 . S
C378 H368 0.950 . S
C378 C379 1.386 . S
C378 C380 1.391 . S
C379 C378 1.386 . S
C379 C383 1.393 . S
C380 H369 0.950 . S
C380 C378 1.391 . S
C380 C381 1.400 . S
C381 C375 1.491 1_655 S
C381 C380 1.400 . S
C381 C382 1.398 . S
C382 H370 0.950 1_655 S
C382 C381 1.398 . S
C382 C383 1.391 . S
C383 H371 0.950 . S
C383 C379 1.393 . S
C383 C382 1.391 . S
H384 C392 0.950 . S
H385 C397 0.950 . S
H386 C394 0.950 . S
H387 C396 0.950 . S
H388 C398 0.950 . S
H389 C400 0.950 . S
H390 C402 0.950 . S
H391 C403 0.950 . S
C392 H384 0.950 . S
C392 C393 1.386 . S
C392 C394 1.391 . S
C393 C392 1.386 . S
C393 C397 1.393 . S
C394 H386 0.950 . S
C394 C392 1.391 . S
C394 C395 1.400 . S
C395 C394 1.400 . S
C395 C396 1.398 . S
C395 C401 1.491 . S
C396 H387 0.950 . S
C396 C395 1.398 . S
C396 C397 1.391 . S
C397 H385 0.950 . S
C397 C393 1.393 . S
C397 C396 1.391 . S
C398 H388 0.950 . S
C398 C399 1.386 . S
C398 C400 1.391 . S
C399 C398 1.386 . S
C399 C403 1.393 . S
C400 H389 0.950 . S
C400 C398 1.391 . S
C400 C401 1.400 . S
C401 C395 1.491 . S
C401 C400 1.400 . S
C401 C402 1.398 . S
C402 H390 0.950 . S
C402 C401 1.398 . S
C402 C403 1.391 . S
C403 H391 0.950 . S
C403 C399 1.393 . S
C403 C402 1.391 . S
H404 C412 0.950 . S
H405 C417 0.950 . S
H406 C414 0.950 . S
H407 C416 0.950 . S
H408 C418 0.950 . S
H409 C420 0.950 . S
H410 C422 0.950 . S
H411 C423 0.950 . S
C412 H404 0.950 . S
C412 C413 1.386 . S
C412 C414 1.391 . S
C413 C412 1.386 . S
C413 C417 1.393 . S
C414 H406 0.950 . S
C414 C412 1.391 . S
C414 C415 1.400 . S
C415 C414 1.400 . S
C415 C416 1.398 1_565 S
C415 C421 1.491 1_565 S
C416 H407 0.950 . S
C416 C415 1.398 1_545 S
C416 C417 1.391 1_545 S
C417 H405 0.950 . S
C417 C413 1.393 . S
C417 C416 1.391 1_565 S
C418 H408 0.950 . S
C418 C419 1.386 . S
C418 C420 1.391 . S
C419 C418 1.386 . S
C419 C423 1.393 . S
C420 H409 0.950 . S
C420 C418 1.391 . S
C420 C421 1.400 . S
C421 C415 1.491 1_545 S
C421 C420 1.400 . S
C421 C422 1.398 1_545 S
C422 H410 0.950 . S
C422 C421 1.398 1_565 S
C422 C423 1.391 1_565 S
C423 H411 0.950 . S
C423 C419 1.393 . S
C423 C422 1.391 1_545 S
H424 C432 0.950 . S
H425 C437 0.950 . S
H426 C434 0.950 . S
H427 C436 0.950 1_455 S
H428 C438 0.950 . S
H429 C440 0.950 . S
H430 C442 0.950 1_655 S
H431 C443 0.950 . S
C432 H424 0.950 . S
C432 C433 1.386 . S
C432 C434 1.391 . S
C433 C432 1.386 . S
C433 C437 1.393 . S
C434 H426 0.950 . S
C434 C432 1.391 . S
C434 C435 1.400 . S
C435 C434 1.400 . S
C435 C436 1.398 . S
C435 C441 1.491 1_655 S
C436 H427 0.950 1_655 S
C436 C435 1.398 . S
C436 C437 1.391 . S
C437 H425 0.950 . S
C437 C433 1.393 . S
C437 C436 1.391 . S
C438 H428 0.950 . S
C438 C439 1.386 . S
C438 C440 1.391 . S
C439 C438 1.386 . S
C439 C443 1.393 . S
C440 H429 0.950 . S
C440 C438 1.391 . S
C440 C441 1.400 . S
C441 C435 1.491 1_455 S
C441 C440 1.400 . S
C441 C442 1.398 . S
C442 H430 0.950 1_455 S
C442 C441 1.398 . S
C442 C443 1.391 . S
C443 H431 0.950 . S
C443 C439 1.393 . S
C443 C442 1.391 . S
H444 C452 0.950 . S
H445 C457 0.950 . S
H446 C454 0.950 . S
H447 C456 0.950 . S
H448 C458 0.950 . S
H449 C460 0.950 . S
H450 C462 0.950 . S
H451 C463 0.950 . S
C452 H444 0.950 . S
C452 C453 1.386 . S
C452 C454 1.391 . S
C453 C452 1.386 . S
C453 C457 1.393 . S
C454 H446 0.950 . S
C454 C452 1.391 . S
C454 C455 1.400 . S
C455 C454 1.400 . S
C455 C456 1.398 . S
C455 C461 1.491 . S
C456 H447 0.950 . S
C456 C455 1.398 . S
C456 C457 1.391 . S
C457 H445 0.950 . S
C457 C453 1.393 . S
C457 C456 1.391 . S
C458 H448 0.950 . S
C458 C459 1.386 . S
C458 C460 1.391 . S
C459 C458 1.386 . S
C459 C463 1.393 . S
C460 H449 0.950 . S
C460 C458 1.391 . S
C460 C461 1.400 . S
C461 C455 1.491 . S
C461 C460 1.400 . S
C461 C462 1.398 . S
C462 H450 0.950 . S
C462 C461 1.398 . S
C462 C463 1.391 . S
C463 H451 0.950 . S
C463 C459 1.393 . S
C463 C462 1.391 . S
H464 C472 0.950 . S
H465 C477 0.950 . S
H466 C474 0.950 . S
H467 C476 0.950 . S
H468 C478 0.950 . S
H469 C480 0.950 . S
H470 C482 0.950 . S
H471 C483 0.950 . S
C472 H464 0.950 . S
C472 C473 1.386 . S
C472 C474 1.391 . S
C473 C472 1.386 . S
C473 C477 1.393 . S
C474 H466 0.950 . S
C474 C472 1.391 . S
C474 C475 1.400 . S
C475 C474 1.400 . S
C475 C476 1.398 . S
C475 C481 1.491 1_545 S
C476 H467 0.950 . S
C476 C475 1.398 . S
C476 C477 1.391 . S
C477 H465 0.950 . S
C477 C473 1.393 . S
C477 C476 1.391 . S
C478 H468 0.950 . S
C478 C479 1.386 . S
C478 C480 1.391 . S
C479 C478 1.386 . S
C479 C483 1.393 . S
C480 H469 0.950 . S
C480 C478 1.391 . S
C480 C481 1.400 . S
C481 C475 1.491 1_565 S
C481 C480 1.400 . S
C481 C482 1.398 . S
C482 H470 0.950 . S
C482 C481 1.398 . S
C482 C483 1.391 . S
C483 H471 0.950 . S
C483 C479 1.393 . S
C483 C482 1.391 . S
H484 C492 0.950 . S
H485 C497 0.950 . S
H486 C494 0.950 . S
H487 C496 0.950 . S
H488 C498 0.950 . S
H489 C500 0.950 . S
H490 C502 0.950 . S
H491 C503 0.950 . S
C492 H484 0.950 . S
C492 C493 1.386 . S
C492 C494 1.391 . S
C493 C492 1.386 . S
C493 C497 1.393 . S
C494 H486 0.950 . S
C494 C492 1.391 . S
C494 C495 1.400 . S
C495 C494 1.400 . S
C495 C496 1.398 . S
C495 C501 1.491 1_665 S
C496 H487 0.950 . S
C496 C495 1.398 . S
C496 C497 1.391 . S
C497 H485 0.950 . S
C497 C493 1.393 . S
C497 C496 1.391 . S
C498 H488 0.950 . S
C498 C499 1.386 . S
C498 C500 1.391 . S
C499 C498 1.386 . S
C499 C503 1.393 . S
C500 H489 0.950 . S
C500 C498 1.391 . S
C500 C501 1.400 . S
C501 C495 1.491 1_445 S
C501 C500 1.400 . S
C501 C502 1.398 . S
C502 H490 0.950 . S
C502 C501 1.398 . S
C502 C503 1.391 . S
C503 H491 0.950 . S
C503 C499 1.393 . S
C503 C502 1.391 . S
C193 C16 1.861 . S
C199 C131 1.846 . S
C213 C30 1.901 . S
C219 C145 1.911 . S
C233 C62 1.857 . S
C239 C177 1.844 . S
C253 C76 1.900 . S
C259 C99 1.898 . S
C273 C168 1.897 . S
C279 C7 1.904 . S
C293 C108 1.857 . S
C299 C39 1.844 . S
C313 C53 1.904 . S
C319 C122 1.913 . S
C333 C154 1.864 . S
C339 C85 1.863 . S
C353 N2 1.671 . S
C359 N140 1.680 . S
C373 N173 1.838 . S
C379 N35 1.829 . S
C393 N48 1.692 . S
C399 N94 1.681 . S
C413 N81 1.819 . S
C419 N127 1.832 . S
C433 N150 1.816 . S
C439 N12 1.826 . S
C453 N163 1.670 . S
C459 N25 1.679 . S
C473 N58 1.819 . S
C479 N104 1.818 . S
C493 N71 1.670 . S
C499 N117 1.666 . S
