# Generated by pormake.
# Topology whw, (6)-cn, num edge types: 1
# Building blocks:
#     Node 0, Type 0, BuildingBlock: BETFAJ_clean_sbu_0, # of connection points: 6
#     Node 1, Type 0, BuildingBlock: BETFAJ_clean_sbu_0, # of connection points: 6
#     Node 2, Type 0, BuildingBlock: BETFAJ_clean_sbu_0, # of connection points: 6
#     Node 3, Type 0, BuildingBlock: BETFAJ_clean_sbu_0, # of connection points: 6
#     Node 4, Type 0, BuildingBlock: BETFAJ_clean_sbu_0, # of connection points: 6
#     Node 5, Type 0, BuildingBlock: BETFAJ_clean_sbu_0, # of connection points: 6
#     Node 6, Type 0, BuildingBlock: BETFAJ_clean_sbu_0, # of connection points: 6
#     Node 7, Type 0, BuildingBlock: BETFAJ_clean_sbu_0, # of connection points: 6
#     Node 8, Type 0, BuildingBlock: BETFAJ_clean_sbu_0, # of connection points: 6
#     Node 9, Type 0, BuildingBlock: BETFAJ_clean_sbu_0, # of connection points: 6
#     Node 10, Type 0, BuildingBlock: BETFAJ_clean_sbu_0, # of connection points: 6
#     Node 11, Type 0, BuildingBlock: BETFAJ_clean_sbu_0, # of connection points: 6
#     Node 12, Type 0, BuildingBlock: BETFAJ_clean_sbu_0, # of connection points: 6
#     Node 13, Type 0, BuildingBlock: BETFAJ_clean_sbu_0, # of connection points: 6
#     Node 14, Type 0, BuildingBlock: BETFAJ_clean_sbu_0, # of connection points: 6
#     Node 15, Type 0, BuildingBlock: BETFAJ_clean_sbu_0, # of connection points: 6
#     Edge 16, Type (0, 0), BuildingBlock: MIFKUJ_clean_linker_0, # of connection points: 2
#     Edge 17, Type (0, 0), BuildingBlock: MIFKUJ_clean_linker_0, # of connection points: 2
#     Edge 18, Type (0, 0), BuildingBlock: MIFKUJ_clean_linker_0, # of connection points: 2
#     Edge 19, Type (0, 0), BuildingBlock: MIFKUJ_clean_linker_0, # of connection points: 2
#     Edge 20, Type (0, 0), BuildingBlock: MIFKUJ_clean_linker_0, # of connection points: 2
#     Edge 21, Type (0, 0), BuildingBlock: MIFKUJ_clean_linker_0, # of connection points: 2
#     Edge 22, Type (0, 0), BuildingBlock: MIFKUJ_clean_linker_0, # of connection points: 2
#     Edge 23, Type (0, 0), BuildingBlock: MIFKUJ_clean_linker_0, # of connection points: 2
#     Edge 24, Type (0, 0), BuildingBlock: MIFKUJ_clean_linker_0, # of connection points: 2
#     Edge 25, Type (0, 0), BuildingBlock: MIFKUJ_clean_linker_0, # of connection points: 2
#     Edge 26, Type (0, 0), BuildingBlock: MIFKUJ_clean_linker_0, # of connection points: 2
#     Edge 27, Type (0, 0), BuildingBlock: MIFKUJ_clean_linker_0, # of connection points: 2
#     Edge 28, Type (0, 0), BuildingBlock: MIFKUJ_clean_linker_0, # of connection points: 2
#     Edge 29, Type (0, 0), BuildingBlock: MIFKUJ_clean_linker_0, # of connection points: 2
#     Edge 30, Type (0, 0), BuildingBlock: MIFKUJ_clean_linker_0, # of connection points: 2
#     Edge 31, Type (0, 0), BuildingBlock: MIFKUJ_clean_linker_0, # of connection points: 2
#     Edge 32, Type (0, 0), BuildingBlock: MIFKUJ_clean_linker_0, # of connection points: 2
#     Edge 33, Type (0, 0), BuildingBlock: MIFKUJ_clean_linker_0, # of connection points: 2
#     Edge 34, Type (0, 0), BuildingBlock: MIFKUJ_clean_linker_0, # of connection points: 2
#     Edge 35, Type (0, 0), BuildingBlock: MIFKUJ_clean_linker_0, # of connection points: 2
#     Edge 36, Type (0, 0), BuildingBlock: MIFKUJ_clean_linker_0, # of connection points: 2
#     Edge 37, Type (0, 0), BuildingBlock: MIFKUJ_clean_linker_0, # of connection points: 2
#     Edge 38, Type (0, 0), BuildingBlock: MIFKUJ_clean_linker_0, # of connection points: 2
#     Edge 39, Type (0, 0), BuildingBlock: MIFKUJ_clean_linker_0, # of connection points: 2
#     Edge 40, Type (0, 0), BuildingBlock: MIFKUJ_clean_linker_0, # of connection points: 2
#     Edge 41, Type (0, 0), BuildingBlock: MIFKUJ_clean_linker_0, # of connection points: 2
#     Edge 42, Type (0, 0), BuildingBlock: MIFKUJ_clean_linker_0, # of connection points: 2
#     Edge 43, Type (0, 0), BuildingBlock: MIFKUJ_clean_linker_0, # of connection points: 2
#     Edge 44, Type (0, 0), BuildingBlock: MIFKUJ_clean_linker_0, # of connection points: 2
#     Edge 45, Type (0, 0), BuildingBlock: MIFKUJ_clean_linker_0, # of connection points: 2
#     Edge 46, Type (0, 0), BuildingBlock: MIFKUJ_clean_linker_0, # of connection points: 2
#     Edge 47, Type (0, 0), BuildingBlock: MIFKUJ_clean_linker_0, # of connection points: 2
#     Edge 48, Type (0, 0), BuildingBlock: MIFKUJ_clean_linker_0, # of connection points: 2
#     Edge 49, Type (0, 0), BuildingBlock: MIFKUJ_clean_linker_0, # of connection points: 2
#     Edge 50, Type (0, 0), BuildingBlock: MIFKUJ_clean_linker_0, # of connection points: 2
#     Edge 51, Type (0, 0), BuildingBlock: MIFKUJ_clean_linker_0, # of connection points: 2
#     Edge 52, Type (0, 0), BuildingBlock: MIFKUJ_clean_linker_0, # of connection points: 2
#     Edge 53, Type (0, 0), BuildingBlock: MIFKUJ_clean_linker_0, # of connection points: 2
#     Edge 54, Type (0, 0), BuildingBlock: MIFKUJ_clean_linker_0, # of connection points: 2
#     Edge 55, Type (0, 0), BuildingBlock: MIFKUJ_clean_linker_0, # of connection points: 2
#     Edge 56, Type (0, 0), BuildingBlock: MIFKUJ_clean_linker_0, # of connection points: 2
#     Edge 57, Type (0, 0), BuildingBlock: MIFKUJ_clean_linker_0, # of connection points: 2
#     Edge 58, Type (0, 0), BuildingBlock: MIFKUJ_clean_linker_0, # of connection points: 2
#     Edge 59, Type (0, 0), BuildingBlock: MIFKUJ_clean_linker_0, # of connection points: 2
#     Edge 60, Type (0, 0), BuildingBlock: MIFKUJ_clean_linker_0, # of connection points: 2
#     Edge 61, Type (0, 0), BuildingBlock: MIFKUJ_clean_linker_0, # of connection points: 2
#     Edge 62, Type (0, 0), BuildingBlock: MIFKUJ_clean_linker_0, # of connection points: 2
#     Edge 63, Type (0, 0), BuildingBlock: MIFKUJ_clean_linker_0, # of connection points: 2
# Relax obj value: 0.323
# Max RMSD: 0.218
# Mean RMSD: 0.198
data_MOF--net-whw--node1-BETFAJ_clean_sbu_0--edge1-MIFKUJ_clean_linker_0
_symmetry_space_group_name_H-M    P1
_symmetry_Int_Tables_number       1
_symmetry_cell_setting            triclinic
loop_
_symmetry_equiv_pos_as_xyz
'x, y, z'
_cell_length_a     60.385087
_cell_length_b     60.335827
_cell_length_c     42.76061
_cell_angle_alpha  90.014772
_cell_angle_beta   94.566649
_cell_angle_gamma 93.08922
loop_
_atom_site_label
_atom_site_type_symbol
_atom_site_fract_x
_atom_site_fract_y
_atom_site_fract_z
_atom_type_partial_charge
Sm0 Sm 0.03553 0.15137 0.1419 0.0
Sm1 Sm 0.9916 0.13218 0.16023 0.0
C2 C 0.07672 0.15491 0.12593 0.0
C3 C 0.086 0.14777 0.09719 0.0
C4 C 0.08111 0.12617 0.08526 0.0
C5 C 0.08697 0.12058 0.05557 0.0
C6 C 0.09749 0.13657 0.03715 0.0
C7 C 0.103 0.15793 0.04956 0.0
C8 C 0.0974 0.16343 0.07943 0.0
C9 C 0.00559 0.18229 0.15396 0.0
C10 C 0.99334 0.1522 0.0898 0.0
C11 C 0.95475 0.1162 0.18278 0.0
C12 C 0.94424 0.11777 0.21198 0.0
C13 C 0.95305 0.13289 0.23511 0.0
C14 C 0.94369 0.13357 0.26369 0.0
C15 C 0.9256 0.11894 0.26955 0.0
C16 C 0.91663 0.10402 0.2461 0.0
C17 C 0.92597 0.10344 0.21738 0.0
C18 C 0.01313 0.1048 0.12311 0.0
C19 C 0.03144 0.14682 0.21773 0.0
O20 O 0.06946 0.13905 0.14394 0.0
O21 O 0.06325 0.17115 0.12244 0.0
O22 O 0.00926 0.16496 0.16917 0.0
O23 O 0.01962 0.18507 0.13255 0.0
O24 O 0.01484 0.14833 0.09355 0.0
O25 O 0.98088 0.15048 0.11398 0.0
O26 O 0.95575 0.13446 0.16623 0.0
O27 O 0.97325 0.1057 0.18472 0.0
O28 O 0.02241 0.11575 0.14612 0.0
O29 O 0.99219 0.10794 0.11934 0.0
O30 O 0.01092 0.13807 0.2103 0.0
O31 O 0.04422 0.15344 0.19544 0.0
H32 H 0.07207 0.11378 0.09832 0.0
H33 H 0.08274 0.10393 0.04675 0.0
H34 H 0.1107 0.17076 0.03568 0.0
H35 H 0.101 0.18023 0.08806 0.0
H36 H 0.96727 0.14396 0.23119 0.0
H37 H 0.95064 0.14552 0.28121 0.0
H38 H 0.90276 0.09253 0.25022 0.0
H39 H 0.91919 0.09161 0.1996 0.0
Sm40 Sm 0.15382 0.77603 0.42818 0.0
Sm41 Sm 0.15612 0.73313 0.38726 0.0
C42 C 0.14973 0.80689 0.47131 0.0
C43 C 0.14167 0.81117 0.50245 0.0
C44 C 0.11938 0.80663 0.50879 0.0
C45 C 0.11213 0.81225 0.53796 0.0
C46 C 0.12698 0.82249 0.56129 0.0
C47 C 0.14923 0.82694 0.55492 0.0
C48 C 0.15648 0.82131 0.52584 0.0
C49 C 0.19351 0.76976 0.40241 0.0
C50 C 0.15733 0.72693 0.46095 0.0
C51 C 0.16575 0.70531 0.34307 0.0
C52 C 0.1562 0.69889 0.31125 0.0
C53 C 0.16889 0.70279 0.28549 0.0
C54 C 0.16017 0.697 0.25515 0.0
C55 C 0.13867 0.6869 0.25002 0.0
C56 C 0.12592 0.68309 0.2758 0.0
C57 C 0.13455 0.6891 0.30609 0.0
C58 C 0.11586 0.73707 0.40982 0.0
C59 C 0.14107 0.78102 0.35401 0.0
O60 O 0.13505 0.80294 0.44744 0.0
O61 O 0.16729 0.79515 0.47058 0.0
O62 O 0.18153 0.75505 0.41476 0.0
O63 O 0.18514 0.78899 0.40459 0.0
O64 O 0.14856 0.74651 0.46129 0.0
O65 O 0.16643 0.71949 0.43611 0.0
O66 O 0.17473 0.72549 0.34615 0.0
O67 O 0.15436 0.69924 0.36673 0.0
O68 O 0.12818 0.75319 0.4013 0.0
O69 O 0.12302 0.71814 0.40184 0.0
O70 O 0.14735 0.76045 0.35124 0.0
O71 O 0.14039 0.7908 0.38156 0.0
H72 H 0.10749 0.79907 0.49116 0.0
H73 H 0.09479 0.809 0.54207 0.0
H74 H 0.16107 0.83472 0.57248 0.0
H75 H 0.17369 0.82515 0.52145 0.0
H76 H 0.18565 0.71018 0.28889 0.0
H77 H 0.17048 0.69995 0.2358 0.0
H78 H 0.10919 0.67559 0.27251 0.0
H79 H 0.12424 0.68603 0.3254 0.0
Sm80 Sm 0.50458 0.85843 0.68174 0.0
Sm81 Sm 0.53611 0.85529 0.61948 0.0
C82 C 0.48653 0.84739 0.73567 0.0
C83 C 0.47749 0.84165 0.76717 0.0
C84 C 0.48947 0.84814 0.79562 0.0
C85 C 0.48194 0.84197 0.82514 0.0
C86 C 0.46171 0.82922 0.828 0.0
C87 C 0.4497 0.82289 0.79908 0.0
C88 C 0.45751 0.82876 0.76952 0.0
C89 C 0.50529 0.89448 0.64243 0.0
C90 C 0.55482 0.88339 0.67974 0.0
C91 C 0.54834 0.8485 0.56138 0.0
C92 C 0.55529 0.84465 0.52857 0.0
C93 C 0.5413 0.84967 0.50176 0.0
C94 C 0.54635 0.84352 0.47121 0.0
C95 C 0.56586 0.83251 0.46613 0.0
C96 C 0.58004 0.82791 0.493 0.0
C97 C 0.57469 0.83355 0.52358 0.0
C98 C 0.54454 0.82836 0.67034 0.0
C99 C 0.48114 0.83982 0.61576 0.0
O100 O 0.49973 0.86506 0.73225 0.0
O101 O 0.48208 0.83582 0.7097 0.0
O102 O 0.50764 0.87458 0.63504 0.0
O103 O 0.49928 0.89566 0.67112 0.0
O104 O 0.54048 0.87122 0.69563 0.0
O105 O 0.55544 0.88277 0.64872 0.0
O106 O 0.54067 0.86731 0.57028 0.0
O107 O 0.55107 0.83412 0.58408 0.0
O108 O 0.52585 0.83442 0.65958 0.0
O109 O 0.55982 0.83414 0.65167 0.0
O110 O 0.50112 0.84032 0.6049 0.0
O111 O 0.47745 0.84626 0.64441 0.0
H112 H 0.50513 0.85773 0.79515 0.0
H113 H 0.49255 0.84718 0.8456 0.0
H114 H 0.43403 0.81339 0.79872 0.0
H115 H 0.44774 0.8232 0.74836 0.0
H116 H 0.52598 0.85776 0.5045 0.0
H117 H 0.53493 0.84751 0.45145 0.0
H118 H 0.59508 0.8193 0.4905 0.0
H119 H 0.58572 0.829 0.54349 0.0
Sm120 Sm 0.36846 0.21213 0.9001 0.0
Sm121 Sm 0.36076 0.25419 0.85922 0.0
C122 C 0.3762 0.18033 0.94166 0.0
C123 C 0.38371 0.17501 0.97425 0.0
C124 C 0.40157 0.18686 0.99067 0.0
C125 C 0.40858 0.18084 1.02136 0.0
C126 C 0.39794 0.16277 0.03612 0.0
C127 C 0.38005 0.15099 1.01935 0.0
C128 C 0.37299 0.15712 0.98883 0.0
C129 C 0.32766 0.21372 0.86688 0.0
C130 C 0.36194 0.26001 0.93378 0.0
C131 C 0.3481 0.28064 0.81259 0.0
C132 C 0.35807 0.28771 0.78334 0.0
C133 C 0.3476 0.28116 0.75403 0.0
C134 C 0.35712 0.28725 0.72627 0.0
C135 C 0.37729 0.30015 0.72723 0.0
C136 C 0.3878 0.3066 0.75659 0.0
C137 C 0.37834 0.30044 0.78431 0.0
C138 C 0.40189 0.25478 0.88868 0.0
C139 C 0.38009 0.20867 0.82825 0.0
O140 O 0.39105 0.18812 0.92317 0.0
O141 O 0.357 0.18937 0.93704 0.0
O142 O 0.33789 0.22979 0.88153 0.0
O143 O 0.33852 0.19587 0.8706 0.0
O144 O 0.37133 0.24078 0.93566 0.0
O145 O 0.35224 0.26744 0.90719 0.0
O146 O 0.34105 0.2598 0.81394 0.0
O147 O 0.3582 0.28794 0.83911 0.0
O148 O 0.39144 0.23733 0.87785 0.0
O149 O 0.39233 0.27264 0.87951 0.0
O150 O 0.37253 0.22876 0.82448 0.0
O151 O 0.3817 0.1987 0.85572 0.0
H152 H 0.41013 0.20065 0.9797 0.0
H153 H 0.42227 0.1904 0.03358 0.0
H154 H 0.37172 0.1367 0.02947 0.0
H155 H 0.35928 0.14763 0.9764 0.0
H156 H 0.33203 0.27129 0.75259 0.0
H157 H 0.3485 0.28214 0.70404 0.0
H158 H 0.40353 0.31621 0.7582 0.0
H159 H 0.38705 0.30557 0.80646 0.0
Sm160 Sm 0.02319 0.88983 0.91739 0.0
Sm161 Sm 0.98119 0.89328 0.86984 0.0
C162 C 0.05824 0.89398 0.95839 0.0
C163 C 0.06352 0.88652 0.99094 0.0
C164 C 0.04936 0.89029 1.01478 0.0
C165 C 0.05476 0.88311 0.04543 0.0
C166 C 0.07407 0.87154 0.0526 0.0
C167 C 0.08796 0.86742 0.02863 0.0
C168 C 0.08279 0.87496 0.99815 0.0
C169 C -0.00026 0.85077 0.90129 0.0
C170 C 0.97417 0.88413 0.94307 0.0
C171 C 0.94912 0.89133 0.82386 0.0
C172 C 0.94314 0.88212 0.79218 0.0
C173 C 0.95104 0.86194 0.78256 0.0
C174 C 0.94412 0.85316 0.75282 0.0
C175 C 0.92938 0.86447 0.73213 0.0
C176 C 0.9217 0.88474 0.74184 0.0
C177 C 0.92853 0.89346 0.77157 0.0
C178 C 0.99471 0.93095 0.90421 0.0
C179 C 0.03066 0.88782 0.84274 0.0
O180 O 0.0437 0.90933 0.95413 0.0
O181 O 0.05578 0.87837 0.9369 0.0
O182 O 0.0039 0.86652 0.88333 0.0
O183 O 0.00962 0.8544 0.92906 0.0
O184 O 0.99454 0.8931 0.94901 0.0
O185 O 0.96589 0.87929 0.91408 0.0
O186 O 0.95016 0.87722 0.84723 0.0
O187 O 0.96467 0.90742 0.82657 0.0
O188 O 0.00736 0.91815 0.89195 0.0
O189 O 0.97408 0.92468 0.89705 0.0
O190 O 0.00876 0.88644 0.8372 0.0
O191 O 0.04059 0.89131 0.87116 0.0
H192 H 0.0342 0.89892 1.00984 0.0
H193 H 0.04368 0.88633 0.06343 0.0
H194 H 0.10301 0.85862 0.03359 0.0
H195 H 0.09385 0.87169 0.98014 0.0
H196 H 0.96226 0.85284 0.79812 0.0
H197 H 0.9499 0.83728 0.74629 0.0
H198 H 0.91046 0.89392 0.72639 0.0
H199 H 0.92223 0.90903 0.77859 0.0
Sm200 Sm 0.37755 0.76127 0.21593 0.0
Sm201 Sm 0.4001 0.72094 0.197 0.0
C202 C 0.3484 0.78694 0.23814 0.0
C203 C 0.34916 0.80041 0.26678 0.0
C204 C 0.33588 0.79358 0.29087 0.0
C205 C 0.34054 0.80216 0.32105 0.0
C206 C 0.3584 0.8178 0.32731 0.0
C207 C 0.37019 0.82624 0.30258 0.0
C208 C 0.36566 0.81757 0.2725 0.0
C209 C 0.42191 0.76843 0.22539 0.0
C210 C 0.39728 0.72436 0.27124 0.0
C211 C 0.42193 0.68934 0.17298 0.0
C212 C 0.41865 0.67805 0.14245 0.0
C213 C 0.43391 0.68268 0.11998 0.0
C214 C 0.42933 0.67512 0.08933 0.0
C215 C 0.40952 0.66254 0.08076 0.0
C216 C 0.39463 0.65716 0.10346 0.0
C217 C 0.39913 0.66488 0.1341 0.0
C218 C 0.35361 0.71741 0.19226 0.0
C219 C 0.39565 0.76069 0.14414 0.0
O220 O 0.34838 0.76555 0.24298 0.0
O221 O 0.36171 0.79355 0.2169 0.0
O222 O 0.41153 0.75005 0.22891 0.0
O223 O 0.40873 0.78444 0.21944 0.0
O224 O 0.38299 0.74024 0.26393 0.0
O225 O 0.40875 0.71649 0.24923 0.0
O226 O 0.42843 0.71035 0.17187 0.0
O227 O 0.40654 0.68536 0.19242 0.0
O228 O 0.36586 0.73342 0.18384 0.0
O229 O 0.3661 0.70187 0.20279 0.0
O230 O 0.40602 0.74306 0.15416 0.0
O231 O 0.38143 0.76982 0.16213 0.0
H232 H 0.32307 0.78036 0.28691 0.0
H233 H 0.3313 0.79532 0.33984 0.0
H234 H 0.38381 0.83857 0.3069 0.0
H235 H 0.37611 0.82329 0.25437 0.0
H236 H 0.44895 0.69297 0.12581 0.0
H237 H 0.44093 0.67979 0.07211 0.0
H238 H 0.37939 0.64724 0.09743 0.0
H239 H 0.38697 0.66109 0.15089 0.0
Sm240 Sm 0.49707 0.10195 0.41413 0.0
Sm241 Sm 0.54196 0.10238 0.38167 0.0
C242 C 0.46618 0.09369 0.45372 0.0
C243 C 0.46101 0.10215 0.48471 0.0
C244 C 0.46263 0.08833 0.51112 0.0
C245 C 0.45722 0.09593 0.54033 0.0
C246 C 0.44991 0.1175 0.54373 0.0
C247 C 0.44848 0.13136 0.51729 0.0
C248 C 0.45401 0.12382 0.48817 0.0
C249 C 0.50836 0.14072 0.38605 0.0
C250 C 0.54535 0.11811 0.45426 0.0
C251 C 0.57437 0.10734 0.34353 0.0
C252 C 0.57867 0.11527 0.31176 0.0
C253 C 0.56898 0.13417 0.29863 0.0
C254 C 0.57458 0.14197 0.26921 0.0
C255 C 0.58989 0.13098 0.25229 0.0
C256 C 0.59898 0.11171 0.26529 0.0
C257 C 0.59348 0.10403 0.29467 0.0
C258 C 0.53019 0.064 0.41225 0.0
C259 C 0.49311 0.10042 0.3395 0.0
O260 O 0.48384 0.08203 0.45306 0.0
O261 O 0.46369 0.10718 0.42987 0.0
O262 O 0.52179 0.12847 0.40067 0.0
O263 O 0.48781 0.13429 0.38965 0.0
O264 O 0.52359 0.11354 0.45385 0.0
O265 O 0.55663 0.11615 0.42922 0.0
O266 O 0.57039 0.12227 0.36434 0.0
O267 O 0.56212 0.08887 0.34541 0.0
O268 O 0.51708 0.07541 0.39536 0.0
O269 O 0.5505 0.07222 0.41223 0.0
O270 O 0.51455 0.1065 0.34188 0.0
O271 O 0.48287 0.09294 0.36398 0.0
H272 H 0.46801 0.07158 0.50914 0.0
H273 H 0.45885 0.08491 0.56025 0.0
H274 H 0.44258 0.14793 0.51883 0.0
H275 H 0.45254 0.13496 0.46835 0.0
H276 H 0.55739 0.14309 0.31128 0.0
H277 H 0.56734 0.15694 0.26014 0.0
H278 H 0.61041 0.1025 0.25278 0.0
H279 H 0.60103 0.08935 0.30427 0.0
Sm280 Sm 0.10861 0.22399 0.60891 0.0
Sm281 Sm 0.1251 0.2667 0.58609 0.0
C282 C 0.10443 0.18203 0.62588 0.0
C283 C 0.10907 0.17102 0.65566 0.0
C284 C 0.10488 0.14811 0.65831 0.0
C285 C 0.1083 0.13794 0.68744 0.0
C286 C 0.1159 0.1507 0.71403 0.0
C287 C 0.12061 0.17362 0.71093 0.0
C288 C 0.1173 0.18369 0.68189 0.0
C289 C 0.07629 0.25242 0.59111 0.0
C290 C 0.10934 0.26464 0.65772 0.0
C291 C 0.13748 0.30363 0.55836 0.0
C292 C 0.13742 0.31137 0.52613 0.0
C293 C 0.11876 0.30739 0.50484 0.0
C294 C 0.1202 0.31209 0.47321 0.0
C295 C 0.14044 0.32036 0.46246 0.0
C296 C 0.15894 0.32468 0.48399 0.0
C297 C 0.15737 0.32032 0.51566 0.0
C298 C 0.15595 0.24788 0.62656 0.0
C299 C 0.11092 0.22667 0.53275 0.0
O300 O 0.12199 0.19062 0.61344 0.0
O301 O 0.08807 0.19539 0.62514 0.0
O302 O 0.09262 0.24859 0.57628 0.0
O303 O 0.0759 0.2408 0.6167 0.0
O304 O 0.11351 0.24338 0.65588 0.0
O305 O 0.10896 0.27704 0.63194 0.0
O306 O 0.11818 0.30082 0.57038 0.0
O307 O 0.15078 0.28754 0.56477 0.0
O308 O 0.14426 0.23723 0.60499 0.0
O309 O 0.15118 0.26841 0.62715 0.0
O310 O 0.1215 0.24639 0.5382 0.0
O311 O 0.10335 0.2152 0.55624 0.0
H312 H 0.09863 0.1382 0.63804 0.0
H313 H 0.10468 0.12024 0.6893 0.0
H314 H 0.12602 0.18396 0.73113 0.0
H315 H 0.12065 0.20144 0.68001 0.0
H316 H 0.10327 0.30017 0.51243 0.0
H317 H 0.10552 0.30912 0.45719 0.0
H318 H 0.17477 0.33085 0.47631 0.0
H319 H 0.172 0.32314 0.53185 0.0
Sm320 Sm 0.90052 0.26416 0.72365 0.0
Sm321 Sm 0.91244 0.2186 0.70196 0.0
C322 C 0.87812 0.29594 0.74688 0.0
C323 C 0.87137 0.30135 0.77808 0.0
C324 C 0.8578 0.2864 0.79435 0.0
C325 C 0.85404 0.29059 0.82549 0.0
C326 C 0.8639 0.30962 0.84086 0.0
C327 C 0.87649 0.32506 0.824 0.0
C328 C 0.88007 0.321 0.79283 0.0
C329 C 0.94532 0.26128 0.7249 0.0
C330 C 0.91402 0.22503 0.77746 0.0
C331 C 0.92299 0.18157 0.67519 0.0
C332 C 0.92112 0.17521 0.64203 0.0
C333 C 0.92913 0.18987 0.61951 0.0
C334 C 0.92375 0.1858 0.58779 0.0
C335 C 0.91038 0.16693 0.57803 0.0
C336 C 0.9031 0.15181 0.6005 0.0
C337 C 0.90842 0.15596 0.63233 0.0
C338 C 0.86805 0.22314 0.70986 0.0
C339 C 0.91226 0.25977 0.64937 0.0
O340 O 0.86864 0.27808 0.73338 0.0
O341 O 0.89946 0.29807 0.7435 0.0
O342 O 0.93171 0.24551 0.73112 0.0
O343 O 0.93532 0.27964 0.71962 0.0
O344 O 0.90348 0.24364 0.7711 0.0
O345 O 0.9218 0.21364 0.75461 0.0
O346 O 0.93756 0.19763 0.68343 0.0
O347 O 0.90403 0.18368 0.68722 0.0
O348 O 0.88061 0.23712 0.69671 0.0
O349 O 0.87898 0.2061 0.71869 0.0
O350 O 0.91741 0.23924 0.6567 0.0
O351 O 0.90374 0.27256 0.67031 0.0
H352 H 0.85077 0.27111 0.78351 0.0
H353 H 0.84414 0.27856 0.83794 0.0
H354 H 0.88467 0.3397 0.83533 0.0
H355 H 0.89055 0.33273 0.78069 0.0
H356 H 0.93878 0.20498 0.62633 0.0
H357 H 0.92942 0.19784 0.57098 0.0
H358 H 0.8931 0.13693 0.59351 0.0
H359 H 0.90194 0.14459 0.64941 0.0
Sm360 Sm 0.61414 0.71753 0.09597 0.0
Sm361 Sm 0.63114 0.7623 0.07521 0.0
C362 C 0.61559 0.67656 0.11658 0.0
C363 C 0.62175 0.66892 0.14832 0.0
C364 C 0.62792 0.64716 0.15405 0.0
C365 C 0.63419 0.64056 0.1847 0.0
C366 C 0.6345 0.65578 0.20968 0.0
C367 C 0.62865 0.67763 0.20353 0.0
C368 C 0.62241 0.68411 0.17317 0.0
C369 C 0.58101 0.74226 0.07056 0.0
C370 C 0.6136 0.7582 0.148 0.0
C371 C 0.6401 0.80273 0.05513 0.0
C372 C 0.63617 0.81237 0.02405 0.0
C373 C 0.61933 0.80298 1.00284 0.0
C374 C 0.61722 0.81034 0.97196 0.0
C375 C 0.63207 0.82704 0.96186 0.0
C376 C 0.64886 0.83646 0.9832 0.0
C377 C 0.6509 0.82913 1.01416 0.0
C378 C 0.66355 0.73721 0.10481 0.0
C379 C 0.61972 0.72296 1.0199 0.0
O380 O 0.63198 0.68655 0.10281 0.0
O381 O 0.59711 0.68711 0.11338 0.0
O382 O 0.60017 0.74221 0.06146 0.0
O383 O 0.57793 0.72728 0.09176 0.0
O384 O 0.61109 0.73649 0.14293 0.0
O385 O 0.61999 0.77169 0.12529 0.0
O386 O 0.62236 0.79739 0.06984 0.0
O387 O 0.65461 0.78737 0.05653 0.0
O388 O 0.64416 0.73934 0.11266 0.0
O389 O 0.66597 0.74766 0.0787 0.0
O390 O 0.62155 0.74466 0.02611 0.0
O391 O 0.61949 0.7088 0.04358 0.0
H392 H 0.62777 0.63533 0.13496 0.0
H393 H 0.63859 0.62359 0.18894 0.0
H394 H 0.6281 0.6896 0.22232 0.0
H395 H 0.61781 0.70097 0.16923 0.0
H396 H 0.60812 0.78961 1.00996 0.0
H397 H 0.60427 0.80272 0.95583 0.0
H398 H 0.66033 0.84955 0.97598 0.0
H399 H 0.66421 0.83622 0.03019 0.0
Sm400 Sm 0.659 0.28106 0.93302 0.0
Sm401 Sm 0.66215 0.23761 0.8942 0.0
C402 C 0.65263 0.31218 0.97462 0.0
C403 C 0.6442 0.31555 1.00575 0.0
C404 C 0.62216 0.30939 1.01183 0.0
C405 C 0.61427 0.31447 0.04079 0.0
C406 C 0.62822 0.32578 0.06424 0.0
C407 C 0.65039 0.33141 0.05826 0.0
C408 C 0.65824 0.32638 0.02935 0.0
C409 C 0.69897 0.27511 0.90823 0.0
C410 C 0.6602 0.23234 0.96804 0.0
C411 C 0.67083 0.20842 0.85113 0.0
C412 C 0.66134 0.20244 0.81894 0.0
C413 C 0.67401 0.20635 0.79312 0.0
C414 C 0.66536 0.20032 0.76274 0.0
C415 C 0.64387 0.19012 0.75759 0.0
C416 C 0.63108 0.18655 0.78337 0.0
C417 C 0.63968 0.19263 0.81364 0.0
C418 C 0.62108 0.24404 0.91337 0.0
C419 C 0.64882 0.28541 0.85893 0.0
O420 O 0.63817 0.30664 0.95105 0.0
O421 O 0.67135 0.30226 0.97395 0.0
O422 O 0.68743 0.26016 0.9211 0.0
O423 O 0.69016 0.29417 0.90999 0.0
O424 O 0.65265 0.25247 0.96694 0.0
O425 O 0.66991 0.22399 0.94424 0.0
O426 O 0.68171 0.22772 0.85482 0.0
O427 O 0.65839 0.20362 0.87415 0.0
O428 O 0.6343 0.25892 0.90413 0.0
O429 O 0.62815 0.22444 0.90909 0.0
O430 O 0.65629 0.26523 0.85673 0.0
O431 O 0.64562 0.29468 0.88601 0.0
H432 H 0.61093 0.30092 0.99414 0.0
H433 H 0.5972 0.30959 0.04477 0.0
H434 H 0.66154 0.34034 0.07557 0.0
H435 H 0.67525 0.33141 0.02518 0.0
H436 H 0.69072 0.21393 0.79647 0.0
H437 H 0.67567 0.20323 0.74339 0.0
H438 H 0.61432 0.17913 0.78013 0.0
H439 H 0.62931 0.18953 0.83287 0.0
Sm440 Sm 0.87026 0.7132 0.39517 0.0
Sm441 Sm 0.86787 0.75784 0.359 0.0
C442 C 0.87599 0.68058 0.43579 0.0
C443 C 0.88254 0.67655 0.46903 0.0
C444 C 0.89693 0.69148 0.48705 0.0
C445 C 0.90339 0.68661 0.51837 0.0
C446 C 0.89568 0.6667 0.53213 0.0
C447 C 0.88058 0.65233 0.51406 0.0
C448 C 0.8742 0.65717 0.48285 0.0
C449 C 0.83154 0.71894 0.35883 0.0
C450 C 0.86425 0.76016 0.43277 0.0
C451 C 0.85945 0.78794 0.31525 0.0
C452 C 0.86771 0.79284 0.28434 0.0
C453 C 0.85437 0.80377 0.26163 0.0
C454 C 0.86237 0.80932 0.23268 0.0
C455 C 0.88399 0.80417 0.22594 0.0
C456 C 0.89708 0.79264 0.24856 0.0
C457 C 0.88898 0.78694 0.27741 0.0
C458 C 0.90734 0.75248 0.39261 0.0
C459 C 0.88352 0.71206 0.32403 0.0
O460 O 0.89156 0.68826 0.41839 0.0
O461 O 0.85686 0.68949 0.42951 0.0
O462 O 0.84197 0.73377 0.37587 0.0
O463 O 0.8407 0.70007 0.36237 0.0
O464 O 0.8723 0.74024 0.4331 0.0
O465 O 0.85655 0.7695 0.40633 0.0
O466 O 0.8472 0.76952 0.31737 0.0
O467 O 0.87383 0.79146 0.33951 0.0
O468 O 0.89603 0.73726 0.37743 0.0
O469 O 0.89923 0.77174 0.38732 0.0
O470 O 0.87812 0.73303 0.32209 0.0
O471 O 0.88337 0.70062 0.3503 0.0
H472 H 0.90335 0.70672 0.47684 0.0
H473 H 0.91475 0.69828 0.53146 0.0
H474 H 0.87358 0.63725 0.52393 0.0
H475 H 0.86282 0.64562 0.46938 0.0
H476 H 0.83781 0.8082 0.2664 0.0
H477 H 0.85159 0.81768 0.21559 0.0
H478 H 0.91382 0.7885 0.24439 0.0
H479 H 0.89948 0.77826 0.29453 0.0
Sm480 Sm 0.52391 0.64943 0.63179 0.0
Sm481 Sm 0.48213 0.6282 0.65353 0.0
C482 C 0.5643 0.65783 0.61422 0.0
C483 C 0.57355 0.65942 0.5836 0.0
C484 C 0.58775 0.64315 0.57515 0.0
C485 C 0.59402 0.64213 0.54463 0.0
C486 C 0.58645 0.65757 0.52235 0.0
C487 C 0.57307 0.67445 0.53101 0.0
C488 C 0.56651 0.6753 0.56146 0.0
C489 C 0.49137 0.6774 0.64402 0.0
C490 C 0.48135 0.64605 0.58061 0.0
C491 C 0.44576 0.61313 0.67806 0.0
C492 C 0.43578 0.6149 0.7076 0.0
C493 C 0.44701 0.62715 0.73235 0.0
C494 C 0.43825 0.62736 0.76138 0.0
C495 C 0.41816 0.61536 0.76579 0.0
C496 C 0.40657 0.60374 0.74066 0.0
C497 C 0.41545 0.60343 0.71161 0.0
C498 C 0.5049 0.60029 0.61862 0.0
C499 C 0.52287 0.64525 0.70851 0.0
O500 O 0.55658 0.63793 0.62123 0.0
O501 O 0.55152 0.67352 0.6218 0.0
O502 O 0.49787 0.66159 0.66036 0.0
O503 O 0.50303 0.68028 0.61987 0.0
O504 O 0.50321 0.6443 0.58401 0.0
O505 O 0.46945 0.64375 0.60541 0.0
O506 O 0.44669 0.63134 0.66138 0.0
O507 O 0.46409 0.60235 0.67944 0.0
O508 O 0.5139 0.6132 0.63983 0.0
O509 O 0.48361 0.60148 0.61628 0.0
O510 O 0.50225 0.6363 0.70266 0.0
O511 O 0.5349 0.65107 0.68502 0.0
H512 H 0.59329 0.63071 0.59184 0.0
H513 H 0.60455 0.62912 0.53829 0.0
H514 H 0.56705 0.68644 0.51394 0.0
H515 H 0.55538 0.6879 0.56727 0.0
H516 H 0.46267 0.6362 0.72934 0.0
H517 H 0.44719 0.63678 0.78044 0.0
H518 H 0.39102 0.59448 0.74376 0.0
H519 H 0.4067 0.59394 0.69249 0.0
Sm520 Sm 0.0031 0.37089 0.18799 0.0
Sm521 Sm 0.02375 0.36324 0.11807 0.0
C522 C 0.99294 0.36439 0.24756 0.0
C523 C 0.98318 0.35396 0.27614 0.0
C524 C 0.98993 0.33353 0.28868 0.0
C525 C 0.98292 0.32559 0.31771 0.0
C526 C 0.96872 0.33762 0.3355 0.0
C527 C 0.96167 0.35786 0.32235 0.0
C528 C 0.96883 0.36585 0.29351 0.0
C529 C 0.00796 0.40792 0.1517 0.0
C530 C 0.05832 0.37175 0.17859 0.0
C531 C 0.03187 0.36268 0.05733 0.0
C532 C 0.04218 0.35499 0.02857 0.0
C533 C 0.04544 0.37014 1.00416 0.0
C534 C 0.05183 0.36315 0.97489 0.0
C535 C 0.05582 0.34075 0.96923 0.0
C536 C 0.05346 0.32566 0.99417 0.0
C537 C 0.04647 0.33261 0.02327 0.0
C538 C 0.01422 0.32669 0.15481 0.0
C539 C 0.9707 0.36524 0.12517 0.0
O540 O 0.00978 0.35572 0.23535 0.0
O541 O 0.98134 0.37664 0.22758 0.0
O542 O 0.02031 0.39164 0.1524 0.0
O543 O 0.99438 0.40643 0.17399 0.0
O544 O 0.04142 0.37216 0.19673 0.0
O545 O 0.05639 0.36911 0.14779 0.0
O546 O 0.04277 0.37629 0.07781 0.0
O547 O 0.01703 0.34955 0.06978 0.0
O548 O 0.00493 0.34451 0.15256 0.0
O549 O 0.02861 0.32638 0.13366 0.0
O550 O 0.98752 0.3736 0.11 0.0
O551 O 0.97338 0.35822 0.15459 0.0
H552 H 0.00117 0.32386 0.27646 0.0
H553 H 0.98932 0.31023 0.32659 0.0
H554 H 0.95052 0.36778 0.33427 0.0
H555 H 0.96342 0.38177 0.28508 0.0
H556 H 0.04247 0.38748 1.0075 0.0
H557 H 0.05366 0.37536 0.95659 0.0
H558 H 0.05629 0.30827 0.99081 0.0
H559 H 0.04398 0.32039 0.04138 0.0
Sm560 Sm 0.52754 0.38647 0.41892 0.0
Sm561 Sm 0.48339 0.38263 0.37573 0.0
C562 C 0.55858 0.39555 0.46514 0.0
C563 C 0.56356 0.38787 0.49754 0.0
C564 C 0.57404 0.4026 0.52009 0.0
C565 C 0.58019 0.3952 0.55038 0.0
C566 C 0.57609 0.37285 0.55865 0.0
C567 C 0.56508 0.35825 0.53612 0.0
C568 C 0.55876 0.36572 0.50593 0.0
C569 C 0.51957 0.34708 0.38826 0.0
C570 C 0.47945 0.36988 0.44784 0.0
C571 C 0.45079 0.37518 0.33115 0.0
C572 C 0.44648 0.36765 0.29833 0.0
C573 C 0.45805 0.35046 0.28605 0.0
C574 C 0.45244 0.34278 0.25536 0.0
C575 C 0.43525 0.35218 0.23643 0.0
C576 C 0.4241 0.36968 0.24875 0.0
C577 C 0.42968 0.37732 0.27935 0.0
C578 C 0.49229 0.42184 0.40829 0.0
C579 C 0.53181 0.39029 0.34511 0.0
O580 O 0.54112 0.40736 0.45984 0.0
O581 O 0.56059 0.38106 0.44295 0.0
O582 O 0.50501 0.35789 0.40002 0.0
O583 O 0.53946 0.35545 0.39607 0.0
O584 O 0.50023 0.37808 0.45314 0.0
O585 O 0.46958 0.36731 0.41936 0.0
O586 O 0.45693 0.36034 0.35195 0.0
O587 O 0.46114 0.39465 0.33601 0.0
O588 O 0.50627 0.41146 0.3945 0.0
O589 O 0.47257 0.41212 0.40395 0.0
O590 O 0.51109 0.38186 0.34197 0.0
O591 O 0.54129 0.3976 0.37246 0.0
H592 H 0.57773 0.41979 0.51414 0.0
H593 H 0.58822 0.40701 0.56731 0.0
H594 H 0.56182 0.34091 0.54152 0.0
H595 H 0.55053 0.35405 0.48895 0.0
H596 H 0.47119 0.34281 0.30025 0.0
H597 H 0.46157 0.32951 0.24646 0.0
H598 H 0.41059 0.37712 0.23506 0.0
H599 H 0.42053 0.39054 0.28843 0.0
Sm600 Sm -0.00157 0.60284 0.91217 0.0
Sm601 Sm 0.0404 0.59944 0.87339 0.0
C602 C 0.96316 0.59835 0.94502 0.0
C603 C 0.95661 0.60647 0.97533 0.0
C604 C 0.94571 0.59181 0.99519 0.0
C605 C 0.93939 0.59915 0.02403 0.0
C606 C 0.94386 0.62137 0.03373 0.0
C607 C 0.95484 0.63601 1.01362 0.0
C608 C 0.96127 0.62861 0.98488 0.0
C609 C 0.02124 0.64197 0.90038 0.0
C610 C 0.04793 0.60934 0.94751 0.0
C611 C 0.07191 0.60168 0.83384 0.0
C612 C 0.07706 0.61085 0.80321 0.0
C613 C 0.06565 0.62852 0.78945 0.0
C614 C 0.07163 0.63735 0.76078 0.0
C615 C 0.08909 0.62862 0.74548 0.0
C616 C 0.10007 0.61063 0.75922 0.0
C617 C 0.09413 0.60189 0.78779 0.0
C618 C 0.02721 0.56175 0.90477 0.0
C619 C 0.99087 0.60443 0.83573 0.0
O620 O 0.9789 0.58419 0.9465 0.0
O621 O 0.96507 0.61303 0.92265 0.0
O622 O 0.01732 0.62596 0.88185 0.0
O623 O 0.01143 0.63856 0.92604 0.0
O624 O 0.02769 0.60019 0.94966 0.0
O625 O 0.05582 0.61414 0.9202 0.0
O626 O 0.07094 0.61593 0.85683 0.0
O627 O 0.05667 0.58535 0.83365 0.0
O628 O 0.01442 0.57467 0.89016 0.0
O629 O 0.0478 0.56782 0.90148 0.0
O630 O 0.01273 0.60551 0.83505 0.0
O631 O 0.98095 0.60094 0.86197 0.0
H632 H 0.94214 0.5746 0.98841 0.0
H633 H 0.93126 0.58724 0.03885 0.0
H634 H 0.95821 0.65333 1.01974 0.0
H635 H 0.9698 0.64027 0.97008 0.0
H636 H 0.05234 0.63561 0.80099 0.0
H637 H 0.06291 0.65129 0.75097 0.0
H638 H 0.11325 0.60318 0.74783 0.0
H639 H 0.10301 0.58817 0.79798 0.0
H640 H 0.06979 0.11267 0.9944 0.0
H641 H 0.07419 0.10822 0.93851 0.0
H642 H 0.1371 0.1459 0.94939 0.0
H643 H 0.1334 0.1497 1.00552 0.0
H644 H 0.10413 0.16216 0.90411 0.0
H645 H 0.13831 0.09375 0.93653 0.0
H646 H 0.13886 0.05711 0.96201 0.0
H647 H 0.08235 0.03383 0.90122 0.0
H648 H 0.08127 0.07047 0.87567 0.0
H649 H 0.14824 0.15813 0.7615 0.0
H650 H 0.1454 0.14883 0.81663 0.0
H651 H 0.08323 0.11182 0.79274 0.0
H652 H 0.08556 0.12154 0.73758 0.0
H653 H 0.11237 0.09332 0.84331 0.0
H654 H 0.07507 0.15893 0.8132 0.0
H655 H 0.07136 0.19468 0.78581 0.0
H656 H 0.12896 0.22227 0.84057 0.0
H657 H 0.13294 0.18668 0.86843 0.0
C658 C 0.08489 0.11943 0.98513 0.0
C659 C 0.10125 0.13163 1.0043 0.0
C660 C 0.08728 0.11696 0.95324 0.0
C661 C 0.10593 0.12676 0.94024 0.0
C662 C 0.1226 0.13828 0.95934 0.0
C663 C 0.12038 0.14054 0.99124 0.0
C664 C 0.10726 0.12672 0.90627 0.0
C665 C 0.10619 0.14716 0.89086 0.0
C666 C 0.10885 0.10695 0.88912 0.0
C667 C 0.10955 0.08493 0.90446 0.0
C668 C 0.12586 0.08089 0.92881 0.0
C669 C 0.1263 0.06011 0.94322 0.0
C670 C 0.1106 0.04317 0.93333 0.0
C671 C 0.09448 0.04697 0.90891 0.0
C672 C 0.09395 0.06774 0.89445 0.0
C673 C 0.1342 0.14765 0.76792 0.0
C674 C 0.11695 0.14082 0.74548 0.0
C675 C 0.13269 0.14226 0.79925 0.0
C676 C 0.11399 0.12993 0.80836 0.0
C677 C 0.09776 0.12134 0.7858 0.0
C678 C 0.09917 0.12685 0.7544 0.0
C679 C 0.11004 0.12879 0.84157 0.0
C680 C 0.1103 0.10824 0.85669 0.0
C681 C 0.10713 0.14838 0.85848 0.0
C682 C 0.10444 0.17008 0.84264 0.0
C683 C 0.08698 0.17261 0.81934 0.0
C684 C 0.08478 0.19286 0.80382 0.0
C685 C 0.09993 0.21073 0.81144 0.0
C686 C 0.1172 0.20843 0.83477 0.0
C687 C 0.11939 0.18825 0.85053 0.0
H688 H 0.09831 0.22632 0.79922 0.0
H689 H 0.11096 0.0271 0.94452 0.0
H690 H 0.13185 0.82507 0.3463 0.0
H691 H 0.12069 0.84374 0.29696 0.0
H692 H 0.12246 0.78179 0.24696 0.0
H693 H 0.13397 0.76334 0.29541 0.0
H694 H 0.14243 0.81337 0.21691 0.0
H695 H 0.073 0.80517 0.26694 0.0
H696 H 0.04887 0.81119 0.30973 0.0
H697 H 0.05754 0.88173 0.29799 0.0
H698 H 0.08202 0.87612 0.25546 0.0
H699 H 0.08542 0.83013 0.07072 0.0
H700 H 0.09638 0.81741 0.12365 0.0
H701 H 0.08741 0.88274 0.16026 0.0
H702 H 0.07545 0.89521 0.10731 0.0
H703 H 0.07333 0.85397 0.19918 0.0
H704 H 0.14087 0.86249 0.14745 0.0
H705 H 0.16638 0.85703 0.10617 0.0
H706 H 0.16263 0.78673 0.12233 0.0
H707 H 0.13688 0.79173 0.1634 0.0
C708 C 0.12981 0.81547 0.32477 0.0
C709 C 0.13387 0.79273 0.32483 0.0
C710 C 0.12334 0.82613 0.29663 0.0
C711 C 0.12054 0.81412 0.26827 0.0
C712 C 0.12453 0.79144 0.26848 0.0
C713 C 0.13111 0.78089 0.29634 0.0
C714 C 0.11392 0.82485 0.23797 0.0
C715 C 0.12722 0.8221 0.21298 0.0
C716 C 0.0945 0.83692 0.23308 0.0
C717 C 0.07955 0.84023 0.25831 0.0
C718 C 0.06989 0.82196 0.27365 0.0
C719 C 0.05614 0.8253 0.29783 0.0
C720 C 0.05174 0.84683 0.30665 0.0
C721 C 0.061 0.86507 0.2912 0.0
C722 C 0.07482 0.86182 0.26706 0.0
C723 C 0.08581 0.84175 0.0901 0.0
C724 C 0.07985 0.86371 0.08493 0.0
C725 C 0.09218 0.83453 0.12033 0.0
C726 C 0.0934 0.84928 0.14593 0.0
C727 C 0.08681 0.87107 0.14091 0.0
C728 C 0.07999 0.87819 0.11069 0.0
C729 C 0.10155 0.84191 0.17781 0.0
C730 C 0.08863 0.84539 0.20311 0.0
C731 C 0.12143 0.83053 0.18312 0.0
C732 C 0.13678 0.82748 0.15826 0.0
C733 C 0.14535 0.84585 0.142 0.0
C734 C 0.15988 0.84284 0.11868 0.0
C735 C 0.16608 0.82154 0.11157 0.0
C736 C 0.1578 0.80321 0.12782 0.0
C737 C 0.14325 0.80613 0.15113 0.0
H738 H 0.17733 0.81925 0.09351 0.0
H739 H 0.04112 0.84938 0.32541 0.0
H740 H 0.40113 0.81745 0.35162 0.0
H741 H 0.41507 0.82238 0.4064 0.0
H742 H 0.34865 0.83306 0.4315 0.0
H743 H 0.33448 0.82843 0.37628 0.0
H744 H 0.3848 0.86435 0.45763 0.0
H745 H 0.36775 0.78278 0.44594 0.0
H746 H 0.37172 0.74428 0.42836 0.0
H747 H 0.44262 0.75232 0.44697 0.0
H748 H 0.43914 0.79087 0.46408 0.0
H749 H 0.43647 0.84585 0.6206 0.0
H750 H 0.40755 0.84616 0.57643 0.0
H751 H 0.45617 0.82967 0.51274 0.0
H752 H 0.48412 0.8277 0.55557 0.0
H753 H 0.41844 0.80096 0.51365 0.0
H754 H 0.44328 0.87831 0.51042 0.0
H755 H 0.44873 0.91733 0.52781 0.0
H756 H 0.37813 0.92143 0.53044 0.0
H757 H 0.37229 0.88231 0.51345 0.0
C758 C 0.38955 0.82129 0.36869 0.0
C759 C 0.36676 0.82279 0.35987 0.0
C760 C 0.39748 0.82382 0.39991 0.0
C761 C 0.38274 0.82775 0.42267 0.0
C762 C 0.36011 0.82987 0.41398 0.0
C763 C 0.3521 0.82723 0.38266 0.0
C764 C 0.39118 0.82958 0.45558 0.0
C765 C 0.39183 0.85045 0.47027 0.0
C766 C 0.40104 0.81158 0.47123 0.0
C767 C 0.40312 0.78966 0.45639 0.0
C768 C 0.38418 0.77648 0.44564 0.0
C769 C 0.38637 0.75461 0.43593 0.0
C770 C 0.40739 0.74585 0.43697 0.0
C771 C 0.42635 0.75911 0.44642 0.0
C772 C 0.42428 0.78095 0.45603 0.0
C773 C 0.44074 0.84183 0.59722 0.0
C774 C 0.46253 0.83654 0.59171 0.0
C775 C 0.42442 0.84255 0.57211 0.0
C776 C 0.43004 0.83836 0.5416 0.0
C777 C 0.45168 0.83316 0.53625 0.0
C778 C 0.46758 0.83179 0.56098 0.0
C779 C 0.41335 0.83591 0.51502 0.0
C780 C 0.41081 0.81478 0.50149 0.0
C781 C 0.40372 0.8541 0.49951 0.0
C782 C 0.40737 0.87719 0.51146 0.0
C783 C 0.42895 0.88736 0.51537 0.0
C784 C 0.43211 0.90956 0.52493 0.0
C785 C 0.4138 0.92181 0.53044 0.0
C786 C 0.39231 0.91189 0.52636 0.0
C787 C 0.38907 0.88971 0.5168 0.0
H788 H 0.41627 0.93901 0.53769 0.0
H789 H 0.40901 0.7287 0.43085 0.0
H790 H 0.38018 0.16408 0.81644 0.0
H791 H 0.39082 0.14623 0.76882 0.0
H792 H 0.40851 0.21061 0.73105 0.0
H793 H 0.39655 0.22837 0.77745 0.0
H794 H 0.38807 0.18875 0.68797 0.0
H795 H 0.44787 0.17013 0.76411 0.0
H796 H 0.46443 0.15386 0.81288 0.0
H797 H 0.43527 0.08968 0.78493 0.0
H798 H 0.41835 0.10565 0.73617 0.0
H799 H 0.45705 0.15912 0.56978 0.0
H800 H 0.44394 0.17261 0.61851 0.0
H801 H 0.41525 0.10736 0.63668 0.0
H802 H 0.42765 0.09382 0.58747 0.0
H803 H 0.43868 0.12666 0.68891 0.0
H804 H 0.38202 0.14648 0.60994 0.0
H805 H 0.3668 0.1638 0.56121 0.0
H806 H 0.39251 0.22786 0.59513 0.0
H807 H 0.4082 0.21086 0.64385 0.0
C808 C 0.38645 0.17433 0.79796 0.0
C809 C 0.38761 0.19758 0.8006 0.0
C810 C 0.39267 0.16413 0.77083 0.0
C811 C 0.40087 0.177 0.74641 0.0
C812 C 0.40221 0.20024 0.7494 0.0
C813 C 0.39544 0.21041 0.77601 0.0
C814 C 0.40745 0.16664 0.71721 0.0
C815 C 0.39944 0.17541 0.68834 0.0
C816 C 0.42163 0.14865 0.71736 0.0
C817 C 0.43164 0.13913 0.74674 0.0
C818 C 0.44485 0.15259 0.76852 0.0
C819 C 0.45433 0.14341 0.79612 0.0
C820 C 0.45084 0.12077 0.80205 0.0
C821 C 0.43792 0.10723 0.78035 0.0
C822 C 0.42839 0.11633 0.75273 0.0
C823 C 0.44774 0.14766 0.5839 0.0
C824 C 0.44321 0.12541 0.57442 0.0
C825 C 0.44033 0.15539 0.61182 0.0
C826 C 0.42834 0.14105 0.63091 0.0
C827 C 0.4244 0.1187 0.62216 0.0
C828 C 0.43165 0.11097 0.5941 0.0
C829 C 0.41996 0.14941 0.66008 0.0
C830 C 0.42742 0.14009 0.68877 0.0
C831 C 0.40562 0.16718 0.65985 0.0
C832 C 0.39652 0.17735 0.63034 0.0
C833 C 0.38466 0.16422 0.60684 0.0
C834 C 0.37589 0.17399 0.57925 0.0
C835 C 0.37876 0.1969 0.57502 0.0
C836 C 0.39036 0.21011 0.59839 0.0
C837 C 0.39919 0.20041 0.62599 0.0
H838 H 0.37193 0.20444 0.55366 0.0
H839 H 0.4582 0.1137 0.82343 0.0
H840 H 0.87736 0.84295 0.19397 0.0
H841 H 0.89165 0.85459 0.14455 0.0
H842 H 0.92577 0.79381 0.1403 0.0
H843 H 0.91151 0.78197 0.18988 0.0
H844 H 0.95188 0.8272 0.12355 0.0
H845 H 0.87784 0.80084 0.09473 0.0
H846 H 0.83721 0.79712 0.09783 0.0
H847 H 0.83211 0.86607 0.07515 0.0
H848 H 0.87279 0.87031 0.07241 0.0
H849 H 0.93878 0.85367 0.94413 0.0
H850 H 0.92252 0.83817 0.99065 0.0
H851 H 0.96556 0.88293 0.04969 0.0
H852 H 0.98211 0.89811 1.00362 0.0
H853 H 0.90042 0.85253 0.03608 0.0
H854 H 0.98367 0.85841 0.11593 0.0
H855 H 0.02392 0.85621 0.11054 0.0
H856 H 0.00986 0.81821 0.02573 0.0
H857 H 0.9696 0.81993 0.03076 0.0
C858 C 0.88765 0.83186 0.18241 0.0
C859 C 0.89296 0.81132 0.19581 0.0
C860 C 0.8959 0.83862 0.15414 0.0
C861 C 0.90952 0.82494 0.13842 0.0
C862 C 0.91526 0.80464 0.15197 0.0
C863 C 0.90708 0.7979 0.18036 0.0
C864 C 0.91767 0.83191 0.10784 0.0
C865 C 0.94064 0.83273 0.10444 0.0
C866 C 0.90294 0.83842 0.08246 0.0
C867 C 0.87841 0.83592 0.08357 0.0
C868 C 0.86808 0.81525 0.09057 0.0
C869 C 0.84504 0.81304 0.09226 0.0
C870 C 0.8321 0.83136 0.08674 0.0
C871 C 0.84217 0.8519 0.07943 0.0
C872 C 0.86522 0.85421 0.07778 0.0
C873 C 0.94451 0.86044 0.96699 0.0
C874 C 0.96181 0.87704 0.9702 0.0
C875 C 0.93526 0.85152 0.99358 0.0
C876 C 0.94315 0.85905 0.02374 0.0
C877 C 0.95957 0.87645 0.02676 0.0
C878 C 0.96891 0.88523 1.00033 0.0
C879 C 0.93469 0.8485 0.05219 0.0
C880 C 0.91167 0.84698 0.05518 0.0
C881 C 0.94932 0.84055 0.07674 0.0
C882 C 0.97358 0.83945 0.07363 0.0
C883 C 0.98917 0.84951 0.0962 0.0
C884 C 0.01199 0.84836 0.0932 0.0
C885 C 0.01941 0.83707 0.06782 0.0
C886 C 0.00407 0.82698 0.04534 0.0
C887 C 0.98126 0.82807 0.04823 0.0
H888 H 0.03705 0.83609 0.06559 0.0
H889 H 0.81426 0.82962 0.08807 0.0
H890 H 0.91108 0.24819 0.83289 0.0
H891 H 0.92278 0.23671 0.88656 0.0
H892 H 0.94176 0.17419 0.8511 0.0
H893 H 0.93007 0.18545 0.79779 0.0
H894 H 0.92168 0.16659 0.90247 0.0
H895 H 0.98107 0.21743 0.87525 0.0
H896 H -0.00107 0.25272 0.8585 0.0
H897 H 0.97461 0.28649 0.93621 0.0
H898 H 0.95647 0.25142 0.95329 0.0
H899 H 0.00812 0.14535 0.03153 0.0
H900 H 0.99213 0.15786 0.98033 0.0
H901 H 0.94063 0.18908 0.02556 0.0
H902 H 0.95593 0.17579 0.0767 0.0
H903 H 0.97573 0.21297 0.97117 0.0
H904 H 0.91439 0.16119 0.99621 0.0
H905 H 0.89852 0.125 1.01286 0.0
H906 H 0.92762 0.09271 0.93784 0.0
H907 H 0.94427 0.12868 0.92138 0.0
C908 C 0.91758 0.23193 0.83652 0.0
C909 C 0.91957 0.21783 0.81073 0.0
C910 C 0.92449 0.22541 0.86733 0.0
C911 C 0.93352 0.20458 0.87326 0.0
C912 C 0.93496 0.19033 0.84754 0.0
C913 C 0.92825 0.19687 0.81685 0.0
C914 C 0.94143 0.19747 0.90597 0.0
C915 C 0.93356 0.17682 0.91729 0.0
C916 C 0.95681 0.21065 0.92599 0.0
C917 C 0.96719 0.23186 0.91531 0.0
C918 C 0.97933 0.23243 0.88856 0.0
C919 C 0.98957 0.25238 0.87907 0.0
C920 C 0.98784 0.27185 0.89621 0.0
C921 C 0.9759 0.27141 0.92291 0.0
C922 C 0.96566 0.2515 0.93253 0.0
C923 C 0.99327 0.15469 0.03062 0.0
C924 C 0.9833 0.15938 0.0584 0.0
C925 C 0.98412 0.16186 1.00125 0.0
C926 C 0.96501 0.17427 0.99886 0.0
C927 C 0.95519 0.17929 0.02658 0.0
C928 C 0.964 0.17165 0.05589 0.0
C929 C 0.95575 0.18236 0.96748 0.0
C930 C 0.96361 0.20301 0.95636 0.0
C931 C 0.94036 0.16924 0.94765 0.0
C932 C 0.93098 0.14754 0.95803 0.0
C933 C 0.91782 0.14631 0.98371 0.0
C934 C 0.90859 0.12585 0.99302 0.0
C935 C 0.91216 0.10655 0.97652 0.0
C936 C 0.92497 0.10767 0.95069 0.0
C937 C 0.93436 0.12807 0.94143 0.0
H938 H 0.90493 0.09073 0.98369 0.0
H939 H -0.00417 0.28726 0.88885 0.0
H940 H 0.62052 0.15132 0.74079 0.0
H941 H 0.60516 0.13946 0.68861 0.0
H942 H 0.63058 0.20092 0.64997 0.0
H943 H 0.64682 0.21241 0.70191 0.0
H944 H 0.57511 0.15328 0.65001 0.0
H945 H 0.64172 0.19493 0.57551 0.0
H946 H 0.68182 0.2059 0.58093 0.0
H947 H 0.6928 0.15506 0.64981 0.0
H948 H 0.65283 0.14363 0.64454 0.0
H949 H 0.53011 0.14736 0.49435 0.0
H950 H 0.54834 0.16109 0.54413 0.0
H951 H 0.60432 0.12138 0.53086 0.0
H952 H 0.58672 0.10902 0.4797 0.0
H953 H 0.61962 0.15657 0.55732 0.0
H954 H 0.55918 0.10557 0.5795 0.0
H955 H 0.52029 0.09037 0.57598 0.0
H956 H 0.49944 0.15077 0.61471 0.0
H957 H 0.53818 0.16646 0.61809 0.0
C958 C 0.62283 0.16233 0.72119 0.0
C959 C 0.63481 0.18289 0.72561 0.0
C960 C 0.61402 0.15553 0.69132 0.0
C961 C 0.61682 0.16917 0.66518 0.0
C962 C 0.62856 0.18984 0.66957 0.0
C963 C 0.63776 0.19647 0.69937 0.0
C964 C 0.60729 0.16174 0.63348 0.0
C965 C 0.58488 0.15397 0.62977 0.0
C966 C 0.62007 0.16221 0.60708 0.0
C967 C 0.64425 0.16856 0.6098 0.0
C968 C 0.65271 0.18601 0.59167 0.0
C969 C 0.67541 0.19233 0.59476 0.0
C970 C 0.68983 0.18123 0.61578 0.0
C971 C 0.6816 0.1637 0.63362 0.0
C972 C 0.65893 0.15731 0.63061 0.0
C973 C 0.54639 0.14172 0.50204 0.0
C974 C 0.55696 0.12695 0.48354 0.0
C975 C 0.55674 0.14944 0.53059 0.0
C976 C 0.57743 0.14174 0.5419 0.0
C977 C 0.58831 0.12748 0.52285 0.0
C978 C 0.57825 0.12035 0.49371 0.0
C979 C 0.58741 0.14813 0.57382 0.0
C980 C 0.60987 0.15578 0.57757 0.0
C981 C 0.57488 0.14675 0.60053 0.0
C982 C 0.55159 0.13723 0.59891 0.0
C983 C 0.5463 0.11564 0.58717 0.0
C984 C 0.52428 0.10695 0.58518 0.0
C985 C 0.50743 0.1196 0.59514 0.0
C986 C 0.51254 0.14099 0.60705 0.0
C987 C 0.53452 0.14978 0.60904 0.0
H988 H 0.49044 0.1128 0.59375 0.0
H989 H 0.70739 0.18618 0.61819 0.0
H990 H 0.53791 0.81334 0.41749 0.0
H991 H 0.54704 0.80151 0.36519 0.0
H992 H 0.61522 0.82459 0.38689 0.0
H993 H 0.60633 0.8359 0.43945 0.0
H994 H 0.59807 0.83727 0.32527 0.0
H995 H 0.60241 0.77257 0.38843 0.0
H996 H 0.58978 0.74254 0.42287 0.0
H997 H 0.54063 0.71948 0.3506 0.0
H998 H 0.55188 0.75016 0.31641 0.0
H999 H 0.63373 0.79519 0.18005 0.0
H1000 H 0.62941 0.80747 0.23334 0.0
H1001 H 0.57815 0.75544 0.24165 0.0
H1002 H 0.58657 0.74054 0.19172 0.0
H1003 H 0.58917 0.75857 0.29217 0.0
H1004 H 0.57961 0.82954 0.23309 0.0
H1005 H 0.59265 0.86051 0.2002 0.0
H1006 H 0.65121 0.87137 0.26332 0.0
H1007 H 0.63852 0.84047 0.29645 0.0
C1008 C 0.55488 0.816 0.41123 0.0
C1009 C 0.57131 0.82566 0.43327 0.0
C1010 C 0.56013 0.80909 0.38111 0.0
C1011 C 0.58194 0.81199 0.37149 0.0
C1012 C 0.59826 0.82204 0.39322 0.0
C1013 C 0.59313 0.82845 0.42359 0.0
C1014 C 0.58778 0.80441 0.33918 0.0
C1015 C 0.59596 0.82002 0.31791 0.0
C1016 C 0.58519 0.78197 0.32894 0.0
C1017 C 0.57772 0.76403 0.35005 0.0
C1018 C 0.58849 0.76147 0.38014 0.0
C1019 C 0.58153 0.74432 0.39967 0.0
C1020 C 0.56411 0.72932 0.38914 0.0
C1021 C 0.55371 0.73138 0.35901 0.0
C1022 C 0.56032 0.74872 0.3396 0.0
C1023 C 0.6215 0.7864 0.19332 0.0
C1024 C 0.60982 0.76722 0.18038 0.0
C1025 C 0.6185 0.79386 0.22418 0.0
C1026 C 0.60238 0.78357 0.24278 0.0
C1027 C 0.59077 0.76436 0.22932 0.0
C1028 C 0.59508 0.75597 0.19965 0.0
C1029 C 0.59792 0.79164 0.27612 0.0
C1030 C 0.59043 0.77601 0.29828 0.0
C1031 C 0.60074 0.81419 0.28696 0.0
C1032 C 0.60825 0.8326 0.26694 0.0
C1033 C 0.59528 0.83852 0.23982 0.0
C1034 C 0.60261 0.85605 0.22118 0.0
C1035 C 0.62278 0.86784 0.22961 0.0
C1036 C 0.63562 0.8622 0.25677 0.0
C1037 C 0.62837 0.84472 0.27549 0.0
H1038 H 0.62843 0.88138 0.21512 0.0
H1039 H 0.55878 0.71603 0.40426 0.0
H1040 H 0.65893 0.67803 0.25735 0.0
H1041 H 0.65501 0.67249 0.31307 0.0
H1042 H 0.61511 0.61196 0.29216 0.0
H1043 H 0.61791 0.61811 0.23624 0.0
H1044 H 0.59282 0.63999 0.32134 0.0
H1045 H 0.66523 0.61344 0.33588 0.0
H1046 H 0.70576 0.61185 0.33406 0.0
H1047 H 0.71611 0.67058 0.39111 0.0
H1048 H 0.67564 0.67337 0.39179 0.0
H1049 H 0.5798 0.62119 0.48508 0.0
H1050 H 0.59052 0.6173 0.43133 0.0
H1051 H 0.61643 0.6854 0.43333 0.0
H1052 H 0.60546 0.68949 0.48701 0.0
H1053 H 0.64601 0.64994 0.41538 0.0
H1054 H 0.57343 0.67876 0.39323 0.0
H1055 H 0.53283 0.67975 0.39603 0.0
H1056 H 0.52375 0.61455 0.35526 0.0
H1057 H 0.56433 0.61306 0.35263 0.0
C1058 C 0.64982 0.66323 0.26473 0.0
C1059 C 0.63832 0.64873 0.24255 0.0
C1060 C 0.64778 0.65996 0.29657 0.0
C1061 C 0.63464 0.64188 0.30661 0.0
C1062 C 0.62524 0.62606 0.28471 0.0
C1063 C 0.62702 0.62948 0.25281 0.0
C1064 C 0.6275 0.64175 0.33868 0.0
C1065 C 0.6045 0.64161 0.34195 0.0
C1066 C 0.6428 0.64465 0.36536 0.0
C1067 C 0.66724 0.6437 0.36365 0.0
C1068 C 0.67608 0.62633 0.34748 0.0
C1069 C 0.69909 0.62524 0.3466 0.0
C1070 C 0.7135 0.64122 0.36222 0.0
C1071 C 0.70492 0.65837 0.37868 0.0
C1072 C 0.68193 0.65977 0.3792 0.0
C1073 C 0.58773 0.6353 0.4739 0.0
C1074 C 0.59202 0.65559 0.48986 0.0
C1075 C 0.59371 0.63308 0.44339 0.0
C1076 C 0.60422 0.65107 0.42884 0.0
C1077 C 0.60833 0.67142 0.44456 0.0
C1078 C 0.60204 0.67375 0.47492 0.0
C1079 C 0.61166 0.64834 0.39751 0.0
C1080 C 0.63456 0.64802 0.39456 0.0
C1081 C 0.59636 0.64496 0.37112 0.0
C1082 C 0.57196 0.6457 0.37312 0.0
C1083 C 0.56279 0.66454 0.38522 0.0
C1084 C 0.53978 0.66522 0.38668 0.0
C1085 C 0.52573 0.6472 0.37592 0.0
C1086 C 0.53466 0.62848 0.36365 0.0
C1087 C 0.55766 0.62771 0.36216 0.0
H1088 H 0.50792 0.64776 0.37701 0.0
H1089 H 0.73132 0.64026 0.36172 0.0
H1090 H 0.60886 0.30214 0.84219 0.0
H1091 H 0.59694 0.31868 0.79142 0.0
H1092 H 0.66267 0.31246 0.76077 0.0
H1093 H 0.67422 0.29469 0.81073 0.0
H1094 H 0.62782 0.35886 0.75503 0.0
H1095 H 0.64584 0.28131 0.72773 0.0
H1096 H 0.6419 0.24147 0.73961 0.0
H1097 H 0.57078 0.24357 0.72707 0.0
H1098 H 0.57435 0.28386 0.71699 0.0
H1099 H 0.61513 0.3841 0.59352 0.0
H1100 H 0.62769 0.37062 0.64532 0.0
H1101 H 0.56691 0.3298 0.6476 0.0
H1102 H 0.55469 0.34254 0.5954 0.0
H1103 H 0.59849 0.30711 0.66946 0.0
H1104 H 0.57747 0.38033 0.69007 0.0
H1105 H 0.57663 0.42093 0.68403 0.0
H1106 H 0.6466 0.42796 0.7116 0.0
H1107 H 0.64794 0.38736 0.71737 0.0
C1108 C 0.62072 0.30447 0.82458 0.0
C1109 C 0.64235 0.29712 0.82993 0.0
C1110 C 0.61394 0.31387 0.79577 0.0
C1111 C 0.62891 0.31651 0.77245 0.0
C1112 C 0.65087 0.31026 0.77846 0.0
C1113 C 0.65743 0.30016 0.80683 0.0
C1114 C 0.62127 0.32473 0.74121 0.0
C1115 C 0.6217 0.34766 0.73605 0.0
C1116 C 0.61246 0.30999 0.71717 0.0
C1117 C 0.61037 0.28568 0.72229 0.0
C1118 C 0.62936 0.27339 0.72811 0.0
C1119 C 0.62719 0.25069 0.73444 0.0
C1120 C 0.60609 0.23994 0.73407 0.0
C1121 C 0.58712 0.25192 0.72746 0.0
C1122 C 0.58921 0.27472 0.72164 0.0
C1123 C 0.60431 0.37244 0.60516 0.0
C1124 C 0.58367 0.36473 0.59039 0.0
C1125 C 0.61152 0.36474 0.63485 0.0
C1126 C 0.59807 0.34951 0.65074 0.0
C1127 C 0.57759 0.3416 0.63593 0.0
C1128 C 0.57056 0.34899 0.60602 0.0
C1129 C 0.60549 0.34152 0.68254 0.0
C1130 C 0.60479 0.31853 0.68808 0.0
C1131 C 0.61359 0.35631 0.70714 0.0
C1132 C 0.61284 0.38076 0.70388 0.0
C1133 C 0.59271 0.39051 0.69464 0.0
C1134 C 0.59214 0.41353 0.69129 0.0
C1135 C 0.61156 0.42701 0.69736 0.0
C1136 C 0.63158 0.4175 0.70687 0.0
C1137 C 0.63225 0.39448 0.71021 0.0
H1138 H 0.61108 0.44483 0.69475 0.0
H1139 H 0.60444 0.22234 0.73884 0.0
H1140 H 0.94952 0.32463 0.12147 0.0
H1141 H 0.92285 0.31127 0.0784 0.0
H1142 H 0.92075 0.37777 0.04151 0.0
H1143 H 0.948 0.39099 0.0838 0.0
H1144 H 0.87829 0.35223 0.03837 0.0
H1145 H 0.95378 0.35064 1.01128 0.0
H1146 H 0.99311 0.34139 1.01436 0.0
H1147 H 0.97361 0.2719 1.0121 0.0
H1148 H 0.93406 0.28079 1.00886 0.0
H1149 H 0.85954 0.34759 0.87408 0.0
H1150 H 0.86873 0.35301 0.93011 0.0
H1151 H 0.87639 0.28266 0.94134 0.0
H1152 H 0.86859 0.2773 0.88503 0.0
H1153 H 0.91269 0.30566 0.96186 0.0
H1154 H 0.83553 0.30958 0.97977 0.0
H1155 H 0.79753 0.32195 0.96725 0.0
H1156 H 0.82137 0.38976 0.98231 0.0
H1157 H 0.85954 0.37774 0.99422 0.0
C1158 C 0.94263 0.33648 0.10485 0.0
C1159 C 0.95039 0.35884 0.10589 0.0
C1160 C 0.92764 0.32883 0.08021 0.0
C1161 C 0.92005 0.34361 0.05697 0.0
C1162 C 0.92643 0.36625 0.05947 0.0
C1163 C 0.94183 0.37378 0.08358 0.0
C1164 C 0.9074 0.33528 0.02828 0.0
C1165 C 0.88563 0.34188 0.02168 0.0
C1166 C 0.91721 0.32183 1.00674 0.0
C1167 C 0.94096 0.31638 1.01071 0.0
C1168 C 0.95787 0.33339 1.01215 0.0
C1169 C 0.98022 0.32822 1.01373 0.0
C1170 C 0.9859 0.30608 1.0139 0.0
C1171 C 0.96921 0.28905 1.01229 0.0
C1172 C 0.94682 0.29414 1.01054 0.0
C1173 C 0.86275 0.33322 0.8886 0.0
C1174 C 0.86364 0.3121 0.87514 0.0
C1175 C 0.8677 0.33629 0.92069 0.0
C1176 C 0.87311 0.31819 0.93987 0.0
C1177 C 0.8722 0.2968 0.92687 0.0
C1178 C 0.86756 0.29377 0.89471 0.0
C1179 C 0.88323 0.32216 0.97201 0.0
C1180 C 0.90482 0.31512 0.97909 0.0
C1181 C 0.87335 0.33541 0.99372 0.0
C1182 C 0.85036 0.34274 0.98755 0.0
C1183 C 0.83264 0.32712 0.98006 0.0
C1184 C 0.81109 0.33407 0.97314 0.0
C1185 C 0.80705 0.35664 0.97388 0.0
C1186 C 0.82453 0.37228 0.98171 0.0
C1187 C 0.84612 0.3654 0.9886 0.0
H1188 H 0.79036 0.362 0.96848 0.0
H1189 H 0.00321 0.30211 1.01498 0.0
H1190 H 0.9063 0.73101 0.27793 0.0
H1191 H 0.91563 0.71381 0.22941 0.0
H1192 H 0.8828 0.65207 0.2561 0.0
H1193 H 0.87499 0.66893 0.30588 0.0
H1194 H 0.91536 0.64171 0.22939 0.0
H1195 H 0.85955 0.69119 0.2006 0.0
H1196 H 0.83976 0.7259 0.19647 0.0
H1197 H 0.89221 0.75641 0.14656 0.0
H1198 H 0.91277 0.72226 0.1515 0.0
H1199 H 0.90714 0.60745 0.06453 0.0
H1200 H 0.89614 0.62068 0.11471 0.0
H1201 H 0.95286 0.66734 0.12219 0.0
H1202 H 0.96502 0.65331 0.07325 0.0
H1203 H 0.90453 0.68303 0.12954 0.0
H1204 H 0.9597 0.6291 0.16449 0.0
H1205 H 0.97338 0.59131 0.16495 0.0
H1206 H 0.91203 0.56545 0.19849 0.0
H1207 H 0.89784 0.60306 0.19769 0.0
C1208 C 0.90126 0.71371 0.27348 0.0
C1209 C 0.8899 0.70127 0.29548 0.0
C1210 C 0.90637 0.70393 0.24559 0.0
C1211 C 0.89936 0.68176 0.23848 0.0
C1212 C 0.88834 0.6692 0.26084 0.0
C1213 C 0.88386 0.67882 0.28927 0.0
C1214 C 0.9037 0.67178 0.20785 0.0
C1215 C 0.91264 0.65072 0.2076 0.0
C1216 C 0.89996 0.68327 0.17908 0.0
C1217 C 0.88784 0.70413 0.17669 0.0
C1218 C 0.86704 0.7054 0.18914 0.0
C1219 C 0.8557 0.72502 0.18672 0.0
C1220 C 0.86482 0.74343 0.17153 0.0
C1221 C 0.88528 0.74224 0.15867 0.0
C1222 C 0.89681 0.72276 0.16131 0.0
C1223 C 0.91762 0.6202 0.077 0.0
C1224 C 0.93702 0.62929 0.06448 0.0
C1225 C 0.91112 0.62788 0.10556 0.0
C1226 C 0.92365 0.64501 0.12189 0.0
C1227 C 0.94291 0.65419 0.10967 0.0
C1228 C 0.94971 0.64623 0.08149 0.0
C1229 C 0.91662 0.65359 0.15168 0.0
C1230 C 0.90706 0.67423 0.15155 0.0
C1231 C 0.91888 0.64138 0.17978 0.0
C1232 C 0.92762 0.61886 0.1807 0.0
C1233 C 0.94905 0.61533 0.17168 0.0
C1234 C 0.95691 0.59395 0.17206 0.0
C1235 C 0.94356 0.57598 0.18166 0.0
C1236 C 0.92234 0.57937 0.19101 0.0
C1237 C 0.91439 0.60072 0.19061 0.0
H1238 H 0.94967 0.55943 0.18194 0.0
H1239 H 0.85599 0.75858 0.16956 0.0
H1240 H 0.47676 0.39346 0.50111 0.0
H1241 H 0.45689 0.38254 0.54679 0.0
H1242 H 0.43553 0.32005 0.50174 0.0
H1243 H 0.45379 0.33197 0.45487 0.0
H1244 H 0.40428 0.33158 0.53325 0.0
H1245 H 0.4832 0.32894 0.55867 0.0
H1246 H 0.52132 0.34574 0.5609 0.0
H1247 H 0.50424 0.39463 0.62661 0.0
H1248 H 0.46567 0.37858 0.62383 0.0
H1249 H 0.38051 0.27535 0.67412 0.0
H1250 H 0.39704 0.28695 0.62594 0.0
H1251 H 0.41316 0.35216 0.66555 0.0
H1252 H 0.39679 0.34065 0.71378 0.0
H1253 H 0.44719 0.33837 0.63701 0.0
H1254 H 0.36815 0.34164 0.60998 0.0
H1255 H 0.32936 0.32618 0.60511 0.0
H1256 H 0.3474 0.2753 0.54319 0.0
H1257 H 0.38635 0.29034 0.54794 0.0
C1258 C 0.46767 0.37747 0.50101 0.0
C1259 C 0.46701 0.36337 0.47486 0.0
C1260 C 0.45642 0.37115 0.52715 0.0
C1261 C 0.44532 0.35008 0.52832 0.0
C1262 C 0.4441 0.33629 0.50164 0.0
C1263 C 0.45462 0.34302 0.47496 0.0
C1264 C 0.43571 0.34214 0.55764 0.0
C1265 C 0.41381 0.33281 0.55584 0.0
C1266 C 0.44794 0.34397 0.58737 0.0
C1267 C 0.4715 0.35262 0.59089 0.0
C1268 C 0.48757 0.34325 0.57364 0.0
C1269 C 0.50925 0.35271 0.57491 0.0
C1270 C 0.51525 0.37125 0.59394 0.0
C1271 C 0.49957 0.38028 0.61187 0.0
C1272 C 0.47777 0.37103 0.6104 0.0
C1273 C 0.38741 0.29221 0.67247 0.0
C1274 C 0.38727 0.30709 0.6978 0.0
C1275 C 0.39688 0.29883 0.64492 0.0
C1276 C 0.40613 0.32053 0.64195 0.0
C1277 C 0.40617 0.33533 0.66729 0.0
C1278 C 0.39683 0.3287 0.69488 0.0
C1279 C 0.4158 0.32793 0.61253 0.0
C1280 C 0.43773 0.33709 0.61436 0.0
C1281 C 0.40367 0.32581 0.58286 0.0
C1282 C 0.38017 0.31703 0.57947 0.0
C1283 C 0.36385 0.32711 0.59541 0.0
C1284 C 0.34184 0.31843 0.59267 0.0
C1285 C 0.33592 0.29975 0.57389 0.0
C1286 C 0.352 0.28976 0.55773 0.0
C1287 C 0.37404 0.29838 0.56039 0.0
H1288 H 0.31888 0.29304 0.57183 0.0
H1289 H 0.53201 0.37866 0.59475 0.0
H1290 H 0.43915 0.66089 0.56596 0.0
H1291 H 0.42304 0.67404 0.5154 0.0
H1292 H 0.48297 0.65924 0.47278 0.0
H1293 H 0.49938 0.6471 0.52347 0.0
H1294 H 0.47231 0.69335 0.44745 0.0
H1295 H 0.42899 0.62791 0.4609 0.0
H1296 H 0.40502 0.59975 0.48557 0.0
H1297 H 0.35349 0.64597 0.48745 0.0
H1298 H 0.37732 0.67456 0.4632 0.0
H1299 H 0.42567 0.69217 0.28958 0.0
H1300 H 0.43678 0.67907 0.34186 0.0
H1301 H 0.39251 0.72329 0.38095 0.0
H1302 H 0.38215 0.73767 0.32833 0.0
H1303 H 0.39404 0.67523 0.4076 0.0
H1304 H 0.44654 0.74024 0.38937 0.0
H1305 H 0.47168 0.75865 0.35336 0.0
H1306 H 0.50684 0.69887 0.34805 0.0
H1307 H 0.48252 0.68057 0.38487 0.0
C1308 C 0.44886 0.66024 0.54577 0.0
C1309 C 0.47062 0.65267 0.5491 0.0
C1310 C 0.43953 0.66772 0.51655 0.0
C1311 C 0.45143 0.66752 0.4894 0.0
C1312 C 0.47315 0.65983 0.49285 0.0
C1313 C 0.48258 0.65265 0.52208 0.0
C1314 C 0.44167 0.67578 0.45781 0.0
C1315 C 0.45516 0.68918 0.43913 0.0
C1316 C 0.41936 0.67041 0.4456 0.0
C1317 C 0.40507 0.65349 0.46069 0.0
C1318 C 0.41264 0.63216 0.46691 0.0
C1319 C 0.39906 0.6161 0.48074 0.0
C1320 C 0.37778 0.6211 0.4882 0.0
C1321 C 0.37001 0.64215 0.48176 0.0
C1322 C 0.38355 0.6583 0.46798 0.0
C1323 C 0.41827 0.69942 0.30916 0.0
C1324 C 0.40293 0.71626 0.30425 0.0
C1325 C 0.42469 0.69172 0.33931 0.0
C1326 C 0.41594 0.7003 0.36593 0.0
C1327 C 0.40004 0.71658 0.36123 0.0
C1328 C 0.39396 0.72478 0.3309 0.0
C1329 C 0.42458 0.69296 0.39828 0.0
C1330 C 0.41097 0.67963 0.41674 0.0
C1331 C 0.44709 0.69729 0.40962 0.0
C1332 C 0.4629 0.70916 0.39001 0.0
C1333 C 0.45993 0.73124 0.38094 0.0
C1334 C 0.47406 0.74166 0.36043 0.0
C1335 C 0.49104 0.73005 0.34864 0.0
C1336 C 0.49403 0.70806 0.35759 0.0
C1337 C 0.4802 0.69772 0.37848 0.0
H1338 H 0.50177 0.73805 0.33244 0.0
H1339 H 0.36727 0.60863 0.49887 0.0
H1340 H 0.14113 0.70987 0.19503 0.0
H1341 H 0.12717 0.69749 0.1422 0.0
H1342 H 0.10196 0.63573 0.1801 0.0
H1343 H 0.1163 0.64776 0.23276 0.0
H1344 H 0.12397 0.62869 0.1295 0.0
H1345 H 0.06695 0.67579 0.15698 0.0
H1346 H 0.05159 0.71024 0.17477 0.0
H1347 H 0.07641 0.7453 0.09633 0.0
H1348 H 0.09217 0.71108 0.07826 0.0
H1349 H 0.04881 0.58883 1.00377 0.0
H1350 H 0.06617 0.60315 0.05406 0.0
H1351 H 0.09298 0.66072 1.00719 0.0
H1352 H 0.07542 0.64647 0.95687 0.0
H1353 H 0.07178 0.67127 0.06055 0.0
H1354 H 0.12757 0.62304 0.03237 0.0
H1355 H 0.14176 0.58796 1.01475 0.0
H1356 H 0.11786 0.55452 0.09511 0.0
H1357 H 0.10329 0.58938 0.11302 0.0
C1358 C 0.13268 0.69363 0.19205 0.0
C1359 C 0.12976 0.6798 0.21804 0.0
C1360 C 0.12456 0.68665 0.16191 0.0
C1361 C 0.11337 0.66576 0.15729 0.0
C1362 C 0.1105 0.65193 0.18318 0.0
C1363 C 0.11854 0.6589 0.21327 0.0
C1364 C 0.10507 0.658 0.1254 0.0
C1365 C 0.11238 0.6379 0.11456 0.0
C1366 C 0.09037 0.6703 0.10565 0.0
C1367 C 0.08098 0.69093 0.11648 0.0
C1368 C 0.06932 0.69089 0.14368 0.0
C1369 C 0.06049 0.71036 0.15378 0.0
C1370 C 0.06309 0.72997 0.13675 0.0
C1371 C 0.07446 0.73011 0.10953 0.0
C1372 C 0.08332 0.71068 0.09933 0.0
C1373 C 0.05853 0.60446 1.00432 0.0
C1374 C 0.06083 0.61655 0.97669 0.0
C1375 C 0.06849 0.61257 0.0329 0.0
C1376 C 0.08087 0.63297 0.03427 0.0
C1377 C 0.08349 0.64494 1.00655 0.0
C1378 C 0.07369 0.63669 0.97787 0.0
C1379 C 0.09057 0.64193 0.06486 0.0
C1380 C 0.08351 0.66221 0.07544 0.0
C1381 C 0.1054 0.62976 0.0845 0.0
C1382 C 0.11421 0.60878 0.07391 0.0
C1383 C 0.12521 0.60817 0.04617 0.0
C1384 C 0.13334 0.58833 0.03615 0.0
C1385 C 0.13067 0.56901 0.05377 0.0
C1386 C 0.1199 0.5695 0.08148 0.0
C1387 C 0.11174 0.5893 0.0916 0.0
H1388 H 0.13699 0.55367 0.04597 0.0
H1389 H 0.05624 0.74503 0.1446 0.0
H1390 H 0.08265 0.29902 0.67052 0.0
H1391 H 0.07235 0.31132 0.72144 0.0
H1392 H 0.11655 0.26516 0.7671 0.0
H1393 H 0.1243 0.25104 0.71603 0.0
H1394 H 0.09045 0.26556 0.80218 0.0
H1395 H 0.12185 0.33332 0.75908 0.0
H1396 H 0.12546 0.36352 0.72056 0.0
H1397 H 0.05776 0.37933 0.72964 0.0
H1398 H 0.05372 0.34914 0.76802 0.0
H1399 H 0.08956 0.31417 0.95493 0.0
H1400 H 0.09991 0.30292 0.90332 0.0
H1401 H 0.04559 0.33817 0.85919 0.0
H1402 H 0.03626 0.35064 0.91079 0.0
H1403 H 0.0767 0.34388 0.82438 0.0
H1404 H 0.04916 0.27324 0.87064 0.0
H1405 H 0.05057 0.24435 0.91156 0.0
H1406 H 0.1196 0.23655 0.89904 0.0
H1407 H 0.11854 0.26531 0.85802 0.0
C1408 C 0.09018 0.29152 0.69146 0.0
C1409 C 0.10451 0.27407 0.68894 0.0
C1410 C 0.08459 0.29894 0.72106 0.0
C1411 C 0.09423 0.29016 0.74939 0.0
C1412 C 0.10868 0.27273 0.74647 0.0
C1413 C 0.1134 0.26465 0.71695 0.0
C1414 C 0.08897 0.29825 0.78186 0.0
C1415 C 0.088 0.28287 0.80667 0.0
C1416 C 0.08499 0.32072 0.78908 0.0
C1417 C 0.08744 0.33886 0.76613 0.0
C1418 C 0.10773 0.3432 0.75273 0.0
C1419 C 0.10984 0.36031 0.73095 0.0
C1420 C 0.09183 0.37329 0.72259 0.0
C1421 C 0.07169 0.36925 0.73609 0.0
C1422 C 0.06948 0.35216 0.75788 0.0
C1423 C 0.07974 0.31945 0.93424 0.0
C1424 C 0.06193 0.33326 0.93735 0.0
C1425 C 0.08555 0.31278 0.90443 0.0
C1426 C 0.07322 0.31892 0.87658 0.0
C1427 C 0.05552 0.3329 0.87979 0.0
C1428 C 0.05009 0.34005 0.90954 0.0
C1429 C 0.07874 0.31123 0.84424 0.0
C1430 C 0.07952 0.32665 0.81955 0.0
C1431 C 0.08344 0.289 0.83735 0.0
C1432 C 0.08379 0.27148 0.86152 0.0
C1433 C 0.06461 0.26535 0.87667 0.0
C1434 C 0.06535 0.24899 0.89983 0.0
C1435 C 0.08517 0.23865 0.90792 0.0
C1436 C 0.10426 0.24456 0.89277 0.0
C1437 C 0.10358 0.26082 0.8695 0.0
H1438 H 0.08573 0.22603 0.92591 0.0
H1439 H 0.0935 0.38651 0.7057 0.0
H1440 H 0.98987 0.32504 0.20429 0.0
H1441 H 0.95493 0.30338 0.20613 0.0
H1442 H 0.97162 0.26433 0.12754 0.0
H1443 H 0.006 0.28713 0.12444 0.0
H1444 H 0.92621 0.27596 0.12194 0.0
H1445 H 0.98231 0.2476 0.20539 0.0
H1446 H 0.00629 0.25916 0.25258 0.0
H1447 H 0.94928 0.27957 0.29679 0.0
H1448 H 0.92514 0.26947 0.24886 0.0
H1449 H 0.98958 0.2127 0.11226 0.0
H1450 H 0.954 0.22895 0.11052 0.0
H1451 H 0.93511 0.18684 0.18719 0.0
H1452 H 0.97191 0.17221 0.19048 0.0
H1453 H 0.92839 0.22111 0.20739 0.0
H1454 H 0.88789 0.20786 0.11899 0.0
H1455 H 0.87358 0.19488 0.06627 0.0
H1456 H 0.91409 0.24552 0.02452 0.0
H1457 H 0.92906 0.25861 0.07649 0.0
C1458 C 0.98644 0.31133 0.18815 0.0
C1459 C 0.00067 0.30761 0.16442 0.0
C1460 C 0.96615 0.29942 0.18864 0.0
C1461 C 0.96035 0.28275 0.16639 0.0
C1462 C 0.9755 0.27764 0.14438 0.0
C1463 C -0.00444 0.29003 0.14334 0.0
C1464 C 0.94007 0.26834 0.16823 0.0
C1465 C 0.92686 0.26359 0.14029 0.0
C1466 C 0.93823 0.25387 0.19395 0.0
C1467 C 0.95199 0.25776 0.22379 0.0
C1468 C 0.9749 0.25437 0.22533 0.0
C1469 C 0.98853 0.26087 0.25201 0.0
C1470 C 0.97928 0.26984 0.2778 0.0
C1471 C 0.95639 0.27256 0.27681 0.0
C1472 C 0.94274 0.26665 0.24979 0.0
C1473 C 0.97782 0.20707 0.12881 0.0
C1474 C 0.9837 0.19184 0.15217 0.0
C1475 C 0.95694 0.2159 0.12736 0.0
C1476 C 0.94141 0.2097 0.14935 0.0
C1477 C 0.94663 0.19246 0.17034 0.0
C1478 C 0.96781 0.18422 0.17244 0.0
C1479 C 0.92442 0.22557 0.15709 0.0
C1480 C 0.92746 0.23302 0.18843 0.0
C1481 C 0.91853 0.24165 0.13424 0.0
C1482 C 0.90929 0.23457 0.10219 0.0
C1483 C 0.89372 0.21635 0.09864 0.0
C1484 C 0.88553 0.20891 0.06875 0.0
C1485 C 0.89281 0.21948 0.04209 0.0
C1486 C 0.90829 0.23751 0.04522 0.0
C1487 C 0.91653 0.24506 0.07501 0.0
H1488 H 0.88653 0.21362 1.01897 0.0
H1489 H 0.98988 0.2746 0.29857 0.0
H1490 H 0.93095 0.71533 0.402 0.0
H1491 H 0.96552 0.71267 0.43531 0.0
H1492 H 0.95866 0.77873 0.47096 0.0
H1493 H 0.92526 0.78204 0.43597 0.0
H1494 H 0.99277 0.77772 0.43991 0.0
H1495 H 0.97116 0.73332 0.52777 0.0
H1496 H 0.95196 0.70264 0.55478 0.0
H1497 H 0.98053 0.6552 0.49723 0.0
H1498 H 0.00063 0.68558 0.47075 0.0
H1499 H 0.10636 0.77077 0.448 0.0
H1500 H 0.07264 0.77351 0.47592 0.0
H1501 H 0.04825 0.70937 0.43897 0.0
H1502 H 0.08222 0.70627 0.41264 0.0
H1503 H 0.03143 0.71615 0.4934 0.0
H1504 H 0.03943 0.75599 0.39501 0.0
H1505 H 0.05837 0.78286 0.36117 0.0
H1506 H 0.05199 0.83481 0.42801 0.0
H1507 H 0.0332 0.80812 0.46238 0.0
C1508 C 0.93667 0.72905 0.41744 0.0
C1509 C 0.92593 0.74908 0.41592 0.0
C1510 C 0.95614 0.72737 0.43704 0.0
C1511 C 0.96467 0.74552 0.45578 0.0
C1512 C 0.9524 0.76455 0.45672 0.0
C1513 C 0.93354 0.76654 0.43633 0.0
C1514 C 0.98863 0.7473 0.46601 0.0
C1515 C 0.00115 0.76473 0.45294 0.0
C1516 C -0.00035 0.73003 0.48194 0.0
C1517 C 0.98729 0.71172 0.49723 0.0
C1518 C 0.97326 0.71634 0.52081 0.0
C1519 C 0.96231 0.699 0.53611 0.0
C1520 C 0.96479 0.67699 0.52748 0.0
C1521 C 0.97856 0.67225 0.50385 0.0
C1522 C 0.98993 0.68951 0.48893 0.0
C1523 C 0.09385 0.75729 0.44629 0.0
C1524 C 0.09631 0.73875 0.42745 0.0
C1525 C 0.07485 0.75864 0.46257 0.0
C1526 C 0.05785 0.7418 0.45903 0.0
C1527 C 0.06118 0.72253 0.44211 0.0
C1528 C 0.08035 0.72097 0.42653 0.0
C1529 C 0.03503 0.74602 0.46623 0.0
C1530 C 0.02288 0.72979 0.48227 0.0
C1531 C 0.02405 0.76395 0.45193 0.0
C1532 C 0.03521 0.78008 0.43138 0.0
C1533 C 0.04218 0.77314 0.40251 0.0
C1534 C 0.05287 0.78831 0.38325 0.0
C1535 C 0.05644 0.81052 0.39248 0.0
C1536 C 0.04927 0.81759 0.42095 0.0
C1537 C 0.03861 0.80246 0.44033 0.0
H1538 H 0.06471 0.82225 0.37752 0.0
H1539 H 0.95613 0.66362 0.53919 0.0
H1540 H 0.47089 0.676 0.698 0.0
H1541 H 0.44592 0.7029 0.71404 0.0
H1542 H 0.43631 0.72633 0.62007 0.0
H1543 H 0.46273 0.70012 0.60297 0.0
H1544 H 0.47034 0.74688 0.63301 0.0
H1545 H 0.41679 0.75069 0.70161 0.0
H1546 H 0.38892 0.7426 0.73966 0.0
H1547 H 0.44071 0.72767 0.80993 0.0
H1548 H 0.46879 0.73453 0.77209 0.0
H1549 H 0.52798 0.83194 0.7268 0.0
H1550 H 0.50307 0.80082 0.73899 0.0
H1551 H 0.54312 0.75692 0.69104 0.0
H1552 H 0.56544 0.78896 0.67371 0.0
H1553 H 0.48473 0.76524 0.74535 0.0
H1554 H 0.52235 0.73204 0.64514 0.0
H1555 H 0.54612 0.73935 0.60145 0.0
H1556 H 0.52096 0.80426 0.59016 0.0
H1557 H 0.49815 0.79775 0.6351 0.0
C1558 C 0.46369 0.68706 0.68049 0.0
C1559 C 0.47105 0.68826 0.65015 0.0
C1560 C 0.44895 0.70238 0.68951 0.0
C1561 C 0.44471 0.72038 0.66943 0.0
C1562 C 0.44343 0.71493 0.63715 0.0
C1563 C 0.45902 0.70047 0.62733 0.0
C1564 C 0.45828 0.7413 0.67912 0.0
C1565 C 0.47326 0.74989 0.65801 0.0
C1566 C 0.46192 0.74813 0.711 0.0
C1567 C 0.445 0.7434 0.7339 0.0
C1568 C 0.42226 0.74547 0.72507 0.0
C1569 C 0.40639 0.74099 0.74662 0.0
C1570 C 0.41303 0.73457 0.77718 0.0
C1571 C 0.43556 0.73254 0.78623 0.0
C1572 C 0.45147 0.73674 0.76471 0.0
C1573 C 0.53184 0.81548 0.71975 0.0
C1574 C 0.54662 0.81287 0.69655 0.0
C1575 C 0.51761 0.79758 0.72682 0.0
C1576 C 0.51963 0.77709 0.71216 0.0
C1577 C 0.53989 0.77327 0.69939 0.0
C1578 C 0.55315 0.7915 0.6903 0.0
C1579 C 0.49886 0.7642 0.70081 0.0
C1580 C 0.4821 0.75969 0.72125 0.0
C1581 C 0.49379 0.75982 0.66842 0.0
C1582 C 0.50928 0.76479 0.64401 0.0
C1583 C 0.52244 0.7481 0.63381 0.0
C1584 C 0.5358 0.75214 0.60899 0.0
C1585 C 0.53549 0.77252 0.59351 0.0
C1586 C 0.52183 0.78886 0.6029 0.0
C1587 C 0.50888 0.78511 0.62823 0.0
H1588 H 0.54557 0.77554 0.57396 0.0
H1589 H 0.40072 0.73117 0.79386 0.0
H1590 H 0.59875 0.21547 0.94962 0.0
H1591 H 0.56294 0.22058 0.97048 0.0
H1592 H 0.5623 0.28657 0.93133 0.0
H1593 H 0.59906 0.28212 0.91268 0.0
H1594 H 0.53671 0.28448 0.97775 0.0
H1595 H 0.54466 0.24373 0.8858 0.0
H1596 H 0.559 0.21576 0.85176 0.0
H1597 H 0.53187 0.16355 0.9079 0.0
H1598 H 0.51772 0.19131 0.94269 0.0
H1599 H 0.43386 0.28723 0.88648 0.0
H1600 H 0.47104 0.2883 0.91307 0.0
H1601 H 0.45478 0.22659 0.95947 0.0
H1602 H 0.41779 0.22487 0.93106 0.0
H1603 H 0.48845 0.22437 0.92483 0.0
H1604 H 0.4643 0.28033 0.99154 0.0
H1605 H 0.45015 0.31574 1.00715 0.0
H1606 H 0.50567 0.35108 0.97005 0.0
H1607 H 0.52027 0.31594 0.95425 0.0
C1608 C 0.5912 0.23128 0.9463 0.0
C1609 C 0.60112 0.24821 0.92891 0.0
C1610 C 0.57094 0.23427 0.9585 0.0
C1611 C 0.55978 0.25368 0.95163 0.0
C1612 C 0.57064 0.27142 0.93678 0.0
C1613 C 0.5914 0.26875 0.92567 0.0
C1614 C 0.53551 0.25342 0.95299 0.0
C1615 C 0.52591 0.27148 0.96625 0.0
C1616 C 0.52175 0.23643 0.93756 0.0
C1617 C 0.53053 0.21957 0.91719 0.0
C1618 C 0.542 0.22628 0.89111 0.0
C1619 C 0.55005 0.21048 0.87165 0.0
C1620 C 0.54645 0.18788 0.87776 0.0
C1621 C 0.53475 0.18106 0.90332 0.0
C1622 C 0.52674 0.19682 0.92295 0.0
C1623 C 0.43823 0.274 0.90258 0.0
C1624 C 0.4235 0.25562 0.90627 0.0
C1625 C 0.45927 0.27486 0.91821 0.0
C1626 C 0.4655 0.25772 0.9386 0.0
C1627 C 0.45015 0.24003 0.94391 0.0
C1628 C 0.42928 0.23885 0.92744 0.0
C1629 C 0.48914 0.25591 0.94873 0.0
C1630 C 0.49883 0.23723 0.93745 0.0
C1631 C 0.50278 0.27367 0.96292 0.0
C1632 C 0.49376 0.29508 0.97242 0.0
C1633 C 0.47373 0.29551 0.98707 0.0
C1634 C 0.46551 0.31564 0.99577 0.0
C1635 C 0.47706 0.33564 0.98979 0.0
C1636 C 0.49681 0.33555 0.97494 0.0
C1637 C 0.50512 0.31546 0.96625 0.0
H1638 H 0.47064 0.3512 0.99651 0.0
H1639 H 0.55263 0.17566 0.8626 0.0
H1640 H 0.99188 0.81336 0.93496 0.0
H1641 H 0.99221 0.77582 0.91378 0.0
H1642 H 0.99018 0.80189 0.81976 0.0
H1643 H 0.98891 0.83934 0.8406 0.0
H1644 H 0.97389 0.74898 0.83834 0.0
H1645 H 0.03797 0.80652 0.83646 0.0
H1646 H 0.05846 0.83925 0.86193 0.0
H1647 H 0.06486 0.80427 0.94915 0.0
H1648 H 0.04459 0.77138 0.92435 0.0
H1649 H 0.03121 0.65327 0.84167 0.0
H1650 H 0.03335 0.69103 0.82135 0.0
H1651 H 0.0332 0.71671 0.91556 0.0
H1652 H 0.03065 0.679 0.93595 0.0
H1653 H 0.05437 0.74603 0.87229 0.0
H1654 H 0.98265 0.70047 0.88593 0.0
H1655 H 0.95984 0.66582 0.87391 0.0
H1656 H 0.96655 0.67552 0.77555 0.0
H1657 H 0.98928 0.71017 0.78708 0.0
C1658 C 0.99027 0.81095 0.90975 0.0
C1659 C 0.99138 0.82902 0.88937 0.0
C1660 C 0.99022 0.78956 0.89766 0.0
C1661 C 0.99185 0.78646 0.8654 0.0
C1662 C 0.98903 0.80416 0.84471 0.0
C1663 C 0.98859 0.82552 0.85674 0.0
C1664 C 0.00376 0.76749 0.85584 0.0
C1665 C 0.99166 0.74846 0.84431 0.0
C1666 C 0.0269 0.76702 0.86417 0.0
C1667 C 0.03985 0.78654 0.87855 0.0
C1668 C 0.0438 0.80584 0.86105 0.0
C1669 C 0.05531 0.82441 0.87534 0.0
C1670 C 0.06286 0.82384 0.90706 0.0
C1671 C 0.05904 0.80468 0.92457 0.0
C1672 C 0.04765 0.78605 0.91039 0.0
C1673 C 0.03258 0.667 0.85815 0.0
C1674 C 0.02991 0.66353 0.89018 0.0
C1675 C 0.034 0.68849 0.84648 0.0
C1676 C 0.03297 0.70641 0.86695 0.0
C1677 C 0.03392 0.70292 0.89948 0.0
C1678 C 0.03221 0.68145 0.9111 0.0
C1679 C 0.02449 0.72736 0.85529 0.0
C1680 C 0.03709 0.74688 0.86341 0.0
C1681 C 0.00179 0.7282 0.84433 0.0
C1682 C 0.98758 0.7078 0.83731 0.0
C1683 C 0.97912 0.6952 0.86175 0.0
C1684 C 0.96622 0.67557 0.85503 0.0
C1685 C 0.96161 0.66851 0.82395 0.0
C1686 C 0.96997 0.68103 0.79958 0.0
C1687 C 0.98283 0.70067 0.80617 0.0
H1688 H 0.95157 0.65336 0.81874 0.0
H1689 H 0.07176 0.83821 0.91803 0.0
H1690 H 0.58481 0.7849 0.08849 0.0
H1691 H 0.55298 0.80406 0.10282 0.0
H1692 H 0.50918 0.7564 0.05039 0.0
H1693 H 0.54131 0.73658 0.03665 0.0
H1694 H 0.49839 0.80921 0.09395 0.0
H1695 H 0.50265 0.72951 0.0907 0.0
H1696 H 0.51568 0.69157 0.0888 0.0
H1697 H 0.56822 0.7089 0.15954 0.0
H1698 H 0.55629 0.7476 0.15968 0.0
H1699 H 0.44887 0.73601 0.21427 0.0
H1700 H 0.48038 0.74199 0.184 0.0
H1701 H 0.48304 0.8122 0.20619 0.0
H1702 H 0.44845 0.80637 0.23195 0.0
H1703 H 0.51624 0.75426 0.17722 0.0
H1704 H 0.4969 0.84166 0.15146 0.0
H1705 H 0.46782 0.86756 0.1612 0.0
H1706 H 0.41747 0.81491 0.14518 0.0
H1707 H 0.44633 0.78869 0.1357 0.0
C1708 C 0.56858 0.77951 0.07788 0.0
C1709 C 0.56524 0.75904 0.06243 0.0
C1710 C 0.55026 0.79059 0.08593 0.0
C1711 C 0.52893 0.78056 0.07936 0.0
C1712 C 0.52572 0.76367 0.05672 0.0
C1713 C 0.54405 0.75229 0.049 0.0
C1714 C 0.51518 0.77939 0.10604 0.0
C1715 C 0.50153 0.79673 0.11178 0.0
C1716 C 0.51945 0.76321 0.12947 0.0
C1717 C 0.52944 0.74175 0.12403 0.0
C1718 C 0.51771 0.72558 0.10456 0.0
C1719 C 0.52473 0.70388 0.10398 0.0
C1720 C 0.5429 0.69786 0.12383 0.0
C1721 C 0.55426 0.71362 0.14398 0.0
C1722 C 0.54774 0.73553 0.14374 0.0
C1723 C 0.45639 0.75264 0.21308 0.0
C1724 C 0.44567 0.77091 0.22309 0.0
C1725 C 0.47471 0.75616 0.19603 0.0
C1726 C 0.48323 0.77796 0.19091 0.0
C1727 C 0.47566 0.79554 0.20785 0.0
C1728 C 0.45626 0.79216 0.22306 0.0
C1729 C 0.49667 0.78188 0.16395 0.0
C1730 C 0.51203 0.76614 0.15892 0.0
C1731 C 0.4911 0.79736 0.1399 0.0
C1732 C 0.47366 0.81334 0.14276 0.0
C1733 C 0.47959 0.83572 0.14968 0.0
C1734 C 0.46319 0.85037 0.15549 0.0
C1735 C 0.44081 0.84287 0.15377 0.0
C1736 C 0.43478 0.8207 0.14627 0.0
C1737 C 0.45113 0.80595 0.14072 0.0
H1738 H 0.42814 0.85424 0.15817 0.0
H1739 H 0.54809 0.68097 0.12377 0.0
H1740 H 0.54921 0.16147 0.38139 0.0
H1741 H 0.55623 0.19599 0.35279 0.0
H1742 H 0.48881 0.19126 0.31152 0.0
H1743 H 0.48177 0.1569 0.33891 0.0
H1744 H 0.52096 0.22302 0.27968 0.0
H1745 H 0.48523 0.20666 0.38172 0.0
H1746 H 0.4867 0.18567 0.43138 0.0
H1747 H 0.55456 0.20951 0.45257 0.0
H1748 H 0.55343 0.23051 0.40288 0.0
H1749 H 0.48094 0.32197 0.37677 0.0
H1750 H 0.47692 0.28663 0.34814 0.0
H1751 H 0.54344 0.2972 0.31908 0.0
H1752 H 0.5476 0.33233 0.34769 0.0
H1753 H 0.51253 0.26238 0.37971 0.0
H1754 H 0.54379 0.25829 0.25532 0.0
H1755 H 0.53793 0.27675 0.20413 0.0
H1756 H 0.47291 0.29396 0.22638 0.0
H1757 H 0.47844 0.27575 0.27781 0.0
C1758 C 0.53627 0.16734 0.36494 0.0
C1759 C 0.51467 0.15741 0.36333 0.0
C1760 C 0.54041 0.18676 0.34816 0.0
C1761 C 0.52281 0.19627 0.33043 0.0
C1762 C 0.50255 0.18409 0.32467 0.0
C1763 C 0.49837 0.1648 0.34127 0.0
C1764 C 0.52177 0.22048 0.33 0.0
C1765 C 0.51964 0.23189 0.30146 0.0
C1766 C 0.51885 0.2316 0.35833 0.0
C1767 C 0.51927 0.22 0.38878 0.0
C1768 C 0.50039 0.20747 0.39713 0.0
C1769 C 0.50118 0.19555 0.42519 0.0
C1770 C 0.52072 0.19624 0.44512 0.0
C1771 C 0.53945 0.20898 0.43712 0.0
C1772 C 0.53874 0.22091 0.40906 0.0
C1773 C 0.49435 0.31707 0.36332 0.0
C1774 C 0.51491 0.3291 0.36543 0.0
C1775 C 0.49192 0.29714 0.34659 0.0
C1776 C 0.51001 0.28935 0.33191 0.0
C1777 C 0.52932 0.30303 0.33021 0.0
C1778 C 0.53183 0.32281 0.34713 0.0
C1779 C 0.51207 0.26535 0.32938 0.0
C1780 C 0.51429 0.25386 0.35774 0.0
C1781 C 0.5148 0.25442 0.30088 0.0
C1782 C 0.51163 0.26585 0.27044 0.0
C1783 C 0.52828 0.26609 0.2493 0.0
C1784 C 0.52503 0.27657 0.22029 0.0
C1785 C 0.50509 0.28664 0.2121 0.0
C1786 C 0.48841 0.28636 0.23293 0.0
C1787 C 0.49164 0.27606 0.26205 0.0
H1788 H 0.50243 0.29456 0.18956 0.0
H1789 H 0.52134 0.18693 0.46676 0.0
H1790 H 0.06041 0.26191 0.53189 0.0
H1791 H 0.02663 0.28146 0.5186 0.0
H1792 H 0.02741 0.30398 0.6142 0.0
H1793 H 0.05938 0.28249 0.62829 0.0
H1794 H 0.0067 0.25049 0.55587 0.0
H1795 H 0.98542 0.33044 0.62931 0.0
H1796 H 0.98481 0.37047 0.62014 0.0
H1797 H 0.98724 0.35988 0.52126 0.0
H1798 H 0.98766 0.31963 0.52977 0.0
H1799 H 0.97912 0.29265 0.71973 0.0
H1800 H 0.995 0.29483 0.66935 0.0
H1801 H 0.97235 0.22637 0.65094 0.0
H1802 H 0.96316 0.22348 0.70567 0.0
H1803 H 0.96689 0.29685 0.6249 0.0
H1804 H 0.9775 0.21082 0.58013 0.0
H1805 H 0.99297 0.17508 0.59628 0.0
H1806 H 0.04387 0.2096 0.65646 0.0
H1807 H 0.02861 0.24545 0.64075 0.0
C1808 C 0.05357 0.27159 0.54981 0.0
C1809 C 0.06106 0.26948 0.58153 0.0
C1810 C 0.03479 0.28354 0.54184 0.0
C1811 C 0.02333 0.29233 0.56587 0.0
C1812 C 0.03503 0.29588 0.59548 0.0
C1813 C 0.05299 0.28307 0.60396 0.0
C1814 C -4e-05 0.28415 0.56774 0.0
C1815 C -0.00209 0.26086 0.57093 0.0
C1816 C 0.98624 0.29711 0.58473 0.0
C1817 C 0.98583 0.32159 0.57994 0.0
C1818 C 0.98528 0.33638 0.60542 0.0
C1819 C 0.98518 0.35927 0.60043 0.0
C1820 C 0.98577 0.36773 0.57011 0.0
C1821 C 0.98661 0.35332 0.54474 0.0
C1822 C 0.98676 0.33044 0.54964 0.0
C1823 C 0.97938 0.27765 0.70585 0.0
C1824 C 0.96712 0.25839 0.71354 0.0
C1825 C 0.98761 0.27906 0.67649 0.0
C1826 C 0.9828 0.26147 0.65489 0.0
C1827 C 0.97546 0.24068 0.66612 0.0
C1828 C 0.96956 0.23898 0.6969 0.0
C1829 C 0.98339 0.26624 0.62105 0.0
C1830 C 0.97675 0.28717 0.61045 0.0
C1831 C 0.99277 0.25217 0.59992 0.0
C1832 C 0.00183 0.23069 0.60947 0.0
C1833 C 0.992 0.21072 0.59677 0.0
C1834 C 0.0007 0.19047 0.6059 0.0
C1835 C 0.01937 0.19007 0.62743 0.0
C1836 C 0.02937 0.20991 0.6399 0.0
C1837 C 0.02068 0.23018 0.63095 0.0
H1838 H 0.0261 0.17439 0.63441 0.0
H1839 H 0.98574 0.38546 0.56631 0.0
H1840 H 0.01561 0.10738 0.06099 0.0
H1841 H 0.02018 0.07639 0.02581 0.0
H1842 H 0.0353 0.03453 0.10563 0.0
H1843 H 0.03141 0.06601 0.14099 0.0
H1844 H 0.05676 0.02199 0.05324 0.0
H1845 H 0.98326 0.03675 0.07947 0.0
H1846 H 0.95109 0.05944 0.08561 0.0
H1847 H 0.94616 0.07286 0.98679 0.0
H1848 H 0.97853 0.05069 0.98017 0.0
H1849 H 0.9713 0.94045 0.95326 0.0
H1850 H 0.98138 0.96723 0.99526 0.0
H1851 H 0.04346 0.98396 0.9549 0.0
H1852 H 0.03388 0.95585 0.91383 0.0
H1853 H 0.98443 0.00784 0.99107 0.0
H1854 H 0.08007 0.00935 1.00291 0.0
H1855 H 0.11051 0.98361 1.00312 0.0
H1856 H 0.06769 0.93131 0.03661 0.0
H1857 H 0.0368 0.95652 0.03576 0.0
C1858 C 0.02102 0.09188 0.07093 0.0
C1859 C 0.02344 0.08902 0.10352 0.0
C1860 C 0.02344 0.07413 0.05086 0.0
C1861 C 0.02762 0.05307 0.06315 0.0
C1862 C 0.03209 0.05068 0.0957 0.0
C1863 C 0.02999 0.06864 0.11587 0.0
C1864 C 0.0238 0.03327 0.04249 0.0
C1865 C 0.04098 0.01883 0.03959 0.0
C1866 C 0.00297 0.02879 0.02544 0.0
C1867 C 0.9835 0.04227 0.02939 0.0
C1868 C 0.97545 0.04474 0.05911 0.0
C1869 C 0.95715 0.05751 0.06267 0.0
C1870 C 0.94662 0.06771 0.03662 0.0
C1871 C 0.95435 0.06509 1.00697 0.0
C1872 C 0.97268 0.05242 1.0033 0.0
C1873 C 0.98721 0.94968 0.95357 0.0
C1874 C 0.00171 0.94642 0.93015 0.0
C1875 C 0.99301 0.96497 0.97763 0.0
C1876 C 0.01319 0.97776 0.9784 0.0
C1877 C 0.02799 0.97407 0.95534 0.0
C1878 C 0.02242 0.95823 0.93164 0.0
C1879 C 0.01743 -0.00367 1.0014 0.0
C1880 C 0.00026 0.01075 1.00469 0.0
C1881 C 0.03796 0.00023 1.01953 0.0
C1882 C 0.05614 0.98477 1.01909 0.0
C1883 C 0.07714 0.9923 1.01015 0.0
C1884 C 0.09441 0.97777 1.0102 0.0
C1885 C 0.09095 0.95575 1.01958 0.0
C1886 C 0.0702 0.94822 0.02883 0.0
C1887 C 0.05277 0.96259 0.02841 0.0
H1888 H 0.10438 0.94455 1.01985 0.0
H1889 H 0.93244 0.07757 0.03939 0.0
H1890 H 0.21511 0.79869 0.36447 0.0
H1891 H 0.24029 0.7896 0.32477 0.0
H1892 H 0.23378 0.72044 0.35036 0.0
H1893 H 0.21022 0.7298 0.39162 0.0
H1894 H 0.27321 0.72891 0.33951 0.0
H1895 H 0.20385 0.74631 0.28293 0.0
H1896 H 0.17301 0.77041 0.26837 0.0
H1897 H 0.21908 0.81961 0.23426 0.0
H1898 H 0.25022 0.79577 0.24874 0.0
H1899 H 0.32635 0.68604 0.21857 0.0
H1900 H 0.29338 0.69293 0.24604 0.0
H1901 H 0.29756 0.76147 0.2172 0.0
H1902 H 0.32833 0.75367 0.18589 0.0
H1903 H 0.25864 0.75395 0.2297 0.0
H1904 H 0.32813 0.7342 0.28668 0.0
H1905 H 0.35697 0.70754 0.29868 0.0
H1906 H 0.30923 0.66204 0.33648 0.0
H1907 H 0.27949 0.68746 0.32196 0.0
C1908 C 0.21939 0.78162 0.36188 0.0
C1909 C 0.21045 0.76486 0.38073 0.0
C1910 C 0.23352 0.77637 0.33888 0.0
C1911 C 0.23842 0.7542 0.33374 0.0
C1912 C 0.23018 0.73766 0.35357 0.0
C1913 C 0.21664 0.743 0.37713 0.0
C1914 C 0.25223 0.74799 0.30805 0.0
C1915 C 0.26979 0.73415 0.31541 0.0
C1916 C 0.24816 0.75521 0.27667 0.0
C1917 C 0.22937 0.76925 0.267 0.0
C1918 C 0.20739 0.76224 0.27228 0.0
C1919 C 0.18986 0.77588 0.2641 0.0
C1920 C 0.19408 0.79656 0.25047 0.0
C1921 C 0.21583 0.80358 0.24481 0.0
C1922 C 0.23342 0.78998 0.25293 0.0
C1923 C 0.3197 0.70236 0.21715 0.0
C1924 C 0.33067 0.7197 0.20156 0.0
C1925 C 0.301 0.70641 0.23326 0.0
C1926 C 0.29396 0.72818 0.23589 0.0
C1927 C 0.30298 0.74466 0.21662 0.0
C1928 C 0.32079 0.74023 0.19888 0.0
C1929 C 0.27945 0.73439 0.26102 0.0
C1930 C 0.26195 0.74851 0.25371 0.0
C1931 C 0.2834 0.72727 0.29261 0.0
C1932 C 0.30155 0.71267 0.30296 0.0
C1933 C 0.32375 0.71852 0.29754 0.0
C1934 C 0.34027 0.70359 0.30471 0.0
C1935 C 0.33512 0.68333 0.31891 0.0
C1936 C 0.31326 0.67777 0.32556 0.0
C1937 C 0.29649 0.6923 0.31749 0.0
H1938 H 0.34805 0.67189 0.32455 0.0
H1939 H 0.18051 0.80715 0.24428 0.0
H1940 H 0.50731 0.02407 0.40406 0.0
H1941 H 0.49972 -0.00335 0.44466 0.0
H1942 H 0.52868 0.04279 0.51584 0.0
H1943 H 0.53796 0.06917 0.47493 0.0
H1944 H 0.54325 0.00715 0.53015 0.0
H1945 H 0.46947 0.02634 0.50066 0.0
H1946 H 0.4359 0.03291 0.46601 0.0
H1947 H 0.43053 0.96416 0.43891 0.0
H1948 H 0.46435 0.95726 0.4729 0.0
H1949 H 0.50736 0.93886 0.65532 0.0
H1950 H 0.5076 0.96952 0.61753 0.0
H1951 H 0.50226 0.92237 0.54112 0.0
H1952 H 0.50226 0.89174 0.57872 0.0
H1953 H 0.47377 0.95969 0.53268 0.0
H1954 H 0.55113 0.94402 0.56376 0.0
H1955 H 0.58242 0.93993 0.60369 0.0
H1956 H 0.57707 0.0071 0.63431 0.0
H1957 H 0.54548 0.01144 0.59491 0.0
C1958 C 0.51181 0.02828 0.42845 0.0
C1959 C 0.52317 0.04857 0.43657 0.0
C1960 C 0.50732 0.01272 0.45173 0.0
C1961 C 0.51331 0.01761 0.48362 0.0
C1962 C 0.52397 0.0384 0.49156 0.0
C1963 C 0.52916 0.05355 0.46823 0.0
C1964 C 0.50997 0.00063 0.50849 0.0
C1965 C 0.52781 -0.00283 0.53085 0.0
C1966 C 0.48998 0.98724 0.50965 0.0
C1967 C 0.46963 0.99134 0.4891 0.0
C1968 C 0.46127 0.01266 0.48709 0.0
C1969 C 0.44217 0.01644 0.46758 0.0
C1970 C 0.43112 -0.00102 0.45019 0.0
C1971 C 0.43913 0.97769 0.45233 0.0
C1972 C 0.45828 0.97383 0.47172 0.0
C1973 C 0.50621 0.93509 0.63046 0.0
C1974 C 0.50512 0.913 0.6199 0.0
C1975 C 0.50629 0.95257 0.60894 0.0
C1976 C 0.50505 0.94818 0.57657 0.0
C1977 C 0.50325 0.92609 0.56599 0.0
C1978 C 0.50347 0.90864 0.58749 0.0
C1979 C 0.50696 0.96651 0.5537 0.0
C1980 C 0.48896 0.97005 0.53181 0.0
C1981 C 0.52648 0.9805 0.55354 0.0
C1982 C 0.54582 0.97798 0.57662 0.0
C1983 C 0.55654 0.95786 0.57914 0.0
C1984 C 0.57433 0.95551 0.60167 0.0
C1985 C 0.58169 0.97323 0.62158 0.0
C1986 C 0.57133 0.99337 0.61891 0.0
C1987 C 0.55349 -0.00421 0.59649 0.0
H1988 H 0.59545 0.97136 0.63903 0.0
H1989 H 0.41632 0.00193 0.43512 0.0
H1990 H 0.3088 0.1813 0.82793 0.0
H1991 H 0.28063 0.18503 0.78439 0.0
H1992 H 0.27814 0.25479 0.80563 0.0
H1993 H 0.30553 0.2508 0.85038 0.0
H1994 H 0.23885 0.23941 0.79173 0.0
H1995 H 0.30587 0.2358 0.74408 0.0
H1996 H 0.34206 0.22146 0.73382 0.0
H1997 H 0.30913 0.16139 0.69583 0.0
H1998 H 0.2727 0.1752 0.70645 0.0
H1999 H 0.19192 0.27357 0.64667 0.0
H2000 H 0.22248 0.26426 0.68393 0.0
H2001 H 0.19591 0.19657 0.68627 0.0
H2002 H 0.16483 0.20586 0.64818 0.0
H2003 H 0.25016 0.20993 0.68607 0.0
H2004 H 0.18215 0.21898 0.74762 0.0
H2005 H 0.15006 0.24028 0.75958 0.0
H2006 H 0.19169 0.3004 0.76528 0.0
H2007 H 0.22412 0.27927 0.7543 0.0
C2008 C 0.30206 0.19739 0.82351 0.0
C2009 C 0.30946 0.21584 0.84227 0.0
C2010 C 0.28614 0.19955 0.79841 0.0
C2011 C 0.27762 0.22029 0.79127 0.0
C2012 C 0.28455 0.23863 0.81059 0.0
C2013 C 0.30021 0.23637 0.83608 0.0
C2014 C 0.26122 0.22272 0.76395 0.0
C2015 C 0.24148 0.23296 0.7687 0.0
C2016 C 0.2647 0.21467 0.73364 0.0
C2017 C 0.28651 0.20646 0.72633 0.0
C2018 C 0.30632 0.21947 0.73369 0.0
C2019 C 0.3269 0.21144 0.72782 0.0
C2020 C 0.3279 0.1905 0.71424 0.0
C2021 C 0.30832 0.1776 0.70639 0.0
C2022 C 0.28769 0.18553 0.71232 0.0
C2023 C 0.19274 0.25654 0.65452 0.0
C2024 C 0.17596 0.24041 0.64466 0.0
C2025 C 0.2103 0.25127 0.67572 0.0
C2026 C 0.2114 0.22979 0.68777 0.0
C2027 C 0.19536 0.21321 0.67688 0.0
C2028 C 0.17769 0.21849 0.65522 0.0
C2029 C 0.22776 0.2259 0.71448 0.0
C2030 C 0.24758 0.21581 0.7094 0.0
C2031 C 0.22499 0.235 0.74423 0.0
C2032 C 0.20542 0.24762 0.75013 0.0
C2033 C 0.18438 0.23675 0.75134 0.0
C2034 C 0.16616 0.24879 0.75802 0.0
C2035 C 0.16881 0.27173 0.76298 0.0
C2036 C 0.18967 0.28265 0.76144 0.0
C2037 C 0.20798 0.27064 0.75523 0.0
H2038 H 0.15478 0.28109 0.76823 0.0
H2039 H 0.34385 0.18429 0.70976 0.0
H2040 H 0.72506 0.23956 0.90651 0.0
H2041 H 0.75217 0.23243 0.8682 0.0
H2042 H 0.73628 0.29305 0.82014 0.0
H2043 H 0.70974 0.30058 0.85874 0.0
H2044 H 0.73707 0.25255 0.78065 0.0
H2045 H 0.78174 0.29758 0.85627 0.0
H2046 H 0.799 0.30972 0.90807 0.0
H2047 H 0.82879 0.24696 0.92042 0.0
H2048 H 0.81153 0.23438 0.86879 0.0
H2049 H 0.83844 0.25542 0.69274 0.0
H2050 H 0.8059 0.26482 0.72065 0.0
H2051 H 0.81689 0.20971 0.78308 0.0
H2052 H 0.84906 0.20053 0.75604 0.0
H2053 H 0.8177 0.25108 0.81263 0.0
H2054 H 0.77325 0.20668 0.73565 0.0
H2055 H 0.75603 0.19505 0.68363 0.0
H2056 H 0.72605 0.25781 0.67263 0.0
H2057 H 0.74341 0.26996 0.72439 0.0
C2058 C 0.72754 0.25141 0.88792 0.0
C2059 C 0.71556 0.27072 0.88578 0.0
C2060 C 0.74294 0.24734 0.86608 0.0
C2061 C 0.74625 0.2623 0.8415 0.0
C2062 C 0.734 0.28137 0.83901 0.0
C2063 C 0.71897 0.28569 0.86119 0.0
C2064 C 0.76254 0.25796 0.81841 0.0
C2065 C 0.75479 0.25263 0.78737 0.0
C2066 C 0.78552 0.25782 0.82738 0.0
C2067 C 0.795 0.2649 0.859 0.0
C2068 C 0.79165 0.28624 0.87029 0.0
C2069 C 0.80152 0.29323 0.89954 0.0
C2070 C 0.81477 0.27901 0.91764 0.0
C2071 C 0.81835 0.25786 0.90647 0.0
C2072 C 0.80855 0.2508 0.87722 0.0
C2073 C 0.83367 0.24522 0.7122 0.0
C2074 C 0.84664 0.22761 0.72271 0.0
C2075 C 0.81501 0.25046 0.72789 0.0
C2076 C 0.80906 0.23797 0.75399 0.0
C2077 C 0.8212 0.21958 0.76306 0.0
C2078 C 0.83966 0.21439 0.74753 0.0
C2079 C 0.79238 0.24543 0.77479 0.0
C2080 C 0.80006 0.25138 0.80559 0.0
C2081 C 0.76944 0.24625 0.76539 0.0
C2082 C 0.76001 0.2394 0.73362 0.0
C2083 C 0.76335 0.21817 0.72189 0.0
C2084 C 0.75346 0.21144 0.69251 0.0
C2085 C 0.74005 0.22572 0.67475 0.0
C2086 C 0.73652 0.24679 0.68633 0.0
C2087 C 0.7464 0.25362 0.71567 0.0
H2088 H 0.73232 0.22043 0.65208 0.0
H2089 H 0.82241 0.28439 0.94025 0.0
H2090 H 0.80297 0.75276 0.3521 0.0
H2091 H 0.77528 0.75844 0.30765 0.0
H2092 H 0.7968 0.70082 0.26127 0.0
H2093 H 0.82384 0.69477 0.30556 0.0
H2094 H 0.79138 0.74167 0.22303 0.0
H2095 H 0.75417 0.69348 0.29682 0.0
H2096 H 0.7405 0.68516 0.34847 0.0
H2097 H 0.70052 0.74198 0.34106 0.0
H2098 H 0.71459 0.75106 0.28976 0.0
H2099 H 0.70426 0.71944 0.10115 0.0
H2100 H 0.73466 0.71871 0.14299 0.0
H2101 H 0.69565 0.75525 0.20368 0.0
H2102 H 0.66512 0.75445 0.16322 0.0
H2103 H 0.71118 0.72637 0.23592 0.0
H2104 H 0.74488 0.77661 0.16583 0.0
H2105 H 0.76066 0.79201 0.11852 0.0
H2106 H 0.80743 0.74076 0.12105 0.0
H2107 H 0.79162 0.72476 0.16796 0.0
C2108 C 0.80168 0.74136 0.33238 0.0
C2109 C 0.81526 0.72319 0.33234 0.0
C2110 C 0.78598 0.74462 0.3071 0.0
C2111 C 0.78403 0.72996 0.28136 0.0
C2112 C 0.79807 0.71226 0.28096 0.0
C2113 C 0.81337 0.70875 0.30636 0.0
C2114 C 0.76693 0.73243 0.25509 0.0
C2115 C 0.77378 0.73824 0.22554 0.0
C2116 C 0.74406 0.72867 0.25892 0.0
C2117 C 0.73569 0.72313 0.28972 0.0
C2118 C 0.7427 0.70436 0.3064 0.0
C2119 C 0.73481 0.69948 0.33559 0.0
C2120 C 0.71963 0.71304 0.34809 0.0
C2121 C 0.71231 0.73152 0.33141 0.0
C2122 C 0.72028 0.73657 0.30232 0.0
C2123 C 0.70229 0.72713 0.12358 0.0
C2124 C 0.68226 0.7366 0.12918 0.0
C2125 C 0.71974 0.727 0.14736 0.0
C2126 C 0.71766 0.73707 0.17665 0.0
C2127 C 0.69776 0.7471 0.18162 0.0
C2128 C 0.68022 0.74661 0.1584 0.0
C2129 C 0.7353 0.73606 0.20308 0.0
C2130 C 0.72863 0.73018 0.23288 0.0
C2131 C 0.75829 0.7406 0.19957 0.0
C2132 C 0.76676 0.74925 0.17009 0.0
C2133 C 0.75823 0.76836 0.15594 0.0
C2134 C 0.76725 0.77726 0.12927 0.0
C2135 C 0.78496 0.76731 0.11669 0.0
C2136 C 0.79363 0.74839 0.1307 0.0
C2137 C 0.78461 0.73937 0.15729 0.0
H2138 H 0.79202 0.77433 0.09617 0.0
H2139 H 0.71353 0.70927 0.37069 0.0
H2140 H 0.49548 0.55727 0.63104 0.0
H2141 H 0.50234 0.52565 0.59818 0.0
H2142 H 0.54186 0.56867 0.54125 0.0
H2143 H 0.53496 0.60046 0.57447 0.0
H2144 H 0.50822 0.54775 0.50711 0.0
H2145 H 0.56475 0.52514 0.58209 0.0
H2146 H 0.58301 0.5149 0.63325 0.0
H2147 H 0.53444 0.4609 0.64077 0.0
H2148 H 0.51561 0.47107 0.58996 0.0
H2149 H 0.52819 0.45149 0.41096 0.0
H2150 H 0.53714 0.48163 0.44948 0.0
H2151 H 0.47927 0.46135 0.49738 0.0
H2152 H 0.46978 0.43185 0.45841 0.0
H2153 H 0.52776 0.47092 0.53431 0.0
H2154 H 0.46712 0.49933 0.46661 0.0
H2155 H 0.4483 0.50896 0.41552 0.0
H2156 H 0.50468 0.55162 0.3957 0.0
H2157 H 0.52398 0.54188 0.44653 0.0
C2158 C 0.50649 0.55974 0.61238 0.0
C2159 C 0.51505 0.58112 0.60551 0.0
C2160 C 0.51039 0.54166 0.59356 0.0
C2161 C 0.52273 0.54469 0.56729 0.0
C2162 C 0.53245 0.5659 0.56155 0.0
C2163 C 0.5287 0.584 0.58065 0.0
C2164 C 0.52226 0.52668 0.54342 0.0
C2165 C 0.51307 0.53111 0.51301 0.0
C2166 C 0.52784 0.50471 0.55119 0.0
C2167 C 0.53864 0.49903 0.58231 0.0
C2168 C 0.55777 0.51128 0.59484 0.0
C2169 C 0.56827 0.50543 0.62375 0.0
C2170 C 0.55987 0.48729 0.64028 0.0
C2171 C 0.54092 0.47498 0.62797 0.0
C2172 C 0.53032 0.48078 0.59912 0.0
C2173 C 0.51738 0.45357 0.42968 0.0
C2174 C 0.49816 0.43963 0.43156 0.0
C2175 C 0.52252 0.47069 0.45161 0.0
C2176 C 0.50878 0.47368 0.47607 0.0
C2177 C 0.48999 0.4593 0.47855 0.0
C2178 C 0.48454 0.44259 0.45621 0.0
C2179 C 0.51363 0.49218 0.49866 0.0
C2180 C 0.52344 0.48775 0.52861 0.0
C2181 C 0.50845 0.5141 0.49074 0.0
C2182 C 0.49715 0.51954 0.45998 0.0
C2183 C 0.47565 0.51046 0.4511 0.0
C2184 C 0.46485 0.51601 0.42227 0.0
C2185 C 0.47534 0.5308 0.40229 0.0
C2186 C 0.49662 0.54009 0.41113 0.0
C2187 C 0.5075 0.53454 0.43992 0.0
H2188 H 0.46693 0.53513 0.38001 0.0
H2189 H 0.56808 0.48275 0.6626 0.0
H2190 H 0.98501 0.54676 0.91637 0.0
H2191 H 0.97443 0.52175 0.95887 0.0
H2192 H 0.04372 0.51512 0.98813 0.0
H2193 H 0.05436 0.54055 0.94684 0.0
H2194 H 0.00267 0.47337 0.97011 0.0
H2195 H 0.03105 0.54307 0.03149 0.0
H2196 H 0.02636 0.58201 0.04623 0.0
H2197 H 0.95936 0.5653 0.06759 0.0
H2198 H 0.96338 0.52641 0.05236 0.0
H2199 H 0.03502 0.41395 0.10414 0.0
H2200 H 0.03084 0.4398 0.06026 0.0
H2201 H 0.97263 0.46448 0.09793 0.0
H2202 H 0.97674 0.43854 0.14175 0.0
H2203 H -0.00274 0.49782 0.07988 0.0
H2204 H 0.96764 0.43193 0.03621 0.0
H2205 H 0.962 0.39273 1.02034 0.0
H2206 H 0.01579 0.40034 0.96074 0.0
H2207 H 0.02273 0.43927 0.97764 0.0
C2208 C -0.00209 0.54011 0.93214 0.0
C2209 C 0.02046 0.54573 0.92862 0.0
C2210 C 0.99186 0.5259 0.95626 0.0
C2211 C 0.00835 0.517 0.97671 0.0
C2212 C 0.03083 0.52214 0.9727 0.0
C2213 C 0.03685 0.53652 0.94901 0.0
C2214 C 0.0026 0.50123 1.00137 0.0
C2215 C 0.0016 0.47852 0.99422 0.0
C2216 C -0.00031 0.50828 0.03215 0.0
C2217 C -0.00264 0.53191 0.04012 0.0
C2218 C 0.01515 0.54778 0.03859 0.0
C2219 C 0.01262 0.56986 0.04704 0.0
C2220 C 0.99246 0.57623 0.05717 0.0
C2221 C 0.97483 0.56048 0.05919 0.0
C2222 C 0.97722 0.53843 0.05066 0.0
C2223 C 0.02129 0.42479 0.10288 0.0
C2224 C 0.00615 0.42419 0.12612 0.0
C2225 C 0.01887 0.43952 0.07784 0.0
C2226 C 0.00125 0.45388 0.07565 0.0
C2227 C 0.98631 0.45353 0.09915 0.0
C2228 C 0.9887 0.43874 0.12415 0.0
C2229 C -0.00105 0.46963 0.0492 0.0
C2230 C -0.00179 0.49236 0.05587 0.0
C2231 C -0.00087 0.46251 1.01766 0.0
C2232 C -0.00412 0.43864 1.00854 0.0
C2233 C 0.97865 0.42519 1.02028 0.0
C2234 C 0.97522 0.40295 1.01111 0.0
C2235 C 0.98861 0.394 0.98968 0.0
C2236 C 0.00552 0.40726 0.9775 0.0
C2237 C 0.00931 0.4294 0.98705 0.0
H2238 H 0.98581 0.37685 0.98236 0.0
H2239 H 0.99057 0.59331 0.06377 0.0
H2240 H 0.00789 0.14618 0.27097 0.0
H2241 H 0.02122 0.15799 0.32451 0.0
H2242 H 0.087 0.17168 0.29452 0.0
H2243 H 0.07388 0.1598 0.24127 0.0
H2244 H 0.08914 0.15228 0.35299 0.0
H2245 H 0.0494 0.21179 0.30212 0.0
H2246 H 0.01547 0.22441 0.27362 0.0
H2247 H 0.97883 0.21123 0.35426 0.0
H2248 H 0.01235 0.19717 0.38268 0.0
H2249 H 0.13499 0.22448 0.47998 0.0
H2250 H 0.12182 0.20933 0.42768 0.0
H2251 H 0.05635 0.1964 0.45913 0.0
H2252 H 0.06959 0.21065 0.51129 0.0
H2253 H 0.05338 0.21476 0.40065 0.0
H2254 H 0.08613 0.15433 0.45062 0.0
H2255 H 0.11388 0.13226 0.47998 0.0
H2256 H 0.15776 0.14126 0.40624 0.0
H2257 H 0.13035 0.16375 0.37659 0.0
C2258 C 0.02527 0.1514 0.27579 0.0
C2259 C 0.03969 0.15195 0.25141 0.0
C2260 C 0.03291 0.15833 0.30655 0.0
C2261 C 0.05521 0.16609 0.31395 0.0
C2262 C 0.06976 0.16588 0.28985 0.0
C2263 C 0.06214 0.15908 0.25915 0.0
C2264 C 0.06325 0.17534 0.34614 0.0
C2265 C 0.08154 0.16621 0.36307 0.0
C2266 C 0.05291 0.19295 0.36039 0.0
C2267 C 0.03333 0.20319 0.34439 0.0
C2268 C 0.03411 0.21155 0.31378 0.0
C2269 C 0.0149 0.21891 0.2976 0.0
C2270 C 0.99497 0.21874 0.31214 0.0
C2271 C 0.99427 0.21132 0.34301 0.0
C2272 C 0.01335 0.20352 0.3591 0.0
C2273 C 0.11779 0.21846 0.47566 0.0
C2274 C 0.10342 0.21876 0.50001 0.0
C2275 C 0.11024 0.20968 0.44573 0.0
C2276 C 0.08796 0.20154 0.43908 0.0
C2277 C 0.07355 0.20245 0.46326 0.0
C2278 C 0.08122 0.21059 0.49326 0.0
C2279 C 0.07961 0.192 0.40723 0.0
C2280 C 0.06122 0.20103 0.39041 0.0
C2281 C 0.08938 0.17383 0.39354 0.0
C2282 C 0.10636 0.1611 0.41165 0.0
C2283 C 0.10185 0.15194 0.44088 0.0
C2284 C 0.11747 0.13926 0.45752 0.0
C2285 C 0.13762 0.13545 0.44506 0.0
C2286 C 0.14218 0.14431 0.41591 0.0
C2287 C 0.1266 0.15705 0.39918 0.0
H2288 H 0.14967 0.12556 0.45793 0.0
H2289 H 0.98004 0.22422 0.29948 0.0
H2290 H 0.13427 0.86218 0.59228 0.0
H2291 H 0.12049 0.87289 0.64204 0.0
H2292 H 0.08934 0.80723 0.65021 0.0
H2293 H 0.10219 0.79695 0.59969 0.0
H2294 H 0.06226 0.83349 0.66513 0.0
H2295 H 0.13925 0.82891 0.69653 0.0
H2296 H 0.17972 0.83643 0.69545 0.0
H2297 H 0.17206 0.90571 0.71181 0.0
H2298 H 0.13148 0.89866 0.71255 0.0
H2299 H 0.02995 0.847 0.8176 0.0
H2300 H 0.05007 0.8345 0.7742 0.0
H2301 H 0.07893 0.90097 0.76436 0.0
H2302 H 0.06067 0.91275 0.8106 0.0
H2303 H 0.10769 0.87418 0.75055 0.0
H2304 H 0.02713 0.87376 0.71942 0.0
H2305 H 0.9881 0.86075 0.72417 0.0
H2306 H 0.00506 0.79337 0.71072 0.0
H2307 H 0.04423 0.80592 0.70667 0.0
C2308 C 0.12458 0.85003 0.60485 0.0
C2309 C 0.11926 0.82874 0.59209 0.0
C2310 C 0.11683 0.8561 0.63347 0.0
C2311 C 0.1041 0.84082 0.65042 0.0
C2312 C 0.09906 0.81943 0.63774 0.0
C2313 C 0.10639 0.81352 0.60883 0.0
C2314 C 0.09494 0.84735 0.68037 0.0
C2315 C 0.07237 0.84211 0.68394 0.0
C2316 C 0.10788 0.85892 0.70496 0.0
C2317 C 0.13227 0.86328 0.70428 0.0
C2318 C 0.14616 0.84578 0.69963 0.0
C2319 C 0.16913 0.84996 0.69912 0.0
C2320 C 0.17845 0.87154 0.70348 0.0
C2321 C 0.16481 0.889 0.70839 0.0
C2322 C 0.14183 0.88492 0.70887 0.0
C2323 C 0.04096 0.8588 0.80648 0.0
C2324 C 0.04384 0.88079 0.8173 0.0
C2325 C 0.0522 0.85175 0.78129 0.0
C2326 C 0.06535 0.86695 0.76481 0.0
C2327 C 0.06871 0.8889 0.77627 0.0
C2328 C 0.05823 0.8957 0.80257 0.0
C2329 C 0.07504 0.86017 0.73531 0.0
C2330 C 0.09766 0.86554 0.7317 0.0
C2331 C 0.06233 0.84802 0.711 0.0
C2332 C 0.03862 0.84079 0.71293 0.0
C2333 C 0.02252 0.85618 0.71759 0.0
C2334 C 0.00038 0.84886 0.72023 0.0
C2335 C 0.99413 0.82622 0.71777 0.0
C2336 C 0.00995 0.81088 0.71267 0.0
C2337 C 0.0321 0.81808 0.71024 0.0
H2338 H 0.97703 0.82047 0.71969 0.0
H2339 H 0.19624 0.87474 0.70312 0.0
H2340 H 0.3792 0.79702 0.10939 0.0
H2341 H 0.38831 0.80946 0.05684 0.0
H2342 H 0.43352 0.75687 0.05268 0.0
H2343 H 0.42411 0.74419 0.10401 0.0
H2344 H 0.41507 0.75806 0.99898 0.0
H2345 H 0.39467 0.84657 1.0115 0.0
H2346 H 0.39757 0.878 0.04898 0.0
H2347 H 0.45864 0.85446 0.09158 0.0
H2348 H 0.45525 0.82219 0.05588 0.0
H2349 H 0.42665 0.79891 0.84337 0.0
H2350 H 0.41363 0.78937 0.8939 0.0
H2351 H 0.46509 0.83289 0.93955 0.0
H2352 H 0.47706 0.84424 0.88917 0.0
H2353 H 0.43384 0.83631 0.97225 0.0
H2354 H 0.46187 0.76836 0.93384 0.0
H2355 H 0.46349 0.73745 0.89635 0.0
H2356 H 0.39465 0.71917 0.90577 0.0
H2357 H 0.3925 0.75017 0.94287 0.0
C2358 C 0.39108 0.78808 0.09733 0.0
C2359 C 0.40073 0.76943 0.11169 0.0
C2360 C 0.39659 0.79543 0.06706 0.0
C2361 C 0.41204 0.78448 0.04994 0.0
C2362 C 0.42154 0.76588 0.06447 0.0
C2363 C 0.41606 0.75858 0.09439 0.0
C2364 C 0.41801 0.79151 1.01688 0.0
C2365 C 0.41908 0.77526 0.99335 0.0
C2366 C 0.4235 0.81379 1.00833 0.0
C2367 C 0.42455 0.83196 0.03143 0.0
C2368 C 0.40846 0.84796 0.02934 0.0
C2369 C 0.41009 0.86578 0.05044 0.0
C2370 C 0.42807 0.86801 0.07313 0.0
C2371 C 0.44437 0.85237 0.07477 0.0
C2372 C 0.44249 0.83419 0.05434 0.0
C2373 C 0.43536 0.80693 0.86367 0.0
C2374 C 0.45348 0.82259 0.86044 0.0
C2375 C 0.42791 0.80094 0.89336 0.0
C2376 C 0.4385 0.80969 0.92173 0.0
C2377 C 0.45635 0.82546 0.91872 0.0
C2378 C 0.46353 0.83182 0.88907 0.0
C2379 C 0.4311 0.80282 0.95422 0.0
C2380 C 0.42975 0.81909 0.97769 0.0
C2381 C 0.42555 0.78045 0.96276 0.0
C2382 C 0.42696 0.76174 0.94076 0.0
C2383 C 0.44706 0.75782 0.92775 0.0
C2384 C 0.44806 0.74031 0.90659 0.0
C2385 C 0.42915 0.72649 0.8986 0.0
C2386 C 0.40924 0.72998 0.9119 0.0
C2387 C 0.40812 0.74751 0.93297 0.0
H2388 H 0.4299 0.71311 0.88208 0.0
H2389 H 0.4295 0.88196 0.0892 0.0
H2390 H 0.50861 0.12329 0.29024 0.0
H2391 H 0.48814 0.13534 0.24294 0.0
H2392 H 0.42777 0.10377 0.27323 0.0
H2393 H 0.44837 0.09156 0.3216 0.0
H2394 H 0.43174 0.09391 0.21406 0.0
H2395 H 0.43124 0.16255 0.26742 0.0
H2396 H 0.44075 0.19798 0.29537 0.0
H2397 H 0.48936 0.21528 0.23024 0.0
H2398 H 0.47995 0.18003 0.20169 0.0
H2399 H 0.37269 0.14574 0.08231 0.0
H2400 H 0.38549 0.13422 0.13512 0.0
H2401 H 0.45301 0.15383 0.11726 0.0
H2402 H 0.44064 0.16449 0.06403 0.0
H2403 H 0.44015 0.17046 0.17282 0.0
H2404 H 0.43597 0.0996 0.11817 0.0
H2405 H 0.41654 0.06933 0.08629 0.0
H2406 H 0.36956 0.05908 0.15589 0.0
H2407 H 0.38857 0.08949 0.18799 0.0
C2408 C 0.49098 0.11869 0.28706 0.0
C2409 C 0.48022 0.10611 0.30976 0.0
C2410 C 0.4792 0.12598 0.26002 0.0
C2411 C 0.45631 0.12086 0.25467 0.0
C2412 C 0.44542 0.1081 0.277 0.0
C2413 C 0.45723 0.10097 0.3045 0.0
C2414 C 0.44455 0.12739 0.22446 0.0
C2415 C 0.43322 0.11077 0.20537 0.0
C2416 C 0.44661 0.14931 0.21272 0.0
C2417 C 0.45502 0.16856 0.23262 0.0
C2418 C 0.44425 0.17371 0.25943 0.0
C2419 C 0.44936 0.19392 0.27505 0.0
C2420 C 0.4654 0.20901 0.26428 0.0
C2421 C 0.47677 0.20368 0.23834 0.0
C2422 C 0.47154 0.1836 0.22242 0.0
C2423 C 0.39033 0.14726 0.08929 0.0
C2424 C 0.4056 0.15604 0.06862 0.0
C2425 C 0.39758 0.14072 0.1196 0.0
C2426 C 0.42021 0.14297 0.12997 0.0
C2427 C 0.43546 0.1519 0.10965 0.0
C2428 C 0.42829 0.1582 0.07926 0.0
C2429 C 0.42805 0.13695 0.16242 0.0
C2430 C 0.43866 0.15365 0.18176 0.0
C2431 C 0.42485 0.1153 0.17454 0.0
C2432 C 0.41354 0.09696 0.1553 0.0
C2433 C 0.42139 0.09101 0.12655 0.0
C2434 C 0.41048 0.0738 0.10847 0.0
C2435 C 0.39179 0.06233 0.11902 0.0
C2436 C 0.38402 0.068 0.14772 0.0
C2437 C 0.39487 0.0852 0.16588 0.0
H2438 H 0.38336 0.04902 0.10498 0.0
H2439 H 0.46929 0.22467 0.27638 0.0
H2440 H 0.83866 0.79109 0.45918 0.0
H2441 H 0.84693 0.80964 0.5103 0.0
H2442 H 0.91032 0.7791 0.52038 0.0
H2443 H 0.90019 0.75803 0.47329 0.0
H2444 H 0.89923 0.77708 0.5705 0.0
H2445 H 0.89737 0.84124 0.50209 0.0
H2446 H 0.8809 0.86671 0.46265 0.0
H2447 H 0.82778 0.87755 0.52102 0.0
H2448 H 0.84386 0.85201 0.56066 0.0
H2449 H 0.95466 0.84689 0.68901 0.0
H2450 H 0.9422 0.83071 0.6378 0.0
H2451 H 0.87458 0.84517 0.65239 0.0
H2452 H 0.88706 0.86137 0.70374 0.0
H2453 H 0.88492 0.8553 0.59304 0.0
H2454 H 0.89463 0.79175 0.66359 0.0
H2455 H 0.9171 0.76931 0.70105 0.0
H2456 H 0.9645 0.76123 0.63275 0.0
H2457 H 0.94243 0.78378 0.59502 0.0
C2458 C 0.85424 0.7884 0.47263 0.0
C2459 C 0.86887 0.77329 0.46203 0.0
C2460 C 0.85921 0.79926 0.50172 0.0
C2461 C 0.87955 0.79625 0.51962 0.0
C2462 C 0.89435 0.78173 0.50793 0.0
C2463 C 0.88874 0.76991 0.48033 0.0
C2464 C 0.88549 0.807 0.55109 0.0
C2465 C 0.89643 0.79438 0.57477 0.0
C2466 C 0.88139 0.82936 0.55796 0.0
C2467 C 0.87165 0.84454 0.53409 0.0
C2468 C 0.88209 0.84895 0.50637 0.0
C2469 C 0.87285 0.86342 0.48402 0.0
C2470 C 0.85326 0.87367 0.48927 0.0
C2471 C 0.84292 0.86955 0.51694 0.0
C2472 C 0.85209 0.85511 0.53936 0.0
C2473 C 0.93713 0.84636 0.6815 0.0
C2474 C 0.92183 0.85508 0.70066 0.0
C2475 C 0.93001 0.8372 0.65214 0.0
C2476 C 0.90737 0.83636 0.64145 0.0
C2477 C 0.89212 0.84556 0.66019 0.0
C2478 C 0.89926 0.85481 0.68951 0.0
C2479 C 0.89954 0.82567 0.61094 0.0
C2480 C 0.88792 0.83815 0.58799 0.0
C2481 C 0.90402 0.80353 0.60404 0.0
C2482 C 0.91695 0.78956 0.6266 0.0
C2483 C 0.90988 0.78524 0.65663 0.0
C2484 C 0.92255 0.7725 0.67789 0.0
C2485 C 0.94223 0.76389 0.66931 0.0
C2486 C 0.94925 0.76791 0.63938 0.0
C2487 C 0.93666 0.78064 0.61804 0.0
H2488 H 0.95203 0.75408 0.68583 0.0
H2489 H 0.84613 0.88486 0.47194 0.0
H2490 H 0.93659 0.17326 0.52972 0.0
H2491 H 0.92647 0.16633 0.47432 0.0
H2492 H 0.85989 0.14476 0.4949 0.0
H2493 H 0.86978 0.15213 0.55076 0.0
H2494 H 0.87967 0.11501 0.4595 0.0
H2495 H 0.86629 0.19195 0.45419 0.0
H2496 H 0.87351 0.23194 0.46477 0.0
H2497 H 0.93356 0.23148 0.41738 0.0
H2498 H 0.92688 0.19142 0.40686 0.0
H2499 H 0.88177 0.11765 0.28159 0.0
H2500 H 0.867 0.12328 0.33273 0.0
H2501 H 0.93383 0.12756 0.37693 0.0
H2502 H 0.94866 0.12123 0.32653 0.0
H2503 H 0.89818 0.16743 0.37488 0.0
H2504 H 0.91801 0.09009 0.40084 0.0
H2505 H 0.91361 0.04958 0.39264 0.0
H2506 H 0.8435 0.05138 0.40238 0.0
H2507 H 0.84748 0.09202 0.41009 0.0
C2508 C 0.91966 0.1675 0.52245 0.0
C2509 C 0.90397 0.1632 0.54447 0.0
C2510 C 0.91388 0.16362 0.49082 0.0
C2511 C 0.89232 0.15547 0.4807 0.0
C2512 C 0.87652 0.15129 0.50247 0.0
C2513 C 0.88227 0.15528 0.53424 0.0
C2514 C 0.88746 0.1492 0.44769 0.0
C2515 C 0.88293 0.12659 0.44078 0.0
C2516 C 0.89191 0.16439 0.42354 0.0
C2517 C 0.89602 0.1886 0.42969 0.0
C2518 C 0.88109 0.20034 0.44614 0.0
C2519 C 0.88509 0.22305 0.45212 0.0
C2520 C 0.90399 0.23426 0.44175 0.0
C2521 C 0.9189 0.22278 0.42534 0.0
C2522 C 0.91498 0.20007 0.41929 0.0
C2523 C 0.89321 0.11914 0.3024 0.0
C2524 C 0.91633 0.11935 0.30024 0.0
C2525 C 0.88477 0.12234 0.33138 0.0
C2526 C 0.89943 0.12567 0.35813 0.0
C2527 C 0.92239 0.12481 0.35627 0.0
C2528 C 0.9308 0.12145 0.32754 0.0
C2529 C 0.89159 0.1333 0.38739 0.0
C2530 C 0.89376 0.15614 0.39343 0.0
C2531 C 0.88536 0.11837 0.41079 0.0
C2532 C 0.88295 0.09411 0.40533 0.0
C2533 C 0.9016 0.08191 0.40065 0.0
C2534 C 0.89921 0.05891 0.39626 0.0
C2535 C 0.87827 0.04793 0.3968 0.0
C2536 C 0.85969 0.05992 0.4018 0.0
C2537 C 0.862 0.08293 0.40613 0.0
H2538 H 0.87645 0.03012 0.3935 0.0
H2539 H 0.90712 0.25183 0.44639 0.0
H2540 H 0.68262 0.19893 0.99987 0.0
H2541 H 0.67143 0.17962 0.04734 0.0
H2542 H 0.61024 0.21396 0.04097 0.0
H2543 H 0.6225 0.23468 0.99684 0.0
H2544 H 0.62181 0.21567 0.09496 0.0
H2545 H 0.61679 0.15353 0.02499 0.0
H2546 H 0.62901 0.12675 0.98721 0.0
H2547 H 0.68031 0.10702 0.05526 0.0
H2548 H 0.66852 0.13387 0.09335 0.0
H2549 H 0.56426 0.15035 0.20472 0.0
H2550 H 0.57611 0.16516 0.15512 0.0
H2551 H 0.64294 0.14609 0.18044 0.0
H2552 H 0.63138 0.13152 0.23016 0.0
H2553 H 0.62928 0.13591 0.11865 0.0
H2554 H 0.62951 0.20214 0.18737 0.0
H2555 H 0.61046 0.22628 0.22212 0.0
H2556 H 0.55822 0.23398 0.14936 0.0
H2557 H 0.57718 0.21025 0.11408 0.0
C2558 C 0.66681 0.20219 1.00876 0.0
C2559 C 0.65349 0.21835 0.99459 0.0
C2560 C 0.66025 0.19101 0.03576 0.0
C2561 C 0.6398 0.19512 0.0481 0.0
C2562 C 0.62621 0.21054 0.03271 0.0
C2563 C 0.63316 0.22227 1.00696 0.0
C2564 C 0.6327 0.18465 0.0778 0.0
C2565 C 0.62322 0.1981 0.09955 0.0
C2566 C 0.63461 0.1618 0.08475 0.0
C2567 C 0.64197 0.14591 0.06183 0.0
C2568 C 0.63081 0.14362 0.03178 0.0
C2569 C 0.63763 0.1284 1.01034 0.0
C2570 C 0.65548 0.11525 1.01879 0.0
C2571 C 0.66652 0.11726 0.04872 0.0
C2572 C 0.65978 0.13247 0.07025 0.0
C2573 C 0.58153 0.14945 0.19992 0.0
C2574 C 0.59684 0.13975 0.22165 0.0
C2575 C 0.58827 0.15787 0.17145 0.0
C2576 C 0.6105 0.15696 0.16416 0.0
C2577 C 0.6257 0.14695 0.18549 0.0
C2578 C 0.619 0.13854 0.21393 0.0
C2579 C 0.61811 0.16688 0.13472 0.0
C2580 C 0.62787 0.1534 0.11345 0.0
C2581 C 0.61554 0.18946 0.12738 0.0
C2582 C 0.60472 0.20444 0.1482 0.0
C2583 C 0.61402 0.2091 0.1788 0.0
C2584 C 0.60327 0.22275 0.19854 0.0
C2585 C 0.58319 0.23175 0.18792 0.0
C2586 C 0.57387 0.22719 0.15748 0.0
C2587 C 0.58466 0.21374 0.13756 0.0
H2588 H 0.57482 0.24222 0.20327 0.0
H2589 H 0.66072 0.10346 1.00217 0.0
H2590 H 0.54843 0.90825 0.72915 0.0
H2591 H 0.57237 0.90726 0.7762 0.0
H2592 H 0.6259 0.88655 0.72321 0.0
H2593 H 0.59996 0.88396 0.6762 0.0
H2594 H 0.62131 0.85823 0.76103 0.0
H2595 H 0.62655 0.93652 0.78244 0.0
H2596 H 0.61323 0.97433 0.78594 0.0
H2597 H 0.56693 0.95181 0.85176 0.0
H2598 H 0.57975 0.9139 0.84848 0.0
H2599 H 0.66474 0.83445 0.92193 0.0
H2600 H 0.66082 0.85098 0.86944 0.0
H2601 H 0.59021 0.85422 0.87658 0.0
H2602 H 0.59396 0.83785 0.92886 0.0
H2603 H 0.61536 0.89561 0.86291 0.0
H2604 H 0.60435 0.81765 0.83179 0.0
H2605 H 0.6157 0.77917 0.82753 0.0
H2606 H 0.67261 0.80209 0.78009 0.0
H2607 H 0.66174 0.84075 0.78444 0.0
C2608 C 0.56566 0.90456 0.72724 0.0
C2609 C 0.57223 0.89553 0.69951 0.0
C2610 C 0.5797 0.90428 0.75445 0.0
C2611 C 0.60128 0.89671 0.75387 0.0
C2612 C 0.60921 0.89202 0.72455 0.0
C2613 C 0.59456 0.89099 0.69745 0.0
C2614 C 0.61272 0.88852 0.78343 0.0
C2615 C 0.62075 0.86698 0.78307 0.0
C2616 C 0.61163 0.89935 0.81272 0.0
C2617 C 0.6043 0.92236 0.81535 0.0
C2618 C 0.61356 0.93964 0.79769 0.0
C2619 C 0.60606 0.96109 0.79962 0.0
C2620 C 0.58929 0.96548 0.81911 0.0
C2621 C 0.57999 0.94843 0.83679 0.0
C2622 C 0.58746 0.92698 0.83502 0.0
C2623 C 0.6484 0.83861 0.91213 0.0
C2624 C 0.62966 0.83512 0.92938 0.0
C2625 C 0.6462 0.84788 0.88225 0.0
C2626 C 0.62529 0.85384 0.86956 0.0
C2627 C 0.60648 0.84973 0.8863 0.0
C2628 C 0.60862 0.84031 0.91596 0.0
C2629 C 0.62293 0.86571 0.83969 0.0
C2630 C 0.61671 0.88768 0.8404 0.0
C2631 C 0.62573 0.85539 0.81086 0.0
C2632 C 0.63243 0.83214 0.80887 0.0
C2633 C 0.61945 0.81453 0.82084 0.0
C2634 C 0.62575 0.79267 0.8183 0.0
C2635 C 0.64492 0.7882 0.80367 0.0
C2636 C 0.6578 0.80558 0.7915 0.0
C2637 C 0.65158 0.82746 0.794 0.0
H2638 H 0.64974 0.77127 0.80166 0.0
H2639 H 0.58348 0.98208 0.82049 0.0
H2640 H 0.50054 0.65516 0.76075 0.0
H2641 H 0.51639 0.66812 0.81288 0.0
H2642 H 0.58248 0.66233 0.78378 0.0
H2643 H 0.56679 0.6501 0.73154 0.0
H2644 H 0.57623 0.64397 0.84572 0.0
H2645 H 0.5644 0.7132 0.78903 0.0
H2646 H 0.54284 0.74153 0.76046 0.0
H2647 H 0.49908 0.74322 0.83472 0.0
H2648 H 0.52033 0.71486 0.86366 0.0
H2649 H 0.63833 0.69515 0.97865 0.0
H2650 H 0.62279 0.68207 0.92679 0.0
H2651 H 0.56349 0.71723 0.93825 0.0
H2652 H 0.58024 0.73203 0.98835 0.0
H2653 H 0.56533 0.71974 0.88411 0.0
H2654 H 0.57209 0.65253 0.94171 0.0
H2655 H 0.59007 0.62392 0.97449 0.0
H2656 H 0.6359 0.61429 0.90449 0.0
H2657 H 0.61827 0.64299 0.87141 0.0
C2658 C 0.51845 0.6564 0.76548 0.0
C2659 C 0.53226 0.65124 0.74163 0.0
C2660 C 0.52757 0.66403 0.7954 0.0
C2661 C 0.55081 0.66636 0.80277 0.0
C2662 C 0.56456 0.66076 0.77917 0.0
C2663 C 0.55549 0.65367 0.74909 0.0
C2664 C 0.56087 0.67459 0.83476 0.0
C2665 C 0.57398 0.66062 0.85401 0.0
C2666 C 0.55744 0.69596 0.8467 0.0
C2667 C 0.54387 0.71186 0.82838 0.0
C2668 C 0.55001 0.71941 0.79904 0.0
C2669 C 0.53792 0.73553 0.78287 0.0
C2670 C 0.51971 0.74422 0.79589 0.0
C2671 C 0.51327 0.73653 0.82478 0.0
C2672 C 0.52533 0.72047 0.84108 0.0
C2673 C 0.6221 0.70028 0.96983 0.0
C2674 C 0.61076 0.71494 0.98765 0.0
C2675 C 0.61284 0.69239 0.94013 0.0
C2676 C 0.59132 0.69787 0.92781 0.0
C2677 C 0.58005 0.7125 0.94611 0.0
C2678 C 0.58967 0.72104 0.97514 0.0
C2679 C 0.5807 0.68904 0.89601 0.0
C2680 C 0.56753 0.70293 0.87647 0.0
C2681 C 0.58326 0.66718 0.88446 0.0
C2682 C 0.59403 0.65007 0.90429 0.0
C2683 C 0.5861 0.64441 0.93343 0.0
C2684 C 0.5962 0.62816 0.95203 0.0
C2685 C 0.61417 0.61735 0.94162 0.0
C2686 C 0.62201 0.62271 0.91254 0.0
C2687 C 0.61196 0.63895 0.89384 0.0
H2688 H 0.62197 0.60477 0.95606 0.0
H2689 H 0.51077 0.75709 0.78381 0.0
H2690 H 0.57614 0.38226 0.34407 0.0
H2691 H 0.59504 0.37121 0.29819 0.0
H2692 H 0.53547 0.38162 0.23849 0.0
H2693 H 0.51652 0.39189 0.28408 0.0
H2694 H 0.54974 0.34381 0.22487 0.0
H2695 H 0.58516 0.41732 0.24193 0.0
H2696 H 0.60711 0.4468 0.27237 0.0
H2697 H 0.66245 0.40494 0.28416 0.0
H2698 H 0.64071 0.3751 0.25415 0.0
H2699 H 0.5877 0.342 0.07341 0.0
H2700 H 0.57386 0.35343 0.1227 0.0
H2701 H 0.63536 0.33628 0.17282 0.0
H2702 H 0.64937 0.32481 0.12352 0.0
H2703 H 0.62245 0.3749 0.19383 0.0
H2704 H 0.58805 0.30243 0.17429 0.0
H2705 H 0.56722 0.2739 0.14091 0.0
H2706 H 0.51032 0.31382 0.13319 0.0
H2707 H 0.531 0.34288 0.16602 0.0
C2708 C 0.56735 0.38279 0.32101 0.0
C2709 C 0.54495 0.38823 0.31759 0.0
C2710 C 0.57811 0.37635 0.29479 0.0
C2711 C 0.56674 0.37564 0.2647 0.0
C2712 C 0.54463 0.3819 0.26134 0.0
C2713 C 0.53386 0.388 0.28743 0.0
C2714 C 0.5772 0.36748 0.23671 0.0
C2715 C 0.56553 0.35084 0.21799 0.0
C2716 C 0.59819 0.37597 0.2281 0.0
C2717 C 0.61122 0.3939 0.24613 0.0
C2718 C 0.60194 0.41434 0.25124 0.0
C2719 C 0.61436 0.43113 0.26838 0.0
C2720 C 0.63613 0.42772 0.28028 0.0
C2721 C 0.64556 0.40754 0.27499 0.0
C2722 C 0.63321 0.3907 0.25792 0.0
C2723 C 0.59821 0.34039 0.09493 0.0
C2724 C 0.6196 0.3323 0.09446 0.0
C2725 C 0.5903 0.34702 0.12313 0.0
C2726 C 0.60344 0.34544 0.15159 0.0
C2727 C 0.6249 0.33764 0.15119 0.0
C2728 C 0.63289 0.33109 0.12295 0.0
C2729 C 0.59467 0.35179 0.18171 0.0
C2730 C 0.6067 0.36789 0.20088 0.0
C2731 C 0.57402 0.34282 0.1908 0.0
C2732 C 0.56113 0.3249 0.17244 0.0
C2733 C 0.5711 0.30514 0.16544 0.0
C2734 C 0.55932 0.28887 0.14661 0.0
C2735 C 0.53743 0.29199 0.13501 0.0
C2736 C 0.52729 0.31144 0.14217 0.0
C2737 C 0.53902 0.3278 0.16096 0.0
H2738 H 0.52831 0.27933 0.12049 0.0
H2739 H 0.64572 0.44074 0.29353 0.0
H2740 H 0.9562 0.36196 0.38648 0.0
H2741 H 0.94475 0.34882 0.43706 0.0
H2742 H 0.95446 0.28157 0.4102 0.0
H2743 H 0.96488 0.29425 0.35885 0.0
H2744 H 0.90889 0.31552 0.45454 0.0
H2745 H 0.97958 0.2577 0.47156 0.0
H2746 H 0.01742 0.25466 0.4543 0.0
H2747 H 0.02708 0.32571 0.45448 0.0
H2748 H 0.9892 0.32912 0.47099 0.0
H2749 H 0.9202 0.23555 0.59707 0.0
H2750 H 0.92837 0.24827 0.54464 0.0
H2751 H 0.92392 0.31595 0.57408 0.0
H2752 H 0.91503 0.30322 0.62655 0.0
H2753 H 0.96464 0.27956 0.5259 0.0
H2754 H 0.89569 0.32888 0.5385 0.0
H2755 H 0.85627 0.32708 0.55034 0.0
H2756 H 0.84267 0.27164 0.48743 0.0
H2757 H 0.88213 0.2728 0.47606 0.0
C2758 C 0.95552 0.34427 0.39062 0.0
C2759 C 0.9616 0.32941 0.36746 0.0
C2760 C 0.94896 0.33675 0.42006 0.0
C2761 C 0.94854 0.31408 0.42797 0.0
C2762 C 0.9546 0.29916 0.40513 0.0
C2763 C 0.96085 0.30661 0.37551 0.0
C2764 C 0.94288 0.30617 0.4604 0.0
C2765 C 0.92141 0.30835 0.47047 0.0
C2766 C 0.95853 0.29569 0.48114 0.0
C2767 C 0.98162 0.29362 0.47254 0.0
C2768 C 0.98983 0.27263 0.468 0.0
C2769 C 0.01119 0.27086 0.45803 0.0
C2770 C 0.02461 0.28998 0.45315 0.0
C2771 C 0.01666 0.31091 0.45811 0.0
C2772 C 0.99521 0.31277 0.46755 0.0
C2773 C 0.92072 0.25318 0.59253 0.0
C2774 C 0.91657 0.26818 0.61658 0.0
C2775 C 0.92543 0.26049 0.56219 0.0
C2776 C 0.9262 0.28318 0.5544 0.0
C2777 C 0.92254 0.2983 0.57852 0.0
C2778 C 0.91756 0.29096 0.60888 0.0
C2779 C 0.93143 0.29096 0.52163 0.0
C2780 C 0.95255 0.28786 0.51084 0.0
C2781 C 0.91553 0.30076 0.50036 0.0
C2782 C 0.8919 0.30058 0.50704 0.0
C2783 C 0.88436 0.3161 0.52764 0.0
C2784 C 0.862 0.31523 0.5342 0.0
C2785 C 0.84699 0.29917 0.51981 0.0
C2786 C 0.85431 0.28398 0.49875 0.0
C2787 C 0.87667 0.28468 0.49236 0.0
H2788 H 0.82969 0.29856 0.52485 0.0
H2789 H 0.0412 0.28858 0.44573 0.0
H2790 H 0.0049 0.63188 0.79073 0.0
H2791 H 0.98489 0.64225 0.74184 0.0
H2792 H 0.9278 0.60128 0.76487 0.0
H2793 H 0.94758 0.59146 0.81514 0.0
H2794 H 0.96738 0.60974 0.69563 0.0
H2795 H 0.89785 0.62403 0.75425 0.0
H2796 H 0.88286 0.64171 0.79953 0.0
H2797 H 0.91756 0.70335 0.77895 0.0
H2798 H 0.93313 0.68578 0.734 0.0
H2799 H 0.90291 0.62501 0.55504 0.0
H2800 H 0.91511 0.61445 0.60804 0.0
H2801 H 0.92108 0.68333 0.63611 0.0
H2802 H 0.90691 0.69406 0.58349 0.0
H2803 H 0.90543 0.66047 0.68122 0.0
H2804 H 0.96703 0.65332 0.6198 0.0
H2805 H 0.98737 0.64106 0.5757 0.0
H2806 H 0.97467 0.57299 0.60123 0.0
H2807 H 0.95398 0.58485 0.64526 0.0
C2808 C 0.98802 0.6251 0.78559 0.0
C2809 C 0.97785 0.61063 0.80664 0.0
C2810 C 0.97656 0.63121 0.7577 0.0
C2811 C 0.95468 0.623 0.75004 0.0
C2812 C 0.94436 0.60853 0.77091 0.0
C2813 C 0.95575 0.60268 0.79937 0.0
C2814 C 0.9439 0.62822 0.71878 0.0
C2815 C 0.95348 0.62041 0.69238 0.0
C2816 C 0.92655 0.64301 0.71466 0.0
C2817 C 0.9172 0.65342 0.74155 0.0
C2818 C 0.90264 0.6412 0.75984 0.0
C2819 C 0.89394 0.65124 0.78531 0.0
C2820 C 0.89941 0.6736 0.7923 0.0
C2821 C 0.91343 0.68601 0.77365 0.0
C2822 C 0.92222 0.676 0.74823 0.0
C2823 C 0.90628 0.63801 0.57248 0.0
C2824 C 0.9037 0.66046 0.56472 0.0
C2825 C 0.91365 0.6319 0.60282 0.0
C2826 C 0.91942 0.64808 0.62602 0.0
C2827 C 0.9168 0.67051 0.61858 0.0
C2828 C 0.90896 0.67665 0.58828 0.0
C2829 C 0.92851 0.64147 0.65779 0.0
C2830 C 0.91893 0.64931 0.68425 0.0
C2831 C 0.94633 0.62714 0.66205 0.0
C2832 C 0.95874 0.61996 0.63558 0.0
C2833 C 0.96842 0.63573 0.61585 0.0
C2834 C 0.98003 0.62886 0.59089 0.0
C2835 C 0.98224 0.60626 0.5856 0.0
C2836 C 0.9729 0.59049 0.60532 0.0
C2837 C 0.96124 0.59727 0.63028 0.0
H2838 H 0.99124 0.60097 0.56626 0.0
H2839 H 0.89267 0.68134 0.81204 0.0
H2840 H 0.42377 0.37582 0.18341 0.0
H2841 H 0.41052 0.36144 0.13151 0.0
H2842 H 0.41767 0.2945 0.1648 0.0
H2843 H 0.43107 0.30879 0.21674 0.0
H2844 H 0.43222 0.29795 0.11052 0.0
H2845 H 0.36554 0.31815 0.1531 0.0
H2846 H 0.34072 0.34284 0.1779 0.0
H2847 H 0.3432 0.38753 0.09996 0.0
H2848 H 0.36825 0.36322 0.07486 0.0
H2849 H 0.33779 0.26237 0.98448 0.0
H2850 H 0.35066 0.27906 0.03556 0.0
H2851 H 0.41077 0.30474 0.99723 0.0
H2852 H 0.3978 0.28816 0.94617 0.0
H2853 H 0.36189 0.32083 0.05533 0.0
H2854 H 0.45609 0.29667 0.06942 0.0
H2855 H 0.48021 0.26816 0.05276 0.0
H2856 H 0.42292 0.22785 1.01812 0.0
H2857 H 0.39833 0.2544 0.03837 0.0
C2858 C 0.42242 0.35803 0.17975 0.0
C2859 C 0.42837 0.34347 0.20434 0.0
C2860 C 0.41476 0.34982 0.15004 0.0
C2861 C 0.41264 0.32686 0.14432 0.0
C2862 C 0.41906 0.31229 0.16862 0.0
C2863 C 0.42684 0.32049 0.19831 0.0
C2864 C 0.40421 0.31801 0.11285 0.0
C2865 C 0.41701 0.30308 0.09806 0.0
C2866 C 0.384 0.32435 0.09727 0.0
C2867 C 0.36894 0.33899 0.11228 0.0
C2868 C 0.36092 0.33333 0.14137 0.0
C2869 C 0.34679 0.34724 0.15545 0.0
C2870 C 0.34044 0.36678 0.14056 0.0
C2871 C 0.34816 0.37241 0.11149 0.0
C2872 C 0.3623 0.35856 0.09732 0.0
C2873 C 0.35333 0.27229 0.98677 0.0
C2874 C 0.36648 0.27463 0.96131 0.0
C2875 C 0.36083 0.2816 1.01597 0.0
C2876 C 0.38185 0.29292 1.02035 0.0
C2877 C 0.39465 0.29591 0.99453 0.0
C2878 C 0.38705 0.28676 0.96528 0.0
C2879 C 0.39035 0.30116 0.05211 0.0
C2880 C 0.37744 0.31595 0.06714 0.0
C2881 C 0.41057 0.29449 0.06789 0.0
C2882 C 0.4251 0.27813 0.05476 0.0
C2883 C 0.44847 0.28154 0.0588 0.0
C2884 C 0.46232 0.2654 0.04933 0.0
C2885 C 0.45311 0.24612 0.03437 0.0
C2886 C 0.43004 0.24269 0.02977 0.0
C2887 C 0.41609 0.25823 0.04061 0.0
H2888 H 0.46383 0.2339 0.02622 0.0
H2889 H 0.3295 0.37752 0.1515 0.0
H2890 H 0.3696 0.66408 0.04607 0.0
H2891 H 0.36201 0.65536 0.99009 0.0
H2892 H 0.43 0.63758 0.98585 0.0
H2893 H 0.43759 0.6458 0.04152 0.0
H2894 H 0.41649 0.6683 0.9414 0.0
H2895 H 0.38911 0.59865 0.98697 0.0
H2896 H 0.36411 0.57569 1.01822 0.0
H2897 H 0.30745 0.59669 0.96095 0.0
H2898 H 0.33214 0.62005 0.92965 0.0
H2899 H 0.44076 0.60541 0.82046 0.0
H2900 H 0.42932 0.61174 0.87303 0.0
H2901 H 0.36519 0.6309 0.83356 0.0
H2902 H 0.37659 0.6245 0.78055 0.0
H2903 H 0.36719 0.60614 0.89534 0.0
H2904 H 0.39778 0.66935 0.84264 0.0
H2905 H 0.42497 0.68718 0.80945 0.0
H2906 H 0.47755 0.67736 0.88095 0.0
H2907 H 0.45081 0.65826 0.9139 0.0
C2908 C 0.38277 0.65792 0.03324 0.0
C2909 C 0.40423 0.65571 0.04792 0.0
C2910 C 0.37842 0.65308 1.0014 0.0
C2911 C 0.39551 0.64601 0.98417 0.0
C2912 C 0.41671 0.64323 0.99896 0.0
C2913 C 0.42103 0.64797 0.03063 0.0
C2914 C 0.392 0.64223 0.95032 0.0
C2915 C 0.40561 0.65483 0.93122 0.0
C2916 C 0.37718 0.62516 0.9372 0.0
C2917 C 0.36242 0.61139 0.95635 0.0
C2918 C 0.37131 0.5986 0.98131 0.0
C2919 C 0.3572 0.58545 0.99897 0.0
C2920 C 0.3342 0.58481 0.99168 0.0
C2921 C 0.32526 0.59727 0.96666 0.0
C2922 C 0.3393 0.61047 0.94897 0.0
C2923 C 0.42406 0.61048 0.82309 0.0
C2924 C 0.40965 0.61498 0.79683 0.0
C2925 C 0.41751 0.61389 0.85294 0.0
C2926 C 0.39662 0.62208 0.8567 0.0
C2927 C 0.38137 0.62458 0.83072 0.0
C2928 C 0.38791 0.62104 0.80068 0.0
C2929 C 0.39261 0.63136 0.88711 0.0
C2930 C 0.37749 0.62007 0.90535 0.0
C2931 C 0.40622 0.64955 0.89963 0.0
C2932 C 0.42224 0.66213 0.88064 0.0
C2933 C 0.41516 0.67073 0.85117 0.0
C2934 C 0.43053 0.68102 0.83234 0.0
C2935 C 0.45301 0.68341 0.84306 0.0
C2936 C 0.46015 0.67545 0.87264 0.0
C2937 C 0.44488 0.6648 0.89136 0.0
H2938 H 0.46487 0.69151 0.82851 0.0
H2939 H 0.3233 0.5746 1.00534 0.0
H2940 H 0.11676 0.71014 0.47206 0.0
H2941 H 0.10566 0.69107 0.51903 0.0
H2942 H 0.1744 0.6918 0.55564 0.0
H2943 H 0.18559 0.71059 0.50768 0.0
H2944 H 0.15062 0.65274 0.56904 0.0
H2945 H 0.14006 0.73213 0.57767 0.0
H2946 H 0.12506 0.76688 0.55692 0.0
H2947 H 0.05865 0.73725 0.5543 0.0
H2948 H 0.07329 0.70228 0.57493 0.0
H2949 H 0.13149 0.63585 0.72798 0.0
H2950 H 0.1432 0.65043 0.67843 0.0
H2951 H 0.07463 0.65801 0.64544 0.0
H2952 H 0.06275 0.64341 0.69517 0.0
H2953 H 0.09819 0.69267 0.62955 0.0
H2954 H 0.10491 0.61518 0.6196 0.0
H2955 H 0.11634 0.5776 0.63347 0.0
H2956 H 0.18502 0.59978 0.63216 0.0
H2957 H 0.17402 0.63763 0.61873 0.0
C2958 C 0.12953 0.70578 0.4898 0.0
C2959 C 0.15199 0.71172 0.4864 0.0
C2960 C 0.12317 0.69505 0.51675 0.0
C2961 C 0.13914 0.69053 0.54121 0.0
C2962 C 0.1618 0.69531 0.53711 0.0
C2963 C 0.16821 0.70591 0.50979 0.0
C2964 C 0.13193 0.68195 0.57151 0.0
C2965 C 0.13949 0.66162 0.58262 0.0
C2966 C 0.11663 0.69313 0.58848 0.0
C2967 C 0.10779 0.71456 0.5777 0.0
C2968 C 0.12226 0.73305 0.57271 0.0
C2969 C 0.11382 0.75278 0.56095 0.0
C2970 C 0.09091 0.75425 0.55422 0.0
C2971 C 0.07639 0.73608 0.55955 0.0
C2972 C 0.08474 0.71633 0.57137 0.0
C2973 C 0.11884 0.64041 0.71011 0.0
C2974 C 0.09614 0.63823 0.7155 0.0
C2975 C 0.12559 0.64877 0.68172 0.0
C2976 C 0.10981 0.65496 0.65789 0.0
C2977 C 0.08714 0.65327 0.66341 0.0
C2978 C 0.08037 0.64498 0.69191 0.0
C2979 C 0.11704 0.66343 0.62742 0.0
C2980 C 0.10947 0.68378 0.61622 0.0
C2981 C 0.13188 0.65196 0.60996 0.0
C2982 C 0.13863 0.62932 0.61853 0.0
C2983 C 0.12246 0.61212 0.6226 0.0
C2984 C 0.12886 0.59075 0.63032 0.0
C2985 C 0.1514 0.58632 0.63379 0.0
C2986 C 0.16758 0.60325 0.62952 0.0
C2987 C 0.16127 0.62467 0.62185 0.0
H2988 H 0.15632 0.56976 0.63971 0.0
H2989 H 0.08437 0.76943 0.54487 0.0
H2990 H 0.07577 0.40519 0.2158 0.0
H2991 H 0.10452 0.4011 0.25853 0.0
H2992 H 0.11732 0.33648 0.22284 0.0
H2993 H 0.08915 0.34102 0.17933 0.0
H2994 H 0.08977 0.36709 0.29363 0.0
H2995 H 0.16411 0.31797 0.26336 0.0
H2996 H 0.19051 0.3166 0.22238 0.0
H2997 H 0.18408 0.38609 0.20455 0.0
H2998 H 0.15783 0.38794 0.24569 0.0
H2999 H 0.1223 0.29514 0.41301 0.0
H3000 H 0.11979 0.30582 0.35782 0.0
H3001 H 0.16058 0.36535 0.38078 0.0
H3002 H 0.16237 0.35548 0.43619 0.0
H3003 H 0.16526 0.33961 0.31725 0.0
H3004 H 0.11373 0.37516 0.38459 0.0
H3005 H 0.08595 0.37234 0.4239 0.0
H3006 H 0.04481 0.32704 0.36404 0.0
H3007 H 0.0726 0.32929 0.32464 0.0
C3008 C 0.08575 0.39077 0.2161 0.0
C3009 C 0.08041 0.37331 0.19481 0.0
C3010 C 0.10213 0.38845 0.24039 0.0
C3011 C 0.11278 0.36841 0.24391 0.0
C3012 C 0.10946 0.35217 0.22025 0.0
C3013 C 0.09334 0.35472 0.19551 0.0
C3014 C 0.12151 0.36199 0.27543 0.0
C3015 C 0.10646 0.36152 0.29882 0.0
C3016 C 0.14288 0.35382 0.28179 0.0
C3017 C 0.15892 0.35306 0.25745 0.0
C3018 C 0.16843 0.33299 0.25081 0.0
C3019 C 0.18334 0.33212 0.22753 0.0
C3020 C 0.18893 0.35124 0.21082 0.0
C3021 C 0.17967 0.37128 0.21743 0.0
C3022 C 0.16475 0.37224 0.24069 0.0
C3023 C 0.13092 0.3104 0.40627 0.0
C3024 C 0.14209 0.32476 0.42889 0.0
C3025 C 0.12979 0.31622 0.3748 0.0
C3026 C 0.14003 0.33628 0.36571 0.0
C3027 C 0.15284 0.34968 0.38769 0.0
C3028 C 0.15374 0.34404 0.41926 0.0
C3029 C 0.13367 0.34532 0.33492 0.0
C3030 C 0.14886 0.3458 0.31186 0.0
C3031 C 0.11224 0.35319 0.32846 0.0
C3032 C 0.09536 0.3522 0.35189 0.0
C3033 C 0.09886 0.36445 0.37996 0.0
C3034 C 0.0831 0.36297 0.40223 0.0
C3035 C 0.06366 0.34945 0.39652 0.0
C3036 C 0.0599 0.33746 0.36847 0.0
C3037 C 0.07565 0.33883 0.34617 0.0
H3038 H 0.05149 0.34833 0.41379 0.0
H3039 H 0.20046 0.35052 0.19278 0.0
loop_
_geom_bond_atom_site_label_1
_geom_bond_atom_site_label_2
_geom_bond_distance
_geom_bond_site_symmetry_2
_ccdc_geom_bond_type
Sm0 C2 2.846 . S
Sm0 O20 2.543 . S
Sm0 O21 2.450 . S
Sm0 O22 2.681 . S
Sm0 O23 2.464 . S
Sm0 O24 2.396 . S
Sm0 O28 2.386 . S
Sm0 O31 2.408 . S
Sm1 C11 2.846 . S
Sm1 O22 2.386 1_655 S
Sm1 O25 2.408 . S
Sm1 O26 2.543 . S
Sm1 O27 2.450 . S
Sm1 O28 2.681 1_655 S
Sm1 O29 2.464 . S
Sm1 O30 2.396 1_655 S
C2 Sm0 2.846 . S
C2 C3 1.506 . S
C2 O20 1.261 . S
C2 O21 1.242 . S
C3 C2 1.506 . S
C3 C4 1.358 1_554 S
C3 C8 1.382 1_554 S
C4 C3 1.358 1_556 S
C4 C5 1.385 . S
C4 H32 0.930 . S
C5 C4 1.385 . S
C5 C6 1.395 . S
C5 H33 0.929 . S
C6 C5 1.395 . S
C6 C7 1.335 . S
C7 C6 1.335 . S
C7 C8 1.398 . S
C7 H34 0.930 . S
C8 C3 1.382 1_556 S
C8 C7 1.398 . S
C8 H35 0.929 1_556 S
C9 O22 1.271 . S
C9 O23 1.251 . S
C10 O24 1.252 1_655 S
C10 O25 1.272 . S
C11 Sm1 2.846 . S
C11 C12 1.506 . S
C11 O26 1.261 . S
C11 O27 1.242 . S
C12 C11 1.506 . S
C12 C13 1.358 . S
C12 C17 1.382 . S
C13 C12 1.358 . S
C13 C14 1.385 . S
C13 H36 0.930 . S
C14 C13 1.385 . S
C14 C15 1.395 . S
C14 H37 0.929 . S
C15 C14 1.395 . S
C15 C16 1.335 . S
C16 C15 1.335 . S
C16 C17 1.398 . S
C16 H38 0.930 . S
C17 C12 1.382 . S
C17 C16 1.398 . S
C17 H39 0.929 . S
C18 O28 1.271 . S
C18 O29 1.251 1_455 S
C19 O30 1.252 . S
C19 O31 1.272 . S
O20 Sm0 2.543 . S
O20 C2 1.261 . S
O21 Sm0 2.450 . S
O21 C2 1.242 . S
O22 Sm0 2.681 . S
O22 Sm1 2.386 1_455 S
O22 C9 1.271 . S
O23 Sm0 2.464 . S
O23 C9 1.251 . S
O24 Sm0 2.396 . S
O24 C10 1.252 1_455 S
O25 Sm1 2.408 . S
O25 C10 1.272 . S
O26 Sm1 2.543 . S
O26 C11 1.261 . S
O27 Sm1 2.450 . S
O27 C11 1.242 . S
O28 Sm0 2.386 . S
O28 Sm1 2.681 1_455 S
O28 C18 1.271 . S
O29 Sm1 2.464 . S
O29 C18 1.251 1_655 S
O30 Sm1 2.396 1_455 S
O30 C19 1.252 . S
O31 Sm0 2.408 . S
O31 C19 1.272 . S
H32 C4 0.930 . S
H33 C5 0.929 . S
H34 C7 0.930 . S
H35 C8 0.929 1_554 S
H36 C13 0.930 . S
H37 C14 0.929 . S
H38 C16 0.930 . S
H39 C17 0.929 . S
Sm40 C42 2.846 . S
Sm40 O60 2.543 . S
Sm40 O61 2.450 . S
Sm40 O62 2.681 . S
Sm40 O63 2.464 . S
Sm40 O64 2.396 . S
Sm40 O68 2.386 . S
Sm40 O71 2.408 . S
Sm41 C51 2.846 . S
Sm41 O62 2.386 . S
Sm41 O65 2.408 . S
Sm41 O66 2.543 . S
Sm41 O67 2.450 . S
Sm41 O68 2.681 . S
Sm41 O69 2.464 . S
Sm41 O70 2.396 . S
C42 Sm40 2.846 . S
C42 C43 1.506 . S
C42 O60 1.261 . S
C42 O61 1.242 . S
C43 C42 1.506 . S
C43 C44 1.358 . S
C43 C48 1.382 . S
C44 C43 1.358 . S
C44 C45 1.385 . S
C44 H72 0.930 . S
C45 C44 1.385 . S
C45 C46 1.395 . S
C45 H73 0.929 . S
C46 C45 1.395 . S
C46 C47 1.335 . S
C47 C46 1.335 . S
C47 C48 1.398 . S
C47 H74 0.930 . S
C48 C43 1.382 . S
C48 C47 1.398 . S
C48 H75 0.929 . S
C49 O62 1.271 . S
C49 O63 1.251 . S
C50 O64 1.252 . S
C50 O65 1.272 . S
C51 Sm41 2.846 . S
C51 C52 1.506 . S
C51 O66 1.261 . S
C51 O67 1.242 . S
C52 C51 1.506 . S
C52 C53 1.358 . S
C52 C57 1.382 . S
C53 C52 1.358 . S
C53 C54 1.385 . S
C53 H76 0.930 . S
C54 C53 1.385 . S
C54 C55 1.395 . S
C54 H77 0.929 . S
C55 C54 1.395 . S
C55 C56 1.335 . S
C56 C55 1.335 . S
C56 C57 1.398 . S
C56 H78 0.930 . S
C57 C52 1.382 . S
C57 C56 1.398 . S
C57 H79 0.929 . S
C58 O68 1.271 . S
C58 O69 1.251 . S
C59 O70 1.252 . S
C59 O71 1.272 . S
O60 Sm40 2.543 . S
O60 C42 1.261 . S
O61 Sm40 2.450 . S
O61 C42 1.242 . S
O62 Sm40 2.681 . S
O62 Sm41 2.386 . S
O62 C49 1.271 . S
O63 Sm40 2.464 . S
O63 C49 1.251 . S
O64 Sm40 2.396 . S
O64 C50 1.252 . S
O65 Sm41 2.408 . S
O65 C50 1.272 . S
O66 Sm41 2.543 . S
O66 C51 1.261 . S
O67 Sm41 2.450 . S
O67 C51 1.242 . S
O68 Sm40 2.386 . S
O68 Sm41 2.681 . S
O68 C58 1.271 . S
O69 Sm41 2.464 . S
O69 C58 1.251 . S
O70 Sm41 2.396 . S
O70 C59 1.252 . S
O71 Sm40 2.408 . S
O71 C59 1.272 . S
H72 C44 0.930 . S
H73 C45 0.929 . S
H74 C47 0.930 . S
H75 C48 0.929 . S
H76 C53 0.930 . S
H77 C54 0.929 . S
H78 C56 0.930 . S
H79 C57 0.929 . S
Sm80 C82 2.846 . S
Sm80 O100 2.543 . S
Sm80 O101 2.450 . S
Sm80 O102 2.681 . S
Sm80 O103 2.464 . S
Sm80 O104 2.396 . S
Sm80 O108 2.386 . S
Sm80 O111 2.408 . S
Sm81 C91 2.846 . S
Sm81 O102 2.386 . S
Sm81 O105 2.408 . S
Sm81 O106 2.543 . S
Sm81 O107 2.450 . S
Sm81 O108 2.681 . S
Sm81 O109 2.464 . S
Sm81 O110 2.396 . S
C82 Sm80 2.846 . S
C82 C83 1.506 . S
C82 O100 1.261 . S
C82 O101 1.242 . S
C83 C82 1.506 . S
C83 C84 1.358 . S
C83 C88 1.382 . S
C84 C83 1.358 . S
C84 C85 1.385 . S
C84 H112 0.930 . S
C85 C84 1.385 . S
C85 C86 1.395 . S
C85 H113 0.929 . S
C86 C85 1.395 . S
C86 C87 1.335 . S
C87 C86 1.335 . S
C87 C88 1.398 . S
C87 H114 0.930 . S
C88 C83 1.382 . S
C88 C87 1.398 . S
C88 H115 0.929 . S
C89 O102 1.271 . S
C89 O103 1.251 . S
C90 O104 1.252 . S
C90 O105 1.272 . S
C91 Sm81 2.846 . S
C91 C92 1.506 . S
C91 O106 1.261 . S
C91 O107 1.242 . S
C92 C91 1.506 . S
C92 C93 1.358 . S
C92 C97 1.382 . S
C93 C92 1.358 . S
C93 C94 1.385 . S
C93 H116 0.930 . S
C94 C93 1.385 . S
C94 C95 1.395 . S
C94 H117 0.929 . S
C95 C94 1.395 . S
C95 C96 1.335 . S
C96 C95 1.335 . S
C96 C97 1.398 . S
C96 H118 0.930 . S
C97 C92 1.382 . S
C97 C96 1.398 . S
C97 H119 0.929 . S
C98 O108 1.271 . S
C98 O109 1.251 . S
C99 O110 1.252 . S
C99 O111 1.272 . S
O100 Sm80 2.543 . S
O100 C82 1.261 . S
O101 Sm80 2.450 . S
O101 C82 1.242 . S
O102 Sm80 2.681 . S
O102 Sm81 2.386 . S
O102 C89 1.271 . S
O103 Sm80 2.464 . S
O103 C89 1.251 . S
O104 Sm80 2.396 . S
O104 C90 1.252 . S
O105 Sm81 2.408 . S
O105 C90 1.272 . S
O106 Sm81 2.543 . S
O106 C91 1.261 . S
O107 Sm81 2.450 . S
O107 C91 1.242 . S
O108 Sm80 2.386 . S
O108 Sm81 2.681 . S
O108 C98 1.271 . S
O109 Sm81 2.464 . S
O109 C98 1.251 . S
O110 Sm81 2.396 . S
O110 C99 1.252 . S
O111 Sm80 2.408 . S
O111 C99 1.272 . S
H112 C84 0.930 . S
H113 C85 0.929 . S
H114 C87 0.930 . S
H115 C88 0.929 . S
H116 C93 0.930 . S
H117 C94 0.929 . S
H118 C96 0.930 . S
H119 C97 0.929 . S
Sm120 C122 2.846 . S
Sm120 O140 2.543 . S
Sm120 O141 2.450 . S
Sm120 O142 2.681 . S
Sm120 O143 2.464 . S
Sm120 O144 2.396 . S
Sm120 O148 2.386 . S
Sm120 O151 2.408 . S
Sm121 C131 2.846 . S
Sm121 O142 2.386 . S
Sm121 O145 2.408 . S
Sm121 O146 2.543 . S
Sm121 O147 2.450 . S
Sm121 O148 2.681 . S
Sm121 O149 2.464 . S
Sm121 O150 2.396 . S
C122 Sm120 2.846 . S
C122 C123 1.506 . S
C122 O140 1.261 . S
C122 O141 1.242 . S
C123 C122 1.506 . S
C123 C124 1.358 . S
C123 C128 1.382 . S
C124 C123 1.358 . S
C124 C125 1.385 1_556 S
C124 H152 0.930 . S
C125 C124 1.385 1_554 S
C125 C126 1.395 . S
C125 H153 0.929 . S
C126 C125 1.395 . S
C126 C127 1.335 . S
C127 C126 1.335 . S
C127 C128 1.398 1_554 S
C127 H154 0.930 . S
C128 C123 1.382 . S
C128 C127 1.398 1_556 S
C128 H155 0.929 . S
C129 O142 1.271 . S
C129 O143 1.251 . S
C130 O144 1.252 . S
C130 O145 1.272 . S
C131 Sm121 2.846 . S
C131 C132 1.506 . S
C131 O146 1.261 . S
C131 O147 1.242 . S
C132 C131 1.506 . S
C132 C133 1.358 . S
C132 C137 1.382 . S
C133 C132 1.358 . S
C133 C134 1.385 . S
C133 H156 0.930 . S
C134 C133 1.385 . S
C134 C135 1.395 . S
C134 H157 0.929 . S
C135 C134 1.395 . S
C135 C136 1.335 . S
C136 C135 1.335 . S
C136 C137 1.398 . S
C136 H158 0.930 . S
C137 C132 1.382 . S
C137 C136 1.398 . S
C137 H159 0.929 . S
C138 O148 1.271 . S
C138 O149 1.251 . S
C139 O150 1.252 . S
C139 O151 1.272 . S
O140 Sm120 2.543 . S
O140 C122 1.261 . S
O141 Sm120 2.450 . S
O141 C122 1.242 . S
O142 Sm120 2.681 . S
O142 Sm121 2.386 . S
O142 C129 1.271 . S
O143 Sm120 2.464 . S
O143 C129 1.251 . S
O144 Sm120 2.396 . S
O144 C130 1.252 . S
O145 Sm121 2.408 . S
O145 C130 1.272 . S
O146 Sm121 2.543 . S
O146 C131 1.261 . S
O147 Sm121 2.450 . S
O147 C131 1.242 . S
O148 Sm120 2.386 . S
O148 Sm121 2.681 . S
O148 C138 1.271 . S
O149 Sm121 2.464 . S
O149 C138 1.251 . S
O150 Sm121 2.396 . S
O150 C139 1.252 . S
O151 Sm120 2.408 . S
O151 C139 1.272 . S
H152 C124 0.930 . S
H153 C125 0.929 . S
H154 C127 0.930 . S
H155 C128 0.929 . S
H156 C133 0.930 . S
H157 C134 0.929 . S
H158 C136 0.930 . S
H159 C137 0.929 . S
Sm160 C162 2.846 . S
Sm160 O180 2.543 . S
Sm160 O181 2.450 . S
Sm160 O182 2.681 . S
Sm160 O183 2.464 . S
Sm160 O184 2.396 . S
Sm160 O188 2.386 . S
Sm160 O191 2.408 . S
Sm161 C171 2.846 . S
Sm161 O182 2.386 1_655 S
Sm161 O185 2.408 . S
Sm161 O186 2.543 . S
Sm161 O187 2.450 . S
Sm161 O188 2.681 1_655 S
Sm161 O189 2.464 . S
Sm161 O190 2.396 1_655 S
C162 Sm160 2.846 . S
C162 C163 1.506 1_556 S
C162 O180 1.261 . S
C162 O181 1.242 . S
C163 C162 1.506 1_554 S
C163 C164 1.358 . S
C163 C168 1.382 . S
C164 C163 1.358 . S
C164 C165 1.385 . S
C164 H192 0.930 . S
C165 C164 1.385 . S
C165 C166 1.395 . S
C165 H193 0.929 . S
C166 C165 1.395 . S
C166 C167 1.335 . S
C167 C166 1.335 . S
C167 C168 1.398 . S
C167 H194 0.930 . S
C168 C163 1.382 . S
C168 C167 1.398 . S
C168 H195 0.929 . S
C169 O182 1.271 . S
C169 O183 1.251 . S
C170 O184 1.252 1_655 S
C170 O185 1.272 . S
C171 Sm161 2.846 . S
C171 C172 1.506 . S
C171 O186 1.261 . S
C171 O187 1.242 . S
C172 C171 1.506 . S
C172 C173 1.358 . S
C172 C177 1.382 . S
C173 C172 1.358 . S
C173 C174 1.385 . S
C173 H196 0.930 . S
C174 C173 1.385 . S
C174 C175 1.395 . S
C174 H197 0.929 . S
C175 C174 1.395 . S
C175 C176 1.335 . S
C176 C175 1.335 . S
C176 C177 1.398 . S
C176 H198 0.930 . S
C177 C172 1.382 . S
C177 C176 1.398 . S
C177 H199 0.929 . S
C178 O188 1.271 . S
C178 O189 1.251 1_455 S
C179 O190 1.252 . S
C179 O191 1.272 . S
O180 Sm160 2.543 . S
O180 C162 1.261 . S
O181 Sm160 2.450 . S
O181 C162 1.242 . S
O182 Sm160 2.681 . S
O182 Sm161 2.386 1_455 S
O182 C169 1.271 . S
O183 Sm160 2.464 . S
O183 C169 1.251 . S
O184 Sm160 2.396 . S
O184 C170 1.252 1_455 S
O185 Sm161 2.408 . S
O185 C170 1.272 . S
O186 Sm161 2.543 . S
O186 C171 1.261 . S
O187 Sm161 2.450 . S
O187 C171 1.242 . S
O188 Sm160 2.386 . S
O188 Sm161 2.681 1_455 S
O188 C178 1.271 . S
O189 Sm161 2.464 . S
O189 C178 1.251 1_655 S
O190 Sm161 2.396 1_455 S
O190 C179 1.252 . S
O191 Sm160 2.408 . S
O191 C179 1.272 . S
H192 C164 0.930 . S
H193 C165 0.929 . S
H194 C167 0.930 . S
H195 C168 0.929 . S
H196 C173 0.930 . S
H197 C174 0.929 . S
H198 C176 0.930 . S
H199 C177 0.929 . S
Sm200 C202 2.846 . S
Sm200 O220 2.543 . S
Sm200 O221 2.450 . S
Sm200 O222 2.681 . S
Sm200 O223 2.464 . S
Sm200 O224 2.396 . S
Sm200 O228 2.386 . S
Sm200 O231 2.408 . S
Sm201 C211 2.846 . S
Sm201 O222 2.386 . S
Sm201 O225 2.408 . S
Sm201 O226 2.543 . S
Sm201 O227 2.450 . S
Sm201 O228 2.681 . S
Sm201 O229 2.464 . S
Sm201 O230 2.396 . S
C202 Sm200 2.846 . S
C202 C203 1.506 . S
C202 O220 1.261 . S
C202 O221 1.242 . S
C203 C202 1.506 . S
C203 C204 1.358 . S
C203 C208 1.382 . S
C204 C203 1.358 . S
C204 C205 1.385 . S
C204 H232 0.930 . S
C205 C204 1.385 . S
C205 C206 1.395 . S
C205 H233 0.929 . S
C206 C205 1.395 . S
C206 C207 1.335 . S
C207 C206 1.335 . S
C207 C208 1.398 . S
C207 H234 0.930 . S
C208 C203 1.382 . S
C208 C207 1.398 . S
C208 H235 0.929 . S
C209 O222 1.271 . S
C209 O223 1.251 . S
C210 O224 1.252 . S
C210 O225 1.272 . S
C211 Sm201 2.846 . S
C211 C212 1.506 . S
C211 O226 1.261 . S
C211 O227 1.242 . S
C212 C211 1.506 . S
C212 C213 1.358 . S
C212 C217 1.382 . S
C213 C212 1.358 . S
C213 C214 1.385 . S
C213 H236 0.930 . S
C214 C213 1.385 . S
C214 C215 1.395 . S
C214 H237 0.942 . S
C215 C214 1.395 . S
C215 C216 1.335 . S
C216 C215 1.335 . S
C216 C217 1.398 . S
C216 H238 0.930 . S
C217 C212 1.382 . S
C217 C216 1.398 . S
C217 H239 0.929 . S
C218 O228 1.271 . S
C218 O229 1.251 . S
C219 O230 1.252 . S
C219 O231 1.272 . S
O220 Sm200 2.543 . S
O220 C202 1.261 . S
O221 Sm200 2.450 . S
O221 C202 1.242 . S
O222 Sm200 2.681 . S
O222 Sm201 2.386 . S
O222 C209 1.271 . S
O223 Sm200 2.464 . S
O223 C209 1.251 . S
O224 Sm200 2.396 . S
O224 C210 1.252 . S
O225 Sm201 2.408 . S
O225 C210 1.272 . S
O226 Sm201 2.543 . S
O226 C211 1.261 . S
O227 Sm201 2.450 . S
O227 C211 1.242 . S
O228 Sm200 2.386 . S
O228 Sm201 2.681 . S
O228 C218 1.271 . S
O229 Sm201 2.464 . S
O229 C218 1.251 . S
O230 Sm201 2.396 . S
O230 C219 1.252 . S
O231 Sm200 2.408 . S
O231 C219 1.272 . S
H232 C204 0.930 . S
H233 C205 0.929 . S
H234 C207 0.930 . S
H235 C208 0.929 . S
H236 C213 0.930 . S
H237 C214 0.942 . S
H238 C216 0.930 . S
H239 C217 0.929 . S
Sm240 C242 2.846 . S
Sm240 O260 2.543 . S
Sm240 O261 2.450 . S
Sm240 O262 2.681 . S
Sm240 O263 2.464 . S
Sm240 O264 2.396 . S
Sm240 O268 2.386 . S
Sm240 O271 2.408 . S
Sm241 C251 2.846 . S
Sm241 O262 2.386 . S
Sm241 O265 2.408 . S
Sm241 O266 2.543 . S
Sm241 O267 2.450 . S
Sm241 O268 2.681 . S
Sm241 O269 2.464 . S
Sm241 O270 2.396 . S
C242 Sm240 2.846 . S
C242 C243 1.506 . S
C242 O260 1.261 . S
C242 O261 1.242 . S
C243 C242 1.506 . S
C243 C244 1.358 . S
C243 C248 1.382 . S
C244 C243 1.358 . S
C244 C245 1.385 . S
C244 H272 0.930 . S
C245 C244 1.385 . S
C245 C246 1.395 . S
C245 H273 0.929 . S
C246 C245 1.395 . S
C246 C247 1.335 . S
C247 C246 1.335 . S
C247 C248 1.398 . S
C247 H274 0.930 . S
C248 C243 1.382 . S
C248 C247 1.398 . S
C248 H275 0.929 . S
C249 O262 1.271 . S
C249 O263 1.251 . S
C250 O264 1.252 . S
C250 O265 1.272 . S
C251 Sm241 2.846 . S
C251 C252 1.506 . S
C251 O266 1.261 . S
C251 O267 1.242 . S
C252 C251 1.506 . S
C252 C253 1.358 . S
C252 C257 1.382 . S
C253 C252 1.358 . S
C253 C254 1.385 . S
C253 H276 0.930 . S
C254 C253 1.385 . S
C254 C255 1.395 . S
C254 H277 0.929 . S
C255 C254 1.395 . S
C255 C256 1.335 . S
C256 C255 1.335 . S
C256 C257 1.398 . S
C256 H278 0.930 . S
C257 C252 1.382 . S
C257 C256 1.398 . S
C257 H279 0.929 . S
C258 O268 1.271 . S
C258 O269 1.251 . S
C259 O270 1.252 . S
C259 O271 1.272 . S
O260 Sm240 2.543 . S
O260 C242 1.261 . S
O261 Sm240 2.450 . S
O261 C242 1.242 . S
O262 Sm240 2.681 . S
O262 Sm241 2.386 . S
O262 C249 1.271 . S
O263 Sm240 2.464 . S
O263 C249 1.251 . S
O264 Sm240 2.396 . S
O264 C250 1.252 . S
O265 Sm241 2.408 . S
O265 C250 1.272 . S
O266 Sm241 2.543 . S
O266 C251 1.261 . S
O267 Sm241 2.450 . S
O267 C251 1.242 . S
O268 Sm240 2.386 . S
O268 Sm241 2.681 . S
O268 C258 1.271 . S
O269 Sm241 2.464 . S
O269 C258 1.251 . S
O270 Sm241 2.396 . S
O270 C259 1.252 . S
O271 Sm240 2.408 . S
O271 C259 1.272 . S
H272 C244 0.930 . S
H273 C245 0.929 . S
H274 C247 0.930 . S
H275 C248 0.929 . S
H276 C253 0.930 . S
H277 C254 0.929 . S
H278 C256 0.930 . S
H279 C257 0.929 . S
Sm280 C282 2.846 . S
Sm280 O300 2.543 . S
Sm280 O301 2.450 . S
Sm280 O302 2.681 . S
Sm280 O303 2.464 . S
Sm280 O304 2.396 . S
Sm280 O308 2.386 . S
Sm280 O311 2.408 . S
Sm281 C291 2.846 . S
Sm281 O302 2.386 . S
Sm281 O305 2.408 . S
Sm281 O306 2.543 . S
Sm281 O307 2.450 . S
Sm281 O308 2.681 . S
Sm281 O309 2.464 . S
Sm281 O310 2.396 . S
C282 Sm280 2.846 . S
C282 C283 1.506 . S
C282 O300 1.261 . S
C282 O301 1.242 . S
C283 C282 1.506 . S
C283 C284 1.358 . S
C283 C288 1.382 . S
C284 C283 1.358 . S
C284 C285 1.385 . S
C284 H312 0.930 . S
C285 C284 1.385 . S
C285 C286 1.395 . S
C285 H313 0.929 . S
C286 C285 1.395 . S
C286 C287 1.335 . S
C287 C286 1.335 . S
C287 C288 1.398 . S
C287 H314 0.930 . S
C288 C283 1.382 . S
C288 C287 1.398 . S
C288 H315 0.929 . S
C289 O302 1.271 . S
C289 O303 1.251 . S
C290 O304 1.252 . S
C290 O305 1.272 . S
C291 Sm281 2.846 . S
C291 C292 1.506 . S
C291 O306 1.261 . S
C291 O307 1.242 . S
C292 C291 1.506 . S
C292 C293 1.358 . S
C292 C297 1.382 . S
C293 C292 1.358 . S
C293 C294 1.385 . S
C293 H316 0.930 . S
C294 C293 1.385 . S
C294 C295 1.395 . S
C294 H317 0.929 . S
C295 C294 1.395 . S
C295 C296 1.335 . S
C296 C295 1.335 . S
C296 C297 1.398 . S
C296 H318 0.930 . S
C297 C292 1.382 . S
C297 C296 1.398 . S
C297 H319 0.929 . S
C298 O308 1.271 . S
C298 O309 1.251 . S
C299 O310 1.252 . S
C299 O311 1.272 . S
O300 Sm280 2.543 . S
O300 C282 1.261 . S
O301 Sm280 2.450 . S
O301 C282 1.242 . S
O302 Sm280 2.681 . S
O302 Sm281 2.386 . S
O302 C289 1.271 . S
O303 Sm280 2.464 . S
O303 C289 1.251 . S
O304 Sm280 2.396 . S
O304 C290 1.252 . S
O305 Sm281 2.408 . S
O305 C290 1.272 . S
O306 Sm281 2.543 . S
O306 C291 1.261 . S
O307 Sm281 2.450 . S
O307 C291 1.242 . S
O308 Sm280 2.386 . S
O308 Sm281 2.681 . S
O308 C298 1.271 . S
O309 Sm281 2.464 . S
O309 C298 1.251 . S
O310 Sm281 2.396 . S
O310 C299 1.252 . S
O311 Sm280 2.408 . S
O311 C299 1.272 . S
H312 C284 0.930 . S
H313 C285 0.929 . S
H314 C287 0.930 . S
H315 C288 0.929 . S
H316 C293 0.930 . S
H317 C294 0.929 . S
H318 C296 0.930 . S
H319 C297 0.929 . S
Sm320 C322 2.846 . S
Sm320 O340 2.543 . S
Sm320 O341 2.450 . S
Sm320 O342 2.681 . S
Sm320 O343 2.464 . S
Sm320 O344 2.396 . S
Sm320 O348 2.386 . S
Sm320 O351 2.408 . S
Sm321 C331 2.846 . S
Sm321 O342 2.386 . S
Sm321 O345 2.408 . S
Sm321 O346 2.543 . S
Sm321 O347 2.450 . S
Sm321 O348 2.681 . S
Sm321 O349 2.464 . S
Sm321 O350 2.396 . S
C322 Sm320 2.846 . S
C322 C323 1.506 . S
C322 O340 1.261 . S
C322 O341 1.242 . S
C323 C322 1.506 . S
C323 C324 1.358 . S
C323 C328 1.382 . S
C324 C323 1.358 . S
C324 C325 1.385 . S
C324 H352 0.930 . S
C325 C324 1.385 . S
C325 C326 1.395 . S
C325 H353 0.929 . S
C326 C325 1.395 . S
C326 C327 1.335 . S
C327 C326 1.335 . S
C327 C328 1.398 . S
C327 H354 0.930 . S
C328 C323 1.382 . S
C328 C327 1.398 . S
C328 H355 0.929 . S
C329 O342 1.271 . S
C329 O343 1.251 . S
C330 O344 1.252 . S
C330 O345 1.272 . S
C331 Sm321 2.846 . S
C331 C332 1.506 . S
C331 O346 1.261 . S
C331 O347 1.242 . S
C332 C331 1.506 . S
C332 C333 1.358 . S
C332 C337 1.382 . S
C333 C332 1.358 . S
C333 C334 1.385 . S
C333 H356 0.930 . S
C334 C333 1.385 . S
C334 C335 1.395 . S
C334 H357 0.929 . S
C335 C334 1.395 . S
C335 C336 1.335 . S
C336 C335 1.335 . S
C336 C337 1.398 . S
C336 H358 0.930 . S
C337 C332 1.382 . S
C337 C336 1.398 . S
C337 H359 0.929 . S
C338 O348 1.271 . S
C338 O349 1.251 . S
C339 O350 1.252 . S
C339 O351 1.272 . S
O340 Sm320 2.543 . S
O340 C322 1.261 . S
O341 Sm320 2.450 . S
O341 C322 1.242 . S
O342 Sm320 2.681 . S
O342 Sm321 2.386 . S
O342 C329 1.271 . S
O343 Sm320 2.464 . S
O343 C329 1.251 . S
O344 Sm320 2.396 . S
O344 C330 1.252 . S
O345 Sm321 2.408 . S
O345 C330 1.272 . S
O346 Sm321 2.543 . S
O346 C331 1.261 . S
O347 Sm321 2.450 . S
O347 C331 1.242 . S
O348 Sm320 2.386 . S
O348 Sm321 2.681 . S
O348 C338 1.271 . S
O349 Sm321 2.464 . S
O349 C338 1.251 . S
O350 Sm321 2.396 . S
O350 C339 1.252 . S
O351 Sm320 2.408 . S
O351 C339 1.272 . S
H352 C324 0.930 . S
H353 C325 0.929 . S
H354 C327 0.930 . S
H355 C328 0.929 . S
H356 C333 0.930 . S
H357 C334 0.929 . S
H358 C336 0.930 . S
H359 C337 0.929 . S
Sm360 C362 2.846 . S
Sm360 O380 2.543 . S
Sm360 O381 2.450 . S
Sm360 O382 2.681 . S
Sm360 O383 2.464 . S
Sm360 O384 2.396 . S
Sm360 O388 2.386 . S
Sm360 O391 2.408 . S
Sm361 C371 2.846 . S
Sm361 O382 2.386 . S
Sm361 O385 2.408 . S
Sm361 O386 2.543 . S
Sm361 O387 2.450 . S
Sm361 O388 2.681 . S
Sm361 O389 2.464 . S
Sm361 O390 2.396 . S
C362 Sm360 2.846 . S
C362 C363 1.506 . S
C362 O380 1.261 . S
C362 O381 1.242 . S
C363 C362 1.506 . S
C363 C364 1.358 . S
C363 C368 1.382 . S
C364 C363 1.358 . S
C364 C365 1.385 . S
C364 H392 0.930 . S
C365 C364 1.385 . S
C365 C366 1.395 . S
C365 H393 0.929 . S
C366 C365 1.395 . S
C366 C367 1.335 . S
C367 C366 1.335 . S
C367 C368 1.398 . S
C367 H394 0.930 . S
C368 C363 1.382 . S
C368 C367 1.398 . S
C368 H395 0.929 . S
C369 O382 1.271 . S
C369 O383 1.251 . S
C370 O384 1.252 . S
C370 O385 1.272 . S
C371 Sm361 2.846 . S
C371 C372 1.506 1_554 S
C371 O386 1.261 . S
C371 O387 1.242 . S
C372 C371 1.506 1_556 S
C372 C373 1.358 . S
C372 C377 1.382 . S
C373 C372 1.358 . S
C373 C374 1.385 . S
C373 H396 0.930 . S
C374 C373 1.385 . S
C374 C375 1.395 . S
C374 H397 0.929 . S
C375 C374 1.395 . S
C375 C376 1.335 . S
C376 C375 1.335 . S
C376 C377 1.398 . S
C376 H398 0.930 . S
C377 C372 1.382 . S
C377 C376 1.398 . S
C377 H399 0.929 . S
C378 O388 1.271 . S
C378 O389 1.251 . S
C379 O390 1.252 . S
C379 O391 1.272 . S
O380 Sm360 2.543 . S
O380 C362 1.261 . S
O381 Sm360 2.450 . S
O381 C362 1.242 . S
O382 Sm360 2.681 . S
O382 Sm361 2.386 . S
O382 C369 1.271 . S
O383 Sm360 2.464 . S
O383 C369 1.251 . S
O384 Sm360 2.396 . S
O384 C370 1.252 . S
O385 Sm361 2.408 . S
O385 C370 1.272 . S
O386 Sm361 2.543 . S
O386 C371 1.261 . S
O387 Sm361 2.450 . S
O387 C371 1.242 . S
O388 Sm360 2.386 . S
O388 Sm361 2.681 . S
O388 C378 1.271 . S
O389 Sm361 2.464 . S
O389 C378 1.251 . S
O390 Sm361 2.396 . S
O390 C379 1.252 . S
O391 Sm360 2.408 . S
O391 C379 1.272 . S
H392 C364 0.930 . S
H393 C365 0.929 . S
H394 C367 0.930 . S
H395 C368 0.929 . S
H396 C373 0.930 . S
H397 C374 0.929 . S
H398 C376 0.930 . S
H399 C377 0.929 . S
Sm400 C402 2.846 . S
Sm400 O420 2.543 . S
Sm400 O421 2.450 . S
Sm400 O422 2.681 . S
Sm400 O423 2.464 . S
Sm400 O424 2.396 . S
Sm400 O428 2.386 . S
Sm400 O431 2.408 . S
Sm401 C411 2.846 . S
Sm401 O422 2.386 . S
Sm401 O425 2.408 . S
Sm401 O426 2.543 . S
Sm401 O427 2.450 . S
Sm401 O428 2.681 . S
Sm401 O429 2.464 . S
Sm401 O430 2.396 . S
C402 Sm400 2.846 . S
C402 C403 1.506 . S
C402 O420 1.261 . S
C402 O421 1.242 . S
C403 C402 1.506 . S
C403 C404 1.358 1_556 S
C403 C408 1.382 1_556 S
C404 C403 1.358 1_554 S
C404 C405 1.385 . S
C404 H432 0.930 . S
C405 C404 1.385 . S
C405 C406 1.395 . S
C405 H433 0.929 . S
C406 C405 1.395 . S
C406 C407 1.335 . S
C407 C406 1.335 . S
C407 C408 1.398 . S
C407 H434 0.930 . S
C408 C403 1.382 1_554 S
C408 C407 1.398 . S
C408 H435 0.929 1_554 S
C409 O422 1.271 . S
C409 O423 1.251 . S
C410 O424 1.252 . S
C410 O425 1.272 . S
C411 Sm401 2.846 . S
C411 C412 1.506 . S
C411 O426 1.261 . S
C411 O427 1.242 . S
C412 C411 1.506 . S
C412 C413 1.358 . S
C412 C417 1.382 . S
C413 C412 1.358 . S
C413 C414 1.385 . S
C413 H436 0.930 . S
C414 C413 1.385 . S
C414 C415 1.395 . S
C414 H437 0.929 . S
C415 C414 1.395 . S
C415 C416 1.335 . S
C416 C415 1.335 . S
C416 C417 1.398 . S
C416 H438 0.930 . S
C417 C412 1.382 . S
C417 C416 1.398 . S
C417 H439 0.929 . S
C418 O428 1.271 . S
C418 O429 1.251 . S
C419 O430 1.252 . S
C419 O431 1.272 . S
O420 Sm400 2.543 . S
O420 C402 1.261 . S
O421 Sm400 2.450 . S
O421 C402 1.242 . S
O422 Sm400 2.681 . S
O422 Sm401 2.386 . S
O422 C409 1.271 . S
O423 Sm400 2.464 . S
O423 C409 1.251 . S
O424 Sm400 2.396 . S
O424 C410 1.252 . S
O425 Sm401 2.408 . S
O425 C410 1.272 . S
O426 Sm401 2.543 . S
O426 C411 1.261 . S
O427 Sm401 2.450 . S
O427 C411 1.242 . S
O428 Sm400 2.386 . S
O428 Sm401 2.681 . S
O428 C418 1.271 . S
O429 Sm401 2.464 . S
O429 C418 1.251 . S
O430 Sm401 2.396 . S
O430 C419 1.252 . S
O431 Sm400 2.408 . S
O431 C419 1.272 . S
H432 C404 0.930 . S
H433 C405 0.929 . S
H434 C407 0.930 . S
H435 C408 0.929 1_556 S
H436 C413 0.930 . S
H437 C414 0.929 . S
H438 C416 0.930 . S
H439 C417 0.929 . S
Sm440 C442 2.846 . S
Sm440 O460 2.543 . S
Sm440 O461 2.450 . S
Sm440 O462 2.681 . S
Sm440 O463 2.464 . S
Sm440 O464 2.396 . S
Sm440 O468 2.386 . S
Sm440 O471 2.408 . S
Sm441 C451 2.846 . S
Sm441 O462 2.386 . S
Sm441 O465 2.408 . S
Sm441 O466 2.543 . S
Sm441 O467 2.450 . S
Sm441 O468 2.681 . S
Sm441 O469 2.464 . S
Sm441 O470 2.396 . S
C442 Sm440 2.846 . S
C442 C443 1.506 . S
C442 O460 1.261 . S
C442 O461 1.242 . S
C443 C442 1.506 . S
C443 C444 1.358 . S
C443 C448 1.382 . S
C444 C443 1.358 . S
C444 C445 1.385 . S
C444 H472 0.930 . S
C445 C444 1.385 . S
C445 C446 1.395 . S
C445 H473 0.929 . S
C446 C445 1.395 . S
C446 C447 1.335 . S
C447 C446 1.335 . S
C447 C448 1.398 . S
C447 H474 0.930 . S
C448 C443 1.382 . S
C448 C447 1.398 . S
C448 H475 0.929 . S
C449 O462 1.271 . S
C449 O463 1.251 . S
C450 O464 1.252 . S
C450 O465 1.272 . S
C451 Sm441 2.846 . S
C451 C452 1.506 . S
C451 O466 1.261 . S
C451 O467 1.242 . S
C452 C451 1.506 . S
C452 C453 1.358 . S
C452 C457 1.382 . S
C453 C452 1.358 . S
C453 C454 1.385 . S
C453 H476 0.930 . S
C454 C453 1.385 . S
C454 C455 1.395 . S
C454 H477 0.929 . S
C455 C454 1.395 . S
C455 C456 1.335 . S
C456 C455 1.335 . S
C456 C457 1.398 . S
C456 H478 0.930 . S
C457 C452 1.382 . S
C457 C456 1.398 . S
C457 H479 0.929 . S
C458 O468 1.271 . S
C458 O469 1.251 . S
C459 O470 1.252 . S
C459 O471 1.272 . S
O460 Sm440 2.543 . S
O460 C442 1.261 . S
O461 Sm440 2.450 . S
O461 C442 1.242 . S
O462 Sm440 2.681 . S
O462 Sm441 2.386 . S
O462 C449 1.271 . S
O463 Sm440 2.464 . S
O463 C449 1.251 . S
O464 Sm440 2.396 . S
O464 C450 1.252 . S
O465 Sm441 2.408 . S
O465 C450 1.272 . S
O466 Sm441 2.543 . S
O466 C451 1.261 . S
O467 Sm441 2.450 . S
O467 C451 1.242 . S
O468 Sm440 2.386 . S
O468 Sm441 2.681 . S
O468 C458 1.271 . S
O469 Sm441 2.464 . S
O469 C458 1.251 . S
O470 Sm441 2.396 . S
O470 C459 1.252 . S
O471 Sm440 2.408 . S
O471 C459 1.272 . S
H472 C444 0.930 . S
H473 C445 0.929 . S
H474 C447 0.930 . S
H475 C448 0.929 . S
H476 C453 0.930 . S
H477 C454 0.929 . S
H478 C456 0.930 . S
H479 C457 0.929 . S
Sm480 C482 2.846 . S
Sm480 O500 2.543 . S
Sm480 O501 2.450 . S
Sm480 O502 2.681 . S
Sm480 O503 2.464 . S
Sm480 O504 2.396 . S
Sm480 O508 2.386 . S
Sm480 O511 2.408 . S
Sm481 C491 2.846 . S
Sm481 O502 2.386 . S
Sm481 O505 2.408 . S
Sm481 O506 2.543 . S
Sm481 O507 2.450 . S
Sm481 O508 2.681 . S
Sm481 O509 2.464 . S
Sm481 O510 2.396 . S
C482 Sm480 2.846 . S
C482 C483 1.506 . S
C482 O500 1.261 . S
C482 O501 1.242 . S
C483 C482 1.506 . S
C483 C484 1.358 . S
C483 C488 1.382 . S
C484 C483 1.358 . S
C484 C485 1.385 . S
C484 H512 0.930 . S
C485 C484 1.385 . S
C485 C486 1.395 . S
C485 H513 0.929 . S
C486 C485 1.395 . S
C486 C487 1.335 . S
C487 C486 1.335 . S
C487 C488 1.398 . S
C487 H514 0.930 . S
C488 C483 1.382 . S
C488 C487 1.398 . S
C488 H515 0.929 . S
C489 O502 1.271 . S
C489 O503 1.251 . S
C490 O504 1.252 . S
C490 O505 1.272 . S
C491 Sm481 2.846 . S
C491 C492 1.506 . S
C491 O506 1.261 . S
C491 O507 1.242 . S
C492 C491 1.506 . S
C492 C493 1.358 . S
C492 C497 1.382 . S
C493 C492 1.358 . S
C493 C494 1.385 . S
C493 H516 0.930 . S
C494 C493 1.385 . S
C494 C495 1.395 . S
C494 H517 0.929 . S
C495 C494 1.395 . S
C495 C496 1.335 . S
C496 C495 1.335 . S
C496 C497 1.398 . S
C496 H518 0.930 . S
C497 C492 1.382 . S
C497 C496 1.398 . S
C497 H519 0.929 . S
C498 O508 1.271 . S
C498 O509 1.251 . S
C499 O510 1.252 . S
C499 O511 1.272 . S
O500 Sm480 2.543 . S
O500 C482 1.261 . S
O501 Sm480 2.450 . S
O501 C482 1.242 . S
O502 Sm480 2.681 . S
O502 Sm481 2.386 . S
O502 C489 1.271 . S
O503 Sm480 2.464 . S
O503 C489 1.251 . S
O504 Sm480 2.396 . S
O504 C490 1.252 . S
O505 Sm481 2.408 . S
O505 C490 1.272 . S
O506 Sm481 2.543 . S
O506 C491 1.261 . S
O507 Sm481 2.450 . S
O507 C491 1.242 . S
O508 Sm480 2.386 . S
O508 Sm481 2.681 . S
O508 C498 1.271 . S
O509 Sm481 2.464 . S
O509 C498 1.251 . S
O510 Sm481 2.396 . S
O510 C499 1.252 . S
O511 Sm480 2.408 . S
O511 C499 1.272 . S
H512 C484 0.930 . S
H513 C485 0.929 . S
H514 C487 0.930 . S
H515 C488 0.929 . S
H516 C493 0.930 . S
H517 C494 0.929 . S
H518 C496 0.930 . S
H519 C497 0.929 . S
Sm520 C522 2.846 . S
Sm520 O540 2.543 . S
Sm520 O541 2.450 . S
Sm520 O542 2.681 1_655 S
Sm520 O543 2.464 . S
Sm520 O544 2.396 1_655 S
Sm520 O548 2.386 1_655 S
Sm520 O551 2.408 . S
Sm521 C531 2.846 . S
Sm521 O542 2.386 . S
Sm521 O545 2.408 . S
Sm521 O546 2.543 . S
Sm521 O547 2.450 . S
Sm521 O548 2.681 . S
Sm521 O549 2.464 . S
Sm521 O550 2.396 . S
C522 Sm520 2.846 . S
C522 C523 1.506 . S
C522 O540 1.261 . S
C522 O541 1.242 . S
C523 C522 1.506 . S
C523 C524 1.358 . S
C523 C528 1.382 . S
C524 C523 1.358 . S
C524 C525 1.385 . S
C524 H552 0.930 . S
C525 C524 1.385 . S
C525 C526 1.395 . S
C525 H553 0.929 . S
C526 C525 1.395 . S
C526 C527 1.335 . S
C527 C526 1.335 . S
C527 C528 1.398 . S
C527 H554 0.930 . S
C528 C523 1.382 . S
C528 C527 1.398 . S
C528 H555 0.929 . S
C529 O542 1.271 . S
C529 O543 1.251 1_455 S
C530 O544 1.252 . S
C530 O545 1.272 . S
C531 Sm521 2.846 . S
C531 C532 1.506 . S
C531 O546 1.261 . S
C531 O547 1.242 . S
C532 C531 1.506 . S
C532 C533 1.358 1_554 S
C532 C537 1.382 1_554 S
C533 C532 1.358 1_556 S
C533 C534 1.385 . S
C533 H556 0.930 . S
C534 C533 1.385 . S
C534 C535 1.395 . S
C534 H557 0.929 . S
C535 C534 1.395 . S
C535 C536 1.335 . S
C536 C535 1.335 . S
C536 C537 1.398 . S
C536 H558 0.930 . S
C537 C532 1.382 1_556 S
C537 C536 1.398 . S
C537 H559 0.929 1_556 S
C538 O548 1.271 . S
C538 O549 1.251 . S
C539 O550 1.252 1_655 S
C539 O551 1.272 . S
O540 Sm520 2.543 . S
O540 C522 1.261 . S
O541 Sm520 2.450 . S
O541 C522 1.242 . S
O542 Sm520 2.681 1_455 S
O542 Sm521 2.386 . S
O542 C529 1.271 . S
O543 Sm520 2.464 . S
O543 C529 1.251 1_655 S
O544 Sm520 2.396 1_455 S
O544 C530 1.252 . S
O545 Sm521 2.408 . S
O545 C530 1.272 . S
O546 Sm521 2.543 . S
O546 C531 1.261 . S
O547 Sm521 2.450 . S
O547 C531 1.242 . S
O548 Sm520 2.386 1_455 S
O548 Sm521 2.681 . S
O548 C538 1.271 . S
O549 Sm521 2.464 . S
O549 C538 1.251 . S
O550 Sm521 2.396 . S
O550 C539 1.252 1_455 S
O551 Sm520 2.408 . S
O551 C539 1.272 . S
H552 C524 0.930 . S
H553 C525 0.929 . S
H554 C527 0.930 . S
H555 C528 0.929 . S
H556 C533 0.930 . S
H557 C534 0.929 . S
H558 C536 0.930 . S
H559 C537 0.929 1_554 S
Sm560 C562 2.846 . S
Sm560 O580 2.543 . S
Sm560 O581 2.450 . S
Sm560 O582 2.681 . S
Sm560 O583 2.464 . S
Sm560 O584 2.396 . S
Sm560 O588 2.386 . S
Sm560 O591 2.408 . S
Sm561 C571 2.846 . S
Sm561 O582 2.386 . S
Sm561 O585 2.408 . S
Sm561 O586 2.543 . S
Sm561 O587 2.450 . S
Sm561 O588 2.681 . S
Sm561 O589 2.464 . S
Sm561 O590 2.396 . S
C562 Sm560 2.846 . S
C562 C563 1.506 . S
C562 O580 1.261 . S
C562 O581 1.242 . S
C563 C562 1.506 . S
C563 C564 1.358 . S
C563 C568 1.382 . S
C564 C563 1.358 . S
C564 C565 1.385 . S
C564 H592 0.930 . S
C565 C564 1.385 . S
C565 C566 1.395 . S
C565 H593 0.929 . S
C566 C565 1.395 . S
C566 C567 1.335 . S
C567 C566 1.335 . S
C567 C568 1.398 . S
C567 H594 0.930 . S
C568 C563 1.382 . S
C568 C567 1.398 . S
C568 H595 0.929 . S
C569 O582 1.271 . S
C569 O583 1.251 . S
C570 O584 1.252 . S
C570 O585 1.272 . S
C571 Sm561 2.846 . S
C571 C572 1.506 . S
C571 O586 1.261 . S
C571 O587 1.242 . S
C572 C571 1.506 . S
C572 C573 1.358 . S
C572 C577 1.382 . S
C573 C572 1.358 . S
C573 C574 1.385 . S
C573 H596 0.930 . S
C574 C573 1.385 . S
C574 C575 1.395 . S
C574 H597 0.929 . S
C575 C574 1.395 . S
C575 C576 1.335 . S
C576 C575 1.335 . S
C576 C577 1.398 . S
C576 H598 0.930 . S
C577 C572 1.382 . S
C577 C576 1.398 . S
C577 H599 0.929 . S
C578 O588 1.271 . S
C578 O589 1.251 . S
C579 O590 1.252 . S
C579 O591 1.272 . S
O580 Sm560 2.543 . S
O580 C562 1.261 . S
O581 Sm560 2.450 . S
O581 C562 1.242 . S
O582 Sm560 2.681 . S
O582 Sm561 2.386 . S
O582 C569 1.271 . S
O583 Sm560 2.464 . S
O583 C569 1.251 . S
O584 Sm560 2.396 . S
O584 C570 1.252 . S
O585 Sm561 2.408 . S
O585 C570 1.272 . S
O586 Sm561 2.543 . S
O586 C571 1.261 . S
O587 Sm561 2.450 . S
O587 C571 1.242 . S
O588 Sm560 2.386 . S
O588 Sm561 2.681 . S
O588 C578 1.271 . S
O589 Sm561 2.464 . S
O589 C578 1.251 . S
O590 Sm561 2.396 . S
O590 C579 1.252 . S
O591 Sm560 2.408 . S
O591 C579 1.272 . S
H592 C564 0.930 . S
H593 C565 0.929 . S
H594 C567 0.930 . S
H595 C568 0.929 . S
H596 C573 0.930 . S
H597 C574 0.929 . S
H598 C576 0.930 . S
H599 C577 0.929 . S
Sm600 C602 2.846 . S
Sm600 O620 2.543 . S
Sm600 O621 2.450 . S
Sm600 O622 2.681 1_655 S
Sm600 O623 2.464 . S
Sm600 O624 2.396 1_655 S
Sm600 O628 2.386 1_655 S
Sm600 O631 2.408 . S
Sm601 C611 2.846 . S
Sm601 O622 2.386 . S
Sm601 O625 2.408 . S
Sm601 O626 2.543 . S
Sm601 O627 2.450 . S
Sm601 O628 2.681 . S
Sm601 O629 2.464 . S
Sm601 O630 2.396 . S
C602 Sm600 2.846 . S
C602 C603 1.506 . S
C602 O620 1.261 . S
C602 O621 1.242 . S
C603 C602 1.506 . S
C603 C604 1.358 1_556 S
C603 C608 1.382 1_556 S
C604 C603 1.358 1_554 S
C604 C605 1.385 . S
C604 H632 0.930 . S
C605 C604 1.385 . S
C605 C606 1.395 . S
C605 H633 0.929 . S
C606 C605 1.395 . S
C606 C607 1.335 . S
C607 C606 1.335 . S
C607 C608 1.398 . S
C607 H634 0.930 . S
C608 C603 1.382 1_554 S
C608 C607 1.398 . S
C608 H635 0.929 1_554 S
C609 O622 1.271 . S
C609 O623 1.251 1_455 S
C610 O624 1.252 . S
C610 O625 1.272 . S
C611 Sm601 2.846 . S
C611 C612 1.506 . S
C611 O626 1.261 . S
C611 O627 1.242 . S
C612 C611 1.506 . S
C612 C613 1.358 . S
C612 C617 1.382 . S
C613 C612 1.358 . S
C613 C614 1.385 . S
C613 H636 0.930 . S
C614 C613 1.385 . S
C614 C615 1.395 . S
C614 H637 0.929 . S
C615 C614 1.395 . S
C615 C616 1.335 . S
C616 C615 1.335 . S
C616 C617 1.398 . S
C616 H638 0.930 . S
C617 C612 1.382 . S
C617 C616 1.398 . S
C617 H639 0.929 . S
C618 O628 1.271 . S
C618 O629 1.251 . S
C619 O630 1.252 1_655 S
C619 O631 1.272 . S
O620 Sm600 2.543 . S
O620 C602 1.261 . S
O621 Sm600 2.450 . S
O621 C602 1.242 . S
O622 Sm600 2.681 1_455 S
O622 Sm601 2.386 . S
O622 C609 1.271 . S
O623 Sm600 2.464 . S
O623 C609 1.251 1_655 S
O624 Sm600 2.396 1_455 S
O624 C610 1.252 . S
O625 Sm601 2.408 . S
O625 C610 1.272 . S
O626 Sm601 2.543 . S
O626 C611 1.261 . S
O627 Sm601 2.450 . S
O627 C611 1.242 . S
O628 Sm600 2.386 1_455 S
O628 Sm601 2.681 . S
O628 C618 1.271 . S
O629 Sm601 2.464 . S
O629 C618 1.251 . S
O630 Sm601 2.396 . S
O630 C619 1.252 1_455 S
O631 Sm600 2.408 . S
O631 C619 1.272 . S
H632 C604 0.930 . S
H633 C605 0.929 . S
H634 C607 0.930 . S
H635 C608 0.929 1_556 S
H636 C613 0.930 . S
H637 C614 0.929 . S
H638 C616 0.930 . S
H639 C617 0.929 . S
H640 C658 0.951 . S
H641 C660 0.951 . S
H642 C662 0.950 . S
H643 C663 0.950 . S
H644 C665 0.950 . S
H645 C668 0.950 . S
H646 C669 0.950 . S
H647 C671 0.950 . S
H648 C672 0.950 . S
H649 C673 0.951 . S
H650 C675 0.951 . S
H651 C677 0.950 . S
H652 C678 0.950 . S
H653 C680 0.950 . S
H654 C683 0.950 . S
H655 C684 0.950 . S
H656 C686 0.950 . S
H657 C687 0.950 . S
C658 H640 0.951 . S
C658 C659 1.366 . S
C658 C660 1.388 . S
C659 C658 1.366 . S
C659 C663 1.385 . S
C660 H641 0.951 . S
C660 C658 1.388 . S
C660 C661 1.366 . S
C661 C660 1.366 . S
C661 C662 1.414 . S
C661 C664 1.499 . S
C662 H642 0.950 . S
C662 C661 1.414 . S
C662 C663 1.374 . S
C663 H643 0.950 . S
C663 C659 1.385 . S
C663 C662 1.374 . S
C664 C661 1.499 . S
C664 C665 1.373 . S
C664 C666 1.389 . S
C665 H644 0.950 . S
C665 C664 1.373 . S
C665 C681 1.377 . S
C666 C664 1.389 . S
C666 C667 1.524 . S
C666 C680 1.377 . S
C667 C666 1.524 . S
C667 C668 1.397 . S
C667 C672 1.363 . S
C668 H645 0.950 . S
C668 C667 1.397 . S
C668 C669 1.334 . S
C669 H646 0.950 . S
C669 C668 1.334 . S
C669 C670 1.287 . S
C670 C669 1.287 . S
C670 C671 1.524 . S
C670 H689 0.913 . S
C671 H647 0.950 . S
C671 C670 1.524 . S
C671 C672 1.415 . S
C672 H648 0.950 . S
C672 C667 1.363 . S
C672 C671 1.415 . S
C673 H649 0.951 . S
C673 C674 1.366 . S
C673 C675 1.388 . S
C674 C673 1.366 . S
C674 C678 1.385 . S
C675 H650 0.951 . S
C675 C673 1.388 . S
C675 C676 1.366 . S
C676 C675 1.366 . S
C676 C677 1.414 . S
C676 C679 1.499 . S
C677 H651 0.950 . S
C677 C676 1.414 . S
C677 C678 1.374 . S
C678 H652 0.950 . S
C678 C674 1.385 . S
C678 C677 1.374 . S
C679 C676 1.499 . S
C679 C680 1.373 . S
C679 C681 1.389 . S
C680 H653 0.950 . S
C680 C666 1.377 . S
C680 C679 1.373 . S
C681 C665 1.377 . S
C681 C679 1.389 . S
C681 C682 1.524 . S
C682 C681 1.524 . S
C682 C683 1.397 . S
C682 C687 1.363 . S
C683 H654 0.950 . S
C683 C682 1.397 . S
C683 C684 1.334 . S
C684 H655 0.950 . S
C684 C683 1.334 . S
C684 C685 1.287 . S
C685 C684 1.287 . S
C685 C686 1.524 . S
C685 H688 0.999 . S
C686 H656 0.950 . S
C686 C685 1.524 . S
C686 C687 1.415 . S
C687 H657 0.950 . S
C687 C682 1.363 . S
C687 C686 1.415 . S
H688 C685 0.999 . S
H689 C670 0.913 . S
H690 C708 0.951 . S
H691 C710 0.951 . S
H692 C712 0.950 . S
H693 C713 0.950 . S
H694 C715 0.950 . S
H695 C718 0.950 . S
H696 C719 0.950 . S
H697 C721 0.950 . S
H698 C722 0.950 . S
H699 C723 0.951 . S
H700 C725 0.951 . S
H701 C727 0.950 . S
H702 C728 0.950 . S
H703 C730 0.950 . S
H704 C733 0.950 . S
H705 C734 0.950 . S
H706 C736 0.950 . S
H707 C737 0.950 . S
C708 H690 0.951 . S
C708 C709 1.366 . S
C708 C710 1.388 . S
C709 C708 1.366 . S
C709 C713 1.385 . S
C710 H691 0.951 . S
C710 C708 1.388 . S
C710 C711 1.366 . S
C711 C710 1.366 . S
C711 C712 1.414 . S
C711 C714 1.499 . S
C712 H692 0.950 . S
C712 C711 1.414 . S
C712 C713 1.374 . S
C713 H693 0.950 . S
C713 C709 1.385 . S
C713 C712 1.374 . S
C714 C711 1.499 . S
C714 C715 1.373 . S
C714 C716 1.389 . S
C715 H694 0.950 . S
C715 C714 1.373 . S
C715 C731 1.377 . S
C716 C714 1.389 . S
C716 C717 1.524 . S
C716 C730 1.377 . S
C717 C716 1.524 . S
C717 C718 1.397 . S
C717 C722 1.363 . S
C718 H695 0.950 . S
C718 C717 1.397 . S
C718 C719 1.334 . S
C719 H696 0.950 . S
C719 C718 1.334 . S
C719 C720 1.287 . S
C720 C719 1.287 . S
C720 C721 1.524 . S
C720 H739 0.913 . S
C721 H697 0.950 . S
C721 C720 1.524 . S
C721 C722 1.415 . S
C722 H698 0.950 . S
C722 C717 1.363 . S
C722 C721 1.415 . S
C723 H699 0.951 . S
C723 C724 1.366 . S
C723 C725 1.388 . S
C724 C723 1.366 . S
C724 C728 1.385 . S
C725 H700 0.951 . S
C725 C723 1.388 . S
C725 C726 1.366 . S
C726 C725 1.366 . S
C726 C727 1.414 . S
C726 C729 1.499 . S
C727 H701 0.950 . S
C727 C726 1.414 . S
C727 C728 1.374 . S
C728 H702 0.950 . S
C728 C724 1.385 . S
C728 C727 1.374 . S
C729 C726 1.499 . S
C729 C730 1.373 . S
C729 C731 1.389 . S
C730 H703 0.950 . S
C730 C716 1.377 . S
C730 C729 1.373 . S
C731 C715 1.377 . S
C731 C729 1.389 . S
C731 C732 1.524 . S
C732 C731 1.524 . S
C732 C733 1.397 . S
C732 C737 1.363 . S
C733 H704 0.950 . S
C733 C732 1.397 . S
C733 C734 1.334 . S
C734 H705 0.950 . S
C734 C733 1.334 . S
C734 C735 1.287 . S
C735 C734 1.287 . S
C735 C736 1.524 . S
C735 H738 0.999 . S
C736 H706 0.950 . S
C736 C735 1.524 . S
C736 C737 1.415 . S
C737 H707 0.950 . S
C737 C732 1.363 . S
C737 C736 1.415 . S
H738 C735 0.999 . S
H739 C720 0.913 . S
H740 C758 0.951 . S
H741 C760 0.951 . S
H742 C762 0.950 . S
H743 C763 0.950 . S
H744 C765 0.950 . S
H745 C768 0.950 . S
H746 C769 0.950 . S
H747 C771 0.950 . S
H748 C772 0.950 . S
H749 C773 0.951 . S
H750 C775 0.951 . S
H751 C777 0.950 . S
H752 C778 0.950 . S
H753 C780 0.950 . S
H754 C783 0.950 . S
H755 C784 0.950 . S
H756 C786 0.950 . S
H757 C787 0.950 . S
C758 H740 0.951 . S
C758 C759 1.366 . S
C758 C760 1.388 . S
C759 C758 1.366 . S
C759 C763 1.385 . S
C760 H741 0.951 . S
C760 C758 1.388 . S
C760 C761 1.366 . S
C761 C760 1.366 . S
C761 C762 1.414 . S
C761 C764 1.499 . S
C762 H742 0.950 . S
C762 C761 1.414 . S
C762 C763 1.374 . S
C763 H743 0.950 . S
C763 C759 1.385 . S
C763 C762 1.374 . S
C764 C761 1.499 . S
C764 C765 1.373 . S
C764 C766 1.389 . S
C765 H744 0.950 . S
C765 C764 1.373 . S
C765 C781 1.377 . S
C766 C764 1.389 . S
C766 C767 1.524 . S
C766 C780 1.377 . S
C767 C766 1.524 . S
C767 C768 1.397 . S
C767 C772 1.363 . S
C768 H745 0.950 . S
C768 C767 1.397 . S
C768 C769 1.334 . S
C769 H746 0.950 . S
C769 C768 1.334 . S
C769 C770 1.287 . S
C770 C769 1.287 . S
C770 C771 1.524 . S
C770 H789 0.913 . S
C771 H747 0.950 . S
C771 C770 1.524 . S
C771 C772 1.415 . S
C772 H748 0.950 . S
C772 C767 1.363 . S
C772 C771 1.415 . S
C773 H749 0.951 . S
C773 C774 1.366 . S
C773 C775 1.388 . S
C774 C773 1.366 . S
C774 C778 1.385 . S
C775 H750 0.951 . S
C775 C773 1.388 . S
C775 C776 1.366 . S
C776 C775 1.366 . S
C776 C777 1.414 . S
C776 C779 1.499 . S
C777 H751 0.950 . S
C777 C776 1.414 . S
C777 C778 1.374 . S
C778 H752 0.950 . S
C778 C774 1.385 . S
C778 C777 1.374 . S
C779 C776 1.499 . S
C779 C780 1.373 . S
C779 C781 1.389 . S
C780 H753 0.950 . S
C780 C766 1.377 . S
C780 C779 1.373 . S
C781 C765 1.377 . S
C781 C779 1.389 . S
C781 C782 1.524 . S
C782 C781 1.524 . S
C782 C783 1.397 . S
C782 C787 1.363 . S
C783 H754 0.950 . S
C783 C782 1.397 . S
C783 C784 1.334 . S
C784 H755 0.950 . S
C784 C783 1.334 . S
C784 C785 1.287 . S
C785 C784 1.287 . S
C785 C786 1.524 . S
C785 H788 0.999 . S
C786 H756 0.950 . S
C786 C785 1.524 . S
C786 C787 1.415 . S
C787 H757 0.950 . S
C787 C782 1.363 . S
C787 C786 1.415 . S
H788 C785 0.999 . S
H789 C770 0.913 . S
H790 C808 0.951 . S
H791 C810 0.951 . S
H792 C812 0.950 . S
H793 C813 0.950 . S
H794 C815 0.950 . S
H795 C818 0.950 . S
H796 C819 0.950 . S
H797 C821 0.950 . S
H798 C822 0.950 . S
H799 C823 0.951 . S
H800 C825 0.951 . S
H801 C827 0.950 . S
H802 C828 0.950 . S
H803 C830 0.950 . S
H804 C833 0.950 . S
H805 C834 0.950 . S
H806 C836 0.950 . S
H807 C837 0.950 . S
C808 H790 0.951 . S
C808 C809 1.366 . S
C808 C810 1.388 . S
C809 C808 1.366 . S
C809 C813 1.385 . S
C810 H791 0.951 . S
C810 C808 1.388 . S
C810 C811 1.366 . S
C811 C810 1.366 . S
C811 C812 1.414 . S
C811 C814 1.499 . S
C812 H792 0.950 . S
C812 C811 1.414 . S
C812 C813 1.374 . S
C813 H793 0.950 . S
C813 C809 1.385 . S
C813 C812 1.374 . S
C814 C811 1.499 . S
C814 C815 1.373 . S
C814 C816 1.389 . S
C815 H794 0.950 . S
C815 C814 1.373 . S
C815 C831 1.377 . S
C816 C814 1.389 . S
C816 C817 1.524 . S
C816 C830 1.377 . S
C817 C816 1.524 . S
C817 C818 1.397 . S
C817 C822 1.363 . S
C818 H795 0.950 . S
C818 C817 1.397 . S
C818 C819 1.334 . S
C819 H796 0.950 . S
C819 C818 1.334 . S
C819 C820 1.287 . S
C820 C819 1.287 . S
C820 C821 1.524 . S
C820 H839 0.913 . S
C821 H797 0.950 . S
C821 C820 1.524 . S
C821 C822 1.415 . S
C822 H798 0.950 . S
C822 C817 1.363 . S
C822 C821 1.415 . S
C823 H799 0.951 . S
C823 C824 1.366 . S
C823 C825 1.388 . S
C824 C823 1.366 . S
C824 C828 1.385 . S
C825 H800 0.951 . S
C825 C823 1.388 . S
C825 C826 1.366 . S
C826 C825 1.366 . S
C826 C827 1.414 . S
C826 C829 1.499 . S
C827 H801 0.950 . S
C827 C826 1.414 . S
C827 C828 1.374 . S
C828 H802 0.950 . S
C828 C824 1.385 . S
C828 C827 1.374 . S
C829 C826 1.499 . S
C829 C830 1.373 . S
C829 C831 1.389 . S
C830 H803 0.950 . S
C830 C816 1.377 . S
C830 C829 1.373 . S
C831 C815 1.377 . S
C831 C829 1.389 . S
C831 C832 1.524 . S
C832 C831 1.524 . S
C832 C833 1.397 . S
C832 C837 1.363 . S
C833 H804 0.950 . S
C833 C832 1.397 . S
C833 C834 1.334 . S
C834 H805 0.950 . S
C834 C833 1.334 . S
C834 C835 1.287 . S
C835 C834 1.287 . S
C835 C836 1.524 . S
C835 H838 0.999 . S
C836 H806 0.950 . S
C836 C835 1.524 . S
C836 C837 1.415 . S
C837 H807 0.950 . S
C837 C832 1.363 . S
C837 C836 1.415 . S
H838 C835 0.999 . S
H839 C820 0.913 . S
H840 C858 0.951 . S
H841 C860 0.951 . S
H842 C862 0.950 . S
H843 C863 0.950 . S
H844 C865 0.950 . S
H845 C868 0.950 . S
H846 C869 0.950 . S
H847 C871 0.950 . S
H848 C872 0.950 . S
H849 C873 0.951 . S
H850 C875 0.951 . S
H851 C877 0.950 1_554 S
H852 C878 0.950 . S
H853 C880 0.950 . S
H854 C883 0.950 1_655 S
H855 C884 0.950 . S
H856 C886 0.950 . S
H857 C887 0.950 . S
C858 H840 0.951 . S
C858 C859 1.366 . S
C858 C860 1.388 . S
C859 C858 1.366 . S
C859 C863 1.385 . S
C860 H841 0.951 . S
C860 C858 1.388 . S
C860 C861 1.366 . S
C861 C860 1.366 . S
C861 C862 1.414 . S
C861 C864 1.499 . S
C862 H842 0.950 . S
C862 C861 1.414 . S
C862 C863 1.374 . S
C863 H843 0.950 . S
C863 C859 1.385 . S
C863 C862 1.374 . S
C864 C861 1.499 . S
C864 C865 1.373 . S
C864 C866 1.389 . S
C865 H844 0.950 . S
C865 C864 1.373 . S
C865 C881 1.377 . S
C866 C864 1.389 . S
C866 C867 1.524 . S
C866 C880 1.377 . S
C867 C866 1.524 . S
C867 C868 1.397 . S
C867 C872 1.363 . S
C868 H845 0.950 . S
C868 C867 1.397 . S
C868 C869 1.334 . S
C869 H846 0.950 . S
C869 C868 1.334 . S
C869 C870 1.287 . S
C870 C869 1.287 . S
C870 C871 1.524 . S
C870 H889 0.913 . S
C871 H847 0.950 . S
C871 C870 1.524 . S
C871 C872 1.415 . S
C872 H848 0.950 . S
C872 C867 1.363 . S
C872 C871 1.415 . S
C873 H849 0.951 . S
C873 C874 1.366 . S
C873 C875 1.388 . S
C874 C873 1.366 . S
C874 C878 1.385 . S
C875 H850 0.951 . S
C875 C873 1.388 . S
C875 C876 1.366 1_556 S
C876 C875 1.366 1_554 S
C876 C877 1.414 1_554 S
C876 C879 1.499 . S
C877 H851 0.950 1_556 S
C877 C876 1.414 1_556 S
C877 C878 1.374 . S
C878 H852 0.950 . S
C878 C874 1.385 . S
C878 C877 1.374 . S
C879 C876 1.499 . S
C879 C880 1.373 . S
C879 C881 1.389 . S
C880 H853 0.950 . S
C880 C866 1.377 . S
C880 C879 1.373 . S
C881 C865 1.377 . S
C881 C879 1.389 . S
C881 C882 1.524 . S
C882 C881 1.524 . S
C882 C883 1.397 1_655 S
C882 C887 1.363 . S
C883 H854 0.950 1_455 S
C883 C882 1.397 1_455 S
C883 C884 1.334 . S
C884 H855 0.950 . S
C884 C883 1.334 . S
C884 C885 1.287 . S
C885 C884 1.287 . S
C885 C886 1.524 . S
C885 H888 0.999 . S
C886 H856 0.950 . S
C886 C885 1.524 . S
C886 C887 1.415 1_455 S
C887 H857 0.950 . S
C887 C882 1.363 . S
C887 C886 1.415 1_655 S
H888 C885 0.999 . S
H889 C870 0.913 . S
H890 C908 0.951 . S
H891 C910 0.951 . S
H892 C912 0.950 . S
H893 C913 0.950 . S
H894 C915 0.950 . S
H895 C918 0.950 . S
H896 C919 0.950 . S
H897 C921 0.950 . S
H898 C922 0.950 . S
H899 C923 0.951 . S
H900 C925 0.951 . S
H901 C927 0.950 . S
H902 C928 0.950 . S
H903 C930 0.950 . S
H904 C933 0.950 . S
H905 C934 0.950 . S
H906 C936 0.950 . S
H907 C937 0.950 . S
C908 H890 0.951 . S
C908 C909 1.366 . S
C908 C910 1.388 . S
C909 C908 1.366 . S
C909 C913 1.385 . S
C910 H891 0.951 . S
C910 C908 1.388 . S
C910 C911 1.366 . S
C911 C910 1.366 . S
C911 C912 1.414 . S
C911 C914 1.499 . S
C912 H892 0.950 . S
C912 C911 1.414 . S
C912 C913 1.374 . S
C913 H893 0.950 . S
C913 C909 1.385 . S
C913 C912 1.374 . S
C914 C911 1.499 . S
C914 C915 1.373 . S
C914 C916 1.389 . S
C915 H894 0.950 . S
C915 C914 1.373 . S
C915 C931 1.377 . S
C916 C914 1.389 . S
C916 C917 1.524 . S
C916 C930 1.377 . S
C917 C916 1.524 . S
C917 C918 1.397 . S
C917 C922 1.363 . S
C918 H895 0.950 . S
C918 C917 1.397 . S
C918 C919 1.334 . S
C919 H896 0.950 . S
C919 C918 1.334 . S
C919 C920 1.287 . S
C920 C919 1.287 . S
C920 C921 1.524 . S
C920 H939 0.913 1_655 S
C921 H897 0.950 . S
C921 C920 1.524 . S
C921 C922 1.415 . S
C922 H898 0.950 . S
C922 C917 1.363 . S
C922 C921 1.415 . S
C923 H899 0.951 . S
C923 C924 1.366 1_556 S
C923 C925 1.388 . S
C924 C923 1.366 1_554 S
C924 C928 1.385 . S
C925 H900 0.951 . S
C925 C923 1.388 . S
C925 C926 1.366 . S
C926 C925 1.366 . S
C926 C927 1.414 . S
C926 C929 1.499 . S
C927 H901 0.950 . S
C927 C926 1.414 . S
C927 C928 1.374 1_556 S
C928 H902 0.950 . S
C928 C924 1.385 . S
C928 C927 1.374 1_554 S
C929 C926 1.499 . S
C929 C930 1.373 . S
C929 C931 1.389 . S
C930 H903 0.950 . S
C930 C916 1.377 . S
C930 C929 1.373 . S
C931 C915 1.377 . S
C931 C929 1.389 . S
C931 C932 1.524 . S
C932 C931 1.524 . S
C932 C933 1.397 . S
C932 C937 1.363 . S
C933 H904 0.950 . S
C933 C932 1.397 . S
C933 C934 1.334 . S
C934 H905 0.950 . S
C934 C933 1.334 . S
C934 C935 1.287 . S
C935 C934 1.287 . S
C935 C936 1.524 . S
C935 H938 0.999 . S
C936 H906 0.950 . S
C936 C935 1.524 . S
C936 C937 1.415 . S
C937 H907 0.950 . S
C937 C932 1.363 . S
C937 C936 1.415 . S
H938 C935 0.999 . S
H939 C920 0.913 1_455 S
H940 C958 0.951 . S
H941 C960 0.951 . S
H942 C962 0.950 . S
H943 C963 0.950 . S
H944 C965 0.950 . S
H945 C968 0.950 . S
H946 C969 0.950 . S
H947 C971 0.950 . S
H948 C972 0.950 . S
H949 C973 0.951 . S
H950 C975 0.951 . S
H951 C977 0.950 . S
H952 C978 0.950 . S
H953 C980 0.950 . S
H954 C983 0.950 . S
H955 C984 0.950 . S
H956 C986 0.950 . S
H957 C987 0.950 . S
C958 H940 0.951 . S
C958 C959 1.366 . S
C958 C960 1.388 . S
C959 C958 1.366 . S
C959 C963 1.385 . S
C960 H941 0.951 . S
C960 C958 1.388 . S
C960 C961 1.366 . S
C961 C960 1.366 . S
C961 C962 1.414 . S
C961 C964 1.499 . S
C962 H942 0.950 . S
C962 C961 1.414 . S
C962 C963 1.374 . S
C963 H943 0.950 . S
C963 C959 1.385 . S
C963 C962 1.374 . S
C964 C961 1.499 . S
C964 C965 1.373 . S
C964 C966 1.389 . S
C965 H944 0.950 . S
C965 C964 1.373 . S
C965 C981 1.377 . S
C966 C964 1.389 . S
C966 C967 1.524 . S
C966 C980 1.377 . S
C967 C966 1.524 . S
C967 C968 1.397 . S
C967 C972 1.363 . S
C968 H945 0.950 . S
C968 C967 1.397 . S
C968 C969 1.334 . S
C969 H946 0.950 . S
C969 C968 1.334 . S
C969 C970 1.287 . S
C970 C969 1.287 . S
C970 C971 1.524 . S
C970 H989 0.913 . S
C971 H947 0.950 . S
C971 C970 1.524 . S
C971 C972 1.415 . S
C972 H948 0.950 . S
C972 C967 1.363 . S
C972 C971 1.415 . S
C973 H949 0.951 . S
C973 C974 1.366 . S
C973 C975 1.388 . S
C974 C973 1.366 . S
C974 C978 1.385 . S
C975 H950 0.951 . S
C975 C973 1.388 . S
C975 C976 1.366 . S
C976 C975 1.366 . S
C976 C977 1.414 . S
C976 C979 1.499 . S
C977 H951 0.950 . S
C977 C976 1.414 . S
C977 C978 1.374 . S
C978 H952 0.950 . S
C978 C974 1.385 . S
C978 C977 1.374 . S
C979 C976 1.499 . S
C979 C980 1.373 . S
C979 C981 1.389 . S
C980 H953 0.950 . S
C980 C966 1.377 . S
C980 C979 1.373 . S
C981 C965 1.377 . S
C981 C979 1.389 . S
C981 C982 1.524 . S
C982 C981 1.524 . S
C982 C983 1.397 . S
C982 C987 1.363 . S
C983 H954 0.950 . S
C983 C982 1.397 . S
C983 C984 1.334 . S
C984 H955 0.950 . S
C984 C983 1.334 . S
C984 C985 1.287 . S
C985 C984 1.287 . S
C985 C986 1.524 . S
C985 H988 0.999 . S
C986 H956 0.950 . S
C986 C985 1.524 . S
C986 C987 1.415 . S
C987 H957 0.950 . S
C987 C982 1.363 . S
C987 C986 1.415 . S
H988 C985 0.999 . S
H989 C970 0.913 . S
H990 C1008 0.951 . S
H991 C1010 0.951 . S
H992 C1012 0.950 . S
H993 C1013 0.950 . S
H994 C1015 0.950 . S
H995 C1018 0.950 . S
H996 C1019 0.950 . S
H997 C1021 0.950 . S
H998 C1022 0.950 . S
H999 C1023 0.951 . S
H1000 C1025 0.951 . S
H1001 C1027 0.950 . S
H1002 C1028 0.950 . S
H1003 C1030 0.950 . S
H1004 C1033 0.950 . S
H1005 C1034 0.950 . S
H1006 C1036 0.950 . S
H1007 C1037 0.950 . S
C1008 H990 0.951 . S
C1008 C1009 1.366 . S
C1008 C1010 1.388 . S
C1009 C1008 1.366 . S
C1009 C1013 1.385 . S
C1010 H991 0.951 . S
C1010 C1008 1.388 . S
C1010 C1011 1.366 . S
C1011 C1010 1.366 . S
C1011 C1012 1.414 . S
C1011 C1014 1.499 . S
C1012 H992 0.950 . S
C1012 C1011 1.414 . S
C1012 C1013 1.374 . S
C1013 H993 0.950 . S
C1013 C1009 1.385 . S
C1013 C1012 1.374 . S
C1014 C1011 1.499 . S
C1014 C1015 1.373 . S
C1014 C1016 1.389 . S
C1015 H994 0.950 . S
C1015 C1014 1.373 . S
C1015 C1031 1.377 . S
C1016 C1014 1.389 . S
C1016 C1017 1.524 . S
C1016 C1030 1.377 . S
C1017 C1016 1.524 . S
C1017 C1018 1.397 . S
C1017 C1022 1.363 . S
C1018 H995 0.950 . S
C1018 C1017 1.397 . S
C1018 C1019 1.334 . S
C1019 H996 0.950 . S
C1019 C1018 1.334 . S
C1019 C1020 1.287 . S
C1020 C1019 1.287 . S
C1020 C1021 1.524 . S
C1020 H1039 0.913 . S
C1021 H997 0.950 . S
C1021 C1020 1.524 . S
C1021 C1022 1.415 . S
C1022 H998 0.950 . S
C1022 C1017 1.363 . S
C1022 C1021 1.415 . S
C1023 H999 0.951 . S
C1023 C1024 1.366 . S
C1023 C1025 1.388 . S
C1024 C1023 1.366 . S
C1024 C1028 1.385 . S
C1025 H1000 0.951 . S
C1025 C1023 1.388 . S
C1025 C1026 1.366 . S
C1026 C1025 1.366 . S
C1026 C1027 1.414 . S
C1026 C1029 1.499 . S
C1027 H1001 0.950 . S
C1027 C1026 1.414 . S
C1027 C1028 1.374 . S
C1028 H1002 0.950 . S
C1028 C1024 1.385 . S
C1028 C1027 1.374 . S
C1029 C1026 1.499 . S
C1029 C1030 1.373 . S
C1029 C1031 1.389 . S
C1030 H1003 0.950 . S
C1030 C1016 1.377 . S
C1030 C1029 1.373 . S
C1031 C1015 1.377 . S
C1031 C1029 1.389 . S
C1031 C1032 1.524 . S
C1032 C1031 1.524 . S
C1032 C1033 1.397 . S
C1032 C1037 1.363 . S
C1033 H1004 0.950 . S
C1033 C1032 1.397 . S
C1033 C1034 1.334 . S
C1034 H1005 0.950 . S
C1034 C1033 1.334 . S
C1034 C1035 1.287 . S
C1035 C1034 1.287 . S
C1035 C1036 1.524 . S
C1035 H1038 0.999 . S
C1036 H1006 0.950 . S
C1036 C1035 1.524 . S
C1036 C1037 1.415 . S
C1037 H1007 0.950 . S
C1037 C1032 1.363 . S
C1037 C1036 1.415 . S
H1038 C1035 0.999 . S
H1039 C1020 0.913 . S
H1040 C1058 0.951 . S
H1041 C1060 0.951 . S
H1042 C1062 0.950 . S
H1043 C1063 0.950 . S
H1044 C1065 0.950 . S
H1045 C1068 0.950 . S
H1046 C1069 0.950 . S
H1047 C1071 0.950 . S
H1048 C1072 0.950 . S
H1049 C1073 0.951 . S
H1050 C1075 0.951 . S
H1051 C1077 0.950 . S
H1052 C1078 0.950 . S
H1053 C1080 0.950 . S
H1054 C1083 0.950 . S
H1055 C1084 0.950 . S
H1056 C1086 0.950 . S
H1057 C1087 0.950 . S
C1058 H1040 0.951 . S
C1058 C1059 1.366 . S
C1058 C1060 1.388 . S
C1059 C1058 1.366 . S
C1059 C1063 1.385 . S
C1060 H1041 0.951 . S
C1060 C1058 1.388 . S
C1060 C1061 1.366 . S
C1061 C1060 1.366 . S
C1061 C1062 1.414 . S
C1061 C1064 1.499 . S
C1062 H1042 0.950 . S
C1062 C1061 1.414 . S
C1062 C1063 1.374 . S
C1063 H1043 0.950 . S
C1063 C1059 1.385 . S
C1063 C1062 1.374 . S
C1064 C1061 1.499 . S
C1064 C1065 1.373 . S
C1064 C1066 1.389 . S
C1065 H1044 0.950 . S
C1065 C1064 1.373 . S
C1065 C1081 1.377 . S
C1066 C1064 1.389 . S
C1066 C1067 1.524 . S
C1066 C1080 1.377 . S
C1067 C1066 1.524 . S
C1067 C1068 1.397 . S
C1067 C1072 1.363 . S
C1068 H1045 0.950 . S
C1068 C1067 1.397 . S
C1068 C1069 1.334 . S
C1069 H1046 0.950 . S
C1069 C1068 1.334 . S
C1069 C1070 1.287 . S
C1070 C1069 1.287 . S
C1070 C1071 1.524 . S
C1070 H1089 0.913 . S
C1071 H1047 0.950 . S
C1071 C1070 1.524 . S
C1071 C1072 1.415 . S
C1072 H1048 0.950 . S
C1072 C1067 1.363 . S
C1072 C1071 1.415 . S
C1073 H1049 0.951 . S
C1073 C1074 1.366 . S
C1073 C1075 1.388 . S
C1074 C1073 1.366 . S
C1074 C1078 1.385 . S
C1075 H1050 0.951 . S
C1075 C1073 1.388 . S
C1075 C1076 1.366 . S
C1076 C1075 1.366 . S
C1076 C1077 1.414 . S
C1076 C1079 1.499 . S
C1077 H1051 0.950 . S
C1077 C1076 1.414 . S
C1077 C1078 1.374 . S
C1078 H1052 0.950 . S
C1078 C1074 1.385 . S
C1078 C1077 1.374 . S
C1079 C1076 1.499 . S
C1079 C1080 1.373 . S
C1079 C1081 1.389 . S
C1080 H1053 0.950 . S
C1080 C1066 1.377 . S
C1080 C1079 1.373 . S
C1081 C1065 1.377 . S
C1081 C1079 1.389 . S
C1081 C1082 1.524 . S
C1082 C1081 1.524 . S
C1082 C1083 1.397 . S
C1082 C1087 1.363 . S
C1083 H1054 0.950 . S
C1083 C1082 1.397 . S
C1083 C1084 1.334 . S
C1084 H1055 0.950 . S
C1084 C1083 1.334 . S
C1084 C1085 1.287 . S
C1085 C1084 1.287 . S
C1085 C1086 1.524 . S
C1085 H1088 0.999 . S
C1086 H1056 0.950 . S
C1086 C1085 1.524 . S
C1086 C1087 1.415 . S
C1087 H1057 0.950 . S
C1087 C1082 1.363 . S
C1087 C1086 1.415 . S
H1088 C1085 0.999 . S
H1089 C1070 0.913 . S
H1090 C1108 0.951 . S
H1091 C1110 0.951 . S
H1092 C1112 0.950 . S
H1093 C1113 0.950 . S
H1094 C1115 0.950 . S
H1095 C1118 0.950 . S
H1096 C1119 0.950 . S
H1097 C1121 0.950 . S
H1098 C1122 0.950 . S
H1099 C1123 0.951 . S
H1100 C1125 0.951 . S
H1101 C1127 0.950 . S
H1102 C1128 0.950 . S
H1103 C1130 0.950 . S
H1104 C1133 0.950 . S
H1105 C1134 0.950 . S
H1106 C1136 0.950 . S
H1107 C1137 0.950 . S
C1108 H1090 0.951 . S
C1108 C1109 1.366 . S
C1108 C1110 1.388 . S
C1109 C1108 1.366 . S
C1109 C1113 1.385 . S
C1110 H1091 0.951 . S
C1110 C1108 1.388 . S
C1110 C1111 1.366 . S
C1111 C1110 1.366 . S
C1111 C1112 1.414 . S
C1111 C1114 1.499 . S
C1112 H1092 0.950 . S
C1112 C1111 1.414 . S
C1112 C1113 1.374 . S
C1113 H1093 0.950 . S
C1113 C1109 1.385 . S
C1113 C1112 1.374 . S
C1114 C1111 1.499 . S
C1114 C1115 1.373 . S
C1114 C1116 1.389 . S
C1115 H1094 0.950 . S
C1115 C1114 1.373 . S
C1115 C1131 1.377 . S
C1116 C1114 1.389 . S
C1116 C1117 1.524 . S
C1116 C1130 1.377 . S
C1117 C1116 1.524 . S
C1117 C1118 1.397 . S
C1117 C1122 1.363 . S
C1118 H1095 0.950 . S
C1118 C1117 1.397 . S
C1118 C1119 1.334 . S
C1119 H1096 0.950 . S
C1119 C1118 1.334 . S
C1119 C1120 1.287 . S
C1120 C1119 1.287 . S
C1120 C1121 1.524 . S
C1120 H1139 0.913 . S
C1121 H1097 0.950 . S
C1121 C1120 1.524 . S
C1121 C1122 1.415 . S
C1122 H1098 0.950 . S
C1122 C1117 1.363 . S
C1122 C1121 1.415 . S
C1123 H1099 0.951 . S
C1123 C1124 1.366 . S
C1123 C1125 1.388 . S
C1124 C1123 1.366 . S
C1124 C1128 1.385 . S
C1125 H1100 0.951 . S
C1125 C1123 1.388 . S
C1125 C1126 1.366 . S
C1126 C1125 1.366 . S
C1126 C1127 1.414 . S
C1126 C1129 1.499 . S
C1127 H1101 0.950 . S
C1127 C1126 1.414 . S
C1127 C1128 1.374 . S
C1128 H1102 0.950 . S
C1128 C1124 1.385 . S
C1128 C1127 1.374 . S
C1129 C1126 1.499 . S
C1129 C1130 1.373 . S
C1129 C1131 1.389 . S
C1130 H1103 0.950 . S
C1130 C1116 1.377 . S
C1130 C1129 1.373 . S
C1131 C1115 1.377 . S
C1131 C1129 1.389 . S
C1131 C1132 1.524 . S
C1132 C1131 1.524 . S
C1132 C1133 1.397 . S
C1132 C1137 1.363 . S
C1133 H1104 0.950 . S
C1133 C1132 1.397 . S
C1133 C1134 1.334 . S
C1134 H1105 0.950 . S
C1134 C1133 1.334 . S
C1134 C1135 1.287 . S
C1135 C1134 1.287 . S
C1135 C1136 1.524 . S
C1135 H1138 0.999 . S
C1136 H1106 0.950 . S
C1136 C1135 1.524 . S
C1136 C1137 1.415 . S
C1137 H1107 0.950 . S
C1137 C1132 1.363 . S
C1137 C1136 1.415 . S
H1138 C1135 0.999 . S
H1139 C1120 0.913 . S
H1140 C1158 0.951 . S
H1141 C1160 0.951 . S
H1142 C1162 0.950 . S
H1143 C1163 0.950 . S
H1144 C1165 0.950 . S
H1145 C1168 0.952 . S
H1146 C1169 0.950 . S
H1147 C1171 0.950 . S
H1148 C1172 0.950 . S
H1149 C1173 0.951 . S
H1150 C1175 0.951 . S
H1151 C1177 0.950 . S
H1152 C1178 0.950 . S
H1153 C1180 0.950 . S
H1154 C1183 0.950 . S
H1155 C1184 0.950 . S
H1156 C1186 0.950 . S
H1157 C1187 0.950 . S
C1158 H1140 0.951 . S
C1158 C1159 1.366 . S
C1158 C1160 1.388 . S
C1159 C1158 1.366 . S
C1159 C1163 1.385 . S
C1160 H1141 0.951 . S
C1160 C1158 1.388 . S
C1160 C1161 1.366 . S
C1161 C1160 1.366 . S
C1161 C1162 1.414 . S
C1161 C1164 1.499 1_554 S
C1162 H1142 0.950 . S
C1162 C1161 1.414 . S
C1162 C1163 1.374 . S
C1163 H1143 0.950 . S
C1163 C1159 1.385 . S
C1163 C1162 1.374 . S
C1164 C1161 1.499 1_556 S
C1164 C1165 1.373 . S
C1164 C1166 1.389 . S
C1165 H1144 0.950 . S
C1165 C1164 1.373 . S
C1165 C1181 1.377 . S
C1166 C1164 1.389 . S
C1166 C1167 1.524 . S
C1166 C1180 1.377 . S
C1167 C1166 1.524 . S
C1167 C1168 1.397 1_655 S
C1167 C1172 1.363 . S
C1168 H1145 0.952 . S
C1168 C1167 1.397 1_455 S
C1168 C1169 1.334 . S
C1169 H1146 0.950 . S
C1169 C1168 1.334 . S
C1169 C1170 1.287 . S
C1170 C1169 1.287 . S
C1170 C1171 1.524 . S
C1170 H1189 0.913 . S
C1171 H1147 0.950 . S
C1171 C1170 1.524 . S
C1171 C1172 1.415 1_455 S
C1172 H1148 0.950 . S
C1172 C1167 1.363 . S
C1172 C1171 1.415 1_655 S
C1173 H1149 0.951 . S
C1173 C1174 1.366 . S
C1173 C1175 1.388 . S
C1174 C1173 1.366 . S
C1174 C1178 1.385 . S
C1175 H1150 0.951 . S
C1175 C1173 1.388 . S
C1175 C1176 1.366 . S
C1176 C1175 1.366 . S
C1176 C1177 1.414 . S
C1176 C1179 1.499 . S
C1177 H1151 0.950 . S
C1177 C1176 1.414 . S
C1177 C1178 1.374 . S
C1178 H1152 0.950 . S
C1178 C1174 1.385 . S
C1178 C1177 1.374 . S
C1179 C1176 1.499 . S
C1179 C1180 1.373 . S
C1179 C1181 1.389 . S
C1180 H1153 0.950 . S
C1180 C1166 1.377 . S
C1180 C1179 1.373 . S
C1181 C1165 1.377 . S
C1181 C1179 1.389 . S
C1181 C1182 1.524 . S
C1182 C1181 1.524 . S
C1182 C1183 1.397 . S
C1182 C1187 1.363 . S
C1183 H1154 0.950 . S
C1183 C1182 1.397 . S
C1183 C1184 1.334 . S
C1184 H1155 0.950 . S
C1184 C1183 1.334 . S
C1184 C1185 1.287 . S
C1185 C1184 1.287 . S
C1185 C1186 1.524 . S
C1185 H1188 0.999 . S
C1186 H1156 0.950 . S
C1186 C1185 1.524 . S
C1186 C1187 1.415 . S
C1187 H1157 0.950 . S
C1187 C1182 1.363 . S
C1187 C1186 1.415 . S
H1188 C1185 0.999 . S
H1189 C1170 0.913 . S
H1190 C1208 0.951 . S
H1191 C1210 0.951 . S
H1192 C1212 0.950 . S
H1193 C1213 0.950 . S
H1194 C1215 0.950 . S
H1195 C1218 0.950 . S
H1196 C1219 0.950 . S
H1197 C1221 0.950 . S
H1198 C1222 0.950 . S
H1199 C1223 0.951 . S
H1200 C1225 0.951 . S
H1201 C1227 0.950 . S
H1202 C1228 0.950 . S
H1203 C1230 0.950 . S
H1204 C1233 0.950 . S
H1205 C1234 0.950 . S
H1206 C1236 0.950 . S
H1207 C1237 0.950 . S
C1208 H1190 0.951 . S
C1208 C1209 1.366 . S
C1208 C1210 1.388 . S
C1209 C1208 1.366 . S
C1209 C1213 1.385 . S
C1210 H1191 0.951 . S
C1210 C1208 1.388 . S
C1210 C1211 1.366 . S
C1211 C1210 1.366 . S
C1211 C1212 1.414 . S
C1211 C1214 1.499 . S
C1212 H1192 0.950 . S
C1212 C1211 1.414 . S
C1212 C1213 1.374 . S
C1213 H1193 0.950 . S
C1213 C1209 1.385 . S
C1213 C1212 1.374 . S
C1214 C1211 1.499 . S
C1214 C1215 1.373 . S
C1214 C1216 1.389 . S
C1215 H1194 0.950 . S
C1215 C1214 1.373 . S
C1215 C1231 1.377 . S
C1216 C1214 1.389 . S
C1216 C1217 1.524 . S
C1216 C1230 1.377 . S
C1217 C1216 1.524 . S
C1217 C1218 1.397 . S
C1217 C1222 1.363 . S
C1218 H1195 0.950 . S
C1218 C1217 1.397 . S
C1218 C1219 1.334 . S
C1219 H1196 0.950 . S
C1219 C1218 1.334 . S
C1219 C1220 1.287 . S
C1220 C1219 1.287 . S
C1220 C1221 1.524 . S
C1220 H1239 0.913 . S
C1221 H1197 0.950 . S
C1221 C1220 1.524 . S
C1221 C1222 1.415 . S
C1222 H1198 0.950 . S
C1222 C1217 1.363 . S
C1222 C1221 1.415 . S
C1223 H1199 0.951 . S
C1223 C1224 1.366 . S
C1223 C1225 1.388 . S
C1224 C1223 1.366 . S
C1224 C1228 1.385 . S
C1225 H1200 0.951 . S
C1225 C1223 1.388 . S
C1225 C1226 1.366 . S
C1226 C1225 1.366 . S
C1226 C1227 1.414 . S
C1226 C1229 1.499 . S
C1227 H1201 0.950 . S
C1227 C1226 1.414 . S
C1227 C1228 1.374 . S
C1228 H1202 0.950 . S
C1228 C1224 1.385 . S
C1228 C1227 1.374 . S
C1229 C1226 1.499 . S
C1229 C1230 1.373 . S
C1229 C1231 1.389 . S
C1230 H1203 0.950 . S
C1230 C1216 1.377 . S
C1230 C1229 1.373 . S
C1231 C1215 1.377 . S
C1231 C1229 1.389 . S
C1231 C1232 1.524 . S
C1232 C1231 1.524 . S
C1232 C1233 1.397 . S
C1232 C1237 1.363 . S
C1233 H1204 0.950 . S
C1233 C1232 1.397 . S
C1233 C1234 1.334 . S
C1234 H1205 0.950 . S
C1234 C1233 1.334 . S
C1234 C1235 1.287 . S
C1235 C1234 1.287 . S
C1235 C1236 1.524 . S
C1235 H1238 0.999 . S
C1236 H1206 0.950 . S
C1236 C1235 1.524 . S
C1236 C1237 1.415 . S
C1237 H1207 0.950 . S
C1237 C1232 1.363 . S
C1237 C1236 1.415 . S
H1238 C1235 0.999 . S
H1239 C1220 0.913 . S
H1240 C1258 0.951 . S
H1241 C1260 0.951 . S
H1242 C1262 0.950 . S
H1243 C1263 0.950 . S
H1244 C1265 0.950 . S
H1245 C1268 0.950 . S
H1246 C1269 0.950 . S
H1247 C1271 0.950 . S
H1248 C1272 0.950 . S
H1249 C1273 0.951 . S
H1250 C1275 0.951 . S
H1251 C1277 0.950 . S
H1252 C1278 0.950 . S
H1253 C1280 0.950 . S
H1254 C1283 0.950 . S
H1255 C1284 0.950 . S
H1256 C1286 0.950 . S
H1257 C1287 0.950 . S
C1258 H1240 0.951 . S
C1258 C1259 1.366 . S
C1258 C1260 1.388 . S
C1259 C1258 1.366 . S
C1259 C1263 1.385 . S
C1260 H1241 0.951 . S
C1260 C1258 1.388 . S
C1260 C1261 1.366 . S
C1261 C1260 1.366 . S
C1261 C1262 1.414 . S
C1261 C1264 1.499 . S
C1262 H1242 0.950 . S
C1262 C1261 1.414 . S
C1262 C1263 1.374 . S
C1263 H1243 0.950 . S
C1263 C1259 1.385 . S
C1263 C1262 1.374 . S
C1264 C1261 1.499 . S
C1264 C1265 1.373 . S
C1264 C1266 1.389 . S
C1265 H1244 0.950 . S
C1265 C1264 1.373 . S
C1265 C1281 1.377 . S
C1266 C1264 1.389 . S
C1266 C1267 1.524 . S
C1266 C1280 1.377 . S
C1267 C1266 1.524 . S
C1267 C1268 1.397 . S
C1267 C1272 1.363 . S
C1268 H1245 0.950 . S
C1268 C1267 1.397 . S
C1268 C1269 1.334 . S
C1269 H1246 0.950 . S
C1269 C1268 1.334 . S
C1269 C1270 1.287 . S
C1270 C1269 1.287 . S
C1270 C1271 1.524 . S
C1270 H1289 0.913 . S
C1271 H1247 0.950 . S
C1271 C1270 1.524 . S
C1271 C1272 1.415 . S
C1272 H1248 0.950 . S
C1272 C1267 1.363 . S
C1272 C1271 1.415 . S
C1273 H1249 0.951 . S
C1273 C1274 1.366 . S
C1273 C1275 1.388 . S
C1274 C1273 1.366 . S
C1274 C1278 1.385 . S
C1275 H1250 0.951 . S
C1275 C1273 1.388 . S
C1275 C1276 1.366 . S
C1276 C1275 1.366 . S
C1276 C1277 1.414 . S
C1276 C1279 1.499 . S
C1277 H1251 0.950 . S
C1277 C1276 1.414 . S
C1277 C1278 1.374 . S
C1278 H1252 0.950 . S
C1278 C1274 1.385 . S
C1278 C1277 1.374 . S
C1279 C1276 1.499 . S
C1279 C1280 1.373 . S
C1279 C1281 1.389 . S
C1280 H1253 0.950 . S
C1280 C1266 1.377 . S
C1280 C1279 1.373 . S
C1281 C1265 1.377 . S
C1281 C1279 1.389 . S
C1281 C1282 1.524 . S
C1282 C1281 1.524 . S
C1282 C1283 1.397 . S
C1282 C1287 1.363 . S
C1283 H1254 0.950 . S
C1283 C1282 1.397 . S
C1283 C1284 1.334 . S
C1284 H1255 0.950 . S
C1284 C1283 1.334 . S
C1284 C1285 1.287 . S
C1285 C1284 1.287 . S
C1285 C1286 1.524 . S
C1285 H1288 0.999 . S
C1286 H1256 0.950 . S
C1286 C1285 1.524 . S
C1286 C1287 1.415 . S
C1287 H1257 0.950 . S
C1287 C1282 1.363 . S
C1287 C1286 1.415 . S
H1288 C1285 0.999 . S
H1289 C1270 0.913 . S
H1290 C1308 0.951 . S
H1291 C1310 0.951 . S
H1292 C1312 0.950 . S
H1293 C1313 0.950 . S
H1294 C1315 0.950 . S
H1295 C1318 0.950 . S
H1296 C1319 0.950 . S
H1297 C1321 0.950 . S
H1298 C1322 0.950 . S
H1299 C1323 0.951 . S
H1300 C1325 0.951 . S
H1301 C1327 0.950 . S
H1302 C1328 0.950 . S
H1303 C1330 0.950 . S
H1304 C1333 0.950 . S
H1305 C1334 0.950 . S
H1306 C1336 0.950 . S
H1307 C1337 0.950 . S
C1308 H1290 0.951 . S
C1308 C1309 1.366 . S
C1308 C1310 1.388 . S
C1309 C1308 1.366 . S
C1309 C1313 1.385 . S
C1310 H1291 0.951 . S
C1310 C1308 1.388 . S
C1310 C1311 1.366 . S
C1311 C1310 1.366 . S
C1311 C1312 1.414 . S
C1311 C1314 1.499 . S
C1312 H1292 0.950 . S
C1312 C1311 1.414 . S
C1312 C1313 1.374 . S
C1313 H1293 0.950 . S
C1313 C1309 1.385 . S
C1313 C1312 1.374 . S
C1314 C1311 1.499 . S
C1314 C1315 1.373 . S
C1314 C1316 1.389 . S
C1315 H1294 0.950 . S
C1315 C1314 1.373 . S
C1315 C1331 1.377 . S
C1316 C1314 1.389 . S
C1316 C1317 1.524 . S
C1316 C1330 1.377 . S
C1317 C1316 1.524 . S
C1317 C1318 1.397 . S
C1317 C1322 1.363 . S
C1318 H1295 0.950 . S
C1318 C1317 1.397 . S
C1318 C1319 1.334 . S
C1319 H1296 0.950 . S
C1319 C1318 1.334 . S
C1319 C1320 1.287 . S
C1320 C1319 1.287 . S
C1320 C1321 1.524 . S
C1320 H1339 0.913 . S
C1321 H1297 0.950 . S
C1321 C1320 1.524 . S
C1321 C1322 1.415 . S
C1322 H1298 0.950 . S
C1322 C1317 1.363 . S
C1322 C1321 1.415 . S
C1323 H1299 0.951 . S
C1323 C1324 1.366 . S
C1323 C1325 1.388 . S
C1324 C1323 1.366 . S
C1324 C1328 1.385 . S
C1325 H1300 0.951 . S
C1325 C1323 1.388 . S
C1325 C1326 1.366 . S
C1326 C1325 1.366 . S
C1326 C1327 1.414 . S
C1326 C1329 1.499 . S
C1327 H1301 0.950 . S
C1327 C1326 1.414 . S
C1327 C1328 1.374 . S
C1328 H1302 0.950 . S
C1328 C1324 1.385 . S
C1328 C1327 1.374 . S
C1329 C1326 1.499 . S
C1329 C1330 1.373 . S
C1329 C1331 1.389 . S
C1330 H1303 0.950 . S
C1330 C1316 1.377 . S
C1330 C1329 1.373 . S
C1331 C1315 1.377 . S
C1331 C1329 1.389 . S
C1331 C1332 1.524 . S
C1332 C1331 1.524 . S
C1332 C1333 1.397 . S
C1332 C1337 1.363 . S
C1333 H1304 0.950 . S
C1333 C1332 1.397 . S
C1333 C1334 1.334 . S
C1334 H1305 0.950 . S
C1334 C1333 1.334 . S
C1334 C1335 1.287 . S
C1335 C1334 1.287 . S
C1335 C1336 1.524 . S
C1335 H1338 0.999 . S
C1336 H1306 0.950 . S
C1336 C1335 1.524 . S
C1336 C1337 1.415 . S
C1337 H1307 0.950 . S
C1337 C1332 1.363 . S
C1337 C1336 1.415 . S
H1338 C1335 0.999 . S
H1339 C1320 0.913 . S
H1340 C1358 0.951 . S
H1341 C1360 0.951 . S
H1342 C1362 0.950 . S
H1343 C1363 0.950 . S
H1344 C1365 0.950 . S
H1345 C1368 0.950 . S
H1346 C1369 0.950 . S
H1347 C1371 0.950 . S
H1348 C1372 0.950 . S
H1349 C1373 0.951 . S
H1350 C1375 0.951 . S
H1351 C1377 0.950 . S
H1352 C1378 0.950 . S
H1353 C1380 0.950 . S
H1354 C1383 0.950 . S
H1355 C1384 0.950 1_556 S
H1356 C1386 0.950 . S
H1357 C1387 0.950 . S
C1358 H1340 0.951 . S
C1358 C1359 1.366 . S
C1358 C1360 1.388 . S
C1359 C1358 1.366 . S
C1359 C1363 1.385 . S
C1360 H1341 0.951 . S
C1360 C1358 1.388 . S
C1360 C1361 1.366 . S
C1361 C1360 1.366 . S
C1361 C1362 1.414 . S
C1361 C1364 1.499 . S
C1362 H1342 0.950 . S
C1362 C1361 1.414 . S
C1362 C1363 1.374 . S
C1363 H1343 0.950 . S
C1363 C1359 1.385 . S
C1363 C1362 1.374 . S
C1364 C1361 1.499 . S
C1364 C1365 1.373 . S
C1364 C1366 1.389 . S
C1365 H1344 0.950 . S
C1365 C1364 1.373 . S
C1365 C1381 1.377 . S
C1366 C1364 1.389 . S
C1366 C1367 1.524 . S
C1366 C1380 1.377 . S
C1367 C1366 1.524 . S
C1367 C1368 1.397 . S
C1367 C1372 1.363 . S
C1368 H1345 0.950 . S
C1368 C1367 1.397 . S
C1368 C1369 1.334 . S
C1369 H1346 0.950 . S
C1369 C1368 1.334 . S
C1369 C1370 1.287 . S
C1370 C1369 1.287 . S
C1370 C1371 1.524 . S
C1370 H1389 0.913 . S
C1371 H1347 0.950 . S
C1371 C1370 1.524 . S
C1371 C1372 1.415 . S
C1372 H1348 0.950 . S
C1372 C1367 1.363 . S
C1372 C1371 1.415 . S
C1373 H1349 0.951 . S
C1373 C1374 1.366 . S
C1373 C1375 1.388 1_556 S
C1374 C1373 1.366 . S
C1374 C1378 1.385 . S
C1375 H1350 0.951 . S
C1375 C1373 1.388 1_554 S
C1375 C1376 1.366 . S
C1376 C1375 1.366 . S
C1376 C1377 1.414 1_554 S
C1376 C1379 1.499 . S
C1377 H1351 0.950 . S
C1377 C1376 1.414 1_556 S
C1377 C1378 1.374 . S
C1378 H1352 0.950 . S
C1378 C1374 1.385 . S
C1378 C1377 1.374 . S
C1379 C1376 1.499 . S
C1379 C1380 1.373 . S
C1379 C1381 1.389 . S
C1380 H1353 0.950 . S
C1380 C1366 1.377 . S
C1380 C1379 1.373 . S
C1381 C1365 1.377 . S
C1381 C1379 1.389 . S
C1381 C1382 1.524 . S
C1382 C1381 1.524 . S
C1382 C1383 1.397 . S
C1382 C1387 1.363 . S
C1383 H1354 0.950 . S
C1383 C1382 1.397 . S
C1383 C1384 1.334 . S
C1384 H1355 0.950 1_554 S
C1384 C1383 1.334 . S
C1384 C1385 1.287 . S
C1385 C1384 1.287 . S
C1385 C1386 1.524 . S
C1385 H1388 0.999 . S
C1386 H1356 0.950 . S
C1386 C1385 1.524 . S
C1386 C1387 1.415 . S
C1387 H1357 0.950 . S
C1387 C1382 1.363 . S
C1387 C1386 1.415 . S
H1388 C1385 0.999 . S
H1389 C1370 0.913 . S
H1390 C1408 0.951 . S
H1391 C1410 0.951 . S
H1392 C1412 0.950 . S
H1393 C1413 0.950 . S
H1394 C1415 0.950 . S
H1395 C1418 0.950 . S
H1396 C1419 0.950 . S
H1397 C1421 0.950 . S
H1398 C1422 0.950 . S
H1399 C1423 0.951 . S
H1400 C1425 0.951 . S
H1401 C1427 0.950 . S
H1402 C1428 0.950 . S
H1403 C1430 0.950 . S
H1404 C1433 0.950 . S
H1405 C1434 0.950 . S
H1406 C1436 0.950 . S
H1407 C1437 0.950 . S
C1408 H1390 0.951 . S
C1408 C1409 1.366 . S
C1408 C1410 1.388 . S
C1409 C1408 1.366 . S
C1409 C1413 1.385 . S
C1410 H1391 0.951 . S
C1410 C1408 1.388 . S
C1410 C1411 1.366 . S
C1411 C1410 1.366 . S
C1411 C1412 1.414 . S
C1411 C1414 1.499 . S
C1412 H1392 0.950 . S
C1412 C1411 1.414 . S
C1412 C1413 1.374 . S
C1413 H1393 0.950 . S
C1413 C1409 1.385 . S
C1413 C1412 1.374 . S
C1414 C1411 1.499 . S
C1414 C1415 1.373 . S
C1414 C1416 1.389 . S
C1415 H1394 0.950 . S
C1415 C1414 1.373 . S
C1415 C1431 1.377 . S
C1416 C1414 1.389 . S
C1416 C1417 1.524 . S
C1416 C1430 1.377 . S
C1417 C1416 1.524 . S
C1417 C1418 1.397 . S
C1417 C1422 1.363 . S
C1418 H1395 0.950 . S
C1418 C1417 1.397 . S
C1418 C1419 1.334 . S
C1419 H1396 0.950 . S
C1419 C1418 1.334 . S
C1419 C1420 1.287 . S
C1420 C1419 1.287 . S
C1420 C1421 1.524 . S
C1420 H1439 0.913 . S
C1421 H1397 0.950 . S
C1421 C1420 1.524 . S
C1421 C1422 1.415 . S
C1422 H1398 0.950 . S
C1422 C1417 1.363 . S
C1422 C1421 1.415 . S
C1423 H1399 0.951 . S
C1423 C1424 1.366 . S
C1423 C1425 1.388 . S
C1424 C1423 1.366 . S
C1424 C1428 1.385 . S
C1425 H1400 0.951 . S
C1425 C1423 1.388 . S
C1425 C1426 1.366 . S
C1426 C1425 1.366 . S
C1426 C1427 1.414 . S
C1426 C1429 1.499 . S
C1427 H1401 0.950 . S
C1427 C1426 1.414 . S
C1427 C1428 1.374 . S
C1428 H1402 0.950 . S
C1428 C1424 1.385 . S
C1428 C1427 1.374 . S
C1429 C1426 1.499 . S
C1429 C1430 1.373 . S
C1429 C1431 1.389 . S
C1430 H1403 0.950 . S
C1430 C1416 1.377 . S
C1430 C1429 1.373 . S
C1431 C1415 1.377 . S
C1431 C1429 1.389 . S
C1431 C1432 1.524 . S
C1432 C1431 1.524 . S
C1432 C1433 1.397 . S
C1432 C1437 1.363 . S
C1433 H1404 0.950 . S
C1433 C1432 1.397 . S
C1433 C1434 1.334 . S
C1434 H1405 0.950 . S
C1434 C1433 1.334 . S
C1434 C1435 1.287 . S
C1435 C1434 1.287 . S
C1435 C1436 1.524 . S
C1435 H1438 0.999 . S
C1436 H1406 0.950 . S
C1436 C1435 1.524 . S
C1436 C1437 1.415 . S
C1437 H1407 0.950 . S
C1437 C1432 1.363 . S
C1437 C1436 1.415 . S
H1438 C1435 0.999 . S
H1439 C1420 0.913 . S
H1440 C1458 0.951 . S
H1441 C1460 0.951 . S
H1442 C1462 0.950 . S
H1443 C1463 0.950 . S
H1444 C1465 0.950 . S
H1445 C1468 0.950 . S
H1446 C1469 0.950 . S
H1447 C1471 0.950 . S
H1448 C1472 0.950 . S
H1449 C1473 0.951 . S
H1450 C1475 0.951 . S
H1451 C1477 0.950 . S
H1452 C1478 0.950 . S
H1453 C1480 0.950 . S
H1454 C1483 0.950 . S
H1455 C1484 0.950 . S
H1456 C1486 0.934 1_556 S
H1457 C1487 0.950 1_455 S
C1458 H1440 0.951 . S
C1458 C1459 1.366 1_655 S
C1458 C1460 1.388 . S
C1459 C1458 1.366 1_455 S
C1459 C1463 1.385 . S
C1460 H1441 0.951 . S
C1460 C1458 1.388 . S
C1460 C1461 1.366 1_655 S
C1461 C1460 1.366 1_455 S
C1461 C1462 1.414 . S
C1461 C1464 1.499 . S
C1462 H1442 0.950 . S
C1462 C1461 1.414 . S
C1462 C1463 1.374 . S
C1463 H1443 0.950 . S
C1463 C1459 1.385 . S
C1463 C1462 1.374 . S
C1464 C1461 1.499 . S
C1464 C1465 1.373 1_455 S
C1464 C1466 1.389 . S
C1465 H1444 0.950 . S
C1465 C1464 1.373 1_655 S
C1465 C1481 1.377 . S
C1466 C1464 1.389 . S
C1466 C1467 1.524 . S
C1466 C1480 1.377 . S
C1467 C1466 1.524 . S
C1467 C1468 1.397 . S
C1467 C1472 1.363 . S
C1468 H1445 0.950 . S
C1468 C1467 1.397 . S
C1468 C1469 1.334 . S
C1469 H1446 0.950 . S
C1469 C1468 1.334 . S
C1469 C1470 1.287 . S
C1470 C1469 1.287 . S
C1470 C1471 1.524 . S
C1470 H1489 0.913 . S
C1471 H1447 0.950 . S
C1471 C1470 1.524 . S
C1471 C1472 1.415 . S
C1472 H1448 0.950 . S
C1472 C1467 1.363 . S
C1472 C1471 1.415 . S
C1473 H1449 0.951 . S
C1473 C1474 1.366 . S
C1473 C1475 1.388 . S
C1474 C1473 1.366 . S
C1474 C1478 1.385 1_455 S
C1475 H1450 0.951 . S
C1475 C1473 1.388 . S
C1475 C1476 1.366 . S
C1476 C1475 1.366 . S
C1476 C1477 1.414 1_455 S
C1476 C1479 1.499 . S
C1477 H1451 0.950 . S
C1477 C1476 1.414 1_655 S
C1477 C1478 1.374 . S
C1478 H1452 0.950 . S
C1478 C1474 1.385 1_655 S
C1478 C1477 1.374 . S
C1479 C1476 1.499 . S
C1479 C1480 1.373 . S
C1479 C1481 1.389 1_455 S
C1480 H1453 0.950 . S
C1480 C1466 1.377 . S
C1480 C1479 1.373 . S
C1481 C1465 1.377 . S
C1481 C1479 1.389 1_655 S
C1481 C1482 1.524 . S
C1482 C1481 1.524 . S
C1482 C1483 1.397 . S
C1482 C1487 1.363 . S
C1483 H1454 0.950 . S
C1483 C1482 1.397 . S
C1483 C1484 1.334 . S
C1484 H1455 0.950 . S
C1484 C1483 1.334 . S
C1484 C1485 1.287 . S
C1485 C1484 1.287 . S
C1485 C1486 1.524 . S
C1485 H1488 0.999 . S
C1486 H1456 0.934 1_554 S
C1486 C1485 1.524 . S
C1486 C1487 1.415 . S
C1487 H1457 0.950 1_655 S
C1487 C1482 1.363 . S
C1487 C1486 1.415 . S
H1488 C1485 0.999 . S
H1489 C1470 0.913 . S
H1490 C1508 0.951 . S
H1491 C1510 0.951 . S
H1492 C1512 0.950 . S
H1493 C1513 0.950 . S
H1494 C1515 0.950 1_655 S
H1495 C1518 0.950 . S
H1496 C1519 0.950 . S
H1497 C1521 0.953 . S
H1498 C1522 0.950 . S
H1499 C1523 0.951 . S
H1500 C1525 0.951 . S
H1501 C1527 0.950 . S
H1502 C1528 0.950 . S
H1503 C1530 0.950 . S
H1504 C1533 0.950 . S
H1505 C1534 0.950 . S
H1506 C1536 0.950 . S
H1507 C1537 0.950 . S
C1508 H1490 0.951 . S
C1508 C1509 1.366 . S
C1508 C1510 1.388 . S
C1509 C1508 1.366 . S
C1509 C1513 1.385 . S
C1510 H1491 0.951 . S
C1510 C1508 1.388 . S
C1510 C1511 1.366 . S
C1511 C1510 1.366 . S
C1511 C1512 1.414 . S
C1511 C1514 1.499 . S
C1512 H1492 0.950 . S
C1512 C1511 1.414 . S
C1512 C1513 1.374 . S
C1513 H1493 0.950 . S
C1513 C1509 1.385 . S
C1513 C1512 1.374 . S
C1514 C1511 1.499 . S
C1514 C1515 1.373 1_655 S
C1514 C1516 1.389 1_655 S
C1515 H1494 0.950 1_455 S
C1515 C1514 1.373 1_455 S
C1515 C1531 1.377 . S
C1516 C1514 1.389 1_455 S
C1516 C1517 1.517 1_455 S
C1516 C1530 1.377 . S
C1517 C1516 1.517 1_655 S
C1517 C1518 1.413 . S
C1517 C1522 1.353 1_655 S
C1518 H1495 0.950 . S
C1518 C1517 1.413 . S
C1518 C1519 1.334 . S
C1519 H1496 0.950 . S
C1519 C1518 1.334 . S
C1519 C1520 1.287 . S
C1520 C1519 1.287 . S
C1520 C1521 1.517 1_655 S
C1520 H1539 0.913 . S
C1521 H1497 0.953 . S
C1521 C1520 1.517 1_455 S
C1521 C1522 1.418 . S
C1522 H1498 0.950 . S
C1522 C1517 1.353 1_455 S
C1522 C1521 1.418 . S
C1523 H1499 0.951 . S
C1523 C1524 1.366 . S
C1523 C1525 1.388 . S
C1524 C1523 1.366 . S
C1524 C1528 1.385 . S
C1525 H1500 0.951 . S
C1525 C1523 1.388 . S
C1525 C1526 1.366 . S
C1526 C1525 1.366 . S
C1526 C1527 1.414 . S
C1526 C1529 1.499 . S
C1527 H1501 0.950 . S
C1527 C1526 1.414 . S
C1527 C1528 1.374 . S
C1528 H1502 0.950 . S
C1528 C1524 1.385 . S
C1528 C1527 1.374 . S
C1529 C1526 1.499 . S
C1529 C1530 1.373 . S
C1529 C1531 1.389 . S
C1530 H1503 0.950 . S
C1530 C1516 1.377 . S
C1530 C1529 1.373 . S
C1531 C1515 1.377 . S
C1531 C1529 1.389 . S
C1531 C1532 1.524 . S
C1532 C1531 1.524 . S
C1532 C1533 1.397 . S
C1532 C1537 1.363 . S
C1533 H1504 0.950 . S
C1533 C1532 1.397 . S
C1533 C1534 1.334 . S
C1534 H1505 0.950 . S
C1534 C1533 1.334 . S
C1534 C1535 1.287 . S
C1535 C1534 1.287 . S
C1535 C1536 1.524 . S
C1535 H1538 0.999 . S
C1536 H1506 0.950 . S
C1536 C1535 1.524 . S
C1536 C1537 1.415 . S
C1537 H1507 0.950 . S
C1537 C1532 1.363 . S
C1537 C1536 1.415 . S
H1538 C1535 0.999 . S
H1539 C1520 0.913 . S
H1540 C1558 0.951 . S
H1541 C1560 0.951 . S
H1542 C1562 0.950 . S
H1543 C1563 0.950 . S
H1544 C1565 0.950 . S
H1545 C1568 0.950 . S
H1546 C1569 0.950 . S
H1547 C1571 0.950 . S
H1548 C1572 0.950 . S
H1549 C1573 0.951 . S
H1550 C1575 0.951 . S
H1551 C1577 0.950 . S
H1552 C1578 0.950 . S
H1553 C1580 0.950 . S
H1554 C1583 0.950 . S
H1555 C1584 0.950 . S
H1556 C1586 0.950 . S
H1557 C1587 0.950 . S
C1558 H1540 0.951 . S
C1558 C1559 1.366 . S
C1558 C1560 1.388 . S
C1559 C1558 1.366 . S
C1559 C1563 1.385 . S
C1560 H1541 0.951 . S
C1560 C1558 1.388 . S
C1560 C1561 1.366 . S
C1561 C1560 1.366 . S
C1561 C1562 1.414 . S
C1561 C1564 1.499 . S
C1562 H1542 0.950 . S
C1562 C1561 1.414 . S
C1562 C1563 1.374 . S
C1563 H1543 0.950 . S
C1563 C1559 1.385 . S
C1563 C1562 1.374 . S
C1564 C1561 1.499 . S
C1564 C1565 1.373 . S
C1564 C1566 1.389 . S
C1565 H1544 0.950 . S
C1565 C1564 1.373 . S
C1565 C1581 1.377 . S
C1566 C1564 1.389 . S
C1566 C1567 1.524 . S
C1566 C1580 1.377 . S
C1567 C1566 1.524 . S
C1567 C1568 1.397 . S
C1567 C1572 1.363 . S
C1568 H1545 0.950 . S
C1568 C1567 1.397 . S
C1568 C1569 1.334 . S
C1569 H1546 0.950 . S
C1569 C1568 1.334 . S
C1569 C1570 1.287 . S
C1570 C1569 1.287 . S
C1570 C1571 1.524 . S
C1570 H1589 0.913 . S
C1571 H1547 0.950 . S
C1571 C1570 1.524 . S
C1571 C1572 1.415 . S
C1572 H1548 0.950 . S
C1572 C1567 1.363 . S
C1572 C1571 1.415 . S
C1573 H1549 0.951 . S
C1573 C1574 1.366 . S
C1573 C1575 1.388 . S
C1574 C1573 1.366 . S
C1574 C1578 1.385 . S
C1575 H1550 0.951 . S
C1575 C1573 1.388 . S
C1575 C1576 1.366 . S
C1576 C1575 1.366 . S
C1576 C1577 1.414 . S
C1576 C1579 1.499 . S
C1577 H1551 0.950 . S
C1577 C1576 1.414 . S
C1577 C1578 1.374 . S
C1578 H1552 0.950 . S
C1578 C1574 1.385 . S
C1578 C1577 1.374 . S
C1579 C1576 1.499 . S
C1579 C1580 1.373 . S
C1579 C1581 1.389 . S
C1580 H1553 0.950 . S
C1580 C1566 1.377 . S
C1580 C1579 1.373 . S
C1581 C1565 1.377 . S
C1581 C1579 1.389 . S
C1581 C1582 1.524 . S
C1582 C1581 1.524 . S
C1582 C1583 1.397 . S
C1582 C1587 1.363 . S
C1583 H1554 0.950 . S
C1583 C1582 1.397 . S
C1583 C1584 1.334 . S
C1584 H1555 0.950 . S
C1584 C1583 1.334 . S
C1584 C1585 1.287 . S
C1585 C1584 1.287 . S
C1585 C1586 1.524 . S
C1585 H1588 0.999 . S
C1586 H1556 0.950 . S
C1586 C1585 1.524 . S
C1586 C1587 1.415 . S
C1587 H1557 0.950 . S
C1587 C1582 1.363 . S
C1587 C1586 1.415 . S
H1588 C1585 0.999 . S
H1589 C1570 0.913 . S
H1590 C1608 0.951 . S
H1591 C1610 0.951 . S
H1592 C1612 0.950 . S
H1593 C1613 0.950 . S
H1594 C1615 0.950 . S
H1595 C1618 0.950 . S
H1596 C1619 0.950 . S
H1597 C1621 0.950 . S
H1598 C1622 0.950 . S
H1599 C1623 0.951 . S
H1600 C1625 0.951 . S
H1601 C1627 0.950 . S
H1602 C1628 0.950 . S
H1603 C1630 0.950 . S
H1604 C1633 0.950 . S
H1605 C1634 0.950 . S
H1606 C1636 0.950 . S
H1607 C1637 0.950 . S
C1608 H1590 0.951 . S
C1608 C1609 1.366 . S
C1608 C1610 1.388 . S
C1609 C1608 1.366 . S
C1609 C1613 1.385 . S
C1610 H1591 0.951 . S
C1610 C1608 1.388 . S
C1610 C1611 1.366 . S
C1611 C1610 1.366 . S
C1611 C1612 1.414 . S
C1611 C1614 1.499 . S
C1612 H1592 0.950 . S
C1612 C1611 1.414 . S
C1612 C1613 1.374 . S
C1613 H1593 0.950 . S
C1613 C1609 1.385 . S
C1613 C1612 1.374 . S
C1614 C1611 1.499 . S
C1614 C1615 1.373 . S
C1614 C1616 1.389 . S
C1615 H1594 0.950 . S
C1615 C1614 1.373 . S
C1615 C1631 1.377 . S
C1616 C1614 1.389 . S
C1616 C1617 1.524 . S
C1616 C1630 1.377 . S
C1617 C1616 1.524 . S
C1617 C1618 1.397 . S
C1617 C1622 1.363 . S
C1618 H1595 0.950 . S
C1618 C1617 1.397 . S
C1618 C1619 1.334 . S
C1619 H1596 0.950 . S
C1619 C1618 1.334 . S
C1619 C1620 1.287 . S
C1620 C1619 1.287 . S
C1620 C1621 1.524 . S
C1620 H1639 0.913 . S
C1621 H1597 0.950 . S
C1621 C1620 1.524 . S
C1621 C1622 1.415 . S
C1622 H1598 0.950 . S
C1622 C1617 1.363 . S
C1622 C1621 1.415 . S
C1623 H1599 0.951 . S
C1623 C1624 1.366 . S
C1623 C1625 1.388 . S
C1624 C1623 1.366 . S
C1624 C1628 1.385 . S
C1625 H1600 0.951 . S
C1625 C1623 1.388 . S
C1625 C1626 1.366 . S
C1626 C1625 1.366 . S
C1626 C1627 1.414 . S
C1626 C1629 1.499 . S
C1627 H1601 0.950 . S
C1627 C1626 1.414 . S
C1627 C1628 1.374 . S
C1628 H1602 0.950 . S
C1628 C1624 1.385 . S
C1628 C1627 1.374 . S
C1629 C1626 1.499 . S
C1629 C1630 1.373 . S
C1629 C1631 1.389 . S
C1630 H1603 0.950 . S
C1630 C1616 1.377 . S
C1630 C1629 1.373 . S
C1631 C1615 1.377 . S
C1631 C1629 1.389 . S
C1631 C1632 1.524 . S
C1632 C1631 1.524 . S
C1632 C1633 1.397 . S
C1632 C1637 1.363 . S
C1633 H1604 0.950 . S
C1633 C1632 1.397 . S
C1633 C1634 1.334 . S
C1634 H1605 0.950 . S
C1634 C1633 1.334 . S
C1634 C1635 1.287 . S
C1635 C1634 1.287 . S
C1635 C1636 1.524 . S
C1635 H1638 0.999 . S
C1636 H1606 0.950 . S
C1636 C1635 1.524 . S
C1636 C1637 1.415 . S
C1637 H1607 0.950 . S
C1637 C1632 1.363 . S
C1637 C1636 1.415 . S
H1638 C1635 0.999 . S
H1639 C1620 0.913 . S
H1640 C1658 0.951 . S
H1641 C1660 0.951 . S
H1642 C1662 0.950 . S
H1643 C1663 0.938 1_655 S
H1644 C1665 0.950 . S
H1645 C1668 0.950 . S
H1646 C1669 0.950 . S
H1647 C1671 0.950 . S
H1648 C1672 0.950 . S
H1649 C1673 0.951 . S
H1650 C1675 0.951 . S
H1651 C1677 0.950 . S
H1652 C1678 0.950 . S
H1653 C1680 0.950 . S
H1654 C1683 0.950 . S
H1655 C1684 0.950 . S
H1656 C1686 0.950 . S
H1657 C1687 0.950 . S
C1658 H1640 0.951 . S
C1658 C1659 1.366 . S
C1658 C1660 1.388 . S
C1659 C1658 1.366 . S
C1659 C1663 1.385 . S
C1660 H1641 0.951 . S
C1660 C1658 1.388 . S
C1660 C1661 1.366 . S
C1661 C1660 1.366 . S
C1661 C1662 1.414 . S
C1661 C1664 1.499 . S
C1662 H1642 0.950 . S
C1662 C1661 1.414 . S
C1662 C1663 1.374 . S
C1663 H1643 0.938 1_455 S
C1663 C1659 1.385 . S
C1663 C1662 1.374 . S
C1664 C1661 1.499 . S
C1664 C1665 1.373 1_455 S
C1664 C1666 1.389 . S
C1665 H1644 0.950 . S
C1665 C1664 1.373 1_655 S
C1665 C1681 1.377 . S
C1666 C1664 1.389 . S
C1666 C1667 1.524 . S
C1666 C1680 1.377 . S
C1667 C1666 1.524 . S
C1667 C1668 1.397 . S
C1667 C1672 1.363 . S
C1668 H1645 0.950 . S
C1668 C1667 1.397 . S
C1668 C1669 1.334 . S
C1669 H1646 0.950 . S
C1669 C1668 1.334 . S
C1669 C1670 1.287 . S
C1670 C1669 1.287 . S
C1670 C1671 1.524 . S
C1670 H1689 0.913 . S
C1671 H1647 0.950 . S
C1671 C1670 1.524 . S
C1671 C1672 1.415 . S
C1672 H1648 0.950 . S
C1672 C1667 1.363 . S
C1672 C1671 1.415 . S
C1673 H1649 0.951 . S
C1673 C1674 1.366 . S
C1673 C1675 1.388 . S
C1674 C1673 1.366 . S
C1674 C1678 1.385 . S
C1675 H1650 0.951 . S
C1675 C1673 1.388 . S
C1675 C1676 1.366 . S
C1676 C1675 1.366 . S
C1676 C1677 1.414 . S
C1676 C1679 1.499 . S
C1677 H1651 0.950 . S
C1677 C1676 1.414 . S
C1677 C1678 1.374 . S
C1678 H1652 0.950 . S
C1678 C1674 1.385 . S
C1678 C1677 1.374 . S
C1679 C1676 1.499 . S
C1679 C1680 1.373 . S
C1679 C1681 1.389 1_455 S
C1680 H1653 0.950 . S
C1680 C1666 1.377 . S
C1680 C1679 1.373 . S
C1681 C1665 1.377 . S
C1681 C1679 1.389 1_655 S
C1681 C1682 1.524 . S
C1682 C1681 1.524 . S
C1682 C1683 1.397 . S
C1682 C1687 1.363 . S
C1683 H1654 0.950 . S
C1683 C1682 1.397 . S
C1683 C1684 1.334 . S
C1684 H1655 0.950 . S
C1684 C1683 1.334 . S
C1684 C1685 1.287 . S
C1685 C1684 1.287 . S
C1685 C1686 1.524 . S
C1685 H1688 0.999 . S
C1686 H1656 0.950 . S
C1686 C1685 1.524 . S
C1686 C1687 1.415 . S
C1687 H1657 0.950 . S
C1687 C1682 1.363 . S
C1687 C1686 1.415 . S
H1688 C1685 0.999 . S
H1689 C1670 0.913 . S
H1690 C1708 0.951 . S
H1691 C1710 0.951 . S
H1692 C1712 0.950 . S
H1693 C1713 0.950 . S
H1694 C1715 0.950 . S
H1695 C1718 0.950 . S
H1696 C1719 0.950 . S
H1697 C1721 0.950 . S
H1698 C1722 0.950 . S
H1699 C1723 0.951 . S
H1700 C1725 0.951 . S
H1701 C1727 0.950 . S
H1702 C1728 0.950 . S
H1703 C1730 0.950 . S
H1704 C1733 0.950 . S
H1705 C1734 0.950 . S
H1706 C1736 0.950 . S
H1707 C1737 0.950 . S
C1708 H1690 0.951 . S
C1708 C1709 1.366 . S
C1708 C1710 1.388 . S
C1709 C1708 1.366 . S
C1709 C1713 1.385 . S
C1710 H1691 0.951 . S
C1710 C1708 1.388 . S
C1710 C1711 1.366 . S
C1711 C1710 1.366 . S
C1711 C1712 1.414 . S
C1711 C1714 1.499 . S
C1712 H1692 0.950 . S
C1712 C1711 1.414 . S
C1712 C1713 1.374 . S
C1713 H1693 0.950 . S
C1713 C1709 1.385 . S
C1713 C1712 1.374 . S
C1714 C1711 1.499 . S
C1714 C1715 1.373 . S
C1714 C1716 1.389 . S
C1715 H1694 0.950 . S
C1715 C1714 1.373 . S
C1715 C1731 1.377 . S
C1716 C1714 1.389 . S
C1716 C1717 1.524 . S
C1716 C1730 1.377 . S
C1717 C1716 1.524 . S
C1717 C1718 1.397 . S
C1717 C1722 1.363 . S
C1718 H1695 0.950 . S
C1718 C1717 1.397 . S
C1718 C1719 1.334 . S
C1719 H1696 0.950 . S
C1719 C1718 1.334 . S
C1719 C1720 1.287 . S
C1720 C1719 1.287 . S
C1720 C1721 1.524 . S
C1720 H1739 0.913 . S
C1721 H1697 0.950 . S
C1721 C1720 1.524 . S
C1721 C1722 1.415 . S
C1722 H1698 0.950 . S
C1722 C1717 1.363 . S
C1722 C1721 1.415 . S
C1723 H1699 0.951 . S
C1723 C1724 1.366 . S
C1723 C1725 1.388 . S
C1724 C1723 1.366 . S
C1724 C1728 1.385 . S
C1725 H1700 0.951 . S
C1725 C1723 1.388 . S
C1725 C1726 1.366 . S
C1726 C1725 1.366 . S
C1726 C1727 1.414 . S
C1726 C1729 1.499 . S
C1727 H1701 0.950 . S
C1727 C1726 1.414 . S
C1727 C1728 1.374 . S
C1728 H1702 0.950 . S
C1728 C1724 1.385 . S
C1728 C1727 1.374 . S
C1729 C1726 1.499 . S
C1729 C1730 1.373 . S
C1729 C1731 1.389 . S
C1730 H1703 0.950 . S
C1730 C1716 1.377 . S
C1730 C1729 1.373 . S
C1731 C1715 1.377 . S
C1731 C1729 1.389 . S
C1731 C1732 1.524 . S
C1732 C1731 1.524 . S
C1732 C1733 1.397 . S
C1732 C1737 1.363 . S
C1733 H1704 0.950 . S
C1733 C1732 1.397 . S
C1733 C1734 1.334 . S
C1734 H1705 0.950 . S
C1734 C1733 1.334 . S
C1734 C1735 1.287 . S
C1735 C1734 1.287 . S
C1735 C1736 1.524 . S
C1735 H1738 0.999 . S
C1736 H1706 0.950 . S
C1736 C1735 1.524 . S
C1736 C1737 1.415 . S
C1737 H1707 0.950 . S
C1737 C1732 1.363 . S
C1737 C1736 1.415 . S
H1738 C1735 0.999 . S
H1739 C1720 0.913 . S
H1740 C1758 0.951 . S
H1741 C1760 0.951 . S
H1742 C1762 0.950 . S
H1743 C1763 0.950 . S
H1744 C1765 0.950 . S
H1745 C1768 0.950 . S
H1746 C1769 0.950 . S
H1747 C1771 0.950 . S
H1748 C1772 0.950 . S
H1749 C1773 0.951 . S
H1750 C1775 0.951 . S
H1751 C1777 0.950 . S
H1752 C1778 0.950 . S
H1753 C1780 0.950 . S
H1754 C1783 0.950 . S
H1755 C1784 0.950 . S
H1756 C1786 0.950 . S
H1757 C1787 0.950 . S
C1758 H1740 0.951 . S
C1758 C1759 1.366 . S
C1758 C1760 1.388 . S
C1759 C1758 1.366 . S
C1759 C1763 1.385 . S
C1760 H1741 0.951 . S
C1760 C1758 1.388 . S
C1760 C1761 1.366 . S
C1761 C1760 1.366 . S
C1761 C1762 1.414 . S
C1761 C1764 1.499 . S
C1762 H1742 0.950 . S
C1762 C1761 1.414 . S
C1762 C1763 1.374 . S
C1763 H1743 0.950 . S
C1763 C1759 1.385 . S
C1763 C1762 1.374 . S
C1764 C1761 1.499 . S
C1764 C1765 1.373 . S
C1764 C1766 1.389 . S
C1765 H1744 0.950 . S
C1765 C1764 1.373 . S
C1765 C1781 1.377 . S
C1766 C1764 1.389 . S
C1766 C1767 1.524 . S
C1766 C1780 1.377 . S
C1767 C1766 1.524 . S
C1767 C1768 1.397 . S
C1767 C1772 1.363 . S
C1768 H1745 0.950 . S
C1768 C1767 1.397 . S
C1768 C1769 1.334 . S
C1769 H1746 0.950 . S
C1769 C1768 1.334 . S
C1769 C1770 1.287 . S
C1770 C1769 1.287 . S
C1770 C1771 1.524 . S
C1770 H1789 0.913 . S
C1771 H1747 0.950 . S
C1771 C1770 1.524 . S
C1771 C1772 1.415 . S
C1772 H1748 0.950 . S
C1772 C1767 1.363 . S
C1772 C1771 1.415 . S
C1773 H1749 0.951 . S
C1773 C1774 1.366 . S
C1773 C1775 1.388 . S
C1774 C1773 1.366 . S
C1774 C1778 1.385 . S
C1775 H1750 0.951 . S
C1775 C1773 1.388 . S
C1775 C1776 1.366 . S
C1776 C1775 1.366 . S
C1776 C1777 1.414 . S
C1776 C1779 1.499 . S
C1777 H1751 0.950 . S
C1777 C1776 1.414 . S
C1777 C1778 1.374 . S
C1778 H1752 0.950 . S
C1778 C1774 1.385 . S
C1778 C1777 1.374 . S
C1779 C1776 1.499 . S
C1779 C1780 1.373 . S
C1779 C1781 1.389 . S
C1780 H1753 0.950 . S
C1780 C1766 1.377 . S
C1780 C1779 1.373 . S
C1781 C1765 1.377 . S
C1781 C1779 1.389 . S
C1781 C1782 1.524 . S
C1782 C1781 1.524 . S
C1782 C1783 1.397 . S
C1782 C1787 1.363 . S
C1783 H1754 0.950 . S
C1783 C1782 1.397 . S
C1783 C1784 1.334 . S
C1784 H1755 0.950 . S
C1784 C1783 1.334 . S
C1784 C1785 1.287 . S
C1785 C1784 1.287 . S
C1785 C1786 1.524 . S
C1785 H1788 0.999 . S
C1786 H1756 0.950 . S
C1786 C1785 1.524 . S
C1786 C1787 1.415 . S
C1787 H1757 0.950 . S
C1787 C1782 1.363 . S
C1787 C1786 1.415 . S
H1788 C1785 0.999 . S
H1789 C1770 0.913 . S
H1790 C1808 0.951 . S
H1791 C1810 0.951 . S
H1792 C1812 0.950 . S
H1793 C1813 0.950 . S
H1794 C1815 0.950 . S
H1795 C1818 0.950 . S
H1796 C1819 0.950 . S
H1797 C1821 0.950 . S
H1798 C1822 0.950 1_655 S
H1799 C1823 0.951 . S
H1800 C1825 0.951 . S
H1801 C1827 0.950 . S
H1802 C1828 0.950 . S
H1803 C1830 0.950 . S
H1804 C1833 0.950 . S
H1805 C1834 0.950 . S
H1806 C1836 0.950 . S
H1807 C1837 0.950 . S
C1808 H1790 0.951 . S
C1808 C1809 1.366 . S
C1808 C1810 1.388 . S
C1809 C1808 1.366 . S
C1809 C1813 1.385 . S
C1810 H1791 0.951 . S
C1810 C1808 1.388 . S
C1810 C1811 1.366 . S
C1811 C1810 1.366 . S
C1811 C1812 1.414 . S
C1811 C1814 1.499 . S
C1812 H1792 0.950 . S
C1812 C1811 1.414 . S
C1812 C1813 1.374 . S
C1813 H1793 0.950 . S
C1813 C1809 1.385 . S
C1813 C1812 1.374 . S
C1814 C1811 1.499 . S
C1814 C1815 1.373 . S
C1814 C1816 1.389 . S
C1815 H1794 0.950 . S
C1815 C1814 1.373 . S
C1815 C1831 1.377 . S
C1816 C1814 1.389 . S
C1816 C1817 1.524 . S
C1816 C1830 1.377 1_455 S
C1817 C1816 1.524 . S
C1817 C1818 1.397 . S
C1817 C1822 1.363 . S
C1818 H1795 0.950 . S
C1818 C1817 1.397 . S
C1818 C1819 1.334 . S
C1819 H1796 0.950 . S
C1819 C1818 1.334 . S
C1819 C1820 1.287 . S
C1820 C1819 1.287 . S
C1820 C1821 1.524 . S
C1820 H1839 0.913 . S
C1821 H1797 0.950 . S
C1821 C1820 1.524 . S
C1821 C1822 1.415 . S
C1822 H1798 0.950 1_455 S
C1822 C1817 1.363 . S
C1822 C1821 1.415 . S
C1823 H1799 0.951 . S
C1823 C1824 1.366 . S
C1823 C1825 1.388 . S
C1824 C1823 1.366 . S
C1824 C1828 1.385 . S
C1825 H1800 0.951 . S
C1825 C1823 1.388 . S
C1825 C1826 1.366 . S
C1826 C1825 1.366 . S
C1826 C1827 1.414 . S
C1826 C1829 1.499 . S
C1827 H1801 0.950 . S
C1827 C1826 1.414 . S
C1827 C1828 1.374 . S
C1828 H1802 0.950 . S
C1828 C1824 1.385 . S
C1828 C1827 1.374 . S
C1829 C1826 1.499 . S
C1829 C1830 1.373 . S
C1829 C1831 1.389 1_655 S
C1830 H1803 0.950 . S
C1830 C1816 1.377 1_655 S
C1830 C1829 1.373 . S
C1831 C1815 1.377 . S
C1831 C1829 1.389 1_455 S
C1831 C1832 1.524 . S
C1832 C1831 1.524 . S
C1832 C1833 1.397 1_455 S
C1832 C1837 1.363 . S
C1833 H1804 0.950 . S
C1833 C1832 1.397 1_655 S
C1833 C1834 1.334 . S
C1834 H1805 0.950 . S
C1834 C1833 1.334 . S
C1834 C1835 1.287 . S
C1835 C1834 1.287 . S
C1835 C1836 1.524 1_655 S
C1835 H1838 0.999 . S
C1836 H1806 0.950 . S
C1836 C1835 1.524 1_455 S
C1836 C1837 1.415 . S
C1837 H1807 0.950 . S
C1837 C1832 1.363 . S
C1837 C1836 1.415 . S
H1838 C1835 0.999 . S
H1839 C1820 0.913 . S
H1840 C1858 0.948 1_655 S
H1841 C1860 0.945 1_655 S
H1842 C1862 0.950 . S
H1843 C1863 0.950 . S
H1844 C1865 0.950 1_545 S
H1845 C1868 0.950 . S
H1846 C1869 0.950 . S
H1847 C1871 0.950 . S
H1848 C1872 0.950 . S
H1849 C1873 0.951 . S
H1850 C1875 0.951 . S
H1851 C1877 0.963 . S
H1852 C1878 0.950 . S
H1853 C1880 0.950 . S
H1854 C1883 0.950 . S
H1855 C1884 0.950 . S
H1856 C1886 0.950 . S
H1857 C1887 0.950 . S
C1858 H1840 0.948 1_455 S
C1858 C1859 1.366 . S
C1858 C1860 1.388 . S
C1859 C1858 1.366 . S
C1859 C1863 1.385 . S
C1860 H1841 0.945 1_455 S
C1860 C1858 1.388 . S
C1860 C1861 1.366 . S
C1861 C1860 1.366 . S
C1861 C1862 1.414 . S
C1861 C1864 1.499 . S
C1862 H1842 0.950 . S
C1862 C1861 1.414 . S
C1862 C1863 1.374 . S
C1863 H1843 0.950 . S
C1863 C1859 1.385 . S
C1863 C1862 1.374 . S
C1864 C1861 1.499 . S
C1864 C1865 1.359 1_545 S
C1864 C1866 1.400 1_455 S
C1865 H1844 0.950 1_565 S
C1865 C1864 1.359 1_565 S
C1865 C1881 1.392 1_554 S
C1866 C1864 1.400 1_655 S
C1866 C1867 1.523 . S
C1866 C1880 1.365 1_544 S
C1867 C1866 1.523 . S
C1867 C1868 1.425 . S
C1867 C1872 1.337 1_554 S
C1868 H1845 0.950 . S
C1868 C1867 1.425 . S
C1868 C1869 1.334 . S
C1869 H1846 0.950 . S
C1869 C1868 1.334 . S
C1869 C1870 1.287 . S
C1870 C1869 1.287 . S
C1870 C1871 1.524 1_554 S
C1870 H1889 0.913 . S
C1871 H1847 0.950 . S
C1871 C1870 1.524 1_556 S
C1871 C1872 1.415 . S
C1872 H1848 0.950 . S
C1872 C1867 1.337 1_556 S
C1872 C1871 1.415 . S
C1873 H1849 0.951 . S
C1873 C1874 1.366 . S
C1873 C1875 1.388 . S
C1874 C1873 1.366 . S
C1874 C1878 1.385 . S
C1875 H1850 0.951 . S
C1875 C1873 1.388 . S
C1875 C1876 1.366 . S
C1876 C1875 1.366 . S
C1876 C1877 1.414 . S
C1876 C1879 1.499 . S
C1877 H1851 0.963 . S
C1877 C1876 1.414 . S
C1877 C1878 1.374 . S
C1878 H1852 0.950 . S
C1878 C1874 1.385 . S
C1878 C1877 1.374 . S
C1879 C1876 1.499 . S
C1879 C1880 1.373 1_455 S
C1879 C1881 1.389 . S
C1880 H1853 0.950 . S
C1880 C1866 1.365 1_566 S
C1880 C1879 1.373 1_655 S
C1881 C1865 1.392 1_556 S
C1881 C1879 1.389 . S
C1881 C1882 1.524 . S
C1882 C1881 1.524 . S
C1882 C1883 1.397 . S
C1882 C1887 1.363 1_556 S
C1883 H1854 0.950 . S
C1883 C1882 1.397 . S
C1883 C1884 1.334 . S
C1884 H1855 0.950 . S
C1884 C1883 1.334 . S
C1884 C1885 1.287 . S
C1885 C1884 1.287 . S
C1885 C1886 1.524 1_556 S
C1885 H1888 0.999 . S
C1886 H1856 0.950 . S
C1886 C1885 1.524 1_554 S
C1886 C1887 1.415 . S
C1887 H1857 0.950 . S
C1887 C1882 1.363 1_554 S
C1887 C1886 1.415 . S
H1888 C1885 0.999 . S
H1889 C1870 0.913 . S
H1890 C1908 0.951 . S
H1891 C1910 0.951 . S
H1892 C1912 0.950 . S
H1893 C1913 0.950 . S
H1894 C1915 0.950 . S
H1895 C1918 0.950 . S
H1896 C1919 0.950 . S
H1897 C1921 0.950 . S
H1898 C1922 0.950 . S
H1899 C1923 0.951 . S
H1900 C1925 0.951 . S
H1901 C1927 0.950 . S
H1902 C1928 0.950 . S
H1903 C1930 0.950 . S
H1904 C1933 0.950 . S
H1905 C1934 0.950 . S
H1906 C1936 0.950 . S
H1907 C1937 0.950 . S
C1908 H1890 0.951 . S
C1908 C1909 1.366 . S
C1908 C1910 1.388 . S
C1909 C1908 1.366 . S
C1909 C1913 1.385 . S
C1910 H1891 0.951 . S
C1910 C1908 1.388 . S
C1910 C1911 1.366 . S
C1911 C1910 1.366 . S
C1911 C1912 1.414 . S
C1911 C1914 1.499 . S
C1912 H1892 0.950 . S
C1912 C1911 1.414 . S
C1912 C1913 1.374 . S
C1913 H1893 0.950 . S
C1913 C1909 1.385 . S
C1913 C1912 1.374 . S
C1914 C1911 1.499 . S
C1914 C1915 1.373 . S
C1914 C1916 1.389 . S
C1915 H1894 0.950 . S
C1915 C1914 1.373 . S
C1915 C1931 1.377 . S
C1916 C1914 1.389 . S
C1916 C1917 1.524 . S
C1916 C1930 1.377 . S
C1917 C1916 1.524 . S
C1917 C1918 1.397 . S
C1917 C1922 1.363 . S
C1918 H1895 0.950 . S
C1918 C1917 1.397 . S
C1918 C1919 1.334 . S
C1919 H1896 0.950 . S
C1919 C1918 1.334 . S
C1919 C1920 1.287 . S
C1920 C1919 1.287 . S
C1920 C1921 1.524 . S
C1920 H1939 0.913 . S
C1921 H1897 0.950 . S
C1921 C1920 1.524 . S
C1921 C1922 1.415 . S
C1922 H1898 0.950 . S
C1922 C1917 1.363 . S
C1922 C1921 1.415 . S
C1923 H1899 0.951 . S
C1923 C1924 1.366 . S
C1923 C1925 1.388 . S
C1924 C1923 1.366 . S
C1924 C1928 1.385 . S
C1925 H1900 0.951 . S
C1925 C1923 1.388 . S
C1925 C1926 1.366 . S
C1926 C1925 1.366 . S
C1926 C1927 1.414 . S
C1926 C1929 1.499 . S
C1927 H1901 0.950 . S
C1927 C1926 1.414 . S
C1927 C1928 1.374 . S
C1928 H1902 0.950 . S
C1928 C1924 1.385 . S
C1928 C1927 1.374 . S
C1929 C1926 1.499 . S
C1929 C1930 1.373 . S
C1929 C1931 1.389 . S
C1930 H1903 0.950 . S
C1930 C1916 1.377 . S
C1930 C1929 1.373 . S
C1931 C1915 1.377 . S
C1931 C1929 1.389 . S
C1931 C1932 1.524 . S
C1932 C1931 1.524 . S
C1932 C1933 1.397 . S
C1932 C1937 1.363 . S
C1933 H1904 0.950 . S
C1933 C1932 1.397 . S
C1933 C1934 1.334 . S
C1934 H1905 0.950 . S
C1934 C1933 1.334 . S
C1934 C1935 1.287 . S
C1935 C1934 1.287 . S
C1935 C1936 1.524 . S
C1935 H1938 0.999 . S
C1936 H1906 0.950 . S
C1936 C1935 1.524 . S
C1936 C1937 1.415 . S
C1937 H1907 0.950 . S
C1937 C1932 1.363 . S
C1937 C1936 1.415 . S
H1938 C1935 0.999 . S
H1939 C1920 0.913 . S
H1940 C1958 0.951 . S
H1941 C1960 0.951 . S
H1942 C1962 0.950 . S
H1943 C1963 0.950 . S
H1944 C1965 0.950 . S
H1945 C1968 0.950 . S
H1946 C1969 0.950 . S
H1947 C1971 0.950 . S
H1948 C1972 0.950 . S
H1949 C1973 0.951 . S
H1950 C1975 0.951 . S
H1951 C1977 0.950 . S
H1952 C1978 0.950 . S
H1953 C1980 0.950 . S
H1954 C1983 0.950 . S
H1955 C1984 0.950 . S
H1956 C1986 0.950 . S
H1957 C1987 0.950 . S
C1958 H1940 0.951 . S
C1958 C1959 1.366 . S
C1958 C1960 1.388 . S
C1959 C1958 1.366 . S
C1959 C1963 1.385 . S
C1960 H1941 0.951 . S
C1960 C1958 1.388 . S
C1960 C1961 1.366 . S
C1961 C1960 1.366 . S
C1961 C1962 1.414 . S
C1961 C1964 1.499 . S
C1962 H1942 0.950 . S
C1962 C1961 1.414 . S
C1962 C1963 1.374 . S
C1963 H1943 0.950 . S
C1963 C1959 1.385 . S
C1963 C1962 1.374 . S
C1964 C1961 1.499 . S
C1964 C1965 1.373 . S
C1964 C1966 1.356 1_545 S
C1965 H1944 0.950 . S
C1965 C1964 1.373 . S
C1965 C1981 1.377 . S
C1966 C1964 1.356 1_565 S
C1966 C1967 1.526 . S
C1966 C1980 1.410 . S
C1967 C1966 1.526 . S
C1967 C1968 1.397 1_565 S
C1967 C1972 1.363 . S
C1968 H1945 0.950 . S
C1968 C1967 1.397 1_545 S
C1968 C1969 1.334 . S
C1969 H1946 0.950 . S
C1969 C1968 1.334 . S
C1969 C1970 1.287 1_545 S
C1970 C1969 1.287 1_565 S
C1970 C1971 1.524 . S
C1970 H1989 0.913 . S
C1971 H1947 0.950 . S
C1971 C1970 1.524 . S
C1971 C1972 1.415 . S
C1972 H1948 0.950 . S
C1972 C1967 1.363 . S
C1972 C1971 1.415 . S
C1973 H1949 0.951 . S
C1973 C1974 1.366 . S
C1973 C1975 1.388 . S
C1974 C1973 1.366 . S
C1974 C1978 1.385 . S
C1975 H1950 0.951 . S
C1975 C1973 1.388 . S
C1975 C1976 1.366 . S
C1976 C1975 1.366 . S
C1976 C1977 1.414 . S
C1976 C1979 1.499 . S
C1977 H1951 0.950 . S
C1977 C1976 1.414 . S
C1977 C1978 1.374 . S
C1978 H1952 0.950 . S
C1978 C1974 1.385 . S
C1978 C1977 1.374 . S
C1979 C1976 1.499 . S
C1979 C1980 1.373 . S
C1979 C1981 1.389 1_565 S
C1980 H1953 0.950 . S
C1980 C1966 1.410 . S
C1980 C1979 1.373 . S
C1981 C1965 1.377 . S
C1981 C1979 1.389 1_545 S
C1981 C1982 1.524 . S
C1982 C1981 1.524 . S
C1982 C1983 1.397 1_545 S
C1982 C1987 1.363 . S
C1983 H1954 0.950 . S
C1983 C1982 1.397 1_565 S
C1983 C1984 1.334 . S
C1984 H1955 0.950 . S
C1984 C1983 1.334 . S
C1984 C1985 1.287 1_565 S
C1985 C1984 1.287 1_545 S
C1985 C1986 1.524 . S
C1985 H1988 0.999 . S
C1986 H1956 0.950 . S
C1986 C1985 1.524 . S
C1986 C1987 1.415 . S
C1987 H1957 0.950 . S
C1987 C1982 1.363 . S
C1987 C1986 1.415 . S
H1988 C1985 0.999 . S
H1989 C1970 0.913 . S
H1990 C2008 0.951 . S
H1991 C2010 0.951 . S
H1992 C2012 0.950 . S
H1993 C2013 0.950 . S
H1994 C2015 0.950 . S
H1995 C2018 0.950 . S
H1996 C2019 0.950 . S
H1997 C2021 0.950 . S
H1998 C2022 0.950 . S
H1999 C2023 0.951 . S
H2000 C2025 0.951 . S
H2001 C2027 0.950 . S
H2002 C2028 0.950 . S
H2003 C2030 0.950 . S
H2004 C2033 0.950 . S
H2005 C2034 0.950 . S
H2006 C2036 0.950 . S
H2007 C2037 0.950 . S
C2008 H1990 0.951 . S
C2008 C2009 1.366 . S
C2008 C2010 1.388 . S
C2009 C2008 1.366 . S
C2009 C2013 1.385 . S
C2010 H1991 0.951 . S
C2010 C2008 1.388 . S
C2010 C2011 1.366 . S
C2011 C2010 1.366 . S
C2011 C2012 1.414 . S
C2011 C2014 1.499 . S
C2012 H1992 0.950 . S
C2012 C2011 1.414 . S
C2012 C2013 1.374 . S
C2013 H1993 0.950 . S
C2013 C2009 1.385 . S
C2013 C2012 1.374 . S
C2014 C2011 1.499 . S
C2014 C2015 1.373 . S
C2014 C2016 1.389 . S
C2015 H1994 0.950 . S
C2015 C2014 1.373 . S
C2015 C2031 1.377 . S
C2016 C2014 1.389 . S
C2016 C2017 1.524 . S
C2016 C2030 1.377 . S
C2017 C2016 1.524 . S
C2017 C2018 1.397 . S
C2017 C2022 1.363 . S
C2018 H1995 0.950 . S
C2018 C2017 1.397 . S
C2018 C2019 1.334 . S
C2019 H1996 0.950 . S
C2019 C2018 1.334 . S
C2019 C2020 1.287 . S
C2020 C2019 1.287 . S
C2020 C2021 1.524 . S
C2020 H2039 0.913 . S
C2021 H1997 0.950 . S
C2021 C2020 1.524 . S
C2021 C2022 1.415 . S
C2022 H1998 0.950 . S
C2022 C2017 1.363 . S
C2022 C2021 1.415 . S
C2023 H1999 0.951 . S
C2023 C2024 1.366 . S
C2023 C2025 1.388 . S
C2024 C2023 1.366 . S
C2024 C2028 1.385 . S
C2025 H2000 0.951 . S
C2025 C2023 1.388 . S
C2025 C2026 1.366 . S
C2026 C2025 1.366 . S
C2026 C2027 1.414 . S
C2026 C2029 1.499 . S
C2027 H2001 0.950 . S
C2027 C2026 1.414 . S
C2027 C2028 1.374 . S
C2028 H2002 0.950 . S
C2028 C2024 1.385 . S
C2028 C2027 1.374 . S
C2029 C2026 1.499 . S
C2029 C2030 1.373 . S
C2029 C2031 1.389 . S
C2030 H2003 0.950 . S
C2030 C2016 1.377 . S
C2030 C2029 1.373 . S
C2031 C2015 1.377 . S
C2031 C2029 1.389 . S
C2031 C2032 1.524 . S
C2032 C2031 1.524 . S
C2032 C2033 1.397 . S
C2032 C2037 1.363 . S
C2033 H2004 0.950 . S
C2033 C2032 1.397 . S
C2033 C2034 1.334 . S
C2034 H2005 0.950 . S
C2034 C2033 1.334 . S
C2034 C2035 1.287 . S
C2035 C2034 1.287 . S
C2035 C2036 1.524 . S
C2035 H2038 0.999 . S
C2036 H2006 0.950 . S
C2036 C2035 1.524 . S
C2036 C2037 1.415 . S
C2037 H2007 0.950 . S
C2037 C2032 1.363 . S
C2037 C2036 1.415 . S
H2038 C2035 0.999 . S
H2039 C2020 0.913 . S
H2040 C2058 0.951 . S
H2041 C2060 0.951 . S
H2042 C2062 0.950 . S
H2043 C2063 0.950 . S
H2044 C2065 0.950 . S
H2045 C2068 0.950 . S
H2046 C2069 0.950 . S
H2047 C2071 0.950 . S
H2048 C2072 0.950 . S
H2049 C2073 0.951 . S
H2050 C2075 0.951 . S
H2051 C2077 0.950 . S
H2052 C2078 0.950 . S
H2053 C2080 0.950 . S
H2054 C2083 0.950 . S
H2055 C2084 0.950 . S
H2056 C2086 0.950 . S
H2057 C2087 0.950 . S
C2058 H2040 0.951 . S
C2058 C2059 1.366 . S
C2058 C2060 1.388 . S
C2059 C2058 1.366 . S
C2059 C2063 1.385 . S
C2060 H2041 0.951 . S
C2060 C2058 1.388 . S
C2060 C2061 1.366 . S
C2061 C2060 1.366 . S
C2061 C2062 1.414 . S
C2061 C2064 1.499 . S
C2062 H2042 0.950 . S
C2062 C2061 1.414 . S
C2062 C2063 1.374 . S
C2063 H2043 0.950 . S
C2063 C2059 1.385 . S
C2063 C2062 1.374 . S
C2064 C2061 1.499 . S
C2064 C2065 1.373 . S
C2064 C2066 1.389 . S
C2065 H2044 0.950 . S
C2065 C2064 1.373 . S
C2065 C2081 1.377 . S
C2066 C2064 1.389 . S
C2066 C2067 1.524 . S
C2066 C2080 1.377 . S
C2067 C2066 1.524 . S
C2067 C2068 1.397 . S
C2067 C2072 1.363 . S
C2068 H2045 0.950 . S
C2068 C2067 1.397 . S
C2068 C2069 1.334 . S
C2069 H2046 0.950 . S
C2069 C2068 1.334 . S
C2069 C2070 1.287 . S
C2070 C2069 1.287 . S
C2070 C2071 1.524 . S
C2070 H2089 0.913 . S
C2071 H2047 0.950 . S
C2071 C2070 1.524 . S
C2071 C2072 1.415 . S
C2072 H2048 0.950 . S
C2072 C2067 1.363 . S
C2072 C2071 1.415 . S
C2073 H2049 0.951 . S
C2073 C2074 1.366 . S
C2073 C2075 1.388 . S
C2074 C2073 1.366 . S
C2074 C2078 1.385 . S
C2075 H2050 0.951 . S
C2075 C2073 1.388 . S
C2075 C2076 1.366 . S
C2076 C2075 1.366 . S
C2076 C2077 1.414 . S
C2076 C2079 1.499 . S
C2077 H2051 0.950 . S
C2077 C2076 1.414 . S
C2077 C2078 1.374 . S
C2078 H2052 0.950 . S
C2078 C2074 1.385 . S
C2078 C2077 1.374 . S
C2079 C2076 1.499 . S
C2079 C2080 1.373 . S
C2079 C2081 1.389 . S
C2080 H2053 0.950 . S
C2080 C2066 1.377 . S
C2080 C2079 1.373 . S
C2081 C2065 1.377 . S
C2081 C2079 1.389 . S
C2081 C2082 1.524 . S
C2082 C2081 1.524 . S
C2082 C2083 1.397 . S
C2082 C2087 1.363 . S
C2083 H2054 0.950 . S
C2083 C2082 1.397 . S
C2083 C2084 1.334 . S
C2084 H2055 0.950 . S
C2084 C2083 1.334 . S
C2084 C2085 1.287 . S
C2085 C2084 1.287 . S
C2085 C2086 1.524 . S
C2085 H2088 0.999 . S
C2086 H2056 0.950 . S
C2086 C2085 1.524 . S
C2086 C2087 1.415 . S
C2087 H2057 0.950 . S
C2087 C2082 1.363 . S
C2087 C2086 1.415 . S
H2088 C2085 0.999 . S
H2089 C2070 0.913 . S
H2090 C2108 0.951 . S
H2091 C2110 0.951 . S
H2092 C2112 0.950 . S
H2093 C2113 0.950 . S
H2094 C2115 0.950 . S
H2095 C2118 0.950 . S
H2096 C2119 0.950 . S
H2097 C2121 0.950 . S
H2098 C2122 0.950 . S
H2099 C2123 0.951 . S
H2100 C2125 0.951 . S
H2101 C2127 0.950 . S
H2102 C2128 0.950 . S
H2103 C2130 0.950 . S
H2104 C2133 0.950 . S
H2105 C2134 0.950 . S
H2106 C2136 0.950 . S
H2107 C2137 0.950 . S
C2108 H2090 0.951 . S
C2108 C2109 1.366 . S
C2108 C2110 1.388 . S
C2109 C2108 1.366 . S
C2109 C2113 1.385 . S
C2110 H2091 0.951 . S
C2110 C2108 1.388 . S
C2110 C2111 1.366 . S
C2111 C2110 1.366 . S
C2111 C2112 1.414 . S
C2111 C2114 1.499 . S
C2112 H2092 0.950 . S
C2112 C2111 1.414 . S
C2112 C2113 1.374 . S
C2113 H2093 0.950 . S
C2113 C2109 1.385 . S
C2113 C2112 1.374 . S
C2114 C2111 1.499 . S
C2114 C2115 1.373 . S
C2114 C2116 1.389 . S
C2115 H2094 0.950 . S
C2115 C2114 1.373 . S
C2115 C2131 1.377 . S
C2116 C2114 1.389 . S
C2116 C2117 1.524 . S
C2116 C2130 1.377 . S
C2117 C2116 1.524 . S
C2117 C2118 1.397 . S
C2117 C2122 1.363 . S
C2118 H2095 0.950 . S
C2118 C2117 1.397 . S
C2118 C2119 1.334 . S
C2119 H2096 0.950 . S
C2119 C2118 1.334 . S
C2119 C2120 1.287 . S
C2120 C2119 1.287 . S
C2120 C2121 1.524 . S
C2120 H2139 0.913 . S
C2121 H2097 0.950 . S
C2121 C2120 1.524 . S
C2121 C2122 1.415 . S
C2122 H2098 0.950 . S
C2122 C2117 1.363 . S
C2122 C2121 1.415 . S
C2123 H2099 0.951 . S
C2123 C2124 1.366 . S
C2123 C2125 1.388 . S
C2124 C2123 1.366 . S
C2124 C2128 1.385 . S
C2125 H2100 0.951 . S
C2125 C2123 1.388 . S
C2125 C2126 1.366 . S
C2126 C2125 1.366 . S
C2126 C2127 1.414 . S
C2126 C2129 1.499 . S
C2127 H2101 0.950 . S
C2127 C2126 1.414 . S
C2127 C2128 1.374 . S
C2128 H2102 0.950 . S
C2128 C2124 1.385 . S
C2128 C2127 1.374 . S
C2129 C2126 1.499 . S
C2129 C2130 1.373 . S
C2129 C2131 1.389 . S
C2130 H2103 0.950 . S
C2130 C2116 1.377 . S
C2130 C2129 1.373 . S
C2131 C2115 1.377 . S
C2131 C2129 1.389 . S
C2131 C2132 1.524 . S
C2132 C2131 1.524 . S
C2132 C2133 1.397 . S
C2132 C2137 1.363 . S
C2133 H2104 0.950 . S
C2133 C2132 1.397 . S
C2133 C2134 1.334 . S
C2134 H2105 0.950 . S
C2134 C2133 1.334 . S
C2134 C2135 1.287 . S
C2135 C2134 1.287 . S
C2135 C2136 1.524 . S
C2135 H2138 0.999 . S
C2136 H2106 0.950 . S
C2136 C2135 1.524 . S
C2136 C2137 1.415 . S
C2137 H2107 0.950 . S
C2137 C2132 1.363 . S
C2137 C2136 1.415 . S
H2138 C2135 0.999 . S
H2139 C2120 0.913 . S
H2140 C2158 0.951 . S
H2141 C2160 0.951 . S
H2142 C2162 0.950 . S
H2143 C2163 0.950 . S
H2144 C2165 0.950 . S
H2145 C2168 0.950 . S
H2146 C2169 0.950 . S
H2147 C2171 0.950 . S
H2148 C2172 0.950 . S
H2149 C2173 0.951 . S
H2150 C2175 0.951 . S
H2151 C2177 0.950 . S
H2152 C2178 0.950 . S
H2153 C2180 0.950 . S
H2154 C2183 0.950 . S
H2155 C2184 0.950 . S
H2156 C2186 0.950 . S
H2157 C2187 0.950 . S
C2158 H2140 0.951 . S
C2158 C2159 1.366 . S
C2158 C2160 1.388 . S
C2159 C2158 1.366 . S
C2159 C2163 1.385 . S
C2160 H2141 0.951 . S
C2160 C2158 1.388 . S
C2160 C2161 1.366 . S
C2161 C2160 1.366 . S
C2161 C2162 1.414 . S
C2161 C2164 1.499 . S
C2162 H2142 0.950 . S
C2162 C2161 1.414 . S
C2162 C2163 1.374 . S
C2163 H2143 0.950 . S
C2163 C2159 1.385 . S
C2163 C2162 1.374 . S
C2164 C2161 1.499 . S
C2164 C2165 1.373 . S
C2164 C2166 1.389 . S
C2165 H2144 0.950 . S
C2165 C2164 1.373 . S
C2165 C2181 1.377 . S
C2166 C2164 1.389 . S
C2166 C2167 1.524 . S
C2166 C2180 1.377 . S
C2167 C2166 1.524 . S
C2167 C2168 1.397 . S
C2167 C2172 1.363 . S
C2168 H2145 0.950 . S
C2168 C2167 1.397 . S
C2168 C2169 1.334 . S
C2169 H2146 0.950 . S
C2169 C2168 1.334 . S
C2169 C2170 1.287 . S
C2170 C2169 1.287 . S
C2170 C2171 1.524 . S
C2170 H2189 0.913 . S
C2171 H2147 0.950 . S
C2171 C2170 1.524 . S
C2171 C2172 1.415 . S
C2172 H2148 0.950 . S
C2172 C2167 1.363 . S
C2172 C2171 1.415 . S
C2173 H2149 0.951 . S
C2173 C2174 1.366 . S
C2173 C2175 1.388 . S
C2174 C2173 1.366 . S
C2174 C2178 1.385 . S
C2175 H2150 0.951 . S
C2175 C2173 1.388 . S
C2175 C2176 1.366 . S
C2176 C2175 1.366 . S
C2176 C2177 1.414 . S
C2176 C2179 1.499 . S
C2177 H2151 0.950 . S
C2177 C2176 1.414 . S
C2177 C2178 1.374 . S
C2178 H2152 0.950 . S
C2178 C2174 1.385 . S
C2178 C2177 1.374 . S
C2179 C2176 1.499 . S
C2179 C2180 1.373 . S
C2179 C2181 1.389 . S
C2180 H2153 0.950 . S
C2180 C2166 1.377 . S
C2180 C2179 1.373 . S
C2181 C2165 1.377 . S
C2181 C2179 1.389 . S
C2181 C2182 1.524 . S
C2182 C2181 1.524 . S
C2182 C2183 1.397 . S
C2182 C2187 1.363 . S
C2183 H2154 0.950 . S
C2183 C2182 1.397 . S
C2183 C2184 1.334 . S
C2184 H2155 0.950 . S
C2184 C2183 1.334 . S
C2184 C2185 1.287 . S
C2185 C2184 1.287 . S
C2185 C2186 1.524 . S
C2185 H2188 0.999 . S
C2186 H2156 0.950 . S
C2186 C2185 1.524 . S
C2186 C2187 1.415 . S
C2187 H2157 0.950 . S
C2187 C2182 1.363 . S
C2187 C2186 1.415 . S
H2188 C2185 0.999 . S
H2189 C2170 0.913 . S
H2190 C2208 0.908 1_655 S
H2191 C2210 0.947 . S
H2192 C2212 0.950 . S
H2193 C2213 0.950 . S
H2194 C2215 0.950 . S
H2195 C2218 0.950 . S
H2196 C2219 0.950 . S
H2197 C2221 0.950 . S
H2198 C2222 0.950 . S
H2199 C2223 0.951 . S
H2200 C2225 0.951 . S
H2201 C2227 0.950 . S
H2202 C2228 0.950 . S
H2203 C2230 0.936 1_655 S
H2204 C2233 0.950 1_655 S
H2205 C2234 0.950 . S
H2206 C2236 0.950 . S
H2207 C2237 0.950 . S
C2208 H2190 0.908 1_455 S
C2208 C2209 1.413 . S
C2208 C2210 1.385 1_455 S
C2209 C2208 1.413 . S
C2209 C2213 1.385 . S
C2210 H2191 0.947 . S
C2210 C2208 1.385 1_655 S
C2210 C2211 1.369 1_655 S
C2211 C2210 1.369 1_455 S
C2211 C2212 1.414 . S
C2211 C2214 1.499 . S
C2212 H2192 0.950 . S
C2212 C2211 1.414 . S
C2212 C2213 1.374 . S
C2213 H2193 0.950 . S
C2213 C2209 1.385 . S
C2213 C2212 1.374 . S
C2214 C2211 1.499 . S
C2214 C2215 1.373 . S
C2214 C2216 1.389 1_556 S
C2215 H2194 0.950 . S
C2215 C2214 1.373 . S
C2215 C2231 1.377 . S
C2216 C2214 1.389 1_554 S
C2216 C2217 1.524 . S
C2216 C2230 1.377 . S
C2217 C2216 1.524 . S
C2217 C2218 1.397 . S
C2217 C2222 1.363 1_455 S
C2218 H2195 0.950 . S
C2218 C2217 1.397 . S
C2218 C2219 1.334 . S
C2219 H2196 0.950 . S
C2219 C2218 1.334 . S
C2219 C2220 1.287 1_455 S
C2220 C2219 1.287 1_655 S
C2220 C2221 1.524 . S
C2220 H2239 0.913 . S
C2221 H2197 0.950 . S
C2221 C2220 1.524 . S
C2221 C2222 1.415 . S
C2222 H2198 0.950 . S
C2222 C2217 1.363 1_655 S
C2222 C2221 1.415 . S
C2223 H2199 0.951 . S
C2223 C2224 1.366 . S
C2223 C2225 1.388 . S
C2224 C2223 1.366 . S
C2224 C2228 1.385 1_455 S
C2225 H2200 0.951 . S
C2225 C2223 1.388 . S
C2225 C2226 1.366 . S
C2226 C2225 1.366 . S
C2226 C2227 1.414 1_455 S
C2226 C2229 1.499 . S
C2227 H2201 0.950 . S
C2227 C2226 1.414 1_655 S
C2227 C2228 1.374 . S
C2228 H2202 0.950 . S
C2228 C2224 1.385 1_655 S
C2228 C2227 1.374 . S
C2229 C2226 1.499 . S
C2229 C2230 1.373 . S
C2229 C2231 1.389 1_554 S
C2230 H2203 0.936 1_455 S
C2230 C2216 1.377 . S
C2230 C2229 1.373 . S
C2231 C2215 1.377 . S
C2231 C2229 1.389 1_556 S
C2231 C2232 1.524 . S
C2232 C2231 1.524 . S
C2232 C2233 1.397 . S
C2232 C2237 1.363 . S
C2233 H2204 0.950 1_455 S
C2233 C2232 1.397 . S
C2233 C2234 1.334 . S
C2234 H2205 0.950 . S
C2234 C2233 1.334 . S
C2234 C2235 1.287 . S
C2235 C2234 1.287 . S
C2235 C2236 1.524 . S
C2235 H2238 0.999 . S
C2236 H2206 0.950 . S
C2236 C2235 1.524 . S
C2236 C2237 1.415 . S
C2237 H2207 0.950 . S
C2237 C2232 1.363 . S
C2237 C2236 1.415 . S
H2238 C2235 0.999 . S
H2239 C2220 0.913 . S
H2240 C2258 0.951 . S
H2241 C2260 0.951 . S
H2242 C2262 0.950 . S
H2243 C2263 0.950 . S
H2244 C2265 0.950 . S
H2245 C2268 0.950 . S
H2246 C2269 0.950 . S
H2247 C2271 0.950 . S
H2248 C2272 0.950 . S
H2249 C2273 0.951 . S
H2250 C2275 0.951 . S
H2251 C2277 0.950 . S
H2252 C2278 0.950 . S
H2253 C2280 0.950 . S
H2254 C2283 0.950 . S
H2255 C2284 0.950 . S
H2256 C2286 0.950 . S
H2257 C2287 0.950 . S
C2258 H2240 0.951 . S
C2258 C2259 1.366 . S
C2258 C2260 1.388 . S
C2259 C2258 1.366 . S
C2259 C2263 1.385 . S
C2260 H2241 0.951 . S
C2260 C2258 1.388 . S
C2260 C2261 1.366 . S
C2261 C2260 1.366 . S
C2261 C2262 1.414 . S
C2261 C2264 1.499 . S
C2262 H2242 0.950 . S
C2262 C2261 1.414 . S
C2262 C2263 1.374 . S
C2263 H2243 0.950 . S
C2263 C2259 1.385 . S
C2263 C2262 1.374 . S
C2264 C2261 1.499 . S
C2264 C2265 1.373 . S
C2264 C2266 1.389 . S
C2265 H2244 0.950 . S
C2265 C2264 1.373 . S
C2265 C2281 1.377 . S
C2266 C2264 1.389 . S
C2266 C2267 1.524 . S
C2266 C2280 1.377 . S
C2267 C2266 1.524 . S
C2267 C2268 1.397 . S
C2267 C2272 1.363 . S
C2268 H2245 0.950 . S
C2268 C2267 1.397 . S
C2268 C2269 1.334 . S
C2269 H2246 0.950 . S
C2269 C2268 1.334 . S
C2269 C2270 1.287 . S
C2270 C2269 1.287 . S
C2270 C2271 1.524 . S
C2270 H2289 0.913 . S
C2271 H2247 0.950 . S
C2271 C2270 1.524 . S
C2271 C2272 1.415 . S
C2272 H2248 0.950 . S
C2272 C2267 1.363 . S
C2272 C2271 1.415 . S
C2273 H2249 0.951 . S
C2273 C2274 1.366 . S
C2273 C2275 1.388 . S
C2274 C2273 1.366 . S
C2274 C2278 1.385 . S
C2275 H2250 0.951 . S
C2275 C2273 1.388 . S
C2275 C2276 1.366 . S
C2276 C2275 1.366 . S
C2276 C2277 1.414 . S
C2276 C2279 1.499 . S
C2277 H2251 0.950 . S
C2277 C2276 1.414 . S
C2277 C2278 1.374 . S
C2278 H2252 0.950 . S
C2278 C2274 1.385 . S
C2278 C2277 1.374 . S
C2279 C2276 1.499 . S
C2279 C2280 1.373 . S
C2279 C2281 1.389 . S
C2280 H2253 0.950 . S
C2280 C2266 1.377 . S
C2280 C2279 1.373 . S
C2281 C2265 1.377 . S
C2281 C2279 1.389 . S
C2281 C2282 1.524 . S
C2282 C2281 1.524 . S
C2282 C2283 1.397 . S
C2282 C2287 1.363 . S
C2283 H2254 0.950 . S
C2283 C2282 1.397 . S
C2283 C2284 1.334 . S
C2284 H2255 0.950 . S
C2284 C2283 1.334 . S
C2284 C2285 1.287 . S
C2285 C2284 1.287 . S
C2285 C2286 1.524 . S
C2285 H2288 0.999 . S
C2286 H2256 0.950 . S
C2286 C2285 1.524 . S
C2286 C2287 1.415 . S
C2287 H2257 0.950 . S
C2287 C2282 1.363 . S
C2287 C2286 1.415 . S
H2288 C2285 0.999 . S
H2289 C2270 0.913 . S
H2290 C2308 0.951 . S
H2291 C2310 0.951 . S
H2292 C2312 0.950 . S
H2293 C2313 0.950 . S
H2294 C2315 0.950 . S
H2295 C2318 0.950 . S
H2296 C2319 0.950 . S
H2297 C2321 0.950 . S
H2298 C2322 0.950 . S
H2299 C2323 0.951 . S
H2300 C2325 0.951 . S
H2301 C2327 0.950 . S
H2302 C2328 0.950 . S
H2303 C2330 0.950 . S
H2304 C2333 0.950 . S
H2305 C2334 0.976 . S
H2306 C2336 0.950 . S
H2307 C2337 0.950 . S
C2308 H2290 0.951 . S
C2308 C2309 1.366 . S
C2308 C2310 1.388 . S
C2309 C2308 1.366 . S
C2309 C2313 1.385 . S
C2310 H2291 0.951 . S
C2310 C2308 1.388 . S
C2310 C2311 1.366 . S
C2311 C2310 1.366 . S
C2311 C2312 1.414 . S
C2311 C2314 1.499 . S
C2312 H2292 0.950 . S
C2312 C2311 1.414 . S
C2312 C2313 1.374 . S
C2313 H2293 0.950 . S
C2313 C2309 1.385 . S
C2313 C2312 1.374 . S
C2314 C2311 1.499 . S
C2314 C2315 1.373 . S
C2314 C2316 1.389 . S
C2315 H2294 0.950 . S
C2315 C2314 1.373 . S
C2315 C2331 1.377 . S
C2316 C2314 1.389 . S
C2316 C2317 1.524 . S
C2316 C2330 1.377 . S
C2317 C2316 1.524 . S
C2317 C2318 1.397 . S
C2317 C2322 1.363 . S
C2318 H2295 0.950 . S
C2318 C2317 1.397 . S
C2318 C2319 1.334 . S
C2319 H2296 0.950 . S
C2319 C2318 1.334 . S
C2319 C2320 1.287 . S
C2320 C2319 1.287 . S
C2320 C2321 1.524 . S
C2320 H2339 0.913 . S
C2321 H2297 0.950 . S
C2321 C2320 1.524 . S
C2321 C2322 1.415 . S
C2322 H2298 0.950 . S
C2322 C2317 1.363 . S
C2322 C2321 1.415 . S
C2323 H2299 0.951 . S
C2323 C2324 1.366 . S
C2323 C2325 1.388 . S
C2324 C2323 1.366 . S
C2324 C2328 1.385 . S
C2325 H2300 0.951 . S
C2325 C2323 1.388 . S
C2325 C2326 1.366 . S
C2326 C2325 1.366 . S
C2326 C2327 1.414 . S
C2326 C2329 1.499 . S
C2327 H2301 0.950 . S
C2327 C2326 1.414 . S
C2327 C2328 1.374 . S
C2328 H2302 0.950 . S
C2328 C2324 1.385 . S
C2328 C2327 1.374 . S
C2329 C2326 1.499 . S
C2329 C2330 1.373 . S
C2329 C2331 1.389 . S
C2330 H2303 0.950 . S
C2330 C2316 1.377 . S
C2330 C2329 1.373 . S
C2331 C2315 1.377 . S
C2331 C2329 1.389 . S
C2331 C2332 1.524 . S
C2332 C2331 1.524 . S
C2332 C2333 1.397 . S
C2332 C2337 1.363 . S
C2333 H2304 0.950 . S
C2333 C2332 1.397 . S
C2333 C2334 1.334 . S
C2334 H2305 0.976 . S
C2334 C2333 1.334 . S
C2334 C2335 1.293 . S
C2335 C2334 1.293 . S
C2335 C2336 1.533 . S
C2335 H2338 0.982 1_455 S
C2336 H2306 0.950 . S
C2336 C2335 1.533 . S
C2336 C2337 1.415 . S
C2337 H2307 0.950 . S
C2337 C2332 1.363 . S
C2337 C2336 1.415 . S
H2338 C2335 0.982 1_655 S
H2339 C2320 0.913 . S
H2340 C2358 0.951 . S
H2341 C2360 0.951 . S
H2342 C2362 0.950 1_556 S
H2343 C2363 0.950 . S
H2344 C2365 0.950 . S
H2345 C2368 0.950 . S
H2346 C2369 0.950 . S
H2347 C2371 0.950 . S
H2348 C2372 0.950 1_556 S
H2349 C2373 0.951 . S
H2350 C2375 0.951 . S
H2351 C2377 0.950 . S
H2352 C2378 0.950 . S
H2353 C2380 0.950 . S
H2354 C2383 0.950 . S
H2355 C2384 0.950 . S
H2356 C2386 0.950 . S
H2357 C2387 0.950 . S
C2358 H2340 0.951 . S
C2358 C2359 1.366 . S
C2358 C2360 1.388 . S
C2359 C2358 1.366 . S
C2359 C2363 1.385 . S
C2360 H2341 0.951 . S
C2360 C2358 1.388 . S
C2360 C2361 1.366 . S
C2361 C2360 1.366 . S
C2361 C2362 1.414 . S
C2361 C2364 1.499 1_554 S
C2362 H2342 0.950 1_554 S
C2362 C2361 1.414 . S
C2362 C2363 1.374 . S
C2363 H2343 0.950 . S
C2363 C2359 1.385 . S
C2363 C2362 1.374 . S
C2364 C2361 1.499 1_556 S
C2364 C2365 1.373 . S
C2364 C2366 1.389 . S
C2365 H2344 0.950 . S
C2365 C2364 1.373 . S
C2365 C2381 1.377 . S
C2366 C2364 1.389 . S
C2366 C2367 1.524 1_556 S
C2366 C2380 1.377 . S
C2367 C2366 1.524 1_554 S
C2367 C2368 1.397 . S
C2367 C2372 1.363 . S
C2368 H2345 0.950 . S
C2368 C2367 1.397 . S
C2368 C2369 1.334 . S
C2369 H2346 0.950 . S
C2369 C2368 1.334 . S
C2369 C2370 1.287 . S
C2370 C2369 1.287 . S
C2370 C2371 1.524 . S
C2370 H2389 0.913 . S
C2371 H2347 0.950 . S
C2371 C2370 1.524 . S
C2371 C2372 1.415 . S
C2372 H2348 0.950 1_554 S
C2372 C2367 1.363 . S
C2372 C2371 1.415 . S
C2373 H2349 0.951 . S
C2373 C2374 1.366 . S
C2373 C2375 1.388 . S
C2374 C2373 1.366 . S
C2374 C2378 1.385 . S
C2375 H2350 0.951 . S
C2375 C2373 1.388 . S
C2375 C2376 1.366 . S
C2376 C2375 1.366 . S
C2376 C2377 1.414 . S
C2376 C2379 1.499 . S
C2377 H2351 0.950 . S
C2377 C2376 1.414 . S
C2377 C2378 1.374 . S
C2378 H2352 0.950 . S
C2378 C2374 1.385 . S
C2378 C2377 1.374 . S
C2379 C2376 1.499 . S
C2379 C2380 1.373 . S
C2379 C2381 1.389 . S
C2380 H2353 0.950 . S
C2380 C2366 1.377 . S
C2380 C2379 1.373 . S
C2381 C2365 1.377 . S
C2381 C2379 1.389 . S
C2381 C2382 1.524 . S
C2382 C2381 1.524 . S
C2382 C2383 1.397 . S
C2382 C2387 1.363 . S
C2383 H2354 0.950 . S
C2383 C2382 1.397 . S
C2383 C2384 1.334 . S
C2384 H2355 0.950 . S
C2384 C2383 1.334 . S
C2384 C2385 1.287 . S
C2385 C2384 1.287 . S
C2385 C2386 1.524 . S
C2385 H2388 0.999 . S
C2386 H2356 0.950 . S
C2386 C2385 1.524 . S
C2386 C2387 1.415 . S
C2387 H2357 0.950 . S
C2387 C2382 1.363 . S
C2387 C2386 1.415 . S
H2388 C2385 0.999 . S
H2389 C2370 0.913 . S
H2390 C2408 0.951 . S
H2391 C2410 0.951 . S
H2392 C2412 0.950 . S
H2393 C2413 0.950 . S
H2394 C2415 0.950 . S
H2395 C2418 0.950 . S
H2396 C2419 0.950 . S
H2397 C2421 0.950 . S
H2398 C2422 0.950 . S
H2399 C2423 0.951 . S
H2400 C2425 0.951 . S
H2401 C2427 0.950 . S
H2402 C2428 0.950 . S
H2403 C2430 0.950 . S
H2404 C2433 0.950 . S
H2405 C2434 0.950 . S
H2406 C2436 0.950 . S
H2407 C2437 0.950 . S
C2408 H2390 0.951 . S
C2408 C2409 1.366 . S
C2408 C2410 1.388 . S
C2409 C2408 1.366 . S
C2409 C2413 1.385 . S
C2410 H2391 0.951 . S
C2410 C2408 1.388 . S
C2410 C2411 1.366 . S
C2411 C2410 1.366 . S
C2411 C2412 1.414 . S
C2411 C2414 1.499 . S
C2412 H2392 0.950 . S
C2412 C2411 1.414 . S
C2412 C2413 1.374 . S
C2413 H2393 0.950 . S
C2413 C2409 1.385 . S
C2413 C2412 1.374 . S
C2414 C2411 1.499 . S
C2414 C2415 1.373 . S
C2414 C2416 1.389 . S
C2415 H2394 0.950 . S
C2415 C2414 1.373 . S
C2415 C2431 1.377 . S
C2416 C2414 1.389 . S
C2416 C2417 1.524 . S
C2416 C2430 1.377 . S
C2417 C2416 1.524 . S
C2417 C2418 1.397 . S
C2417 C2422 1.363 . S
C2418 H2395 0.950 . S
C2418 C2417 1.397 . S
C2418 C2419 1.334 . S
C2419 H2396 0.950 . S
C2419 C2418 1.334 . S
C2419 C2420 1.287 . S
C2420 C2419 1.287 . S
C2420 C2421 1.524 . S
C2420 H2439 0.913 . S
C2421 H2397 0.950 . S
C2421 C2420 1.524 . S
C2421 C2422 1.415 . S
C2422 H2398 0.950 . S
C2422 C2417 1.363 . S
C2422 C2421 1.415 . S
C2423 H2399 0.951 . S
C2423 C2424 1.366 . S
C2423 C2425 1.388 . S
C2424 C2423 1.366 . S
C2424 C2428 1.385 . S
C2425 H2400 0.951 . S
C2425 C2423 1.388 . S
C2425 C2426 1.366 . S
C2426 C2425 1.366 . S
C2426 C2427 1.414 . S
C2426 C2429 1.499 . S
C2427 H2401 0.950 . S
C2427 C2426 1.414 . S
C2427 C2428 1.374 . S
C2428 H2402 0.950 . S
C2428 C2424 1.385 . S
C2428 C2427 1.374 . S
C2429 C2426 1.499 . S
C2429 C2430 1.373 . S
C2429 C2431 1.389 . S
C2430 H2403 0.950 . S
C2430 C2416 1.377 . S
C2430 C2429 1.373 . S
C2431 C2415 1.377 . S
C2431 C2429 1.389 . S
C2431 C2432 1.524 . S
C2432 C2431 1.524 . S
C2432 C2433 1.397 . S
C2432 C2437 1.363 . S
C2433 H2404 0.950 . S
C2433 C2432 1.397 . S
C2433 C2434 1.334 . S
C2434 H2405 0.950 . S
C2434 C2433 1.334 . S
C2434 C2435 1.287 . S
C2435 C2434 1.287 . S
C2435 C2436 1.524 . S
C2435 H2438 0.999 . S
C2436 H2406 0.950 . S
C2436 C2435 1.524 . S
C2436 C2437 1.415 . S
C2437 H2407 0.950 . S
C2437 C2432 1.363 . S
C2437 C2436 1.415 . S
H2438 C2435 0.999 . S
H2439 C2420 0.913 . S
H2440 C2458 0.951 . S
H2441 C2460 0.951 . S
H2442 C2462 0.950 . S
H2443 C2463 0.950 . S
H2444 C2465 0.950 . S
H2445 C2468 0.950 . S
H2446 C2469 0.950 . S
H2447 C2471 0.950 . S
H2448 C2472 0.950 . S
H2449 C2473 0.951 . S
H2450 C2475 0.951 . S
H2451 C2477 0.950 . S
H2452 C2478 0.950 . S
H2453 C2480 0.950 . S
H2454 C2483 0.950 . S
H2455 C2484 0.950 . S
H2456 C2486 0.950 . S
H2457 C2487 0.950 . S
C2458 H2440 0.951 . S
C2458 C2459 1.366 . S
C2458 C2460 1.388 . S
C2459 C2458 1.366 . S
C2459 C2463 1.385 . S
C2460 H2441 0.951 . S
C2460 C2458 1.388 . S
C2460 C2461 1.366 . S
C2461 C2460 1.366 . S
C2461 C2462 1.414 . S
C2461 C2464 1.499 . S
C2462 H2442 0.950 . S
C2462 C2461 1.414 . S
C2462 C2463 1.374 . S
C2463 H2443 0.950 . S
C2463 C2459 1.385 . S
C2463 C2462 1.374 . S
C2464 C2461 1.499 . S
C2464 C2465 1.373 . S
C2464 C2466 1.389 . S
C2465 H2444 0.950 . S
C2465 C2464 1.373 . S
C2465 C2481 1.377 . S
C2466 C2464 1.389 . S
C2466 C2467 1.524 . S
C2466 C2480 1.377 . S
C2467 C2466 1.524 . S
C2467 C2468 1.397 . S
C2467 C2472 1.363 . S
C2468 H2445 0.950 . S
C2468 C2467 1.397 . S
C2468 C2469 1.334 . S
C2469 H2446 0.950 . S
C2469 C2468 1.334 . S
C2469 C2470 1.287 . S
C2470 C2469 1.287 . S
C2470 C2471 1.524 . S
C2470 H2489 0.913 . S
C2471 H2447 0.950 . S
C2471 C2470 1.524 . S
C2471 C2472 1.415 . S
C2472 H2448 0.950 . S
C2472 C2467 1.363 . S
C2472 C2471 1.415 . S
C2473 H2449 0.951 . S
C2473 C2474 1.366 . S
C2473 C2475 1.388 . S
C2474 C2473 1.366 . S
C2474 C2478 1.385 . S
C2475 H2450 0.951 . S
C2475 C2473 1.388 . S
C2475 C2476 1.366 . S
C2476 C2475 1.366 . S
C2476 C2477 1.414 . S
C2476 C2479 1.499 . S
C2477 H2451 0.950 . S
C2477 C2476 1.414 . S
C2477 C2478 1.374 . S
C2478 H2452 0.950 . S
C2478 C2474 1.385 . S
C2478 C2477 1.374 . S
C2479 C2476 1.499 . S
C2479 C2480 1.373 . S
C2479 C2481 1.389 . S
C2480 H2453 0.950 . S
C2480 C2466 1.377 . S
C2480 C2479 1.373 . S
C2481 C2465 1.377 . S
C2481 C2479 1.389 . S
C2481 C2482 1.524 . S
C2482 C2481 1.524 . S
C2482 C2483 1.397 . S
C2482 C2487 1.363 . S
C2483 H2454 0.950 . S
C2483 C2482 1.397 . S
C2483 C2484 1.334 . S
C2484 H2455 0.950 . S
C2484 C2483 1.334 . S
C2484 C2485 1.287 . S
C2485 C2484 1.287 . S
C2485 C2486 1.524 . S
C2485 H2488 0.999 . S
C2486 H2456 0.950 . S
C2486 C2485 1.524 . S
C2486 C2487 1.415 . S
C2487 H2457 0.950 . S
C2487 C2482 1.363 . S
C2487 C2486 1.415 . S
H2488 C2485 0.999 . S
H2489 C2470 0.913 . S
H2490 C2508 0.951 . S
H2491 C2510 0.951 . S
H2492 C2512 0.950 . S
H2493 C2513 0.950 . S
H2494 C2515 0.950 . S
H2495 C2518 0.950 . S
H2496 C2519 0.950 . S
H2497 C2521 0.950 . S
H2498 C2522 0.950 . S
H2499 C2523 0.951 . S
H2500 C2525 0.951 . S
H2501 C2527 0.950 . S
H2502 C2528 0.950 . S
H2503 C2530 0.950 . S
H2504 C2533 0.950 . S
H2505 C2534 0.950 . S
H2506 C2536 0.950 . S
H2507 C2537 0.950 . S
C2508 H2490 0.951 . S
C2508 C2509 1.366 . S
C2508 C2510 1.388 . S
C2509 C2508 1.366 . S
C2509 C2513 1.385 . S
C2510 H2491 0.951 . S
C2510 C2508 1.388 . S
C2510 C2511 1.366 . S
C2511 C2510 1.366 . S
C2511 C2512 1.414 . S
C2511 C2514 1.499 . S
C2512 H2492 0.950 . S
C2512 C2511 1.414 . S
C2512 C2513 1.374 . S
C2513 H2493 0.950 . S
C2513 C2509 1.385 . S
C2513 C2512 1.374 . S
C2514 C2511 1.499 . S
C2514 C2515 1.373 . S
C2514 C2516 1.389 . S
C2515 H2494 0.950 . S
C2515 C2514 1.373 . S
C2515 C2531 1.377 . S
C2516 C2514 1.389 . S
C2516 C2517 1.524 . S
C2516 C2530 1.377 . S
C2517 C2516 1.524 . S
C2517 C2518 1.397 . S
C2517 C2522 1.363 . S
C2518 H2495 0.950 . S
C2518 C2517 1.397 . S
C2518 C2519 1.334 . S
C2519 H2496 0.950 . S
C2519 C2518 1.334 . S
C2519 C2520 1.287 . S
C2520 C2519 1.287 . S
C2520 C2521 1.524 . S
C2520 H2539 0.913 . S
C2521 H2497 0.950 . S
C2521 C2520 1.524 . S
C2521 C2522 1.415 . S
C2522 H2498 0.950 . S
C2522 C2517 1.363 . S
C2522 C2521 1.415 . S
C2523 H2499 0.951 . S
C2523 C2524 1.366 . S
C2523 C2525 1.388 . S
C2524 C2523 1.366 . S
C2524 C2528 1.385 . S
C2525 H2500 0.951 . S
C2525 C2523 1.388 . S
C2525 C2526 1.366 . S
C2526 C2525 1.366 . S
C2526 C2527 1.414 . S
C2526 C2529 1.499 . S
C2527 H2501 0.950 . S
C2527 C2526 1.414 . S
C2527 C2528 1.374 . S
C2528 H2502 0.950 . S
C2528 C2524 1.385 . S
C2528 C2527 1.374 . S
C2529 C2526 1.499 . S
C2529 C2530 1.373 . S
C2529 C2531 1.389 . S
C2530 H2503 0.950 . S
C2530 C2516 1.377 . S
C2530 C2529 1.373 . S
C2531 C2515 1.377 . S
C2531 C2529 1.389 . S
C2531 C2532 1.524 . S
C2532 C2531 1.524 . S
C2532 C2533 1.397 . S
C2532 C2537 1.363 . S
C2533 H2504 0.950 . S
C2533 C2532 1.397 . S
C2533 C2534 1.334 . S
C2534 H2505 0.950 . S
C2534 C2533 1.334 . S
C2534 C2535 1.287 . S
C2535 C2534 1.287 . S
C2535 C2536 1.524 . S
C2535 H2538 0.999 . S
C2536 H2506 0.950 . S
C2536 C2535 1.524 . S
C2536 C2537 1.415 . S
C2537 H2507 0.950 . S
C2537 C2532 1.363 . S
C2537 C2536 1.415 . S
H2538 C2535 0.999 . S
H2539 C2520 0.913 . S
H2540 C2558 0.951 . S
H2541 C2560 0.951 . S
H2542 C2562 0.950 . S
H2543 C2563 0.950 . S
H2544 C2565 0.950 . S
H2545 C2568 0.950 . S
H2546 C2569 0.950 . S
H2547 C2571 0.950 . S
H2548 C2572 0.950 . S
H2549 C2573 0.951 . S
H2550 C2575 0.951 . S
H2551 C2577 0.950 . S
H2552 C2578 0.950 . S
H2553 C2580 0.950 . S
H2554 C2583 0.950 . S
H2555 C2584 0.950 . S
H2556 C2586 0.950 . S
H2557 C2587 0.950 . S
C2558 H2540 0.951 . S
C2558 C2559 1.366 . S
C2558 C2560 1.388 1_556 S
C2559 C2558 1.366 . S
C2559 C2563 1.385 . S
C2560 H2541 0.951 . S
C2560 C2558 1.388 1_554 S
C2560 C2561 1.366 . S
C2561 C2560 1.366 . S
C2561 C2562 1.414 . S
C2561 C2564 1.499 . S
C2562 H2542 0.950 . S
C2562 C2561 1.414 . S
C2562 C2563 1.374 1_554 S
C2563 H2543 0.950 . S
C2563 C2559 1.385 . S
C2563 C2562 1.374 1_556 S
C2564 C2561 1.499 . S
C2564 C2565 1.373 . S
C2564 C2566 1.389 . S
C2565 H2544 0.950 . S
C2565 C2564 1.373 . S
C2565 C2581 1.377 . S
C2566 C2564 1.389 . S
C2566 C2567 1.524 . S
C2566 C2580 1.377 . S
C2567 C2566 1.524 . S
C2567 C2568 1.397 . S
C2567 C2572 1.363 . S
C2568 H2545 0.950 . S
C2568 C2567 1.397 . S
C2568 C2569 1.334 1_554 S
C2569 H2546 0.950 . S
C2569 C2568 1.334 1_556 S
C2569 C2570 1.287 . S
C2570 C2569 1.287 . S
C2570 C2571 1.524 1_556 S
C2570 H2589 0.913 . S
C2571 H2547 0.950 . S
C2571 C2570 1.524 1_554 S
C2571 C2572 1.415 . S
C2572 H2548 0.950 . S
C2572 C2567 1.363 . S
C2572 C2571 1.415 . S
C2573 H2549 0.951 . S
C2573 C2574 1.366 . S
C2573 C2575 1.388 . S
C2574 C2573 1.366 . S
C2574 C2578 1.385 . S
C2575 H2550 0.951 . S
C2575 C2573 1.388 . S
C2575 C2576 1.366 . S
C2576 C2575 1.366 . S
C2576 C2577 1.414 . S
C2576 C2579 1.499 . S
C2577 H2551 0.950 . S
C2577 C2576 1.414 . S
C2577 C2578 1.374 . S
C2578 H2552 0.950 . S
C2578 C2574 1.385 . S
C2578 C2577 1.374 . S
C2579 C2576 1.499 . S
C2579 C2580 1.373 . S
C2579 C2581 1.389 . S
C2580 H2553 0.950 . S
C2580 C2566 1.377 . S
C2580 C2579 1.373 . S
C2581 C2565 1.377 . S
C2581 C2579 1.389 . S
C2581 C2582 1.524 . S
C2582 C2581 1.524 . S
C2582 C2583 1.397 . S
C2582 C2587 1.363 . S
C2583 H2554 0.950 . S
C2583 C2582 1.397 . S
C2583 C2584 1.334 . S
C2584 H2555 0.950 . S
C2584 C2583 1.334 . S
C2584 C2585 1.287 . S
C2585 C2584 1.287 . S
C2585 C2586 1.524 . S
C2585 H2588 0.999 . S
C2586 H2556 0.950 . S
C2586 C2585 1.524 . S
C2586 C2587 1.415 . S
C2587 H2557 0.950 . S
C2587 C2582 1.363 . S
C2587 C2586 1.415 . S
H2588 C2585 0.999 . S
H2589 C2570 0.913 . S
H2590 C2608 0.951 . S
H2591 C2610 0.951 . S
H2592 C2612 0.950 . S
H2593 C2613 0.950 . S
H2594 C2615 0.950 . S
H2595 C2618 0.950 . S
H2596 C2619 0.950 . S
H2597 C2621 0.950 . S
H2598 C2622 0.950 . S
H2599 C2623 0.951 . S
H2600 C2625 0.951 . S
H2601 C2627 0.950 . S
H2602 C2628 0.950 . S
H2603 C2630 0.950 . S
H2604 C2633 0.950 . S
H2605 C2634 0.950 . S
H2606 C2636 0.950 . S
H2607 C2637 0.950 . S
C2608 H2590 0.951 . S
C2608 C2609 1.366 . S
C2608 C2610 1.388 . S
C2609 C2608 1.366 . S
C2609 C2613 1.385 . S
C2610 H2591 0.951 . S
C2610 C2608 1.388 . S
C2610 C2611 1.366 . S
C2611 C2610 1.366 . S
C2611 C2612 1.414 . S
C2611 C2614 1.499 . S
C2612 H2592 0.950 . S
C2612 C2611 1.414 . S
C2612 C2613 1.374 . S
C2613 H2593 0.950 . S
C2613 C2609 1.385 . S
C2613 C2612 1.374 . S
C2614 C2611 1.499 . S
C2614 C2615 1.373 . S
C2614 C2616 1.389 . S
C2615 H2594 0.950 . S
C2615 C2614 1.373 . S
C2615 C2631 1.377 . S
C2616 C2614 1.389 . S
C2616 C2617 1.524 . S
C2616 C2630 1.377 . S
C2617 C2616 1.524 . S
C2617 C2618 1.397 . S
C2617 C2622 1.363 . S
C2618 H2595 0.950 . S
C2618 C2617 1.397 . S
C2618 C2619 1.334 . S
C2619 H2596 0.950 . S
C2619 C2618 1.334 . S
C2619 C2620 1.287 . S
C2620 C2619 1.287 . S
C2620 C2621 1.524 . S
C2620 H2639 0.913 . S
C2621 H2597 0.950 . S
C2621 C2620 1.524 . S
C2621 C2622 1.415 . S
C2622 H2598 0.950 . S
C2622 C2617 1.363 . S
C2622 C2621 1.415 . S
C2623 H2599 0.951 . S
C2623 C2624 1.366 . S
C2623 C2625 1.388 . S
C2624 C2623 1.366 . S
C2624 C2628 1.385 . S
C2625 H2600 0.951 . S
C2625 C2623 1.388 . S
C2625 C2626 1.366 . S
C2626 C2625 1.366 . S
C2626 C2627 1.414 . S
C2626 C2629 1.499 . S
C2627 H2601 0.950 . S
C2627 C2626 1.414 . S
C2627 C2628 1.374 . S
C2628 H2602 0.950 . S
C2628 C2624 1.385 . S
C2628 C2627 1.374 . S
C2629 C2626 1.499 . S
C2629 C2630 1.373 . S
C2629 C2631 1.389 . S
C2630 H2603 0.950 . S
C2630 C2616 1.377 . S
C2630 C2629 1.373 . S
C2631 C2615 1.377 . S
C2631 C2629 1.389 . S
C2631 C2632 1.524 . S
C2632 C2631 1.524 . S
C2632 C2633 1.397 . S
C2632 C2637 1.363 . S
C2633 H2604 0.950 . S
C2633 C2632 1.397 . S
C2633 C2634 1.334 . S
C2634 H2605 0.950 . S
C2634 C2633 1.334 . S
C2634 C2635 1.287 . S
C2635 C2634 1.287 . S
C2635 C2636 1.524 . S
C2635 H2638 0.999 . S
C2636 H2606 0.950 . S
C2636 C2635 1.524 . S
C2636 C2637 1.415 . S
C2637 H2607 0.950 . S
C2637 C2632 1.363 . S
C2637 C2636 1.415 . S
H2638 C2635 0.999 . S
H2639 C2620 0.913 . S
H2640 C2658 0.951 . S
H2641 C2660 0.951 . S
H2642 C2662 0.950 . S
H2643 C2663 0.950 . S
H2644 C2665 0.950 . S
H2645 C2668 0.950 . S
H2646 C2669 0.950 . S
H2647 C2671 0.950 . S
H2648 C2672 0.950 . S
H2649 C2673 0.951 . S
H2650 C2675 0.951 . S
H2651 C2677 0.950 . S
H2652 C2678 0.950 . S
H2653 C2680 0.950 . S
H2654 C2683 0.950 . S
H2655 C2684 0.950 . S
H2656 C2686 0.950 . S
H2657 C2687 0.950 . S
C2658 H2640 0.951 . S
C2658 C2659 1.366 . S
C2658 C2660 1.388 . S
C2659 C2658 1.366 . S
C2659 C2663 1.385 . S
C2660 H2641 0.951 . S
C2660 C2658 1.388 . S
C2660 C2661 1.366 . S
C2661 C2660 1.366 . S
C2661 C2662 1.414 . S
C2661 C2664 1.499 . S
C2662 H2642 0.950 . S
C2662 C2661 1.414 . S
C2662 C2663 1.374 . S
C2663 H2643 0.950 . S
C2663 C2659 1.385 . S
C2663 C2662 1.374 . S
C2664 C2661 1.499 . S
C2664 C2665 1.373 . S
C2664 C2666 1.389 . S
C2665 H2644 0.950 . S
C2665 C2664 1.373 . S
C2665 C2681 1.377 . S
C2666 C2664 1.389 . S
C2666 C2667 1.524 . S
C2666 C2680 1.377 . S
C2667 C2666 1.524 . S
C2667 C2668 1.397 . S
C2667 C2672 1.363 . S
C2668 H2645 0.950 . S
C2668 C2667 1.397 . S
C2668 C2669 1.334 . S
C2669 H2646 0.950 . S
C2669 C2668 1.334 . S
C2669 C2670 1.287 . S
C2670 C2669 1.287 . S
C2670 C2671 1.524 . S
C2670 H2689 0.913 . S
C2671 H2647 0.950 . S
C2671 C2670 1.524 . S
C2671 C2672 1.415 . S
C2672 H2648 0.950 . S
C2672 C2667 1.363 . S
C2672 C2671 1.415 . S
C2673 H2649 0.951 . S
C2673 C2674 1.366 . S
C2673 C2675 1.388 . S
C2674 C2673 1.366 . S
C2674 C2678 1.385 . S
C2675 H2650 0.951 . S
C2675 C2673 1.388 . S
C2675 C2676 1.366 . S
C2676 C2675 1.366 . S
C2676 C2677 1.414 . S
C2676 C2679 1.499 . S
C2677 H2651 0.950 . S
C2677 C2676 1.414 . S
C2677 C2678 1.374 . S
C2678 H2652 0.950 . S
C2678 C2674 1.385 . S
C2678 C2677 1.374 . S
C2679 C2676 1.499 . S
C2679 C2680 1.373 . S
C2679 C2681 1.389 . S
C2680 H2653 0.950 . S
C2680 C2666 1.377 . S
C2680 C2679 1.373 . S
C2681 C2665 1.377 . S
C2681 C2679 1.389 . S
C2681 C2682 1.524 . S
C2682 C2681 1.524 . S
C2682 C2683 1.397 . S
C2682 C2687 1.363 . S
C2683 H2654 0.950 . S
C2683 C2682 1.397 . S
C2683 C2684 1.334 . S
C2684 H2655 0.950 . S
C2684 C2683 1.334 . S
C2684 C2685 1.287 . S
C2685 C2684 1.287 . S
C2685 C2686 1.524 . S
C2685 H2688 0.999 . S
C2686 H2656 0.950 . S
C2686 C2685 1.524 . S
C2686 C2687 1.415 . S
C2687 H2657 0.950 . S
C2687 C2682 1.363 . S
C2687 C2686 1.415 . S
H2688 C2685 0.999 . S
H2689 C2670 0.913 . S
H2690 C2708 0.951 . S
H2691 C2710 0.951 . S
H2692 C2712 0.950 . S
H2693 C2713 0.950 . S
H2694 C2715 0.950 . S
H2695 C2718 0.950 . S
H2696 C2719 0.950 . S
H2697 C2721 0.950 . S
H2698 C2722 0.950 . S
H2699 C2723 0.951 . S
H2700 C2725 0.951 . S
H2701 C2727 0.950 . S
H2702 C2728 0.950 . S
H2703 C2730 0.950 . S
H2704 C2733 0.950 . S
H2705 C2734 0.950 . S
H2706 C2736 0.950 . S
H2707 C2737 0.950 . S
C2708 H2690 0.951 . S
C2708 C2709 1.366 . S
C2708 C2710 1.388 . S
C2709 C2708 1.366 . S
C2709 C2713 1.385 . S
C2710 H2691 0.951 . S
C2710 C2708 1.388 . S
C2710 C2711 1.366 . S
C2711 C2710 1.366 . S
C2711 C2712 1.414 . S
C2711 C2714 1.499 . S
C2712 H2692 0.950 . S
C2712 C2711 1.414 . S
C2712 C2713 1.374 . S
C2713 H2693 0.950 . S
C2713 C2709 1.385 . S
C2713 C2712 1.374 . S
C2714 C2711 1.499 . S
C2714 C2715 1.373 . S
C2714 C2716 1.389 . S
C2715 H2694 0.950 . S
C2715 C2714 1.373 . S
C2715 C2731 1.377 . S
C2716 C2714 1.389 . S
C2716 C2717 1.524 . S
C2716 C2730 1.377 . S
C2717 C2716 1.524 . S
C2717 C2718 1.397 . S
C2717 C2722 1.363 . S
C2718 H2695 0.950 . S
C2718 C2717 1.397 . S
C2718 C2719 1.334 . S
C2719 H2696 0.950 . S
C2719 C2718 1.334 . S
C2719 C2720 1.287 . S
C2720 C2719 1.287 . S
C2720 C2721 1.524 . S
C2720 H2739 0.913 . S
C2721 H2697 0.950 . S
C2721 C2720 1.524 . S
C2721 C2722 1.415 . S
C2722 H2698 0.950 . S
C2722 C2717 1.363 . S
C2722 C2721 1.415 . S
C2723 H2699 0.951 . S
C2723 C2724 1.366 . S
C2723 C2725 1.388 . S
C2724 C2723 1.366 . S
C2724 C2728 1.385 . S
C2725 H2700 0.951 . S
C2725 C2723 1.388 . S
C2725 C2726 1.366 . S
C2726 C2725 1.366 . S
C2726 C2727 1.414 . S
C2726 C2729 1.499 . S
C2727 H2701 0.950 . S
C2727 C2726 1.414 . S
C2727 C2728 1.374 . S
C2728 H2702 0.950 . S
C2728 C2724 1.385 . S
C2728 C2727 1.374 . S
C2729 C2726 1.499 . S
C2729 C2730 1.373 . S
C2729 C2731 1.389 . S
C2730 H2703 0.950 . S
C2730 C2716 1.377 . S
C2730 C2729 1.373 . S
C2731 C2715 1.377 . S
C2731 C2729 1.389 . S
C2731 C2732 1.524 . S
C2732 C2731 1.524 . S
C2732 C2733 1.397 . S
C2732 C2737 1.363 . S
C2733 H2704 0.950 . S
C2733 C2732 1.397 . S
C2733 C2734 1.334 . S
C2734 H2705 0.950 . S
C2734 C2733 1.334 . S
C2734 C2735 1.287 . S
C2735 C2734 1.287 . S
C2735 C2736 1.524 . S
C2735 H2738 0.999 . S
C2736 H2706 0.950 . S
C2736 C2735 1.524 . S
C2736 C2737 1.415 . S
C2737 H2707 0.950 . S
C2737 C2732 1.363 . S
C2737 C2736 1.415 . S
H2738 C2735 0.999 . S
H2739 C2720 0.913 . S
H2740 C2758 0.951 . S
H2741 C2760 0.951 . S
H2742 C2762 0.950 . S
H2743 C2763 0.950 . S
H2744 C2765 0.950 . S
H2745 C2768 0.950 . S
H2746 C2769 0.950 . S
H2747 C2771 0.950 1_455 S
H2748 C2772 0.950 . S
H2749 C2773 0.951 . S
H2750 C2775 0.951 . S
H2751 C2777 0.950 . S
H2752 C2778 0.950 . S
H2753 C2780 0.950 . S
H2754 C2783 0.950 . S
H2755 C2784 0.950 . S
H2756 C2786 0.950 . S
H2757 C2787 0.950 . S
C2758 H2740 0.951 . S
C2758 C2759 1.366 . S
C2758 C2760 1.388 . S
C2759 C2758 1.366 . S
C2759 C2763 1.385 . S
C2760 H2741 0.951 . S
C2760 C2758 1.388 . S
C2760 C2761 1.366 . S
C2761 C2760 1.366 . S
C2761 C2762 1.414 . S
C2761 C2764 1.499 . S
C2762 H2742 0.950 . S
C2762 C2761 1.414 . S
C2762 C2763 1.374 . S
C2763 H2743 0.950 . S
C2763 C2759 1.385 . S
C2763 C2762 1.374 . S
C2764 C2761 1.499 . S
C2764 C2765 1.373 . S
C2764 C2766 1.389 . S
C2765 H2744 0.950 . S
C2765 C2764 1.373 . S
C2765 C2781 1.377 . S
C2766 C2764 1.389 . S
C2766 C2767 1.524 . S
C2766 C2780 1.377 . S
C2767 C2766 1.524 . S
C2767 C2768 1.397 . S
C2767 C2772 1.363 . S
C2768 H2745 0.950 . S
C2768 C2767 1.397 . S
C2768 C2769 1.334 . S
C2769 H2746 0.950 . S
C2769 C2768 1.334 . S
C2769 C2770 1.287 1_655 S
C2770 C2769 1.287 1_455 S
C2770 C2771 1.524 1_455 S
C2770 H2789 0.913 . S
C2771 H2747 0.950 1_655 S
C2771 C2770 1.524 1_655 S
C2771 C2772 1.415 . S
C2772 H2748 0.950 . S
C2772 C2767 1.363 . S
C2772 C2771 1.415 . S
C2773 H2749 0.951 . S
C2773 C2774 1.366 . S
C2773 C2775 1.388 . S
C2774 C2773 1.366 . S
C2774 C2778 1.385 . S
C2775 H2750 0.951 . S
C2775 C2773 1.388 . S
C2775 C2776 1.366 . S
C2776 C2775 1.366 . S
C2776 C2777 1.414 . S
C2776 C2779 1.499 . S
C2777 H2751 0.950 . S
C2777 C2776 1.414 . S
C2777 C2778 1.374 . S
C2778 H2752 0.950 . S
C2778 C2774 1.385 . S
C2778 C2777 1.374 . S
C2779 C2776 1.499 . S
C2779 C2780 1.373 . S
C2779 C2781 1.389 . S
C2780 H2753 0.950 . S
C2780 C2766 1.377 . S
C2780 C2779 1.373 . S
C2781 C2765 1.377 . S
C2781 C2779 1.389 . S
C2781 C2782 1.524 . S
C2782 C2781 1.524 . S
C2782 C2783 1.397 . S
C2782 C2787 1.363 . S
C2783 H2754 0.950 . S
C2783 C2782 1.397 . S
C2783 C2784 1.334 . S
C2784 H2755 0.950 . S
C2784 C2783 1.334 . S
C2784 C2785 1.287 . S
C2785 C2784 1.287 . S
C2785 C2786 1.524 . S
C2785 H2788 0.999 . S
C2786 H2756 0.950 . S
C2786 C2785 1.524 . S
C2786 C2787 1.415 . S
C2787 H2757 0.950 . S
C2787 C2782 1.363 . S
C2787 C2786 1.415 . S
H2788 C2785 0.999 . S
H2789 C2770 0.913 . S
H2790 C2808 0.951 . S
H2791 C2810 0.951 . S
H2792 C2812 0.950 . S
H2793 C2813 0.950 . S
H2794 C2815 0.950 . S
H2795 C2818 0.950 . S
H2796 C2819 0.950 . S
H2797 C2821 0.950 . S
H2798 C2822 0.950 . S
H2799 C2823 0.951 . S
H2800 C2825 0.951 . S
H2801 C2827 0.950 . S
H2802 C2828 0.950 . S
H2803 C2830 0.950 . S
H2804 C2833 0.950 . S
H2805 C2834 0.950 . S
H2806 C2836 0.950 . S
H2807 C2837 0.950 . S
C2808 H2790 0.951 . S
C2808 C2809 1.366 . S
C2808 C2810 1.388 . S
C2809 C2808 1.366 . S
C2809 C2813 1.385 . S
C2810 H2791 0.951 . S
C2810 C2808 1.388 . S
C2810 C2811 1.366 . S
C2811 C2810 1.366 . S
C2811 C2812 1.414 . S
C2811 C2814 1.499 . S
C2812 H2792 0.950 . S
C2812 C2811 1.414 . S
C2812 C2813 1.374 . S
C2813 H2793 0.950 . S
C2813 C2809 1.385 . S
C2813 C2812 1.374 . S
C2814 C2811 1.499 . S
C2814 C2815 1.373 . S
C2814 C2816 1.389 . S
C2815 H2794 0.950 . S
C2815 C2814 1.373 . S
C2815 C2831 1.377 . S
C2816 C2814 1.389 . S
C2816 C2817 1.524 . S
C2816 C2830 1.377 . S
C2817 C2816 1.524 . S
C2817 C2818 1.397 . S
C2817 C2822 1.363 . S
C2818 H2795 0.950 . S
C2818 C2817 1.397 . S
C2818 C2819 1.334 . S
C2819 H2796 0.950 . S
C2819 C2818 1.334 . S
C2819 C2820 1.287 . S
C2820 C2819 1.287 . S
C2820 C2821 1.524 . S
C2820 H2839 0.913 . S
C2821 H2797 0.950 . S
C2821 C2820 1.524 . S
C2821 C2822 1.415 . S
C2822 H2798 0.950 . S
C2822 C2817 1.363 . S
C2822 C2821 1.415 . S
C2823 H2799 0.951 . S
C2823 C2824 1.366 . S
C2823 C2825 1.388 . S
C2824 C2823 1.366 . S
C2824 C2828 1.385 . S
C2825 H2800 0.951 . S
C2825 C2823 1.388 . S
C2825 C2826 1.366 . S
C2826 C2825 1.366 . S
C2826 C2827 1.414 . S
C2826 C2829 1.499 . S
C2827 H2801 0.950 . S
C2827 C2826 1.414 . S
C2827 C2828 1.374 . S
C2828 H2802 0.950 . S
C2828 C2824 1.385 . S
C2828 C2827 1.374 . S
C2829 C2826 1.499 . S
C2829 C2830 1.373 . S
C2829 C2831 1.389 . S
C2830 H2803 0.950 . S
C2830 C2816 1.377 . S
C2830 C2829 1.373 . S
C2831 C2815 1.377 . S
C2831 C2829 1.389 . S
C2831 C2832 1.524 . S
C2832 C2831 1.524 . S
C2832 C2833 1.397 . S
C2832 C2837 1.363 . S
C2833 H2804 0.950 . S
C2833 C2832 1.397 . S
C2833 C2834 1.334 . S
C2834 H2805 0.950 . S
C2834 C2833 1.334 . S
C2834 C2835 1.287 . S
C2835 C2834 1.287 . S
C2835 C2836 1.524 . S
C2835 H2838 0.999 . S
C2836 H2806 0.950 . S
C2836 C2835 1.524 . S
C2836 C2837 1.415 . S
C2837 H2807 0.950 . S
C2837 C2832 1.363 . S
C2837 C2836 1.415 . S
H2838 C2835 0.999 . S
H2839 C2820 0.913 . S
H2840 C2858 0.951 . S
H2841 C2860 0.951 . S
H2842 C2862 0.950 . S
H2843 C2863 0.950 . S
H2844 C2865 0.950 . S
H2845 C2868 0.950 . S
H2846 C2869 0.950 . S
H2847 C2871 0.950 . S
H2848 C2872 0.950 . S
H2849 C2873 0.951 . S
H2850 C2875 0.951 1_554 S
H2851 C2877 0.950 . S
H2852 C2878 0.950 . S
H2853 C2880 0.950 . S
H2854 C2883 0.950 1_556 S
H2855 C2884 0.950 . S
H2856 C2886 0.950 . S
H2857 C2887 0.950 . S
C2858 H2840 0.951 . S
C2858 C2859 1.366 . S
C2858 C2860 1.388 . S
C2859 C2858 1.366 . S
C2859 C2863 1.385 . S
C2860 H2841 0.951 . S
C2860 C2858 1.388 . S
C2860 C2861 1.366 . S
C2861 C2860 1.366 . S
C2861 C2862 1.414 . S
C2861 C2864 1.499 . S
C2862 H2842 0.950 . S
C2862 C2861 1.414 . S
C2862 C2863 1.374 . S
C2863 H2843 0.950 . S
C2863 C2859 1.385 . S
C2863 C2862 1.374 . S
C2864 C2861 1.499 . S
C2864 C2865 1.373 . S
C2864 C2866 1.389 . S
C2865 H2844 0.950 . S
C2865 C2864 1.373 . S
C2865 C2881 1.377 . S
C2866 C2864 1.389 . S
C2866 C2867 1.524 . S
C2866 C2880 1.377 . S
C2867 C2866 1.524 . S
C2867 C2868 1.397 . S
C2867 C2872 1.363 . S
C2868 H2845 0.950 . S
C2868 C2867 1.397 . S
C2868 C2869 1.334 . S
C2869 H2846 0.950 . S
C2869 C2868 1.334 . S
C2869 C2870 1.287 . S
C2870 C2869 1.287 . S
C2870 C2871 1.524 . S
C2870 H2889 0.913 . S
C2871 H2847 0.950 . S
C2871 C2870 1.524 . S
C2871 C2872 1.415 . S
C2872 H2848 0.950 . S
C2872 C2867 1.363 . S
C2872 C2871 1.415 . S
C2873 H2849 0.951 . S
C2873 C2874 1.366 . S
C2873 C2875 1.388 . S
C2874 C2873 1.366 . S
C2874 C2878 1.385 . S
C2875 H2850 0.951 1_556 S
C2875 C2873 1.388 . S
C2875 C2876 1.366 . S
C2876 C2875 1.366 . S
C2876 C2877 1.414 . S
C2876 C2879 1.499 1_556 S
C2877 H2851 0.950 . S
C2877 C2876 1.414 . S
C2877 C2878 1.374 . S
C2878 H2852 0.950 . S
C2878 C2874 1.385 . S
C2878 C2877 1.374 . S
C2879 C2876 1.499 1_554 S
C2879 C2880 1.373 . S
C2879 C2881 1.389 . S
C2880 H2853 0.950 . S
C2880 C2866 1.377 . S
C2880 C2879 1.373 . S
C2881 C2865 1.377 . S
C2881 C2879 1.389 . S
C2881 C2882 1.524 . S
C2882 C2881 1.524 . S
C2882 C2883 1.397 . S
C2882 C2887 1.363 . S
C2883 H2854 0.950 1_554 S
C2883 C2882 1.397 . S
C2883 C2884 1.334 1_554 S
C2884 H2855 0.950 . S
C2884 C2883 1.334 1_556 S
C2884 C2885 1.287 1_556 S
C2885 C2884 1.287 1_554 S
C2885 C2886 1.524 . S
C2885 H2888 0.999 . S
C2886 H2856 0.950 . S
C2886 C2885 1.524 . S
C2886 C2887 1.415 . S
C2887 H2857 0.950 . S
C2887 C2882 1.363 . S
C2887 C2886 1.415 . S
H2888 C2885 0.999 . S
H2889 C2870 0.913 . S
H2890 C2908 0.951 . S
H2891 C2910 0.951 . S
H2892 C2912 0.950 . S
H2893 C2913 0.950 1_554 S
H2894 C2915 0.950 . S
H2895 C2918 0.950 . S
H2896 C2919 0.950 . S
H2897 C2921 0.950 . S
H2898 C2922 0.950 . S
H2899 C2923 0.951 . S
H2900 C2925 0.951 . S
H2901 C2927 0.950 . S
H2902 C2928 0.950 . S
H2903 C2930 0.950 . S
H2904 C2933 0.950 . S
H2905 C2934 0.950 . S
H2906 C2936 0.950 . S
H2907 C2937 0.950 . S
C2908 H2890 0.951 . S
C2908 C2909 1.366 . S
C2908 C2910 1.388 . S
C2909 C2908 1.366 . S
C2909 C2913 1.385 . S
C2910 H2891 0.951 . S
C2910 C2908 1.388 . S
C2910 C2911 1.366 . S
C2911 C2910 1.366 . S
C2911 C2912 1.414 . S
C2911 C2914 1.499 . S
C2912 H2892 0.950 . S
C2912 C2911 1.414 . S
C2912 C2913 1.374 . S
C2913 H2893 0.950 1_556 S
C2913 C2909 1.385 . S
C2913 C2912 1.374 . S
C2914 C2911 1.499 . S
C2914 C2915 1.373 . S
C2914 C2916 1.389 . S
C2915 H2894 0.950 . S
C2915 C2914 1.373 . S
C2915 C2931 1.377 . S
C2916 C2914 1.389 . S
C2916 C2917 1.524 . S
C2916 C2930 1.377 . S
C2917 C2916 1.524 . S
C2917 C2918 1.397 . S
C2917 C2922 1.363 . S
C2918 H2895 0.950 . S
C2918 C2917 1.397 . S
C2918 C2919 1.334 . S
C2919 H2896 0.950 . S
C2919 C2918 1.334 . S
C2919 C2920 1.287 . S
C2920 C2919 1.287 . S
C2920 C2921 1.524 . S
C2920 H2939 0.913 . S
C2921 H2897 0.950 . S
C2921 C2920 1.524 . S
C2921 C2922 1.415 . S
C2922 H2898 0.950 . S
C2922 C2917 1.363 . S
C2922 C2921 1.415 . S
C2923 H2899 0.951 . S
C2923 C2924 1.366 . S
C2923 C2925 1.388 . S
C2924 C2923 1.366 . S
C2924 C2928 1.385 . S
C2925 H2900 0.951 . S
C2925 C2923 1.388 . S
C2925 C2926 1.366 . S
C2926 C2925 1.366 . S
C2926 C2927 1.414 . S
C2926 C2929 1.499 . S
C2927 H2901 0.950 . S
C2927 C2926 1.414 . S
C2927 C2928 1.374 . S
C2928 H2902 0.950 . S
C2928 C2924 1.385 . S
C2928 C2927 1.374 . S
C2929 C2926 1.499 . S
C2929 C2930 1.373 . S
C2929 C2931 1.389 . S
C2930 H2903 0.950 . S
C2930 C2916 1.377 . S
C2930 C2929 1.373 . S
C2931 C2915 1.377 . S
C2931 C2929 1.389 . S
C2931 C2932 1.524 . S
C2932 C2931 1.524 . S
C2932 C2933 1.397 . S
C2932 C2937 1.363 . S
C2933 H2904 0.950 . S
C2933 C2932 1.397 . S
C2933 C2934 1.334 . S
C2934 H2905 0.950 . S
C2934 C2933 1.334 . S
C2934 C2935 1.287 . S
C2935 C2934 1.287 . S
C2935 C2936 1.524 . S
C2935 H2938 0.999 . S
C2936 H2906 0.950 . S
C2936 C2935 1.524 . S
C2936 C2937 1.415 . S
C2937 H2907 0.950 . S
C2937 C2932 1.363 . S
C2937 C2936 1.415 . S
H2938 C2935 0.999 . S
H2939 C2920 0.913 . S
H2940 C2958 0.951 . S
H2941 C2960 0.951 . S
H2942 C2962 0.950 . S
H2943 C2963 0.950 . S
H2944 C2965 0.950 . S
H2945 C2968 0.950 . S
H2946 C2969 0.950 . S
H2947 C2971 0.950 . S
H2948 C2972 0.950 . S
H2949 C2973 0.951 . S
H2950 C2975 0.951 . S
H2951 C2977 0.950 . S
H2952 C2978 0.950 . S
H2953 C2980 0.950 . S
H2954 C2983 0.950 . S
H2955 C2984 0.950 . S
H2956 C2986 0.950 . S
H2957 C2987 0.950 . S
C2958 H2940 0.951 . S
C2958 C2959 1.366 . S
C2958 C2960 1.388 . S
C2959 C2958 1.366 . S
C2959 C2963 1.385 . S
C2960 H2941 0.951 . S
C2960 C2958 1.388 . S
C2960 C2961 1.366 . S
C2961 C2960 1.366 . S
C2961 C2962 1.414 . S
C2961 C2964 1.499 . S
C2962 H2942 0.950 . S
C2962 C2961 1.414 . S
C2962 C2963 1.374 . S
C2963 H2943 0.950 . S
C2963 C2959 1.385 . S
C2963 C2962 1.374 . S
C2964 C2961 1.499 . S
C2964 C2965 1.373 . S
C2964 C2966 1.389 . S
C2965 H2944 0.950 . S
C2965 C2964 1.373 . S
C2965 C2981 1.377 . S
C2966 C2964 1.389 . S
C2966 C2967 1.524 . S
C2966 C2980 1.377 . S
C2967 C2966 1.524 . S
C2967 C2968 1.397 . S
C2967 C2972 1.363 . S
C2968 H2945 0.950 . S
C2968 C2967 1.397 . S
C2968 C2969 1.334 . S
C2969 H2946 0.950 . S
C2969 C2968 1.334 . S
C2969 C2970 1.287 . S
C2970 C2969 1.287 . S
C2970 C2971 1.524 . S
C2970 H2989 0.913 . S
C2971 H2947 0.950 . S
C2971 C2970 1.524 . S
C2971 C2972 1.415 . S
C2972 H2948 0.950 . S
C2972 C2967 1.363 . S
C2972 C2971 1.415 . S
C2973 H2949 0.951 . S
C2973 C2974 1.366 . S
C2973 C2975 1.388 . S
C2974 C2973 1.366 . S
C2974 C2978 1.385 . S
C2975 H2950 0.951 . S
C2975 C2973 1.388 . S
C2975 C2976 1.366 . S
C2976 C2975 1.366 . S
C2976 C2977 1.414 . S
C2976 C2979 1.499 . S
C2977 H2951 0.950 . S
C2977 C2976 1.414 . S
C2977 C2978 1.374 . S
C2978 H2952 0.950 . S
C2978 C2974 1.385 . S
C2978 C2977 1.374 . S
C2979 C2976 1.499 . S
C2979 C2980 1.373 . S
C2979 C2981 1.389 . S
C2980 H2953 0.950 . S
C2980 C2966 1.377 . S
C2980 C2979 1.373 . S
C2981 C2965 1.377 . S
C2981 C2979 1.389 . S
C2981 C2982 1.524 . S
C2982 C2981 1.524 . S
C2982 C2983 1.397 . S
C2982 C2987 1.363 . S
C2983 H2954 0.950 . S
C2983 C2982 1.397 . S
C2983 C2984 1.334 . S
C2984 H2955 0.950 . S
C2984 C2983 1.334 . S
C2984 C2985 1.287 . S
C2985 C2984 1.287 . S
C2985 C2986 1.524 . S
C2985 H2988 0.999 . S
C2986 H2956 0.950 . S
C2986 C2985 1.524 . S
C2986 C2987 1.415 . S
C2987 H2957 0.950 . S
C2987 C2982 1.363 . S
C2987 C2986 1.415 . S
H2988 C2985 0.999 . S
H2989 C2970 0.913 . S
H2990 C3008 0.951 . S
H2991 C3010 0.951 . S
H2992 C3012 0.950 . S
H2993 C3013 0.950 . S
H2994 C3015 0.950 . S
H2995 C3018 0.950 . S
H2996 C3019 0.950 . S
H2997 C3021 0.950 . S
H2998 C3022 0.950 . S
H2999 C3023 0.951 . S
H3000 C3025 0.951 . S
H3001 C3027 0.950 . S
H3002 C3028 0.950 . S
H3003 C3030 0.950 . S
H3004 C3033 0.950 . S
H3005 C3034 0.950 . S
H3006 C3036 0.950 . S
H3007 C3037 0.950 . S
C3008 H2990 0.951 . S
C3008 C3009 1.366 . S
C3008 C3010 1.388 . S
C3009 C3008 1.366 . S
C3009 C3013 1.385 . S
C3010 H2991 0.951 . S
C3010 C3008 1.388 . S
C3010 C3011 1.366 . S
C3011 C3010 1.366 . S
C3011 C3012 1.414 . S
C3011 C3014 1.499 . S
C3012 H2992 0.950 . S
C3012 C3011 1.414 . S
C3012 C3013 1.374 . S
C3013 H2993 0.950 . S
C3013 C3009 1.385 . S
C3013 C3012 1.374 . S
C3014 C3011 1.499 . S
C3014 C3015 1.373 . S
C3014 C3016 1.389 . S
C3015 H2994 0.950 . S
C3015 C3014 1.373 . S
C3015 C3031 1.377 . S
C3016 C3014 1.389 . S
C3016 C3017 1.524 . S
C3016 C3030 1.377 . S
C3017 C3016 1.524 . S
C3017 C3018 1.397 . S
C3017 C3022 1.363 . S
C3018 H2995 0.950 . S
C3018 C3017 1.397 . S
C3018 C3019 1.334 . S
C3019 H2996 0.950 . S
C3019 C3018 1.334 . S
C3019 C3020 1.287 . S
C3020 C3019 1.287 . S
C3020 C3021 1.524 . S
C3020 H3039 0.913 . S
C3021 H2997 0.950 . S
C3021 C3020 1.524 . S
C3021 C3022 1.415 . S
C3022 H2998 0.950 . S
C3022 C3017 1.363 . S
C3022 C3021 1.415 . S
C3023 H2999 0.951 . S
C3023 C3024 1.366 . S
C3023 C3025 1.388 . S
C3024 C3023 1.366 . S
C3024 C3028 1.385 . S
C3025 H3000 0.951 . S
C3025 C3023 1.388 . S
C3025 C3026 1.366 . S
C3026 C3025 1.366 . S
C3026 C3027 1.414 . S
C3026 C3029 1.499 . S
C3027 H3001 0.950 . S
C3027 C3026 1.414 . S
C3027 C3028 1.374 . S
C3028 H3002 0.950 . S
C3028 C3024 1.385 . S
C3028 C3027 1.374 . S
C3029 C3026 1.499 . S
C3029 C3030 1.373 . S
C3029 C3031 1.389 . S
C3030 H3003 0.950 . S
C3030 C3016 1.377 . S
C3030 C3029 1.373 . S
C3031 C3015 1.377 . S
C3031 C3029 1.389 . S
C3031 C3032 1.524 . S
C3032 C3031 1.524 . S
C3032 C3033 1.397 . S
C3032 C3037 1.363 . S
C3033 H3004 0.950 . S
C3033 C3032 1.397 . S
C3033 C3034 1.334 . S
C3034 H3005 0.950 . S
C3034 C3033 1.334 . S
C3034 C3035 1.287 . S
C3035 C3034 1.287 . S
C3035 C3036 1.524 . S
C3035 H3038 0.999 . S
C3036 H3006 0.950 . S
C3036 C3035 1.524 . S
C3036 C3037 1.415 . S
C3037 H3007 0.950 . S
C3037 C3032 1.363 . S
C3037 C3036 1.415 . S
H3038 C3035 0.999 . S
H3039 C3020 0.913 . S
C659 C6 0.936 . S
C674 C286 0.989 . S
C709 C59 0.861 . S
C724 C166 0.859 . S
C759 C206 0.526 . S
C774 C99 0.557 . S
C809 C139 0.816 . S
C824 C246 0.816 . S
C859 C455 0.830 . S
C874 C170 0.831 . S
C909 C330 2.600 . S
C924 C10 2.567 . S
C959 C415 0.853 . S
C974 C250 0.855 . S
C1009 C95 1.890 . S
C1024 C370 1.866 . S
C1059 C366 0.987 . S
C1074 C486 0.936 . S
C1109 C419 0.860 . S
C1124 C566 0.858 . S
C1159 C539 0.559 . S
C1174 C326 0.525 . S
C1209 C459 0.815 . S
C1224 C606 0.814 . S
C1259 C570 0.832 . S
C1274 C135 0.831 . S
C1309 C490 2.568 . S
C1324 C210 2.601 . S
C1359 C55 0.855 . S
C1374 C610 0.855 . S
C1409 C290 1.866 . S
C1424 C535 1.889 . S
C1459 C538 0.875 . S
C1474 C9 0.855 . S
C1509 C458 1.011 . S
C1524 C58 1.006 . S
C1559 C489 0.854 . S
C1574 C98 0.876 . S
C1609 C418 1.008 . S
C1624 C138 1.012 . S
C1659 C169 0.983 . S
C1674 C609 0.993 . S
C1709 C369 0.847 . S
C1724 C209 0.498 . S
C1759 C249 0.993 . S
C1774 C569 0.981 . S
C1809 C289 0.845 . S
C1824 C329 0.494 . S
C1859 C18 1.280 . S
C1874 C178 1.277 . S
C1909 C49 1.202 . S
C1924 C218 1.204 . S
C1959 C258 1.347 . S
C1974 C89 1.345 . S
C2009 C129 1.522 . S
C2024 C298 1.508 . S
C2059 C409 1.200 . S
C2074 C338 1.203 . S
C2109 C449 1.522 . S
C2124 C378 1.508 . S
C2159 C498 1.279 . S
C2174 C578 1.278 . S
C2209 C618 1.347 . S
C2224 C529 1.345 . S
C2259 C19 3.594 . S
C2274 C299 3.606 . S
C2309 C46 1.937 . S
C2324 C179 1.999 . S
C2359 C219 2.872 . S
C2374 C86 2.822 . S
C2409 C259 1.969 . S
C2424 C126 1.906 . S
C2459 C450 1.979 . S
C2474 C175 1.920 . S
C2509 C335 0.473 . S
C2524 C15 0.460 . S
C2559 C410 1.984 . S
C2574 C255 1.925 . S
C2609 C90 0.947 . S
C2624 C375 0.929 . S
C2659 C499 3.594 . S
C2674 C379 3.605 1_556 S
C2709 C579 1.999 . S
C2724 C406 1.938 . S
C2759 C526 2.824 . S
C2774 C339 2.874 . S
C2809 C619 1.969 . S
C2824 C446 1.907 . S
C2859 C575 1.919 . S
C2874 C130 1.978 . S
C2909 C215 0.472 1_556 S
C2924 C495 0.463 . S
C2959 C50 1.984 . S
C2974 C615 1.924 . S
C3009 C530 0.949 . S
C3024 C295 0.930 . S
