# Generated by pormake.
# Topology uog, (4)-cn, num edge types: 1
# Building blocks:
#     Node 0, Type 0, BuildingBlock: QUQFOY_clean_sbu_1, # of connection points: 4
#     Node 1, Type 0, BuildingBlock: QUQFOY_clean_sbu_1, # of connection points: 4
#     Node 2, Type 0, BuildingBlock: QUQFOY_clean_sbu_1, # of connection points: 4
#     Node 3, Type 0, BuildingBlock: QUQFOY_clean_sbu_1, # of connection points: 4
#     Node 4, Type 0, BuildingBlock: QUQFOY_clean_sbu_1, # of connection points: 4
#     Node 5, Type 0, BuildingBlock: QUQFOY_clean_sbu_1, # of connection points: 4
#     Edge 6, Type (0, 0), BuildingBlock: CIFDUS_clean_linker_0, # of connection points: 2
#     Edge 7, Type (0, 0), BuildingBlock: CIFDUS_clean_linker_0, # of connection points: 2
#     Edge 8, Type (0, 0), BuildingBlock: CIFDUS_clean_linker_0, # of connection points: 2
#     Edge 9, Type (0, 0), BuildingBlock: CIFDUS_clean_linker_0, # of connection points: 2
#     Edge 10, Type (0, 0), BuildingBlock: CIFDUS_clean_linker_0, # of connection points: 2
#     Edge 11, Type (0, 0), BuildingBlock: CIFDUS_clean_linker_0, # of connection points: 2
#     Edge 12, Type (0, 0), BuildingBlock: CIFDUS_clean_linker_0, # of connection points: 2
#     Edge 13, Type (0, 0), BuildingBlock: CIFDUS_clean_linker_0, # of connection points: 2
#     Edge 14, Type (0, 0), BuildingBlock: CIFDUS_clean_linker_0, # of connection points: 2
#     Edge 15, Type (0, 0), BuildingBlock: CIFDUS_clean_linker_0, # of connection points: 2
#     Edge 16, Type (0, 0), BuildingBlock: CIFDUS_clean_linker_0, # of connection points: 2
#     Edge 17, Type (0, 0), BuildingBlock: CIFDUS_clean_linker_0, # of connection points: 2
# Relax obj value: 0.096
# Max RMSD: 0.154
# Mean RMSD: 0.154
data_MOF--net-uog--node1-QUQFOY_clean_sbu_1--edge1-CIFDUS_clean_linker_0
_symmetry_space_group_name_H-M    P1
_symmetry_Int_Tables_number       1
_symmetry_cell_setting            triclinic
loop_
_symmetry_equiv_pos_as_xyz
'x, y, z'
_cell_length_a     25.184302
_cell_length_b     25.24664
_cell_length_c     38.214901
_cell_angle_alpha  90.15266
_cell_angle_beta   89.454913
_cell_angle_gamma 118.76814
loop_
_atom_site_label
_atom_site_type_symbol
_atom_site_fract_x
_atom_site_fract_y
_atom_site_fract_z
_atom_type_partial_charge
O0 O 0.65803 0.41518 0.18917 0.0
Cd1 Cd 0.69423 0.35871 0.18512 0.0
Cd2 Cd 0.58227 0.28121 0.16898 0.0
O3 O 0.56392 0.34296 0.19667 0.0
O4 O 0.76032 0.38764 0.22098 0.0
O5 O 0.67314 0.30301 0.22578 0.0
C6 C 0.72327 0.34173 0.23969 0.0
C7 C 0.55046 0.17799 0.1794 0.0
C8 C 0.60341 0.39896 0.19741 0.0
C9 C 0.67222 0.33155 0.11062 0.0
O10 O 0.61709 0.31082 0.11985 0.0
O11 O 0.71306 0.3446 0.13368 0.0
O12 O 0.51309 0.19485 0.16735 0.0
O13 O 0.6041 0.2196 0.18702 0.0
O14 O 0.22857 0.6397 0.51554 0.0
Cd15 Cd 0.31886 0.67652 0.50992 0.0
Cd16 Cd 0.29747 0.5654 0.5062 0.0
O17 O 0.2215 0.55508 0.53633 0.0
O18 O 0.35722 0.74982 0.54139 0.0
O19 O 0.3499 0.6612 0.55428 0.0
C20 C 0.36296 0.71485 0.56407 0.0
C21 C 0.38309 0.55339 0.519 0.0
C22 C 0.19839 0.58999 0.53161 0.0
C23 C 0.31696 0.62903 0.439 0.0
O24 O 0.28908 0.57807 0.45433 0.0
O25 O 0.34428 0.67738 0.45715 0.0
O26 O 0.33041 0.50666 0.51465 0.0
O27 O 0.38617 0.60568 0.51758 0.0
O28 O 0.61917 0.20758 0.85332 0.0
Cd29 Cd 0.66763 0.29915 0.84905 0.0
Cd30 Cd 0.75292 0.27505 0.83102 0.0
O31 O 0.69957 0.19546 0.85911 0.0
O32 O 0.63076 0.33248 0.88342 0.0
O33 O 0.71983 0.33675 0.89056 0.0
C34 C 0.67661 0.34472 0.90324 0.0
C35 C 0.85306 0.35054 0.84088 0.0
C36 C 0.6422 0.17409 0.86078 0.0
C37 C 0.69328 0.30581 0.77402 0.0
O38 O 0.72004 0.27592 0.78223 0.0
O39 O 0.67689 0.33061 0.79784 0.0
O40 O 0.84182 0.29866 0.8282 0.0
O41 O 0.80758 0.35813 0.84944 0.0
O42 O 0.41291 0.60701 0.18475 0.0
Cd43 Cd 0.37546 0.66163 0.17866 0.0
Cd44 Cd 0.49039 0.74496 0.16952 0.0
O45 O 0.5043 0.68039 0.19729 0.0
O46 O 0.30593 0.63301 0.21336 0.0
O47 O 0.39346 0.71653 0.21931 0.0
C48 C 0.34195 0.67837 0.23252 0.0
C49 C 0.52113 0.84783 0.18115 0.0
C50 C 0.46597 0.62399 0.1959 0.0
C51 C 0.41344 0.69833 0.1057 0.0
O52 O 0.46626 0.72111 0.11862 0.0
O53 O 0.36706 0.67922 0.12592 0.0
O54 O 0.56022 0.83121 0.17143 0.0
O55 O 0.4662 0.80614 0.18605 0.0
O56 O 0.81306 0.39186 0.52512 0.0
Cd57 Cd 0.72297 0.34867 0.51624 0.0
Cd58 Cd 0.74127 0.46152 0.51152 0.0
O59 O 0.81875 0.4787 0.54084 0.0
O60 O 0.68841 0.27287 0.54548 0.0
O61 O 0.67869 0.35336 0.5581 0.0
C62 C 0.67252 0.30182 0.56757 0.0
C63 C 0.65747 0.47688 0.52436 0.0
C64 C 0.84244 0.44386 0.53869 0.0
C65 C 0.72647 0.39283 0.44497 0.0
O66 O 0.74903 0.44413 0.45989 0.0
O67 O 0.70206 0.34441 0.46326 0.0
O68 O 0.7095 0.52203 0.516 0.0
O69 O 0.65448 0.42477 0.52718 0.0
O70 O 0.40049 0.80229 0.85087 0.0
Cd71 Cd 0.354 0.71063 0.84646 0.0
Cd72 Cd 0.26849 0.7338 0.82754 0.0
O73 O 0.31933 0.81355 0.85559 0.0
O74 O 0.39186 0.68083 0.8819 0.0
O75 O 0.29979 0.67035 0.8876 0.0
C76 C 0.34423 0.6661 0.90118 0.0
C77 C 0.16819 0.65804 0.83777 0.0
C78 C 0.37658 0.83529 0.85794 0.0
C79 C 0.33222 0.70431 0.77101 0.0
O80 O 0.30392 0.73304 0.77897 0.0
O81 O 0.34853 0.68018 0.79502 0.0
O82 O 0.17952 0.70943 0.82434 0.0
O83 O 0.21361 0.65098 0.84664 0.0
H84 H 0.62736 0.13157 0.18619 0.0
H85 H 0.43745 0.07883 0.17887 0.0
H86 H 0.41187 0.97224 0.18109 0.0
H87 H 0.4437 0.8942 0.18267 0.0
H88 H 0.63394 0.94685 0.1859 0.0
H89 H 0.65919 0.05342 0.18787 0.0
C90 C 0.58028 0.09679 0.18539 0.0
C91 C 0.5343 0.11327 0.18253 0.0
C92 C 0.56606 0.03561 0.18583 0.0
C93 C 0.47367 0.06751 0.18108 0.0
C94 C 0.45906 1.00654 0.18233 0.0
C95 C 0.49073 0.92892 0.18414 0.0
C96 C 0.53692 0.91245 0.18432 0.0
C97 C 0.50491 0.99008 0.18437 0.0
C98 C 0.59756 0.95817 0.18576 0.0
C99 C 0.61198 0.01913 0.18685 0.0
H100 H 0.39465 0.45157 0.52855 0.0
H101 H 0.49915 0.64549 0.51877 0.0
H102 H 0.5929 0.63989 0.52096 0.0
H103 H 0.64619 0.57972 0.52261 0.0
H104 H 0.54194 0.38606 0.53404 0.0
H105 H 0.44824 0.39203 0.53452 0.0
C106 C 0.43792 0.4926 0.52717 0.0
C107 C 0.43946 0.54874 0.52326 0.0
C108 C 0.49222 0.48925 0.52865 0.0
C109 C 0.4962 0.6015 0.52172 0.0
C110 C 0.55013 0.59844 0.5229 0.0
C111 C 0.60304 0.5389 0.52554 0.0
C112 C 0.60148 0.48257 0.52806 0.0
C113 C 0.54882 0.54253 0.52592 0.0
C114 C 0.54488 0.43017 0.53198 0.0
C115 C 0.49098 0.43342 0.53217 0.0
H116 H 0.88837 0.47036 0.84376 0.0
H117 H 0.9587 0.34472 0.84306 0.0
H118 H 0.06232 0.429 0.84439 0.0
H119 H 0.1329 0.5384 0.8433 0.0
H120 H 0.0625 0.66384 0.83924 0.0
H121 H 0.95891 0.5797 0.84232 0.0
C122 C 0.92636 0.46139 0.84425 0.0
C123 C 0.91581 0.40127 0.84354 0.0
C124 C 0.98578 0.51009 0.844 0.0
C125 C 0.96557 0.39049 0.84362 0.0
C126 C 0.02481 0.43869 0.84436 0.0
C127 C 0.09489 0.54738 0.84341 0.0
C128 C 0.10543 0.6074 0.84124 0.0
C129 C 0.03547 0.49868 0.84421 0.0
C130 C 0.05565 0.61815 0.84089 0.0
C131 C 0.99642 0.57003 0.84265 0.0
H132 H 0.10539 0.47796 0.54904 0.0
H133 H 0.1496 0.66486 0.53808 0.0
H134 H 0.04335 0.63757 0.5444 0.0
H135 H 0.93623 0.55923 0.54454 0.0
H136 H 0.89171 0.3722 0.55459 0.0
H137 H 0.9987 0.40096 0.5578 0.0
C138 C 0.09188 0.51277 0.5488 0.0
C139 C 0.1354 0.57309 0.54236 0.0
C140 C 0.03015 0.49675 0.55197 0.0
C141 C 0.117 0.61775 0.54232 0.0
C142 C 0.05608 0.60229 0.54595 0.0
C143 C 0.94993 0.52499 0.54835 0.0
C144 C 0.90602 0.46372 0.5487 0.0
C145 C 1.01193 0.54169 0.54949 0.0
C146 C 0.92464 0.41981 0.55366 0.0
C147 C 0.98594 0.43612 0.55543 0.0
H148 H 0.4979 0.89044 0.86841 0.0
H149 H 0.34654 0.92597 0.86482 0.0
H150 H 0.41614 0.03443 0.86942 0.0
H151 H 0.51987 0.11873 0.86821 0.0
H152 H 0.67134 0.08318 0.86911 0.0
H153 H 0.60131 0.97462 0.87222 0.0
C154 C 0.47986 0.92174 0.86899 0.0
C155 C 0.41698 0.90003 0.86579 0.0
C156 C 0.52015 0.98392 0.87094 0.0
C157 C 0.39461 0.94134 0.86706 0.0
C158 C 0.43444 1.00338 0.86955 0.0
C159 C 0.5378 0.0874 0.86948 0.0
C160 C 0.60094 0.10917 0.86797 0.0
C161 C 0.49733 0.02515 0.87053 0.0
C162 C 0.6231 0.06778 0.87005 0.0
C163 C 0.58304 1.00568 0.87168 0.0
H164 H 0.5792 0.63597 0.20503 0.0
H165 H 0.3893 0.50403 0.20536 0.0
H166 H 0.4143 0.42248 0.20916 0.0
H167 H 0.49003 0.38749 0.20584 0.0
H168 H 0.67998 0.51936 0.20548 0.0
H169 H 0.65491 0.60097 0.20865 0.0
C170 C 0.54333 0.58948 0.20659 0.0
C171 C 0.48259 0.57644 0.20433 0.0
C172 C 0.55792 0.54221 0.20841 0.0
C173 C 0.43665 0.51568 0.20652 0.0
C174 C 0.45079 0.46872 0.20867 0.0
C175 C 0.52591 0.43399 0.20703 0.0
C176 C 0.58669 0.44692 0.20484 0.0
C177 C 0.5113 0.48127 0.20857 0.0
C178 C 0.63261 0.50771 0.20663 0.0
C179 C 0.61842 0.55473 0.20843 0.0
H180 H 0.75791 0.35507 0.95295 0.0
H181 H 0.59112 0.36136 0.9386 0.0
H182 H 0.57735 0.36097 1.00188 0.0
H183 H 0.60683 0.34826 0.06066 0.0
H184 H 0.7726 0.34078 0.07597 0.0
H185 H 0.79264 0.35214 1.01271 0.0
C186 C 0.71915 0.3576 0.96363 0.0
C187 C 0.6753 0.35774 0.94097 0.0
C188 C 0.7108 0.35602 1.00013 0.0
C189 C 0.62544 0.36106 0.95534 0.0
C190 C 0.61731 0.3604 0.99156 0.0
C191 C 0.6475 0.34921 0.05023 0.0
C192 C 0.68764 0.3425 0.07289 0.0
C193 C 0.65865 0.35593 1.01408 0.0
C194 C 0.74078 0.34532 0.05903 0.0
C195 C 0.75218 0.35182 0.02289 0.0
H196 H 0.27615 0.58499 0.2763 0.0
H197 H 0.38711 0.77864 0.27387 0.0
H198 H 0.38859 0.78155 0.3379 0.0
H199 H 0.36535 0.72765 0.39476 0.0
H200 H 0.25938 0.53288 0.39557 0.0
H201 H 0.24978 0.53201 0.33248 0.0
C202 C 0.29921 0.62798 0.28979 0.0
C203 C 0.33085 0.68151 0.27038 0.0
C204 C 0.30212 0.62904 0.32653 0.0
C205 C 0.36188 0.73677 0.28827 0.0
C206 C 0.36328 0.73841 0.3249 0.0
C207 C 0.34025 0.68509 0.38112 0.0
C208 C 0.31367 0.63051 0.40016 0.0
C209 C 0.33498 0.6846 0.34435 0.0
C210 C 0.28089 0.57577 0.38187 0.0
C211 C 0.27497 0.57506 0.34562 0.0
H212 H 0.68829 0.23044 0.72215 0.0
H213 H 0.66477 0.3862 0.74237 0.0
H214 H 0.64644 0.39256 0.68007 0.0
H215 H 0.64667 0.35948 0.61962 0.0
H216 H 0.67258 0.20498 0.5996 0.0
H217 H 0.67835 0.19128 0.66244 0.0
C218 C 0.67908 0.26582 0.71299 0.0
C219 C 0.67912 0.3086 0.73676 0.0
C220 C 0.66836 0.26895 0.67729 0.0
C221 C 0.66565 0.35316 0.72457 0.0
C222 C 0.65505 0.3567 0.68898 0.0
C223 C 0.65227 0.32194 0.62895 0.0
C224 C 0.65978 0.28361 0.60483 0.0
C225 C 0.65744 0.31551 0.66505 0.0
C226 C 0.66667 0.23512 0.61749 0.0
C227 C 0.67065 0.22768 0.65344 0.0
H228 H 0.44172 0.69432 0.94162 0.0
H229 H 0.24744 0.61743 0.94659 0.0
H230 H 0.25062 0.61909 1.01063 0.0
H231 H 0.31008 0.64982 0.06547 0.0
H232 H 0.50518 0.73203 0.0584 0.0
H233 H 0.49993 0.72139 0.99537 0.0
C234 C 0.39987 0.67662 0.95665 0.0
C235 C 0.34447 0.65545 0.9393 0.0
C236 C 0.40224 0.67986 0.99334 0.0
C237 C 0.29078 0.63369 0.9593 0.0
C238 C 0.29261 0.63512 0.99595 0.0
C239 C 0.35136 0.66542 0.05012 0.0
C240 C 0.40787 0.69209 0.06697 0.0
C241 C 0.34831 0.65956 1.01332 0.0
C242 C 0.46089 0.71169 0.04647 0.0
C243 C 0.4581 0.70542 1.01023 0.0
H244 H 0.68593 0.29386 0.40171 0.0
H245 H 0.785 0.48907 0.40136 0.0
H246 H 0.80131 0.48956 0.33871 0.0
H247 H 0.78255 0.43591 0.28319 0.0
H248 H 0.67739 0.24166 0.28154 0.0
H249 H 0.66999 0.23941 0.34554 0.0
C250 C 0.71098 0.33644 0.3879 0.0
C251 C 0.73362 0.39123 0.40642 0.0
C252 C 0.72 0.33668 0.35142 0.0
C253 C 0.76638 0.44602 0.38798 0.0
C254 C 0.7762 0.44652 0.35203 0.0
C255 C 0.75951 0.39299 0.2969 0.0
C256 C 0.73122 0.33906 0.27776 0.0
C257 C 0.75289 0.39226 0.33343 0.0
C258 C 0.70009 0.28381 0.29582 0.0
C259 C 0.69528 0.28255 0.33236 0.0
H260 H 0.34424 0.78322 0.71981 0.0
H261 H 0.35669 0.62114 0.7386 0.0
H262 H 0.37582 0.61494 0.67609 0.0
H263 H 0.37968 0.65068 0.61577 0.0
H264 H 0.36678 0.81276 0.59736 0.0
H265 H 0.35892 0.82484 0.66036 0.0
C266 C 0.35127 0.74654 0.71027 0.0
C267 C 0.34784 0.70195 0.73373 0.0
C268 C 0.36267 0.74363 0.67447 0.0
C269 C 0.35855 0.65565 0.72107 0.0
C270 C 0.36951 0.65217 0.68535 0.0
C271 C 0.37637 0.68939 0.62551 0.0
C272 C 0.37329 0.73052 0.60175 0.0
C273 C 0.37051 0.69529 0.66174 0.0
C274 C 0.36937 0.78052 0.61494 0.0
C275 C 0.36423 0.78708 0.65099 0.0
loop_
_geom_bond_atom_site_label_1
_geom_bond_atom_site_label_2
_geom_bond_distance
_geom_bond_site_symmetry_2
_ccdc_geom_bond_type
O0 Cd1 2.223 . S
O0 C8 1.315 . S
Cd1 O0 2.223 . S
Cd1 O4 2.297 . S
Cd1 O5 2.439 . S
Cd1 O11 2.240 . S
Cd2 O3 2.240 . S
Cd2 O10 2.223 . S
Cd2 O12 2.297 . S
Cd2 O13 2.439 . S
O3 Cd2 2.240 . S
O3 C8 1.279 . S
O4 Cd1 2.297 . S
O4 C6 1.247 . S
O5 Cd1 2.439 . S
O5 C6 1.208 . S
C6 O4 1.247 . S
C6 O5 1.208 . S
C7 O12 1.247 . S
C7 O13 1.208 . S
C8 O0 1.315 . S
C8 O3 1.279 . S
C9 O10 1.315 . S
C9 O11 1.279 . S
O10 Cd2 2.223 . S
O10 C9 1.315 . S
O11 Cd1 2.240 . S
O11 C9 1.279 . S
O12 Cd2 2.297 . S
O12 C7 1.247 . S
O13 Cd2 2.439 . S
O13 C7 1.208 . S
O14 Cd15 2.223 . S
O14 C22 1.315 . S
Cd15 O14 2.223 . S
Cd15 O18 2.297 . S
Cd15 O19 2.439 . S
Cd15 O25 2.240 . S
Cd16 O17 2.240 . S
Cd16 O24 2.223 . S
Cd16 O26 2.297 . S
Cd16 O27 2.439 . S
O17 Cd16 2.240 . S
O17 C22 1.279 . S
O18 Cd15 2.297 . S
O18 C20 1.247 . S
O19 Cd15 2.439 . S
O19 C20 1.208 . S
C20 O18 1.247 . S
C20 O19 1.208 . S
C21 O26 1.247 . S
C21 O27 1.208 . S
C22 O14 1.315 . S
C22 O17 1.279 . S
C23 O24 1.315 . S
C23 O25 1.279 . S
O24 Cd16 2.223 . S
O24 C23 1.315 . S
O25 Cd15 2.240 . S
O25 C23 1.279 . S
O26 Cd16 2.297 . S
O26 C21 1.247 . S
O27 Cd16 2.439 . S
O27 C21 1.208 . S
O28 Cd29 2.223 . S
O28 C36 1.315 . S
Cd29 O28 2.223 . S
Cd29 O32 2.297 . S
Cd29 O33 2.439 . S
Cd29 O39 2.240 . S
Cd30 O31 2.240 . S
Cd30 O38 2.223 . S
Cd30 O40 2.297 . S
Cd30 O41 2.439 . S
O31 Cd30 2.240 . S
O31 C36 1.279 . S
O32 Cd29 2.297 . S
O32 C34 1.247 . S
O33 Cd29 2.439 . S
O33 C34 1.208 . S
C34 O32 1.247 . S
C34 O33 1.208 . S
C35 O40 1.247 . S
C35 O41 1.208 . S
C36 O28 1.315 . S
C36 O31 1.279 . S
C37 O38 1.315 . S
C37 O39 1.279 . S
O38 Cd30 2.223 . S
O38 C37 1.315 . S
O39 Cd29 2.240 . S
O39 C37 1.279 . S
O40 Cd30 2.297 . S
O40 C35 1.247 . S
O41 Cd30 2.439 . S
O41 C35 1.208 . S
O42 Cd43 2.223 . S
O42 C50 1.315 . S
Cd43 O42 2.223 . S
Cd43 O46 2.297 . S
Cd43 O47 2.439 . S
Cd43 O53 2.240 . S
Cd44 O45 2.240 . S
Cd44 O52 2.223 . S
Cd44 O54 2.297 . S
Cd44 O55 2.439 . S
O45 Cd44 2.240 . S
O45 C50 1.279 . S
O46 Cd43 2.297 . S
O46 C48 1.247 . S
O47 Cd43 2.439 . S
O47 C48 1.208 . S
C48 O46 1.247 . S
C48 O47 1.208 . S
C49 O54 1.247 . S
C49 O55 1.208 . S
C50 O42 1.315 . S
C50 O45 1.279 . S
C51 O52 1.315 . S
C51 O53 1.279 . S
O52 Cd44 2.223 . S
O52 C51 1.315 . S
O53 Cd43 2.240 . S
O53 C51 1.279 . S
O54 Cd44 2.297 . S
O54 C49 1.247 . S
O55 Cd44 2.439 . S
O55 C49 1.208 . S
O56 Cd57 2.223 . S
O56 C64 1.315 . S
Cd57 O56 2.223 . S
Cd57 O60 2.297 . S
Cd57 O61 2.439 . S
Cd57 O67 2.240 . S
Cd58 O59 2.240 . S
Cd58 O66 2.223 . S
Cd58 O68 2.297 . S
Cd58 O69 2.439 . S
O59 Cd58 2.240 . S
O59 C64 1.279 . S
O60 Cd57 2.297 . S
O60 C62 1.247 . S
O61 Cd57 2.439 . S
O61 C62 1.208 . S
C62 O60 1.247 . S
C62 O61 1.208 . S
C63 O68 1.247 . S
C63 O69 1.208 . S
C64 O56 1.315 . S
C64 O59 1.279 . S
C65 O66 1.315 . S
C65 O67 1.279 . S
O66 Cd58 2.223 . S
O66 C65 1.315 . S
O67 Cd57 2.240 . S
O67 C65 1.279 . S
O68 Cd58 2.297 . S
O68 C63 1.247 . S
O69 Cd58 2.439 . S
O69 C63 1.208 . S
O70 Cd71 2.223 . S
O70 C78 1.315 . S
Cd71 O70 2.223 . S
Cd71 O74 2.297 . S
Cd71 O75 2.439 . S
Cd71 O81 2.240 . S
Cd72 O73 2.240 . S
Cd72 O80 2.223 . S
Cd72 O82 2.297 . S
Cd72 O83 2.439 . S
O73 Cd72 2.240 . S
O73 C78 1.279 . S
O74 Cd71 2.297 . S
O74 C76 1.247 . S
O75 Cd71 2.439 . S
O75 C76 1.208 . S
C76 O74 1.247 . S
C76 O75 1.208 . S
C77 O82 1.247 . S
C77 O83 1.208 . S
C78 O70 1.315 . S
C78 O73 1.279 . S
C79 O80 1.315 . S
C79 O81 1.279 . S
O80 Cd72 2.223 . S
O80 C79 1.315 . S
O81 Cd71 2.240 . S
O81 C79 1.279 . S
O82 Cd72 2.297 . S
O82 C77 1.247 . S
O83 Cd72 2.439 . S
O83 C77 1.208 . S
H84 C90 0.930 . S
H85 C93 0.930 . S
H86 C94 0.930 1_565 S
H87 C95 0.930 . S
H88 C98 0.930 . S
H89 C99 0.930 1_545 S
C90 H84 0.930 . S
C90 C91 1.355 . S
C90 C92 1.415 . S
C91 C90 1.355 . S
C91 C93 1.419 . S
C92 C90 1.415 . S
C92 C97 1.425 1_545 S
C92 C99 1.409 1_545 S
C93 H85 0.930 . S
C93 C91 1.419 . S
C93 C94 1.362 . S
C94 H86 0.930 1_545 S
C94 C93 1.362 . S
C94 C97 1.409 1_545 S
C95 H87 0.930 . S
C95 C96 1.355 . S
C95 C97 1.415 . S
C96 C95 1.355 . S
C96 C98 1.419 . S
C97 C92 1.425 1_565 S
C97 C94 1.409 1_565 S
C97 C95 1.415 . S
C98 H88 0.930 . S
C98 C96 1.419 . S
C98 C99 1.362 . S
C99 H89 0.930 1_565 S
C99 C92 1.409 1_565 S
C99 C98 1.362 . S
H100 C106 0.930 . S
H101 C109 0.930 . S
H102 C110 0.930 . S
H103 C111 0.930 . S
H104 C114 0.930 . S
H105 C115 0.930 . S
C106 H100 0.930 . S
C106 C107 1.355 . S
C106 C108 1.415 . S
C107 C106 1.355 . S
C107 C109 1.419 . S
C108 C106 1.415 . S
C108 C113 1.425 . S
C108 C115 1.409 . S
C109 H101 0.930 . S
C109 C107 1.419 . S
C109 C110 1.362 . S
C110 H102 0.930 . S
C110 C109 1.362 . S
C110 C113 1.409 . S
C111 H103 0.930 . S
C111 C112 1.355 . S
C111 C113 1.415 . S
C112 C111 1.355 . S
C112 C114 1.419 . S
C113 C108 1.425 . S
C113 C110 1.409 . S
C113 C111 1.415 . S
C114 H104 0.930 . S
C114 C112 1.419 . S
C114 C115 1.362 . S
C115 H105 0.930 . S
C115 C108 1.409 . S
C115 C114 1.362 . S
H116 C122 0.930 . S
H117 C125 0.930 . S
H118 C126 0.930 . S
H119 C127 0.930 . S
H120 C130 0.930 . S
H121 C131 0.930 . S
C122 H116 0.930 . S
C122 C123 1.355 . S
C122 C124 1.415 . S
C123 C122 1.355 . S
C123 C125 1.419 . S
C124 C122 1.415 . S
C124 C129 1.425 1_655 S
C124 C131 1.409 1_655 S
C125 H117 0.930 . S
C125 C123 1.419 . S
C125 C126 1.362 . S
C126 H118 0.930 . S
C126 C125 1.362 . S
C126 C129 1.409 1_655 S
C127 H119 0.930 . S
C127 C128 1.355 . S
C127 C129 1.415 . S
C128 C127 1.355 . S
C128 C130 1.419 . S
C129 C124 1.425 1_455 S
C129 C126 1.409 1_455 S
C129 C127 1.415 . S
C130 H120 0.930 . S
C130 C128 1.419 . S
C130 C131 1.362 . S
C131 H121 0.930 . S
C131 C124 1.409 1_455 S
C131 C130 1.362 . S
H132 C138 0.930 . S
H133 C141 0.930 . S
H134 C142 0.930 . S
H135 C143 0.930 . S
H136 C146 0.930 . S
H137 C147 0.930 . S
C138 H132 0.930 . S
C138 C139 1.355 . S
C138 C140 1.415 . S
C139 C138 1.355 . S
C139 C141 1.419 . S
C140 C138 1.415 . S
C140 C145 1.425 1_455 S
C140 C147 1.409 1_455 S
C141 H133 0.930 . S
C141 C139 1.419 . S
C141 C142 1.362 . S
C142 H134 0.930 . S
C142 C141 1.362 . S
C142 C145 1.409 1_455 S
C143 H135 0.930 . S
C143 C144 1.355 . S
C143 C145 1.415 . S
C144 C143 1.355 . S
C144 C146 1.419 . S
C145 C140 1.425 1_655 S
C145 C142 1.409 1_655 S
C145 C143 1.415 . S
C146 H136 0.930 . S
C146 C144 1.419 . S
C146 C147 1.362 . S
C147 H137 0.930 . S
C147 C140 1.409 1_655 S
C147 C146 1.362 . S
H148 C154 0.930 . S
H149 C157 0.930 . S
H150 C158 0.930 . S
H151 C159 0.930 . S
H152 C162 0.930 . S
H153 C163 0.930 . S
C154 H148 0.930 . S
C154 C155 1.355 . S
C154 C156 1.415 . S
C155 C154 1.355 . S
C155 C157 1.419 . S
C156 C154 1.415 . S
C156 C161 1.425 1_565 S
C156 C163 1.409 1_565 S
C157 H149 0.930 . S
C157 C155 1.419 . S
C157 C158 1.362 . S
C158 H150 0.930 . S
C158 C157 1.362 . S
C158 C161 1.409 1_565 S
C159 H151 0.930 . S
C159 C160 1.355 . S
C159 C161 1.415 . S
C160 C159 1.355 . S
C160 C162 1.419 . S
C161 C156 1.425 1_545 S
C161 C158 1.409 1_545 S
C161 C159 1.415 . S
C162 H152 0.930 . S
C162 C160 1.419 . S
C162 C163 1.362 . S
C163 H153 0.930 . S
C163 C156 1.409 1_545 S
C163 C162 1.362 . S
H164 C170 0.930 . S
H165 C173 0.930 . S
H166 C174 0.930 . S
H167 C175 0.930 . S
H168 C178 0.930 . S
H169 C179 0.930 . S
C170 H164 0.930 . S
C170 C171 1.355 . S
C170 C172 1.415 . S
C171 C170 1.355 . S
C171 C173 1.419 . S
C172 C170 1.415 . S
C172 C177 1.425 . S
C172 C179 1.409 . S
C173 H165 0.930 . S
C173 C171 1.419 . S
C173 C174 1.362 . S
C174 H166 0.930 . S
C174 C173 1.362 . S
C174 C177 1.409 . S
C175 H167 0.930 . S
C175 C176 1.355 . S
C175 C177 1.415 . S
C176 C175 1.355 . S
C176 C178 1.419 . S
C177 C172 1.425 . S
C177 C174 1.409 . S
C177 C175 1.415 . S
C178 H168 0.930 . S
C178 C176 1.419 . S
C178 C179 1.362 . S
C179 H169 0.930 . S
C179 C172 1.409 . S
C179 C178 1.362 . S
H180 C186 0.930 . S
H181 C189 0.930 . S
H182 C190 0.930 1_554 S
H183 C191 0.930 . S
H184 C194 0.930 . S
H185 C195 0.930 . S
C186 H180 0.930 . S
C186 C187 1.355 . S
C186 C188 1.415 1_556 S
C187 C186 1.355 . S
C187 C189 1.419 . S
C188 C186 1.415 1_554 S
C188 C193 1.425 . S
C188 C195 1.409 . S
C189 H181 0.930 . S
C189 C187 1.419 . S
C189 C190 1.362 . S
C190 H182 0.930 1_556 S
C190 C189 1.362 . S
C190 C193 1.409 1_556 S
C191 H183 0.930 . S
C191 C192 1.355 . S
C191 C193 1.415 . S
C192 C191 1.355 . S
C192 C194 1.419 . S
C193 C188 1.425 . S
C193 C190 1.409 1_554 S
C193 C191 1.415 . S
C194 H184 0.930 . S
C194 C192 1.419 . S
C194 C195 1.362 . S
C195 H185 0.930 . S
C195 C188 1.409 . S
C195 C194 1.362 . S
H196 C202 0.930 . S
H197 C205 0.930 . S
H198 C206 0.930 . S
H199 C207 0.930 . S
H200 C210 0.930 . S
H201 C211 0.930 . S
C202 H196 0.930 . S
C202 C203 1.355 . S
C202 C204 1.415 . S
C203 C202 1.355 . S
C203 C205 1.419 . S
C204 C202 1.415 . S
C204 C209 1.425 . S
C204 C211 1.409 . S
C205 H197 0.930 . S
C205 C203 1.419 . S
C205 C206 1.362 . S
C206 H198 0.930 . S
C206 C205 1.362 . S
C206 C209 1.409 . S
C207 H199 0.930 . S
C207 C208 1.355 . S
C207 C209 1.415 . S
C208 C207 1.355 . S
C208 C210 1.419 . S
C209 C204 1.425 . S
C209 C206 1.409 . S
C209 C207 1.415 . S
C210 H200 0.930 . S
C210 C208 1.419 . S
C210 C211 1.362 . S
C211 H201 0.930 . S
C211 C204 1.409 . S
C211 C210 1.362 . S
H212 C218 0.930 . S
H213 C221 0.930 . S
H214 C222 0.930 . S
H215 C223 0.930 . S
H216 C226 0.930 . S
H217 C227 0.930 . S
C218 H212 0.930 . S
C218 C219 1.355 . S
C218 C220 1.415 . S
C219 C218 1.355 . S
C219 C221 1.419 . S
C220 C218 1.415 . S
C220 C225 1.425 . S
C220 C227 1.409 . S
C221 H213 0.930 . S
C221 C219 1.419 . S
C221 C222 1.362 . S
C222 H214 0.930 . S
C222 C221 1.362 . S
C222 C225 1.409 . S
C223 H215 0.930 . S
C223 C224 1.355 . S
C223 C225 1.415 . S
C224 C223 1.355 . S
C224 C226 1.419 . S
C225 C220 1.425 . S
C225 C222 1.409 . S
C225 C223 1.415 . S
C226 H216 0.930 . S
C226 C224 1.419 . S
C226 C227 1.362 . S
C227 H217 0.930 . S
C227 C220 1.409 . S
C227 C226 1.362 . S
H228 C234 0.930 . S
H229 C237 0.930 . S
H230 C238 0.930 . S
H231 C239 0.930 . S
H232 C242 0.930 . S
H233 C243 0.930 . S
C234 H228 0.930 . S
C234 C235 1.355 . S
C234 C236 1.415 1_556 S
C235 C234 1.355 . S
C235 C237 1.419 . S
C236 C234 1.415 1_554 S
C236 C241 1.425 . S
C236 C243 1.409 . S
C237 H229 0.930 . S
C237 C235 1.419 . S
C237 C238 1.362 . S
C238 H230 0.930 . S
C238 C237 1.362 . S
C238 C241 1.409 1_556 S
C239 H231 0.930 . S
C239 C240 1.355 . S
C239 C241 1.415 . S
C240 C239 1.355 . S
C240 C242 1.419 . S
C241 C236 1.425 . S
C241 C238 1.409 1_554 S
C241 C239 1.415 . S
C242 H232 0.930 . S
C242 C240 1.419 . S
C242 C243 1.362 . S
C243 H233 0.930 . S
C243 C236 1.409 . S
C243 C242 1.362 . S
H244 C250 0.930 . S
H245 C253 0.930 . S
H246 C254 0.930 . S
H247 C255 0.930 . S
H248 C258 0.930 . S
H249 C259 0.930 . S
C250 H244 0.930 . S
C250 C251 1.355 . S
C250 C252 1.415 . S
C251 C250 1.355 . S
C251 C253 1.419 . S
C252 C250 1.415 . S
C252 C257 1.425 . S
C252 C259 1.409 . S
C253 H245 0.930 . S
C253 C251 1.419 . S
C253 C254 1.362 . S
C254 H246 0.930 . S
C254 C253 1.362 . S
C254 C257 1.409 . S
C255 H247 0.930 . S
C255 C256 1.355 . S
C255 C257 1.415 . S
C256 C255 1.355 . S
C256 C258 1.419 . S
C257 C252 1.425 . S
C257 C254 1.409 . S
C257 C255 1.415 . S
C258 H248 0.930 . S
C258 C256 1.419 . S
C258 C259 1.362 . S
C259 H249 0.930 . S
C259 C252 1.409 . S
C259 C258 1.362 . S
H260 C266 0.930 . S
H261 C269 0.930 . S
H262 C270 0.930 . S
H263 C271 0.930 . S
H264 C274 0.930 . S
H265 C275 0.930 . S
C266 H260 0.930 . S
C266 C267 1.355 . S
C266 C268 1.415 . S
C267 C266 1.355 . S
C267 C269 1.419 . S
C268 C266 1.415 . S
C268 C273 1.425 . S
C268 C275 1.409 . S
C269 H261 0.930 . S
C269 C267 1.419 . S
C269 C270 1.362 . S
C270 H262 0.930 . S
C270 C269 1.362 . S
C270 C273 1.409 . S
C271 H263 0.930 . S
C271 C272 1.355 . S
C271 C273 1.415 . S
C272 C271 1.355 . S
C272 C274 1.419 . S
C273 C268 1.425 . S
C273 C270 1.409 . S
C273 C271 1.415 . S
C274 H264 0.930 . S
C274 C272 1.419 . S
C274 C275 1.362 . S
C275 H265 0.930 . S
C275 C268 1.409 . S
C275 C274 1.362 . S
C91 C7 1.196 . S
C96 C49 1.210 . S
C107 C21 1.230 . S
C112 C63 1.233 . S
C123 C35 1.210 . S
C128 C77 1.196 . S
C139 C22 1.737 . S
C144 C64 1.721 . S
C155 C78 1.724 . S
C160 C36 1.750 . S
C171 C50 1.733 . S
C176 C8 1.722 . S
C187 C34 1.427 . S
C192 C9 1.362 . S
C203 C48 1.419 . S
C208 C23 1.293 . S
C219 C37 1.355 . S
C224 C62 1.428 . S
C235 C76 1.416 . S
C240 C51 1.263 . S
C251 C65 1.285 . S
C256 C6 1.418 . S
C267 C79 1.354 . S
C272 C20 1.428 . S
