# Generated by pormake.
# Topology oof, (8)-cn, num edge types: 1
# Building blocks:
#     Node 0, Type 0, BuildingBlock: TAGTUT_clean_sbu_3, # of connection points: 8
#     Node 1, Type 0, BuildingBlock: TAGTUT_clean_sbu_3, # of connection points: 8
#     Node 2, Type 0, BuildingBlock: TAGTUT_clean_sbu_3, # of connection points: 8
#     Node 3, Type 0, BuildingBlock: TAGTUT_clean_sbu_3, # of connection points: 8
#     Edge 4, Type (0, 0), BuildingBlock: OJICUG_clean_linker_0, # of connection points: 2
#     Edge 5, Type (0, 0), BuildingBlock: OJICUG_clean_linker_0, # of connection points: 2
#     Edge 6, Type (0, 0), BuildingBlock: OJICUG_clean_linker_0, # of connection points: 2
#     Edge 7, Type (0, 0), BuildingBlock: OJICUG_clean_linker_0, # of connection points: 2
#     Edge 8, Type (0, 0), BuildingBlock: OJICUG_clean_linker_0, # of connection points: 2
#     Edge 9, Type (0, 0), BuildingBlock: OJICUG_clean_linker_0, # of connection points: 2
#     Edge 10, Type (0, 0), BuildingBlock: OJICUG_clean_linker_0, # of connection points: 2
#     Edge 11, Type (0, 0), BuildingBlock: OJICUG_clean_linker_0, # of connection points: 2
#     Edge 12, Type (0, 0), BuildingBlock: OJICUG_clean_linker_0, # of connection points: 2
#     Edge 13, Type (0, 0), BuildingBlock: OJICUG_clean_linker_0, # of connection points: 2
#     Edge 14, Type (0, 0), BuildingBlock: OJICUG_clean_linker_0, # of connection points: 2
#     Edge 15, Type (0, 0), BuildingBlock: OJICUG_clean_linker_0, # of connection points: 2
#     Edge 16, Type (0, 0), BuildingBlock: OJICUG_clean_linker_0, # of connection points: 2
#     Edge 17, Type (0, 0), BuildingBlock: OJICUG_clean_linker_0, # of connection points: 2
#     Edge 18, Type (0, 0), BuildingBlock: OJICUG_clean_linker_0, # of connection points: 2
#     Edge 19, Type (0, 0), BuildingBlock: OJICUG_clean_linker_0, # of connection points: 2
# Relax obj value: 0.058
# Max RMSD: 0.151
# Mean RMSD: 0.151
data_MOF--net-oof--node1-TAGTUT_clean_sbu_3--edge1-OJICUG_clean_linker_0
_symmetry_space_group_name_H-M    P1
_symmetry_Int_Tables_number       1
_symmetry_cell_setting            triclinic
loop_
_symmetry_equiv_pos_as_xyz
'x, y, z'
_cell_length_a     11.897691
_cell_length_b     51.353009
_cell_length_c     11.645444
_cell_angle_alpha  89.991132
_cell_angle_beta   86.908794
_cell_angle_gamma 90.001203
loop_
_atom_site_label
_atom_site_type_symbol
_atom_site_fract_x
_atom_site_fract_y
_atom_site_fract_z
_atom_type_partial_charge
C0 C 0.23811 0.14634 0.21143 0.0
C1 C 0.01974 0.23448 0.30418 0.0
C2 C 0.77624 0.19882 0.08922 0.0
Mg3 Mg 0.13458 0.08981 0.16645 0.0
Mg4 Mg 0.88634 0.07248 0.27576 0.0
O5 O 0.96688 0.09573 0.18141 0.0
Mg6 Mg 0.97104 0.13352 0.23063 0.0
O7 O -0.01576 0.17123 0.26803 0.0
Mg8 Mg 0.04807 0.18441 0.11675 0.0
Mg9 Mg 0.85414 0.18767 0.33059 0.0
C10 C 0.70095 0.1158 0.24856 0.0
O11 O 0.94832 0.12799 0.4242 0.0
O12 O 0.10169 0.04857 0.10403 0.0
O13 O 0.84361 0.16258 0.48375 0.0
O14 O 0.13838 0.07 0.347 0.0
O15 O 0.93823 0.03602 0.19352 0.0
O16 O 0.96728 0.07409 0.43177 0.0
O17 O 0.00326 0.14313 0.04431 0.0
O18 O 0.10947 0.10903 -0.01185 0.0
C19 C 0.05269 0.12954 0.96458 0.0
C20 C 0.0278 0.03112 0.13066 0.0
O21 O 0.7769 0.13331 0.22779 0.0
O22 O 0.07166 0.22365 0.21638 0.0
O23 O 0.72453 0.09196 0.27098 0.0
O24 O 0.88035 0.19811 0.05843 0.0
O25 O 0.93369 0.22415 0.35674 0.0
O26 O 0.74129 0.1931 0.19177 0.0
O27 O 0.15795 0.13052 0.23633 0.0
O28 O 0.21815 0.16902 0.17213 0.0
C29 C 0.06855 0.06626 0.43332 0.0
C30 C 0.89907 0.14168 0.50437 0.0
C31 C 0.0531 0.8675 0.46463 0.0
C32 C 0.02777 0.96591 0.63063 0.0
C33 C 0.06866 0.93078 0.93336 0.0
Mg34 Mg 0.04822 0.81266 0.61651 0.0
Mg35 Mg 0.85437 0.80933 0.83048 0.0
O36 O -0.01549 0.82578 0.76797 0.0
Mg37 Mg 0.97128 0.86351 0.73078 0.0
O38 O 0.96703 0.90129 0.68159 0.0
Mg39 Mg 0.13469 0.90725 0.66647 0.0
Mg40 Mg 0.88645 0.92453 0.77591 0.0
C41 C 0.89932 0.85527 0.00451 0.0
O42 O 0.77716 0.86369 0.72776 0.0
O43 O 0.07179 0.77337 0.71589 0.0
O44 O 0.72472 0.90503 0.77104 0.0
O45 O 0.88045 0.79899 0.55822 0.0
O46 O 0.9339 0.77284 0.85633 0.0
O47 O 0.74146 0.80394 0.69167 0.0
O48 O 0.15834 0.86655 0.7367 0.0
O49 O 0.21819 0.82805 0.67191 0.0
C50 C 0.2383 0.8507 0.7114 0.0
C51 C 0.01991 0.76252 0.80367 0.0
O52 O 0.94843 0.86898 0.92434 0.0
O53 O 0.10164 0.94846 0.60393 0.0
O54 O 0.84396 0.83435 0.98387 0.0
O55 O 0.13843 0.92707 0.84698 0.0
O56 O 0.93827 0.961 0.6936 0.0
O57 O 0.96743 0.92292 0.9319 0.0
O58 O 0.00364 0.85399 0.54461 0.0
O59 O 0.10987 0.88802 0.48802 0.0
C60 C 0.77635 0.79826 0.58907 0.0
C61 C 0.70118 0.88119 0.74855 0.0
C62 C 0.55283 0.62958 0.96494 0.0
C63 C 0.5274 0.53117 0.13104 0.0
C64 C 0.5683 0.56629 0.43376 0.0
Mg65 Mg 0.54802 0.68442 0.11672 0.0
Mg66 Mg 0.3542 0.68778 0.33071 0.0
O67 O 0.48428 0.67131 0.2682 0.0
Mg68 Mg 0.47101 0.63358 0.23108 0.0
O69 O 0.46673 0.59579 0.18195 0.0
Mg70 Mg 0.63438 0.58983 0.16684 0.0
Mg71 Mg 0.38614 0.57255 0.2763 0.0
C72 C 0.39908 0.64183 0.50481 0.0
O73 O 0.27689 0.6334 0.22806 0.0
O74 O 0.57169 0.72371 0.216 0.0
O75 O 0.22443 0.59206 0.27141 0.0
O76 O 0.38029 0.6981 0.05841 0.0
O77 O 0.43385 0.72426 0.35649 0.0
O78 O 0.2413 0.69318 0.19189 0.0
O79 O 0.65806 0.63053 0.23703 0.0
O80 O 0.71795 0.66902 0.17215 0.0
C81 C 0.73803 0.64638 0.2117 0.0
C82 C 0.51986 0.73457 0.30377 0.0
O83 O 0.44814 0.62811 0.42466 0.0
O84 O 0.60129 0.54862 0.10433 0.0
O85 O 0.34377 0.66276 0.48413 0.0
O86 O 0.63809 0.57 0.34737 0.0
O87 O 0.43791 0.53608 0.19403 0.0
O88 O 0.4671 0.57417 0.43229 0.0
O89 O 0.50338 0.64309 0.0449 0.0
O90 O 0.60958 0.60906 -0.01164 0.0
C91 C 0.27621 0.69885 0.08926 0.0
C92 C 0.2009 0.6159 0.24888 0.0
C93 C 0.5526 0.36752 0.46508 0.0
C94 C 0.52725 0.46593 0.63103 0.0
C95 C 0.56814 0.43081 0.93381 0.0
Mg96 Mg 0.54777 0.31269 0.61688 0.0
Mg97 Mg 0.35404 0.30931 0.83096 0.0
O98 O 0.48406 0.3258 0.76837 0.0
Mg99 Mg 0.47079 0.36352 0.73122 0.0
O100 O 0.46653 0.40131 0.68206 0.0
Mg101 Mg 0.63418 0.40727 0.66693 0.0
Mg102 Mg 0.38595 0.42456 0.77636 0.0
C103 C 0.39888 0.35527 0.00496 0.0
O104 O 0.27667 0.36371 0.7282 0.0
O105 O 0.5715 0.2734 0.71617 0.0
O106 O 0.22423 0.40505 0.7715 0.0
O107 O 0.38001 0.299 0.55866 0.0
O108 O 0.43375 0.27284 0.85675 0.0
O109 O 0.24108 0.30388 0.69223 0.0
O110 O 0.65785 0.36658 0.73716 0.0
O111 O 0.71772 0.32809 0.67226 0.0
C112 C 0.73781 0.35073 0.71182 0.0
C113 C 0.51973 0.26253 0.80399 0.0
O114 O 0.44793 0.36899 0.9248 0.0
O115 O 0.60112 0.44848 0.60436 0.0
O116 O 0.34359 0.33434 0.98433 0.0
O117 O 0.63792 0.4271 0.84743 0.0
O118 O 0.43775 0.46103 0.69402 0.0
O119 O 0.46692 0.42295 0.93236 0.0
O120 O 0.50313 0.35402 0.54506 0.0
O121 O 0.60937 0.38804 0.48847 0.0
C122 C 0.27594 0.29822 0.58959 0.0
C123 C 0.20069 0.38121 0.749 0.0
C124 C 0.06252 0.11809 0.75479 0.0
C125 C 0.01618 0.13319 0.84583 0.0
H126 H 0.06181 0.10881 0.57675 0.0
C127 C 0.92504 0.14978 0.82503 0.0
H128 H 0.1319 0.10494 0.7677 0.0
C129 C 0.88221 0.15143 0.71584 0.0
C130 C 0.92949 0.13656 0.6243 0.0
H131 H 0.88525 0.1613 0.89351 0.0
H132 H 0.81359 0.16479 0.70279 0.0
C133 C 0.02012 0.11985 0.6455 0.0
C134 C 0.92548 0.84719 0.32522 0.0
C135 C 0.01661 0.86379 0.34591 0.0
H136 H 0.81399 0.83215 0.20307 0.0
C137 C 0.06291 0.87887 0.25477 0.0
H138 H 0.88571 0.83569 0.3938 0.0
C139 C 0.02045 0.8771 0.14551 0.0
C140 C 0.92982 0.86038 0.12443 0.0
H141 H 0.13227 0.89204 0.26758 0.0
H142 H 0.06208 0.88814 0.07671 0.0
C143 C 0.88261 0.84552 0.21604 0.0
C144 C 0.56261 0.61821 0.7551 0.0
C145 C 0.51634 0.6333 0.84621 0.0
H146 H 0.56177 0.60894 0.57705 0.0
C147 C 0.42525 0.6499 0.8255 0.0
H148 H 0.63195 0.60504 0.76793 0.0
C149 C 0.38239 0.65158 0.71632 0.0
C150 C 0.42956 0.63671 0.62472 0.0
H151 H 0.38549 0.6614 0.89406 0.0
H152 H 0.3138 0.66495 0.70333 0.0
C153 C 0.52016 0.61999 0.64584 0.0
C154 C 0.51993 0.37712 0.14597 0.0
C155 C 0.42935 0.36039 0.12488 0.0
H156 H 0.6317 0.39208 0.26804 0.0
C157 C 0.38218 0.34552 0.21649 0.0
H158 H 0.56152 0.38817 0.07716 0.0
C159 C 0.42504 0.3472 0.32567 0.0
C160 C 0.51612 0.36381 0.34636 0.0
H161 H 0.3136 0.33214 0.20352 0.0
H162 H 0.38529 0.33569 0.39424 0.0
C163 C 0.56238 0.3789 0.25523 0.0
C164 C 0.49928 0.10457 0.22284 0.0
C165 C 0.58145 0.1233 0.24449 0.0
H166 H 0.32639 0.0971 0.19579 0.0
C167 C 0.54847 0.14932 0.26093 0.0
H168 H 0.5218 0.08427 0.21079 0.0
C169 C 0.43707 0.15683 0.24903 0.0
C170 C 0.35544 0.13822 0.22472 0.0
H171 H 0.60827 0.16379 0.28518 0.0
H172 H 0.41445 0.17713 0.26085 0.0
C173 C 0.38714 0.11194 0.21395 0.0
C174 C 0.54867 0.84767 0.76089 0.0
C175 C 0.5817 0.87369 0.74436 0.0
H176 H 0.41456 0.81988 0.76088 0.0
C177 C 0.49959 0.89243 0.72254 0.0
H178 H 0.60842 0.8332 0.78527 0.0
C179 C 0.38745 0.88506 0.71363 0.0
C180 C 0.35569 0.85879 0.72455 0.0
H181 H 0.52216 0.91272 0.71042 0.0
H182 H 0.32673 0.8999 0.69537 0.0
C183 C 0.43725 0.84017 0.74895 0.0
C184 C 0.937 0.65691 0.24908 0.0
C185 C 0.85541 0.63829 0.22489 0.0
H186 H 0.10819 0.6639 0.28522 0.0
C187 C 0.88715 0.61201 0.21419 0.0
H188 H 0.91433 0.67721 0.26084 0.0
C189 C -0.00072 0.60465 0.2231 0.0
C190 C 0.08143 0.62339 0.24469 0.0
H191 H 0.8264 0.59716 0.19612 0.0
H192 H 0.02183 0.58436 0.21115 0.0
C193 C 0.04842 0.64942 0.26101 0.0
C194 C 0.9368 0.34019 0.74912 0.0
C195 C 0.8552 0.35882 0.725 0.0
H196 H 0.108 0.3332 0.78521 0.0
C197 C 0.88692 0.3851 0.71438 0.0
H198 H 0.91414 0.31989 0.76082 0.0
C199 C -0.00094 0.39246 0.72329 0.0
C200 C 0.08121 0.37372 0.74482 0.0
H201 H 0.82616 0.39995 0.69637 0.0
H202 H 0.02159 0.41276 0.7114 0.0
C203 C 0.04822 0.34768 0.76106 0.0
C204 C 0.08696 0.2815 0.53891 0.0
C205 C 0.1983 0.288 0.50547 0.0
H206 H 0.94083 0.25999 0.49894 0.0
C207 C 0.24027 0.28157 0.39346 0.0
H208 H 0.05138 0.2866 0.62351 0.0
C209 C 0.1775 0.26614 0.32206 0.0
C210 C 0.07123 0.25698 0.36099 0.0
H211 H 0.32497 0.28686 0.36351 0.0
H212 H 0.21591 0.25981 0.24032 0.0
C213 C 0.02371 0.26622 0.46701 0.0
C214 C 0.52381 0.23071 0.96651 0.0
C215 C 0.57136 0.24002 0.86062 0.0
H216 H 0.55151 0.2103 0.12292 0.0
C217 C 0.67777 0.23094 0.82175 0.0
H218 H 0.44082 0.23688 -0.00164 0.0
C219 C 0.74062 0.21553 0.89314 0.0
C220 C 0.6986 0.20904 0.00507 0.0
H221 H 0.7162 0.23733 0.7401 0.0
H222 H 0.82542 0.2103 0.86325 0.0
C223 C 0.58714 0.21545 0.03839 0.0
C224 C 0.67785 0.76617 0.32157 0.0
C225 C 0.57146 0.75708 0.36044 0.0
H226 H 0.82549 0.78682 0.36307 0.0
C227 C 0.52392 0.76637 0.46637 0.0
H228 H 0.71627 0.7598 0.2399 0.0
C229 C 0.58725 0.78163 0.53826 0.0
C230 C 0.6987 0.78805 0.50492 0.0
H231 H 0.44095 0.76019 0.49823 0.0
H232 H 0.55164 0.78676 0.6228 0.0
C233 C 0.7407 0.78158 0.39297 0.0
C234 C 0.24062 0.7155 0.89309 0.0
C235 C 0.19858 0.70905 0.00506 0.0
H236 H 0.21628 0.73726 0.73993 0.0
C237 C 0.08714 0.71549 0.03835 0.0
H238 H 0.3254 0.71025 0.86324 0.0
C239 C 0.02386 0.73074 0.96637 0.0
C240 C 0.07144 0.74001 0.86042 0.0
H241 H 0.05151 0.71037 0.12291 0.0
H242 H 0.94089 0.73693 -0.0018 0.0
C243 C 0.17781 0.73091 0.82161 0.0
C244 C 0.14 -0.00128 0.01186 0.0
C245 C 0.05177 0.00406 0.09374 0.0
H246 H 0.21948 0.97049 0.90021 0.0
C247 C -0.01043 0.98321 0.14258 0.0
H248 H 0.19182 0.01425 0.97485 0.0
C249 C 0.00766 0.95791 0.10194 0.0
C250 C 0.08677 0.95307 0.01017 0.0
H251 H 0.92402 0.98652 0.20917 0.0
H252 H 0.95249 0.94254 0.13505 0.0
C253 C 0.15769 0.97344 0.97078 0.0
C254 C 0.15757 0.0236 0.4707 0.0
C255 C 0.08668 0.04397 0.51015 0.0
H256 H 0.19171 0.9828 0.47473 0.0
C257 C 0.00761 0.03913 0.60195 0.0
H258 H 0.21935 0.02657 0.40013 0.0
C259 C -0.01047 0.01382 0.64258 0.0
C260 C 0.0517 0.99297 0.5937 0.0
H261 H 0.95246 0.05449 0.63509 0.0
H262 H 0.92401 0.0105 0.7092 0.0
C263 C 0.1399 0.99832 0.51178 0.0
C264 C 0.6395 0.49876 0.01222 0.0
C265 C 0.55128 0.50411 0.0941 0.0
H266 H 0.71896 0.47052 0.9006 0.0
C267 C 0.48905 0.48327 0.14294 0.0
H268 H 0.69135 0.51428 0.9752 0.0
C269 C 0.5071 0.45796 0.10232 0.0
C270 C 0.58623 0.45312 0.01057 0.0
H271 H 0.4235 0.48658 0.20953 0.0
H272 H 0.45192 0.4426 0.13544 0.0
C273 C 0.65716 0.47348 0.97116 0.0
C274 C 0.63944 0.49834 0.51219 0.0
C275 C 0.5512 0.49299 0.59407 0.0
H276 H 0.719 0.52657 0.40058 0.0
C277 C 0.48902 0.51384 0.6429 0.0
H278 H 0.69125 0.4828 0.47519 0.0
C279 C 0.50716 0.53915 0.60227 0.0
C280 C 0.58631 0.54399 0.51053 0.0
H281 H 0.42346 0.51053 0.70948 0.0
H282 H 0.45202 0.55452 0.63538 0.0
C283 C 0.65719 0.52361 0.47113 0.0
loop_
_geom_bond_atom_site_label_1
_geom_bond_atom_site_label_2
_geom_bond_distance
_geom_bond_site_symmetry_2
_ccdc_geom_bond_type
C0 O27 1.312 . S
C0 O28 1.208 . S
C1 O22 1.331 . S
C1 O25 1.244 . S
C2 O24 1.264 . S
C2 O26 1.273 . S
Mg3 O5 1.936 1_455 S
Mg3 O12 2.081 . S
Mg3 O14 2.023 . S
Mg3 O18 2.031 . S
Mg3 O27 2.291 . S
Mg4 O5 1.963 . S
Mg4 O15 1.942 . S
Mg4 O16 1.955 . S
Mg4 O23 1.986 . S
O5 Mg3 1.936 1_655 S
O5 Mg4 1.963 . S
O5 Mg6 1.915 . S
Mg6 O5 1.915 . S
Mg6 O7 1.915 1_655 S
Mg6 O11 2.013 . S
Mg6 O17 2.114 1_655 S
Mg6 O21 2.013 . S
Mg6 O27 2.114 1_655 S
O7 Mg6 1.915 1_455 S
O7 Mg8 1.936 . S
O7 Mg9 1.963 1_455 S
Mg8 O7 1.936 . S
Mg8 O17 2.291 . S
Mg8 O22 2.081 . S
Mg8 O24 2.023 1_455 S
Mg8 O28 2.031 . S
Mg9 O7 1.963 1_655 S
Mg9 O13 1.986 . S
Mg9 O25 1.942 1_655 S
Mg9 O26 1.955 . S
C10 O21 1.191 . S
C10 O23 1.307 . S
O11 Mg6 2.013 . S
O11 C30 1.191 . S
O12 Mg3 2.081 . S
O12 C20 1.331 1_455 S
O13 Mg9 1.986 . S
O13 C30 1.307 . S
O14 Mg3 2.023 . S
O14 C29 1.264 . S
O15 Mg4 1.942 . S
O15 C20 1.244 . S
O16 Mg4 1.955 . S
O16 C29 1.273 1_655 S
O17 Mg6 2.114 1_455 S
O17 Mg8 2.291 . S
O17 C19 1.312 1_554 S
O18 Mg3 2.031 . S
O18 C19 1.208 1_554 S
C19 O17 1.312 1_556 S
C19 O18 1.208 1_556 S
C20 O12 1.331 1_655 S
C20 O15 1.244 . S
O21 Mg6 2.013 . S
O21 C10 1.191 . S
O22 C1 1.331 . S
O22 Mg8 2.081 . S
O23 Mg4 1.986 . S
O23 C10 1.307 . S
O24 C2 1.264 . S
O24 Mg8 2.023 1_655 S
O25 C1 1.244 . S
O25 Mg9 1.942 1_455 S
O26 C2 1.273 . S
O26 Mg9 1.955 . S
O27 C0 1.312 . S
O27 Mg3 2.291 . S
O27 Mg6 2.114 1_455 S
O28 C0 1.208 . S
O28 Mg8 2.031 . S
C29 O14 1.264 . S
C29 O16 1.273 1_455 S
C30 O11 1.191 . S
C30 O13 1.307 . S
C31 O58 1.312 . S
C31 O59 1.208 . S
C32 O53 1.331 1_655 S
C32 O56 1.244 . S
C33 O55 1.264 . S
C33 O57 1.273 1_455 S
Mg34 O36 1.936 . S
Mg34 O43 2.081 . S
Mg34 O45 2.023 1_455 S
Mg34 O49 2.031 . S
Mg34 O58 2.291 . S
Mg35 O36 1.963 1_655 S
Mg35 O46 1.942 1_655 S
Mg35 O47 1.955 . S
Mg35 O54 1.986 1_556 S
O36 Mg34 1.936 . S
O36 Mg35 1.963 1_455 S
O36 Mg37 1.915 1_455 S
Mg37 O36 1.915 1_655 S
Mg37 O38 1.915 . S
Mg37 O42 2.013 . S
Mg37 O48 2.114 1_655 S
Mg37 O52 2.013 . S
Mg37 O58 2.114 1_655 S
O38 Mg37 1.915 . S
O38 Mg39 1.936 1_655 S
O38 Mg40 1.963 . S
Mg39 O38 1.936 1_455 S
Mg39 O48 2.291 . S
Mg39 O53 2.081 . S
Mg39 O55 2.023 . S
Mg39 O59 2.031 . S
Mg40 O38 1.963 . S
Mg40 O44 1.986 . S
Mg40 O56 1.942 . S
Mg40 O57 1.955 . S
C41 O52 1.191 1_554 S
C41 O54 1.307 . S
O42 Mg37 2.013 . S
O42 C61 1.191 . S
O43 Mg34 2.081 . S
O43 C51 1.331 . S
O44 Mg40 1.986 . S
O44 C61 1.307 . S
O45 Mg34 2.023 1_655 S
O45 C60 1.264 . S
O46 Mg35 1.942 1_455 S
O46 C51 1.244 . S
O47 Mg35 1.955 . S
O47 C60 1.273 . S
O48 Mg37 2.114 1_455 S
O48 Mg39 2.291 . S
O48 C50 1.312 . S
O49 Mg34 2.031 . S
O49 C50 1.208 . S
C50 O48 1.312 . S
C50 O49 1.208 . S
C51 O43 1.331 . S
C51 O46 1.244 . S
O52 Mg37 2.013 . S
O52 C41 1.191 1_556 S
O53 C32 1.331 1_455 S
O53 Mg39 2.081 . S
O54 Mg35 1.986 1_554 S
O54 C41 1.307 . S
O55 C33 1.264 . S
O55 Mg39 2.023 . S
O56 C32 1.244 . S
O56 Mg40 1.942 . S
O57 C33 1.273 1_655 S
O57 Mg40 1.955 . S
O58 C31 1.312 . S
O58 Mg34 2.291 . S
O58 Mg37 2.114 1_455 S
O59 C31 1.208 . S
O59 Mg39 2.031 . S
C60 O45 1.264 . S
C60 O47 1.273 . S
C61 O42 1.191 . S
C61 O44 1.307 . S
C62 O89 1.312 1_556 S
C62 O90 1.208 1_556 S
C63 O84 1.331 . S
C63 O87 1.244 . S
C64 O86 1.264 . S
C64 O88 1.273 . S
Mg65 O67 1.936 . S
Mg65 O74 2.081 . S
Mg65 O76 2.023 . S
Mg65 O80 2.031 . S
Mg65 O89 2.291 . S
Mg66 O67 1.963 . S
Mg66 O77 1.942 . S
Mg66 O78 1.955 . S
Mg66 O85 1.986 . S
O67 Mg65 1.936 . S
O67 Mg66 1.963 . S
O67 Mg68 1.915 . S
Mg68 O67 1.915 . S
Mg68 O69 1.915 . S
Mg68 O73 2.013 . S
Mg68 O79 2.114 . S
Mg68 O83 2.013 . S
Mg68 O89 2.114 . S
O69 Mg68 1.915 . S
O69 Mg70 1.936 . S
O69 Mg71 1.963 . S
Mg70 O69 1.936 . S
Mg70 O79 2.291 . S
Mg70 O84 2.081 . S
Mg70 O86 2.023 . S
Mg70 O90 2.031 . S
Mg71 O69 1.963 . S
Mg71 O75 1.986 . S
Mg71 O87 1.942 . S
Mg71 O88 1.955 . S
C72 O83 1.191 . S
C72 O85 1.307 . S
O73 Mg68 2.013 . S
O73 C92 1.191 . S
O74 Mg65 2.081 . S
O74 C82 1.331 . S
O75 Mg71 1.986 . S
O75 C92 1.307 . S
O76 Mg65 2.023 . S
O76 C91 1.264 . S
O77 Mg66 1.942 . S
O77 C82 1.244 . S
O78 Mg66 1.955 . S
O78 C91 1.273 . S
O79 Mg68 2.114 . S
O79 Mg70 2.291 . S
O79 C81 1.312 . S
O80 Mg65 2.031 . S
O80 C81 1.208 . S
C81 O79 1.312 . S
C81 O80 1.208 . S
C82 O74 1.331 . S
C82 O77 1.244 . S
O83 Mg68 2.013 . S
O83 C72 1.191 . S
O84 C63 1.331 . S
O84 Mg70 2.081 . S
O85 Mg66 1.986 . S
O85 C72 1.307 . S
O86 C64 1.264 . S
O86 Mg70 2.023 . S
O87 C63 1.244 . S
O87 Mg71 1.942 . S
O88 C64 1.273 . S
O88 Mg71 1.955 . S
O89 C62 1.312 1_554 S
O89 Mg65 2.291 . S
O89 Mg68 2.114 . S
O90 C62 1.208 1_554 S
O90 Mg70 2.031 . S
C91 O76 1.264 . S
C91 O78 1.273 . S
C92 O73 1.191 . S
C92 O75 1.307 . S
C93 O120 1.312 . S
C93 O121 1.208 . S
C94 O115 1.331 . S
C94 O118 1.244 . S
C95 O117 1.264 . S
C95 O119 1.273 . S
Mg96 O98 1.936 . S
Mg96 O105 2.081 . S
Mg96 O107 2.023 . S
Mg96 O111 2.031 . S
Mg96 O120 2.291 . S
Mg97 O98 1.963 . S
Mg97 O108 1.942 . S
Mg97 O109 1.955 . S
Mg97 O116 1.986 1_556 S
O98 Mg96 1.936 . S
O98 Mg97 1.963 . S
O98 Mg99 1.915 . S
Mg99 O98 1.915 . S
Mg99 O100 1.915 . S
Mg99 O104 2.013 . S
Mg99 O110 2.114 . S
Mg99 O114 2.013 . S
Mg99 O120 2.114 . S
O100 Mg99 1.915 . S
O100 Mg101 1.936 . S
O100 Mg102 1.963 . S
Mg101 O100 1.936 . S
Mg101 O110 2.291 . S
Mg101 O115 2.081 . S
Mg101 O117 2.023 . S
Mg101 O121 2.031 . S
Mg102 O100 1.963 . S
Mg102 O106 1.986 . S
Mg102 O118 1.942 . S
Mg102 O119 1.955 . S
C103 O114 1.191 1_554 S
C103 O116 1.307 . S
O104 Mg99 2.013 . S
O104 C123 1.191 . S
O105 Mg96 2.081 . S
O105 C113 1.331 . S
O106 Mg102 1.986 . S
O106 C123 1.307 . S
O107 Mg96 2.023 . S
O107 C122 1.264 . S
O108 Mg97 1.942 . S
O108 C113 1.244 . S
O109 Mg97 1.955 . S
O109 C122 1.273 . S
O110 Mg99 2.114 . S
O110 Mg101 2.291 . S
O110 C112 1.312 . S
O111 Mg96 2.031 . S
O111 C112 1.208 . S
C112 O110 1.312 . S
C112 O111 1.208 . S
C113 O105 1.331 . S
C113 O108 1.244 . S
O114 Mg99 2.013 . S
O114 C103 1.191 1_556 S
O115 C94 1.331 . S
O115 Mg101 2.081 . S
O116 Mg97 1.986 1_554 S
O116 C103 1.307 . S
O117 C95 1.264 . S
O117 Mg101 2.023 . S
O118 C94 1.244 . S
O118 Mg102 1.942 . S
O119 C95 1.273 . S
O119 Mg102 1.955 . S
O120 C93 1.312 . S
O120 Mg96 2.291 . S
O120 Mg99 2.114 . S
O121 C93 1.208 . S
O121 Mg101 2.031 . S
C122 O107 1.264 . S
C122 O109 1.273 . S
C123 O104 1.191 . S
C123 O106 1.307 . S
C124 C125 1.387 . S
C124 H128 0.950 . S
C124 C133 1.390 1_455 S
C125 C124 1.387 . S
C125 C127 1.387 . S
H126 C133 0.950 . S
C127 C125 1.387 . S
C127 C129 1.390 1_455 S
C127 H131 0.950 . S
H128 C124 0.950 . S
C129 C127 1.390 1_655 S
C129 C130 1.387 . S
C129 H132 0.950 . S
C130 C129 1.387 . S
C130 C133 1.387 . S
H131 C127 0.950 . S
H132 C129 0.950 . S
C133 C124 1.390 1_655 S
C133 H126 0.950 . S
C133 C130 1.387 . S
C134 C135 1.387 . S
C134 H138 0.950 . S
C134 C143 1.390 1_455 S
C135 C134 1.387 . S
C135 C137 1.387 . S
H136 C143 0.950 . S
C137 C135 1.387 . S
C137 C139 1.390 1_455 S
C137 H141 0.950 . S
H138 C134 0.950 . S
C139 C137 1.390 1_655 S
C139 C140 1.387 . S
C139 H142 0.950 . S
C140 C139 1.387 . S
C140 C143 1.387 . S
H141 C137 0.950 . S
H142 C139 0.950 . S
C143 C134 1.390 1_655 S
C143 H136 0.950 . S
C143 C140 1.387 . S
C144 C145 1.387 . S
C144 H148 0.950 . S
C144 C153 1.390 . S
C145 C144 1.387 . S
C145 C147 1.387 . S
H146 C153 0.950 . S
C147 C145 1.387 . S
C147 C149 1.390 . S
C147 H151 0.950 . S
H148 C144 0.950 . S
C149 C147 1.390 . S
C149 C150 1.387 . S
C149 H152 0.950 . S
C150 C149 1.387 . S
C150 C153 1.387 . S
H151 C147 0.950 . S
H152 C149 0.950 . S
C153 C144 1.390 . S
C153 H146 0.950 . S
C153 C150 1.387 . S
C154 C155 1.387 . S
C154 H158 0.950 . S
C154 C163 1.390 . S
C155 C154 1.387 . S
C155 C157 1.387 . S
H156 C163 0.950 . S
C157 C155 1.387 . S
C157 C159 1.390 . S
C157 H161 0.950 . S
H158 C154 0.950 . S
C159 C157 1.390 . S
C159 C160 1.387 . S
C159 H162 0.950 . S
C160 C159 1.387 . S
C160 C163 1.387 . S
H161 C157 0.950 . S
H162 C159 0.950 . S
C163 C154 1.390 . S
C163 H156 0.950 . S
C163 C160 1.387 . S
C164 C165 1.387 . S
C164 H168 0.950 . S
C164 C173 1.390 . S
C165 C164 1.387 . S
C165 C167 1.387 . S
H166 C173 0.950 . S
C167 C165 1.387 . S
C167 C169 1.390 . S
C167 H171 0.950 . S
H168 C164 0.950 . S
C169 C167 1.390 . S
C169 C170 1.387 . S
C169 H172 0.950 . S
C170 C169 1.387 . S
C170 C173 1.387 . S
H171 C167 0.950 . S
H172 C169 0.950 . S
C173 C164 1.390 . S
C173 H166 0.950 . S
C173 C170 1.387 . S
C174 C175 1.387 . S
C174 H178 0.950 . S
C174 C183 1.390 . S
C175 C174 1.387 . S
C175 C177 1.387 . S
H176 C183 0.950 . S
C177 C175 1.387 . S
C177 C179 1.390 . S
C177 H181 0.950 . S
H178 C174 0.950 . S
C179 C177 1.390 . S
C179 C180 1.387 . S
C179 H182 0.950 . S
C180 C179 1.387 . S
C180 C183 1.387 . S
H181 C177 0.950 . S
H182 C179 0.950 . S
C183 C174 1.390 . S
C183 H176 0.950 . S
C183 C180 1.387 . S
C184 C185 1.387 . S
C184 H188 0.950 . S
C184 C193 1.390 1_655 S
C185 C184 1.387 . S
C185 C187 1.387 . S
H186 C193 0.950 . S
C187 C185 1.387 . S
C187 C189 1.390 1_655 S
C187 H191 0.950 . S
H188 C184 0.950 . S
C189 C187 1.390 1_455 S
C189 C190 1.387 . S
C189 H192 0.950 . S
C190 C189 1.387 . S
C190 C193 1.387 . S
H191 C187 0.950 . S
H192 C189 0.950 . S
C193 C184 1.390 1_455 S
C193 H186 0.950 . S
C193 C190 1.387 . S
C194 C195 1.387 . S
C194 H198 0.950 . S
C194 C203 1.390 1_655 S
C195 C194 1.387 . S
C195 C197 1.387 . S
H196 C203 0.950 . S
C197 C195 1.387 . S
C197 C199 1.390 1_655 S
C197 H201 0.950 . S
H198 C194 0.950 . S
C199 C197 1.390 1_455 S
C199 C200 1.387 . S
C199 H202 0.950 . S
C200 C199 1.387 . S
C200 C203 1.387 . S
H201 C197 0.950 . S
H202 C199 0.950 . S
C203 C194 1.390 1_455 S
C203 H196 0.950 . S
C203 C200 1.387 . S
C204 C205 1.387 . S
C204 H208 0.950 . S
C204 C213 1.390 . S
C205 C204 1.387 . S
C205 C207 1.387 . S
H206 C213 0.950 . S
C207 C205 1.387 . S
C207 C209 1.390 . S
C207 H211 0.950 . S
H208 C204 0.950 . S
C209 C207 1.390 . S
C209 C210 1.387 . S
C209 H212 0.950 . S
C210 C209 1.387 . S
C210 C213 1.387 . S
H211 C207 0.950 . S
H212 C209 0.950 . S
C213 C204 1.390 . S
C213 H206 0.950 . S
C213 C210 1.387 . S
C214 C215 1.387 1_554 S
C214 H218 0.950 . S
C214 C223 1.390 . S
C215 C214 1.387 1_556 S
C215 C217 1.387 . S
H216 C223 0.950 . S
C217 C215 1.387 . S
C217 C219 1.390 . S
C217 H221 0.950 . S
H218 C214 0.950 . S
C219 C217 1.390 . S
C219 C220 1.387 1_556 S
C219 H222 0.950 . S
C220 C219 1.387 1_554 S
C220 C223 1.387 . S
H221 C217 0.950 . S
H222 C219 0.950 . S
C223 C214 1.390 . S
C223 H216 0.950 . S
C223 C220 1.387 . S
C224 C225 1.387 . S
C224 H228 0.950 . S
C224 C233 1.390 . S
C225 C224 1.387 . S
C225 C227 1.387 . S
H226 C233 0.950 . S
C227 C225 1.387 . S
C227 C229 1.390 . S
C227 H231 0.950 . S
H228 C224 0.950 . S
C229 C227 1.390 . S
C229 C230 1.387 . S
C229 H232 0.950 . S
C230 C229 1.387 . S
C230 C233 1.387 . S
H231 C227 0.950 . S
H232 C229 0.950 . S
C233 C224 1.390 . S
C233 H226 0.950 . S
C233 C230 1.387 . S
C234 C235 1.387 1_556 S
C234 H238 0.950 . S
C234 C243 1.390 . S
C235 C234 1.387 1_554 S
C235 C237 1.387 . S
H236 C243 0.950 . S
C237 C235 1.387 . S
C237 C239 1.390 . S
C237 H241 0.950 . S
H238 C234 0.950 . S
C239 C237 1.390 . S
C239 C240 1.387 1_554 S
C239 H242 0.950 . S
C240 C239 1.387 1_556 S
C240 C243 1.387 . S
H241 C237 0.950 . S
H242 C239 0.950 . S
C243 C234 1.390 . S
C243 H236 0.950 . S
C243 C240 1.387 . S
C244 C245 1.387 1_556 S
C244 H248 0.950 . S
C244 C253 1.390 1_645 S
C245 C244 1.387 1_554 S
C245 C247 1.387 1_545 S
H246 C253 0.950 . S
C247 C245 1.387 1_565 S
C247 C249 1.390 1_655 S
C247 H251 0.950 . S
H248 C244 0.950 . S
C249 C247 1.390 1_455 S
C249 C250 1.387 1_554 S
C249 H252 0.950 . S
C250 C249 1.387 1_556 S
C250 C253 1.387 . S
H251 C247 0.950 . S
H252 C249 0.950 . S
C253 C244 1.390 1_465 S
C253 H246 0.950 . S
C253 C250 1.387 . S
C254 C255 1.387 . S
C254 H258 0.950 . S
C254 C263 1.390 1_445 S
C255 C254 1.387 . S
C255 C257 1.387 . S
H256 C263 0.950 . S
C257 C255 1.387 . S
C257 C259 1.390 1_445 S
C257 H261 0.950 . S
H258 C254 0.950 . S
C259 C257 1.390 1_665 S
C259 C260 1.387 . S
C259 H262 0.950 . S
C260 C259 1.387 . S
C260 C263 1.387 . S
H261 C257 0.950 . S
H262 C259 0.950 . S
C263 C254 1.390 1_665 S
C263 H256 0.950 . S
C263 C260 1.387 . S
C264 C265 1.387 1_556 S
C264 H268 0.950 . S
C264 C273 1.390 . S
C265 C264 1.387 1_554 S
C265 C267 1.387 . S
H266 C273 0.950 . S
C267 C265 1.387 . S
C267 C269 1.390 . S
C267 H271 0.950 . S
H268 C264 0.950 . S
C269 C267 1.390 . S
C269 C270 1.387 1_554 S
C269 H272 0.950 . S
C270 C269 1.387 1_556 S
C270 C273 1.387 . S
H271 C267 0.950 . S
H272 C269 0.950 . S
C273 C264 1.390 . S
C273 H266 0.950 . S
C273 C270 1.387 . S
C274 C275 1.387 . S
C274 H278 0.950 . S
C274 C283 1.390 . S
C275 C274 1.387 . S
C275 C277 1.387 . S
H276 C283 0.950 . S
C277 C275 1.387 . S
C277 C279 1.390 . S
C277 H281 0.950 . S
H278 C274 0.950 . S
C279 C277 1.390 . S
C279 C280 1.387 . S
C279 H282 0.950 . S
C280 C279 1.387 . S
C280 C283 1.387 . S
H281 C277 0.950 . S
H282 C279 0.950 . S
C283 C274 1.390 . S
C283 H276 0.950 . S
C283 C280 1.387 . S
C125 C19 1.479 . S
C130 C30 1.480 . S
C135 C31 1.479 . S
C140 C41 1.480 . S
C145 C62 1.479 . S
C150 C72 1.480 . S
C155 C103 1.480 . S
C160 C93 1.480 . S
C165 C10 1.360 . S
C170 C0 1.342 . S
C175 C61 1.360 . S
C180 C50 1.342 . S
C185 C81 1.340 . S
C190 C92 1.358 . S
C195 C112 1.342 . S
C200 C123 1.360 . S
C205 C122 1.681 . S
C210 C1 1.678 . S
C215 C113 1.680 . S
C220 C2 1.683 . S
C225 C82 1.680 . S
C230 C60 1.683 . S
C235 C91 1.681 . S
C240 C51 1.678 . S
C245 C20 1.551 . S
C250 C33 1.521 . S
C255 C29 1.516 . S
C260 C32 1.547 . S
C265 C63 1.551 . S
C270 C95 1.521 . S
C275 C94 1.547 . S
C280 C64 1.516 . S
