# Generated by pormake.
# Topology ncb, (9)-cn, num edge types: 1
# Building blocks:
#     Node 0, Type 0, BuildingBlock: BELTOD_clean_sbu_0, # of connection points: 9
#     Node 1, Type 0, BuildingBlock: BELTOD_clean_sbu_0, # of connection points: 9
#     Node 2, Type 0, BuildingBlock: BELTOD_clean_sbu_0, # of connection points: 9
#     Node 3, Type 0, BuildingBlock: BELTOD_clean_sbu_0, # of connection points: 9
#     Node 4, Type 0, BuildingBlock: BELTOD_clean_sbu_0, # of connection points: 9
#     Node 5, Type 0, BuildingBlock: BELTOD_clean_sbu_0, # of connection points: 9
#     Node 6, Type 0, BuildingBlock: BELTOD_clean_sbu_0, # of connection points: 9
#     Node 7, Type 0, BuildingBlock: BELTOD_clean_sbu_0, # of connection points: 9
#     Edge 8, Type (0, 0), BuildingBlock: CIFDUS_clean_linker_0, # of connection points: 2
#     Edge 9, Type (0, 0), BuildingBlock: CIFDUS_clean_linker_0, # of connection points: 2
#     Edge 10, Type (0, 0), BuildingBlock: CIFDUS_clean_linker_0, # of connection points: 2
#     Edge 11, Type (0, 0), BuildingBlock: CIFDUS_clean_linker_0, # of connection points: 2
#     Edge 12, Type (0, 0), BuildingBlock: CIFDUS_clean_linker_0, # of connection points: 2
#     Edge 13, Type (0, 0), BuildingBlock: CIFDUS_clean_linker_0, # of connection points: 2
#     Edge 14, Type (0, 0), BuildingBlock: CIFDUS_clean_linker_0, # of connection points: 2
#     Edge 15, Type (0, 0), BuildingBlock: CIFDUS_clean_linker_0, # of connection points: 2
#     Edge 16, Type (0, 0), BuildingBlock: CIFDUS_clean_linker_0, # of connection points: 2
#     Edge 17, Type (0, 0), BuildingBlock: CIFDUS_clean_linker_0, # of connection points: 2
#     Edge 18, Type (0, 0), BuildingBlock: CIFDUS_clean_linker_0, # of connection points: 2
#     Edge 19, Type (0, 0), BuildingBlock: CIFDUS_clean_linker_0, # of connection points: 2
#     Edge 20, Type (0, 0), BuildingBlock: CIFDUS_clean_linker_0, # of connection points: 2
#     Edge 21, Type (0, 0), BuildingBlock: CIFDUS_clean_linker_0, # of connection points: 2
#     Edge 22, Type (0, 0), BuildingBlock: CIFDUS_clean_linker_0, # of connection points: 2
#     Edge 23, Type (0, 0), BuildingBlock: CIFDUS_clean_linker_0, # of connection points: 2
#     Edge 24, Type (0, 0), BuildingBlock: CIFDUS_clean_linker_0, # of connection points: 2
#     Edge 25, Type (0, 0), BuildingBlock: CIFDUS_clean_linker_0, # of connection points: 2
#     Edge 26, Type (0, 0), BuildingBlock: CIFDUS_clean_linker_0, # of connection points: 2
#     Edge 27, Type (0, 0), BuildingBlock: CIFDUS_clean_linker_0, # of connection points: 2
#     Edge 28, Type (0, 0), BuildingBlock: CIFDUS_clean_linker_0, # of connection points: 2
#     Edge 29, Type (0, 0), BuildingBlock: CIFDUS_clean_linker_0, # of connection points: 2
#     Edge 30, Type (0, 0), BuildingBlock: CIFDUS_clean_linker_0, # of connection points: 2
#     Edge 31, Type (0, 0), BuildingBlock: CIFDUS_clean_linker_0, # of connection points: 2
#     Edge 32, Type (0, 0), BuildingBlock: CIFDUS_clean_linker_0, # of connection points: 2
#     Edge 33, Type (0, 0), BuildingBlock: CIFDUS_clean_linker_0, # of connection points: 2
#     Edge 34, Type (0, 0), BuildingBlock: CIFDUS_clean_linker_0, # of connection points: 2
#     Edge 35, Type (0, 0), BuildingBlock: CIFDUS_clean_linker_0, # of connection points: 2
#     Edge 36, Type (0, 0), BuildingBlock: CIFDUS_clean_linker_0, # of connection points: 2
#     Edge 37, Type (0, 0), BuildingBlock: CIFDUS_clean_linker_0, # of connection points: 2
#     Edge 38, Type (0, 0), BuildingBlock: CIFDUS_clean_linker_0, # of connection points: 2
#     Edge 39, Type (0, 0), BuildingBlock: CIFDUS_clean_linker_0, # of connection points: 2
#     Edge 40, Type (0, 0), BuildingBlock: CIFDUS_clean_linker_0, # of connection points: 2
#     Edge 41, Type (0, 0), BuildingBlock: CIFDUS_clean_linker_0, # of connection points: 2
#     Edge 42, Type (0, 0), BuildingBlock: CIFDUS_clean_linker_0, # of connection points: 2
#     Edge 43, Type (0, 0), BuildingBlock: CIFDUS_clean_linker_0, # of connection points: 2
# Relax obj value: 0.226
# Max RMSD: 0.276
# Mean RMSD: 0.273
data_MOF--net-ncb--node1-BELTOD_clean_sbu_0--edge1-CIFDUS_clean_linker_0
_symmetry_space_group_name_H-M    P1
_symmetry_Int_Tables_number       1
_symmetry_cell_setting            triclinic
loop_
_symmetry_equiv_pos_as_xyz
'x, y, z'
_cell_length_a     25.505668
_cell_length_b     25.732818
_cell_length_c     25.653047
_cell_angle_alpha  90.683464
_cell_angle_beta   87.70388
_cell_angle_gamma 89.189978
loop_
_atom_site_label
_atom_site_type_symbol
_atom_site_fract_x
_atom_site_fract_y
_atom_site_fract_z
_atom_type_partial_charge
Mn0 Mn 0.29583 0.28382 0.29406 0.0
Mn1 Mn 0.20059 0.21635 0.28322 0.0
O2 O 0.15041 0.23506 0.22667 0.0
O3 O 0.11978 0.15738 0.20447 0.0
Mn4 Mn 0.16632 0.11742 0.24202 0.0
C5 C 0.29695 0.18458 0.32954 0.0
O6 O 0.32945 0.21257 0.30217 0.0
O7 O 0.25224 0.20482 0.3409 0.0
P8 P 0.37257 0.35793 0.37413 0.0
C9 C 0.12659 0.13593 0.33639 0.0
C10 C 0.24435 0.10633 0.2203 0.0
O11 O 0.24172 0.34245 0.2954 0.0
O12 O 0.18008 0.28405 0.31978 0.0
O13 O 0.36024 0.32166 0.31936 0.0
C14 C 0.27799 0.27 0.20374 0.0
O15 O 0.13877 0.18297 0.32726 0.0
O16 O 0.14728 0.10006 0.30853 0.0
C17 C 0.19363 0.33055 0.31003 0.0
O18 O 0.20982 1.07193 0.20881 0.0
O19 O 0.22727 0.14889 0.24468 0.0
C20 C 0.11983 0.20686 0.20158 0.0
O21 O 0.25406 0.25221 0.24399 0.0
O22 O 0.31727 0.2955 0.21846 0.0
Mn23 Mn 0.28131 0.86994 0.85174 0.0
Mn24 Mn 0.25862 0.95977 0.92024 0.0
O25 O 0.22462 1.01605 0.87541 0.0
O26 O 0.16014 1.05619 0.92408 0.0
Mn27 Mn 0.18439 1.03529 0.98763 0.0
C28 C 0.28813 0.85268 0.96165 0.0
O29 O 0.2792 0.82867 0.91816 0.0
O30 O 0.28945 0.90229 0.96458 0.0
P31 P 0.36076 0.77598 0.78764 0.0
C32 C 0.2926 1.05351 0.98951 0.0
C33 C 0.17404 0.95494 1.01344 0.0
O34 O 0.28793 0.92525 0.79717 0.0
O35 O 0.32093 0.95312 0.86748 0.0
O36 O 0.34972 0.83305 0.82309 0.0
C37 C 0.18753 0.87713 0.85295 0.0
O38 O 0.30236 1.01364 0.96021 0.0
O39 O 0.24626 1.06739 1.0049 0.0
C40 C 0.31162 0.96209 0.82025 0.0
O41 O 0.14957 0.99325 1.03711 0.0
O42 O 0.20069 0.96959 0.97322 0.0
C43 C 0.18501 1.04684 0.88062 0.0
O44 O 0.21925 0.9061 0.87753 0.0
O45 O 0.21318 0.84161 0.82626 0.0
Mn46 Mn 0.85155 0.85585 0.29634 0.0
Mn47 Mn 0.94198 0.89375 0.20611 0.0
O48 O 0.96884 0.83032 0.16436 0.0
O49 O 0.98943 0.86336 0.08513 0.0
Mn50 Mn 0.95854 0.93041 0.09206 0.0
C51 C 0.87876 0.9702 0.28053 0.0
O52 O 0.8485 0.93448 0.29846 0.0
O53 O 0.91746 0.95987 0.24862 0.0
P54 P 0.77776 0.80557 0.39068 0.0
C55 C 1.01633 0.97253 0.16785 0.0
C56 C 0.87864 0.95174 0.11862 0.0
O57 O 0.9219 0.8534 0.33426 0.0
O58 O 0.97905 0.86515 0.26677 0.0
O59 O 0.80848 0.85936 0.36483 0.0
C60 C 0.83031 0.85388 0.20918 0.0
O61 O 1.01168 0.92749 0.18616 0.0
O62 O 0.99935 0.98167 0.12287 0.0
C63 C 0.96949 0.85349 0.31374 0.0
O64 O 0.89472 0.95769 1.0706 0.0
O65 O 0.91023 0.92258 0.143 0.0
C66 C 0.99147 0.82686 0.11907 0.0
O67 O 0.87728 0.85418 0.22654 0.0
O68 O 0.79425 0.85536 0.24653 0.0
Mn69 Mn 0.81816 0.2953 0.84811 0.0
Mn70 Mn 0.9027 0.21358 0.89307 0.0
O71 O 0.86055 0.1749 0.95159 0.0
O72 O 0.85967 0.09054 0.93211 0.0
Mn73 Mn 0.92511 0.09631 0.89863 0.0
C74 C 0.93553 0.30575 0.83868 0.0
O75 O 0.89104 0.32928 0.84989 0.0
O76 O 0.93765 0.25673 0.83641 0.0
P77 P 0.74664 0.38762 0.79596 0.0
C78 C 0.99228 0.16379 0.95029 0.0
C79 C 0.94991 0.12011 0.82168 0.0
O80 O 0.80887 0.30148 0.9266 0.0
O81 O 0.89039 0.27852 0.94086 0.0
O82 O 0.78419 0.36636 0.84583 0.0
C83 C 0.79314 0.20849 0.85046 0.0
O84 O 0.96963 0.20336 0.93171 0.0
O85 O 0.97636 0.1173 0.9445 0.0
C86 C 0.8466 0.29761 0.95773 0.0
O87 O 0.95265 1.07182 0.83533 0.0
O88 O 0.91936 0.14748 0.85325 0.0
C89 C 0.84229 0.12953 0.95888 0.0
O90 O 0.83981 0.22615 0.8517 0.0
O91 O 0.75815 0.24577 0.847 0.0
Mn92 Mn 0.80472 0.82024 0.79223 0.0
Mn93 Mn 0.76136 0.74484 0.70133 0.0
O94 O 0.71388 0.79649 0.66447 0.0
O95 O 0.71336 0.77874 0.57962 0.0
Mn96 Mn 0.76457 0.72655 0.5825 0.0
C97 C 0.80341 0.7026 0.79526 0.0
O98 O 0.79611 0.74655 0.82038 0.0
O99 O 0.80608 0.69977 0.74553 0.0
P100 P 0.85374 0.8918 0.88321 0.0
C101 C 0.7081 0.65635 0.63987 0.0
C102 C 0.84503 0.71827 0.60462 0.0
O103 O 0.72543 0.83113 0.7938 0.0
O104 O 0.70883 0.75276 0.7642 0.0
O105 O 0.80512 0.84991 0.86577 0.0
C106 C 0.81174 0.84901 0.70786 0.0
O107 O 0.7164 0.68321 0.68076 0.0
O108 O 0.72899 0.6658 0.59517 0.0
C109 C 0.69251 0.79493 0.78549 0.0
O110 O 0.83245 0.7193 0.55598 0.0
O111 O 0.80669 0.73348 0.63614 0.0
C112 C 0.6914 0.79777 0.62118 0.0
O113 O 0.80665 0.80206 0.72283 0.0
O114 O 0.81429 0.88209 0.74671 0.0
Mn115 Mn 0.79541 0.37416 0.35479 0.0
Mn116 Mn 0.72615 0.4574 0.42829 0.0
O117 O 0.66353 0.48843 0.39447 0.0
O118 O 0.60574 0.50338 0.46056 0.0
Mn119 Mn 0.6489 0.47271 0.50817 0.0
C120 C 0.80172 0.38275 0.46988 0.0
O121 O 0.80299 0.35144 0.43064 0.0
O122 O 0.79195 0.43 0.46187 0.0
P123 P 0.88496 0.29496 0.2839 0.0
C124 C 0.73209 0.52566 0.52793 0.0
C125 C 0.64608 0.39417 0.51549 0.0
O126 O 0.83635 0.4441 0.36104 0.0
O127 O 0.76855 0.49864 0.37779 0.0
O128 O 0.86452 0.33474 0.3364 0.0
C129 C 0.70529 0.35779 0.36203 0.0
O130 O 0.73866 0.52031 0.47875 0.0
O131 O 0.69085 0.5099 0.54968 0.0
C132 C 0.81536 0.49092 0.36204 0.0
O133 O 0.62148 0.42534 0.54848 0.0
O134 O 0.67735 0.41375 0.47859 0.0
C135 C 0.61915 0.50392 0.41224 0.0
O136 O 0.72782 0.40131 0.37159 0.0
O137 O 0.73937 0.32142 0.34764 0.0
Mn138 Mn 0.30831 0.35442 0.7874 0.0
Mn139 Mn 0.37604 0.43331 0.71493 0.0
O140 O 0.38873 0.41749 0.63918 0.0
O141 O 0.40766 0.49739 0.61077 0.0
Mn142 Mn 0.36843 0.53609 0.66418 0.0
C143 C 0.32504 0.46254 0.8173 0.0
O144 O 0.2934 0.42451 0.82209 0.0
O145 O 0.36808 0.455 0.79224 0.0
P146 P 0.25318 0.27667 0.87558 0.0
C147 C 0.44478 0.52893 0.7267 0.0
C148 C 0.28684 0.51806 0.68155 0.0
O149 O 0.3868 0.35221 0.80378 0.0
O150 O 0.42718 0.3767 0.73048 0.0
O151 O 0.30253 0.31825 0.85739 0.0
C152 C 0.32158 0.33273 0.70035 0.0
O153 O 0.44074 0.48112 0.71437 0.0
O154 O 0.4077 0.56 0.71758 0.0
C155 C 0.42849 0.35517 0.77408 0.0
O156 O 0.30097 0.56126 0.66005 0.0
O157 O 0.32648 0.49016 0.69481 0.0
C158 C 0.41126 0.44743 0.60677 0.0
O159 O 0.31727 0.38038 0.71829 0.0
O160 O 0.32006 0.29741 0.73666 0.0
Mn161 Mn 0.34113 0.76972 0.35217 0.0
Mn162 Mn 0.37112 0.70023 0.44913 0.0
O163 O 0.33087 0.63425 0.46894 0.0
O164 O 0.3958 0.57943 0.49398 0.0
Mn165 Mn 0.45561 0.62083 0.48476 0.0
C166 C 0.44518 0.77454 0.39357 0.0
O167 O 0.42072 0.77397 0.35098 0.0
O168 O 0.41948 0.76359 0.43543 0.0
P169 P 0.2868 0.86155 0.28469 0.0
C170 C 0.43346 0.70643 0.54808 0.0
C171 C 0.47541 0.64961 0.40515 0.0
O172 O 0.33391 0.81146 0.42332 0.0
O173 O 0.30527 0.74234 0.46151 0.0
O174 O 0.34192 0.8359 0.31153 0.0
C175 C 0.34383 0.68007 0.33063 0.0
O176 O 0.38993 0.71099 0.52596 0.0
O177 O 0.46653 0.67045 0.53579 0.0
C178 C 0.31331 0.7901 0.46484 0.0
O179 O 0.5057 0.61757 0.42863 0.0
O180 O 0.43426 0.65871 0.43331 0.0
C181 C 0.3472 0.5906 0.48659 0.0
O182 O 0.34553 0.70071 0.37662 0.0
O183 O 0.34375 0.71579 0.29501 0.0
H184 H 0.29905 0.33706 0.12439 0.0
H185 H 0.2234 0.19148 0.15429 0.0
H186 H 0.21044 0.17926 1.06096 0.0
H187 H 0.2221 0.20996 0.96836 0.0
H188 H 0.28681 0.36197 0.94282 0.0
H189 H 0.30098 0.37192 1.03534 0.0
C190 C 0.2792 0.30279 0.11074 0.0
C191 C 0.26345 0.26471 0.14718 0.0
C192 C 0.26946 0.29727 1.05687 0.0
C193 C 0.2369 0.22124 0.128 0.0
C194 C 0.22944 0.21418 1.0741 0.0
C195 C 0.23888 0.2454 0.98312 0.0
C196 C 0.25466 0.28447 0.94751 0.0
C197 C 0.24566 0.25195 1.03782 0.0
C198 C 0.27537 0.33045 0.96818 0.0
C199 C 0.28346 0.33642 1.02162 0.0
H200 H 0.3612 0.87169 1.0319 0.0
H201 H 0.22437 0.77933 1.01025 0.0
H202 H 0.21156 0.77198 0.10558 0.0
H203 H 0.22789 0.81066 0.19361 0.0
H204 H 0.37414 0.8901 0.21253 0.0
H205 H 0.39074 0.88856 0.11997 0.0
C206 C 0.3293 0.8485 1.04782 0.0
C207 C 0.29323 0.82703 1.01345 0.0
C208 C 0.32108 0.84611 0.10247 0.0
C209 C 0.25267 0.7967 1.03524 0.0
C210 C 0.24459 0.79367 0.09003 0.0
C211 C 0.26435 0.82624 0.17883 0.0
C212 C 0.29841 0.85269 0.21267 0.0
C213 C 0.27655 0.82136 0.12412 0.0
C214 C 0.34498 0.87237 0.18955 0.0
C215 C 0.35547 0.87048 0.13568 0.0
H216 H 0.77801 0.91286 0.97611 0.0
H217 H 0.92512 0.8305 0.94743 0.0
H218 H 0.9237 0.80197 1.03629 0.0
H219 H 0.88652 0.80703 0.12698 0.0
H220 H 0.74322 0.89222 0.15986 0.0
H221 H 0.73474 0.90766 1.06595 0.0
C222 C 0.81089 0.89052 0.98958 0.0
C223 C 0.85392 0.87826 0.95436 0.0
C224 C 0.81018 0.87348 1.04252 0.0
C225 C 0.8933 0.84484 0.97287 0.0
C226 C 0.89234 0.82746 1.02442 0.0
C227 C 0.85479 0.83105 0.11401 0.0
C228 C 0.81868 0.853 0.15156 0.0
C229 C 0.85222 0.84312 1.06027 0.0
C230 C 0.77345 0.87718 0.13268 0.0
C231 C 0.76888 0.88654 0.07869 0.0
H232 H 0.87469 0.23371 1.03286 0.0
H233 H 0.80511 0.38478 1.01475 0.0
H234 H 0.80555 0.3993 0.11052 0.0
H235 H 0.83194 0.36801 0.20193 0.0
H236 H 0.90269 0.21454 0.20748 0.0
H237 H 0.88985 0.20133 0.11744 0.0
C238 C 0.85827 0.26945 1.04958 0.0
C239 C 0.83972 0.30754 1.016 0.0
C240 C 0.85743 0.27684 0.10417 0.0
C241 C 0.81947 0.35413 1.03922 0.0
C242 C 0.81995 0.3625 0.09433 0.0
C243 C 0.84348 0.33126 0.18361 0.0
C244 C 0.86456 0.29076 0.21469 0.0
C245 C 0.83963 0.32404 0.12784 0.0
C246 C 0.88174 0.24496 0.18803 0.0
C247 C 0.87653 0.23758 0.13498 0.0
H248 H 0.96344 0.32742 0.36064 0.0
H249 H 0.96121 0.31401 0.19277 0.0
H250 H 1.05147 0.34111 0.18545 0.0
H251 H 0.13645 0.35484 0.22663 0.0
H252 H 0.13905 0.37344 0.39328 0.0
H253 H 1.04432 0.36069 0.40047 0.0
C254 C 0.98253 0.33015 0.3223 0.0
C255 C 0.95461 0.31576 0.27768 0.0
C256 C 1.03531 0.34749 0.31785 0.0
C257 C 0.9805 0.32208 0.22854 0.0
C258 C 1.03284 0.33843 0.22402 0.0
C259 C 0.116 0.3597 0.26432 0.0
C260 C 0.14607 0.36478 0.30938 0.0
C261 C 1.06128 0.34978 0.26837 0.0
C262 C 0.11782 0.37022 0.35765 0.0
C263 C 1.06347 0.36093 0.36199 0.0
H264 H 0.36225 1.04034 0.86647 0.0
H265 H 0.25646 1.01394 0.74241 0.0
H266 H 0.23401 0.10755 0.74298 0.0
H267 H 0.23024 0.19343 0.79292 0.0
H268 H 0.33541 0.21431 0.91879 0.0
H269 H 0.36901 0.12616 0.90565 0.0
C270 C 0.33453 1.05472 0.83887 0.0
C271 C 0.31 1.01898 0.80552 0.0
C272 C 0.3189 0.10752 0.84221 0.0
C273 C 0.27591 1.03966 0.76891 0.0
C274 C 0.26239 0.09341 0.76994 0.0
C275 C 0.26051 0.17886 0.81741 0.0
C276 C 0.27798 0.21033 0.8591 0.0
C277 C 0.28078 0.12712 0.80902 0.0
C278 C 0.31898 0.1907 0.88846 0.0
C279 C 0.33883 0.14019 0.88054 0.0
H280 H 0.20132 0.89839 0.3669 0.0
H281 H 0.22742 0.76472 0.26703 0.0
H282 H 0.13367 0.74565 0.27344 0.0
H283 H 1.04195 0.77688 0.29276 0.0
H284 H 1.0145 0.91253 0.39014 0.0
H285 H 0.10965 0.92118 0.39904 0.0
C286 C 0.18649 0.86672 0.34415 0.0
C287 C 0.22122 0.83766 0.30955 0.0
C288 C 0.13155 0.85599 0.34825 0.0
C289 C 0.20151 0.79118 0.28917 0.0
C290 C 0.14757 0.77984 0.29339 0.0
C291 C 1.05645 0.80708 0.31803 0.0
C292 C 1.0198 0.84345 0.34152 0.0
C293 C 0.11169 0.81352 0.32051 0.0
C294 C 1.04053 0.88291 0.37281 0.0
C295 C 0.09545 0.88863 0.37675 0.0
H296 H 0.7672 0.97244 0.91204 0.0
H297 H 0.895 0.95614 0.79763 0.0
H298 H 0.88042 1.0448 0.76968 0.0
H299 H 0.84491 0.13364 0.79081 0.0
H300 H 0.71445 0.15121 0.901 0.0
H301 H 0.71283 1.05577 0.91164 0.0
C302 C 0.79267 0.98836 0.88179 0.0
C303 C 0.83581 0.95809 0.8608 0.0
C304 C 0.78388 1.04055 0.86494 0.0
C305 C 0.86451 0.97891 0.81802 0.0
C306 C 0.85584 1.02997 0.8014 0.0
C307 C 0.81706 0.11693 0.81861 0.0
C308 C 0.78289 0.15055 0.84848 0.0
C309 C 0.81846 1.06248 0.82735 0.0
C310 C 0.74318 0.12717 0.87943 0.0
C311 C 0.74297 1.07254 0.88641 0.0
H312 H 0.94893 0.95071 0.89819 0.0
H313 H 0.91424 0.80537 0.82382 0.0
H314 H 1.00913 0.78852 0.80682 0.0
H315 H 0.10444 0.81438 0.81708 0.0
H316 H 0.1336 0.95919 0.89571 0.0
H317 H 1.04034 0.9772 0.90578 0.0
C318 C 0.96191 0.9157 0.87724 0.0
C319 C 0.92371 0.88002 0.8614 0.0
C320 C 1.01657 0.90612 0.86831 0.0
C321 C 0.94204 0.83421 0.83564 0.0
C322 C 0.99669 0.82447 0.82626 0.0
C323 C 0.09046 0.85016 0.83585 0.0
C324 C 0.12778 0.88604 0.85472 0.0
C325 C 1.03482 0.85996 0.84287 0.0
C326 C 0.10738 0.93153 0.87948 0.0
C327 C 1.05335 0.94163 0.88589 0.0
H328 H 0.93146 1.0448 0.33705 0.0
H329 H 0.79382 1.02426 0.24777 0.0
H330 H 0.77871 0.11854 0.24771 0.0
H331 H 0.80973 0.20825 0.26563 0.0
H332 H 0.94749 0.22864 0.35497 0.0
H333 H 0.95033 0.13471 0.37104 0.0
C334 C 0.89775 1.0609 0.31821 0.0
C335 C 0.86472 1.02691 0.29106 0.0
C336 C 0.88841 0.1158 0.31938 0.0
C337 C 0.82034 1.04894 0.2684 0.0
C338 C 0.81174 0.10319 0.26824 0.0
C339 C 0.84138 0.19229 0.28771 0.0
C340 C 0.88037 0.2262 0.30621 0.0
C341 C 0.84649 0.13728 0.29216 0.0
C342 C 0.9185 0.20425 0.33772 0.0
C343 C 0.92112 0.15008 0.34575 0.0
H344 H 1.01952 0.30635 0.76933 0.0
H345 H 0.97235 0.34877 0.92729 0.0
H346 H 1.06402 0.34537 0.9519 0.0
H347 H 0.15614 0.31787 0.93134 0.0
H348 H 0.20462 0.27933 0.77257 0.0
H349 H 0.11462 0.2945 0.74534 0.0
C350 C 1.0295 0.3179 0.80845 0.0
C351 C 0.98837 0.32906 0.846 0.0
C352 C 0.08278 0.31508 0.82255 0.0
C353 C 1.00254 0.34172 0.89703 0.0
C354 C 1.05522 0.33863 0.91142 0.0
C355 C 0.14745 0.31321 0.89062 0.0
C356 C 0.18733 0.29541 0.85434 0.0
C357 C 0.09546 0.32321 0.87503 0.0
C358 C 0.17479 0.29115 0.80166 0.0
C359 C 0.12321 0.30044 0.78598 0.0
H360 H 0.22173 0.95853 0.31407 0.0
H361 H 0.38612 0.92008 0.28927 0.0
H362 H 0.40749 1.01167 0.29495 0.0
H363 H 0.37576 0.10638 0.30317 0.0
H364 H 0.22357 0.12809 0.3811 0.0
H365 H 0.203 1.03834 0.36641 0.0
C366 C 0.26273 0.96799 0.31358 0.0
C367 C 0.30123 0.93067 0.29871 0.0
C368 C 0.27702 1.01908 0.32725 0.0
C369 C 0.35406 0.94746 0.29612 0.0
C370 C 0.36707 1.00016 0.30132 0.0
C371 C 0.33863 0.09156 0.31809 0.0
C372 C 0.29895 0.1264 0.33732 0.0
C373 C 0.32836 1.03712 0.31604 0.0
C374 C 0.2531 0.10429 0.36047 0.0
C375 C 0.2409 1.05239 0.35261 0.0
H376 H 0.86064 0.79827 0.47185 0.0
H377 H 0.70678 0.86745 0.46078 0.0
H378 H 0.7091 0.89956 0.54947 0.0
H379 H 0.74748 0.89517 0.63682 0.0
H380 H 0.90018 0.82483 0.65002 0.0
H381 H 0.90692 0.80974 0.55556 0.0
C382 C 0.82681 0.81861 0.48936 0.0
C383 C 0.78096 0.82447 0.46047 0.0
C384 C 0.82867 0.83847 0.5415 0.0
C385 C 0.7405 0.85683 0.48271 0.0
C386 C 0.74237 0.87706 0.53355 0.0
C387 C 0.78284 0.87781 0.61886 0.0
C388 C 0.82266 0.86003 0.65106 0.0
C389 C 0.78505 0.86594 0.56448 0.0
C390 C 0.86858 0.83861 0.62655 0.0
C391 C 0.87214 0.82922 0.5723 0.0
H392 H 0.81948 0.32436 0.71444 0.0
H393 H 0.68996 0.43503 0.71852 0.0
H394 H 0.69499 0.44089 0.62552 0.0
H395 H 0.74049 0.42472 0.54458 0.0
H396 H 0.8605 0.30731 0.52603 0.0
H397 H 0.85725 0.29564 0.62226 0.0
C398 C 0.79228 0.34924 0.69464 0.0
C399 C 0.75437 0.37972 0.72446 0.0
C400 C 0.79472 0.35244 0.63851 0.0
C401 C 0.7195 0.41132 0.69755 0.0
C402 C 0.72249 0.41517 0.64385 0.0
C403 C 0.76458 0.39493 0.56037 0.0
C404 C 0.79954 0.36673 0.52677 0.0
C405 C 0.76045 0.38717 0.61422 0.0
C406 C 0.83227 0.32962 0.55004 0.0
C407 C 0.83047 0.32317 0.60542 0.0
H408 H 0.4248 0.32203 0.47307 0.0
H409 H 0.26559 0.34228 0.42617 0.0
H410 H 0.23517 0.33667 0.51818 0.0
H411 H 0.25634 0.33647 0.6145 0.0
H412 H 0.41397 0.29615 0.65486 0.0
H413 H 0.44057 0.29152 0.56198 0.0
C414 C 0.38318 0.32328 0.48115 0.0
C415 C 0.34827 0.33501 0.44066 0.0
C416 C 0.36544 0.31591 0.53396 0.0
C417 C 0.29429 0.33528 0.45536 0.0
C418 C 0.27669 0.33182 0.50848 0.0
C419 C 0.29676 0.32711 0.60311 0.0
C420 C 0.33386 0.32002 0.64277 0.0
C421 C 0.31229 0.32426 0.5487 0.0
C422 C 0.38487 0.30403 0.62626 0.0
C423 C 0.40038 0.30215 0.57284 0.0
H424 H 0.27531 0.7398 0.54881 0.0
H425 H 0.35909 0.88005 0.51207 0.0
H426 H 0.37488 0.89202 0.60639 0.0
H427 H 0.37161 0.85535 0.70007 0.0
H428 H 0.32083 0.69715 0.71517 0.0
H429 H 0.28792 0.69794 0.62942 0.0
C430 C 0.29758 0.77343 0.56015 0.0
C431 C 0.31621 0.80858 0.52156 0.0
C432 C 0.31259 0.77611 0.61216 0.0
C433 C 0.34364 0.85209 0.53965 0.0
C434 C 0.35347 0.85835 0.59387 0.0
C435 C 0.3523 0.82155 0.68476 0.0
C436 C 0.34202 0.77846 0.7183 0.0
C437 C 0.33929 0.81957 0.63069 0.0
C438 C 0.32207 0.73352 0.69521 0.0
C439 C 0.30479 0.73328 0.64446 0.0
H440 H 0.44691 0.85422 0.79804 0.0
H441 H 0.43769 0.68937 0.76805 0.0
H442 H 0.53173 0.67988 0.77944 0.0
H443 H 0.61859 0.7185 0.78874 0.0
H444 H 0.63203 0.88476 0.80387 0.0
H445 H 0.53583 0.89368 0.80585 0.0
C446 C 0.46543 0.81624 0.7933 0.0
C447 C 0.43382 0.77213 0.78444 0.0
C448 C 0.52112 0.81147 0.79606 0.0
C449 C 0.45973 0.72379 0.77694 0.0
C450 C 0.51392 0.7183 0.78357 0.0
C451 C 0.60079 0.75691 0.79315 0.0
C452 C 0.63361 0.80099 0.79582 0.0
C453 C 0.54534 0.76191 0.79198 0.0
C454 C 0.6087 0.85003 0.80169 0.0
C455 C 0.55335 0.85515 0.80227 0.0
H456 H 0.8514 0.71909 0.42884 0.0
H457 H 0.75477 0.74565 0.29741 0.0
H458 H 0.76596 0.65492 0.27043 0.0
H459 H 0.7919 0.56458 0.2914 0.0
H460 H 0.89225 0.53717 0.41935 0.0
H461 H 0.89559 0.63187 0.43535 0.0
C462 C 0.83389 0.70575 0.3935 0.0
C463 C 0.80094 0.74022 0.36614 0.0
C464 C 0.84173 0.65262 0.37673 0.0
C465 C 0.77939 0.72078 0.32018 0.0
C466 C 0.78586 0.66841 0.30447 0.0
C467 C 0.81666 0.57905 0.32161 0.0
C468 C 0.84231 0.54235 0.35351 0.0
C469 C 0.81558 0.63338 0.33334 0.0
C470 C 0.87283 0.56314 0.39312 0.0
C471 C 0.87305 0.61738 0.4039 0.0
H472 H 0.66977 0.31764 0.751 0.0
H473 H 0.66997 0.42602 0.87995 0.0
H474 H 0.5739 0.42227 0.88887 0.0
H475 H 0.48841 0.39633 0.85142 0.0
H476 H 0.4911 0.28323 0.72613 0.0
H477 H 0.58671 0.27952 0.72528 0.0
C478 C 0.64894 0.34034 0.78128 0.0
C479 C 0.67689 0.37544 0.81199 0.0
C480 C 0.59377 0.33651 0.78722 0.0
C481 C 0.64929 0.40182 0.85307 0.0
C482 C 0.59421 0.39903 0.85868 0.0
C483 C 0.50984 0.369 0.82578 0.0
C484 C 0.4821 0.33914 0.7896 0.0
C485 C 0.56567 0.36777 0.82477 0.0
C486 C 0.51104 0.30553 0.75527 0.0
C487 C 0.56597 0.30403 0.75417 0.0
H488 H 0.28983 0.60656 0.38809 0.0
H489 H 0.37967 0.62081 0.24404 0.0
H490 H 0.39321 0.52566 0.24007 0.0
H491 H 0.39228 0.4388 0.28778 0.0
H492 H 0.29318 0.42897 0.42707 0.0
H493 H 0.26595 0.51819 0.41773 0.0
C494 C 0.31342 0.58917 0.35638 0.0
C495 C 0.33869 0.62194 0.31969 0.0
C496 C 0.31995 0.53416 0.35355 0.0
C497 C 0.36205 0.59741 0.27465 0.0
C498 C 0.37024 0.54255 0.27258 0.0
C499 C 0.36689 0.45658 0.31793 0.0
C500 C 0.34988 0.4265 0.36185 0.0
C501 C 0.35243 0.51066 0.31405 0.0
C502 C 0.31114 0.44991 0.39537 0.0
C503 C 0.29571 0.50218 0.39065 0.0
H504 H 0.46659 0.41542 0.32696 0.0
H505 H 0.44023 0.26823 0.39951 0.0
H506 H 0.53478 0.25065 0.39798 0.0
H507 H 0.62787 0.28248 0.38511 0.0
H508 H 0.65129 0.42808 0.30709 0.0
H509 H 0.55732 0.43651 0.29504 0.0
C510 C 0.48105 0.37997 0.34332 0.0
C511 C 0.44541 0.34639 0.36943 0.0
C512 C 0.53618 0.36879 0.33981 0.0
C513 C 0.46628 0.29786 0.3845 0.0
C514 C 0.52077 0.28701 0.38242 0.0
C515 C 0.61245 0.31629 0.36577 0.0
C516 C 0.6473 0.3564 0.35023 0.0
C517 C 0.55671 0.32308 0.36181 0.0
C518 C 0.62586 0.39829 0.3229 0.0
C519 C 0.57163 0.40348 0.31632 0.0
H520 H 0.38086 0.53605 0.86922 0.0
H521 H 0.23744 0.51663 0.7888 0.0
H522 H 0.22825 0.61127 0.78102 0.0
H523 H 0.26818 0.69989 0.78682 0.0
H524 H 0.40746 0.71804 0.87406 0.0
H525 H 0.40826 0.62553 0.89336 0.0
C526 C 0.34638 0.55246 0.85185 0.0
C527 C 0.3099 0.51849 0.82964 0.0
C528 C 0.34076 0.6074 0.84839 0.0
C529 C 0.26585 0.54118 0.80693 0.0
C530 C 0.26086 0.59568 0.802 0.0
C531 C 0.29905 0.68365 0.80969 0.0
C532 C 0.34173 0.7154 0.82323 0.0
C533 C 0.29923 0.62931 0.82081 0.0
C534 C 0.37672 0.69433 0.85884 0.0
C535 C 0.37736 0.64094 0.86994 0.0
H536 H 0.68806 0.75605 0.44397 0.0
H537 H 0.7087 0.85585 0.31188 0.0
H538 H 0.61319 0.85633 0.29988 0.0
H539 H 0.52106 0.82812 0.32877 0.0
H540 H 0.50615 0.7339 0.46642 0.0
H541 H 0.59963 0.73308 0.475 0.0
C542 C 0.67177 0.77808 0.41252 0.0
C543 C 0.70612 0.80603 0.37911 0.0
C544 C 0.6166 0.7798 0.4072 0.0
C545 C 0.68374 0.83401 0.33843 0.0
C546 C 0.62872 0.83445 0.33175 0.0
C547 C 0.53816 0.80783 0.36086 0.0
C548 C 0.50463 0.7808 0.39693 0.0
C549 C 0.59419 0.80767 0.36621 0.0
C550 C 0.52912 0.75532 0.4381 0.0
C551 C 0.58348 0.75427 0.44292 0.0
H552 H 0.69286 0.49138 0.82664 0.0
H553 H 0.84547 0.43493 0.77155 0.0
H554 H 0.87934 0.52287 0.77523 0.0
H555 H 0.86465 0.61651 0.78894 0.0
H556 H 0.71421 0.67352 0.84818 0.0
H557 H 0.68148 0.58444 0.85166 0.0
C558 C 0.7338 0.49756 0.81704 0.0
C559 C 0.76663 0.45574 0.79932 0.0
C560 C 0.75389 0.54851 0.82121 0.0
C561 C 0.81921 0.46615 0.7851 0.0
C562 C 0.83885 0.51646 0.78764 0.0
C563 C 0.82552 0.60918 0.80512 0.0
C564 C 0.79247 0.65168 0.8196 0.0
C565 C 0.80663 0.55798 0.80556 0.0
C566 C 0.74117 0.64158 0.8386 0.0
C567 C 0.72202 0.59059 0.83931 0.0
H568 H 0.31409 0.17408 0.17436 0.0
H569 H 0.29656 1.01466 0.21748 0.0
H570 H 0.35095 0.98656 0.14381 0.0
H571 H 0.35423 1.00165 1.05145 0.0
H572 H 0.32322 0.15556 0.99653 0.0
H573 H 0.34015 0.19205 0.08233 0.0
C574 C 0.32282 0.13355 0.16753 0.0
C575 C 0.29878 0.09676 0.19999 0.0
C576 C 0.34407 0.11666 0.11869 0.0
C577 C 0.31465 1.04436 0.19377 0.0
C578 C 0.34449 1.02792 0.15002 0.0
C579 C 0.35394 1.04347 1.05791 0.0
C580 C 0.33529 1.07564 1.01894 0.0
C581 C 0.35226 1.06271 0.10919 0.0
C582 C 0.33639 0.1298 1.02649 0.0
C583 C 0.3443 0.15047 1.0762 0.0
H584 H 1.03546 0.77094 1.03251 0.0
H585 H 1.05801 0.795 0.19494 0.0
H586 H 0.13496 0.84751 0.176 0.0
H587 H 0.16914 0.91254 0.11051 0.0
H588 H 0.15867 0.87482 0.94869 0.0
H589 H 0.10331 0.80103 0.96822 0.0
C590 C 1.0594 0.78458 1.06376 0.0
C591 C 1.03666 0.79028 0.11414 0.0
C592 C 0.10377 0.81436 1.05163 0.0
C593 C 0.07158 0.79838 0.15458 0.0
C594 C 0.11502 0.82964 0.14402 0.0
C595 C 0.15677 0.88673 0.07975 0.0
C596 C 0.16452 0.90061 1.02737 0.0
C597 C 0.12732 0.84263 0.0921 0.0
C598 C 0.15049 0.86587 0.9883 0.0
C599 C 0.11919 0.82342 0.99984 0.0
H600 H 0.77129 0.97885 0.11708 0.0
H601 H 0.91445 1.02815 0.18046 0.0
H602 H 0.90748 0.11099 0.13713 0.0
H603 H 0.88409 0.14349 1.05028 0.0
H604 H 0.74205 0.09327 0.98361 0.0
H605 H 0.72582 1.03409 1.05559 0.0
C606 C 0.80047 1.00786 0.1223 0.0
C607 C 0.84823 0.99463 0.14429 0.0
C608 C 0.79746 1.05352 0.09354 0.0
C609 C 0.88011 1.03583 0.1588 0.0
C610 C 0.87665 0.08305 0.13302 0.0
C611 C 0.84791 0.12235 1.05334 0.0
C612 C 0.81669 0.11899 1.00987 0.0
C613 C 0.83912 0.08895 0.09516 0.0
C614 C 0.76945 0.09204 1.01404 0.0
C615 C 0.75952 1.05927 1.05605 0.0
H616 H 0.14167 0.25988 0.11075 0.0
H617 H 1.01522 0.21613 0.21318 0.0
H618 H 0.96919 0.17789 0.14024 0.0
H619 H 0.97089 0.15008 1.04929 0.0
H620 H 0.08696 0.21134 0.94135 0.0
H621 H 0.13271 0.25098 1.0142 0.0
C622 C 0.10359 0.24267 0.11616 0.0
C623 C 0.0842 0.23121 0.16636 0.0
C624 C 0.07684 0.22423 1.07337 0.0
C625 C 1.03203 0.21783 0.17395 0.0
C626 C 1.00579 0.19717 0.13252 0.0
C627 C 1.00676 0.17118 1.04195 0.0
C628 C 1.02755 0.17557 0.99123 0.0
C629 C 1.02956 0.19726 0.08257 0.0
C630 C 0.07246 0.20526 0.98104 0.0
C631 C 0.09776 0.22871 1.02227 0.0
H632 H 1.04774 0.9637 0.26738 0.0
H633 H 0.99449 1.07553 0.15604 0.0
H634 H 0.98733 0.14064 0.22569 0.0
H635 H 1.03448 0.1746 0.30244 0.0
H636 H 0.09045 1.06577 0.41248 0.0
H637 H 1.06233 0.9933 0.3583 0.0
C638 C 1.03734 1.0032 0.25713 0.0
C639 C 1.02372 1.01505 0.2057 0.0
C640 C 1.03877 1.04254 0.29517 0.0
C641 C 1.00784 1.06585 0.19431 0.0
C642 C 1.00525 0.10384 0.23337 0.0
C643 C 1.03844 0.13488 0.3157 0.0
C644 C 0.07322 0.12387 0.35534 0.0
C645 C 1.02554 0.09398 0.28202 0.0
C646 C 0.06952 1.07427 0.3776 0.0
C647 C 1.05537 1.03257 0.34568 0.0
H648 H 0.1613 0.1451 0.86318 0.0
H649 H 0.15807 0.99238 0.79409 0.0
H650 H 0.0865 1.01913 0.73911 0.0
H651 H 1.00605 1.07295 0.74311 0.0
H652 H 1.00616 0.20655 0.84468 0.0
H653 H 0.09663 0.20779 0.84363 0.0
C654 C 0.14676 0.11885 0.83373 0.0
C655 C 0.16231 1.06694 0.83371 0.0
C656 C 0.10423 0.13363 0.80487 0.0
C657 C 0.14474 1.03254 0.79545 0.0
C658 C 0.10392 1.04789 0.76403 0.0
C659 C 1.02645 0.10401 0.76246 0.0
C660 C 0.9969 0.14043 0.79332 0.0
C661 C 0.07962 0.09661 0.7731 0.0
C662 C 1.02416 0.18108 0.81663 0.0
C663 C 0.07815 0.17954 0.81895 0.0
H664 H 0.82906 0.5619 0.49709 0.0
H665 H 0.73183 0.52892 0.63392 0.0
H666 H 0.7912 0.57577 0.68865 0.0
H667 H 0.85596 0.64705 0.69082 0.0
H668 H 0.94365 0.68758 0.55542 0.0
H669 H 0.9165 0.60719 0.51151 0.0
C670 C 0.82123 0.56446 0.53879 0.0
C671 C 0.77356 0.54638 0.56071 0.0
C672 C 0.85565 0.59136 0.57045 0.0
C673 C 0.76622 0.54605 0.61552 0.0
C674 C 0.80072 0.57193 0.64722 0.0
C675 C 0.86574 0.64012 0.65039 0.0
C676 C 0.88634 0.68008 0.61937 0.0
C677 C 0.84229 0.59908 0.62402 0.0
C678 C 0.91712 0.66168 0.57597 0.0
C679 C 0.89962 0.6174 0.54945 0.0
H680 H 0.5803 0.37422 0.44423 0.0
H681 H 0.64439 0.30273 0.57663 0.0
H682 H 0.56105 0.31726 0.6264 0.0
H683 H 0.48382 0.37831 0.63661 0.0
H684 H 0.43047 0.45803 0.50152 0.0
H685 H 0.49146 0.4068 0.44647 0.0
C686 C 0.57457 0.35527 0.48128 0.0
C687 C 0.61953 0.34453 0.50919 0.0
C688 C 0.5284 0.36921 0.50989 0.0
C689 C 0.61116 0.31843 0.55669 0.0
C690 C 0.56404 0.32825 0.58575 0.0
C691 C 0.48597 0.38498 0.59492 0.0
C692 C 0.4518 0.42171 0.57282 0.0
C693 C 0.52488 0.35925 0.56384 0.0
C694 C 0.45521 0.43 0.51927 0.0
C695 C 0.49124 0.40175 0.48783 0.0
H696 H 0.27051 0.42615 0.63069 0.0
H697 H 0.17941 0.55441 0.68753 0.0
H698 H 0.18059 0.59341 0.60066 0.0
H699 H 0.24914 0.60992 0.53016 0.0
H700 H 0.35652 0.48674 0.48373 0.0
H701 H 0.31389 0.428 0.54449 0.0
C702 C 0.24871 0.4613 0.62285 0.0
C703 C 0.23707 0.4952 0.66491 0.0
C704 C 0.25739 0.48531 0.57435 0.0
C705 C 0.19854 0.53325 0.65518 0.0
C706 C 0.20004 0.5562 0.60562 0.0
C707 C 0.26106 0.56934 0.53124 0.0
C708 C 0.3082 0.55283 0.50548 0.0
C709 C 0.23629 0.53611 0.56739 0.0
C710 C 0.32304 0.50041 0.50689 0.0
C711 C 0.29714 0.4663 0.54009 0.0
H712 H 0.4715 0.70643 0.64348 0.0
H713 H 0.44279 0.80695 0.51524 0.0
H714 H 0.52396 0.85283 0.52887 0.0
H715 H 0.61533 0.84462 0.56169 0.0
H716 H 0.63875 0.743 0.69144 0.0
H717 H 0.55065 0.71412 0.68886 0.0
C718 C 0.48159 0.74034 0.62054 0.0
C719 C 0.45353 0.75115 0.57661 0.0
C720 C 0.52915 0.76509 0.62746 0.0
C721 C 0.46536 0.79627 0.54814 0.0
C722 C 0.51239 0.82223 0.55543 0.0
C723 C 0.59996 0.81864 0.59136 0.0
C724 C 0.63391 0.79593 0.62661 0.0
C725 C 0.54684 0.80383 0.59233 0.0
C726 C 0.61361 0.76193 0.66452 0.0
C727 C 0.56241 0.74583 0.66413 0.0
H728 H 0.6828 0.58614 0.71413 0.0
H729 H 0.62956 0.65913 0.57466 0.0
H730 H 0.54059 0.63148 0.59492 0.0
H731 H 0.47772 0.59283 0.65423 0.0
H732 H 0.52885 0.50638 0.78629 0.0
H733 H 0.61985 0.53414 0.76788 0.0
C734 C 0.65182 0.59408 0.68741 0.0
C735 C 0.66216 0.62393 0.64282 0.0
C736 C 0.60076 0.57764 0.69901 0.0
C737 C 0.62237 0.63479 0.60834 0.0
C738 C 0.57141 0.62007 0.62045 0.0
C739 C 0.50869 0.58084 0.67957 0.0
C740 C 0.49718 0.54988 0.72272 0.0
C741 C 0.56013 0.59306 0.66635 0.0
C742 C 0.53738 0.53212 0.754 0.0
C743 C 0.58907 0.54721 0.74299 0.0
H744 H 0.42602 0.58937 0.34815 0.0
H745 H 0.53211 0.71193 0.32558 0.0
H746 H 0.60079 0.65148 0.29537 0.0
H747 H 0.63475 0.57117 0.33444 0.0
H748 H 0.5223 0.46995 0.40604 0.0
H749 H 0.45354 0.50502 0.35524 0.0
C750 C 0.46193 0.60339 0.33006 0.0
C751 C 0.47699 0.65197 0.3476 0.0
C752 C 0.50192 0.56628 0.32335 0.0
C753 C 0.52267 0.67159 0.32289 0.0
C754 C 0.562 0.63673 0.30487 0.0
C755 C 0.5951 0.55632 0.33688 0.0
C756 C 0.58185 0.51947 0.37461 0.0
C757 C 0.55422 0.58399 0.31503 0.0
C758 C 0.53166 0.49933 0.37824 0.0
C759 C 0.49289 0.51895 0.3479 0.0
loop_
_geom_bond_atom_site_label_1
_geom_bond_atom_site_label_2
_geom_bond_distance
_geom_bond_site_symmetry_2
_ccdc_geom_bond_type
Mn0 O6 2.111 . S
Mn0 O11 2.150 . S
Mn0 O13 2.130 . S
Mn0 O21 2.281 . S
Mn0 O22 2.374 . S
Mn1 O2 2.126 . S
Mn1 O7 2.116 . S
Mn1 O12 2.129 . S
Mn1 O15 2.147 . S
Mn1 O19 2.267 . S
Mn1 O21 2.247 . S
O2 Mn1 2.126 . S
O2 C20 1.255 . S
O3 Mn4 2.113 . S
O3 C20 1.238 . S
Mn4 O3 2.113 . S
Mn4 O16 2.101 . S
Mn4 O18 2.372 . S
Mn4 O19 2.265 . S
C5 O6 1.258 . S
C5 O7 1.263 . S
O6 Mn0 2.111 . S
O6 C5 1.258 . S
O7 Mn1 2.116 . S
O7 C5 1.263 . S
P8 O13 1.496 . S
C9 O15 1.252 . S
C9 O16 1.259 . S
C10 O18 1.252 . S
C10 O19 1.273 . S
O11 Mn0 2.150 . S
O11 C17 1.271 . S
O12 Mn1 2.129 . S
O12 C17 1.250 . S
O13 Mn0 2.130 . S
O13 P8 1.496 . S
C14 O21 1.283 . S
C14 O22 1.263 . S
O15 Mn1 2.147 . S
O15 C9 1.252 . S
O16 Mn4 2.101 . S
O16 C9 1.259 . S
C17 O11 1.271 . S
C17 O12 1.250 . S
O18 Mn4 2.372 . S
O18 C10 1.252 . S
O19 Mn1 2.267 . S
O19 Mn4 2.265 . S
O19 C10 1.273 . S
C20 O2 1.255 . S
C20 O3 1.238 . S
O21 Mn0 2.281 . S
O21 Mn1 2.247 . S
O21 C14 1.283 . S
O22 Mn0 2.374 . S
O22 C14 1.263 . S
Mn23 O29 2.111 . S
Mn23 O34 2.150 . S
Mn23 O36 2.130 . S
Mn23 O44 2.281 . S
Mn23 O45 2.374 . S
Mn24 O25 2.126 . S
Mn24 O30 2.116 . S
Mn24 O35 2.129 . S
Mn24 O38 2.147 . S
Mn24 O42 2.267 . S
Mn24 O44 2.247 . S
O25 Mn24 2.126 . S
O25 C43 1.255 . S
O26 Mn27 2.113 . S
O26 C43 1.238 . S
Mn27 O26 2.113 . S
Mn27 O39 2.101 . S
Mn27 O41 2.372 . S
Mn27 O42 2.265 . S
C28 O29 1.258 . S
C28 O30 1.263 . S
O29 Mn23 2.111 . S
O29 C28 1.258 . S
O30 Mn24 2.116 . S
O30 C28 1.263 . S
P31 O36 1.496 . S
C32 O38 1.252 . S
C32 O39 1.259 . S
C33 O41 1.252 . S
C33 O42 1.273 . S
O34 Mn23 2.150 . S
O34 C40 1.271 . S
O35 Mn24 2.129 . S
O35 C40 1.250 . S
O36 Mn23 2.130 . S
O36 P31 1.496 . S
C37 O44 1.283 . S
C37 O45 1.263 . S
O38 Mn24 2.147 . S
O38 C32 1.252 . S
O39 Mn27 2.101 . S
O39 C32 1.259 . S
C40 O34 1.271 . S
C40 O35 1.250 . S
O41 Mn27 2.372 . S
O41 C33 1.252 . S
O42 Mn24 2.267 . S
O42 Mn27 2.265 . S
O42 C33 1.273 . S
C43 O25 1.255 . S
C43 O26 1.238 . S
O44 Mn23 2.281 . S
O44 Mn24 2.247 . S
O44 C37 1.283 . S
O45 Mn23 2.374 . S
O45 C37 1.263 . S
Mn46 O52 2.111 . S
Mn46 O57 2.150 . S
Mn46 O59 2.130 . S
Mn46 O67 2.281 . S
Mn46 O68 2.374 . S
Mn47 O48 2.126 . S
Mn47 O53 2.116 . S
Mn47 O58 2.129 . S
Mn47 O61 2.147 . S
Mn47 O65 2.267 . S
Mn47 O67 2.247 . S
O48 Mn47 2.126 . S
O48 C66 1.255 . S
O49 Mn50 2.113 . S
O49 C66 1.238 . S
Mn50 O49 2.113 . S
Mn50 O62 2.101 . S
Mn50 O64 2.372 . S
Mn50 O65 2.265 . S
C51 O52 1.258 . S
C51 O53 1.263 . S
O52 Mn46 2.111 . S
O52 C51 1.258 . S
O53 Mn47 2.116 . S
O53 C51 1.263 . S
P54 O59 1.496 . S
C55 O61 1.252 . S
C55 O62 1.259 . S
C56 O64 1.252 . S
C56 O65 1.273 . S
O57 Mn46 2.150 . S
O57 C63 1.271 . S
O58 Mn47 2.129 . S
O58 C63 1.250 . S
O59 Mn46 2.130 . S
O59 P54 1.496 . S
C60 O67 1.283 . S
C60 O68 1.263 . S
O61 Mn47 2.147 . S
O61 C55 1.252 . S
O62 Mn50 2.101 . S
O62 C55 1.259 . S
C63 O57 1.271 . S
C63 O58 1.250 . S
O64 Mn50 2.372 . S
O64 C56 1.252 . S
O65 Mn47 2.267 . S
O65 Mn50 2.265 . S
O65 C56 1.273 . S
C66 O48 1.255 . S
C66 O49 1.238 . S
O67 Mn46 2.281 . S
O67 Mn47 2.247 . S
O67 C60 1.283 . S
O68 Mn46 2.374 . S
O68 C60 1.263 . S
Mn69 O75 2.111 . S
Mn69 O80 2.150 . S
Mn69 O82 2.130 . S
Mn69 O90 2.281 . S
Mn69 O91 2.374 . S
Mn70 O71 2.126 . S
Mn70 O76 2.116 . S
Mn70 O81 2.129 . S
Mn70 O84 2.147 . S
Mn70 O88 2.267 . S
Mn70 O90 2.247 . S
O71 Mn70 2.126 . S
O71 C89 1.255 . S
O72 Mn73 2.113 . S
O72 C89 1.238 . S
Mn73 O72 2.113 . S
Mn73 O85 2.101 . S
Mn73 O87 2.372 . S
Mn73 O88 2.265 . S
C74 O75 1.258 . S
C74 O76 1.263 . S
O75 Mn69 2.111 . S
O75 C74 1.258 . S
O76 Mn70 2.116 . S
O76 C74 1.263 . S
P77 O82 1.496 . S
C78 O84 1.252 . S
C78 O85 1.259 . S
C79 O87 1.252 . S
C79 O88 1.273 . S
O80 Mn69 2.150 . S
O80 C86 1.271 . S
O81 Mn70 2.129 . S
O81 C86 1.250 . S
O82 Mn69 2.130 . S
O82 P77 1.496 . S
C83 O90 1.283 . S
C83 O91 1.263 . S
O84 Mn70 2.147 . S
O84 C78 1.252 . S
O85 Mn73 2.101 . S
O85 C78 1.259 . S
C86 O80 1.271 . S
C86 O81 1.250 . S
O87 Mn73 2.372 . S
O87 C79 1.252 . S
O88 Mn70 2.267 . S
O88 Mn73 2.265 . S
O88 C79 1.273 . S
C89 O71 1.255 . S
C89 O72 1.238 . S
O90 Mn69 2.281 . S
O90 Mn70 2.247 . S
O90 C83 1.283 . S
O91 Mn69 2.374 . S
O91 C83 1.263 . S
Mn92 O98 2.111 . S
Mn92 O103 2.150 . S
Mn92 O105 2.130 . S
Mn92 O113 2.281 . S
Mn92 O114 2.374 . S
Mn93 O94 2.126 . S
Mn93 O99 2.116 . S
Mn93 O104 2.129 . S
Mn93 O107 2.147 . S
Mn93 O111 2.267 . S
Mn93 O113 2.247 . S
O94 Mn93 2.126 . S
O94 C112 1.255 . S
O95 Mn96 2.113 . S
O95 C112 1.238 . S
Mn96 O95 2.113 . S
Mn96 O108 2.101 . S
Mn96 O110 2.372 . S
Mn96 O111 2.265 . S
C97 O98 1.258 . S
C97 O99 1.263 . S
O98 Mn92 2.111 . S
O98 C97 1.258 . S
O99 Mn93 2.116 . S
O99 C97 1.263 . S
P100 O105 1.496 . S
C101 O107 1.252 . S
C101 O108 1.259 . S
C102 O110 1.252 . S
C102 O111 1.273 . S
O103 Mn92 2.150 . S
O103 C109 1.271 . S
O104 Mn93 2.129 . S
O104 C109 1.250 . S
O105 Mn92 2.130 . S
O105 P100 1.496 . S
C106 O113 1.283 . S
C106 O114 1.263 . S
O107 Mn93 2.147 . S
O107 C101 1.252 . S
O108 Mn96 2.101 . S
O108 C101 1.259 . S
C109 O103 1.271 . S
C109 O104 1.250 . S
O110 Mn96 2.372 . S
O110 C102 1.252 . S
O111 Mn93 2.267 . S
O111 Mn96 2.265 . S
O111 C102 1.273 . S
C112 O94 1.255 . S
C112 O95 1.238 . S
O113 Mn92 2.281 . S
O113 Mn93 2.247 . S
O113 C106 1.283 . S
O114 Mn92 2.374 . S
O114 C106 1.263 . S
Mn115 O121 2.111 . S
Mn115 O126 2.150 . S
Mn115 O128 2.130 . S
Mn115 O136 2.281 . S
Mn115 O137 2.374 . S
Mn116 O117 2.126 . S
Mn116 O122 2.116 . S
Mn116 O127 2.129 . S
Mn116 O130 2.147 . S
Mn116 O134 2.267 . S
Mn116 O136 2.247 . S
O117 Mn116 2.126 . S
O117 C135 1.255 . S
O118 Mn119 2.113 . S
O118 C135 1.238 . S
Mn119 O118 2.113 . S
Mn119 O131 2.101 . S
Mn119 O133 2.372 . S
Mn119 O134 2.265 . S
C120 O121 1.258 . S
C120 O122 1.263 . S
O121 Mn115 2.111 . S
O121 C120 1.258 . S
O122 Mn116 2.116 . S
O122 C120 1.263 . S
P123 O128 1.496 . S
C124 O130 1.252 . S
C124 O131 1.259 . S
C125 O133 1.252 . S
C125 O134 1.273 . S
O126 Mn115 2.150 . S
O126 C132 1.271 . S
O127 Mn116 2.129 . S
O127 C132 1.250 . S
O128 Mn115 2.130 . S
O128 P123 1.496 . S
C129 O136 1.283 . S
C129 O137 1.263 . S
O130 Mn116 2.147 . S
O130 C124 1.252 . S
O131 Mn119 2.101 . S
O131 C124 1.259 . S
C132 O126 1.271 . S
C132 O127 1.250 . S
O133 Mn119 2.372 . S
O133 C125 1.252 . S
O134 Mn116 2.267 . S
O134 Mn119 2.265 . S
O134 C125 1.273 . S
C135 O117 1.255 . S
C135 O118 1.238 . S
O136 Mn115 2.281 . S
O136 Mn116 2.247 . S
O136 C129 1.283 . S
O137 Mn115 2.374 . S
O137 C129 1.263 . S
Mn138 O144 2.111 . S
Mn138 O149 2.150 . S
Mn138 O151 2.130 . S
Mn138 O159 2.281 . S
Mn138 O160 2.374 . S
Mn139 O140 2.126 . S
Mn139 O145 2.116 . S
Mn139 O150 2.129 . S
Mn139 O153 2.147 . S
Mn139 O157 2.267 . S
Mn139 O159 2.247 . S
O140 Mn139 2.126 . S
O140 C158 1.255 . S
O141 Mn142 2.113 . S
O141 C158 1.238 . S
Mn142 O141 2.113 . S
Mn142 O154 2.101 . S
Mn142 O156 2.372 . S
Mn142 O157 2.265 . S
C143 O144 1.258 . S
C143 O145 1.263 . S
O144 Mn138 2.111 . S
O144 C143 1.258 . S
O145 Mn139 2.116 . S
O145 C143 1.263 . S
P146 O151 1.496 . S
C147 O153 1.252 . S
C147 O154 1.259 . S
C148 O156 1.252 . S
C148 O157 1.273 . S
O149 Mn138 2.150 . S
O149 C155 1.271 . S
O150 Mn139 2.129 . S
O150 C155 1.250 . S
O151 Mn138 2.130 . S
O151 P146 1.496 . S
C152 O159 1.283 . S
C152 O160 1.263 . S
O153 Mn139 2.147 . S
O153 C147 1.252 . S
O154 Mn142 2.101 . S
O154 C147 1.259 . S
C155 O149 1.271 . S
C155 O150 1.250 . S
O156 Mn142 2.372 . S
O156 C148 1.252 . S
O157 Mn139 2.267 . S
O157 Mn142 2.265 . S
O157 C148 1.273 . S
C158 O140 1.255 . S
C158 O141 1.238 . S
O159 Mn138 2.281 . S
O159 Mn139 2.247 . S
O159 C152 1.283 . S
O160 Mn138 2.374 . S
O160 C152 1.263 . S
Mn161 O167 2.111 . S
Mn161 O172 2.150 . S
Mn161 O174 2.130 . S
Mn161 O182 2.281 . S
Mn161 O183 2.374 . S
Mn162 O163 2.126 . S
Mn162 O168 2.116 . S
Mn162 O173 2.129 . S
Mn162 O176 2.147 . S
Mn162 O180 2.267 . S
Mn162 O182 2.247 . S
O163 Mn162 2.126 . S
O163 C181 1.255 . S
O164 Mn165 2.113 . S
O164 C181 1.238 . S
Mn165 O164 2.113 . S
Mn165 O177 2.101 . S
Mn165 O179 2.372 . S
Mn165 O180 2.265 . S
C166 O167 1.258 . S
C166 O168 1.263 . S
O167 Mn161 2.111 . S
O167 C166 1.258 . S
O168 Mn162 2.116 . S
O168 C166 1.263 . S
P169 O174 1.496 . S
C170 O176 1.252 . S
C170 O177 1.259 . S
C171 O179 1.252 . S
C171 O180 1.273 . S
O172 Mn161 2.150 . S
O172 C178 1.271 . S
O173 Mn162 2.129 . S
O173 C178 1.250 . S
O174 Mn161 2.130 . S
O174 P169 1.496 . S
C175 O182 1.283 . S
C175 O183 1.263 . S
O176 Mn162 2.147 . S
O176 C170 1.252 . S
O177 Mn165 2.101 . S
O177 C170 1.259 . S
C178 O172 1.271 . S
C178 O173 1.250 . S
O179 Mn165 2.372 . S
O179 C171 1.252 . S
O180 Mn162 2.267 . S
O180 Mn165 2.265 . S
O180 C171 1.273 . S
C181 O163 1.255 . S
C181 O164 1.238 . S
O182 Mn161 2.281 . S
O182 Mn162 2.247 . S
O182 C175 1.283 . S
O183 Mn161 2.374 . S
O183 C175 1.263 . S
H184 C190 0.930 1_554 S
H185 C193 0.930 1_554 S
H186 C194 0.930 . S
H187 C195 0.930 . S
H188 C198 0.930 . S
H189 C199 0.930 . S
C190 H184 0.930 1_556 S
C190 C191 1.355 1_556 S
C190 C192 1.415 . S
C191 C190 1.355 1_554 S
C191 C193 1.419 1_554 S
C192 C190 1.415 . S
C192 C197 1.425 . S
C192 C199 1.409 . S
C193 H185 0.930 1_556 S
C193 C191 1.419 1_556 S
C193 C194 1.362 . S
C194 H186 0.930 . S
C194 C193 1.362 . S
C194 C197 1.409 . S
C195 H187 0.930 . S
C195 C196 1.355 . S
C195 C197 1.415 . S
C196 C195 1.355 . S
C196 C198 1.419 . S
C197 C192 1.425 . S
C197 C194 1.409 . S
C197 C195 1.415 . S
C198 H188 0.930 . S
C198 C196 1.419 . S
C198 C199 1.362 . S
C199 H189 0.930 . S
C199 C192 1.409 . S
C199 C198 1.362 . S
H200 C206 0.930 . S
H201 C209 0.930 . S
H202 C210 0.930 . S
H203 C211 0.930 . S
H204 C214 0.930 . S
H205 C215 0.930 . S
C206 H200 0.930 . S
C206 C207 1.355 1_554 S
C206 C208 1.415 . S
C207 C206 1.355 1_556 S
C207 C209 1.419 . S
C208 C206 1.415 . S
C208 C213 1.425 . S
C208 C215 1.409 . S
C209 H201 0.930 . S
C209 C207 1.419 . S
C209 C210 1.362 1_556 S
C210 H202 0.930 . S
C210 C209 1.362 1_554 S
C210 C213 1.409 . S
C211 H203 0.930 . S
C211 C212 1.355 . S
C211 C213 1.415 . S
C212 C211 1.355 . S
C212 C214 1.419 . S
C213 C208 1.425 . S
C213 C210 1.409 . S
C213 C211 1.415 . S
C214 H204 0.930 . S
C214 C212 1.419 . S
C214 C215 1.362 . S
C215 H205 0.930 . S
C215 C208 1.409 . S
C215 C214 1.362 . S
H216 C222 0.930 . S
H217 C225 0.930 . S
H218 C226 0.930 . S
H219 C227 0.930 . S
H220 C230 0.915 1_554 S
H221 C231 0.930 . S
C222 H216 0.930 . S
C222 C223 1.355 . S
C222 C224 1.415 . S
C223 C222 1.355 . S
C223 C225 1.419 . S
C224 C222 1.415 . S
C224 C229 1.425 . S
C224 C231 1.409 . S
C225 H217 0.930 . S
C225 C223 1.419 . S
C225 C226 1.362 . S
C226 H218 0.930 . S
C226 C225 1.362 . S
C226 C229 1.409 . S
C227 H219 0.930 . S
C227 C228 1.355 1_556 S
C227 C229 1.415 . S
C228 C227 1.355 1_554 S
C228 C230 1.413 1_554 S
C229 C224 1.425 . S
C229 C226 1.409 . S
C229 C227 1.415 . S
C230 H220 0.915 1_556 S
C230 C228 1.413 1_556 S
C230 C231 1.383 . S
C231 H221 0.930 . S
C231 C224 1.409 . S
C231 C230 1.383 . S
H232 C238 0.933 . S
H233 C241 0.930 . S
H234 C242 0.930 . S
H235 C243 0.930 . S
H236 C246 0.930 . S
H237 C247 0.930 . S
C238 H232 0.933 . S
C238 C239 1.355 1_554 S
C238 C240 1.415 . S
C239 C238 1.355 1_556 S
C239 C241 1.419 . S
C240 C238 1.415 . S
C240 C245 1.425 . S
C240 C247 1.409 . S
C241 H233 0.930 . S
C241 C239 1.419 . S
C241 C242 1.362 1_556 S
C242 H234 0.930 . S
C242 C241 1.362 1_554 S
C242 C245 1.409 . S
C243 H235 0.930 . S
C243 C244 1.355 . S
C243 C245 1.415 . S
C244 C243 1.355 . S
C244 C246 1.419 . S
C245 C240 1.425 . S
C245 C242 1.409 . S
C245 C243 1.415 . S
C246 H236 0.930 . S
C246 C244 1.419 . S
C246 C247 1.362 . S
C247 H237 0.930 . S
C247 C240 1.409 . S
C247 C246 1.362 . S
H248 C254 0.930 . S
H249 C257 0.930 . S
H250 C258 0.930 . S
H251 C259 0.930 . S
H252 C262 0.930 . S
H253 C263 0.930 . S
C254 H248 0.930 . S
C254 C255 1.355 . S
C254 C256 1.415 . S
C255 C254 1.355 . S
C255 C257 1.419 . S
C256 C254 1.415 . S
C256 C261 1.425 . S
C256 C263 1.409 . S
C257 H249 0.930 . S
C257 C255 1.419 . S
C257 C258 1.362 . S
C258 H250 0.930 . S
C258 C257 1.362 . S
C258 C261 1.409 . S
C259 H251 0.930 . S
C259 C260 1.355 . S
C259 C261 1.415 1_455 S
C260 C259 1.355 . S
C260 C262 1.419 . S
C261 C256 1.425 . S
C261 C258 1.409 . S
C261 C259 1.415 1_655 S
C262 H252 0.930 . S
C262 C260 1.419 . S
C262 C263 1.362 1_455 S
C263 H253 0.930 . S
C263 C256 1.409 . S
C263 C262 1.362 1_655 S
H264 C270 0.930 1_565 S
H265 C273 0.930 . S
H266 C274 0.930 . S
H267 C275 0.930 . S
H268 C278 0.930 . S
H269 C279 0.930 . S
C270 H264 0.930 1_545 S
C270 C271 1.355 1_545 S
C270 C272 1.415 . S
C271 C270 1.355 1_565 S
C271 C273 1.419 . S
C272 C270 1.415 . S
C272 C277 1.425 . S
C272 C279 1.409 . S
C273 H265 0.930 . S
C273 C271 1.419 . S
C273 C274 1.362 1_565 S
C274 H266 0.930 . S
C274 C273 1.362 1_545 S
C274 C277 1.409 . S
C275 H267 0.930 . S
C275 C276 1.355 . S
C275 C277 1.415 . S
C276 C275 1.355 . S
C276 C278 1.419 . S
C277 C272 1.425 . S
C277 C274 1.409 . S
C277 C275 1.415 . S
C278 H268 0.930 . S
C278 C276 1.419 . S
C278 C279 1.362 . S
C279 H269 0.930 . S
C279 C272 1.409 . S
C279 C278 1.362 . S
H280 C286 0.930 . S
H281 C289 0.930 . S
H282 C290 0.930 . S
H283 C291 0.930 . S
H284 C294 0.930 . S
H285 C295 0.930 . S
C286 H280 0.930 . S
C286 C287 1.355 . S
C286 C288 1.415 . S
C287 C286 1.355 . S
C287 C289 1.419 . S
C288 C286 1.415 . S
C288 C293 1.425 . S
C288 C295 1.409 . S
C289 H281 0.930 . S
C289 C287 1.419 . S
C289 C290 1.362 . S
C290 H282 0.930 . S
C290 C289 1.362 . S
C290 C293 1.409 . S
C291 H283 0.930 . S
C291 C292 1.355 . S
C291 C293 1.415 1_655 S
C292 C291 1.355 . S
C292 C294 1.419 . S
C293 C288 1.425 . S
C293 C290 1.409 . S
C293 C291 1.415 1_455 S
C294 H284 0.930 . S
C294 C292 1.419 . S
C294 C295 1.362 1_655 S
C295 H285 0.930 . S
C295 C288 1.409 . S
C295 C294 1.362 1_455 S
H296 C302 0.930 . S
H297 C305 0.930 . S
H298 C306 0.930 . S
H299 C307 0.930 1_545 S
H300 C310 0.930 1_545 S
H301 C311 0.930 . S
C302 H296 0.930 . S
C302 C303 1.355 . S
C302 C304 1.415 . S
C303 C302 1.355 . S
C303 C305 1.419 . S
C304 C302 1.415 . S
C304 C309 1.425 . S
C304 C311 1.409 . S
C305 H297 0.930 . S
C305 C303 1.419 . S
C305 C306 1.362 . S
C306 H298 0.930 . S
C306 C305 1.362 . S
C306 C309 1.409 . S
C307 H299 0.930 1_565 S
C307 C308 1.355 1_565 S
C307 C309 1.415 . S
C308 C307 1.355 1_545 S
C308 C310 1.419 1_545 S
C309 C304 1.425 . S
C309 C306 1.409 . S
C309 C307 1.415 . S
C310 H300 0.930 1_565 S
C310 C308 1.419 1_565 S
C310 C311 1.362 . S
C311 H301 0.930 . S
C311 C304 1.409 . S
C311 C310 1.362 . S
H312 C318 0.930 . S
H313 C321 0.930 . S
H314 C322 0.930 . S
H315 C323 0.930 1_455 S
H316 C326 0.930 1_455 S
H317 C327 0.930 . S
C318 H312 0.930 . S
C318 C319 1.355 . S
C318 C320 1.415 . S
C319 C318 1.355 . S
C319 C321 1.419 . S
C320 C318 1.415 . S
C320 C325 1.425 . S
C320 C327 1.409 . S
C321 H313 0.930 . S
C321 C319 1.419 . S
C321 C322 1.362 . S
C322 H314 0.930 . S
C322 C321 1.362 . S
C322 C325 1.409 . S
C323 H315 0.930 1_655 S
C323 C324 1.355 1_655 S
C323 C325 1.415 . S
C324 C323 1.355 1_455 S
C324 C326 1.419 1_455 S
C325 C320 1.425 . S
C325 C322 1.409 . S
C325 C323 1.415 . S
C326 H316 0.930 1_655 S
C326 C324 1.419 1_655 S
C326 C327 1.362 . S
C327 H317 0.930 . S
C327 C320 1.409 . S
C327 C326 1.362 . S
H328 C334 0.930 . S
H329 C337 0.930 . S
H330 C338 0.930 . S
H331 C339 0.930 . S
H332 C342 0.930 . S
H333 C343 0.930 . S
C334 H328 0.930 . S
C334 C335 1.355 1_545 S
C334 C336 1.415 . S
C335 C334 1.355 1_565 S
C335 C337 1.419 . S
C336 C334 1.415 . S
C336 C341 1.425 . S
C336 C343 1.409 . S
C337 H329 0.930 . S
C337 C335 1.419 . S
C337 C338 1.362 1_565 S
C338 H330 0.930 . S
C338 C337 1.362 1_545 S
C338 C341 1.409 . S
C339 H331 0.930 . S
C339 C340 1.355 . S
C339 C341 1.415 . S
C340 C339 1.355 . S
C340 C342 1.419 . S
C341 C336 1.425 . S
C341 C338 1.409 . S
C341 C339 1.415 . S
C342 H332 0.930 . S
C342 C340 1.419 . S
C342 C343 1.362 . S
C343 H333 0.930 . S
C343 C336 1.409 . S
C343 C342 1.362 . S
H344 C350 0.929 . S
H345 C353 0.930 . S
H346 C354 0.930 . S
H347 C355 0.930 . S
H348 C358 0.930 . S
H349 C359 0.930 . S
C350 H344 0.929 . S
C350 C351 1.354 . S
C350 C352 1.415 1_655 S
C351 C350 1.354 . S
C351 C353 1.419 . S
C352 C350 1.415 1_455 S
C352 C357 1.425 . S
C352 C359 1.409 . S
C353 H345 0.930 . S
C353 C351 1.419 . S
C353 C354 1.362 1_655 S
C354 H346 0.930 . S
C354 C353 1.362 1_455 S
C354 C357 1.409 . S
C355 H347 0.930 . S
C355 C356 1.355 . S
C355 C357 1.415 . S
C356 C355 1.355 . S
C356 C358 1.419 . S
C357 C352 1.425 . S
C357 C354 1.409 . S
C357 C355 1.415 . S
C358 H348 0.930 . S
C358 C356 1.419 . S
C358 C359 1.362 . S
C359 H349 0.930 . S
C359 C352 1.409 . S
C359 C358 1.362 . S
H360 C366 0.930 . S
H361 C369 0.930 . S
H362 C370 0.930 . S
H363 C371 0.930 1_545 S
H364 C374 0.930 1_545 S
H365 C375 0.930 . S
C366 H360 0.930 . S
C366 C367 1.355 . S
C366 C368 1.415 . S
C367 C366 1.355 . S
C367 C369 1.419 . S
C368 C366 1.415 . S
C368 C373 1.425 . S
C368 C375 1.409 . S
C369 H361 0.930 . S
C369 C367 1.419 . S
C369 C370 1.362 . S
C370 H362 0.930 . S
C370 C369 1.362 . S
C370 C373 1.409 . S
C371 H363 0.930 1_565 S
C371 C372 1.355 1_565 S
C371 C373 1.415 . S
C372 C371 1.355 1_545 S
C372 C374 1.419 1_545 S
C373 C368 1.425 . S
C373 C370 1.409 . S
C373 C371 1.415 . S
C374 H364 0.930 1_565 S
C374 C372 1.419 1_565 S
C374 C375 1.362 . S
C375 H365 0.930 . S
C375 C368 1.409 . S
C375 C374 1.362 . S
H376 C382 0.930 . S
H377 C385 0.930 . S
H378 C386 0.930 . S
H379 C387 0.930 . S
H380 C390 0.930 . S
H381 C391 0.930 . S
C382 H376 0.930 . S
C382 C383 1.355 . S
C382 C384 1.415 . S
C383 C382 1.355 . S
C383 C385 1.419 . S
C384 C382 1.415 . S
C384 C389 1.425 . S
C384 C391 1.409 . S
C385 H377 0.930 . S
C385 C383 1.419 . S
C385 C386 1.362 . S
C386 H378 0.930 . S
C386 C385 1.362 . S
C386 C389 1.409 . S
C387 H379 0.930 . S
C387 C388 1.355 . S
C387 C389 1.415 . S
C388 C387 1.355 . S
C388 C390 1.419 . S
C389 C384 1.425 . S
C389 C386 1.409 . S
C389 C387 1.415 . S
C390 H380 0.930 . S
C390 C388 1.419 . S
C390 C391 1.362 . S
C391 H381 0.930 . S
C391 C384 1.409 . S
C391 C390 1.362 . S
H392 C398 0.930 . S
H393 C401 0.930 . S
H394 C402 0.930 . S
H395 C403 0.930 . S
H396 C406 0.930 . S
H397 C407 0.930 . S
C398 H392 0.930 . S
C398 C399 1.355 . S
C398 C400 1.415 . S
C399 C398 1.355 . S
C399 C401 1.419 . S
C400 C398 1.415 . S
C400 C405 1.425 . S
C400 C407 1.409 . S
C401 H393 0.930 . S
C401 C399 1.419 . S
C401 C402 1.362 . S
C402 H394 0.930 . S
C402 C401 1.362 . S
C402 C405 1.409 . S
C403 H395 0.930 . S
C403 C404 1.355 . S
C403 C405 1.415 . S
C404 C403 1.355 . S
C404 C406 1.419 . S
C405 C400 1.425 . S
C405 C402 1.409 . S
C405 C403 1.415 . S
C406 H396 0.930 . S
C406 C404 1.419 . S
C406 C407 1.362 . S
C407 H397 0.930 . S
C407 C400 1.409 . S
C407 C406 1.362 . S
H408 C414 0.930 . S
H409 C417 0.930 . S
H410 C418 0.930 . S
H411 C419 0.930 . S
H412 C422 0.930 . S
H413 C423 0.930 . S
C414 H408 0.930 . S
C414 C415 1.355 . S
C414 C416 1.415 . S
C415 C414 1.355 . S
C415 C417 1.419 . S
C416 C414 1.415 . S
C416 C421 1.425 . S
C416 C423 1.409 . S
C417 H409 0.930 . S
C417 C415 1.419 . S
C417 C418 1.362 . S
C418 H410 0.930 . S
C418 C417 1.362 . S
C418 C421 1.409 . S
C419 H411 0.930 . S
C419 C420 1.355 . S
C419 C421 1.415 . S
C420 C419 1.355 . S
C420 C422 1.419 . S
C421 C416 1.425 . S
C421 C418 1.409 . S
C421 C419 1.415 . S
C422 H412 0.930 . S
C422 C420 1.419 . S
C422 C423 1.362 . S
C423 H413 0.930 . S
C423 C416 1.409 . S
C423 C422 1.362 . S
H424 C430 0.930 . S
H425 C433 0.930 . S
H426 C434 0.930 . S
H427 C435 0.930 . S
H428 C438 0.930 . S
H429 C439 0.930 . S
C430 H424 0.930 . S
C430 C431 1.355 . S
C430 C432 1.415 . S
C431 C430 1.355 . S
C431 C433 1.419 . S
C432 C430 1.415 . S
C432 C437 1.425 . S
C432 C439 1.409 . S
C433 H425 0.930 . S
C433 C431 1.419 . S
C433 C434 1.362 . S
C434 H426 0.930 . S
C434 C433 1.362 . S
C434 C437 1.409 . S
C435 H427 0.930 . S
C435 C436 1.355 . S
C435 C437 1.415 . S
C436 C435 1.355 . S
C436 C438 1.419 . S
C437 C432 1.425 . S
C437 C434 1.409 . S
C437 C435 1.415 . S
C438 H428 0.930 . S
C438 C436 1.419 . S
C438 C439 1.362 . S
C439 H429 0.930 . S
C439 C432 1.409 . S
C439 C438 1.362 . S
H440 C446 0.930 . S
H441 C449 0.930 . S
H442 C450 0.930 . S
H443 C451 0.930 . S
H444 C454 0.930 . S
H445 C455 0.930 . S
C446 H440 0.930 . S
C446 C447 1.355 . S
C446 C448 1.415 . S
C447 C446 1.355 . S
C447 C449 1.419 . S
C448 C446 1.415 . S
C448 C453 1.425 . S
C448 C455 1.409 . S
C449 H441 0.930 . S
C449 C447 1.419 . S
C449 C450 1.362 . S
C450 H442 0.930 . S
C450 C449 1.362 . S
C450 C453 1.409 . S
C451 H443 0.930 . S
C451 C452 1.355 . S
C451 C453 1.415 . S
C452 C451 1.355 . S
C452 C454 1.419 . S
C453 C448 1.425 . S
C453 C450 1.409 . S
C453 C451 1.415 . S
C454 H444 0.930 . S
C454 C452 1.419 . S
C454 C455 1.362 . S
C455 H445 0.930 . S
C455 C448 1.409 . S
C455 C454 1.362 . S
H456 C462 0.930 . S
H457 C465 0.930 . S
H458 C466 0.930 . S
H459 C467 0.930 . S
H460 C470 0.930 . S
H461 C471 0.930 . S
C462 H456 0.930 . S
C462 C463 1.355 . S
C462 C464 1.415 . S
C463 C462 1.355 . S
C463 C465 1.419 . S
C464 C462 1.415 . S
C464 C469 1.425 . S
C464 C471 1.409 . S
C465 H457 0.930 . S
C465 C463 1.419 . S
C465 C466 1.362 . S
C466 H458 0.930 . S
C466 C465 1.362 . S
C466 C469 1.409 . S
C467 H459 0.930 . S
C467 C468 1.355 . S
C467 C469 1.415 . S
C468 C467 1.355 . S
C468 C470 1.419 . S
C469 C464 1.425 . S
C469 C466 1.409 . S
C469 C467 1.415 . S
C470 H460 0.930 . S
C470 C468 1.419 . S
C470 C471 1.362 . S
C471 H461 0.930 . S
C471 C464 1.409 . S
C471 C470 1.362 . S
H472 C478 0.930 . S
H473 C481 0.930 . S
H474 C482 0.930 . S
H475 C483 0.930 . S
H476 C486 0.930 . S
H477 C487 0.930 . S
C478 H472 0.930 . S
C478 C479 1.355 . S
C478 C480 1.415 . S
C479 C478 1.355 . S
C479 C481 1.419 . S
C480 C478 1.415 . S
C480 C485 1.425 . S
C480 C487 1.409 . S
C481 H473 0.930 . S
C481 C479 1.419 . S
C481 C482 1.362 . S
C482 H474 0.930 . S
C482 C481 1.362 . S
C482 C485 1.409 . S
C483 H475 0.930 . S
C483 C484 1.355 . S
C483 C485 1.415 . S
C484 C483 1.355 . S
C484 C486 1.419 . S
C485 C480 1.425 . S
C485 C482 1.409 . S
C485 C483 1.415 . S
C486 H476 0.930 . S
C486 C484 1.419 . S
C486 C487 1.362 . S
C487 H477 0.930 . S
C487 C480 1.409 . S
C487 C486 1.362 . S
H488 C494 0.930 . S
H489 C497 0.930 . S
H490 C498 0.930 . S
H491 C499 0.930 . S
H492 C502 0.930 . S
H493 C503 0.930 . S
C494 H488 0.930 . S
C494 C495 1.355 . S
C494 C496 1.415 . S
C495 C494 1.355 . S
C495 C497 1.419 . S
C496 C494 1.415 . S
C496 C501 1.425 . S
C496 C503 1.409 . S
C497 H489 0.930 . S
C497 C495 1.419 . S
C497 C498 1.362 . S
C498 H490 0.930 . S
C498 C497 1.362 . S
C498 C501 1.409 . S
C499 H491 0.930 . S
C499 C500 1.355 . S
C499 C501 1.415 . S
C500 C499 1.355 . S
C500 C502 1.419 . S
C501 C496 1.425 . S
C501 C498 1.409 . S
C501 C499 1.415 . S
C502 H492 0.930 . S
C502 C500 1.419 . S
C502 C503 1.362 . S
C503 H493 0.930 . S
C503 C496 1.409 . S
C503 C502 1.362 . S
H504 C510 0.930 . S
H505 C513 0.930 . S
H506 C514 0.930 . S
H507 C515 0.930 . S
H508 C518 0.930 . S
H509 C519 0.930 . S
C510 H504 0.930 . S
C510 C511 1.355 . S
C510 C512 1.415 . S
C511 C510 1.355 . S
C511 C513 1.419 . S
C512 C510 1.415 . S
C512 C517 1.425 . S
C512 C519 1.409 . S
C513 H505 0.930 . S
C513 C511 1.419 . S
C513 C514 1.362 . S
C514 H506 0.930 . S
C514 C513 1.362 . S
C514 C517 1.409 . S
C515 H507 0.930 . S
C515 C516 1.355 . S
C515 C517 1.415 . S
C516 C515 1.355 . S
C516 C518 1.419 . S
C517 C512 1.425 . S
C517 C514 1.409 . S
C517 C515 1.415 . S
C518 H508 0.930 . S
C518 C516 1.419 . S
C518 C519 1.362 . S
C519 H509 0.930 . S
C519 C512 1.409 . S
C519 C518 1.362 . S
H520 C526 0.930 . S
H521 C529 0.930 . S
H522 C530 0.930 . S
H523 C531 0.930 . S
H524 C534 0.930 . S
H525 C535 0.930 . S
C526 H520 0.930 . S
C526 C527 1.355 . S
C526 C528 1.415 . S
C527 C526 1.355 . S
C527 C529 1.419 . S
C528 C526 1.415 . S
C528 C533 1.425 . S
C528 C535 1.409 . S
C529 H521 0.930 . S
C529 C527 1.419 . S
C529 C530 1.362 . S
C530 H522 0.930 . S
C530 C529 1.362 . S
C530 C533 1.409 . S
C531 H523 0.930 . S
C531 C532 1.355 . S
C531 C533 1.415 . S
C532 C531 1.355 . S
C532 C534 1.419 . S
C533 C528 1.425 . S
C533 C530 1.409 . S
C533 C531 1.415 . S
C534 H524 0.930 . S
C534 C532 1.419 . S
C534 C535 1.362 . S
C535 H525 0.930 . S
C535 C528 1.409 . S
C535 C534 1.362 . S
H536 C542 0.930 . S
H537 C545 0.930 . S
H538 C546 0.930 . S
H539 C547 0.930 . S
H540 C550 0.930 . S
H541 C551 0.930 . S
C542 H536 0.930 . S
C542 C543 1.355 . S
C542 C544 1.415 . S
C543 C542 1.355 . S
C543 C545 1.419 . S
C544 C542 1.415 . S
C544 C549 1.425 . S
C544 C551 1.409 . S
C545 H537 0.930 . S
C545 C543 1.419 . S
C545 C546 1.362 . S
C546 H538 0.930 . S
C546 C545 1.362 . S
C546 C549 1.409 . S
C547 H539 0.930 . S
C547 C548 1.355 . S
C547 C549 1.415 . S
C548 C547 1.355 . S
C548 C550 1.419 . S
C549 C544 1.425 . S
C549 C546 1.409 . S
C549 C547 1.415 . S
C550 H540 0.930 . S
C550 C548 1.419 . S
C550 C551 1.362 . S
C551 H541 0.930 . S
C551 C544 1.409 . S
C551 C550 1.362 . S
H552 C558 0.930 . S
H553 C561 0.930 . S
H554 C562 0.930 . S
H555 C563 0.930 . S
H556 C566 0.930 . S
H557 C567 0.930 . S
C558 H552 0.930 . S
C558 C559 1.355 . S
C558 C560 1.415 . S
C559 C558 1.355 . S
C559 C561 1.419 . S
C560 C558 1.415 . S
C560 C565 1.425 . S
C560 C567 1.409 . S
C561 H553 0.930 . S
C561 C559 1.419 . S
C561 C562 1.362 . S
C562 H554 0.930 . S
C562 C561 1.362 . S
C562 C565 1.409 . S
C563 H555 0.930 . S
C563 C564 1.355 . S
C563 C565 1.415 . S
C564 C563 1.355 . S
C564 C566 1.419 . S
C565 C560 1.425 . S
C565 C562 1.409 . S
C565 C563 1.415 . S
C566 H556 0.930 . S
C566 C564 1.419 . S
C566 C567 1.362 . S
C567 H557 0.930 . S
C567 C560 1.409 . S
C567 C566 1.362 . S
H568 C574 0.930 . S
H569 C577 0.930 1_565 S
H570 C578 0.930 . S
H571 C579 0.930 . S
H572 C582 0.930 . S
H573 C583 0.930 . S
C574 H568 0.930 . S
C574 C575 1.355 . S
C574 C576 1.415 . S
C575 C574 1.355 . S
C575 C577 1.419 . S
C576 C574 1.415 . S
C576 C581 1.425 1_545 S
C576 C583 1.409 1_554 S
C577 H569 0.930 1_545 S
C577 C575 1.419 . S
C577 C578 1.362 1_545 S
C578 H570 0.930 . S
C578 C577 1.362 1_565 S
C578 C581 1.409 . S
C579 H571 0.930 . S
C579 C580 1.355 . S
C579 C581 1.415 1_556 S
C580 C579 1.355 . S
C580 C582 1.419 1_565 S
C581 C576 1.425 1_565 S
C581 C578 1.409 . S
C581 C579 1.415 1_554 S
C582 H572 0.930 . S
C582 C580 1.419 1_545 S
C582 C583 1.362 . S
C583 H573 0.930 . S
C583 C576 1.409 1_556 S
C583 C582 1.362 . S
H584 C590 0.930 . S
H585 C593 0.930 . S
H586 C594 0.930 . S
H587 C595 0.930 1_554 S
H588 C598 0.930 . S
H589 C599 0.930 1_655 S
C590 H584 0.930 . S
C590 C591 1.355 1_556 S
C590 C592 1.415 . S
C591 C590 1.355 1_554 S
C591 C593 1.419 . S
C592 C590 1.415 . S
C592 C597 1.425 1_656 S
C592 C599 1.409 1_655 S
C593 H585 0.930 . S
C593 C591 1.419 . S
C593 C594 1.362 1_655 S
C594 H586 0.930 . S
C594 C593 1.362 1_455 S
C594 C597 1.409 . S
C595 H587 0.930 1_556 S
C595 C596 1.355 . S
C595 C597 1.415 1_556 S
C596 C595 1.355 . S
C596 C598 1.419 . S
C597 C592 1.425 1_454 S
C597 C594 1.409 . S
C597 C595 1.415 1_554 S
C598 H588 0.930 . S
C598 C596 1.419 . S
C598 C599 1.362 . S
C599 H589 0.930 1_455 S
C599 C592 1.409 1_455 S
C599 C598 1.362 . S
H600 C606 0.930 . S
H601 C609 0.930 . S
H602 C610 0.930 . S
H603 C611 0.930 . S
H604 C614 0.930 . S
H605 C615 0.930 . S
C606 H600 0.930 . S
C606 C607 1.355 . S
C606 C608 1.415 . S
C607 C606 1.355 . S
C607 C609 1.419 . S
C608 C606 1.415 . S
C608 C613 1.425 1_565 S
C608 C615 1.409 1_554 S
C609 H601 0.930 . S
C609 C607 1.419 . S
C609 C610 1.362 1_565 S
C610 H602 0.930 . S
C610 C609 1.362 1_545 S
C610 C613 1.409 . S
C611 H603 0.930 . S
C611 C612 1.355 . S
C611 C613 1.415 1_556 S
C612 C611 1.355 . S
C612 C614 1.419 1_545 S
C613 C608 1.425 1_545 S
C613 C610 1.409 . S
C613 C611 1.415 1_554 S
C614 H604 0.930 . S
C614 C612 1.419 1_565 S
C614 C615 1.362 . S
C615 H605 0.930 . S
C615 C608 1.409 1_556 S
C615 C614 1.362 . S
H616 C622 0.930 1_556 S
H617 C625 0.930 . S
H618 C626 0.930 1_655 S
H619 C627 0.930 . S
H620 C630 0.930 . S
H621 C631 0.930 . S
C622 H616 0.930 1_554 S
C622 C623 1.355 . S
C622 C624 1.415 1_554 S
C623 C622 1.355 . S
C623 C625 1.419 . S
C624 C622 1.415 1_556 S
C624 C629 1.425 1_456 S
C624 C631 1.409 . S
C625 H617 0.930 . S
C625 C623 1.419 . S
C625 C626 1.362 . S
C626 H618 0.930 1_455 S
C626 C625 1.362 . S
C626 C629 1.409 1_455 S
C627 H619 0.930 . S
C627 C628 1.355 1_554 S
C627 C629 1.415 . S
C628 C627 1.355 1_556 S
C628 C630 1.419 . S
C629 C624 1.425 1_654 S
C629 C626 1.409 1_655 S
C629 C627 1.415 . S
C630 H620 0.930 . S
C630 C628 1.419 . S
C630 C631 1.362 1_655 S
C631 H621 0.930 . S
C631 C624 1.409 . S
C631 C630 1.362 1_455 S
H632 C638 0.930 . S
H633 C641 0.930 . S
H634 C642 0.930 1_545 S
H635 C643 0.930 . S
H636 C646 0.930 . S
H637 C647 0.930 1_565 S
C638 H632 0.930 . S
C638 C639 1.355 . S
C638 C640 1.413 . S
C639 C638 1.355 . S
C639 C641 1.419 . S
C640 C638 1.413 . S
C640 C645 1.425 1_665 S
C640 C647 1.411 1_665 S
C641 H633 0.930 . S
C641 C639 1.419 . S
C641 C642 1.362 . S
C642 H634 0.930 1_565 S
C642 C641 1.362 . S
C642 C645 1.409 1_665 S
C643 H635 0.930 . S
C643 C644 1.355 . S
C643 C645 1.415 . S
C644 C643 1.355 . S
C644 C646 1.419 . S
C645 C640 1.425 1_445 S
C645 C642 1.409 1_445 S
C645 C643 1.415 . S
C646 H636 0.930 . S
C646 C644 1.419 . S
C646 C647 1.362 . S
C647 H637 0.930 1_545 S
C647 C640 1.411 1_445 S
C647 C646 1.362 . S
H648 C654 0.930 . S
H649 C657 0.930 . S
H650 C658 0.930 . S
H651 C659 0.930 . S
H652 C662 0.930 1_455 S
H653 C663 0.930 . S
C654 H648 0.930 . S
C654 C655 1.355 . S
C654 C656 1.415 1_565 S
C655 C654 1.355 . S
C655 C657 1.419 1_455 S
C656 C654 1.415 1_545 S
C656 C661 1.425 1_455 S
C656 C663 1.409 . S
C657 H649 0.930 . S
C657 C655 1.419 1_655 S
C657 C658 1.362 . S
C658 H650 0.930 . S
C658 C657 1.362 . S
C658 C661 1.409 1_565 S
C659 H651 0.930 . S
C659 C660 1.355 . S
C659 C661 1.415 . S
C660 C659 1.355 . S
C660 C662 1.419 . S
C661 C656 1.425 1_655 S
C661 C658 1.409 1_545 S
C661 C659 1.415 . S
C662 H652 0.930 1_655 S
C662 C660 1.419 . S
C662 C663 1.362 1_655 S
C663 H653 0.930 . S
C663 C656 1.409 . S
C663 C662 1.362 1_455 S
H664 C670 0.930 . S
H665 C673 0.930 . S
H666 C674 0.930 . S
H667 C675 0.930 . S
H668 C678 0.930 . S
H669 C679 0.930 . S
C670 H664 0.930 . S
C670 C671 1.355 . S
C670 C672 1.415 . S
C671 C670 1.355 . S
C671 C673 1.419 . S
C672 C670 1.415 . S
C672 C677 1.425 . S
C672 C679 1.409 . S
C673 H665 0.930 . S
C673 C671 1.419 . S
C673 C674 1.362 . S
C674 H666 0.930 . S
C674 C673 1.362 . S
C674 C677 1.409 . S
C675 H667 0.930 . S
C675 C676 1.355 . S
C675 C677 1.415 . S
C676 C675 1.355 . S
C676 C678 1.419 . S
C677 C672 1.425 . S
C677 C674 1.409 . S
C677 C675 1.415 . S
C678 H668 0.930 . S
C678 C676 1.419 . S
C678 C679 1.362 . S
C679 H669 0.930 . S
C679 C672 1.409 . S
C679 C678 1.362 . S
H680 C686 0.930 . S
H681 C689 0.930 . S
H682 C690 0.930 . S
H683 C691 0.930 . S
H684 C694 0.930 . S
H685 C695 0.930 . S
C686 H680 0.930 . S
C686 C687 1.355 . S
C686 C688 1.415 . S
C687 C686 1.355 . S
C687 C689 1.419 . S
C688 C686 1.415 . S
C688 C693 1.425 . S
C688 C695 1.409 . S
C689 H681 0.930 . S
C689 C687 1.419 . S
C689 C690 1.362 . S
C690 H682 0.930 . S
C690 C689 1.362 . S
C690 C693 1.409 . S
C691 H683 0.930 . S
C691 C692 1.355 . S
C691 C693 1.415 . S
C692 C691 1.355 . S
C692 C694 1.419 . S
C693 C688 1.425 . S
C693 C690 1.409 . S
C693 C691 1.415 . S
C694 H684 0.930 . S
C694 C692 1.419 . S
C694 C695 1.362 . S
C695 H685 0.930 . S
C695 C688 1.409 . S
C695 C694 1.362 . S
H696 C702 0.930 . S
H697 C705 0.930 . S
H698 C706 0.930 . S
H699 C707 0.930 . S
H700 C710 0.930 . S
H701 C711 0.930 . S
C702 H696 0.930 . S
C702 C703 1.355 . S
C702 C704 1.415 . S
C703 C702 1.355 . S
C703 C705 1.419 . S
C704 C702 1.415 . S
C704 C709 1.425 . S
C704 C711 1.409 . S
C705 H697 0.930 . S
C705 C703 1.419 . S
C705 C706 1.362 . S
C706 H698 0.930 . S
C706 C705 1.362 . S
C706 C709 1.409 . S
C707 H699 0.930 . S
C707 C708 1.355 . S
C707 C709 1.415 . S
C708 C707 1.355 . S
C708 C710 1.419 . S
C709 C704 1.425 . S
C709 C706 1.409 . S
C709 C707 1.415 . S
C710 H700 0.930 . S
C710 C708 1.419 . S
C710 C711 1.362 . S
C711 H701 0.930 . S
C711 C704 1.409 . S
C711 C710 1.362 . S
H712 C718 0.930 . S
H713 C721 0.930 . S
H714 C722 0.930 . S
H715 C723 0.930 . S
H716 C726 0.930 . S
H717 C727 0.930 . S
C718 H712 0.930 . S
C718 C719 1.355 . S
C718 C720 1.415 . S
C719 C718 1.355 . S
C719 C721 1.419 . S
C720 C718 1.415 . S
C720 C725 1.425 . S
C720 C727 1.409 . S
C721 H713 0.930 . S
C721 C719 1.419 . S
C721 C722 1.362 . S
C722 H714 0.930 . S
C722 C721 1.362 . S
C722 C725 1.409 . S
C723 H715 0.930 . S
C723 C724 1.355 . S
C723 C725 1.415 . S
C724 C723 1.355 . S
C724 C726 1.419 . S
C725 C720 1.425 . S
C725 C722 1.409 . S
C725 C723 1.415 . S
C726 H716 0.930 . S
C726 C724 1.419 . S
C726 C727 1.362 . S
C727 H717 0.930 . S
C727 C720 1.409 . S
C727 C726 1.362 . S
H728 C734 0.930 . S
H729 C737 0.930 . S
H730 C738 0.930 . S
H731 C739 0.930 . S
H732 C742 0.930 . S
H733 C743 0.930 . S
C734 H728 0.930 . S
C734 C735 1.355 . S
C734 C736 1.415 . S
C735 C734 1.355 . S
C735 C737 1.419 . S
C736 C734 1.415 . S
C736 C741 1.425 . S
C736 C743 1.409 . S
C737 H729 0.930 . S
C737 C735 1.419 . S
C737 C738 1.362 . S
C738 H730 0.930 . S
C738 C737 1.362 . S
C738 C741 1.409 . S
C739 H731 0.930 . S
C739 C740 1.355 . S
C739 C741 1.415 . S
C740 C739 1.355 . S
C740 C742 1.419 . S
C741 C736 1.425 . S
C741 C738 1.409 . S
C741 C739 1.415 . S
C742 H732 0.930 . S
C742 C740 1.419 . S
C742 C743 1.362 . S
C743 H733 0.930 . S
C743 C736 1.409 . S
C743 C742 1.362 . S
H744 C750 0.930 . S
H745 C753 0.930 . S
H746 C754 0.930 . S
H747 C755 0.930 . S
H748 C758 0.930 . S
H749 C759 0.930 . S
C750 H744 0.930 . S
C750 C751 1.355 . S
C750 C752 1.415 . S
C751 C750 1.355 . S
C751 C753 1.419 . S
C752 C750 1.415 . S
C752 C757 1.425 . S
C752 C759 1.409 . S
C753 H745 0.930 . S
C753 C751 1.419 . S
C753 C754 1.362 . S
C754 H746 0.930 . S
C754 C753 1.362 . S
C754 C757 1.409 . S
C755 H747 0.930 . S
C755 C756 1.355 . S
C755 C757 1.415 . S
C756 C755 1.355 . S
C756 C758 1.419 . S
C757 C752 1.425 . S
C757 C754 1.409 . S
C757 C755 1.415 . S
C758 H748 0.930 . S
C758 C756 1.419 . S
C758 C759 1.362 . S
C759 H749 0.930 . S
C759 C752 1.409 . S
C759 C758 1.362 . S
C191 C14 2.741 . S
C196 P146 2.616 . S
C207 C28 2.565 . S
C212 P169 2.608 . S
C223 P100 2.070 . S
C228 C60 2.184 . S
C239 C86 2.575 . S
C244 P123 2.624 . S
C255 P123 2.605 . S
C260 C17 2.649 . S
C271 C40 2.340 . S
C276 P146 2.434 . S
C287 P169 2.555 . S
C292 C63 2.457 . S
C303 P100 2.269 . S
C308 C83 2.295 . S
C319 P100 2.242 . S
C324 C37 2.243 . S
C335 C51 2.814 . S
C340 P123 2.847 . S
C351 C74 2.392 . S
C356 P146 2.443 . S
C367 P169 2.630 . S
C372 C5 2.710 . S
C383 P54 2.592 . S
C388 C106 2.721 . S
C399 P77 2.606 . S
C404 C120 2.573 . S
C415 P8 2.086 . S
C420 C152 2.209 . S
C431 C178 2.571 . S
C436 P31 2.631 . S
C447 P31 2.586 . S
C452 C109 2.661 . S
C463 P54 2.448 . S
C468 C132 2.313 . S
C479 P77 2.541 . S
C484 C155 2.494 . S
C495 C175 2.269 . S
C500 P8 2.268 . S
C511 P8 2.236 . S
C516 C129 2.239 . S
C527 C143 2.807 . S
C532 P31 2.848 . S
C543 P54 2.442 . S
C548 C166 2.399 . S
C559 P77 2.612 . S
C564 C97 2.718 . S
C575 C10 1.011 . S
C580 C32 0.540 . S
C591 C66 0.640 . S
C596 C33 0.819 . S
C607 C56 0.741 . S
C612 C89 0.805 . S
C623 C20 0.852 . S
C628 C78 0.262 . S
C639 C55 0.329 . S
C644 C9 0.670 . S
C655 C43 0.658 . S
C660 C79 0.892 . S
C671 C124 0.410 . S
C676 C102 1.045 . S
C687 C125 0.815 . S
C692 C158 0.767 . S
C703 C148 0.930 . S
C708 C181 0.602 . S
C719 C170 0.451 . S
C724 C112 0.742 . S
C735 C101 0.597 . S
C740 C147 0.519 . S
C751 C171 0.833 . S
C756 C135 0.735 . S
