# Generated by pormake.
# Topology hcp, (12)-cn, num edge types: 1
# Building blocks:
#     Node 0, Type 0, BuildingBlock: ENOWUB_clean_sbu_0, # of connection points: 12
#     Node 1, Type 0, BuildingBlock: ENOWUB_clean_sbu_0, # of connection points: 12
#     Edge 2, Type (0, 0), BuildingBlock: TEMPAE_clean_linker_10, # of connection points: 2
#     Edge 3, Type (0, 0), BuildingBlock: TEMPAE_clean_linker_10, # of connection points: 2
#     Edge 4, Type (0, 0), BuildingBlock: TEMPAE_clean_linker_10, # of connection points: 2
#     Edge 5, Type (0, 0), BuildingBlock: TEMPAE_clean_linker_10, # of connection points: 2
#     Edge 6, Type (0, 0), BuildingBlock: TEMPAE_clean_linker_10, # of connection points: 2
#     Edge 7, Type (0, 0), BuildingBlock: TEMPAE_clean_linker_10, # of connection points: 2
#     Edge 8, Type (0, 0), BuildingBlock: TEMPAE_clean_linker_10, # of connection points: 2
#     Edge 9, Type (0, 0), BuildingBlock: TEMPAE_clean_linker_10, # of connection points: 2
#     Edge 10, Type (0, 0), BuildingBlock: TEMPAE_clean_linker_10, # of connection points: 2
#     Edge 11, Type (0, 0), BuildingBlock: TEMPAE_clean_linker_10, # of connection points: 2
#     Edge 12, Type (0, 0), BuildingBlock: TEMPAE_clean_linker_10, # of connection points: 2
#     Edge 13, Type (0, 0), BuildingBlock: TEMPAE_clean_linker_10, # of connection points: 2
# Relax obj value: 0.186
# Max RMSD: 0.270
# Mean RMSD: 0.270
data_MOF--net-hcp--node1-ENOWUB_clean_sbu_0--edge1-TEMPAE_clean_linker_10
_symmetry_space_group_name_H-M    P1
_symmetry_Int_Tables_number       1
_symmetry_cell_setting            triclinic
loop_
_symmetry_equiv_pos_as_xyz
'x, y, z'
_cell_length_a     18.533239
_cell_length_b     18.423082
_cell_length_c     31.092905
_cell_angle_alpha  89.936812
_cell_angle_beta   90.155635
_cell_angle_gamma 119.65397
loop_
_atom_site_label
_atom_site_type_symbol
_atom_site_fract_x
_atom_site_fract_y
_atom_site_fract_z
_atom_type_partial_charge
O0 O 0.74442 0.27195 0.13434 0.0
O1 O 0.67853 0.22994 0.225 0.0
O2 O 0.74366 0.46343 0.22309 0.0
O3 O 0.64276 0.32744 0.1725 0.0
O4 O 0.77802 0.36447 0.27314 0.0
Zr5 Zr 0.77308 0.3611 0.19798 0.0
Zr6 Zr 0.68208 0.23429 0.30043 0.0
Zr7 Zr 0.54704 0.19796 0.20035 0.0
O8 O 0.6505 0.33336 0.32841 0.0
O9 O 0.51569 0.29697 0.22665 0.0
O10 O 0.55168 0.20138 0.27547 0.0
Zr11 Zr 0.74471 0.46306 0.29882 0.0
Zr12 Zr 0.61063 0.42624 0.19829 0.0
Zr13 Zr 0.51897 0.29949 0.30209 0.0
O14 O 0.61341 0.42836 0.27354 0.0
O15 O 0.54329 0.4029 0.35767 0.0
O16 O 0.39735 0.16308 0.29037 0.0
O17 O 0.90614 0.48158 0.21532 0.0
O18 O 0.72917 0.58565 0.2868 0.0
O19 O 0.52139 0.06171 0.22531 0.0
O20 O 0.48599 0.22058 0.1353 0.0
O21 O 0.82524 0.44232 0.35549 0.0
O22 O 0.58749 0.16137 0.36018 0.0
O23 O 0.70051 0.49344 0.13592 0.0
O24 O 0.47295 0.40902 0.21005 0.0
O25 O 0.79293 0.20914 0.27649 0.0
O26 O 0.68259 0.49782 0.35816 0.0
O27 O 0.61001 0.16574 0.14157 0.0
O28 O 0.40519 0.15236 0.21854 0.0
O29 O 0.88452 0.54641 0.27311 0.0
O30 O 0.84486 0.28683 0.21507 0.0
O31 O 0.42457 0.34214 0.27481 0.0
O32 O 0.48993 0.2034 0.36097 0.0
O33 O 0.79975 0.45354 0.13802 0.0
C34 C 0.68054 0.20267 0.12233 0.0
O35 O 0.7877 0.30355 0.355 0.0
O36 O 0.60367 0.08775 0.28502 0.0
C37 C 0.60771 0.46949 0.37188 0.0
C38 C 0.37191 0.12218 0.25489 0.0
C39 C 0.92984 0.53972 0.24384 0.0
C40 C 0.69075 0.60576 0.25863 0.0
C41 C 0.54873 0.03867 0.25783 0.0
C42 C 0.48543 0.28573 0.12024 0.0
C43 C 0.83183 0.37914 0.36874 0.0
C44 C 0.52064 0.15833 0.3747 0.0
C45 C 0.76572 0.49321 0.12133 0.0
C46 C 0.41799 0.37624 0.24002 0.0
C47 C 0.84217 0.23526 0.24378 0.0
O48 O 0.52241 0.35919 0.13707 0.0
O49 O 0.65309 0.56381 0.22481 0.0
O50 O 0.36615 0.83235 0.85681 0.0
O51 O 0.30539 0.65852 0.8282 0.0
O52 O 0.27211 0.75716 0.72284 0.0
O53 O 0.4021 0.78992 0.77435 0.0
O54 O 0.1754 0.6225 0.77156 0.0
Zr55 Zr 0.26982 0.75307 0.79853 0.0
Zr56 Zr 0.2109 0.52789 0.79966 0.0
Zr57 Zr 0.43667 0.6937 0.80111 0.0
O58 O 0.21291 0.52584 0.72408 0.0
O59 O 0.44052 0.69302 0.72578 0.0
O60 O 0.34179 0.56391 0.77448 0.0
Zr61 Zr 0.18001 0.6238 0.69638 0.0
Zr62 Zr 0.40475 0.78961 0.69942 0.0
Zr63 Zr 0.34458 0.561 0.69964 0.0
O64 O 0.31147 0.65856 0.67207 0.0
O65 O 0.25824 0.49533 0.63577 0.0
O66 O 0.46185 0.54536 0.72252 0.0
O67 O 0.13863 0.74728 0.78294 0.0
O68 O 0.20483 0.71702 0.63478 0.0
O69 O 0.41422 0.59594 0.85953 0.0
O70 O 0.57247 0.80641 0.77913 0.0
O71 O 0.05914 0.48554 0.70614 0.0
O72 O 0.22646 0.40614 0.78945 0.0
O73 O 0.42767 0.92559 0.72375 0.0
O74 O 0.46994 0.76547 0.63658 0.0
O75 O 0.12748 0.54773 0.85449 0.0
O76 O 0.16029 0.53708 0.6349 0.0
O77 O 0.46907 0.79776 0.85609 0.0
O78 O 0.51013 0.62151 0.78465 0.0
O79 O 0.08599 0.66795 0.72177 0.0
O80 O 0.17002 0.68754 0.85589 0.0
O81 O 0.44236 0.62991 0.6424 0.0
O82 O 0.28943 0.41917 0.72415 0.0
O83 O 0.33585 0.89689 0.77918 0.0
C84 C 0.43607 0.84047 0.87005 0.0
O85 O 0.07763 0.43304 0.76976 0.0
O86 O 0.27646 0.49603 0.85854 0.0
C87 C 0.19493 0.49722 0.61941 0.0
C88 C 0.50998 0.57173 0.75575 0.0
C89 C 0.08171 0.70851 0.75438 0.0
C90 C 0.26907 0.78542 0.62221 0.0
C91 C 0.35128 0.52748 0.87302 0.0
C92 C 0.59665 0.85521 0.74607 0.0
C93 C 0.03746 0.42831 0.73513 0.0
C94 C 0.2565 0.38077 0.75952 0.0
C95 C 0.39425 0.94702 0.75401 0.0
C96 C 0.47692 0.70217 0.62429 0.0
C97 C 0.12349 0.61168 0.86871 0.0
O98 O 0.54926 0.85818 0.71672 0.0
O99 O 0.34078 0.82078 0.64045 0.0
C100 C 0.44869 0.9413 0.92795 0.0
C101 C 0.48527 0.90604 0.9022 0.0
C102 C 0.4951 0.0002 0.95984 0.0
C103 C 0.58013 0.0248 0.96573 0.0
C104 C 0.61854 -0.00651 0.93801 0.0
C105 C 0.57065 0.93425 0.90679 0.0
C106 C 0.45211 0.03299 0.98863 0.0
C107 C 0.7093 0.01944 0.9426 0.0
C108 C 0.69499 0.20647 0.04291 0.0
C109 C 0.68244 0.16328 0.08173 0.0
C110 C 0.66652 0.1625 0.00392 0.0
C111 C 0.62508 0.07398 0.00433 0.0
C112 C 0.61955 0.03114 0.04308 0.0
C113 C 0.64848 0.07647 0.0813 0.0
C114 C 0.67556 0.21015 0.96292 0.0
C115 C 0.57627 0.93688 0.045 0.0
H116 H 0.38324 0.92095 0.92416 0.0
H117 H 0.60033 0.90934 0.88621 0.0
H118 H 0.44874 0.0093 0.02183 0.0
H119 H 0.48799 0.10219 0.99011 0.0
H120 H 0.38809 0.01362 0.97748 0.0
H121 H 0.73241 -0.00078 0.91471 0.0
H122 H 0.74757 0.08821 0.94595 0.0
H123 H 0.71854 -0.0088 0.97215 0.0
H124 H 0.72023 0.27362 0.04347 0.0
H125 H 0.63837 0.04339 0.11155 0.0
H126 H 0.61343 0.19219 0.9495 0.0
H127 H 0.70869 0.19392 0.93846 0.0
H128 H 0.71006 0.27879 0.96803 0.0
H129 H 0.50907 0.91083 0.03832 0.0
H130 H 0.58313 0.91381 0.07694 0.0
H131 H 0.60126 0.91229 0.0201 0.0
C132 C 0.49868 0.72537 0.54545 0.0
C133 C 0.52309 0.70777 0.58496 0.0
C134 C 0.52031 0.7017 0.50669 0.0
C135 C 0.56687 0.65953 0.50802 0.0
C136 C 0.59864 0.64987 0.54776 0.0
C137 C 0.57623 0.67412 0.58575 0.0
C138 C 0.48657 0.7148 0.46499 0.0
C139 C 0.64918 0.6061 0.55075 0.0
C140 C 0.52284 0.48376 0.43046 0.0
C141 C 0.59477 0.51947 0.40518 0.0
C142 C 0.51121 0.53022 0.4627 0.0
C143 C 0.5727 0.61467 0.46961 0.0
C144 C 0.64331 0.65236 0.44276 0.0
C145 C 0.65381 0.60421 0.41105 0.0
C146 C 0.43447 0.48795 0.49045 0.0
C147 C 0.70872 0.74287 0.44825 0.0
H148 H 0.45671 0.75053 0.54492 0.0
H149 H 0.59479 0.66049 0.61649 0.0
H150 H 0.53005 0.72672 0.43801 0.0
H151 H 0.42715 0.65767 0.45723 0.0
H152 H 0.47418 0.7678 0.4674 0.0
H153 H 0.67669 0.612 0.58325 0.0
H154 H 0.60878 0.5387 0.54355 0.0
H155 H 0.69996 0.63174 0.52674 0.0
H156 H 0.47645 0.41876 0.42581 0.0
H157 H 0.70854 0.63314 0.39085 0.0
H158 H 0.40198 0.52487 0.49058 0.0
H159 H 0.45254 0.48457 0.52415 0.0
H160 H 0.3903 0.42364 0.47929 0.0
H161 H 0.67941 0.78277 0.44913 0.0
H162 H 0.75535 0.7651 0.42199 0.0
H163 H 0.74144 0.75125 0.47935 0.0
C164 C 0.89069 0.58945 0.08087 0.0
C165 C 0.8045 0.53708 0.08118 0.0
C166 C 0.93553 0.6084 0.04244 0.0
C167 C 0.89295 0.57361 0.00336 0.0
C168 C 0.80489 0.5276 0.00299 0.0
C169 C 0.76144 0.50949 0.04216 0.0
C170 C 0.02916 0.65901 0.04437 0.0
C171 C 0.7566 0.49097 0.96205 0.0
C172 C 0.03168 0.65626 0.90538 0.0
C173 C 0.0589 0.59767 0.90093 0.0
C174 C 0.97319 0.64647 0.93673 0.0
C175 C 0.94189 0.57705 0.96473 0.0
C176 C 0.96554 0.51532 0.9589 0.0
C177 C 0.02356 0.52621 0.92695 0.0
C178 C 0.94701 0.7118 0.94081 0.0
C179 C 0.9321 0.43938 0.98762 0.0
H180 H 0.92376 0.61008 0.11122 0.0
H181 H 0.69479 0.46779 0.04249 0.0
H182 H 0.05565 0.6177 0.03781 0.0
H183 H 0.05305 0.7085 0.01942 0.0
H184 H 0.05189 0.68878 0.07632 0.0
H185 H 0.69321 0.48282 0.96429 0.0
H186 H 0.78839 0.53055 0.93375 0.0
H187 H 0.75034 0.42863 0.9566 0.0
H188 H 0.05655 0.71042 0.88448 0.0
H189 H 0.04315 0.48003 0.92328 0.0
H190 H 0.97211 0.7472 0.97116 0.0
H191 H 0.87834 0.6817 0.94234 0.0
H192 H 0.96946 0.75662 0.91354 0.0
H193 H 0.95446 0.45901 0.02103 0.0
H194 H 0.95166 0.39422 0.97692 0.0
H195 H 0.86326 0.40711 0.98829 0.0
C196 C 0.25723 0.78599 0.54282 0.0
C197 C 0.26584 0.82612 0.58227 0.0
C198 C 0.28676 0.83273 0.50472 0.0
C199 C 0.32585 0.92111 0.50666 0.0
C200 C 0.32702 0.96062 0.54589 0.0
C201 C 0.29691 0.91249 0.58322 0.0
C202 C 0.2829 0.78791 0.46345 0.0
C203 C 0.36726 0.0545 0.54942 0.0
C204 C 0.50693 0.05982 0.4342 0.0
C205 C 0.47089 0.09416 0.40726 0.0
C206 C 0.45928 0.00017 0.46548 0.0
C207 C 0.37349 0.97365 0.46947 0.0
C208 C 0.33597 0.00465 0.44078 0.0
C209 C 0.38512 0.06486 0.41027 0.0
C210 C 0.50141 0.96791 0.49537 0.0
C211 C 0.24429 0.97573 0.443 0.0
H212 H 0.2347 0.71928 0.54229 0.0
H213 H 0.30433 0.94328 0.61396 0.0
H214 H 0.27226 0.81847 0.43528 0.0
H215 H 0.34292 0.78941 0.45861 0.0
H216 H 0.233 0.72148 0.46454 0.0
H217 H 0.3564 0.07463 0.58128 0.0
H218 H 0.43525 0.08298 0.5446 0.0
H219 H 0.34327 0.07941 0.52405 0.0
H220 H 0.57274 0.08111 0.43159 0.0
H221 H 0.356 0.08891 0.3886 0.0
H222 H 0.46692 0.89864 0.49595 0.0
H223 H 0.50127 -0.01023 0.52861 0.0
H224 H 0.56665 -0.01064 0.48588 0.0
H225 H 0.20778 0.90651 0.44183 0.0
H226 H 0.22355 0.00128 0.41631 0.0
H227 H 0.22988 -0.00443 0.47397 0.0
C228 C 0.47586 0.2748 0.04081 0.0
C229 C 0.44162 0.27977 0.08002 0.0
C230 C 0.45514 0.30099 0.00251 0.0
C231 C 0.3995 0.33289 0.00405 0.0
C232 C 0.35866 0.32963 0.04304 0.0
C233 C 0.38058 0.30334 0.08063 0.0
C234 C 0.4983 0.30159 0.96132 0.0
C235 C 0.29823 0.36202 0.04611 0.0
C236 C 0.43373 0.51558 0.93388 0.0
C237 C 0.36641 0.47759 0.90543 0.0
C238 C 0.4472 0.4683 0.96501 0.0
C239 C 0.39274 0.38077 0.96725 0.0
C240 C 0.32752 0.34148 0.93705 0.0
C241 C 0.31461 0.39045 0.90678 0.0
C242 C 0.51796 0.51254 0.99655 0.0
C243 C 0.26973 0.2482 0.93748 0.0
H244 H 0.5241 0.25771 0.04065 0.0
H245 H 0.35507 0.30787 0.11125 0.0
H246 H 0.4533 0.27677 0.93431 0.0
H247 H 0.54518 0.36673 0.95307 0.0
H248 H 0.53017 0.26421 0.96414 0.0
H249 H 0.2647 0.3458 0.07731 0.0
H250 H 0.33244 0.43106 0.04281 0.0
H251 H 0.25196 0.33645 0.01969 0.0
H252 H 0.47462 0.58262 0.93256 0.0
H253 H 0.26389 0.36021 0.88398 0.0
H254 H 0.55736 0.48276 0.99695 0.0
H255 H 0.4928 0.50722 0.02947 0.0
H256 H 0.55769 0.57981 0.98877 0.0
H257 H 0.30514 0.21454 0.94122 0.0
H258 H 0.23183 0.22598 0.90764 0.0
H259 H 0.22709 0.23132 0.96533 0.0
C260 C 0.92777 0.462 0.42906 0.0
C261 C 0.89681 0.39369 0.40095 0.0
C262 C -0.01389 0.47285 0.461 0.0
C263 C 0.01492 0.41461 0.46447 0.0
C264 C -0.01279 0.34814 0.43473 0.0
C265 C 0.92821 0.33821 0.40352 0.0
C266 C 0.01424 0.5447 0.4922 0.0
C267 C 0.01818 0.28625 0.4366 0.0
C268 C 0.19911 0.48775 0.54013 0.0
C269 C 0.15812 0.45372 0.57896 0.0
C270 C 0.15412 0.47038 0.5014 0.0
C271 C 0.06658 0.41853 0.50208 0.0
C272 C 0.02665 0.37776 0.5407 0.0
C273 C 0.07308 0.39599 0.5787 0.0
C274 C 0.19926 0.51347 0.46072 0.0
C275 C 0.93365 0.32155 0.54296 0.0
H276 H 0.90442 0.50546 0.42702 0.0
H277 H 0.90634 0.28643 0.38115 0.0
H278 H -0.00702 0.52009 0.5251 0.0
H279 H 0.08303 0.58174 0.49307 0.0
H280 H -0.01034 0.58699 0.48371 0.0
H281 H -0.00732 0.23978 0.41011 0.0
H282 H 0.08696 0.3196 0.43476 0.0
H283 H 0.00058 0.25235 0.4677 0.0
H284 H 0.26472 0.53373 0.54061 0.0
H285 H 0.04157 0.37085 0.60901 0.0
H286 H 0.26737 0.53921 0.4638 0.0
H287 H 0.18763 0.56573 0.45341 0.0
H288 H 0.17612 0.4698 0.43303 0.0
H289 H 0.90275 0.35961 0.53892 0.0
H290 H 0.91369 0.28791 0.57415 0.0
H291 H 0.91165 0.27488 0.51661 0.0
C292 C 0.52719 0.92223 0.30477 0.0
C293 C 0.52345 0.95039 0.26331 0.0
C294 C 0.54101 0.85503 0.31046 0.0
C295 C 0.54811 0.81414 0.27373 0.0
C296 C 0.52934 0.83298 0.23239 0.0
C297 C 0.51761 0.90199 0.22753 0.0
C298 C 0.55905 0.83584 0.35516 0.0
C299 C 0.53146 0.78678 0.1928 0.0
C300 C 0.71154 0.74896 0.26755 0.0
C301 C 0.66235 0.66286 0.27212 0.0
C302 C 0.67537 0.79995 0.27074 0.0
C303 C 0.58835 0.76264 0.27748 0.0
C304 C 0.53992 0.67605 0.2848 0.0
C305 C 0.57797 0.6272 0.28242 0.0
C306 C 0.72921 0.89301 0.26443 0.0
C307 C 0.44715 0.63384 0.29158 0.0
H308 H 0.52899 0.95868 0.33257 0.0
H309 H 0.51317 0.92303 0.19555 0.0
H310 H 0.53434 0.76793 0.35972 0.0
H311 H 0.62731 0.86743 0.36 0.0
H312 H 0.53244 0.85856 0.38028 0.0
H313 H 0.50099 0.7984 0.16488 0.0
H314 H 0.59697 0.80787 0.18418 0.0
H315 H 0.50033 0.71858 0.19897 0.0
H316 H 0.7766 0.77557 0.25936 0.0
H317 H 0.54045 0.55987 0.28574 0.0
H318 H 0.71788 0.92734 0.29044 0.0
H319 H 0.7131 0.91155 0.23347 0.0
H320 H 0.79639 0.91271 0.26404 0.0
H321 H 0.4222 0.57019 0.30532 0.0
H322 H 0.41622 0.62821 0.26017 0.0
H323 H 0.43017 0.67093 0.31312 0.0
C324 C 0.94757 0.59771 0.77752 0.0
C325 C -0.00277 0.6822 0.76685 0.0
C326 C 0.86172 0.56154 0.77965 0.0
C327 C 0.8259 0.61222 0.77186 0.0
C328 C 0.87655 0.69939 0.7646 0.0
C329 C 0.96267 0.7336 0.76162 0.0
C330 C 0.80972 0.46847 0.78697 0.0
C331 C 0.83948 0.75539 0.75776 0.0
C332 C 0.61633 0.54346 0.72432 0.0
C333 C 0.57628 0.55132 0.76051 0.0
C334 C 0.69627 0.5544 0.72827 0.0
C335 C 0.73542 0.57422 0.76912 0.0
C336 C 0.6905 0.57021 0.80638 0.0
C337 C 0.61063 0.55789 0.80159 0.0
C338 C 0.7419 0.55404 0.68821 0.0
C339 C 0.72972 0.58949 0.85059 0.0
H340 H 0.97586 0.55867 0.78145 0.0
H341 H 0.00211 0.79877 0.75323 0.0
H342 H 0.7582 0.45372 0.80967 0.0
H343 H 0.78149 0.43731 0.75601 0.0
H344 H 0.84737 0.44134 0.79964 0.0
H345 H 0.80374 0.73843 0.7272 0.0
H346 H 0.79569 0.74667 0.78414 0.0
H347 H 0.88771 0.82244 0.75628 0.0
H348 H 0.58906 0.53702 0.69268 0.0
H349 H 0.57792 0.56093 0.82982 0.0
H350 H 0.77795 0.52164 0.69421 0.0
H351 H 0.78644 0.61934 0.67883 0.0
H352 H 0.69875 0.52317 0.66084 0.0
H353 H 0.77208 0.56371 0.85495 0.0
H354 H 0.68206 0.56443 0.87637 0.0
H355 H 0.76706 0.65827 0.85462 0.0
C356 C 0.3256 0.98205 0.22532 0.0
C357 C 0.31561 0.03191 0.2562 0.0
C358 C 0.27643 0.89567 0.22585 0.0
C359 C 0.21199 0.85876 0.2562 0.0
C360 C 0.20299 0.90793 0.28852 0.0
C361 C 0.2565 -0.00545 0.28867 0.0
C362 C 0.29054 0.84449 0.19241 0.0
C363 C 0.13411 0.86976 0.32125 0.0
C364 C 0.01444 0.67836 0.2148 0.0
C365 C 0.01063 0.61269 0.23884 0.0
C366 C 0.08084 0.75894 0.21987 0.0
C367 C 0.14554 0.77262 0.24877 0.0
C368 C 0.14525 0.70487 0.2704 0.0
C369 C 0.07606 0.62506 0.26588 0.0
C370 C 0.07894 0.82994 0.19638 0.0
C371 C 0.21523 0.71701 0.29988 0.0
H372 H 0.37216 0.01043 0.20043 0.0
H373 H 0.25005 0.03315 0.31295 0.0
H374 H 0.28755 0.7883 0.20731 0.0
H375 H 0.24109 0.82281 0.16756 0.0
H376 H 0.35156 0.88097 0.17621 0.0
H377 H 0.13888 0.91582 0.34574 0.0
H378 H 0.0732 0.8443 0.3047 0.0
H379 H 0.13516 0.81703 0.33788 0.0
H380 H 0.96214 0.66767 0.19466 0.0
H381 H 0.07121 0.57347 0.28492 0.0
H382 H 0.1345 0.8631 0.17565 0.0
H383 H 0.08031 0.87589 0.21991 0.0
H384 H 0.02278 0.80814 0.17587 0.0
H385 H 0.27642 0.76352 0.28656 0.0
H386 H 0.21518 0.65739 0.30547 0.0
H387 H 0.20801 0.74069 0.33143 0.0
C388 C 0.23668 0.23791 0.75921 0.0
C389 C 0.28173 0.32096 0.772 0.0
C390 C 0.27244 0.18672 0.76223 0.0
C391 C 0.35616 0.22177 0.77622 0.0
C392 C 0.4 0.30476 0.79129 0.0
C393 C 0.36136 0.35314 0.78961 0.0
C394 C 0.22193 0.09637 0.74868 0.0
C395 C 0.48936 0.34515 0.80598 0.0
C396 C 0.41129 0.05829 0.80298 0.0
C397 C 0.42032 0.03495 0.76122 0.0
C398 C 0.39676 0.12463 0.80938 0.0
C399 C 0.39751 0.17148 0.77335 0.0
C400 C 0.42406 0.1588 0.73272 0.0
C401 C 0.4335 0.08862 0.72673 0.0
C402 C 0.36879 0.136 0.85329 0.0
C403 C 0.43336 0.21368 0.69471 0.0
H404 H 0.17532 0.2142 0.74547 0.0
H405 H 0.39567 0.41819 0.79931 0.0
H406 H 0.24499 0.08727 0.7174 0.0
H407 H 0.22845 0.05519 0.7726 0.0
H408 H 0.15498 0.07638 0.74505 0.0
H409 H 0.5302 0.37679 0.77809 0.0
H410 H 0.50206 0.39269 0.83119 0.0
H411 H 0.50674 0.29975 0.81879 0.0
H412 H 0.40471 0.01807 0.82999 0.0
H413 H 0.44284 0.07169 0.69467 0.0
H414 H 0.39504 0.20291 0.86142 0.0
H415 H 0.38651 0.10572 0.87897 0.0
H416 H 0.30014 0.10725 0.85323 0.0
H417 H 0.37118 0.1955 0.68125 0.0
H418 H 0.47129 0.2075 0.66888 0.0
H419 H 0.46271 0.28016 0.70472 0.0
C420 C 0.29911 0.40217 0.23444 0.0
C421 C 0.33265 0.34994 0.22878 0.0
C422 C 0.21276 0.36848 0.23385 0.0
C423 C 0.16072 0.28085 0.22885 0.0
C424 C 0.1952 0.22885 0.22151 0.0
C425 C 0.28116 0.26464 0.2207 0.0
C426 C 0.17726 0.42582 0.24051 0.0
C427 C 0.14183 0.1351 0.2175 0.0
C428 C 0.95105 0.21258 0.2769 0.0
C429 C 0.90822 0.21407 0.24015 0.0
C430 C 0.03224 0.22662 0.27334 0.0
C431 C 0.07021 0.24375 0.23229 0.0
C432 C 0.02329 0.23454 0.19485 0.0
C433 C 0.94172 0.21775 0.19928 0.0
C434 C 0.07971 0.23176 0.3138 0.0
C435 C 0.06179 0.25273 0.15056 0.0
H436 H 0.33982 0.46789 0.24113 0.0
H437 H 0.30845 0.22491 0.21664 0.0
H438 H 0.13089 0.41519 0.21508 0.0
H439 H 0.14474 0.41195 0.27189 0.0
H440 H 0.22606 0.49275 0.24014 0.0
H441 H 0.09441 0.11871 0.19194 0.0
H442 H 0.17895 0.10429 0.21015 0.0
H443 H 0.10811 0.10909 0.24811 0.0
H444 H 0.92476 0.2089 0.30848 0.0
H445 H 0.90729 0.21684 0.1708 0.0
H446 H 0.1177 0.29811 0.32363 0.0
H447 H 0.12233 0.20653 0.3085 0.0
H448 H 0.03711 0.19697 0.34068 0.0
H449 H 0.10251 0.32122 0.14689 0.0
H450 H 0.01407 0.23049 0.12471 0.0
H451 H 0.10104 0.22349 0.14597 0.0
C452 C 0.89273 0.31253 0.72642 0.0
C453 C 0.97787 0.34315 0.72332 0.0
C454 C 0.83829 0.22608 0.72632 0.0
C455 C 0.87123 0.171 0.72427 0.0
C456 C 0.95702 0.20252 0.71835 0.0
C457 C 0.0093 0.28862 0.71749 0.0
C458 C 0.74622 0.19374 0.73071 0.0
C459 C -0.00471 0.14673 0.71672 0.0
C460 C 0.72654 0.96719 0.77807 0.0
C461 C 0.6836 0.91988 0.74215 0.0
C462 C 0.7938 0.0479 0.7726 0.0
C463 C 0.81601 0.08085 0.73047 0.0
C464 C 0.77938 0.02928 0.69431 0.0
C465 C 0.7145 0.94824 0.70071 0.0
C466 C 0.83592 0.10031 0.81178 0.0
C467 C 0.80251 0.06219 0.64896 0.0
H468 H 0.86944 0.35555 0.73125 0.0
H469 H 0.07595 0.31356 0.71543 0.0
H470 H 0.71142 0.14496 0.70614 0.0
H471 H 0.72495 0.1645 0.76279 0.0
H472 H 0.73033 0.24423 0.72717 0.0
H473 H 0.01075 0.137 0.74998 0.0
H474 H 0.95284 0.08456 0.70272 0.0
H475 H 0.05365 0.17614 0.69775 0.0
H476 H 0.70292 0.94475 0.81009 0.0
H477 H 0.68192 0.9102 0.673 0.0
H478 H 0.81577 0.14738 0.8162 0.0
H479 H 0.90433 0.13449 0.80752 0.0
H480 H 0.82051 0.06182 0.84144 0.0
H481 H 0.7825 0.10899 0.64288 0.0
H482 H 0.77292 0.01181 0.62453 0.0
H483 H 0.87079 0.09414 0.64458 0.0
loop_
_geom_bond_atom_site_label_1
_geom_bond_atom_site_label_2
_geom_bond_distance
_geom_bond_site_symmetry_2
_ccdc_geom_bond_type
O0 Zr5 2.207 . S
O0 C34 1.295 . S
O1 Zr5 2.133 . S
O1 Zr6 2.133 . S
O1 Zr7 2.133 . S
O2 Zr5 2.133 . S
O2 Zr11 2.133 . S
O2 Zr12 2.133 . S
O3 Zr5 2.133 . S
O3 Zr7 2.133 . S
O3 Zr12 2.133 . S
O4 Zr5 2.133 . S
O4 Zr6 2.133 . S
O4 Zr11 2.133 . S
Zr5 O0 2.207 . S
Zr5 O1 2.133 . S
Zr5 O2 2.133 . S
Zr5 O3 2.133 . S
Zr5 O4 2.133 . S
Zr5 O17 2.207 . S
Zr5 O30 2.207 . S
Zr5 O33 2.207 . S
Zr6 O1 2.133 . S
Zr6 O4 2.133 . S
Zr6 O8 2.133 . S
Zr6 O10 2.133 . S
Zr6 O22 2.207 . S
Zr6 O25 2.207 . S
Zr6 O35 2.207 . S
Zr6 O36 2.207 . S
Zr7 O1 2.133 . S
Zr7 O3 2.133 . S
Zr7 O9 2.133 . S
Zr7 O10 2.133 . S
Zr7 O19 2.207 . S
Zr7 O20 2.207 . S
Zr7 O27 2.207 . S
Zr7 O28 2.207 . S
O8 Zr6 2.133 . S
O8 Zr11 2.133 . S
O8 Zr13 2.133 . S
O9 Zr7 2.133 . S
O9 Zr12 2.133 . S
O9 Zr13 2.133 . S
O10 Zr6 2.133 . S
O10 Zr7 2.133 . S
O10 Zr13 2.133 . S
Zr11 O2 2.133 . S
Zr11 O4 2.133 . S
Zr11 O8 2.133 . S
Zr11 O14 2.133 . S
Zr11 O18 2.207 . S
Zr11 O21 2.207 . S
Zr11 O26 2.207 . S
Zr11 O29 2.207 . S
Zr12 O2 2.133 . S
Zr12 O3 2.133 . S
Zr12 O9 2.133 . S
Zr12 O14 2.133 . S
Zr12 O23 2.207 . S
Zr12 O24 2.207 . S
Zr12 O48 2.207 . S
Zr12 O49 2.207 . S
Zr13 O8 2.133 . S
Zr13 O9 2.133 . S
Zr13 O10 2.133 . S
Zr13 O14 2.133 . S
Zr13 O15 2.207 . S
Zr13 O16 2.207 . S
Zr13 O31 2.207 . S
Zr13 O32 2.207 . S
O14 Zr11 2.133 . S
O14 Zr12 2.133 . S
O14 Zr13 2.133 . S
O15 Zr13 2.207 . S
O15 C37 1.295 . S
O16 Zr13 2.207 . S
O16 C38 1.295 . S
O17 Zr5 2.207 . S
O17 C39 1.295 . S
O18 Zr11 2.207 . S
O18 C40 1.295 . S
O19 Zr7 2.207 . S
O19 C41 1.295 . S
O20 Zr7 2.207 . S
O20 C42 1.295 . S
O21 Zr11 2.207 . S
O21 C43 1.295 . S
O22 Zr6 2.207 . S
O22 C44 1.295 . S
O23 Zr12 2.207 . S
O23 C45 1.295 . S
O24 Zr12 2.207 . S
O24 C46 1.295 . S
O25 Zr6 2.207 . S
O25 C47 1.295 . S
O26 Zr11 2.207 . S
O26 C37 1.295 . S
O27 Zr7 2.207 . S
O27 C34 1.295 . S
O28 Zr7 2.207 . S
O28 C38 1.295 . S
O29 Zr11 2.207 . S
O29 C39 1.295 . S
O30 Zr5 2.207 . S
O30 C47 1.295 . S
O31 Zr13 2.207 . S
O31 C46 1.295 . S
O32 Zr13 2.207 . S
O32 C44 1.295 . S
O33 Zr5 2.207 . S
O33 C45 1.295 . S
C34 O0 1.295 . S
C34 O27 1.295 . S
O35 Zr6 2.207 . S
O35 C43 1.295 . S
O36 Zr6 2.207 . S
O36 C41 1.295 . S
C37 O15 1.295 . S
C37 O26 1.295 . S
C38 O16 1.295 . S
C38 O28 1.295 . S
C39 O17 1.295 . S
C39 O29 1.295 . S
C40 O18 1.295 . S
C40 O49 1.295 . S
C41 O19 1.295 . S
C41 O36 1.295 . S
C42 O20 1.295 . S
C42 O48 1.295 . S
C43 O21 1.295 . S
C43 O35 1.295 . S
C44 O22 1.295 . S
C44 O32 1.295 . S
C45 O23 1.295 . S
C45 O33 1.295 . S
C46 O24 1.295 . S
C46 O31 1.295 . S
C47 O25 1.295 . S
C47 O30 1.295 . S
O48 Zr12 2.207 . S
O48 C42 1.295 . S
O49 Zr12 2.207 . S
O49 C40 1.295 . S
O50 Zr55 2.207 . S
O50 C84 1.295 . S
O51 Zr55 2.133 . S
O51 Zr56 2.133 . S
O51 Zr57 2.133 . S
O52 Zr55 2.133 . S
O52 Zr61 2.133 . S
O52 Zr62 2.133 . S
O53 Zr55 2.133 . S
O53 Zr57 2.133 . S
O53 Zr62 2.133 . S
O54 Zr55 2.133 . S
O54 Zr56 2.133 . S
O54 Zr61 2.133 . S
Zr55 O50 2.207 . S
Zr55 O51 2.133 . S
Zr55 O52 2.133 . S
Zr55 O53 2.133 . S
Zr55 O54 2.133 . S
Zr55 O67 2.207 . S
Zr55 O80 2.207 . S
Zr55 O83 2.207 . S
Zr56 O51 2.133 . S
Zr56 O54 2.133 . S
Zr56 O58 2.133 . S
Zr56 O60 2.133 . S
Zr56 O72 2.207 . S
Zr56 O75 2.207 . S
Zr56 O85 2.207 . S
Zr56 O86 2.207 . S
Zr57 O51 2.133 . S
Zr57 O53 2.133 . S
Zr57 O59 2.133 . S
Zr57 O60 2.133 . S
Zr57 O69 2.207 . S
Zr57 O70 2.207 . S
Zr57 O77 2.207 . S
Zr57 O78 2.207 . S
O58 Zr56 2.133 . S
O58 Zr61 2.133 . S
O58 Zr63 2.133 . S
O59 Zr57 2.133 . S
O59 Zr62 2.133 . S
O59 Zr63 2.133 . S
O60 Zr56 2.133 . S
O60 Zr57 2.133 . S
O60 Zr63 2.133 . S
Zr61 O52 2.133 . S
Zr61 O54 2.133 . S
Zr61 O58 2.133 . S
Zr61 O64 2.133 . S
Zr61 O68 2.207 . S
Zr61 O71 2.207 . S
Zr61 O76 2.207 . S
Zr61 O79 2.207 . S
Zr62 O52 2.133 . S
Zr62 O53 2.133 . S
Zr62 O59 2.133 . S
Zr62 O64 2.133 . S
Zr62 O73 2.207 . S
Zr62 O74 2.207 . S
Zr62 O98 2.207 . S
Zr62 O99 2.207 . S
Zr63 O58 2.133 . S
Zr63 O59 2.133 . S
Zr63 O60 2.133 . S
Zr63 O64 2.133 . S
Zr63 O65 2.207 . S
Zr63 O66 2.207 . S
Zr63 O81 2.207 . S
Zr63 O82 2.207 . S
O64 Zr61 2.133 . S
O64 Zr62 2.133 . S
O64 Zr63 2.133 . S
O65 Zr63 2.207 . S
O65 C87 1.295 . S
O66 Zr63 2.207 . S
O66 C88 1.295 . S
O67 Zr55 2.207 . S
O67 C89 1.295 . S
O68 Zr61 2.207 . S
O68 C90 1.295 . S
O69 Zr57 2.207 . S
O69 C91 1.295 . S
O70 Zr57 2.207 . S
O70 C92 1.295 . S
O71 Zr61 2.207 . S
O71 C93 1.295 . S
O72 Zr56 2.207 . S
O72 C94 1.295 . S
O73 Zr62 2.207 . S
O73 C95 1.295 . S
O74 Zr62 2.207 . S
O74 C96 1.295 . S
O75 Zr56 2.207 . S
O75 C97 1.295 . S
O76 Zr61 2.207 . S
O76 C87 1.295 . S
O77 Zr57 2.207 . S
O77 C84 1.295 . S
O78 Zr57 2.207 . S
O78 C88 1.295 . S
O79 Zr61 2.207 . S
O79 C89 1.295 . S
O80 Zr55 2.207 . S
O80 C97 1.295 . S
O81 Zr63 2.207 . S
O81 C96 1.295 . S
O82 Zr63 2.207 . S
O82 C94 1.295 . S
O83 Zr55 2.207 . S
O83 C95 1.295 . S
C84 O50 1.295 . S
C84 O77 1.295 . S
O85 Zr56 2.207 . S
O85 C93 1.295 . S
O86 Zr56 2.207 . S
O86 C91 1.295 . S
C87 O65 1.295 . S
C87 O76 1.295 . S
C88 O66 1.295 . S
C88 O78 1.295 . S
C89 O67 1.295 . S
C89 O79 1.295 . S
C90 O68 1.295 . S
C90 O99 1.295 . S
C91 O69 1.295 . S
C91 O86 1.295 . S
C92 O70 1.295 . S
C92 O98 1.295 . S
C93 O71 1.295 . S
C93 O85 1.295 . S
C94 O72 1.295 . S
C94 O82 1.295 . S
C95 O73 1.295 . S
C95 O83 1.295 . S
C96 O74 1.295 . S
C96 O81 1.295 . S
C97 O75 1.295 . S
C97 O80 1.295 . S
O98 Zr62 2.207 . S
O98 C92 1.295 . S
O99 Zr62 2.207 . S
O99 C90 1.295 . S
C100 C101 1.391 . S
C100 C102 1.394 . S
C100 H116 0.931 . S
C101 C100 1.391 . S
C101 C105 1.376 . S
C102 C100 1.394 . S
C102 C103 1.369 . S
C102 C106 1.531 1_556 S
C103 C102 1.369 . S
C103 C104 1.410 1_565 S
C103 C111 1.503 1_566 S
C104 C103 1.410 1_545 S
C104 C105 1.392 1_545 S
C104 C107 1.511 . S
C105 C101 1.376 . S
C105 C104 1.392 1_565 S
C105 H117 0.929 . S
C106 C102 1.531 1_554 S
C106 H118 0.960 . S
C106 H119 0.962 . S
C106 H120 0.960 . S
C107 C104 1.511 . S
C107 H121 0.961 . S
C107 H122 0.961 . S
C107 H123 0.961 . S
C108 C109 1.370 . S
C108 C110 1.363 . S
C108 H124 0.931 . S
C109 C108 1.370 . S
C109 C113 1.408 . S
C110 C108 1.363 . S
C110 C111 1.370 . S
C110 C114 1.524 1_554 S
C111 C103 1.503 1_544 S
C111 C110 1.370 . S
C111 C112 1.403 . S
C112 C111 1.403 . S
C112 C113 1.404 . S
C112 C115 1.539 1_545 S
C113 C109 1.408 . S
C113 C112 1.404 . S
C113 H125 0.930 . S
C114 C110 1.524 1_556 S
C114 H126 0.956 . S
C114 H127 0.961 . S
C114 H128 0.961 . S
C115 C112 1.539 1_565 S
C115 H129 0.958 . S
C115 H130 0.961 . S
C115 H131 0.960 . S
H116 C100 0.931 . S
H117 C105 0.929 . S
H118 C106 0.960 . S
H119 C106 0.962 . S
H120 C106 0.960 . S
H121 C107 0.961 . S
H122 C107 0.961 . S
H123 C107 0.961 . S
H124 C108 0.931 . S
H125 C113 0.930 . S
H126 C114 0.956 . S
H127 C114 0.961 . S
H128 C114 0.961 . S
H129 C115 0.958 . S
H130 C115 0.961 . S
H131 C115 0.960 . S
C132 C133 1.391 . S
C132 C134 1.394 . S
C132 H148 0.931 . S
C133 C132 1.391 . S
C133 C137 1.376 . S
C134 C132 1.394 . S
C134 C135 1.369 . S
C134 C138 1.531 . S
C135 C134 1.369 . S
C135 C136 1.410 . S
C135 C143 1.503 . S
C136 C135 1.410 . S
C136 C137 1.392 . S
C136 C139 1.511 . S
C137 C133 1.376 . S
C137 C136 1.392 . S
C137 H149 0.929 . S
C138 C134 1.531 . S
C138 H150 0.960 . S
C138 H151 0.962 . S
C138 H152 0.960 . S
C139 C136 1.511 . S
C139 H153 0.961 . S
C139 H154 0.961 . S
C139 H155 0.961 . S
C140 C141 1.370 . S
C140 C142 1.363 . S
C140 H156 0.931 . S
C141 C140 1.370 . S
C141 C145 1.408 . S
C142 C140 1.363 . S
C142 C143 1.370 . S
C142 C146 1.524 . S
C143 C135 1.503 . S
C143 C142 1.370 . S
C143 C144 1.403 . S
C144 C143 1.403 . S
C144 C145 1.404 . S
C144 C147 1.539 . S
C145 C141 1.408 . S
C145 C144 1.404 . S
C145 H157 0.930 . S
C146 C142 1.524 . S
C146 H158 0.956 . S
C146 H159 0.961 . S
C146 H160 0.961 . S
C147 C144 1.539 . S
C147 H161 0.958 . S
C147 H162 0.961 . S
C147 H163 0.960 . S
H148 C132 0.931 . S
H149 C137 0.929 . S
H150 C138 0.960 . S
H151 C138 0.962 . S
H152 C138 0.960 . S
H153 C139 0.961 . S
H154 C139 0.961 . S
H155 C139 0.961 . S
H156 C140 0.931 . S
H157 C145 0.930 . S
H158 C146 0.956 . S
H159 C146 0.961 . S
H160 C146 0.961 . S
H161 C147 0.958 . S
H162 C147 0.961 . S
H163 C147 0.960 . S
C164 C165 1.391 . S
C164 C166 1.394 . S
C164 H180 0.931 . S
C165 C164 1.391 . S
C165 C169 1.376 . S
C166 C164 1.394 . S
C166 C167 1.369 . S
C166 C170 1.531 . S
C167 C166 1.369 . S
C167 C168 1.410 . S
C167 C175 1.503 1_554 S
C168 C167 1.410 . S
C168 C169 1.392 . S
C168 C171 1.511 1_554 S
C169 C165 1.376 . S
C169 C168 1.392 . S
C169 H181 0.929 . S
C170 C166 1.531 . S
C170 H182 0.960 . S
C170 H183 0.962 1_655 S
C170 H184 0.960 . S
C171 C168 1.511 1_556 S
C171 H185 0.961 . S
C171 H186 0.961 . S
C171 H187 0.961 . S
C172 C173 1.370 . S
C172 C174 1.363 . S
C172 H188 0.931 . S
C173 C172 1.370 . S
C173 C177 1.408 . S
C174 C172 1.363 . S
C174 C175 1.370 1_455 S
C174 C178 1.524 1_556 S
C175 C167 1.503 1_556 S
C175 C174 1.370 1_655 S
C175 C176 1.403 . S
C176 C175 1.403 . S
C176 C177 1.404 1_655 S
C176 C179 1.539 . S
C177 C173 1.408 . S
C177 C176 1.404 1_455 S
C177 H189 0.930 . S
C178 C174 1.524 1_554 S
C178 H190 0.956 . S
C178 H191 0.961 . S
C178 H192 0.961 . S
C179 C176 1.539 . S
C179 H193 0.958 . S
C179 H194 0.961 . S
C179 H195 0.960 . S
H180 C164 0.931 . S
H181 C169 0.929 . S
H182 C170 0.960 . S
H183 C170 0.962 1_455 S
H184 C170 0.960 . S
H185 C171 0.961 . S
H186 C171 0.961 . S
H187 C171 0.961 . S
H188 C172 0.931 . S
H189 C177 0.930 . S
H190 C178 0.956 . S
H191 C178 0.961 . S
H192 C178 0.961 . S
H193 C179 0.958 . S
H194 C179 0.961 . S
H195 C179 0.960 . S
C196 C197 1.391 . S
C196 C198 1.394 . S
C196 H212 0.931 . S
C197 C196 1.391 . S
C197 C201 1.376 . S
C198 C196 1.394 . S
C198 C199 1.369 . S
C198 C202 1.531 . S
C199 C198 1.369 . S
C199 C200 1.410 . S
C199 C207 1.503 . S
C200 C199 1.410 . S
C200 C201 1.392 . S
C200 C203 1.511 1_565 S
C201 C197 1.376 . S
C201 C200 1.392 . S
C201 H213 0.929 . S
C202 C198 1.531 . S
C202 H214 0.960 . S
C202 H215 0.962 . S
C202 H216 0.960 . S
C203 C200 1.511 1_545 S
C203 H217 0.961 . S
C203 H218 0.961 . S
C203 H219 0.961 . S
C204 C205 1.370 . S
C204 C206 1.363 . S
C204 H220 0.931 . S
C205 C204 1.370 . S
C205 C209 1.408 . S
C206 C204 1.363 . S
C206 C207 1.370 1_545 S
C206 C210 1.524 . S
C207 C199 1.503 . S
C207 C206 1.370 1_565 S
C207 C208 1.403 . S
C208 C207 1.403 . S
C208 C209 1.404 1_565 S
C208 C211 1.539 . S
C209 C205 1.408 . S
C209 C208 1.404 1_545 S
C209 H221 0.930 . S
C210 C206 1.524 . S
C210 H222 0.956 1_545 S
C210 H223 0.961 . S
C210 H224 0.961 . S
C211 C208 1.539 . S
C211 H225 0.958 . S
C211 H226 0.961 . S
C211 H227 0.960 . S
H212 C196 0.931 . S
H213 C201 0.929 . S
H214 C202 0.960 . S
H215 C202 0.962 . S
H216 C202 0.960 . S
H217 C203 0.961 . S
H218 C203 0.961 . S
H219 C203 0.961 . S
H220 C204 0.931 . S
H221 C209 0.930 . S
H222 C210 0.956 1_565 S
H223 C210 0.961 . S
H224 C210 0.961 . S
H225 C211 0.958 . S
H226 C211 0.961 . S
H227 C211 0.960 . S
C228 C229 1.391 . S
C228 C230 1.394 . S
C228 H244 0.931 . S
C229 C228 1.391 . S
C229 C233 1.376 . S
C230 C228 1.394 . S
C230 C231 1.369 . S
C230 C234 1.531 . S
C231 C230 1.369 . S
C231 C232 1.410 . S
C231 C239 1.503 1_554 S
C232 C231 1.410 . S
C232 C233 1.392 . S
C232 C235 1.511 . S
C233 C229 1.376 . S
C233 C232 1.392 . S
C233 H245 0.929 . S
C234 C230 1.531 . S
C234 H246 0.960 1_554 S
C234 H247 0.962 . S
C234 H248 0.960 . S
C235 C232 1.511 . S
C235 H249 0.961 . S
C235 H250 0.961 . S
C235 H251 0.961 1_554 S
C236 C237 1.370 . S
C236 C238 1.363 . S
C236 H252 0.931 . S
C237 C236 1.370 . S
C237 C241 1.408 . S
C238 C236 1.363 . S
C238 C239 1.370 . S
C238 C242 1.524 1_556 S
C239 C231 1.503 1_556 S
C239 C238 1.370 . S
C239 C240 1.403 . S
C240 C239 1.403 . S
C240 C241 1.404 . S
C240 C243 1.539 . S
C241 C237 1.408 . S
C241 C240 1.404 . S
C241 H253 0.930 . S
C242 C238 1.524 1_554 S
C242 H254 0.956 . S
C242 H255 0.961 . S
C242 H256 0.961 . S
C243 C240 1.539 . S
C243 H257 0.958 . S
C243 H258 0.961 . S
C243 H259 0.960 . S
H244 C228 0.931 . S
H245 C233 0.929 . S
H246 C234 0.960 1_556 S
H247 C234 0.962 . S
H248 C234 0.960 . S
H249 C235 0.961 . S
H250 C235 0.961 . S
H251 C235 0.961 1_556 S
H252 C236 0.931 . S
H253 C241 0.930 . S
H254 C242 0.956 . S
H255 C242 0.961 . S
H256 C242 0.961 . S
H257 C243 0.958 . S
H258 C243 0.961 . S
H259 C243 0.960 . S
C260 C261 1.391 . S
C260 C262 1.394 1_655 S
C260 H276 0.931 . S
C261 C260 1.391 . S
C261 C265 1.376 . S
C262 C260 1.394 1_455 S
C262 C263 1.369 1_455 S
C262 C266 1.531 . S
C263 C262 1.369 1_655 S
C263 C264 1.410 . S
C263 C271 1.503 1_655 S
C264 C263 1.410 . S
C264 C265 1.392 . S
C264 C267 1.511 . S
C265 C261 1.376 . S
C265 C264 1.392 . S
C265 H277 0.929 . S
C266 C262 1.531 . S
C266 H278 0.960 . S
C266 H279 0.962 . S
C266 H280 0.960 . S
C267 C264 1.511 . S
C267 H281 0.961 . S
C267 H282 0.961 . S
C267 H283 0.961 . S
C268 C269 1.370 . S
C268 C270 1.363 . S
C268 H284 0.931 . S
C269 C268 1.370 . S
C269 C273 1.408 . S
C270 C268 1.363 . S
C270 C271 1.370 . S
C270 C274 1.524 . S
C271 C263 1.503 1_455 S
C271 C270 1.370 . S
C271 C272 1.403 . S
C272 C271 1.403 . S
C272 C273 1.404 . S
C272 C275 1.539 1_455 S
C273 C269 1.408 . S
C273 C272 1.404 . S
C273 H285 0.930 . S
C274 C270 1.524 . S
C274 H286 0.956 . S
C274 H287 0.961 . S
C274 H288 0.961 . S
C275 C272 1.539 1_655 S
C275 H289 0.958 . S
C275 H290 0.961 . S
C275 H291 0.960 . S
H276 C260 0.931 . S
H277 C265 0.929 . S
H278 C266 0.960 . S
H279 C266 0.962 . S
H280 C266 0.960 . S
H281 C267 0.961 . S
H282 C267 0.961 . S
H283 C267 0.961 . S
H284 C268 0.931 . S
H285 C273 0.930 . S
H286 C274 0.956 . S
H287 C274 0.961 . S
H288 C274 0.961 . S
H289 C275 0.958 . S
H290 C275 0.961 . S
H291 C275 0.960 . S
C292 C293 1.391 1_565 S
C292 C294 1.394 . S
C292 H308 0.931 . S
C293 C292 1.391 1_545 S
C293 C297 1.376 1_545 S
C294 C292 1.394 . S
C294 C295 1.369 . S
C294 C298 1.531 . S
C295 C294 1.369 . S
C295 C296 1.410 . S
C295 C303 1.503 . S
C296 C295 1.410 . S
C296 C297 1.392 . S
C296 C299 1.511 . S
C297 C293 1.376 1_565 S
C297 C296 1.392 . S
C297 H309 0.929 1_565 S
C298 C294 1.531 . S
C298 H310 0.960 . S
C298 H311 0.962 . S
C298 H312 0.960 . S
C299 C296 1.511 . S
C299 H313 0.961 . S
C299 H314 0.961 . S
C299 H315 0.961 . S
C300 C301 1.370 . S
C300 C302 1.363 . S
C300 H316 0.931 . S
C301 C300 1.370 . S
C301 C305 1.408 . S
C302 C300 1.363 . S
C302 C303 1.370 . S
C302 C306 1.524 . S
C303 C295 1.503 . S
C303 C302 1.370 . S
C303 C304 1.403 . S
C304 C303 1.403 . S
C304 C305 1.404 . S
C304 C307 1.539 . S
C305 C301 1.408 . S
C305 C304 1.404 . S
C305 H317 0.930 . S
C306 C302 1.524 . S
C306 H318 0.956 . S
C306 H319 0.961 . S
C306 H320 0.961 . S
C307 C304 1.539 . S
C307 H321 0.958 . S
C307 H322 0.961 . S
C307 H323 0.960 . S
H308 C292 0.931 . S
H309 C297 0.929 1_545 S
H310 C298 0.960 . S
H311 C298 0.962 . S
H312 C298 0.960 . S
H313 C299 0.961 . S
H314 C299 0.961 . S
H315 C299 0.961 . S
H316 C300 0.931 . S
H317 C305 0.930 . S
H318 C306 0.956 . S
H319 C306 0.961 . S
H320 C306 0.961 . S
H321 C307 0.958 . S
H322 C307 0.961 . S
H323 C307 0.960 . S
C324 C325 1.391 1_655 S
C324 C326 1.394 . S
C324 H340 0.931 . S
C325 C324 1.391 1_455 S
C325 C329 1.376 . S
C326 C324 1.394 . S
C326 C327 1.369 . S
C326 C330 1.531 . S
C327 C326 1.369 . S
C327 C328 1.410 . S
C327 C335 1.503 . S
C328 C327 1.410 . S
C328 C329 1.392 1_655 S
C328 C331 1.511 . S
C329 C325 1.376 . S
C329 C328 1.392 1_455 S
C329 H341 0.929 . S
C330 C326 1.531 . S
C330 H342 0.960 . S
C330 H343 0.962 . S
C330 H344 0.960 . S
C331 C328 1.511 . S
C331 H345 0.961 . S
C331 H346 0.961 . S
C331 H347 0.961 . S
C332 C333 1.370 . S
C332 C334 1.363 . S
C332 H348 0.931 . S
C333 C332 1.370 . S
C333 C337 1.408 . S
C334 C332 1.363 . S
C334 C335 1.370 . S
C334 C338 1.524 . S
C335 C327 1.503 . S
C335 C334 1.370 . S
C335 C336 1.403 . S
C336 C335 1.403 . S
C336 C337 1.404 . S
C336 C339 1.539 . S
C337 C333 1.408 . S
C337 C336 1.404 . S
C337 H349 0.930 . S
C338 C334 1.524 . S
C338 H350 0.956 . S
C338 H351 0.961 . S
C338 H352 0.961 . S
C339 C336 1.539 . S
C339 H353 0.958 . S
C339 H354 0.961 . S
C339 H355 0.960 . S
H340 C324 0.931 . S
H341 C329 0.929 . S
H342 C330 0.960 . S
H343 C330 0.962 . S
H344 C330 0.960 . S
H345 C331 0.961 . S
H346 C331 0.961 . S
H347 C331 0.961 . S
H348 C332 0.931 . S
H349 C337 0.930 . S
H350 C338 0.956 . S
H351 C338 0.961 . S
H352 C338 0.961 . S
H353 C339 0.958 . S
H354 C339 0.961 . S
H355 C339 0.960 . S
C356 C357 1.391 1_565 S
C356 C358 1.394 . S
C356 H372 0.931 . S
C357 C356 1.391 1_545 S
C357 C361 1.376 . S
C358 C356 1.394 . S
C358 C359 1.369 . S
C358 C362 1.531 . S
C359 C358 1.369 . S
C359 C360 1.410 . S
C359 C367 1.503 . S
C360 C359 1.410 . S
C360 C361 1.392 1_565 S
C360 C363 1.511 . S
C361 C357 1.376 . S
C361 C360 1.392 1_545 S
C361 H373 0.929 . S
C362 C358 1.531 . S
C362 H374 0.960 . S
C362 H375 0.962 . S
C362 H376 0.960 . S
C363 C360 1.511 . S
C363 H377 0.961 . S
C363 H378 0.961 . S
C363 H379 0.961 . S
C364 C365 1.370 1_455 S
C364 C366 1.363 . S
C364 H380 0.931 1_455 S
C365 C364 1.370 1_655 S
C365 C369 1.408 1_655 S
C366 C364 1.363 . S
C366 C367 1.370 . S
C366 C370 1.524 . S
C367 C359 1.503 . S
C367 C366 1.370 . S
C367 C368 1.403 . S
C368 C367 1.403 . S
C368 C369 1.404 . S
C368 C371 1.539 . S
C369 C365 1.408 1_455 S
C369 C368 1.404 . S
C369 H381 0.930 . S
C370 C366 1.524 . S
C370 H382 0.956 . S
C370 H383 0.961 . S
C370 H384 0.961 . S
C371 C368 1.539 . S
C371 H385 0.958 . S
C371 H386 0.961 . S
C371 H387 0.960 . S
H372 C356 0.931 . S
H373 C361 0.929 . S
H374 C362 0.960 . S
H375 C362 0.962 . S
H376 C362 0.960 . S
H377 C363 0.961 . S
H378 C363 0.961 . S
H379 C363 0.961 . S
H380 C364 0.931 1_655 S
H381 C369 0.930 . S
H382 C370 0.956 . S
H383 C370 0.961 . S
H384 C370 0.961 . S
H385 C371 0.958 . S
H386 C371 0.961 . S
H387 C371 0.960 . S
C388 C389 1.391 . S
C388 C390 1.394 . S
C388 H404 0.931 . S
C389 C388 1.391 . S
C389 C393 1.376 . S
C390 C388 1.394 . S
C390 C391 1.369 . S
C390 C394 1.531 . S
C391 C390 1.369 . S
C391 C392 1.410 . S
C391 C399 1.503 . S
C392 C391 1.410 . S
C392 C393 1.392 . S
C392 C395 1.511 . S
C393 C389 1.376 . S
C393 C392 1.392 . S
C393 H405 0.929 . S
C394 C390 1.531 . S
C394 H406 0.960 . S
C394 H407 0.962 . S
C394 H408 0.960 . S
C395 C392 1.511 . S
C395 H409 0.961 . S
C395 H410 0.961 . S
C395 H411 0.961 . S
C396 C397 1.370 1_545 S
C396 C398 1.363 . S
C396 H412 0.931 . S
C397 C396 1.370 1_565 S
C397 C401 1.408 1_565 S
C398 C396 1.363 . S
C398 C399 1.370 . S
C398 C402 1.524 . S
C399 C391 1.503 . S
C399 C398 1.370 . S
C399 C400 1.403 . S
C400 C399 1.403 . S
C400 C401 1.404 . S
C400 C403 1.539 . S
C401 C397 1.408 1_545 S
C401 C400 1.404 . S
C401 H413 0.930 1_545 S
C402 C398 1.524 . S
C402 H414 0.956 . S
C402 H415 0.961 . S
C402 H416 0.961 . S
C403 C400 1.539 . S
C403 H417 0.958 . S
C403 H418 0.961 . S
C403 H419 0.960 . S
H404 C388 0.931 . S
H405 C393 0.929 . S
H406 C394 0.960 . S
H407 C394 0.962 . S
H408 C394 0.960 . S
H409 C395 0.961 . S
H410 C395 0.961 . S
H411 C395 0.961 . S
H412 C396 0.931 . S
H413 C401 0.930 1_565 S
H414 C402 0.956 . S
H415 C402 0.961 . S
H416 C402 0.961 . S
H417 C403 0.958 . S
H418 C403 0.961 . S
H419 C403 0.960 . S
C420 C421 1.391 . S
C420 C422 1.394 . S
C420 H436 0.931 . S
C421 C420 1.391 . S
C421 C425 1.376 . S
C422 C420 1.394 . S
C422 C423 1.369 . S
C422 C426 1.531 . S
C423 C422 1.369 . S
C423 C424 1.410 . S
C423 C431 1.503 . S
C424 C423 1.410 . S
C424 C425 1.392 . S
C424 C427 1.511 . S
C425 C421 1.376 . S
C425 C424 1.392 . S
C425 H437 0.929 . S
C426 C422 1.531 . S
C426 H438 0.960 . S
C426 H439 0.962 . S
C426 H440 0.960 . S
C427 C424 1.511 . S
C427 H441 0.961 . S
C427 H442 0.961 . S
C427 H443 0.961 . S
C428 C429 1.370 1_455 S
C428 C430 1.363 . S
C428 H444 0.931 1_455 S
C429 C428 1.370 1_655 S
C429 C433 1.408 . S
C430 C428 1.363 . S
C430 C431 1.370 . S
C430 C434 1.524 . S
C431 C423 1.503 . S
C431 C430 1.370 . S
C431 C432 1.403 . S
C432 C431 1.403 . S
C432 C433 1.404 1_455 S
C432 C435 1.539 . S
C433 C429 1.408 . S
C433 C432 1.404 1_655 S
C433 H445 0.930 . S
C434 C430 1.524 . S
C434 H446 0.956 . S
C434 H447 0.961 . S
C434 H448 0.961 . S
C435 C432 1.539 . S
C435 H449 0.958 . S
C435 H450 0.961 . S
C435 H451 0.960 . S
H436 C420 0.931 . S
H437 C425 0.929 . S
H438 C426 0.960 . S
H439 C426 0.962 . S
H440 C426 0.960 . S
H441 C427 0.961 . S
H442 C427 0.961 . S
H443 C427 0.961 . S
H444 C428 0.931 1_655 S
H445 C433 0.930 . S
H446 C434 0.956 . S
H447 C434 0.961 . S
H448 C434 0.961 . S
H449 C435 0.958 . S
H450 C435 0.961 . S
H451 C435 0.960 . S
C452 C453 1.391 1_655 S
C452 C454 1.394 . S
C452 H468 0.931 . S
C453 C452 1.391 1_455 S
C453 C457 1.376 . S
C454 C452 1.394 . S
C454 C455 1.369 . S
C454 C458 1.531 . S
C455 C454 1.369 . S
C455 C456 1.410 . S
C455 C463 1.503 . S
C456 C455 1.410 . S
C456 C457 1.392 1_655 S
C456 C459 1.511 . S
C457 C453 1.376 . S
C457 C456 1.392 1_455 S
C457 H469 0.929 . S
C458 C454 1.531 . S
C458 H470 0.960 . S
C458 H471 0.962 . S
C458 H472 0.960 . S
C459 C456 1.511 . S
C459 H473 0.961 1_655 S
C459 H474 0.961 . S
C459 H475 0.961 . S
C460 C461 1.370 1_545 S
C460 C462 1.363 . S
C460 H476 0.931 1_545 S
C461 C460 1.370 1_565 S
C461 C465 1.408 . S
C462 C460 1.363 . S
C462 C463 1.370 . S
C462 C466 1.524 . S
C463 C455 1.503 . S
C463 C462 1.370 . S
C463 C464 1.403 . S
C464 C463 1.403 . S
C464 C465 1.404 1_545 S
C464 C467 1.539 . S
C465 C461 1.408 . S
C465 C464 1.404 1_565 S
C465 H477 0.930 . S
C466 C462 1.524 . S
C466 H478 0.956 . S
C466 H479 0.961 . S
C466 H480 0.961 . S
C467 C464 1.539 . S
C467 H481 0.958 . S
C467 H482 0.961 . S
C467 H483 0.960 . S
H468 C452 0.931 . S
H469 C457 0.929 . S
H470 C458 0.960 . S
H471 C458 0.962 . S
H472 C458 0.960 . S
H473 C459 0.961 1_455 S
H474 C459 0.961 . S
H475 C459 0.961 . S
H476 C460 0.931 1_565 S
H477 C465 0.930 . S
H478 C466 0.956 . S
H479 C466 0.961 . S
H480 C466 0.961 . S
H481 C467 0.958 . S
H482 C467 0.961 . S
H483 C467 0.960 . S
C101 C84 1.842 . S
C109 C34 1.738 . S
C133 C96 1.727 . S
C141 C37 1.850 . S
C165 C45 1.715 . S
C173 C97 1.850 . S
C197 C90 1.759 . S
C205 C44 1.847 . S
C229 C42 1.751 . S
C237 C91 1.847 . S
C261 C43 1.851 . S
C269 C87 1.721 . S
C293 C41 1.145 . S
C301 C40 1.120 . S
C325 C89 1.134 . S
C333 C88 1.123 . S
C357 C38 1.113 . S
C365 C39 1.132 . S
C389 C94 1.128 . S
C397 C95 1.128 . S
C421 C46 1.124 . S
C429 C47 1.130 . S
C453 C93 1.117 . S
C461 C92 1.133 . S
