# Generated by pormake.
# Topology kag, (6)-cn, num edge types: 1
# Building blocks:
#     Node 0, Type 0, BuildingBlock: KUMJIN_clean_sbu_0, # of connection points: 6
#     Node 1, Type 0, BuildingBlock: KUMJIN_clean_sbu_0, # of connection points: 6
#     Node 2, Type 0, BuildingBlock: KUMJIN_clean_sbu_0, # of connection points: 6
#     Edge 3, Type (0, 0), BuildingBlock: XIVTED_clean_linker_0, # of connection points: 2
#     Edge 4, Type (0, 0), BuildingBlock: XIVTED_clean_linker_0, # of connection points: 2
#     Edge 5, Type (0, 0), BuildingBlock: XIVTED_clean_linker_0, # of connection points: 2
#     Edge 6, Type (0, 0), BuildingBlock: XIVTED_clean_linker_0, # of connection points: 2
#     Edge 7, Type (0, 0), BuildingBlock: XIVTED_clean_linker_0, # of connection points: 2
#     Edge 8, Type (0, 0), BuildingBlock: XIVTED_clean_linker_0, # of connection points: 2
#     Edge 9, Type (0, 0), BuildingBlock: XIVTED_clean_linker_0, # of connection points: 2
#     Edge 10, Type (0, 0), BuildingBlock: XIVTED_clean_linker_0, # of connection points: 2
#     Edge 11, Type (0, 0), BuildingBlock: XIVTED_clean_linker_0, # of connection points: 2
# Relax obj value: 0.071
# Max RMSD: 0.190
# Mean RMSD: 0.141
data_MOF--net-kag--node1-KUMJIN_clean_sbu_0--edge1-XIVTED_clean_linker_0
_symmetry_space_group_name_H-M    P1
_symmetry_Int_Tables_number       1
_symmetry_cell_setting            triclinic
loop_
_symmetry_equiv_pos_as_xyz
'x, y, z'
_cell_length_a     40.536868
_cell_length_b     30.569543
_cell_length_c     15.522803
_cell_angle_alpha  95.110045
_cell_angle_beta   115.14489
_cell_angle_gamma 96.753613
loop_
_atom_site_label
_atom_site_type_symbol
_atom_site_fract_x
_atom_site_fract_y
_atom_site_fract_z
_atom_type_partial_charge
Eu0 Eu 0.9922 0.48318 0.97198 0.0
C1 C 0.98792 0.67471 0.11961 0.0
C2 C 0.92604 0.68409 0.01114 0.0
C3 C 0.95582 0.7244 0.17472 0.0
C4 C 0.9576 0.66417 0.03014 0.0
C5 C 0.98769 0.70573 0.19214 0.0
C6 C 0.92502 0.71352 0.08449 0.0
C7 C 0.05146 0.70005 0.29116 0.0
N8 N 0.0183 0.65612 0.13437 0.0
C9 C 0.05035 0.66942 0.21707 0.0
C10 C 0.01985 0.71787 0.27914 0.0
Eu11 Eu 0.0138 0.60387 0.00672 0.0
N12 N 0.95961 0.63606 0.96036 0.0
C13 C 0.93203 0.62866 0.86842 0.0
C14 C 0.89681 0.67471 0.9183 0.0
C15 C 0.90004 0.64732 0.84635 0.0
H16 H 0.07471 0.65539 0.22654 0.0
H17 H 0.87786 0.64048 0.7739 0.0
H18 H 0.90089 0.72885 0.07145 0.0
H19 H 0.07664 0.70982 0.35748 0.0
H20 H 0.93405 0.60739 0.81223 0.0
H21 H 0.1281 0.44457 0.19811 0.0
H22 H 0.87203 0.68922 0.90091 0.0
H23 H 0.92995 0.43268 0.75235 0.0
H24 H 0.07231 0.47828 0.16325 0.0
H25 H 0.92682 0.37869 0.61918 0.0
H26 H 0.95497 0.74797 0.22986 0.0
H27 H 0.13275 0.39625 0.06857 0.0
H28 H 0.10278 0.35744 0.89722 0.0
H29 H 0.02079 0.74163 0.33661 0.0
H30 H 0.04801 0.33927 0.74003 0.0
N31 N 0.04597 0.45041 0.01469 0.0
C32 C 0.07391 0.45722 0.10604 0.0
C33 C 0.10819 0.41104 0.05274 0.0
C34 C 0.07856 0.40223 0.96049 0.0
C35 C 0.10563 0.4382 0.12611 0.0
C36 C 0.04731 0.42251 0.94355 0.0
H37 H 0.98209 0.34642 0.63627 0.0
N38 N 0.98652 0.43139 0.84208 0.0
C39 C 0.95229 0.38812 0.68483 0.0
C40 C 0.01662 0.41253 0.85474 0.0
C41 C 0.9541 0.41853 0.76019 0.0
C42 C 0.98358 0.37003 0.69471 0.0
C43 C 0.01613 0.38169 0.78088 0.0
O44 O 0.94153 0.43924 0.94741 0.0
O45 O 0.97109 0.54599 -0.00889 0.0
O46 O 0.00866 0.58628 0.13942 0.0
O47 O 0.0171 0.51223 0.13308 0.0
O48 O 0.93434 0.49729 0.88164 0.0
O49 O 0.99292 0.43554 0.06971 0.0
O50 O 0.06479 0.64796 0.0344 0.0
O51 O 0.03478 0.54108 0.9881 0.0
O52 O 0.99745 0.50072 0.83934 0.0
O53 O 0.98956 0.57496 0.8458 0.0
O54 O 0.07176 0.58969 0.09699 0.0
O55 O 0.0141 0.65124 0.90924 0.0
C56 C 0.93749 0.53567 0.92905 0.0
C57 C 0.94761 0.36971 0.00026 0.0
C58 C 0.90558 0.30308 0.98999 0.0
C59 C 0.91765 0.34953 0.01428 0.0
C60 C 0.92404 0.27711 0.95169 0.0
C61 C 0.96596 0.34317 0.96319 0.0
C62 C 0.95415 0.29709 0.93893 0.0
C63 C 0.01436 0.54955 0.17873 0.0
C64 C 0.95788 0.41858 0.01987 0.0
C65 C 0.0477 0.3627 0.79623 0.0
C66 C 0.07889 0.37303 0.88577 0.0
C67 C 0.06845 0.55121 0.04961 0.0
C68 C 0.06003 0.71675 0.9771 0.0
C69 C 0.09046 0.73507 0.96291 0.0
C70 C 0.10277 0.78154 0.98146 0.0
C71 C 0.08383 0.80935 0.01437 0.0
C72 C 0.04157 0.74503 0.00987 0.0
C73 C 0.05348 0.79113 0.02832 0.0
C74 C 0.9921 0.53752 0.80019 0.0
C75 C 0.04913 0.668 0.96039 0.0
H76 H 0.90328 0.37011 0.04226 0.0
H77 H 0.91556 0.24126 0.93304 0.0
H78 H 0.98922 0.35799 0.95255 0.0
H79 H 0.96834 0.27678 0.91004 0.0
H80 H 0.10432 0.71295 0.93658 0.0
H81 H 0.09276 0.84515 0.0307 0.0
H82 H 0.01815 0.73153 0.02148 0.0
H83 H 0.03925 0.81285 0.05407 0.0
Eu84 Eu 0.54736 0.04799 0.03858 0.0
C85 C 0.42428 0.12555 0.8724 0.0
C86 C 0.41557 0.16292 0.00405 0.0
C87 C 0.40664 0.19931 0.86518 0.0
C88 C 0.42461 0.12577 0.96249 0.0
C89 C 0.41454 0.16216 0.82243 0.0
C90 C 0.40731 0.19977 0.95584 0.0
C91 C 0.42036 0.12288 0.68954 0.0
N92 N 0.43323 0.08988 0.83318 0.0
C93 C 0.42965 0.08744 0.74102 0.0
C94 C 0.41322 0.16066 0.73082 0.0
Eu95 Eu 0.44765 1.0306 0.92551 0.0
N96 N 0.43299 0.08978 0.00868 0.0
C97 C 0.42811 0.08731 0.09055 0.0
C98 C 0.41438 0.16184 0.09237 0.0
C99 C 0.41997 0.12352 0.13476 0.0
H100 H 0.43247 0.05784 0.70406 0.0
H101 H 0.41707 0.12135 0.20051 0.0
H102 H 0.40078 0.22858 0.98746 0.0
H103 H 0.41811 0.12066 0.6172 0.0
H104 H 0.4288 0.0572 0.12163 0.0
H105 H 0.56225 0.89389 0.86187 0.0
H106 H 0.40769 0.1897 0.12645 0.0
H107 H 0.59817 0.09526 0.26907 0.0
H108 H 0.54395 0.96752 0.87102 0.0
H109 H 0.63717 0.07331 0.42571 0.0
H110 H 0.39974 0.22782 0.82834 0.0
H111 H 0.59311 0.86148 0.01057 0.0
H112 H 0.62123 0.8706 0.19117 0.0
H113 H 0.40598 0.18809 0.6906 0.0
H114 H 0.64113 0.91939 0.34553 0.0
N115 N 0.56361 0.97677 0.02321 0.0
C116 C 0.55738 0.95395 0.93646 0.0
C117 C 0.58519 0.89394 0.01504 0.0
C118 C 0.59328 0.91855 0.10416 0.0
C119 C 0.56788 0.91218 0.93101 0.0
C120 C 0.58236 0.96067 0.10599 0.0
H121 H 0.64799 0.99547 0.43368 0.0
N122 N 0.58566 1.02995 0.19102 0.0
C123 C 0.62475 0.04886 0.36091 0.0
C124 C 0.5934 0.98797 0.19277 0.0
C125 C 0.6028 0.06119 0.27235 0.0
C126 C 0.63064 1.00484 0.36515 0.0
C127 C 0.61581 0.97408 0.2801 0.0
O128 O 0.59338 0.10418 0.09115 0.0
O129 O 0.49868 0.085 0.96561 0.0
O130 O 0.46392 1.01053 0.80678 0.0
O131 O 0.5259 0.04331 0.87724 0.0
O132 O 0.54019 0.11493 0.09903 0.0
O133 O 0.5877 0.05294 0.97917 0.0
O134 O 0.39841 1.00287 0.79221 0.0
O135 O 0.49659 0.99439 0.9776 0.0
O136 O 0.53048 0.04031 0.15864 0.0
O137 O 0.46627 1.0198 0.08069 0.0
O138 O 0.44613 0.95521 0.92866 0.0
O139 O 0.3946 1.00902 0.92752 0.0
C140 C 0.51045 0.12121 0.02793 0.0
C141 C 0.64822 0.09055 0.0832 0.0
C142 C 0.71023 0.12415 0.10992 0.0
C143 C 0.67153 0.12162 0.06328 0.0
C144 C 0.72519 0.09515 0.17642 0.0
C145 C 0.66377 0.06137 0.14828 0.0
C146 C 0.70203 0.06384 0.19493 0.0
C147 C 0.49516 1.02388 0.80181 0.0
C148 C 0.60791 0.0893 0.0366 0.0
C149 C 0.62442 0.93091 0.27907 0.0
C150 C 0.61317 0.90317 0.19117 0.0
C151 C 0.48088 0.95323 0.96474 0.0
C152 C 0.35763 0.94614 0.81168 0.0
C153 C 0.33036 0.93468 0.84342 0.0
C154 C 0.31222 0.89018 0.82521 0.0
C155 C 0.32135 0.85748 0.77341 0.0
C156 C 0.36614 0.9127 0.76005 0.0
C157 C 0.34802 0.86877 0.74103 0.0
C158 C 0.49822 1.02769 0.15875 0.0
C159 C 0.37802 0.99247 0.83619 0.0
H160 H 0.65963 0.14408 0.01256 0.0
H161 H 0.7548 0.09608 0.21267 0.0
H162 H 0.64646 1.03664 0.16304 0.0
H163 H 0.71378 0.04127 0.24533 0.0
H164 H 0.32395 0.96019 0.88418 0.0
H165 H 0.30757 0.82313 0.757 0.0
H166 H 0.38709 0.92031 0.73514 0.0
H167 H 0.35479 0.84327 0.7013 0.0
Eu168 Eu 0.45201 0.52201 0.93527 0.0
C169 C 0.60068 0.62881 0.23806 0.0
C170 C 0.60402 0.70131 0.18797 0.0
C171 C 0.63282 0.695 0.35821 0.0
C172 C 0.59118 0.65487 0.16566 0.0
C173 C 0.62232 0.64843 0.33502 0.0
C174 C 0.62376 0.7214 0.28475 0.0
C175 C 0.62516 0.57433 0.37756 0.0
N176 N 0.59098 0.58387 0.2128 0.0
C177 C 0.604 0.55642 0.2803 0.0
C178 C 0.63396 0.62055 0.40524 0.0
Eu179 Eu 0.55363 0.55593 0.04703 0.0
N180 N 0.57289 0.63421 0.0729 0.0
C181 C 0.56967 0.6574 -0.00072 0.0
C182 C 0.5984 0.72576 0.11233 0.0
C183 C 0.58183 0.70353 0.01765 0.0
H184 H 0.59707 0.52066 0.25926 0.0
H185 H 0.57823 0.72192 0.95872 0.0
H186 H 0.63336 0.7571 0.30333 0.0
H187 H 0.63464 0.55249 0.43106 0.0
H188 H 0.55688 0.64068 0.92578 0.0
H189 H 0.42645 0.35661 0.0255 0.0
H190 H 0.60786 0.76147 0.12637 0.0
H191 H 0.40886 0.55659 0.72198 0.0
H192 H 0.44783 0.43778 0.05747 0.0
H193 H 0.37159 0.52431 0.55042 0.0
H194 H 0.64912 0.71076 0.43238 0.0
H195 H 0.39729 0.31654 0.85835 0.0
H196 H 0.37225 0.32032 0.68122 0.0
H197 H 0.65057 0.63433 0.48054 0.0
H198 H 0.35686 0.3662 0.55138 0.0
N199 N 0.43231 0.44378 0.91031 0.0
C200 C 0.43524 0.42088 0.98417 0.0
C201 C 0.40676 0.35224 0.87196 0.0
C202 C 0.40137 0.3764 0.796 0.0
C203 C 0.42306 0.37476 0.96635 0.0
C204 C 0.41422 0.42284 0.81776 0.0
H205 H 0.35561 0.4424 0.50206 0.0
N206 N 0.41473 0.49359 0.76961 0.0
C207 C 0.38091 0.50264 0.60435 0.0
C208 C 0.40496 0.44863 0.74493 0.0
C209 C 0.4019 0.52081 0.70152 0.0
C210 C 0.37208 0.45639 0.57731 0.0
C211 C 0.38351 0.42874 0.64806 0.0
O212 O 0.40041 0.54944 0.89792 0.0
O213 O 0.49912 0.58259 0.00445 0.0
O214 O 0.53384 0.56604 0.16344 0.0
O215 O 0.47861 0.51561 0.09461 0.0
O216 O 0.45134 0.59256 0.89473 0.0
O217 O 0.41909 0.51386 0.01719 0.0
O218 O 0.60555 0.52925 0.08397 0.0
O219 O 0.50649 0.49571 0.97925 0.0
O220 O 0.47202 0.51114 0.81944 0.0
O221 O 0.52693 0.56207 0.88762 0.0
O222 O 0.55469 0.48472 0.08507 0.0
O223 O 0.58653 0.56509 0.96522 0.0
C224 C 0.4839 0.61279 0.95548 0.0
C225 C 0.35337 0.50912 0.93005 0.0
C226 C 0.2903 0.50056 0.92389 0.0
C227 C 0.3272 0.52503 0.95953 0.0
C228 C 0.28126 0.45991 0.86194 0.0
C229 C 0.34206 0.4689 0.86664 0.0
C230 C 0.30668 0.44449 0.83374 0.0
C231 C 0.50616 0.54124 0.16986 0.0
C232 C 0.39236 0.53325 0.96291 0.0
C233 C 0.373 0.38216 0.62546 0.0
C234 C 0.38185 0.35603 0.69937 0.0
C235 C 0.52175 0.46495 0.02586 0.0
C236 C 0.65241 0.57058 0.0524 0.0
C237 C 0.67885 0.55538 0.02295 0.0
C238 C 0.71565 0.58032 0.05936 0.0
C239 C 0.72434 0.62064 0.122 0.0
C240 C 0.6634 0.61056 0.11641 0.0
C241 C 0.69867 0.63538 0.15005 0.0
C242 C 0.49959 0.53603 0.81269 0.0
C243 C 0.61349 0.54592 0.01923 0.0
H244 H 0.33519 0.55628 0.0078 0.0
H245 H 0.25416 0.43948 0.835 0.0
H246 H 0.36069 0.45613 0.84214 0.0
H247 H 0.29882 0.41326 0.78548 0.0
H248 H 0.67118 0.52432 0.97428 0.0
H249 H 0.75141 0.64125 0.14982 0.0
H250 H 0.64462 0.62279 0.14095 0.0
H251 H 0.70626 0.66637 0.19889 0.0
H252 H 0.00595 0.47134 0.69485 0.0
H253 H 1.00072 0.61568 0.28453 0.0
H254 H 0.98184 0.60518 0.68976 0.0
H255 H 0.02494 0.48189 0.28933 0.0
H256 H 0.9946 0.61269 0.43336 0.0
H257 H 0.01232 0.47432 0.54629 0.0
C258 C 1.00144 0.5012 0.66203 0.0
C259 C 0.99293 0.53792 0.70513 0.0
C260 C 1.00147 0.58404 0.40235 0.0
C261 C 1.00105 0.54183 0.53452 0.0
C262 C 0.00531 0.58582 0.31735 0.0
C263 C 0.01376 0.54911 0.27405 0.0
C264 C 0.00592 0.54519 0.44502 0.0
C265 C 0.0186 0.51111 0.31989 0.0
C266 C 0.00542 0.50297 0.5772 0.0
C267 C 0.98822 0.57593 0.65934 0.0
N268 N 0.01454 0.51013 0.40255 0.0
N269 N 0.9924 0.57691 0.57685 0.0
H270 H 0.44359 0.98066 0.19162 0.0
H271 H 0.55302 0.05325 0.76335 0.0
H272 H 0.55087 0.06454 0.33952 0.0
H273 H 0.43982 0.98419 0.62307 0.0
H274 H 0.55399 0.05054 0.60796 0.0
H275 H 0.44265 0.97572 0.34748 0.0
C276 C 0.46708 0.99778 0.25675 0.0
C277 C 0.49764 1.02267 0.25232 0.0
C278 C 0.52888 1.03589 0.61078 0.0
C279 C 0.49673 1.01698 0.43072 0.0
C280 C 0.52828 0.03731 0.69994 0.0
C281 C 0.49609 1.01936 0.70677 0.0
C282 C 0.49711 1.01633 0.52683 0.0
C283 C 0.46514 0.99887 0.62138 0.0
C284 C 0.46651 0.99487 0.34564 0.0
C285 C 0.52722 0.04406 0.33909 0.0
N286 N 0.46634 0.99811 0.5348 0.0
N287 N 0.526 0.04076 0.42435 0.0
H288 H 0.45622 0.47886 0.64284 0.0
H289 H 0.5498 0.59793 0.3401 0.0
H290 H 0.54402 0.59313 0.76364 0.0
H291 H 0.46154 0.48416 0.21853 0.0
H292 H 0.54848 0.59633 0.496 0.0
H293 H 0.45758 0.48029 0.48689 0.0
C294 C 0.47556 0.50448 0.63662 0.0
C295 C 0.49975 0.53617 0.7168 0.0
C296 C 0.52945 0.57163 0.43525 0.0
C297 C 0.50193 0.53758 0.53813 0.0
C298 C 0.53037 0.57237 0.34615 0.0
C299 C 0.50604 0.54089 0.26575 0.0
C300 C 0.5039 0.53927 0.44443 0.0
C301 C 0.48092 0.50914 0.27809 0.0
C302 C 0.4765 0.50512 0.5475 0.0
C303 C 0.52476 0.56799 0.70426 0.0
N304 N 0.48053 0.50915 0.36538 0.0
N305 N 0.52517 0.56788 0.61699 0.0
H306 H 0.06956 0.5094 0.88414 0.0
H307 H 0.29248 0.53453 0.10065 0.0
H308 H 0.14226 0.56905 0.17688 0.0
H309 H 0.21738 0.49834 0.79921 0.0
H310 H 0.23924 0.54532 0.13403 0.0
H311 H 0.12375 0.49996 0.85661 0.0
C312 C 0.09682 0.51993 0.94328 0.0
C313 C 0.10094 0.5397 0.03347 0.0
C314 C 0.23448 0.53522 0.06049 0.0
C315 C 0.16411 0.52984 0.00159 0.0
C316 C 0.26507 0.52951 0.04126 0.0
C317 C 0.25987 0.51512 0.94684 0.0
C318 C 0.19814 0.52636 0.98499 0.0
C319 C 0.22317 0.50876 0.87345 0.0
C320 C 0.12801 0.51493 0.92723 0.0
C321 C 0.13749 0.55338 0.10631 0.0
N322 N 0.19413 0.51398 0.89402 0.0
N323 N 0.16739 0.54823 0.08898 0.0
H324 H 0.70496 0.13922 0.93349 0.0
H325 H 0.89331 0.31672 0.14993 0.0
H326 H 0.77274 0.18119 0.23802 0.0
H327 H 0.84623 0.2404 0.86488 0.0
H328 H 0.84292 0.27774 0.17692 0.0
H329 H 0.75018 0.18691 0.90089 0.0
C330 C 0.7291 0.15896 -0.00664 0.0
C331 C 0.73529 0.15609 0.08858 0.0
C332 C 0.84354 0.2697 0.10832 0.0
C333 C 0.78699 0.21053 0.052 0.0
C334 C 0.87215 0.29208 0.09271 0.0
C335 C 0.87407 0.28155 0.00528 0.0
C336 C 0.81637 0.23695 0.03553 0.0
C337 C 0.84604 0.2491 0.9338 0.0
C338 C 0.75498 0.18587 0.97479 0.0
C339 C 0.76716 0.18209 0.16358 0.0
N340 N 0.81835 0.22796 0.95045 0.0
N341 N 0.79182 0.20818 0.14373 0.0
H342 H 0.47217 0.88777 0.82033 0.0
H343 H 0.51408 0.679 0.12519 0.0
H344 H 0.51183 0.90878 0.12752 0.0
H345 H 0.47114 0.66715 0.81735 0.0
H346 H 0.51852 0.76136 0.13418 0.0
H347 H 0.47687 0.80856 0.82395 0.0
C348 C 0.48317 0.8763 0.88956 0.0
C349 C 0.49358 0.90715 0.97412 0.0
C350 C 0.5085 0.7409 0.06455 0.0
C351 C 0.49711 0.81242 0.97869 0.0
C352 C 0.50631 0.69333 0.05944 0.0
C353 C 0.49314 0.66464 0.97022 0.0
C354 C 0.49714 0.7612 0.97989 0.0
C355 C 0.48225 0.68676 0.88827 0.0
C356 C 0.4854 0.83024 0.89145 0.0
C357 C 0.50521 0.88789 0.06032 0.0
N358 N 0.48458 0.73246 0.89517 0.0
N359 N 0.50675 0.84266 0.06031 0.0
H360 H 0.86445 0.51987 0.79789 0.0
H361 H 0.78753 0.57982 0.18682 0.0
H362 H 0.93471 0.57442 0.09519 0.0
H363 H 0.71567 0.55143 0.88233 0.0
H364 H 0.84051 0.57211 0.15384 0.0
H365 H 0.80986 0.5277 0.82551 0.0
C366 C 0.86851 0.53407 0.86885 0.0
C367 C 0.90464 0.54682 0.94389 0.0
C368 C 0.81325 0.56728 0.09387 0.0
C369 C 0.84146 0.55481 0.97706 0.0
C370 C 0.78267 0.57143 0.11263 0.0
C371 C 0.74653 0.56655 0.03743 0.0
C372 C 0.80842 0.5577 -0.00139 0.0
C373 C 0.74262 0.55523 0.94305 0.0
C374 C 0.83716 0.53833 0.88465 0.0
C375 C 0.90775 0.56454 0.03451 0.0
N376 N 0.77301 0.5514 0.92647 0.0
N377 N 0.87682 0.56766 0.04845 0.0
H378 H 0.11252 0.85824 0.90807 0.0
H379 H 0.30444 0.81758 0.91053 0.0
H380 H 0.16727 0.74893 0.02077 0.0
H381 H 0.2554 0.93316 0.81878 0.0
H382 H 0.25517 0.79337 0.95553 0.0
H383 H 0.16522 0.88776 0.87987 0.0
C384 C 0.1357 0.84057 0.92767 0.0
C385 C 0.13518 0.80076 0.96636 0.0
C386 C 0.25519 0.82414 0.92599 0.0
C387 C 0.19558 0.83425 0.93299 0.0
C388 C 0.28327 0.83791 0.89987 0.0
C389 C 0.28389 0.87726 0.85985 0.0
C390 C 0.22718 0.8497 0.91164 0.0
C391 C 0.25609 0.90268 0.84958 0.0
C392 C 0.16574 0.85739 0.91106 0.0
C393 C 0.16595 0.77919 0.98906 0.0
N394 N 0.22871 0.88828 0.87452 0.0
N395 N 0.19473 0.79609 0.97172 0.0
H396 H 0.49339 0.39829 0.85812 0.0
H397 H 0.51223 0.18862 0.15997 0.0
H398 H 0.53042 0.41135 0.16436 0.0
H399 H 0.49991 0.16927 0.86959 0.0
H400 H 0.51132 0.26842 0.15327 0.0
H401 H 0.48794 0.31591 0.85084 0.0
C402 C 0.49959 0.38422 0.92375 0.0
C403 C 0.51142 0.41326 0.01195 0.0
C404 C 0.50838 0.24706 0.09006 0.0
C405 C 0.50603 0.31666 0.00434 0.0
C406 C 0.50872 0.20075 0.09366 0.0
C407 C 0.505 0.17029 0.0145 0.0
C408 C 0.50474 0.26534 0.00659 0.0
C409 C 0.50169 0.19003 0.93213 0.0
C410 C 0.49687 0.33665 0.91968 0.0
C411 C 0.52034 0.39146 0.09406 0.0
N412 N 0.50143 0.23544 0.93029 0.0
N413 N 0.51723 0.3457 0.08808 0.0
loop_
_geom_bond_atom_site_label_1
_geom_bond_atom_site_label_2
_geom_bond_distance
_geom_bond_site_symmetry_2
_ccdc_geom_bond_type
Eu0 N31 2.657 1_656 S
Eu0 N38 2.609 . S
Eu0 O44 2.558 . S
Eu0 O45 2.615 . S
Eu0 O47 2.338 1_556 S
Eu0 O48 2.563 . S
Eu0 O49 2.419 1_556 S
Eu0 O51 2.380 1_656 S
Eu0 O52 2.432 . S
Eu0 C64 2.848 . S
C1 C4 1.429 . S
C1 C5 1.411 . S
C1 N8 1.377 1_655 S
C2 C4 1.420 1_556 S
C2 C6 1.423 1_556 S
C2 C14 1.392 . S
C3 C5 1.420 . S
C3 C6 1.351 . S
C3 H26 0.931 . S
C4 C1 1.429 . S
C4 C2 1.420 1_554 S
C4 N12 1.362 1_554 S
C5 C1 1.411 . S
C5 C3 1.420 . S
C5 C10 1.395 1_655 S
C6 C2 1.423 1_554 S
C6 C3 1.351 . S
C6 H18 0.930 1_554 S
C7 C9 1.400 . S
C7 C10 1.386 . S
C7 H19 0.930 . S
N8 C1 1.377 1_455 S
N8 C9 1.321 . S
N8 Eu11 2.609 . S
C9 C7 1.400 . S
C9 N8 1.321 . S
C9 H16 0.930 . S
C10 C5 1.395 1_455 S
C10 C7 1.386 . S
C10 H29 0.930 . S
Eu11 N8 2.609 . S
Eu11 N12 2.657 1_454 S
Eu11 O45 2.383 1_454 S
Eu11 O46 2.432 . S
Eu11 O50 2.558 . S
Eu11 O51 2.612 . S
Eu11 O53 2.336 1_554 S
Eu11 O54 2.563 . S
Eu11 O55 2.419 1_554 S
Eu11 C75 2.848 . S
N12 C4 1.362 1_556 S
N12 Eu11 2.657 1_656 S
N12 C13 1.334 . S
C13 N12 1.334 . S
C13 C15 1.413 . S
C13 H20 0.929 . S
C14 C2 1.392 . S
C14 C15 1.367 . S
C14 H22 0.930 . S
C15 C13 1.413 . S
C15 C14 1.367 . S
C15 H17 0.930 . S
H16 C9 0.930 . S
H17 C15 0.930 . S
H18 C6 0.930 1_556 S
H19 C7 0.930 . S
H20 C13 0.929 . S
H21 C35 0.930 . S
H22 C14 0.930 . S
H23 C41 0.930 . S
H24 C32 0.929 . S
H25 C39 0.930 . S
H26 C3 0.931 . S
H27 C33 0.930 . S
H28 C66 0.930 1_554 S
H29 C10 0.930 . S
H30 C65 0.931 . S
N31 Eu0 2.657 1_454 S
N31 C32 1.334 . S
N31 C36 1.360 1_554 S
C32 H24 0.929 . S
C32 N31 1.334 . S
C32 C35 1.413 . S
C33 H27 0.930 . S
C33 C34 1.392 . S
C33 C35 1.367 . S
C34 C33 1.392 . S
C34 C36 1.420 1_554 S
C34 C66 1.423 1_554 S
C35 H21 0.930 . S
C35 C32 1.413 . S
C35 C33 1.367 . S
C36 N31 1.360 1_556 S
C36 C34 1.420 1_556 S
C36 C40 1.431 . S
H37 C42 0.941 . S
N38 Eu0 2.609 . S
N38 C40 1.377 1_655 S
N38 C41 1.321 . S
C39 H25 0.930 . S
C39 C41 1.400 . S
C39 C42 1.386 . S
C40 C36 1.431 . S
C40 N38 1.377 1_455 S
C40 C43 1.411 . S
C41 H23 0.930 . S
C41 N38 1.321 . S
C41 C39 1.400 . S
C42 H37 0.941 . S
C42 C39 1.386 . S
C42 C43 1.395 1_655 S
C43 C40 1.411 . S
C43 C42 1.395 1_455 S
C43 C65 1.420 . S
O44 Eu0 2.558 . S
O44 C64 1.257 . S
O45 Eu0 2.615 . S
O45 Eu11 2.383 1_656 S
O45 C56 1.273 . S
O46 Eu11 2.432 . S
O46 C63 1.264 . S
O47 Eu0 2.338 1_554 S
O47 C63 1.254 1_655 S
O48 Eu0 2.563 . S
O48 C56 1.235 . S
O49 Eu0 2.419 1_554 S
O49 C64 1.249 1_554 S
O50 Eu11 2.558 . S
O50 C75 1.257 . S
O51 Eu0 2.380 1_454 S
O51 Eu11 2.612 . S
O51 C67 1.276 . S
O52 Eu0 2.432 . S
O52 C74 1.264 . S
O53 Eu11 2.336 1_556 S
O53 C74 1.257 1_455 S
O54 Eu11 2.563 . S
O54 C67 1.235 . S
O55 Eu11 2.419 1_556 S
O55 C75 1.249 1_556 S
C56 O45 1.273 . S
C56 O48 1.235 . S
C57 C59 1.393 1_556 S
C57 C61 1.395 . S
C57 C64 1.492 . S
C58 C59 1.392 1_556 S
C58 C60 1.386 . S
C59 C57 1.393 1_554 S
C59 C58 1.392 1_554 S
C59 H76 0.929 . S
C60 C58 1.386 . S
C60 C62 1.395 . S
C60 H77 0.930 . S
C61 C57 1.395 . S
C61 C62 1.379 . S
C61 H78 0.930 . S
C62 C60 1.395 . S
C62 C61 1.379 . S
C62 H79 0.930 . S
C63 O46 1.264 . S
C63 O47 1.254 1_455 S
C64 Eu0 2.848 . S
C64 O44 1.257 . S
C64 O49 1.249 1_556 S
C64 C57 1.492 . S
C65 H30 0.931 . S
C65 C43 1.420 . S
C65 C66 1.351 . S
C66 H28 0.930 1_556 S
C66 C34 1.423 1_556 S
C66 C65 1.351 . S
C67 O51 1.276 . S
C67 O54 1.235 . S
C68 C69 1.393 . S
C68 C72 1.395 . S
C68 C75 1.492 . S
C69 C68 1.393 . S
C69 C70 1.392 . S
C69 H80 0.930 1_554 S
C70 C69 1.392 . S
C70 C71 1.386 . S
C71 C70 1.386 . S
C71 C73 1.395 . S
C71 H81 0.930 . S
C72 C68 1.395 . S
C72 C73 1.379 . S
C72 H82 0.930 . S
C73 C71 1.395 . S
C73 C72 1.379 . S
C73 H83 0.930 . S
C74 O52 1.264 . S
C74 O53 1.257 1_655 S
C75 Eu11 2.848 . S
C75 O50 1.257 . S
C75 O55 1.249 1_554 S
C75 C68 1.492 . S
H76 C59 0.929 . S
H77 C60 0.930 . S
H78 C61 0.930 . S
H79 C62 0.930 . S
H80 C69 0.930 1_556 S
H81 C71 0.930 . S
H82 C72 0.930 . S
H83 C73 0.930 . S
Eu84 N115 2.657 1_545 S
Eu84 N122 2.609 1_545 S
Eu84 O128 2.558 . S
Eu84 O129 2.612 1_554 S
Eu84 O131 2.339 1_554 S
Eu84 O132 2.563 . S
Eu84 O133 2.419 . S
Eu84 O135 2.380 1_545 S
Eu84 O136 2.432 . S
Eu84 C148 2.848 . S
C85 C88 1.429 . S
C85 C89 1.411 . S
C85 N92 1.377 . S
C86 C88 1.420 . S
C86 C90 1.423 . S
C86 C98 1.392 1_556 S
C87 C89 1.420 . S
C87 C90 1.351 . S
C87 H110 0.931 . S
C88 C85 1.429 . S
C88 C86 1.420 . S
C88 N96 1.362 . S
C89 C85 1.411 . S
C89 C87 1.420 . S
C89 C94 1.395 . S
C90 C86 1.423 . S
C90 C87 1.351 . S
C90 H102 0.930 . S
C91 C93 1.400 1_545 S
C91 C94 1.386 . S
C91 H103 0.930 1_545 S
N92 C85 1.377 . S
N92 C93 1.321 1_545 S
N92 Eu95 2.609 1_545 S
C93 C91 1.400 1_565 S
C93 N92 1.321 1_565 S
C93 H100 0.930 . S
C94 C89 1.395 . S
C94 C91 1.386 . S
C94 H113 0.930 . S
Eu95 N92 2.609 1_565 S
Eu95 N96 2.657 1_565 S
Eu95 O129 2.380 1_565 S
Eu95 O130 2.432 . S
Eu95 O134 2.558 . S
Eu95 O135 2.612 1_556 S
Eu95 O137 2.339 1_556 S
Eu95 O138 2.563 . S
Eu95 O139 2.419 . S
Eu95 C159 2.848 . S
N96 C88 1.362 . S
N96 Eu95 2.657 1_545 S
N96 C97 1.334 1_556 S
C97 N96 1.334 1_554 S
C97 C99 1.413 . S
C97 H104 0.929 . S
C98 C86 1.392 1_554 S
C98 C99 1.367 . S
C98 H106 0.930 . S
C99 C97 1.413 . S
C99 C98 1.367 . S
C99 H101 0.930 . S
H100 C93 0.930 . S
H101 C99 0.930 . S
H102 C90 0.930 . S
H103 C91 0.930 1_565 S
H104 C97 0.929 . S
H105 C119 0.930 . S
H106 C98 0.930 . S
H107 C125 0.930 . S
H108 C116 0.929 . S
H109 C123 0.930 1_545 S
H110 C87 0.931 . S
H111 C117 0.930 . S
H112 C150 0.930 . S
H113 C94 0.930 . S
H114 C149 0.931 . S
N115 Eu84 2.657 1_565 S
N115 C116 1.334 1_554 S
N115 C120 1.362 . S
C116 H108 0.929 . S
C116 N115 1.334 1_556 S
C116 C119 1.413 . S
C117 H111 0.930 . S
C117 C118 1.392 1_556 S
C117 C119 1.367 . S
C118 C117 1.392 1_554 S
C118 C120 1.420 . S
C118 C150 1.423 . S
C119 H105 0.930 . S
C119 C116 1.413 . S
C119 C117 1.367 . S
C120 N115 1.362 . S
C120 C118 1.420 . S
C120 C124 1.429 . S
H121 C126 0.930 . S
N122 Eu84 2.609 1_565 S
N122 C124 1.377 . S
N122 C125 1.321 1_565 S
C123 H109 0.930 1_565 S
C123 C125 1.400 1_565 S
C123 C126 1.386 . S
C124 C120 1.429 . S
C124 N122 1.377 . S
C124 C127 1.411 . S
C125 H107 0.930 . S
C125 N122 1.321 1_545 S
C125 C123 1.400 1_545 S
C126 H121 0.930 . S
C126 C123 1.386 . S
C126 C127 1.395 . S
C127 C124 1.411 . S
C127 C126 1.395 . S
C127 C149 1.420 . S
O128 Eu84 2.558 . S
O128 C148 1.257 . S
O129 Eu84 2.612 1_556 S
O129 Eu95 2.380 1_545 S
O129 C140 1.276 . S
O130 Eu95 2.432 . S
O130 C147 1.264 1_565 S
O131 Eu84 2.339 1_556 S
O131 C147 1.254 . S
O132 Eu84 2.563 . S
O132 C140 1.235 1_554 S
O133 Eu84 2.419 . S
O133 C148 1.249 . S
O134 Eu95 2.558 . S
O134 C159 1.257 . S
O135 Eu84 2.380 1_565 S
O135 Eu95 2.612 1_554 S
O135 C151 1.276 . S
O136 Eu84 2.432 . S
O136 C158 1.268 . S
O137 Eu95 2.339 1_554 S
O137 C158 1.254 1_565 S
O138 Eu95 2.563 . S
O138 C151 1.235 1_556 S
O139 Eu95 2.419 . S
O139 C159 1.249 . S
C140 O129 1.276 . S
C140 O132 1.235 1_556 S
C141 C143 1.393 . S
C141 C145 1.395 . S
C141 C148 1.492 . S
C142 C143 1.392 . S
C142 C144 1.386 . S
C143 C141 1.393 . S
C143 C142 1.392 . S
C143 H160 0.930 1_554 S
C144 C142 1.386 . S
C144 C146 1.395 . S
C144 H161 0.930 . S
C145 C141 1.395 . S
C145 C146 1.379 . S
C145 H162 0.930 . S
C146 C144 1.395 . S
C146 C145 1.379 . S
C146 H163 0.930 . S
C147 O130 1.264 1_545 S
C147 O131 1.254 . S
C148 Eu84 2.848 . S
C148 O128 1.257 . S
C148 O133 1.249 . S
C148 C141 1.492 . S
C149 H114 0.931 . S
C149 C127 1.420 . S
C149 C150 1.351 . S
C150 H112 0.930 . S
C150 C118 1.423 . S
C150 C149 1.351 . S
C151 O135 1.276 . S
C151 O138 1.235 1_554 S
C152 C153 1.393 . S
C152 C156 1.395 . S
C152 C159 1.492 . S
C153 C152 1.393 . S
C153 C154 1.392 . S
C153 H164 0.930 1_556 S
C154 C153 1.392 . S
C154 C155 1.386 . S
C155 C154 1.386 . S
C155 C157 1.395 . S
C155 H165 0.930 . S
C156 C152 1.395 . S
C156 C157 1.379 . S
C156 H166 0.930 . S
C157 C155 1.395 . S
C157 C156 1.379 . S
C157 H167 0.930 . S
C158 O136 1.268 . S
C158 O137 1.254 1_545 S
C159 Eu95 2.848 . S
C159 O134 1.257 . S
C159 O139 1.249 . S
C159 C152 1.492 . S
H160 C143 0.930 1_556 S
H161 C144 0.930 . S
H162 C145 0.930 . S
H163 C146 0.930 . S
H164 C153 0.930 1_554 S
H165 C155 0.930 . S
H166 C156 0.930 . S
H167 C157 0.930 . S
Eu168 N199 2.657 . S
Eu168 N206 2.609 . S
Eu168 O212 2.558 . S
Eu168 O213 2.612 1_556 S
Eu168 O215 2.339 1_556 S
Eu168 O216 2.563 . S
Eu168 O217 2.419 . S
Eu168 O219 2.380 . S
Eu168 O220 2.432 . S
Eu168 C232 2.848 . S
C169 C172 1.429 . S
C169 C173 1.411 . S
C169 N176 1.377 . S
C170 C172 1.420 . S
C170 C174 1.423 . S
C170 C182 1.392 1_554 S
C171 C173 1.420 . S
C171 C174 1.351 . S
C171 H194 0.931 . S
C172 C169 1.429 . S
C172 C170 1.420 . S
C172 N180 1.362 . S
C173 C169 1.411 . S
C173 C171 1.420 . S
C173 C178 1.395 . S
C174 C170 1.423 . S
C174 C171 1.351 . S
C174 H186 0.930 . S
C175 C177 1.400 . S
C175 C178 1.386 . S
C175 H187 0.930 . S
N176 C169 1.377 . S
N176 C177 1.321 . S
N176 Eu179 2.609 . S
C177 C175 1.400 . S
C177 N176 1.321 . S
C177 H184 0.930 . S
C178 C173 1.395 . S
C178 C175 1.386 . S
C178 H197 0.930 . S
Eu179 N176 2.609 . S
Eu179 N180 2.657 . S
Eu179 O213 2.380 . S
Eu179 O214 2.432 . S
Eu179 O218 2.558 . S
Eu179 O219 2.612 1_554 S
Eu179 O221 2.339 1_554 S
Eu179 O222 2.563 . S
Eu179 O223 2.419 . S
Eu179 C243 2.848 . S
N180 C172 1.362 . S
N180 Eu179 2.657 . S
N180 C181 1.334 1_554 S
C181 N180 1.334 1_556 S
C181 C183 1.413 . S
C181 H188 0.929 . S
C182 C170 1.392 1_556 S
C182 C183 1.367 . S
C182 H190 0.930 . S
C183 C181 1.413 . S
C183 C182 1.367 . S
C183 H185 0.930 . S
H184 C177 0.930 . S
H185 C183 0.930 . S
H186 C174 0.930 . S
H187 C175 0.930 . S
H188 C181 0.929 . S
H189 C203 0.930 . S
H190 C182 0.930 . S
H191 C209 0.930 . S
H192 C200 0.929 . S
H193 C207 0.930 . S
H194 C171 0.931 . S
H195 C201 0.930 . S
H196 C234 0.930 . S
H197 C178 0.930 . S
H198 C233 0.931 . S
N199 Eu168 2.657 . S
N199 C200 1.334 1_556 S
N199 C204 1.362 . S
C200 H192 0.929 . S
C200 N199 1.334 1_554 S
C200 C203 1.413 . S
C201 H195 0.930 . S
C201 C202 1.392 1_554 S
C201 C203 1.367 . S
C202 C201 1.392 1_556 S
C202 C204 1.420 . S
C202 C234 1.423 . S
C203 H189 0.930 . S
C203 C200 1.413 . S
C203 C201 1.367 . S
C204 N199 1.362 . S
C204 C202 1.420 . S
C204 C208 1.429 . S
H205 C210 0.930 . S
N206 Eu168 2.609 . S
N206 C208 1.377 . S
N206 C209 1.321 . S
C207 H193 0.930 . S
C207 C209 1.400 . S
C207 C210 1.386 . S
C208 C204 1.429 . S
C208 N206 1.377 . S
C208 C211 1.411 . S
C209 H191 0.930 . S
C209 N206 1.321 . S
C209 C207 1.400 . S
C210 H205 0.930 . S
C210 C207 1.386 . S
C210 C211 1.395 . S
C211 C208 1.411 . S
C211 C210 1.395 . S
C211 C233 1.420 . S
O212 Eu168 2.558 . S
O212 C232 1.257 . S
O213 Eu168 2.612 1_554 S
O213 Eu179 2.380 . S
O213 C224 1.276 . S
O214 Eu179 2.432 . S
O214 C231 1.264 . S
O215 Eu168 2.339 1_554 S
O215 C231 1.254 . S
O216 Eu168 2.563 . S
O216 C224 1.235 1_556 S
O217 Eu168 2.419 . S
O217 C232 1.249 . S
O218 Eu179 2.558 . S
O218 C243 1.257 . S
O219 Eu168 2.380 . S
O219 Eu179 2.612 1_556 S
O219 C235 1.276 . S
O220 Eu168 2.432 . S
O220 C242 1.264 . S
O221 Eu179 2.339 1_556 S
O221 C242 1.254 . S
O222 Eu179 2.563 . S
O222 C235 1.235 1_554 S
O223 Eu179 2.419 . S
O223 C243 1.249 . S
C224 O213 1.276 . S
C224 O216 1.235 1_554 S
C225 C227 1.393 . S
C225 C229 1.395 . S
C225 C232 1.492 . S
C226 C227 1.392 . S
C226 C228 1.386 . S
C227 C225 1.393 . S
C227 C226 1.392 . S
C227 H244 0.930 1_556 S
C228 C226 1.386 . S
C228 C230 1.395 . S
C228 H245 0.930 . S
C229 C225 1.395 . S
C229 C230 1.379 . S
C229 H246 0.930 . S
C230 C228 1.395 . S
C230 C229 1.379 . S
C230 H247 0.930 . S
C231 O214 1.264 . S
C231 O215 1.254 . S
C232 Eu168 2.848 . S
C232 O212 1.257 . S
C232 O217 1.249 . S
C232 C225 1.492 . S
C233 H198 0.931 . S
C233 C211 1.420 . S
C233 C234 1.351 . S
C234 H196 0.930 . S
C234 C202 1.423 . S
C234 C233 1.351 . S
C235 O219 1.276 . S
C235 O222 1.235 1_556 S
C236 C237 1.393 . S
C236 C240 1.395 . S
C236 C243 1.492 . S
C237 C236 1.393 . S
C237 C238 1.392 . S
C237 H248 0.930 1_554 S
C238 C237 1.392 . S
C238 C239 1.386 . S
C239 C238 1.386 . S
C239 C241 1.395 . S
C239 H249 0.930 . S
C240 C236 1.395 . S
C240 C241 1.379 . S
C240 H250 0.930 . S
C241 C239 1.395 . S
C241 C240 1.379 . S
C241 H251 0.930 . S
C242 O220 1.264 . S
C242 O221 1.254 . S
C243 Eu179 2.848 . S
C243 O218 1.257 . S
C243 O223 1.249 . S
C243 C236 1.492 . S
H244 C227 0.930 1_554 S
H245 C228 0.930 . S
H246 C229 0.930 . S
H247 C230 0.930 . S
H248 C237 0.930 1_556 S
H249 C239 0.930 . S
H250 C240 0.930 . S
H251 C241 0.930 . S
H252 C258 0.930 . S
H253 C262 0.930 . S
H254 C267 0.929 . S
H255 C265 0.929 . S
H256 C260 0.929 . S
H257 C266 0.929 . S
C258 H252 0.930 . S
C258 C259 1.367 . S
C258 C266 1.378 . S
C259 C258 1.367 . S
C259 C267 1.433 1_655 S
C260 H256 0.929 . S
C260 C262 1.378 . S
C260 C264 1.350 . S
C261 C264 1.452 1_655 S
C261 C266 1.360 . S
C261 N269 1.428 1_655 S
C262 H253 0.930 . S
C262 C260 1.378 . S
C262 C263 1.367 . S
C263 C262 1.367 . S
C263 C265 1.433 1_455 S
C264 C260 1.350 . S
C264 C261 1.452 1_455 S
C264 N268 1.427 1_455 S
C265 H255 0.929 . S
C265 C263 1.433 1_655 S
C265 N268 1.384 . S
C266 H257 0.929 . S
C266 C258 1.378 . S
C266 C261 1.360 . S
C267 H254 0.929 . S
C267 C259 1.433 1_455 S
C267 N269 1.384 . S
N268 C264 1.427 1_655 S
N268 C265 1.384 . S
N269 C261 1.428 1_455 S
N269 C267 1.384 . S
H270 C276 0.930 . S
H271 C280 0.930 . S
H272 C285 0.929 . S
H273 C283 0.929 . S
H274 C278 0.929 . S
H275 C284 0.929 . S
C276 H270 0.930 . S
C276 C277 1.367 . S
C276 C284 1.378 . S
C277 C276 1.367 . S
C277 C285 1.433 1_565 S
C278 H274 0.929 . S
C278 C280 1.378 . S
C278 C282 1.350 . S
C279 C282 1.463 1_565 S
C279 C284 1.350 . S
C279 N287 1.427 1_565 S
C280 H271 0.930 . S
C280 C278 1.378 . S
C280 C281 1.367 . S
C281 C280 1.367 . S
C281 C283 1.433 1_545 S
C282 C278 1.350 . S
C282 C279 1.463 1_545 S
C282 N286 1.427 1_545 S
C283 H273 0.929 . S
C283 C281 1.433 1_565 S
C283 N286 1.384 . S
C284 H275 0.929 . S
C284 C276 1.378 . S
C284 C279 1.350 . S
C285 H272 0.929 . S
C285 C277 1.433 1_545 S
C285 N287 1.384 . S
N286 C282 1.427 1_565 S
N286 C283 1.384 . S
N287 C279 1.427 1_545 S
N287 C285 1.384 . S
H288 C294 0.930 . S
H289 C298 0.930 . S
H290 C303 0.929 . S
H291 C301 0.929 . S
H292 C296 0.929 . S
H293 C302 0.929 . S
C294 H288 0.930 . S
C294 C295 1.367 . S
C294 C302 1.378 . S
C295 C294 1.367 . S
C295 C303 1.433 . S
C296 H292 0.929 . S
C296 C298 1.378 . S
C296 C300 1.350 . S
C297 C300 1.463 . S
C297 C302 1.350 . S
C297 N305 1.427 . S
C298 H289 0.930 . S
C298 C296 1.378 . S
C298 C299 1.367 . S
C299 C298 1.367 . S
C299 C301 1.433 . S
C300 C296 1.350 . S
C300 C297 1.463 . S
C300 N304 1.427 . S
C301 H291 0.929 . S
C301 C299 1.433 . S
C301 N304 1.384 . S
C302 H293 0.929 . S
C302 C294 1.378 . S
C302 C297 1.350 . S
C303 H290 0.929 . S
C303 C295 1.433 . S
C303 N305 1.384 . S
N304 C300 1.427 . S
N304 C301 1.384 . S
N305 C297 1.427 . S
N305 C303 1.384 . S
H306 C312 0.930 . S
H307 C316 0.930 . S
H308 C321 0.929 . S
H309 C319 0.929 . S
H310 C314 0.929 . S
H311 C320 0.929 . S
C312 H306 0.930 . S
C312 C313 1.367 1_556 S
C312 C320 1.378 . S
C313 C312 1.367 1_554 S
C313 C321 1.433 . S
C314 H310 0.929 . S
C314 C316 1.378 . S
C314 C318 1.350 . S
C315 C318 1.463 . S
C315 C320 1.350 1_554 S
C315 N323 1.427 . S
C316 H307 0.930 . S
C316 C314 1.378 . S
C316 C317 1.367 . S
C317 C316 1.367 . S
C317 C319 1.433 1_554 S
C318 C314 1.350 . S
C318 C315 1.463 . S
C318 N322 1.427 1_554 S
C319 H309 0.929 . S
C319 C317 1.433 1_556 S
C319 N322 1.384 . S
C320 H311 0.929 . S
C320 C312 1.378 . S
C320 C315 1.350 1_556 S
C321 H308 0.929 . S
C321 C313 1.433 . S
C321 N323 1.384 . S
N322 C318 1.427 1_556 S
N322 C319 1.384 . S
N323 C315 1.427 . S
N323 C321 1.384 . S
H324 C330 0.930 . S
H325 C334 0.930 . S
H326 C339 0.929 . S
H327 C337 0.929 . S
H328 C332 0.929 . S
H329 C338 0.929 . S
C330 H324 0.930 . S
C330 C331 1.367 1_556 S
C330 C338 1.378 . S
C331 C330 1.367 1_554 S
C331 C339 1.433 . S
C332 H328 0.929 . S
C332 C334 1.378 . S
C332 C336 1.350 . S
C333 C336 1.463 . S
C333 C338 1.350 1_554 S
C333 N341 1.427 . S
C334 H325 0.930 . S
C334 C332 1.378 . S
C334 C335 1.367 . S
C335 C334 1.367 . S
C335 C337 1.433 1_554 S
C336 C332 1.350 . S
C336 C333 1.463 . S
C336 N340 1.427 1_554 S
C337 H327 0.929 . S
C337 C335 1.433 1_556 S
C337 N340 1.384 . S
C338 H329 0.929 . S
C338 C330 1.378 . S
C338 C333 1.350 1_556 S
C339 H326 0.929 . S
C339 C331 1.433 . S
C339 N341 1.384 . S
N340 C336 1.427 1_556 S
N340 C337 1.384 . S
N341 C333 1.427 . S
N341 C339 1.384 . S
H342 C348 0.930 . S
H343 C352 0.930 . S
H344 C357 0.929 . S
H345 C355 0.929 . S
H346 C350 0.929 . S
H347 C356 0.929 . S
C348 H342 0.930 . S
C348 C349 1.367 1_556 S
C348 C356 1.378 . S
C349 C348 1.367 1_554 S
C349 C357 1.433 . S
C350 H346 0.929 . S
C350 C352 1.378 . S
C350 C354 1.350 . S
C351 C354 1.463 . S
C351 C356 1.350 1_554 S
C351 N359 1.427 . S
C352 H343 0.930 . S
C352 C350 1.378 . S
C352 C353 1.367 . S
C353 C352 1.367 . S
C353 C355 1.433 1_554 S
C354 C350 1.350 . S
C354 C351 1.463 . S
C354 N358 1.427 1_554 S
C355 H345 0.929 . S
C355 C353 1.433 1_556 S
C355 N358 1.384 . S
C356 H347 0.929 . S
C356 C348 1.378 . S
C356 C351 1.350 1_556 S
C357 H344 0.929 . S
C357 C349 1.433 . S
C357 N359 1.384 . S
N358 C354 1.427 1_556 S
N358 C355 1.384 . S
N359 C351 1.427 . S
N359 C357 1.384 . S
H360 C366 0.930 . S
H361 C370 0.930 . S
H362 C375 0.929 . S
H363 C373 0.929 . S
H364 C368 0.929 . S
H365 C374 0.929 . S
C366 H360 0.930 . S
C366 C367 1.367 . S
C366 C374 1.378 . S
C367 C366 1.367 . S
C367 C375 1.433 1_556 S
C368 H364 0.929 . S
C368 C370 1.378 . S
C368 C372 1.350 1_554 S
C369 C372 1.463 . S
C369 C374 1.350 . S
C369 N377 1.427 1_556 S
C370 H361 0.930 . S
C370 C368 1.378 . S
C370 C371 1.367 . S
C371 C370 1.367 . S
C371 C373 1.433 1_554 S
C372 C368 1.350 1_556 S
C372 C369 1.463 . S
C372 N376 1.427 . S
C373 H363 0.929 . S
C373 C371 1.433 1_556 S
C373 N376 1.384 . S
C374 H365 0.929 . S
C374 C366 1.378 . S
C374 C369 1.350 . S
C375 H362 0.929 . S
C375 C367 1.433 1_554 S
C375 N377 1.384 . S
N376 C372 1.427 . S
N376 C373 1.384 . S
N377 C369 1.427 1_554 S
N377 C375 1.384 . S
H378 C384 0.930 . S
H379 C388 0.930 . S
H380 C393 0.929 . S
H381 C391 0.929 . S
H382 C386 0.929 . S
H383 C392 0.929 . S
C384 H378 0.930 . S
C384 C385 1.367 . S
C384 C392 1.378 . S
C385 C384 1.367 . S
C385 C393 1.433 1_556 S
C386 H382 0.929 . S
C386 C388 1.378 . S
C386 C390 1.350 1_554 S
C387 C390 1.463 . S
C387 C392 1.350 . S
C387 N395 1.427 1_556 S
C388 H379 0.930 . S
C388 C386 1.378 . S
C388 C389 1.367 1_554 S
C389 C388 1.367 1_556 S
C389 C391 1.433 . S
C390 C386 1.350 1_556 S
C390 C387 1.463 . S
C390 N394 1.427 . S
C391 H381 0.929 . S
C391 C389 1.433 . S
C391 N394 1.384 . S
C392 H383 0.929 . S
C392 C384 1.378 . S
C392 C387 1.350 . S
C393 H380 0.929 . S
C393 C385 1.433 1_554 S
C393 N395 1.384 . S
N394 C390 1.427 . S
N394 C391 1.384 . S
N395 C387 1.427 1_554 S
N395 C393 1.384 . S
H396 C402 0.930 . S
H397 C406 0.930 . S
H398 C411 0.929 . S
H399 C409 0.929 . S
H400 C404 0.929 . S
H401 C410 0.929 . S
C402 H396 0.930 . S
C402 C403 1.367 . S
C402 C410 1.378 . S
C403 C402 1.367 . S
C403 C411 1.433 1_556 S
C404 H400 0.929 . S
C404 C406 1.378 . S
C404 C408 1.350 1_554 S
C405 C408 1.463 . S
C405 C410 1.350 . S
C405 N413 1.427 1_556 S
C406 H397 0.930 . S
C406 C404 1.378 . S
C406 C407 1.367 1_554 S
C407 C406 1.367 1_556 S
C407 C409 1.433 . S
C408 C404 1.350 1_556 S
C408 C405 1.463 . S
C408 N412 1.427 . S
C409 H399 0.929 . S
C409 C407 1.433 . S
C409 N412 1.384 . S
C410 H401 0.929 . S
C410 C402 1.378 . S
C410 C405 1.350 . S
C411 H398 0.929 . S
C411 C403 1.433 1_554 S
C411 N413 1.384 . S
N412 C408 1.427 . S
N412 C409 1.384 . S
N413 C405 1.427 1_554 S
N413 C411 1.384 . S
C259 C74 1.486 . S
C263 C63 1.486 . S
C277 C158 1.479 1_565 S
C281 C147 1.482 . S
C295 C242 1.494 . S
C299 C231 1.494 . S
C313 C67 1.575 . S
C317 C226 1.499 1_554 S
C331 C142 0.809 . S
C335 C58 0.811 1_554 S
C349 C151 2.314 . S
C353 C224 2.380 . S
C367 C56 1.588 . S
C371 C238 1.497 . S
C385 C70 0.796 1_556 S
C389 C154 0.807 . S
C403 C235 2.377 . S
C407 C140 2.319 . S
