# Generated by pormake.
# Topology whz, (6)-cn, num edge types: 1
# Building blocks:
#     Node 0, Type 0, BuildingBlock: VOLQOD_clean_sbu_1, # of connection points: 6
#     Node 1, Type 0, BuildingBlock: VOLQOD_clean_sbu_1, # of connection points: 6
#     Node 2, Type 0, BuildingBlock: VOLQOD_clean_sbu_1, # of connection points: 6
#     Node 3, Type 0, BuildingBlock: VOLQOD_clean_sbu_1, # of connection points: 6
#     Node 4, Type 0, BuildingBlock: VOLQOD_clean_sbu_1, # of connection points: 6
#     Node 5, Type 0, BuildingBlock: VOLQOD_clean_sbu_1, # of connection points: 6
#     Node 6, Type 0, BuildingBlock: VOLQOD_clean_sbu_1, # of connection points: 6
#     Node 7, Type 0, BuildingBlock: VOLQOD_clean_sbu_1, # of connection points: 6
#     Node 8, Type 0, BuildingBlock: VOLQOD_clean_sbu_1, # of connection points: 6
#     Node 9, Type 0, BuildingBlock: VOLQOD_clean_sbu_1, # of connection points: 6
#     Node 10, Type 0, BuildingBlock: VOLQOD_clean_sbu_1, # of connection points: 6
#     Node 11, Type 0, BuildingBlock: VOLQOD_clean_sbu_1, # of connection points: 6
#     Node 12, Type 0, BuildingBlock: VOLQOD_clean_sbu_1, # of connection points: 6
#     Node 13, Type 0, BuildingBlock: VOLQOD_clean_sbu_1, # of connection points: 6
#     Node 14, Type 0, BuildingBlock: VOLQOD_clean_sbu_1, # of connection points: 6
#     Node 15, Type 0, BuildingBlock: VOLQOD_clean_sbu_1, # of connection points: 6
#     Edge 16, Type (0, 0), BuildingBlock: EZIPEK_clean_linker_0, # of connection points: 2
#     Edge 17, Type (0, 0), BuildingBlock: EZIPEK_clean_linker_0, # of connection points: 2
#     Edge 18, Type (0, 0), BuildingBlock: EZIPEK_clean_linker_0, # of connection points: 2
#     Edge 19, Type (0, 0), BuildingBlock: EZIPEK_clean_linker_0, # of connection points: 2
#     Edge 20, Type (0, 0), BuildingBlock: EZIPEK_clean_linker_0, # of connection points: 2
#     Edge 21, Type (0, 0), BuildingBlock: EZIPEK_clean_linker_0, # of connection points: 2
#     Edge 22, Type (0, 0), BuildingBlock: EZIPEK_clean_linker_0, # of connection points: 2
#     Edge 23, Type (0, 0), BuildingBlock: EZIPEK_clean_linker_0, # of connection points: 2
#     Edge 24, Type (0, 0), BuildingBlock: EZIPEK_clean_linker_0, # of connection points: 2
#     Edge 25, Type (0, 0), BuildingBlock: EZIPEK_clean_linker_0, # of connection points: 2
#     Edge 26, Type (0, 0), BuildingBlock: EZIPEK_clean_linker_0, # of connection points: 2
#     Edge 27, Type (0, 0), BuildingBlock: EZIPEK_clean_linker_0, # of connection points: 2
#     Edge 28, Type (0, 0), BuildingBlock: EZIPEK_clean_linker_0, # of connection points: 2
#     Edge 29, Type (0, 0), BuildingBlock: EZIPEK_clean_linker_0, # of connection points: 2
#     Edge 30, Type (0, 0), BuildingBlock: EZIPEK_clean_linker_0, # of connection points: 2
#     Edge 31, Type (0, 0), BuildingBlock: EZIPEK_clean_linker_0, # of connection points: 2
#     Edge 32, Type (0, 0), BuildingBlock: EZIPEK_clean_linker_0, # of connection points: 2
#     Edge 33, Type (0, 0), BuildingBlock: EZIPEK_clean_linker_0, # of connection points: 2
#     Edge 34, Type (0, 0), BuildingBlock: EZIPEK_clean_linker_0, # of connection points: 2
#     Edge 35, Type (0, 0), BuildingBlock: EZIPEK_clean_linker_0, # of connection points: 2
#     Edge 36, Type (0, 0), BuildingBlock: EZIPEK_clean_linker_0, # of connection points: 2
#     Edge 37, Type (0, 0), BuildingBlock: EZIPEK_clean_linker_0, # of connection points: 2
#     Edge 38, Type (0, 0), BuildingBlock: EZIPEK_clean_linker_0, # of connection points: 2
#     Edge 39, Type (0, 0), BuildingBlock: EZIPEK_clean_linker_0, # of connection points: 2
#     Edge 40, Type (0, 0), BuildingBlock: EZIPEK_clean_linker_0, # of connection points: 2
#     Edge 41, Type (0, 0), BuildingBlock: EZIPEK_clean_linker_0, # of connection points: 2
#     Edge 42, Type (0, 0), BuildingBlock: EZIPEK_clean_linker_0, # of connection points: 2
#     Edge 43, Type (0, 0), BuildingBlock: EZIPEK_clean_linker_0, # of connection points: 2
#     Edge 44, Type (0, 0), BuildingBlock: EZIPEK_clean_linker_0, # of connection points: 2
#     Edge 45, Type (0, 0), BuildingBlock: EZIPEK_clean_linker_0, # of connection points: 2
#     Edge 46, Type (0, 0), BuildingBlock: EZIPEK_clean_linker_0, # of connection points: 2
#     Edge 47, Type (0, 0), BuildingBlock: EZIPEK_clean_linker_0, # of connection points: 2
#     Edge 48, Type (0, 0), BuildingBlock: EZIPEK_clean_linker_0, # of connection points: 2
#     Edge 49, Type (0, 0), BuildingBlock: EZIPEK_clean_linker_0, # of connection points: 2
#     Edge 50, Type (0, 0), BuildingBlock: EZIPEK_clean_linker_0, # of connection points: 2
#     Edge 51, Type (0, 0), BuildingBlock: EZIPEK_clean_linker_0, # of connection points: 2
#     Edge 52, Type (0, 0), BuildingBlock: EZIPEK_clean_linker_0, # of connection points: 2
#     Edge 53, Type (0, 0), BuildingBlock: EZIPEK_clean_linker_0, # of connection points: 2
#     Edge 54, Type (0, 0), BuildingBlock: EZIPEK_clean_linker_0, # of connection points: 2
#     Edge 55, Type (0, 0), BuildingBlock: EZIPEK_clean_linker_0, # of connection points: 2
#     Edge 56, Type (0, 0), BuildingBlock: EZIPEK_clean_linker_0, # of connection points: 2
#     Edge 57, Type (0, 0), BuildingBlock: EZIPEK_clean_linker_0, # of connection points: 2
#     Edge 58, Type (0, 0), BuildingBlock: EZIPEK_clean_linker_0, # of connection points: 2
#     Edge 59, Type (0, 0), BuildingBlock: EZIPEK_clean_linker_0, # of connection points: 2
#     Edge 60, Type (0, 0), BuildingBlock: EZIPEK_clean_linker_0, # of connection points: 2
#     Edge 61, Type (0, 0), BuildingBlock: EZIPEK_clean_linker_0, # of connection points: 2
#     Edge 62, Type (0, 0), BuildingBlock: EZIPEK_clean_linker_0, # of connection points: 2
#     Edge 63, Type (0, 0), BuildingBlock: EZIPEK_clean_linker_0, # of connection points: 2
# Relax obj value: 0.426
# Max RMSD: 0.199
# Mean RMSD: 0.199
data_MOF--net-whz--node1-VOLQOD_clean_sbu_1--edge1-EZIPEK_clean_linker_0
_symmetry_space_group_name_H-M    P1
_symmetry_Int_Tables_number       1
_symmetry_cell_setting            triclinic
loop_
_symmetry_equiv_pos_as_xyz
'x, y, z'
_cell_length_a     28.400284
_cell_length_b     28.31714
_cell_length_c     41.13017
_cell_angle_alpha  90.034849
_cell_angle_beta   89.949144
_cell_angle_gamma 90.184401
loop_
_atom_site_label
_atom_site_type_symbol
_atom_site_fract_x
_atom_site_fract_y
_atom_site_fract_z
_atom_type_partial_charge
O0 O 0.22277 0.20665 0.16044 0.0
Zn1 Zn 0.2259 0.16423 0.12293 0.0
O2 O 0.28678 0.13914 0.11582 0.0
Zn3 Zn 0.27924 0.07379 0.10226 0.0
Zn4 Zn 0.32199 0.14785 0.15498 0.0
Zn5 Zn 0.30953 0.18005 0.08223 0.0
O6 O 0.29364 0.0704 0.05283 0.0
O7 O 0.3038 0.14577 0.03928 0.0
O8 O 0.18256 0.11396 0.13398 0.0
O9 O 0.21078 0.05273 0.10727 0.0
O10 O 0.31452 0.03119 0.13573 0.0
O11 O 0.33466 0.08427 0.17365 0.0
O12 O 0.38187 0.18262 0.14478 0.0
O13 O 0.20381 0.20154 0.08517 0.0
O14 O 0.37546 0.20064 0.09211 0.0
O15 O 0.27045 0.2396 0.08397 0.0
C16 C 0.24795 0.20901 0.18567 0.0
C17 C 0.29993 0.10238 0.03105 0.0
C18 C 0.33085 0.04168 0.164 0.0
C19 C 0.1784 0.07187 0.12409 0.0
C20 C 0.39809 0.20118 0.11884 0.0
C21 C 0.2257 0.24041 0.08338 0.0
O22 O 0.2861 0.18593 0.18842 0.0
O23 O 0.51239 0.44972 0.40738 0.0
Zn24 Zn 0.55379 0.46057 0.36917 0.0
O25 O 0.58214 0.52231 0.37043 0.0
Zn26 Zn 0.64856 0.51654 0.36012 0.0
Zn27 Zn 0.57039 0.55196 0.41136 0.0
Zn28 Zn 0.54742 0.55545 0.33791 0.0
O29 O 0.65641 0.5335 0.31121 0.0
O30 O 0.5842 0.55462 0.29648 0.0
O31 O 0.60124 0.41069 0.37342 0.0
O32 O 0.66955 0.44865 0.3692 0.0
O33 O 0.68734 0.55447 0.39343 0.0
O34 O 0.63285 0.56176 0.43234 0.0
O35 O 0.53851 0.61579 0.40549 0.0
O36 O 0.51435 0.45203 0.3299 0.0
O37 O 0.53308 0.62148 0.35161 0.0
O38 O 0.48489 0.5227 0.33348 0.0
C39 C 0.50892 0.47126 0.43431 0.0
C40 C 0.62726 0.54737 0.28931 0.0
C41 C 0.67555 0.56386 0.42281 0.0
C42 C 0.64582 0.41109 0.3745 0.0
C43 C 0.52794 0.63888 0.37989 0.0
C44 C 0.47889 0.47896 0.32787 0.0
O45 O 0.53063 0.50985 0.43994 0.0
O46 O 0.24822 0.79996 0.67134 0.0
Zn47 Zn 0.24659 0.81782 0.62534 0.0
O48 O 0.18592 0.84267 0.61464 0.0
Zn49 Zn 0.19575 0.90855 0.60447 0.0
Zn50 Zn 0.14394 0.83398 0.65034 0.0
Zn51 Zn 0.16197 0.80687 0.57874 0.0
O52 O 0.20052 0.91369 0.55412 0.0
O53 O 0.17954 0.84095 0.53834 0.0
O54 O 0.30038 0.86172 0.61954 0.0
O55 O 0.25918 0.92782 0.62131 0.0
O56 O 0.15431 0.95134 0.63332 0.0
O57 O 0.13701 0.89722 0.67097 0.0
O58 O 0.08084 0.80838 0.63495 0.0
O59 O 0.25764 0.75677 0.6046 0.0
O60 O 0.09265 0.79712 0.58245 0.0
O61 O 0.19132 0.74195 0.578 0.0
C62 C 0.21627 0.78624 0.69064 0.0
C63 C 0.19541 0.88207 0.53194 0.0
C64 C 0.14083 0.94017 0.66211 0.0
C65 C 0.29796 0.906 0.62387 0.0
C66 C 0.06514 0.79743 0.60682 0.0
C67 C 0.23081 0.72865 0.58929 0.0
O68 O 0.17267 0.79175 0.68446 0.0
O69 O 0.92346 0.48958 0.94141 0.0
Zn70 Zn 0.90217 0.49708 0.89644 0.0
O71 O 0.879 0.43861 0.87826 0.0
Zn72 Zn 0.8135 0.44826 0.86516 0.0
Zn73 Zn 0.88473 0.39055 0.91107 0.0
Zn74 Zn 0.9188 0.41982 0.84258 0.0
O75 O 0.81122 0.44836 0.8144 0.0
O76 O 0.8838 0.42506 0.80119 0.0
O77 O 0.8558 0.54835 0.89773 0.0
O78 O 0.79142 0.51289 0.87939 0.0
O79 O 0.76925 0.40718 0.89361 0.0
O80 O 0.82154 0.38218 0.93021 0.0
O81 O 0.9145 0.33035 0.89529 0.0
O82 O 0.96059 0.51759 0.87553 0.0
O83 O 0.94467 0.35526 0.84848 0.0
O84 O 0.9765 0.46093 0.83998 0.0
C85 C 0.93563 0.4533 0.95717 0.0
C86 C 0.8431 0.43947 0.79304 0.0
C87 C 0.77923 0.38951 0.92149 0.0
C88 C 0.81212 0.54863 0.89158 0.0
C89 C 0.94026 0.32392 0.87034 0.0
C90 C -0.01204 0.49833 0.85517 0.0
O91 O 0.92646 0.41183 0.9473 0.0
O92 O 0.77464 0.79535 0.8486 0.0
Zn93 Zn 0.76367 0.81829 0.89334 0.0
O94 O 0.69981 0.84126 0.89759 0.0
Zn95 Zn 0.70356 0.90655 0.90987 0.0
Zn96 Zn 0.66563 0.83109 0.85846 0.0
Zn97 Zn 0.66876 0.80556 0.93054 0.0
O98 O 0.70442 0.90853 0.96058 0.0
O99 O 0.67795 0.83647 0.9732 0.0
O100 O 0.81279 0.86887 0.89755 0.0
O101 O 0.76562 0.93093 0.8939 0.0
O102 O 0.65886 0.94631 0.88159 0.0
O103 O 0.65222 0.89487 0.84049 0.0
O104 O 0.60519 0.7955 0.8667 0.0
O105 O 0.7734 0.75901 0.9189 0.0
O106 O 0.60138 0.7925 0.9207 0.0
O107 O 0.69873 0.74218 0.93059 0.0
C108 C 0.74744 0.78431 0.82545 0.0
C109 C 0.6947 0.87639 0.98164 0.0
C110 C 0.64884 0.93661 0.85189 0.0
C111 C 0.80624 0.91257 0.89189 0.0
C112 C 0.58354 0.78491 0.89283 0.0
C113 C 0.74117 0.72955 0.92635 0.0
O114 O 0.70375 0.79412 0.82616 0.0
O115 O 0.40598 0.45977 0.56009 0.0
Zn116 Zn 0.38923 0.48291 0.60378 0.0
O117 O 0.36668 0.43358 0.63142 0.0
Zn118 Zn 0.30496 0.45116 0.64723 0.0
Zn119 Zn 0.36425 0.37695 0.60544 0.0
Zn120 Zn 0.40793 0.42487 0.66771 0.0
O121 O 0.29986 0.43974 0.69631 0.0
O122 O 0.37584 0.44506 0.70914 0.0
O123 O 0.34225 0.53274 0.5976 0.0
O124 O 0.29342 0.52115 0.63894 0.0
O125 O 0.25573 0.41965 0.61856 0.0
O126 O 0.29896 0.3713 0.58791 0.0
O127 O 0.38673 0.3214 0.63139 0.0
O128 O 0.44869 0.51052 0.62112 0.0
O129 O 0.42422 0.3565 0.6719 0.0
O130 O 0.468 0.46118 0.661 0.0
C131 C 0.41397 0.41892 0.54887 0.0
C132 C 0.33254 0.44526 0.71741 0.0
C133 C 0.26004 0.39121 0.59462 0.0
C134 C 0.30816 0.54614 0.6152 0.0
C135 C 0.4117 0.31903 0.65712 0.0
C136 C 0.47779 0.49552 0.64218 0.0
O137 O 0.4045 0.38175 0.56497 0.0
O138 O 0.71546 0.1849 0.35021 0.0
Zn139 Zn 0.71855 0.14981 0.39147 0.0
O140 O 0.78283 0.13273 0.39984 0.0
Zn141 Zn 0.78579 0.06731 0.41253 0.0
Zn142 Zn 0.82159 0.14502 0.36327 0.0
Zn143 Zn 0.80022 0.1757 0.43324 0.0
O144 O 0.79097 0.06572 0.46265 0.0
O145 O 0.78608 0.14255 0.47549 0.0
O146 O 0.67834 0.09382 0.38479 0.0
O147 O 0.72526 0.03499 0.39938 0.0
O148 O 0.83095 0.03047 0.38277 0.0
O149 O 0.83371 0.08302 0.34233 0.0
O150 O 0.88158 0.17672 0.377 0.0
O151 O 0.69346 0.19554 0.4243 0.0
O152 O 0.86814 0.1956 0.42879 0.0
O153 O 0.76047 0.23395 0.42592 0.0
C154 C 0.74568 0.19851 0.32959 0.0
C155 C 0.78514 0.09895 0.48359 0.0
C156 C 0.83818 0.04096 0.35284 0.0
C157 C 0.68644 0.05006 0.38813 0.0
C158 C 0.89473 0.19505 0.4038 0.0
C159 C 0.71571 0.23446 0.42442 0.0
O160 O 0.78888 0.18728 0.33151 0.0
O161 O 0.06029 0.46855 0.08791 0.0
Zn162 Zn 0.07522 0.47104 0.13462 0.0
O163 O 0.10258 0.53074 0.14565 0.0
Zn164 Zn 0.16894 0.52039 0.15448 0.0
Zn165 Zn 0.09183 0.57279 0.10988 0.0
Zn166 Zn 0.0685 0.5556 0.18205 0.0
O167 O 0.17925 0.53178 0.20367 0.0
O168 O 0.10685 0.54649 0.22173 0.0
O169 O 0.11638 0.41655 0.14051 0.0
O170 O 0.18599 0.45217 0.14276 0.0
O171 O 0.20932 0.55883 0.12225 0.0
O172 O 0.15359 0.58017 0.08706 0.0
O173 O 0.06707 0.63648 0.1247 0.0
O174 O 0.01337 0.46163 0.15552 0.0
O175 O 0.05706 0.62445 0.17707 0.0
O176 O 0.00381 0.52629 0.18529 0.0
C177 C 0.04261 0.5007 0.07044 0.0
C178 C 0.1506 0.54036 0.2271 0.0
C179 C 0.19686 0.57484 0.09445 0.0
C180 C 0.16087 0.41519 0.13868 0.0
C181 C 0.0566 0.65214 0.15287 0.0
C182 C -0.01186 0.48792 0.17332 0.0
O183 O 0.04638 0.54418 0.07786 0.0
O184 O 0.74701 0.66352 0.70157 0.0
Zn185 Zn 0.72936 0.65347 0.65559 0.0
O186 O 0.78065 0.631 0.62894 0.0
Zn187 Zn 0.76535 0.56755 0.61386 0.0
Zn188 Zn 0.83447 0.6309 0.65694 0.0
Zn189 Zn 0.79381 0.67371 0.59369 0.0
O190 O 0.76827 0.5651 0.56384 0.0
O191 O 0.78004 0.64117 0.55176 0.0
O192 O 0.67223 0.61339 0.65333 0.0
O193 O 0.6973 0.55361 0.62308 0.0
O194 O 0.79908 0.51829 0.64223 0.0
O195 O 0.83869 0.56637 0.67542 0.0
O196 O 0.89335 0.65681 0.63604 0.0
O197 O 0.71165 0.71706 0.64149 0.0
O198 O 0.86054 0.69671 0.59538 0.0
O199 O 0.75377 0.73208 0.59712 0.0
C200 C 0.78659 0.67837 0.71155 0.0
C201 C 0.7705 0.59895 0.54318 0.0
C202 C 0.82292 0.52553 0.66818 0.0
C203 C 0.66506 0.57433 0.63905 0.0
C204 C 0.896 0.68655 0.61286 0.0
C205 C 0.72371 0.74425 0.61847 0.0
O206 O 0.82386 0.67353 0.6949 0.0
O207 O 0.05175 0.97778 0.93122 0.0
Zn208 Zn 0.06794 0.9772 0.88483 0.0
O209 O 0.09578 0.03664 0.87249 0.0
Zn210 Zn 0.15934 0.02553 0.85713 0.0
Zn211 Zn 0.09465 0.07936 0.90887 0.0
Zn212 Zn 0.05719 0.06263 0.83883 0.0
O213 O 0.15894 0.02522 0.8064 0.0
O214 O 0.08481 0.04628 0.79584 0.0
O215 O 0.11057 0.92264 0.88054 0.0
O216 O 0.17767 0.95994 0.86975 0.0
O217 O 0.2074 0.06319 0.88479 0.0
O218 O 0.16043 0.08359 0.92608 0.0
O219 O 0.07103 0.1437 0.89501 0.0
O220 O 0.00538 0.9666 0.86461 0.0
O221 O 0.0513 0.13202 0.84379 0.0
O222 O -0.00853 0.0361 0.84167 0.0
C223 C 0.04358 0.01068 0.95129 0.0
C224 C 0.12483 0.03148 0.78634 0.0
C225 C 0.20135 0.07819 0.91397 0.0
C226 C 0.15501 0.92289 0.87748 0.0
C227 C 0.05694 0.15981 0.86775 0.0
C228 C 0.97732 -0.00388 0.85186 0.0
O229 O 0.05401 0.05357 0.94523 0.0
O230 O 0.73463 0.30983 0.20199 0.0
Zn231 Zn 0.74797 0.32588 0.15624 0.0
O232 O 0.69236 0.35215 0.13591 0.0
Zn233 Zn 0.70811 0.41419 0.11809 0.0
Zn234 Zn 0.64248 0.35779 0.16781 0.0
Zn235 Zn 0.67165 0.30838 0.10284 0.0
O236 O 0.70818 0.40991 0.06754 0.0
O237 O 0.68463 0.3356 0.05906 0.0
O238 O 0.80284 0.36921 0.15647 0.0
O239 O 0.7737 0.43227 0.13197 0.0
O240 O 0.67184 0.46685 0.14199 0.0
O241 O 0.6386 0.42455 0.18156 0.0
O242 O 0.58084 0.33117 0.15203 0.0
O243 O 0.766 0.26391 0.13808 0.0
O244 O 0.60351 0.2936 0.10715 0.0
O245 O 0.70432 0.24548 0.10742 0.0
C246 C 0.69734 0.30769 0.21889 0.0
C247 C 0.69956 0.37511 0.04834 0.0
C248 C 0.65078 0.46399 0.16949 0.0
C249 C 0.80693 0.41163 0.14696 0.0
C250 C 0.57206 0.3048 0.12769 0.0
C251 C 0.7427 0.23439 0.12132 0.0
O252 O 0.65814 0.3229 0.20852 0.0
O253 O 0.45292 0.02026 0.41614 0.0
Zn254 Zn 0.43248 0.00798 0.37087 0.0
O255 O 0.40293 0.9464 0.36781 0.0
Zn256 Zn 0.3385 0.95604 0.35565 0.0
Zn257 Zn 0.40907 0.91322 0.40793 0.0
Zn258 Zn 0.43476 0.9108 0.33493 0.0
O259 O 0.33494 0.95411 0.30551 0.0
O260 O 0.40483 0.9244 0.29143 0.0
O261 O 0.38868 0.06186 0.36237 0.0
O262 O 0.32178 0.02185 0.36792 0.0
O263 O 0.29356 0.91835 0.38512 0.0
O264 O 0.34417 0.90585 0.42578 0.0
O265 O 0.43851 0.84898 0.40078 0.0
O266 O 0.49344 0.00946 0.34701 0.0
O267 O 0.43925 0.84188 0.34677 0.0
O268 O 0.50165 0.93311 0.3357 0.0
C269 C 0.45947 -0.00604 0.44061 0.0
C270 C 0.3656 0.94333 0.28379 0.0
C271 C 0.30228 0.90727 0.41473 0.0
C272 C 0.34452 0.0605 0.36756 0.0
C273 C 0.44548 0.82467 0.37511 0.0
C274 C 0.51909 0.97393 0.34047 0.0
O275 O 0.44674 0.95076 0.44069 0.0
O276 O 0.22749 0.31074 0.31432 0.0
Zn277 Zn 0.24292 0.32314 0.35991 0.0
O278 O 0.19029 0.34477 0.38452 0.0
Zn279 Zn 0.20761 0.40611 0.40251 0.0
Zn280 Zn 0.13785 0.34921 0.35452 0.0
Zn281 Zn 0.17455 0.30022 0.4183 0.0
O282 O 0.19027 0.40784 0.45074 0.0
O283 O 0.17889 0.33198 0.46188 0.0
O284 O 0.29494 0.36802 0.35927 0.0
O285 O 0.27776 0.42085 0.39722 0.0
O286 O 0.1797 0.45681 0.37358 0.0
O287 O 0.13554 0.41567 0.33876 0.0
O288 O 0.07775 0.32349 0.37379 0.0
O289 O 0.26516 0.26203 0.37598 0.0
O290 O 0.10765 0.27856 0.41314 0.0
O291 O 0.21564 0.24205 0.41564 0.0
C292 C 0.18882 0.30344 0.29995 0.0
C293 C 0.18127 0.3749 0.47118 0.0
C294 C 0.15482 0.45411 0.34781 0.0
C295 C 0.30553 0.40425 0.37574 0.0
C296 C 0.07313 0.29214 0.39582 0.0
C297 C 0.2506 0.23313 0.39724 0.0
O298 O 0.14946 0.31187 0.31346 0.0
O299 O 0.9239 -0.0074 0.0804 0.0
Zn300 Zn 0.90953 -0.00256 0.12707 0.0
O301 O 0.88837 0.93886 0.14586 0.0
Zn302 Zn 0.82424 0.94877 0.16137 0.0
Zn303 Zn 0.89297 0.89263 0.11194 0.0
Zn304 Zn 0.93034 0.91882 0.18002 0.0
O305 O 0.82476 0.94709 0.21187 0.0
O306 O 0.90019 0.93111 0.22264 0.0
O307 O 0.86552 0.0508 0.13102 0.0
O308 O 0.80252 0.015 0.15132 0.0
O309 O 0.77819 0.91043 0.13279 0.0
O310 O 0.82834 0.88598 0.09434 0.0
O311 O 0.92211 0.83136 0.1265 0.0
O312 O 0.97135 0.01339 0.14425 0.0
O313 O 0.95027 0.85149 0.17501 0.0
O314 O -0.00921 0.95549 0.17793 0.0
C315 C 0.9396 0.95728 0.06503 0.0
C316 C 0.85912 0.94292 0.23195 0.0
C317 C 0.78658 0.8936 0.1044 0.0
C318 C 0.8228 0.05142 0.13984 0.0
C319 C 0.94551 0.82177 0.15204 0.0
C320 C 0.00122 -0.00753 0.16199 0.0
O321 O 0.93474 0.91547 0.07568 0.0
O322 O 0.24317 0.6883 0.82405 0.0
Zn323 Zn 0.23319 0.66176 0.86726 0.0
O324 O 0.28908 0.63292 0.88424 0.0
Zn325 Zn 0.27076 0.57065 0.90049 0.0
Zn326 Zn 0.33549 0.63059 0.8498 0.0
Zn327 Zn 0.31285 0.67294 0.91828 0.0
O328 O 0.27786 0.56892 0.95042 0.0
O329 O 0.29926 0.64327 0.96136 0.0
O330 O 0.18111 0.61718 0.8611 0.0
O331 O 0.20106 0.55875 0.8938 0.0
O332 O 0.29932 0.51984 0.87017 0.0
O333 O 0.33848 0.56458 0.83448 0.0
O334 O 0.39771 0.6576 0.86355 0.0
O335 O 0.21231 0.71606 0.89351 0.0
O336 O 0.38132 0.68727 0.91243 0.0
O337 O 0.28066 0.73589 0.91589 0.0
C338 C 0.277 0.68823 0.8041 0.0
C339 C 0.28559 0.60254 0.97068 0.0
C340 C 0.32234 0.52476 0.84353 0.0
C341 C 0.17159 0.57846 0.87497 0.0
C342 C 0.40978 0.67998 0.88907 0.0
C343 C 0.23898 0.74606 0.90717 0.0
O344 O 0.31564 0.6676 0.8102 0.0
O345 O 0.55551 0.00777 0.5737 0.0
Zn346 Zn 0.56408 -0.00735 0.61993 0.0
O347 O 0.58783 0.04486 0.64528 0.0
Zn348 Zn 0.65011 0.02798 0.66154 0.0
Zn349 Zn 0.5891 0.09843 0.61603 0.0
Zn350 Zn 0.54584 0.05911 0.68074 0.0
O351 O 0.65181 0.03072 0.71181 0.0
O352 O 0.57612 0.04398 0.72306 0.0
O353 O 0.60462 0.93681 0.62068 0.0
O354 O 0.66335 0.95933 0.65257 0.0
O355 O 0.69991 0.06049 0.63268 0.0
O356 O 0.65512 0.10467 0.60013 0.0
O357 O 0.5602 0.15681 0.63571 0.0
O358 O 0.50023 0.97528 0.63472 0.0
O359 O 0.52554 0.12602 0.67941 0.0
O360 O 0.48555 0.02248 0.67675 0.0
C361 C 0.54534 0.04674 0.56048 0.0
C362 C 0.6176 0.03333 0.73213 0.0
C363 C 0.69483 0.08695 0.60766 0.0
C364 C 0.64306 0.92838 0.63506 0.0
C365 C 0.53348 0.16053 0.66048 0.0
C366 C 0.47307 -0.00948 0.65682 0.0
O367 O 0.55073 0.08575 0.57535 0.0
C368 C 0.23449 0.28381 0.21615 0.0
C369 C 0.22849 0.23428 0.21368 0.0
C370 C 0.18404 0.23242 0.26459 0.0
C371 C 0.19147 0.28169 0.26763 0.0
N372 N 0.2119 0.35629 0.24367 0.0
N373 N 0.18838 0.16293 0.23029 0.0
C374 C 0.21289 0.30807 0.24238 0.0
C375 C 0.20019 0.20903 0.23624 0.0
N376 N 0.26156 0.30725 0.19381 0.0
N377 N 0.16392 0.20768 0.28957 0.0
H378 H 0.20072 0.14411 0.21022 0.0
H379 H 0.16363 0.1442 0.24384 0.0
H380 H 0.14995 0.2239 0.31018 0.0
H381 H 0.16281 0.17098 0.29062 0.0
H382 H 0.27091 0.34268 0.19579 0.0
H383 H 0.27695 0.29048 0.17387 0.0
H384 H 0.22373 0.37822 0.22506 0.0
H385 H 0.19493 0.37438 0.26243 0.0
C386 C 0.48581 0.41142 0.51471 0.0
C387 C 0.43631 0.41637 0.51668 0.0
C388 C 0.43334 0.44929 0.46175 0.0
C389 C 0.48321 0.44804 0.46091 0.0
N390 N 0.55614 0.41629 0.48127 0.0
N391 N 0.36162 0.42701 0.49041 0.0
C392 C 0.50923 0.42515 0.48572 0.0
C393 C 0.40961 0.43082 0.4894 0.0
N394 N 0.51044 0.39609 0.5412 0.0
N395 N 0.40912 0.47001 0.43684 0.0
H396 H 0.34396 0.41314 0.51056 0.0
H397 H 0.33965 0.43369 0.47073 0.0
H398 H 0.4256 0.48298 0.41597 0.0
H399 H 0.37304 0.47619 0.43717 0.0
H400 H 0.54697 0.39728 0.54299 0.0
H401 H 0.49398 0.38377 0.56225 0.0
H402 H 0.57631 0.39601 0.49705 0.0
H403 H 0.57431 0.42606 0.46024 0.0
C404 C 0.26206 0.78331 0.74205 0.0
C405 C 0.23144 0.76051 0.71972 0.0
C406 C 0.23618 0.68733 0.75081 0.0
C407 C 0.26834 0.7097 0.77228 0.0
N408 N 0.32091 0.77418 0.7842 0.0
N409 N 0.19836 0.68826 0.69813 0.0
C410 C 0.28437 0.75617 0.76647 0.0
C411 C 0.22092 0.71173 0.72271 0.0
N412 N 0.2681 0.83121 0.74078 0.0
N413 N 0.21966 0.64303 0.75765 0.0
H414 H 0.18687 0.70476 0.67692 0.0
H415 H 0.19457 0.65168 0.69744 0.0
H416 H 0.2325 0.62284 0.77687 0.0
H417 H 0.19171 0.62731 0.74528 0.0
H418 H 0.28644 0.85035 0.75833 0.0
H419 H 0.25099 0.85247 0.72381 0.0
H420 H 0.33712 0.80633 0.77896 0.0
H421 H 0.33771 0.75498 0.80243 0.0
C422 C 0.94729 0.44808 0.01702 0.0
C423 C 0.96492 0.46033 0.98601 0.0
C424 C 0.03333 0.49938 0.01019 0.0
C425 C 0.0162 0.48648 0.04134 0.0
N426 N 0.96215 0.44097 0.07459 0.0
N427 N 0.02892 0.48688 0.95196 0.0
C428 C 0.97496 0.45818 0.0448 0.0
C429 C 0.00921 0.48296 0.98224 0.0
N430 N 0.90309 0.42914 0.02002 0.0
N431 N 0.07274 0.52701 0.00732 0.0
H432 H 0.01274 0.47382 0.93102 0.0
H433 H 0.06304 0.49892 0.94773 0.0
H434 H 0.09373 0.53666 0.02703 0.0
H435 H 0.08349 0.54246 0.98557 0.0
H436 H 0.88612 0.42407 0.04217 0.0
H437 H 0.88169 0.42116 1.00016 0.0
H438 H 0.93673 0.41481 0.0778 0.0
H439 H 0.97861 0.45065 0.09617 0.0
C440 C 0.76036 0.78185 0.76553 0.0
C441 C 0.76717 0.76079 0.79648 0.0
C442 C 0.79762 0.68878 0.77109 0.0
C443 C 0.7872 0.70852 0.74044 0.0
N444 N 0.77083 0.77624 0.70699 0.0
N445 N 0.80482 0.70034 0.82911 0.0
C446 C 0.77248 0.75602 0.7372 0.0
C447 C 0.79018 0.71634 0.79944 0.0
N448 N 0.74217 0.82644 0.7634 0.0
N449 N 0.81242 0.64292 0.77304 0.0
H450 H 0.79793 0.71743 0.85095 0.0
H451 H 0.82688 0.6714 0.8321 0.0
H452 H 0.81981 0.62249 0.75254 0.0
H453 H 0.81552 0.62423 0.79469 0.0
H454 H 0.73076 0.84187 0.74188 0.0
H455 H 0.73765 0.84826 0.78361 0.0
H456 H 0.76365 0.81168 0.70271 0.0
H457 H 0.78023 0.75812 0.68587 0.0
C458 C 0.72987 0.30426 0.27482 0.0
C459 C 0.70041 0.28431 0.2506 0.0
C460 C 0.69969 0.20855 0.27876 0.0
C461 C 0.72951 0.22832 0.30282 0.0
N462 N 0.76373 0.29675 0.32867 0.0
N463 N 0.64754 0.22223 0.23326 0.0
C464 C 0.74191 0.2768 0.30236 0.0
C465 C 0.68178 0.23809 0.25396 0.0
N466 N 0.74695 0.34914 0.27104 0.0
N467 N 0.69072 0.16103 0.2786 0.0
H468 H 0.6345 0.24217 0.21403 0.0
H469 H 0.62922 0.19071 0.23665 0.0
H470 H 0.70361 0.13807 0.29627 0.0
H471 H 0.67381 0.14356 0.25962 0.0
H472 H 0.77325 0.36369 0.28558 0.0
H473 H 0.7359 0.3714 0.25233 0.0
H474 H 0.76915 0.33292 0.33128 0.0
H475 H 0.77296 0.27752 0.34933 0.0
C476 C 0.01298 0.98851 0.03972 0.0
C477 C 0.96827 0.96643 0.036 0.0
C478 C 0.97199 0.97679 0.97726 0.0
C479 C 0.01713 -0.00193 0.9808 0.0
N480 N 0.08452 0.01708 0.01396 0.0
N481 N 0.90812 0.93225 1.0021 0.0
C482 C 0.03872 0.00226 0.01168 0.0
C483 C 0.94883 0.95795 1.00495 0.0
N484 N 0.03069 -0.00378 0.07018 0.0
N485 N 0.95056 0.97644 0.94752 0.0
H486 H 0.88943 0.91947 0.0221 0.0
H487 H 0.89435 0.92043 0.98011 0.0
H488 H 0.96522 -0.00772 0.927 0.0
H489 H 0.91688 0.9635 0.94342 0.0
H490 H 0.05973 0.01759 0.075 0.0
H491 H 0.01519 0.98219 0.09103 0.0
H492 H 0.1041 0.01611 0.03532 0.0
H493 H 0.10442 0.0275 0.99387 0.0
C494 C 0.52392 0.03791 0.47026 0.0
C495 C 0.47907 0.01516 0.47054 0.0
C496 C 0.474 0.02388 0.52945 0.0
C497 C 0.51961 0.04443 0.52948 0.0
N498 N 0.58438 0.08007 0.50089 0.0
N499 N 0.40543 0.00112 0.49823 0.0
C500 C 0.54319 0.05494 0.50005 0.0
C501 C 0.45226 0.01253 0.49952 0.0
N502 N 0.54885 0.04125 0.44189 0.0
N503 N 0.45211 0.01379 0.55823 0.0
H504 H 0.38778 -0.00581 0.4765 0.0
H505 H 0.38291 0.00319 0.51817 0.0
H506 H 0.46523 0.02499 0.58062 0.0
H507 H 0.42245 -0.00776 0.56002 0.0
H508 H 0.58283 0.05472 0.44014 0.0
H509 H 0.53648 0.02853 0.41974 0.0
H510 H 0.60219 0.09219 0.48042 0.0
H511 H 0.59952 0.09179 0.52256 0.0
C512 C 0.26485 0.12332 0.94357 0.0
C513 C 0.24147 0.08006 0.93722 0.0
C514 C 0.27928 0.04499 0.98533 0.0
C515 C 0.29371 0.09072 0.99532 0.0
N516 N 0.32458 0.16437 0.97506 0.0
N517 N 0.22868 -0.00201 0.9504 0.0
C518 C 0.29406 0.12736 0.97165 0.0
C519 C 0.25025 0.04006 0.95725 0.0
N520 N 0.25725 0.16111 0.92367 0.0
N521 N 0.29591 0.00631 1.00139 0.0
H522 H 0.20902 -0.00751 0.92932 0.0
H523 H 0.22838 0.96932 0.96624 0.0
H524 H 0.32177 0.00908 0.0193 0.0
H525 H 0.28942 0.9717 0.99408 0.0
H526 H 0.26843 0.19527 0.9291 0.0
H527 H 0.23764 0.15841 0.90228 0.0
H528 H 0.32894 0.19073 0.95767 0.0
H529 H 0.35018 0.16496 0.99325 0.0
C530 C 0.68633 0.53268 0.24398 0.0
C531 C 0.64102 0.54749 0.25383 0.0
C532 C 0.61013 0.52927 0.19949 0.0
C533 C 0.6519 0.50412 0.1927 0.0
N534 N 0.7324 0.48578 0.20642 0.0
N535 N 0.57148 0.58674 0.23412 0.0
C536 C 0.69133 0.50823 0.21393 0.0
C537 C 0.60629 0.55435 0.22938 0.0
N538 N 0.72451 0.54421 0.26252 0.0
N539 N 0.57339 0.527 0.17817 0.0
H540 H 0.57155 0.60947 0.2541 0.0
H541 H 0.54676 0.59551 0.21645 0.0
H542 H 0.57642 0.51051 0.15554 0.0
H543 H 0.53985 0.53966 0.18343 0.0
H544 H 0.75913 0.53732 0.25573 0.0
H545 H 0.7217 0.56641 0.28268 0.0
H546 H 0.76025 0.48197 0.22262 0.0
H547 H 0.7378 0.4692 0.18414 0.0
C548 C 0.20742 0.92708 0.47899 0.0
C549 C 0.21811 0.88825 0.49948 0.0
C550 C 0.26787 0.85494 0.45645 0.0
C551 C 0.26411 0.89723 0.43853 0.0
N552 N 0.23268 0.97608 0.43378 0.0
N553 N 0.26849 0.82086 0.51001 0.0
C554 C 0.23398 0.93388 0.4498 0.0
C555 C 0.2507 0.85337 0.48873 0.0
N556 N 0.17163 0.95693 0.48712 0.0
N557 N 0.28907 0.81656 0.44273 0.0
H558 H 0.26087 0.82077 0.53481 0.0
H559 H 0.29546 0.79762 0.50388 0.0
H560 H 0.30158 0.81697 0.41884 0.0
H561 H 0.28947 0.78338 0.45369 0.0
H562 H 0.15922 0.98318 0.47164 0.0
H563 H 0.15169 0.95277 0.50825 0.0
H564 H 0.21603 0.00594 0.44304 0.0
H565 H 0.25053 0.9821 0.41202 0.0
C566 C 0.87316 0.48704 0.70891 0.0
C567 C 0.82883 0.48843 0.69358 0.0
C568 C 0.79546 0.44563 0.74056 0.0
C569 C 0.83735 0.45461 0.75838 0.0
N570 N 0.91164 0.49763 0.76027 0.0
N571 N 0.74524 0.47096 0.69638 0.0
C572 C 0.87541 0.47851 0.7427 0.0
C573 C 0.78922 0.46754 0.70953 0.0
N574 N 0.9129 0.49678 0.69144 0.0
N575 N 0.76203 0.41587 0.75287 0.0
H576 H 0.73868 0.48515 0.67352 0.0
H577 H 0.71478 0.46191 0.70911 0.0
H578 H 0.76602 0.39856 0.77507 0.0
H579 H 0.73277 0.40482 0.73958 0.0
H580 H 0.94664 0.4932 0.70111 0.0
H581 H 0.91174 0.50337 0.66647 0.0
H582 H 0.93799 0.51829 0.74971 0.0
H583 H 0.91202 0.499 0.78559 0.0
C584 C 0.7251 0.92606 0.06599 0.0
C585 C 0.74871 0.88658 0.07989 0.0
C586 C 0.73766 0.84237 0.02963 0.0
C587 C 0.71167 0.88053 0.01592 0.0
N588 N 0.67132 0.95428 0.0244 0.0
N589 N 0.76277 0.80316 0.07889 0.0
C590 C 0.70229 0.92103 0.03519 0.0
C591 C 0.7491 0.84321 0.06309 0.0
N592 N 0.72681 0.96904 0.08103 0.0
N593 N 0.75558 0.8074 0.01031 0.0
H594 H 0.7716 0.80337 0.10354 0.0
H595 H 0.76036 0.76965 0.06847 0.0
H596 H 0.75359 0.80777 0.98502 0.0
H597 H 0.77801 0.78128 0.01906 0.0
H598 H 0.71571 0.00016 0.06997 0.0
H599 H 0.7416 0.97408 0.10392 0.0
H600 H 0.65985 0.98234 0.03873 0.0
H601 H 0.65377 0.95128 1.00222 0.0
C602 C 0.34836 0.45587 0.80896 0.0
C603 C 0.31483 0.49092 0.81646 0.0
C604 C 0.28709 0.49103 0.76008 0.0
C605 C 0.32085 0.45583 0.75211 0.0
N606 N 0.37283 0.39456 0.77132 0.0
N607 N 0.24249 0.53002 0.80233 0.0
C608 C 0.34798 0.43482 0.77741 0.0
C609 C 0.28037 0.50357 0.79314 0.0
N610 N 0.38152 0.44411 0.8315 0.0
N611 N 0.26495 0.51642 0.73631 0.0
H612 H 0.2381 0.54244 0.82599 0.0
H613 H 0.21357 0.53573 0.78727 0.0
H614 H 0.27112 0.51229 0.71156 0.0
H615 H 0.24396 0.54567 0.7412 0.0
H616 H 0.41035 0.42271 0.82636 0.0
H617 H 0.38094 0.45781 0.85507 0.0
H618 H 0.39047 0.37574 0.7893 0.0
H619 H 0.37161 0.37734 0.74889 0.0
C620 C 0.7904 0.11146 0.54436 0.0
C621 C 0.76973 0.0874 0.51743 0.0
C622 C 0.71334 0.05019 0.55465 0.0
C623 C 0.72775 0.08127 0.57984 0.0
N624 N 0.77965 0.14202 0.59925 0.0
N625 N 0.70457 0.04038 0.49685 0.0
C626 C 0.76662 0.11177 0.57502 0.0
C627 C 0.72988 0.0577 0.52255 0.0
N628 N 0.83289 0.1335 0.54061 0.0
N629 N 0.68233 0.01439 0.56123 0.0
H630 H 0.71221 0.04775 0.47265 0.0
H631 H 0.67245 0.02293 0.49956 0.0
H632 H 0.66851 0.00842 0.58437 0.0
H633 H 0.67416 0.98793 0.54452 0.0
H634 H 0.85158 0.14851 0.55981 0.0
H635 H 0.85152 0.13274 0.51874 0.0
H636 H 0.80434 0.16892 0.59617 0.0
H637 H 0.76375 0.14137 0.62215 0.0
C638 C 0.20113 0.48109 0.29979 0.0
C639 C 0.16331 0.48926 0.3219 0.0
C640 C 0.13397 0.55198 0.28668 0.0
C641 C 0.16544 0.53653 0.262 0.0
N642 N 0.24435 0.50911 0.25269 0.0
N643 N 0.09692 0.53545 0.33887 0.0
C644 C 0.20416 0.50823 0.27088 0.0
C645 C 0.13124 0.52648 0.31646 0.0
N646 N 0.23236 0.44535 0.30539 0.0
N647 N 0.10809 0.59185 0.28163 0.0
H648 H 0.09554 0.51807 0.36123 0.0
H649 H 0.06914 0.55865 0.335 0.0
H650 H 0.11257 0.61243 0.26078 0.0
H651 H 0.08632 0.60707 0.29907 0.0
H652 H 0.25698 0.43405 0.28831 0.0
H653 H 0.23201 0.425 0.32648 0.0
H654 H 0.27511 0.49164 0.25927 0.0
H655 H 0.2491 0.53302 0.2337 0.0
C656 C 0.7696 0.55644 0.48878 0.0
C657 C 0.75169 0.592 0.50972 0.0
C658 C 0.6998 0.61913 0.46605 0.0
C659 C 0.71072 0.57854 0.44762 0.0
N660 N 0.75567 0.50682 0.44158 0.0
N661 N 0.69112 0.65046 0.52006 0.0
C662 C 0.74611 0.54695 0.45873 0.0
C663 C 0.71482 0.622 0.49875 0.0
N664 N 0.80929 0.53237 0.49733 0.0
N665 N 0.6739 0.65449 0.45237 0.0
H666 H 0.69735 0.6508 0.54503 0.0
H667 H 0.6612 0.66946 0.51358 0.0
H668 H 0.66278 0.65322 0.42818 0.0
H669 H 0.66811 0.6868 0.46385 0.0
H670 H 0.82661 0.50918 0.48176 0.0
H671 H 0.82721 0.53876 0.51903 0.0
H672 H 0.77647 0.47956 0.45054 0.0
H673 H 0.7409 0.49968 0.41893 0.0
C674 C 0.16553 0.02704 0.73118 0.0
C675 C 0.128 0.0137 0.75212 0.0
C676 C 0.09122 0.97082 0.70675 0.0
C677 C 0.13256 0.97619 0.688 0.0
N678 N 0.21159 0.00759 0.68337 0.0
N679 N 0.06002 0.9631 0.76094 0.0
C680 C 0.17026 0.00444 0.70023 0.0
C681 C 0.09177 0.98338 0.74012 0.0
N682 N 0.19611 0.06179 0.74051 0.0
N683 N 0.05173 0.95219 0.69274 0.0
H684 H 0.06149 0.96698 0.78612 0.0
H685 H 0.03575 0.93754 0.75361 0.0
H686 H 0.05066 0.94283 0.66818 0.0
H687 H 0.0192 0.95095 0.70448 0.0
H688 H 0.22139 0.0762 0.72502 0.0
H689 H 0.19332 0.07925 0.76277 0.0
H690 H 0.24216 0.02232 0.69309 0.0
H691 H 0.21618 -0.00671 0.66029 0.0
C692 C 0.73782 0.33938 0.9987 0.0
C693 C 0.71263 0.37757 0.01309 0.0
C694 C 0.71955 0.42135 0.96164 0.0
C695 C 0.74306 0.38211 0.94729 0.0
N696 N 0.75907 0.2991 0.94885 0.0
N697 N 0.66846 0.44922 1.00493 0.0
C698 C 0.74599 0.33933 0.96471 0.0
C699 C 0.6999 0.41681 0.9935 0.0
N700 N 0.758 0.30526 0.0176 0.0
N701 N 0.71833 0.46378 0.94593 0.0
H702 H 0.65257 0.44634 0.02772 0.0
H703 H 0.65467 0.47613 0.99057 0.0
H704 H 0.7301 0.46837 0.92218 0.0
H705 H 0.70763 0.49497 0.95713 0.0
H706 H 0.77992 0.27915 0.00819 0.0
H707 H 0.75827 0.30631 0.04291 0.0
H708 H 0.75844 0.26589 0.95978 0.0
H709 H 0.76555 0.29876 0.92384 0.0
C710 C 0.38792 0.00414 0.20179 0.0
C711 C 0.34202 0.00465 0.18857 0.0
C712 C 0.31546 0.95315 0.23329 0.0
C713 C 0.35892 0.96044 0.2496 0.0
N714 N 0.43375 0.00236 0.25105 0.0
N715 N 0.25984 0.98437 0.19429 0.0
C716 C 0.39486 0.98781 0.23413 0.0
C717 C 0.30521 0.97978 0.20471 0.0
N718 N 0.42474 0.02071 0.18367 0.0
N719 N 0.28403 0.92073 0.24496 0.0
H720 H 0.25082 0.00462 0.17414 0.0
H721 H 0.23097 0.97141 0.20719 0.0
H722 H 0.29089 0.90014 0.26544 0.0
H723 H 0.2536 0.91099 0.23248 0.0
H724 H 0.45976 0.01746 0.19086 0.0
H725 H 0.42029 0.03311 0.15996 0.0
H726 H 0.45835 0.02608 0.24165 0.0
H727 H 0.43898 -0.00423 0.27568 0.0
C728 C 0.22206 0.43235 0.54772 0.0
C729 C 0.22443 0.39199 0.56836 0.0
C730 C 0.17511 0.34798 0.52992 0.0
C731 C 0.18108 0.38515 0.50707 0.0
N732 N 0.18227 0.46979 0.5026 0.0
N733 N 0.2002 0.31266 0.58095 0.0
C734 C 0.19559 0.42982 0.51861 0.0
C735 C 0.19918 0.35038 0.56029 0.0
N736 N 0.24843 0.4717 0.55421 0.0
N737 N 0.14425 0.31222 0.52322 0.0
H738 H 0.21579 0.31455 0.6039 0.0
H739 H 0.18734 0.2793 0.57499 0.0
H740 H 0.12248 0.31304 0.5028 0.0
H741 H 0.1359 0.28531 0.53947 0.0
H742 H 0.25225 0.49953 0.53784 0.0
H743 H 0.26965 0.47508 0.57467 0.0
H744 H 0.18898 0.50368 0.51138 0.0
H745 H 0.15851 0.46881 0.48328 0.0
C746 C 0.82038 0.94701 0.28763 0.0
C747 C 0.85527 0.9628 0.26543 0.0
C748 C 0.88885 0.01346 0.30802 0.0
C749 C 0.84949 0.00448 0.32803 0.0
N750 N 0.77536 0.96418 0.33634 0.0
N751 N 0.91637 0.02015 0.25285 0.0
C752 C 0.81482 0.97107 0.31796 0.0
C753 C 0.88823 -0.00188 0.27526 0.0
N754 N 0.7931 0.90879 0.28001 0.0
N755 N 0.92633 0.03806 0.32022 0.0
H756 H 0.91432 0.01381 0.22792 0.0
H757 H 0.9377 0.04901 0.2585 0.0
H758 H 0.92737 0.04962 0.34434 0.0
H759 H 0.95789 0.04235 0.30758 0.0
H760 H 0.77015 0.89282 0.29646 0.0
H761 H 0.79642 0.89062 0.25806 0.0
H762 H 0.74607 0.94535 0.32821 0.0
H763 H 0.77095 0.97929 0.3592 0.0
C764 C 0.26354 0.55232 0.05591 0.0
C765 C 0.2319 0.58676 0.06859 0.0
C766 C 0.2371 0.63128 0.01785 0.0
C767 C 0.26952 0.59773 1.00508 0.0
N768 N 0.32224 0.53292 0.01491 0.0
N769 N 0.20334 0.66643 0.06614 0.0
C770 C 0.28555 0.56029 0.02509 0.0
C771 C 0.22415 0.6289 0.05105 0.0
N772 N 0.27091 0.51107 0.07226 0.0
N773 N 0.21537 0.66308 0.99787 0.0
H774 H 0.19407 0.66558 0.09072 0.0
H775 H 0.20025 0.69957 0.05533 0.0
H776 H 0.22003 0.66392 0.97274 0.0
H777 H 0.18825 0.68504 1.0057 0.0
H778 H 0.28839 0.48229 0.06217 0.0
H779 H 0.25785 0.50455 0.09545 0.0
H780 H 0.33869 0.50807 0.02966 0.0
H781 H 0.33907 0.53813 0.99263 0.0
C782 C 0.65981 0.03103 0.7866 0.0
C783 C 0.62319 0.01477 0.76589 0.0
C784 C 0.59347 0.96486 0.81021 0.0
C785 C 0.63482 0.97363 0.82822 0.0
N786 N 0.70947 0.014 0.83311 0.0
N787 N 0.56093 0.95732 0.75647 0.0
C788 C 0.66833 0.00708 0.8166 0.0
C789 C 0.59104 0.97976 0.7774 0.0
N790 N 0.68593 0.06957 0.77788 0.0
N791 N 0.55718 0.94057 0.82428 0.0
H792 H 0.56085 0.96291 0.73143 0.0
H793 H 0.54003 0.9287 0.76334 0.0
H794 H 0.55854 0.92935 0.84845 0.0
H795 H 0.52444 0.93628 0.81321 0.0
H796 H 0.71018 0.08569 0.79333 0.0
H797 H 0.68018 0.088 0.7563 0.0
H798 H 0.73773 0.03319 0.82373 0.0
H799 H 0.71629 -0.0015 0.85558 0.0
C800 C 0.48477 0.20384 0.12845 0.0
C801 C 0.4426 0.22781 0.12068 0.0
C802 C 0.48551 0.30282 0.11638 0.0
C803 C 0.52693 0.27932 0.12631 0.0
N804 N 0.56494 0.20993 0.14798 0.0
N805 N 0.40037 0.30105 0.11334 0.0
C806 C 0.52629 0.23048 0.13413 0.0
C807 C 0.44222 0.27762 0.11623 0.0
N808 N 0.48547 0.15556 0.12931 0.0
N809 N 0.48781 0.3488 0.10637 0.0
H810 H 0.36774 0.28404 0.11357 0.0
H811 H 0.39762 0.3377 0.11354 0.0
H812 H 0.51889 0.36854 0.1069 0.0
H813 H 0.45985 0.3663 0.09536 0.0
H814 H 0.51626 0.13592 0.13136 0.0
H815 H 0.45565 0.13482 0.12513 0.0
H816 H 0.56483 0.17585 0.15747 0.0
H817 H 0.59612 0.22828 0.1527 0.0
C818 C 0.45938 0.69256 0.38993 0.0
C819 C 0.5079 0.68683 0.38261 0.0
C820 C 0.51519 0.77115 0.37023 0.0
C821 C 0.46685 0.77723 0.37824 0.0
N822 N 0.39464 0.74626 0.40063 0.0
N823 N 0.58416 0.72066 0.37205 0.0
C824 C 0.43952 0.73869 0.38979 0.0
C825 C 0.53646 0.7262 0.37458 0.0
N826 N 0.43191 0.65364 0.39558 0.0
N827 N 0.54067 0.80826 0.35809 0.0
H828 H 0.60073 0.68814 0.37523 0.0
H829 H 0.60782 0.74857 0.36959 0.0
H830 H 0.52738 0.84239 0.35621 0.0
H831 H 0.57416 0.80493 0.3481 0.0
H832 H 0.39537 0.65464 0.39726 0.0
H833 H 0.44544 0.61947 0.39666 0.0
H834 H 0.37462 0.72091 0.41273 0.0
H835 H 0.37823 0.77911 0.39938 0.0
C836 C 0.94545 0.75327 0.6336 0.0
C837 C 0.93803 0.71716 0.61005 0.0
C838 C 0.00284 0.74865 0.5773 0.0
C839 C 0.01576 0.77876 0.60358 0.0
N840 N 0.98642 0.82585 0.64773 0.0
N841 N 0.96052 0.67841 0.56032 0.0
C842 C 0.98332 0.7857 0.62935 0.0
C843 C 0.96679 0.71446 0.58202 0.0
N844 N 0.91653 0.75632 0.66015 0.0
N845 N 0.02138 0.75568 0.54703 0.0
H846 H 0.93415 0.65292 0.56292 0.0
H847 H 0.98393 0.67141 0.54142 0.0
H848 H 0.04079 0.78569 0.54102 0.0
H849 H 0.01091 0.73661 0.5266 0.0
H850 H 0.92352 0.77762 0.68021 0.0
H851 H 0.88636 0.7357 0.66309 0.0
H852 H 0.96212 0.83544 0.66546 0.0
H853 H 0.01026 0.85284 0.6423 0.0
C854 C 0.97426 0.25447 0.84142 0.0
C855 C 0.97301 0.28355 0.86936 0.0
C856 C 0.04066 0.2409 0.89213 0.0
C857 C 0.0389 0.20949 0.86515 0.0
N858 N 0.02416 0.20677 0.80734 0.0
N859 N 0.01444 0.31464 0.91615 0.0
C860 C 0.01184 0.22236 0.83757 0.0
C861 C 0.00885 0.27969 0.89344 0.0
N862 N 0.93923 0.25683 0.81874 0.0
N863 N 0.07395 0.23487 0.91568 0.0
H864 H -0.00671 0.3446 0.91721 0.0
H865 H 0.04239 0.31632 0.93243 0.0
H866 H 0.10408 0.21465 0.91185 0.0
H867 H 0.07243 0.25075 0.93848 0.0
H868 H 0.93659 0.23307 0.79945 0.0
H869 H 0.91054 0.27954 0.82094 0.0
H870 H 0.00721 0.21782 0.78621 0.0
H871 H 0.05572 0.18906 0.80304 0.0
C872 C 0.4975 0.78048 0.88052 0.0
C873 C 0.53927 0.7578 0.8908 0.0
C874 C 0.49707 0.6824 0.89661 0.0
C875 C 0.45471 0.70601 0.88893 0.0
N876 N 0.41257 0.77696 0.87455 0.0
N877 N 0.58035 0.68816 0.90919 0.0
C878 C 0.45437 0.75492 0.88104 0.0
C879 C 0.5395 0.70896 0.899 0.0
N880 N 0.49933 0.82626 0.86991 0.0
N881 N 0.49663 0.63449 0.90097 0.0
H882 H 0.61286 0.70533 0.90898 0.0
H883 H 0.58219 0.65445 0.91912 0.0
H884 H 0.46581 0.61438 0.90025 0.0
H885 H 0.52673 0.61397 0.90339 0.0
H886 H 0.4715 0.84348 0.85861 0.0
H887 H 0.52991 0.84672 0.87069 0.0
H888 H 0.4088 0.81334 0.87238 0.0
H889 H 0.38054 0.75903 0.87277 0.0
C890 C 0.42318 0.2322 0.64772 0.0
C891 C 0.43355 0.27289 0.66633 0.0
C892 C 0.50648 0.23633 0.68565 0.0
C893 C 0.50028 0.20018 0.66224 0.0
N894 N 0.45283 0.16261 0.62067 0.0
N895 N 0.46993 0.29994 0.71591 0.0
C896 C 0.45845 0.19756 0.64334 0.0
C897 C 0.4709 0.27117 0.68926 0.0
N898 N 0.37842 0.22507 0.63657 0.0
N899 N 0.54693 0.23811 0.70358 0.0
H900 H 0.44062 0.32048 0.72159 0.0
H901 H 0.49445 0.29843 0.73467 0.0
H902 H 0.5733 0.21268 0.70162 0.0
H903 H 0.55592 0.26642 0.71853 0.0
H904 H 0.36738 0.19421 0.62506 0.0
H905 H 0.35076 0.24738 0.64303 0.0
H906 H 0.42569 0.16233 0.60365 0.0
H907 H 0.47704 0.13547 0.61718 0.0
C908 C 0.02485 0.21841 0.39175 0.0
C909 C 0.02763 0.26729 0.39935 0.0
C910 C 0.94282 0.26906 0.40979 0.0
C911 C 0.9408 0.2194 0.40478 0.0
N912 N 0.98092 0.14534 0.39717 0.0
N913 N -0.0083 0.3374 0.42128 0.0
C914 C 0.9822 0.19361 0.39762 0.0
C915 C 0.98731 0.29214 0.41009 0.0
N916 N 0.06223 0.19616 0.37745 0.0
N917 N 0.90221 0.29462 0.41248 0.0
H918 H 0.02378 0.35544 0.42173 0.0
H919 H 0.96446 0.35554 0.43272 0.0
H920 H 0.86874 0.27944 0.41187 0.0
H921 H 0.90149 0.33139 0.41244 0.0
H922 H 0.06043 0.162 0.36814 0.0
H923 H 0.0939 0.2132 0.37206 0.0
H924 H 0.01094 0.12446 0.39537 0.0
H925 H 0.95028 0.126 0.4017 0.0
C926 C 0.00632 0.712 0.18284 0.0
C927 C 0.03746 0.70135 0.1567 0.0
C928 C 0.01439 0.77603 0.13067 0.0
C929 C 0.97569 0.7793 0.1526 0.0
N930 N 0.93263 0.74811 0.19832 0.0
N931 N 0.07961 0.73001 0.10968 0.0
C932 C 0.971 0.74655 0.1783 0.0
C933 C 0.04394 0.73544 0.13166 0.0
N934 N 0.01274 0.6925 0.21287 0.0
N935 N 0.02461 0.81295 0.11034 0.0
H936 H 0.10766 0.70704 0.11364 0.0
H937 H 0.08179 0.74855 0.08788 0.0
H938 H 0.00472 0.84379 0.10933 0.0
H939 H 0.05491 0.81505 0.09618 0.0
H940 H -0.00772 0.70152 0.23297 0.0
H941 H 0.04322 0.67438 0.21922 0.0
H942 H 0.92538 0.72196 0.21546 0.0
H943 H 0.90588 0.77299 0.19567 0.0
C944 C 0.21912 0.32885 0.08 0.0
C945 C 0.2019 0.28543 0.09266 0.0
C946 C 0.16676 0.32776 0.13849 0.0
C947 C 0.18124 0.37136 0.12501 0.0
N948 N 0.20816 0.41331 0.07708 0.0
N949 N 0.1409 0.24895 0.12594 0.0
C950 C 0.20412 0.37211 0.09418 0.0
C951 C 0.1701 0.28623 0.11948 0.0
N952 N 0.2488 0.32891 0.05385 0.0
N953 N 0.14925 0.32603 0.16942 0.0
H954 H 0.13598 0.22079 0.11008 0.0
H955 H 0.11562 0.2497 0.14431 0.0
H956 H 0.14716 0.35587 0.18426 0.0
H957 H 0.14177 0.29439 0.18133 0.0
H958 H 0.26744 0.35879 0.04641 0.0
H959 H 0.25583 0.29861 0.04026 0.0
H960 H 0.22001 0.41475 0.05312 0.0
H961 H 0.19513 0.4455 0.08529 0.0
C962 C 0.34918 0.47214 0.35034 0.0
C963 C 0.35007 0.42796 0.36684 0.0
C964 C 0.42687 0.41104 0.34331 0.0
C965 C 0.43069 0.45823 0.33222 0.0
N966 N 0.39156 0.53093 0.3186 0.0
N967 N 0.39371 0.35966 0.38409 0.0
C968 C 0.39051 0.48809 0.33382 0.0
C969 C 0.39043 0.39905 0.36508 0.0
N970 N 0.30836 0.49756 0.34908 0.0
N971 N 0.45584 0.37684 0.33128 0.0
H972 H 0.36768 0.35043 0.4009 0.0
H973 H 0.42427 0.33944 0.38547 0.0
H974 H 0.47817 0.383 0.31156 0.0
H975 H 0.45227 0.34125 0.33732 0.0
H976 H 0.30344 0.52696 0.33434 0.0
H977 H 0.27811 0.48821 0.36188 0.0
H978 H 0.36699 0.55753 0.32247 0.0
H979 H 0.41741 0.53952 0.30152 0.0
C980 C 0.21654 0.64238 0.60179 0.0
C981 C 0.24547 0.67869 0.58847 0.0
C982 C 0.31482 0.62998 0.59675 0.0
C983 C 0.28584 0.59183 0.60705 0.0
N984 N 0.2072 0.55835 0.6095 0.0
N985 N 0.31929 0.70023 0.56365 0.0
C986 C 0.23606 0.59681 0.60654 0.0
C987 C 0.29362 0.66983 0.58242 0.0
N988 N 0.17163 0.65147 0.61191 0.0
N989 N 0.36221 0.62991 0.60258 0.0
H990 H 0.30411 0.72945 0.55231 0.0
H991 H 0.35389 0.69338 0.55662 0.0
H992 H 0.3789 0.6037 0.61609 0.0
H993 H 0.38378 0.6589 0.59766 0.0
H994 H 0.15184 0.62718 0.62525 0.0
H995 H 0.15533 0.68412 0.60965 0.0
H996 H 0.17088 0.56024 0.60611 0.0
H997 H 0.2196 0.52395 0.61172 0.0
C998 C 0.04279 0.5662 0.85305 0.0
C999 C 0.03651 0.51669 0.8538 0.0
C1000 C 0.12095 0.50705 0.86308 0.0
C1001 C 0.12518 0.55647 0.86848 0.0
N1002 N 0.08535 0.63117 0.87682 0.0
N1003 N 0.06917 0.43997 0.86763 0.0
C1004 C 0.08482 0.58572 0.86559 0.0
C1005 C 0.07541 0.48683 0.86078 0.0
N1006 N 0.00829 0.59459 0.84082 0.0
N1007 N 0.15982 0.47929 0.85925 0.0
H1008 H 0.03656 0.42316 0.8681 0.0
H1009 H 0.09632 0.41871 0.87629 0.0
H1010 H 0.19413 0.4922 0.85967 0.0
H1011 H 0.1576 0.44401 0.85212 0.0
H1012 H 0.01286 0.63083 0.83752 0.0
H1013 H 0.97734 0.58099 0.83076 0.0
H1014 H 0.05533 0.65224 0.87746 0.0
H1015 H 0.11381 0.64576 0.88933 0.0
C1016 C 0.73687 0.6593 0.88998 0.0
C1017 C 0.75061 0.67924 0.92035 0.0
C1018 C 0.79028 0.60604 0.93479 0.0
C1019 C 0.78479 0.5901 0.90223 0.0
N1020 N 0.75348 0.60123 0.84824 0.0
N1021 N 0.79011 0.67266 0.97185 0.0
C1022 C 0.75728 0.61603 0.87981 0.0
C1023 C 0.77697 0.65277 0.94296 0.0
N1024 N 0.70553 0.68239 0.8704 0.0
N1025 N 0.80694 0.57586 0.958 0.0
H1026 H 0.77887 0.7061 0.97913 0.0
H1027 H 0.81406 0.65715 0.98772 0.0
H1028 H 0.81506 0.54066 0.95302 0.0
H1029 H 0.80798 0.58406 0.98267 0.0
H1030 H 0.69002 0.66711 0.85001 0.0
H1031 H 0.69225 0.71582 0.87548 0.0
H1032 H 0.73824 0.62123 0.82985 0.0
H1033 H 0.76867 0.57029 0.83952 0.0
C1034 C 0.59532 0.54504 0.67054 0.0
C1035 C 0.61757 0.55336 0.64015 0.0
C1036 C 0.55107 0.51725 0.61201 0.0
C1037 C 0.52603 0.51504 0.6419 0.0
N1038 N 0.52139 0.53465 0.69898 0.0
N1039 N 0.61195 0.55711 0.58152 0.0
C1040 C 0.54731 0.53105 0.67108 0.0
C1041 C 0.59417 0.54224 0.61071 0.0
N1042 N 0.6204 0.54874 0.69878 0.0
N1043 N 0.53496 0.49371 0.58517 0.0
H1044 H 0.64269 0.57712 0.5794 0.0
H1045 H 0.59351 0.55386 0.55973 0.0
H1046 H 0.50481 0.47264 0.58536 0.0
H1047 H 0.55442 0.49073 0.56378 0.0
H1048 H 0.60702 0.5385 0.7213 0.0
H1049 H 0.65611 0.55744 0.69935 0.0
H1050 H 0.5341 0.55059 0.72007 0.0
H1051 H 0.48571 0.52596 0.70016 0.0
C1052 C 0.70506 0.32225 0.43053 0.0
C1053 C 0.69205 0.27941 0.41477 0.0
C1054 C 0.65919 0.32503 0.36951 0.0
C1055 C 0.66868 0.36748 0.38629 0.0
N1056 N 0.69083 0.40615 0.43641 0.0
N1057 N 0.64068 0.24256 0.37449 0.0
C1058 C 0.68923 0.36617 0.41777 0.0
C1059 C 0.66429 0.28132 0.38586 0.0
N1060 N 0.73171 0.32099 0.45817 0.0
N1061 N 0.64528 0.32652 0.33771 0.0
H1062 H 0.63873 0.21045 0.38654 0.0
H1063 H 0.61729 0.24402 0.35502 0.0
H1064 H 0.64206 0.35815 0.32488 0.0
H1065 H 0.642 0.29647 0.32323 0.0
H1066 H 0.74769 0.35082 0.46815 0.0
H1067 H 0.73912 0.28974 0.47054 0.0
H1068 H 0.70044 0.40622 0.46084 0.0
H1069 H 0.67878 0.43883 0.42839 0.0
C1070 C 0.86852 0.43349 0.18811 0.0
C1071 C 0.84985 0.43845 0.15611 0.0
C1072 C 0.9135 0.4936 0.14315 0.0
C1073 C 0.93714 0.4795 0.17183 0.0
N1074 N 0.93845 0.43589 0.22189 0.0
N1075 N 0.85751 0.47096 0.10182 0.0
C1076 C 0.91489 0.44968 0.19459 0.0
C1077 C 0.87256 0.46867 0.13336 0.0
N1078 N 0.84143 0.41514 0.21254 0.0
N1079 N 0.93122 0.5298 0.12482 0.0
H1080 H 0.83042 0.45016 0.09249 0.0
H1081 H 0.87509 0.48988 0.0838 0.0
H1082 H 0.96173 0.54821 0.13123 0.0
H1083 H 0.91337 0.54449 0.10518 0.0
H1084 H 0.85216 0.41438 0.23675 0.0
H1085 H 0.80618 0.40579 0.2094 0.0
H1086 H 0.92605 0.40967 0.2375 0.0
H1087 H 0.97167 0.44916 0.22787 0.0
C1088 C 0.65436 0.79681 0.62269 0.0
C1089 C 0.70359 0.79204 0.61844 0.0
C1090 C 0.71262 0.87774 0.621 0.0
C1091 C 0.66466 0.88161 0.63042 0.0
N1092 N 0.59267 0.84286 0.64742 0.0
N1093 N 0.78121 0.82773 0.62083 0.0
C1094 C 0.63616 0.84059 0.63323 0.0
C1095 C 0.73336 0.83238 0.61946 0.0
N1096 N 0.62493 0.75969 0.61624 0.0
N1097 N 0.73801 0.91683 0.61232 0.0
H1098 H 0.79833 0.79525 0.62099 0.0
H1099 H 0.80372 0.85621 0.62513 0.0
H1100 H 0.72393 0.95074 0.61182 0.0
H1101 H 0.77166 0.91481 0.60227 0.0
H1102 H 0.58836 0.76274 0.61629 0.0
H1103 H 0.63706 0.72738 0.6074 0.0
H1104 H 0.57252 0.81298 0.65262 0.0
H1105 H 0.57903 0.87381 0.6574 0.0
C1106 C 0.86694 0.92297 0.84851 0.0
C1107 C 0.84484 0.94042 0.87707 0.0
C1108 C 0.89791 0.00865 0.87645 0.0
C1109 C 0.9266 0.98474 0.85342 0.0
N1110 N 0.9376 0.92103 0.81551 0.0
N1111 N 0.83772 0.00103 0.91803 0.0
C1112 C 0.91052 0.94266 0.83857 0.0
C1113 C 0.85903 0.9843 0.89051 0.0
N1114 N 0.8452 0.88903 0.83021 0.0
N1115 N 0.90859 0.05381 0.88563 0.0
H1116 H 0.81002 0.98362 0.92961 0.0
H1117 H 0.85002 0.03 0.93114 0.0
H1118 H 0.93709 0.07262 0.87634 0.0
H1119 H 0.8866 0.07443 0.90005 0.0
H1120 H 0.85781 0.87754 0.80778 0.0
H1121 H 0.81157 0.87645 0.83562 0.0
H1122 H 0.93084 0.88716 0.80675 0.0
H1123 H 0.9681 0.93658 0.80611 0.0
C1124 C 0.79076 0.11248 0.10228 0.0
C1125 C 0.79569 0.09495 0.13448 0.0
C1126 C 0.75332 0.16317 0.15557 0.0
C1127 C 0.75587 0.18435 0.12433 0.0
N1128 N 0.778 0.18085 0.06787 0.0
N1129 N 0.78515 0.10475 0.19233 0.0
C1130 C 0.77437 0.1593 0.09749 0.0
C1131 C 0.7774 0.12027 0.16131 0.0
N1132 N 0.80069 0.08389 0.07638 0.0
N1133 N 0.7271 0.18378 0.17956 0.0
H1134 H 0.80271 0.0734 0.19762 0.0
H1135 H 0.77743 0.12472 0.21292 0.0
H1136 H 0.70816 0.21486 0.17597 0.0
H1137 H 0.72023 0.16767 0.20182 0.0
H1138 H 0.79363 0.09307 0.05237 0.0
H1139 H 0.81187 0.04904 0.07907 0.0
H1140 H 0.79616 0.16637 0.04827 0.0
H1141 H 0.76527 0.21477 0.06348 0.0
C1142 C 0.59852 0.00627 0.3276 0.0
C1143 C 0.56959 0.97841 0.34795 0.0
C1144 C 0.62671 0.98482 0.39251 0.0
C1145 C 0.65273 0.01687 0.37319 0.0
N1146 N 0.67455 0.04386 0.31976 0.0
N1147 N 0.56072 0.93057 0.39639 0.0
C1148 C 0.64227 0.02273 0.33972 0.0
C1149 C 0.58572 0.96343 0.37909 0.0
N1150 N 0.58302 0.01859 0.29734 0.0
N1151 N 0.63918 0.97772 0.42423 0.0
H1152 H 0.52895 0.91618 0.38854 0.0
H1153 H 0.57274 0.91494 0.41768 0.0
H1154 H 0.66961 -0.00793 0.4344 0.0
H1155 H 0.61868 0.95952 0.44106 0.0
H1156 H 0.59971 0.04352 0.28269 0.0
H1157 H 0.55206 0.00483 0.28739 0.0
H1158 H 0.6708 0.04611 0.29463 0.0
H1159 H 0.70744 0.0551 0.32813 0.0
C1160 C 0.31147 0.17354 0.41168 0.0
C1161 C 0.26951 0.18515 0.39518 0.0
C1162 C 0.27828 0.11695 0.35936 0.0
C1163 C 0.31933 0.10395 0.3767 0.0
N1164 N 0.36729 0.11229 0.42501 0.0
N1165 N 0.20642 0.16262 0.35918 0.0
C1166 C 0.33386 0.13005 0.40454 0.0
C1167 C 0.25068 0.15489 0.37102 0.0
N1168 N 0.33037 0.20445 0.43364 0.0
N1169 N 0.26704 0.09477 0.33084 0.0
H1170 H 0.18541 0.19058 0.36699 0.0
H1171 H 0.18889 0.13869 0.34419 0.0
H1172 H 0.28731 0.0677 0.32089 0.0
H1173 H 0.24028 0.1062 0.31546 0.0
H1174 H 0.36388 0.20051 0.44354 0.0
H1175 H 0.31339 0.23553 0.44054 0.0
H1176 H 0.37589 0.12775 0.44722 0.0
H1177 H 0.38302 0.07951 0.4215 0.0
C1178 C 0.05655 0.05837 0.15681 0.0
C1179 C 0.05024 0.00912 0.15915 0.0
C1180 C 0.13125 -0.00192 0.13992 0.0
C1181 C 0.13376 0.04716 0.13236 0.0
N1182 N 0.08875 0.11834 0.1222 0.0
N1183 N 0.07939 0.93095 0.14512 0.0
C1184 C 0.09342 0.07576 0.13747 0.0
C1185 C 0.087 0.97835 0.14885 0.0
N1186 N 0.02617 0.08852 0.17193 0.0
N1187 N 0.17024 0.97001 0.13925 0.0
H1188 H 0.04778 0.91402 0.15037 0.0
H1189 H 0.10368 0.90878 0.13382 0.0
H1190 H 0.20338 0.98119 0.13189 0.0
H1191 H 0.17014 0.93574 0.14853 0.0
H1192 H 0.03138 0.12502 0.17216 0.0
H1193 H -0.00098 0.07642 0.18695 0.0
H1194 H 0.05827 0.13864 0.12395 0.0
H1195 H 0.1123 0.12994 0.10439 0.0
C1196 C 0.21207 0.85884 0.86426 0.0
C1197 C 0.18131 0.88045 0.88682 0.0
C1198 C 0.19448 0.81674 0.92595 0.0
C1199 C 0.22565 0.79567 0.90353 0.0
N1200 N 0.27402 0.80206 0.85541 0.0
N1201 N 0.15375 0.88789 0.94226 0.0
C1202 C 0.23791 0.81872 0.8741 0.0
C1203 C 0.17563 0.86182 0.9187 0.0
N1204 N 0.21433 0.87461 0.83286 0.0
N1205 N 0.18214 0.79321 0.95369 0.0
H1206 H 0.14092 0.92184 0.93817 0.0
H1207 H 0.15246 0.87789 0.9666 0.0
H1208 H 0.19734 0.7611 0.9603 0.0
H1209 H 0.15526 0.80424 0.96914 0.0
H1210 H 0.232 0.85663 0.81444 0.0
H1211 H 0.19515 0.90344 0.82441 0.0
H1212 H 0.28822 0.82116 0.83612 0.0
H1213 H 0.29287 0.77163 0.86107 0.0
C1214 C 0.36585 0.91252 0.66236 0.0
C1215 C 0.3399 0.93151 0.63583 0.0
C1216 C 0.39291 -0.00057 0.63465 0.0
C1217 C 0.4239 0.97504 0.65562 0.0
N1218 N 0.44146 0.90804 0.68938 0.0
N1219 N 0.33141 -0.00834 0.59447 0.0
C1220 C 0.41076 0.93153 0.66965 0.0
C1221 C 0.35363 0.97507 0.62162 0.0
N1222 N 0.34675 0.87798 0.6815 0.0
N1223 N 0.40151 0.04557 0.62694 0.0
H1224 H 0.30424 0.97354 0.58282 0.0
H1225 H 0.343 0.02113 0.58155 0.0
H1226 H 0.43032 0.06412 0.63619 0.0
H1227 H 0.3779 0.06641 0.61398 0.0
H1228 H 0.36263 0.86582 0.70271 0.0
H1229 H 0.31252 0.86551 0.67837 0.0
H1230 H 0.43588 0.87347 0.69719 0.0
H1231 H 0.47373 0.92246 0.6965 0.0
loop_
_geom_bond_atom_site_label_1
_geom_bond_atom_site_label_2
_geom_bond_distance
_geom_bond_site_symmetry_2
_ccdc_geom_bond_type
O0 Zn1 1.953 . S
O0 C16 1.225 . S
Zn1 O0 1.953 . S
Zn1 O2 1.949 . S
Zn1 O8 1.919 . S
Zn1 O13 1.924 . S
O2 Zn1 1.949 . S
O2 Zn3 1.923 . S
O2 Zn4 1.950 . S
O2 Zn5 1.945 . S
Zn3 O2 1.923 . S
Zn3 O6 1.933 . S
Zn3 O9 1.941 . S
Zn3 O10 1.965 . S
Zn4 O2 1.950 . S
Zn4 O11 1.938 . S
Zn4 O12 1.906 . S
Zn4 O22 1.953 . S
Zn5 O2 1.945 . S
Zn5 O7 1.932 . S
Zn5 O14 1.977 . S
Zn5 O15 1.910 . S
O6 Zn3 1.933 . S
O6 C17 1.226 . S
O7 Zn5 1.932 . S
O7 C17 1.307 . S
O8 Zn1 1.919 . S
O8 C19 1.253 . S
O9 Zn3 1.941 . S
O9 C19 1.283 . S
O10 Zn3 1.965 . S
O10 C18 1.303 . S
O11 Zn4 1.938 . S
O11 C18 1.247 . S
O12 Zn4 1.906 . S
O12 C20 1.304 . S
O13 Zn1 1.924 . S
O13 C21 1.311 . S
O14 Zn5 1.977 . S
O14 C20 1.272 . S
O15 Zn5 1.910 . S
O15 C21 1.231 . S
C16 O0 1.225 . S
C16 O22 1.298 . S
C17 O6 1.226 . S
C17 O7 1.307 . S
C18 O10 1.303 . S
C18 O11 1.247 . S
C19 O8 1.253 . S
C19 O9 1.283 . S
C20 O12 1.304 . S
C20 O14 1.272 . S
C21 O13 1.311 . S
C21 O15 1.231 . S
O22 Zn4 1.953 . S
O22 C16 1.298 . S
O23 Zn24 1.953 . S
O23 C39 1.225 . S
Zn24 O23 1.953 . S
Zn24 O25 1.949 . S
Zn24 O31 1.919 . S
Zn24 O36 1.924 . S
O25 Zn24 1.949 . S
O25 Zn26 1.923 . S
O25 Zn27 1.950 . S
O25 Zn28 1.945 . S
Zn26 O25 1.923 . S
Zn26 O29 1.933 . S
Zn26 O32 1.941 . S
Zn26 O33 1.965 . S
Zn27 O25 1.950 . S
Zn27 O34 1.938 . S
Zn27 O35 1.906 . S
Zn27 O45 1.953 . S
Zn28 O25 1.945 . S
Zn28 O30 1.932 . S
Zn28 O37 1.977 . S
Zn28 O38 1.910 . S
O29 Zn26 1.933 . S
O29 C40 1.226 . S
O30 Zn28 1.932 . S
O30 C40 1.307 . S
O31 Zn24 1.919 . S
O31 C42 1.253 . S
O32 Zn26 1.941 . S
O32 C42 1.283 . S
O33 Zn26 1.965 . S
O33 C41 1.303 . S
O34 Zn27 1.938 . S
O34 C41 1.247 . S
O35 Zn27 1.906 . S
O35 C43 1.304 . S
O36 Zn24 1.924 . S
O36 C44 1.311 . S
O37 Zn28 1.977 . S
O37 C43 1.272 . S
O38 Zn28 1.910 . S
O38 C44 1.231 . S
C39 O23 1.225 . S
C39 O45 1.298 . S
C40 O29 1.226 . S
C40 O30 1.307 . S
C41 O33 1.303 . S
C41 O34 1.247 . S
C42 O31 1.253 . S
C42 O32 1.283 . S
C43 O35 1.304 . S
C43 O37 1.272 . S
C44 O36 1.311 . S
C44 O38 1.231 . S
O45 Zn27 1.953 . S
O45 C39 1.298 . S
O46 Zn47 1.953 . S
O46 C62 1.225 . S
Zn47 O46 1.953 . S
Zn47 O48 1.949 . S
Zn47 O54 1.919 . S
Zn47 O59 1.924 . S
O48 Zn47 1.949 . S
O48 Zn49 1.923 . S
O48 Zn50 1.950 . S
O48 Zn51 1.945 . S
Zn49 O48 1.923 . S
Zn49 O52 1.933 . S
Zn49 O55 1.941 . S
Zn49 O56 1.965 . S
Zn50 O48 1.950 . S
Zn50 O57 1.938 . S
Zn50 O58 1.906 . S
Zn50 O68 1.953 . S
Zn51 O48 1.945 . S
Zn51 O53 1.932 . S
Zn51 O60 1.977 . S
Zn51 O61 1.910 . S
O52 Zn49 1.933 . S
O52 C63 1.226 . S
O53 Zn51 1.932 . S
O53 C63 1.307 . S
O54 Zn47 1.919 . S
O54 C65 1.253 . S
O55 Zn49 1.941 . S
O55 C65 1.283 . S
O56 Zn49 1.965 . S
O56 C64 1.303 . S
O57 Zn50 1.938 . S
O57 C64 1.247 . S
O58 Zn50 1.906 . S
O58 C66 1.304 . S
O59 Zn47 1.924 . S
O59 C67 1.311 . S
O60 Zn51 1.977 . S
O60 C66 1.272 . S
O61 Zn51 1.910 . S
O61 C67 1.231 . S
C62 O46 1.225 . S
C62 O68 1.298 . S
C63 O52 1.226 . S
C63 O53 1.307 . S
C64 O56 1.303 . S
C64 O57 1.247 . S
C65 O54 1.253 . S
C65 O55 1.283 . S
C66 O58 1.304 . S
C66 O60 1.272 . S
C67 O59 1.311 . S
C67 O61 1.231 . S
O68 Zn50 1.953 . S
O68 C62 1.298 . S
O69 Zn70 1.953 . S
O69 C85 1.225 . S
Zn70 O69 1.953 . S
Zn70 O71 1.949 . S
Zn70 O77 1.919 . S
Zn70 O82 1.924 . S
O71 Zn70 1.949 . S
O71 Zn72 1.923 . S
O71 Zn73 1.950 . S
O71 Zn74 1.945 . S
Zn72 O71 1.923 . S
Zn72 O75 1.933 . S
Zn72 O78 1.941 . S
Zn72 O79 1.965 . S
Zn73 O71 1.950 . S
Zn73 O80 1.938 . S
Zn73 O81 1.906 . S
Zn73 O91 1.953 . S
Zn74 O71 1.945 . S
Zn74 O76 1.932 . S
Zn74 O83 1.977 . S
Zn74 O84 1.910 . S
O75 Zn72 1.933 . S
O75 C86 1.226 . S
O76 Zn74 1.932 . S
O76 C86 1.307 . S
O77 Zn70 1.919 . S
O77 C88 1.253 . S
O78 Zn72 1.941 . S
O78 C88 1.283 . S
O79 Zn72 1.965 . S
O79 C87 1.303 . S
O80 Zn73 1.938 . S
O80 C87 1.247 . S
O81 Zn73 1.906 . S
O81 C89 1.304 . S
O82 Zn70 1.924 . S
O82 C90 1.311 1_655 S
O83 Zn74 1.977 . S
O83 C89 1.272 . S
O84 Zn74 1.910 . S
O84 C90 1.231 1_655 S
C85 O69 1.225 . S
C85 O91 1.298 . S
C86 O75 1.226 . S
C86 O76 1.307 . S
C87 O79 1.303 . S
C87 O80 1.247 . S
C88 O77 1.253 . S
C88 O78 1.283 . S
C89 O81 1.304 . S
C89 O83 1.272 . S
C90 O82 1.311 1_455 S
C90 O84 1.231 1_455 S
O91 Zn73 1.953 . S
O91 C85 1.298 . S
O92 Zn93 1.953 . S
O92 C108 1.225 . S
Zn93 O92 1.953 . S
Zn93 O94 1.949 . S
Zn93 O100 1.919 . S
Zn93 O105 1.924 . S
O94 Zn93 1.949 . S
O94 Zn95 1.923 . S
O94 Zn96 1.950 . S
O94 Zn97 1.945 . S
Zn95 O94 1.923 . S
Zn95 O98 1.933 . S
Zn95 O101 1.941 . S
Zn95 O102 1.965 . S
Zn96 O94 1.950 . S
Zn96 O103 1.938 . S
Zn96 O104 1.906 . S
Zn96 O114 1.953 . S
Zn97 O94 1.945 . S
Zn97 O99 1.932 . S
Zn97 O106 1.977 . S
Zn97 O107 1.910 . S
O98 Zn95 1.933 . S
O98 C109 1.226 . S
O99 Zn97 1.932 . S
O99 C109 1.307 . S
O100 Zn93 1.919 . S
O100 C111 1.253 . S
O101 Zn95 1.941 . S
O101 C111 1.283 . S
O102 Zn95 1.965 . S
O102 C110 1.303 . S
O103 Zn96 1.938 . S
O103 C110 1.247 . S
O104 Zn96 1.906 . S
O104 C112 1.304 . S
O105 Zn93 1.924 . S
O105 C113 1.311 . S
O106 Zn97 1.977 . S
O106 C112 1.272 . S
O107 Zn97 1.910 . S
O107 C113 1.231 . S
C108 O92 1.225 . S
C108 O114 1.298 . S
C109 O98 1.226 . S
C109 O99 1.307 . S
C110 O102 1.303 . S
C110 O103 1.247 . S
C111 O100 1.253 . S
C111 O101 1.283 . S
C112 O104 1.304 . S
C112 O106 1.272 . S
C113 O105 1.311 . S
C113 O107 1.231 . S
O114 Zn96 1.953 . S
O114 C108 1.298 . S
O115 Zn116 1.953 . S
O115 C131 1.225 . S
Zn116 O115 1.953 . S
Zn116 O117 1.949 . S
Zn116 O123 1.919 . S
Zn116 O128 1.924 . S
O117 Zn116 1.949 . S
O117 Zn118 1.923 . S
O117 Zn119 1.950 . S
O117 Zn120 1.945 . S
Zn118 O117 1.923 . S
Zn118 O121 1.933 . S
Zn118 O124 1.941 . S
Zn118 O125 1.965 . S
Zn119 O117 1.950 . S
Zn119 O126 1.938 . S
Zn119 O127 1.906 . S
Zn119 O137 1.953 . S
Zn120 O117 1.945 . S
Zn120 O122 1.932 . S
Zn120 O129 1.977 . S
Zn120 O130 1.910 . S
O121 Zn118 1.933 . S
O121 C132 1.226 . S
O122 Zn120 1.932 . S
O122 C132 1.307 . S
O123 Zn116 1.919 . S
O123 C134 1.253 . S
O124 Zn118 1.941 . S
O124 C134 1.283 . S
O125 Zn118 1.965 . S
O125 C133 1.303 . S
O126 Zn119 1.938 . S
O126 C133 1.247 . S
O127 Zn119 1.906 . S
O127 C135 1.304 . S
O128 Zn116 1.924 . S
O128 C136 1.311 . S
O129 Zn120 1.977 . S
O129 C135 1.272 . S
O130 Zn120 1.910 . S
O130 C136 1.231 . S
C131 O115 1.225 . S
C131 O137 1.298 . S
C132 O121 1.226 . S
C132 O122 1.307 . S
C133 O125 1.303 . S
C133 O126 1.247 . S
C134 O123 1.253 . S
C134 O124 1.283 . S
C135 O127 1.304 . S
C135 O129 1.272 . S
C136 O128 1.311 . S
C136 O130 1.231 . S
O137 Zn119 1.953 . S
O137 C131 1.298 . S
O138 Zn139 1.953 . S
O138 C154 1.225 . S
Zn139 O138 1.953 . S
Zn139 O140 1.949 . S
Zn139 O146 1.919 . S
Zn139 O151 1.924 . S
O140 Zn139 1.949 . S
O140 Zn141 1.923 . S
O140 Zn142 1.950 . S
O140 Zn143 1.945 . S
Zn141 O140 1.923 . S
Zn141 O144 1.933 . S
Zn141 O147 1.941 . S
Zn141 O148 1.965 . S
Zn142 O140 1.950 . S
Zn142 O149 1.938 . S
Zn142 O150 1.906 . S
Zn142 O160 1.953 . S
Zn143 O140 1.945 . S
Zn143 O145 1.932 . S
Zn143 O152 1.977 . S
Zn143 O153 1.910 . S
O144 Zn141 1.933 . S
O144 C155 1.226 . S
O145 Zn143 1.932 . S
O145 C155 1.307 . S
O146 Zn139 1.919 . S
O146 C157 1.253 . S
O147 Zn141 1.941 . S
O147 C157 1.283 . S
O148 Zn141 1.965 . S
O148 C156 1.303 . S
O149 Zn142 1.938 . S
O149 C156 1.247 . S
O150 Zn142 1.906 . S
O150 C158 1.304 . S
O151 Zn139 1.924 . S
O151 C159 1.311 . S
O152 Zn143 1.977 . S
O152 C158 1.272 . S
O153 Zn143 1.910 . S
O153 C159 1.231 . S
C154 O138 1.225 . S
C154 O160 1.298 . S
C155 O144 1.226 . S
C155 O145 1.307 . S
C156 O148 1.303 . S
C156 O149 1.247 . S
C157 O146 1.253 . S
C157 O147 1.283 . S
C158 O150 1.304 . S
C158 O152 1.272 . S
C159 O151 1.311 . S
C159 O153 1.231 . S
O160 Zn142 1.953 . S
O160 C154 1.298 . S
O161 Zn162 1.953 . S
O161 C177 1.225 . S
Zn162 O161 1.953 . S
Zn162 O163 1.949 . S
Zn162 O169 1.919 . S
Zn162 O174 1.924 . S
O163 Zn162 1.949 . S
O163 Zn164 1.923 . S
O163 Zn165 1.950 . S
O163 Zn166 1.945 . S
Zn164 O163 1.923 . S
Zn164 O167 1.933 . S
Zn164 O170 1.941 . S
Zn164 O171 1.965 . S
Zn165 O163 1.950 . S
Zn165 O172 1.938 . S
Zn165 O173 1.906 . S
Zn165 O183 1.953 . S
Zn166 O163 1.945 . S
Zn166 O168 1.932 . S
Zn166 O175 1.977 . S
Zn166 O176 1.910 . S
O167 Zn164 1.933 . S
O167 C178 1.226 . S
O168 Zn166 1.932 . S
O168 C178 1.307 . S
O169 Zn162 1.919 . S
O169 C180 1.253 . S
O170 Zn164 1.941 . S
O170 C180 1.283 . S
O171 Zn164 1.965 . S
O171 C179 1.303 . S
O172 Zn165 1.938 . S
O172 C179 1.247 . S
O173 Zn165 1.906 . S
O173 C181 1.304 . S
O174 Zn162 1.924 . S
O174 C182 1.311 1_455 S
O175 Zn166 1.977 . S
O175 C181 1.272 . S
O176 Zn166 1.910 . S
O176 C182 1.231 1_455 S
C177 O161 1.225 . S
C177 O183 1.298 . S
C178 O167 1.226 . S
C178 O168 1.307 . S
C179 O171 1.303 . S
C179 O172 1.247 . S
C180 O169 1.253 . S
C180 O170 1.283 . S
C181 O173 1.304 . S
C181 O175 1.272 . S
C182 O174 1.311 1_655 S
C182 O176 1.231 1_655 S
O183 Zn165 1.953 . S
O183 C177 1.298 . S
O184 Zn185 1.953 . S
O184 C200 1.225 . S
Zn185 O184 1.953 . S
Zn185 O186 1.949 . S
Zn185 O192 1.919 . S
Zn185 O197 1.924 . S
O186 Zn185 1.949 . S
O186 Zn187 1.923 . S
O186 Zn188 1.950 . S
O186 Zn189 1.945 . S
Zn187 O186 1.923 . S
Zn187 O190 1.933 . S
Zn187 O193 1.941 . S
Zn187 O194 1.965 . S
Zn188 O186 1.950 . S
Zn188 O195 1.938 . S
Zn188 O196 1.906 . S
Zn188 O206 1.953 . S
Zn189 O186 1.945 . S
Zn189 O191 1.932 . S
Zn189 O198 1.977 . S
Zn189 O199 1.910 . S
O190 Zn187 1.933 . S
O190 C201 1.226 . S
O191 Zn189 1.932 . S
O191 C201 1.307 . S
O192 Zn185 1.919 . S
O192 C203 1.253 . S
O193 Zn187 1.941 . S
O193 C203 1.283 . S
O194 Zn187 1.965 . S
O194 C202 1.303 . S
O195 Zn188 1.938 . S
O195 C202 1.247 . S
O196 Zn188 1.906 . S
O196 C204 1.304 . S
O197 Zn185 1.924 . S
O197 C205 1.311 . S
O198 Zn189 1.977 . S
O198 C204 1.272 . S
O199 Zn189 1.910 . S
O199 C205 1.231 . S
C200 O184 1.225 . S
C200 O206 1.298 . S
C201 O190 1.226 . S
C201 O191 1.307 . S
C202 O194 1.303 . S
C202 O195 1.247 . S
C203 O192 1.253 . S
C203 O193 1.283 . S
C204 O196 1.304 . S
C204 O198 1.272 . S
C205 O197 1.311 . S
C205 O199 1.231 . S
O206 Zn188 1.953 . S
O206 C200 1.298 . S
O207 Zn208 1.953 . S
O207 C223 1.225 1_565 S
Zn208 O207 1.953 . S
Zn208 O209 1.949 1_565 S
Zn208 O215 1.919 . S
Zn208 O220 1.924 . S
O209 Zn208 1.949 1_545 S
O209 Zn210 1.923 . S
O209 Zn211 1.950 . S
O209 Zn212 1.945 . S
Zn210 O209 1.923 . S
Zn210 O213 1.933 . S
Zn210 O216 1.941 1_545 S
Zn210 O217 1.965 . S
Zn211 O209 1.950 . S
Zn211 O218 1.938 . S
Zn211 O219 1.906 . S
Zn211 O229 1.953 . S
Zn212 O209 1.945 . S
Zn212 O214 1.932 . S
Zn212 O221 1.977 . S
Zn212 O222 1.910 . S
O213 Zn210 1.933 . S
O213 C224 1.226 . S
O214 Zn212 1.932 . S
O214 C224 1.307 . S
O215 Zn208 1.919 . S
O215 C226 1.253 . S
O216 Zn210 1.941 1_565 S
O216 C226 1.283 . S
O217 Zn210 1.965 . S
O217 C225 1.303 . S
O218 Zn211 1.938 . S
O218 C225 1.247 . S
O219 Zn211 1.906 . S
O219 C227 1.304 . S
O220 Zn208 1.924 . S
O220 C228 1.311 1_455 S
O221 Zn212 1.977 . S
O221 C227 1.272 . S
O222 Zn212 1.910 . S
O222 C228 1.231 1_445 S
C223 O207 1.225 1_545 S
C223 O229 1.298 . S
C224 O213 1.226 . S
C224 O214 1.307 . S
C225 O217 1.303 . S
C225 O218 1.247 . S
C226 O215 1.253 . S
C226 O216 1.283 . S
C227 O219 1.304 . S
C227 O221 1.272 . S
C228 O220 1.311 1_655 S
C228 O222 1.231 1_665 S
O229 Zn211 1.953 . S
O229 C223 1.298 . S
O230 Zn231 1.953 . S
O230 C246 1.225 . S
Zn231 O230 1.953 . S
Zn231 O232 1.949 . S
Zn231 O238 1.919 . S
Zn231 O243 1.924 . S
O232 Zn231 1.949 . S
O232 Zn233 1.923 . S
O232 Zn234 1.950 . S
O232 Zn235 1.945 . S
Zn233 O232 1.923 . S
Zn233 O236 1.933 . S
Zn233 O239 1.941 . S
Zn233 O240 1.965 . S
Zn234 O232 1.950 . S
Zn234 O241 1.938 . S
Zn234 O242 1.906 . S
Zn234 O252 1.953 . S
Zn235 O232 1.945 . S
Zn235 O237 1.932 . S
Zn235 O244 1.977 . S
Zn235 O245 1.910 . S
O236 Zn233 1.933 . S
O236 C247 1.226 . S
O237 Zn235 1.932 . S
O237 C247 1.307 . S
O238 Zn231 1.919 . S
O238 C249 1.253 . S
O239 Zn233 1.941 . S
O239 C249 1.283 . S
O240 Zn233 1.965 . S
O240 C248 1.303 . S
O241 Zn234 1.938 . S
O241 C248 1.247 . S
O242 Zn234 1.906 . S
O242 C250 1.304 . S
O243 Zn231 1.924 . S
O243 C251 1.311 . S
O244 Zn235 1.977 . S
O244 C250 1.272 . S
O245 Zn235 1.910 . S
O245 C251 1.231 . S
C246 O230 1.225 . S
C246 O252 1.298 . S
C247 O236 1.226 . S
C247 O237 1.307 . S
C248 O240 1.303 . S
C248 O241 1.247 . S
C249 O238 1.253 . S
C249 O239 1.283 . S
C250 O242 1.304 . S
C250 O244 1.272 . S
C251 O243 1.311 . S
C251 O245 1.231 . S
O252 Zn234 1.953 . S
O252 C246 1.298 . S
O253 Zn254 1.953 . S
O253 C269 1.225 1_545 S
Zn254 O253 1.953 . S
Zn254 O255 1.949 1_545 S
Zn254 O261 1.919 . S
Zn254 O266 1.924 . S
O255 Zn254 1.949 1_565 S
O255 Zn256 1.923 . S
O255 Zn257 1.950 . S
O255 Zn258 1.945 . S
Zn256 O255 1.923 . S
Zn256 O259 1.933 . S
Zn256 O262 1.941 1_565 S
Zn256 O263 1.965 . S
Zn257 O255 1.950 . S
Zn257 O264 1.938 . S
Zn257 O265 1.906 . S
Zn257 O275 1.953 . S
Zn258 O255 1.945 . S
Zn258 O260 1.932 . S
Zn258 O267 1.977 . S
Zn258 O268 1.910 . S
O259 Zn256 1.933 . S
O259 C270 1.226 . S
O260 Zn258 1.932 . S
O260 C270 1.307 . S
O261 Zn254 1.919 . S
O261 C272 1.253 . S
O262 Zn256 1.941 1_545 S
O262 C272 1.283 . S
O263 Zn256 1.965 . S
O263 C271 1.303 . S
O264 Zn257 1.938 . S
O264 C271 1.247 . S
O265 Zn257 1.906 . S
O265 C273 1.304 . S
O266 Zn254 1.924 . S
O266 C274 1.311 . S
O267 Zn258 1.977 . S
O267 C273 1.272 . S
O268 Zn258 1.910 . S
O268 C274 1.231 1_565 S
C269 O253 1.225 1_565 S
C269 O275 1.298 . S
C270 O259 1.226 . S
C270 O260 1.307 . S
C271 O263 1.303 . S
C271 O264 1.247 . S
C272 O261 1.253 . S
C272 O262 1.283 . S
C273 O265 1.304 . S
C273 O267 1.272 . S
C274 O266 1.311 . S
C274 O268 1.231 1_545 S
O275 Zn257 1.953 . S
O275 C269 1.298 . S
O276 Zn277 1.953 . S
O276 C292 1.225 . S
Zn277 O276 1.953 . S
Zn277 O278 1.949 . S
Zn277 O284 1.919 . S
Zn277 O289 1.924 . S
O278 Zn277 1.949 . S
O278 Zn279 1.923 . S
O278 Zn280 1.950 . S
O278 Zn281 1.945 . S
Zn279 O278 1.923 . S
Zn279 O282 1.933 . S
Zn279 O285 1.941 . S
Zn279 O286 1.965 . S
Zn280 O278 1.950 . S
Zn280 O287 1.938 . S
Zn280 O288 1.906 . S
Zn280 O298 1.953 . S
Zn281 O278 1.945 . S
Zn281 O283 1.932 . S
Zn281 O290 1.977 . S
Zn281 O291 1.910 . S
O282 Zn279 1.933 . S
O282 C293 1.226 . S
O283 Zn281 1.932 . S
O283 C293 1.307 . S
O284 Zn277 1.919 . S
O284 C295 1.253 . S
O285 Zn279 1.941 . S
O285 C295 1.283 . S
O286 Zn279 1.965 . S
O286 C294 1.303 . S
O287 Zn280 1.938 . S
O287 C294 1.247 . S
O288 Zn280 1.906 . S
O288 C296 1.304 . S
O289 Zn277 1.924 . S
O289 C297 1.311 . S
O290 Zn281 1.977 . S
O290 C296 1.272 . S
O291 Zn281 1.910 . S
O291 C297 1.231 . S
C292 O276 1.225 . S
C292 O298 1.298 . S
C293 O282 1.226 . S
C293 O283 1.307 . S
C294 O286 1.303 . S
C294 O287 1.247 . S
C295 O284 1.253 . S
C295 O285 1.283 . S
C296 O288 1.304 . S
C296 O290 1.272 . S
C297 O289 1.311 . S
C297 O291 1.231 . S
O298 Zn280 1.953 . S
O298 C292 1.298 . S
O299 Zn300 1.953 . S
O299 C315 1.225 1_545 S
Zn300 O299 1.953 . S
Zn300 O301 1.949 1_545 S
Zn300 O307 1.919 . S
Zn300 O312 1.924 . S
O301 Zn300 1.949 1_565 S
O301 Zn302 1.923 . S
O301 Zn303 1.950 . S
O301 Zn304 1.945 . S
Zn302 O301 1.923 . S
Zn302 O305 1.933 . S
Zn302 O308 1.941 1_565 S
Zn302 O309 1.965 . S
Zn303 O301 1.950 . S
Zn303 O310 1.938 . S
Zn303 O311 1.906 . S
Zn303 O321 1.953 . S
Zn304 O301 1.945 . S
Zn304 O306 1.932 . S
Zn304 O313 1.977 . S
Zn304 O314 1.910 . S
O305 Zn302 1.933 . S
O305 C316 1.226 . S
O306 Zn304 1.932 . S
O306 C316 1.307 . S
O307 Zn300 1.919 . S
O307 C318 1.253 . S
O308 Zn302 1.941 1_545 S
O308 C318 1.283 . S
O309 Zn302 1.965 . S
O309 C317 1.303 . S
O310 Zn303 1.938 . S
O310 C317 1.247 . S
O311 Zn303 1.906 . S
O311 C319 1.304 . S
O312 Zn300 1.924 . S
O312 C320 1.311 1_655 S
O313 Zn304 1.977 . S
O313 C319 1.272 . S
O314 Zn304 1.910 . S
O314 C320 1.231 1_665 S
C315 O299 1.225 1_565 S
C315 O321 1.298 . S
C316 O305 1.226 . S
C316 O306 1.307 . S
C317 O309 1.303 . S
C317 O310 1.247 . S
C318 O307 1.253 . S
C318 O308 1.283 . S
C319 O311 1.304 . S
C319 O313 1.272 . S
C320 O312 1.311 1_455 S
C320 O314 1.231 1_445 S
O321 Zn303 1.953 . S
O321 C315 1.298 . S
O322 Zn323 1.953 . S
O322 C338 1.225 . S
Zn323 O322 1.953 . S
Zn323 O324 1.949 . S
Zn323 O330 1.919 . S
Zn323 O335 1.924 . S
O324 Zn323 1.949 . S
O324 Zn325 1.923 . S
O324 Zn326 1.950 . S
O324 Zn327 1.945 . S
Zn325 O324 1.923 . S
Zn325 O328 1.933 . S
Zn325 O331 1.941 . S
Zn325 O332 1.965 . S
Zn326 O324 1.950 . S
Zn326 O333 1.938 . S
Zn326 O334 1.906 . S
Zn326 O344 1.953 . S
Zn327 O324 1.945 . S
Zn327 O329 1.932 . S
Zn327 O336 1.977 . S
Zn327 O337 1.910 . S
O328 Zn325 1.933 . S
O328 C339 1.226 . S
O329 Zn327 1.932 . S
O329 C339 1.307 . S
O330 Zn323 1.919 . S
O330 C341 1.253 . S
O331 Zn325 1.941 . S
O331 C341 1.283 . S
O332 Zn325 1.965 . S
O332 C340 1.303 . S
O333 Zn326 1.938 . S
O333 C340 1.247 . S
O334 Zn326 1.906 . S
O334 C342 1.304 . S
O335 Zn323 1.924 . S
O335 C343 1.311 . S
O336 Zn327 1.977 . S
O336 C342 1.272 . S
O337 Zn327 1.910 . S
O337 C343 1.231 . S
C338 O322 1.225 . S
C338 O344 1.298 . S
C339 O328 1.226 . S
C339 O329 1.307 . S
C340 O332 1.303 . S
C340 O333 1.247 . S
C341 O330 1.253 . S
C341 O331 1.283 . S
C342 O334 1.304 . S
C342 O336 1.272 . S
C343 O335 1.311 . S
C343 O337 1.231 . S
O344 Zn326 1.953 . S
O344 C338 1.298 . S
O345 Zn346 1.953 . S
O345 C361 1.225 1_565 S
Zn346 O345 1.953 . S
Zn346 O347 1.949 1_565 S
Zn346 O353 1.919 . S
Zn346 O358 1.924 . S
O347 Zn346 1.949 1_545 S
O347 Zn348 1.923 . S
O347 Zn349 1.950 . S
O347 Zn350 1.945 . S
Zn348 O347 1.923 . S
Zn348 O351 1.933 . S
Zn348 O354 1.941 1_545 S
Zn348 O355 1.965 . S
Zn349 O347 1.950 . S
Zn349 O356 1.938 . S
Zn349 O357 1.906 . S
Zn349 O367 1.953 . S
Zn350 O347 1.945 . S
Zn350 O352 1.932 . S
Zn350 O359 1.977 . S
Zn350 O360 1.910 . S
O351 Zn348 1.933 . S
O351 C362 1.226 . S
O352 Zn350 1.932 . S
O352 C362 1.307 . S
O353 Zn346 1.919 . S
O353 C364 1.253 . S
O354 Zn348 1.941 1_565 S
O354 C364 1.283 . S
O355 Zn348 1.965 . S
O355 C363 1.303 . S
O356 Zn349 1.938 . S
O356 C363 1.247 . S
O357 Zn349 1.906 . S
O357 C365 1.304 . S
O358 Zn346 1.924 . S
O358 C366 1.311 . S
O359 Zn350 1.977 . S
O359 C365 1.272 . S
O360 Zn350 1.910 . S
O360 C366 1.231 1_545 S
C361 O345 1.225 1_545 S
C361 O367 1.298 . S
C362 O351 1.226 . S
C362 O352 1.307 . S
C363 O355 1.303 . S
C363 O356 1.247 . S
C364 O353 1.253 . S
C364 O354 1.283 . S
C365 O357 1.304 . S
C365 O359 1.272 . S
C366 O358 1.311 . S
C366 O360 1.231 1_565 S
O367 Zn349 1.953 . S
O367 C361 1.298 . S
C368 C369 1.363 . S
C368 C374 1.379 . S
C368 N376 1.356 . S
C369 C368 1.363 . S
C369 C375 1.363 . S
C370 C371 1.363 . S
C370 C375 1.379 . S
C370 N377 1.356 . S
C371 C370 1.363 . S
C371 C374 1.363 . S
N372 C374 1.356 . S
N372 H384 0.984 . S
N372 H385 0.985 . S
N373 C375 1.356 . S
N373 H378 0.984 . S
N373 H379 0.985 . S
C374 C368 1.379 . S
C374 C371 1.363 . S
C374 N372 1.356 . S
C375 C369 1.363 . S
C375 C370 1.379 . S
C375 N373 1.356 . S
N376 C368 1.356 . S
N376 H382 0.984 . S
N376 H383 0.984 . S
N377 C370 1.356 . S
N377 H380 0.984 . S
N377 H381 0.985 . S
H378 N373 0.984 . S
H379 N373 0.985 . S
H380 N377 0.984 . S
H381 N377 0.985 . S
H382 N376 0.984 . S
H383 N376 0.984 . S
H384 N372 0.984 . S
H385 N372 0.985 . S
C386 C387 1.363 . S
C386 C392 1.379 . S
C386 N394 1.356 . S
C387 C386 1.363 . S
C387 C393 1.363 . S
C388 C389 1.363 . S
C388 C393 1.379 . S
C388 N395 1.356 . S
C389 C388 1.363 . S
C389 C392 1.363 . S
N390 C392 1.356 . S
N390 H402 0.984 . S
N390 H403 0.985 . S
N391 C393 1.356 . S
N391 H396 0.984 . S
N391 H397 0.985 . S
C392 C386 1.379 . S
C392 C389 1.363 . S
C392 N390 1.356 . S
C393 C387 1.363 . S
C393 C388 1.379 . S
C393 N391 1.356 . S
N394 C386 1.356 . S
N394 H400 0.984 . S
N394 H401 0.984 . S
N395 C388 1.356 . S
N395 H398 0.984 . S
N395 H399 0.985 . S
H396 N391 0.984 . S
H397 N391 0.985 . S
H398 N395 0.984 . S
H399 N395 0.985 . S
H400 N394 0.984 . S
H401 N394 0.984 . S
H402 N390 0.984 . S
H403 N390 0.985 . S
C404 C405 1.363 . S
C404 C410 1.379 . S
C404 N412 1.356 . S
C405 C404 1.363 . S
C405 C411 1.363 . S
C406 C407 1.363 . S
C406 C411 1.379 . S
C406 N413 1.356 . S
C407 C406 1.363 . S
C407 C410 1.363 . S
N408 C410 1.356 . S
N408 H420 0.984 . S
N408 H421 0.985 . S
N409 C411 1.356 . S
N409 H414 0.984 . S
N409 H415 0.985 . S
C410 C404 1.379 . S
C410 C407 1.363 . S
C410 N408 1.356 . S
C411 C405 1.363 . S
C411 C406 1.379 . S
C411 N409 1.356 . S
N412 C404 1.356 . S
N412 H418 0.984 . S
N412 H419 0.984 . S
N413 C406 1.356 . S
N413 H416 0.984 . S
N413 H417 0.985 . S
H414 N409 0.984 . S
H415 N409 0.985 . S
H416 N413 0.984 . S
H417 N413 0.985 . S
H418 N412 0.984 . S
H419 N412 0.984 . S
H420 N408 0.984 . S
H421 N408 0.985 . S
C422 C423 1.363 1_554 S
C422 C428 1.388 . S
C422 N430 1.356 . S
C423 C422 1.363 1_556 S
C423 C429 1.354 1_655 S
C424 C425 1.363 1_556 S
C424 C429 1.388 . S
C424 N431 1.356 . S
C425 C424 1.363 1_554 S
C425 C428 1.354 1_455 S
N426 C428 1.354 1_455 S
N426 H438 0.984 1_455 S
N426 H439 0.985 . S
N427 C429 1.354 1_655 S
N427 H432 0.984 . S
N427 H433 0.985 1_655 S
C428 C422 1.388 . S
C428 C425 1.354 1_655 S
C428 N426 1.354 1_655 S
C429 C423 1.354 1_455 S
C429 C424 1.388 . S
C429 N427 1.354 1_455 S
N430 C422 1.356 . S
N430 H436 0.984 . S
N430 H437 0.984 1_554 S
N431 C424 1.356 . S
N431 H434 0.984 1_556 S
N431 H435 0.985 . S
H432 N427 0.984 . S
H433 N427 0.985 1_455 S
H434 N431 0.984 1_554 S
H435 N431 0.985 . S
H436 N430 0.984 . S
H437 N430 0.984 1_556 S
H438 N426 0.984 1_655 S
H439 N426 0.985 . S
C440 C441 1.363 . S
C440 C446 1.379 . S
C440 N448 1.356 . S
C441 C440 1.363 . S
C441 C447 1.363 . S
C442 C443 1.363 . S
C442 C447 1.379 . S
C442 N449 1.356 . S
C443 C442 1.363 . S
C443 C446 1.363 . S
N444 C446 1.356 . S
N444 H456 0.984 . S
N444 H457 0.985 . S
N445 C447 1.356 . S
N445 H450 0.984 . S
N445 H451 0.985 . S
C446 C440 1.379 . S
C446 C443 1.363 . S
C446 N444 1.356 . S
C447 C441 1.363 . S
C447 C442 1.379 . S
C447 N445 1.356 . S
N448 C440 1.356 . S
N448 H454 0.984 . S
N448 H455 0.984 . S
N449 C442 1.356 . S
N449 H452 0.984 . S
N449 H453 0.985 . S
H450 N445 0.984 . S
H451 N445 0.985 . S
H452 N449 0.984 . S
H453 N449 0.985 . S
H454 N448 0.984 . S
H455 N448 0.984 . S
H456 N444 0.984 . S
H457 N444 0.985 . S
C458 C459 1.363 . S
C458 C464 1.379 . S
C458 N466 1.356 . S
C459 C458 1.363 . S
C459 C465 1.363 . S
C460 C461 1.363 . S
C460 C465 1.379 . S
C460 N467 1.356 . S
C461 C460 1.363 . S
C461 C464 1.363 . S
N462 C464 1.356 . S
N462 H474 0.984 . S
N462 H475 0.985 . S
N463 C465 1.356 . S
N463 H468 0.984 . S
N463 H469 0.985 . S
C464 C458 1.379 . S
C464 C461 1.363 . S
C464 N462 1.356 . S
C465 C459 1.363 . S
C465 C460 1.379 . S
C465 N463 1.356 . S
N466 C458 1.356 . S
N466 H472 0.984 . S
N466 H473 0.984 . S
N467 C460 1.356 . S
N467 H470 0.984 . S
N467 H471 0.985 . S
H468 N463 0.984 . S
H469 N463 0.985 . S
H470 N467 0.984 . S
H471 N467 0.985 . S
H472 N466 0.984 . S
H473 N466 0.984 . S
H474 N462 0.984 . S
H475 N462 0.985 . S
C476 C477 1.363 1_545 S
C476 C482 1.379 1_655 S
C476 N484 1.356 . S
C477 C476 1.363 1_565 S
C477 C483 1.363 1_554 S
C478 C479 1.363 1_565 S
C478 C483 1.379 1_455 S
C478 N485 1.356 . S
C479 C478 1.363 1_545 S
C479 C482 1.363 1_556 S
N480 C482 1.356 . S
N480 H492 0.984 . S
N480 H493 0.985 1_554 S
N481 C483 1.356 . S
N481 H486 0.984 1_556 S
N481 H487 0.985 . S
C482 C476 1.379 1_455 S
C482 C479 1.363 1_554 S
C482 N480 1.356 . S
C483 C477 1.363 1_556 S
C483 C478 1.379 1_655 S
C483 N481 1.356 . S
N484 C476 1.356 . S
N484 H490 0.984 . S
N484 H491 1.001 . S
N485 C478 1.356 . S
N485 H488 1.001 . S
N485 H489 0.985 . S
H486 N481 0.984 1_554 S
H487 N481 0.985 . S
H488 N485 1.001 . S
H489 N485 0.985 . S
H490 N484 0.984 . S
H491 N484 1.001 . S
H492 N480 0.984 . S
H493 N480 0.985 1_556 S
C494 C495 1.363 1_545 S
C494 C500 1.379 . S
C494 N502 1.356 . S
C495 C494 1.363 1_565 S
C495 C501 1.363 . S
C496 C497 1.363 1_565 S
C496 C501 1.379 . S
C496 N503 1.356 . S
C497 C496 1.363 1_545 S
C497 C500 1.363 . S
N498 C500 1.356 . S
N498 H510 0.984 . S
N498 H511 0.985 . S
N499 C501 1.356 . S
N499 H504 0.984 . S
N499 H505 0.985 . S
C500 C494 1.379 . S
C500 C497 1.363 . S
C500 N498 1.356 . S
C501 C495 1.363 . S
C501 C496 1.379 . S
C501 N499 1.356 . S
N502 C494 1.356 . S
N502 H508 0.984 . S
N502 H509 0.984 . S
N503 C496 1.356 . S
N503 H506 0.984 . S
N503 H507 0.985 . S
H504 N499 0.984 . S
H505 N499 0.985 . S
H506 N503 0.984 . S
H507 N503 0.985 . S
H508 N502 0.984 . S
H509 N502 0.984 . S
H510 N498 0.984 . S
H511 N498 0.985 . S
C512 C513 1.363 . S
C512 C518 1.379 . S
C512 N520 1.356 . S
C513 C512 1.363 . S
C513 C519 1.363 . S
C514 C515 1.363 . S
C514 C519 1.379 1_554 S
C514 N521 1.356 . S
C515 C514 1.363 . S
C515 C518 1.363 1_554 S
N516 C518 1.356 1_554 S
N516 H528 0.984 1_554 S
N516 H529 0.985 . S
N517 C519 1.356 . S
N517 H522 0.984 . S
N517 H523 0.985 . S
C518 C512 1.379 . S
C518 C515 1.363 1_556 S
C518 N516 1.356 1_556 S
C519 C513 1.363 . S
C519 C514 1.379 1_556 S
C519 N517 1.356 . S
N520 C512 1.356 . S
N520 H526 0.984 . S
N520 H527 0.984 . S
N521 C514 1.356 . S
N521 H524 0.984 . S
N521 H525 0.985 . S
H522 N517 0.984 . S
H523 N517 0.985 . S
H524 N521 0.984 . S
H525 N521 0.985 . S
H526 N520 0.984 . S
H527 N520 0.984 . S
H528 N516 0.984 1_556 S
H529 N516 0.985 . S
C530 C531 1.363 . S
C530 C536 1.379 . S
C530 N538 1.356 . S
C531 C530 1.363 . S
C531 C537 1.363 . S
C532 C533 1.363 . S
C532 C537 1.379 . S
C532 N539 1.356 . S
C533 C532 1.363 . S
C533 C536 1.363 . S
N534 C536 1.356 . S
N534 H546 0.984 . S
N534 H547 0.985 . S
N535 C537 1.356 . S
N535 H540 0.984 . S
N535 H541 0.985 . S
C536 C530 1.379 . S
C536 C533 1.363 . S
C536 N534 1.356 . S
C537 C531 1.363 . S
C537 C532 1.379 . S
C537 N535 1.356 . S
N538 C530 1.356 . S
N538 H544 0.984 . S
N538 H545 0.984 . S
N539 C532 1.356 . S
N539 H542 0.984 . S
N539 H543 0.985 . S
H540 N535 0.984 . S
H541 N535 0.985 . S
H542 N539 0.984 . S
H543 N539 0.985 . S
H544 N538 0.984 . S
H545 N538 0.984 . S
H546 N534 0.984 . S
H547 N534 0.985 . S
C548 C549 1.363 . S
C548 C554 1.379 . S
C548 N556 1.356 . S
C549 C548 1.363 . S
C549 C555 1.363 . S
C550 C551 1.363 . S
C550 C555 1.379 . S
C550 N557 1.356 . S
C551 C550 1.363 . S
C551 C554 1.363 . S
N552 C554 1.356 . S
N552 H564 0.984 . S
N552 H565 0.985 . S
N553 C555 1.356 . S
N553 H558 0.984 . S
N553 H559 0.985 . S
C554 C548 1.379 . S
C554 C551 1.363 . S
C554 N552 1.356 . S
C555 C549 1.363 . S
C555 C550 1.379 . S
C555 N553 1.356 . S
N556 C548 1.356 . S
N556 H562 0.984 1_565 S
N556 H563 0.984 . S
N557 C550 1.356 . S
N557 H560 0.984 . S
N557 H561 0.985 . S
H558 N553 0.984 . S
H559 N553 0.985 . S
H560 N557 0.984 . S
H561 N557 0.985 . S
H562 N556 0.984 1_545 S
H563 N556 0.984 . S
H564 N552 0.984 . S
H565 N552 0.985 . S
C566 C567 1.363 . S
C566 C572 1.379 . S
C566 N574 1.356 . S
C567 C566 1.363 . S
C567 C573 1.363 . S
C568 C569 1.363 . S
C568 C573 1.379 . S
C568 N575 1.356 . S
C569 C568 1.363 . S
C569 C572 1.363 . S
N570 C572 1.356 . S
N570 H582 0.984 . S
N570 H583 0.985 . S
N571 C573 1.356 . S
N571 H576 0.984 . S
N571 H577 0.985 . S
C572 C566 1.379 . S
C572 C569 1.363 . S
C572 N570 1.356 . S
C573 C567 1.363 . S
C573 C568 1.379 . S
C573 N571 1.356 . S
N574 C566 1.356 . S
N574 H580 0.984 . S
N574 H581 0.984 . S
N575 C568 1.356 . S
N575 H578 0.984 . S
N575 H579 0.985 . S
H576 N571 0.984 . S
H577 N571 0.985 . S
H578 N575 0.984 . S
H579 N575 0.985 . S
H580 N574 0.984 . S
H581 N574 0.984 . S
H582 N570 0.984 . S
H583 N570 0.985 . S
C584 C585 1.363 . S
C584 C590 1.379 . S
C584 N592 1.356 . S
C585 C584 1.363 . S
C585 C591 1.363 . S
C586 C587 1.363 . S
C586 C591 1.379 1_556 S
C586 N593 1.356 . S
C587 C586 1.363 . S
C587 C590 1.363 1_556 S
N588 C590 1.356 . S
N588 H600 0.986 . S
N588 H601 0.985 1_554 S
N589 C591 1.356 . S
N589 H594 0.984 . S
N589 H595 0.985 . S
C590 C584 1.379 . S
C590 C587 1.363 1_554 S
C590 N588 1.356 . S
C591 C585 1.363 . S
C591 C586 1.379 1_554 S
C591 N589 1.356 . S
N592 C584 1.356 . S
N592 H598 0.984 . S
N592 H599 0.984 . S
N593 C586 1.356 . S
N593 H596 0.984 . S
N593 H597 0.985 . S
H594 N589 0.984 . S
H595 N589 0.985 . S
H596 N593 0.984 . S
H597 N593 0.985 . S
H598 N592 0.984 . S
H599 N592 0.984 . S
H600 N588 0.986 . S
H601 N588 0.985 1_556 S
C602 C603 1.363 . S
C602 C608 1.379 . S
C602 N610 1.356 . S
C603 C602 1.363 . S
C603 C609 1.363 . S
C604 C605 1.363 . S
C604 C609 1.379 . S
C604 N611 1.356 . S
C605 C604 1.363 . S
C605 C608 1.363 . S
N606 C608 1.356 . S
N606 H618 0.984 . S
N606 H619 0.985 . S
N607 C609 1.356 . S
N607 H612 0.984 . S
N607 H613 0.985 . S
C608 C602 1.379 . S
C608 C605 1.363 . S
C608 N606 1.356 . S
C609 C603 1.363 . S
C609 C604 1.379 . S
C609 N607 1.356 . S
N610 C602 1.356 . S
N610 H616 0.984 . S
N610 H617 0.984 . S
N611 C604 1.356 . S
N611 H614 0.984 . S
N611 H615 0.985 . S
H612 N607 0.984 . S
H613 N607 0.985 . S
H614 N611 0.984 . S
H615 N611 0.985 . S
H616 N610 0.984 . S
H617 N610 0.984 . S
H618 N606 0.984 . S
H619 N606 0.985 . S
C620 C621 1.363 . S
C620 C626 1.379 . S
C620 N628 1.356 . S
C621 C620 1.363 . S
C621 C627 1.363 . S
C622 C623 1.363 . S
C622 C627 1.379 . S
C622 N629 1.356 . S
C623 C622 1.363 . S
C623 C626 1.363 . S
N624 C626 1.356 . S
N624 H636 0.984 . S
N624 H637 0.985 . S
N625 C627 1.356 . S
N625 H630 0.984 . S
N625 H631 0.985 . S
C626 C620 1.379 . S
C626 C623 1.363 . S
C626 N624 1.356 . S
C627 C621 1.363 . S
C627 C622 1.379 . S
C627 N625 1.356 . S
N628 C620 1.356 . S
N628 H634 0.984 . S
N628 H635 0.984 . S
N629 C622 1.356 . S
N629 H632 0.984 . S
N629 H633 0.985 . S
H630 N625 0.984 . S
H631 N625 0.985 . S
H632 N629 0.984 . S
H633 N629 0.985 . S
H634 N628 0.984 . S
H635 N628 0.984 . S
H636 N624 0.984 . S
H637 N624 0.985 . S
C638 C639 1.363 . S
C638 C644 1.379 . S
C638 N646 1.356 . S
C639 C638 1.363 . S
C639 C645 1.363 . S
C640 C641 1.363 . S
C640 C645 1.379 . S
C640 N647 1.356 . S
C641 C640 1.363 . S
C641 C644 1.363 . S
N642 C644 1.356 . S
N642 H654 0.984 . S
N642 H655 0.985 . S
N643 C645 1.356 . S
N643 H648 0.984 . S
N643 H649 0.985 . S
C644 C638 1.379 . S
C644 C641 1.363 . S
C644 N642 1.356 . S
C645 C639 1.363 . S
C645 C640 1.379 . S
C645 N643 1.356 . S
N646 C638 1.356 . S
N646 H652 0.984 . S
N646 H653 0.984 . S
N647 C640 1.356 . S
N647 H650 0.984 . S
N647 H651 0.985 . S
H648 N643 0.984 . S
H649 N643 0.985 . S
H650 N647 0.984 . S
H651 N647 0.985 . S
H652 N646 0.984 . S
H653 N646 0.984 . S
H654 N642 0.984 . S
H655 N642 0.985 . S
C656 C657 1.363 . S
C656 C662 1.379 . S
C656 N664 1.356 . S
C657 C656 1.363 . S
C657 C663 1.363 . S
C658 C659 1.363 . S
C658 C663 1.379 . S
C658 N665 1.356 . S
C659 C658 1.363 . S
C659 C662 1.363 . S
N660 C662 1.356 . S
N660 H672 0.984 . S
N660 H673 0.985 . S
N661 C663 1.356 . S
N661 H666 0.984 . S
N661 H667 0.985 . S
C662 C656 1.379 . S
C662 C659 1.363 . S
C662 N660 1.356 . S
C663 C657 1.363 . S
C663 C658 1.379 . S
C663 N661 1.356 . S
N664 C656 1.356 . S
N664 H670 0.984 . S
N664 H671 0.984 . S
N665 C658 1.356 . S
N665 H668 0.984 . S
N665 H669 0.985 . S
H666 N661 0.984 . S
H667 N661 0.985 . S
H668 N665 0.984 . S
H669 N665 0.985 . S
H670 N664 0.984 . S
H671 N664 0.984 . S
H672 N660 0.984 . S
H673 N660 0.985 . S
C674 C675 1.363 . S
C674 C680 1.379 . S
C674 N682 1.356 . S
C675 C674 1.363 . S
C675 C681 1.363 1_545 S
C676 C677 1.363 . S
C676 C681 1.379 . S
C676 N683 1.356 . S
C677 C676 1.363 . S
C677 C680 1.363 1_565 S
N678 C680 1.356 . S
N678 H690 0.984 . S
N678 H691 0.985 . S
N679 C681 1.356 . S
N679 H684 0.984 1_565 S
N679 H685 0.985 . S
C680 C674 1.379 . S
C680 C677 1.363 1_545 S
C680 N678 1.356 . S
C681 C675 1.363 1_565 S
C681 C676 1.379 . S
C681 N679 1.356 . S
N682 C674 1.356 . S
N682 H688 0.984 . S
N682 H689 0.984 . S
N683 C676 1.356 . S
N683 H686 0.984 . S
N683 H687 0.985 . S
H684 N679 0.984 1_545 S
H685 N679 0.985 . S
H686 N683 0.984 . S
H687 N683 0.985 . S
H688 N682 0.984 . S
H689 N682 0.984 . S
H690 N678 0.984 . S
H691 N678 0.985 . S
C692 C693 1.363 . S
C692 C698 1.379 1_554 S
C692 N700 1.356 . S
C693 C692 1.363 . S
C693 C699 1.363 1_554 S
C694 C695 1.363 . S
C694 C699 1.379 . S
C694 N701 1.356 . S
C695 C694 1.363 . S
C695 C698 1.363 . S
N696 C698 1.356 . S
N696 H708 0.984 . S
N696 H709 0.985 . S
N697 C699 1.356 . S
N697 H702 0.984 1_556 S
N697 H703 0.985 . S
C698 C692 1.379 1_556 S
C698 C695 1.363 . S
C698 N696 1.356 . S
C699 C693 1.363 1_556 S
C699 C694 1.379 . S
C699 N697 1.356 . S
N700 C692 1.356 . S
N700 H706 0.984 . S
N700 H707 0.984 . S
N701 C694 1.356 . S
N701 H704 0.984 . S
N701 H705 0.985 . S
H702 N697 0.984 1_554 S
H703 N697 0.985 . S
H704 N701 0.984 . S
H705 N701 0.985 . S
H706 N700 0.984 . S
H707 N700 0.984 . S
H708 N696 0.984 . S
H709 N696 0.985 . S
C710 C711 1.363 . S
C710 C716 1.379 1_545 S
C710 N718 1.356 . S
C711 C710 1.363 . S
C711 C717 1.363 1_545 S
C712 C713 1.363 . S
C712 C717 1.379 . S
C712 N719 1.356 . S
C713 C712 1.363 . S
C713 C716 1.363 . S
N714 C716 1.356 . S
N714 H726 0.984 . S
N714 H727 0.985 . S
N715 C717 1.356 1_545 S
N715 H720 0.984 . S
N715 H721 0.985 1_545 S
C716 C710 1.379 1_565 S
C716 C713 1.363 . S
C716 N714 1.356 . S
C717 C711 1.363 1_565 S
C717 C712 1.379 . S
C717 N715 1.356 1_565 S
N718 C710 1.356 . S
N718 H724 0.984 . S
N718 H725 0.984 . S
N719 C712 1.356 . S
N719 H722 0.984 . S
N719 H723 0.985 . S
H720 N715 0.984 . S
H721 N715 0.985 1_565 S
H722 N719 0.984 . S
H723 N719 0.985 . S
H724 N718 0.984 . S
H725 N718 0.984 . S
H726 N714 0.984 . S
H727 N714 0.985 . S
C728 C729 1.363 . S
C728 C734 1.379 . S
C728 N736 1.356 . S
C729 C728 1.363 . S
C729 C735 1.363 . S
C730 C731 1.363 . S
C730 C735 1.379 . S
C730 N737 1.356 . S
C731 C730 1.363 . S
C731 C734 1.363 . S
N732 C734 1.356 . S
N732 H744 0.984 . S
N732 H745 0.985 . S
N733 C735 1.356 . S
N733 H738 0.984 . S
N733 H739 0.985 . S
C734 C728 1.379 . S
C734 C731 1.363 . S
C734 N732 1.356 . S
C735 C729 1.363 . S
C735 C730 1.379 . S
C735 N733 1.356 . S
N736 C728 1.356 . S
N736 H742 0.984 . S
N736 H743 0.984 . S
N737 C730 1.356 . S
N737 H740 0.984 . S
N737 H741 0.985 . S
H738 N733 0.984 . S
H739 N733 0.985 . S
H740 N737 0.984 . S
H741 N737 0.985 . S
H742 N736 0.984 . S
H743 N736 0.984 . S
H744 N732 0.984 . S
H745 N732 0.985 . S
C746 C747 1.363 . S
C746 C752 1.379 . S
C746 N754 1.356 . S
C747 C746 1.363 . S
C747 C753 1.363 1_565 S
C748 C749 1.363 . S
C748 C753 1.379 . S
C748 N755 1.356 . S
C749 C748 1.363 . S
C749 C752 1.363 1_545 S
N750 C752 1.356 . S
N750 H762 0.984 . S
N750 H763 0.985 1_565 S
N751 C753 1.356 . S
N751 H756 0.984 1_545 S
N751 H757 0.985 . S
C752 C746 1.379 . S
C752 C749 1.363 1_565 S
C752 N750 1.356 . S
C753 C747 1.363 1_545 S
C753 C748 1.379 . S
C753 N751 1.356 . S
N754 C746 1.356 . S
N754 H760 0.984 . S
N754 H761 0.984 . S
N755 C748 1.356 . S
N755 H758 0.984 . S
N755 H759 0.985 . S
H756 N751 0.984 1_565 S
H757 N751 0.985 . S
H758 N755 0.984 . S
H759 N755 0.985 . S
H760 N754 0.984 . S
H761 N754 0.984 . S
H762 N750 0.984 . S
H763 N750 0.985 1_545 S
C764 C765 1.363 . S
C764 C770 1.379 . S
C764 N772 1.356 . S
C765 C764 1.363 . S
C765 C771 1.363 . S
C766 C767 1.363 . S
C766 C771 1.379 1_556 S
C766 N773 1.356 . S
C767 C766 1.363 . S
C767 C770 1.363 1_556 S
N768 C770 1.356 . S
N768 H780 0.984 . S
N768 H781 0.985 1_554 S
N769 C771 1.356 . S
N769 H774 0.984 . S
N769 H775 0.985 . S
C770 C764 1.379 . S
C770 C767 1.363 1_554 S
C770 N768 1.356 . S
C771 C765 1.363 . S
C771 C766 1.379 1_554 S
C771 N769 1.356 . S
N772 C764 1.356 . S
N772 H778 0.984 . S
N772 H779 0.984 . S
N773 C766 1.356 . S
N773 H776 0.984 . S
N773 H777 0.985 . S
H774 N769 0.984 . S
H775 N769 0.985 . S
H776 N773 0.984 . S
H777 N773 0.985 . S
H778 N772 0.984 . S
H779 N772 0.984 . S
H780 N768 0.984 . S
H781 N768 0.985 1_556 S
C782 C783 1.363 . S
C782 C788 1.379 . S
C782 N790 1.356 . S
C783 C782 1.363 . S
C783 C789 1.363 1_545 S
C784 C785 1.363 . S
C784 C789 1.379 . S
C784 N791 1.356 . S
C785 C784 1.363 . S
C785 C788 1.363 1_565 S
N786 C788 1.356 . S
N786 H798 0.984 . S
N786 H799 0.985 1_545 S
N787 C789 1.356 . S
N787 H792 0.984 1_565 S
N787 H793 0.985 . S
C788 C782 1.379 . S
C788 C785 1.363 1_545 S
C788 N786 1.356 . S
C789 C783 1.363 1_565 S
C789 C784 1.379 . S
C789 N787 1.356 . S
N790 C782 1.356 . S
N790 H796 0.984 . S
N790 H797 0.984 . S
N791 C784 1.356 . S
N791 H794 0.984 . S
N791 H795 0.985 . S
H792 N787 0.984 1_545 S
H793 N787 0.985 . S
H794 N791 0.984 . S
H795 N791 0.985 . S
H796 N790 0.984 . S
H797 N790 0.984 . S
H798 N786 0.984 . S
H799 N786 0.985 1_565 S
C800 C801 1.363 . S
C800 C806 1.379 . S
C800 N808 1.356 . S
C801 C800 1.363 . S
C801 C807 1.363 . S
C802 C803 1.363 . S
C802 C807 1.379 . S
C802 N809 1.356 . S
C803 C802 1.363 . S
C803 C806 1.363 . S
N804 C806 1.356 . S
N804 H816 0.984 . S
N804 H817 0.985 . S
N805 C807 1.356 . S
N805 H810 0.984 . S
N805 H811 0.985 . S
C806 C800 1.379 . S
C806 C803 1.363 . S
C806 N804 1.356 . S
C807 C801 1.363 . S
C807 C802 1.379 . S
C807 N805 1.356 . S
N808 C800 1.356 . S
N808 H814 0.984 . S
N808 H815 0.984 . S
N809 C802 1.356 . S
N809 H812 0.984 . S
N809 H813 0.985 . S
H810 N805 0.984 . S
H811 N805 0.985 . S
H812 N809 0.984 . S
H813 N809 0.985 . S
H814 N808 0.984 . S
H815 N808 0.984 . S
H816 N804 0.984 . S
H817 N804 0.985 . S
C818 C819 1.363 . S
C818 C824 1.379 . S
C818 N826 1.356 . S
C819 C818 1.363 . S
C819 C825 1.363 . S
C820 C821 1.363 . S
C820 C825 1.379 . S
C820 N827 1.356 . S
C821 C820 1.363 . S
C821 C824 1.363 . S
N822 C824 1.356 . S
N822 H834 0.984 . S
N822 H835 0.985 . S
N823 C825 1.356 . S
N823 H828 0.984 . S
N823 H829 0.985 . S
C824 C818 1.379 . S
C824 C821 1.363 . S
C824 N822 1.356 . S
C825 C819 1.363 . S
C825 C820 1.379 . S
C825 N823 1.356 . S
N826 C818 1.356 . S
N826 H832 0.984 . S
N826 H833 0.984 . S
N827 C820 1.356 . S
N827 H830 0.984 . S
N827 H831 0.985 . S
H828 N823 0.984 . S
H829 N823 0.985 . S
H830 N827 0.984 . S
H831 N827 0.985 . S
H832 N826 0.984 . S
H833 N826 0.984 . S
H834 N822 0.984 . S
H835 N822 0.985 . S
C836 C837 1.363 . S
C836 C842 1.379 1_655 S
C836 N844 1.356 . S
C837 C836 1.363 . S
C837 C843 1.363 . S
C838 C839 1.363 . S
C838 C843 1.379 1_455 S
C838 N845 1.356 . S
C839 C838 1.363 . S
C839 C842 1.363 . S
N840 C842 1.356 . S
N840 H852 0.984 . S
N840 H853 0.985 . S
N841 C843 1.356 . S
N841 H846 0.984 . S
N841 H847 0.985 . S
C842 C836 1.379 1_455 S
C842 C839 1.363 . S
C842 N840 1.356 . S
C843 C837 1.363 . S
C843 C838 1.379 1_655 S
C843 N841 1.356 . S
N844 C836 1.356 . S
N844 H850 0.984 . S
N844 H851 0.984 . S
N845 C838 1.356 . S
N845 H848 0.984 . S
N845 H849 0.985 . S
H846 N841 0.984 . S
H847 N841 0.985 . S
H848 N845 0.984 . S
H849 N845 0.985 . S
H850 N844 0.984 . S
H851 N844 0.984 . S
H852 N840 0.984 . S
H853 N840 0.985 . S
C854 C855 1.363 . S
C854 C860 1.379 . S
C854 N862 1.356 . S
C855 C854 1.363 . S
C855 C861 1.363 1_655 S
C856 C857 1.363 . S
C856 C861 1.379 . S
C856 N863 1.356 . S
C857 C856 1.363 . S
C857 C860 1.363 1_455 S
N858 C860 1.356 1_455 S
N858 H870 0.984 1_455 S
N858 H871 0.985 . S
N859 C861 1.356 1_655 S
N859 H864 0.984 . S
N859 H865 0.985 1_655 S
C860 C854 1.379 . S
C860 C857 1.363 1_655 S
C860 N858 1.356 1_655 S
C861 C855 1.363 1_455 S
C861 C856 1.379 . S
C861 N859 1.356 1_455 S
N862 C854 1.356 . S
N862 H868 0.984 . S
N862 H869 0.984 . S
N863 C856 1.356 . S
N863 H866 0.984 . S
N863 H867 0.985 . S
H864 N859 0.984 . S
H865 N859 0.985 1_455 S
H866 N863 0.984 . S
H867 N863 0.985 . S
H868 N862 0.984 . S
H869 N862 0.984 . S
H870 N858 0.984 1_655 S
H871 N858 0.985 . S
C872 C873 1.363 . S
C872 C878 1.379 . S
C872 N880 1.356 . S
C873 C872 1.363 . S
C873 C879 1.363 . S
C874 C875 1.363 . S
C874 C879 1.379 . S
C874 N881 1.356 . S
C875 C874 1.363 . S
C875 C878 1.363 . S
N876 C878 1.356 . S
N876 H888 0.984 . S
N876 H889 0.985 . S
N877 C879 1.356 . S
N877 H882 0.984 . S
N877 H883 0.985 . S
C878 C872 1.379 . S
C878 C875 1.363 . S
C878 N876 1.356 . S
C879 C873 1.363 . S
C879 C874 1.379 . S
C879 N877 1.356 . S
N880 C872 1.356 . S
N880 H886 0.984 . S
N880 H887 0.984 . S
N881 C874 1.356 . S
N881 H884 0.984 . S
N881 H885 0.985 . S
H882 N877 0.984 . S
H883 N877 0.985 . S
H884 N881 0.984 . S
H885 N881 0.985 . S
H886 N880 0.984 . S
H887 N880 0.984 . S
H888 N876 0.984 . S
H889 N876 0.985 . S
C890 C891 1.363 . S
C890 C896 1.379 . S
C890 N898 1.356 . S
C891 C890 1.363 . S
C891 C897 1.363 . S
C892 C893 1.363 . S
C892 C897 1.379 . S
C892 N899 1.356 . S
C893 C892 1.363 . S
C893 C896 1.363 . S
N894 C896 1.356 . S
N894 H906 0.984 . S
N894 H907 0.985 . S
N895 C897 1.356 . S
N895 H900 0.984 . S
N895 H901 0.985 . S
C896 C890 1.379 . S
C896 C893 1.363 . S
C896 N894 1.356 . S
C897 C891 1.363 . S
C897 C892 1.379 . S
C897 N895 1.356 . S
N898 C890 1.356 . S
N898 H904 0.984 . S
N898 H905 0.984 . S
N899 C892 1.356 . S
N899 H902 0.984 . S
N899 H903 0.985 . S
H900 N895 0.984 . S
H901 N895 0.985 . S
H902 N899 0.984 . S
H903 N899 0.985 . S
H904 N898 0.984 . S
H905 N898 0.984 . S
H906 N894 0.984 . S
H907 N894 0.985 . S
C908 C909 1.363 . S
C908 C914 1.379 1_455 S
C908 N916 1.356 . S
C909 C908 1.363 . S
C909 C915 1.363 . S
C910 C911 1.363 . S
C910 C915 1.379 1_655 S
C910 N917 1.356 . S
C911 C910 1.363 . S
C911 C914 1.363 . S
N912 C914 1.356 . S
N912 H924 0.984 . S
N912 H925 0.985 . S
N913 C915 1.356 . S
N913 H918 0.984 . S
N913 H919 0.985 . S
C914 C908 1.379 1_655 S
C914 C911 1.363 . S
C914 N912 1.356 . S
C915 C909 1.363 . S
C915 C910 1.379 1_455 S
C915 N913 1.356 . S
N916 C908 1.356 . S
N916 H922 0.984 . S
N916 H923 0.984 . S
N917 C910 1.356 . S
N917 H920 0.984 . S
N917 H921 0.985 . S
H918 N913 0.984 . S
H919 N913 0.985 . S
H920 N917 0.984 . S
H921 N917 0.985 . S
H922 N916 0.984 . S
H923 N916 0.984 . S
H924 N912 0.984 . S
H925 N912 0.985 . S
C926 C927 1.363 1_655 S
C926 C932 1.379 . S
C926 N934 1.356 1_655 S
C927 C926 1.363 1_455 S
C927 C933 1.363 . S
C928 C929 1.363 1_455 S
C928 C933 1.379 . S
C928 N935 1.356 1_455 S
C929 C928 1.363 1_655 S
C929 C932 1.363 . S
N930 C932 1.356 . S
N930 H942 0.984 . S
N930 H943 0.985 . S
N931 C933 1.356 . S
N931 H936 0.984 . S
N931 H937 0.985 . S
C932 C926 1.379 . S
C932 C929 1.363 . S
C932 N930 1.356 . S
C933 C927 1.363 . S
C933 C928 1.379 . S
C933 N931 1.356 . S
N934 C926 1.356 1_455 S
N934 H940 0.984 1_455 S
N934 H941 0.984 . S
N935 C928 1.356 1_655 S
N935 H938 0.984 . S
N935 H939 0.985 1_655 S
H936 N931 0.984 . S
H937 N931 0.985 . S
H938 N935 0.984 . S
H939 N935 0.985 1_455 S
H940 N934 0.984 1_655 S
H941 N934 0.984 . S
H942 N930 0.984 . S
H943 N930 0.985 . S
C944 C945 1.363 . S
C944 C950 1.379 . S
C944 N952 1.356 . S
C945 C944 1.363 . S
C945 C951 1.363 . S
C946 C947 1.363 . S
C946 C951 1.379 . S
C946 N953 1.356 . S
C947 C946 1.363 . S
C947 C950 1.363 . S
N948 C950 1.356 . S
N948 H960 0.984 . S
N948 H961 0.985 . S
N949 C951 1.356 . S
N949 H954 0.984 . S
N949 H955 0.985 . S
C950 C944 1.379 . S
C950 C947 1.363 . S
C950 N948 1.356 . S
C951 C945 1.363 . S
C951 C946 1.379 . S
C951 N949 1.356 . S
N952 C944 1.356 . S
N952 H958 0.984 . S
N952 H959 0.984 . S
N953 C946 1.356 . S
N953 H956 0.984 . S
N953 H957 0.985 . S
H954 N949 0.984 . S
H955 N949 0.985 . S
H956 N953 0.984 . S
H957 N953 0.985 . S
H958 N952 0.984 . S
H959 N952 0.984 . S
H960 N948 0.984 . S
H961 N948 0.985 . S
C962 C963 1.363 . S
C962 C968 1.379 . S
C962 N970 1.356 . S
C963 C962 1.363 . S
C963 C969 1.363 . S
C964 C965 1.363 . S
C964 C969 1.379 . S
C964 N971 1.356 . S
C965 C964 1.363 . S
C965 C968 1.363 . S
N966 C968 1.356 . S
N966 H978 0.984 . S
N966 H979 0.985 . S
N967 C969 1.356 . S
N967 H972 0.984 . S
N967 H973 0.985 . S
C968 C962 1.379 . S
C968 C965 1.363 . S
C968 N966 1.356 . S
C969 C963 1.363 . S
C969 C964 1.379 . S
C969 N967 1.356 . S
N970 C962 1.356 . S
N970 H976 0.984 . S
N970 H977 0.984 . S
N971 C964 1.356 . S
N971 H974 0.984 . S
N971 H975 0.985 . S
H972 N967 0.984 . S
H973 N967 0.985 . S
H974 N971 0.984 . S
H975 N971 0.985 . S
H976 N970 0.984 . S
H977 N970 0.984 . S
H978 N966 0.984 . S
H979 N966 0.985 . S
C980 C981 1.363 . S
C980 C986 1.379 . S
C980 N988 1.356 . S
C981 C980 1.363 . S
C981 C987 1.363 . S
C982 C983 1.363 . S
C982 C987 1.379 . S
C982 N989 1.356 . S
C983 C982 1.363 . S
C983 C986 1.363 . S
N984 C986 1.356 . S
N984 H996 0.984 . S
N984 H997 0.985 . S
N985 C987 1.356 . S
N985 H990 0.984 . S
N985 H991 0.985 . S
C986 C980 1.379 . S
C986 C983 1.363 . S
C986 N984 1.356 . S
C987 C981 1.363 . S
C987 C982 1.379 . S
C987 N985 1.356 . S
N988 C980 1.356 . S
N988 H994 0.984 . S
N988 H995 0.984 . S
N989 C982 1.356 . S
N989 H992 0.984 . S
N989 H993 0.985 . S
H990 N985 0.984 . S
H991 N985 0.985 . S
H992 N989 0.984 . S
H993 N989 0.985 . S
H994 N988 0.984 . S
H995 N988 0.984 . S
H996 N984 0.984 . S
H997 N984 0.985 . S
C998 C999 1.363 . S
C998 C1004 1.379 . S
C998 N1006 1.356 . S
C999 C998 1.363 . S
C999 C1005 1.363 . S
C1000 C1001 1.363 . S
C1000 C1005 1.379 . S
C1000 N1007 1.356 . S
C1001 C1000 1.363 . S
C1001 C1004 1.363 . S
N1002 C1004 1.356 . S
N1002 H1014 0.984 . S
N1002 H1015 0.985 . S
N1003 C1005 1.356 . S
N1003 H1008 0.984 . S
N1003 H1009 0.985 . S
C1004 C998 1.379 . S
C1004 C1001 1.363 . S
C1004 N1002 1.356 . S
C1005 C999 1.363 . S
C1005 C1000 1.379 . S
C1005 N1003 1.356 . S
N1006 C998 1.356 . S
N1006 H1012 0.984 . S
N1006 H1013 0.984 1_455 S
N1007 C1000 1.356 . S
N1007 H1010 0.984 . S
N1007 H1011 0.985 . S
H1008 N1003 0.984 . S
H1009 N1003 0.985 . S
H1010 N1007 0.984 . S
H1011 N1007 0.985 . S
H1012 N1006 0.984 . S
H1013 N1006 0.984 1_655 S
H1014 N1002 0.984 . S
H1015 N1002 0.985 . S
C1016 C1017 1.363 . S
C1016 C1022 1.379 . S
C1016 N1024 1.356 . S
C1017 C1016 1.363 . S
C1017 C1023 1.363 . S
C1018 C1019 1.363 . S
C1018 C1023 1.379 . S
C1018 N1025 1.356 . S
C1019 C1018 1.363 . S
C1019 C1022 1.363 . S
N1020 C1022 1.356 . S
N1020 H1032 0.984 . S
N1020 H1033 0.985 . S
N1021 C1023 1.356 . S
N1021 H1026 0.984 . S
N1021 H1027 0.985 . S
C1022 C1016 1.379 . S
C1022 C1019 1.363 . S
C1022 N1020 1.356 . S
C1023 C1017 1.363 . S
C1023 C1018 1.379 . S
C1023 N1021 1.356 . S
N1024 C1016 1.356 . S
N1024 H1030 0.984 . S
N1024 H1031 0.984 . S
N1025 C1018 1.356 . S
N1025 H1028 0.984 . S
N1025 H1029 0.985 . S
H1026 N1021 0.984 . S
H1027 N1021 0.985 . S
H1028 N1025 0.984 . S
H1029 N1025 0.985 . S
H1030 N1024 0.984 . S
H1031 N1024 0.984 . S
H1032 N1020 0.984 . S
H1033 N1020 0.985 . S
C1034 C1035 1.363 . S
C1034 C1040 1.379 . S
C1034 N1042 1.356 . S
C1035 C1034 1.363 . S
C1035 C1041 1.363 . S
C1036 C1037 1.363 . S
C1036 C1041 1.379 . S
C1036 N1043 1.356 . S
C1037 C1036 1.363 . S
C1037 C1040 1.363 . S
N1038 C1040 1.356 . S
N1038 H1050 0.984 . S
N1038 H1051 0.985 . S
N1039 C1041 1.356 . S
N1039 H1044 0.984 . S
N1039 H1045 0.985 . S
C1040 C1034 1.379 . S
C1040 C1037 1.363 . S
C1040 N1038 1.356 . S
C1041 C1035 1.363 . S
C1041 C1036 1.379 . S
C1041 N1039 1.356 . S
N1042 C1034 1.356 . S
N1042 H1048 0.984 . S
N1042 H1049 0.984 . S
N1043 C1036 1.356 . S
N1043 H1046 0.984 . S
N1043 H1047 0.985 . S
H1044 N1039 0.984 . S
H1045 N1039 0.985 . S
H1046 N1043 0.984 . S
H1047 N1043 0.985 . S
H1048 N1042 0.984 . S
H1049 N1042 0.984 . S
H1050 N1038 0.984 . S
H1051 N1038 0.985 . S
C1052 C1053 1.363 . S
C1052 C1058 1.379 . S
C1052 N1060 1.356 . S
C1053 C1052 1.363 . S
C1053 C1059 1.363 . S
C1054 C1055 1.363 . S
C1054 C1059 1.379 . S
C1054 N1061 1.356 . S
C1055 C1054 1.363 . S
C1055 C1058 1.363 . S
N1056 C1058 1.356 . S
N1056 H1068 0.984 . S
N1056 H1069 0.985 . S
N1057 C1059 1.356 . S
N1057 H1062 0.984 . S
N1057 H1063 0.985 . S
C1058 C1052 1.379 . S
C1058 C1055 1.363 . S
C1058 N1056 1.356 . S
C1059 C1053 1.363 . S
C1059 C1054 1.379 . S
C1059 N1057 1.356 . S
N1060 C1052 1.356 . S
N1060 H1066 0.984 . S
N1060 H1067 0.984 . S
N1061 C1054 1.356 . S
N1061 H1064 0.984 . S
N1061 H1065 0.985 . S
H1062 N1057 0.984 . S
H1063 N1057 0.985 . S
H1064 N1061 0.984 . S
H1065 N1061 0.985 . S
H1066 N1060 0.984 . S
H1067 N1060 0.984 . S
H1068 N1056 0.984 . S
H1069 N1056 0.985 . S
C1070 C1071 1.363 . S
C1070 C1076 1.379 . S
C1070 N1078 1.356 . S
C1071 C1070 1.363 . S
C1071 C1077 1.363 . S
C1072 C1073 1.363 . S
C1072 C1077 1.379 . S
C1072 N1079 1.356 . S
C1073 C1072 1.363 . S
C1073 C1076 1.363 . S
N1074 C1076 1.356 . S
N1074 H1086 0.984 . S
N1074 H1087 0.985 . S
N1075 C1077 1.356 . S
N1075 H1080 0.984 . S
N1075 H1081 0.985 . S
C1076 C1070 1.379 . S
C1076 C1073 1.363 . S
C1076 N1074 1.356 . S
C1077 C1071 1.363 . S
C1077 C1072 1.379 . S
C1077 N1075 1.356 . S
N1078 C1070 1.356 . S
N1078 H1084 0.984 . S
N1078 H1085 0.984 . S
N1079 C1072 1.356 . S
N1079 H1082 0.984 . S
N1079 H1083 0.985 . S
H1080 N1075 0.984 . S
H1081 N1075 0.985 . S
H1082 N1079 0.984 . S
H1083 N1079 0.985 . S
H1084 N1078 0.984 . S
H1085 N1078 0.984 . S
H1086 N1074 0.984 . S
H1087 N1074 0.985 . S
C1088 C1089 1.363 . S
C1088 C1094 1.379 . S
C1088 N1096 1.356 . S
C1089 C1088 1.363 . S
C1089 C1095 1.363 . S
C1090 C1091 1.363 . S
C1090 C1095 1.379 . S
C1090 N1097 1.356 . S
C1091 C1090 1.363 . S
C1091 C1094 1.363 . S
N1092 C1094 1.356 . S
N1092 H1104 0.984 . S
N1092 H1105 0.985 . S
N1093 C1095 1.356 . S
N1093 H1098 0.984 . S
N1093 H1099 0.985 . S
C1094 C1088 1.379 . S
C1094 C1091 1.363 . S
C1094 N1092 1.356 . S
C1095 C1089 1.363 . S
C1095 C1090 1.379 . S
C1095 N1093 1.356 . S
N1096 C1088 1.356 . S
N1096 H1102 0.984 . S
N1096 H1103 0.984 . S
N1097 C1090 1.356 . S
N1097 H1100 0.984 . S
N1097 H1101 0.985 . S
H1098 N1093 0.984 . S
H1099 N1093 0.985 . S
H1100 N1097 0.984 . S
H1101 N1097 0.985 . S
H1102 N1096 0.984 . S
H1103 N1096 0.984 . S
H1104 N1092 0.984 . S
H1105 N1092 0.985 . S
C1106 C1107 1.363 . S
C1106 C1112 1.379 . S
C1106 N1114 1.356 . S
C1107 C1106 1.363 . S
C1107 C1113 1.363 . S
C1108 C1109 1.370 . S
C1108 C1113 1.385 . S
C1108 N1115 1.343 1_565 S
C1109 C1108 1.370 . S
C1109 C1112 1.363 . S
N1110 C1112 1.356 . S
N1110 H1122 0.984 . S
N1110 H1123 0.998 . S
N1111 C1113 1.356 . S
N1111 H1116 0.984 . S
N1111 H1117 0.985 1_565 S
C1112 C1106 1.379 . S
C1112 C1109 1.363 . S
C1112 N1110 1.356 . S
C1113 C1107 1.363 . S
C1113 C1108 1.385 . S
C1113 N1111 1.356 . S
N1114 C1106 1.356 . S
N1114 H1120 0.984 . S
N1114 H1121 0.984 . S
N1115 C1108 1.343 1_545 S
N1115 H1118 0.984 . S
N1115 H1119 0.985 . S
H1116 N1111 0.984 . S
H1117 N1111 0.985 1_545 S
H1118 N1115 0.984 . S
H1119 N1115 0.985 . S
H1120 N1114 0.984 . S
H1121 N1114 0.984 . S
H1122 N1110 0.984 . S
H1123 N1110 0.998 . S
C1124 C1125 1.363 . S
C1124 C1130 1.379 . S
C1124 N1132 1.356 . S
C1125 C1124 1.363 . S
C1125 C1131 1.363 . S
C1126 C1127 1.363 . S
C1126 C1131 1.379 . S
C1126 N1133 1.356 . S
C1127 C1126 1.363 . S
C1127 C1130 1.363 . S
N1128 C1130 1.356 . S
N1128 H1140 0.984 . S
N1128 H1141 0.985 . S
N1129 C1131 1.356 . S
N1129 H1134 0.984 . S
N1129 H1135 0.985 . S
C1130 C1124 1.379 . S
C1130 C1127 1.363 . S
C1130 N1128 1.356 . S
C1131 C1125 1.363 . S
C1131 C1126 1.379 . S
C1131 N1129 1.356 . S
N1132 C1124 1.356 . S
N1132 H1138 0.984 . S
N1132 H1139 0.984 . S
N1133 C1126 1.356 . S
N1133 H1136 0.984 . S
N1133 H1137 0.985 . S
H1134 N1129 0.984 . S
H1135 N1129 0.985 . S
H1136 N1133 0.984 . S
H1137 N1133 0.985 . S
H1138 N1132 0.984 . S
H1139 N1132 0.984 . S
H1140 N1128 0.984 . S
H1141 N1128 0.985 . S
C1142 C1143 1.363 . S
C1142 C1148 1.379 . S
C1142 N1150 1.356 1_545 S
C1143 C1142 1.363 . S
C1143 C1149 1.363 . S
C1144 C1145 1.363 . S
C1144 C1149 1.379 . S
C1144 N1151 1.356 . S
C1145 C1144 1.363 . S
C1145 C1148 1.363 . S
N1146 C1148 1.356 . S
N1146 H1158 0.984 . S
N1146 H1159 0.985 . S
N1147 C1149 1.356 . S
N1147 H1152 0.984 . S
N1147 H1153 0.985 . S
C1148 C1142 1.379 . S
C1148 C1145 1.363 . S
C1148 N1146 1.356 . S
C1149 C1143 1.363 . S
C1149 C1144 1.379 . S
C1149 N1147 1.356 . S
N1150 C1142 1.356 1_565 S
N1150 H1156 0.984 . S
N1150 H1157 0.984 . S
N1151 C1144 1.356 . S
N1151 H1154 0.984 . S
N1151 H1155 0.985 . S
H1152 N1147 0.984 . S
H1153 N1147 0.985 . S
H1154 N1151 0.984 . S
H1155 N1151 0.985 . S
H1156 N1150 0.984 . S
H1157 N1150 0.984 . S
H1158 N1146 0.984 . S
H1159 N1146 0.985 . S
C1160 C1161 1.363 . S
C1160 C1166 1.379 . S
C1160 N1168 1.356 . S
C1161 C1160 1.363 . S
C1161 C1167 1.363 . S
C1162 C1163 1.363 . S
C1162 C1167 1.379 . S
C1162 N1169 1.356 . S
C1163 C1162 1.363 . S
C1163 C1166 1.363 . S
N1164 C1166 1.356 . S
N1164 H1176 0.984 . S
N1164 H1177 0.985 . S
N1165 C1167 1.356 . S
N1165 H1170 0.984 . S
N1165 H1171 0.985 . S
C1166 C1160 1.379 . S
C1166 C1163 1.363 . S
C1166 N1164 1.356 . S
C1167 C1161 1.363 . S
C1167 C1162 1.379 . S
C1167 N1165 1.356 . S
N1168 C1160 1.356 . S
N1168 H1174 0.984 . S
N1168 H1175 0.984 . S
N1169 C1162 1.356 . S
N1169 H1172 0.984 . S
N1169 H1173 0.985 . S
H1170 N1165 0.984 . S
H1171 N1165 0.985 . S
H1172 N1169 0.984 . S
H1173 N1169 0.985 . S
H1174 N1168 0.984 . S
H1175 N1168 0.984 . S
H1176 N1164 0.984 . S
H1177 N1164 0.985 . S
C1178 C1179 1.363 . S
C1178 C1184 1.379 . S
C1178 N1186 1.356 . S
C1179 C1178 1.363 . S
C1179 C1185 1.366 . S
C1180 C1181 1.363 . S
C1180 C1185 1.381 . S
C1180 N1187 1.356 . S
C1181 C1180 1.363 . S
C1181 C1184 1.363 . S
N1182 C1184 1.356 . S
N1182 H1194 0.984 . S
N1182 H1195 0.985 . S
N1183 C1185 1.352 1_565 S
N1183 H1188 0.984 . S
N1183 H1189 0.985 . S
C1184 C1178 1.379 . S
C1184 C1181 1.363 . S
C1184 N1182 1.356 . S
C1185 C1179 1.366 . S
C1185 C1180 1.381 . S
C1185 N1183 1.352 1_545 S
N1186 C1178 1.356 . S
N1186 H1192 0.984 . S
N1186 H1193 0.984 1_455 S
N1187 C1180 1.356 . S
N1187 H1190 0.984 . S
N1187 H1191 0.985 1_545 S
H1188 N1183 0.984 . S
H1189 N1183 0.985 . S
H1190 N1187 0.984 . S
H1191 N1187 0.985 1_565 S
H1192 N1186 0.984 . S
H1193 N1186 0.984 1_655 S
H1194 N1182 0.984 . S
H1195 N1182 0.985 . S
C1196 C1197 1.363 . S
C1196 C1202 1.379 . S
C1196 N1204 1.356 . S
C1197 C1196 1.363 . S
C1197 C1203 1.363 . S
C1198 C1199 1.363 . S
C1198 C1203 1.379 . S
C1198 N1205 1.356 . S
C1199 C1198 1.363 . S
C1199 C1202 1.363 . S
N1200 C1202 1.356 . S
N1200 H1212 0.984 . S
N1200 H1213 0.985 . S
N1201 C1203 1.356 . S
N1201 H1206 0.984 . S
N1201 H1207 0.985 . S
C1202 C1196 1.379 . S
C1202 C1199 1.363 . S
C1202 N1200 1.356 . S
C1203 C1197 1.363 . S
C1203 C1198 1.379 . S
C1203 N1201 1.356 . S
N1204 C1196 1.356 . S
N1204 H1210 0.984 . S
N1204 H1211 0.984 . S
N1205 C1198 1.356 . S
N1205 H1208 0.984 . S
N1205 H1209 0.985 . S
H1206 N1201 0.984 . S
H1207 N1201 0.985 . S
H1208 N1205 0.984 . S
H1209 N1205 0.985 . S
H1210 N1204 0.984 . S
H1211 N1204 0.984 . S
H1212 N1200 0.984 . S
H1213 N1200 0.985 . S
C1214 C1215 1.363 . S
C1214 C1220 1.379 . S
C1214 N1222 1.356 . S
C1215 C1214 1.363 . S
C1215 C1221 1.363 . S
C1216 C1217 1.363 . S
C1216 C1221 1.379 . S
C1216 N1223 1.356 . S
C1217 C1216 1.363 . S
C1217 C1220 1.363 . S
N1218 C1220 1.356 . S
N1218 H1230 0.984 . S
N1218 H1231 0.985 . S
N1219 C1221 1.356 . S
N1219 H1224 0.984 . S
N1219 H1225 0.985 . S
C1220 C1214 1.379 . S
C1220 C1217 1.363 . S
C1220 N1218 1.356 . S
C1221 C1215 1.363 . S
C1221 C1216 1.379 . S
C1221 N1219 1.356 . S
N1222 C1214 1.356 . S
N1222 H1228 0.984 . S
N1222 H1229 0.984 . S
N1223 C1216 1.356 . S
N1223 H1226 0.984 . S
N1223 H1227 0.985 . S
H1224 N1219 0.984 . S
H1225 N1219 0.985 . S
H1226 N1223 0.984 . S
H1227 N1223 0.985 . S
H1228 N1222 0.984 . S
H1229 N1222 0.984 . S
H1230 N1218 0.984 . S
H1231 N1218 0.985 . S
C369 C16 1.160 . S
C371 C292 1.160 . S
C387 C131 1.160 . S
C389 C39 1.160 . S
C405 C62 1.160 . S
C407 C338 1.160 . S
C423 C85 1.160 . S
C425 C177 1.160 . S
C441 C108 1.160 . S
C443 C200 1.160 . S
C459 C246 1.160 . S
C461 C154 1.160 . S
C477 C315 1.160 . S
C479 C223 1.160 . S
C495 C269 1.160 . S
C497 C361 1.160 . S
C513 C225 1.771 . S
C515 C17 1.670 . S
C531 C40 1.670 . S
C533 C248 1.771 . S
C549 C63 1.670 . S
C551 C271 1.771 . S
C567 C202 1.771 . S
C569 C86 1.670 . S
C585 C317 1.771 . S
C587 C109 1.670 . S
C603 C340 1.771 . S
C605 C132 1.670 . S
C621 C155 1.670 . S
C623 C363 1.771 . S
C639 C294 1.771 . S
C641 C178 1.670 . S
C657 C201 1.670 . S
C659 C41 1.771 . S
C675 C224 1.670 . S
C677 C64 1.771 . S
C693 C247 1.670 . S
C695 C87 1.771 . S
C711 C18 1.771 . S
C713 C270 1.670 . S
C729 C133 1.771 . S
C731 C293 1.670 . S
C747 C316 1.670 . S
C749 C156 1.771 . S
C765 C179 1.771 . S
C767 C339 1.670 . S
C783 C362 1.670 . S
C785 C110 1.771 . S
C801 C20 1.434 . S
C803 C250 1.434 . S
C819 C43 1.434 . S
C821 C273 1.434 . S
C837 C204 1.434 . S
C839 C66 1.434 . S
C855 C89 1.434 . S
C857 C227 1.434 . S
C873 C112 1.434 . S
C875 C342 1.434 . S
C891 C135 1.434 . S
C893 C365 1.434 . S
C909 C296 1.434 . S
C911 C158 1.434 . S
C927 C181 1.434 . S
C929 C319 1.434 . S
C945 C21 1.378 . S
C947 C180 1.332 . S
C963 C295 1.332 . S
C965 C44 1.378 . S
C981 C67 1.378 . S
C983 C134 1.332 . S
C999 C90 1.378 . S
C1001 C341 1.332 . S
C1017 C113 1.378 . S
C1019 C88 1.332 . S
C1035 C203 1.332 . S
C1037 C136 1.378 . S
C1053 C159 1.378 . S
C1055 C42 1.332 . S
C1071 C249 1.332 . S
C1073 C182 1.378 . S
C1089 C205 1.378 . S
C1091 C364 1.332 . S
C1107 C111 1.332 . S
C1109 C228 1.378 . S
C1125 C318 1.332 . S
C1127 C251 1.378 . S
C1143 C274 1.378 . S
C1145 C157 1.332 . S
C1161 C297 1.378 . S
C1163 C272 1.332 . S
C1179 C320 1.378 . S
C1181 C19 1.332 . S
C1197 C226 1.332 . S
C1199 C343 1.378 . S
C1215 C65 1.332 . S
C1217 C366 1.378 . S
