# Generated by pormake.
# Topology pcb, (4)-cn, num edge types: 1
# Building blocks:
#     Node 0, Type 0, BuildingBlock: CEKHIL_clean_sbu_0, # of connection points: 4
#     Node 1, Type 0, BuildingBlock: CEKHIL_clean_sbu_0, # of connection points: 4
#     Node 2, Type 0, BuildingBlock: CEKHIL_clean_sbu_0, # of connection points: 4
#     Node 3, Type 0, BuildingBlock: CEKHIL_clean_sbu_0, # of connection points: 4
#     Node 4, Type 0, BuildingBlock: CEKHIL_clean_sbu_0, # of connection points: 4
#     Node 5, Type 0, BuildingBlock: CEKHIL_clean_sbu_0, # of connection points: 4
#     Node 6, Type 0, BuildingBlock: CEKHIL_clean_sbu_0, # of connection points: 4
#     Node 7, Type 0, BuildingBlock: CEKHIL_clean_sbu_0, # of connection points: 4
#     Node 8, Type 0, BuildingBlock: CEKHIL_clean_sbu_0, # of connection points: 4
#     Node 9, Type 0, BuildingBlock: CEKHIL_clean_sbu_0, # of connection points: 4
#     Node 10, Type 0, BuildingBlock: CEKHIL_clean_sbu_0, # of connection points: 4
#     Node 11, Type 0, BuildingBlock: CEKHIL_clean_sbu_0, # of connection points: 4
#     Node 12, Type 0, BuildingBlock: CEKHIL_clean_sbu_0, # of connection points: 4
#     Node 13, Type 0, BuildingBlock: CEKHIL_clean_sbu_0, # of connection points: 4
#     Node 14, Type 0, BuildingBlock: CEKHIL_clean_sbu_0, # of connection points: 4
#     Node 15, Type 0, BuildingBlock: CEKHIL_clean_sbu_0, # of connection points: 4
#     Edge 16, Type (0, 0), BuildingBlock: KIFKEQ_clean_linker_1, # of connection points: 2
#     Edge 17, Type (0, 0), BuildingBlock: KIFKEQ_clean_linker_1, # of connection points: 2
#     Edge 18, Type (0, 0), BuildingBlock: KIFKEQ_clean_linker_1, # of connection points: 2
#     Edge 19, Type (0, 0), BuildingBlock: KIFKEQ_clean_linker_1, # of connection points: 2
#     Edge 20, Type (0, 0), BuildingBlock: KIFKEQ_clean_linker_1, # of connection points: 2
#     Edge 21, Type (0, 0), BuildingBlock: KIFKEQ_clean_linker_1, # of connection points: 2
#     Edge 22, Type (0, 0), BuildingBlock: KIFKEQ_clean_linker_1, # of connection points: 2
#     Edge 23, Type (0, 0), BuildingBlock: KIFKEQ_clean_linker_1, # of connection points: 2
#     Edge 24, Type (0, 0), BuildingBlock: KIFKEQ_clean_linker_1, # of connection points: 2
#     Edge 25, Type (0, 0), BuildingBlock: KIFKEQ_clean_linker_1, # of connection points: 2
#     Edge 26, Type (0, 0), BuildingBlock: KIFKEQ_clean_linker_1, # of connection points: 2
#     Edge 27, Type (0, 0), BuildingBlock: KIFKEQ_clean_linker_1, # of connection points: 2
#     Edge 28, Type (0, 0), BuildingBlock: KIFKEQ_clean_linker_1, # of connection points: 2
#     Edge 29, Type (0, 0), BuildingBlock: KIFKEQ_clean_linker_1, # of connection points: 2
#     Edge 30, Type (0, 0), BuildingBlock: KIFKEQ_clean_linker_1, # of connection points: 2
#     Edge 31, Type (0, 0), BuildingBlock: KIFKEQ_clean_linker_1, # of connection points: 2
#     Edge 32, Type (0, 0), BuildingBlock: KIFKEQ_clean_linker_1, # of connection points: 2
#     Edge 33, Type (0, 0), BuildingBlock: KIFKEQ_clean_linker_1, # of connection points: 2
#     Edge 34, Type (0, 0), BuildingBlock: KIFKEQ_clean_linker_1, # of connection points: 2
#     Edge 35, Type (0, 0), BuildingBlock: KIFKEQ_clean_linker_1, # of connection points: 2
#     Edge 36, Type (0, 0), BuildingBlock: KIFKEQ_clean_linker_1, # of connection points: 2
#     Edge 37, Type (0, 0), BuildingBlock: KIFKEQ_clean_linker_1, # of connection points: 2
#     Edge 38, Type (0, 0), BuildingBlock: KIFKEQ_clean_linker_1, # of connection points: 2
#     Edge 39, Type (0, 0), BuildingBlock: KIFKEQ_clean_linker_1, # of connection points: 2
#     Edge 40, Type (0, 0), BuildingBlock: KIFKEQ_clean_linker_1, # of connection points: 2
#     Edge 41, Type (0, 0), BuildingBlock: KIFKEQ_clean_linker_1, # of connection points: 2
#     Edge 42, Type (0, 0), BuildingBlock: KIFKEQ_clean_linker_1, # of connection points: 2
#     Edge 43, Type (0, 0), BuildingBlock: KIFKEQ_clean_linker_1, # of connection points: 2
#     Edge 44, Type (0, 0), BuildingBlock: KIFKEQ_clean_linker_1, # of connection points: 2
#     Edge 45, Type (0, 0), BuildingBlock: KIFKEQ_clean_linker_1, # of connection points: 2
#     Edge 46, Type (0, 0), BuildingBlock: KIFKEQ_clean_linker_1, # of connection points: 2
#     Edge 47, Type (0, 0), BuildingBlock: KIFKEQ_clean_linker_1, # of connection points: 2
# Relax obj value: 0.234
# Max RMSD: 0.083
# Mean RMSD: 0.083
data_MOF--net-pcb--node1-CEKHIL_clean_sbu_0--edge1-KIFKEQ_clean_linker_1
_symmetry_space_group_name_H-M    P1
_symmetry_Int_Tables_number       1
_symmetry_cell_setting            triclinic
loop_
_symmetry_equiv_pos_as_xyz
'x, y, z'
_cell_length_a     57.426209
_cell_length_b     37.466302
_cell_length_c     37.467178
_cell_angle_alpha  90.001055
_cell_angle_beta   90.040197
_cell_angle_gamma 89.98749
loop_
_atom_site_label
_atom_site_type_symbol
_atom_site_fract_x
_atom_site_fract_y
_atom_site_fract_z
_atom_type_partial_charge
Co0 Co 0.13976 0.1919 0.19335 0.0
O1 O 0.17284 0.18951 0.18586 0.0
O2 O 0.15486 0.23546 0.21027 0.0
C3 C 0.13796 0.13616 0.21611 0.0
O4 O 0.10554 0.2029 0.20619 0.0
Co5 Co 0.10637 0.13895 0.15619 0.0
O6 O 0.08469 0.15357 0.19439 0.0
C7 C 0.12482 0.20107 0.11609 0.0
C8 C 0.17439 0.22074 0.20038 0.0
C9 C 0.08664 0.1843 0.20853 0.0
O10 O 0.13552 0.2127 0.14398 0.0
O11 O 0.11313 0.17197 0.11541 0.0
O12 O 0.14299 0.16294 0.23672 0.0
O13 O 0.13497 0.14359 0.18283 0.0
Co14 Co 0.87016 0.19194 0.19591 0.0
O15 O 0.83713 0.18277 0.19424 0.0
O16 O 0.85478 0.21242 0.23746 0.0
C17 C 0.87276 0.21002 0.13842 0.0
O18 O 0.90415 0.20703 0.20589 0.0
Co19 Co 0.90448 0.15074 0.14643 0.0
O20 O 0.92553 0.19072 0.15832 0.0
C21 C 0.88636 0.11634 0.21215 0.0
C22 C 0.83543 0.20031 0.22391 0.0
C23 C 0.92319 0.20777 0.18747 0.0
O24 O 0.87527 0.14481 0.22131 0.0
O25 O 0.89795 0.11327 0.18314 0.0
O26 O 0.86616 0.23233 0.16294 0.0
O27 O 0.87596 0.17764 0.14895 0.0
Co28 Co 0.86989 0.81119 0.1941 0.0
O29 O 0.83667 0.8165 0.19045 0.0
O30 O 0.85452 0.76716 0.20786 0.0
C31 C 0.87607 0.86383 0.22204 0.0
O32 O 0.90392 0.79653 0.20196 0.0
Co33 Co 0.90226 0.86638 0.15572 0.0
O34 O 0.92742 0.83961 0.18002 0.0
C35 C 0.87553 0.81358 0.11413 0.0
C36 C 0.83504 0.78379 0.20144 0.0
C37 C 0.92421 0.81022 0.19641 0.0
O38 O 0.87129 0.79526 0.14248 0.0
O39 O 0.88509 0.84444 0.11466 0.0
O40 O 0.86955 0.83621 0.24049 0.0
O41 O 0.87665 0.85933 0.18804 0.0
Co42 Co 0.14012 0.8057 0.19649 0.0
O43 O 0.17313 0.81466 0.19363 0.0
O44 O 0.15592 0.78503 0.23736 0.0
C45 C 0.13637 0.78808 0.1391 0.0
O46 O 0.10654 0.79048 0.20809 0.0
Co47 Co 0.10442 0.84662 0.14915 0.0
O48 O 0.08384 0.80636 0.16181 0.0
C49 C 0.12469 0.88154 0.2131 0.0
C50 C 0.17508 0.79703 0.22326 0.0
C51 C 0.08719 0.78915 0.19061 0.0
O52 O 0.13569 0.85288 0.222 0.0
O53 O 0.11236 0.88448 0.18478 0.0
O54 O 0.14342 0.7655 0.16312 0.0
O55 O 0.1333 0.82035 0.15001 0.0
Co56 Co 0.14324 0.80487 0.80318 0.0
O57 O 0.1762 0.8085 0.81178 0.0
O58 O 0.15886 0.76062 0.79 0.0
C59 C 0.141 0.85863 0.77631 0.0
O60 O 0.10944 0.7919 0.78992 0.0
Co61 Co 0.10828 0.85956 0.83438 0.0
O62 O 0.08714 0.84065 0.79728 0.0
C63 C 0.12609 0.80024 0.8796 0.0
C64 C 0.17815 0.77637 0.79941 0.0
C65 C 0.09014 0.8091 0.78566 0.0
O66 O 0.13812 0.78737 0.85361 0.0
O67 O 0.11399 0.82888 0.87735 0.0
O68 O 0.14705 0.83073 0.758 0.0
O69 O 0.13754 0.85368 0.80991 0.0
Co70 Co 0.13942 0.19016 0.8043 0.0
O71 O 0.17244 0.18199 0.80567 0.0
O72 O 0.15403 0.20719 0.76048 0.0
C73 C 0.13838 0.21269 0.8601 0.0
O74 O 0.10526 0.2039 0.79435 0.0
Co75 Co 0.10637 0.15347 0.85807 0.0
O76 O 0.08481 0.19212 0.84403 0.0
C77 C 0.124 0.11306 0.79552 0.0
C78 C 0.17368 0.19691 0.77458 0.0
C79 C 0.0866 0.20656 0.81342 0.0
O80 O 0.13448 0.14094 0.78336 0.0
O81 O 0.11286 0.11254 0.82513 0.0
O82 O 0.14336 0.23333 0.83334 0.0
O83 O 0.13511 0.17949 0.85267 0.0
Co84 Co 0.87104 0.19278 0.80377 0.0
O85 O 0.83805 0.18906 0.81211 0.0
O86 O 0.85508 0.23534 0.78662 0.0
C87 C 0.87463 0.13698 0.78142 0.0
O88 O 0.90485 0.20517 0.78979 0.0
Co89 Co 0.90614 0.14145 0.84119 0.0
O90 O 0.92683 0.15701 0.80208 0.0
C91 C 0.88675 0.20342 0.88061 0.0
C92 C 0.83589 0.21997 0.79695 0.0
C93 C 0.92406 0.18732 0.78734 0.0
O94 O 0.87557 0.2145 0.85288 0.0
O95 O 0.89881 0.17469 0.88135 0.0
O96 O 0.86771 0.16283 0.76088 0.0
O97 O 0.87761 0.14517 0.81449 0.0
Co98 Co 0.87218 0.8052 0.80052 0.0
O99 O 0.83924 0.81386 0.80533 0.0
O100 O 0.85552 0.78769 0.75879 0.0
C101 C 0.87641 0.78396 0.8566 0.0
O102 O 0.90574 0.79105 0.78689 0.0
Co103 Co 0.90843 0.84278 0.84971 0.0
O104 O 0.92917 0.8041 0.83323 0.0
C105 C 0.88811 0.8814 0.78774 0.0
C106 C 0.83659 0.79849 0.77462 0.0
C107 C 0.9255 0.7891 0.80331 0.0
O108 O 0.87646 0.85375 0.77781 0.0
O109 O 0.90081 0.88245 0.81584 0.0
O110 O 0.86913 0.76294 0.83138 0.0
O111 O 0.87955 0.81678 0.84765 0.0
Co112 Co 0.64153 0.69149 0.68944 0.0
O113 O 0.67459 0.69011 0.68179 0.0
O114 O 0.65624 0.73473 0.70797 0.0
C115 C 0.64031 0.635 0.71028 0.0
O116 O 0.60725 0.70121 0.70273 0.0
Co117 Co 0.60863 0.63871 0.65078 0.0
O118 O 0.58688 0.65177 0.68948 0.0
C119 C 0.62632 0.7027 0.61259 0.0
C120 C 0.6759 0.72073 0.69761 0.0
C121 C 0.58854 0.68211 0.70453 0.0
O122 O 0.63692 0.71387 0.64079 0.0
O123 O 0.61509 0.67319 0.61113 0.0
O124 O 0.64512 0.66113 0.73181 0.0
O125 O 0.63722 0.64348 0.6773 0.0
Co126 Co 0.37173 0.68977 0.69183 0.0
O127 O 0.33869 0.68181 0.69083 0.0
O128 O 0.35737 0.70632 0.7361 0.0
C129 C 0.37234 0.71301 0.63625 0.0
O130 O 0.40604 0.70297 0.70136 0.0
Co131 Co 0.40417 0.65354 0.63675 0.0
O132 O 0.42609 0.69155 0.65118 0.0
C133 C 0.38718 0.61259 0.69945 0.0
C134 C 0.33763 0.69632 0.72211 0.0
C135 C 0.42463 0.70545 0.68209 0.0
O136 O 0.37675 0.64031 0.71209 0.0
O137 O 0.39799 0.61238 0.66956 0.0
O138 O 0.36769 0.73335 0.66338 0.0
O139 O 0.37561 0.67972 0.64325 0.0
Co140 Co 0.36844 0.30548 0.69542 0.0
O141 O 0.33546 0.30983 0.68741 0.0
O142 O 0.35263 0.2613 0.7081 0.0
C143 C 0.37147 0.35867 0.72311 0.0
O144 O 0.40218 0.29173 0.708 0.0
Co145 Co 0.40348 0.35981 0.66383 0.0
O146 O 0.42477 0.34012 0.70036 0.0
C147 C 0.38422 0.30219 0.61806 0.0
C148 C 0.3334 0.2775 0.69922 0.0
C149 C 0.4216 0.30862 0.71203 0.0
O150 O 0.37301 0.28874 0.64463 0.0
O151 O 0.39635 0.33081 0.62016 0.0
O152 O 0.36513 0.33067 0.74105 0.0
O153 O 0.37456 0.3542 0.68935 0.0
Co154 Co 0.63906 0.30022 0.69257 0.0
O155 O 0.67211 0.30718 0.68676 0.0
O156 O 0.65569 0.28448 0.73498 0.0
C157 C 0.63372 0.27582 0.63801 0.0
O158 O 0.60547 0.2881 0.70768 0.0
Co159 Co 0.60301 0.33683 0.64242 0.0
O160 O 0.58173 0.30001 0.66139 0.0
C161 C 0.62476 0.37796 0.70135 0.0
C162 C 0.67468 0.2936 0.71834 0.0
C163 C 0.58554 0.28612 0.6918 0.0
O164 O 0.63585 0.35018 0.71245 0.0
O165 O 0.61176 0.37819 0.67357 0.0
O166 O 0.64101 0.25611 0.66427 0.0
O167 O 0.63135 0.30931 0.64496 0.0
Co168 Co 0.63865 0.30166 0.30897 0.0
O169 O 0.6717 0.30328 0.31799 0.0
O170 O 0.65409 0.26078 0.28726 0.0
C171 C 0.63584 0.35967 0.29268 0.0
O172 O 0.60464 0.29188 0.29376 0.0
Co173 Co 0.60417 0.34992 0.35144 0.0
O174 O 0.58315 0.33897 0.31115 0.0
C175 C 0.62299 0.28383 0.38437 0.0
C176 C 0.67343 0.2741 0.29964 0.0
C177 C 0.58555 0.31024 0.29341 0.0
O178 O 0.63381 0.27507 0.35552 0.0
O179 O 0.61139 0.31277 0.38811 0.0
O180 O 0.6424 0.3359 0.26952 0.0
O181 O 0.63274 0.34808 0.32468 0.0
Co182 Co 0.64217 0.69643 0.30596 0.0
O183 O 0.6751 0.68766 0.30887 0.0
O184 O 0.65716 0.7091 0.26125 0.0
C185 C 0.64064 0.72399 0.35939 0.0
O186 O 0.60846 0.70983 0.2934 0.0
Co187 Co 0.60738 0.66677 0.3615 0.0
O188 O 0.58646 0.70418 0.34256 0.0
C189 C 0.6247 0.62017 0.30289 0.0
C190 C 0.6766 0.69986 0.2766 0.0
C191 C 0.58938 0.71505 0.31074 0.0
O192 O 0.63671 0.64581 0.28929 0.0
O193 O 0.61279 0.62312 0.33164 0.0
O194 O 0.64642 0.7419 0.3311 0.0
O195 O 0.63691 0.69038 0.35498 0.0
Co196 Co 0.37246 0.69677 0.30472 0.0
O197 O 0.33942 0.6923 0.31273 0.0
O198 O 0.35623 0.73794 0.28552 0.0
C199 C 0.37726 0.64036 0.28473 0.0
O200 O 0.40597 0.71045 0.29105 0.0
Co201 Co 0.40868 0.64915 0.34411 0.0
O202 O 0.42967 0.66492 0.30546 0.0
C203 C 0.38716 0.71086 0.38136 0.0
C204 C 0.33718 0.72266 0.29645 0.0
C205 C 0.42582 0.69436 0.28965 0.0
O206 O 0.37608 0.72037 0.35298 0.0
O207 O 0.40001 0.68299 0.38329 0.0
O208 O 0.37006 0.66508 0.26305 0.0
O209 O 0.37993 0.64995 0.31751 0.0
Co210 Co 0.36916 0.30638 0.3054 0.0
O211 O 0.33622 0.31528 0.30744 0.0
O212 O 0.354 0.29058 0.26147 0.0
C213 C 0.37046 0.28256 0.36062 0.0
O214 O 0.40324 0.29227 0.2948 0.0
Co215 Co 0.40284 0.3412 0.3599 0.0
O216 O 0.42395 0.30245 0.34468 0.0
C217 C 0.38613 0.38268 0.29731 0.0
C218 C 0.33456 0.30093 0.27614 0.0
C219 C 0.422 0.28901 0.31363 0.0
O220 O 0.37458 0.35579 0.28525 0.0
O221 O 0.39758 0.3823 0.32665 0.0
O222 O 0.36489 0.26271 0.33356 0.0
O223 O 0.37394 0.31585 0.35395 0.0
H224 H 0.29244 0.31736 0.30483 0.0
H225 H 0.32375 0.26996 0.21142 0.0
H226 H 0.25407 0.30175 0.283 0.0
H227 H 0.28496 0.25542 0.18856 0.0
H228 H 0.21666 0.19135 0.18627 0.0
H229 H 0.25493 0.21443 0.20055 0.0
H230 H 0.22358 0.3108 0.242 0.0
H231 H 0.18489 0.28673 0.22882 0.0
C232 C 0.29112 0.30412 0.2792 0.0
C233 C 0.31126 0.29466 0.26 0.0
C234 C 0.26896 0.2954 0.26648 0.0
C235 C 0.26619 0.27713 0.23399 0.0
C236 C 0.28634 0.26892 0.21402 0.0
C237 C 0.30862 0.27747 0.22694 0.0
C238 C 0.21785 0.21762 0.19821 0.0
C239 C 0.19763 0.23708 0.20664 0.0
C240 C 0.23995 0.23106 0.20613 0.0
C241 C 0.24257 0.26457 0.22253 0.0
C242 C 0.22232 0.28463 0.22991 0.0
C243 C 0.2001 0.27098 0.22218 0.0
H244 H 0.7132 0.28189 0.33834 0.0
H245 H 0.68619 0.23162 0.24342 0.0
H246 H 0.75212 0.26076 0.32396 0.0
H247 H 0.72534 0.21226 0.22748 0.0
H248 H 0.7957 0.16177 0.21518 0.0
H249 H 0.75678 0.17563 0.23665 0.0
H250 H 0.78353 0.27084 0.2876 0.0
H251 H 0.82268 0.25538 0.26786 0.0
C252 C 0.71563 0.26627 0.3143 0.0
C253 C 0.69662 0.25839 0.29202 0.0
C254 C 0.73807 0.25442 0.30577 0.0
C255 C 0.74227 0.235 0.27423 0.0
C256 C 0.72301 0.22656 0.25231 0.0
C257 C 0.70046 0.2378 0.26131 0.0
C258 C 0.79326 0.18541 0.23141 0.0
C259 C 0.81226 0.20748 0.23986 0.0
C260 C 0.77082 0.19364 0.24346 0.0
C261 C 0.76661 0.22469 0.26367 0.0
C262 C 0.78586 0.24637 0.27268 0.0
C263 C 0.80842 0.23765 0.26124 0.0
H264 H 0.79255 0.81432 0.19141 0.0
H265 H 0.82518 0.7159 0.22467 0.0
H266 H 0.7545 0.78955 0.20487 0.0
H267 H 0.78682 0.69053 0.23732 0.0
H268 H 0.71895 0.68202 0.30384 0.0
H269 H 0.7571 0.69849 0.28144 0.0
H270 H 0.72506 0.74703 0.189 0.0
H271 H 0.68659 0.73129 0.21215 0.0
C272 C 0.79159 0.78714 0.20116 0.0
C273 C 0.81194 0.76717 0.20724 0.0
C274 C 0.76968 0.77279 0.20859 0.0
C275 C 0.7675 0.738 0.22221 0.0
C276 C 0.78785 0.71759 0.22729 0.0
C277 C 0.80984 0.73204 0.21991 0.0
C278 C 0.72 0.69581 0.27848 0.0
C279 C 0.69969 0.70565 0.25993 0.0
C280 C 0.74197 0.70505 0.26548 0.0
C281 C 0.74424 0.72433 0.23349 0.0
C282 C 0.72394 0.73269 0.21404 0.0
C283 C 0.70189 0.72346 0.22713 0.0
H284 H 0.29745 0.71202 0.33454 0.0
H285 H 0.3242 0.767 0.24215 0.0
H286 H 0.25842 0.73345 0.32106 0.0
H287 H 0.28501 0.78648 0.22687 0.0
H288 H 0.21461 0.83632 0.21578 0.0
H289 H 0.25354 0.82222 0.23717 0.0
H290 H 0.22712 0.72489 0.28443 0.0
H291 H 0.18798 0.74069 0.26508 0.0
C292 C 0.2949 0.72867 0.31122 0.0
C293 C 0.31384 0.73787 0.2894 0.0
C294 C 0.27244 0.74072 0.3032 0.0
C295 C 0.26818 0.76155 0.27256 0.0
C296 C 0.28738 0.77114 0.25107 0.0
C297 C 0.30994 0.7598 0.25965 0.0
C298 C 0.21716 0.81216 0.2312 0.0
C299 C 0.19828 0.7896 0.23879 0.0
C300 C 0.23958 0.80379 0.2432 0.0
C301 C 0.24386 0.77207 0.26233 0.0
C302 C 0.22472 0.74986 0.27042 0.0
C303 C 0.20219 0.75876 0.25915 0.0
H304 H 0.3279 0.729 0.78643 0.0
H305 H 0.29512 0.6788 0.69563 0.0
H306 H 0.28943 0.74374 0.8105 0.0
H307 H 0.25711 0.69448 0.71864 0.0
H308 H 0.18902 0.70931 0.77445 0.0
H309 H 0.22775 0.68549 0.76151 0.0
H310 H 0.25867 0.78402 0.79837 0.0
H311 H 0.22027 0.807 0.81245 0.0
C312 C 0.31253 0.7209 0.77176 0.0
C313 C 0.31463 0.70287 0.73905 0.0
C314 C 0.29044 0.72954 0.78538 0.0
C315 C 0.26999 0.72048 0.7665 0.0
C316 C 0.27227 0.70146 0.73436 0.0
C317 C 0.29421 0.6927 0.72094 0.0
C318 C 0.20414 0.7256 0.78023 0.0
C319 C 0.2015 0.76011 0.79427 0.0
C320 C 0.22638 0.71208 0.77261 0.0
C321 C 0.2465 0.73288 0.77858 0.0
C322 C 0.24376 0.76691 0.79382 0.0
C323 C 0.22161 0.78027 0.80164 0.0
H324 H 0.18362 0.23072 0.71101 0.0
H325 H 0.21609 0.17862 0.80101 0.0
H326 H 0.22216 0.2458 0.68748 0.0
H327 H 0.25419 0.19458 0.7785 0.0
H328 H 0.32235 0.21004 0.72277 0.0
H329 H 0.28357 0.18622 0.7353 0.0
H330 H 0.25291 0.28584 0.70091 0.0
H331 H 0.29136 0.30888 0.68727 0.0
C332 C 0.19894 0.22227 0.72561 0.0
C333 C 0.19673 0.20362 0.75795 0.0
C334 C 0.22106 0.2311 0.7123 0.0
C335 C 0.24144 0.2216 0.73112 0.0
C336 C 0.23907 0.20193 0.76285 0.0
C337 C 0.21708 0.19301 0.77598 0.0
C338 C 0.30728 0.22659 0.71746 0.0
C339 C 0.31 0.2614 0.70422 0.0
C340 C 0.28502 0.21307 0.72484 0.0
C341 C 0.26496 0.23415 0.71939 0.0
C342 C 0.26777 0.26853 0.70501 0.0
C343 C 0.28994 0.2819 0.69744 0.0
H344 H 0.79392 0.19062 0.81356 0.0
H345 H 0.82464 0.28342 0.76409 0.0
H346 H 0.75537 0.21167 0.79744 0.0
H347 H 0.78575 0.30532 0.74882 0.0
H348 H 0.71649 0.30588 0.68619 0.0
H349 H 0.7552 0.29164 0.7082 0.0
H350 H 0.72534 0.25395 0.80712 0.0
H351 H 0.68638 0.2672 0.78441 0.0
C352 C 0.79243 0.21589 0.7997 0.0
C353 C 0.81243 0.23523 0.78995 0.0
C354 C 0.77021 0.22814 0.79065 0.0
C355 C 0.76727 0.26023 0.7717 0.0
C356 C 0.78729 0.2802 0.76293 0.0
C357 C 0.80961 0.26781 0.77189 0.0
C358 C 0.71815 0.29478 0.71276 0.0
C359 C 0.69828 0.28745 0.73344 0.0
C360 C 0.74045 0.28685 0.72554 0.0
C361 C 0.74356 0.2715 0.75948 0.0
C362 C 0.72367 0.26519 0.78062 0.0
C363 C 0.7013 0.27298 0.76771 0.0
H364 H 0.82465 0.77171 0.70882 0.0
H365 H 0.79492 0.81073 0.80717 0.0
H366 H 0.78565 0.75807 0.68666 0.0
H367 H 0.75615 0.79586 0.78584 0.0
H368 H 0.68613 0.7843 0.73151 0.0
H369 H 0.7248 0.80761 0.74646 0.0
H370 H 0.75639 0.71557 0.6965 0.0
H371 H 0.71823 0.69336 0.68061 0.0
C372 C 0.8098 0.77743 0.72567 0.0
C373 C 0.81295 0.79213 0.75981 0.0
C374 C 0.78739 0.76942 0.7131 0.0
C375 C 0.76757 0.77554 0.73451 0.0
C376 C 0.77081 0.79118 0.76828 0.0
C377 C 0.79315 0.79947 0.78067 0.0
C378 C 0.70139 0.7694 0.72337 0.0
C379 C 0.69903 0.73696 0.70493 0.0
C380 C 0.72359 0.78258 0.73214 0.0
C381 C 0.7439 0.76351 0.7228 0.0
C382 C 0.74136 0.73148 0.70365 0.0
C383 C 0.71931 0.71852 0.69476 0.0
H384 H 0.16455 0.18349 0.91156 0.0
H385 H 0.11452 0.26719 0.89239 0.0
H386 H 0.16318 0.19565 0.97543 0.0
H387 H 0.11244 0.27873 0.95716 0.0
H388 H 0.09095 0.21374 0.06732 0.0
H389 H 0.09654 0.2306 0.00496 0.0
H390 H 0.1699 0.24605 0.02468 0.0
H391 H 0.16417 0.23003 0.08757 0.0
C392 C 0.15361 0.20503 0.92114 0.0
C393 C 0.13963 0.22444 0.8974 0.0
C394 C 0.15297 0.21219 0.95759 0.0
C395 C 0.13784 0.23831 0.97113 0.0
C396 C 0.1244 0.25871 0.94722 0.0
C397 C 0.12556 0.25215 0.91039 0.0
C398 C 0.1081 0.22209 0.0586 0.0
C399 C 0.12718 0.22031 0.082 0.0
C400 C 0.11126 0.23196 0.02302 0.0
C401 C 0.13366 0.23942 0.01007 0.0
C402 C 0.15245 0.24049 0.03415 0.0
C403 C 0.14918 0.2314 0.07004 0.0
H404 H 0.84776 0.22667 0.91551 0.0
H405 H 0.92268 0.22253 0.92267 0.0
H406 H 0.84558 0.23971 0.97967 0.0
H407 H 0.9206 0.23622 0.98618 0.0
H408 H 0.9006 0.17657 0.09089 0.0
H409 H 0.90485 0.18859 0.02775 0.0
H410 H 0.85759 0.27781 0.03659 0.0
H411 H 0.85361 0.26598 0.10103 0.0
C412 C 0.86374 0.2303 0.93045 0.0
C413 C 0.88537 0.22321 0.91448 0.0
C414 C 0.86252 0.23772 0.96712 0.0
C415 C 0.88293 0.23824 0.98794 0.0
C416 C 0.90461 0.23541 0.97085 0.0
C417 C 0.9058 0.22772 0.93453 0.0
C418 C 0.89139 0.19914 0.07969 0.0
C419 C 0.87679 0.22033 0.10091 0.0
C420 C 0.89394 0.2062 0.04346 0.0
C421 C 0.88169 0.23434 0.02728 0.0
C422 C 0.8673 0.25606 0.04849 0.0
C423 C 0.86511 0.24938 0.08523 0.0
H424 H 0.908 0.80823 0.90391 0.0
H425 H 0.8492 0.73712 0.8943 0.0
H426 H 0.9054 0.80484 0.96869 0.0
H427 H 0.8464 0.73422 0.9599 0.0
H428 H 0.88233 0.74497 0.09022 0.0
H429 H 0.88268 0.72583 0.02717 0.0
H430 H 0.85822 0.82998 0.99558 0.0
H431 H 0.8581 0.84913 0.05771 0.0
C432 C 0.895 0.79092 0.91569 0.0
C433 C 0.87868 0.77317 0.89423 0.0
C434 C 0.89356 0.78894 0.95271 0.0
C435 C 0.87565 0.76945 0.96898 0.0
C436 C 0.86048 0.74913 0.94775 0.0
C437 C 0.8621 0.75078 0.91037 0.0
C438 C 0.87629 0.76323 0.0698 0.0
C439 C 0.8704 0.7986 0.0786 0.0
C440 C 0.87653 0.75231 0.03392 0.0
C441 C 0.87061 0.77663 0.00687 0.0
C442 C 0.86289 0.81089 0.01611 0.0
C443 C 0.86286 0.82181 0.05158 0.0
H444 H 0.15544 0.73314 0.10009 0.0
H445 H 0.10785 0.82208 0.09305 0.0
H446 H 0.15163 0.72368 0.03527 0.0
H447 H 0.10397 0.81275 0.02953 0.0
H448 H 0.08888 0.78648 0.92118 0.0
H449 H 0.08923 0.77116 0.98437 0.0
H450 H 0.16409 0.76039 0.98087 0.0
H451 H 0.16354 0.77454 0.9169 0.0
C452 C 0.14382 0.75009 0.08487 0.0
C453 C 0.13199 0.77842 0.10151 0.0
C454 C 0.14175 0.74482 0.04788 0.0
C455 C 0.1274 0.76732 0.02733 0.0
C456 C 0.11485 0.79451 0.04456 0.0
C457 C 0.11721 0.80007 0.08106 0.0
C458 C 0.10532 0.77972 0.9337 0.0
C459 C 0.12622 0.78223 0.91452 0.0
C460 C 0.10554 0.77103 0.96985 0.0
C461 C 0.12674 0.76545 0.98775 0.0
C462 C 0.14749 0.76452 0.96778 0.0
C463 C 0.14721 0.77271 0.93124 0.0
H464 H 0.07054 0.25265 0.19967 0.0
H465 H 0.05277 0.15103 0.24631 0.0
H466 H 0.02986 0.27179 0.20523 0.0
H467 H 0.01242 0.16979 0.2518 0.0
H468 H 0.93975 0.20227 0.25579 0.0
H469 H 0.9807 0.20777 0.27341 0.0
H470 H 0.99707 0.25027 0.16924 0.0
H471 H 0.95641 0.24485 0.152 0.0
C472 C 0.05817 0.23501 0.21251 0.0
C473 C 0.06479 0.20026 0.22234 0.0
C474 C 0.03481 0.2458 0.21537 0.0
C475 C 0.01772 0.22218 0.22851 0.0
C476 C 0.02498 0.18887 0.24179 0.0
C477 C 0.04817 0.17799 0.23853 0.0
C478 C 0.95194 0.21438 0.23735 0.0
C479 C 0.94492 0.22298 0.20247 0.0
C480 C 0.97547 0.21714 0.24726 0.0
C481 C 0.99233 0.22892 0.22257 0.0
C482 C 0.9847 0.24129 0.1891 0.0
C483 C 0.96132 0.23814 0.17913 0.0
H484 H 0.91063 0.90799 0.20234 0.0
H485 H 0.85272 0.89935 0.27503 0.0
H486 H 0.91427 0.97089 0.21592 0.0
H487 H 0.85621 0.96335 0.28891 0.0
H488 H 0.84785 0.07947 0.23308 0.0
H489 H 0.84747 0.01651 0.25055 0.0
H490 H 0.92253 0.01786 0.25853 0.0
H491 H 0.92279 0.08016 0.23965 0.0
C492 C 0.8991 0.91947 0.22211 0.0
C493 C 0.88138 0.89898 0.23755 0.0
C494 C 0.90125 0.95558 0.23016 0.0
C495 C 0.88549 0.97229 0.25352 0.0
C496 C 0.86857 0.95124 0.27075 0.0
C497 C 0.86669 0.91466 0.26307 0.0
C498 C 0.86412 0.06661 0.24012 0.0
C499 C 0.88536 0.0843 0.23475 0.0
C500 C 0.86395 0.03056 0.25016 0.0
C501 C 0.88503 0.01197 0.25513 0.0
C502 C 0.90604 0.03122 0.25414 0.0
C503 C 0.90621 0.06692 0.24359 0.0
H504 H 0.95108 0.77545 0.14971 0.0
H505 H 0.94556 0.80157 0.26131 0.0
H506 H 0.99102 0.75671 0.15821 0.0
H507 H 0.98579 0.78144 0.27077 0.0
H508 H 0.0636 0.81448 0.24743 0.0
H509 H 0.02205 0.80675 0.25711 0.0
H510 H 0.02123 0.72175 0.17897 0.0
H511 H 0.06258 0.73168 0.16774 0.0
C512 C 0.95826 0.77564 0.17648 0.0
C513 C 0.94534 0.78968 0.20487 0.0
C514 C 0.98124 0.76471 0.18155 0.0
C515 C 0.99199 0.76767 0.21525 0.0
C516 C 0.9783 0.77922 0.24434 0.0
C517 C 0.95518 0.79034 0.23913 0.0
C518 C 0.05469 0.79306 0.23359 0.0
C519 C 0.0662 0.77367 0.20687 0.0
C520 C 0.03074 0.78859 0.23903 0.0
C521 C 0.01792 0.7643 0.21803 0.0
C522 C 0.03028 0.74158 0.19477 0.0
C523 C 0.05409 0.74674 0.18872 0.0
H524 H 0.1198 0.10628 0.27704 0.0
H525 H 0.15854 0.0821 0.1814 0.0
H526 H 0.1186 0.04204 0.29174 0.0
H527 H 0.15818 0.01893 0.19661 0.0
H528 H 0.16557 0.91026 0.23571 0.0
H529 H 0.17176 0.97355 0.24932 0.0
H530 H 0.09748 0.99077 0.24914 0.0
H531 H 0.09134 0.92791 0.23458 0.0
C532 C 0.1285 0.08733 0.25976 0.0
C533 C 0.13908 0.09881 0.228 0.0
C534 C 0.12789 0.05081 0.26817 0.0
C535 C 0.13861 0.02575 0.24555 0.0
C536 C 0.15018 0.03774 0.21484 0.0
C537 C 0.15016 0.0738 0.20595 0.0
C538 C 0.15059 0.92723 0.24031 0.0
C539 C 0.128 0.91447 0.23389 0.0
C540 C 0.15412 0.9634 0.24797 0.0
C541 C 0.13508 0.98692 0.25006 0.0
C542 C 0.11242 0.97313 0.24798 0.0
C543 C 0.10891 0.93722 0.23955 0.0
H544 H 0.95153 0.72949 0.81597 0.0
H545 H 0.94799 0.82422 0.75126 0.0
H546 H 0.99237 0.72176 0.79995 0.0
H547 H 0.989 0.81913 0.73775 0.0
H548 H 0.06417 0.81903 0.7255 0.0
H549 H 0.0236 0.80153 0.71737 0.0
H550 H 0.02634 0.74445 0.81788 0.0
H551 H 0.06717 0.7593 0.82349 0.0
C552 C 0.9594 0.748 0.79732 0.0
C553 C 0.94659 0.77712 0.78438 0.0
C554 C 0.98305 0.74419 0.78872 0.0
C555 C 0.99472 0.77042 0.76838 0.0
C556 C 0.98113 0.79795 0.75317 0.0
C557 C 0.95736 0.80099 0.76083 0.0
C558 C 0.05621 0.80127 0.74478 0.0
C559 C 0.0688 0.79007 0.77483 0.0
C560 C 0.03273 0.79178 0.74067 0.0
C561 C 0.02095 0.77233 0.76746 0.0
C562 C 0.03432 0.75905 0.79622 0.0
C563 C 0.05796 0.76755 0.79961 0.0
H564 H 0.10797 0.89057 0.73497 0.0
H565 H 0.1737 0.90843 0.78753 0.0
H566 H 0.10403 0.95508 0.7247 0.0
H567 H 0.16997 0.97246 0.77755 0.0
H568 H 0.16085 0.08715 0.75697 0.0
H569 H 0.16629 0.02522 0.73738 0.0
H570 H 0.09633 0.00026 0.77158 0.0
H571 H 0.09102 0.06159 0.791 0.0
C572 C 0.12194 0.90826 0.74304 0.0
C573 C 0.14119 0.89493 0.76176 0.0
C574 C 0.11967 0.94508 0.7374 0.0
C575 C 0.13666 0.9689 0.75042 0.0
C576 C 0.15676 0.95492 0.76668 0.0
C577 C 0.15888 0.91829 0.77256 0.0
C578 C 0.14644 0.06861 0.75917 0.0
C579 C 0.12565 0.07892 0.77597 0.0
C580 C 0.14957 0.03318 0.74812 0.0
C581 C 0.13181 0.00776 0.75322 0.0
C582 C 0.1103 0.01912 0.76698 0.0
C583 C 0.10732 0.05423 0.77843 0.0
H584 H 0.05255 0.24224 0.84861 0.0
H585 H 0.07095 0.20262 0.74427 0.0
H586 H 0.01244 0.24966 0.82951 0.0
H587 H 0.03051 0.21032 0.72474 0.0
H588 H 0.94012 0.25532 0.79773 0.0
H589 H 0.98095 0.27375 0.79323 0.0
H590 H 0.99759 0.17338 0.74252 0.0
H591 H 0.95706 0.15544 0.74683 0.0
C592 C 0.04815 0.23638 0.82109 0.0
C593 C 0.06484 0.22143 0.79809 0.0
C594 C 0.0251 0.24083 0.81 0.0
C595 C 0.01806 0.2301 0.77567 0.0
C596 C 0.03527 0.21843 0.75151 0.0
C597 C 0.0585 0.21431 0.76257 0.0
C598 C 0.95233 0.23804 0.78406 0.0
C599 C 0.94548 0.20385 0.77287 0.0
C600 C 0.9758 0.24838 0.78185 0.0
C601 C 0.99272 0.22479 0.76814 0.0
C602 C 0.98518 0.19239 0.7531 0.0
C603 C 0.96187 0.182 0.75562 0.0
H604 H 0.84885 0.91698 0.76714 0.0
H605 H 0.92385 0.9215 0.76409 0.0
H606 H 0.847 0.98066 0.7522 0.0
H607 H 0.9221 0.98451 0.74805 0.0
H608 H 0.90594 0.0905 0.80822 0.0
H609 H 0.91002 0.02776 0.79483 0.0
H610 H 0.85682 0.03637 0.71371 0.0
H611 H 0.85298 0.10055 0.72703 0.0
C612 C 0.86485 0.93121 0.76151 0.0
C613 C 0.88649 0.91475 0.76721 0.0
C614 C 0.86382 0.96761 0.75291 0.0
C615 C 0.88444 0.98766 0.74971 0.0
C616 C 0.90596 0.96984 0.75099 0.0
C617 C 0.90697 0.93381 0.76006 0.0
C618 C 0.89546 0.07939 0.78694 0.0
C619 C 0.87914 0.1004 0.7687 0.0
C620 C 0.89792 0.04336 0.77904 0.0
C621 C 0.88384 0.02711 0.75302 0.0
C622 C 0.86795 0.04828 0.73379 0.0
C623 C 0.86583 0.08489 0.74128 0.0
H624 H 0.6739 0.71233 0.40819 0.0
H625 H 0.60862 0.76667 0.39194 0.0
H626 H 0.67109 0.7226 0.47223 0.0
H627 H 0.60562 0.77732 0.45649 0.0
H628 H 0.59278 0.70998 0.56237 0.0
H629 H 0.5977 0.73067 0.50142 0.0
H630 H 0.66841 0.76196 0.52542 0.0
H631 H 0.66336 0.74102 0.58698 0.0
C632 C 0.6594 0.72778 0.41839 0.0
C633 C 0.64154 0.73893 0.39549 0.0
C634 C 0.65781 0.73385 0.45504 0.0
C635 C 0.63807 0.75067 0.46951 0.0
C636 C 0.62098 0.76417 0.44611 0.0
C637 C 0.62272 0.75831 0.40926 0.0
C638 C 0.60917 0.72223 0.55491 0.0
C639 C 0.62782 0.72338 0.57914 0.0
C640 C 0.61193 0.73442 0.52003 0.0
C641 C 0.63353 0.74764 0.50844 0.0
C642 C 0.65161 0.75162 0.53355 0.0
C643 C 0.64872 0.73981 0.56877 0.0
H644 H 0.39158 0.77316 0.6065 0.0
H645 H 0.35041 0.67988 0.58247 0.0
H646 H 0.39309 0.78774 0.54228 0.0
H647 H 0.35111 0.69497 0.51926 0.0
H648 H 0.34608 0.73331 0.40972 0.0
H649 H 0.33936 0.74683 0.47292 0.0
H650 H 0.41345 0.74487 0.49199 0.0
H651 H 0.42011 0.73046 0.42925 0.0
C652 C 0.38237 0.75645 0.58759 0.0
C653 C 0.37103 0.72532 0.59907 0.0
C654 C 0.38317 0.76478 0.55107 0.0
C655 C 0.37195 0.7427 0.52601 0.0
C656 C 0.35953 0.71279 0.53804 0.0
C657 C 0.35933 0.70396 0.57412 0.0
C658 C 0.36092 0.73737 0.42713 0.0
C659 C 0.38358 0.73056 0.4149 0.0
C660 C 0.35709 0.745 0.46322 0.0
C661 C 0.3759 0.74669 0.48722 0.0
C662 C 0.39869 0.74403 0.474 0.0
C663 C 0.40248 0.73562 0.43817 0.0
H664 H 0.33763 0.29735 0.40924 0.0
H665 H 0.40265 0.2417 0.39506 0.0
H666 H 0.34036 0.28909 0.4737 0.0
H667 H 0.40565 0.23343 0.46002 0.0
H668 H 0.41744 0.30055 0.56669 0.0
H669 H 0.41288 0.2824 0.50475 0.0
H670 H 0.34266 0.2476 0.52686 0.0
H671 H 0.34733 0.26568 0.5894 0.0
C672 C 0.3521 0.28222 0.42005 0.0
C673 C 0.36986 0.2699 0.39758 0.0
C674 C 0.35364 0.27734 0.45688 0.0
C675 C 0.37323 0.26064 0.47193 0.0
C676 C 0.39037 0.24642 0.4491 0.0
C677 C 0.38864 0.25094 0.41207 0.0
C678 C 0.40119 0.28829 0.55853 0.0
C679 C 0.38261 0.285 0.58267 0.0
C680 C 0.39867 0.27754 0.52311 0.0
C681 C 0.37738 0.26373 0.5109 0.0
C682 C 0.35924 0.2583 0.53557 0.0
C683 C 0.36192 0.26855 0.5713 0.0
H684 H 0.58708 0.2561 0.42131 0.0
H685 H 0.662 0.26315 0.42026 0.0
H686 H 0.588 0.23913 0.48413 0.0
H687 H 0.66301 0.24714 0.48366 0.0
H688 H 0.60152 0.29987 0.59147 0.0
H689 H 0.59812 0.28588 0.52858 0.0
H690 H 0.6533 0.20809 0.53846 0.0
H691 H 0.65643 0.22201 0.60255 0.0
C692 C 0.60381 0.25245 0.43424 0.0
C693 C 0.62446 0.26105 0.41623 0.0
C694 C 0.60434 0.24298 0.47022 0.0
C695 C 0.62553 0.24265 0.489 0.0
C696 C 0.64643 0.24708 0.46988 0.0
C697 C 0.64589 0.2562 0.43358 0.0
C698 C 0.61252 0.27911 0.58053 0.0
C699 C 0.62923 0.26206 0.6018 0.0
C700 C 0.61048 0.27086 0.54446 0.0
C701 C 0.62538 0.24572 0.52852 0.0
C702 C 0.64155 0.22749 0.55009 0.0
C703 C 0.64325 0.2353 0.58667 0.0
H704 H 0.57208 0.75046 0.69784 0.0
H705 H 0.55474 0.64709 0.74088 0.0
H706 H 0.53125 0.76874 0.70337 0.0
H707 H 0.51422 0.66502 0.74635 0.0
H708 H 0.44119 0.69706 0.75022 0.0
H709 H 0.48204 0.70209 0.76856 0.0
H710 H 0.49904 0.74738 0.66583 0.0
H711 H 0.4585 0.74242 0.64782 0.0
C712 C 0.55977 0.73221 0.70991 0.0
C713 C 0.56655 0.69725 0.71867 0.0
C714 C 0.53632 0.74252 0.71275 0.0
C715 C 0.51932 0.71819 0.7248 0.0
C716 C 0.52672 0.6846 0.73716 0.0
C717 C 0.55 0.67421 0.73392 0.0
C718 C 0.45351 0.7095 0.73222 0.0
C719 C 0.44671 0.71906 0.69748 0.0
C720 C 0.47697 0.71207 0.74256 0.0
C721 C 0.49396 0.72465 0.7185 0.0
C722 C 0.48655 0.73777 0.6852 0.0
C723 C 0.46325 0.7348 0.67477 0.0
H724 H 0.35196 0.58708 0.74192 0.0
H725 H 0.41997 0.56069 0.70057 0.0
H726 H 0.34748 0.52555 0.76321 0.0
H727 H 0.41555 0.49978 0.72137 0.0
H728 H 0.40675 0.39112 0.7591 0.0
H729 H 0.41084 0.45564 0.76853 0.0
H730 H 0.3414 0.47161 0.72688 0.0
H731 H 0.33743 0.40744 0.71818 0.0
C732 C 0.36618 0.56843 0.73829 0.0
C733 C 0.38613 0.57841 0.71906 0.0
C734 C 0.3636 0.53321 0.75032 0.0
C735 C 0.38107 0.50765 0.74372 0.0
C736 C 0.40182 0.51871 0.72724 0.0
C737 C 0.40427 0.5536 0.71494 0.0
C738 C 0.39211 0.40849 0.75346 0.0
C739 C 0.37174 0.39471 0.73821 0.0
C740 C 0.39446 0.44534 0.75857 0.0
C741 C 0.37652 0.46883 0.74815 0.0
C742 C 0.35543 0.4544 0.73566 0.0
C743 C 0.35314 0.41767 0.73053 0.0
H744 H 0.55935 0.22628 0.68172 0.0
H745 H 0.56358 0.32314 0.7431 0.0
H746 H 0.51866 0.21919 0.69896 0.0
H747 H 0.52271 0.31855 0.75782 0.0
H748 H 0.44786 0.31931 0.77169 0.0
H749 H 0.48834 0.30132 0.77974 0.0
H750 H 0.48468 0.24194 0.68065 0.0
H751 H 0.44392 0.25737 0.67514 0.0
C752 C 0.55167 0.24543 0.69991 0.0
C753 C 0.56459 0.27497 0.71152 0.0
C754 C 0.52813 0.24194 0.70922 0.0
C755 C 0.51669 0.26886 0.72896 0.0
C756 C 0.53042 0.29686 0.74292 0.0
C757 C 0.5541 0.29964 0.73454 0.0
C758 C 0.45558 0.30097 0.75274 0.0
C759 C 0.44279 0.28935 0.72305 0.0
C760 C 0.479 0.29117 0.75681 0.0
C761 C 0.4905 0.27095 0.73031 0.0
C762 C 0.4769 0.25717 0.70205 0.0
C763 C 0.45331 0.26601 0.69872 0.0
H764 H 0.61958 0.60268 0.76782 0.0
H765 H 0.66291 0.58267 0.67596 0.0
H766 H 0.61745 0.53786 0.7792 0.0
H767 H 0.66159 0.51878 0.68795 0.0
H768 H 0.66547 0.407 0.72494 0.0
H769 H 0.67196 0.47016 0.73919 0.0
H770 H 0.59804 0.48966 0.73225 0.0
H771 H 0.59163 0.427 0.71704 0.0
C772 C 0.62912 0.58448 0.75078 0.0
C773 C 0.64128 0.5973 0.72095 0.0
C774 C 0.62795 0.54762 0.75727 0.0
C775 C 0.6396 0.52352 0.73466 0.0
C776 C 0.6528 0.5368 0.70612 0.0
C777 C 0.65338 0.57327 0.69908 0.0
C778 C 0.65058 0.42455 0.7278 0.0
C779 C 0.62809 0.41241 0.71958 0.0
C780 C 0.65429 0.46059 0.73589 0.0
C781 C 0.63548 0.48462 0.73673 0.0
C782 C 0.61278 0.47159 0.73212 0.0
C783 C 0.60914 0.43585 0.7232 0.0
H784 H 0.45547 0.24986 0.34642 0.0
H785 H 0.43853 0.29931 0.24577 0.0
H786 H 0.49595 0.24474 0.32832 0.0
H787 H 0.47933 0.29409 0.22728 0.0
H788 H 0.55248 0.34659 0.25683 0.0
H789 H 0.51188 0.32947 0.25033 0.0
H790 H 0.52807 0.22431 0.29057 0.0
H791 H 0.56898 0.24181 0.29716 0.0
C792 C 0.46027 0.25831 0.31975 0.0
C793 C 0.44384 0.27519 0.29763 0.0
C794 C 0.48355 0.25528 0.30926 0.0
C795 C 0.49108 0.26947 0.27648 0.0
C796 C 0.47418 0.28326 0.25288 0.0
C797 C 0.45074 0.28591 0.26328 0.0
C798 C 0.54755 0.31931 0.26282 0.0
C799 C 0.56389 0.29561 0.27765 0.0
C800 C 0.52421 0.3094 0.25904 0.0
C801 C 0.51652 0.27563 0.27045 0.0
C802 C 0.53333 0.25068 0.28193 0.0
C803 C 0.55684 0.26054 0.28532 0.0
H804 H 0.65315 0.39869 0.23629 0.0
H805 H 0.60952 0.4064 0.32981 0.0
H806 H 0.64909 0.46352 0.22698 0.0
H807 H 0.60539 0.46986 0.32056 0.0
H808 H 0.58764 0.57712 0.29278 0.0
H809 H 0.58832 0.51364 0.27884 0.0
H810 H 0.66267 0.519 0.26247 0.0
H811 H 0.66179 0.58326 0.27538 0.0
C812 C 0.64238 0.41405 0.25438 0.0
C813 C 0.63167 0.39753 0.2838 0.0
C814 C 0.64016 0.45104 0.24916 0.0
C815 C 0.62677 0.47171 0.27285 0.0
C816 C 0.61548 0.45469 0.3014 0.0
C817 C 0.61799 0.41821 0.30688 0.0
C818 C 0.60401 0.56494 0.28514 0.0
C819 C 0.62472 0.58477 0.28574 0.0
C820 C 0.60442 0.52863 0.27721 0.0
C821 C 0.62562 0.51122 0.27042 0.0
C822 C 0.64607 0.53173 0.26758 0.0
C823 C 0.6456 0.56843 0.27505 0.0
H824 H 0.56705 0.67716 0.2604 0.0
H825 H 0.56314 0.775 0.3203 0.0
H826 H 0.52641 0.68247 0.24453 0.0
H827 H 0.5228 0.78297 0.30159 0.0
H828 H 0.44767 0.74716 0.32434 0.0
H829 H 0.4884 0.76209 0.31892 0.0
H830 H 0.49237 0.69955 0.22177 0.0
H831 H 0.45183 0.68201 0.22997 0.0
C832 C 0.55768 0.70093 0.2685 0.0
C833 C 0.56813 0.72566 0.2915 0.0
C834 C 0.53416 0.70418 0.25935 0.0
C835 C 0.52059 0.7328 0.2724 0.0
C836 C 0.53208 0.75971 0.29212 0.0
C837 C 0.55542 0.75567 0.30233 0.0
C838 C 0.45712 0.73775 0.30114 0.0
C839 C 0.44668 0.7136 0.27753 0.0
C840 C 0.48072 0.74629 0.29785 0.0
C841 C 0.49441 0.73137 0.27034 0.0
C842 C 0.48297 0.71052 0.24424 0.0
C843 C 0.45951 0.70101 0.24833 0.0
H844 H 0.4236 0.42217 0.27967 0.0
H845 H 0.34868 0.42006 0.27213 0.0
H846 H 0.42372 0.48508 0.26315 0.0
H847 H 0.34862 0.48374 0.25685 0.0
H848 H 0.35703 0.60235 0.23013 0.0
H849 H 0.36052 0.53768 0.2196 0.0
H850 H 0.41076 0.53084 0.30524 0.0
H851 H 0.4072 0.59427 0.3156 0.0
C852 C 0.4072 0.43505 0.27343 0.0
C853 C 0.38612 0.41662 0.27756 0.0
C854 C 0.40724 0.47105 0.26411 0.0
C855 C 0.38616 0.48956 0.25959 0.0
C856 C 0.36514 0.47019 0.26011 0.0
C857 C 0.36514 0.4338 0.26892 0.0
C858 C 0.36919 0.58695 0.24599 0.0
C859 C 0.38179 0.6032 0.27377 0.0
C860 C 0.37109 0.55003 0.24012 0.0
C861 C 0.38599 0.52917 0.26146 0.0
C862 C 0.39942 0.54609 0.28787 0.0
C863 C 0.39725 0.58253 0.29404 0.0
loop_
_geom_bond_atom_site_label_1
_geom_bond_atom_site_label_2
_geom_bond_distance
_geom_bond_site_symmetry_2
_ccdc_geom_bond_type
Co0 O1 2.216 . S
Co0 O2 2.091 . S
Co0 O4 2.004 . S
Co0 O10 2.021 . S
Co0 O12 2.137 . S
Co0 O13 2.244 . S
O1 Co0 2.216 . S
O1 C8 1.247 . S
O2 Co0 2.091 . S
O2 C8 1.261 . S
C3 O12 1.247 . S
C3 O13 1.272 . S
O4 Co0 2.004 . S
O4 C9 1.259 . S
Co5 O6 2.061 . S
Co5 O11 2.052 . S
Co5 O13 2.135 . S
O6 Co5 2.061 . S
O6 C9 1.235 . S
C7 O10 1.238 . S
C7 O11 1.241 . S
C8 O1 1.247 . S
C8 O2 1.261 . S
C9 O4 1.259 . S
C9 O6 1.235 . S
O10 Co0 2.021 . S
O10 C7 1.238 . S
O11 Co5 2.052 . S
O11 C7 1.241 . S
O12 Co0 2.137 . S
O12 C3 1.247 . S
O13 Co0 2.244 . S
O13 C3 1.272 . S
O13 Co5 2.135 . S
Co14 O15 2.216 . S
Co14 O16 2.091 . S
Co14 O18 2.004 . S
Co14 O24 2.021 . S
Co14 O26 2.137 . S
Co14 O27 2.244 . S
O15 Co14 2.216 . S
O15 C22 1.247 . S
O16 Co14 2.091 . S
O16 C22 1.261 . S
C17 O26 1.247 . S
C17 O27 1.272 . S
O18 Co14 2.004 . S
O18 C23 1.259 . S
Co19 O20 2.061 . S
Co19 O25 2.052 . S
Co19 O27 2.135 . S
O20 Co19 2.061 . S
O20 C23 1.235 . S
C21 O24 1.238 . S
C21 O25 1.241 . S
C22 O15 1.247 . S
C22 O16 1.261 . S
C23 O18 1.259 . S
C23 O20 1.235 . S
O24 Co14 2.021 . S
O24 C21 1.238 . S
O25 Co19 2.052 . S
O25 C21 1.241 . S
O26 Co14 2.137 . S
O26 C17 1.247 . S
O27 Co14 2.244 . S
O27 C17 1.272 . S
O27 Co19 2.135 . S
Co28 O29 2.216 . S
Co28 O30 2.091 . S
Co28 O32 2.004 . S
Co28 O38 2.021 . S
Co28 O40 2.137 . S
Co28 O41 2.244 . S
O29 Co28 2.216 . S
O29 C36 1.247 . S
O30 Co28 2.091 . S
O30 C36 1.261 . S
C31 O40 1.247 . S
C31 O41 1.272 . S
O32 Co28 2.004 . S
O32 C37 1.259 . S
Co33 O34 2.061 . S
Co33 O39 2.052 . S
Co33 O41 2.135 . S
O34 Co33 2.061 . S
O34 C37 1.235 . S
C35 O38 1.238 . S
C35 O39 1.241 . S
C36 O29 1.247 . S
C36 O30 1.261 . S
C37 O32 1.259 . S
C37 O34 1.235 . S
O38 Co28 2.021 . S
O38 C35 1.238 . S
O39 Co33 2.052 . S
O39 C35 1.241 . S
O40 Co28 2.137 . S
O40 C31 1.247 . S
O41 Co28 2.244 . S
O41 C31 1.272 . S
O41 Co33 2.135 . S
Co42 O43 2.216 . S
Co42 O44 2.091 . S
Co42 O46 2.004 . S
Co42 O52 2.021 . S
Co42 O54 2.137 . S
Co42 O55 2.244 . S
O43 Co42 2.216 . S
O43 C50 1.247 . S
O44 Co42 2.091 . S
O44 C50 1.261 . S
C45 O54 1.247 . S
C45 O55 1.272 . S
O46 Co42 2.004 . S
O46 C51 1.259 . S
Co47 O48 2.061 . S
Co47 O53 2.052 . S
Co47 O55 2.135 . S
O48 Co47 2.061 . S
O48 C51 1.235 . S
C49 O52 1.238 . S
C49 O53 1.241 . S
C50 O43 1.247 . S
C50 O44 1.261 . S
C51 O46 1.259 . S
C51 O48 1.235 . S
O52 Co42 2.021 . S
O52 C49 1.238 . S
O53 Co47 2.052 . S
O53 C49 1.241 . S
O54 Co42 2.137 . S
O54 C45 1.247 . S
O55 Co42 2.244 . S
O55 C45 1.272 . S
O55 Co47 2.135 . S
Co56 O57 2.216 . S
Co56 O58 2.091 . S
Co56 O60 2.004 . S
Co56 O66 2.021 . S
Co56 O68 2.137 . S
Co56 O69 2.244 . S
O57 Co56 2.216 . S
O57 C64 1.247 . S
O58 Co56 2.091 . S
O58 C64 1.261 . S
C59 O68 1.247 . S
C59 O69 1.272 . S
O60 Co56 2.004 . S
O60 C65 1.259 . S
Co61 O62 2.061 . S
Co61 O67 2.052 . S
Co61 O69 2.135 . S
O62 Co61 2.061 . S
O62 C65 1.235 . S
C63 O66 1.238 . S
C63 O67 1.241 . S
C64 O57 1.247 . S
C64 O58 1.261 . S
C65 O60 1.259 . S
C65 O62 1.235 . S
O66 Co56 2.021 . S
O66 C63 1.238 . S
O67 Co61 2.052 . S
O67 C63 1.241 . S
O68 Co56 2.137 . S
O68 C59 1.247 . S
O69 Co56 2.244 . S
O69 C59 1.272 . S
O69 Co61 2.135 . S
Co70 O71 2.216 . S
Co70 O72 2.091 . S
Co70 O74 2.004 . S
Co70 O80 2.021 . S
Co70 O82 2.137 . S
Co70 O83 2.244 . S
O71 Co70 2.216 . S
O71 C78 1.247 . S
O72 Co70 2.091 . S
O72 C78 1.261 . S
C73 O82 1.247 . S
C73 O83 1.272 . S
O74 Co70 2.004 . S
O74 C79 1.259 . S
Co75 O76 2.061 . S
Co75 O81 2.052 . S
Co75 O83 2.135 . S
O76 Co75 2.061 . S
O76 C79 1.235 . S
C77 O80 1.238 . S
C77 O81 1.241 . S
C78 O71 1.247 . S
C78 O72 1.261 . S
C79 O74 1.259 . S
C79 O76 1.235 . S
O80 Co70 2.021 . S
O80 C77 1.238 . S
O81 Co75 2.052 . S
O81 C77 1.241 . S
O82 Co70 2.137 . S
O82 C73 1.247 . S
O83 Co70 2.244 . S
O83 C73 1.272 . S
O83 Co75 2.135 . S
Co84 O85 2.216 . S
Co84 O86 2.091 . S
Co84 O88 2.004 . S
Co84 O94 2.021 . S
Co84 O96 2.137 . S
Co84 O97 2.244 . S
O85 Co84 2.216 . S
O85 C92 1.247 . S
O86 Co84 2.091 . S
O86 C92 1.261 . S
C87 O96 1.247 . S
C87 O97 1.272 . S
O88 Co84 2.004 . S
O88 C93 1.259 . S
Co89 O90 2.061 . S
Co89 O95 2.052 . S
Co89 O97 2.135 . S
O90 Co89 2.061 . S
O90 C93 1.235 . S
C91 O94 1.238 . S
C91 O95 1.241 . S
C92 O85 1.247 . S
C92 O86 1.261 . S
C93 O88 1.259 . S
C93 O90 1.235 . S
O94 Co84 2.021 . S
O94 C91 1.238 . S
O95 Co89 2.052 . S
O95 C91 1.241 . S
O96 Co84 2.137 . S
O96 C87 1.247 . S
O97 Co84 2.244 . S
O97 C87 1.272 . S
O97 Co89 2.135 . S
Co98 O99 2.216 . S
Co98 O100 2.091 . S
Co98 O102 2.004 . S
Co98 O108 2.021 . S
Co98 O110 2.137 . S
Co98 O111 2.244 . S
O99 Co98 2.216 . S
O99 C106 1.247 . S
O100 Co98 2.091 . S
O100 C106 1.261 . S
C101 O110 1.247 . S
C101 O111 1.272 . S
O102 Co98 2.004 . S
O102 C107 1.259 . S
Co103 O104 2.061 . S
Co103 O109 2.052 . S
Co103 O111 2.135 . S
O104 Co103 2.061 . S
O104 C107 1.235 . S
C105 O108 1.238 . S
C105 O109 1.241 . S
C106 O99 1.247 . S
C106 O100 1.261 . S
C107 O102 1.259 . S
C107 O104 1.235 . S
O108 Co98 2.021 . S
O108 C105 1.238 . S
O109 Co103 2.052 . S
O109 C105 1.241 . S
O110 Co98 2.137 . S
O110 C101 1.247 . S
O111 Co98 2.244 . S
O111 C101 1.272 . S
O111 Co103 2.135 . S
Co112 O113 2.216 . S
Co112 O114 2.091 . S
Co112 O116 2.004 . S
Co112 O122 2.021 . S
Co112 O124 2.137 . S
Co112 O125 2.244 . S
O113 Co112 2.216 . S
O113 C120 1.247 . S
O114 Co112 2.091 . S
O114 C120 1.261 . S
C115 O124 1.247 . S
C115 O125 1.272 . S
O116 Co112 2.004 . S
O116 C121 1.259 . S
Co117 O118 2.061 . S
Co117 O123 2.052 . S
Co117 O125 2.135 . S
O118 Co117 2.061 . S
O118 C121 1.235 . S
C119 O122 1.238 . S
C119 O123 1.241 . S
C120 O113 1.247 . S
C120 O114 1.261 . S
C121 O116 1.259 . S
C121 O118 1.235 . S
O122 Co112 2.021 . S
O122 C119 1.238 . S
O123 Co117 2.052 . S
O123 C119 1.241 . S
O124 Co112 2.137 . S
O124 C115 1.247 . S
O125 Co112 2.244 . S
O125 C115 1.272 . S
O125 Co117 2.135 . S
Co126 O127 2.216 . S
Co126 O128 2.091 . S
Co126 O130 2.004 . S
Co126 O136 2.021 . S
Co126 O138 2.137 . S
Co126 O139 2.244 . S
O127 Co126 2.216 . S
O127 C134 1.247 . S
O128 Co126 2.091 . S
O128 C134 1.261 . S
C129 O138 1.247 . S
C129 O139 1.272 . S
O130 Co126 2.004 . S
O130 C135 1.259 . S
Co131 O132 2.061 . S
Co131 O137 2.052 . S
Co131 O139 2.135 . S
O132 Co131 2.061 . S
O132 C135 1.235 . S
C133 O136 1.238 . S
C133 O137 1.241 . S
C134 O127 1.247 . S
C134 O128 1.261 . S
C135 O130 1.259 . S
C135 O132 1.235 . S
O136 Co126 2.021 . S
O136 C133 1.238 . S
O137 Co131 2.052 . S
O137 C133 1.241 . S
O138 Co126 2.137 . S
O138 C129 1.247 . S
O139 Co126 2.244 . S
O139 C129 1.272 . S
O139 Co131 2.135 . S
Co140 O141 2.216 . S
Co140 O142 2.091 . S
Co140 O144 2.004 . S
Co140 O150 2.021 . S
Co140 O152 2.137 . S
Co140 O153 2.244 . S
O141 Co140 2.216 . S
O141 C148 1.247 . S
O142 Co140 2.091 . S
O142 C148 1.261 . S
C143 O152 1.247 . S
C143 O153 1.272 . S
O144 Co140 2.004 . S
O144 C149 1.259 . S
Co145 O146 2.061 . S
Co145 O151 2.052 . S
Co145 O153 2.135 . S
O146 Co145 2.061 . S
O146 C149 1.235 . S
C147 O150 1.238 . S
C147 O151 1.241 . S
C148 O141 1.247 . S
C148 O142 1.261 . S
C149 O144 1.259 . S
C149 O146 1.235 . S
O150 Co140 2.021 . S
O150 C147 1.238 . S
O151 Co145 2.052 . S
O151 C147 1.241 . S
O152 Co140 2.137 . S
O152 C143 1.247 . S
O153 Co140 2.244 . S
O153 C143 1.272 . S
O153 Co145 2.135 . S
Co154 O155 2.216 . S
Co154 O156 2.091 . S
Co154 O158 2.004 . S
Co154 O164 2.021 . S
Co154 O166 2.137 . S
Co154 O167 2.244 . S
O155 Co154 2.216 . S
O155 C162 1.247 . S
O156 Co154 2.091 . S
O156 C162 1.261 . S
C157 O166 1.247 . S
C157 O167 1.272 . S
O158 Co154 2.004 . S
O158 C163 1.259 . S
Co159 O160 2.061 . S
Co159 O165 2.052 . S
Co159 O167 2.135 . S
O160 Co159 2.061 . S
O160 C163 1.235 . S
C161 O164 1.238 . S
C161 O165 1.241 . S
C162 O155 1.247 . S
C162 O156 1.261 . S
C163 O158 1.259 . S
C163 O160 1.235 . S
O164 Co154 2.021 . S
O164 C161 1.238 . S
O165 Co159 2.052 . S
O165 C161 1.241 . S
O166 Co154 2.137 . S
O166 C157 1.247 . S
O167 Co154 2.244 . S
O167 C157 1.272 . S
O167 Co159 2.135 . S
Co168 O169 2.216 . S
Co168 O170 2.091 . S
Co168 O172 2.004 . S
Co168 O178 2.021 . S
Co168 O180 2.137 . S
Co168 O181 2.244 . S
O169 Co168 2.216 . S
O169 C176 1.247 . S
O170 Co168 2.091 . S
O170 C176 1.261 . S
C171 O180 1.247 . S
C171 O181 1.272 . S
O172 Co168 2.004 . S
O172 C177 1.259 . S
Co173 O174 2.061 . S
Co173 O179 2.052 . S
Co173 O181 2.135 . S
O174 Co173 2.061 . S
O174 C177 1.235 . S
C175 O178 1.238 . S
C175 O179 1.241 . S
C176 O169 1.247 . S
C176 O170 1.261 . S
C177 O172 1.259 . S
C177 O174 1.235 . S
O178 Co168 2.021 . S
O178 C175 1.238 . S
O179 Co173 2.052 . S
O179 C175 1.241 . S
O180 Co168 2.137 . S
O180 C171 1.247 . S
O181 Co168 2.244 . S
O181 C171 1.272 . S
O181 Co173 2.135 . S
Co182 O183 2.216 . S
Co182 O184 2.091 . S
Co182 O186 2.004 . S
Co182 O192 2.021 . S
Co182 O194 2.137 . S
Co182 O195 2.244 . S
O183 Co182 2.216 . S
O183 C190 1.247 . S
O184 Co182 2.091 . S
O184 C190 1.261 . S
C185 O194 1.247 . S
C185 O195 1.272 . S
O186 Co182 2.004 . S
O186 C191 1.259 . S
Co187 O188 2.061 . S
Co187 O193 2.052 . S
Co187 O195 2.135 . S
O188 Co187 2.061 . S
O188 C191 1.235 . S
C189 O192 1.238 . S
C189 O193 1.241 . S
C190 O183 1.247 . S
C190 O184 1.261 . S
C191 O186 1.259 . S
C191 O188 1.235 . S
O192 Co182 2.021 . S
O192 C189 1.238 . S
O193 Co187 2.052 . S
O193 C189 1.241 . S
O194 Co182 2.137 . S
O194 C185 1.247 . S
O195 Co182 2.244 . S
O195 C185 1.272 . S
O195 Co187 2.135 . S
Co196 O197 2.216 . S
Co196 O198 2.091 . S
Co196 O200 2.004 . S
Co196 O206 2.021 . S
Co196 O208 2.137 . S
Co196 O209 2.244 . S
O197 Co196 2.216 . S
O197 C204 1.247 . S
O198 Co196 2.091 . S
O198 C204 1.261 . S
C199 O208 1.247 . S
C199 O209 1.272 . S
O200 Co196 2.004 . S
O200 C205 1.259 . S
Co201 O202 2.061 . S
Co201 O207 2.052 . S
Co201 O209 2.135 . S
O202 Co201 2.061 . S
O202 C205 1.235 . S
C203 O206 1.238 . S
C203 O207 1.241 . S
C204 O197 1.247 . S
C204 O198 1.261 . S
C205 O200 1.259 . S
C205 O202 1.235 . S
O206 Co196 2.021 . S
O206 C203 1.238 . S
O207 Co201 2.052 . S
O207 C203 1.241 . S
O208 Co196 2.137 . S
O208 C199 1.247 . S
O209 Co196 2.244 . S
O209 C199 1.272 . S
O209 Co201 2.135 . S
Co210 O211 2.216 . S
Co210 O212 2.091 . S
Co210 O214 2.004 . S
Co210 O220 2.021 . S
Co210 O222 2.137 . S
Co210 O223 2.244 . S
O211 Co210 2.216 . S
O211 C218 1.247 . S
O212 Co210 2.091 . S
O212 C218 1.261 . S
C213 O222 1.247 . S
C213 O223 1.272 . S
O214 Co210 2.004 . S
O214 C219 1.259 . S
Co215 O216 2.061 . S
Co215 O221 2.052 . S
Co215 O223 2.135 . S
O216 Co215 2.061 . S
O216 C219 1.235 . S
C217 O220 1.238 . S
C217 O221 1.241 . S
C218 O211 1.247 . S
C218 O212 1.261 . S
C219 O214 1.259 . S
C219 O216 1.235 . S
O220 Co210 2.021 . S
O220 C217 1.238 . S
O221 Co215 2.052 . S
O221 C217 1.241 . S
O222 Co210 2.137 . S
O222 C213 1.247 . S
O223 Co210 2.244 . S
O223 C213 1.272 . S
O223 Co215 2.135 . S
H224 C232 0.950 . S
H225 C237 0.950 . S
H226 C234 0.950 . S
H227 C236 0.950 . S
H228 C238 0.950 . S
H229 C240 0.950 . S
H230 C242 0.950 . S
H231 C243 0.950 . S
C232 H224 0.950 . S
C232 C233 1.386 . S
C232 C234 1.391 . S
C233 C232 1.386 . S
C233 C237 1.393 . S
C234 H226 0.950 . S
C234 C232 1.391 . S
C234 C235 1.400 . S
C235 C234 1.400 . S
C235 C236 1.398 . S
C235 C241 1.491 . S
C236 H227 0.950 . S
C236 C235 1.398 . S
C236 C237 1.391 . S
C237 H225 0.950 . S
C237 C233 1.393 . S
C237 C236 1.391 . S
C238 H228 0.950 . S
C238 C239 1.386 . S
C238 C240 1.391 . S
C239 C238 1.386 . S
C239 C243 1.393 . S
C240 H229 0.950 . S
C240 C238 1.391 . S
C240 C241 1.400 . S
C241 C235 1.491 . S
C241 C240 1.400 . S
C241 C242 1.398 . S
C242 H230 0.950 . S
C242 C241 1.398 . S
C242 C243 1.391 . S
C243 H231 0.950 . S
C243 C239 1.393 . S
C243 C242 1.391 . S
H244 C252 0.950 . S
H245 C257 0.950 . S
H246 C254 0.950 . S
H247 C256 0.950 . S
H248 C258 0.950 . S
H249 C260 0.950 . S
H250 C262 0.950 . S
H251 C263 0.950 . S
C252 H244 0.950 . S
C252 C253 1.386 . S
C252 C254 1.391 . S
C253 C252 1.386 . S
C253 C257 1.393 . S
C254 H246 0.950 . S
C254 C252 1.391 . S
C254 C255 1.400 . S
C255 C254 1.400 . S
C255 C256 1.398 . S
C255 C261 1.491 . S
C256 H247 0.950 . S
C256 C255 1.398 . S
C256 C257 1.391 . S
C257 H245 0.950 . S
C257 C253 1.393 . S
C257 C256 1.391 . S
C258 H248 0.950 . S
C258 C259 1.386 . S
C258 C260 1.391 . S
C259 C258 1.386 . S
C259 C263 1.393 . S
C260 H249 0.950 . S
C260 C258 1.391 . S
C260 C261 1.400 . S
C261 C255 1.491 . S
C261 C260 1.400 . S
C261 C262 1.398 . S
C262 H250 0.950 . S
C262 C261 1.398 . S
C262 C263 1.391 . S
C263 H251 0.950 . S
C263 C259 1.393 . S
C263 C262 1.391 . S
H264 C272 0.950 . S
H265 C277 0.950 . S
H266 C274 0.950 . S
H267 C276 0.950 . S
H268 C278 0.950 . S
H269 C280 0.950 . S
H270 C282 0.950 . S
H271 C283 0.950 . S
C272 H264 0.950 . S
C272 C273 1.386 . S
C272 C274 1.391 . S
C273 C272 1.386 . S
C273 C277 1.393 . S
C274 H266 0.950 . S
C274 C272 1.391 . S
C274 C275 1.400 . S
C275 C274 1.400 . S
C275 C276 1.398 . S
C275 C281 1.491 . S
C276 H267 0.950 . S
C276 C275 1.398 . S
C276 C277 1.391 . S
C277 H265 0.950 . S
C277 C273 1.393 . S
C277 C276 1.391 . S
C278 H268 0.950 . S
C278 C279 1.386 . S
C278 C280 1.391 . S
C279 C278 1.386 . S
C279 C283 1.393 . S
C280 H269 0.950 . S
C280 C278 1.391 . S
C280 C281 1.400 . S
C281 C275 1.491 . S
C281 C280 1.400 . S
C281 C282 1.398 . S
C282 H270 0.950 . S
C282 C281 1.398 . S
C282 C283 1.391 . S
C283 H271 0.950 . S
C283 C279 1.393 . S
C283 C282 1.391 . S
H284 C292 0.950 . S
H285 C297 0.950 . S
H286 C294 0.950 . S
H287 C296 0.950 . S
H288 C298 0.950 . S
H289 C300 0.950 . S
H290 C302 0.950 . S
H291 C303 0.950 . S
C292 H284 0.950 . S
C292 C293 1.386 . S
C292 C294 1.391 . S
C293 C292 1.386 . S
C293 C297 1.393 . S
C294 H286 0.950 . S
C294 C292 1.391 . S
C294 C295 1.400 . S
C295 C294 1.400 . S
C295 C296 1.398 . S
C295 C301 1.491 . S
C296 H287 0.950 . S
C296 C295 1.398 . S
C296 C297 1.391 . S
C297 H285 0.950 . S
C297 C293 1.393 . S
C297 C296 1.391 . S
C298 H288 0.950 . S
C298 C299 1.386 . S
C298 C300 1.391 . S
C299 C298 1.386 . S
C299 C303 1.393 . S
C300 H289 0.950 . S
C300 C298 1.391 . S
C300 C301 1.400 . S
C301 C295 1.491 . S
C301 C300 1.400 . S
C301 C302 1.398 . S
C302 H290 0.950 . S
C302 C301 1.398 . S
C302 C303 1.391 . S
C303 H291 0.950 . S
C303 C299 1.393 . S
C303 C302 1.391 . S
H304 C312 0.950 . S
H305 C317 0.950 . S
H306 C314 0.950 . S
H307 C316 0.950 . S
H308 C318 0.950 . S
H309 C320 0.950 . S
H310 C322 0.950 . S
H311 C323 0.950 . S
C312 H304 0.950 . S
C312 C313 1.386 . S
C312 C314 1.391 . S
C313 C312 1.386 . S
C313 C317 1.393 . S
C314 H306 0.950 . S
C314 C312 1.391 . S
C314 C315 1.400 . S
C315 C314 1.400 . S
C315 C316 1.398 . S
C315 C321 1.491 . S
C316 H307 0.950 . S
C316 C315 1.398 . S
C316 C317 1.391 . S
C317 H305 0.950 . S
C317 C313 1.393 . S
C317 C316 1.391 . S
C318 H308 0.950 . S
C318 C319 1.386 . S
C318 C320 1.391 . S
C319 C318 1.386 . S
C319 C323 1.393 . S
C320 H309 0.950 . S
C320 C318 1.391 . S
C320 C321 1.400 . S
C321 C315 1.491 . S
C321 C320 1.400 . S
C321 C322 1.398 . S
C322 H310 0.950 . S
C322 C321 1.398 . S
C322 C323 1.391 . S
C323 H311 0.950 . S
C323 C319 1.393 . S
C323 C322 1.391 . S
H324 C332 0.950 . S
H325 C337 0.950 . S
H326 C334 0.950 . S
H327 C336 0.950 . S
H328 C338 0.950 . S
H329 C340 0.950 . S
H330 C342 0.950 . S
H331 C343 0.950 . S
C332 H324 0.950 . S
C332 C333 1.386 . S
C332 C334 1.391 . S
C333 C332 1.386 . S
C333 C337 1.393 . S
C334 H326 0.950 . S
C334 C332 1.391 . S
C334 C335 1.400 . S
C335 C334 1.400 . S
C335 C336 1.398 . S
C335 C341 1.491 . S
C336 H327 0.950 . S
C336 C335 1.398 . S
C336 C337 1.391 . S
C337 H325 0.950 . S
C337 C333 1.393 . S
C337 C336 1.391 . S
C338 H328 0.950 . S
C338 C339 1.386 . S
C338 C340 1.391 . S
C339 C338 1.386 . S
C339 C343 1.393 . S
C340 H329 0.950 . S
C340 C338 1.391 . S
C340 C341 1.400 . S
C341 C335 1.491 . S
C341 C340 1.400 . S
C341 C342 1.398 . S
C342 H330 0.950 . S
C342 C341 1.398 . S
C342 C343 1.391 . S
C343 H331 0.950 . S
C343 C339 1.393 . S
C343 C342 1.391 . S
H344 C352 0.950 . S
H345 C357 0.950 . S
H346 C354 0.950 . S
H347 C356 0.950 . S
H348 C358 0.950 . S
H349 C360 0.950 . S
H350 C362 0.950 . S
H351 C363 0.950 . S
C352 H344 0.950 . S
C352 C353 1.386 . S
C352 C354 1.391 . S
C353 C352 1.386 . S
C353 C357 1.393 . S
C354 H346 0.950 . S
C354 C352 1.391 . S
C354 C355 1.400 . S
C355 C354 1.400 . S
C355 C356 1.398 . S
C355 C361 1.491 . S
C356 H347 0.950 . S
C356 C355 1.398 . S
C356 C357 1.391 . S
C357 H345 0.950 . S
C357 C353 1.393 . S
C357 C356 1.391 . S
C358 H348 0.950 . S
C358 C359 1.386 . S
C358 C360 1.391 . S
C359 C358 1.386 . S
C359 C363 1.393 . S
C360 H349 0.950 . S
C360 C358 1.391 . S
C360 C361 1.400 . S
C361 C355 1.491 . S
C361 C360 1.400 . S
C361 C362 1.398 . S
C362 H350 0.950 . S
C362 C361 1.398 . S
C362 C363 1.391 . S
C363 H351 0.950 . S
C363 C359 1.393 . S
C363 C362 1.391 . S
H364 C372 0.950 . S
H365 C377 0.950 . S
H366 C374 0.950 . S
H367 C376 0.950 . S
H368 C378 0.950 . S
H369 C380 0.950 . S
H370 C382 0.950 . S
H371 C383 0.950 . S
C372 H364 0.950 . S
C372 C373 1.386 . S
C372 C374 1.391 . S
C373 C372 1.386 . S
C373 C377 1.393 . S
C374 H366 0.950 . S
C374 C372 1.391 . S
C374 C375 1.400 . S
C375 C374 1.400 . S
C375 C376 1.398 . S
C375 C381 1.491 . S
C376 H367 0.950 . S
C376 C375 1.398 . S
C376 C377 1.391 . S
C377 H365 0.950 . S
C377 C373 1.393 . S
C377 C376 1.391 . S
C378 H368 0.950 . S
C378 C379 1.386 . S
C378 C380 1.391 . S
C379 C378 1.386 . S
C379 C383 1.393 . S
C380 H369 0.950 . S
C380 C378 1.391 . S
C380 C381 1.400 . S
C381 C375 1.491 . S
C381 C380 1.400 . S
C381 C382 1.398 . S
C382 H370 0.950 . S
C382 C381 1.398 . S
C382 C383 1.391 . S
C383 H371 0.950 . S
C383 C379 1.393 . S
C383 C382 1.391 . S
H384 C392 0.950 . S
H385 C397 0.950 . S
H386 C394 0.950 . S
H387 C396 0.950 . S
H388 C398 0.950 . S
H389 C400 0.950 . S
H390 C402 0.950 . S
H391 C403 0.950 . S
C392 H384 0.950 . S
C392 C393 1.386 . S
C392 C394 1.391 . S
C393 C392 1.386 . S
C393 C397 1.393 . S
C394 H386 0.950 . S
C394 C392 1.391 . S
C394 C395 1.400 . S
C395 C394 1.400 . S
C395 C396 1.398 . S
C395 C401 1.491 1_556 S
C396 H387 0.950 . S
C396 C395 1.398 . S
C396 C397 1.391 . S
C397 H385 0.950 . S
C397 C393 1.393 . S
C397 C396 1.391 . S
C398 H388 0.950 . S
C398 C399 1.386 . S
C398 C400 1.391 . S
C399 C398 1.386 . S
C399 C403 1.393 . S
C400 H389 0.950 . S
C400 C398 1.391 . S
C400 C401 1.400 . S
C401 C395 1.491 1_554 S
C401 C400 1.400 . S
C401 C402 1.398 . S
C402 H390 0.950 . S
C402 C401 1.398 . S
C402 C403 1.391 . S
C403 H391 0.950 . S
C403 C399 1.393 . S
C403 C402 1.391 . S
H404 C412 0.950 . S
H405 C417 0.950 . S
H406 C414 0.950 . S
H407 C416 0.950 . S
H408 C418 0.950 . S
H409 C420 0.950 . S
H410 C422 0.950 . S
H411 C423 0.950 . S
C412 H404 0.950 . S
C412 C413 1.386 . S
C412 C414 1.391 . S
C413 C412 1.386 . S
C413 C417 1.393 . S
C414 H406 0.950 . S
C414 C412 1.391 . S
C414 C415 1.400 . S
C415 C414 1.400 . S
C415 C416 1.398 . S
C415 C421 1.491 1_556 S
C416 H407 0.950 . S
C416 C415 1.398 . S
C416 C417 1.391 . S
C417 H405 0.950 . S
C417 C413 1.393 . S
C417 C416 1.391 . S
C418 H408 0.950 . S
C418 C419 1.386 . S
C418 C420 1.391 . S
C419 C418 1.386 . S
C419 C423 1.393 . S
C420 H409 0.950 . S
C420 C418 1.391 . S
C420 C421 1.400 . S
C421 C415 1.491 1_554 S
C421 C420 1.400 . S
C421 C422 1.398 . S
C422 H410 0.950 . S
C422 C421 1.398 . S
C422 C423 1.391 . S
C423 H411 0.950 . S
C423 C419 1.393 . S
C423 C422 1.391 . S
H424 C432 0.950 . S
H425 C437 0.950 . S
H426 C434 0.950 . S
H427 C436 0.950 . S
H428 C438 0.950 . S
H429 C440 0.950 . S
H430 C442 0.950 . S
H431 C443 0.950 . S
C432 H424 0.950 . S
C432 C433 1.386 . S
C432 C434 1.391 . S
C433 C432 1.386 . S
C433 C437 1.393 . S
C434 H426 0.950 . S
C434 C432 1.391 . S
C434 C435 1.400 . S
C435 C434 1.400 . S
C435 C436 1.398 . S
C435 C441 1.491 1_556 S
C436 H427 0.950 . S
C436 C435 1.398 . S
C436 C437 1.391 . S
C437 H425 0.950 . S
C437 C433 1.393 . S
C437 C436 1.391 . S
C438 H428 0.950 . S
C438 C439 1.386 . S
C438 C440 1.391 . S
C439 C438 1.386 . S
C439 C443 1.393 . S
C440 H429 0.950 . S
C440 C438 1.391 . S
C440 C441 1.400 . S
C441 C435 1.491 1_554 S
C441 C440 1.400 . S
C441 C442 1.398 . S
C442 H430 0.950 . S
C442 C441 1.398 . S
C442 C443 1.391 . S
C443 H431 0.950 . S
C443 C439 1.393 . S
C443 C442 1.391 . S
H444 C452 0.950 . S
H445 C457 0.950 . S
H446 C454 0.950 . S
H447 C456 0.950 . S
H448 C458 0.950 . S
H449 C460 0.950 . S
H450 C462 0.950 . S
H451 C463 0.950 . S
C452 H444 0.950 . S
C452 C453 1.386 . S
C452 C454 1.391 . S
C453 C452 1.386 . S
C453 C457 1.393 . S
C454 H446 0.950 . S
C454 C452 1.391 . S
C454 C455 1.400 . S
C455 C454 1.400 . S
C455 C456 1.398 . S
C455 C461 1.491 1_554 S
C456 H447 0.950 . S
C456 C455 1.398 . S
C456 C457 1.391 . S
C457 H445 0.950 . S
C457 C453 1.393 . S
C457 C456 1.391 . S
C458 H448 0.950 . S
C458 C459 1.386 . S
C458 C460 1.391 . S
C459 C458 1.386 . S
C459 C463 1.393 . S
C460 H449 0.950 . S
C460 C458 1.391 . S
C460 C461 1.400 . S
C461 C455 1.491 1_556 S
C461 C460 1.400 . S
C461 C462 1.398 . S
C462 H450 0.950 . S
C462 C461 1.398 . S
C462 C463 1.391 . S
C463 H451 0.950 . S
C463 C459 1.393 . S
C463 C462 1.391 . S
H464 C472 0.950 . S
H465 C477 0.950 . S
H466 C474 0.950 . S
H467 C476 0.950 . S
H468 C478 0.950 . S
H469 C480 0.950 . S
H470 C482 0.950 . S
H471 C483 0.950 . S
C472 H464 0.950 . S
C472 C473 1.386 . S
C472 C474 1.391 . S
C473 C472 1.386 . S
C473 C477 1.393 . S
C474 H466 0.950 . S
C474 C472 1.391 . S
C474 C475 1.400 . S
C475 C474 1.400 . S
C475 C476 1.398 . S
C475 C481 1.491 1_455 S
C476 H467 0.950 . S
C476 C475 1.398 . S
C476 C477 1.391 . S
C477 H465 0.950 . S
C477 C473 1.393 . S
C477 C476 1.391 . S
C478 H468 0.950 . S
C478 C479 1.386 . S
C478 C480 1.391 . S
C479 C478 1.386 . S
C479 C483 1.393 . S
C480 H469 0.950 . S
C480 C478 1.391 . S
C480 C481 1.400 . S
C481 C475 1.491 1_655 S
C481 C480 1.400 . S
C481 C482 1.398 . S
C482 H470 0.950 . S
C482 C481 1.398 . S
C482 C483 1.391 . S
C483 H471 0.950 . S
C483 C479 1.393 . S
C483 C482 1.391 . S
H484 C492 0.950 . S
H485 C497 0.950 . S
H486 C494 0.950 . S
H487 C496 0.950 . S
H488 C498 0.950 . S
H489 C500 0.950 . S
H490 C502 0.950 . S
H491 C503 0.950 . S
C492 H484 0.950 . S
C492 C493 1.386 . S
C492 C494 1.391 . S
C493 C492 1.386 . S
C493 C497 1.393 . S
C494 H486 0.950 . S
C494 C492 1.391 . S
C494 C495 1.400 . S
C495 C494 1.400 . S
C495 C496 1.398 . S
C495 C501 1.491 1_565 S
C496 H487 0.950 . S
C496 C495 1.398 . S
C496 C497 1.391 . S
C497 H485 0.950 . S
C497 C493 1.393 . S
C497 C496 1.391 . S
C498 H488 0.950 . S
C498 C499 1.386 . S
C498 C500 1.391 . S
C499 C498 1.386 . S
C499 C503 1.393 . S
C500 H489 0.950 . S
C500 C498 1.391 . S
C500 C501 1.400 . S
C501 C495 1.491 1_545 S
C501 C500 1.400 . S
C501 C502 1.398 . S
C502 H490 0.950 . S
C502 C501 1.398 . S
C502 C503 1.391 . S
C503 H491 0.950 . S
C503 C499 1.393 . S
C503 C502 1.391 . S
H504 C512 0.950 . S
H505 C517 0.950 . S
H506 C514 0.950 . S
H507 C516 0.950 . S
H508 C518 0.950 . S
H509 C520 0.950 . S
H510 C522 0.950 . S
H511 C523 0.950 . S
C512 H504 0.950 . S
C512 C513 1.386 . S
C512 C514 1.391 . S
C513 C512 1.386 . S
C513 C517 1.393 . S
C514 H506 0.950 . S
C514 C512 1.391 . S
C514 C515 1.400 . S
C515 C514 1.400 . S
C515 C516 1.398 . S
C515 C521 1.491 1_655 S
C516 H507 0.950 . S
C516 C515 1.398 . S
C516 C517 1.391 . S
C517 H505 0.950 . S
C517 C513 1.393 . S
C517 C516 1.391 . S
C518 H508 0.950 . S
C518 C519 1.386 . S
C518 C520 1.391 . S
C519 C518 1.386 . S
C519 C523 1.393 . S
C520 H509 0.950 . S
C520 C518 1.391 . S
C520 C521 1.400 . S
C521 C515 1.491 1_455 S
C521 C520 1.400 . S
C521 C522 1.398 . S
C522 H510 0.950 . S
C522 C521 1.398 . S
C522 C523 1.391 . S
C523 H511 0.950 . S
C523 C519 1.393 . S
C523 C522 1.391 . S
H524 C532 0.950 . S
H525 C537 0.950 . S
H526 C534 0.950 . S
H527 C536 0.950 . S
H528 C538 0.950 . S
H529 C540 0.950 . S
H530 C542 0.950 . S
H531 C543 0.950 . S
C532 H524 0.950 . S
C532 C533 1.386 . S
C532 C534 1.391 . S
C533 C532 1.386 . S
C533 C537 1.393 . S
C534 H526 0.950 . S
C534 C532 1.391 . S
C534 C535 1.400 . S
C535 C534 1.400 . S
C535 C536 1.398 . S
C535 C541 1.491 1_545 S
C536 H527 0.950 . S
C536 C535 1.398 . S
C536 C537 1.391 . S
C537 H525 0.950 . S
C537 C533 1.393 . S
C537 C536 1.391 . S
C538 H528 0.950 . S
C538 C539 1.386 . S
C538 C540 1.391 . S
C539 C538 1.386 . S
C539 C543 1.393 . S
C540 H529 0.950 . S
C540 C538 1.391 . S
C540 C541 1.400 . S
C541 C535 1.491 1_565 S
C541 C540 1.400 . S
C541 C542 1.398 . S
C542 H530 0.950 . S
C542 C541 1.398 . S
C542 C543 1.391 . S
C543 H531 0.950 . S
C543 C539 1.393 . S
C543 C542 1.391 . S
H544 C552 0.950 . S
H545 C557 0.950 . S
H546 C554 0.950 . S
H547 C556 0.950 . S
H548 C558 0.950 . S
H549 C560 0.950 . S
H550 C562 0.950 . S
H551 C563 0.950 . S
C552 H544 0.950 . S
C552 C553 1.386 . S
C552 C554 1.391 . S
C553 C552 1.386 . S
C553 C557 1.393 . S
C554 H546 0.950 . S
C554 C552 1.391 . S
C554 C555 1.400 . S
C555 C554 1.400 . S
C555 C556 1.398 . S
C555 C561 1.491 1_655 S
C556 H547 0.950 . S
C556 C555 1.398 . S
C556 C557 1.391 . S
C557 H545 0.950 . S
C557 C553 1.393 . S
C557 C556 1.391 . S
C558 H548 0.950 . S
C558 C559 1.386 . S
C558 C560 1.391 . S
C559 C558 1.386 . S
C559 C563 1.393 . S
C560 H549 0.950 . S
C560 C558 1.391 . S
C560 C561 1.400 . S
C561 C555 1.491 1_455 S
C561 C560 1.400 . S
C561 C562 1.398 . S
C562 H550 0.950 . S
C562 C561 1.398 . S
C562 C563 1.391 . S
C563 H551 0.950 . S
C563 C559 1.393 . S
C563 C562 1.391 . S
H564 C572 0.950 . S
H565 C577 0.950 . S
H566 C574 0.950 . S
H567 C576 0.950 . S
H568 C578 0.950 . S
H569 C580 0.950 . S
H570 C582 0.950 . S
H571 C583 0.950 . S
C572 H564 0.950 . S
C572 C573 1.386 . S
C572 C574 1.391 . S
C573 C572 1.386 . S
C573 C577 1.393 . S
C574 H566 0.950 . S
C574 C572 1.391 . S
C574 C575 1.400 . S
C575 C574 1.400 . S
C575 C576 1.398 . S
C575 C581 1.491 1_565 S
C576 H567 0.950 . S
C576 C575 1.398 . S
C576 C577 1.391 . S
C577 H565 0.950 . S
C577 C573 1.393 . S
C577 C576 1.391 . S
C578 H568 0.950 . S
C578 C579 1.386 . S
C578 C580 1.391 . S
C579 C578 1.386 . S
C579 C583 1.393 . S
C580 H569 0.950 . S
C580 C578 1.391 . S
C580 C581 1.400 . S
C581 C575 1.491 1_545 S
C581 C580 1.400 . S
C581 C582 1.398 . S
C582 H570 0.950 . S
C582 C581 1.398 . S
C582 C583 1.391 . S
C583 H571 0.950 . S
C583 C579 1.393 . S
C583 C582 1.391 . S
H584 C592 0.950 . S
H585 C597 0.950 . S
H586 C594 0.950 . S
H587 C596 0.950 . S
H588 C598 0.950 . S
H589 C600 0.950 . S
H590 C602 0.950 . S
H591 C603 0.950 . S
C592 H584 0.950 . S
C592 C593 1.386 . S
C592 C594 1.391 . S
C593 C592 1.386 . S
C593 C597 1.393 . S
C594 H586 0.950 . S
C594 C592 1.391 . S
C594 C595 1.400 . S
C595 C594 1.400 . S
C595 C596 1.398 . S
C595 C601 1.491 1_455 S
C596 H587 0.950 . S
C596 C595 1.398 . S
C596 C597 1.391 . S
C597 H585 0.950 . S
C597 C593 1.393 . S
C597 C596 1.391 . S
C598 H588 0.950 . S
C598 C599 1.386 . S
C598 C600 1.391 . S
C599 C598 1.386 . S
C599 C603 1.393 . S
C600 H589 0.950 . S
C600 C598 1.391 . S
C600 C601 1.400 . S
C601 C595 1.491 1_655 S
C601 C600 1.400 . S
C601 C602 1.398 . S
C602 H590 0.950 . S
C602 C601 1.398 . S
C602 C603 1.391 . S
C603 H591 0.950 . S
C603 C599 1.393 . S
C603 C602 1.391 . S
H604 C612 0.950 . S
H605 C617 0.950 . S
H606 C614 0.950 . S
H607 C616 0.950 . S
H608 C618 0.950 . S
H609 C620 0.950 . S
H610 C622 0.950 . S
H611 C623 0.950 . S
C612 H604 0.950 . S
C612 C613 1.386 . S
C612 C614 1.391 . S
C613 C612 1.386 . S
C613 C617 1.393 . S
C614 H606 0.950 . S
C614 C612 1.391 . S
C614 C615 1.400 . S
C615 C614 1.400 . S
C615 C616 1.398 . S
C615 C621 1.491 1_565 S
C616 H607 0.950 . S
C616 C615 1.398 . S
C616 C617 1.391 . S
C617 H605 0.950 . S
C617 C613 1.393 . S
C617 C616 1.391 . S
C618 H608 0.950 . S
C618 C619 1.386 . S
C618 C620 1.391 . S
C619 C618 1.386 . S
C619 C623 1.393 . S
C620 H609 0.950 . S
C620 C618 1.391 . S
C620 C621 1.400 . S
C621 C615 1.491 1_545 S
C621 C620 1.400 . S
C621 C622 1.398 . S
C622 H610 0.950 . S
C622 C621 1.398 . S
C622 C623 1.391 . S
C623 H611 0.950 . S
C623 C619 1.393 . S
C623 C622 1.391 . S
H624 C632 0.950 . S
H625 C637 0.950 . S
H626 C634 0.950 . S
H627 C636 0.950 . S
H628 C638 0.950 . S
H629 C640 0.950 . S
H630 C642 0.950 . S
H631 C643 0.950 . S
C632 H624 0.950 . S
C632 C633 1.386 . S
C632 C634 1.391 . S
C633 C632 1.386 . S
C633 C637 1.393 . S
C634 H626 0.950 . S
C634 C632 1.391 . S
C634 C635 1.400 . S
C635 C634 1.400 . S
C635 C636 1.398 . S
C635 C641 1.491 . S
C636 H627 0.950 . S
C636 C635 1.398 . S
C636 C637 1.391 . S
C637 H625 0.950 . S
C637 C633 1.393 . S
C637 C636 1.391 . S
C638 H628 0.950 . S
C638 C639 1.386 . S
C638 C640 1.391 . S
C639 C638 1.386 . S
C639 C643 1.393 . S
C640 H629 0.950 . S
C640 C638 1.391 . S
C640 C641 1.400 . S
C641 C635 1.491 . S
C641 C640 1.400 . S
C641 C642 1.398 . S
C642 H630 0.950 . S
C642 C641 1.398 . S
C642 C643 1.391 . S
C643 H631 0.950 . S
C643 C639 1.393 . S
C643 C642 1.391 . S
H644 C652 0.950 . S
H645 C657 0.950 . S
H646 C654 0.950 . S
H647 C656 0.950 . S
H648 C658 0.950 . S
H649 C660 0.950 . S
H650 C662 0.950 . S
H651 C663 0.950 . S
C652 H644 0.950 . S
C652 C653 1.386 . S
C652 C654 1.391 . S
C653 C652 1.386 . S
C653 C657 1.393 . S
C654 H646 0.950 . S
C654 C652 1.391 . S
C654 C655 1.400 . S
C655 C654 1.400 . S
C655 C656 1.398 . S
C655 C661 1.491 . S
C656 H647 0.950 . S
C656 C655 1.398 . S
C656 C657 1.391 . S
C657 H645 0.950 . S
C657 C653 1.393 . S
C657 C656 1.391 . S
C658 H648 0.950 . S
C658 C659 1.386 . S
C658 C660 1.391 . S
C659 C658 1.386 . S
C659 C663 1.393 . S
C660 H649 0.950 . S
C660 C658 1.391 . S
C660 C661 1.400 . S
C661 C655 1.491 . S
C661 C660 1.400 . S
C661 C662 1.398 . S
C662 H650 0.950 . S
C662 C661 1.398 . S
C662 C663 1.391 . S
C663 H651 0.950 . S
C663 C659 1.393 . S
C663 C662 1.391 . S
H664 C672 0.950 . S
H665 C677 0.950 . S
H666 C674 0.950 . S
H667 C676 0.950 . S
H668 C678 0.950 . S
H669 C680 0.950 . S
H670 C682 0.950 . S
H671 C683 0.950 . S
C672 H664 0.950 . S
C672 C673 1.386 . S
C672 C674 1.391 . S
C673 C672 1.386 . S
C673 C677 1.393 . S
C674 H666 0.950 . S
C674 C672 1.391 . S
C674 C675 1.400 . S
C675 C674 1.400 . S
C675 C676 1.398 . S
C675 C681 1.491 . S
C676 H667 0.950 . S
C676 C675 1.398 . S
C676 C677 1.391 . S
C677 H665 0.950 . S
C677 C673 1.393 . S
C677 C676 1.391 . S
C678 H668 0.950 . S
C678 C679 1.386 . S
C678 C680 1.391 . S
C679 C678 1.386 . S
C679 C683 1.393 . S
C680 H669 0.950 . S
C680 C678 1.391 . S
C680 C681 1.400 . S
C681 C675 1.491 . S
C681 C680 1.400 . S
C681 C682 1.398 . S
C682 H670 0.950 . S
C682 C681 1.398 . S
C682 C683 1.391 . S
C683 H671 0.950 . S
C683 C679 1.393 . S
C683 C682 1.391 . S
H684 C692 0.950 . S
H685 C697 0.950 . S
H686 C694 0.950 . S
H687 C696 0.950 . S
H688 C698 0.950 . S
H689 C700 0.950 . S
H690 C702 0.950 . S
H691 C703 0.950 . S
C692 H684 0.950 . S
C692 C693 1.386 . S
C692 C694 1.391 . S
C693 C692 1.386 . S
C693 C697 1.393 . S
C694 H686 0.950 . S
C694 C692 1.391 . S
C694 C695 1.400 . S
C695 C694 1.400 . S
C695 C696 1.398 . S
C695 C701 1.491 . S
C696 H687 0.950 . S
C696 C695 1.398 . S
C696 C697 1.391 . S
C697 H685 0.950 . S
C697 C693 1.393 . S
C697 C696 1.391 . S
C698 H688 0.950 . S
C698 C699 1.386 . S
C698 C700 1.391 . S
C699 C698 1.386 . S
C699 C703 1.393 . S
C700 H689 0.950 . S
C700 C698 1.391 . S
C700 C701 1.400 . S
C701 C695 1.491 . S
C701 C700 1.400 . S
C701 C702 1.398 . S
C702 H690 0.950 . S
C702 C701 1.398 . S
C702 C703 1.391 . S
C703 H691 0.950 . S
C703 C699 1.393 . S
C703 C702 1.391 . S
H704 C712 0.950 . S
H705 C717 0.950 . S
H706 C714 0.950 . S
H707 C716 0.950 . S
H708 C718 0.950 . S
H709 C720 0.950 . S
H710 C722 0.950 . S
H711 C723 0.950 . S
C712 H704 0.950 . S
C712 C713 1.386 . S
C712 C714 1.391 . S
C713 C712 1.386 . S
C713 C717 1.393 . S
C714 H706 0.950 . S
C714 C712 1.391 . S
C714 C715 1.400 . S
C715 C714 1.400 . S
C715 C716 1.398 . S
C715 C721 1.491 . S
C716 H707 0.950 . S
C716 C715 1.398 . S
C716 C717 1.391 . S
C717 H705 0.950 . S
C717 C713 1.393 . S
C717 C716 1.391 . S
C718 H708 0.950 . S
C718 C719 1.386 . S
C718 C720 1.391 . S
C719 C718 1.386 . S
C719 C723 1.393 . S
C720 H709 0.950 . S
C720 C718 1.391 . S
C720 C721 1.400 . S
C721 C715 1.491 . S
C721 C720 1.400 . S
C721 C722 1.398 . S
C722 H710 0.950 . S
C722 C721 1.398 . S
C722 C723 1.391 . S
C723 H711 0.950 . S
C723 C719 1.393 . S
C723 C722 1.391 . S
H724 C732 0.950 . S
H725 C737 0.950 . S
H726 C734 0.950 . S
H727 C736 0.950 . S
H728 C738 0.950 . S
H729 C740 0.950 . S
H730 C742 0.950 . S
H731 C743 0.950 . S
C732 H724 0.950 . S
C732 C733 1.386 . S
C732 C734 1.391 . S
C733 C732 1.386 . S
C733 C737 1.393 . S
C734 H726 0.950 . S
C734 C732 1.391 . S
C734 C735 1.400 . S
C735 C734 1.400 . S
C735 C736 1.398 . S
C735 C741 1.491 . S
C736 H727 0.950 . S
C736 C735 1.398 . S
C736 C737 1.391 . S
C737 H725 0.950 . S
C737 C733 1.393 . S
C737 C736 1.391 . S
C738 H728 0.950 . S
C738 C739 1.386 . S
C738 C740 1.391 . S
C739 C738 1.386 . S
C739 C743 1.393 . S
C740 H729 0.950 . S
C740 C738 1.391 . S
C740 C741 1.400 . S
C741 C735 1.491 . S
C741 C740 1.400 . S
C741 C742 1.398 . S
C742 H730 0.950 . S
C742 C741 1.398 . S
C742 C743 1.391 . S
C743 H731 0.950 . S
C743 C739 1.393 . S
C743 C742 1.391 . S
H744 C752 0.950 . S
H745 C757 0.950 . S
H746 C754 0.950 . S
H747 C756 0.950 . S
H748 C758 0.950 . S
H749 C760 0.950 . S
H750 C762 0.950 . S
H751 C763 0.950 . S
C752 H744 0.950 . S
C752 C753 1.386 . S
C752 C754 1.391 . S
C753 C752 1.386 . S
C753 C757 1.393 . S
C754 H746 0.950 . S
C754 C752 1.391 . S
C754 C755 1.400 . S
C755 C754 1.400 . S
C755 C756 1.398 . S
C755 C761 1.491 . S
C756 H747 0.950 . S
C756 C755 1.398 . S
C756 C757 1.391 . S
C757 H745 0.950 . S
C757 C753 1.393 . S
C757 C756 1.391 . S
C758 H748 0.950 . S
C758 C759 1.386 . S
C758 C760 1.391 . S
C759 C758 1.386 . S
C759 C763 1.393 . S
C760 H749 0.950 . S
C760 C758 1.391 . S
C760 C761 1.400 . S
C761 C755 1.491 . S
C761 C760 1.400 . S
C761 C762 1.398 . S
C762 H750 0.950 . S
C762 C761 1.398 . S
C762 C763 1.391 . S
C763 H751 0.950 . S
C763 C759 1.393 . S
C763 C762 1.391 . S
H764 C772 0.950 . S
H765 C777 0.950 . S
H766 C774 0.950 . S
H767 C776 0.950 . S
H768 C778 0.950 . S
H769 C780 0.950 . S
H770 C782 0.950 . S
H771 C783 0.950 . S
C772 H764 0.950 . S
C772 C773 1.386 . S
C772 C774 1.391 . S
C773 C772 1.386 . S
C773 C777 1.393 . S
C774 H766 0.950 . S
C774 C772 1.391 . S
C774 C775 1.400 . S
C775 C774 1.400 . S
C775 C776 1.398 . S
C775 C781 1.491 . S
C776 H767 0.950 . S
C776 C775 1.398 . S
C776 C777 1.391 . S
C777 H765 0.950 . S
C777 C773 1.393 . S
C777 C776 1.391 . S
C778 H768 0.950 . S
C778 C779 1.386 . S
C778 C780 1.391 . S
C779 C778 1.386 . S
C779 C783 1.393 . S
C780 H769 0.950 . S
C780 C778 1.391 . S
C780 C781 1.400 . S
C781 C775 1.491 . S
C781 C780 1.400 . S
C781 C782 1.398 . S
C782 H770 0.950 . S
C782 C781 1.398 . S
C782 C783 1.391 . S
C783 H771 0.950 . S
C783 C779 1.393 . S
C783 C782 1.391 . S
H784 C792 0.950 . S
H785 C797 0.950 . S
H786 C794 0.950 . S
H787 C796 0.950 . S
H788 C798 0.950 . S
H789 C800 0.950 . S
H790 C802 0.950 . S
H791 C803 0.950 . S
C792 H784 0.950 . S
C792 C793 1.386 . S
C792 C794 1.391 . S
C793 C792 1.386 . S
C793 C797 1.393 . S
C794 H786 0.950 . S
C794 C792 1.391 . S
C794 C795 1.400 . S
C795 C794 1.400 . S
C795 C796 1.398 . S
C795 C801 1.491 . S
C796 H787 0.950 . S
C796 C795 1.398 . S
C796 C797 1.391 . S
C797 H785 0.950 . S
C797 C793 1.393 . S
C797 C796 1.391 . S
C798 H788 0.950 . S
C798 C799 1.386 . S
C798 C800 1.391 . S
C799 C798 1.386 . S
C799 C803 1.393 . S
C800 H789 0.950 . S
C800 C798 1.391 . S
C800 C801 1.400 . S
C801 C795 1.491 . S
C801 C800 1.400 . S
C801 C802 1.398 . S
C802 H790 0.950 . S
C802 C801 1.398 . S
C802 C803 1.391 . S
C803 H791 0.950 . S
C803 C799 1.393 . S
C803 C802 1.391 . S
H804 C812 0.950 . S
H805 C817 0.950 . S
H806 C814 0.950 . S
H807 C816 0.950 . S
H808 C818 0.950 . S
H809 C820 0.950 . S
H810 C822 0.950 . S
H811 C823 0.950 . S
C812 H804 0.950 . S
C812 C813 1.386 . S
C812 C814 1.391 . S
C813 C812 1.386 . S
C813 C817 1.393 . S
C814 H806 0.950 . S
C814 C812 1.391 . S
C814 C815 1.400 . S
C815 C814 1.400 . S
C815 C816 1.398 . S
C815 C821 1.491 . S
C816 H807 0.950 . S
C816 C815 1.398 . S
C816 C817 1.391 . S
C817 H805 0.950 . S
C817 C813 1.393 . S
C817 C816 1.391 . S
C818 H808 0.950 . S
C818 C819 1.386 . S
C818 C820 1.391 . S
C819 C818 1.386 . S
C819 C823 1.393 . S
C820 H809 0.950 . S
C820 C818 1.391 . S
C820 C821 1.400 . S
C821 C815 1.491 . S
C821 C820 1.400 . S
C821 C822 1.398 . S
C822 H810 0.950 . S
C822 C821 1.398 . S
C822 C823 1.391 . S
C823 H811 0.950 . S
C823 C819 1.393 . S
C823 C822 1.391 . S
H824 C832 0.950 . S
H825 C837 0.950 . S
H826 C834 0.950 . S
H827 C836 0.950 . S
H828 C838 0.950 . S
H829 C840 0.950 . S
H830 C842 0.950 . S
H831 C843 0.950 . S
C832 H824 0.950 . S
C832 C833 1.386 . S
C832 C834 1.391 . S
C833 C832 1.386 . S
C833 C837 1.393 . S
C834 H826 0.950 . S
C834 C832 1.391 . S
C834 C835 1.400 . S
C835 C834 1.400 . S
C835 C836 1.398 . S
C835 C841 1.491 . S
C836 H827 0.950 . S
C836 C835 1.398 . S
C836 C837 1.391 . S
C837 H825 0.950 . S
C837 C833 1.393 . S
C837 C836 1.391 . S
C838 H828 0.950 . S
C838 C839 1.386 . S
C838 C840 1.391 . S
C839 C838 1.386 . S
C839 C843 1.393 . S
C840 H829 0.950 . S
C840 C838 1.391 . S
C840 C841 1.400 . S
C841 C835 1.491 . S
C841 C840 1.400 . S
C841 C842 1.398 . S
C842 H830 0.950 . S
C842 C841 1.398 . S
C842 C843 1.391 . S
C843 H831 0.950 . S
C843 C839 1.393 . S
C843 C842 1.391 . S
H844 C852 0.950 . S
H845 C857 0.950 . S
H846 C854 0.950 . S
H847 C856 0.950 . S
H848 C858 0.950 . S
H849 C860 0.950 . S
H850 C862 0.950 . S
H851 C863 0.950 . S
C852 H844 0.950 . S
C852 C853 1.386 . S
C852 C854 1.391 . S
C853 C852 1.386 . S
C853 C857 1.393 . S
C854 H846 0.950 . S
C854 C852 1.391 . S
C854 C855 1.400 . S
C855 C854 1.400 . S
C855 C856 1.398 . S
C855 C861 1.491 . S
C856 H847 0.950 . S
C856 C855 1.398 . S
C856 C857 1.391 . S
C857 H845 0.950 . S
C857 C853 1.393 . S
C857 C856 1.391 . S
C858 H848 0.950 . S
C858 C859 1.386 . S
C858 C860 1.391 . S
C859 C858 1.386 . S
C859 C863 1.393 . S
C860 H849 0.950 . S
C860 C858 1.391 . S
C860 C861 1.400 . S
C861 C855 1.491 . S
C861 C860 1.400 . S
C861 C862 1.398 . S
C862 H850 0.950 . S
C862 C861 1.398 . S
C862 C863 1.391 . S
C863 H851 0.950 . S
C863 C859 1.393 . S
C863 C862 1.391 . S
C233 C218 1.255 . S
C239 C8 1.252 . S
C253 C176 1.252 . S
C259 C22 1.248 . S
C273 C36 1.245 . S
C279 C190 1.241 . S
C293 C204 1.248 . S
C299 C50 1.243 . S
C313 C134 1.248 . S
C319 C64 1.252 . S
C333 C78 1.238 . S
C339 C148 1.239 . S
C353 C92 1.256 . S
C359 C162 1.254 . S
C373 C106 1.248 . S
C379 C120 1.252 . S
C393 C73 1.661 . S
C399 C7 1.552 . S
C413 C91 1.554 . S
C419 C17 1.662 . S
C433 C101 1.657 . S
C439 C35 1.561 . S
C453 C45 1.662 . S
C459 C63 1.558 . S
C473 C9 1.244 . S
C479 C23 1.256 . S
C493 C31 1.653 . S
C499 C21 1.579 . S
C513 C37 1.236 . S
C519 C51 1.259 . S
C533 C3 1.654 . S
C539 C49 1.582 . S
C553 C107 1.258 . S
C559 C65 1.237 . S
C573 C59 1.653 . S
C579 C77 1.582 . S
C593 C79 1.248 . S
C599 C93 1.245 . S
C613 C105 1.553 . S
C619 C87 1.662 . S
C633 C185 1.662 . S
C639 C119 1.552 . S
C653 C129 1.654 . S
C659 C203 1.581 . S
C673 C213 1.662 . S
C679 C147 1.552 . S
C693 C175 1.574 . S
C699 C157 1.658 . S
C713 C121 1.243 . S
C719 C135 1.257 . S
C733 C133 1.552 . S
C739 C143 1.662 . S
C753 C163 1.262 . S
C759 C149 1.233 . S
C773 C115 1.654 . S
C779 C161 1.582 . S
C793 C219 1.254 . S
C799 C177 1.247 . S
C813 C171 1.660 . S
C819 C189 1.568 . S
C833 C191 1.238 . S
C839 C205 1.256 . S
C853 C217 1.581 . S
C859 C199 1.653 . S
