# Generated by pormake.
# Topology vdb, (5)-cn, num edge types: 1
# Building blocks:
#     Node 0, Type 0, BuildingBlock: BEQFEK_clean_sbu_0, # of connection points: 5
#     Node 1, Type 0, BuildingBlock: BEQFEK_clean_sbu_0, # of connection points: 5
#     Node 2, Type 0, BuildingBlock: BEQFEK_clean_sbu_0, # of connection points: 5
#     Node 3, Type 0, BuildingBlock: BEQFEK_clean_sbu_0, # of connection points: 5
#     Node 4, Type 0, BuildingBlock: BEQFEK_clean_sbu_0, # of connection points: 5
#     Node 5, Type 0, BuildingBlock: BEQFEK_clean_sbu_0, # of connection points: 5
#     Node 6, Type 0, BuildingBlock: BEQFEK_clean_sbu_0, # of connection points: 5
#     Node 7, Type 0, BuildingBlock: BEQFEK_clean_sbu_0, # of connection points: 5
#     Node 8, Type 0, BuildingBlock: BEQFEK_clean_sbu_0, # of connection points: 5
#     Node 9, Type 0, BuildingBlock: BEQFEK_clean_sbu_0, # of connection points: 5
#     Node 10, Type 0, BuildingBlock: BEQFEK_clean_sbu_0, # of connection points: 5
#     Node 11, Type 0, BuildingBlock: BEQFEK_clean_sbu_0, # of connection points: 5
#     Node 12, Type 0, BuildingBlock: BEQFEK_clean_sbu_0, # of connection points: 5
#     Node 13, Type 0, BuildingBlock: BEQFEK_clean_sbu_0, # of connection points: 5
#     Node 14, Type 0, BuildingBlock: BEQFEK_clean_sbu_0, # of connection points: 5
#     Node 15, Type 0, BuildingBlock: BEQFEK_clean_sbu_0, # of connection points: 5
#     Node 16, Type 0, BuildingBlock: BEQFEK_clean_sbu_0, # of connection points: 5
#     Node 17, Type 0, BuildingBlock: BEQFEK_clean_sbu_0, # of connection points: 5
#     Node 18, Type 0, BuildingBlock: BEQFEK_clean_sbu_0, # of connection points: 5
#     Node 19, Type 0, BuildingBlock: BEQFEK_clean_sbu_0, # of connection points: 5
#     Node 20, Type 0, BuildingBlock: BEQFEK_clean_sbu_0, # of connection points: 5
#     Node 21, Type 0, BuildingBlock: BEQFEK_clean_sbu_0, # of connection points: 5
#     Node 22, Type 0, BuildingBlock: BEQFEK_clean_sbu_0, # of connection points: 5
#     Node 23, Type 0, BuildingBlock: BEQFEK_clean_sbu_0, # of connection points: 5
#     Node 24, Type 0, BuildingBlock: BEQFEK_clean_sbu_0, # of connection points: 5
#     Node 25, Type 0, BuildingBlock: BEQFEK_clean_sbu_0, # of connection points: 5
#     Node 26, Type 0, BuildingBlock: BEQFEK_clean_sbu_0, # of connection points: 5
#     Node 27, Type 0, BuildingBlock: BEQFEK_clean_sbu_0, # of connection points: 5
#     Node 28, Type 0, BuildingBlock: BEQFEK_clean_sbu_0, # of connection points: 5
#     Node 29, Type 0, BuildingBlock: BEQFEK_clean_sbu_0, # of connection points: 5
#     Node 30, Type 0, BuildingBlock: BEQFEK_clean_sbu_0, # of connection points: 5
#     Node 31, Type 0, BuildingBlock: BEQFEK_clean_sbu_0, # of connection points: 5
#     Edge 32, Type (0, 0), BuildingBlock: OJICUG_clean_linker_0, # of connection points: 2
#     Edge 33, Type (0, 0), BuildingBlock: OJICUG_clean_linker_0, # of connection points: 2
#     Edge 34, Type (0, 0), BuildingBlock: OJICUG_clean_linker_0, # of connection points: 2
#     Edge 35, Type (0, 0), BuildingBlock: OJICUG_clean_linker_0, # of connection points: 2
#     Edge 36, Type (0, 0), BuildingBlock: OJICUG_clean_linker_0, # of connection points: 2
#     Edge 37, Type (0, 0), BuildingBlock: OJICUG_clean_linker_0, # of connection points: 2
#     Edge 38, Type (0, 0), BuildingBlock: OJICUG_clean_linker_0, # of connection points: 2
#     Edge 39, Type (0, 0), BuildingBlock: OJICUG_clean_linker_0, # of connection points: 2
#     Edge 40, Type (0, 0), BuildingBlock: OJICUG_clean_linker_0, # of connection points: 2
#     Edge 41, Type (0, 0), BuildingBlock: OJICUG_clean_linker_0, # of connection points: 2
#     Edge 42, Type (0, 0), BuildingBlock: OJICUG_clean_linker_0, # of connection points: 2
#     Edge 43, Type (0, 0), BuildingBlock: OJICUG_clean_linker_0, # of connection points: 2
#     Edge 44, Type (0, 0), BuildingBlock: OJICUG_clean_linker_0, # of connection points: 2
#     Edge 45, Type (0, 0), BuildingBlock: OJICUG_clean_linker_0, # of connection points: 2
#     Edge 46, Type (0, 0), BuildingBlock: OJICUG_clean_linker_0, # of connection points: 2
#     Edge 47, Type (0, 0), BuildingBlock: OJICUG_clean_linker_0, # of connection points: 2
#     Edge 48, Type (0, 0), BuildingBlock: OJICUG_clean_linker_0, # of connection points: 2
#     Edge 49, Type (0, 0), BuildingBlock: OJICUG_clean_linker_0, # of connection points: 2
#     Edge 50, Type (0, 0), BuildingBlock: OJICUG_clean_linker_0, # of connection points: 2
#     Edge 51, Type (0, 0), BuildingBlock: OJICUG_clean_linker_0, # of connection points: 2
#     Edge 52, Type (0, 0), BuildingBlock: OJICUG_clean_linker_0, # of connection points: 2
#     Edge 53, Type (0, 0), BuildingBlock: OJICUG_clean_linker_0, # of connection points: 2
#     Edge 54, Type (0, 0), BuildingBlock: OJICUG_clean_linker_0, # of connection points: 2
#     Edge 55, Type (0, 0), BuildingBlock: OJICUG_clean_linker_0, # of connection points: 2
#     Edge 56, Type (0, 0), BuildingBlock: OJICUG_clean_linker_0, # of connection points: 2
#     Edge 57, Type (0, 0), BuildingBlock: OJICUG_clean_linker_0, # of connection points: 2
#     Edge 58, Type (0, 0), BuildingBlock: OJICUG_clean_linker_0, # of connection points: 2
#     Edge 59, Type (0, 0), BuildingBlock: OJICUG_clean_linker_0, # of connection points: 2
#     Edge 60, Type (0, 0), BuildingBlock: OJICUG_clean_linker_0, # of connection points: 2
#     Edge 61, Type (0, 0), BuildingBlock: OJICUG_clean_linker_0, # of connection points: 2
#     Edge 62, Type (0, 0), BuildingBlock: OJICUG_clean_linker_0, # of connection points: 2
#     Edge 63, Type (0, 0), BuildingBlock: OJICUG_clean_linker_0, # of connection points: 2
#     Edge 64, Type (0, 0), BuildingBlock: OJICUG_clean_linker_0, # of connection points: 2
#     Edge 65, Type (0, 0), BuildingBlock: OJICUG_clean_linker_0, # of connection points: 2
#     Edge 66, Type (0, 0), BuildingBlock: OJICUG_clean_linker_0, # of connection points: 2
#     Edge 67, Type (0, 0), BuildingBlock: OJICUG_clean_linker_0, # of connection points: 2
#     Edge 68, Type (0, 0), BuildingBlock: OJICUG_clean_linker_0, # of connection points: 2
#     Edge 69, Type (0, 0), BuildingBlock: OJICUG_clean_linker_0, # of connection points: 2
#     Edge 70, Type (0, 0), BuildingBlock: OJICUG_clean_linker_0, # of connection points: 2
#     Edge 71, Type (0, 0), BuildingBlock: OJICUG_clean_linker_0, # of connection points: 2
#     Edge 72, Type (0, 0), BuildingBlock: OJICUG_clean_linker_0, # of connection points: 2
#     Edge 73, Type (0, 0), BuildingBlock: OJICUG_clean_linker_0, # of connection points: 2
#     Edge 74, Type (0, 0), BuildingBlock: OJICUG_clean_linker_0, # of connection points: 2
#     Edge 75, Type (0, 0), BuildingBlock: OJICUG_clean_linker_0, # of connection points: 2
#     Edge 76, Type (0, 0), BuildingBlock: OJICUG_clean_linker_0, # of connection points: 2
#     Edge 77, Type (0, 0), BuildingBlock: OJICUG_clean_linker_0, # of connection points: 2
#     Edge 78, Type (0, 0), BuildingBlock: OJICUG_clean_linker_0, # of connection points: 2
#     Edge 79, Type (0, 0), BuildingBlock: OJICUG_clean_linker_0, # of connection points: 2
#     Edge 80, Type (0, 0), BuildingBlock: OJICUG_clean_linker_0, # of connection points: 2
#     Edge 81, Type (0, 0), BuildingBlock: OJICUG_clean_linker_0, # of connection points: 2
#     Edge 82, Type (0, 0), BuildingBlock: OJICUG_clean_linker_0, # of connection points: 2
#     Edge 83, Type (0, 0), BuildingBlock: OJICUG_clean_linker_0, # of connection points: 2
#     Edge 84, Type (0, 0), BuildingBlock: OJICUG_clean_linker_0, # of connection points: 2
#     Edge 85, Type (0, 0), BuildingBlock: OJICUG_clean_linker_0, # of connection points: 2
#     Edge 86, Type (0, 0), BuildingBlock: OJICUG_clean_linker_0, # of connection points: 2
#     Edge 87, Type (0, 0), BuildingBlock: OJICUG_clean_linker_0, # of connection points: 2
#     Edge 88, Type (0, 0), BuildingBlock: OJICUG_clean_linker_0, # of connection points: 2
#     Edge 89, Type (0, 0), BuildingBlock: OJICUG_clean_linker_0, # of connection points: 2
#     Edge 90, Type (0, 0), BuildingBlock: OJICUG_clean_linker_0, # of connection points: 2
#     Edge 91, Type (0, 0), BuildingBlock: OJICUG_clean_linker_0, # of connection points: 2
#     Edge 92, Type (0, 0), BuildingBlock: OJICUG_clean_linker_0, # of connection points: 2
#     Edge 93, Type (0, 0), BuildingBlock: OJICUG_clean_linker_0, # of connection points: 2
#     Edge 94, Type (0, 0), BuildingBlock: OJICUG_clean_linker_0, # of connection points: 2
#     Edge 95, Type (0, 0), BuildingBlock: OJICUG_clean_linker_0, # of connection points: 2
#     Edge 96, Type (0, 0), BuildingBlock: OJICUG_clean_linker_0, # of connection points: 2
#     Edge 97, Type (0, 0), BuildingBlock: OJICUG_clean_linker_0, # of connection points: 2
#     Edge 98, Type (0, 0), BuildingBlock: OJICUG_clean_linker_0, # of connection points: 2
#     Edge 99, Type (0, 0), BuildingBlock: OJICUG_clean_linker_0, # of connection points: 2
#     Edge 100, Type (0, 0), BuildingBlock: OJICUG_clean_linker_0, # of connection points: 2
#     Edge 101, Type (0, 0), BuildingBlock: OJICUG_clean_linker_0, # of connection points: 2
#     Edge 102, Type (0, 0), BuildingBlock: OJICUG_clean_linker_0, # of connection points: 2
#     Edge 103, Type (0, 0), BuildingBlock: OJICUG_clean_linker_0, # of connection points: 2
#     Edge 104, Type (0, 0), BuildingBlock: OJICUG_clean_linker_0, # of connection points: 2
#     Edge 105, Type (0, 0), BuildingBlock: OJICUG_clean_linker_0, # of connection points: 2
#     Edge 106, Type (0, 0), BuildingBlock: OJICUG_clean_linker_0, # of connection points: 2
#     Edge 107, Type (0, 0), BuildingBlock: OJICUG_clean_linker_0, # of connection points: 2
#     Edge 108, Type (0, 0), BuildingBlock: OJICUG_clean_linker_0, # of connection points: 2
#     Edge 109, Type (0, 0), BuildingBlock: OJICUG_clean_linker_0, # of connection points: 2
#     Edge 110, Type (0, 0), BuildingBlock: OJICUG_clean_linker_0, # of connection points: 2
#     Edge 111, Type (0, 0), BuildingBlock: OJICUG_clean_linker_0, # of connection points: 2
# Relax obj value: 0.465
# Max RMSD: 0.216
# Mean RMSD: 0.216
data_MOF--net-vdb--node1-BEQFEK_clean_sbu_0--edge1-OJICUG_clean_linker_0
_symmetry_space_group_name_H-M    P1
_symmetry_Int_Tables_number       1
_symmetry_cell_setting            triclinic
loop_
_symmetry_equiv_pos_as_xyz
'x, y, z'
_cell_length_a     19.996853
_cell_length_b     37.111744
_cell_length_c     88.342673
_cell_angle_alpha  89.889468
_cell_angle_beta   90.035797
_cell_angle_gamma 90.060905
loop_
_atom_site_label
_atom_site_type_symbol
_atom_site_fract_x
_atom_site_fract_y
_atom_site_fract_z
_atom_type_partial_charge
Co0 Co 0.29029 0.03149 0.11256 0.0
Co1 Co 0.38487 0.06258 0.08827 0.0
C2 C 0.23626 0.08362 0.09058 0.0
O3 O 0.22704 0.06142 0.10129 0.0
O4 O 0.29431 0.0879 0.08476 0.0
C5 C 0.18766 0.98851 0.12287 0.0
O6 O 0.16749 0.99113 0.10874 0.0
C7 C 0.416 0.05002 0.05688 0.0
C8 C 0.52374 0.06149 0.05531 0.0
C9 C 0.47168 0.04451 0.04765 0.0
N10 N 0.4352 0.0672 0.06961 0.0
N11 N 0.49939 0.07509 0.06836 0.0
C12 C 0.34563 0.03781 0.05411 0.0
H13 H 0.30994 0.05724 0.0591 0.0
H14 H 0.3371 0.01133 0.0596 0.0
H15 H 0.33549 0.03544 0.0418 0.0
C16 C 0.33267 0.96197 0.10003 0.0
N17 N 0.33319 0.99826 0.1004 0.0
N18 N 0.37812 0.0106 0.09087 0.0
C19 C 0.4094 0.98186 0.08454 0.0
C20 C 0.37844 0.95071 0.0895 0.0
C21 C 0.29789 0.93757 0.11108 0.0
H22 H 0.30101 0.94876 0.12265 0.0
H23 H 0.24507 0.93398 0.10761 0.0
H24 H 0.32112 0.91042 0.11138 0.0
O25 O 0.35551 0.06056 0.12383 0.0
O26 O 0.4267 0.08521 0.10743 0.0
H27 H 0.50674 0.96031 0.07973 0.0
H28 H 0.46473 0.97939 0.06396 0.0
C29 C 0.4742 0.98296 0.07616 0.0
H30 H 0.50107 0.00843 0.0784 0.0
H31 H 0.528 0.08649 0.077 0.0
O32 O 0.23923 0.00543 0.12716 0.0
C33 C 0.40619 0.08023 0.12107 0.0
Co34 Co 0.94107 0.22318 0.11303 0.0
Co35 Co 0.85785 0.19252 0.08684 0.0
C36 C 0.00175 0.17213 0.09 0.0
O37 O 0.005 0.19291 0.10142 0.0
O38 O 0.94676 0.1678 0.08283 0.0
C39 C 0.04038 0.27088 0.12218 0.0
O40 O 0.05576 0.27181 0.10773 0.0
C41 C 0.8125 0.1904 0.05524 0.0
C42 C 0.70545 0.20236 0.0583 0.0
C43 C 0.75561 0.20227 0.04743 0.0
N44 N 0.7971 0.18641 0.07001 0.0
N45 N 0.73237 0.19223 0.07161 0.0
C46 C 0.88059 0.18266 0.04896 0.0
H47 H 0.90028 0.15764 0.05421 0.0
H48 H 0.91584 0.20461 0.0519 0.0
H49 H 0.87887 0.17908 0.0365 0.0
C50 C 0.89852 0.29207 0.1015 0.0
N51 N 0.89639 0.25592 0.10113 0.0
N52 N 0.87017 0.24481 0.08836 0.0
C53 C 0.85852 0.27458 0.07972 0.0
C54 C 0.8779 0.30501 0.08772 0.0
C55 C 0.91059 0.31444 0.11536 0.0
H56 H 0.90482 0.29811 0.1258 0.0
H57 H 0.96112 0.32669 0.11491 0.0
H58 H 0.8743 0.33706 0.11573 0.0
O59 O 0.87948 0.1947 0.12471 0.0
O60 O 0.81756 0.16965 0.10671 0.0
H61 H 0.83194 0.30219 0.05896 0.0
H62 H 0.86492 0.25775 0.05684 0.0
C63 C 0.83248 0.27472 0.06392 0.0
H64 H 0.78079 0.26416 0.0639 0.0
H65 H 0.70796 0.19303 0.08204 0.0
O66 O 0.99393 0.25044 0.12685 0.0
C67 C 0.83218 0.174 0.1208 0.0
Co68 Co 0.29602 0.21313 0.18178 0.0
Co69 Co 0.38409 0.18064 0.20705 0.0
C70 C 0.23508 0.1621 0.20334 0.0
O71 O 0.229 0.18442 0.19255 0.0
O72 O 0.29173 0.1569 0.20971 0.0
C73 C 0.19849 0.25789 0.17027 0.0
O74 O 0.17555 0.25626 0.18419 0.0
C75 C 0.4111 0.19121 0.23886 0.0
C76 C 0.5182 0.17868 0.24103 0.0
C77 C 0.46577 0.19567 0.24853 0.0
N78 N 0.43142 0.17469 0.22606 0.0
N79 N 0.49513 0.16613 0.22767 0.0
C80 C 0.3408 0.20388 0.24123 0.0
H81 H 0.30521 0.18519 0.23571 0.0
H82 H 0.3341 0.23083 0.23601 0.0
H83 H 0.32883 0.20538 0.25347 0.0
C84 C 0.34041 0.282 0.19456 0.0
N85 N 0.33918 0.24571 0.19425 0.0
N86 N 0.38048 0.23284 0.20449 0.0
C87 C 0.41076 0.26129 0.21135 0.0
C88 C 0.38304 0.2928 0.20583 0.0
C89 C 0.31047 0.30673 0.18294 0.0
H90 H 0.31519 0.29499 0.17148 0.0
H91 H 0.25735 0.31185 0.18574 0.0
H92 H 0.3363 0.33322 0.18276 0.0
O93 O 0.36042 0.18269 0.17116 0.0
O94 O 0.42709 0.15696 0.18822 0.0
H95 H 0.5057 0.28232 0.2186 0.0
H96 H 0.45681 0.26216 0.23306 0.0
C97 C 0.47163 0.2595 0.2211 0.0
H98 H 0.49919 0.23416 0.21914 0.0
H99 H 0.52446 0.15498 0.21911 0.0
O100 O 0.24948 0.23976 0.16661 0.0
C101 C 0.40903 0.16204 0.1744 0.0
Co102 Co 0.9284 0.02999 0.17849 0.0
Co103 Co 0.84991 0.06121 0.20516 0.0
C104 C 0.99385 0.07859 0.20221 0.0
O105 O -0.00522 0.05832 0.19058 0.0
O106 O 0.93967 0.0839 0.20953 0.0
C107 C 0.02219 0.97935 0.16955 0.0
O108 O 0.03567 0.97753 0.1841 0.0
C109 C 0.80445 0.06283 0.23671 0.0
C110 C 0.69966 0.0462 0.23346 0.0
C111 C 0.74943 0.04822 0.2444 0.0
N112 N 0.78875 0.06656 0.22194 0.0
N113 N 0.7251 0.05798 0.22025 0.0
C114 C 0.87079 0.07377 0.24315 0.0
H115 H 0.88624 0.09986 0.23807 0.0
H116 H 0.90983 0.05388 0.24016 0.0
H117 H 0.86813 0.07677 0.25563 0.0
C118 C 0.88065 0.96189 0.18938 0.0
N119 N 0.87966 0.99803 0.18992 0.0
N120 N 0.85985 0.00901 0.20326 0.0
C121 C 0.85232 0.9792 0.21208 0.0
C122 C 0.86648 0.9488 0.20356 0.0
C123 C 0.88678 0.93987 0.17523 0.0
H124 H 0.88156 0.957 0.16499 0.0
H125 H 0.93526 0.92546 0.17504 0.0
H126 H 0.84714 0.91889 0.17509 0.0
O127 O 0.87036 0.06044 0.16699 0.0
O128 O 0.81176 0.0861 0.18539 0.0
H129 H 0.8486 0.95244 0.23384 0.0
H130 H 0.87051 0.99923 0.23418 0.0
C131 C 0.8384 0.9791 0.22863 0.0
H132 H 0.78504 0.98551 0.23044 0.0
H133 H 0.70117 0.05613 0.20978 0.0
O134 O 0.97909 0.00156 0.1647 0.0
C135 C 0.82544 0.08219 0.17123 0.0
Co136 Co 0.68309 0.95647 0.93185 0.0
Co137 Co 0.59714 0.92414 0.95751 0.0
C138 C 0.74756 0.9097 0.95449 0.0
O139 O 0.75219 0.93123 0.94339 0.0
O140 O 0.69109 0.90323 0.9607 0.0
C141 C 0.77659 0.00313 0.91992 0.0
O142 O 0.79901 0.00374 0.93391 0.0
C143 C 0.57074 0.93577 0.98927 0.0
C144 C 0.46392 0.92272 0.99167 0.0
C145 C 0.51625 0.94039 0.99896 0.0
N146 N 0.55036 0.91856 0.97662 0.0
N147 N 0.48684 0.90968 0.97838 0.0
C148 C 0.64088 0.94894 0.99148 0.0
H149 H 0.67672 0.92959 0.98652 0.0
H150 H 0.64761 0.97515 0.98562 0.0
H151 H 0.65261 0.95202 1.00369 0.0
C152 C 0.63148 0.02514 0.94306 0.0
N153 N 0.63566 0.98894 0.94345 0.0
N154 N 0.59657 0.9762 0.95415 0.0
C155 C 0.56546 0.00471 0.96075 0.0
C156 C 0.58981 0.03619 0.95443 0.0
C157 C 0.65822 0.04937 0.93086 0.0
H158 H 0.65511 0.03602 0.91969 0.0
H159 H 0.71048 0.05698 0.93354 0.0
H160 H 0.62892 0.07472 0.93015 0.0
O161 O 0.6231 0.9231 0.9216 0.0
O162 O 0.55745 0.89743 0.93888 0.0
H163 H 0.47188 0.02532 0.96896 0.0
H164 H 0.52447 0.00587 0.98293 0.0
C165 C 0.50694 0.0028 0.97117 0.0
H166 H 0.47956 0.97722 0.96963 0.0
H167 H 0.45745 0.89798 0.96995 0.0
O168 O 0.72803 0.9829 0.91645 0.0
C169 C 0.57623 0.9015 0.92504 0.0
Co170 Co 0.06489 0.78956 0.92988 0.0
Co171 Co 0.1401 0.81894 0.95753 0.0
C172 C -0.00452 0.83359 0.95449 0.0
O173 O -0.00352 0.81475 0.94245 0.0
O174 O 0.04885 0.83933 0.96208 0.0
C175 C 0.97589 0.73788 0.91961 0.0
O176 O 0.96146 0.73435 0.93405 0.0
C177 C 0.18381 0.81701 0.9893 0.0
C178 C 0.28894 0.80126 0.98597 0.0
C179 C 0.23866 0.80167 0.99681 0.0
N180 N 0.20016 0.82273 0.97466 0.0
N181 N 0.26399 0.81461 0.97297 0.0
C182 C 0.11709 0.82686 0.99581 0.0
H183 H 0.07845 0.80707 0.99241 0.0
H184 H 0.11937 0.82853 1.00834 0.0
H185 H 0.1013 0.85335 0.99119 0.0
C186 C 0.11759 0.72155 0.93928 0.0
N187 N 0.11601 0.75753 0.94066 0.0
N188 N 0.13314 0.76707 0.95439 0.0
C189 C 0.14117 0.73634 0.96259 0.0
C190 C 0.13055 0.70688 0.95325 0.0
C191 C 0.11515 0.70148 0.92456 0.0
H192 H 0.12002 0.72019 0.91482 0.0
H193 H 0.06808 0.68588 0.92364 0.0
H194 H 0.15663 0.68162 0.92419 0.0
O195 O 0.12085 0.82256 0.91931 0.0
O196 O 0.17777 0.84684 0.93838 0.0
H197 H 0.13935 0.70722 0.98381 0.0
H198 H 0.11882 0.75406 0.98486 0.0
C199 C 0.15146 0.73433 0.97926 0.0
H200 H 0.20458 0.74001 0.9818 0.0
H201 H 0.28844 0.81418 0.96254 0.0
O202 O 0.01718 0.7617 0.9153 0.0
C203 C 0.16455 0.84438 0.92412 0.0
Co204 Co 0.70763 0.77235 0.86178 0.0
Co205 Co 0.61052 0.80516 0.83841 0.0
C206 C 0.75923 0.827 0.84047 0.0
O207 O 0.76922 0.80409 0.85088 0.0
O208 O 0.70075 0.83128 0.83481 0.0
C209 C 0.81422 0.73055 0.87163 0.0
O210 O 0.83526 0.73489 0.85765 0.0
C211 C 0.5726 0.79616 0.80711 0.0
C212 C 0.46423 0.80646 0.80722 0.0
C213 C 0.51462 0.79097 0.79853 0.0
N214 N 0.55624 0.81159 0.82042 0.0
N215 N 0.4916 0.81883 0.82019 0.0
C216 C 0.64262 0.78527 0.80326 0.0
H217 H 0.6788 0.80397 0.80859 0.0
H218 H 0.6528 0.75787 0.80771 0.0
H219 H 0.65038 0.78555 0.79082 0.0
C220 C 0.66741 0.70398 0.84788 0.0
N221 N 0.66532 0.74015 0.849 0.0
N222 N 0.61885 0.75297 0.83996 0.0
C223 C 0.58778 0.72454 0.8333 0.0
C224 C 0.62045 0.69326 0.83747 0.0
C225 C 0.706 0.67906 0.85802 0.0
H226 H 0.70257 0.68818 0.86991 0.0
H227 H 0.75887 0.67822 0.85432 0.0
H228 H 0.68638 0.6511 0.85759 0.0
O229 O 0.64233 0.79971 0.87391 0.0
O230 O 0.5701 0.8255 0.85811 0.0
H231 H 0.49124 0.702 0.82835 0.0
H232 H 0.53088 0.72406 0.81292 0.0
C233 C 0.52219 0.7257 0.82524 0.0
H234 H 0.49424 0.75035 0.82822 0.0
H235 H 0.46499 0.82885 0.82942 0.0
O236 O 0.76043 0.7454 0.87585 0.0
C237 C 0.59123 0.81939 0.87162 0.0
Co238 Co 0.03654 0.97665 0.86141 0.0
Co239 Co 0.13487 0.94386 0.83855 0.0
C240 C 0.98628 0.92157 0.84031 0.0
O241 O 0.97551 0.94483 0.8505 0.0
O242 O 0.04515 0.9172 0.8349 0.0
C243 C 0.92925 0.01851 0.87087 0.0
O244 O 0.90817 0.0143 0.85689 0.0
C245 C 0.17318 0.95213 0.80731 0.0
C246 C 0.28185 0.94283 0.80763 0.0
C247 C 0.23117 0.95765 0.79879 0.0
N248 N 0.18972 0.9372 0.82073 0.0
N249 N 0.25457 0.93053 0.82063 0.0
C250 C 0.10291 0.96229 0.80329 0.0
H251 H 0.06723 0.94325 0.8086 0.0
H252 H 0.09164 0.9896 0.80767 0.0
H253 H 0.09549 0.96185 0.79084 0.0
C254 C 0.07697 0.04503 0.84758 0.0
N255 N 0.0792 0.00886 0.84872 0.0
N256 N 0.1259 0.99611 0.83977 0.0
C257 C 0.15681 0.02463 0.83308 0.0
C258 C 0.12391 0.05585 0.8372 0.0
C259 C 0.03849 0.06987 0.85774 0.0
H260 H 0.04164 0.06052 0.86962 0.0
H261 H 0.9857 0.07099 0.85397 0.0
H262 H 0.05843 0.09776 0.85738 0.0
O263 O 0.10112 0.94955 0.87389 0.0
O264 O 0.17491 0.92409 0.85845 0.0
H265 H 0.25289 0.04757 0.82797 0.0
H266 H 0.21356 0.02477 0.8127 0.0
C267 C 0.22237 0.02359 0.82503 0.0
H268 H 0.25078 0.99919 0.82819 0.0
H269 H 0.28129 0.92102 0.82997 0.0
O270 O 0.98295 0.00358 0.87514 0.0
C271 C 0.15275 0.93014 0.87187 0.0
Co272 Co 0.29126 0.53189 0.61125 0.0
Co273 Co 0.38252 0.56546 0.58689 0.0
C274 C 0.2335 0.58439 0.58969 0.0
O275 O 0.22624 0.56165 0.60029 0.0
O276 O 0.29082 0.58965 0.58364 0.0
C277 C 0.19033 0.48716 0.62144 0.0
O278 O 0.17035 0.48919 0.60729 0.0
C279 C 0.41573 0.55703 0.55531 0.0
C280 C 0.52328 0.56973 0.55451 0.0
C281 C 0.4724 0.55343 0.54622 0.0
N282 N 0.43322 0.57296 0.56846 0.0
N283 N 0.49714 0.58177 0.56765 0.0
C284 C 0.34887 0.53966 0.55283 0.0
H285 H 0.3183 0.54027 0.56328 0.0
H286 H 0.35469 0.51137 0.54903 0.0
H287 H 0.32175 0.5546 0.54385 0.0
C288 C 0.33624 0.46361 0.59828 0.0
N289 N 0.33568 0.49987 0.5988 0.0
N290 N 0.37784 0.51297 0.58879 0.0
C291 C 0.40764 0.4846 0.58177 0.0
C292 C 0.3791 0.45304 0.58703 0.0
C293 C 0.30536 0.43867 0.6097 0.0
H294 H 0.30866 0.45034 0.62119 0.0
H295 H 0.25261 0.43335 0.60659 0.0
H296 H 0.33144 0.41229 0.60998 0.0
O297 O 0.35437 0.56134 0.62279 0.0
O298 O 0.42292 0.58792 0.60638 0.0
H299 H 0.50165 0.46311 0.57421 0.0
H300 H 0.45286 0.48408 0.55991 0.0
C301 C 0.46819 0.48628 0.5719 0.0
H302 H 0.49665 0.5113 0.574 0.0
H303 H 0.52457 0.59233 0.57667 0.0
O304 O 0.24128 0.5047 0.62569 0.0
C305 C 0.40341 0.58215 0.62005 0.0
Co306 Co 0.93491 0.72247 0.61346 0.0
Co307 Co 0.8534 0.69228 0.58699 0.0
C308 C -0.00383 0.67133 0.59025 0.0
O309 O -0.00112 0.69204 0.60173 0.0
O310 O 0.94153 0.66703 0.58294 0.0
C311 C 0.03227 0.77145 0.62238 0.0
O312 O 0.04672 0.7726 0.60788 0.0
C313 C 0.80627 0.69063 0.55545 0.0
C314 C 0.70174 0.70741 0.55893 0.0
C315 C 0.75073 0.70492 0.54785 0.0
N316 N 0.79154 0.68746 0.5703 0.0
N317 N 0.72807 0.69617 0.57214 0.0
C318 C 0.87204 0.67934 0.54886 0.0
H319 H 0.88697 0.6531 0.55387 0.0
H320 H 0.91176 0.6989 0.55184 0.0
H321 H 0.86883 0.67649 0.53638 0.0
C322 C 0.89324 0.79136 0.60201 0.0
N323 N 0.88994 0.75524 0.60164 0.0
N324 N 0.86781 0.74429 0.58847 0.0
C325 C 0.86092 0.77402 0.57957 0.0
C326 C 0.87826 0.80436 0.58786 0.0
C327 C 0.90069 0.81357 0.61609 0.0
H328 H 0.89403 0.7968 0.62638 0.0
H329 H 0.95021 0.82698 0.61629 0.0
H330 H 0.86262 0.83534 0.61611 0.0
O331 O 0.8732 0.6943 0.62511 0.0
O332 O 0.81184 0.66979 0.60687 0.0
H333 H 0.85214 0.80067 0.55785 0.0
H334 H 0.87442 0.75403 0.55731 0.0
C335 C 0.84331 0.77403 0.56319 0.0
H336 H 0.78972 0.76728 0.56196 0.0
H337 H 0.70481 0.69829 0.58267 0.0
O338 O 0.98751 0.75015 0.62721 0.0
C339 C 0.82564 0.67399 0.62102 0.0
Co340 Co 0.28871 0.71621 0.68033 0.0
Co341 Co 0.37426 0.68457 0.70622 0.0
C342 C 0.22639 0.6663 0.70268 0.0
O343 O 0.22182 0.6878 0.69155 0.0
O344 O 0.28239 0.66118 0.70933 0.0
C345 C 0.19269 0.76334 0.66982 0.0
O346 O 0.17436 0.76374 0.6841 0.0
C347 C 0.40624 0.68959 0.73835 0.0
C348 C 0.51537 0.68189 0.7386 0.0
C349 C 0.46282 0.69446 0.74745 0.0
N350 N 0.42544 0.67731 0.72465 0.0
N351 N 0.49055 0.6715 0.72509 0.0
C352 C 0.33492 0.69775 0.7422 0.0
H353 H 0.30166 0.67734 0.73701 0.0
H354 H 0.32072 0.72441 0.73752 0.0
H355 H 0.32698 0.69745 0.75463 0.0
C356 C 0.33535 0.78524 0.69197 0.0
N357 N 0.33349 0.74899 0.69238 0.0
N358 N 0.36898 0.73705 0.70386 0.0
C359 C 0.39391 0.76632 0.71124 0.0
C360 C 0.37013 0.7973 0.70433 0.0
C361 C 0.31531 0.80854 0.67884 0.0
H362 H 0.31921 0.79359 0.66804 0.0
H363 H 0.26382 0.81873 0.68057 0.0
H364 H 0.34845 0.83252 0.67804 0.0
O365 O 0.35153 0.68599 0.66946 0.0
O366 O 0.41626 0.66083 0.68702 0.0
H367 H 0.47292 0.79109 0.72428 0.0
H368 H 0.41763 0.7628 0.73454 0.0
C369 C 0.44414 0.76565 0.7237 0.0
H370 H 0.47966 0.74328 0.72198 0.0
H371 H 0.519 0.66379 0.71574 0.0
O372 O 0.23993 0.74304 0.66558 0.0
C373 C 0.39961 0.6654 0.67307 0.0
Co374 Co 0.92598 0.53416 0.67815 0.0
Co375 Co 0.84284 0.56109 0.70512 0.0
C376 C 0.98622 0.58216 0.70251 0.0
O377 O 0.98929 0.56287 0.69064 0.0
O378 O 0.93136 0.58566 0.7098 0.0
C379 C 0.02407 0.48697 0.66866 0.0
O380 O 0.03757 0.48469 0.68319 0.0
C381 C 0.7973 0.55826 0.73679 0.0
C382 C 0.69221 0.54243 0.73336 0.0
C383 C 0.7422 0.54303 0.74428 0.0
N384 N 0.78142 0.56368 0.72211 0.0
N385 N 0.71762 0.55549 0.72034 0.0
C386 C 0.86409 0.56798 0.74334 0.0
H387 H 0.87981 0.59462 0.73885 0.0
H388 H 0.90259 0.54831 0.73978 0.0
H389 H 0.86203 0.56934 0.75588 0.0
C390 C 0.88217 0.4641 0.68775 0.0
N391 N 0.87988 0.50011 0.68902 0.0
N392 N 0.85643 0.50933 0.70231 0.0
C393 C 0.84764 0.47841 0.71037 0.0
C394 C 0.86497 0.44927 0.70142 0.0
C395 C 0.89231 0.4437 0.67329 0.0
H396 H 0.88703 0.46166 0.66332 0.0
H397 H 0.94204 0.43056 0.67328 0.0
H398 H 0.85466 0.42177 0.67247 0.0
O399 O 0.86531 0.56384 0.66711 0.0
O400 O 0.80267 0.58631 0.6856 0.0
H401 H 0.83499 0.4484 0.7312 0.0
H402 H 0.86035 0.49439 0.7332 0.0
C403 C 0.82846 0.47602 0.72661 0.0
H404 H 0.77523 0.48345 0.72778 0.0
H405 H 0.69336 0.555 0.70988 0.0
O406 O 0.97929 0.50838 0.66397 0.0
C407 C 0.81768 0.58372 0.67143 0.0
Co408 Co 0.68457 0.46288 0.43332 0.0
Co409 Co 0.59591 0.43074 0.45851 0.0
C410 C 0.74506 0.41273 0.45547 0.0
O411 O 0.75098 0.43455 0.44449 0.0
O412 O 0.68834 0.40753 0.4618 0.0
C413 C 0.78307 0.5078 0.42202 0.0
O414 O 0.80524 0.50675 0.43603 0.0
C415 C 0.56435 0.44065 0.49014 0.0
C416 C 0.45688 0.42788 0.49128 0.0
C417 C 0.50809 0.44453 0.49933 0.0
N418 N 0.5463 0.42417 0.47715 0.0
N419 N 0.48244 0.41535 0.47817 0.0
C420 C 0.63129 0.45814 0.49235 0.0
H421 H 0.66093 0.4577 0.48177 0.0
H422 H 0.62567 0.48636 0.49625 0.0
H423 H 0.65925 0.44314 0.50119 0.0
C424 C 0.63912 0.53189 0.44554 0.0
N425 N 0.64011 0.49561 0.44547 0.0
N426 N 0.59954 0.48311 0.45595 0.0
C427 C 0.57063 0.51192 0.46287 0.0
C428 C 0.59791 0.54315 0.45697 0.0
C429 C 0.66837 0.55618 0.43366 0.0
H430 H 0.66421 0.5437 0.42234 0.0
H431 H 0.72126 0.56209 0.43646 0.0
H432 H 0.64168 0.58238 0.4332 0.0
O433 O 0.62159 0.43222 0.42242 0.0
O434 O 0.55482 0.40651 0.43944 0.0
H435 H 0.48258 0.48592 0.47154 0.0
H436 H 0.47827 0.53415 0.47102 0.0
C437 C 0.51169 0.51089 0.47323 0.0
H438 H 0.52889 0.51347 0.48508 0.0
H439 H 0.45463 0.40438 0.4693 0.0
O440 O 0.73246 0.48935 0.4183 0.0
C441 C 0.57323 0.41137 0.42563 0.0
Co442 Co 0.04825 0.28176 0.4301 0.0
Co443 Co 0.12994 0.31099 0.45672 0.0
C444 C 0.98593 0.32957 0.45438 0.0
O445 O 0.98363 0.30984 0.44261 0.0
O446 O 0.04081 0.33423 0.46156 0.0
C447 C 0.95374 0.2313 0.42122 0.0
O448 O 0.9411 0.2289 0.43579 0.0
C449 C 0.17866 0.31026 0.48812 0.0
C450 C 0.28354 0.29486 0.48413 0.0
C451 C 0.23495 0.29573 0.49535 0.0
N452 N 0.19264 0.31513 0.47331 0.0
N453 N 0.2563 0.30722 0.47119 0.0
C454 C 0.11274 0.32011 0.49504 0.0
H455 H 0.09625 0.34649 0.49044 0.0
H456 H 0.07382 0.30021 0.49191 0.0
H457 H 0.11652 0.32203 0.50754 0.0
C458 C 0.09656 0.21295 0.43996 0.0
N459 N 0.09712 0.24901 0.44105 0.0
N460 N 0.11873 0.25896 0.45439 0.0
C461 C 0.12792 0.22845 0.46271 0.0
C462 C 0.1128 0.19871 0.45382 0.0
C463 C 0.0904 0.19226 0.42544 0.0
H464 H 0.09485 0.21041 0.4155 0.0
H465 H 0.04221 0.17754 0.42506 0.0
H466 H 0.13048 0.17161 0.42488 0.0
O467 O 0.10641 0.31217 0.41861 0.0
O468 O 0.1679 0.33619 0.43697 0.0
H469 H 0.13696 0.19983 0.48396 0.0
H470 H 0.11378 0.24626 0.48528 0.0
C471 C 0.14531 0.22702 0.47909 0.0
H472 H 0.19877 0.23391 0.48047 0.0
H473 H 0.27916 0.30635 0.46058 0.0
O474 O -0.00402 0.25402 0.41635 0.0
C475 C 0.1529 0.33304 0.42283 0.0
Co476 Co 0.69029 0.27981 0.36339 0.0
Co477 Co 0.5967 0.31235 0.33924 0.0
C478 C 0.74583 0.33252 0.34183 0.0
O479 O 0.75457 0.30982 0.35239 0.0
O480 O 0.68788 0.33728 0.33601 0.0
C481 C 0.79191 0.23611 0.37392 0.0
O482 O 0.81374 0.23918 0.35994 0.0
C483 C 0.56586 0.30184 0.30766 0.0
C484 C 0.45812 0.31327 0.30617 0.0
C485 C 0.51022 0.29687 0.29834 0.0
N486 N 0.5466 0.31815 0.32058 0.0
N487 N 0.48241 0.32603 0.31939 0.0
C488 C 0.63627 0.28993 0.30479 0.0
H489 H 0.67189 0.30916 0.30996 0.0
H490 H 0.64488 0.26318 0.31004 0.0
H491 H 0.64643 0.28827 0.29246 0.0
C492 C 0.64788 0.21103 0.35007 0.0
N493 N 0.64706 0.24727 0.35091 0.0
N494 N 0.60261 0.26017 0.34138 0.0
C495 C 0.57196 0.23178 0.33458 0.0
C496 C 0.60286 0.20037 0.33925 0.0
C497 C 0.6828 0.18594 0.36081 0.0
H498 H 0.67917 0.19616 0.37254 0.0
H499 H 0.73576 0.18296 0.35738 0.0
H500 H 0.66001 0.15866 0.36067 0.0
O501 O 0.62584 0.30899 0.37482 0.0
O502 O 0.55535 0.33461 0.35855 0.0
H503 H 0.47518 0.21025 0.32918 0.0
H504 H 0.51804 0.23049 0.31378 0.0
C505 C 0.50773 0.23325 0.32598 0.0
H506 H 0.48053 0.25847 0.32842 0.0
H507 H 0.45375 0.33682 0.32814 0.0
O508 O 0.73994 0.25292 0.37797 0.0
C509 C 0.57578 0.32915 0.37217 0.0
Co510 Co 0.0405 0.473 0.36428 0.0
Co511 Co 0.12436 0.44226 0.33819 0.0
C512 C 0.9805 0.42147 0.34128 0.0
O513 O 0.97699 0.44236 0.35266 0.0
O514 O 0.03557 0.41725 0.33413 0.0
C515 C 0.94076 0.52028 0.37367 0.0
O516 O 0.92452 0.5213 0.35926 0.0
C517 C 0.17119 0.44024 0.30664 0.0
C518 C 0.27771 0.45312 0.31003 0.0
C519 C 0.22815 0.45275 0.29901 0.0
N520 N 0.18588 0.43628 0.32146 0.0
N521 N 0.2504 0.44258 0.32325 0.0
C522 C 0.1037 0.43181 0.30015 0.0
H523 H 0.08463 0.40651 0.30529 0.0
H524 H 0.06747 0.45329 0.30304 0.0
H525 H 0.1062 0.42843 0.28769 0.0
C526 C 0.08242 0.54199 0.35256 0.0
N527 N 0.08482 0.50582 0.35233 0.0
N528 N 0.11155 0.49455 0.33964 0.0
C529 C 0.1233 0.5242 0.33093 0.0
C530 C 0.1036 0.55472 0.33879 0.0
C531 C 0.06959 0.56457 0.36633 0.0
H532 H 0.07562 0.5485 0.37683 0.0
H533 H 0.01873 0.57632 0.36578 0.0
H534 H 0.10528 0.58751 0.36664 0.0
O535 O 0.10226 0.4448 0.37602 0.0
O536 O 0.16431 0.41955 0.35813 0.0
H537 H 0.14797 0.5513 0.30993 0.0
H538 H 0.11722 0.50636 0.30823 0.0
C539 C 0.14902 0.5241 0.31513 0.0
H540 H 0.20127 0.51443 0.31516 0.0
H541 H 0.27425 0.44353 0.33375 0.0
O542 O 0.98774 0.50004 0.37816 0.0
C543 C 0.14953 0.42407 0.37219 0.0
Co544 Co 0.80438 0.03396 0.61053 0.0
Co545 Co 0.89466 0.06658 0.58583 0.0
C546 C 0.74591 0.08629 0.58921 0.0
O547 O 0.73874 0.06367 0.59985 0.0
O548 O 0.80305 0.09128 0.58304 0.0
C549 C 0.70428 0.9898 0.62135 0.0
O550 O 0.68169 0.99257 0.60742 0.0
C551 C 0.92252 0.05648 0.55412 0.0
C552 C 0.03012 0.06808 0.55221 0.0
C553 C 0.97737 0.05168 0.54457 0.0
N554 N 0.94292 0.07267 0.56699 0.0
N555 N 0.00698 0.08066 0.56555 0.0
C556 C 0.85189 0.0445 0.55154 0.0
H557 H 0.81672 0.06361 0.55692 0.0
H558 H 0.84381 0.01767 0.55677 0.0
H559 H 0.84056 0.043 0.53926 0.0
C560 C 0.8462 0.96516 0.59725 0.0
N561 N 0.8465 0.00143 0.5979 0.0
N562 N 0.88926 0.01434 0.588 0.0
C563 C 0.91918 0.98594 0.58106 0.0
C564 C 0.88953 0.95448 0.58611 0.0
C565 C 0.814 0.94016 0.60847 0.0
H566 H 0.81866 0.95105 0.62007 0.0
H567 H 0.76079 0.93613 0.60541 0.0
H568 H 0.83813 0.91324 0.60843 0.0
O569 O 0.86982 0.06323 0.62162 0.0
O570 O 0.93812 0.08894 0.60491 0.0
H571 H 0.01488 0.96447 0.57478 0.0
H572 H 0.96939 0.98494 0.55983 0.0
C573 C 0.98188 0.9875 0.57193 0.0
H574 H 0.00956 0.01271 0.57419 0.0
H575 H 0.03637 0.0914 0.57421 0.0
O576 O 0.75604 0.00705 0.62528 0.0
C577 C 0.91949 0.08346 0.61866 0.0
Co578 Co 0.44442 0.221 0.61358 0.0
Co579 Co 0.36272 0.18993 0.58726 0.0
C580 C 0.50691 0.17148 0.58996 0.0
O581 O 0.50914 0.19191 0.60152 0.0
O582 O 0.45212 0.16653 0.58278 0.0
C583 C 0.54049 0.27086 0.62221 0.0
O584 O 0.55303 0.27257 0.60762 0.0
C585 C 0.3147 0.18845 0.55582 0.0
C586 C 0.20926 0.20314 0.55949 0.0
C587 C 0.25825 0.20213 0.54836 0.0
N588 N 0.30042 0.18434 0.57065 0.0
N589 N 0.23644 0.19176 0.57259 0.0
C590 C 0.38121 0.17886 0.54913 0.0
H591 H 0.39858 0.15301 0.55409 0.0
H592 H 0.41921 0.19943 0.55206 0.0
H593 H 0.37787 0.17599 0.53665 0.0
C594 C 0.39711 0.2893 0.60272 0.0
N595 N 0.39655 0.25317 0.60213 0.0
N596 N 0.3735 0.24217 0.58904 0.0
C597 C 0.36305 0.27204 0.5804 0.0
C598 C 0.37905 0.30243 0.58878 0.0
C599 C 0.40557 0.31119 0.61686 0.0
H600 H 0.40091 0.29404 0.6271 0.0
H601 H 0.45463 0.32509 0.61679 0.0
H602 H 0.36675 0.33254 0.61726 0.0
O603 O 0.38561 0.1914 0.62532 0.0
O604 O 0.32485 0.16584 0.60722 0.0
H605 H 0.34989 0.29929 0.55893 0.0
H606 H 0.3754 0.25321 0.55795 0.0
C607 C 0.34354 0.2723 0.56414 0.0
H608 H 0.29033 0.26455 0.56318 0.0
H609 H 0.2132 0.19301 0.58315 0.0
O610 O 0.49683 0.24909 0.62719 0.0
C611 C 0.33954 0.17003 0.62132 0.0
Co612 Co 0.8098 0.21498 0.67902 0.0
Co613 Co 0.90178 0.18652 0.70455 0.0
C614 C 0.75423 0.16491 0.70196 0.0
O615 O 0.74662 0.18583 0.69074 0.0
O616 O 0.81146 0.1612 0.70826 0.0
C617 C 0.70789 0.25771 0.66852 0.0
O618 O 0.68992 0.25701 0.68283 0.0
C619 C 0.93473 0.19691 0.73626 0.0
C620 C 0.04441 0.19232 0.73653 0.0
C621 C 0.99106 0.20544 0.74501 0.0
N622 N 0.95464 0.18238 0.72301 0.0
N623 N 0.02022 0.17838 0.72352 0.0
C624 C 0.86274 0.2039 0.73983 0.0
H625 H 0.83089 0.18284 0.73468 0.0
H626 H 0.84742 0.23026 0.73502 0.0
H627 H 0.85415 0.20363 0.75224 0.0
C628 C 0.8507 0.28567 0.69019 0.0
N629 N 0.85246 0.24939 0.69063 0.0
N630 N 0.89253 0.23862 0.70155 0.0
C631 C 0.91764 0.26866 0.70832 0.0
C632 C 0.88898 0.2987 0.70178 0.0
C633 C 0.82214 0.30849 0.67774 0.0
H634 H 0.82607 0.2946 0.6667 0.0
H635 H 0.76945 0.31522 0.68037 0.0
H636 H 0.84959 0.33442 0.67678 0.0
O637 O 0.87426 0.18551 0.66823 0.0
O638 O 0.94357 0.16256 0.68545 0.0
H639 H 0.00247 0.29559 0.71816 0.0
H640 H 0.95345 0.26958 0.73089 0.0
C641 C 0.97402 0.27006 0.71932 0.0
H642 H 0.00875 0.24747 0.71735 0.0
H643 H 0.04917 0.16971 0.71441 0.0
O644 O 0.75786 0.2396 0.66417 0.0
C645 C 0.92441 0.16616 0.67161 0.0
Co646 Co 0.45265 0.02941 0.68007 0.0
Co647 Co 0.36872 0.06152 0.70594 0.0
C648 C 0.51661 0.07887 0.7024 0.0
O649 O 0.52026 0.05741 0.69127 0.0
O650 O 0.4609 0.08435 0.70909 0.0
C651 C 0.54849 0.98167 0.66979 0.0
O652 O 0.56664 0.98076 0.68409 0.0
C653 C 0.33667 0.05839 0.73811 0.0
C654 C 0.22712 0.06421 0.73807 0.0
C655 C 0.28014 0.05319 0.74717 0.0
N656 N 0.31713 0.06935 0.72421 0.0
N657 N 0.2517 0.07408 0.72447 0.0
C658 C 0.40835 0.05195 0.74221 0.0
H659 H 0.44005 0.07331 0.73716 0.0
H660 H 0.42519 0.02579 0.73752 0.0
H661 H 0.41558 0.05228 0.75466 0.0
C662 C 0.4045 0.96081 0.69161 0.0
N663 N 0.40698 0.99701 0.69206 0.0
N664 N 0.37329 0.00896 0.70379 0.0
C665 C 0.34945 0.97964 0.71136 0.0
C666 C 0.37153 0.94867 0.7042 0.0
C667 C 0.42275 0.93772 0.67831 0.0
H668 H 0.4189 0.95307 0.66759 0.0
H669 H 0.47391 0.92684 0.67984 0.0
H670 H 0.38856 0.91418 0.67754 0.0
O671 O 0.39093 0.05994 0.66902 0.0
O672 O 0.32719 0.0854 0.68662 0.0
H673 H 0.27699 0.95426 0.72608 0.0
H674 H 0.33271 0.9851 0.73485 0.0
C675 C 0.30316 0.98031 0.72455 0.0
H676 H 0.26529 0.00163 0.72296 0.0
H677 H 0.22308 0.08061 0.71497 0.0
O678 O 0.50144 0.00219 0.66557 0.0
C679 C 0.34341 0.08085 0.67264 0.0
Co680 Co 0.19687 0.96891 0.42955 0.0
Co681 Co 0.1041 0.9358 0.4537 0.0
C682 C 0.25287 0.91566 0.45081 0.0
O683 O 0.26139 0.93867 0.44037 0.0
O684 O 0.1951 0.91075 0.45668 0.0
C685 C 0.29823 0.0131 0.41937 0.0
O686 O 0.31902 0.01005 0.43343 0.0
C687 C 0.07475 0.94559 0.48532 0.0
C688 C 0.96701 0.93416 0.487 0.0
C689 C 0.01954 0.95046 0.49475 0.0
N690 N 0.05482 0.92948 0.4724 0.0
N691 N 0.99066 0.92157 0.4737 0.0
C692 C 0.14535 0.95741 0.48808 0.0
H693 H 0.18061 0.93812 0.48285 0.0
H694 H 0.15399 0.98414 0.4828 0.0
H695 H 0.15602 0.95906 0.50039 0.0
C696 C 0.15411 0.03744 0.44298 0.0
N697 N 0.1539 0.00118 0.44216 0.0
N698 N 0.1099 0.98803 0.45173 0.0
C699 C 0.07897 0.01624 0.45856 0.0
C700 C 0.10924 0.04785 0.45386 0.0
C701 C 0.18762 0.06268 0.43206 0.0
H702 H 0.1841 0.05211 0.42039 0.0
H703 H 0.24054 0.06649 0.43541 0.0
H704 H 0.16366 0.08965 0.4321 0.0
O705 O 0.13202 0.93987 0.4181 0.0
O706 O 0.06207 0.91394 0.43442 0.0
H707 H 0.98202 0.03716 0.46421 0.0
H708 H 0.0259 0.01692 0.47945 0.0
C709 C 0.0151 0.01433 0.46727 0.0
H710 H 0.98816 0.989 0.46481 0.0
H711 H 0.96157 0.91093 0.46497 0.0
O712 O 0.24671 0.9961 0.41509 0.0
C713 C 0.08201 0.91964 0.42078 0.0
Co714 Co 0.54784 0.77486 0.42796 0.0
Co715 Co 0.6302 0.80558 0.45429 0.0
C716 C 0.4873 0.82661 0.45094 0.0
O717 O 0.48426 0.80574 0.43953 0.0
O718 O 0.542 0.8308 0.45825 0.0
C719 C 0.44827 0.72739 0.41865 0.0
O720 O 0.43257 0.72645 0.43309 0.0
C721 C 0.67693 0.80812 0.48584 0.0
C722 C 0.782 0.79217 0.48255 0.0
C723 C 0.73264 0.79439 0.49356 0.0
N724 N 0.69189 0.81108 0.471 0.0
N725 N 0.75567 0.80293 0.46927 0.0
C726 C 0.61052 0.81879 0.49228 0.0
H727 H 0.59431 0.84453 0.48703 0.0
H728 H 0.5719 0.79846 0.48948 0.0
H729 H 0.61345 0.82236 0.50473 0.0
C730 C 0.58812 0.70598 0.43987 0.0
N731 N 0.59173 0.74212 0.44 0.0
N732 N 0.61608 0.75345 0.45292 0.0
C733 C 0.6246 0.72396 0.4619 0.0
C734 C 0.60572 0.69341 0.45394 0.0
C735 C 0.57718 0.68326 0.42606 0.0
H736 H 0.58418 0.69931 0.41558 0.0
H737 H 0.52646 0.67123 0.42628 0.0
H738 H 0.61321 0.66051 0.42602 0.0
O739 O 0.60997 0.80288 0.41631 0.0
O740 O 0.67098 0.82813 0.43441 0.0
H741 H 0.69866 0.73195 0.4788 0.0
H742 H 0.63885 0.69768 0.48356 0.0
C743 C 0.64529 0.72437 0.47809 0.0
H744 H 0.61414 0.74389 0.48422 0.0
H745 H 0.77927 0.80082 0.45877 0.0
O746 O 0.49509 0.74767 0.41407 0.0
C747 C 0.65705 0.82363 0.4203 0.0
Co748 Co 0.18936 0.78573 0.35994 0.0
Co749 Co 0.10172 0.81803 0.33461 0.0
C750 C 0.25044 0.83613 0.33788 0.0
O751 O 0.25593 0.81426 0.34885 0.0
O752 O 0.19398 0.84134 0.33144 0.0
C753 C 0.28725 0.74022 0.37087 0.0
O754 O 0.30783 0.741 0.35674 0.0
C755 C 0.07028 0.80937 0.30291 0.0
C756 C 0.96259 0.8216 0.30188 0.0
C757 C 0.01401 0.80562 0.2937 0.0
N758 N 0.05207 0.82511 0.31603 0.0
N759 N 0.98808 0.83364 0.3151 0.0
C760 C 0.13747 0.79238 0.30053 0.0
H761 H 0.16674 0.79191 0.31118 0.0
H762 H 0.1324 0.76454 0.29614 0.0
H763 H 0.16553 0.80835 0.29201 0.0
C764 C 0.143 0.71683 0.3478 0.0
N765 N 0.14469 0.7531 0.34774 0.0
N766 N 0.10529 0.76559 0.33703 0.0
C767 C 0.07677 0.73676 0.33002 0.0
C768 C 0.10291 0.70551 0.33617 0.0
C769 C 0.16979 0.6927 0.36003 0.0
H770 H 0.166 0.70589 0.37122 0.0
H771 H 0.22232 0.6855 0.35746 0.0
H772 H 0.14108 0.66711 0.36064 0.0
O773 O 0.12651 0.81624 0.37084 0.0
O774 O 0.06057 0.84205 0.35368 0.0
H775 H 0.98611 0.71428 0.3209 0.0
H776 H 0.03842 0.73606 0.30747 0.0
C777 C 0.0194 0.73785 0.3192 0.0
H778 H 0.98954 0.76253 0.32088 0.0
H779 H 0.9602 0.84404 0.32406 0.0
O780 O 0.23764 0.75909 0.37485 0.0
C781 C 0.07843 0.83714 0.36752 0.0
Co782 Co 0.55602 0.96693 0.36334 0.0
Co783 Co 0.63528 0.93795 0.33638 0.0
C784 C 0.49188 0.91922 0.33914 0.0
O785 O 0.49047 0.93888 0.35095 0.0
O786 O 0.5462 0.91461 0.33178 0.0
C787 C 0.46213 0.01716 0.37242 0.0
O788 O 0.44904 0.01936 0.35787 0.0
C789 C 0.68145 0.93875 0.30486 0.0
C790 C 0.78566 0.95608 0.30845 0.0
C791 C 0.7363 0.95422 0.29742 0.0
N792 N 0.69685 0.93426 0.31962 0.0
N793 N 0.76017 0.94333 0.3215 0.0
C794 C 0.61568 0.92759 0.29819 0.0
H795 H 0.6011 0.90098 0.30291 0.0
H796 H 0.57582 0.9468 0.30139 0.0
H797 H 0.61871 0.92557 0.28568 0.0
C798 C 0.60292 0.03581 0.35333 0.0
N799 N 0.60445 -0.00024 0.3523 0.0
N800 N 0.62369 0.98987 0.33878 0.0
C801 C 0.63011 0.02034 0.33031 0.0
C802 C 0.61588 0.05004 0.33928 0.0
C803 C 0.59828 0.05661 0.36784 0.0
H804 H 0.60383 0.03856 0.37778 0.0
H805 H 0.55016 0.0713 0.36845 0.0
H806 H 0.63839 0.07732 0.36815 0.0
O807 O 0.61469 0.93647 0.37459 0.0
O808 O 0.67461 0.91263 0.35596 0.0
H809 H 0.63178 0.04854 0.30887 0.0
H810 H 0.61193 0.00151 0.30802 0.0
C811 C 0.64334 0.02169 0.31374 0.0
H812 H 0.69689 0.01604 0.31175 0.0
H813 H 0.78373 0.94477 0.33202 0.0
O814 O 0.50465 0.9946 0.37726 0.0
C815 C 0.66073 0.91564 0.37016 0.0
Co816 Co 0.79915 0.53489 0.11179 0.0
Co817 Co 0.88564 0.56802 0.08638 0.0
C818 C 0.73668 0.58554 0.09015 0.0
O819 O 0.73143 0.56323 0.10098 0.0
O820 O 0.79304 0.59115 0.08372 0.0
C821 C 0.70269 0.48905 0.12318 0.0
O822 O 0.68017 0.49014 0.10921 0.0
C823 C 0.91339 0.56006 0.05435 0.0
C824 C 0.02107 0.57173 0.05272 0.0
C825 C 0.96849 0.55602 0.04477 0.0
N826 N 0.93364 0.57504 0.0675 0.0
N827 N -0.00227 0.58311 0.06623 0.0
C828 C 0.84277 0.54836 0.05156 0.0
H829 H 0.80762 0.56694 0.05725 0.0
H830 H 0.83471 0.52105 0.05635 0.0
H831 H 0.83138 0.54814 0.03927 0.0
C832 C 0.84417 0.46635 0.09899 0.0
N833 N 0.84296 0.50264 0.09931 0.0
N834 N 0.88215 0.51561 0.08868 0.0
C835 C 0.9104 0.48715 0.0814 0.0
C836 C 0.88394 0.4556 0.08722 0.0
C837 C 0.81694 0.44153 0.11092 0.0
H838 H 0.82176 0.45379 0.12227 0.0
H839 H 0.76403 0.43509 0.10836 0.0
H840 H 0.84467 0.41562 0.11111 0.0
O841 O 0.86248 0.56568 0.12254 0.0
O842 O 0.92797 0.59187 0.10539 0.0
H843 H 0.00093 0.46508 0.07213 0.0
H844 H 0.94895 0.48802 0.05899 0.0
C845 C 0.96798 0.48885 0.0707 0.0
H846 H -0.00196 0.51336 0.07272 0.0
H847 H 0.02699 0.59313 0.07506 0.0
O848 O 0.75288 0.50785 0.12689 0.0
C849 C 0.91038 0.58676 0.11925 0.0
Co850 Co 0.43189 0.7166 0.1151 0.0
Co851 Co 0.35212 0.68776 0.08802 0.0
C852 C 0.49561 0.66885 0.09096 0.0
O853 O 0.4972 0.68846 0.10278 0.0
O854 O 0.44131 0.66439 0.08354 0.0
C855 C 0.52635 0.7662 0.1247 0.0
O856 O 0.54008 0.76884 0.11019 0.0
C857 C 0.30653 0.68898 0.05634 0.0
C858 C 0.202 0.70568 0.05981 0.0
C859 C 0.25164 0.70431 0.04884 0.0
N860 N 0.29088 0.68419 0.07107 0.0
N861 N 0.22736 0.69287 0.07286 0.0
C862 C 0.37265 0.67831 0.04974 0.0
H863 H 0.41226 0.6975 0.05318 0.0
H864 H 0.37013 0.67678 0.03721 0.0
H865 H 0.38722 0.65156 0.0543 0.0
C866 C 0.38576 0.78566 0.10504 0.0
N867 N 0.38434 0.7496 0.104 0.0
N868 N 0.36398 0.73969 0.09054 0.0
C869 C 0.3566 0.77017 0.08214 0.0
C870 C 0.37136 0.79987 0.09105 0.0
C871 C 0.39137 0.80645 0.11953 0.0
H872 H 0.38547 0.78845 0.12948 0.0
H873 H 0.44 0.82069 0.1201 0.0
H874 H 0.35195 0.82749 0.11988 0.0
O875 O 0.3726 0.68617 0.12619 0.0
O876 O 0.31259 0.66224 0.10756 0.0
H877 H 0.35321 0.79843 0.06071 0.0
H878 H 0.3736 0.75161 0.0598 0.0
C879 C 0.3422 0.77155 0.06562 0.0
H880 H 0.28859 0.76568 0.06378 0.0
H881 H 0.20347 0.69398 0.08335 0.0
O882 O 0.48306 0.74376 0.12929 0.0
C883 C 0.32655 0.66529 0.12176 0.0
Co884 Co 0.79477 0.71877 0.18147 0.0
Co885 Co 0.88743 0.68625 0.20576 0.0
C886 C 0.73893 0.66612 0.20332 0.0
O887 O 0.73101 0.68854 0.19262 0.0
O888 O 0.79652 0.66137 0.20932 0.0
C889 C 0.69224 0.76288 0.17172 0.0
O890 O 0.6732 0.76049 0.18593 0.0
C891 C 0.92248 0.69424 0.23727 0.0
C892 C 0.03061 0.68301 0.23761 0.0
C893 C 0.97966 0.69829 0.24617 0.0
N894 N 0.93967 0.67901 0.22397 0.0
N895 N 0.00402 0.67108 0.22449 0.0
C896 C 0.85503 0.71055 0.24008 0.0
H897 H 0.82412 0.71037 0.22967 0.0
H898 H 0.85977 0.73859 0.24427 0.0
H899 H 0.82886 0.69455 0.24889 0.0
C900 C 0.83817 0.78759 0.19432 0.0
N901 N 0.83882 0.75132 0.19382 0.0
N902 N 0.88105 0.73872 0.20394 0.0
C903 C 0.90942 0.76747 0.21104 0.0
C904 C 0.88006 0.79868 0.20567 0.0
C905 C 0.80683 0.81221 0.18284 0.0
H906 H 0.80996 0.80038 0.17138 0.0
H907 H 0.75413 0.81745 0.186 0.0
H908 H 0.83268 0.83868 0.18248 0.0
O909 O 0.85818 0.68996 0.16976 0.0
O910 O 0.92761 0.66414 0.18619 0.0
H911 H 0.00169 0.79053 0.21893 0.0
H912 H 0.95388 0.76805 0.23301 0.0
C913 C 0.96968 0.76661 0.22103 0.0
H914 H -0.00026 0.74222 0.21884 0.0
H915 H 0.0312 0.6612 0.21531 0.0
O916 O 0.74305 0.74562 0.16724 0.0
C917 C 0.90783 0.66963 0.17251 0.0
Co918 Co 0.44483 0.52655 0.18006 0.0
Co919 Co 0.36016 0.55596 0.20624 0.0
C920 C 0.5035 0.57776 0.2034 0.0
O921 O 0.50743 0.55719 0.19193 0.0
O922 O 0.44826 0.58157 0.21053 0.0
C923 C 0.54457 0.47898 0.1712 0.0
O924 O 0.55904 0.47786 0.18571 0.0
C925 C 0.31214 0.55664 0.23772 0.0
C926 C 0.20622 0.54277 0.23403 0.0
C927 C 0.25527 0.54342 0.24517 0.0
N928 N 0.29794 0.56085 0.22289 0.0
N929 N 0.23375 0.55389 0.22093 0.0
C930 C 0.37899 0.56562 0.24441 0.0
H931 H 0.39699 0.59146 0.23955 0.0
H932 H 0.41637 0.54486 0.24137 0.0
H933 H 0.37596 0.56826 0.2569 0.0
C934 C 0.40281 0.45716 0.19114 0.0
N935 N 0.40033 0.49328 0.19173 0.0
N936 N 0.37435 0.50387 0.20459 0.0
C937 C 0.36351 0.47379 0.21309 0.0
C938 C 0.38282 0.4437 0.20489 0.0
C939 C 0.41377 0.43541 0.17706 0.0
H940 H 0.40803 0.45231 0.16678 0.0
H941 H 0.46401 0.42285 0.17729 0.0
H942 H 0.37689 0.41304 0.17657 0.0
O943 O 0.38289 0.55446 0.16831 0.0
O944 O 0.31955 0.57848 0.18628 0.0
H945 H 0.34203 0.44582 0.23407 0.0
H946 H 0.37029 0.49124 0.23585 0.0
C947 C 0.33904 0.47312 0.229 0.0
H948 H 0.28627 0.48194 0.22922 0.0
H949 H 0.21041 0.55294 0.21037 0.0
O950 O 0.49884 0.49966 0.16639 0.0
C951 C 0.33461 0.57445 0.1722 0.0
Co952 Co 0.2075 0.47536 0.93017 0.0
Co953 Co 0.10748 0.4442 0.95333 0.0
C954 C 0.25399 0.41915 0.95139 0.0
O955 O 0.26581 0.44214 0.94113 0.0
O956 O 0.19517 0.41582 0.95694 0.0
C957 C 0.31754 0.51547 0.92224 0.0
O958 O 0.33214 0.51088 0.93662 0.0
C959 C 0.07125 0.45367 0.98472 0.0
C960 C 0.96257 0.44432 0.98499 0.0
C961 C 0.01423 0.45907 0.99354 0.0
N962 N 0.05334 0.43869 0.97141 0.0
N963 N 0.98845 0.43205 0.97186 0.0
C964 C 0.14181 0.464 0.98841 0.0
H965 H 0.1771 0.44483 0.9831 0.0
H966 H 0.15284 0.49118 0.98383 0.0
H967 H 0.15 0.46405 1.00084 0.0
C968 C 0.1699 0.54441 0.94374 0.0
N969 N 0.16658 0.50823 0.94283 0.0
N970 N 0.11966 0.49612 0.95191 0.0
C971 C 0.08977 0.525 0.95846 0.0
C972 C 0.12368 0.55584 0.95416 0.0
C973 C 0.20759 0.56874 0.93316 0.0
H974 H 0.20543 0.55819 0.92146 0.0
H975 H 0.26016 0.57111 0.93699 0.0
H976 H 0.18615 0.59631 0.93296 0.0
O977 O 0.14086 0.44972 0.91779 0.0
O978 O 0.06575 0.42562 0.9334 0.0
H979 H 0.99398 0.54849 0.96346 0.0
H980 H 0.03285 0.52598 0.97884 0.0
C981 C 0.02413 0.52453 0.96653 0.0
H982 H -0.00483 0.5002 0.96353 0.0
H983 H 0.96079 0.42241 0.9627 0.0
O984 O 0.2651 0.50136 0.91679 0.0
C985 C 0.08785 0.43138 0.91993 0.0
Co986 Co 0.53134 0.26994 0.92797 0.0
Co987 Co 0.62192 0.29875 0.95336 0.0
C988 C 0.48013 0.32424 0.95083 0.0
O989 O 0.47321 0.30314 0.93962 0.0
O990 O 0.5364 0.32698 0.95764 0.0
C991 C 0.42475 0.22579 0.92149 0.0
O992 O 0.41607 0.22753 0.93622 0.0
C993 C 0.67108 0.3007 0.98471 0.0
C994 C 0.777 0.28675 0.98118 0.0
C995 C 0.72804 0.2882 0.99231 0.0
N996 N 0.6851 0.30379 0.96983 0.0
N997 N 0.74927 0.29677 0.96794 0.0
C998 C 0.60407 0.30968 0.99128 0.0
H999 H 0.5859 0.33526 0.98623 0.0
H1000 H 0.56702 0.2886 0.98833 0.0
H1001 H 0.60685 0.31283 1.00375 0.0
C1002 C 0.56821 0.20026 0.93977 0.0
N1003 N 0.57329 0.23634 0.93998 0.0
N1004 N 0.60334 0.24702 0.95239 0.0
C1005 C 0.61478 0.21715 0.96097 0.0
C1006 C 0.59108 0.18706 0.95334 0.0
C1007 C 0.55202 0.17809 0.92605 0.0
H1008 H 0.55751 0.19421 0.91555 0.0
H1009 H 0.5005 0.16725 0.92692 0.0
H1010 H 0.58617 0.15456 0.92542 0.0
O1011 O 0.59555 0.29513 0.91557 0.0
O1012 O 0.66354 0.31797 0.93299 0.0
H1013 H 0.6448 0.18948 0.98149 0.0
H1014 H 0.61553 0.23451 0.98375 0.0
C1015 C 0.64502 0.21677 0.97637 0.0
H1016 H 0.69728 0.22635 0.97567 0.0
H1017 H 0.77254 0.29518 0.95739 0.0
O1018 O 0.47151 0.24353 0.91526 0.0
C1019 C 0.64678 0.31354 0.91902 0.0
Co1020 Co 0.16125 0.28697 0.86618 0.0
Co1021 Co 0.11118 0.31852 0.83622 0.0
C1022 C 0.24791 0.33469 0.84473 0.0
O1023 O 0.23414 0.31713 0.85679 0.0
O1024 O 0.2051 0.33718 0.83404 0.0
C1025 C 0.24576 0.23538 0.87727 0.0
O1026 O 0.26269 0.23389 0.86291 0.0
C1027 C 0.07707 0.31823 0.80364 0.0
C1028 C 0.96871 0.30838 0.80547 0.0
C1029 C 0.02152 0.30646 0.79532 0.0
N1030 N 0.05799 0.32457 0.81806 0.0
N1031 N 0.99262 0.3199 0.81885 0.0
C1032 C 0.14649 0.32527 0.79795 0.0
H1033 H 0.15776 0.35433 0.79946 0.0
H1034 H 0.18388 0.31054 0.80483 0.0
H1035 H 0.15187 0.31867 0.78578 0.0
C1036 C 0.11719 0.21941 0.85382 0.0
N1037 N 0.1208 0.25551 0.85305 0.0
N1038 N 0.11329 0.2664 0.83905 0.0
C1039 C 0.10961 0.23647 0.83025 0.0
C1040 C 0.11307 0.2061 0.83936 0.0
C1041 C 0.11207 0.19784 0.86815 0.0
H1042 H 0.10198 0.21552 0.87799 0.0
H1043 H 0.15856 0.18225 0.87006 0.0
H1044 H 0.07093 0.17789 0.86706 0.0
O1045 O 0.09663 0.31675 0.87536 0.0
O1046 O 0.06878 0.34745 0.8547 0.0
H1047 H 0.12024 0.20886 0.80885 0.0
H1048 H 0.14773 0.2548 0.80918 0.0
C1049 C 0.10934 0.23604 0.81342 0.0
H1050 H 0.05912 0.2441 0.80945 0.0
H1051 H 0.96543 0.3207 0.82892 0.0
O1052 O 0.2027 0.25818 0.88157 0.0
C1053 C 0.06585 0.34257 0.86916 0.0
Co1054 Co 0.58538 0.4617 0.86626 0.0
Co1055 Co 0.63703 0.43066 0.83658 0.0
C1056 C 0.50143 0.41281 0.84462 0.0
O1057 O 0.5147 0.43028 0.85671 0.0
O1058 O 0.54404 0.41116 0.83387 0.0
C1059 C 0.49669 0.51171 0.87708 0.0
O1060 O 0.47997 0.51319 0.8627 0.0
C1061 C 0.67566 0.4311 0.80433 0.0
C1062 C 0.78113 0.44699 0.80712 0.0
C1063 C 0.72995 0.44619 0.79651 0.0
N1064 N 0.69344 0.42568 0.81891 0.0
N1065 N 0.75742 0.4339 0.82026 0.0
C1066 C 0.60923 0.41985 0.79801 0.0
H1067 H 0.59662 0.3926 0.80236 0.0
H1068 H 0.56896 0.43801 0.80191 0.0
H1069 H 0.61017 0.41914 0.78545 0.0
C1070 C 0.6262 0.52973 0.85385 0.0
N1071 N 0.62445 0.49362 0.85315 0.0
N1072 N 0.6323 0.48276 0.83919 0.0
C1073 C 0.63441 0.51267 0.83029 0.0
C1074 C 0.6297 0.54302 0.83935 0.0
C1075 C 0.62969 0.55137 0.86815 0.0
H1076 H 0.64078 0.53385 0.87802 0.0
H1077 H 0.5821 0.56597 0.87 0.0
H1078 H 0.66946 0.57213 0.86708 0.0
O1079 O 0.65103 0.43325 0.87584 0.0
O1080 O 0.67756 0.40178 0.85539 0.0
H1081 H 0.6169 0.53942 0.80891 0.0
H1082 H 0.6 0.49199 0.80923 0.0
C1083 C 0.63393 0.51308 0.81344 0.0
H1084 H 0.68544 0.50844 0.80935 0.0
H1085 H 0.78283 0.43468 0.83058 0.0
O1086 O 0.54138 0.4898 0.88139 0.0
C1087 C 0.68066 0.40688 0.86984 0.0
C1088 C 0.44101 0.98729 0.0333 0.0
C1089 C 0.48077 0.01853 0.03482 0.0
H1090 H 0.42202 0.93828 1.02121 0.0
C1091 C 0.53436 0.02303 0.02473 0.0
H1092 H 0.40088 0.98146 0.04107 0.0
C1093 C 0.5473 0.99756 1.0134 0.0
C1094 C 0.50756 0.9663 1.01186 0.0
H1095 H 0.56633 0.04654 0.02551 0.0
H1096 H 0.58728 0.00357 1.00563 0.0
C1097 C 0.45404 0.96177 0.02199 0.0
C1098 C 0.79678 0.26347 1.01375 0.0
C1099 C 0.73359 0.26837 1.00705 0.0
H1100 H 0.85416 0.23953 0.03139 0.0
C1101 C 0.6788 0.24997 1.01345 0.0
H1102 H 0.84035 0.27692 1.00913 0.0
C1103 C 0.68702 0.22749 0.02608 0.0
C1104 C 0.75021 0.22251 0.03278 0.0
H1105 H 0.62946 0.25182 1.00859 0.0
H1106 H 0.6434 0.21402 0.03067 0.0
C1107 C 0.80495 0.24112 0.02644 0.0
C1108 C 0.52821 0.2159 0.27172 0.0
C1109 C 0.4744 0.2208 0.2617 0.0
H1110 H 0.58157 0.23457 0.29096 0.0
C1111 C 0.43427 0.25174 0.26363 0.0
H1112 H 0.5605 0.19262 0.27066 0.0
C1113 C 0.44722 0.27656 0.27522 0.0
C1114 C 0.50113 0.27168 0.28521 0.0
H1115 H 0.39396 0.25797 0.25597 0.0
H1116 H 0.41495 0.29984 0.27631 0.0
C1117 C 0.54121 0.24074 0.2833 0.0
C1118 C 0.68084 0.99309 0.27729 0.0
C1119 C 0.73841 0.97636 0.28322 0.0
H1120 H 0.63967 0.02953 0.26093 0.0
C1121 C 0.80051 0.98529 0.27674 0.0
H1122 H 0.63211 0.98833 0.28212 0.0
C1123 C 0.805 0.0098 0.26468 0.0
C1124 C 0.74741 0.02645 0.25871 0.0
H1125 H 0.84615 0.97334 0.28104 0.0
H1126 H 0.85376 0.01453 0.25987 0.0
C1127 C 0.68532 0.01761 0.26524 0.0
C1128 C 0.18317 0.76101 1.01636 0.0
C1129 C 0.24062 0.77853 1.01075 0.0
H1130 H 0.14209 0.72334 0.03226 0.0
C1131 C 0.30264 0.76958 1.01729 0.0
H1132 H 0.13457 0.76567 1.01144 0.0
C1133 C 0.30715 0.74431 0.02907 0.0
C1134 C 0.24967 0.72697 0.03475 0.0
H1135 H 0.34822 0.78208 1.01323 0.0
H1136 H 0.35583 0.7395 0.03393 0.0
C1137 C 0.18765 0.73583 0.02818 0.0
C1138 C 0.44361 0.76999 0.77673 0.0
C1139 C 0.50253 0.76646 0.78529 0.0
H1140 H 0.38365 0.75093 0.7586 0.0
C1141 C 0.54513 0.73728 0.78189 0.0
H1142 H 0.40885 0.79166 0.77905 0.0
C1143 C 0.53051 0.71345 0.77004 0.0
C1144 C 0.47222 0.71737 0.7613 0.0
H1145 H 0.58911 0.73171 0.78852 0.0
H1146 H 0.56533 0.69182 0.76771 0.0
C1147 C 0.4286 0.74591 0.76498 0.0
C1148 C 0.30201 0.97895 0.77701 0.0
C1149 C 0.24273 0.98202 0.78544 0.0
H1150 H 0.36173 0.9983 0.75889 0.0
C1151 C 0.19916 0.01067 0.78183 0.0
H1152 H 0.33755 0.95775 0.77952 0.0
C1153 C 0.21307 0.03432 0.76986 0.0
C1154 C 0.27164 0.03079 0.76121 0.0
H1155 H 0.15489 0.01597 0.78839 0.0
H1156 H 0.17746 0.05549 0.76733 0.0
C1157 C 0.31637 0.00291 0.76515 0.0
C1158 C 0.44093 0.49344 0.51186 0.0
C1159 C 0.49837 0.47147 0.51172 0.0
H1160 H 0.38903 0.5375 0.52222 0.0
C1161 C 0.54774 0.47752 0.52275 0.0
H1162 H 0.40235 0.49005 0.50337 0.0
C1163 C 0.54016 0.50494 0.53354 0.0
C1164 C 0.48262 0.52683 0.53372 0.0
H1165 H 0.59212 0.4609 0.52315 0.0
H1166 H 0.57872 0.50829 0.54204 0.0
C1167 C 0.43338 0.52086 0.52264 0.0
C1168 C 0.79856 0.76594 0.51464 0.0
C1169 C 0.73594 0.77363 0.50811 0.0
H1170 H 0.85333 0.7386 0.53184 0.0
C1171 C 0.67913 0.75684 0.5144 0.0
H1172 H 0.84365 0.77799 0.51009 0.0
C1173 C 0.68485 0.73339 0.5268 0.0
C1174 C 0.74746 0.72569 0.53331 0.0
H1175 H 0.63005 0.76067 0.50962 0.0
H1176 H 0.63977 0.72134 0.53135 0.0
C1177 C 0.80428 0.74248 0.52703 0.0
C1178 C 0.79742 0.50234 0.76381 0.0
C1179 C 0.74007 0.52 0.75826 0.0
H1180 H 0.8386 0.46457 0.77961 0.0
C1181 C 0.67814 0.51135 0.76495 0.0
H1182 H 0.84598 0.50688 0.75887 0.0
C1183 C 0.67376 0.48628 0.77685 0.0
C1184 C 0.73123 0.46868 0.78238 0.0
H1185 H 0.63264 0.52403 0.76096 0.0
H1186 H 0.62541 0.48184 0.78195 0.0
C1187 C 0.79302 0.4772 0.77564 0.0
C1188 C 0.19056 0.23153 0.52778 0.0
C1189 C 0.2537 0.22386 0.53406 0.0
H1190 H 0.13418 0.2597 0.51108 0.0
C1191 C 0.30972 0.24154 0.52783 0.0
H1192 H 0.14603 0.21879 0.53228 0.0
C1193 C 0.30273 0.26589 0.51577 0.0
C1194 C 0.23958 0.27364 0.50954 0.0
H1195 H 0.35916 0.23772 0.53242 0.0
H1196 H 0.34725 0.27865 0.51128 0.0
C1197 C 0.18358 0.25588 0.51572 0.0
C1198 C 0.17839 0.49213 0.27823 0.0
C1199 C 0.23354 0.47389 0.28456 0.0
H1200 H 0.14251 0.52892 0.26137 0.0
C1201 C 0.29693 0.48032 0.27817 0.0
H1202 H 0.12887 0.4893 0.2829 0.0
C1203 C 0.30496 0.50395 0.26589 0.0
C1204 C 0.24981 0.52219 0.25958 0.0
H1205 H 0.34085 0.46714 0.28274 0.0
H1206 H 0.35447 0.50684 0.26122 0.0
C1207 C 0.18642 0.51573 0.26595 0.0
C1208 C 0.95736 0.97087 0.51792 0.0
C1209 C 0.01111 0.97563 0.50789 0.0
H1210 H 0.90468 0.98964 0.5372 0.0
C1211 C 0.05158 0.0065 0.50976 0.0
H1212 H 0.9248 0.94766 0.51687 0.0
C1213 C 0.03916 0.03136 0.52135 0.0
C1214 C 0.98548 0.02658 0.5314 0.0
H1215 H 0.09176 0.01262 0.50205 0.0
H1216 H 0.07173 0.05457 0.52239 0.0
C1217 C 0.94492 0.99574 0.52951 0.0
C1218 C 0.94839 0.25705 0.76159 0.0
C1219 C -0.00161 0.23167 0.75793 0.0
H1220 H 0.91725 0.30062 0.7758 0.0
C1221 C 0.05949 0.23405 0.76583 0.0
H1222 H 0.90199 0.25851 0.75547 0.0
C1223 C 0.06935 0.25991 0.77722 0.0
C1224 C 0.01813 0.28412 0.78123 0.0
H1225 H 0.09996 0.21567 0.76329 0.0
H1226 H 0.11633 0.25966 0.78323 0.0
C1227 C 0.95787 0.28242 0.77311 0.0
C1228 C 0.94803 0.75643 0.28103 0.0
C1229 C 0.00457 0.77911 0.28116 0.0
H1230 H 0.89727 0.71212 0.27052 0.0
C1231 C 0.05352 0.77413 0.26995 0.0
H1232 H 0.90988 0.75898 0.28966 0.0
C1233 C 0.04631 0.7471 0.25898 0.0
C1234 C 0.98963 0.7245 0.25882 0.0
H1235 H 0.09727 0.7913 0.26958 0.0
H1236 H 0.08446 0.74457 0.25035 0.0
C1237 C 0.94091 0.72935 0.27009 0.0
C1238 C 0.93543 0.50222 0.02834 0.0
C1239 C 0.97723 0.53216 0.03117 0.0
H1240 H 0.91508 0.45582 1.01465 0.0
C1241 C 0.03282 0.53709 0.02166 0.0
H1242 H 0.89352 0.49595 0.03553 0.0
C1243 C 0.0461 0.51318 1.00976 0.0
C1244 C 0.00444 0.48321 1.00698 0.0
H1245 H 0.06644 0.55961 0.0234 0.0
H1246 H 0.08813 0.51929 1.00257 0.0
C1247 C 0.94862 0.47837 1.01641 0.0
C1248 C 0.08136 0.96139 0.13143 0.0
C1249 C 0.14897 0.96865 0.1341 0.0
H1250 H 0.98516 0.95714 0.14164 0.0
C1251 C 0.17571 0.96379 0.14869 0.0
H1252 H 0.06017 0.9636 0.12018 0.0
C1253 C 0.13286 0.96007 0.16095 0.0
C1254 C 0.06394 0.96143 0.15843 0.0
H1255 H 0.22859 0.96756 0.15086 0.0
H1256 H 0.1533 0.96203 0.17228 0.0
C1257 C 0.03861 0.9575 0.14369 0.0
C1258 C 0.19281 0.28135 0.14412 0.0
C1259 C 0.16361 0.27818 0.15854 0.0
H1260 H 0.17388 0.28292 0.12035 0.0
C1261 C 0.09674 0.28793 0.16064 0.0
H1262 H 0.24536 0.2756 0.14236 0.0
C1263 C 0.05628 0.29288 0.14804 0.0
C1264 C 0.08301 0.28749 0.13352 0.0
H1265 H 0.07381 0.28704 0.17175 0.0
H1266 H 0.00276 0.29533 0.14969 0.0
C1267 C 0.15223 0.2861 0.13151 0.0
C1268 C 0.91389 0.04045 0.89685 0.0
C1269 C 0.88624 0.03374 0.88249 0.0
H1270 H 0.89905 0.03521 0.92068 0.0
C1271 C 0.81697 0.03075 0.88084 0.0
H1272 H 0.96725 0.04441 0.89825 0.0
C1273 C 0.77801 0.02573 0.89366 0.0
C1274 C 0.80882 0.0238 0.90795 0.0
H1275 H 0.79436 0.0268 0.86982 0.0
H1276 H 0.72574 0.01882 0.8922 0.0
C1277 C 0.87506 0.03512 0.90968 0.0
C1278 C 0.96772 0.71558 0.89352 0.0
C1279 C 0.93971 0.71793 0.90806 0.0
H1280 H 0.94762 0.71711 0.86982 0.0
C1281 C 0.87201 0.71017 0.91023 0.0
H1282 H 0.02071 0.7201 0.89174 0.0
C1283 C 0.83028 0.70821 0.89768 0.0
C1284 C 0.85678 0.71425 0.88315 0.0
H1285 H 0.84991 0.71083 0.92142 0.0
H1286 H 0.77672 0.70699 0.8995 0.0
C1287 C 0.92603 0.71373 0.88098 0.0
C1288 C 0.03858 0.46426 0.64279 0.0
C1289 C 0.06473 0.46864 0.65744 0.0
H1290 H 0.06031 0.46638 0.61918 0.0
C1291 C 0.13336 0.46497 0.65995 0.0
H1292 H 0.98517 0.46562 0.64077 0.0
C1293 C 0.17629 0.4652 0.6476 0.0
C1294 C 0.14997 0.46923 0.63293 0.0
H1295 H 0.15423 0.46725 0.67123 0.0
H1296 H 0.22961 0.46714 0.64966 0.0
C1297 C 0.08145 0.4646 0.63045 0.0
C1298 C 0.18446 0.78729 0.64385 0.0
C1299 C 0.15629 0.78362 0.65835 0.0
H1300 H 0.16422 0.78746 0.62014 0.0
C1301 C 0.08872 0.79155 0.66061 0.0
H1302 H 0.2374 0.78288 0.64201 0.0
C1303 C 0.04715 0.79475 0.64809 0.0
C1304 C 0.07368 0.78959 0.63354 0.0
H1305 H 0.06648 0.7901 0.67178 0.0
H1306 H 0.99354 0.79557 0.64988 0.0
C1307 C 0.14283 0.79037 0.63134 0.0
C1308 C 0.78893 0.53118 0.39587 0.0
C1309 C 0.81835 0.52781 0.41027 0.0
H1310 H 0.80732 0.53273 0.37209 0.0
C1311 C 0.88558 0.53698 0.41232 0.0
H1312 H 0.73618 0.52584 0.39417 0.0
C1313 C 0.92588 0.54165 0.39968 0.0
C1314 C 0.89865 0.5366 0.38517 0.0
H1315 H 0.90873 0.53587 0.4234 0.0
H1316 H 0.9795 0.54374 0.40128 0.0
C1317 C 0.82934 0.53565 0.38323 0.0
C1318 C 0.89814 0.21024 0.38306 0.0
C1319 C 0.83006 0.21672 0.38538 0.0
H1320 H 0.9937 0.20812 0.3937 0.0
C1321 C 0.80242 0.21228 0.39991 0.0
H1322 H 0.92012 0.21212 0.37188 0.0
C1323 C 0.84448 0.21008 0.41238 0.0
C1324 C 0.91347 0.21232 0.41012 0.0
H1325 H 0.74923 0.21548 0.40182 0.0
H1326 H 0.82315 0.21248 0.42361 0.0
C1327 C 0.9401 0.20781 0.39554 0.0
C1328 C 0.69729 0.96478 0.64717 0.0
C1329 C 0.66767 0.96984 0.63288 0.0
H1330 H 0.6799 0.96363 0.67098 0.0
C1331 C 0.59934 0.96332 0.63095 0.0
H1332 H 0.75071 0.96797 0.64875 0.0
C1333 C 0.5591 0.96014 0.64367 0.0
C1334 C 0.58768 0.964 0.65812 0.0
H1335 H 0.57588 0.9657 0.61994 0.0
H1336 H 0.50529 0.96023 0.64219 0.0
C1337 C 0.65697 0.96185 0.65989 0.0
C1338 C 0.60318 0.28691 0.66017 0.0
C1339 C 0.66987 0.27795 0.65731 0.0
H1340 H 0.50694 0.29387 0.65021 0.0
C1341 C 0.69618 0.28219 0.64265 0.0
H1342 H 0.58248 0.28516 0.67148 0.0
C1343 C 0.6531 0.2873 0.63052 0.0
C1344 C 0.58429 0.28782 0.63321 0.0
H1345 H 0.74853 0.27708 0.64033 0.0
H1346 H 0.6727 0.28495 0.61913 0.0
C1347 C 0.56018 0.29216 0.64802 0.0
C1348 C 0.44813 0.04024 0.39817 0.0
C1349 C 0.42191 0.0361 0.38353 0.0
H1350 H 0.42706 0.03604 0.42177 0.0
C1351 C 0.3531 0.03904 0.38111 0.0
H1352 H 0.50164 0.03944 0.40012 0.0
C1353 C 0.31046 0.0372 0.39348 0.0
C1354 C 0.33736 0.03243 0.40806 0.0
H1355 H 0.33212 0.03696 0.36983 0.0
H1356 H 0.25725 0.03451 0.39144 0.0
C1357 C 0.40558 0.03823 0.41055 0.0
C1358 C 0.39041 0.71102 0.38015 0.0
C1359 C 0.32332 0.72004 0.38244 0.0
H1360 H 0.48515 0.70437 0.39085 0.0
C1361 C 0.29494 0.71646 0.39693 0.0
H1362 H 0.41275 0.71233 0.36899 0.0
C1363 C 0.33626 0.71191 0.40942 0.0
C1364 C 0.40544 0.71114 0.40725 0.0
H1365 H 0.2423 0.72169 0.39882 0.0
H1366 H 0.31502 0.71464 0.42064 0.0
C1367 C 0.43165 0.70632 0.39264 0.0
C1368 C 0.69676 0.46626 0.14942 0.0
C1369 C 0.66765 0.46901 0.13496 0.0
H1370 H 0.6777 0.46608 0.17318 0.0
C1371 C 0.60052 0.45966 0.13291 0.0
H1372 H 0.74946 0.47173 0.15114 0.0
C1373 C 0.55988 0.45571 0.14553 0.0
C1374 C 0.58676 0.46162 0.16001 0.0
H1375 H 0.57762 0.46027 0.12179 0.0
H1376 H 0.50629 0.45364 0.14388 0.0
C1377 C 0.656 0.46251 0.16204 0.0
C1378 C 0.58341 0.78628 0.16305 0.0
C1379 C 0.65185 0.78169 0.16049 0.0
H1380 H 0.48707 0.78628 0.15272 0.0
C1381 C 0.67814 0.78702 0.1459 0.0
H1382 H 0.56235 0.78354 0.17429 0.0
C1383 C 0.63515 0.78845 0.13356 0.0
C1384 C 0.56652 0.78456 0.13602 0.0
H1385 H 0.73143 0.78518 0.14381 0.0
H1386 H 0.65599 0.78702 0.12226 0.0
C1387 C 0.54047 0.78785 0.15072 0.0
C1388 C 0.34454 0.54002 0.89705 0.0
C1389 C 0.36529 0.53182 0.91185 0.0
H1390 H 0.37262 0.54055 0.87377 0.0
C1391 C 0.4335 0.53077 0.91533 0.0
H1392 H 0.29192 0.54244 0.89428 0.0
C1393 C 0.47963 0.52989 0.90361 0.0
C1394 C 0.45702 0.52998 0.88855 0.0
H1395 H 0.45063 0.52566 0.92677 0.0
H1396 H 0.53152 0.52438 0.90629 0.0
C1397 C 0.39066 0.53911 0.88532 0.0
C1398 C 0.34743 0.20307 0.88532 0.0
C1399 C 0.28296 0.21529 0.88869 0.0
H1400 H 0.44585 0.19564 0.89407 0.0
C1401 C 0.26106 0.2161 0.9038 0.0
H1402 H 0.36465 0.20096 0.87373 0.0
C1403 C 0.30746 0.21291 0.91542 0.0
C1404 C 0.37507 0.20909 0.91176 0.0
H1405 H 0.21039 0.22397 0.90659 0.0
H1406 H 0.29193 0.21902 0.92689 0.0
C1407 C 0.39378 0.19995 0.89695 0.0
C1408 C 0.05739 0.1132 0.08396 0.0
C1409 C 0.06224 0.15055 0.08628 0.0
H1410 H 0.10937 0.06255 0.08363 0.0
C1411 C 0.12634 0.16607 0.08756 0.0
H1412 H 0.00881 0.1004 0.08315 0.0
C1413 C 0.18409 0.14454 0.08733 0.0
C1414 C 0.1788 0.1069 0.0863 0.0
H1415 H 0.13162 0.19476 0.08947 0.0
H1416 H 0.23234 0.15706 0.08922 0.0
C1417 C 0.11498 0.09155 0.08424 0.0
C1418 C 0.11896 0.08187 0.20438 0.0
C1419 C 0.05615 0.09853 0.20608 0.0
H1420 H 0.22553 0.08889 0.20291 0.0
C1421 C 0.05414 0.1356 0.20926 0.0
H1422 H 0.12204 0.05337 0.20184 0.0
C1423 C 0.1133 0.15604 0.20945 0.0
C1424 C 0.17584 0.13964 0.20705 0.0
H1425 H 0.00659 0.14927 0.21042 0.0
H1426 H 0.10995 0.18501 0.21073 0.0
C1427 C 0.17826 0.10212 0.2051 0.0
C1428 C 0.80958 0.85167 0.95742 0.0
C1429 C 0.80853 0.88936 0.95874 0.0
H1430 H 0.87037 0.80438 0.95487 0.0
C1431 C 0.86934 0.90775 0.96094 0.0
H1432 H 0.76365 0.83693 0.9554 0.0
C1433 C 0.93031 0.88902 0.96109 0.0
C1434 C 0.93173 0.85172 0.95847 0.0
H1435 H 0.86994 0.93688 0.96174 0.0
H1436 H 0.97652 0.90413 0.962 0.0
C1437 C 0.87067 0.83311 0.95704 0.0
C1438 C 0.88202 0.8369 0.83608 0.0
C1439 C 0.81643 0.85086 0.83631 0.0
H1440 H 0.9875 0.84831 0.83654 0.0
C1441 C 0.80805 0.88834 0.83532 0.0
H1442 H 0.89012 0.8081 0.83693 0.0
C1443 C 0.86393 0.91136 0.83549 0.0
C1444 C 0.92949 0.89744 0.83618 0.0
H1445 H 0.75842 0.89998 0.83569 0.0
H1446 H 0.85578 0.9402 0.8359 0.0
C1447 C 0.93791 0.8599 0.8358 0.0
C1448 C 0.12087 0.66605 0.58759 0.0
C1449 C 0.05708 0.65008 0.58649 0.0
H1450 H 0.22721 0.65782 0.58873 0.0
C1451 C 0.05302 0.61273 0.58412 0.0
H1452 H 0.12555 0.69476 0.58953 0.0
C1453 C 0.11119 0.59149 0.5841 0.0
C1454 C 0.1748 0.60729 0.58589 0.0
H1455 H 0.00471 0.59958 0.58345 0.0
H1456 H 0.10628 0.56246 0.58342 0.0
C1457 C 0.17914 0.64495 0.58704 0.0
C1458 C 0.10297 0.66151 0.70734 0.0
C1459 C 0.16609 0.64478 0.70663 0.0
H1460 H -0.00384 0.65459 0.7073 0.0
C1461 C 0.16905 0.60698 0.70692 0.0
H1462 H 0.0992 0.69062 0.70695 0.0
C1463 C 0.11002 0.58641 0.70663 0.0
C1464 C 0.04687 0.60318 0.70661 0.0
H1465 H 0.2168 0.59336 0.70611 0.0
H1466 H 0.11371 0.55738 0.70567 0.0
C1467 C 0.04398 0.64091 0.70759 0.0
C1468 C 0.92657 0.38699 0.46107 0.0
C1469 C 0.92428 0.34964 0.45856 0.0
H1470 H 0.87087 0.43645 0.46194 0.0
C1471 C 0.86131 0.33277 0.45749 0.0
H1472 H 0.97423 0.40081 0.4617 0.0
C1473 C 0.80205 0.35301 0.45815 0.0
C1474 C 0.80461 0.3907 0.4594 0.0
H1475 H 0.85802 0.30405 0.45542 0.0
H1476 H 0.75461 0.3395 0.45642 0.0
C1477 C 0.86739 0.40737 0.46121 0.0
C1478 C 0.86768 0.34041 0.33596 0.0
C1479 C 0.80372 0.35574 0.3377 0.0
H1480 H 0.97387 0.34939 0.33507 0.0
C1481 C 0.79834 0.39342 0.33838 0.0
H1482 H 0.87337 0.31139 0.3356 0.0
C1483 C 0.85604 0.41507 0.33857 0.0
C1484 C 0.92022 0.3996 0.33758 0.0
H1485 H 0.74997 0.40596 0.33999 0.0
H1486 H 0.85063 0.44384 0.34021 0.0
C1487 C 0.92524 0.36215 0.33563 0.0
C1488 C 0.56543 0.11377 0.58324 0.0
C1489 C 0.56848 0.15099 0.58604 0.0
H1490 H 0.61988 0.06393 0.58219 0.0
C1491 C 0.63183 0.16731 0.58749 0.0
H1492 H 0.51748 0.10035 0.58229 0.0
C1493 C 0.6906 0.14663 0.58693 0.0
C1494 C 0.68715 0.10903 0.58537 0.0
H1495 H 0.63574 0.19591 0.58977 0.0
H1496 H 0.73827 0.15968 0.58893 0.0
C1497 C 0.62407 0.09294 0.58319 0.0
C1498 C 0.574 0.1375 0.70824 0.0
C1499 C 0.57758 0.1 0.70629 0.0
H1500 H 0.6279 0.18763 0.70829 0.0
C1501 C 0.64116 0.08377 0.70546 0.0
H1502 H 0.52588 0.15084 0.70869 0.0
C1503 C 0.69971 0.10474 0.70573 0.0
C1504 C 0.69579 0.14247 0.70637 0.0
H1505 H 0.64548 0.05494 0.70384 0.0
H1506 H 0.74759 0.09165 0.70416 0.0
C1507 C 0.63244 0.15855 0.70801 0.0
C1508 C 0.43208 0.88572 0.45688 0.0
C1509 C 0.42693 0.84838 0.45456 0.0
H1510 H 0.38042 0.93647 0.45735 0.0
C1511 C 0.36272 0.83299 0.45332 0.0
H1512 H 0.48075 0.89842 0.45766 0.0
C1513 C 0.30512 0.85462 0.45365 0.0
C1514 C 0.31065 0.89225 0.45473 0.0
H1515 H 0.35722 0.8043 0.45141 0.0
H1516 H 0.25673 0.84219 0.45186 0.0
C1517 C 0.37462 0.90748 0.45668 0.0
C1518 C 0.36708 0.91609 0.33636 0.0
C1519 C 0.4299 0.89924 0.33508 0.0
H1520 H 0.26039 0.90933 0.33751 0.0
C1521 C 0.43195 0.86199 0.33231 0.0
H1522 H 0.364 0.94472 0.33862 0.0
C1523 C 0.37268 0.84162 0.33211 0.0
C1524 C 0.31006 0.85826 0.3341 0.0
H1525 H 0.47952 0.84819 0.3315 0.0
H1526 H 0.37597 0.81258 0.33117 0.0
C1527 C 0.30772 0.89589 0.33563 0.0
C1528 C 0.61404 0.59076 0.08473 0.0
C1529 C 0.67683 0.60749 0.08641 0.0
H1530 H 0.50723 0.59735 0.08418 0.0
C1531 C 0.67945 0.64522 0.08744 0.0
H1532 H 0.61054 0.56166 0.08413 0.0
C1533 C 0.62023 0.6655 0.08798 0.0
C1534 C 0.55728 0.64861 0.087 0.0
H1535 H 0.72695 0.65877 0.08903 0.0
H1536 H 0.62353 0.69429 0.08987 0.0
C1537 C 0.55491 0.61117 0.08474 0.0
C1538 C 0.55881 0.63709 0.20904 0.0
C1539 C 0.56364 0.59958 0.20728 0.0
H1540 H 0.61111 0.68772 0.20902 0.0
C1541 C 0.62776 0.58394 0.2066 0.0
H1542 H 0.51024 0.64997 0.20935 0.0
C1543 C 0.68564 0.60545 0.2069 0.0
C1544 C 0.68056 0.64316 0.20739 0.0
H1545 H 0.63302 0.55511 0.20509 0.0
H1546 H 0.734 0.59275 0.20551 0.0
C1547 C 0.6166 0.65868 0.20882 0.0
C1548 C 0.37484 0.40775 0.95729 0.0
C1549 C 0.30945 0.39418 0.95544 0.0
H1550 H 0.48019 0.39612 0.95789 0.0
C1551 C 0.30071 0.35674 0.95435 0.0
H1552 H 0.38318 0.43656 0.95795 0.0
C1553 C 0.35645 0.33372 0.95384 0.0
C1554 C 0.42206 0.34749 0.95486 0.0
H1555 H 0.25125 0.34553 0.95263 0.0
H1556 H 0.34836 0.30523 0.95189 0.0
C1557 C 0.43047 0.38461 0.95726 0.0
C1558 C 0.40502 0.38348 0.83025 0.0
C1559 C 0.43693 0.39249 0.84397 0.0
H1560 H 0.3193 0.35875 0.8196 0.0
C1561 C 0.40632 0.38195 0.8576 0.0
H1562 H 0.4272 0.39122 0.81954 0.0
C1563 C 0.34605 0.36293 0.85763 0.0
C1564 C 0.3132 0.3543 0.84403 0.0
H1565 H 0.42939 0.38809 0.86839 0.0
H1566 H 0.32462 0.35546 0.86845 0.0
C1567 C 0.3432 0.36498 0.83029 0.0
C1568 C 0.33186 0.8946 0.07903 0.0
C1569 C 0.38758 0.91306 0.08488 0.0
H1570 H 0.28249 0.8436 0.07659 0.0
C1571 C 0.4426 0.89355 0.0902 0.0
H1572 H 0.28848 0.90941 0.0751 0.0
C1573 C 0.4393 0.85604 0.09092 0.0
C1574 C 0.38053 0.83784 0.08663 0.0
H1575 H 0.48529 0.90724 0.09508 0.0
H1576 H 0.48092 0.84141 0.0958 0.0
C1577 C 0.32817 0.85713 0.07995 0.0
C1578 C 0.83047 0.39994 0.07792 0.0
C1579 C 0.88959 0.41818 0.08193 0.0
H1580 H 0.7801 0.34896 0.07671 0.0
C1581 C 0.94779 0.39849 0.08481 0.0
H1582 H 0.78477 0.41485 0.07589 0.0
C1583 C 0.94519 0.36091 0.08508 0.0
C1584 C 0.8842 0.34279 0.08275 0.0
H1585 H 0.99336 0.41196 0.08827 0.0
H1586 H 0.98958 0.34609 0.08835 0.0
C1587 C 0.82765 0.36237 0.0784 0.0
C1588 C 0.44939 0.34936 0.20713 0.0
C1589 C 0.39124 0.33032 0.2108 0.0
H1590 H 0.49242 0.40122 0.20295 0.0
C1591 C 0.33378 0.34924 0.21535 0.0
H1592 H 0.49362 0.33537 0.20323 0.0
C1593 C 0.33219 0.38679 0.21467 0.0
C1594 C 0.38843 0.4057 0.2096 0.0
H1595 H 0.28808 0.33483 0.218 0.0
H1596 H 0.28558 0.40069 0.21684 0.0
C1597 C 0.44814 0.38693 0.20669 0.0
C1598 C 0.93736 0.8939 0.2049 0.0
C1599 C 0.87705 0.91132 0.20854 0.0
H1600 H 0.98638 0.84326 0.20141 0.0
C1601 C 0.82449 0.89146 0.21484 0.0
H1602 H 0.97896 0.90901 0.20025 0.0
C1603 C 0.82959 0.85403 0.21589 0.0
C1604 C 0.88709 0.83625 0.21061 0.0
H1605 H 0.77767 0.90442 0.2177 0.0
H1606 H 0.7861 0.83868 0.21938 0.0
C1607 C 0.94225 0.85646 0.20583 0.0
C1608 C 0.52571 0.13046 0.95617 0.0
C1609 C 0.58629 0.14917 0.95824 0.0
H1610 H 0.47891 0.07892 0.95334 0.0
C1611 C 0.64371 0.13015 0.96246 0.0
H1612 H 0.48061 0.14483 0.95305 0.0
C1613 C 0.64197 0.09263 0.96316 0.0
C1614 C 0.58321 0.07378 0.95941 0.0
H1615 H 0.69103 0.14395 0.96392 0.0
H1616 H 0.68822 0.07818 0.96517 0.0
C1617 C 0.52428 0.09287 0.95659 0.0
C1618 C 0.17293 0.64937 0.96426 0.0
C1619 C 0.12131 0.66874 0.95733 0.0
H1620 H 0.21225 0.59699 0.96913 0.0
C1621 C 0.06325 0.6506 0.95257 0.0
H1622 H 0.21798 0.66292 0.96802 0.0
C1623 C 0.06007 0.6131 0.95308 0.0
C1624 C 0.11441 0.59351 0.9587 0.0
H1625 H 0.02217 0.6653 0.94748 0.0
H1626 H 0.01809 0.59952 0.94784 0.0
C1627 C 0.16936 0.61186 0.96497 0.0
C1628 C 0.66104 0.63734 0.82567 0.0
C1629 C 0.6088 0.65576 0.83295 0.0
H1630 H 0.70881 0.5863 0.82206 0.0
C1631 C 0.55717 0.63623 0.83981 0.0
H1632 H 0.70192 0.65218 0.82056 0.0
C1633 C 0.5613 0.59878 0.84069 0.0
C1634 C 0.61742 0.58068 0.8349 0.0
H1635 H 0.51733 0.64998 0.84575 0.0
H1636 H 0.52307 0.58418 0.84686 0.0
C1637 C 0.66536 0.59986 0.82663 0.0
C1638 C 0.18177 0.15041 0.84072 0.0
C1639 C 0.12537 0.16843 0.83497 0.0
H1640 H 0.2266 0.09927 0.84559 0.0
C1641 C 0.0777 0.14925 0.82664 0.0
H1642 H 0.21979 0.165 0.84695 0.0
C1643 C 0.08274 0.11184 0.8255 0.0
C1644 C 0.13531 0.09343 0.83271 0.0
H1645 H 0.03404 0.16275 0.8221 0.0
H1646 H 0.04207 0.09697 0.82032 0.0
C1647 C 0.18656 0.11301 0.83967 0.0
C1648 C 0.44456 0.35923 0.5872 0.0
C1649 C 0.38537 0.34026 0.58393 0.0
H1650 H 0.48943 0.411 0.59065 0.0
C1651 C 0.33006 0.35884 0.57819 0.0
H1652 H 0.48822 0.34516 0.59143 0.0
C1653 C 0.33167 0.39636 0.57726 0.0
C1654 C 0.38832 0.41555 0.58218 0.0
H1655 H 0.28397 0.34471 0.57565 0.0
H1656 H 0.2864 0.41059 0.57413 0.0
C1657 C 0.44588 0.39677 0.58648 0.0
C1658 C 0.83557 0.86158 0.5766 0.0
C1659 C 0.88844 0.84187 0.58283 0.0
H1660 H 0.79646 0.91421 0.57217 0.0
C1661 C 0.94854 0.85956 0.5865 0.0
H1662 H 0.78882 0.84847 0.57374 0.0
C1663 C 0.95282 0.89705 0.58575 0.0
C1664 C 0.89735 0.91705 0.58103 0.0
H1665 H 0.9904 0.8446 0.5911 0.0
H1666 H -0.00331 0.91037 0.59027 0.0
C1667 C 0.84019 0.89904 0.57563 0.0
C1668 C 0.43159 0.89188 0.70968 0.0
C1669 C 0.37061 0.91075 0.70918 0.0
H1670 H 0.47973 0.84053 0.70815 0.0
C1671 C 0.31044 0.89168 0.71012 0.0
H1672 H 0.47865 0.90625 0.70882 0.0
C1673 C 0.3113 0.85409 0.71036 0.0
C1674 C 0.37212 0.8352 0.70924 0.0
H1675 H 0.26291 0.9055 0.70932 0.0
H1676 H 0.26412 0.83971 0.71001 0.0
C1677 C 0.43242 0.85429 0.70949 0.0
C1678 C 0.93842 0.39552 0.70281 0.0
C1679 C 0.87594 0.41144 0.70571 0.0
H1680 H 0.99209 0.3462 0.69944 0.0
C1681 C 0.82245 0.38998 0.71049 0.0
H1682 H 0.98048 0.41187 0.69923 0.0
C1683 C 0.82965 0.35262 0.71092 0.0
C1684 C 0.89027 0.33652 0.70657 0.0
H1685 H 0.77394 0.40181 0.71271 0.0
H1686 H 0.78623 0.33611 0.71338 0.0
C1687 C 0.94549 0.35815 0.70313 0.0
C1688 C 0.53713 0.63777 0.45631 0.0
C1689 C 0.59751 0.65598 0.45922 0.0
H1690 H 0.48928 0.5865 0.45353 0.0
C1691 C 0.65214 0.63684 0.46498 0.0
H1692 H 0.49403 0.65229 0.45206 0.0
C1693 C 0.64857 0.59941 0.46627 0.0
C1694 C 0.59064 0.58086 0.46169 0.0
H1695 H 0.69916 0.65034 0.46722 0.0
H1696 H 0.69329 0.58465 0.46936 0.0
C1697 C 0.53382 0.6003 0.45742 0.0
C1698 C 0.04598 0.14221 0.45414 0.0
C1699 C 0.10497 0.16057 0.45815 0.0
H1700 H 0.00064 0.09101 0.44967 0.0
C1701 C 0.15886 0.14123 0.46414 0.0
H1702 H 0.00332 0.15684 0.44974 0.0
C1703 C 0.15626 0.10366 0.4646 0.0
C1704 C 0.10009 0.08518 0.45897 0.0
H1705 H 0.20477 0.15487 0.46725 0.0
H1706 H 0.20063 0.08893 0.46797 0.0
C1707 C 0.04375 0.10464 0.45439 0.0
C1708 C 0.65638 0.10818 0.32843 0.0
C1709 C 0.60477 0.08788 0.33489 0.0
H1710 H 0.69425 0.16124 0.32426 0.0
C1711 C 0.54519 0.10509 0.33926 0.0
H1712 H 0.70263 0.09541 0.325 0.0
C1713 C 0.54046 0.14259 0.33895 0.0
C1714 C 0.5949 0.16309 0.33398 0.0
H1715 H 0.5042 0.08968 0.34401 0.0
H1716 H 0.49721 0.15545 0.34395 0.0
C1717 C 0.65131 0.14568 0.32794 0.0
C1718 C 0.03838 0.6113 0.33593 0.0
C1719 C 0.09853 0.59244 0.33367 0.0
H1720 H 0.99213 0.66305 0.33835 0.0
C1721 C 0.15542 0.61111 0.32882 0.0
H1722 H 0.99367 0.59719 0.33954 0.0
C1723 C 0.15379 0.6486 0.32768 0.0
C1724 C 0.09557 0.66772 0.33152 0.0
H1725 H 0.20237 0.59714 0.32716 0.0
H1726 H 0.19983 0.6629 0.32522 0.0
C1727 C 0.03699 0.64884 0.33499 0.0
C1728 C 0.44229 0.1376 0.13375 0.0
C1729 C 0.43428 0.10007 0.13431 0.0
H1730 H 0.44184 0.18696 0.14636 0.0
C1731 C 0.43554 0.08301 0.14861 0.0
H1732 H 0.44059 0.15163 0.12299 0.0
C1733 C 0.43723 0.1032 0.16206 0.0
C1734 C 0.43657 0.14097 0.16148 0.0
H1735 H 0.42907 0.05408 0.14943 0.0
H1736 H 0.43132 0.08937 0.17278 0.0
C1737 C 0.44286 0.15783 0.1472 0.0
C1738 C 0.79324 0.11463 0.13148 0.0
C1739 C 0.80236 0.15185 0.13324 0.0
H1740 H 0.79154 0.06307 0.14246 0.0
C1741 C 0.8004 0.16614 0.14806 0.0
H1742 H 0.79509 0.10264 0.12032 0.0
C1743 C 0.79799 0.14347 0.16083 0.0
C1744 C 0.79805 0.10595 0.15905 0.0
H1745 H 0.80723 0.19479 0.14984 0.0
H1746 H 0.80386 0.15521 0.17197 0.0
C1747 C 0.79141 0.09195 0.14425 0.0
C1748 C 0.5673 0.82107 0.89953 0.0
C1749 C 0.56278 0.83787 0.8852 0.0
H1750 H 0.57189 0.82796 0.92368 0.0
C1751 C 0.54514 0.87444 0.88467 0.0
H1752 H 0.58083 0.79287 0.90036 0.0
C1753 C 0.54041 0.89456 0.89811 0.0
C1754 C 0.5519 0.87849 0.91238 0.0
H1755 H 0.54186 0.88832 0.8739 0.0
H1756 H 0.53398 0.92348 0.89725 0.0
C1757 C 0.56144 0.84108 0.91297 0.0
C1758 C 0.1701 0.92712 0.90005 0.0
C1759 C 0.18051 0.91177 0.8856 0.0
H1760 H 0.16015 0.91794 0.92398 0.0
C1761 C 0.20439 0.87626 0.88491 0.0
H1762 H 0.15205 0.95453 0.90103 0.0
C1763 C 0.2092 0.85535 0.89817 0.0
C1764 C 0.19117 0.86954 0.91243 0.0
H1765 H 0.21263 0.86348 0.87406 0.0
H1766 H 0.22032 0.8269 0.89707 0.0
C1767 C 0.17568 0.90631 0.91331 0.0
C1768 C 0.43709 0.6401 0.63267 0.0
C1769 C 0.42989 0.60253 0.63333 0.0
H1770 H 0.43445 0.68973 0.64507 0.0
C1771 C 0.43029 0.58583 0.64773 0.0
H1772 H 0.43606 0.65388 0.62185 0.0
C1773 C 0.43016 0.60635 0.6611 0.0
C1774 C 0.42867 0.64409 0.66037 0.0
H1775 H 0.42453 0.55687 0.64865 0.0
H1776 H 0.42359 0.59273 0.67186 0.0
C1777 C 0.43597 0.66063 0.64604 0.0
C1778 C 0.79137 0.66691 0.64815 0.0
C1779 C 0.79414 0.65229 0.63338 0.0
H1780 H 0.79416 0.65649 0.67209 0.0
C1781 C 0.78456 0.61508 0.63173 0.0
H1782 H 0.79847 0.69558 0.64983 0.0
C1783 C 0.7819 0.59269 0.64459 0.0
C1784 C 0.78834 0.60699 0.65935 0.0
H1785 H 0.78698 0.60283 0.62063 0.0
H1786 H 0.78219 0.56377 0.64292 0.0
C1787 C 0.7883 0.64454 0.66099 0.0
C1788 C 0.54003 0.38652 0.38496 0.0
C1789 C 0.54855 0.34902 0.3855 0.0
H1790 H 0.53995 0.43591 0.39755 0.0
C1791 C 0.54808 0.33202 0.39983 0.0
H1792 H 0.54113 0.40053 0.37419 0.0
C1793 C 0.54638 0.35224 0.41328 0.0
C1794 C 0.54623 0.39001 0.4127 0.0
H1795 H 0.55494 0.30312 0.40066 0.0
H1796 H 0.55273 0.33847 0.42401 0.0
C1797 C 0.53948 0.40678 0.3984 0.0
C1798 C 0.18794 0.34218 0.3959 0.0
C1799 C 0.18138 0.35644 0.41066 0.0
H1800 H 0.18502 0.35251 0.37194 0.0
C1801 C 0.18239 0.39399 0.41234 0.0
H1802 H 0.187 0.31327 0.3942 0.0
C1803 C 0.18088 0.41648 0.39951 0.0
C1804 C 0.17887 0.40198 0.38471 0.0
H1805 H 0.17654 0.40592 0.42344 0.0
H1806 H 0.1747 0.44519 0.40119 0.0
C1807 C 0.18702 0.36467 0.38307 0.0
C1808 C 0.94973 0.08661 0.64617 0.0
C1809 C 0.94833 0.10342 0.6318 0.0
H1810 H 0.9462 0.09344 0.67032 0.0
C1811 C 0.95738 0.14087 0.63112 0.0
H1812 H 0.9426 0.05775 0.64709 0.0
C1813 C 0.95895 0.16133 0.64451 0.0
C1814 C 0.95261 0.14479 0.65886 0.0
H1815 H 0.95568 0.15474 0.62033 0.0
H1816 H 0.95846 0.19045 0.64358 0.0
C1817 C 0.95233 0.10704 0.65955 0.0
C1818 C 0.30533 0.16194 0.64837 0.0
C1819 C 0.3116 0.1471 0.6337 0.0
H1820 H 0.30852 0.15251 0.6724 0.0
C1821 C 0.31069 0.10949 0.63228 0.0
H1822 H 0.3062 0.19091 0.64987 0.0
C1823 C 0.3125 0.0875 0.64526 0.0
C1824 C 0.3146 0.10257 0.65995 0.0
H1825 H 0.31633 0.09713 0.62126 0.0
H1826 H 0.31865 0.05872 0.64377 0.0
C1827 C 0.30647 0.13993 0.66135 0.0
C1828 C 0.04412 0.84202 0.39467 0.0
C1829 C 0.05135 0.85866 0.38036 0.0
H1830 H 0.04579 0.84844 0.41886 0.0
C1831 C 0.05217 0.89641 0.37972 0.0
H1832 H 0.04403 0.81289 0.39556 0.0
C1833 C 0.0542 0.91673 0.39313 0.0
C1834 C 0.05438 0.89982 0.40748 0.0
H1835 H 0.05886 0.91006 0.36898 0.0
H1836 H 0.06162 0.94559 0.39227 0.0
C1837 C 0.04501 0.86238 0.40808 0.0
C1838 C 0.69679 0.90588 0.39697 0.0
C1839 C 0.68973 0.89198 0.38216 0.0
H1840 H 0.6939 0.89501 0.42088 0.0
C1841 C 0.69044 0.85448 0.38031 0.0
H1842 H 0.69619 0.93475 0.39879 0.0
C1843 C 0.68884 0.8317 0.39305 0.0
C1844 C 0.68695 0.84586 0.4079 0.0
H1845 H 0.68427 0.84282 0.36917 0.0
H1846 H 0.68232 0.80304 0.39124 0.0
C1847 C 0.69569 0.88309 0.40971 0.0
C1848 C 0.94355 0.61206 0.15988 0.0
C1849 C 0.9352 0.64956 0.15925 0.0
H1850 H 0.94351 0.56251 0.14739 0.0
C1851 C 0.93593 0.66639 0.14488 0.0
H1852 H 0.94228 0.59817 0.17067 0.0
C1853 C 0.9376 0.646 0.13148 0.0
C1854 C 0.9375 0.60823 0.13214 0.0
H1855 H 0.92926 0.69528 0.14399 0.0
H1856 H 0.93142 0.65965 0.12072 0.0
C1857 C 0.94411 0.59163 0.14648 0.0
C1858 C 0.30246 0.58152 0.14492 0.0
C1859 C 0.30371 0.59602 0.15972 0.0
H1860 H 0.30625 0.59219 0.12099 0.0
C1861 C 0.29291 0.63313 0.16138 0.0
H1862 H 0.31055 0.55295 0.14322 0.0
C1863 C 0.29035 0.65561 0.14855 0.0
C1864 C 0.29803 0.64152 0.13379 0.0
H1865 H 0.29415 0.64529 0.17251 0.0
H1866 H 0.28949 0.68451 0.15026 0.0
C1867 C 0.29942 0.60398 0.13209 0.0
C1868 C 0.01735 0.35894 0.89424 0.0
C1869 C 0.04168 0.37039 0.87999 0.0
H1870 H 0.01233 0.36918 0.91817 0.0
C1871 C 0.06547 0.40581 0.8787 0.0
H1872 H -0.00094 0.33164 0.89566 0.0
C1873 C 0.07378 0.42718 0.89168 0.0
C1874 C 0.05808 0.41376 0.90625 0.0
H1875 H 0.08543 0.41542 0.86803 0.0
H1876 H 0.0981 0.45312 0.89042 0.0
C1877 C 0.02541 0.38037 0.90723 0.0
C1878 C 0.72118 0.38927 0.89561 0.0
C1879 C 0.7023 0.37859 0.88083 0.0
H1880 H 0.7188 0.37716 0.91943 0.0
C1881 C 0.68182 0.34282 0.8787 0.0
H1882 H 0.73717 0.41673 0.89767 0.0
C1883 C 0.67103 0.3202 0.89123 0.0
C1884 C 0.68065 0.33271 0.9062 0.0
H1885 H 0.6663 0.33367 0.8676 0.0
H1886 H 0.64923 0.2939 0.88924 0.0
C1887 C 0.71036 0.36663 0.90816 0.0
loop_
_geom_bond_atom_site_label_1
_geom_bond_atom_site_label_2
_geom_bond_distance
_geom_bond_site_symmetry_2
_ccdc_geom_bond_type
Co0 O3 1.970 . S
Co0 N17 1.989 1_545 S
Co0 O25 1.967 . S
Co0 O32 1.920 . S
Co1 O4 1.966 . S
Co1 N10 2.022 . S
Co1 N18 1.962 1_545 S
Co1 O26 1.941 . S
C2 O3 1.258 . S
C2 O4 1.263 . S
O3 Co0 1.970 . S
O3 C2 1.258 . S
O4 Co1 1.966 . S
O4 C2 1.263 . S
C5 O6 1.235 1_545 S
C5 O32 1.289 . S
O6 C5 1.235 1_565 S
C7 C9 1.400 . S
C7 N10 1.351 . S
C7 C12 1.501 . S
C8 C9 1.387 . S
C8 N11 1.341 . S
C9 C7 1.400 . S
C9 C8 1.387 . S
N10 Co1 2.022 . S
N10 C7 1.351 . S
N10 N11 1.365 . S
N11 C8 1.341 . S
N11 N10 1.365 . S
N11 H31 0.862 . S
C12 C7 1.501 . S
C12 H13 0.961 . S
C12 H14 0.961 . S
C12 H15 0.960 . S
H13 C12 0.961 . S
H14 C12 0.961 . S
H15 C12 0.960 . S
C16 N17 1.342 . S
C16 C20 1.401 . S
C16 C21 1.499 . S
N17 Co0 1.989 1_565 S
N17 C16 1.342 . S
N17 N18 1.394 . S
N18 Co1 1.962 1_565 S
N18 N17 1.394 . S
N18 C19 1.375 . S
C19 N18 1.375 . S
C19 C20 1.396 . S
C19 C29 1.510 . S
C20 C16 1.401 . S
C20 C19 1.396 . S
C21 C16 1.499 . S
C21 H22 0.959 . S
C21 H23 0.960 . S
C21 H24 0.961 . S
H22 C21 0.959 . S
H23 C21 0.960 . S
H24 C21 0.961 . S
O25 Co0 1.967 . S
O25 C33 1.258 . S
O26 Co1 1.941 . S
O26 C33 1.266 . S
H27 C29 0.959 . S
H28 C29 0.961 . S
C29 C19 1.510 . S
C29 H27 0.959 . S
C29 H28 0.961 . S
C29 H30 0.960 . S
H30 C29 0.960 . S
H31 N11 0.862 . S
O32 Co0 1.920 . S
O32 C5 1.289 . S
C33 O25 1.258 . S
C33 O26 1.266 . S
Co34 O37 1.970 1_655 S
Co34 N51 1.989 . S
Co34 O59 1.967 . S
Co34 O66 1.919 1_655 S
Co35 O38 1.966 . S
Co35 N44 2.022 . S
Co35 N52 1.993 . S
Co35 O60 1.941 . S
C36 O37 1.258 1_655 S
C36 O38 1.263 . S
O37 Co34 1.970 1_455 S
O37 C36 1.258 1_455 S
O38 Co35 1.966 . S
O38 C36 1.263 . S
C39 O40 1.235 . S
C39 O66 1.292 . S
O40 C39 1.235 . S
C41 C43 1.400 . S
C41 N44 1.351 . S
C41 C46 1.501 . S
C42 C43 1.387 . S
C42 N45 1.341 . S
C43 C41 1.400 . S
C43 C42 1.387 . S
N44 Co35 2.022 . S
N44 C41 1.351 . S
N44 N45 1.365 . S
N45 C42 1.341 . S
N45 N44 1.365 . S
N45 H65 0.862 . S
C46 C41 1.501 . S
C46 H47 0.961 . S
C46 H48 0.961 . S
C46 H49 0.960 . S
H47 C46 0.961 . S
H48 C46 0.961 . S
H49 C46 0.960 . S
C50 N51 1.342 . S
C50 C54 1.401 . S
C50 C55 1.499 . S
N51 Co34 1.989 . S
N51 C50 1.342 . S
N51 N52 1.388 . S
N52 Co35 1.993 . S
N52 N51 1.388 . S
N52 C53 1.346 . S
C53 N52 1.346 . S
C53 C54 1.396 . S
C53 C63 1.510 . S
C54 C50 1.401 . S
C54 C53 1.396 . S
C55 C50 1.499 . S
C55 H56 0.959 . S
C55 H57 0.960 . S
C55 H58 0.961 . S
H56 C55 0.959 . S
H57 C55 0.960 . S
H58 C55 0.961 . S
O59 Co34 1.967 . S
O59 C67 1.258 . S
O60 Co35 1.941 . S
O60 C67 1.266 . S
H61 C63 0.959 . S
H62 C63 0.961 . S
C63 C53 1.510 . S
C63 H61 0.959 . S
C63 H62 0.961 . S
C63 H64 0.960 . S
H64 C63 0.960 . S
H65 N45 0.862 . S
O66 Co34 1.919 1_455 S
O66 C39 1.292 . S
C67 O59 1.258 . S
C67 O60 1.266 . S
Co68 O71 1.970 . S
Co68 N85 1.989 . S
Co68 O93 1.967 . S
Co68 O100 1.920 . S
Co69 O72 1.966 . S
Co69 N78 2.022 . S
Co69 N86 1.993 . S
Co69 O94 1.941 . S
C70 O71 1.258 . S
C70 O72 1.263 . S
O71 Co68 1.970 . S
O71 C70 1.258 . S
O72 Co69 1.966 . S
O72 C70 1.263 . S
C73 O74 1.235 . S
C73 O100 1.289 . S
O74 C73 1.235 . S
C75 C77 1.400 . S
C75 N78 1.351 . S
C75 C80 1.501 . S
C76 C77 1.387 . S
C76 N79 1.341 . S
C77 C75 1.400 . S
C77 C76 1.387 . S
N78 Co69 2.022 . S
N78 C75 1.351 . S
N78 N79 1.365 . S
N79 C76 1.341 . S
N79 N78 1.365 . S
N79 H99 0.862 . S
C80 C75 1.501 . S
C80 H81 0.961 . S
C80 H82 0.961 . S
C80 H83 0.960 . S
H81 C80 0.961 . S
H82 C80 0.961 . S
H83 C80 0.960 . S
C84 N85 1.342 . S
C84 C88 1.401 . S
C84 C89 1.499 . S
N85 Co68 1.989 . S
N85 C84 1.342 . S
N85 N86 1.388 . S
N86 Co69 1.993 . S
N86 N85 1.388 . S
N86 C87 1.346 . S
C87 N86 1.346 . S
C87 C88 1.396 . S
C87 C97 1.510 . S
C88 C84 1.401 . S
C88 C87 1.396 . S
C89 C84 1.499 . S
C89 H90 0.959 . S
C89 H91 0.960 . S
C89 H92 0.961 . S
H90 C89 0.959 . S
H91 C89 0.960 . S
H92 C89 0.961 . S
O93 Co68 1.967 . S
O93 C101 1.258 . S
O94 Co69 1.941 . S
O94 C101 1.266 . S
H95 C97 0.959 . S
H96 C97 0.961 . S
C97 C87 1.510 . S
C97 H95 0.959 . S
C97 H96 0.961 . S
C97 H98 0.960 . S
H98 C97 0.960 . S
H99 N79 0.862 . S
O100 Co68 1.920 . S
O100 C73 1.289 . S
C101 O93 1.258 . S
C101 O94 1.266 . S
Co102 O105 1.970 1_655 S
Co102 N119 1.989 1_545 S
Co102 O127 1.967 . S
Co102 O134 1.918 1_655 S
Co103 O106 1.966 . S
Co103 N112 2.022 . S
Co103 N120 1.962 1_545 S
Co103 O128 1.941 . S
C104 O105 1.258 1_655 S
C104 O106 1.263 . S
O105 Co102 1.970 1_455 S
O105 C104 1.258 1_455 S
O106 Co103 1.966 . S
O106 C104 1.263 . S
C107 O108 1.235 1_545 S
C107 O134 1.292 . S
O108 C107 1.235 1_565 S
C109 C111 1.400 . S
C109 N112 1.351 . S
C109 C114 1.501 . S
C110 C111 1.387 . S
C110 N113 1.341 . S
C111 C109 1.400 . S
C111 C110 1.387 . S
N112 Co103 2.022 . S
N112 C109 1.351 . S
N112 N113 1.365 . S
N113 C110 1.341 . S
N113 N112 1.365 . S
N113 H133 0.862 . S
C114 C109 1.501 . S
C114 H115 0.961 . S
C114 H116 0.961 . S
C114 H117 0.960 . S
H115 C114 0.961 . S
H116 C114 0.961 . S
H117 C114 0.960 . S
C118 N119 1.342 . S
C118 C122 1.401 . S
C118 C123 1.499 . S
N119 Co102 1.989 1_565 S
N119 C118 1.342 . S
N119 N120 1.394 . S
N120 Co103 1.962 1_565 S
N120 N119 1.394 . S
N120 C121 1.374 . S
C121 N120 1.374 . S
C121 C122 1.396 . S
C121 C131 1.510 . S
C122 C118 1.401 . S
C122 C121 1.396 . S
C123 C118 1.499 . S
C123 H124 0.959 . S
C123 H125 0.960 . S
C123 H126 0.961 . S
H124 C123 0.959 . S
H125 C123 0.960 . S
H126 C123 0.961 . S
O127 Co102 1.967 . S
O127 C135 1.258 . S
O128 Co103 1.941 . S
O128 C135 1.266 . S
H129 C131 0.959 . S
H130 C131 0.961 . S
C131 C121 1.510 . S
C131 H129 0.959 . S
C131 H130 0.961 . S
C131 H132 0.960 . S
H132 C131 0.960 . S
H133 N113 0.862 . S
O134 Co102 1.918 1_455 S
O134 C107 1.292 . S
C135 O127 1.258 . S
C135 O128 1.266 . S
Co136 O139 1.970 . S
Co136 N153 1.989 1_565 S
Co136 O161 1.967 . S
Co136 O168 1.920 . S
Co137 O140 1.966 . S
Co137 N146 2.022 . S
Co137 N154 1.962 1_565 S
Co137 O162 1.941 . S
C138 O139 1.258 . S
C138 O140 1.263 . S
O139 Co136 1.970 . S
O139 C138 1.258 . S
O140 Co137 1.966 . S
O140 C138 1.263 . S
C141 O142 1.235 1_565 S
C141 O168 1.289 . S
O142 C141 1.235 1_545 S
C143 C145 1.400 . S
C143 N146 1.351 . S
C143 C148 1.501 . S
C144 C145 1.387 . S
C144 N147 1.341 . S
C145 C143 1.400 . S
C145 C144 1.387 . S
N146 Co137 2.022 . S
N146 C143 1.351 . S
N146 N147 1.365 . S
N147 C144 1.341 . S
N147 N146 1.365 . S
N147 H167 0.862 . S
C148 C143 1.501 . S
C148 H149 0.961 . S
C148 H150 0.961 . S
C148 H151 0.960 . S
H149 C148 0.961 . S
H150 C148 0.961 . S
H151 C148 0.960 . S
C152 N153 1.342 . S
C152 C156 1.401 . S
C152 C157 1.499 . S
N153 Co136 1.989 1_545 S
N153 C152 1.342 . S
N153 N154 1.394 . S
N154 Co137 1.962 1_545 S
N154 N153 1.394 . S
N154 C155 1.375 . S
C155 N154 1.375 . S
C155 C156 1.396 . S
C155 C165 1.510 . S
C156 C152 1.401 . S
C156 C155 1.396 . S
C157 C152 1.499 . S
C157 H158 0.959 . S
C157 H159 0.960 . S
C157 H160 0.961 . S
H158 C157 0.959 . S
H159 C157 0.960 . S
H160 C157 0.961 . S
O161 Co136 1.967 . S
O161 C169 1.258 . S
O162 Co137 1.941 . S
O162 C169 1.266 . S
H163 C165 0.959 . S
H164 C165 0.961 . S
C165 C155 1.510 . S
C165 H163 0.959 . S
C165 H164 0.961 . S
C165 H166 0.960 . S
H166 C165 0.960 . S
H167 N147 0.862 . S
O168 Co136 1.920 . S
O168 C141 1.289 . S
C169 O161 1.258 . S
C169 O162 1.266 . S
Co170 O173 1.970 1_455 S
Co170 N187 1.989 . S
Co170 O195 1.967 . S
Co170 O202 1.919 1_455 S
Co171 O174 1.966 . S
Co171 N180 2.022 . S
Co171 N188 1.993 . S
Co171 O196 1.941 . S
C172 O173 1.258 1_455 S
C172 O174 1.263 . S
O173 Co170 1.970 1_655 S
O173 C172 1.258 1_655 S
O174 Co171 1.966 . S
O174 C172 1.263 . S
C175 O176 1.235 . S
C175 O202 1.292 . S
O176 C175 1.235 . S
C177 C179 1.400 . S
C177 N180 1.351 . S
C177 C182 1.501 . S
C178 C179 1.387 . S
C178 N181 1.341 . S
C179 C177 1.400 . S
C179 C178 1.387 . S
N180 Co171 2.022 . S
N180 C177 1.351 . S
N180 N181 1.365 . S
N181 C178 1.341 . S
N181 N180 1.365 . S
N181 H201 0.862 . S
C182 C177 1.501 . S
C182 H183 0.961 . S
C182 H184 0.961 . S
C182 H185 0.960 . S
H183 C182 0.961 . S
H184 C182 0.961 . S
H185 C182 0.960 . S
C186 N187 1.342 . S
C186 C190 1.401 . S
C186 C191 1.499 . S
N187 Co170 1.989 . S
N187 C186 1.342 . S
N187 N188 1.388 . S
N188 Co171 1.993 . S
N188 N187 1.388 . S
N188 C189 1.346 . S
C189 N188 1.346 . S
C189 C190 1.396 . S
C189 C199 1.510 . S
C190 C186 1.401 . S
C190 C189 1.396 . S
C191 C186 1.499 . S
C191 H192 0.959 . S
C191 H193 0.960 . S
C191 H194 0.961 . S
H192 C191 0.959 . S
H193 C191 0.960 . S
H194 C191 0.961 . S
O195 Co170 1.967 . S
O195 C203 1.258 . S
O196 Co171 1.941 . S
O196 C203 1.266 . S
H197 C199 0.959 . S
H198 C199 0.961 . S
C199 C189 1.510 . S
C199 H197 0.959 . S
C199 H198 0.961 . S
C199 H200 0.960 . S
H200 C199 0.960 . S
H201 N181 0.862 . S
O202 Co170 1.919 1_655 S
O202 C175 1.292 . S
C203 O195 1.258 . S
C203 O196 1.266 . S
Co204 O207 1.970 . S
Co204 N221 1.989 . S
Co204 O229 1.967 . S
Co204 O236 1.920 . S
Co205 O208 1.966 . S
Co205 N214 2.022 . S
Co205 N222 1.993 . S
Co205 O230 1.941 . S
C206 O207 1.258 . S
C206 O208 1.263 . S
O207 Co204 1.970 . S
O207 C206 1.258 . S
O208 Co205 1.966 . S
O208 C206 1.263 . S
C209 O210 1.235 . S
C209 O236 1.289 . S
O210 C209 1.235 . S
C211 C213 1.400 . S
C211 N214 1.351 . S
C211 C216 1.501 . S
C212 C213 1.387 . S
C212 N215 1.341 . S
C213 C211 1.400 . S
C213 C212 1.387 . S
N214 Co205 2.022 . S
N214 C211 1.351 . S
N214 N215 1.365 . S
N215 C212 1.341 . S
N215 N214 1.365 . S
N215 H235 0.862 . S
C216 C211 1.501 . S
C216 H217 0.961 . S
C216 H218 0.961 . S
C216 H219 0.960 . S
H217 C216 0.961 . S
H218 C216 0.961 . S
H219 C216 0.960 . S
C220 N221 1.342 . S
C220 C224 1.401 . S
C220 C225 1.499 . S
N221 Co204 1.989 . S
N221 C220 1.342 . S
N221 N222 1.388 . S
N222 Co205 1.993 . S
N222 N221 1.388 . S
N222 C223 1.346 . S
C223 N222 1.346 . S
C223 C224 1.396 . S
C223 C233 1.510 . S
C224 C220 1.401 . S
C224 C223 1.396 . S
C225 C220 1.499 . S
C225 H226 0.959 . S
C225 H227 0.960 . S
C225 H228 0.961 . S
H226 C225 0.959 . S
H227 C225 0.960 . S
H228 C225 0.961 . S
O229 Co204 1.967 . S
O229 C237 1.258 . S
O230 Co205 1.941 . S
O230 C237 1.266 . S
H231 C233 0.959 . S
H232 C233 0.961 . S
C233 C223 1.510 . S
C233 H231 0.959 . S
C233 H232 0.961 . S
C233 H234 0.960 . S
H234 C233 0.960 . S
H235 N215 0.862 . S
O236 Co204 1.920 . S
O236 C209 1.289 . S
C237 O229 1.258 . S
C237 O230 1.266 . S
Co238 O241 1.970 1_455 S
Co238 N255 1.989 1_565 S
Co238 O263 1.967 . S
Co238 O270 1.918 1_455 S
Co239 O242 1.966 . S
Co239 N248 2.022 . S
Co239 N256 1.962 1_565 S
Co239 O264 1.941 . S
C240 O241 1.258 1_455 S
C240 O242 1.263 . S
O241 Co238 1.970 1_655 S
O241 C240 1.258 1_655 S
O242 Co239 1.966 . S
O242 C240 1.263 . S
C243 O244 1.235 1_565 S
C243 O270 1.292 . S
O244 C243 1.235 1_545 S
C245 C247 1.400 . S
C245 N248 1.351 . S
C245 C250 1.501 . S
C246 C247 1.387 . S
C246 N249 1.341 . S
C247 C245 1.400 . S
C247 C246 1.387 . S
N248 Co239 2.022 . S
N248 C245 1.351 . S
N248 N249 1.365 . S
N249 C246 1.341 . S
N249 N248 1.365 . S
N249 H269 0.862 . S
C250 C245 1.501 . S
C250 H251 0.961 . S
C250 H252 0.961 . S
C250 H253 0.960 . S
H251 C250 0.961 . S
H252 C250 0.961 . S
H253 C250 0.960 . S
C254 N255 1.342 . S
C254 C258 1.401 . S
C254 C259 1.499 . S
N255 Co238 1.989 1_545 S
N255 C254 1.342 . S
N255 N256 1.394 . S
N256 Co239 1.962 1_545 S
N256 N255 1.394 . S
N256 C257 1.374 . S
C257 N256 1.374 . S
C257 C258 1.396 . S
C257 C267 1.510 . S
C258 C254 1.401 . S
C258 C257 1.396 . S
C259 C254 1.499 . S
C259 H260 0.959 . S
C259 H261 0.960 . S
C259 H262 0.961 . S
H260 C259 0.959 . S
H261 C259 0.960 . S
H262 C259 0.961 . S
O263 Co238 1.967 . S
O263 C271 1.258 . S
O264 Co239 1.941 . S
O264 C271 1.266 . S
H265 C267 0.959 . S
H266 C267 0.961 . S
C267 C257 1.510 . S
C267 H265 0.959 . S
C267 H266 0.961 . S
C267 H268 0.960 . S
H268 C267 0.960 . S
H269 N249 0.862 . S
O270 Co238 1.918 1_655 S
O270 C243 1.292 . S
C271 O263 1.258 . S
C271 O264 1.266 . S
Co272 O275 1.970 . S
Co272 N289 1.989 . S
Co272 O297 1.967 . S
Co272 O304 1.920 . S
Co273 O276 1.966 . S
Co273 N282 2.022 . S
Co273 N290 1.993 . S
Co273 O298 1.941 . S
C274 O275 1.258 . S
C274 O276 1.263 . S
O275 Co272 1.970 . S
O275 C274 1.258 . S
O276 Co273 1.966 . S
O276 C274 1.263 . S
C277 O278 1.235 . S
C277 O304 1.289 . S
O278 C277 1.235 . S
C279 C281 1.400 . S
C279 N282 1.351 . S
C279 C284 1.501 . S
C280 C281 1.387 . S
C280 N283 1.341 . S
C281 C279 1.400 . S
C281 C280 1.387 . S
N282 Co273 2.022 . S
N282 C279 1.351 . S
N282 N283 1.365 . S
N283 C280 1.341 . S
N283 N282 1.365 . S
N283 H303 0.862 . S
C284 C279 1.501 . S
C284 H285 0.961 . S
C284 H286 0.961 . S
C284 H287 0.960 . S
H285 C284 0.961 . S
H286 C284 0.961 . S
H287 C284 0.960 . S
C288 N289 1.342 . S
C288 C292 1.401 . S
C288 C293 1.499 . S
N289 Co272 1.989 . S
N289 C288 1.342 . S
N289 N290 1.388 . S
N290 Co273 1.993 . S
N290 N289 1.388 . S
N290 C291 1.346 . S
C291 N290 1.346 . S
C291 C292 1.396 . S
C291 C301 1.510 . S
C292 C288 1.401 . S
C292 C291 1.396 . S
C293 C288 1.499 . S
C293 H294 0.959 . S
C293 H295 0.960 . S
C293 H296 0.961 . S
H294 C293 0.959 . S
H295 C293 0.960 . S
H296 C293 0.961 . S
O297 Co272 1.967 . S
O297 C305 1.258 . S
O298 Co273 1.941 . S
O298 C305 1.266 . S
H299 C301 0.959 . S
H300 C301 0.961 . S
C301 C291 1.510 . S
C301 H299 0.959 . S
C301 H300 0.961 . S
C301 H302 0.960 . S
H302 C301 0.960 . S
H303 N283 0.862 . S
O304 Co272 1.920 . S
O304 C277 1.289 . S
C305 O297 1.258 . S
C305 O298 1.266 . S
Co306 O309 1.970 1_655 S
Co306 N323 1.989 . S
Co306 O331 1.967 . S
Co306 O338 1.919 1_655 S
Co307 O310 1.966 . S
Co307 N316 2.022 . S
Co307 N324 1.993 . S
Co307 O332 1.941 . S
C308 O309 1.258 1_655 S
C308 O310 1.263 . S
O309 Co306 1.970 1_455 S
O309 C308 1.258 1_455 S
O310 Co307 1.966 . S
O310 C308 1.263 . S
C311 O312 1.235 . S
C311 O338 1.292 . S
O312 C311 1.235 . S
C313 C315 1.400 . S
C313 N316 1.351 . S
C313 C318 1.501 . S
C314 C315 1.387 . S
C314 N317 1.341 . S
C315 C313 1.400 . S
C315 C314 1.387 . S
N316 Co307 2.022 . S
N316 C313 1.351 . S
N316 N317 1.365 . S
N317 C314 1.341 . S
N317 N316 1.365 . S
N317 H337 0.862 . S
C318 C313 1.501 . S
C318 H319 0.961 . S
C318 H320 0.961 . S
C318 H321 0.960 . S
H319 C318 0.961 . S
H320 C318 0.961 . S
H321 C318 0.960 . S
C322 N323 1.342 . S
C322 C326 1.401 . S
C322 C327 1.499 . S
N323 Co306 1.989 . S
N323 C322 1.342 . S
N323 N324 1.388 . S
N324 Co307 1.993 . S
N324 N323 1.388 . S
N324 C325 1.346 . S
C325 N324 1.346 . S
C325 C326 1.396 . S
C325 C335 1.510 . S
C326 C322 1.401 . S
C326 C325 1.396 . S
C327 C322 1.499 . S
C327 H328 0.959 . S
C327 H329 0.960 . S
C327 H330 0.961 . S
H328 C327 0.959 . S
H329 C327 0.960 . S
H330 C327 0.961 . S
O331 Co306 1.967 . S
O331 C339 1.258 . S
O332 Co307 1.941 . S
O332 C339 1.266 . S
H333 C335 0.959 . S
H334 C335 0.961 . S
C335 C325 1.510 . S
C335 H333 0.959 . S
C335 H334 0.961 . S
C335 H336 0.960 . S
H336 C335 0.960 . S
H337 N317 0.862 . S
O338 Co306 1.919 1_455 S
O338 C311 1.292 . S
C339 O331 1.258 . S
C339 O332 1.266 . S
Co340 O343 1.970 . S
Co340 N357 1.989 . S
Co340 O365 1.967 . S
Co340 O372 1.920 . S
Co341 O344 1.966 . S
Co341 N350 2.022 . S
Co341 N358 1.993 . S
Co341 O366 1.941 . S
C342 O343 1.258 . S
C342 O344 1.263 . S
O343 Co340 1.970 . S
O343 C342 1.258 . S
O344 Co341 1.966 . S
O344 C342 1.263 . S
C345 O346 1.235 . S
C345 O372 1.289 . S
O346 C345 1.235 . S
C347 C349 1.400 . S
C347 N350 1.351 . S
C347 C352 1.501 . S
C348 C349 1.387 . S
C348 N351 1.341 . S
C349 C347 1.400 . S
C349 C348 1.387 . S
N350 Co341 2.022 . S
N350 C347 1.351 . S
N350 N351 1.365 . S
N351 C348 1.341 . S
N351 N350 1.365 . S
N351 H371 0.862 . S
C352 C347 1.501 . S
C352 H353 0.961 . S
C352 H354 0.961 . S
C352 H355 0.960 . S
H353 C352 0.961 . S
H354 C352 0.961 . S
H355 C352 0.960 . S
C356 N357 1.342 . S
C356 C360 1.401 . S
C356 C361 1.499 . S
N357 Co340 1.989 . S
N357 C356 1.342 . S
N357 N358 1.388 . S
N358 Co341 1.993 . S
N358 N357 1.388 . S
N358 C359 1.346 . S
C359 N358 1.346 . S
C359 C360 1.396 . S
C359 C369 1.510 . S
C360 C356 1.401 . S
C360 C359 1.396 . S
C361 C356 1.499 . S
C361 H362 0.959 . S
C361 H363 0.960 . S
C361 H364 0.961 . S
H362 C361 0.959 . S
H363 C361 0.960 . S
H364 C361 0.961 . S
O365 Co340 1.967 . S
O365 C373 1.258 . S
O366 Co341 1.941 . S
O366 C373 1.266 . S
H367 C369 0.959 . S
H368 C369 0.961 . S
C369 C359 1.510 . S
C369 H367 0.959 . S
C369 H368 0.961 . S
C369 H370 0.960 . S
H370 C369 0.960 . S
H371 N351 0.862 . S
O372 Co340 1.920 . S
O372 C345 1.289 . S
C373 O365 1.258 . S
C373 O366 1.266 . S
Co374 O377 1.970 1_655 S
Co374 N391 1.989 . S
Co374 O399 1.967 . S
Co374 O406 1.918 1_655 S
Co375 O378 1.966 . S
Co375 N384 2.022 . S
Co375 N392 1.993 . S
Co375 O400 1.941 . S
C376 O377 1.258 1_655 S
C376 O378 1.263 . S
O377 Co374 1.970 1_455 S
O377 C376 1.258 1_455 S
O378 Co375 1.966 . S
O378 C376 1.263 . S
C379 O380 1.235 . S
C379 O406 1.292 . S
O380 C379 1.235 . S
C381 C383 1.400 . S
C381 N384 1.351 . S
C381 C386 1.501 . S
C382 C383 1.387 . S
C382 N385 1.341 . S
C383 C381 1.400 . S
C383 C382 1.387 . S
N384 Co375 2.022 . S
N384 C381 1.351 . S
N384 N385 1.365 . S
N385 C382 1.341 . S
N385 N384 1.365 . S
N385 H405 0.862 . S
C386 C381 1.501 . S
C386 H387 0.961 . S
C386 H388 0.961 . S
C386 H389 0.960 . S
H387 C386 0.961 . S
H388 C386 0.961 . S
H389 C386 0.960 . S
C390 N391 1.342 . S
C390 C394 1.401 . S
C390 C395 1.499 . S
N391 Co374 1.989 . S
N391 C390 1.342 . S
N391 N392 1.388 . S
N392 Co375 1.993 . S
N392 N391 1.388 . S
N392 C393 1.346 . S
C393 N392 1.346 . S
C393 C394 1.396 . S
C393 C403 1.510 . S
C394 C390 1.401 . S
C394 C393 1.396 . S
C395 C390 1.499 . S
C395 H396 0.959 . S
C395 H397 0.960 . S
C395 H398 0.961 . S
H396 C395 0.959 . S
H397 C395 0.960 . S
H398 C395 0.961 . S
O399 Co374 1.967 . S
O399 C407 1.258 . S
O400 Co375 1.941 . S
O400 C407 1.266 . S
H401 C403 0.959 . S
H402 C403 0.961 . S
C403 C393 1.510 . S
C403 H401 0.959 . S
C403 H402 0.961 . S
C403 H404 0.960 . S
H404 C403 0.960 . S
H405 N385 0.862 . S
O406 Co374 1.918 1_455 S
O406 C379 1.292 . S
C407 O399 1.258 . S
C407 O400 1.266 . S
Co408 O411 1.970 . S
Co408 N425 1.989 . S
Co408 O433 1.967 . S
Co408 O440 1.920 . S
Co409 O412 1.966 . S
Co409 N418 2.022 . S
Co409 N426 1.993 . S
Co409 O434 1.941 . S
C410 O411 1.258 . S
C410 O412 1.263 . S
O411 Co408 1.970 . S
O411 C410 1.258 . S
O412 Co409 1.966 . S
O412 C410 1.263 . S
C413 O414 1.235 . S
C413 O440 1.289 . S
O414 C413 1.235 . S
C415 C417 1.400 . S
C415 N418 1.351 . S
C415 C420 1.501 . S
C416 C417 1.387 . S
C416 N419 1.341 . S
C417 C415 1.400 . S
C417 C416 1.387 . S
N418 Co409 2.022 . S
N418 C415 1.351 . S
N418 N419 1.365 . S
N419 C416 1.341 . S
N419 N418 1.365 . S
N419 H439 0.862 . S
C420 C415 1.501 . S
C420 H421 0.961 . S
C420 H422 0.961 . S
C420 H423 0.960 . S
H421 C420 0.961 . S
H422 C420 0.961 . S
H423 C420 0.960 . S
C424 N425 1.342 . S
C424 C428 1.401 . S
C424 C429 1.499 . S
N425 Co408 1.989 . S
N425 C424 1.342 . S
N425 N426 1.388 . S
N426 Co409 1.993 . S
N426 N425 1.388 . S
N426 C427 1.346 . S
C427 N426 1.346 . S
C427 C428 1.396 . S
C427 C437 1.510 . S
C428 C424 1.401 . S
C428 C427 1.396 . S
C429 C424 1.499 . S
C429 H430 0.959 . S
C429 H431 0.960 . S
C429 H432 0.961 . S
H430 C429 0.959 . S
H431 C429 0.960 . S
H432 C429 0.961 . S
O433 Co408 1.967 . S
O433 C441 1.258 . S
O434 Co409 1.941 . S
O434 C441 1.266 . S
H435 C437 0.959 . S
H436 C437 0.961 . S
C437 C427 1.510 . S
C437 H435 0.959 . S
C437 H436 0.961 . S
C437 H438 0.960 . S
H438 C437 0.960 . S
H439 N419 0.862 . S
O440 Co408 1.920 . S
O440 C413 1.289 . S
C441 O433 1.258 . S
C441 O434 1.266 . S
Co442 O445 1.970 1_455 S
Co442 N459 1.989 . S
Co442 O467 1.967 . S
Co442 O474 1.919 1_455 S
Co443 O446 1.966 . S
Co443 N452 2.022 . S
Co443 N460 1.993 . S
Co443 O468 1.941 . S
C444 O445 1.258 1_455 S
C444 O446 1.263 . S
O445 Co442 1.970 1_655 S
O445 C444 1.258 1_655 S
O446 Co443 1.966 . S
O446 C444 1.263 . S
C447 O448 1.235 . S
C447 O474 1.292 . S
O448 C447 1.235 . S
C449 C451 1.400 . S
C449 N452 1.351 . S
C449 C454 1.501 . S
C450 C451 1.387 . S
C450 N453 1.341 . S
C451 C449 1.400 . S
C451 C450 1.387 . S
N452 Co443 2.022 . S
N452 C449 1.351 . S
N452 N453 1.365 . S
N453 C450 1.341 . S
N453 N452 1.365 . S
N453 H473 0.862 . S
C454 C449 1.501 . S
C454 H455 0.961 . S
C454 H456 0.961 . S
C454 H457 0.960 . S
H455 C454 0.961 . S
H456 C454 0.961 . S
H457 C454 0.960 . S
C458 N459 1.342 . S
C458 C462 1.401 . S
C458 C463 1.499 . S
N459 Co442 1.989 . S
N459 C458 1.342 . S
N459 N460 1.388 . S
N460 Co443 1.993 . S
N460 N459 1.388 . S
N460 C461 1.346 . S
C461 N460 1.346 . S
C461 C462 1.396 . S
C461 C471 1.510 . S
C462 C458 1.401 . S
C462 C461 1.396 . S
C463 C458 1.499 . S
C463 H464 0.959 . S
C463 H465 0.960 . S
C463 H466 0.961 . S
H464 C463 0.959 . S
H465 C463 0.960 . S
H466 C463 0.961 . S
O467 Co442 1.967 . S
O467 C475 1.258 . S
O468 Co443 1.941 . S
O468 C475 1.266 . S
H469 C471 0.959 . S
H470 C471 0.961 . S
C471 C461 1.510 . S
C471 H469 0.959 . S
C471 H470 0.961 . S
C471 H472 0.960 . S
H472 C471 0.960 . S
H473 N453 0.862 . S
O474 Co442 1.919 1_655 S
O474 C447 1.292 . S
C475 O467 1.258 . S
C475 O468 1.266 . S
Co476 O479 1.970 . S
Co476 N493 1.989 . S
Co476 O501 1.967 . S
Co476 O508 1.920 . S
Co477 O480 1.966 . S
Co477 N486 2.022 . S
Co477 N494 1.993 . S
Co477 O502 1.941 . S
C478 O479 1.258 . S
C478 O480 1.263 . S
O479 Co476 1.970 . S
O479 C478 1.258 . S
O480 Co477 1.966 . S
O480 C478 1.263 . S
C481 O482 1.235 . S
C481 O508 1.289 . S
O482 C481 1.235 . S
C483 C485 1.400 . S
C483 N486 1.351 . S
C483 C488 1.501 . S
C484 C485 1.387 . S
C484 N487 1.341 . S
C485 C483 1.400 . S
C485 C484 1.387 . S
N486 Co477 2.022 . S
N486 C483 1.351 . S
N486 N487 1.365 . S
N487 C484 1.341 . S
N487 N486 1.365 . S
N487 H507 0.862 . S
C488 C483 1.501 . S
C488 H489 0.961 . S
C488 H490 0.961 . S
C488 H491 0.960 . S
H489 C488 0.961 . S
H490 C488 0.961 . S
H491 C488 0.960 . S
C492 N493 1.342 . S
C492 C496 1.401 . S
C492 C497 1.499 . S
N493 Co476 1.989 . S
N493 C492 1.342 . S
N493 N494 1.388 . S
N494 Co477 1.993 . S
N494 N493 1.388 . S
N494 C495 1.346 . S
C495 N494 1.346 . S
C495 C496 1.396 . S
C495 C505 1.510 . S
C496 C492 1.401 . S
C496 C495 1.396 . S
C497 C492 1.499 . S
C497 H498 0.959 . S
C497 H499 0.960 . S
C497 H500 0.961 . S
H498 C497 0.959 . S
H499 C497 0.960 . S
H500 C497 0.961 . S
O501 Co476 1.967 . S
O501 C509 1.258 . S
O502 Co477 1.941 . S
O502 C509 1.266 . S
H503 C505 0.959 . S
H504 C505 0.961 . S
C505 C495 1.510 . S
C505 H503 0.959 . S
C505 H504 0.961 . S
C505 H506 0.960 . S
H506 C505 0.960 . S
H507 N487 0.862 . S
O508 Co476 1.920 . S
O508 C481 1.289 . S
C509 O501 1.258 . S
C509 O502 1.266 . S
Co510 O513 1.970 1_455 S
Co510 N527 1.989 . S
Co510 O535 1.967 . S
Co510 O542 1.918 1_455 S
Co511 O514 1.966 . S
Co511 N520 2.022 . S
Co511 N528 1.993 . S
Co511 O536 1.941 . S
C512 O513 1.258 1_455 S
C512 O514 1.263 . S
O513 Co510 1.970 1_655 S
O513 C512 1.258 1_655 S
O514 Co511 1.966 . S
O514 C512 1.263 . S
C515 O516 1.235 . S
C515 O542 1.292 . S
O516 C515 1.235 . S
C517 C519 1.400 . S
C517 N520 1.351 . S
C517 C522 1.501 . S
C518 C519 1.387 . S
C518 N521 1.341 . S
C519 C517 1.400 . S
C519 C518 1.387 . S
N520 Co511 2.022 . S
N520 C517 1.351 . S
N520 N521 1.365 . S
N521 C518 1.341 . S
N521 N520 1.365 . S
N521 H541 0.862 . S
C522 C517 1.501 . S
C522 H523 0.961 . S
C522 H524 0.961 . S
C522 H525 0.960 . S
H523 C522 0.961 . S
H524 C522 0.961 . S
H525 C522 0.960 . S
C526 N527 1.342 . S
C526 C530 1.401 . S
C526 C531 1.499 . S
N527 Co510 1.989 . S
N527 C526 1.342 . S
N527 N528 1.388 . S
N528 Co511 1.993 . S
N528 N527 1.388 . S
N528 C529 1.346 . S
C529 N528 1.346 . S
C529 C530 1.396 . S
C529 C539 1.510 . S
C530 C526 1.401 . S
C530 C529 1.396 . S
C531 C526 1.499 . S
C531 H532 0.959 . S
C531 H533 0.960 . S
C531 H534 0.961 . S
H532 C531 0.959 . S
H533 C531 0.960 . S
H534 C531 0.961 . S
O535 Co510 1.967 . S
O535 C543 1.258 . S
O536 Co511 1.941 . S
O536 C543 1.266 . S
H537 C539 0.959 . S
H538 C539 0.961 . S
C539 C529 1.510 . S
C539 H537 0.959 . S
C539 H538 0.961 . S
C539 H540 0.960 . S
H540 C539 0.960 . S
H541 N521 0.862 . S
O542 Co510 1.918 1_655 S
O542 C515 1.292 . S
C543 O535 1.258 . S
C543 O536 1.266 . S
Co544 O547 1.970 . S
Co544 N561 1.989 1_545 S
Co544 O569 1.967 . S
Co544 O576 1.920 . S
Co545 O548 1.966 . S
Co545 N554 2.022 . S
Co545 N562 1.962 1_545 S
Co545 O570 1.941 . S
C546 O547 1.258 . S
C546 O548 1.263 . S
O547 Co544 1.970 . S
O547 C546 1.258 . S
O548 Co545 1.966 . S
O548 C546 1.263 . S
C549 O550 1.235 1_545 S
C549 O576 1.289 . S
O550 C549 1.235 1_565 S
C551 C553 1.400 . S
C551 N554 1.351 . S
C551 C556 1.501 . S
C552 C553 1.387 1_455 S
C552 N555 1.341 . S
C553 C551 1.400 . S
C553 C552 1.387 1_655 S
N554 Co545 2.022 . S
N554 C551 1.351 . S
N554 N555 1.365 1_655 S
N555 C552 1.341 . S
N555 N554 1.365 1_455 S
N555 H575 0.862 . S
C556 C551 1.501 . S
C556 H557 0.961 . S
C556 H558 0.961 . S
C556 H559 0.960 . S
H557 C556 0.961 . S
H558 C556 0.961 . S
H559 C556 0.960 . S
C560 N561 1.342 . S
C560 C564 1.401 . S
C560 C565 1.499 . S
N561 Co544 1.989 1_565 S
N561 C560 1.342 . S
N561 N562 1.394 . S
N562 Co545 1.962 1_565 S
N562 N561 1.394 . S
N562 C563 1.375 . S
C563 N562 1.375 . S
C563 C564 1.396 . S
C563 C573 1.510 . S
C564 C560 1.401 . S
C564 C563 1.396 . S
C565 C560 1.499 . S
C565 H566 0.959 . S
C565 H567 0.960 . S
C565 H568 0.961 . S
H566 C565 0.959 . S
H567 C565 0.960 . S
H568 C565 0.961 . S
O569 Co544 1.967 . S
O569 C577 1.258 . S
O570 Co545 1.941 . S
O570 C577 1.266 . S
H571 C573 0.959 . S
H572 C573 0.961 . S
C573 C563 1.510 . S
C573 H571 0.959 . S
C573 H572 0.961 . S
C573 H574 0.960 . S
H574 C573 0.960 . S
H575 N555 0.862 . S
O576 Co544 1.920 . S
O576 C549 1.289 . S
C577 O569 1.258 . S
C577 O570 1.266 . S
Co578 O581 1.970 . S
Co578 N595 1.989 . S
Co578 O603 1.967 . S
Co578 O610 1.920 . S
Co579 O582 1.966 . S
Co579 N588 2.022 . S
Co579 N596 1.993 . S
Co579 O604 1.941 . S
C580 O581 1.258 . S
C580 O582 1.263 . S
O581 Co578 1.970 . S
O581 C580 1.258 . S
O582 Co579 1.966 . S
O582 C580 1.263 . S
C583 O584 1.235 . S
C583 O610 1.289 . S
O584 C583 1.235 . S
C585 C587 1.400 . S
C585 N588 1.351 . S
C585 C590 1.501 . S
C586 C587 1.387 . S
C586 N589 1.341 . S
C587 C585 1.400 . S
C587 C586 1.387 . S
N588 Co579 2.022 . S
N588 C585 1.351 . S
N588 N589 1.365 . S
N589 C586 1.341 . S
N589 N588 1.365 . S
N589 H609 0.862 . S
C590 C585 1.501 . S
C590 H591 0.961 . S
C590 H592 0.961 . S
C590 H593 0.960 . S
H591 C590 0.961 . S
H592 C590 0.961 . S
H593 C590 0.960 . S
C594 N595 1.342 . S
C594 C598 1.401 . S
C594 C599 1.499 . S
N595 Co578 1.989 . S
N595 C594 1.342 . S
N595 N596 1.388 . S
N596 Co579 1.993 . S
N596 N595 1.388 . S
N596 C597 1.346 . S
C597 N596 1.346 . S
C597 C598 1.396 . S
C597 C607 1.510 . S
C598 C594 1.401 . S
C598 C597 1.396 . S
C599 C594 1.499 . S
C599 H600 0.959 . S
C599 H601 0.960 . S
C599 H602 0.961 . S
H600 C599 0.959 . S
H601 C599 0.960 . S
H602 C599 0.961 . S
O603 Co578 1.967 . S
O603 C611 1.258 . S
O604 Co579 1.941 . S
O604 C611 1.266 . S
H605 C607 0.959 . S
H606 C607 0.961 . S
C607 C597 1.510 . S
C607 H605 0.959 . S
C607 H606 0.961 . S
C607 H608 0.960 . S
H608 C607 0.960 . S
H609 N589 0.862 . S
O610 Co578 1.920 . S
O610 C583 1.289 . S
C611 O603 1.258 . S
C611 O604 1.266 . S
Co612 O615 1.970 . S
Co612 N629 1.989 . S
Co612 O637 1.967 . S
Co612 O644 1.920 . S
Co613 O616 1.966 . S
Co613 N622 2.022 . S
Co613 N630 1.993 . S
Co613 O638 1.941 . S
C614 O615 1.258 . S
C614 O616 1.263 . S
O615 Co612 1.970 . S
O615 C614 1.258 . S
O616 Co613 1.966 . S
O616 C614 1.263 . S
C617 O618 1.235 . S
C617 O644 1.289 . S
O618 C617 1.235 . S
C619 C621 1.400 . S
C619 N622 1.351 . S
C619 C624 1.501 . S
C620 C621 1.387 1_455 S
C620 N623 1.341 . S
C621 C619 1.400 . S
C621 C620 1.387 1_655 S
N622 Co613 2.022 . S
N622 C619 1.351 . S
N622 N623 1.365 1_655 S
N623 C620 1.341 . S
N623 N622 1.365 1_455 S
N623 H643 0.862 . S
C624 C619 1.501 . S
C624 H625 0.961 . S
C624 H626 0.961 . S
C624 H627 0.960 . S
H625 C624 0.961 . S
H626 C624 0.961 . S
H627 C624 0.960 . S
C628 N629 1.342 . S
C628 C632 1.401 . S
C628 C633 1.499 . S
N629 Co612 1.989 . S
N629 C628 1.342 . S
N629 N630 1.388 . S
N630 Co613 1.993 . S
N630 N629 1.388 . S
N630 C631 1.346 . S
C631 N630 1.346 . S
C631 C632 1.396 . S
C631 C641 1.510 . S
C632 C628 1.401 . S
C632 C631 1.396 . S
C633 C628 1.499 . S
C633 H634 0.959 . S
C633 H635 0.960 . S
C633 H636 0.961 . S
H634 C633 0.959 . S
H635 C633 0.960 . S
H636 C633 0.961 . S
O637 Co612 1.967 . S
O637 C645 1.258 . S
O638 Co613 1.941 . S
O638 C645 1.266 . S
H639 C641 0.959 . S
H640 C641 0.961 . S
C641 C631 1.510 . S
C641 H639 0.959 . S
C641 H640 0.961 . S
C641 H642 0.960 . S
H642 C641 0.960 . S
H643 N623 0.862 . S
O644 Co612 1.920 . S
O644 C617 1.289 . S
C645 O637 1.258 . S
C645 O638 1.266 . S
Co646 O649 1.970 . S
Co646 N663 1.989 1_545 S
Co646 O671 1.967 . S
Co646 O678 1.920 . S
Co647 O650 1.966 . S
Co647 N656 2.022 . S
Co647 N664 1.962 1_545 S
Co647 O672 1.941 . S
C648 O649 1.258 . S
C648 O650 1.263 . S
O649 Co646 1.970 . S
O649 C648 1.258 . S
O650 Co647 1.966 . S
O650 C648 1.263 . S
C651 O652 1.235 1_545 S
C651 O678 1.289 . S
O652 C651 1.235 1_565 S
C653 C655 1.400 . S
C653 N656 1.351 . S
C653 C658 1.501 . S
C654 C655 1.387 . S
C654 N657 1.341 . S
C655 C653 1.400 . S
C655 C654 1.387 . S
N656 Co647 2.022 . S
N656 C653 1.351 . S
N656 N657 1.365 . S
N657 C654 1.341 . S
N657 N656 1.365 . S
N657 H677 0.862 . S
C658 C653 1.501 . S
C658 H659 0.961 . S
C658 H660 0.961 . S
C658 H661 0.960 . S
H659 C658 0.961 . S
H660 C658 0.961 . S
H661 C658 0.960 . S
C662 N663 1.342 . S
C662 C666 1.401 . S
C662 C667 1.499 . S
N663 Co646 1.989 1_565 S
N663 C662 1.342 . S
N663 N664 1.394 . S
N664 Co647 1.962 1_565 S
N664 N663 1.394 . S
N664 C665 1.374 . S
C665 N664 1.374 . S
C665 C666 1.396 . S
C665 C675 1.510 . S
C666 C662 1.401 . S
C666 C665 1.396 . S
C667 C662 1.499 . S
C667 H668 0.959 . S
C667 H669 0.960 . S
C667 H670 0.961 . S
H668 C667 0.959 . S
H669 C667 0.960 . S
H670 C667 0.961 . S
O671 Co646 1.967 . S
O671 C679 1.258 . S
O672 Co647 1.941 . S
O672 C679 1.266 . S
H673 C675 0.959 . S
H674 C675 0.961 . S
C675 C665 1.510 . S
C675 H673 0.959 . S
C675 H674 0.961 . S
C675 H676 0.960 . S
H676 C675 0.960 . S
H677 N657 0.862 . S
O678 Co646 1.920 . S
O678 C651 1.289 . S
C679 O671 1.258 . S
C679 O672 1.266 . S
Co680 O683 1.970 . S
Co680 N697 1.989 1_565 S
Co680 O705 1.967 . S
Co680 O712 1.920 . S
Co681 O684 1.966 . S
Co681 N690 2.022 . S
Co681 N698 1.962 1_565 S
Co681 O706 1.941 . S
C682 O683 1.258 . S
C682 O684 1.263 . S
O683 Co680 1.970 . S
O683 C682 1.258 . S
O684 Co681 1.966 . S
O684 C682 1.263 . S
C685 O686 1.235 1_565 S
C685 O712 1.289 . S
O686 C685 1.235 1_545 S
C687 C689 1.400 . S
C687 N690 1.351 . S
C687 C692 1.501 . S
C688 C689 1.387 1_655 S
C688 N691 1.341 . S
C689 C687 1.400 . S
C689 C688 1.387 1_455 S
N690 Co681 2.022 . S
N690 C687 1.351 . S
N690 N691 1.365 1_455 S
N691 C688 1.341 . S
N691 N690 1.365 1_655 S
N691 H711 0.862 . S
C692 C687 1.501 . S
C692 H693 0.961 . S
C692 H694 0.961 . S
C692 H695 0.960 . S
H693 C692 0.961 . S
H694 C692 0.961 . S
H695 C692 0.960 . S
C696 N697 1.342 . S
C696 C700 1.401 . S
C696 C701 1.499 . S
N697 Co680 1.989 1_545 S
N697 C696 1.342 . S
N697 N698 1.394 . S
N698 Co681 1.962 1_545 S
N698 N697 1.394 . S
N698 C699 1.375 . S
C699 N698 1.375 . S
C699 C700 1.396 . S
C699 C709 1.510 . S
C700 C696 1.401 . S
C700 C699 1.396 . S
C701 C696 1.499 . S
C701 H702 0.959 . S
C701 H703 0.960 . S
C701 H704 0.961 . S
H702 C701 0.959 . S
H703 C701 0.960 . S
H704 C701 0.961 . S
O705 Co680 1.967 . S
O705 C713 1.258 . S
O706 Co681 1.941 . S
O706 C713 1.266 . S
H707 C709 0.959 . S
H708 C709 0.961 . S
C709 C699 1.510 . S
C709 H707 0.959 . S
C709 H708 0.961 . S
C709 H710 0.960 . S
H710 C709 0.960 . S
H711 N691 0.862 . S
O712 Co680 1.920 . S
O712 C685 1.289 . S
C713 O705 1.258 . S
C713 O706 1.266 . S
Co714 O717 1.970 . S
Co714 N731 1.989 . S
Co714 O739 1.967 . S
Co714 O746 1.920 . S
Co715 O718 1.966 . S
Co715 N724 2.022 . S
Co715 N732 1.993 . S
Co715 O740 1.941 . S
C716 O717 1.258 . S
C716 O718 1.263 . S
O717 Co714 1.970 . S
O717 C716 1.258 . S
O718 Co715 1.966 . S
O718 C716 1.263 . S
C719 O720 1.235 . S
C719 O746 1.289 . S
O720 C719 1.235 . S
C721 C723 1.400 . S
C721 N724 1.351 . S
C721 C726 1.501 . S
C722 C723 1.387 . S
C722 N725 1.341 . S
C723 C721 1.400 . S
C723 C722 1.387 . S
N724 Co715 2.022 . S
N724 C721 1.351 . S
N724 N725 1.365 . S
N725 C722 1.341 . S
N725 N724 1.365 . S
N725 H745 0.862 . S
C726 C721 1.501 . S
C726 H727 0.961 . S
C726 H728 0.961 . S
C726 H729 0.960 . S
H727 C726 0.961 . S
H728 C726 0.961 . S
H729 C726 0.960 . S
C730 N731 1.342 . S
C730 C734 1.401 . S
C730 C735 1.499 . S
N731 Co714 1.989 . S
N731 C730 1.342 . S
N731 N732 1.388 . S
N732 Co715 1.993 . S
N732 N731 1.388 . S
N732 C733 1.346 . S
C733 N732 1.346 . S
C733 C734 1.396 . S
C733 C743 1.510 . S
C734 C730 1.401 . S
C734 C733 1.396 . S
C735 C730 1.499 . S
C735 H736 0.959 . S
C735 H737 0.960 . S
C735 H738 0.961 . S
H736 C735 0.959 . S
H737 C735 0.960 . S
H738 C735 0.961 . S
O739 Co714 1.967 . S
O739 C747 1.258 . S
O740 Co715 1.941 . S
O740 C747 1.266 . S
H741 C743 0.959 . S
H742 C743 0.961 . S
C743 C733 1.510 . S
C743 H741 0.959 . S
C743 H742 0.961 . S
C743 H744 0.960 . S
H744 C743 0.960 . S
H745 N725 0.862 . S
O746 Co714 1.920 . S
O746 C719 1.289 . S
C747 O739 1.258 . S
C747 O740 1.266 . S
Co748 O751 1.970 . S
Co748 N765 1.989 . S
Co748 O773 1.967 . S
Co748 O780 1.920 . S
Co749 O752 1.966 . S
Co749 N758 2.022 . S
Co749 N766 1.993 . S
Co749 O774 1.941 . S
C750 O751 1.258 . S
C750 O752 1.263 . S
O751 Co748 1.970 . S
O751 C750 1.258 . S
O752 Co749 1.966 . S
O752 C750 1.263 . S
C753 O754 1.235 . S
C753 O780 1.289 . S
O754 C753 1.235 . S
C755 C757 1.400 . S
C755 N758 1.351 . S
C755 C760 1.501 . S
C756 C757 1.387 1_655 S
C756 N759 1.341 . S
C757 C755 1.400 . S
C757 C756 1.387 1_455 S
N758 Co749 2.022 . S
N758 C755 1.351 . S
N758 N759 1.365 1_455 S
N759 C756 1.341 . S
N759 N758 1.365 1_655 S
N759 H779 0.862 . S
C760 C755 1.501 . S
C760 H761 0.961 . S
C760 H762 0.961 . S
C760 H763 0.960 . S
H761 C760 0.961 . S
H762 C760 0.961 . S
H763 C760 0.960 . S
C764 N765 1.342 . S
C764 C768 1.401 . S
C764 C769 1.499 . S
N765 Co748 1.989 . S
N765 C764 1.342 . S
N765 N766 1.388 . S
N766 Co749 1.993 . S
N766 N765 1.388 . S
N766 C767 1.346 . S
C767 N766 1.346 . S
C767 C768 1.396 . S
C767 C777 1.510 . S
C768 C764 1.401 . S
C768 C767 1.396 . S
C769 C764 1.499 . S
C769 H770 0.959 . S
C769 H771 0.960 . S
C769 H772 0.961 . S
H770 C769 0.959 . S
H771 C769 0.960 . S
H772 C769 0.961 . S
O773 Co748 1.967 . S
O773 C781 1.258 . S
O774 Co749 1.941 . S
O774 C781 1.266 . S
H775 C777 0.959 . S
H776 C777 0.961 . S
C777 C767 1.510 . S
C777 H775 0.959 . S
C777 H776 0.961 . S
C777 H778 0.960 . S
H778 C777 0.960 . S
H779 N759 0.862 . S
O780 Co748 1.920 . S
O780 C753 1.289 . S
C781 O773 1.258 . S
C781 O774 1.266 . S
Co782 O785 1.970 . S
Co782 N799 1.989 1_565 S
Co782 O807 1.967 . S
Co782 O814 1.920 . S
Co783 O786 1.966 . S
Co783 N792 2.022 . S
Co783 N800 1.962 1_565 S
Co783 O808 1.941 . S
C784 O785 1.258 . S
C784 O786 1.263 . S
O785 Co782 1.970 . S
O785 C784 1.258 . S
O786 Co783 1.966 . S
O786 C784 1.263 . S
C787 O788 1.235 1_565 S
C787 O814 1.289 . S
O788 C787 1.235 1_545 S
C789 C791 1.400 . S
C789 N792 1.351 . S
C789 C794 1.501 . S
C790 C791 1.387 . S
C790 N793 1.341 . S
C791 C789 1.400 . S
C791 C790 1.387 . S
N792 Co783 2.022 . S
N792 C789 1.351 . S
N792 N793 1.365 . S
N793 C790 1.341 . S
N793 N792 1.365 . S
N793 H813 0.862 . S
C794 C789 1.501 . S
C794 H795 0.961 . S
C794 H796 0.961 . S
C794 H797 0.960 . S
H795 C794 0.961 . S
H796 C794 0.961 . S
H797 C794 0.960 . S
C798 N799 1.342 . S
C798 C802 1.401 . S
C798 C803 1.499 . S
N799 Co782 1.989 1_545 S
N799 C798 1.342 . S
N799 N800 1.394 . S
N800 Co783 1.962 1_545 S
N800 N799 1.394 . S
N800 C801 1.374 . S
C801 N800 1.374 . S
C801 C802 1.396 . S
C801 C811 1.510 . S
C802 C798 1.401 . S
C802 C801 1.396 . S
C803 C798 1.499 . S
C803 H804 0.959 . S
C803 H805 0.960 . S
C803 H806 0.961 . S
H804 C803 0.959 . S
H805 C803 0.960 . S
H806 C803 0.961 . S
O807 Co782 1.967 . S
O807 C815 1.258 . S
O808 Co783 1.941 . S
O808 C815 1.266 . S
H809 C811 0.959 . S
H810 C811 0.961 . S
C811 C801 1.510 . S
C811 H809 0.959 . S
C811 H810 0.961 . S
C811 H812 0.960 . S
H812 C811 0.960 . S
H813 N793 0.862 . S
O814 Co782 1.920 . S
O814 C787 1.289 . S
C815 O807 1.258 . S
C815 O808 1.266 . S
Co816 O819 1.970 . S
Co816 N833 1.989 . S
Co816 O841 1.967 . S
Co816 O848 1.920 . S
Co817 O820 1.966 . S
Co817 N826 2.022 . S
Co817 N834 1.993 . S
Co817 O842 1.941 . S
C818 O819 1.258 . S
C818 O820 1.263 . S
O819 Co816 1.970 . S
O819 C818 1.258 . S
O820 Co817 1.966 . S
O820 C818 1.263 . S
C821 O822 1.235 . S
C821 O848 1.289 . S
O822 C821 1.235 . S
C823 C825 1.400 . S
C823 N826 1.351 . S
C823 C828 1.501 . S
C824 C825 1.387 1_455 S
C824 N827 1.341 . S
C825 C823 1.400 . S
C825 C824 1.387 1_655 S
N826 Co817 2.022 . S
N826 C823 1.351 . S
N826 N827 1.365 1_655 S
N827 C824 1.341 . S
N827 N826 1.365 1_455 S
N827 H847 0.862 . S
C828 C823 1.501 . S
C828 H829 0.961 . S
C828 H830 0.961 . S
C828 H831 0.960 . S
H829 C828 0.961 . S
H830 C828 0.961 . S
H831 C828 0.960 . S
C832 N833 1.342 . S
C832 C836 1.401 . S
C832 C837 1.499 . S
N833 Co816 1.989 . S
N833 C832 1.342 . S
N833 N834 1.388 . S
N834 Co817 1.993 . S
N834 N833 1.388 . S
N834 C835 1.346 . S
C835 N834 1.346 . S
C835 C836 1.396 . S
C835 C845 1.510 . S
C836 C832 1.401 . S
C836 C835 1.396 . S
C837 C832 1.499 . S
C837 H838 0.959 . S
C837 H839 0.960 . S
C837 H840 0.961 . S
H838 C837 0.959 . S
H839 C837 0.960 . S
H840 C837 0.961 . S
O841 Co816 1.967 . S
O841 C849 1.258 . S
O842 Co817 1.941 . S
O842 C849 1.266 . S
H843 C845 0.959 . S
H844 C845 0.961 . S
C845 C835 1.510 . S
C845 H843 0.959 . S
C845 H844 0.961 . S
C845 H846 0.960 . S
H846 C845 0.960 . S
H847 N827 0.862 . S
O848 Co816 1.920 . S
O848 C821 1.289 . S
C849 O841 1.258 . S
C849 O842 1.266 . S
Co850 O853 1.970 . S
Co850 N867 1.989 . S
Co850 O875 1.967 . S
Co850 O882 1.920 . S
Co851 O854 1.966 . S
Co851 N860 2.022 . S
Co851 N868 1.993 . S
Co851 O876 1.941 . S
C852 O853 1.258 . S
C852 O854 1.263 . S
O853 Co850 1.970 . S
O853 C852 1.258 . S
O854 Co851 1.966 . S
O854 C852 1.263 . S
C855 O856 1.235 . S
C855 O882 1.289 . S
O856 C855 1.235 . S
C857 C859 1.400 . S
C857 N860 1.351 . S
C857 C862 1.501 . S
C858 C859 1.387 . S
C858 N861 1.341 . S
C859 C857 1.400 . S
C859 C858 1.387 . S
N860 Co851 2.022 . S
N860 C857 1.351 . S
N860 N861 1.365 . S
N861 C858 1.341 . S
N861 N860 1.365 . S
N861 H881 0.862 . S
C862 C857 1.501 . S
C862 H863 0.961 . S
C862 H864 0.961 . S
C862 H865 0.960 . S
H863 C862 0.961 . S
H864 C862 0.961 . S
H865 C862 0.960 . S
C866 N867 1.342 . S
C866 C870 1.401 . S
C866 C871 1.499 . S
N867 Co850 1.989 . S
N867 C866 1.342 . S
N867 N868 1.388 . S
N868 Co851 1.993 . S
N868 N867 1.388 . S
N868 C869 1.346 . S
C869 N868 1.346 . S
C869 C870 1.396 . S
C869 C879 1.510 . S
C870 C866 1.401 . S
C870 C869 1.396 . S
C871 C866 1.499 . S
C871 H872 0.959 . S
C871 H873 0.960 . S
C871 H874 0.961 . S
H872 C871 0.959 . S
H873 C871 0.960 . S
H874 C871 0.961 . S
O875 Co850 1.967 . S
O875 C883 1.258 . S
O876 Co851 1.941 . S
O876 C883 1.266 . S
H877 C879 0.959 . S
H878 C879 0.961 . S
C879 C869 1.510 . S
C879 H877 0.959 . S
C879 H878 0.961 . S
C879 H880 0.960 . S
H880 C879 0.960 . S
H881 N861 0.862 . S
O882 Co850 1.920 . S
O882 C855 1.289 . S
C883 O875 1.258 . S
C883 O876 1.266 . S
Co884 O887 1.970 . S
Co884 N901 1.989 . S
Co884 O909 1.967 . S
Co884 O916 1.920 . S
Co885 O888 1.966 . S
Co885 N894 2.022 . S
Co885 N902 1.993 . S
Co885 O910 1.941 . S
C886 O887 1.258 . S
C886 O888 1.263 . S
O887 Co884 1.970 . S
O887 C886 1.258 . S
O888 Co885 1.966 . S
O888 C886 1.263 . S
C889 O890 1.235 . S
C889 O916 1.289 . S
O890 C889 1.235 . S
C891 C893 1.400 . S
C891 N894 1.351 . S
C891 C896 1.501 . S
C892 C893 1.387 1_455 S
C892 N895 1.341 . S
C893 C891 1.400 . S
C893 C892 1.387 1_655 S
N894 Co885 2.022 . S
N894 C891 1.351 . S
N894 N895 1.365 1_655 S
N895 C892 1.341 . S
N895 N894 1.365 1_455 S
N895 H915 0.862 . S
C896 C891 1.501 . S
C896 H897 0.961 . S
C896 H898 0.961 . S
C896 H899 0.960 . S
H897 C896 0.961 . S
H898 C896 0.961 . S
H899 C896 0.960 . S
C900 N901 1.342 . S
C900 C904 1.401 . S
C900 C905 1.499 . S
N901 Co884 1.989 . S
N901 C900 1.342 . S
N901 N902 1.388 . S
N902 Co885 1.993 . S
N902 N901 1.388 . S
N902 C903 1.346 . S
C903 N902 1.346 . S
C903 C904 1.396 . S
C903 C913 1.510 . S
C904 C900 1.401 . S
C904 C903 1.396 . S
C905 C900 1.499 . S
C905 H906 0.959 . S
C905 H907 0.960 . S
C905 H908 0.961 . S
H906 C905 0.959 . S
H907 C905 0.960 . S
H908 C905 0.961 . S
O909 Co884 1.967 . S
O909 C917 1.258 . S
O910 Co885 1.941 . S
O910 C917 1.266 . S
H911 C913 0.959 . S
H912 C913 0.961 . S
C913 C903 1.510 . S
C913 H911 0.959 . S
C913 H912 0.961 . S
C913 H914 0.960 . S
H914 C913 0.960 . S
H915 N895 0.862 . S
O916 Co884 1.920 . S
O916 C889 1.289 . S
C917 O909 1.258 . S
C917 O910 1.266 . S
Co918 O921 1.970 . S
Co918 N935 1.989 . S
Co918 O943 1.967 . S
Co918 O950 1.920 . S
Co919 O922 1.966 . S
Co919 N928 2.022 . S
Co919 N936 1.993 . S
Co919 O944 1.941 . S
C920 O921 1.258 . S
C920 O922 1.263 . S
O921 Co918 1.970 . S
O921 C920 1.258 . S
O922 Co919 1.966 . S
O922 C920 1.263 . S
C923 O924 1.235 . S
C923 O950 1.289 . S
O924 C923 1.235 . S
C925 C927 1.400 . S
C925 N928 1.351 . S
C925 C930 1.501 . S
C926 C927 1.387 . S
C926 N929 1.341 . S
C927 C925 1.400 . S
C927 C926 1.387 . S
N928 Co919 2.022 . S
N928 C925 1.351 . S
N928 N929 1.365 . S
N929 C926 1.341 . S
N929 N928 1.365 . S
N929 H949 0.862 . S
C930 C925 1.501 . S
C930 H931 0.961 . S
C930 H932 0.961 . S
C930 H933 0.960 . S
H931 C930 0.961 . S
H932 C930 0.961 . S
H933 C930 0.960 . S
C934 N935 1.342 . S
C934 C938 1.401 . S
C934 C939 1.499 . S
N935 Co918 1.989 . S
N935 C934 1.342 . S
N935 N936 1.388 . S
N936 Co919 1.993 . S
N936 N935 1.388 . S
N936 C937 1.346 . S
C937 N936 1.346 . S
C937 C938 1.396 . S
C937 C947 1.510 . S
C938 C934 1.401 . S
C938 C937 1.396 . S
C939 C934 1.499 . S
C939 H940 0.959 . S
C939 H941 0.960 . S
C939 H942 0.961 . S
H940 C939 0.959 . S
H941 C939 0.960 . S
H942 C939 0.961 . S
O943 Co918 1.967 . S
O943 C951 1.258 . S
O944 Co919 1.941 . S
O944 C951 1.266 . S
H945 C947 0.959 . S
H946 C947 0.961 . S
C947 C937 1.510 . S
C947 H945 0.959 . S
C947 H946 0.961 . S
C947 H948 0.960 . S
H948 C947 0.960 . S
H949 N929 0.862 . S
O950 Co918 1.920 . S
O950 C923 1.289 . S
C951 O943 1.258 . S
C951 O944 1.266 . S
Co952 O955 1.970 . S
Co952 N969 1.989 . S
Co952 O977 1.967 . S
Co952 O984 1.920 . S
Co953 O956 1.966 . S
Co953 N962 2.022 . S
Co953 N970 1.993 . S
Co953 O978 1.941 . S
C954 O955 1.258 . S
C954 O956 1.263 . S
O955 Co952 1.970 . S
O955 C954 1.258 . S
O956 Co953 1.966 . S
O956 C954 1.263 . S
C957 O958 1.235 . S
C957 O984 1.289 . S
O958 C957 1.235 . S
C959 C961 1.400 . S
C959 N962 1.351 . S
C959 C964 1.501 . S
C960 C961 1.387 1_655 S
C960 N963 1.341 . S
C961 C959 1.400 . S
C961 C960 1.387 1_455 S
N962 Co953 2.022 . S
N962 C959 1.351 . S
N962 N963 1.365 1_455 S
N963 C960 1.341 . S
N963 N962 1.365 1_655 S
N963 H983 0.862 . S
C964 C959 1.501 . S
C964 H965 0.961 . S
C964 H966 0.961 . S
C964 H967 0.960 . S
H965 C964 0.961 . S
H966 C964 0.961 . S
H967 C964 0.960 . S
C968 N969 1.342 . S
C968 C972 1.401 . S
C968 C973 1.499 . S
N969 Co952 1.989 . S
N969 C968 1.342 . S
N969 N970 1.388 . S
N970 Co953 1.993 . S
N970 N969 1.388 . S
N970 C971 1.346 . S
C971 N970 1.346 . S
C971 C972 1.396 . S
C971 C981 1.510 . S
C972 C968 1.401 . S
C972 C971 1.396 . S
C973 C968 1.499 . S
C973 H974 0.959 . S
C973 H975 0.960 . S
C973 H976 0.961 . S
H974 C973 0.959 . S
H975 C973 0.960 . S
H976 C973 0.961 . S
O977 Co952 1.967 . S
O977 C985 1.258 . S
O978 Co953 1.941 . S
O978 C985 1.266 . S
H979 C981 0.959 . S
H980 C981 0.961 . S
C981 C971 1.510 . S
C981 H979 0.959 . S
C981 H980 0.961 . S
C981 H982 0.960 . S
H982 C981 0.960 . S
H983 N963 0.862 . S
O984 Co952 1.920 . S
O984 C957 1.289 . S
C985 O977 1.258 . S
C985 O978 1.266 . S
Co986 O989 1.970 . S
Co986 N1003 1.989 . S
Co986 O1011 1.967 . S
Co986 O1018 1.920 . S
Co987 O990 1.966 . S
Co987 N996 2.022 . S
Co987 N1004 1.993 . S
Co987 O1012 1.941 . S
C988 O989 1.258 . S
C988 O990 1.263 . S
O989 Co986 1.970 . S
O989 C988 1.258 . S
O990 Co987 1.966 . S
O990 C988 1.263 . S
C991 O992 1.235 . S
C991 O1018 1.289 . S
O992 C991 1.235 . S
C993 C995 1.400 . S
C993 N996 1.351 . S
C993 C998 1.501 . S
C994 C995 1.387 . S
C994 N997 1.341 . S
C995 C993 1.400 . S
C995 C994 1.387 . S
N996 Co987 2.022 . S
N996 C993 1.351 . S
N996 N997 1.365 . S
N997 C994 1.341 . S
N997 N996 1.365 . S
N997 H1017 0.862 . S
C998 C993 1.501 . S
C998 H999 0.961 . S
C998 H1000 0.961 . S
C998 H1001 0.960 . S
H999 C998 0.961 . S
H1000 C998 0.961 . S
H1001 C998 0.960 . S
C1002 N1003 1.342 . S
C1002 C1006 1.401 . S
C1002 C1007 1.499 . S
N1003 Co986 1.989 . S
N1003 C1002 1.342 . S
N1003 N1004 1.388 . S
N1004 Co987 1.993 . S
N1004 N1003 1.388 . S
N1004 C1005 1.346 . S
C1005 N1004 1.346 . S
C1005 C1006 1.396 . S
C1005 C1015 1.510 . S
C1006 C1002 1.401 . S
C1006 C1005 1.396 . S
C1007 C1002 1.499 . S
C1007 H1008 0.959 . S
C1007 H1009 0.960 . S
C1007 H1010 0.961 . S
H1008 C1007 0.959 . S
H1009 C1007 0.960 . S
H1010 C1007 0.961 . S
O1011 Co986 1.967 . S
O1011 C1019 1.258 . S
O1012 Co987 1.941 . S
O1012 C1019 1.266 . S
H1013 C1015 0.959 . S
H1014 C1015 0.961 . S
C1015 C1005 1.510 . S
C1015 H1013 0.959 . S
C1015 H1014 0.961 . S
C1015 H1016 0.960 . S
H1016 C1015 0.960 . S
H1017 N997 0.862 . S
O1018 Co986 1.920 . S
O1018 C991 1.289 . S
C1019 O1011 1.258 . S
C1019 O1012 1.266 . S
Co1020 O1023 1.970 . S
Co1020 N1037 1.989 . S
Co1020 O1045 1.967 . S
Co1020 O1052 1.920 . S
Co1021 O1024 1.966 . S
Co1021 N1030 2.022 . S
Co1021 N1038 1.993 . S
Co1021 O1046 1.941 . S
C1022 O1023 1.258 . S
C1022 O1024 1.263 . S
O1023 Co1020 1.970 . S
O1023 C1022 1.258 . S
O1024 Co1021 1.966 . S
O1024 C1022 1.263 . S
C1025 O1026 1.235 . S
C1025 O1052 1.289 . S
O1026 C1025 1.235 . S
C1027 C1029 1.400 . S
C1027 N1030 1.351 . S
C1027 C1032 1.501 . S
C1028 C1029 1.387 1_655 S
C1028 N1031 1.341 . S
C1029 C1027 1.400 . S
C1029 C1028 1.387 1_455 S
N1030 Co1021 2.022 . S
N1030 C1027 1.351 . S
N1030 N1031 1.365 1_455 S
N1031 C1028 1.341 . S
N1031 N1030 1.365 1_655 S
N1031 H1051 0.862 . S
C1032 C1027 1.501 . S
C1032 H1033 0.961 . S
C1032 H1034 0.961 . S
C1032 H1035 0.960 . S
H1033 C1032 0.961 . S
H1034 C1032 0.961 . S
H1035 C1032 0.960 . S
C1036 N1037 1.342 . S
C1036 C1040 1.401 . S
C1036 C1041 1.499 . S
N1037 Co1020 1.989 . S
N1037 C1036 1.342 . S
N1037 N1038 1.388 . S
N1038 Co1021 1.993 . S
N1038 N1037 1.388 . S
N1038 C1039 1.346 . S
C1039 N1038 1.346 . S
C1039 C1040 1.396 . S
C1039 C1049 1.510 . S
C1040 C1036 1.401 . S
C1040 C1039 1.396 . S
C1041 C1036 1.499 . S
C1041 H1042 0.959 . S
C1041 H1043 0.960 . S
C1041 H1044 0.961 . S
H1042 C1041 0.959 . S
H1043 C1041 0.960 . S
H1044 C1041 0.961 . S
O1045 Co1020 1.967 . S
O1045 C1053 1.258 . S
O1046 Co1021 1.941 . S
O1046 C1053 1.266 . S
H1047 C1049 0.959 . S
H1048 C1049 0.961 . S
C1049 C1039 1.510 . S
C1049 H1047 0.959 . S
C1049 H1048 0.961 . S
C1049 H1050 0.960 . S
H1050 C1049 0.960 . S
H1051 N1031 0.862 . S
O1052 Co1020 1.920 . S
O1052 C1025 1.289 . S
C1053 O1045 1.258 . S
C1053 O1046 1.266 . S
Co1054 O1057 1.970 . S
Co1054 N1071 1.989 . S
Co1054 O1079 1.967 . S
Co1054 O1086 1.920 . S
Co1055 O1058 1.966 . S
Co1055 N1064 2.022 . S
Co1055 N1072 1.993 . S
Co1055 O1080 1.941 . S
C1056 O1057 1.258 . S
C1056 O1058 1.263 . S
O1057 Co1054 1.970 . S
O1057 C1056 1.258 . S
O1058 Co1055 1.966 . S
O1058 C1056 1.263 . S
C1059 O1060 1.235 . S
C1059 O1086 1.289 . S
O1060 C1059 1.235 . S
C1061 C1063 1.400 . S
C1061 N1064 1.351 . S
C1061 C1066 1.501 . S
C1062 C1063 1.387 . S
C1062 N1065 1.341 . S
C1063 C1061 1.400 . S
C1063 C1062 1.387 . S
N1064 Co1055 2.022 . S
N1064 C1061 1.351 . S
N1064 N1065 1.365 . S
N1065 C1062 1.341 . S
N1065 N1064 1.365 . S
N1065 H1085 0.862 . S
C1066 C1061 1.501 . S
C1066 H1067 0.961 . S
C1066 H1068 0.961 . S
C1066 H1069 0.960 . S
H1067 C1066 0.961 . S
H1068 C1066 0.961 . S
H1069 C1066 0.960 . S
C1070 N1071 1.342 . S
C1070 C1074 1.401 . S
C1070 C1075 1.499 . S
N1071 Co1054 1.989 . S
N1071 C1070 1.342 . S
N1071 N1072 1.388 . S
N1072 Co1055 1.993 . S
N1072 N1071 1.388 . S
N1072 C1073 1.346 . S
C1073 N1072 1.346 . S
C1073 C1074 1.396 . S
C1073 C1083 1.510 . S
C1074 C1070 1.401 . S
C1074 C1073 1.396 . S
C1075 C1070 1.499 . S
C1075 H1076 0.959 . S
C1075 H1077 0.960 . S
C1075 H1078 0.961 . S
H1076 C1075 0.959 . S
H1077 C1075 0.960 . S
H1078 C1075 0.961 . S
O1079 Co1054 1.967 . S
O1079 C1087 1.258 . S
O1080 Co1055 1.941 . S
O1080 C1087 1.266 . S
H1081 C1083 0.959 . S
H1082 C1083 0.961 . S
C1083 C1073 1.510 . S
C1083 H1081 0.959 . S
C1083 H1082 0.961 . S
C1083 H1084 0.960 . S
H1084 C1083 0.960 . S
H1085 N1065 0.862 . S
O1086 Co1054 1.920 . S
O1086 C1059 1.289 . S
C1087 O1079 1.258 . S
C1087 O1080 1.266 . S
C1088 C1089 1.387 . S
C1088 H1092 0.950 . S
C1088 C1097 1.390 1_544 S
C1089 C1088 1.387 . S
C1089 C1091 1.387 . S
H1090 C1097 0.950 . S
C1091 C1089 1.387 . S
C1091 C1093 1.390 1_544 S
C1091 H1095 0.950 . S
H1092 C1088 0.950 . S
C1093 C1091 1.390 1_566 S
C1093 C1094 1.387 . S
C1093 H1096 0.950 . S
C1094 C1093 1.387 . S
C1094 C1097 1.387 . S
H1095 C1091 0.950 . S
H1096 C1093 0.950 . S
C1097 C1088 1.390 1_566 S
C1097 H1090 0.950 . S
C1097 C1094 1.387 . S
C1098 C1099 1.387 . S
C1098 H1102 0.950 . S
C1098 C1107 1.390 1_556 S
C1099 C1098 1.387 . S
C1099 C1101 1.387 . S
H1100 C1107 0.950 . S
C1101 C1099 1.387 . S
C1101 C1103 1.390 1_556 S
C1101 H1105 0.950 . S
H1102 C1098 0.950 . S
C1103 C1101 1.390 1_554 S
C1103 C1104 1.387 . S
C1103 H1106 0.950 . S
C1104 C1103 1.387 . S
C1104 C1107 1.387 . S
H1105 C1101 0.950 . S
H1106 C1103 0.950 . S
C1107 C1098 1.390 1_554 S
C1107 H1100 0.950 . S
C1107 C1104 1.387 . S
C1108 C1109 1.387 . S
C1108 H1112 0.950 . S
C1108 C1117 1.390 . S
C1109 C1108 1.387 . S
C1109 C1111 1.387 . S
H1110 C1117 0.950 . S
C1111 C1109 1.387 . S
C1111 C1113 1.390 . S
C1111 H1115 0.950 . S
H1112 C1108 0.950 . S
C1113 C1111 1.390 . S
C1113 C1114 1.387 . S
C1113 H1116 0.950 . S
C1114 C1113 1.387 . S
C1114 C1117 1.387 . S
H1115 C1111 0.950 . S
H1116 C1113 0.950 . S
C1117 C1108 1.390 . S
C1117 H1110 0.950 . S
C1117 C1114 1.387 . S
C1118 C1119 1.387 . S
C1118 H1122 0.950 . S
C1118 C1127 1.390 1_565 S
C1119 C1118 1.387 . S
C1119 C1121 1.387 . S
H1120 C1127 0.950 . S
C1121 C1119 1.387 . S
C1121 C1123 1.390 1_565 S
C1121 H1125 0.950 . S
H1122 C1118 0.950 . S
C1123 C1121 1.390 1_545 S
C1123 C1124 1.387 . S
C1123 H1126 0.950 . S
C1124 C1123 1.387 . S
C1124 C1127 1.387 . S
H1125 C1121 0.950 . S
H1126 C1123 0.950 . S
C1127 C1118 1.390 1_545 S
C1127 H1120 0.950 . S
C1127 C1124 1.387 . S
C1128 C1129 1.387 . S
C1128 H1132 0.950 . S
C1128 C1137 1.442 . S
C1129 C1128 1.387 . S
C1129 C1131 1.333 1_556 S
H1130 C1137 0.955 . S
C1131 C1129 1.333 1_554 S
C1131 C1133 1.442 . S
C1131 H1135 0.955 . S
H1132 C1128 0.950 . S
C1133 C1131 1.442 . S
C1133 C1134 1.387 . S
C1133 H1136 0.950 . S
C1134 C1133 1.387 . S
C1134 C1137 1.333 1_554 S
H1135 C1131 0.955 . S
H1136 C1133 0.950 . S
C1137 C1128 1.442 . S
C1137 H1130 0.955 . S
C1137 C1134 1.333 1_556 S
C1138 C1139 1.387 . S
C1138 H1142 0.950 . S
C1138 C1147 1.390 . S
C1139 C1138 1.387 . S
C1139 C1141 1.387 . S
H1140 C1147 0.950 . S
C1141 C1139 1.387 . S
C1141 C1143 1.390 . S
C1141 H1145 0.950 . S
H1142 C1138 0.950 . S
C1143 C1141 1.390 . S
C1143 C1144 1.387 . S
C1143 H1146 0.950 . S
C1144 C1143 1.387 . S
C1144 C1147 1.387 . S
H1145 C1141 0.950 . S
H1146 C1143 0.950 . S
C1147 C1138 1.390 . S
C1147 H1140 0.950 . S
C1147 C1144 1.387 . S
C1148 C1149 1.387 . S
C1148 H1152 0.950 . S
C1148 C1157 1.390 1_565 S
C1149 C1148 1.387 . S
C1149 C1151 1.387 . S
H1150 C1157 0.950 . S
C1151 C1149 1.387 . S
C1151 C1153 1.390 1_565 S
C1151 H1155 0.950 . S
H1152 C1148 0.950 . S
C1153 C1151 1.390 1_545 S
C1153 C1154 1.387 . S
C1153 H1156 0.950 . S
C1154 C1153 1.387 . S
C1154 C1157 1.387 . S
H1155 C1151 0.950 . S
H1156 C1153 0.950 . S
C1157 C1148 1.390 1_545 S
C1157 H1150 0.950 . S
C1157 C1154 1.387 . S
C1158 C1159 1.387 . S
C1158 H1162 0.950 . S
C1158 C1167 1.390 . S
C1159 C1158 1.387 . S
C1159 C1161 1.387 . S
H1160 C1167 0.950 . S
C1161 C1159 1.387 . S
C1161 C1163 1.390 . S
C1161 H1165 0.950 . S
H1162 C1158 0.950 . S
C1163 C1161 1.390 . S
C1163 C1164 1.387 . S
C1163 H1166 0.950 . S
C1164 C1163 1.387 . S
C1164 C1167 1.387 . S
H1165 C1161 0.950 . S
H1166 C1163 0.950 . S
C1167 C1158 1.390 . S
C1167 H1160 0.950 . S
C1167 C1164 1.387 . S
C1168 C1169 1.387 . S
C1168 H1172 0.950 . S
C1168 C1177 1.390 . S
C1169 C1168 1.387 . S
C1169 C1171 1.387 . S
H1170 C1177 0.950 . S
C1171 C1169 1.387 . S
C1171 C1173 1.390 . S
C1171 H1175 0.950 . S
H1172 C1168 0.950 . S
C1173 C1171 1.390 . S
C1173 C1174 1.387 . S
C1173 H1176 0.950 . S
C1174 C1173 1.387 . S
C1174 C1177 1.387 . S
H1175 C1171 0.950 . S
H1176 C1173 0.950 . S
C1177 C1168 1.390 . S
C1177 H1170 0.950 . S
C1177 C1174 1.387 . S
C1178 C1179 1.387 . S
C1178 H1182 0.950 . S
C1178 C1187 1.390 . S
C1179 C1178 1.387 . S
C1179 C1181 1.387 . S
H1180 C1187 0.950 . S
C1181 C1179 1.387 . S
C1181 C1183 1.390 . S
C1181 H1185 0.950 . S
H1182 C1178 0.950 . S
C1183 C1181 1.390 . S
C1183 C1184 1.387 . S
C1183 H1186 0.950 . S
C1184 C1183 1.387 . S
C1184 C1187 1.387 . S
H1185 C1181 0.950 . S
H1186 C1183 0.950 . S
C1187 C1178 1.390 . S
C1187 H1180 0.950 . S
C1187 C1184 1.387 . S
C1188 C1189 1.387 . S
C1188 H1192 0.950 . S
C1188 C1197 1.390 . S
C1189 C1188 1.387 . S
C1189 C1191 1.387 . S
H1190 C1197 0.950 . S
C1191 C1189 1.387 . S
C1191 C1193 1.390 . S
C1191 H1195 0.950 . S
H1192 C1188 0.950 . S
C1193 C1191 1.390 . S
C1193 C1194 1.387 . S
C1193 H1196 0.950 . S
C1194 C1193 1.387 . S
C1194 C1197 1.387 . S
H1195 C1191 0.950 . S
H1196 C1193 0.950 . S
C1197 C1188 1.390 . S
C1197 H1190 0.950 . S
C1197 C1194 1.387 . S
C1198 C1199 1.387 . S
C1198 H1202 0.950 . S
C1198 C1207 1.390 . S
C1199 C1198 1.387 . S
C1199 C1201 1.387 . S
H1200 C1207 0.950 . S
C1201 C1199 1.387 . S
C1201 C1203 1.390 . S
C1201 H1205 0.950 . S
H1202 C1198 0.950 . S
C1203 C1201 1.390 . S
C1203 C1204 1.387 . S
C1203 H1206 0.950 . S
C1204 C1203 1.387 . S
C1204 C1207 1.387 . S
H1205 C1201 0.950 . S
H1206 C1203 0.950 . S
C1207 C1198 1.390 . S
C1207 H1200 0.950 . S
C1207 C1204 1.387 . S
C1208 C1209 1.387 1_655 S
C1208 H1212 0.950 . S
C1208 C1217 1.390 1_565 S
C1209 C1208 1.387 1_455 S
C1209 C1211 1.387 . S
H1210 C1217 0.950 . S
C1211 C1209 1.387 . S
C1211 C1213 1.390 1_565 S
C1211 H1215 0.950 . S
H1212 C1208 0.950 . S
C1213 C1211 1.390 1_545 S
C1213 C1214 1.387 1_455 S
C1213 H1216 0.950 . S
C1214 C1213 1.387 1_655 S
C1214 C1217 1.387 . S
H1215 C1211 0.950 . S
H1216 C1213 0.950 . S
C1217 C1208 1.390 1_545 S
C1217 H1210 0.950 . S
C1217 C1214 1.387 . S
C1218 C1219 1.387 . S
C1218 H1222 0.950 . S
C1218 C1227 1.390 . S
C1219 C1218 1.387 . S
C1219 C1221 1.387 1_655 S
H1220 C1227 0.950 . S
C1221 C1219 1.387 1_455 S
C1221 C1223 1.390 . S
C1221 H1225 0.950 . S
H1222 C1218 0.950 . S
C1223 C1221 1.390 . S
C1223 C1224 1.387 . S
C1223 H1226 0.950 . S
C1224 C1223 1.387 . S
C1224 C1227 1.387 1_455 S
H1225 C1221 0.950 . S
H1226 C1223 0.950 . S
C1227 C1218 1.390 . S
C1227 H1220 0.950 . S
C1227 C1224 1.387 1_655 S
C1228 C1229 1.387 1_655 S
C1228 H1232 0.950 . S
C1228 C1237 1.390 . S
C1229 C1228 1.387 1_455 S
C1229 C1231 1.387 . S
H1230 C1237 0.950 . S
C1231 C1229 1.387 . S
C1231 C1233 1.390 . S
C1231 H1235 0.950 . S
H1232 C1228 0.950 . S
C1233 C1231 1.390 . S
C1233 C1234 1.387 1_455 S
C1233 H1236 0.950 . S
C1234 C1233 1.387 1_655 S
C1234 C1237 1.387 . S
H1235 C1231 0.950 . S
H1236 C1233 0.950 . S
C1237 C1228 1.390 . S
C1237 H1230 0.950 . S
C1237 C1234 1.387 . S
C1238 C1239 1.387 . S
C1238 H1242 0.950 . S
C1238 C1247 1.390 1_554 S
C1239 C1238 1.387 . S
C1239 C1241 1.387 1_655 S
H1240 C1247 0.950 . S
C1241 C1239 1.387 1_455 S
C1241 C1243 1.390 1_554 S
C1241 H1245 0.950 . S
H1242 C1238 0.950 . S
C1243 C1241 1.390 1_556 S
C1243 C1244 1.387 . S
C1243 H1246 0.950 . S
C1244 C1243 1.387 . S
C1244 C1247 1.387 1_455 S
H1245 C1241 0.950 . S
H1246 C1243 0.950 . S
C1247 C1238 1.390 1_556 S
C1247 H1240 0.950 . S
C1247 C1244 1.387 1_655 S
C1248 C1249 1.387 . S
C1248 H1252 0.950 . S
C1248 C1257 1.390 . S
C1249 C1248 1.387 . S
C1249 C1251 1.387 1_545 S
H1250 C1257 0.950 . S
C1251 C1249 1.387 1_565 S
C1251 C1253 1.390 . S
C1251 H1255 0.950 . S
H1252 C1248 0.950 . S
C1253 C1251 1.390 . S
C1253 C1254 1.387 1_565 S
C1253 H1256 0.950 . S
C1254 C1253 1.387 1_545 S
C1254 C1257 1.387 . S
H1255 C1251 0.950 . S
H1256 C1253 0.950 . S
C1257 C1248 1.390 . S
C1257 H1250 0.950 . S
C1257 C1254 1.387 . S
C1258 C1259 1.387 . S
C1258 H1262 0.950 . S
C1258 C1267 1.390 . S
C1259 C1258 1.387 . S
C1259 C1261 1.387 . S
H1260 C1267 0.950 . S
C1261 C1259 1.387 . S
C1261 C1263 1.390 . S
C1261 H1265 0.950 . S
H1262 C1258 0.950 . S
C1263 C1261 1.390 . S
C1263 C1264 1.387 . S
C1263 H1266 0.950 . S
C1264 C1263 1.387 . S
C1264 C1267 1.387 . S
H1265 C1261 0.950 . S
H1266 C1263 0.950 . S
C1267 C1258 1.390 . S
C1267 H1260 0.950 . S
C1267 C1264 1.387 . S
C1268 C1269 1.387 1_545 S
C1268 H1272 0.950 . S
C1268 C1277 1.390 . S
C1269 C1268 1.387 1_565 S
C1269 C1271 1.387 . S
H1270 C1277 0.950 . S
C1271 C1269 1.387 . S
C1271 C1273 1.390 . S
C1271 H1275 0.950 . S
H1272 C1268 0.950 . S
C1273 C1271 1.390 . S
C1273 C1274 1.387 . S
C1273 H1276 0.950 . S
C1274 C1273 1.387 . S
C1274 C1277 1.387 1_565 S
H1275 C1271 0.950 . S
H1276 C1273 0.950 . S
C1277 C1268 1.390 . S
C1277 H1270 0.950 . S
C1277 C1274 1.387 1_545 S
C1278 C1279 1.387 . S
C1278 H1282 0.950 . S
C1278 C1287 1.390 . S
C1279 C1278 1.387 . S
C1279 C1281 1.387 . S
H1280 C1287 0.950 . S
C1281 C1279 1.387 . S
C1281 C1283 1.390 . S
C1281 H1285 0.950 . S
H1282 C1278 0.950 . S
C1283 C1281 1.390 . S
C1283 C1284 1.387 . S
C1283 H1286 0.950 . S
C1284 C1283 1.387 . S
C1284 C1287 1.387 . S
H1285 C1281 0.950 . S
H1286 C1283 0.950 . S
C1287 C1278 1.390 . S
C1287 H1280 0.950 . S
C1287 C1284 1.387 . S
C1288 C1289 1.387 . S
C1288 H1292 0.950 . S
C1288 C1297 1.390 . S
C1289 C1288 1.387 . S
C1289 C1291 1.387 . S
H1290 C1297 0.950 . S
C1291 C1289 1.387 . S
C1291 C1293 1.390 . S
C1291 H1295 0.950 . S
H1292 C1288 0.950 . S
C1293 C1291 1.390 . S
C1293 C1294 1.387 . S
C1293 H1296 0.950 . S
C1294 C1293 1.387 . S
C1294 C1297 1.387 . S
H1295 C1291 0.950 . S
H1296 C1293 0.950 . S
C1297 C1288 1.390 . S
C1297 H1290 0.950 . S
C1297 C1294 1.387 . S
C1298 C1299 1.387 . S
C1298 H1302 0.950 . S
C1298 C1307 1.390 . S
C1299 C1298 1.387 . S
C1299 C1301 1.387 . S
H1300 C1307 0.950 . S
C1301 C1299 1.387 . S
C1301 C1303 1.390 . S
C1301 H1305 0.950 . S
H1302 C1298 0.950 . S
C1303 C1301 1.390 . S
C1303 C1304 1.387 . S
C1303 H1306 0.950 . S
C1304 C1303 1.387 . S
C1304 C1307 1.387 . S
H1305 C1301 0.950 . S
H1306 C1303 0.950 . S
C1307 C1298 1.390 . S
C1307 H1300 0.950 . S
C1307 C1304 1.387 . S
C1308 C1309 1.387 . S
C1308 H1312 0.950 . S
C1308 C1317 1.390 . S
C1309 C1308 1.387 . S
C1309 C1311 1.387 . S
H1310 C1317 0.950 . S
C1311 C1309 1.387 . S
C1311 C1313 1.390 . S
C1311 H1315 0.950 . S
H1312 C1308 0.950 . S
C1313 C1311 1.390 . S
C1313 C1314 1.387 . S
C1313 H1316 0.950 . S
C1314 C1313 1.387 . S
C1314 C1317 1.387 . S
H1315 C1311 0.950 . S
H1316 C1313 0.950 . S
C1317 C1308 1.390 . S
C1317 H1310 0.950 . S
C1317 C1314 1.387 . S
C1318 C1319 1.387 . S
C1318 H1322 0.950 . S
C1318 C1327 1.390 . S
C1319 C1318 1.387 . S
C1319 C1321 1.387 . S
H1320 C1327 0.950 . S
C1321 C1319 1.387 . S
C1321 C1323 1.390 . S
C1321 H1325 0.950 . S
H1322 C1318 0.950 . S
C1323 C1321 1.390 . S
C1323 C1324 1.387 . S
C1323 H1326 0.950 . S
C1324 C1323 1.387 . S
C1324 C1327 1.387 . S
H1325 C1321 0.950 . S
H1326 C1323 0.950 . S
C1327 C1318 1.390 . S
C1327 H1320 0.950 . S
C1327 C1324 1.387 . S
C1328 C1329 1.387 1_565 S
C1328 H1332 0.950 . S
C1328 C1337 1.390 . S
C1329 C1328 1.387 1_545 S
C1329 C1331 1.387 . S
H1330 C1337 0.950 . S
C1331 C1329 1.387 . S
C1331 C1333 1.390 . S
C1331 H1335 0.950 . S
H1332 C1328 0.950 . S
C1333 C1331 1.390 . S
C1333 C1334 1.387 . S
C1333 H1336 0.950 . S
C1334 C1333 1.387 . S
C1334 C1337 1.387 1_545 S
H1335 C1331 0.950 . S
H1336 C1333 0.950 . S
C1337 C1328 1.390 . S
C1337 H1330 0.950 . S
C1337 C1334 1.387 1_565 S
C1338 C1339 1.387 . S
C1338 H1342 0.950 . S
C1338 C1347 1.390 . S
C1339 C1338 1.387 . S
C1339 C1341 1.387 . S
H1340 C1347 0.950 . S
C1341 C1339 1.387 . S
C1341 C1343 1.390 . S
C1341 H1345 0.950 . S
H1342 C1338 0.950 . S
C1343 C1341 1.390 . S
C1343 C1344 1.387 . S
C1343 H1346 0.950 . S
C1344 C1343 1.387 . S
C1344 C1347 1.387 . S
H1345 C1341 0.950 . S
H1346 C1343 0.950 . S
C1347 C1338 1.390 . S
C1347 H1340 0.950 . S
C1347 C1344 1.387 . S
C1348 C1349 1.387 . S
C1348 H1352 0.950 . S
C1348 C1357 1.390 . S
C1349 C1348 1.387 . S
C1349 C1351 1.387 1_565 S
H1350 C1357 0.950 . S
C1351 C1349 1.387 1_545 S
C1351 C1353 1.390 . S
C1351 H1355 0.950 . S
H1352 C1348 0.950 . S
C1353 C1351 1.390 . S
C1353 C1354 1.387 1_545 S
C1353 H1356 0.950 . S
C1354 C1353 1.387 1_565 S
C1354 C1357 1.387 . S
H1355 C1351 0.950 . S
H1356 C1353 0.950 . S
C1357 C1348 1.390 . S
C1357 H1350 0.950 . S
C1357 C1354 1.387 . S
C1358 C1359 1.387 . S
C1358 H1362 0.950 . S
C1358 C1367 1.390 . S
C1359 C1358 1.387 . S
C1359 C1361 1.387 . S
H1360 C1367 0.950 . S
C1361 C1359 1.387 . S
C1361 C1363 1.390 . S
C1361 H1365 0.950 . S
H1362 C1358 0.950 . S
C1363 C1361 1.390 . S
C1363 C1364 1.387 . S
C1363 H1366 0.950 . S
C1364 C1363 1.387 . S
C1364 C1367 1.387 . S
H1365 C1361 0.950 . S
H1366 C1363 0.950 . S
C1367 C1358 1.390 . S
C1367 H1360 0.950 . S
C1367 C1364 1.387 . S
C1368 C1369 1.387 . S
C1368 H1372 0.950 . S
C1368 C1377 1.390 . S
C1369 C1368 1.387 . S
C1369 C1371 1.387 . S
H1370 C1377 0.950 . S
C1371 C1369 1.387 . S
C1371 C1373 1.390 . S
C1371 H1375 0.950 . S
H1372 C1368 0.950 . S
C1373 C1371 1.390 . S
C1373 C1374 1.387 . S
C1373 H1376 0.950 . S
C1374 C1373 1.387 . S
C1374 C1377 1.387 . S
H1375 C1371 0.950 . S
H1376 C1373 0.950 . S
C1377 C1368 1.390 . S
C1377 H1370 0.950 . S
C1377 C1374 1.387 . S
C1378 C1379 1.387 . S
C1378 H1382 0.950 . S
C1378 C1387 1.390 . S
C1379 C1378 1.387 . S
C1379 C1381 1.387 . S
H1380 C1387 0.950 . S
C1381 C1379 1.387 . S
C1381 C1383 1.390 . S
C1381 H1385 0.950 . S
H1382 C1378 0.950 . S
C1383 C1381 1.390 . S
C1383 C1384 1.387 . S
C1383 H1386 0.950 . S
C1384 C1383 1.387 . S
C1384 C1387 1.387 . S
H1385 C1381 0.950 . S
H1386 C1383 0.950 . S
C1387 C1378 1.390 . S
C1387 H1380 0.950 . S
C1387 C1384 1.387 . S
C1388 C1389 1.387 . S
C1388 H1392 0.950 . S
C1388 C1397 1.390 . S
C1389 C1388 1.387 . S
C1389 C1391 1.387 . S
H1390 C1397 0.950 . S
C1391 C1389 1.387 . S
C1391 C1393 1.390 . S
C1391 H1395 0.950 . S
H1392 C1388 0.950 . S
C1393 C1391 1.390 . S
C1393 C1394 1.387 . S
C1393 H1396 0.950 . S
C1394 C1393 1.387 . S
C1394 C1397 1.387 . S
H1395 C1391 0.950 . S
H1396 C1393 0.950 . S
C1397 C1388 1.390 . S
C1397 H1390 0.950 . S
C1397 C1394 1.387 . S
C1398 C1399 1.387 . S
C1398 H1402 0.950 . S
C1398 C1407 1.390 . S
C1399 C1398 1.387 . S
C1399 C1401 1.387 . S
H1400 C1407 0.950 . S
C1401 C1399 1.387 . S
C1401 C1403 1.390 . S
C1401 H1405 0.950 . S
H1402 C1398 0.950 . S
C1403 C1401 1.390 . S
C1403 C1404 1.387 . S
C1403 H1406 0.950 . S
C1404 C1403 1.387 . S
C1404 C1407 1.387 . S
H1405 C1401 0.950 . S
H1406 C1403 0.950 . S
C1407 C1398 1.390 . S
C1407 H1400 0.950 . S
C1407 C1404 1.387 . S
C1408 C1409 1.387 . S
C1408 H1412 0.950 . S
C1408 C1417 1.390 . S
C1409 C1408 1.387 . S
C1409 C1411 1.387 . S
H1410 C1417 0.950 . S
C1411 C1409 1.387 . S
C1411 C1413 1.390 . S
C1411 H1415 0.950 . S
H1412 C1408 0.950 . S
C1413 C1411 1.390 . S
C1413 C1414 1.387 . S
C1413 H1416 0.950 . S
C1414 C1413 1.387 . S
C1414 C1417 1.387 . S
H1415 C1411 0.950 . S
H1416 C1413 0.950 . S
C1417 C1408 1.390 . S
C1417 H1410 0.950 . S
C1417 C1414 1.387 . S
C1418 C1419 1.387 . S
C1418 H1422 0.950 . S
C1418 C1427 1.390 . S
C1419 C1418 1.387 . S
C1419 C1421 1.387 . S
H1420 C1427 0.950 . S
C1421 C1419 1.387 . S
C1421 C1423 1.390 . S
C1421 H1425 0.950 . S
H1422 C1418 0.950 . S
C1423 C1421 1.390 . S
C1423 C1424 1.387 . S
C1423 H1426 0.950 . S
C1424 C1423 1.387 . S
C1424 C1427 1.387 . S
H1425 C1421 0.950 . S
H1426 C1423 0.950 . S
C1427 C1418 1.390 . S
C1427 H1420 0.950 . S
C1427 C1424 1.387 . S
C1428 C1429 1.387 . S
C1428 H1432 0.950 . S
C1428 C1437 1.390 . S
C1429 C1428 1.387 . S
C1429 C1431 1.387 . S
H1430 C1437 0.950 . S
C1431 C1429 1.387 . S
C1431 C1433 1.390 . S
C1431 H1435 0.950 . S
H1432 C1428 0.950 . S
C1433 C1431 1.390 . S
C1433 C1434 1.387 . S
C1433 H1436 0.950 . S
C1434 C1433 1.387 . S
C1434 C1437 1.387 . S
H1435 C1431 0.950 . S
H1436 C1433 0.950 . S
C1437 C1428 1.390 . S
C1437 H1430 0.950 . S
C1437 C1434 1.387 . S
C1438 C1439 1.387 . S
C1438 H1442 0.950 . S
C1438 C1447 1.390 . S
C1439 C1438 1.387 . S
C1439 C1441 1.387 . S
H1440 C1447 0.950 . S
C1441 C1439 1.387 . S
C1441 C1443 1.390 . S
C1441 H1445 0.950 . S
H1442 C1438 0.950 . S
C1443 C1441 1.390 . S
C1443 C1444 1.387 . S
C1443 H1446 0.950 . S
C1444 C1443 1.387 . S
C1444 C1447 1.387 . S
H1445 C1441 0.950 . S
H1446 C1443 0.950 . S
C1447 C1438 1.390 . S
C1447 H1440 0.950 . S
C1447 C1444 1.387 . S
C1448 C1449 1.387 . S
C1448 H1452 0.950 . S
C1448 C1457 1.390 . S
C1449 C1448 1.387 . S
C1449 C1451 1.387 . S
H1450 C1457 0.950 . S
C1451 C1449 1.387 . S
C1451 C1453 1.390 . S
C1451 H1455 0.950 . S
H1452 C1448 0.950 . S
C1453 C1451 1.390 . S
C1453 C1454 1.387 . S
C1453 H1456 0.950 . S
C1454 C1453 1.387 . S
C1454 C1457 1.387 . S
H1455 C1451 0.950 . S
H1456 C1453 0.950 . S
C1457 C1448 1.390 . S
C1457 H1450 0.950 . S
C1457 C1454 1.387 . S
C1458 C1459 1.387 . S
C1458 H1462 0.950 . S
C1458 C1467 1.390 . S
C1459 C1458 1.387 . S
C1459 C1461 1.387 . S
H1460 C1467 0.950 . S
C1461 C1459 1.387 . S
C1461 C1463 1.390 . S
C1461 H1465 0.950 . S
H1462 C1458 0.950 . S
C1463 C1461 1.390 . S
C1463 C1464 1.387 . S
C1463 H1466 0.950 . S
C1464 C1463 1.387 . S
C1464 C1467 1.387 . S
H1465 C1461 0.950 . S
H1466 C1463 0.950 . S
C1467 C1458 1.390 . S
C1467 H1460 0.950 . S
C1467 C1464 1.387 . S
C1468 C1469 1.387 . S
C1468 H1472 0.950 . S
C1468 C1477 1.390 . S
C1469 C1468 1.387 . S
C1469 C1471 1.387 . S
H1470 C1477 0.950 . S
C1471 C1469 1.387 . S
C1471 C1473 1.390 . S
C1471 H1475 0.950 . S
H1472 C1468 0.950 . S
C1473 C1471 1.390 . S
C1473 C1474 1.387 . S
C1473 H1476 0.950 . S
C1474 C1473 1.387 . S
C1474 C1477 1.387 . S
H1475 C1471 0.950 . S
H1476 C1473 0.950 . S
C1477 C1468 1.390 . S
C1477 H1470 0.950 . S
C1477 C1474 1.387 . S
C1478 C1479 1.387 . S
C1478 H1482 0.950 . S
C1478 C1487 1.390 . S
C1479 C1478 1.387 . S
C1479 C1481 1.387 . S
H1480 C1487 0.950 . S
C1481 C1479 1.387 . S
C1481 C1483 1.390 . S
C1481 H1485 0.950 . S
H1482 C1478 0.950 . S
C1483 C1481 1.390 . S
C1483 C1484 1.387 . S
C1483 H1486 0.950 . S
C1484 C1483 1.387 . S
C1484 C1487 1.387 . S
H1485 C1481 0.950 . S
H1486 C1483 0.950 . S
C1487 C1478 1.390 . S
C1487 H1480 0.950 . S
C1487 C1484 1.387 . S
C1488 C1489 1.387 . S
C1488 H1492 0.950 . S
C1488 C1497 1.390 . S
C1489 C1488 1.387 . S
C1489 C1491 1.387 . S
H1490 C1497 0.950 . S
C1491 C1489 1.387 . S
C1491 C1493 1.390 . S
C1491 H1495 0.950 . S
H1492 C1488 0.950 . S
C1493 C1491 1.390 . S
C1493 C1494 1.387 . S
C1493 H1496 0.950 . S
C1494 C1493 1.387 . S
C1494 C1497 1.387 . S
H1495 C1491 0.950 . S
H1496 C1493 0.950 . S
C1497 C1488 1.390 . S
C1497 H1490 0.950 . S
C1497 C1494 1.387 . S
C1498 C1499 1.387 . S
C1498 H1502 0.950 . S
C1498 C1507 1.390 . S
C1499 C1498 1.387 . S
C1499 C1501 1.387 . S
H1500 C1507 0.950 . S
C1501 C1499 1.387 . S
C1501 C1503 1.390 . S
C1501 H1505 0.950 . S
H1502 C1498 0.950 . S
C1503 C1501 1.390 . S
C1503 C1504 1.387 . S
C1503 H1506 0.950 . S
C1504 C1503 1.387 . S
C1504 C1507 1.387 . S
H1505 C1501 0.950 . S
H1506 C1503 0.950 . S
C1507 C1498 1.390 . S
C1507 H1500 0.950 . S
C1507 C1504 1.387 . S
C1508 C1509 1.387 . S
C1508 H1512 0.950 . S
C1508 C1517 1.390 . S
C1509 C1508 1.387 . S
C1509 C1511 1.387 . S
H1510 C1517 0.950 . S
C1511 C1509 1.387 . S
C1511 C1513 1.390 . S
C1511 H1515 0.950 . S
H1512 C1508 0.950 . S
C1513 C1511 1.390 . S
C1513 C1514 1.387 . S
C1513 H1516 0.950 . S
C1514 C1513 1.387 . S
C1514 C1517 1.387 . S
H1515 C1511 0.950 . S
H1516 C1513 0.950 . S
C1517 C1508 1.390 . S
C1517 H1510 0.950 . S
C1517 C1514 1.387 . S
C1518 C1519 1.387 . S
C1518 H1522 0.950 . S
C1518 C1527 1.390 . S
C1519 C1518 1.387 . S
C1519 C1521 1.387 . S
H1520 C1527 0.950 . S
C1521 C1519 1.387 . S
C1521 C1523 1.390 . S
C1521 H1525 0.950 . S
H1522 C1518 0.950 . S
C1523 C1521 1.390 . S
C1523 C1524 1.387 . S
C1523 H1526 0.950 . S
C1524 C1523 1.387 . S
C1524 C1527 1.387 . S
H1525 C1521 0.950 . S
H1526 C1523 0.950 . S
C1527 C1518 1.390 . S
C1527 H1520 0.950 . S
C1527 C1524 1.387 . S
C1528 C1529 1.387 . S
C1528 H1532 0.950 . S
C1528 C1537 1.390 . S
C1529 C1528 1.387 . S
C1529 C1531 1.387 . S
H1530 C1537 0.950 . S
C1531 C1529 1.387 . S
C1531 C1533 1.390 . S
C1531 H1535 0.950 . S
H1532 C1528 0.950 . S
C1533 C1531 1.390 . S
C1533 C1534 1.387 . S
C1533 H1536 0.950 . S
C1534 C1533 1.387 . S
C1534 C1537 1.387 . S
H1535 C1531 0.950 . S
H1536 C1533 0.950 . S
C1537 C1528 1.390 . S
C1537 H1530 0.950 . S
C1537 C1534 1.387 . S
C1538 C1539 1.387 . S
C1538 H1542 0.950 . S
C1538 C1547 1.390 . S
C1539 C1538 1.387 . S
C1539 C1541 1.387 . S
H1540 C1547 0.950 . S
C1541 C1539 1.387 . S
C1541 C1543 1.390 . S
C1541 H1545 0.950 . S
H1542 C1538 0.950 . S
C1543 C1541 1.390 . S
C1543 C1544 1.387 . S
C1543 H1546 0.950 . S
C1544 C1543 1.387 . S
C1544 C1547 1.387 . S
H1545 C1541 0.950 . S
H1546 C1543 0.950 . S
C1547 C1538 1.390 . S
C1547 H1540 0.950 . S
C1547 C1544 1.387 . S
C1548 C1549 1.387 . S
C1548 H1552 0.950 . S
C1548 C1557 1.390 . S
C1549 C1548 1.387 . S
C1549 C1551 1.387 . S
H1550 C1557 0.950 . S
C1551 C1549 1.387 . S
C1551 C1553 1.390 . S
C1551 H1555 0.950 . S
H1552 C1548 0.950 . S
C1553 C1551 1.390 . S
C1553 C1554 1.387 . S
C1553 H1556 0.950 . S
C1554 C1553 1.387 . S
C1554 C1557 1.387 . S
H1555 C1551 0.950 . S
H1556 C1553 0.950 . S
C1557 C1548 1.390 . S
C1557 H1550 0.950 . S
C1557 C1554 1.387 . S
C1558 C1559 1.387 . S
C1558 H1562 0.950 . S
C1558 C1567 1.390 . S
C1559 C1558 1.387 . S
C1559 C1561 1.387 . S
H1560 C1567 0.950 . S
C1561 C1559 1.387 . S
C1561 C1563 1.390 . S
C1561 H1565 0.950 . S
H1562 C1558 0.950 . S
C1563 C1561 1.390 . S
C1563 C1564 1.387 . S
C1563 H1566 0.950 . S
C1564 C1563 1.387 . S
C1564 C1567 1.387 . S
H1565 C1561 0.950 . S
H1566 C1563 0.950 . S
C1567 C1558 1.390 . S
C1567 H1560 0.950 . S
C1567 C1564 1.387 . S
C1568 C1569 1.387 . S
C1568 H1572 0.950 . S
C1568 C1577 1.390 . S
C1569 C1568 1.387 . S
C1569 C1571 1.387 . S
H1570 C1577 0.950 . S
C1571 C1569 1.387 . S
C1571 C1573 1.390 . S
C1571 H1575 0.950 . S
H1572 C1568 0.950 . S
C1573 C1571 1.390 . S
C1573 C1574 1.387 . S
C1573 H1576 0.950 . S
C1574 C1573 1.387 . S
C1574 C1577 1.387 . S
H1575 C1571 0.950 . S
H1576 C1573 0.950 . S
C1577 C1568 1.390 . S
C1577 H1570 0.950 . S
C1577 C1574 1.387 . S
C1578 C1579 1.387 . S
C1578 H1582 0.950 . S
C1578 C1587 1.390 . S
C1579 C1578 1.387 . S
C1579 C1581 1.387 . S
H1580 C1587 0.950 . S
C1581 C1579 1.387 . S
C1581 C1583 1.390 . S
C1581 H1585 0.950 . S
H1582 C1578 0.950 . S
C1583 C1581 1.390 . S
C1583 C1584 1.387 . S
C1583 H1586 0.950 . S
C1584 C1583 1.387 . S
C1584 C1587 1.387 . S
H1585 C1581 0.950 . S
H1586 C1583 0.950 . S
C1587 C1578 1.390 . S
C1587 H1580 0.950 . S
C1587 C1584 1.387 . S
C1588 C1589 1.387 . S
C1588 H1592 0.950 . S
C1588 C1597 1.390 . S
C1589 C1588 1.387 . S
C1589 C1591 1.387 . S
H1590 C1597 0.950 . S
C1591 C1589 1.387 . S
C1591 C1593 1.390 . S
C1591 H1595 0.950 . S
H1592 C1588 0.950 . S
C1593 C1591 1.390 . S
C1593 C1594 1.387 . S
C1593 H1596 0.950 . S
C1594 C1593 1.387 . S
C1594 C1597 1.387 . S
H1595 C1591 0.950 . S
H1596 C1593 0.950 . S
C1597 C1588 1.390 . S
C1597 H1590 0.950 . S
C1597 C1594 1.387 . S
C1598 C1599 1.387 . S
C1598 H1602 0.950 . S
C1598 C1607 1.390 . S
C1599 C1598 1.387 . S
C1599 C1601 1.387 . S
H1600 C1607 0.950 . S
C1601 C1599 1.387 . S
C1601 C1603 1.390 . S
C1601 H1605 0.950 . S
H1602 C1598 0.950 . S
C1603 C1601 1.390 . S
C1603 C1604 1.387 . S
C1603 H1606 0.950 . S
C1604 C1603 1.387 . S
C1604 C1607 1.387 . S
H1605 C1601 0.950 . S
H1606 C1603 0.950 . S
C1607 C1598 1.390 . S
C1607 H1600 0.950 . S
C1607 C1604 1.387 . S
C1608 C1609 1.387 . S
C1608 H1612 0.950 . S
C1608 C1617 1.390 . S
C1609 C1608 1.387 . S
C1609 C1611 1.387 . S
H1610 C1617 0.950 . S
C1611 C1609 1.387 . S
C1611 C1613 1.390 . S
C1611 H1615 0.950 . S
H1612 C1608 0.950 . S
C1613 C1611 1.390 . S
C1613 C1614 1.387 . S
C1613 H1616 0.950 . S
C1614 C1613 1.387 . S
C1614 C1617 1.387 . S
H1615 C1611 0.950 . S
H1616 C1613 0.950 . S
C1617 C1608 1.390 . S
C1617 H1610 0.950 . S
C1617 C1614 1.387 . S
C1618 C1619 1.387 . S
C1618 H1622 0.950 . S
C1618 C1627 1.390 . S
C1619 C1618 1.387 . S
C1619 C1621 1.387 . S
H1620 C1627 0.950 . S
C1621 C1619 1.387 . S
C1621 C1623 1.390 . S
C1621 H1625 0.950 . S
H1622 C1618 0.950 . S
C1623 C1621 1.390 . S
C1623 C1624 1.387 . S
C1623 H1626 0.950 . S
C1624 C1623 1.387 . S
C1624 C1627 1.387 . S
H1625 C1621 0.950 . S
H1626 C1623 0.950 . S
C1627 C1618 1.390 . S
C1627 H1620 0.950 . S
C1627 C1624 1.387 . S
C1628 C1629 1.387 . S
C1628 H1632 0.950 . S
C1628 C1637 1.390 . S
C1629 C1628 1.387 . S
C1629 C1631 1.387 . S
H1630 C1637 0.950 . S
C1631 C1629 1.387 . S
C1631 C1633 1.390 . S
C1631 H1635 0.950 . S
H1632 C1628 0.950 . S
C1633 C1631 1.390 . S
C1633 C1634 1.387 . S
C1633 H1636 0.950 . S
C1634 C1633 1.387 . S
C1634 C1637 1.387 . S
H1635 C1631 0.950 . S
H1636 C1633 0.950 . S
C1637 C1628 1.390 . S
C1637 H1630 0.950 . S
C1637 C1634 1.387 . S
C1638 C1639 1.387 . S
C1638 H1642 0.950 . S
C1638 C1647 1.390 . S
C1639 C1638 1.387 . S
C1639 C1641 1.387 . S
H1640 C1647 0.950 . S
C1641 C1639 1.387 . S
C1641 C1643 1.390 . S
C1641 H1645 0.950 . S
H1642 C1638 0.950 . S
C1643 C1641 1.390 . S
C1643 C1644 1.387 . S
C1643 H1646 0.950 . S
C1644 C1643 1.387 . S
C1644 C1647 1.387 . S
H1645 C1641 0.950 . S
H1646 C1643 0.950 . S
C1647 C1638 1.390 . S
C1647 H1640 0.950 . S
C1647 C1644 1.387 . S
C1648 C1649 1.387 . S
C1648 H1652 0.950 . S
C1648 C1657 1.390 . S
C1649 C1648 1.387 . S
C1649 C1651 1.387 . S
H1650 C1657 0.950 . S
C1651 C1649 1.387 . S
C1651 C1653 1.390 . S
C1651 H1655 0.950 . S
H1652 C1648 0.950 . S
C1653 C1651 1.390 . S
C1653 C1654 1.387 . S
C1653 H1656 0.950 . S
C1654 C1653 1.387 . S
C1654 C1657 1.387 . S
H1655 C1651 0.950 . S
H1656 C1653 0.950 . S
C1657 C1648 1.390 . S
C1657 H1650 0.950 . S
C1657 C1654 1.387 . S
C1658 C1659 1.387 . S
C1658 H1662 0.950 . S
C1658 C1667 1.390 . S
C1659 C1658 1.387 . S
C1659 C1661 1.387 . S
H1660 C1667 0.950 . S
C1661 C1659 1.387 . S
C1661 C1663 1.390 . S
C1661 H1665 0.950 . S
H1662 C1658 0.950 . S
C1663 C1661 1.390 . S
C1663 C1664 1.387 . S
C1663 H1666 0.950 . S
C1664 C1663 1.387 . S
C1664 C1667 1.387 . S
H1665 C1661 0.950 . S
H1666 C1663 0.950 . S
C1667 C1658 1.390 . S
C1667 H1660 0.950 . S
C1667 C1664 1.387 . S
C1668 C1669 1.387 . S
C1668 H1672 0.950 . S
C1668 C1677 1.390 . S
C1669 C1668 1.387 . S
C1669 C1671 1.387 . S
H1670 C1677 0.950 . S
C1671 C1669 1.387 . S
C1671 C1673 1.390 . S
C1671 H1675 0.950 . S
H1672 C1668 0.950 . S
C1673 C1671 1.390 . S
C1673 C1674 1.387 . S
C1673 H1676 0.950 . S
C1674 C1673 1.387 . S
C1674 C1677 1.387 . S
H1675 C1671 0.950 . S
H1676 C1673 0.950 . S
C1677 C1668 1.390 . S
C1677 H1670 0.950 . S
C1677 C1674 1.387 . S
C1678 C1679 1.387 . S
C1678 H1682 0.950 . S
C1678 C1687 1.390 . S
C1679 C1678 1.387 . S
C1679 C1681 1.387 . S
H1680 C1687 0.950 . S
C1681 C1679 1.387 . S
C1681 C1683 1.390 . S
C1681 H1685 0.950 . S
H1682 C1678 0.950 . S
C1683 C1681 1.390 . S
C1683 C1684 1.387 . S
C1683 H1686 0.950 . S
C1684 C1683 1.387 . S
C1684 C1687 1.387 . S
H1685 C1681 0.950 . S
H1686 C1683 0.950 . S
C1687 C1678 1.390 . S
C1687 H1680 0.950 . S
C1687 C1684 1.387 . S
C1688 C1689 1.387 . S
C1688 H1692 0.950 . S
C1688 C1697 1.390 . S
C1689 C1688 1.387 . S
C1689 C1691 1.387 . S
H1690 C1697 0.950 . S
C1691 C1689 1.387 . S
C1691 C1693 1.390 . S
C1691 H1695 0.950 . S
H1692 C1688 0.950 . S
C1693 C1691 1.390 . S
C1693 C1694 1.387 . S
C1693 H1696 0.950 . S
C1694 C1693 1.387 . S
C1694 C1697 1.387 . S
H1695 C1691 0.950 . S
H1696 C1693 0.950 . S
C1697 C1688 1.390 . S
C1697 H1690 0.950 . S
C1697 C1694 1.387 . S
C1698 C1699 1.387 . S
C1698 H1702 0.950 . S
C1698 C1707 1.390 . S
C1699 C1698 1.387 . S
C1699 C1701 1.387 . S
H1700 C1707 0.950 . S
C1701 C1699 1.387 . S
C1701 C1703 1.390 . S
C1701 H1705 0.950 . S
H1702 C1698 0.950 . S
C1703 C1701 1.390 . S
C1703 C1704 1.387 . S
C1703 H1706 0.950 . S
C1704 C1703 1.387 . S
C1704 C1707 1.387 . S
H1705 C1701 0.950 . S
H1706 C1703 0.950 . S
C1707 C1698 1.390 . S
C1707 H1700 0.950 . S
C1707 C1704 1.387 . S
C1708 C1709 1.387 . S
C1708 H1712 0.950 . S
C1708 C1717 1.390 . S
C1709 C1708 1.387 . S
C1709 C1711 1.387 . S
H1710 C1717 0.950 . S
C1711 C1709 1.387 . S
C1711 C1713 1.390 . S
C1711 H1715 0.950 . S
H1712 C1708 0.950 . S
C1713 C1711 1.390 . S
C1713 C1714 1.387 . S
C1713 H1716 0.950 . S
C1714 C1713 1.387 . S
C1714 C1717 1.387 . S
H1715 C1711 0.950 . S
H1716 C1713 0.950 . S
C1717 C1708 1.390 . S
C1717 H1710 0.950 . S
C1717 C1714 1.387 . S
C1718 C1719 1.387 . S
C1718 H1722 0.950 . S
C1718 C1727 1.390 . S
C1719 C1718 1.387 . S
C1719 C1721 1.387 . S
H1720 C1727 0.950 . S
C1721 C1719 1.387 . S
C1721 C1723 1.390 . S
C1721 H1725 0.950 . S
H1722 C1718 0.950 . S
C1723 C1721 1.390 . S
C1723 C1724 1.387 . S
C1723 H1726 0.950 . S
C1724 C1723 1.387 . S
C1724 C1727 1.387 . S
H1725 C1721 0.950 . S
H1726 C1723 0.950 . S
C1727 C1718 1.390 . S
C1727 H1720 0.950 . S
C1727 C1724 1.387 . S
C1728 C1729 1.387 . S
C1728 H1732 0.950 . S
C1728 C1737 1.390 . S
C1729 C1728 1.387 . S
C1729 C1731 1.387 . S
H1730 C1737 0.950 . S
C1731 C1729 1.387 . S
C1731 C1733 1.390 . S
C1731 H1735 0.950 . S
H1732 C1728 0.950 . S
C1733 C1731 1.390 . S
C1733 C1734 1.387 . S
C1733 H1736 0.950 . S
C1734 C1733 1.387 . S
C1734 C1737 1.387 . S
H1735 C1731 0.950 . S
H1736 C1733 0.950 . S
C1737 C1728 1.390 . S
C1737 H1730 0.950 . S
C1737 C1734 1.387 . S
C1738 C1739 1.387 . S
C1738 H1742 0.950 . S
C1738 C1747 1.390 . S
C1739 C1738 1.387 . S
C1739 C1741 1.387 . S
H1740 C1747 0.950 . S
C1741 C1739 1.387 . S
C1741 C1743 1.390 . S
C1741 H1745 0.950 . S
H1742 C1738 0.950 . S
C1743 C1741 1.390 . S
C1743 C1744 1.387 . S
C1743 H1746 0.950 . S
C1744 C1743 1.387 . S
C1744 C1747 1.387 . S
H1745 C1741 0.950 . S
H1746 C1743 0.950 . S
C1747 C1738 1.390 . S
C1747 H1740 0.950 . S
C1747 C1744 1.387 . S
C1748 C1749 1.387 . S
C1748 H1752 0.950 . S
C1748 C1757 1.390 . S
C1749 C1748 1.387 . S
C1749 C1751 1.387 . S
H1750 C1757 0.950 . S
C1751 C1749 1.387 . S
C1751 C1753 1.390 . S
C1751 H1755 0.950 . S
H1752 C1748 0.950 . S
C1753 C1751 1.390 . S
C1753 C1754 1.387 . S
C1753 H1756 0.950 . S
C1754 C1753 1.387 . S
C1754 C1757 1.387 . S
H1755 C1751 0.950 . S
H1756 C1753 0.950 . S
C1757 C1748 1.390 . S
C1757 H1750 0.950 . S
C1757 C1754 1.387 . S
C1758 C1759 1.387 . S
C1758 H1762 0.950 . S
C1758 C1767 1.390 . S
C1759 C1758 1.387 . S
C1759 C1761 1.387 . S
H1760 C1767 0.950 . S
C1761 C1759 1.387 . S
C1761 C1763 1.390 . S
C1761 H1765 0.950 . S
H1762 C1758 0.950 . S
C1763 C1761 1.390 . S
C1763 C1764 1.387 . S
C1763 H1766 0.950 . S
C1764 C1763 1.387 . S
C1764 C1767 1.387 . S
H1765 C1761 0.950 . S
H1766 C1763 0.950 . S
C1767 C1758 1.390 . S
C1767 H1760 0.950 . S
C1767 C1764 1.387 . S
C1768 C1769 1.387 . S
C1768 H1772 0.950 . S
C1768 C1777 1.390 . S
C1769 C1768 1.387 . S
C1769 C1771 1.387 . S
H1770 C1777 0.950 . S
C1771 C1769 1.387 . S
C1771 C1773 1.390 . S
C1771 H1775 0.950 . S
H1772 C1768 0.950 . S
C1773 C1771 1.390 . S
C1773 C1774 1.387 . S
C1773 H1776 0.950 . S
C1774 C1773 1.387 . S
C1774 C1777 1.387 . S
H1775 C1771 0.950 . S
H1776 C1773 0.950 . S
C1777 C1768 1.390 . S
C1777 H1770 0.950 . S
C1777 C1774 1.387 . S
C1778 C1779 1.387 . S
C1778 H1782 0.950 . S
C1778 C1787 1.390 . S
C1779 C1778 1.387 . S
C1779 C1781 1.387 . S
H1780 C1787 0.950 . S
C1781 C1779 1.387 . S
C1781 C1783 1.390 . S
C1781 H1785 0.950 . S
H1782 C1778 0.950 . S
C1783 C1781 1.390 . S
C1783 C1784 1.387 . S
C1783 H1786 0.950 . S
C1784 C1783 1.387 . S
C1784 C1787 1.387 . S
H1785 C1781 0.950 . S
H1786 C1783 0.950 . S
C1787 C1778 1.390 . S
C1787 H1780 0.950 . S
C1787 C1784 1.387 . S
C1788 C1789 1.387 . S
C1788 H1792 0.950 . S
C1788 C1797 1.390 . S
C1789 C1788 1.387 . S
C1789 C1791 1.387 . S
H1790 C1797 0.950 . S
C1791 C1789 1.387 . S
C1791 C1793 1.390 . S
C1791 H1795 0.950 . S
H1792 C1788 0.950 . S
C1793 C1791 1.390 . S
C1793 C1794 1.387 . S
C1793 H1796 0.950 . S
C1794 C1793 1.387 . S
C1794 C1797 1.387 . S
H1795 C1791 0.950 . S
H1796 C1793 0.950 . S
C1797 C1788 1.390 . S
C1797 H1790 0.950 . S
C1797 C1794 1.387 . S
C1798 C1799 1.387 . S
C1798 H1802 0.950 . S
C1798 C1807 1.390 . S
C1799 C1798 1.387 . S
C1799 C1801 1.387 . S
H1800 C1807 0.950 . S
C1801 C1799 1.387 . S
C1801 C1803 1.390 . S
C1801 H1805 0.950 . S
H1802 C1798 0.950 . S
C1803 C1801 1.390 . S
C1803 C1804 1.387 . S
C1803 H1806 0.950 . S
C1804 C1803 1.387 . S
C1804 C1807 1.387 . S
H1805 C1801 0.950 . S
H1806 C1803 0.950 . S
C1807 C1798 1.390 . S
C1807 H1800 0.950 . S
C1807 C1804 1.387 . S
C1808 C1809 1.403 . S
C1808 H1812 0.935 1_655 S
C1808 C1817 1.390 . S
C1809 C1808 1.403 . S
C1809 C1811 1.387 . S
H1810 C1817 0.935 1_455 S
C1811 C1809 1.387 . S
C1811 C1813 1.390 . S
C1811 H1815 0.950 . S
H1812 C1808 0.935 1_455 S
C1813 C1811 1.390 . S
C1813 C1814 1.387 . S
C1813 H1816 0.950 . S
C1814 C1813 1.387 . S
C1814 C1817 1.403 . S
H1815 C1811 0.950 . S
H1816 C1813 0.950 . S
C1817 C1808 1.390 . S
C1817 H1810 0.935 1_655 S
C1817 C1814 1.403 . S
C1818 C1819 1.387 . S
C1818 H1822 0.950 . S
C1818 C1827 1.390 . S
C1819 C1818 1.387 . S
C1819 C1821 1.387 . S
H1820 C1827 0.950 . S
C1821 C1819 1.387 . S
C1821 C1823 1.390 . S
C1821 H1825 0.950 . S
H1822 C1818 0.950 . S
C1823 C1821 1.390 . S
C1823 C1824 1.387 . S
C1823 H1826 0.950 . S
C1824 C1823 1.387 . S
C1824 C1827 1.387 . S
H1825 C1821 0.950 . S
H1826 C1823 0.950 . S
C1827 C1818 1.390 . S
C1827 H1820 0.950 . S
C1827 C1824 1.387 . S
C1828 C1829 1.387 . S
C1828 H1832 0.950 . S
C1828 C1837 1.390 . S
C1829 C1828 1.387 . S
C1829 C1831 1.402 . S
H1830 C1837 0.950 . S
C1831 C1829 1.402 . S
C1831 C1833 1.390 . S
C1831 H1835 0.935 1_455 S
H1832 C1828 0.950 . S
C1833 C1831 1.390 . S
C1833 C1834 1.403 . S
C1833 H1836 0.935 1_455 S
C1834 C1833 1.403 . S
C1834 C1837 1.387 . S
H1835 C1831 0.935 1_655 S
H1836 C1833 0.935 1_655 S
C1837 C1828 1.390 . S
C1837 H1830 0.950 . S
C1837 C1834 1.387 . S
C1838 C1839 1.387 . S
C1838 H1842 0.950 . S
C1838 C1847 1.390 . S
C1839 C1838 1.387 . S
C1839 C1841 1.387 . S
H1840 C1847 0.950 . S
C1841 C1839 1.387 . S
C1841 C1843 1.390 . S
C1841 H1845 0.950 . S
H1842 C1838 0.950 . S
C1843 C1841 1.390 . S
C1843 C1844 1.387 . S
C1843 H1846 0.950 . S
C1844 C1843 1.387 . S
C1844 C1847 1.387 . S
H1845 C1841 0.950 . S
H1846 C1843 0.950 . S
C1847 C1838 1.390 . S
C1847 H1840 0.950 . S
C1847 C1844 1.387 . S
C1848 C1849 1.402 . S
C1848 H1852 0.935 1_655 S
C1848 C1857 1.390 . S
C1849 C1848 1.402 . S
C1849 C1851 1.387 . S
H1850 C1857 0.935 1_455 S
C1851 C1849 1.387 . S
C1851 C1853 1.390 . S
C1851 H1855 0.950 . S
H1852 C1848 0.935 1_455 S
C1853 C1851 1.390 . S
C1853 C1854 1.387 . S
C1853 H1856 0.950 . S
C1854 C1853 1.387 . S
C1854 C1857 1.403 . S
H1855 C1851 0.950 . S
H1856 C1853 0.950 . S
C1857 C1848 1.390 . S
C1857 H1850 0.935 1_655 S
C1857 C1854 1.403 . S
C1858 C1859 1.387 . S
C1858 H1862 0.950 . S
C1858 C1867 1.390 . S
C1859 C1858 1.387 . S
C1859 C1861 1.387 . S
H1860 C1867 0.950 . S
C1861 C1859 1.387 . S
C1861 C1863 1.390 . S
C1861 H1865 0.950 . S
H1862 C1858 0.950 . S
C1863 C1861 1.390 . S
C1863 C1864 1.387 . S
C1863 H1866 0.950 . S
C1864 C1863 1.387 . S
C1864 C1867 1.387 . S
H1865 C1861 0.950 . S
H1866 C1863 0.950 . S
C1867 C1858 1.390 . S
C1867 H1860 0.950 . S
C1867 C1864 1.387 . S
C1868 C1869 1.402 . S
C1868 H1872 0.935 1_455 S
C1868 C1877 1.390 . S
C1869 C1868 1.402 . S
C1869 C1871 1.387 . S
H1870 C1877 0.935 1_655 S
C1871 C1869 1.387 . S
C1871 C1873 1.390 . S
C1871 H1875 0.950 . S
H1872 C1868 0.935 1_655 S
C1873 C1871 1.390 . S
C1873 C1874 1.387 . S
C1873 H1876 0.950 . S
C1874 C1873 1.387 . S
C1874 C1877 1.403 . S
H1875 C1871 0.950 . S
H1876 C1873 0.950 . S
C1877 C1868 1.390 . S
C1877 H1870 0.935 1_455 S
C1877 C1874 1.403 . S
C1878 C1879 1.387 . S
C1878 H1882 0.950 . S
C1878 C1887 1.390 . S
C1879 C1878 1.387 . S
C1879 C1881 1.387 . S
H1880 C1887 0.950 . S
C1881 C1879 1.387 . S
C1881 C1883 1.390 . S
C1881 H1885 0.950 . S
H1882 C1878 0.950 . S
C1883 C1881 1.390 . S
C1883 C1884 1.387 . S
C1883 H1886 0.950 . S
C1884 C1883 1.387 . S
C1884 C1887 1.387 . S
H1885 C1881 0.950 . S
H1886 C1883 0.950 . S
C1887 C1878 1.390 . S
C1887 H1880 0.950 . S
C1887 C1884 1.387 . S
C1089 C9 1.907 . S
C1094 C145 1.907 . S
C1099 C995 1.908 . S
C1104 C43 1.908 . S
C1109 C77 1.910 . S
C1114 C485 1.910 . S
C1119 C791 1.911 . S
C1124 C111 1.911 . S
C1129 C179 1.910 . S
C1134 C859 1.910 . S
C1139 C213 1.907 . S
C1144 C349 1.907 . S
C1149 C247 1.908 . S
C1154 C655 1.908 . S
C1159 C417 1.907 . S
C1164 C281 1.907 . S
C1169 C723 1.908 . S
C1174 C315 1.908 . S
C1179 C383 1.908 . S
C1184 C1063 1.908 . S
C1189 C587 1.911 . S
C1194 C451 1.911 . S
C1199 C519 1.911 . S
C1204 C927 1.911 . S
C1209 C689 1.907 . S
C1214 C553 1.907 . S
C1219 C621 1.907 . S
C1224 C1029 1.907 . S
C1229 C757 1.909 . S
C1234 C893 1.909 . S
C1239 C825 1.907 . S
C1244 C961 1.907 . S
C1249 C5 0.575 . S
C1254 C107 0.575 . S
C1259 C73 0.576 . S
C1264 C39 0.576 . S
C1269 C243 0.575 . S
C1274 C141 0.575 . S
C1279 C175 0.564 . S
C1284 C209 0.564 . S
C1289 C379 0.564 . S
C1294 C277 0.564 . S
C1299 C345 0.564 . S
C1304 C311 0.564 . S
C1309 C413 0.575 . S
C1314 C515 0.576 . S
C1319 C481 0.564 . S
C1324 C447 0.564 . S
C1329 C549 0.564 . S
C1334 C651 0.564 . S
C1339 C617 0.576 . S
C1344 C583 0.576 . S
C1349 C787 0.564 . S
C1354 C685 0.564 . S
C1359 C753 0.576 . S
C1364 C719 0.576 . S
C1369 C821 0.564 . S
C1374 C923 0.564 . S
C1379 C889 0.564 . S
C1384 C855 0.564 . S
C1389 C957 0.575 . S
C1394 C1059 0.576 . S
C1399 C1025 0.564 . S
C1404 C991 0.564 . S
C1409 C36 1.811 1_455 S
C1414 C2 1.811 . S
C1419 C104 1.809 1_455 S
C1424 C70 1.809 . S
C1429 C138 1.811 . S
C1434 C172 1.811 1_655 S
C1439 C206 1.811 . S
C1444 C240 1.811 1_655 S
C1449 C308 1.811 1_455 S
C1454 C274 1.811 . S
C1459 C342 1.811 . S
C1464 C376 1.811 1_455 S
C1469 C444 1.809 1_655 S
C1474 C410 1.809 . S
C1479 C478 1.811 . S
C1484 C512 1.811 1_655 S
C1489 C580 1.809 . S
C1494 C546 1.809 . S
C1499 C648 1.811 . S
C1504 C614 1.811 . S
C1509 C716 1.809 . S
C1514 C682 1.809 . S
C1519 C784 1.811 . S
C1524 C750 1.811 . S
C1529 C818 1.809 . S
C1534 C852 1.809 . S
C1539 C920 1.811 . S
C1544 C886 1.811 . S
C1549 C954 1.809 . S
C1554 C988 1.809 . S
C1559 C1056 1.809 . S
C1564 C1022 1.809 . S
C1569 C20 1.096 . S
C1574 C870 1.096 . S
C1579 C836 1.101 . S
C1584 C54 1.101 . S
C1589 C88 1.101 . S
C1594 C938 1.101 . S
C1599 C122 1.101 . S
C1604 C904 1.101 . S
C1609 C1006 1.096 . S
C1614 C156 1.096 . S
C1619 C190 1.101 . S
C1624 C972 1.101 . S
C1629 C224 1.101 . S
C1634 C1074 1.101 . S
C1639 C1040 1.096 . S
C1644 C258 1.096 . S
C1649 C598 1.096 . S
C1654 C292 1.096 . S
C1659 C326 1.096 . S
C1664 C564 1.096 . S
C1669 C666 1.101 . S
C1674 C360 1.101 . S
C1679 C394 1.101 . S
C1684 C632 1.101 . S
C1689 C734 1.096 . S
C1694 C428 1.096 . S
C1699 C462 1.096 . S
C1704 C700 1.096 . S
C1709 C802 1.101 . S
C1714 C496 1.101 . S
C1719 C530 1.096 . S
C1724 C768 1.096 . S
C1729 C33 1.489 . S
C1734 C101 1.489 . S
C1739 C67 1.490 . S
C1744 C135 1.490 . S
C1749 C237 1.490 . S
C1754 C169 1.490 . S
C1759 C271 1.490 . S
C1764 C203 1.490 . S
C1769 C305 1.490 . S
C1774 C373 1.490 . S
C1779 C339 1.491 . S
C1784 C407 1.491 . S
C1789 C509 1.489 . S
C1794 C441 1.489 . S
C1799 C475 1.491 . S
C1804 C543 1.491 . S
C1809 C577 1.489 . S
C1814 C645 1.489 . S
C1819 C611 1.491 . S
C1824 C679 1.491 . S
C1829 C781 1.489 . S
C1834 C713 1.489 . S
C1839 C815 1.491 . S
C1844 C747 1.491 . S
C1849 C917 1.489 . S
C1854 C849 1.489 . S
C1859 C951 1.490 . S
C1864 C883 1.490 . S
C1869 C1053 1.490 . S
C1874 C985 1.490 . S
C1879 C1087 1.491 . S
C1884 C1019 1.491 . S
