# Generated by pormake.
# Topology vbv, (6)-cn, num edge types: 1
# Building blocks:
#     Node 0, Type 0, BuildingBlock: IZENUY_clean_sbu_0, # of connection points: 6
#     Node 1, Type 0, BuildingBlock: IZENUY_clean_sbu_0, # of connection points: 6
#     Node 2, Type 0, BuildingBlock: IZENUY_clean_sbu_0, # of connection points: 6
#     Node 3, Type 0, BuildingBlock: IZENUY_clean_sbu_0, # of connection points: 6
#     Node 4, Type 0, BuildingBlock: IZENUY_clean_sbu_0, # of connection points: 6
#     Node 5, Type 0, BuildingBlock: IZENUY_clean_sbu_0, # of connection points: 6
#     Node 6, Type 0, BuildingBlock: IZENUY_clean_sbu_0, # of connection points: 6
#     Node 7, Type 0, BuildingBlock: IZENUY_clean_sbu_0, # of connection points: 6
#     Node 8, Type 0, BuildingBlock: IZENUY_clean_sbu_0, # of connection points: 6
#     Node 9, Type 0, BuildingBlock: IZENUY_clean_sbu_0, # of connection points: 6
#     Node 10, Type 0, BuildingBlock: IZENUY_clean_sbu_0, # of connection points: 6
#     Node 11, Type 0, BuildingBlock: IZENUY_clean_sbu_0, # of connection points: 6
#     Node 12, Type 0, BuildingBlock: IZENUY_clean_sbu_0, # of connection points: 6
#     Node 13, Type 0, BuildingBlock: IZENUY_clean_sbu_0, # of connection points: 6
#     Node 14, Type 0, BuildingBlock: IZENUY_clean_sbu_0, # of connection points: 6
#     Node 15, Type 0, BuildingBlock: IZENUY_clean_sbu_0, # of connection points: 6
#     Edge 16, Type (0, 0), BuildingBlock: UVAHIK_clean_linker_0, # of connection points: 2
#     Edge 17, Type (0, 0), BuildingBlock: UVAHIK_clean_linker_0, # of connection points: 2
#     Edge 18, Type (0, 0), BuildingBlock: UVAHIK_clean_linker_0, # of connection points: 2
#     Edge 19, Type (0, 0), BuildingBlock: UVAHIK_clean_linker_0, # of connection points: 2
#     Edge 20, Type (0, 0), BuildingBlock: UVAHIK_clean_linker_0, # of connection points: 2
#     Edge 21, Type (0, 0), BuildingBlock: UVAHIK_clean_linker_0, # of connection points: 2
#     Edge 22, Type (0, 0), BuildingBlock: UVAHIK_clean_linker_0, # of connection points: 2
#     Edge 23, Type (0, 0), BuildingBlock: UVAHIK_clean_linker_0, # of connection points: 2
#     Edge 24, Type (0, 0), BuildingBlock: UVAHIK_clean_linker_0, # of connection points: 2
#     Edge 25, Type (0, 0), BuildingBlock: UVAHIK_clean_linker_0, # of connection points: 2
#     Edge 26, Type (0, 0), BuildingBlock: UVAHIK_clean_linker_0, # of connection points: 2
#     Edge 27, Type (0, 0), BuildingBlock: UVAHIK_clean_linker_0, # of connection points: 2
#     Edge 28, Type (0, 0), BuildingBlock: UVAHIK_clean_linker_0, # of connection points: 2
#     Edge 29, Type (0, 0), BuildingBlock: UVAHIK_clean_linker_0, # of connection points: 2
#     Edge 30, Type (0, 0), BuildingBlock: UVAHIK_clean_linker_0, # of connection points: 2
#     Edge 31, Type (0, 0), BuildingBlock: UVAHIK_clean_linker_0, # of connection points: 2
#     Edge 32, Type (0, 0), BuildingBlock: UVAHIK_clean_linker_0, # of connection points: 2
#     Edge 33, Type (0, 0), BuildingBlock: UVAHIK_clean_linker_0, # of connection points: 2
#     Edge 34, Type (0, 0), BuildingBlock: UVAHIK_clean_linker_0, # of connection points: 2
#     Edge 35, Type (0, 0), BuildingBlock: UVAHIK_clean_linker_0, # of connection points: 2
#     Edge 36, Type (0, 0), BuildingBlock: UVAHIK_clean_linker_0, # of connection points: 2
#     Edge 37, Type (0, 0), BuildingBlock: UVAHIK_clean_linker_0, # of connection points: 2
#     Edge 38, Type (0, 0), BuildingBlock: UVAHIK_clean_linker_0, # of connection points: 2
#     Edge 39, Type (0, 0), BuildingBlock: UVAHIK_clean_linker_0, # of connection points: 2
#     Edge 40, Type (0, 0), BuildingBlock: UVAHIK_clean_linker_0, # of connection points: 2
#     Edge 41, Type (0, 0), BuildingBlock: UVAHIK_clean_linker_0, # of connection points: 2
#     Edge 42, Type (0, 0), BuildingBlock: UVAHIK_clean_linker_0, # of connection points: 2
#     Edge 43, Type (0, 0), BuildingBlock: UVAHIK_clean_linker_0, # of connection points: 2
#     Edge 44, Type (0, 0), BuildingBlock: UVAHIK_clean_linker_0, # of connection points: 2
#     Edge 45, Type (0, 0), BuildingBlock: UVAHIK_clean_linker_0, # of connection points: 2
#     Edge 46, Type (0, 0), BuildingBlock: UVAHIK_clean_linker_0, # of connection points: 2
#     Edge 47, Type (0, 0), BuildingBlock: UVAHIK_clean_linker_0, # of connection points: 2
#     Edge 48, Type (0, 0), BuildingBlock: UVAHIK_clean_linker_0, # of connection points: 2
#     Edge 49, Type (0, 0), BuildingBlock: UVAHIK_clean_linker_0, # of connection points: 2
#     Edge 50, Type (0, 0), BuildingBlock: UVAHIK_clean_linker_0, # of connection points: 2
#     Edge 51, Type (0, 0), BuildingBlock: UVAHIK_clean_linker_0, # of connection points: 2
#     Edge 52, Type (0, 0), BuildingBlock: UVAHIK_clean_linker_0, # of connection points: 2
#     Edge 53, Type (0, 0), BuildingBlock: UVAHIK_clean_linker_0, # of connection points: 2
#     Edge 54, Type (0, 0), BuildingBlock: UVAHIK_clean_linker_0, # of connection points: 2
#     Edge 55, Type (0, 0), BuildingBlock: UVAHIK_clean_linker_0, # of connection points: 2
#     Edge 56, Type (0, 0), BuildingBlock: UVAHIK_clean_linker_0, # of connection points: 2
#     Edge 57, Type (0, 0), BuildingBlock: UVAHIK_clean_linker_0, # of connection points: 2
#     Edge 58, Type (0, 0), BuildingBlock: UVAHIK_clean_linker_0, # of connection points: 2
#     Edge 59, Type (0, 0), BuildingBlock: UVAHIK_clean_linker_0, # of connection points: 2
#     Edge 60, Type (0, 0), BuildingBlock: UVAHIK_clean_linker_0, # of connection points: 2
#     Edge 61, Type (0, 0), BuildingBlock: UVAHIK_clean_linker_0, # of connection points: 2
#     Edge 62, Type (0, 0), BuildingBlock: UVAHIK_clean_linker_0, # of connection points: 2
#     Edge 63, Type (0, 0), BuildingBlock: UVAHIK_clean_linker_0, # of connection points: 2
# Relax obj value: 0.263
# Max RMSD: 0.241
# Mean RMSD: 0.240
data_MOF--net-vbv--node1-IZENUY_clean_sbu_0--edge1-UVAHIK_clean_linker_0
_symmetry_space_group_name_H-M    P1
_symmetry_Int_Tables_number       1
_symmetry_cell_setting            triclinic
loop_
_symmetry_equiv_pos_as_xyz
'x, y, z'
_cell_length_a     69.105686
_cell_length_b     34.510277
_cell_length_c     59.681442
_cell_angle_alpha  89.995107
_cell_angle_beta   89.987919
_cell_angle_gamma 89.99479
loop_
_atom_site_label
_atom_site_type_symbol
_atom_site_fract_x
_atom_site_fract_y
_atom_site_fract_z
_atom_type_partial_charge
Fe0 Fe 0.12219 0.38211 0.11118 0.0
Fe1 Fe 0.15161 0.31622 0.10688 0.0
O2 O 0.13283 0.34438 0.09526 0.0
Fe3 Fe 0.12464 0.33504 0.06777 0.0
O4 O 0.13096 0.38343 0.05892 0.0
O5 O 0.11642 0.41314 0.0867 0.0
O6 O 0.14517 0.40752 0.11288 0.0
C7 C 0.16061 0.39257 0.12022 0.0
C8 C 0.09058 0.34724 0.09245 0.0
O9 O 0.16168 0.3563 0.12363 0.0
C10 C 0.12989 0.26091 0.08154 0.0
O11 O 0.12605 0.35824 0.13853 0.0
O12 O 0.13614 0.29997 0.12952 0.0
O13 O 0.09942 0.34855 0.07384 0.0
O14 O 0.09889 0.35793 0.11024 0.0
C15 C 0.16535 0.32529 0.06454 0.0
O16 O 0.14521 0.27132 0.09163 0.0
O17 O 0.11793 0.28584 0.0748 0.0
C18 C 0.12832 0.32269 0.14337 0.0
O19 O 0.16815 0.33087 0.08512 0.0
O20 O 0.14842 0.31961 0.05703 0.0
C21 C 0.12429 0.41396 0.06747 0.0
Fe22 Fe 0.37151 0.67173 0.06703 0.0
Fe23 Fe 0.3732 0.6265 0.11114 0.0
O24 O 0.36348 0.66472 0.09481 0.0
Fe25 Fe 0.34573 0.69557 0.10634 0.0
O26 O 0.32849 0.68199 0.08517 0.0
O27 O 0.348 0.68905 0.05641 0.0
O28 O 0.36381 0.62367 0.05911 0.0
C29 C 0.36994 0.59298 0.06797 0.0
C30 C 0.36857 0.7471 0.07955 0.0
O31 O 0.37796 0.59388 0.08709 0.0
C32 C 0.36915 0.68778 0.14258 0.0
O33 O 0.39646 0.65603 0.07299 0.0
O34 O 0.3971 0.64787 0.10953 0.0
O35 O 0.35324 0.73912 0.09036 0.0
O36 O 0.37959 0.72038 0.07299 0.0
C37 C 0.33466 0.62088 0.12071 0.0
O38 O 0.37027 0.65183 0.13822 0.0
O39 O 0.36197 0.71084 0.12846 0.0
C40 C 0.40553 0.65684 0.09149 0.0
O41 O 0.34958 0.60388 0.11341 0.0
O42 O 0.33471 0.65732 0.12378 0.0
C43 C 0.3311 0.68558 0.06443 0.0
Fe44 Fe 0.62157 0.62588 0.4048 0.0
Fe45 Fe 0.64988 0.69388 0.40751 0.0
O46 O 0.63216 0.66435 0.42016 0.0
Fe47 Fe 0.62496 0.67296 0.44811 0.0
O48 O 0.63248 0.62496 0.4565 0.0
O49 O 0.61714 0.59466 0.42955 0.0
O50 O 0.64484 0.60202 0.402 0.0
C51 C 0.65978 0.61791 0.39395 0.0
C52 C 0.59016 0.65864 0.42516 0.0
O53 O 0.66016 0.65425 0.39043 0.0
C54 C 0.62812 0.74755 0.43417 0.0
O55 O 0.62406 0.64971 0.37721 0.0
O56 O 0.6333 0.70873 0.38566 0.0
O57 O 0.59972 0.65784 0.44333 0.0
O58 O 0.59798 0.64854 0.40695 0.0
C59 C 0.66555 0.6864 0.44898 0.0
O60 O 0.64311 0.73856 0.42296 0.0
O61 O 0.6171 0.72151 0.44159 0.0
C62 C 0.62558 0.68531 0.37214 0.0
O63 O 0.66748 0.68071 0.42831 0.0
O64 O 0.64889 0.69024 0.45759 0.0
C65 C 0.62572 0.59417 0.44836 0.0
Fe66 Fe 0.86967 0.33187 0.44037 0.0
Fe67 Fe 0.87194 0.3787 0.39692 0.0
O68 O 0.86162 0.34054 0.41277 0.0
Fe69 Fe 0.84327 0.31131 0.40103 0.0
O70 O 0.82637 0.32511 0.42262 0.0
O71 O 0.84608 0.31519 0.45086 0.0
O72 O 0.86257 0.37979 0.44906 0.0
C73 C 0.86898 0.41059 0.44061 0.0
C74 C 0.86553 0.25743 0.42691 0.0
O75 O 0.87695 0.41019 0.42142 0.0
C76 C 0.86682 0.31875 0.36474 0.0
O77 O 0.89472 0.34683 0.43472 0.0
O78 O 0.89562 0.35593 0.39832 0.0
O79 O 0.85022 0.2668 0.41644 0.0
O80 O 0.87712 0.28318 0.43346 0.0
C81 C 0.83338 0.38712 0.38754 0.0
O82 O 0.86877 0.35438 0.36958 0.0
O83 O 0.85904 0.2958 0.37851 0.0
C84 C 0.90389 0.34618 0.41632 0.0
O85 O 0.84864 0.40285 0.39483 0.0
O86 O 0.83278 0.35081 0.38413 0.0
C87 C 0.82915 0.32004 0.44324 0.0
Fe88 Fe 0.87079 0.6782 0.94035 0.0
Fe89 Fe 0.84377 0.69689 0.90123 0.0
O90 O 0.86239 0.66829 0.913 0.0
Fe91 Fe 0.87261 0.62976 0.89737 0.0
O92 O 0.87778 0.59882 0.92206 0.0
O93 O 0.86428 0.63049 0.94989 0.0
O94 O 0.8472 0.69454 0.951 0.0
C95 C 0.83023 0.6887 0.9437 0.0
C96 C 0.90474 0.66325 0.91597 0.0
O97 O 0.82722 0.68311 0.92316 0.0
C98 C 0.8671 0.68902 0.8648 0.0
O99 O 0.87784 0.72684 0.93268 0.0
O100 O 0.85054 0.74195 0.9162 0.0
O101 O 0.8963 0.65258 0.89825 0.0
O102 O 0.8958 0.66357 0.93448 0.0
C103 C 0.83406 0.62071 0.88822 0.0
O104 O 0.85926 0.71218 0.87842 0.0
O105 O 0.86923 0.65352 0.86989 0.0
C106 C 0.86596 0.75208 0.92617 0.0
O107 O 0.8333 0.65695 0.88466 0.0
O108 O 0.84935 0.60544 0.89572 0.0
C109 C 0.87058 0.59942 0.94166 0.0
Fe110 Fe 0.62581 0.33458 0.94943 0.0
Fe111 Fe 0.65303 0.30781 0.91208 0.0
O112 O 0.63446 0.33947 0.92149 0.0
Fe113 Fe 0.62473 0.37595 0.90369 0.0
O114 O 0.62998 0.4145 0.92384 0.0
O115 O 0.61853 0.38475 0.95315 0.0
O116 O 0.64939 0.34707 0.96084 0.0
C117 C 0.66464 0.32925 0.9554 0.0
C118 C 0.59222 0.34139 0.92564 0.0
O119 O 0.66479 0.30524 0.93939 0.0
C120 C 0.62973 0.31637 0.8731 0.0
O121 O 0.63087 0.28298 0.95165 0.0
O122 O 0.63843 0.26462 0.91766 0.0
O123 O 0.59964 0.36852 0.91392 0.0
O124 O 0.60216 0.32198 0.93938 0.0
C125 C 0.66543 0.37866 0.89556 0.0
O126 O 0.64493 0.30562 0.88303 0.0
O127 O 0.61875 0.34161 0.88158 0.0
C128 C 0.63162 0.25704 0.93681 0.0
O129 O 0.669 0.34784 0.90612 0.0
O130 O 0.6482 0.38846 0.89074 0.0
C131 C 0.62466 0.41513 0.944 0.0
Fe132 Fe 0.37417 0.3832 0.61084 0.0
Fe133 Fe 0.37191 0.33803 0.56676 0.0
O134 O 0.36378 0.34579 0.59445 0.0
Fe135 Fe 0.34523 0.31648 0.60568 0.0
O136 O 0.33477 0.35548 0.62297 0.0
O137 O 0.35101 0.40763 0.61319 0.0
O138 O 0.3794 0.41556 0.58676 0.0
C139 C 0.37142 0.41683 0.5676 0.0
C140 C 0.36852 0.32212 0.64223 0.0
O141 O 0.365 0.38643 0.55868 0.0
C142 C 0.36759 0.26313 0.57956 0.0
O143 O 0.3977 0.36022 0.60927 0.0
O144 O 0.39703 0.35233 0.57276 0.0
O145 O 0.36071 0.29991 0.62811 0.0
O146 O 0.37085 0.35784 0.63786 0.0
C147 C 0.33135 0.32687 0.56352 0.0
O148 O 0.37915 0.28899 0.57306 0.0
O149 O 0.35217 0.27234 0.5899 0.0
C150 C 0.40605 0.35095 0.59125 0.0
O151 O 0.34829 0.32197 0.5559 0.0
O152 O 0.32855 0.33142 0.58416 0.0
C153 C 0.33567 0.39193 0.62026 0.0
Fe154 Fe 0.1231 0.627 0.61203 0.0
Fe155 Fe 0.12343 0.67361 0.56829 0.0
O156 O 0.13241 0.6655 0.59559 0.0
Fe157 Fe 0.15064 0.69583 0.60659 0.0
O158 O 0.16203 0.65717 0.62338 0.0
O159 O 0.14671 0.60413 0.61329 0.0
O160 O 0.11772 0.59479 0.58794 0.0
C161 C 0.12458 0.59478 0.56818 0.0
C162 C 0.12816 0.68776 0.64363 0.0
O163 O 0.13044 0.62576 0.55941 0.0
C164 C 0.12723 0.74849 0.58134 0.0
O165 O 0.09917 0.64856 0.61158 0.0
O166 O 0.09867 0.65808 0.57516 0.0
O167 O 0.13514 0.71093 0.62943 0.0
O168 O 0.12681 0.65188 0.63914 0.0
C169 C 0.16383 0.68666 0.56399 0.0
O170 O 0.1158 0.72219 0.5752 0.0
O171 O 0.14291 0.73985 0.59125 0.0
C172 C 0.09021 0.65824 0.59402 0.0
O173 O 0.14668 0.69073 0.55679 0.0
O174 O 0.16712 0.68238 0.58457 0.0
C175 C 0.16184 0.62076 0.62026 0.0
Fe176 Fe 0.62295 0.87856 0.11208 0.0
Fe177 Fe 0.65172 0.81143 0.10798 0.0
O178 O 0.63328 0.84042 0.09625 0.0
Fe179 Fe 0.62517 0.83148 0.06871 0.0
O180 O 0.63206 0.87943 0.0599 0.0
O181 O 0.61778 0.90995 0.08756 0.0
O182 O 0.64621 0.90282 0.114 0.0
C183 C 0.66145 0.88729 0.12147 0.0
C184 C 0.59102 0.84556 0.09293 0.0
O185 O 0.66209 0.851 0.12497 0.0
C186 C 0.62971 0.75716 0.08213 0.0
O187 O 0.6263 0.85431 0.13946 0.0
O188 O 0.63589 0.79569 0.13037 0.0
O189 O 0.60009 0.84609 0.07447 0.0
O190 O 0.59933 0.85563 0.11085 0.0
C191 C 0.66573 0.82059 0.06578 0.0
O192 O 0.64499 0.76686 0.09253 0.0
O193 O 0.61793 0.78267 0.07571 0.0
C194 C 0.62814 0.81859 0.14418 0.0
O195 O 0.66854 0.82559 0.08641 0.0
O196 O 0.64883 0.81521 0.0582 0.0
C197 C 0.62568 0.91025 0.06833 0.0
Fe198 Fe 0.87101 0.17686 0.05954 0.0
Fe199 Fe 0.87129 0.1324 0.10441 0.0
O200 O 0.86172 0.16974 0.08706 0.0
Fe201 Fe 0.84268 0.20002 0.09671 0.0
O202 O 0.83158 0.20491 0.0692 0.0
O203 O 0.84773 0.16568 0.04691 0.0
O204 O 0.87811 0.12668 0.05473 0.0
C205 C 0.87211 0.09565 0.06335 0.0
C206 C 0.8643 0.25341 0.07421 0.0
O207 O 0.86649 0.09508 0.08342 0.0
C208 C 0.86539 0.18981 0.13597 0.0
O209 O 0.89449 0.18845 0.07053 0.0
O210 O 0.89653 0.14028 0.09491 0.0
O211 O 0.85698 0.24395 0.09282 0.0
O212 O 0.86616 0.22881 0.05872 0.0
C213 C 0.83047 0.12811 0.11136 0.0
O214 O 0.87683 0.16576 0.12716 0.0
O215 O 0.85007 0.19998 0.12606 0.0
C216 C 0.90418 0.16805 0.08398 0.0
O217 O 0.84767 0.11892 0.11671 0.0
O218 O 0.82691 0.15906 0.10094 0.0
C219 C 0.83233 0.18301 0.05226 0.0
Fe220 Fe 0.15129 0.19306 0.40779 0.0
Fe221 Fe 0.12412 0.17337 0.44657 0.0
O222 O 0.13255 0.16442 0.41913 0.0
Fe223 Fe 0.12228 0.12658 0.40296 0.0
O224 O 0.14544 0.10178 0.40135 0.0
O225 O 0.16165 0.15348 0.39087 0.0
O226 O 0.16774 0.17831 0.42958 0.0
C227 C 0.16478 0.18344 0.45017 0.0
C228 C 0.12821 0.18669 0.37114 0.0
O229 O 0.1478 0.18892 0.45757 0.0
C230 C 0.09022 0.16016 0.42154 0.0
O231 O 0.14464 0.23764 0.42321 0.0
O232 O 0.11731 0.22257 0.4397 0.0
O233 O 0.12614 0.15098 0.37573 0.0
O234 O 0.13584 0.20935 0.38517 0.0
C235 C 0.12416 0.09441 0.44661 0.0
O236 O 0.09897 0.15965 0.44023 0.0
O237 O 0.09879 0.14991 0.40382 0.0
C238 C 0.12926 0.24775 0.43328 0.0
O239 O 0.13055 0.12501 0.45534 0.0
O240 O 0.11654 0.09513 0.42725 0.0
C241 C 0.16081 0.11717 0.39414 0.0
Fe242 Fe 0.37382 0.88341 0.40224 0.0
Fe243 Fe 0.34601 0.81468 0.40612 0.0
O244 O 0.36366 0.84516 0.41817 0.0
Fe245 Fe 0.37122 0.83777 0.44609 0.0
O246 O 0.36345 0.88582 0.45402 0.0
O247 O 0.37834 0.91555 0.42654 0.0
O248 O 0.35032 0.9065 0.39961 0.0
C249 C 0.33538 0.88984 0.39208 0.0
C250 C 0.40568 0.85227 0.42251 0.0
O251 O 0.33531 0.85345 0.38879 0.0
C252 C 0.36847 0.76263 0.43297 0.0
O253 O 0.37117 0.85868 0.37497 0.0
O254 O 0.36246 0.79966 0.38413 0.0
O255 O 0.39627 0.85344 0.44076 0.0
O256 O 0.39762 0.86143 0.40425 0.0
C257 C 0.33077 0.82379 0.44784 0.0
O258 O 0.35329 0.7708 0.42192 0.0
O259 O 0.37933 0.7892 0.44005 0.0
C260 C 0.36986 0.82291 0.37027 0.0
O261 O 0.32847 0.82787 0.42708 0.0
O262 O 0.34756 0.82035 0.45615 0.0
C263 C 0.36992 0.91648 0.44544 0.0
Fe264 Fe 0.34509 0.19374 0.90723 0.0
Fe265 Fe 0.37408 0.1272 0.9016 0.0
O266 O 0.3638 0.16452 0.91817 0.0
Fe267 Fe 0.37226 0.17232 0.94572 0.0
O268 O 0.34873 0.18817 0.95698 0.0
O269 O 0.32868 0.17874 0.92901 0.0
O270 O 0.33451 0.15464 0.89012 0.0
C271 C 0.33548 0.11819 0.89286 0.0
C272 C 0.36763 0.24722 0.93306 0.0
O273 O 0.35093 0.10257 0.89967 0.0
C274 C 0.40605 0.16019 0.92056 0.0
O275 O 0.3603 0.21041 0.88454 0.0
O276 O 0.37035 0.15248 0.87464 0.0
O277 O 0.37932 0.22143 0.93934 0.0
O278 O 0.35214 0.23793 0.92291 0.0
C279 C 0.37191 0.09348 0.94486 0.0
O280 O 0.39753 0.15056 0.90271 0.0
O281 O 0.39734 0.15823 0.93923 0.0
C282 C 0.36801 0.18822 0.87033 0.0
O283 O 0.3797 0.09486 0.92559 0.0
O284 O 0.36554 0.12384 0.95389 0.0
C285 C 0.33171 0.18327 0.94962 0.0
Fe286 Fe 0.12266 0.88355 0.90331 0.0
Fe287 Fe 0.123 0.83653 0.94697 0.0
O288 O 0.13195 0.8449 0.91965 0.0
Fe289 Fe 0.15021 0.81471 0.9085 0.0
O290 O 0.16153 0.85344 0.89171 0.0
O291 O 0.1463 0.90639 0.90206 0.0
O292 O 0.11731 0.91559 0.92741 0.0
C293 C 0.12402 0.91546 0.94721 0.0
C294 C 0.12769 0.82298 0.87154 0.0
O295 O 0.12981 0.88446 0.95602 0.0
C296 C 0.12705 0.7617 0.93384 0.0
O297 O 0.09871 0.86222 0.90378 0.0
O298 O 0.09818 0.85171 0.94013 0.0
O299 O 0.13469 0.79965 0.88565 0.0
O300 O 0.12631 0.8588 0.87617 0.0
C301 C 0.16346 0.82397 0.95108 0.0
O302 O 0.11554 0.78783 0.94004 0.0
O303 O 0.14262 0.77057 0.92379 0.0
C304 C 0.08972 0.85228 0.92128 0.0
O305 O 0.14635 0.81971 0.95837 0.0
O306 O 0.16669 0.82819 0.93048 0.0
C307 C 0.16139 0.8898 0.89496 0.0
Fe308 Fe 0.8721 0.87677 0.60558 0.0
Fe309 Fe 0.87154 0.83592 0.55969 0.0
O310 O 0.86247 0.84061 0.58747 0.0
Fe311 Fe 0.84366 0.80908 0.59635 0.0
O312 O 0.82782 0.84909 0.6025 0.0
O313 O 0.8485 0.88975 0.61807 0.0
O314 O 0.86731 0.91553 0.58542 0.0
C315 C 0.87297 0.91623 0.56539 0.0
C316 C 0.8665 0.81677 0.63581 0.0
O317 O 0.87931 0.8859 0.55642 0.0
C318 C 0.86498 0.7583 0.57154 0.0
O319 O 0.89732 0.86872 0.59587 0.0
O320 O 0.89486 0.8224 0.57026 0.0
O321 O 0.85151 0.80592 0.62548 0.0
O322 O 0.87755 0.84225 0.62773 0.0
C323 C 0.83278 0.83189 0.55286 0.0
O324 O 0.8661 0.78456 0.55694 0.0
O325 O 0.85807 0.76571 0.59064 0.0
C326 C 0.9047 0.84128 0.58433 0.0
O327 O 0.84827 0.84931 0.54788 0.0
O328 O 0.83214 0.8077 0.56882 0.0
C329 C 0.83131 0.87977 0.6132 0.0
Fe330 Fe 0.62237 0.12626 0.61249 0.0
Fe331 Fe 0.62477 0.1725 0.56885 0.0
O332 O 0.63271 0.16434 0.59656 0.0
Fe333 Fe 0.65096 0.19382 0.60833 0.0
O334 O 0.66161 0.15439 0.62522 0.0
O335 O 0.64565 0.1023 0.61469 0.0
O336 O 0.61738 0.0945 0.58809 0.0
C337 C 0.62558 0.09369 0.56904 0.0
C338 C 0.62744 0.18625 0.64464 0.0
O339 O 0.63203 0.12438 0.56047 0.0
C340 C 0.6285 0.24728 0.58232 0.0
O341 O 0.59875 0.149 0.61096 0.0
O342 O 0.59971 0.15746 0.5745 0.0
O343 O 0.63517 0.20919 0.63085 0.0
O344 O 0.62548 0.15064 0.6398 0.0
C345 C 0.66524 0.18503 0.56613 0.0
O346 O 0.6172 0.2213 0.57537 0.0
O347 O 0.64378 0.23825 0.59298 0.0
C348 C 0.59053 0.15854 0.59289 0.0
O349 O 0.64832 0.18932 0.55838 0.0
O350 O 0.66796 0.18031 0.58678 0.0
C351 C 0.6609 0.11802 0.62201 0.0
C352 C 0.11035 0.20696 0.06484 0.0
C353 C 0.1283 0.22112 0.07237 0.0
C354 C 0.10929 0.17245 0.05258 0.0
C355 C 0.13795 0.11448 0.0138 0.0
H356 H 0.10038 0.03325 0.0249 0.0
C357 C 0.12286 0.98807 0.95152 0.0
C358 C 0.12345 0.95096 0.96121 0.0
C359 C 0.12294 0.02127 0.96509 0.0
C360 C 0.11092 0.05577 0.02159 0.0
H361 H 0.15913 0.20947 0.07347 0.0
H362 H 0.15726 0.14944 0.05186 0.0
H363 H 0.10178 0.08952 0.04989 0.0
H364 H 0.12416 0.91966 0.99276 0.0
H365 H 0.12388 0.97735 0.01626 0.0
H366 H 0.14696 0.08091 0.98539 0.0
C367 C 0.14403 0.16506 0.05552 0.0
C368 C 0.11168 0.08796 0.03583 0.0
C369 C 0.14506 0.1992 0.06812 0.0
C370 C 0.12378 0.94779 0.98472 0.0
C371 C 0.1235 0.98082 0.99822 0.0
C372 C 0.13696 0.08261 0.99933 0.0
C373 C 0.12619 0.15175 0.04725 0.0
C374 C 0.12532 0.11748 0.0322 0.0
C375 C 0.12321 0.01791 0.98859 0.0
C376 C 0.12355 0.05278 1.00319 0.0
H377 H 0.09719 0.22326 0.06779 0.0
H378 H 0.09535 0.16292 0.04638 0.0
H379 H 0.14846 0.13703 0.01045 0.0
H380 H 0.12267 0.99145 0.93348 0.0
H381 H 0.12265 0.04956 0.95724 0.0
C382 C 0.35919 0.05369 0.97657 0.0
C383 C 0.37183 0.05721 0.95822 0.0
C384 C 0.35953 0.02079 0.99018 0.0
C385 C 0.37712 0.91882 0.99274 0.0
H386 H 0.36766 0.93204 0.05638 0.0
C387 C 0.38715 0.79354 0.05543 0.0
C388 C 0.37144 0.78644 0.06992 0.0
C389 C 0.3882 0.82782 0.04304 0.0
C390 C 0.37023 0.92788 0.03864 0.0
H391 H 0.39459 0.02852 0.93959 0.0
H392 H 0.39562 0.97131 0.96374 0.0
H393 H 0.36765 0.98845 0.03178 0.0
H394 H 0.34514 0.81122 0.08365 0.0
H395 H 0.34722 0.87154 0.06224 0.0
H396 H 0.38003 0.85823 0.99981 0.0
C397 C 0.38514 0.99376 0.96739 0.0
C398 C 0.37014 0.9602 0.02445 0.0
C399 C 0.38462 0.02662 0.95355 0.0
C400 C 0.35745 0.81567 0.07271 0.0
C401 C 0.35862 0.85023 0.06041 0.0
C402 C 0.37744 0.8866 0.00698 0.0
C403 C 0.3727 0.99055 0.98605 0.0
C404 C 0.37342 0.95612 1.00125 0.0
C405 C 0.37371 0.85614 0.04496 0.0
C406 C 0.3739 0.89073 0.03007 0.0
H407 H 0.34895 0.07649 0.98048 0.0
H408 H 0.34935 0.01909 1.00394 0.0
H409 H 0.37939 0.91429 0.97498 0.0
H410 H 0.3983 0.77191 0.05292 0.0
H411 H 0.40019 0.83185 0.03158 0.0
C412 C 0.63883 0.05455 0.53728 0.0
C413 C 0.6259 0.05776 0.55538 0.0
C414 C 0.63873 0.02181 0.52351 0.0
C415 C 0.62092 0.91988 0.52028 0.0
H416 H 0.63163 0.93304 0.4569 0.0
C417 C 0.60984 0.79587 0.45726 0.0
C418 C 0.62574 0.78736 0.44333 0.0
C419 C 0.60918 0.83031 0.46952 0.0
C420 C 0.62872 0.92892 0.47458 0.0
H421 H 0.60282 0.02879 0.57333 0.0
H422 H 0.60217 0.97205 0.5489 0.0
H423 H 0.63173 0.98937 0.48161 0.0
H424 H 0.65281 0.80989 0.43034 0.0
H425 H 0.65141 0.87062 0.4515 0.0
H426 H 0.61749 0.85948 0.51301 0.0
C427 C 0.61274 0.99449 0.54558 0.0
C428 C 0.62886 0.96117 0.48883 0.0
C429 C 0.61303 0.02712 0.55959 0.0
C430 C 0.64034 0.81546 0.44085 0.0
C431 C 0.63957 0.85022 0.45301 0.0
C432 C 0.62053 0.88777 0.50597 0.0
C433 C 0.62551 0.99148 0.52722 0.0
C434 C 0.62505 0.95711 0.51194 0.0
C435 C 0.62427 0.85742 0.46801 0.0
C436 C 0.62446 0.8919 0.48297 0.0
H437 H 0.64912 0.07744 0.53372 0.0
H438 H 0.64914 0.0203 0.50998 0.0
H439 H 0.61829 0.91529 0.53796 0.0
H440 H 0.59822 0.77516 0.45948 0.0
H441 H 0.59703 0.83538 0.48061 0.0
C442 C 0.87838 0.95098 0.52923 0.0
C443 C 0.87252 0.95232 0.55182 0.0
C444 C 0.8771 0.98365 0.51559 0.0
C445 C 0.87504 0.08962 0.51617 0.0
H446 H 0.85577 0.07639 0.45555 0.0
C447 C 0.88394 0.20869 0.44954 0.0
C448 C 0.86743 0.21816 0.43685 0.0
C449 C 0.88432 0.17533 0.46278 0.0
C450 C 0.86109 0.08062 0.47245 0.0
H451 H 0.86093 0.9896 0.57779 0.0
H452 H 0.85888 0.04729 0.55381 0.0
H453 H 0.85605 0.02132 0.48125 0.0
H454 H 0.83881 0.19846 0.42716 0.0
H455 H 0.83961 0.13986 0.4501 0.0
H456 H 0.88008 0.14894 0.50735 0.0
C457 C 0.86447 0.02059 0.5468 0.0
C458 C 0.86138 0.04904 0.48713 0.0
C459 C 0.86563 0.98759 0.56052 0.0
C460 C 0.8518 0.19205 0.43663 0.0
C461 C 0.85222 0.1585 0.44985 0.0
C462 C 0.87488 0.12116 0.50142 0.0
C463 C 0.86999 0.01877 0.52409 0.0
C464 C 0.86852 0.05308 0.50909 0.0
C465 C 0.86826 0.15041 0.46359 0.0
C466 C 0.86807 0.11694 0.47932 0.0
H467 H 0.8838 0.92443 0.52186 0.0
H468 H 0.8818 0.98143 0.49832 0.0
H469 H 0.88072 0.09362 0.53293 0.0
H470 H 0.89632 0.22792 0.45 0.0
H471 H 0.89708 0.16943 0.47276 0.0
C472 C 0.86424 0.02488 0.05717 0.0
C473 C 0.87232 0.05985 0.04947 0.0
C474 C 0.86384 0.99205 0.04327 0.0
C475 C 0.88691 0.95045 0.99236 0.0
H476 H 0.8411 0.88577 0.99007 0.0
C477 C 0.8517 0.81661 0.93673 0.0
C478 C 0.86782 0.79179 0.93555 0.0
C479 C 0.85247 0.85073 0.94943 0.0
C480 C 0.85394 0.90378 0.99032 0.0
H481 H 0.88637 0.08742 0.02107 0.0
H482 H 0.88554 0.03082 0.9971 0.0
H483 H 0.84203 0.94121 0.01547 0.0
H484 H 0.89774 0.78469 0.94579 0.0
H485 H 0.89907 0.84393 0.96777 0.0
H486 H 0.8987 0.91356 0.96698 0.0
C487 C 0.87974 0.02839 0.0139 0.0
C488 C 0.85457 0.93523 1.00515 0.0
C489 C 0.88011 0.06103 0.02769 0.0
C490 C 0.88504 0.80307 0.94631 0.0
C491 C 0.88582 0.83717 0.95892 0.0
C492 C 0.88628 0.91904 0.97757 0.0
C493 C 0.87158 0.99347 0.02143 0.0
C494 C 0.87106 0.95905 0.00631 0.0
C495 C 0.8694 0.86096 0.96113 0.0
C496 C 0.86979 0.89528 0.97633 0.0
H497 H 0.85806 0.02296 0.07381 0.0
H498 H 0.85759 0.9655 0.04968 0.0
H499 H 0.89993 0.96789 0.99295 0.0
H500 H 0.83818 0.80881 0.92873 0.0
H501 H 0.83966 0.86874 0.95043 0.0
C502 C 0.61324 0.21169 0.96079 0.0
C503 C 0.62732 0.21706 0.94409 0.0
C504 C 0.61176 0.17657 0.97215 0.0
C505 C 0.62553 0.07358 0.97295 0.0
H506 H 0.62429 0.08821 0.03742 0.0
C507 C 0.63697 0.94667 0.03455 0.0
C508 C 0.62584 0.94575 0.0543 0.0
C509 C 0.63674 0.97907 0.02055 0.0
C510 C 0.62433 0.08348 0.01949 0.0
H511 H 0.65001 0.18903 0.92504 0.0
H512 H 0.64735 0.12687 0.94499 0.0
H513 H 0.62388 0.14431 0.01277 0.0
H514 H 0.60587 0.97852 0.0749 0.0
H515 H 0.60519 0.03505 0.05024 0.0
H516 H 0.62581 0.01265 0.97969 0.0
C517 C 0.63747 0.1501 0.94923 0.0
C518 C 0.62415 0.11569 1.00532 0.0
C519 C 0.63894 0.18553 0.93774 0.0
C520 C 0.61465 0.97834 0.05987 0.0
C521 C 0.61433 0.01078 0.04574 0.0
C522 C 0.62557 0.04124 0.98715 0.0
C523 C 0.62436 0.14589 0.96717 0.0
C524 C 0.62467 0.11115 0.9819 0.0
C525 C 0.6253 0.01146 0.02581 0.0
C526 C 0.62498 0.04579 0.01062 0.0
H527 H 0.60395 0.23543 0.96587 0.0
H528 H 0.60119 0.17392 0.98548 0.0
H529 H 0.62582 0.06918 0.95499 0.0
H530 H 0.64593 0.92224 0.02983 0.0
H531 H 0.64571 0.97879 0.00567 0.0
C532 C 0.38241 0.9831 0.45466 0.0
C533 C 0.36955 0.95248 0.45899 0.0
C534 C 0.38273 0.01581 0.46857 0.0
C535 C 0.36697 0.04942 0.52529 0.0
H536 H 0.37791 0.15101 0.5007 0.0
C537 C 0.35546 0.19523 0.57289 0.0
C538 C 0.36998 0.22346 0.57026 0.0
C539 C 0.35626 0.16042 0.56081 0.0
C540 C 0.37501 0.12274 0.50785 0.0
H541 H 0.34641 0.93289 0.48079 0.0
H542 H 0.34645 0.99023 0.50441 0.0
H543 H 0.37698 0.095 0.4759 0.0
H544 H 0.39738 0.23588 0.55388 0.0
H545 H 0.39861 0.17555 0.53286 0.0
H546 H 0.36445 0.07776 0.55717 0.0
C547 C 0.35681 0.98862 0.49082 0.0
C548 C 0.37453 0.09054 0.49363 0.0
C549 C 0.35667 0.95578 0.47713 0.0
C550 C 0.38582 0.21506 0.55623 0.0
C551 C 0.3865 0.18056 0.54403 0.0
C552 C 0.3672 0.08175 0.53945 0.0
C553 C 0.37001 0.01891 0.48696 0.0
C554 C 0.37054 0.05336 0.50214 0.0
C555 C 0.3715 0.15331 0.54574 0.0
C556 C 0.3713 0.11873 0.53089 0.0
H557 H 0.39259 0.98134 0.4409 0.0
H558 H 0.39328 0.03823 0.46516 0.0
H559 H 0.36421 0.02124 0.5326 0.0
H560 H 0.34304 0.20069 0.58352 0.0
H561 H 0.34448 0.1399 0.56246 0.0
C562 C 0.10847 0.7956 0.55788 0.0
C563 C 0.12436 0.78803 0.57201 0.0
C564 C 0.10742 0.83002 0.54563 0.0
C565 C 0.12562 0.92973 0.54107 0.0
H566 H 0.11648 0.91603 0.47743 0.0
C567 C 0.13662 0.05538 0.47879 0.0
C568 C 0.12411 0.05854 0.46031 0.0
C569 C 0.13624 0.02266 0.49255 0.0
C570 C 0.11873 0.92061 0.49518 0.0
H571 H 0.15095 0.81217 0.58535 0.0
H572 H 0.14885 0.87278 0.56422 0.0
H573 H 0.11576 0.86005 0.50228 0.0
H574 H 0.10145 0.02952 0.44167 0.0
H575 H 0.10031 0.97273 0.46609 0.0
H576 H 0.12823 0.99029 0.53419 0.0
C577 C 0.13733 0.85169 0.56253 0.0
C578 C 0.11838 0.88842 0.50943 0.0
C579 C 0.13852 0.81697 0.57466 0.0
C580 C 0.11134 0.02788 0.45572 0.0
C581 C 0.11076 0.99524 0.46971 0.0
C582 C 0.12573 0.96202 0.52688 0.0
C583 C 0.12207 0.85802 0.54738 0.0
C584 C 0.12192 0.89259 0.53251 0.0
C585 C 0.12313 0.9923 0.48844 0.0
C586 C 0.12244 0.95792 0.50368 0.0
H587 H 0.0972 0.77419 0.55549 0.0
H588 H 0.09531 0.83439 0.53438 0.0
H589 H 0.12821 0.93386 0.55881 0.0
H590 H 0.14682 0.07827 0.48264 0.0
H591 H 0.14635 0.02117 0.50637 0.0
C592 C 0.61954 0.44988 0.98022 0.0
C593 C 0.62511 0.45128 0.95754 0.0
C594 C 0.62064 0.4827 0.99375 0.0
C595 C 0.62158 0.58879 0.99282 0.0
H596 H 0.64105 0.57668 0.05343 0.0
C597 C 0.61173 0.7081 0.05922 0.0
C598 C 0.62809 0.71791 0.07207 0.0
C599 C 0.61164 0.67474 0.04596 0.0
C600 C 0.63568 0.58062 0.03653 0.0
H601 H 0.63604 0.48881 0.9313 0.0
H602 H 0.6378 0.54675 0.95512 0.0
H603 H 0.64132 0.5215 0.02785 0.0
H604 H 0.65677 0.69886 0.08197 0.0
H605 H 0.65648 0.64036 0.05899 0.0
H606 H 0.61597 0.64795 1.00151 0.0
C607 C 0.63256 0.51989 0.96228 0.0
C608 C 0.6357 0.54895 0.02191 0.0
C609 C 0.63158 0.48674 0.94866 0.0
C610 C 0.64389 0.69218 0.07238 0.0
C611 C 0.64375 0.65867 0.05914 0.0
C612 C 0.62144 0.62043 0.0075 0.0
C613 C 0.62728 0.51803 0.98506 0.0
C614 C 0.62848 0.55254 0.99996 0.0
C615 C 0.62784 0.65018 0.04527 0.0
C616 C 0.62833 0.61662 0.0296 0.0
H617 H 0.61444 0.42319 0.98774 0.0
H618 H 0.61611 0.48041 0.01109 0.0
H619 H 0.61583 0.59245 0.97607 0.0
H620 H 0.59924 0.72704 0.05867 0.0
H621 H 0.59897 0.66854 0.03589 0.0
C622 C 0.85168 0.32034 0.06841 0.0
C623 C 0.86724 0.29428 0.06811 0.0
C624 C 0.85287 0.35545 0.05666 0.0
C625 C 0.88048 0.39875 0.00916 0.0
H626 H 0.85175 0.49104 0.02507 0.0
C627 C 0.87187 0.5271 0.9472 0.0
C628 C 0.87116 0.56464 0.95622 0.0
C629 C 0.8716 0.49463 0.96135 0.0
C630 C 0.8601 0.46574 0.02043 0.0
H631 H 0.89659 0.28507 0.05672 0.0
H632 H 0.89925 0.34721 0.03758 0.0
H633 H 0.85213 0.43624 0.05058 0.0
H634 H 0.87023 0.59758 0.98717 0.0
H635 H 0.8706 0.54159 0.01165 0.0
H636 H 0.88912 0.42877 0.97947 0.0
C637 C 0.8858 0.34026 0.04597 0.0
C638 C 0.86008 0.43396 0.035 0.0
C639 C 0.88445 0.30494 0.05729 0.0
C640 C 0.87056 0.56903 0.97963 0.0
C641 C 0.87061 0.53677 0.99373 0.0
C642 C 0.88073 0.43071 0.99475 0.0
C643 C 0.86975 0.3653 0.04464 0.0
C644 C 0.87025 0.39993 0.02958 0.0
C645 C 0.87091 0.49903 0.98485 0.0
C646 C 0.87053 0.46469 1.00014 0.0
H647 H 0.83811 0.31228 0.07621 0.0
H648 H 0.84013 0.37365 0.05594 0.0
H649 H 0.88815 0.37288 1.00403 0.0
H650 H 0.8722 0.5228 0.92923 0.0
H651 H 0.87157 0.46611 0.95381 0.0
C652 C 0.1218 0.52225 0.56353 0.0
C653 C 0.12412 0.55929 0.55411 0.0
C654 C 0.12195 0.48914 0.54986 0.0
C655 C 0.13678 0.45637 0.49264 0.0
H656 H 0.10422 0.36809 0.50621 0.0
C657 C 0.14413 0.31053 0.44556 0.0
C658 C 0.12757 0.28741 0.4427 0.0
C659 C 0.14327 0.34473 0.45812 0.0
C660 C 0.11323 0.39267 0.50195 0.0
H661 H 0.12785 0.59052 0.52281 0.0
H662 H 0.12746 0.53353 0.49919 0.0
H663 H 0.1033 0.4248 0.53041 0.0
H664 H 0.09686 0.28332 0.44972 0.0
H665 H 0.09515 0.34372 0.47081 0.0
H666 H 0.14618 0.42498 0.46376 0.0
C667 C 0.12617 0.52959 0.51712 0.0
C668 C 0.11294 0.42504 0.51611 0.0
C669 C 0.12625 0.56245 0.53073 0.0
C670 C 0.10991 0.30038 0.45169 0.0
C671 C 0.10899 0.33482 0.46403 0.0
C672 C 0.13692 0.42422 0.47838 0.0
C673 C 0.12423 0.49238 0.52644 0.0
C674 C 0.1247 0.4574 0.51165 0.0
C675 C 0.12576 0.35698 0.46794 0.0
C676 C 0.12518 0.39183 0.48282 0.0
H677 H 0.12021 0.51881 0.58147 0.0
H678 H 0.12063 0.46099 0.55771 0.0
H679 H 0.14631 0.48036 0.48879 0.0
H680 H 0.15803 0.3012 0.43912 0.0
H681 H 0.15656 0.36061 0.46091 0.0
C682 C 0.38426 0.48338 0.55858 0.0
C683 C 0.37129 0.45298 0.55417 0.0
C684 C 0.38479 0.51608 0.54464 0.0
C685 C 0.36949 0.54935 0.48768 0.0
H686 H 0.38003 0.6513 0.51198 0.0
C687 C 0.35714 0.69416 0.43955 0.0
C688 C 0.37131 0.72306 0.44224 0.0
C689 C 0.35826 0.65947 0.45172 0.0
C690 C 0.37725 0.62293 0.50491 0.0
H691 H 0.34813 0.43385 0.53228 0.0
H692 H 0.34855 0.49105 0.50863 0.0
H693 H 0.37924 0.59548 0.53696 0.0
H694 H 0.39847 0.73682 0.45877 0.0
H695 H 0.40029 0.67666 0.47991 0.0
H696 H 0.36696 0.57732 0.4557 0.0
C697 C 0.35884 0.48929 0.52226 0.0
C698 C 0.37685 0.59085 0.51923 0.0
C699 C 0.35849 0.45653 0.53598 0.0
C700 C 0.38718 0.71546 0.45639 0.0
C701 C 0.38819 0.68105 0.46865 0.0
C702 C 0.36966 0.58154 0.47341 0.0
C703 C 0.37219 0.51931 0.52614 0.0
C704 C 0.37293 0.55357 0.51084 0.0
C705 C 0.3735 0.65314 0.46692 0.0
C706 C 0.37357 0.61867 0.48187 0.0
H707 H 0.39437 0.48143 0.57241 0.0
H708 H 0.39541 0.53836 0.54807 0.0
H709 H 0.36681 0.52108 0.48046 0.0
H710 H 0.34472 0.69901 0.42885 0.0
H711 H 0.34672 0.63844 0.45004 0.0
C712 C 0.35542 0.31498 0.94005 0.0
C713 C 0.37002 0.28684 0.94243 0.0
C714 C 0.35624 0.34967 0.95224 0.0
C715 C 0.37522 0.38695 1.00517 0.0
H716 H 0.36421 0.48863 0.9808 0.0
C717 C 0.38241 0.52627 0.05882 0.0
C718 C 0.36955 0.55688 0.0545 0.0
C719 C 0.38277 0.4936 0.04486 0.0
C720 C 0.36702 0.46041 0.98801 0.0
H721 H 0.39757 0.27448 0.95849 0.0
H722 H 0.39882 0.3346 0.97971 0.0
H723 H 0.36443 0.43238 0.95605 0.0
H724 H 0.3464 0.57647 0.03274 0.0
H725 H 0.34647 0.51924 0.00906 0.0
H726 H 0.37726 0.41438 0.0372 0.0
C727 C 0.38665 0.32961 0.96864 0.0
C728 C 0.36725 0.42822 0.97374 0.0
C729 C 0.38596 0.29523 0.95632 0.0
C730 C 0.35667 0.55359 0.03637 0.0
C731 C 0.35683 0.52081 0.02264 0.0
C732 C 0.37475 0.41901 0.01949 0.0
C733 C 0.37158 0.35675 0.96718 0.0
C734 C 0.37142 0.39117 0.98215 0.0
C735 C 0.37007 0.49055 0.02644 0.0
C736 C 0.37066 0.45626 0.01114 0.0
H737 H 0.34294 0.30953 0.92953 0.0
H738 H 0.34442 0.37012 0.95078 0.0
H739 H 0.37819 0.35863 0.0122 0.0
H740 H 0.39259 0.52803 0.07258 0.0
H741 H 0.39334 0.4712 0.04823 0.0
C742 C 0.11181 0.48094 0.0586 0.0
C743 C 0.1243 0.44988 0.05377 0.0
C744 C 0.11145 0.51383 0.04477 0.0
C745 C 0.14082 0.56847 1.00409 0.0
H746 H 0.09175 0.60884 0.98302 0.0
C747 C 0.13837 0.69303 0.93965 0.0
C748 C 0.12442 0.72206 0.94317 0.0
C749 C 0.13751 0.65805 0.95155 0.0
C750 C 0.10559 0.59831 0.98892 0.0
H751 H 0.14656 0.42953 0.03096 0.0
H752 H 0.14611 0.48688 0.00721 0.0
H753 H 0.09224 0.55332 0.00834 0.0
H754 H 0.09801 0.73595 0.9612 0.0
H755 H 0.09679 0.67587 0.98215 0.0
H756 H 0.15424 0.61381 0.98529 0.0
C757 C 0.13652 0.4858 0.02155 0.0
C758 C 0.10584 0.56644 1.00345 0.0
C759 C 0.13669 0.45282 0.03513 0.0
C760 C 0.10905 0.71436 0.95801 0.0
C761 C 0.10829 0.67962 0.97002 0.0
C762 C 0.14057 0.60059 0.98979 0.0
C763 C 0.12382 0.51656 0.02609 0.0
C764 C 0.12346 0.55111 0.01116 0.0
C765 C 0.12276 0.6513 0.96739 0.0
C766 C 0.12296 0.616 0.98195 0.0
H767 H 0.10208 0.47957 0.0728 0.0
H768 H 0.10161 0.53725 0.04878 0.0
H769 H 0.15462 0.55757 0.00994 0.0
H770 H 0.15036 0.69783 0.92829 0.0
H771 H 0.14866 0.6366 0.94862 0.0
C772 C 0.85729 0.68694 0.57064 0.0
C773 C 0.86894 0.71829 0.56405 0.0
C774 C 0.85852 0.65145 0.55919 0.0
C775 C 0.87126 0.6164 0.50303 0.0
H776 H 0.86938 0.51363 0.52902 0.0
C777 C 0.88016 0.47857 0.44891 0.0
C778 C 0.8689 0.44614 0.45458 0.0
C779 C 0.88061 0.51109 0.46295 0.0
C780 C 0.86968 0.54215 0.52147 0.0
H781 H 0.89214 0.73623 0.54191 0.0
H782 H 0.89449 0.67459 0.52238 0.0
H783 H 0.86975 0.57039 0.55354 0.0
H784 H 0.84881 0.42298 0.47916 0.0
H785 H 0.84924 0.47973 0.5032 0.0
H786 H 0.87082 0.58863 0.47103 0.0
C787 C 0.88407 0.67746 0.53584 0.0
C788 C 0.86994 0.57462 0.53555 0.0
C789 C 0.88281 0.71266 0.54714 0.0
C790 C 0.85782 0.44729 0.47436 0.0
C791 C 0.85817 0.4798 0.48828 0.0
C792 C 0.87087 0.58407 0.48898 0.0
C793 C 0.87143 0.64696 0.54108 0.0
C794 C 0.87088 0.61209 0.52647 0.0
C795 C 0.86968 0.51203 0.4829 0.0
C796 C 0.87015 0.54647 0.49798 0.0
H797 H 0.8464 0.69062 0.58351 0.0
H798 H 0.84862 0.62836 0.56363 0.0
H799 H 0.87158 0.64495 0.49549 0.0
H800 H 0.88892 0.47856 0.43385 0.0
H801 H 0.88981 0.53521 0.45837 0.0
C802 C 0.61343 0.52749 0.45803 0.0
C803 C 0.62608 0.55853 0.46229 0.0
C804 C 0.6132 0.49502 0.47215 0.0
C805 C 0.6428 0.44094 0.5128 0.0
H806 H 0.5937 0.4019 0.53464 0.0
C807 C 0.64013 0.31586 0.57697 0.0
C808 C 0.62601 0.28719 0.57335 0.0
C809 C 0.63938 0.3511 0.5653 0.0
C810 C 0.60755 0.41208 0.52854 0.0
H811 H 0.64879 0.57924 0.48437 0.0
H812 H 0.64856 0.52249 0.50867 0.0
H813 H 0.59428 0.4572 0.50918 0.0
H814 H 0.59941 0.27424 0.55548 0.0
H815 H 0.59838 0.33474 0.53496 0.0
H816 H 0.65613 0.39538 0.53152 0.0
C817 C 0.63875 0.52332 0.49453 0.0
C818 C 0.60785 0.44383 0.51393 0.0
C819 C 0.6388 0.55592 0.48064 0.0
C820 C 0.61059 0.29552 0.55871 0.0
C821 C 0.60993 0.33051 0.54695 0.0
C822 C 0.64251 0.40893 0.52719 0.0
C823 C 0.62583 0.49265 0.4906 0.0
C824 C 0.62548 0.45859 0.50588 0.0
C825 C 0.62457 0.35846 0.54964 0.0
C826 C 0.62488 0.39394 0.53525 0.0
H827 H 0.60344 0.5286 0.44406 0.0
H828 H 0.60321 0.47164 0.46859 0.0
H829 H 0.65661 0.45144 0.50672 0.0
H830 H 0.65217 0.31058 0.58817 0.0
H831 H 0.65067 0.37225 0.56825 0.0
C832 C 0.12398 0.24094 0.34361 0.0
C833 C 0.12445 0.20096 0.34809 0.0
C834 C 0.12195 0.25456 0.32167 0.0
C835 C 0.10892 0.2241 0.26348 0.0
H836 H 0.13945 0.31408 0.24723 0.0
C837 C 0.12535 0.26918 0.17171 0.0
C838 C 0.12457 0.30894 0.16654 0.0
C839 C 0.12326 0.25642 0.19384 0.0
C840 C 0.13065 0.28921 0.25155 0.0
H841 H 0.12271 0.14393 0.33298 0.0
H842 H 0.11971 0.16759 0.29468 0.0
H843 H 0.13975 0.29101 0.28573 0.0
H844 H 0.12042 0.36633 0.18061 0.0
H845 H 0.11695 0.344 0.21921 0.0
H846 H 0.10038 0.22182 0.22895 0.0
C847 C 0.12051 0.18855 0.30814 0.0
C848 C 0.13076 0.27598 0.27369 0.0
C849 C 0.12233 0.17492 0.33014 0.0
C850 C 0.12115 0.33552 0.18397 0.0
C851 C 0.11927 0.32277 0.20612 0.0
C852 C 0.10898 0.23714 0.24126 0.0
C853 C 0.12056 0.22858 0.30356 0.0
C854 C 0.11992 0.24319 0.28 0.0
C855 C 0.12053 0.28312 0.21134 0.0
C856 C 0.11987 0.26982 0.23505 0.0
H857 H 0.12536 0.26181 0.35708 0.0
H858 H 0.12158 0.28557 0.31893 0.0
H859 H 0.10016 0.19915 0.26772 0.0
H860 H 0.12788 0.2479 0.1587 0.0
H861 H 0.12442 0.22571 0.19734 0.0
C862 C 0.37535 0.67599 0.18351 0.0
C863 C 0.37329 0.70203 0.16555 0.0
C864 C 0.37744 0.68963 0.20548 0.0
C865 C 0.36783 0.77716 0.23995 0.0
H866 H 0.39827 0.72255 0.28446 0.0
C867 C 0.37728 0.83608 0.32977 0.0
C868 C 0.37398 0.80933 0.34714 0.0
C869 C 0.37928 0.8235 0.3076 0.0
C870 C 0.38965 0.73801 0.27222 0.0
H871 H 0.37279 0.76289 0.15651 0.0
H872 H 0.377 0.78663 0.19461 0.0
H873 H 0.39826 0.7 0.24567 0.0
H874 H 0.37105 0.74816 0.35486 0.0
H875 H 0.37466 0.72628 0.31619 0.0
H876 H 0.35929 0.8152 0.26649 0.0
C877 C 0.3764 0.75564 0.19189 0.0
C878 C 0.38958 0.72504 0.24998 0.0
C879 C 0.37413 0.74201 0.16997 0.0
C880 C 0.3735 0.76958 0.3419 0.0
C881 C 0.37567 0.757 0.31975 0.0
C882 C 0.36804 0.79029 0.2621 0.0
C883 C 0.37772 0.72966 0.21001 0.0
C884 C 0.37856 0.74428 0.23355 0.0
C885 C 0.37822 0.78386 0.30229 0.0
C886 C 0.37884 0.77074 0.27854 0.0
H887 H 0.37471 0.645 0.18073 0.0
H888 H 0.37819 0.66869 0.21896 0.0
H889 H 0.35883 0.79231 0.22796 0.0
H890 H 0.37779 0.86689 0.33317 0.0
H891 H 0.38147 0.84487 0.29455 0.0
C892 C 0.6214 0.83063 0.185 0.0
C893 C 0.6239 0.80449 0.16716 0.0
C894 C 0.61911 0.8171 0.20697 0.0
C895 C 0.62871 0.72994 0.24184 0.0
H896 H 0.59727 0.78407 0.28561 0.0
C897 C 0.61838 0.67145 0.33166 0.0
C898 C 0.62143 0.69846 0.34894 0.0
C899 C 0.61651 0.68376 0.30941 0.0
C900 C 0.60616 0.76874 0.27358 0.0
H901 H 0.62496 0.74357 0.15831 0.0
H902 H 0.62039 0.72003 0.19638 0.0
H903 H 0.59779 0.80648 0.24679 0.0
H904 H 0.62397 0.75978 0.35646 0.0
H905 H 0.62056 0.78116 0.3177 0.0
H906 H 0.63702 0.69218 0.26862 0.0
C907 C 0.62081 0.75102 0.19359 0.0
C908 C 0.60652 0.78164 0.25133 0.0
C909 C 0.6233 0.76453 0.17169 0.0
C910 C 0.62173 0.73816 0.34356 0.0
C911 C 0.61967 0.75046 0.32135 0.0
C912 C 0.6282 0.71688 0.264 0.0
C913 C 0.61905 0.77709 0.21161 0.0
C914 C 0.61792 0.76258 0.23517 0.0
C915 C 0.61742 0.72336 0.30397 0.0
C916 C 0.61704 0.73626 0.28017 0.0
H917 H 0.62185 0.8616 0.18212 0.0
H918 H 0.61801 0.83812 0.22037 0.0
H919 H 0.63799 0.71494 0.23007 0.0
H920 H 0.61803 0.64067 0.33518 0.0
H921 H 0.61455 0.6622 0.29642 0.0
C922 C 0.88498 0.19217 0.1717 0.0
C923 C 0.86902 0.20471 0.15897 0.0
C924 C 0.88764 0.20538 0.19372 0.0
C925 C 0.87222 0.28322 0.23313 0.0
H926 H 0.8866 0.20959 0.27925 0.0
C927 C 0.87922 0.33009 0.32565 0.0
C928 C 0.87107 0.30501 0.34165 0.0
C929 C 0.88182 0.31799 0.30345 0.0
C930 C 0.88252 0.23052 0.26659 0.0
H931 H 0.84352 0.24153 0.1595 0.0
H932 H 0.84803 0.26394 0.19762 0.0
H933 H 0.88549 0.18888 0.24018 0.0
H934 H 0.85986 0.24695 0.34688 0.0
H935 H 0.86407 0.22619 0.30825 0.0
H936 H 0.86843 0.32442 0.25951 0.0
C937 C 0.85867 0.24435 0.1906 0.0
C938 C 0.88211 0.21875 0.24413 0.0
C939 C 0.85601 0.23119 0.1687 0.0
C940 C 0.86617 0.26712 0.33504 0.0
C941 C 0.86871 0.25508 0.31285 0.0
C942 C 0.87259 0.29496 0.25555 0.0
C943 C 0.87445 0.23154 0.20347 0.0
C944 C 0.87664 0.24479 0.22714 0.0
C945 C 0.8763 0.28052 0.29666 0.0
C946 C 0.87747 0.26864 0.27264 0.0
H947 H 0.89532 0.17189 0.16474 0.0
H948 H 0.90006 0.1952 0.20309 0.0
H949 H 0.86822 0.30424 0.22048 0.0
H950 H 0.88332 0.35936 0.33016 0.0
H951 H 0.88803 0.33817 0.29156 0.0
C952 C 0.8859 0.81394 0.67161 0.0
C953 C 0.87018 0.80102 0.65862 0.0
C954 C 0.88845 0.80054 0.6936 0.0
C955 C 0.88243 0.78728 0.74379 0.0
H956 H 0.86925 0.68148 0.75943 0.0
C957 C 0.86611 0.73995 0.83472 0.0
C958 C 0.87125 0.70234 0.8416 0.0
C959 C 0.86864 0.75162 0.81247 0.0
C960 C 0.87326 0.71099 0.75539 0.0
H961 H 0.84509 0.76313 0.65856 0.0
H962 H 0.8494 0.74038 0.69667 0.0
H963 H 0.86935 0.70116 0.72029 0.0
H964 H 0.88389 0.64808 0.83053 0.0
H965 H 0.8886 0.66864 0.79182 0.0
H966 H 0.8865 0.797 0.77892 0.0
C967 C 0.85993 0.76045 0.68988 0.0
C968 C 0.87307 0.72243 0.73291 0.0
C969 C 0.85738 0.77377 0.66799 0.0
C970 C 0.8796 0.67713 0.82581 0.0
C971 C 0.8822 0.68887 0.80355 0.0
C972 C 0.88267 0.7758 0.7663 0.0
C973 C 0.87539 0.77385 0.70308 0.0
C974 C 0.87732 0.76089 0.72683 0.0
C975 C 0.87649 0.72608 0.79649 0.0
C976 C 0.87779 0.73764 0.77243 0.0
H977 H 0.89609 0.8348 0.66493 0.0
H978 H 0.90066 0.81113 0.70318 0.0
H979 H 0.88566 0.81719 0.73978 0.0
H980 H 0.85964 0.7602 0.84639 0.0
H981 H 0.86383 0.7803 0.80766 0.0
C982 C 0.63833 0.27324 0.84082 0.0
C983 C 0.62574 0.30076 0.85033 0.0
C984 C 0.63551 0.25984 0.819 0.0
C985 C 0.6218 0.22157 0.77635 0.0
H986 H 0.60832 0.29573 0.73014 0.0
C987 C 0.61492 0.17505 0.68371 0.0
C988 C 0.62323 0.2 0.66775 0.0
C989 C 0.61235 0.18714 0.70592 0.0
C990 C 0.61216 0.27464 0.74282 0.0
H991 H 0.59994 0.335 0.8443 0.0
H992 H 0.59488 0.31119 0.80612 0.0
H993 H 0.60948 0.31641 0.7692 0.0
H994 H 0.6348 0.2578 0.66262 0.0
H995 H 0.63067 0.27852 0.70126 0.0
H996 H 0.62535 0.18024 0.74999 0.0
C997 C 0.60713 0.30043 0.81557 0.0
C998 C 0.61258 0.2864 0.76528 0.0
C999 C 0.60996 0.31392 0.83751 0.0
C1000 C 0.62835 0.23774 0.67442 0.0
C1001 C 0.62586 0.24976 0.69662 0.0
C1002 C 0.62144 0.20985 0.75392 0.0
C1003 C 0.61996 0.2734 0.80599 0.0
C1004 C 0.61773 0.26017 0.78231 0.0
C1005 C 0.61807 0.22446 0.71276 0.0
C1006 C 0.6169 0.23635 0.73679 0.0
H1007 H 0.65066 0.2624 0.8501 0.0
H1008 H 0.64588 0.23955 0.81212 0.0
H1009 H 0.62554 0.20039 0.78902 0.0
H1010 H 0.61065 0.1459 0.67916 0.0
H1011 H 0.60599 0.16708 0.71776 0.0
C1012 C 0.38342 0.32874 0.68051 0.0
C1013 C 0.37232 0.30731 0.66517 0.0
C1014 C 0.386 0.31552 0.70251 0.0
C1015 C 0.37933 0.22806 0.73906 0.0
H1016 H 0.37906 0.3044 0.78664 0.0
C1017 C 0.38313 0.18192 0.83217 0.0
C1018 C 0.3718 0.20309 0.84741 0.0
C1019 C 0.3858 0.19522 0.8102 0.0
C1020 C 0.37898 0.28258 0.77361 0.0
H1021 H 0.35535 0.25491 0.66093 0.0
H1022 H 0.35919 0.23272 0.6992 0.0
H1023 H 0.37839 0.32563 0.74789 0.0
H1024 H 0.35451 0.2551 0.85152 0.0
H1025 H 0.35852 0.27743 0.81328 0.0
H1026 H 0.37869 0.18499 0.76476 0.0
C1027 C 0.36645 0.25917 0.69425 0.0
C1028 C 0.37894 0.29483 0.75126 0.0
C1029 C 0.36411 0.27209 0.67223 0.0
C1030 C 0.36344 0.23813 0.84028 0.0
C1031 C 0.36588 0.25113 0.81829 0.0
C1032 C 0.3791 0.2158 0.7614 0.0
C1033 C 0.37731 0.28078 0.7098 0.0
C1034 C 0.37885 0.26776 0.73363 0.0
C1035 C 0.37699 0.22978 0.80284 0.0
C1036 C 0.37867 0.24287 0.77903 0.0
H1037 H 0.39007 0.35584 0.67555 0.0
H1038 H 0.39477 0.33266 0.7138 0.0
H1039 H 0.37967 0.20624 0.72603 0.0
H1040 H 0.38991 0.15498 0.83719 0.0
H1041 H 0.39477 0.1783 0.799 0.0
C1042 C 0.12093 0.83601 0.83087 0.0
C1043 C 0.12399 0.80933 0.84833 0.0
C1044 C 0.11911 0.82332 0.80871 0.0
C1045 C 0.10863 0.73771 0.7735 0.0
H1046 H 0.13957 0.79156 0.72917 0.0
C1047 C 0.12245 0.67571 0.68465 0.0
C1048 C 0.12438 0.70186 0.66671 0.0
C1049 C 0.12057 0.68924 0.70666 0.0
C1050 C 0.13055 0.77653 0.74118 0.0
H1051 H 0.12672 0.74818 0.85621 0.0
H1052 H 0.12343 0.72611 0.81755 0.0
H1053 H 0.13921 0.81454 0.76769 0.0
H1054 H 0.1249 0.76277 0.65779 0.0
H1055 H 0.1211 0.78631 0.69597 0.0
H1056 H 0.0999 0.69974 0.74699 0.0
C1057 C 0.12247 0.75685 0.82103 0.0
C1058 C 0.13039 0.78971 0.76333 0.0
C1059 C 0.12446 0.76955 0.84318 0.0
C1060 C 0.12367 0.74181 0.67123 0.0
C1061 C 0.12162 0.75533 0.69318 0.0
C1062 C 0.10866 0.72467 0.75128 0.0
C1063 C 0.1201 0.78363 0.80349 0.0
C1064 C 0.11953 0.77035 0.77978 0.0
C1065 C 0.12041 0.72926 0.71127 0.0
C1066 C 0.11971 0.74379 0.73483 0.0
H1067 H 0.12043 0.86684 0.83421 0.0
H1068 H 0.11705 0.84463 0.7956 0.0
H1069 H 0.09996 0.7224 0.78576 0.0
H1070 H 0.12299 0.64474 0.68179 0.0
H1071 H 0.11989 0.66825 0.72012 0.0
C1072 C 0.19604 0.40042 0.12809 0.0
C1073 C 0.17775 0.41734 0.12475 0.0
C1074 C 0.21257 0.42349 0.13031 0.0
C1075 C 0.23074 0.52237 0.11739 0.0
H1076 H 0.27396 0.49035 0.15447 0.0
C1077 C 0.29899 0.61732 0.12837 0.0
C1078 C 0.31682 0.59828 0.1254 0.0
C1079 C 0.28182 0.59617 0.13047 0.0
C1080 C 0.26203 0.49957 0.14397 0.0
H1081 H 0.16247 0.47198 0.12183 0.0
H1082 H 0.19118 0.51227 0.12643 0.0
H1083 H 0.24416 0.45242 0.15465 0.0
H1084 H 0.33055 0.54191 0.12296 0.0
H1085 H 0.30058 0.50502 0.12696 0.0
H1086 H 0.24864 0.56966 0.10687 0.0
C1087 C 0.19286 0.48109 0.12677 0.0
C1088 C 0.24494 0.47777 0.144 0.0
C1089 C 0.17633 0.45797 0.12432 0.0
C1090 C 0.3171 0.55752 0.12529 0.0
C1091 C 0.29993 0.53636 0.12765 0.0
C1092 C 0.24775 0.54435 0.11755 0.0
C1093 C 0.21127 0.46416 0.12947 0.0
C1094 C 0.22911 0.48861 0.13051 0.0
C1095 C 0.28206 0.55545 0.1299 0.0
C1096 C 0.26366 0.53302 0.13067 0.0
H1097 H 0.19772 0.36922 0.12827 0.0
H1098 H 0.22645 0.40925 0.13197 0.0
H1099 H 0.21908 0.53134 0.10645 0.0
H1100 H 0.2982 0.64867 0.12839 0.0
H1101 H 0.2683 0.61171 0.13239 0.0
C1102 C 0.67594 0.55332 0.38842 0.0
C1103 C 0.67711 0.59398 0.38879 0.0
C1104 C 0.69259 0.53073 0.38556 0.0
C1105 C 0.74481 0.53571 0.36882 0.0
H1106 H 0.74812 0.44083 0.40339 0.0
C1107 C 0.81655 0.4517 0.38465 0.0
C1108 C 0.8158 0.41099 0.38347 0.0
C1109 C 0.79961 0.47384 0.38302 0.0
C1110 C 0.74735 0.46701 0.39342 0.0
H1111 H 0.69678 0.64274 0.38626 0.0
H1112 H 0.7258 0.60351 0.38186 0.0
H1113 H 0.71873 0.47953 0.40486 0.0
H1114 H 0.79657 0.36182 0.37926 0.0
H1115 H 0.76711 0.40042 0.37653 0.0
H1116 H 0.77379 0.52347 0.35799 0.0
C1117 C 0.71199 0.5889 0.3832 0.0
C1118 C 0.73043 0.48924 0.39418 0.0
C1119 C 0.6953 0.6115 0.3858 0.0
C1120 C 0.79774 0.39308 0.38013 0.0
C1121 C 0.7808 0.41518 0.37874 0.0
C1122 C 0.76183 0.51363 0.36825 0.0
C1123 C 0.71092 0.54814 0.3833 0.0
C1124 C 0.72888 0.52396 0.38191 0.0
C1125 C 0.78149 0.45579 0.38045 0.0
C1126 C 0.7633 0.47902 0.38055 0.0
H1127 H 0.66215 0.53885 0.39058 0.0
H1128 H 0.69105 0.49951 0.38525 0.0
H1129 H 0.74412 0.56188 0.35885 0.0
H1130 H 0.83019 0.46647 0.38729 0.0
H1131 H 0.80062 0.50505 0.38456 0.0
C1132 C 0.79915 0.61315 0.87707 0.0
C1133 C 0.81678 0.59622 0.88369 0.0
C1134 C 0.78242 0.59059 0.87478 0.0
C1135 C 0.76522 0.48895 0.86906 0.0
H1136 H 0.71767 0.52904 0.89463 0.0
C1137 C 0.70109 0.39033 0.89209 0.0
C1138 C 0.68203 0.40388 0.88926 0.0
C1139 C 0.71692 0.41457 0.88822 0.0
C1140 C 0.73071 0.51762 0.88705 0.0
H1141 H 0.8306 0.54195 0.89267 0.0
H1142 H 0.80149 0.50274 0.88872 0.0
H1143 H 0.74651 0.56973 0.89378 0.0
H1144 H 0.6648 0.45367 0.87962 0.0
H1145 H 0.69258 0.49612 0.87267 0.0
H1146 H 0.74953 0.43662 0.86269 0.0
C1147 C 0.80062 0.53343 0.88506 0.0
C1148 C 0.74729 0.54097 0.88658 0.0
C1149 C 0.81734 0.55599 0.88742 0.0
C1150 C 0.67926 0.44221 0.88189 0.0
C1151 C 0.69518 0.46663 0.87809 0.0
C1152 C 0.74865 0.46564 0.86952 0.0
C1153 C 0.78288 0.55049 0.87898 0.0
C1154 C 0.76485 0.52672 0.8779 0.0
C1155 C 0.71421 0.45318 0.88142 0.0
C1156 C 0.73126 0.4794 0.87887 0.0
H1157 H 0.79814 0.64406 0.8741 0.0
H1158 H 0.76908 0.60463 0.86981 0.0
H1159 H 0.77837 0.47727 0.86186 0.0
H1160 H 0.70386 0.36103 0.89777 0.0
H1161 H 0.7313 0.4033 0.89128 0.0
C1162 C 0.1791 0.55695 0.62421 0.0
C1163 C 0.17955 0.5977 0.6248 0.0
C1164 C 0.19615 0.53541 0.62663 0.0
C1165 C 0.24853 0.5431 0.61777 0.0
H1166 H 0.25125 0.44966 0.65369 0.0
C1167 C 0.31975 0.45681 0.62547 0.0
C1168 C 0.31841 0.41617 0.62506 0.0
C1169 C 0.30314 0.47965 0.62789 0.0
C1170 C 0.25071 0.47545 0.64338 0.0
H1171 H 0.19833 0.64765 0.62873 0.0
H1172 H 0.228 0.61005 0.63285 0.0
H1173 H 0.2215 0.48782 0.65325 0.0
H1174 H 0.29849 0.36771 0.62715 0.0
H1175 H 0.26958 0.40737 0.63084 0.0
H1176 H 0.27741 0.53038 0.6073 0.0
C1177 C 0.21446 0.5948 0.63048 0.0
C1178 C 0.23365 0.49737 0.64319 0.0
C1179 C 0.19741 0.61632 0.62829 0.0
C1180 C 0.3001 0.39893 0.62763 0.0
C1181 C 0.28348 0.42176 0.62983 0.0
C1182 C 0.26551 0.52104 0.61778 0.0
C1183 C 0.21406 0.55412 0.62944 0.0
C1184 C 0.23235 0.53138 0.63033 0.0
C1185 C 0.28472 0.46247 0.62971 0.0
C1186 C 0.26684 0.48679 0.63052 0.0
H1187 H 0.16562 0.54165 0.62149 0.0
H1188 H 0.19538 0.50412 0.62557 0.0
H1189 H 0.2479 0.56884 0.60741 0.0
H1190 H 0.33362 0.47107 0.62361 0.0
H1191 H 0.30475 0.51085 0.62817 0.0
C1192 C 0.81674 0.06453 0.12515 0.0
C1193 C 0.81391 0.10258 0.11734 0.0
C1194 C 0.80086 0.04009 0.12915 0.0
C1195 C 0.74753 0.04141 0.13818 0.0
H1196 H 0.74919 0.9366 0.11493 0.0
C1197 C 0.67843 0.95171 0.122 0.0
C1198 C 0.67885 0.91151 0.12585 0.0
C1199 C 0.69525 0.974 0.12404 0.0
C1200 C 0.74855 0.96557 0.12186 0.0
H1201 H 0.79201 0.14483 0.10806 0.0
H1202 H 0.76465 0.10256 0.11495 0.0
H1203 H 0.77813 0.97702 0.11329 0.0
H1204 H 0.69738 0.86346 0.13537 0.0
H1205 H 0.72665 0.90246 0.13916 0.0
H1206 H 0.71789 0.03028 0.14641 0.0
C1207 C 0.77905 0.09155 0.11821 0.0
C1208 C 0.76518 0.98876 0.12092 0.0
C1209 C 0.79483 0.11577 0.11411 0.0
C1210 C 0.69647 0.89436 0.13232 0.0
C1211 C 0.71332 0.91666 0.13431 0.0
C1212 C 0.73093 0.01826 0.13913 0.0
C1213 C 0.78181 0.05329 0.12561 0.0
C1214 C 0.76478 0.02723 0.12869 0.0
C1215 C 0.71298 0.95672 0.12994 0.0
C1216 C 0.73111 0.98025 0.13063 0.0
H1217 H 0.83121 0.05336 0.12774 0.0
H1218 H 0.80349 0.01084 0.13498 0.0
H1219 H 0.74679 0.07066 0.1447 0.0
H1220 H 0.66518 0.96591 0.11685 0.0
H1221 H 0.69446 0.00465 0.12024 0.0
C1222 C 0.17687 0.05217 0.3896 0.0
C1223 C 0.17811 0.09283 0.38957 0.0
C1224 C 0.19352 0.0294 0.38706 0.0
C1225 C 0.24572 0.03405 0.37029 0.0
H1226 H 0.24941 0.94067 0.40614 0.0
C1227 C 0.31791 0.95349 0.38813 0.0
C1228 C 0.3176 0.91274 0.38749 0.0
C1229 C 0.30076 0.97481 0.38598 0.0
C1230 C 0.24853 0.96642 0.39581 0.0
H1231 H 0.19789 0.14138 0.38671 0.0
H1232 H 0.22683 0.10193 0.38286 0.0
H1233 H 0.21977 0.97877 0.40692 0.0
H1234 H 0.29894 0.86256 0.38372 0.0
H1235 H 0.2691 0.89977 0.38009 0.0
H1236 H 0.27481 0.02209 0.35981 0.0
C1237 C 0.213 0.08742 0.38426 0.0
C1238 C 0.23147 0.98828 0.39618 0.0
C1239 C 0.19635 0.11014 0.38657 0.0
C1240 C 0.29977 0.8939 0.38417 0.0
C1241 C 0.28262 0.9152 0.38227 0.0
C1242 C 0.26285 0.01237 0.37011 0.0
C1243 C 0.21187 0.04669 0.38469 0.0
C1244 C 0.22982 0.02253 0.3835 0.0
C1245 C 0.28287 0.95588 0.38342 0.0
C1246 C 0.26448 0.97836 0.38293 0.0
H1247 H 0.16306 0.03785 0.39182 0.0
H1248 H 0.19196 0.99819 0.38706 0.0
H1249 H 0.24493 0.05982 0.35998 0.0
H1250 H 0.33136 0.96895 0.39075 0.0
H1251 H 0.30142 0.00611 0.38711 0.0
C1252 C 0.1787 0.95359 0.89101 0.0
C1253 C 0.17911 0.91284 0.89037 0.0
C1254 C 0.19575 0.97507 0.88847 0.0
C1255 C 0.24822 0.96722 0.89675 0.0
H1256 H 0.25073 0.06051 0.86069 0.0
C1257 C 0.31947 0.05327 0.8881 0.0
C1258 C 0.31816 0.09392 0.88839 0.0
C1259 C 0.30282 0.03045 0.88594 0.0
C1260 C 0.25025 0.03477 0.87104 0.0
H1261 H 0.19782 0.86283 0.88625 0.0
H1262 H 0.2275 0.90033 0.88192 0.0
H1263 H 0.22094 0.02251 0.86154 0.0
H1264 H 0.29824 0.1424 0.8864 0.0
H1265 H 0.26929 0.1028 0.88318 0.0
H1266 H 0.2772 0.97984 0.90686 0.0
C1267 C 0.21399 0.91562 0.88442 0.0
C1268 C 0.23317 0.01294 0.87146 0.0
C1269 C 0.19693 0.89416 0.88674 0.0
C1270 C 0.29984 0.11118 0.886 0.0
C1271 C 0.28318 0.08838 0.88407 0.0
C1272 C 0.26522 0.9892 0.89651 0.0
C1273 C 0.21363 0.95631 0.88548 0.0
C1274 C 0.23194 0.97898 0.88438 0.0
C1275 C 0.28439 0.04767 0.88429 0.0
C1276 C 0.26648 0.0234 0.88372 0.0
H1277 H 0.16524 0.96893 0.89386 0.0
H1278 H 0.19502 0.00637 0.88955 0.0
H1279 H 0.24764 0.94152 0.90715 0.0
H1280 H 0.33335 0.039 0.88983 0.0
H1281 H 0.30441 0.99924 0.88574 0.0
C1282 C 0.81688 0.94401 0.62485 0.0
C1283 C 0.81458 0.90459 0.61946 0.0
C1284 C 0.80062 0.96792 0.62784 0.0
C1285 C 0.74917 0.97258 0.61104 0.0
H1286 H 0.74461 0.05293 0.65612 0.0
C1287 C 0.67747 0.05336 0.62372 0.0
C1288 C 0.67832 0.09382 0.62627 0.0
C1289 C 0.69426 0.03088 0.6251 0.0
C1290 C 0.74574 0.0308 0.64332 0.0
H1291 H 0.79336 0.85903 0.61433 0.0
H1292 H 0.76536 0.90018 0.61988 0.0
H1293 H 0.77391 0.01299 0.65455 0.0
H1294 H 0.69754 0.14216 0.63302 0.0
H1295 H 0.72686 0.10287 0.63526 0.0
H1296 H 0.72124 0.99024 0.59963 0.0
C1297 C 0.77961 0.91303 0.62124 0.0
C1298 C 0.76254 0.00795 0.64242 0.0
C1299 C 0.79574 0.88933 0.61819 0.0
C1300 C 0.69632 0.11105 0.63107 0.0
C1301 C 0.71315 0.08851 0.63241 0.0
C1302 C 0.73247 0.99529 0.61194 0.0
C1303 C 0.78178 0.95282 0.62551 0.0
C1304 C 0.76435 0.97828 0.62639 0.0
C1305 C 0.71238 0.04821 0.62896 0.0
C1306 C 0.73042 0.02446 0.6282 0.0
H1307 H 0.83118 0.95671 0.62586 0.0
H1308 H 0.8028 0.99848 0.63108 0.0
H1309 H 0.75025 0.95069 0.59809 0.0
H1310 H 0.66388 0.03903 0.62012 0.0
H1311 H 0.69305 0.99983 0.62282 0.0
C1312 C 0.31718 0.21036 0.98466 0.0
C1313 C 0.31489 0.19081 0.96418 0.0
C1314 C 0.30099 0.22358 0.99639 0.0
C1315 C 0.24782 0.21482 1.00087 0.0
H1316 H 0.25068 0.32226 0.01973 0.0
C1317 C 0.18024 0.29714 0.03 0.0
C1318 C 0.18233 0.31723 0.05033 0.0
C1319 C 0.19653 0.28353 0.01861 0.0
C1320 C 0.24971 0.29218 0.01468 0.0
H1321 H 0.29392 0.16717 0.94081 0.0
H1322 H 0.26577 0.19029 0.96124 0.0
H1323 H 0.27917 0.29106 1.00374 0.0
H1324 H 0.20309 0.3413 0.07382 0.0
H1325 H 0.23142 0.31746 0.05399 0.0
H1326 H 0.21836 0.21595 0.01179 0.0
C1327 C 0.28 0.19551 0.96822 0.0
C1328 C 0.26604 0.27424 1.00567 0.0
C1329 C 0.29614 0.18244 0.95646 0.0
C1330 C 0.20101 0.32564 0.05826 0.0
C1331 C 0.21726 0.31215 0.04686 0.0
C1332 C 0.2315 0.23276 0.00989 0.0
C1333 C 0.28228 0.21722 0.98793 0.0
C1334 C 0.26525 0.2354 0.99865 0.0
C1335 C 0.21516 0.28998 0.02729 0.0
C1336 C 0.23227 0.27163 0.01685 0.0
H1337 H 0.33144 0.21715 0.99107 0.0
H1338 H 0.30312 0.23969 0.01177 0.0
H1339 H 0.24685 0.18476 0.99578 0.0
H1340 H 0.16604 0.29029 0.02343 0.0
H1341 H 0.19453 0.2671 1.00332 0.0
C1342 C 0.31581 0.71354 0.03008 0.0
C1343 C 0.31402 0.69323 0.05036 0.0
C1344 C 0.29932 0.72673 0.01892 0.0
C1345 C 0.24625 0.71632 0.01535 0.0
H1346 H 0.2479 0.82459 0.99793 0.0
C1347 C 0.17793 0.79609 0.98595 0.0
C1348 C 0.18017 0.81656 0.96578 0.0
C1349 C 0.19418 0.78319 0.99771 0.0
C1350 C 0.24727 0.79428 1.00261 0.0
H1351 H 0.29365 0.66819 0.07398 0.0
H1352 H 0.26497 0.69118 0.0545 0.0
H1353 H 0.27679 0.79394 0.01332 0.0
H1354 H 0.20105 0.8422 0.94299 0.0
H1355 H 0.22928 0.81963 0.9634 0.0
H1356 H 0.21676 0.7166 1.00454 0.0
C1357 C 0.27903 0.69707 0.04726 0.0
C1358 C 0.26382 0.77669 0.01126 0.0
C1359 C 0.29547 0.68409 0.05846 0.0
C1360 C 0.19887 0.82616 0.9584 0.0
C1361 C 0.21506 0.81343 0.97016 0.0
C1362 C 0.2297 0.73391 0.00666 0.0
C1363 C 0.28082 0.71953 0.02776 0.0
C1364 C 0.26348 0.73752 0.01766 0.0
C1365 C 0.21288 0.79082 0.98955 0.0
C1366 C 0.23006 0.77304 1.00016 0.0
H1367 H 0.32992 0.72095 0.02343 0.0
H1368 H 0.30106 0.74347 1.00369 0.0
H1369 H 0.24564 0.68601 0.02002 0.0
H1370 H 0.16368 0.78833 0.99206 0.0
H1371 H 0.19211 0.76634 0.01283 0.0
C1372 C 0.6816 0.71867 0.48164 0.0
C1373 C 0.68302 0.69744 0.46164 0.0
C1374 C 0.69804 0.7359 0.49094 0.0
C1375 C 0.75173 0.73692 0.48798 0.0
H1376 H 0.74564 0.84199 0.51002 0.0
C1377 C 0.81752 0.82388 0.51548 0.0
C1378 C 0.81592 0.83384 0.53816 0.0
C1379 C 0.80093 0.81413 0.50333 0.0
C1380 C 0.74751 0.81277 0.50373 0.0
H1381 H 0.70295 0.67508 0.43664 0.0
H1382 H 0.73137 0.70549 0.45253 0.0
H1383 H 0.71736 0.80641 0.49655 0.0
H1384 H 0.79615 0.84529 0.5655 0.0
H1385 H 0.76715 0.82931 0.54417 0.0
H1386 H 0.78186 0.74336 0.49514 0.0
C1387 C 0.71769 0.70886 0.46118 0.0
C1388 C 0.73133 0.7922 0.49632 0.0
C1389 C 0.70134 0.69153 0.452 0.0
C1390 C 0.79758 0.83776 0.54794 0.0
C1391 C 0.78103 0.8287 0.53574 0.0
C1392 C 0.76789 0.75763 0.49513 0.0
C1393 C 0.71616 0.73217 0.48038 0.0
C1394 C 0.73325 0.75388 0.48858 0.0
C1395 C 0.78266 0.81487 0.51372 0.0
C1396 C 0.7659 0.79558 0.50326 0.0
H1397 H 0.66768 0.72366 0.48949 0.0
H1398 H 0.69648 0.75296 0.50606 0.0
H1399 H 0.7537 0.70731 0.48241 0.0
H1400 H 0.83161 0.82035 0.50778 0.0
H1401 H 0.80248 0.80374 0.4863 0.0
C1402 C 0.81476 0.29625 0.47912 0.0
C1403 C 0.81227 0.31229 0.45767 0.0
C1404 C 0.79878 0.28359 0.49138 0.0
C1405 C 0.7456 0.28954 0.49532 0.0
H1406 H 0.75031 0.18683 0.52121 0.0
C1407 C 0.67968 0.2087 0.53025 0.0
C1408 C 0.68213 0.19282 0.55174 0.0
C1409 C 0.69567 0.22139 0.51802 0.0
C1410 C 0.74883 0.21562 0.51419 0.0
H1411 H 0.79103 0.33 0.43288 0.0
H1412 H 0.76321 0.30771 0.45424 0.0
H1413 H 0.77817 0.21634 0.50282 0.0
H1414 H 0.70334 0.17542 0.57666 0.0
H1415 H 0.73118 0.19773 0.55533 0.0
H1416 H 0.71626 0.2888 0.50667 0.0
C1417 C 0.77748 0.3049 0.46157 0.0
C1418 C 0.76478 0.2326 0.50378 0.0
C1419 C 0.79344 0.31749 0.4493 0.0
C1420 C 0.70095 0.18782 0.5602 0.0
C1421 C 0.71692 0.20041 0.54795 0.0
C1422 C 0.72965 0.27256 0.50572 0.0
C1423 C 0.78004 0.28692 0.48246 0.0
C1424 C 0.76331 0.26972 0.49426 0.0
C1425 C 0.71439 0.21823 0.52701 0.0
C1426 C 0.73112 0.23544 0.51524 0.0
H1427 H 0.82907 0.29205 0.48609 0.0
H1428 H 0.80111 0.27045 0.50764 0.0
H1429 H 0.74412 0.31834 0.4883 0.0
H1430 H 0.66537 0.21276 0.52322 0.0
H1431 H 0.69336 0.23442 0.50173 0.0
C1432 C 0.816 0.71325 0.97945 0.0
C1433 C 0.81347 0.69597 0.95834 0.0
C1434 C 0.79999 0.72552 0.99178 0.0
C1435 C 0.74701 0.71677 0.99671 0.0
H1436 H 0.75041 0.82167 0.01981 0.0
C1437 C 0.68025 0.79622 0.03016 0.0
C1438 C 0.68262 0.81337 0.05133 0.0
C1439 C 0.69634 0.78386 0.01803 0.0
C1440 C 0.74932 0.79228 0.01356 0.0
H1441 H 0.79222 0.6755 0.93429 0.0
H1442 H 0.76434 0.69714 0.95576 0.0
H1443 H 0.77855 0.79235 1.00187 0.0
H1444 H 0.70368 0.83356 0.07568 0.0
H1445 H 0.73172 0.81181 0.05451 0.0
H1446 H 0.71776 0.71673 0.00836 0.0
C1447 C 0.77866 0.70123 0.96277 0.0
C1448 C 0.76542 0.77543 1.00343 0.0
C1449 C 0.79463 0.68904 0.95043 0.0
C1450 C 0.70139 0.82012 0.05949 0.0
C1451 C 0.71746 0.80786 0.04733 0.0
C1452 C 0.7309 0.73363 0.00682 0.0
C1453 C 0.78121 0.72053 0.98326 0.0
C1454 C 0.7644 0.73753 0.99492 0.0
C1455 C 0.71505 0.78865 0.02679 0.0
C1456 C 0.73191 0.77155 0.01531 0.0
H1457 H 0.83033 0.71879 0.98606 0.0
H1458 H 0.80231 0.73974 0.00774 0.0
H1459 H 0.7459 0.68739 0.99046 0.0
H1460 H 0.66597 0.79082 0.02337 0.0
H1461 H 0.69414 0.76971 1.00202 0.0
C1462 C 0.6815 0.31194 0.9905 0.0
C1463 C 0.6818 0.33025 0.96957 0.0
C1464 C 0.6988 0.29937 1.00018 0.0
C1465 C 0.74571 0.26512 0.98012 0.0
H1466 H 0.7575 0.25505 0.04329 0.0
C1467 C 0.81733 0.20459 0.01679 0.0
C1468 C 0.8158 0.18448 0.03711 0.0
C1469 C 0.80071 0.21973 0.00669 0.0
C1470 C 0.75423 0.25721 0.02558 0.0
H1471 H 0.69995 0.35335 0.94324 0.0
H1472 H 0.73027 0.33299 0.96056 0.0
H1473 H 0.72995 0.29427 0.03164 0.0
H1474 H 0.79614 0.16092 0.0618 0.0
H1475 H 0.76705 0.18596 0.04375 0.0
H1476 H 0.77001 0.228 0.97411 0.0
C1477 C 0.7168 0.32732 0.96926 0.0
C1478 C 0.73855 0.27989 0.01894 0.0
C1479 C 0.69954 0.33947 0.95952 0.0
C1480 C 0.79751 0.17613 0.04598 0.0
C1481 C 0.78095 0.19095 0.03587 0.0
C1482 C 0.76143 0.24252 0.98677 0.0
C1483 C 0.71651 0.30514 0.98899 0.0
C1484 C 0.73406 0.28391 0.99615 0.0
C1485 C 0.78252 0.21479 0.01689 0.0
C1486 C 0.76571 0.23804 0.00957 0.0
H1487 H 0.66788 0.30393 0.99821 0.0
H1488 H 0.69811 0.28227 0.01538 0.0
H1489 H 0.74236 0.26696 0.96242 0.0
H1490 H 0.8314 0.21196 0.01001 0.0
H1491 H 0.80231 0.238 0.99205 0.0
C1492 C 0.29573 0.32761 0.55717 0.0
C1493 C 0.3144 0.31916 0.54922 0.0
C1494 C 0.27948 0.31429 0.54573 0.0
C1495 C 0.26527 0.23468 0.50914 0.0
H1496 H 0.21754 0.29271 0.5028 0.0
C1497 C 0.20036 0.18256 0.45681 0.0
C1498 C 0.18166 0.19127 0.46456 0.0
C1499 C 0.21657 0.196 0.46829 0.0
C1500 C 0.23069 0.27598 0.50479 0.0
H1501 H 0.3307 0.29246 0.52224 0.0
H1502 H 0.30219 0.26945 0.50209 0.0
H1503 H 0.24607 0.32437 0.51839 0.0
H1504 H 0.16525 0.21858 0.49125 0.0
H1505 H 0.19368 0.24171 0.5115 0.0
H1506 H 0.24989 0.18627 0.49558 0.0
C1507 C 0.3002 0.28583 0.51741 0.0
C1508 C 0.24704 0.29417 0.51355 0.0
C1509 C 0.31649 0.29931 0.52882 0.0
C1510 C 0.17948 0.21151 0.48482 0.0
C1511 C 0.19573 0.22508 0.49629 0.0
C1512 C 0.24892 0.21647 0.50039 0.0
C1513 C 0.28158 0.29223 0.52612 0.0
C1514 C 0.26449 0.2737 0.51579 0.0
C1515 C 0.21439 0.21841 0.48775 0.0
C1516 C 0.23147 0.23695 0.49813 0.0
H1517 H 0.29366 0.34313 0.57278 0.0
H1518 H 0.26531 0.31957 0.55288 0.0
H1519 H 0.27843 0.21796 0.51112 0.0
H1520 H 0.2025 0.16675 0.44131 0.0
H1521 H 0.23076 0.19052 0.46126 0.0
C1522 C 0.29498 0.82334 0.45298 0.0
C1523 C 0.31352 0.81565 0.46159 0.0
C1524 C 0.27854 0.81024 0.46416 0.0
C1525 C 0.26361 0.7328 0.50203 0.0
H1526 H 0.21618 0.79217 0.50724 0.0
C1527 C 0.19929 0.68579 0.55662 0.0
C1528 C 0.18047 0.69413 0.54914 0.0
C1529 C 0.21532 0.69825 0.54445 0.0
C1530 C 0.22923 0.77503 0.50556 0.0
H1531 H 0.32934 0.79024 0.48934 0.0
H1532 H 0.3005 0.76757 0.50901 0.0
H1533 H 0.24482 0.82212 0.49076 0.0
H1534 H 0.16364 0.71992 0.52232 0.0
H1535 H 0.19177 0.74138 0.50084 0.0
H1536 H 0.24807 0.68571 0.51682 0.0
C1537 C 0.29877 0.78323 0.49341 0.0
C1538 C 0.24564 0.79226 0.49627 0.0
C1539 C 0.31526 0.79652 0.48227 0.0
C1540 C 0.17797 0.71317 0.52854 0.0
C1541 C 0.19406 0.72576 0.51636 0.0
C1542 C 0.24721 0.71555 0.51127 0.0
C1543 C 0.2803 0.78912 0.48415 0.0
C1544 C 0.26301 0.77137 0.49453 0.0
C1545 C 0.21287 0.71928 0.52452 0.0
C1546 C 0.22988 0.73655 0.51324 0.0
H1547 H 0.29318 0.83828 0.43714 0.0
H1548 H 0.2645 0.8151 0.4566 0.0
H1549 H 0.27671 0.71575 0.50045 0.0
H1550 H 0.20169 0.6709 0.57237 0.0
H1551 H 0.22961 0.693 0.55125 0.0
C1552 C 0.06257 0.31959 0.11394 0.0
C1553 C 0.07077 0.33085 0.09337 0.0
C1554 C 0.04508 0.29914 0.11452 0.0
C1555 C 0.01419 0.23772 0.07816 0.0
H1556 H 0.97491 0.25582 0.12337 0.0
C1557 C 0.93497 0.19248 0.06777 0.0
C1558 C 0.925 0.17686 0.08618 0.0
C1559 C 0.95385 0.20608 0.07012 0.0
C1560 C 0.9859 0.25 0.11088 0.0
H1561 H 0.06655 0.33098 0.05735 0.0
H1562 H 0.03588 0.29652 0.0584 0.0
H1563 H 0.00513 0.2926 0.12452 0.0
H1564 H 0.92705 0.16239 0.12141 0.0
H1565 H 0.96028 0.18692 0.12567 0.0
H1566 H 0.99469 0.1961 0.06411 0.0
C1567 C 0.04319 0.30243 0.07408 0.0
C1568 C 0.0032 0.27112 0.11149 0.0
C1569 C 0.0607 0.3226 0.07348 0.0
C1570 C 0.93451 0.17396 0.10692 0.0
C1571 C 0.9534 0.18828 0.10938 0.0
C1572 C 0.99689 0.21688 0.07748 0.0
C1573 C 0.03537 0.28964 0.09455 0.0
C1574 C 0.0174 0.26577 0.09486 0.0
C1575 C 0.96313 0.20491 0.09103 0.0
C1576 C 0.98242 0.22327 0.09358 0.0
H1577 H 0.07003 0.32519 0.12957 0.0
H1578 H 0.03955 0.28959 0.13058 0.0
H1579 H 0.02501 0.23201 0.06545 0.0
H1580 H 0.92799 0.1951 0.05159 0.0
H1581 H 0.96088 0.21906 0.05574 0.0
C1582 C 0.43533 0.67663 0.11258 0.0
C1583 C 0.42588 0.6704 0.09201 0.0
C1584 C 0.45352 0.69431 0.11323 0.0
C1585 C 0.4961 0.71913 0.07852 0.0
H1586 H 0.5033 0.80152 0.12194 0.0
C1587 C 0.56123 0.82207 0.07331 0.0
C1588 C 0.57085 0.83099 0.09341 0.0
C1589 C 0.54331 0.80341 0.07361 0.0
C1590 C 0.50162 0.77833 0.10988 0.0
H1591 H 0.42852 0.6767 0.05596 0.0
H1592 H 0.46024 0.70735 0.05713 0.0
H1593 H 0.47321 0.76453 0.12179 0.0
H1594 H 0.56882 0.82833 0.12966 0.0
H1595 H 0.53756 0.79552 0.13017 0.0
H1596 H 0.52447 0.7328 0.0666 0.0
C1597 C 0.45361 0.69841 0.07274 0.0
C1598 C 0.48438 0.75707 0.10982 0.0
C1599 C 0.43539 0.68089 0.07208 0.0
C1600 C 0.56175 0.82213 0.11386 0.0
C1601 C 0.54382 0.80331 0.11416 0.0
C1602 C 0.51333 0.74029 0.07861 0.0
C1603 C 0.46273 0.70599 0.09334 0.0
C1604 C 0.48139 0.72738 0.09405 0.0
C1605 C 0.53458 0.79301 0.09401 0.0
C1606 C 0.51625 0.77035 0.09418 0.0
H1607 H 0.42842 0.669 0.12826 0.0
H1608 H 0.4603 0.69925 0.12934 0.0
H1609 H 0.49435 0.69609 0.06637 0.0
H1610 H 0.56777 0.82862 0.05725 0.0
H1611 H 0.5364 0.79669 0.05779 0.0
C1612 C 0.4354 0.82924 0.40235 0.0
C1613 C 0.42592 0.83798 0.42258 0.0
C1614 C 0.45342 0.81075 0.40247 0.0
C1615 C 0.49569 0.78801 0.43812 0.0
H1616 H 0.50201 0.70073 0.39784 0.0
C1617 C 0.56116 0.68527 0.44526 0.0
C1618 C 0.57005 0.67368 0.42516 0.0
C1619 C 0.54325 0.70413 0.44499 0.0
C1620 C 0.50059 0.72527 0.40903 0.0
H1621 H 0.42832 0.83536 0.45881 0.0
H1622 H 0.45975 0.80342 0.45897 0.0
H1623 H 0.47222 0.73856 0.39683 0.0
H1624 H 0.56676 0.67198 0.389 0.0
H1625 H 0.53569 0.70512 0.38853 0.0
H1626 H 0.52409 0.775 0.45023 0.0
C1627 C 0.45329 0.81093 0.44302 0.0
C1628 C 0.48351 0.74699 0.40842 0.0
C1629 C 0.43523 0.82919 0.44291 0.0
C1630 C 0.56029 0.68023 0.40483 0.0
C1631 C 0.54241 0.69922 0.40456 0.0
C1632 C 0.51281 0.76641 0.43866 0.0
C1633 C 0.46241 0.8008 0.4228 0.0
C1634 C 0.48085 0.77857 0.42299 0.0
C1635 C 0.53382 0.71203 0.4246 0.0
C1636 C 0.51546 0.73467 0.42417 0.0
H1637 H 0.42863 0.83546 0.38638 0.0
H1638 H 0.46022 0.80381 0.38661 0.0
H1639 H 0.49418 0.81243 0.44938 0.0
H1640 H 0.56825 0.68068 0.46123 0.0
H1641 H 0.53689 0.7129 0.46078 0.0
C1642 C 0.06087 0.18034 0.39967 0.0
C1643 C 0.06997 0.17431 0.42046 0.0
C1644 C 0.04267 0.19798 0.39855 0.0
C1645 C -0.00052 0.22232 0.43239 0.0
H1646 H 0.99215 0.3037 0.38836 0.0
C1647 C 0.93368 0.32367 0.4363 0.0
C1648 C 0.92414 0.33202 0.41606 0.0
C1649 C 0.95173 0.30546 0.43626 0.0
C1650 C 0.99388 0.28078 0.40059 0.0
H1651 H 0.06677 0.18117 0.45642 0.0
H1652 H 0.03508 0.21175 0.45444 0.0
H1653 H 0.02251 0.26754 0.38917 0.0
H1654 H 0.92643 0.32885 0.37985 0.0
H1655 H 0.95793 0.29682 0.3798 0.0
H1656 H 0.9709 0.23541 0.44383 0.0
C1657 C 0.04195 0.20266 0.439 0.0
C1658 C 0.01127 0.26 0.40103 0.0
C1659 C 0.06017 0.18518 0.44013 0.0
C1660 C 0.93344 0.32307 0.39575 0.0
C1661 C 0.9515 0.3047 0.39571 0.0
C1662 C 0.9821 0.243 0.43193 0.0
C1663 C 0.03312 0.20982 0.41819 0.0
C1664 C 0.01431 0.2307 0.41704 0.0
C1665 C 0.96067 0.29495 0.416 0.0
C1666 C 0.97914 0.27271 0.41615 0.0
H1667 H 0.06802 0.17244 0.38417 0.0
H1668 H 0.03613 0.20263 0.38228 0.0
H1669 H 0.00124 0.19953 0.4447 0.0
H1670 H 0.92701 0.33031 0.45227 0.0
H1671 H 0.95857 0.29917 0.45218 0.0
C1672 C 0.93463 0.68674 0.93524 0.0
C1673 C 0.92489 0.67782 0.91521 0.0
C1674 C 0.95241 0.70585 0.9348 0.0
C1675 C 0.99385 0.73226 0.89876 0.0
H1676 H 4e-05 0.81492 0.94223 0.0
C1677 C 0.06061 0.83323 0.89869 0.0
C1678 C 0.06934 0.83919 0.9197 0.0
C1679 C 0.04235 0.81596 0.89715 0.0
C1680 C -0.00141 0.79179 0.93008 0.0
H1681 H 0.92663 0.68067 0.87895 0.0
H1682 H 0.95776 0.71422 0.87821 0.0
H1683 H 0.97009 0.77779 0.94138 0.0
H1684 H 0.06538 0.83286 0.95559 0.0
H1685 H 0.03362 0.8029 0.95288 0.0
H1686 H 0.02246 0.74624 0.88757 0.0
C1687 C 0.95163 0.70617 0.89425 0.0
C1688 C 0.98145 0.77041 0.92963 0.0
C1689 C 0.9338 0.68692 0.89468 0.0
C1690 C 0.05908 0.82885 0.93914 0.0
C1691 C 0.04081 0.81175 0.93759 0.0
C1692 C 0.01103 0.75371 0.89921 0.0
C1693 C 0.9609 0.71668 0.91434 0.0
C1694 C 0.97896 0.74006 0.91416 0.0
C1695 C 0.03239 0.80445 0.91658 0.0
C1696 C 0.01367 0.78344 0.91505 0.0
H1697 H 0.92826 0.67996 0.95135 0.0
H1698 H 0.95938 0.7127 0.95057 0.0
H1699 H 0.99244 0.70891 0.88675 0.0
H1700 H 0.06813 0.84073 0.88336 0.0
H1701 H 0.03612 0.81118 0.88072 0.0
C1702 C 0.56159 0.33411 0.90339 0.0
C1703 C 0.57142 0.33212 0.92396 0.0
C1704 C 0.54276 0.31928 0.90146 0.0
C1705 C 0.49992 0.29036 0.93449 0.0
H1706 H 0.49143 0.21387 0.88793 0.0
C1707 C 0.43606 0.18461 0.93941 0.0
C1708 C 0.42591 0.17632 0.91959 0.0
C1709 C 0.45362 0.20462 0.93869 0.0
C1710 C 0.49343 0.23554 0.90085 0.0
H1711 H 0.56902 0.31501 0.95882 0.0
H1712 H 0.53623 0.29011 0.95557 0.0
H1713 H 0.5215 0.25112 0.88842 0.0
H1714 H 0.42657 0.18171 0.88336 0.0
H1715 H 0.45709 0.217 0.88214 0.0
H1716 H 0.472 0.27497 0.94702 0.0
C1717 C 0.54297 0.30278 0.94091 0.0
C1718 C 0.51064 0.25694 0.90107 0.0
C1719 C 0.56179 0.31692 0.94274 0.0
C1720 C 0.43408 0.18734 0.89896 0.0
C1721 C 0.45161 0.2076 0.89824 0.0
C1722 C 0.4827 0.26923 0.93419 0.0
C1723 C 0.53339 0.303 0.92017 0.0
C1724 C 0.5142 0.28403 0.91816 0.0
C1725 C 0.4614 0.21717 0.91814 0.0
C1726 C 0.47938 0.24097 0.91763 0.0
H1727 H 0.56877 0.34534 0.88862 0.0
H1728 H 0.53565 0.31994 0.88529 0.0
H1729 H 0.50219 0.31139 0.94771 0.0
H1730 H 0.43022 0.17644 0.95559 0.0
H1731 H 0.46099 0.21063 0.95432 0.0
C1732 C 0.56096 0.1824 0.57296 0.0
C1733 C 0.57038 0.17316 0.59315 0.0
C1734 C 0.54306 0.20117 0.57314 0.0
C1735 C 0.50114 0.22613 0.6091 0.0
H1736 H 0.49455 0.30951 0.56617 0.0
C1737 C 0.43559 0.32961 0.6123 0.0
C1738 C 0.42625 0.33658 0.59176 0.0
C1739 C 0.45364 0.31135 0.61288 0.0
C1740 C 0.49612 0.28614 0.57815 0.0
H1741 H 0.568 0.17529 0.62939 0.0
H1742 H 0.53681 0.20828 0.62967 0.0
H1743 H 0.52447 0.27214 0.56632 0.0
H1744 H 0.42891 0.33094 0.55566 0.0
H1745 H 0.46038 0.29925 0.55671 0.0
H1746 H 0.47276 0.2403 0.62094 0.0
C1747 C 0.54319 0.20067 0.61369 0.0
C1748 C 0.51323 0.2646 0.5782 0.0
C1749 C 0.5611 0.18176 0.61352 0.0
C1750 C 0.43571 0.32617 0.57178 0.0
C1751 C 0.45379 0.30807 0.57237 0.0
C1752 C 0.48403 0.24776 0.60908 0.0
C1753 C 0.53416 0.21132 0.59349 0.0
C1754 C 0.51591 0.23417 0.59358 0.0
C1755 C 0.46279 0.2998 0.59293 0.0
C1756 C 0.48129 0.2779 0.59354 0.0
H1757 H 0.56764 0.17607 0.55696 0.0
H1758 H 0.53631 0.2082 0.55727 0.0
H1759 H 0.50265 0.20264 0.621 0.0
H1760 H 0.42871 0.33716 0.62802 0.0
H1761 H 0.46035 0.30587 0.62898 0.0
C1762 C 0.05897 0.67712 0.57587 0.0
C1763 C 0.06993 0.67187 0.59546 0.0
C1764 C 0.04075 0.69448 0.57681 0.0
C1765 C 0.01208 0.76267 0.61007 0.0
H1766 H 0.96978 0.72412 0.57373 0.0
C1767 C 0.93437 0.83051 0.60786 0.0
C1768 C 0.92524 0.83041 0.58682 0.0
C1769 C 0.95243 0.8125 0.6106 0.0
C1770 C 0.9815 0.73554 0.58381 0.0
H1771 H 0.07015 0.68014 0.63151 0.0
H1772 H 0.0382 0.71055 0.6331 0.0
H1773 H -0.0002 0.68751 0.5758 0.0
H1774 H 0.92841 0.81434 0.5519 0.0
H1775 H 0.95992 0.7843 0.55648 0.0
H1776 H 0.99377 0.81117 0.61772 0.0
C1777 C 0.04382 0.70125 0.61703 0.0
C1778 C -0.00133 0.71443 0.58504 0.0
C1779 C 0.06201 0.68349 0.61612 0.0
C1780 C 0.93501 0.81446 0.56837 0.0
C1781 C 0.95299 0.7969 0.57105 0.0
C1782 C 0.99484 0.78396 0.60876 0.0
C1783 C 0.0331 0.70731 0.59734 0.0
C1784 C 0.01428 0.72806 0.59785 0.0
C1785 C 0.9616 0.79435 0.59231 0.0
C1786 C 0.97951 0.77099 0.59522 0.0
H1787 H 0.06467 0.66867 0.55968 0.0
H1788 H 0.03292 0.69908 0.56131 0.0
H1789 H 0.02392 0.77401 0.61997 0.0
H1790 H 0.92705 0.84233 0.62238 0.0
H1791 H 0.95872 0.81108 0.6272 0.0
loop_
_geom_bond_atom_site_label_1
_geom_bond_atom_site_label_2
_geom_bond_distance
_geom_bond_site_symmetry_2
_ccdc_geom_bond_type
Fe0 O2 1.918 . S
Fe0 O5 1.997 . S
Fe0 O6 2.002 . S
Fe0 O11 1.976 . S
Fe0 O14 1.996 . S
Fe1 O2 1.918 . S
Fe1 O9 1.997 . S
Fe1 O12 1.996 . S
Fe1 O16 1.976 . S
Fe1 O19 2.002 . S
O2 Fe0 1.918 . S
O2 Fe1 1.918 . S
O2 Fe3 1.918 . S
Fe3 O2 1.918 . S
Fe3 O4 2.002 . S
Fe3 O13 1.976 . S
Fe3 O17 1.996 . S
Fe3 O20 1.997 . S
O4 Fe3 2.002 . S
O4 C21 1.295 . S
O5 Fe0 1.997 . S
O5 C21 1.235 . S
O6 Fe0 2.002 . S
O6 C7 1.295 . S
C7 O6 1.295 . S
C7 O9 1.235 . S
C8 O13 1.287 . S
C8 O14 1.255 . S
O9 Fe1 1.997 . S
O9 C7 1.235 . S
C10 O16 1.287 . S
C10 O17 1.255 . S
O11 Fe0 1.976 . S
O11 C18 1.287 . S
O12 Fe1 1.996 . S
O12 C18 1.255 . S
O13 Fe3 1.976 . S
O13 C8 1.287 . S
O14 Fe0 1.996 . S
O14 C8 1.255 . S
C15 O19 1.295 . S
C15 O20 1.235 . S
O16 Fe1 1.976 . S
O16 C10 1.287 . S
O17 Fe3 1.996 . S
O17 C10 1.255 . S
C18 O11 1.287 . S
C18 O12 1.255 . S
O19 Fe1 2.002 . S
O19 C15 1.295 . S
O20 Fe3 1.997 . S
O20 C15 1.235 . S
C21 O4 1.295 . S
C21 O5 1.235 . S
Fe22 O24 1.918 . S
Fe22 O27 1.997 . S
Fe22 O28 2.002 . S
Fe22 O33 1.976 . S
Fe22 O36 1.996 . S
Fe23 O24 1.918 . S
Fe23 O31 1.997 . S
Fe23 O34 1.996 . S
Fe23 O38 1.976 . S
Fe23 O41 2.002 . S
O24 Fe22 1.918 . S
O24 Fe23 1.918 . S
O24 Fe25 1.918 . S
Fe25 O24 1.918 . S
Fe25 O26 2.002 . S
Fe25 O35 1.976 . S
Fe25 O39 1.996 . S
Fe25 O42 1.997 . S
O26 Fe25 2.002 . S
O26 C43 1.295 . S
O27 Fe22 1.997 . S
O27 C43 1.235 . S
O28 Fe22 2.002 . S
O28 C29 1.295 . S
C29 O28 1.295 . S
C29 O31 1.235 . S
C30 O35 1.287 . S
C30 O36 1.255 . S
O31 Fe23 1.997 . S
O31 C29 1.235 . S
C32 O38 1.287 . S
C32 O39 1.255 . S
O33 Fe22 1.976 . S
O33 C40 1.287 . S
O34 Fe23 1.996 . S
O34 C40 1.255 . S
O35 Fe25 1.976 . S
O35 C30 1.287 . S
O36 Fe22 1.996 . S
O36 C30 1.255 . S
C37 O41 1.295 . S
C37 O42 1.235 . S
O38 Fe23 1.976 . S
O38 C32 1.287 . S
O39 Fe25 1.996 . S
O39 C32 1.255 . S
C40 O33 1.287 . S
C40 O34 1.255 . S
O41 Fe23 2.002 . S
O41 C37 1.295 . S
O42 Fe25 1.997 . S
O42 C37 1.235 . S
C43 O26 1.295 . S
C43 O27 1.235 . S
Fe44 O46 1.918 . S
Fe44 O49 1.997 . S
Fe44 O50 2.002 . S
Fe44 O55 1.976 . S
Fe44 O58 1.996 . S
Fe45 O46 1.918 . S
Fe45 O53 1.997 . S
Fe45 O56 1.996 . S
Fe45 O60 1.976 . S
Fe45 O63 2.002 . S
O46 Fe44 1.918 . S
O46 Fe45 1.918 . S
O46 Fe47 1.918 . S
Fe47 O46 1.918 . S
Fe47 O48 2.002 . S
Fe47 O57 1.976 . S
Fe47 O61 1.996 . S
Fe47 O64 1.997 . S
O48 Fe47 2.002 . S
O48 C65 1.295 . S
O49 Fe44 1.997 . S
O49 C65 1.235 . S
O50 Fe44 2.002 . S
O50 C51 1.295 . S
C51 O50 1.295 . S
C51 O53 1.235 . S
C52 O57 1.287 . S
C52 O58 1.255 . S
O53 Fe45 1.997 . S
O53 C51 1.235 . S
C54 O60 1.287 . S
C54 O61 1.255 . S
O55 Fe44 1.976 . S
O55 C62 1.287 . S
O56 Fe45 1.996 . S
O56 C62 1.255 . S
O57 Fe47 1.976 . S
O57 C52 1.287 . S
O58 Fe44 1.996 . S
O58 C52 1.255 . S
C59 O63 1.295 . S
C59 O64 1.235 . S
O60 Fe45 1.976 . S
O60 C54 1.287 . S
O61 Fe47 1.996 . S
O61 C54 1.255 . S
C62 O55 1.287 . S
C62 O56 1.255 . S
O63 Fe45 2.002 . S
O63 C59 1.295 . S
O64 Fe47 1.997 . S
O64 C59 1.235 . S
C65 O48 1.295 . S
C65 O49 1.235 . S
Fe66 O68 1.918 . S
Fe66 O71 1.997 . S
Fe66 O72 2.002 . S
Fe66 O77 1.976 . S
Fe66 O80 1.996 . S
Fe67 O68 1.918 . S
Fe67 O75 1.997 . S
Fe67 O78 1.996 . S
Fe67 O82 1.976 . S
Fe67 O85 2.002 . S
O68 Fe66 1.918 . S
O68 Fe67 1.918 . S
O68 Fe69 1.918 . S
Fe69 O68 1.918 . S
Fe69 O70 2.002 . S
Fe69 O79 1.976 . S
Fe69 O83 1.996 . S
Fe69 O86 1.997 . S
O70 Fe69 2.002 . S
O70 C87 1.295 . S
O71 Fe66 1.997 . S
O71 C87 1.235 . S
O72 Fe66 2.002 . S
O72 C73 1.295 . S
C73 O72 1.295 . S
C73 O75 1.235 . S
C74 O79 1.287 . S
C74 O80 1.255 . S
O75 Fe67 1.997 . S
O75 C73 1.235 . S
C76 O82 1.287 . S
C76 O83 1.255 . S
O77 Fe66 1.976 . S
O77 C84 1.287 . S
O78 Fe67 1.996 . S
O78 C84 1.255 . S
O79 Fe69 1.976 . S
O79 C74 1.287 . S
O80 Fe66 1.996 . S
O80 C74 1.255 . S
C81 O85 1.295 . S
C81 O86 1.235 . S
O82 Fe67 1.976 . S
O82 C76 1.287 . S
O83 Fe69 1.996 . S
O83 C76 1.255 . S
C84 O77 1.287 . S
C84 O78 1.255 . S
O85 Fe67 2.002 . S
O85 C81 1.295 . S
O86 Fe69 1.997 . S
O86 C81 1.235 . S
C87 O70 1.295 . S
C87 O71 1.235 . S
Fe88 O90 1.918 . S
Fe88 O93 1.997 . S
Fe88 O94 2.002 . S
Fe88 O99 1.976 . S
Fe88 O102 1.996 . S
Fe89 O90 1.918 . S
Fe89 O97 1.997 . S
Fe89 O100 1.996 . S
Fe89 O104 1.976 . S
Fe89 O107 2.002 . S
O90 Fe88 1.918 . S
O90 Fe89 1.918 . S
O90 Fe91 1.918 . S
Fe91 O90 1.918 . S
Fe91 O92 2.002 . S
Fe91 O101 1.976 . S
Fe91 O105 1.996 . S
Fe91 O108 1.997 . S
O92 Fe91 2.002 . S
O92 C109 1.295 . S
O93 Fe88 1.997 . S
O93 C109 1.235 . S
O94 Fe88 2.002 . S
O94 C95 1.295 . S
C95 O94 1.295 . S
C95 O97 1.235 . S
C96 O101 1.287 . S
C96 O102 1.255 . S
O97 Fe89 1.997 . S
O97 C95 1.235 . S
C98 O104 1.287 . S
C98 O105 1.255 . S
O99 Fe88 1.976 . S
O99 C106 1.287 . S
O100 Fe89 1.996 . S
O100 C106 1.255 . S
O101 Fe91 1.976 . S
O101 C96 1.287 . S
O102 Fe88 1.996 . S
O102 C96 1.255 . S
C103 O107 1.295 . S
C103 O108 1.235 . S
O104 Fe89 1.976 . S
O104 C98 1.287 . S
O105 Fe91 1.996 . S
O105 C98 1.255 . S
C106 O99 1.287 . S
C106 O100 1.255 . S
O107 Fe89 2.002 . S
O107 C103 1.295 . S
O108 Fe91 1.997 . S
O108 C103 1.235 . S
C109 O92 1.295 . S
C109 O93 1.235 . S
Fe110 O112 1.918 . S
Fe110 O115 1.997 . S
Fe110 O116 2.002 . S
Fe110 O121 1.976 . S
Fe110 O124 1.996 . S
Fe111 O112 1.918 . S
Fe111 O119 1.997 . S
Fe111 O122 1.996 . S
Fe111 O126 1.976 . S
Fe111 O129 2.002 . S
O112 Fe110 1.918 . S
O112 Fe111 1.918 . S
O112 Fe113 1.918 . S
Fe113 O112 1.918 . S
Fe113 O114 2.002 . S
Fe113 O123 1.976 . S
Fe113 O127 1.996 . S
Fe113 O130 1.997 . S
O114 Fe113 2.002 . S
O114 C131 1.295 . S
O115 Fe110 1.997 . S
O115 C131 1.235 . S
O116 Fe110 2.002 . S
O116 C117 1.295 . S
C117 O116 1.295 . S
C117 O119 1.235 . S
C118 O123 1.287 . S
C118 O124 1.255 . S
O119 Fe111 1.997 . S
O119 C117 1.235 . S
C120 O126 1.287 . S
C120 O127 1.255 . S
O121 Fe110 1.976 . S
O121 C128 1.287 . S
O122 Fe111 1.996 . S
O122 C128 1.255 . S
O123 Fe113 1.976 . S
O123 C118 1.287 . S
O124 Fe110 1.996 . S
O124 C118 1.255 . S
C125 O129 1.295 . S
C125 O130 1.235 . S
O126 Fe111 1.976 . S
O126 C120 1.287 . S
O127 Fe113 1.996 . S
O127 C120 1.255 . S
C128 O121 1.287 . S
C128 O122 1.255 . S
O129 Fe111 2.002 . S
O129 C125 1.295 . S
O130 Fe113 1.997 . S
O130 C125 1.235 . S
C131 O114 1.295 . S
C131 O115 1.235 . S
Fe132 O134 1.918 . S
Fe132 O137 1.997 . S
Fe132 O138 2.002 . S
Fe132 O143 1.976 . S
Fe132 O146 1.996 . S
Fe133 O134 1.918 . S
Fe133 O141 1.997 . S
Fe133 O144 1.996 . S
Fe133 O148 1.976 . S
Fe133 O151 2.002 . S
O134 Fe132 1.918 . S
O134 Fe133 1.918 . S
O134 Fe135 1.918 . S
Fe135 O134 1.918 . S
Fe135 O136 2.002 . S
Fe135 O145 1.976 . S
Fe135 O149 1.996 . S
Fe135 O152 1.997 . S
O136 Fe135 2.002 . S
O136 C153 1.295 . S
O137 Fe132 1.997 . S
O137 C153 1.235 . S
O138 Fe132 2.002 . S
O138 C139 1.295 . S
C139 O138 1.295 . S
C139 O141 1.235 . S
C140 O145 1.287 . S
C140 O146 1.255 . S
O141 Fe133 1.997 . S
O141 C139 1.235 . S
C142 O148 1.287 . S
C142 O149 1.255 . S
O143 Fe132 1.976 . S
O143 C150 1.287 . S
O144 Fe133 1.996 . S
O144 C150 1.255 . S
O145 Fe135 1.976 . S
O145 C140 1.287 . S
O146 Fe132 1.996 . S
O146 C140 1.255 . S
C147 O151 1.295 . S
C147 O152 1.235 . S
O148 Fe133 1.976 . S
O148 C142 1.287 . S
O149 Fe135 1.996 . S
O149 C142 1.255 . S
C150 O143 1.287 . S
C150 O144 1.255 . S
O151 Fe133 2.002 . S
O151 C147 1.295 . S
O152 Fe135 1.997 . S
O152 C147 1.235 . S
C153 O136 1.295 . S
C153 O137 1.235 . S
Fe154 O156 1.918 . S
Fe154 O159 1.997 . S
Fe154 O160 2.002 . S
Fe154 O165 1.976 . S
Fe154 O168 1.996 . S
Fe155 O156 1.918 . S
Fe155 O163 1.997 . S
Fe155 O166 1.996 . S
Fe155 O170 1.976 . S
Fe155 O173 2.002 . S
O156 Fe154 1.918 . S
O156 Fe155 1.918 . S
O156 Fe157 1.918 . S
Fe157 O156 1.918 . S
Fe157 O158 2.002 . S
Fe157 O167 1.976 . S
Fe157 O171 1.996 . S
Fe157 O174 1.997 . S
O158 Fe157 2.002 . S
O158 C175 1.295 . S
O159 Fe154 1.997 . S
O159 C175 1.235 . S
O160 Fe154 2.002 . S
O160 C161 1.295 . S
C161 O160 1.295 . S
C161 O163 1.235 . S
C162 O167 1.287 . S
C162 O168 1.255 . S
O163 Fe155 1.997 . S
O163 C161 1.235 . S
C164 O170 1.287 . S
C164 O171 1.255 . S
O165 Fe154 1.976 . S
O165 C172 1.287 . S
O166 Fe155 1.996 . S
O166 C172 1.255 . S
O167 Fe157 1.976 . S
O167 C162 1.287 . S
O168 Fe154 1.996 . S
O168 C162 1.255 . S
C169 O173 1.295 . S
C169 O174 1.235 . S
O170 Fe155 1.976 . S
O170 C164 1.287 . S
O171 Fe157 1.996 . S
O171 C164 1.255 . S
C172 O165 1.287 . S
C172 O166 1.255 . S
O173 Fe155 2.002 . S
O173 C169 1.295 . S
O174 Fe157 1.997 . S
O174 C169 1.235 . S
C175 O158 1.295 . S
C175 O159 1.235 . S
Fe176 O178 1.918 . S
Fe176 O181 1.997 . S
Fe176 O182 2.002 . S
Fe176 O187 1.976 . S
Fe176 O190 1.996 . S
Fe177 O178 1.918 . S
Fe177 O185 1.997 . S
Fe177 O188 1.996 . S
Fe177 O192 1.976 . S
Fe177 O195 2.002 . S
O178 Fe176 1.918 . S
O178 Fe177 1.918 . S
O178 Fe179 1.918 . S
Fe179 O178 1.918 . S
Fe179 O180 2.002 . S
Fe179 O189 1.976 . S
Fe179 O193 1.996 . S
Fe179 O196 1.997 . S
O180 Fe179 2.002 . S
O180 C197 1.295 . S
O181 Fe176 1.997 . S
O181 C197 1.235 . S
O182 Fe176 2.002 . S
O182 C183 1.295 . S
C183 O182 1.295 . S
C183 O185 1.235 . S
C184 O189 1.287 . S
C184 O190 1.255 . S
O185 Fe177 1.997 . S
O185 C183 1.235 . S
C186 O192 1.287 . S
C186 O193 1.255 . S
O187 Fe176 1.976 . S
O187 C194 1.287 . S
O188 Fe177 1.996 . S
O188 C194 1.255 . S
O189 Fe179 1.976 . S
O189 C184 1.287 . S
O190 Fe176 1.996 . S
O190 C184 1.255 . S
C191 O195 1.295 . S
C191 O196 1.235 . S
O192 Fe177 1.976 . S
O192 C186 1.287 . S
O193 Fe179 1.996 . S
O193 C186 1.255 . S
C194 O187 1.287 . S
C194 O188 1.255 . S
O195 Fe177 2.002 . S
O195 C191 1.295 . S
O196 Fe179 1.997 . S
O196 C191 1.235 . S
C197 O180 1.295 . S
C197 O181 1.235 . S
Fe198 O200 1.918 . S
Fe198 O203 1.997 . S
Fe198 O204 2.002 . S
Fe198 O209 1.976 . S
Fe198 O212 1.996 . S
Fe199 O200 1.918 . S
Fe199 O207 1.997 . S
Fe199 O210 1.996 . S
Fe199 O214 1.976 . S
Fe199 O217 2.002 . S
O200 Fe198 1.918 . S
O200 Fe199 1.918 . S
O200 Fe201 1.918 . S
Fe201 O200 1.918 . S
Fe201 O202 2.002 . S
Fe201 O211 1.976 . S
Fe201 O215 1.996 . S
Fe201 O218 1.997 . S
O202 Fe201 2.002 . S
O202 C219 1.295 . S
O203 Fe198 1.997 . S
O203 C219 1.235 . S
O204 Fe198 2.002 . S
O204 C205 1.295 . S
C205 O204 1.295 . S
C205 O207 1.235 . S
C206 O211 1.287 . S
C206 O212 1.255 . S
O207 Fe199 1.997 . S
O207 C205 1.235 . S
C208 O214 1.287 . S
C208 O215 1.255 . S
O209 Fe198 1.976 . S
O209 C216 1.287 . S
O210 Fe199 1.996 . S
O210 C216 1.255 . S
O211 Fe201 1.976 . S
O211 C206 1.287 . S
O212 Fe198 1.996 . S
O212 C206 1.255 . S
C213 O217 1.295 . S
C213 O218 1.235 . S
O214 Fe199 1.976 . S
O214 C208 1.287 . S
O215 Fe201 1.996 . S
O215 C208 1.255 . S
C216 O209 1.287 . S
C216 O210 1.255 . S
O217 Fe199 2.002 . S
O217 C213 1.295 . S
O218 Fe201 1.997 . S
O218 C213 1.235 . S
C219 O202 1.295 . S
C219 O203 1.235 . S
Fe220 O222 1.918 . S
Fe220 O225 1.997 . S
Fe220 O226 2.002 . S
Fe220 O231 1.976 . S
Fe220 O234 1.996 . S
Fe221 O222 1.918 . S
Fe221 O229 1.997 . S
Fe221 O232 1.996 . S
Fe221 O236 1.976 . S
Fe221 O239 2.002 . S
O222 Fe220 1.918 . S
O222 Fe221 1.918 . S
O222 Fe223 1.918 . S
Fe223 O222 1.918 . S
Fe223 O224 2.002 . S
Fe223 O233 1.976 . S
Fe223 O237 1.996 . S
Fe223 O240 1.997 . S
O224 Fe223 2.002 . S
O224 C241 1.295 . S
O225 Fe220 1.997 . S
O225 C241 1.235 . S
O226 Fe220 2.002 . S
O226 C227 1.295 . S
C227 O226 1.295 . S
C227 O229 1.235 . S
C228 O233 1.287 . S
C228 O234 1.255 . S
O229 Fe221 1.997 . S
O229 C227 1.235 . S
C230 O236 1.287 . S
C230 O237 1.255 . S
O231 Fe220 1.976 . S
O231 C238 1.287 . S
O232 Fe221 1.996 . S
O232 C238 1.255 . S
O233 Fe223 1.976 . S
O233 C228 1.287 . S
O234 Fe220 1.996 . S
O234 C228 1.255 . S
C235 O239 1.295 . S
C235 O240 1.235 . S
O236 Fe221 1.976 . S
O236 C230 1.287 . S
O237 Fe223 1.996 . S
O237 C230 1.255 . S
C238 O231 1.287 . S
C238 O232 1.255 . S
O239 Fe221 2.002 . S
O239 C235 1.295 . S
O240 Fe223 1.997 . S
O240 C235 1.235 . S
C241 O224 1.295 . S
C241 O225 1.235 . S
Fe242 O244 1.918 . S
Fe242 O247 1.997 . S
Fe242 O248 2.002 . S
Fe242 O253 1.976 . S
Fe242 O256 1.996 . S
Fe243 O244 1.918 . S
Fe243 O251 1.997 . S
Fe243 O254 1.996 . S
Fe243 O258 1.976 . S
Fe243 O261 2.002 . S
O244 Fe242 1.918 . S
O244 Fe243 1.918 . S
O244 Fe245 1.918 . S
Fe245 O244 1.918 . S
Fe245 O246 2.002 . S
Fe245 O255 1.976 . S
Fe245 O259 1.996 . S
Fe245 O262 1.997 . S
O246 Fe245 2.002 . S
O246 C263 1.295 . S
O247 Fe242 1.997 . S
O247 C263 1.235 . S
O248 Fe242 2.002 . S
O248 C249 1.295 . S
C249 O248 1.295 . S
C249 O251 1.235 . S
C250 O255 1.287 . S
C250 O256 1.255 . S
O251 Fe243 1.997 . S
O251 C249 1.235 . S
C252 O258 1.287 . S
C252 O259 1.255 . S
O253 Fe242 1.976 . S
O253 C260 1.287 . S
O254 Fe243 1.996 . S
O254 C260 1.255 . S
O255 Fe245 1.976 . S
O255 C250 1.287 . S
O256 Fe242 1.996 . S
O256 C250 1.255 . S
C257 O261 1.295 . S
C257 O262 1.235 . S
O258 Fe243 1.976 . S
O258 C252 1.287 . S
O259 Fe245 1.996 . S
O259 C252 1.255 . S
C260 O253 1.287 . S
C260 O254 1.255 . S
O261 Fe243 2.002 . S
O261 C257 1.295 . S
O262 Fe245 1.997 . S
O262 C257 1.235 . S
C263 O246 1.295 . S
C263 O247 1.235 . S
Fe264 O266 1.918 . S
Fe264 O269 1.997 . S
Fe264 O270 2.002 . S
Fe264 O275 1.976 . S
Fe264 O278 1.996 . S
Fe265 O266 1.918 . S
Fe265 O273 1.997 . S
Fe265 O276 1.996 . S
Fe265 O280 1.976 . S
Fe265 O283 2.002 . S
O266 Fe264 1.918 . S
O266 Fe265 1.918 . S
O266 Fe267 1.918 . S
Fe267 O266 1.918 . S
Fe267 O268 2.002 . S
Fe267 O277 1.976 . S
Fe267 O281 1.996 . S
Fe267 O284 1.997 . S
O268 Fe267 2.002 . S
O268 C285 1.295 . S
O269 Fe264 1.997 . S
O269 C285 1.235 . S
O270 Fe264 2.002 . S
O270 C271 1.295 . S
C271 O270 1.295 . S
C271 O273 1.235 . S
C272 O277 1.287 . S
C272 O278 1.255 . S
O273 Fe265 1.997 . S
O273 C271 1.235 . S
C274 O280 1.287 . S
C274 O281 1.255 . S
O275 Fe264 1.976 . S
O275 C282 1.287 . S
O276 Fe265 1.996 . S
O276 C282 1.255 . S
O277 Fe267 1.976 . S
O277 C272 1.287 . S
O278 Fe264 1.996 . S
O278 C272 1.255 . S
C279 O283 1.295 . S
C279 O284 1.235 . S
O280 Fe265 1.976 . S
O280 C274 1.287 . S
O281 Fe267 1.996 . S
O281 C274 1.255 . S
C282 O275 1.287 . S
C282 O276 1.255 . S
O283 Fe265 2.002 . S
O283 C279 1.295 . S
O284 Fe267 1.997 . S
O284 C279 1.235 . S
C285 O268 1.295 . S
C285 O269 1.235 . S
Fe286 O288 1.918 . S
Fe286 O291 1.997 . S
Fe286 O292 2.002 . S
Fe286 O297 1.976 . S
Fe286 O300 1.996 . S
Fe287 O288 1.918 . S
Fe287 O295 1.997 . S
Fe287 O298 1.996 . S
Fe287 O302 1.976 . S
Fe287 O305 2.002 . S
O288 Fe286 1.918 . S
O288 Fe287 1.918 . S
O288 Fe289 1.918 . S
Fe289 O288 1.918 . S
Fe289 O290 2.002 . S
Fe289 O299 1.976 . S
Fe289 O303 1.996 . S
Fe289 O306 1.997 . S
O290 Fe289 2.002 . S
O290 C307 1.295 . S
O291 Fe286 1.997 . S
O291 C307 1.235 . S
O292 Fe286 2.002 . S
O292 C293 1.295 . S
C293 O292 1.295 . S
C293 O295 1.235 . S
C294 O299 1.287 . S
C294 O300 1.255 . S
O295 Fe287 1.997 . S
O295 C293 1.235 . S
C296 O302 1.287 . S
C296 O303 1.255 . S
O297 Fe286 1.976 . S
O297 C304 1.287 . S
O298 Fe287 1.996 . S
O298 C304 1.255 . S
O299 Fe289 1.976 . S
O299 C294 1.287 . S
O300 Fe286 1.996 . S
O300 C294 1.255 . S
C301 O305 1.295 . S
C301 O306 1.235 . S
O302 Fe287 1.976 . S
O302 C296 1.287 . S
O303 Fe289 1.996 . S
O303 C296 1.255 . S
C304 O297 1.287 . S
C304 O298 1.255 . S
O305 Fe287 2.002 . S
O305 C301 1.295 . S
O306 Fe289 1.997 . S
O306 C301 1.235 . S
C307 O290 1.295 . S
C307 O291 1.235 . S
Fe308 O310 1.918 . S
Fe308 O313 1.997 . S
Fe308 O314 2.002 . S
Fe308 O319 1.976 . S
Fe308 O322 1.996 . S
Fe309 O310 1.918 . S
Fe309 O317 1.997 . S
Fe309 O320 1.996 . S
Fe309 O324 1.976 . S
Fe309 O327 2.002 . S
O310 Fe308 1.918 . S
O310 Fe309 1.918 . S
O310 Fe311 1.918 . S
Fe311 O310 1.918 . S
Fe311 O312 2.002 . S
Fe311 O321 1.976 . S
Fe311 O325 1.996 . S
Fe311 O328 1.997 . S
O312 Fe311 2.002 . S
O312 C329 1.295 . S
O313 Fe308 1.997 . S
O313 C329 1.235 . S
O314 Fe308 2.002 . S
O314 C315 1.295 . S
C315 O314 1.295 . S
C315 O317 1.235 . S
C316 O321 1.287 . S
C316 O322 1.255 . S
O317 Fe309 1.997 . S
O317 C315 1.235 . S
C318 O324 1.287 . S
C318 O325 1.255 . S
O319 Fe308 1.976 . S
O319 C326 1.287 . S
O320 Fe309 1.996 . S
O320 C326 1.255 . S
O321 Fe311 1.976 . S
O321 C316 1.287 . S
O322 Fe308 1.996 . S
O322 C316 1.255 . S
C323 O327 1.295 . S
C323 O328 1.235 . S
O324 Fe309 1.976 . S
O324 C318 1.287 . S
O325 Fe311 1.996 . S
O325 C318 1.255 . S
C326 O319 1.287 . S
C326 O320 1.255 . S
O327 Fe309 2.002 . S
O327 C323 1.295 . S
O328 Fe311 1.997 . S
O328 C323 1.235 . S
C329 O312 1.295 . S
C329 O313 1.235 . S
Fe330 O332 1.918 . S
Fe330 O335 1.997 . S
Fe330 O336 2.002 . S
Fe330 O341 1.976 . S
Fe330 O344 1.996 . S
Fe331 O332 1.918 . S
Fe331 O339 1.997 . S
Fe331 O342 1.996 . S
Fe331 O346 1.976 . S
Fe331 O349 2.002 . S
O332 Fe330 1.918 . S
O332 Fe331 1.918 . S
O332 Fe333 1.918 . S
Fe333 O332 1.918 . S
Fe333 O334 2.002 . S
Fe333 O343 1.976 . S
Fe333 O347 1.996 . S
Fe333 O350 1.997 . S
O334 Fe333 2.002 . S
O334 C351 1.295 . S
O335 Fe330 1.997 . S
O335 C351 1.235 . S
O336 Fe330 2.002 . S
O336 C337 1.295 . S
C337 O336 1.295 . S
C337 O339 1.235 . S
C338 O343 1.287 . S
C338 O344 1.255 . S
O339 Fe331 1.997 . S
O339 C337 1.235 . S
C340 O346 1.287 . S
C340 O347 1.255 . S
O341 Fe330 1.976 . S
O341 C348 1.287 . S
O342 Fe331 1.996 . S
O342 C348 1.255 . S
O343 Fe333 1.976 . S
O343 C338 1.287 . S
O344 Fe330 1.996 . S
O344 C338 1.255 . S
C345 O349 1.295 . S
C345 O350 1.235 . S
O346 Fe331 1.976 . S
O346 C340 1.287 . S
O347 Fe333 1.996 . S
O347 C340 1.255 . S
C348 O341 1.287 . S
C348 O342 1.255 . S
O349 Fe331 2.002 . S
O349 C345 1.295 . S
O350 Fe333 1.997 . S
O350 C345 1.235 . S
C351 O334 1.295 . S
C351 O335 1.235 . S
C352 C353 1.349 . S
C352 C354 1.327 . S
C352 H377 0.950 . S
C353 C352 1.349 . S
C353 C369 1.349 . S
C354 C352 1.327 . S
C354 C373 1.429 . S
C354 H378 0.950 . S
C355 C372 1.574 1_554 S
C355 C374 1.368 . S
C355 H379 0.949 . S
H356 C360 0.949 1_565 S
C357 C358 1.349 . S
C357 C359 1.327 . S
C357 H380 0.950 . S
C358 C357 1.349 . S
C358 C370 1.349 . S
C359 C357 1.327 . S
C359 C375 1.429 . S
C359 H381 0.950 . S
C360 H356 0.949 1_545 S
C360 C368 1.574 . S
C360 C376 1.334 1_554 S
H361 C369 0.950 . S
H362 C367 0.950 . S
H363 C368 0.949 . S
H364 C370 0.950 . S
H365 C371 0.950 1_554 S
H366 C372 0.949 . S
C367 H362 0.950 . S
C367 C369 1.327 . S
C367 C373 1.429 . S
C368 C360 1.574 . S
C368 H363 0.949 . S
C368 C374 1.368 . S
C369 C353 1.349 . S
C369 H361 0.950 . S
C369 C367 1.327 . S
C370 C358 1.349 . S
C370 H364 0.950 . S
C370 C371 1.327 . S
C371 H365 0.950 1_556 S
C371 C370 1.327 . S
C371 C375 1.429 . S
C372 C355 1.574 1_556 S
C372 H366 0.949 . S
C372 C376 1.385 . S
C373 C354 1.429 . S
C373 C367 1.429 . S
C373 C374 1.523 . S
C374 C355 1.368 . S
C374 C368 1.368 . S
C374 C373 1.523 . S
C375 C359 1.429 . S
C375 C371 1.429 . S
C375 C376 1.547 1_565 S
C376 C360 1.334 1_556 S
C376 C372 1.385 . S
C376 C375 1.547 1_545 S
H377 C352 0.950 . S
H378 C354 0.950 . S
H379 C355 0.949 . S
H380 C357 0.950 . S
H381 C359 0.950 . S
C382 C383 1.349 . S
C382 C384 1.327 . S
C382 H407 0.950 . S
C383 C382 1.349 . S
C383 C399 1.349 . S
C384 C382 1.327 . S
C384 C403 1.429 . S
C384 H408 0.950 1_556 S
C385 C402 1.574 1_556 S
C385 C404 1.389 . S
C385 H409 0.949 . S
H386 C390 0.949 . S
C387 C388 1.349 . S
C387 C389 1.327 . S
C387 H410 0.950 . S
C388 C387 1.349 . S
C388 C400 1.349 . S
C389 C387 1.327 . S
C389 C405 1.429 . S
C389 H411 0.950 . S
C390 H386 0.949 . S
C390 C398 1.591 . S
C390 C406 1.368 . S
H391 C399 0.950 . S
H392 C397 0.950 . S
H393 C398 0.930 1_545 S
H394 C400 0.950 . S
H395 C401 0.950 . S
H396 C402 0.949 1_556 S
C397 H392 0.950 . S
C397 C399 1.327 . S
C397 C403 1.429 . S
C398 C390 1.591 . S
C398 H393 0.930 1_565 S
C398 C404 1.334 1_554 S
C399 C383 1.349 . S
C399 H391 0.950 . S
C399 C397 1.327 . S
C400 C388 1.349 . S
C400 H394 0.950 . S
C400 C401 1.327 . S
C401 H395 0.950 . S
C401 C400 1.327 . S
C401 C405 1.429 . S
C402 C385 1.574 1_554 S
C402 H396 0.949 1_554 S
C402 C406 1.368 . S
C403 C384 1.429 . S
C403 C397 1.429 . S
C403 C404 1.547 1_545 S
C404 C385 1.389 . S
C404 C398 1.334 1_556 S
C404 C403 1.547 1_565 S
C405 C389 1.429 . S
C405 C401 1.429 . S
C405 C406 1.523 . S
C406 C390 1.368 . S
C406 C402 1.368 . S
C406 C405 1.523 . S
H407 C382 0.950 . S
H408 C384 0.950 1_554 S
H409 C385 0.949 . S
H410 C387 0.950 . S
H411 C389 0.950 . S
C412 C413 1.349 . S
C412 C414 1.327 . S
C412 H437 0.950 . S
C413 C412 1.349 . S
C413 C429 1.349 . S
C414 C412 1.327 . S
C414 C433 1.429 . S
C414 H438 0.950 . S
C415 C432 1.574 . S
C415 C434 1.368 . S
C415 H439 0.949 . S
H416 C420 0.949 . S
C417 C418 1.349 . S
C417 C419 1.327 . S
C417 H440 0.950 . S
C418 C417 1.349 . S
C418 C430 1.349 . S
C419 C417 1.327 . S
C419 C435 1.429 . S
C419 H441 0.950 . S
C420 H416 0.949 . S
C420 C428 1.575 . S
C420 C436 1.368 . S
H421 C429 0.950 . S
H422 C427 0.950 . S
H423 C428 0.948 1_545 S
H424 C430 0.950 . S
H425 C431 0.950 . S
H426 C432 0.949 . S
C427 H422 0.950 . S
C427 C429 1.327 . S
C427 C433 1.429 . S
C428 C420 1.575 . S
C428 H423 0.948 1_565 S
C428 C434 1.369 . S
C429 C413 1.349 . S
C429 H421 0.950 . S
C429 C427 1.327 . S
C430 C418 1.349 . S
C430 H424 0.950 . S
C430 C431 1.327 . S
C431 H425 0.950 . S
C431 C430 1.327 . S
C431 C435 1.429 . S
C432 C415 1.574 . S
C432 H426 0.949 . S
C432 C436 1.368 . S
C433 C414 1.429 . S
C433 C427 1.429 . S
C433 C434 1.523 1_545 S
C434 C415 1.368 . S
C434 C428 1.369 . S
C434 C433 1.523 1_565 S
C435 C419 1.429 . S
C435 C431 1.429 . S
C435 C436 1.523 . S
C436 C420 1.368 . S
C436 C432 1.368 . S
C436 C435 1.523 . S
H437 C412 0.950 . S
H438 C414 0.950 . S
H439 C415 0.949 . S
H440 C417 0.950 . S
H441 C419 0.950 . S
C442 C443 1.349 . S
C442 C444 1.327 . S
C442 H467 0.950 . S
C443 C442 1.349 . S
C443 C459 1.349 . S
C444 C442 1.327 . S
C444 C463 1.429 . S
C444 H468 0.950 . S
C445 C462 1.574 . S
C445 C464 1.368 . S
C445 H469 0.949 . S
H446 C450 0.949 . S
C447 C448 1.349 . S
C447 C449 1.327 . S
C447 H470 0.950 . S
C448 C447 1.349 . S
C448 C460 1.349 . S
C449 C447 1.327 . S
C449 C465 1.429 . S
C449 H471 0.950 . S
C450 H446 0.949 . S
C450 C458 1.598 . S
C450 C466 1.368 . S
H451 C459 0.950 . S
H452 C457 0.950 . S
H453 C458 0.923 1_565 S
H454 C460 0.950 . S
H455 C461 0.950 . S
H456 C462 0.949 . S
C457 H452 0.950 . S
C457 C459 1.327 . S
C457 C463 1.429 . S
C458 C450 1.598 . S
C458 H453 0.923 1_545 S
C458 C464 1.374 . S
C459 C443 1.349 . S
C459 H451 0.950 . S
C459 C457 1.327 . S
C460 C448 1.349 . S
C460 H454 0.950 . S
C460 C461 1.327 . S
C461 H455 0.950 . S
C461 C460 1.327 . S
C461 C465 1.429 . S
C462 C445 1.574 . S
C462 H456 0.949 . S
C462 C466 1.368 . S
C463 C444 1.429 . S
C463 C457 1.429 . S
C463 C464 1.523 1_565 S
C464 C445 1.368 . S
C464 C458 1.374 . S
C464 C463 1.523 1_545 S
C465 C449 1.429 . S
C465 C461 1.429 . S
C465 C466 1.523 . S
C466 C450 1.368 . S
C466 C462 1.368 . S
C466 C465 1.523 . S
H467 C442 0.950 . S
H468 C444 0.950 . S
H469 C445 0.949 . S
H470 C447 0.950 . S
H471 C449 0.950 . S
C472 C473 1.349 . S
C472 C474 1.327 . S
C472 H497 0.950 . S
C473 C472 1.349 . S
C473 C489 1.349 . S
C474 C472 1.327 . S
C474 C493 1.429 . S
C474 H498 0.950 . S
C475 C492 1.574 . S
C475 C494 1.352 1_556 S
C475 H499 0.949 1_565 S
H476 C480 0.950 . S
C477 C478 1.349 . S
C477 C479 1.327 . S
C477 H500 0.950 . S
C478 C477 1.349 . S
C478 C490 1.349 . S
C479 C477 1.327 . S
C479 C495 1.429 . S
C479 H501 0.950 . S
C480 H476 0.950 . S
C480 C488 1.574 1_556 S
C480 C496 1.368 . S
H481 C489 0.950 . S
H482 C487 0.950 1_556 S
H483 C488 0.949 . S
H484 C490 0.950 . S
H485 C491 0.950 . S
H486 C492 0.949 . S
C487 H482 0.950 1_554 S
C487 C489 1.327 . S
C487 C493 1.429 . S
C488 C480 1.574 1_554 S
C488 H483 0.949 . S
C488 C494 1.377 . S
C489 C473 1.349 . S
C489 H481 0.950 . S
C489 C487 1.327 . S
C490 C478 1.349 . S
C490 H484 0.950 . S
C490 C491 1.327 . S
C491 H485 0.950 . S
C491 C490 1.327 . S
C491 C495 1.429 . S
C492 C475 1.574 . S
C492 H486 0.949 . S
C492 C496 1.368 . S
C493 C474 1.429 . S
C493 C487 1.429 . S
C493 C494 1.534 1_545 S
C494 C475 1.352 1_554 S
C494 C488 1.377 . S
C494 C493 1.534 1_565 S
C495 C479 1.429 . S
C495 C491 1.429 . S
C495 C496 1.523 . S
C496 C480 1.368 . S
C496 C492 1.368 . S
C496 C495 1.523 . S
H497 C472 0.950 . S
H498 C474 0.950 . S
H499 C475 0.949 1_545 S
H500 C477 0.950 . S
H501 C479 0.950 . S
C502 C503 1.349 . S
C502 C504 1.327 . S
C502 H527 0.950 . S
C503 C502 1.349 . S
C503 C519 1.349 . S
C504 C502 1.327 . S
C504 C523 1.429 . S
C504 H528 0.950 . S
C505 C522 1.574 . S
C505 C524 1.368 . S
C505 H529 0.949 . S
H506 C510 0.949 . S
C507 C508 1.349 . S
C507 C509 1.327 . S
C507 H530 0.950 . S
C508 C507 1.349 . S
C508 C520 1.349 . S
C509 C507 1.327 . S
C509 C525 1.429 . S
C509 H531 0.950 . S
C510 H506 0.949 . S
C510 C518 1.574 1_554 S
C510 C526 1.371 . S
H511 C519 0.950 . S
H512 C517 0.950 . S
H513 C518 0.949 . S
H514 C520 0.950 . S
H515 C521 0.950 . S
H516 C522 0.949 1_565 S
C517 H512 0.950 . S
C517 C519 1.327 . S
C517 C523 1.429 . S
C518 C510 1.574 1_556 S
C518 H513 0.949 . S
C518 C524 1.368 . S
C519 C503 1.349 . S
C519 H511 0.950 . S
C519 C517 1.327 . S
C520 C508 1.349 . S
C520 H514 0.950 . S
C520 C521 1.327 . S
C521 H515 0.950 . S
C521 C520 1.327 . S
C521 C525 1.429 . S
C522 C505 1.574 . S
C522 H516 0.949 1_545 S
C522 C526 1.358 1_556 S
C523 C504 1.429 . S
C523 C517 1.429 . S
C523 C524 1.523 . S
C524 C505 1.368 . S
C524 C518 1.368 . S
C524 C523 1.523 . S
C525 C509 1.429 . S
C525 C521 1.429 . S
C525 C526 1.534 1_565 S
C526 C510 1.371 . S
C526 C522 1.358 1_554 S
C526 C525 1.534 1_545 S
H527 C502 0.950 . S
H528 C504 0.950 . S
H529 C505 0.949 . S
H530 C507 0.950 . S
H531 C509 0.950 . S
C532 C533 1.349 . S
C532 C534 1.327 . S
C532 H557 0.950 . S
C533 C532 1.349 . S
C533 C549 1.349 . S
C534 C532 1.327 . S
C534 C553 1.429 . S
C534 H558 0.950 . S
C535 C552 1.574 . S
C535 C554 1.368 . S
C535 H559 0.949 1_545 S
H536 C540 0.949 . S
C537 C538 1.349 . S
C537 C539 1.327 . S
C537 H560 0.950 . S
C538 C537 1.349 . S
C538 C550 1.349 . S
C539 C537 1.327 . S
C539 C555 1.429 . S
C539 H561 0.950 . S
C540 H536 0.949 . S
C540 C548 1.574 . S
C540 C556 1.368 . S
H541 C549 0.950 . S
H542 C547 0.950 . S
H543 C548 0.949 . S
H544 C550 0.950 . S
H545 C551 0.950 . S
H546 C552 0.949 . S
C547 H542 0.950 . S
C547 C549 1.327 . S
C547 C553 1.429 . S
C548 C540 1.574 . S
C548 H543 0.949 . S
C548 C554 1.368 . S
C549 C533 1.349 . S
C549 H541 0.950 . S
C549 C547 1.327 . S
C550 C538 1.349 . S
C550 H544 0.950 . S
C550 C551 1.327 . S
C551 H545 0.950 . S
C551 C550 1.327 . S
C551 C555 1.429 . S
C552 C535 1.574 . S
C552 H546 0.949 . S
C552 C556 1.368 . S
C553 C534 1.429 . S
C553 C547 1.429 . S
C553 C554 1.523 1_565 S
C554 C535 1.368 . S
C554 C548 1.368 . S
C554 C553 1.523 1_545 S
C555 C539 1.429 . S
C555 C551 1.429 . S
C555 C556 1.523 . S
C556 C540 1.368 . S
C556 C552 1.368 . S
C556 C555 1.523 . S
H557 C532 0.950 . S
H558 C534 0.950 . S
H559 C535 0.949 1_565 S
H560 C537 0.950 . S
H561 C539 0.950 . S
C562 C563 1.349 . S
C562 C564 1.327 . S
C562 H587 0.950 . S
C563 C562 1.349 . S
C563 C579 1.349 . S
C564 C562 1.327 . S
C564 C583 1.429 . S
C564 H588 0.950 . S
C565 C582 1.591 . S
C565 C584 1.368 . S
C565 H589 0.949 . S
H566 C570 0.949 . S
C567 C568 1.349 . S
C567 C569 1.327 . S
C567 H590 0.950 . S
C568 C567 1.349 . S
C568 C580 1.349 . S
C569 C567 1.327 . S
C569 C585 1.429 . S
C569 H591 0.950 . S
C570 H566 0.949 . S
C570 C578 1.574 . S
C570 C586 1.368 . S
H571 C579 0.950 . S
H572 C577 0.950 . S
H573 C578 0.949 . S
H574 C580 0.950 . S
H575 C581 0.950 . S
H576 C582 0.930 1_545 S
C577 H572 0.950 . S
C577 C579 1.327 . S
C577 C583 1.429 . S
C578 C570 1.574 . S
C578 H573 0.949 . S
C578 C584 1.368 . S
C579 C563 1.349 . S
C579 H571 0.950 . S
C579 C577 1.327 . S
C580 C568 1.349 . S
C580 H574 0.950 . S
C580 C581 1.327 . S
C581 H575 0.950 . S
C581 C580 1.327 . S
C581 C585 1.429 . S
C582 C565 1.591 . S
C582 H576 0.930 1_565 S
C582 C586 1.372 . S
C583 C564 1.429 . S
C583 C577 1.429 . S
C583 C584 1.523 . S
C584 C565 1.368 . S
C584 C578 1.368 . S
C584 C583 1.523 . S
C585 C569 1.429 . S
C585 C581 1.429 . S
C585 C586 1.523 1_545 S
C586 C570 1.368 . S
C586 C582 1.372 . S
C586 C585 1.523 1_565 S
H587 C562 0.950 . S
H588 C564 0.950 . S
H589 C565 0.949 . S
H590 C567 0.950 . S
H591 C569 0.950 . S
C592 C593 1.349 . S
C592 C594 1.327 . S
C592 H617 0.950 . S
C593 C592 1.349 . S
C593 C609 1.349 . S
C594 C592 1.327 . S
C594 C613 1.429 . S
C594 H618 0.950 1_556 S
C595 C612 1.574 1_556 S
C595 C614 1.390 . S
C595 H619 0.949 . S
H596 C600 0.949 . S
C597 C598 1.349 . S
C597 C599 1.327 . S
C597 H620 0.950 . S
C598 C597 1.349 . S
C598 C610 1.349 . S
C599 C597 1.327 . S
C599 C615 1.429 . S
C599 H621 0.950 . S
C600 H596 0.949 . S
C600 C608 1.574 . S
C600 C616 1.368 . S
H601 C609 0.950 . S
H602 C607 0.950 . S
H603 C608 0.949 . S
H604 C610 0.950 . S
H605 C611 0.950 . S
H606 C612 0.949 1_556 S
C607 H602 0.950 . S
C607 C609 1.327 . S
C607 C613 1.429 . S
C608 C600 1.574 . S
C608 H603 0.949 . S
C608 C614 1.329 1_554 S
C609 C593 1.349 . S
C609 H601 0.950 . S
C609 C607 1.327 . S
C610 C598 1.349 . S
C610 H604 0.950 . S
C610 C611 1.327 . S
C611 H605 0.950 . S
C611 C610 1.327 . S
C611 C615 1.429 . S
C612 C595 1.574 1_554 S
C612 H606 0.949 1_554 S
C612 C616 1.368 . S
C613 C594 1.429 . S
C613 C607 1.429 . S
C613 C614 1.547 . S
C614 C595 1.390 . S
C614 C608 1.329 1_556 S
C614 C613 1.547 . S
C615 C599 1.429 . S
C615 C611 1.429 . S
C615 C616 1.523 . S
C616 C600 1.368 . S
C616 C612 1.368 . S
C616 C615 1.523 . S
H617 C592 0.950 . S
H618 C594 0.950 1_554 S
H619 C595 0.949 . S
H620 C597 0.950 . S
H621 C599 0.950 . S
C622 C623 1.349 . S
C622 C624 1.327 . S
C622 H647 0.950 . S
C623 C622 1.349 . S
C623 C639 1.349 . S
C624 C622 1.327 . S
C624 C643 1.429 . S
C624 H648 0.950 . S
C625 C642 1.574 . S
C625 C644 1.368 . S
C625 H649 0.949 . S
H626 C630 0.949 . S
C627 C628 1.349 . S
C627 C629 1.327 . S
C627 H650 0.950 . S
C628 C627 1.349 . S
C628 C640 1.349 . S
C629 C627 1.327 . S
C629 C645 1.429 . S
C629 H651 0.950 . S
C630 H626 0.949 . S
C630 C638 1.574 . S
C630 C646 1.354 1_554 S
H631 C639 0.950 . S
H632 C637 0.950 . S
H633 C638 0.949 . S
H634 C640 0.950 . S
H635 C641 0.950 . S
H636 C642 0.949 1_556 S
C637 H632 0.950 . S
C637 C639 1.327 . S
C637 C643 1.429 . S
C638 C630 1.574 . S
C638 H633 0.949 . S
C638 C644 1.368 . S
C639 C623 1.349 . S
C639 H631 0.950 . S
C639 C637 1.327 . S
C640 C628 1.349 . S
C640 H634 0.950 . S
C640 C641 1.327 . S
C641 H635 0.950 . S
C641 C640 1.327 . S
C641 C645 1.429 . S
C642 C625 1.574 . S
C642 H636 0.949 1_554 S
C642 C646 1.365 1_554 S
C643 C624 1.429 . S
C643 C637 1.429 . S
C643 C644 1.523 . S
C644 C625 1.368 . S
C644 C638 1.368 . S
C644 C643 1.523 . S
C645 C629 1.429 . S
C645 C641 1.429 . S
C645 C646 1.547 . S
C646 C630 1.354 1_556 S
C646 C642 1.365 1_556 S
C646 C645 1.547 . S
H647 C622 0.950 . S
H648 C624 0.950 . S
H649 C625 0.949 . S
H650 C627 0.950 . S
H651 C629 0.950 . S
C652 C653 1.349 . S
C652 C654 1.327 . S
C652 H677 0.950 . S
C653 C652 1.349 . S
C653 C669 1.349 . S
C654 C652 1.327 . S
C654 C673 1.429 . S
C654 H678 0.950 . S
C655 C672 1.574 . S
C655 C674 1.368 . S
C655 H679 0.949 . S
H656 C660 0.949 . S
C657 C658 1.349 . S
C657 C659 1.327 . S
C657 H680 0.950 . S
C658 C657 1.349 . S
C658 C670 1.349 . S
C659 C657 1.327 . S
C659 C675 1.429 . S
C659 H681 0.950 . S
C660 H656 0.949 . S
C660 C668 1.574 . S
C660 C676 1.368 . S
H661 C669 0.950 . S
H662 C667 0.950 . S
H663 C668 0.949 . S
H664 C670 0.950 . S
H665 C671 0.950 . S
H666 C672 0.949 . S
C667 H662 0.950 . S
C667 C669 1.327 . S
C667 C673 1.429 . S
C668 C660 1.574 . S
C668 H663 0.949 . S
C668 C674 1.368 . S
C669 C653 1.349 . S
C669 H661 0.950 . S
C669 C667 1.327 . S
C670 C658 1.349 . S
C670 H664 0.950 . S
C670 C671 1.327 . S
C671 H665 0.950 . S
C671 C670 1.327 . S
C671 C675 1.429 . S
C672 C655 1.574 . S
C672 H666 0.949 . S
C672 C676 1.368 . S
C673 C654 1.429 . S
C673 C667 1.429 . S
C673 C674 1.523 . S
C674 C655 1.368 . S
C674 C668 1.368 . S
C674 C673 1.523 . S
C675 C659 1.429 . S
C675 C671 1.429 . S
C675 C676 1.523 . S
C676 C660 1.368 . S
C676 C672 1.368 . S
C676 C675 1.523 . S
H677 C652 0.950 . S
H678 C654 0.950 . S
H679 C655 0.949 . S
H680 C657 0.950 . S
H681 C659 0.950 . S
C682 C683 1.349 . S
C682 C684 1.327 . S
C682 H707 0.950 . S
C683 C682 1.349 . S
C683 C699 1.349 . S
C684 C682 1.327 . S
C684 C703 1.429 . S
C684 H708 0.950 . S
C685 C702 1.574 . S
C685 C704 1.368 . S
C685 H709 0.949 . S
H686 C690 0.949 . S
C687 C688 1.349 . S
C687 C689 1.327 . S
C687 H710 0.950 . S
C688 C687 1.349 . S
C688 C700 1.349 . S
C689 C687 1.327 . S
C689 C705 1.429 . S
C689 H711 0.950 . S
C690 H686 0.949 . S
C690 C698 1.574 . S
C690 C706 1.368 . S
H691 C699 0.950 . S
H692 C697 0.950 . S
H693 C698 0.949 . S
H694 C700 0.950 . S
H695 C701 0.950 . S
H696 C702 0.949 . S
C697 H692 0.950 . S
C697 C699 1.327 . S
C697 C703 1.429 . S
C698 C690 1.574 . S
C698 H693 0.949 . S
C698 C704 1.368 . S
C699 C683 1.349 . S
C699 H691 0.950 . S
C699 C697 1.327 . S
C700 C688 1.349 . S
C700 H694 0.950 . S
C700 C701 1.327 . S
C701 H695 0.950 . S
C701 C700 1.327 . S
C701 C705 1.429 . S
C702 C685 1.574 . S
C702 H696 0.949 . S
C702 C706 1.368 . S
C703 C684 1.429 . S
C703 C697 1.429 . S
C703 C704 1.523 . S
C704 C685 1.368 . S
C704 C698 1.368 . S
C704 C703 1.523 . S
C705 C689 1.429 . S
C705 C701 1.429 . S
C705 C706 1.523 . S
C706 C690 1.368 . S
C706 C702 1.368 . S
C706 C705 1.523 . S
H707 C682 0.950 . S
H708 C684 0.950 . S
H709 C685 0.949 . S
H710 C687 0.950 . S
H711 C689 0.950 . S
C712 C713 1.349 . S
C712 C714 1.327 . S
C712 H737 0.950 . S
C713 C712 1.349 . S
C713 C729 1.349 . S
C714 C712 1.327 . S
C714 C733 1.429 . S
C714 H738 0.950 . S
C715 C732 1.574 1_556 S
C715 C734 1.368 . S
C715 H739 0.949 . S
H716 C720 0.949 . S
C717 C718 1.349 . S
C717 C719 1.327 . S
C717 H740 0.950 . S
C718 C717 1.349 . S
C718 C730 1.349 . S
C719 C717 1.327 . S
C719 C735 1.429 . S
C719 H741 0.950 . S
C720 H716 0.949 . S
C720 C728 1.574 . S
C720 C736 1.353 1_556 S
H721 C729 0.950 . S
H722 C727 0.950 . S
H723 C728 0.949 . S
H724 C730 0.950 . S
H725 C731 0.950 1_556 S
H726 C732 0.949 . S
C727 H722 0.950 . S
C727 C729 1.327 . S
C727 C733 1.429 . S
C728 C720 1.574 . S
C728 H723 0.949 . S
C728 C734 1.368 . S
C729 C713 1.349 . S
C729 H721 0.950 . S
C729 C727 1.327 . S
C730 C718 1.349 . S
C730 H724 0.950 . S
C730 C731 1.327 . S
C731 H725 0.950 1_554 S
C731 C730 1.327 . S
C731 C735 1.429 . S
C732 C715 1.574 1_554 S
C732 H726 0.949 . S
C732 C736 1.376 . S
C733 C714 1.429 . S
C733 C727 1.429 . S
C733 C734 1.523 . S
C734 C715 1.368 . S
C734 C728 1.368 . S
C734 C733 1.523 . S
C735 C719 1.429 . S
C735 C731 1.429 . S
C735 C736 1.534 . S
C736 C720 1.353 1_554 S
C736 C732 1.376 . S
C736 C735 1.534 . S
H737 C712 0.950 . S
H738 C714 0.950 . S
H739 C715 0.949 . S
H740 C717 0.950 . S
H741 C719 0.950 . S
C742 C743 1.349 . S
C742 C744 1.327 . S
C742 H767 0.950 . S
C743 C742 1.349 . S
C743 C759 1.349 . S
C744 C742 1.327 . S
C744 C763 1.429 . S
C744 H768 0.950 . S
C745 C762 1.574 . S
C745 C764 1.367 1_556 S
C745 H769 0.949 1_556 S
H746 C750 0.949 . S
C747 C748 1.349 . S
C747 C749 1.327 . S
C747 H770 0.950 . S
C748 C747 1.349 . S
C748 C760 1.349 . S
C749 C747 1.327 . S
C749 C765 1.429 . S
C749 H771 0.950 . S
C750 H746 0.949 . S
C750 C758 1.574 . S
C750 C766 1.368 . S
H751 C759 0.950 . S
H752 C757 0.950 . S
H753 C758 0.949 . S
H754 C760 0.950 . S
H755 C761 0.950 . S
H756 C762 0.949 . S
C757 H752 0.950 . S
C757 C759 1.327 . S
C757 C763 1.429 . S
C758 C750 1.574 . S
C758 H753 0.949 . S
C758 C764 1.361 1_556 S
C759 C743 1.349 . S
C759 H751 0.950 . S
C759 C757 1.327 . S
C760 C748 1.349 . S
C760 H754 0.950 . S
C760 C761 1.327 . S
C761 H755 0.950 . S
C761 C760 1.327 . S
C761 C765 1.429 . S
C762 C745 1.574 . S
C762 H756 0.949 . S
C762 C766 1.368 . S
C763 C744 1.429 . S
C763 C757 1.429 . S
C763 C764 1.534 . S
C764 C745 1.367 1_554 S
C764 C758 1.361 1_554 S
C764 C763 1.534 . S
C765 C749 1.429 . S
C765 C761 1.429 . S
C765 C766 1.523 . S
C766 C750 1.368 . S
C766 C762 1.368 . S
C766 C765 1.523 . S
H767 C742 0.950 . S
H768 C744 0.950 . S
H769 C745 0.949 1_554 S
H770 C747 0.950 . S
H771 C749 0.950 . S
C772 C773 1.349 . S
C772 C774 1.327 . S
C772 H797 0.950 . S
C773 C772 1.349 . S
C773 C789 1.349 . S
C774 C772 1.327 . S
C774 C793 1.429 . S
C774 H798 0.950 . S
C775 C792 1.574 . S
C775 C794 1.368 . S
C775 H799 0.949 . S
H776 C780 0.949 . S
C777 C778 1.349 . S
C777 C779 1.327 . S
C777 H800 0.950 . S
C778 C777 1.349 . S
C778 C790 1.349 . S
C779 C777 1.327 . S
C779 C795 1.429 . S
C779 H801 0.950 . S
C780 H776 0.949 . S
C780 C788 1.574 . S
C780 C796 1.368 . S
H781 C789 0.950 . S
H782 C787 0.950 . S
H783 C788 0.949 . S
H784 C790 0.950 . S
H785 C791 0.950 . S
H786 C792 0.949 . S
C787 H782 0.950 . S
C787 C789 1.327 . S
C787 C793 1.429 . S
C788 C780 1.574 . S
C788 H783 0.949 . S
C788 C794 1.368 . S
C789 C773 1.349 . S
C789 H781 0.950 . S
C789 C787 1.327 . S
C790 C778 1.349 . S
C790 H784 0.950 . S
C790 C791 1.327 . S
C791 H785 0.950 . S
C791 C790 1.327 . S
C791 C795 1.429 . S
C792 C775 1.574 . S
C792 H786 0.949 . S
C792 C796 1.368 . S
C793 C774 1.429 . S
C793 C787 1.429 . S
C793 C794 1.523 . S
C794 C775 1.368 . S
C794 C788 1.368 . S
C794 C793 1.523 . S
C795 C779 1.429 . S
C795 C791 1.429 . S
C795 C796 1.523 . S
C796 C780 1.368 . S
C796 C792 1.368 . S
C796 C795 1.523 . S
H797 C772 0.950 . S
H798 C774 0.950 . S
H799 C775 0.949 . S
H800 C777 0.950 . S
H801 C779 0.950 . S
C802 C803 1.349 . S
C802 C804 1.327 . S
C802 H827 0.950 . S
C803 C802 1.349 . S
C803 C819 1.349 . S
C804 C802 1.327 . S
C804 C823 1.429 . S
C804 H828 0.950 . S
C805 C822 1.574 . S
C805 C824 1.368 . S
C805 H829 0.949 . S
H806 C810 0.949 . S
C807 C808 1.349 . S
C807 C809 1.327 . S
C807 H830 0.950 . S
C808 C807 1.349 . S
C808 C820 1.349 . S
C809 C807 1.327 . S
C809 C825 1.429 . S
C809 H831 0.950 . S
C810 H806 0.949 . S
C810 C818 1.574 . S
C810 C826 1.368 . S
H811 C819 0.950 . S
H812 C817 0.950 . S
H813 C818 0.949 . S
H814 C820 0.950 . S
H815 C821 0.950 . S
H816 C822 0.949 . S
C817 H812 0.950 . S
C817 C819 1.327 . S
C817 C823 1.429 . S
C818 C810 1.574 . S
C818 H813 0.949 . S
C818 C824 1.368 . S
C819 C803 1.349 . S
C819 H811 0.950 . S
C819 C817 1.327 . S
C820 C808 1.349 . S
C820 H814 0.950 . S
C820 C821 1.327 . S
C821 H815 0.950 . S
C821 C820 1.327 . S
C821 C825 1.429 . S
C822 C805 1.574 . S
C822 H816 0.949 . S
C822 C826 1.368 . S
C823 C804 1.429 . S
C823 C817 1.429 . S
C823 C824 1.523 . S
C824 C805 1.368 . S
C824 C818 1.368 . S
C824 C823 1.523 . S
C825 C809 1.429 . S
C825 C821 1.429 . S
C825 C826 1.523 . S
C826 C810 1.368 . S
C826 C822 1.368 . S
C826 C825 1.523 . S
H827 C802 0.950 . S
H828 C804 0.950 . S
H829 C805 0.949 . S
H830 C807 0.950 . S
H831 C809 0.950 . S
C832 C833 1.349 . S
C832 C834 1.327 . S
C832 H857 0.950 . S
C833 C832 1.349 . S
C833 C849 1.349 . S
C834 C832 1.327 . S
C834 C853 1.429 . S
C834 H858 0.950 . S
C835 C852 1.574 . S
C835 C854 1.368 . S
C835 H859 0.949 . S
H836 C840 0.949 . S
C837 C838 1.349 . S
C837 C839 1.327 . S
C837 H860 0.950 . S
C838 C837 1.349 . S
C838 C850 1.349 . S
C839 C837 1.327 . S
C839 C855 1.429 . S
C839 H861 0.950 . S
C840 H836 0.949 . S
C840 C848 1.574 . S
C840 C856 1.368 . S
H841 C849 0.950 . S
H842 C847 0.950 . S
H843 C848 0.949 . S
H844 C850 0.950 . S
H845 C851 0.950 . S
H846 C852 0.949 . S
C847 H842 0.950 . S
C847 C849 1.327 . S
C847 C853 1.429 . S
C848 C840 1.574 . S
C848 H843 0.949 . S
C848 C854 1.368 . S
C849 C833 1.349 . S
C849 H841 0.950 . S
C849 C847 1.327 . S
C850 C838 1.349 . S
C850 H844 0.950 . S
C850 C851 1.327 . S
C851 H845 0.950 . S
C851 C850 1.327 . S
C851 C855 1.429 . S
C852 C835 1.574 . S
C852 H846 0.949 . S
C852 C856 1.368 . S
C853 C834 1.429 . S
C853 C847 1.429 . S
C853 C854 1.523 . S
C854 C835 1.368 . S
C854 C848 1.368 . S
C854 C853 1.523 . S
C855 C839 1.429 . S
C855 C851 1.429 . S
C855 C856 1.523 . S
C856 C840 1.368 . S
C856 C852 1.368 . S
C856 C855 1.523 . S
H857 C832 0.950 . S
H858 C834 0.950 . S
H859 C835 0.949 . S
H860 C837 0.950 . S
H861 C839 0.950 . S
C862 C863 1.349 . S
C862 C864 1.327 . S
C862 H887 0.950 . S
C863 C862 1.349 . S
C863 C879 1.349 . S
C864 C862 1.327 . S
C864 C883 1.429 . S
C864 H888 0.950 . S
C865 C882 1.574 . S
C865 C884 1.368 . S
C865 H889 0.949 . S
H866 C870 0.949 . S
C867 C868 1.349 . S
C867 C869 1.327 . S
C867 H890 0.950 . S
C868 C867 1.349 . S
C868 C880 1.349 . S
C869 C867 1.327 . S
C869 C885 1.429 . S
C869 H891 0.950 . S
C870 H866 0.949 . S
C870 C878 1.574 . S
C870 C886 1.368 . S
H871 C879 0.950 . S
H872 C877 0.950 . S
H873 C878 0.949 . S
H874 C880 0.950 . S
H875 C881 0.950 . S
H876 C882 0.949 . S
C877 H872 0.950 . S
C877 C879 1.327 . S
C877 C883 1.429 . S
C878 C870 1.574 . S
C878 H873 0.949 . S
C878 C884 1.368 . S
C879 C863 1.349 . S
C879 H871 0.950 . S
C879 C877 1.327 . S
C880 C868 1.349 . S
C880 H874 0.950 . S
C880 C881 1.327 . S
C881 H875 0.950 . S
C881 C880 1.327 . S
C881 C885 1.429 . S
C882 C865 1.574 . S
C882 H876 0.949 . S
C882 C886 1.368 . S
C883 C864 1.429 . S
C883 C877 1.429 . S
C883 C884 1.523 . S
C884 C865 1.368 . S
C884 C878 1.368 . S
C884 C883 1.523 . S
C885 C869 1.429 . S
C885 C881 1.429 . S
C885 C886 1.523 . S
C886 C870 1.368 . S
C886 C882 1.368 . S
C886 C885 1.523 . S
H887 C862 0.950 . S
H888 C864 0.950 . S
H889 C865 0.949 . S
H890 C867 0.950 . S
H891 C869 0.950 . S
C892 C893 1.349 . S
C892 C894 1.327 . S
C892 H917 0.950 . S
C893 C892 1.349 . S
C893 C909 1.349 . S
C894 C892 1.327 . S
C894 C913 1.429 . S
C894 H918 0.950 . S
C895 C912 1.574 . S
C895 C914 1.368 . S
C895 H919 0.949 . S
H896 C900 0.949 . S
C897 C898 1.349 . S
C897 C899 1.327 . S
C897 H920 0.950 . S
C898 C897 1.349 . S
C898 C910 1.349 . S
C899 C897 1.327 . S
C899 C915 1.429 . S
C899 H921 0.950 . S
C900 H896 0.949 . S
C900 C908 1.574 . S
C900 C916 1.368 . S
H901 C909 0.950 . S
H902 C907 0.950 . S
H903 C908 0.949 . S
H904 C910 0.950 . S
H905 C911 0.950 . S
H906 C912 0.949 . S
C907 H902 0.950 . S
C907 C909 1.327 . S
C907 C913 1.429 . S
C908 C900 1.574 . S
C908 H903 0.949 . S
C908 C914 1.368 . S
C909 C893 1.349 . S
C909 H901 0.950 . S
C909 C907 1.327 . S
C910 C898 1.349 . S
C910 H904 0.950 . S
C910 C911 1.327 . S
C911 H905 0.950 . S
C911 C910 1.327 . S
C911 C915 1.429 . S
C912 C895 1.574 . S
C912 H906 0.949 . S
C912 C916 1.368 . S
C913 C894 1.429 . S
C913 C907 1.429 . S
C913 C914 1.523 . S
C914 C895 1.368 . S
C914 C908 1.368 . S
C914 C913 1.523 . S
C915 C899 1.429 . S
C915 C911 1.429 . S
C915 C916 1.523 . S
C916 C900 1.368 . S
C916 C912 1.368 . S
C916 C915 1.523 . S
H917 C892 0.950 . S
H918 C894 0.950 . S
H919 C895 0.949 . S
H920 C897 0.950 . S
H921 C899 0.950 . S
C922 C923 1.349 . S
C922 C924 1.327 . S
C922 H947 0.950 . S
C923 C922 1.349 . S
C923 C939 1.349 . S
C924 C922 1.327 . S
C924 C943 1.429 . S
C924 H948 0.950 . S
C925 C942 1.574 . S
C925 C944 1.368 . S
C925 H949 0.949 . S
H926 C930 0.949 . S
C927 C928 1.349 . S
C927 C929 1.327 . S
C927 H950 0.950 . S
C928 C927 1.349 . S
C928 C940 1.349 . S
C929 C927 1.327 . S
C929 C945 1.429 . S
C929 H951 0.950 . S
C930 H926 0.949 . S
C930 C938 1.574 . S
C930 C946 1.368 . S
H931 C939 0.950 . S
H932 C937 0.950 . S
H933 C938 0.949 . S
H934 C940 0.950 . S
H935 C941 0.950 . S
H936 C942 0.949 . S
C937 H932 0.950 . S
C937 C939 1.327 . S
C937 C943 1.429 . S
C938 C930 1.574 . S
C938 H933 0.949 . S
C938 C944 1.368 . S
C939 C923 1.349 . S
C939 H931 0.950 . S
C939 C937 1.327 . S
C940 C928 1.349 . S
C940 H934 0.950 . S
C940 C941 1.327 . S
C941 H935 0.950 . S
C941 C940 1.327 . S
C941 C945 1.429 . S
C942 C925 1.574 . S
C942 H936 0.949 . S
C942 C946 1.368 . S
C943 C924 1.429 . S
C943 C937 1.429 . S
C943 C944 1.523 . S
C944 C925 1.368 . S
C944 C938 1.368 . S
C944 C943 1.523 . S
C945 C929 1.429 . S
C945 C941 1.429 . S
C945 C946 1.523 . S
C946 C930 1.368 . S
C946 C942 1.368 . S
C946 C945 1.523 . S
H947 C922 0.950 . S
H948 C924 0.950 . S
H949 C925 0.949 . S
H950 C927 0.950 . S
H951 C929 0.950 . S
C952 C953 1.349 . S
C952 C954 1.327 . S
C952 H977 0.950 . S
C953 C952 1.349 . S
C953 C969 1.349 . S
C954 C952 1.327 . S
C954 C973 1.429 . S
C954 H978 0.950 . S
C955 C972 1.574 . S
C955 C974 1.368 . S
C955 H979 0.949 . S
H956 C960 0.949 . S
C957 C958 1.349 . S
C957 C959 1.327 . S
C957 H980 0.950 . S
C958 C957 1.349 . S
C958 C970 1.349 . S
C959 C957 1.327 . S
C959 C975 1.429 . S
C959 H981 0.950 . S
C960 H956 0.949 . S
C960 C968 1.574 . S
C960 C976 1.368 . S
H961 C969 0.950 . S
H962 C967 0.950 . S
H963 C968 0.949 . S
H964 C970 0.950 . S
H965 C971 0.950 . S
H966 C972 0.949 . S
C967 H962 0.950 . S
C967 C969 1.327 . S
C967 C973 1.429 . S
C968 C960 1.574 . S
C968 H963 0.949 . S
C968 C974 1.368 . S
C969 C953 1.349 . S
C969 H961 0.950 . S
C969 C967 1.327 . S
C970 C958 1.349 . S
C970 H964 0.950 . S
C970 C971 1.327 . S
C971 H965 0.950 . S
C971 C970 1.327 . S
C971 C975 1.429 . S
C972 C955 1.574 . S
C972 H966 0.949 . S
C972 C976 1.368 . S
C973 C954 1.429 . S
C973 C967 1.429 . S
C973 C974 1.523 . S
C974 C955 1.368 . S
C974 C968 1.368 . S
C974 C973 1.523 . S
C975 C959 1.429 . S
C975 C971 1.429 . S
C975 C976 1.523 . S
C976 C960 1.368 . S
C976 C972 1.368 . S
C976 C975 1.523 . S
H977 C952 0.950 . S
H978 C954 0.950 . S
H979 C955 0.949 . S
H980 C957 0.950 . S
H981 C959 0.950 . S
C982 C983 1.349 . S
C982 C984 1.327 . S
C982 H1007 0.950 . S
C983 C982 1.349 . S
C983 C999 1.349 . S
C984 C982 1.327 . S
C984 C1003 1.429 . S
C984 H1008 0.950 . S
C985 C1002 1.574 . S
C985 C1004 1.368 . S
C985 H1009 0.949 . S
H986 C990 0.949 . S
C987 C988 1.349 . S
C987 C989 1.327 . S
C987 H1010 0.950 . S
C988 C987 1.349 . S
C988 C1000 1.349 . S
C989 C987 1.327 . S
C989 C1005 1.429 . S
C989 H1011 0.950 . S
C990 H986 0.949 . S
C990 C998 1.574 . S
C990 C1006 1.368 . S
H991 C999 0.950 . S
H992 C997 0.950 . S
H993 C998 0.949 . S
H994 C1000 0.950 . S
H995 C1001 0.950 . S
H996 C1002 0.949 . S
C997 H992 0.950 . S
C997 C999 1.327 . S
C997 C1003 1.429 . S
C998 C990 1.574 . S
C998 H993 0.949 . S
C998 C1004 1.368 . S
C999 C983 1.349 . S
C999 H991 0.950 . S
C999 C997 1.327 . S
C1000 C988 1.349 . S
C1000 H994 0.950 . S
C1000 C1001 1.327 . S
C1001 H995 0.950 . S
C1001 C1000 1.327 . S
C1001 C1005 1.429 . S
C1002 C985 1.574 . S
C1002 H996 0.949 . S
C1002 C1006 1.368 . S
C1003 C984 1.429 . S
C1003 C997 1.429 . S
C1003 C1004 1.523 . S
C1004 C985 1.368 . S
C1004 C998 1.368 . S
C1004 C1003 1.523 . S
C1005 C989 1.429 . S
C1005 C1001 1.429 . S
C1005 C1006 1.523 . S
C1006 C990 1.368 . S
C1006 C1002 1.368 . S
C1006 C1005 1.523 . S
H1007 C982 0.950 . S
H1008 C984 0.950 . S
H1009 C985 0.949 . S
H1010 C987 0.950 . S
H1011 C989 0.950 . S
C1012 C1013 1.349 . S
C1012 C1014 1.327 . S
C1012 H1037 0.950 . S
C1013 C1012 1.349 . S
C1013 C1029 1.349 . S
C1014 C1012 1.327 . S
C1014 C1033 1.429 . S
C1014 H1038 0.950 . S
C1015 C1032 1.574 . S
C1015 C1034 1.368 . S
C1015 H1039 0.949 . S
H1016 C1020 0.949 . S
C1017 C1018 1.349 . S
C1017 C1019 1.327 . S
C1017 H1040 0.950 . S
C1018 C1017 1.349 . S
C1018 C1030 1.349 . S
C1019 C1017 1.327 . S
C1019 C1035 1.429 . S
C1019 H1041 0.950 . S
C1020 H1016 0.949 . S
C1020 C1028 1.574 . S
C1020 C1036 1.368 . S
H1021 C1029 0.950 . S
H1022 C1027 0.950 . S
H1023 C1028 0.949 . S
H1024 C1030 0.950 . S
H1025 C1031 0.950 . S
H1026 C1032 0.949 . S
C1027 H1022 0.950 . S
C1027 C1029 1.327 . S
C1027 C1033 1.429 . S
C1028 C1020 1.574 . S
C1028 H1023 0.949 . S
C1028 C1034 1.368 . S
C1029 C1013 1.349 . S
C1029 H1021 0.950 . S
C1029 C1027 1.327 . S
C1030 C1018 1.349 . S
C1030 H1024 0.950 . S
C1030 C1031 1.327 . S
C1031 H1025 0.950 . S
C1031 C1030 1.327 . S
C1031 C1035 1.429 . S
C1032 C1015 1.574 . S
C1032 H1026 0.949 . S
C1032 C1036 1.368 . S
C1033 C1014 1.429 . S
C1033 C1027 1.429 . S
C1033 C1034 1.523 . S
C1034 C1015 1.368 . S
C1034 C1028 1.368 . S
C1034 C1033 1.523 . S
C1035 C1019 1.429 . S
C1035 C1031 1.429 . S
C1035 C1036 1.523 . S
C1036 C1020 1.368 . S
C1036 C1032 1.368 . S
C1036 C1035 1.523 . S
H1037 C1012 0.950 . S
H1038 C1014 0.950 . S
H1039 C1015 0.949 . S
H1040 C1017 0.950 . S
H1041 C1019 0.950 . S
C1042 C1043 1.349 . S
C1042 C1044 1.327 . S
C1042 H1067 0.950 . S
C1043 C1042 1.349 . S
C1043 C1059 1.349 . S
C1044 C1042 1.327 . S
C1044 C1063 1.429 . S
C1044 H1068 0.950 . S
C1045 C1062 1.574 . S
C1045 C1064 1.368 . S
C1045 H1069 0.949 . S
H1046 C1050 0.949 . S
C1047 C1048 1.349 . S
C1047 C1049 1.327 . S
C1047 H1070 0.950 . S
C1048 C1047 1.349 . S
C1048 C1060 1.349 . S
C1049 C1047 1.327 . S
C1049 C1065 1.429 . S
C1049 H1071 0.950 . S
C1050 H1046 0.949 . S
C1050 C1058 1.574 . S
C1050 C1066 1.368 . S
H1051 C1059 0.950 . S
H1052 C1057 0.950 . S
H1053 C1058 0.949 . S
H1054 C1060 0.950 . S
H1055 C1061 0.950 . S
H1056 C1062 0.949 . S
C1057 H1052 0.950 . S
C1057 C1059 1.327 . S
C1057 C1063 1.429 . S
C1058 C1050 1.574 . S
C1058 H1053 0.949 . S
C1058 C1064 1.368 . S
C1059 C1043 1.349 . S
C1059 H1051 0.950 . S
C1059 C1057 1.327 . S
C1060 C1048 1.349 . S
C1060 H1054 0.950 . S
C1060 C1061 1.327 . S
C1061 H1055 0.950 . S
C1061 C1060 1.327 . S
C1061 C1065 1.429 . S
C1062 C1045 1.574 . S
C1062 H1056 0.949 . S
C1062 C1066 1.368 . S
C1063 C1044 1.429 . S
C1063 C1057 1.429 . S
C1063 C1064 1.523 . S
C1064 C1045 1.368 . S
C1064 C1058 1.368 . S
C1064 C1063 1.523 . S
C1065 C1049 1.429 . S
C1065 C1061 1.429 . S
C1065 C1066 1.523 . S
C1066 C1050 1.368 . S
C1066 C1062 1.368 . S
C1066 C1065 1.523 . S
H1067 C1042 0.950 . S
H1068 C1044 0.950 . S
H1069 C1045 0.949 . S
H1070 C1047 0.950 . S
H1071 C1049 0.950 . S
C1072 C1073 1.349 . S
C1072 C1074 1.327 . S
C1072 H1097 0.950 . S
C1073 C1072 1.349 . S
C1073 C1089 1.349 . S
C1074 C1072 1.327 . S
C1074 C1093 1.429 . S
C1074 H1098 0.950 . S
C1075 C1092 1.574 . S
C1075 C1094 1.368 . S
C1075 H1099 0.949 . S
H1076 C1080 0.949 . S
C1077 C1078 1.349 . S
C1077 C1079 1.327 . S
C1077 H1100 0.950 . S
C1078 C1077 1.349 . S
C1078 C1090 1.349 . S
C1079 C1077 1.327 . S
C1079 C1095 1.429 . S
C1079 H1101 0.950 . S
C1080 H1076 0.949 . S
C1080 C1088 1.574 . S
C1080 C1096 1.368 . S
H1081 C1089 0.950 . S
H1082 C1087 0.950 . S
H1083 C1088 0.949 . S
H1084 C1090 0.950 . S
H1085 C1091 0.950 . S
H1086 C1092 0.949 . S
C1087 H1082 0.950 . S
C1087 C1089 1.327 . S
C1087 C1093 1.429 . S
C1088 C1080 1.574 . S
C1088 H1083 0.949 . S
C1088 C1094 1.368 . S
C1089 C1073 1.349 . S
C1089 H1081 0.950 . S
C1089 C1087 1.327 . S
C1090 C1078 1.349 . S
C1090 H1084 0.950 . S
C1090 C1091 1.327 . S
C1091 H1085 0.950 . S
C1091 C1090 1.327 . S
C1091 C1095 1.429 . S
C1092 C1075 1.574 . S
C1092 H1086 0.949 . S
C1092 C1096 1.368 . S
C1093 C1074 1.429 . S
C1093 C1087 1.429 . S
C1093 C1094 1.523 . S
C1094 C1075 1.368 . S
C1094 C1088 1.368 . S
C1094 C1093 1.523 . S
C1095 C1079 1.429 . S
C1095 C1091 1.429 . S
C1095 C1096 1.523 . S
C1096 C1080 1.368 . S
C1096 C1092 1.368 . S
C1096 C1095 1.523 . S
H1097 C1072 0.950 . S
H1098 C1074 0.950 . S
H1099 C1075 0.949 . S
H1100 C1077 0.950 . S
H1101 C1079 0.950 . S
C1102 C1103 1.349 . S
C1102 C1104 1.327 . S
C1102 H1127 0.950 . S
C1103 C1102 1.349 . S
C1103 C1119 1.349 . S
C1104 C1102 1.327 . S
C1104 C1123 1.429 . S
C1104 H1128 0.950 . S
C1105 C1122 1.574 . S
C1105 C1124 1.368 . S
C1105 H1129 0.949 . S
H1106 C1110 0.949 . S
C1107 C1108 1.349 . S
C1107 C1109 1.327 . S
C1107 H1130 0.950 . S
C1108 C1107 1.349 . S
C1108 C1120 1.349 . S
C1109 C1107 1.327 . S
C1109 C1125 1.429 . S
C1109 H1131 0.950 . S
C1110 H1106 0.949 . S
C1110 C1118 1.574 . S
C1110 C1126 1.368 . S
H1111 C1119 0.950 . S
H1112 C1117 0.950 . S
H1113 C1118 0.949 . S
H1114 C1120 0.950 . S
H1115 C1121 0.950 . S
H1116 C1122 0.949 . S
C1117 H1112 0.950 . S
C1117 C1119 1.327 . S
C1117 C1123 1.429 . S
C1118 C1110 1.574 . S
C1118 H1113 0.949 . S
C1118 C1124 1.368 . S
C1119 C1103 1.349 . S
C1119 H1111 0.950 . S
C1119 C1117 1.327 . S
C1120 C1108 1.349 . S
C1120 H1114 0.950 . S
C1120 C1121 1.327 . S
C1121 H1115 0.950 . S
C1121 C1120 1.327 . S
C1121 C1125 1.429 . S
C1122 C1105 1.574 . S
C1122 H1116 0.949 . S
C1122 C1126 1.368 . S
C1123 C1104 1.429 . S
C1123 C1117 1.429 . S
C1123 C1124 1.523 . S
C1124 C1105 1.368 . S
C1124 C1118 1.368 . S
C1124 C1123 1.523 . S
C1125 C1109 1.429 . S
C1125 C1121 1.429 . S
C1125 C1126 1.523 . S
C1126 C1110 1.368 . S
C1126 C1122 1.368 . S
C1126 C1125 1.523 . S
H1127 C1102 0.950 . S
H1128 C1104 0.950 . S
H1129 C1105 0.949 . S
H1130 C1107 0.950 . S
H1131 C1109 0.950 . S
C1132 C1133 1.349 . S
C1132 C1134 1.327 . S
C1132 H1157 0.950 . S
C1133 C1132 1.349 . S
C1133 C1149 1.349 . S
C1134 C1132 1.327 . S
C1134 C1153 1.429 . S
C1134 H1158 0.950 . S
C1135 C1152 1.574 . S
C1135 C1154 1.368 . S
C1135 H1159 0.949 . S
H1136 C1140 0.949 . S
C1137 C1138 1.349 . S
C1137 C1139 1.327 . S
C1137 H1160 0.950 . S
C1138 C1137 1.349 . S
C1138 C1150 1.349 . S
C1139 C1137 1.327 . S
C1139 C1155 1.429 . S
C1139 H1161 0.950 . S
C1140 H1136 0.949 . S
C1140 C1148 1.574 . S
C1140 C1156 1.368 . S
H1141 C1149 0.950 . S
H1142 C1147 0.950 . S
H1143 C1148 0.949 . S
H1144 C1150 0.950 . S
H1145 C1151 0.950 . S
H1146 C1152 0.949 . S
C1147 H1142 0.950 . S
C1147 C1149 1.327 . S
C1147 C1153 1.429 . S
C1148 C1140 1.574 . S
C1148 H1143 0.949 . S
C1148 C1154 1.368 . S
C1149 C1133 1.349 . S
C1149 H1141 0.950 . S
C1149 C1147 1.327 . S
C1150 C1138 1.349 . S
C1150 H1144 0.950 . S
C1150 C1151 1.327 . S
C1151 H1145 0.950 . S
C1151 C1150 1.327 . S
C1151 C1155 1.429 . S
C1152 C1135 1.574 . S
C1152 H1146 0.949 . S
C1152 C1156 1.368 . S
C1153 C1134 1.429 . S
C1153 C1147 1.429 . S
C1153 C1154 1.523 . S
C1154 C1135 1.368 . S
C1154 C1148 1.368 . S
C1154 C1153 1.523 . S
C1155 C1139 1.429 . S
C1155 C1151 1.429 . S
C1155 C1156 1.523 . S
C1156 C1140 1.368 . S
C1156 C1152 1.368 . S
C1156 C1155 1.523 . S
H1157 C1132 0.950 . S
H1158 C1134 0.950 . S
H1159 C1135 0.949 . S
H1160 C1137 0.950 . S
H1161 C1139 0.950 . S
C1162 C1163 1.349 . S
C1162 C1164 1.327 . S
C1162 H1187 0.950 . S
C1163 C1162 1.349 . S
C1163 C1179 1.349 . S
C1164 C1162 1.327 . S
C1164 C1183 1.429 . S
C1164 H1188 0.950 . S
C1165 C1182 1.574 . S
C1165 C1184 1.368 . S
C1165 H1189 0.949 . S
H1166 C1170 0.949 . S
C1167 C1168 1.349 . S
C1167 C1169 1.327 . S
C1167 H1190 0.950 . S
C1168 C1167 1.349 . S
C1168 C1180 1.349 . S
C1169 C1167 1.327 . S
C1169 C1185 1.429 . S
C1169 H1191 0.950 . S
C1170 H1166 0.949 . S
C1170 C1178 1.574 . S
C1170 C1186 1.368 . S
H1171 C1179 0.950 . S
H1172 C1177 0.950 . S
H1173 C1178 0.949 . S
H1174 C1180 0.950 . S
H1175 C1181 0.950 . S
H1176 C1182 0.949 . S
C1177 H1172 0.950 . S
C1177 C1179 1.327 . S
C1177 C1183 1.429 . S
C1178 C1170 1.574 . S
C1178 H1173 0.949 . S
C1178 C1184 1.368 . S
C1179 C1163 1.349 . S
C1179 H1171 0.950 . S
C1179 C1177 1.327 . S
C1180 C1168 1.349 . S
C1180 H1174 0.950 . S
C1180 C1181 1.327 . S
C1181 H1175 0.950 . S
C1181 C1180 1.327 . S
C1181 C1185 1.429 . S
C1182 C1165 1.574 . S
C1182 H1176 0.949 . S
C1182 C1186 1.368 . S
C1183 C1164 1.429 . S
C1183 C1177 1.429 . S
C1183 C1184 1.523 . S
C1184 C1165 1.368 . S
C1184 C1178 1.368 . S
C1184 C1183 1.523 . S
C1185 C1169 1.429 . S
C1185 C1181 1.429 . S
C1185 C1186 1.523 . S
C1186 C1170 1.368 . S
C1186 C1182 1.368 . S
C1186 C1185 1.523 . S
H1187 C1162 0.950 . S
H1188 C1164 0.950 . S
H1189 C1165 0.949 . S
H1190 C1167 0.950 . S
H1191 C1169 0.950 . S
C1192 C1193 1.349 . S
C1192 C1194 1.327 . S
C1192 H1217 0.950 . S
C1193 C1192 1.349 . S
C1193 C1209 1.349 . S
C1194 C1192 1.327 . S
C1194 C1213 1.429 . S
C1194 H1218 0.950 . S
C1195 C1212 1.574 1_545 S
C1195 C1214 1.368 . S
C1195 H1219 0.949 . S
H1196 C1200 0.949 . S
C1197 C1198 1.349 . S
C1197 C1199 1.327 . S
C1197 H1220 0.950 . S
C1198 C1197 1.349 . S
C1198 C1210 1.349 . S
C1199 C1197 1.327 . S
C1199 C1215 1.429 . S
C1199 H1221 0.950 . S
C1200 H1196 0.949 . S
C1200 C1208 1.574 1_565 S
C1200 C1216 1.368 . S
H1201 C1209 0.950 . S
H1202 C1207 0.950 . S
H1203 C1208 0.949 . S
H1204 C1210 0.950 . S
H1205 C1211 0.950 . S
H1206 C1212 0.949 . S
C1207 H1202 0.950 . S
C1207 C1209 1.327 . S
C1207 C1213 1.429 . S
C1208 C1200 1.574 1_545 S
C1208 H1203 0.949 . S
C1208 C1214 1.368 . S
C1209 C1193 1.349 . S
C1209 H1201 0.950 . S
C1209 C1207 1.327 . S
C1210 C1198 1.349 . S
C1210 H1204 0.950 . S
C1210 C1211 1.327 . S
C1211 H1205 0.950 . S
C1211 C1210 1.327 . S
C1211 C1215 1.429 . S
C1212 C1195 1.574 1_565 S
C1212 H1206 0.949 . S
C1212 C1216 1.368 . S
C1213 C1194 1.429 . S
C1213 C1207 1.429 . S
C1213 C1214 1.523 . S
C1214 C1195 1.368 . S
C1214 C1208 1.368 . S
C1214 C1213 1.523 . S
C1215 C1199 1.429 . S
C1215 C1211 1.429 . S
C1215 C1216 1.523 . S
C1216 C1200 1.368 . S
C1216 C1212 1.368 . S
C1216 C1215 1.523 . S
H1217 C1192 0.950 . S
H1218 C1194 0.950 . S
H1219 C1195 0.949 . S
H1220 C1197 0.950 . S
H1221 C1199 0.950 . S
C1222 C1223 1.349 . S
C1222 C1224 1.327 . S
C1222 H1247 0.950 . S
C1223 C1222 1.349 . S
C1223 C1239 1.349 . S
C1224 C1222 1.327 . S
C1224 C1243 1.429 . S
C1224 H1248 0.950 . S
C1225 C1242 1.574 1_545 S
C1225 C1244 1.368 . S
C1225 H1249 0.949 . S
H1226 C1230 0.949 . S
C1227 C1228 1.349 . S
C1227 C1229 1.327 . S
C1227 H1250 0.950 . S
C1228 C1227 1.349 . S
C1228 C1240 1.349 . S
C1229 C1227 1.327 . S
C1229 C1245 1.429 . S
C1229 H1251 0.950 . S
C1230 H1226 0.949 . S
C1230 C1238 1.574 1_565 S
C1230 C1246 1.368 . S
H1231 C1239 0.950 . S
H1232 C1237 0.950 . S
H1233 C1238 0.949 . S
H1234 C1240 0.950 . S
H1235 C1241 0.950 . S
H1236 C1242 0.949 . S
C1237 H1232 0.950 . S
C1237 C1239 1.327 . S
C1237 C1243 1.429 . S
C1238 C1230 1.574 1_545 S
C1238 H1233 0.949 . S
C1238 C1244 1.368 . S
C1239 C1223 1.349 . S
C1239 H1231 0.950 . S
C1239 C1237 1.327 . S
C1240 C1228 1.349 . S
C1240 H1234 0.950 . S
C1240 C1241 1.327 . S
C1241 H1235 0.950 . S
C1241 C1240 1.327 . S
C1241 C1245 1.429 . S
C1242 C1225 1.574 1_565 S
C1242 H1236 0.949 . S
C1242 C1246 1.368 . S
C1243 C1224 1.429 . S
C1243 C1237 1.429 . S
C1243 C1244 1.523 . S
C1244 C1225 1.368 . S
C1244 C1238 1.368 . S
C1244 C1243 1.523 . S
C1245 C1229 1.429 . S
C1245 C1241 1.429 . S
C1245 C1246 1.523 . S
C1246 C1230 1.368 . S
C1246 C1242 1.368 . S
C1246 C1245 1.523 . S
H1247 C1222 0.950 . S
H1248 C1224 0.950 . S
H1249 C1225 0.949 . S
H1250 C1227 0.950 . S
H1251 C1229 0.950 . S
C1252 C1253 1.349 . S
C1252 C1254 1.327 . S
C1252 H1277 0.950 . S
C1253 C1252 1.349 . S
C1253 C1269 1.349 . S
C1254 C1252 1.327 . S
C1254 C1273 1.429 . S
C1254 H1278 0.950 . S
C1255 C1272 1.574 1_565 S
C1255 C1274 1.368 . S
C1255 H1279 0.949 . S
H1256 C1260 0.949 . S
C1257 C1258 1.349 . S
C1257 C1259 1.327 . S
C1257 H1280 0.950 . S
C1258 C1257 1.349 . S
C1258 C1270 1.349 . S
C1259 C1257 1.327 . S
C1259 C1275 1.429 . S
C1259 H1281 0.950 . S
C1260 H1256 0.949 . S
C1260 C1268 1.574 1_545 S
C1260 C1276 1.368 . S
H1261 C1269 0.950 . S
H1262 C1267 0.950 . S
H1263 C1268 0.949 . S
H1264 C1270 0.950 . S
H1265 C1271 0.950 . S
H1266 C1272 0.949 . S
C1267 H1262 0.950 . S
C1267 C1269 1.327 . S
C1267 C1273 1.429 . S
C1268 C1260 1.574 1_565 S
C1268 H1263 0.949 . S
C1268 C1274 1.368 . S
C1269 C1253 1.349 . S
C1269 H1261 0.950 . S
C1269 C1267 1.327 . S
C1270 C1258 1.349 . S
C1270 H1264 0.950 . S
C1270 C1271 1.327 . S
C1271 H1265 0.950 . S
C1271 C1270 1.327 . S
C1271 C1275 1.429 . S
C1272 C1255 1.574 1_545 S
C1272 H1266 0.949 . S
C1272 C1276 1.368 . S
C1273 C1254 1.429 . S
C1273 C1267 1.429 . S
C1273 C1274 1.523 . S
C1274 C1255 1.368 . S
C1274 C1268 1.368 . S
C1274 C1273 1.523 . S
C1275 C1259 1.429 . S
C1275 C1271 1.429 . S
C1275 C1276 1.523 . S
C1276 C1260 1.368 . S
C1276 C1272 1.368 . S
C1276 C1275 1.523 . S
H1277 C1252 0.950 . S
H1278 C1254 0.950 . S
H1279 C1255 0.949 . S
H1280 C1257 0.950 . S
H1281 C1259 0.950 . S
C1282 C1283 1.349 . S
C1282 C1284 1.327 . S
C1282 H1307 0.950 . S
C1283 C1282 1.349 . S
C1283 C1299 1.349 . S
C1284 C1282 1.327 . S
C1284 C1303 1.429 . S
C1284 H1308 0.950 . S
C1285 C1302 1.574 1_565 S
C1285 C1304 1.368 . S
C1285 H1309 0.949 . S
H1286 C1290 0.949 . S
C1287 C1288 1.349 . S
C1287 C1289 1.327 . S
C1287 H1310 0.950 . S
C1288 C1287 1.349 . S
C1288 C1300 1.349 . S
C1289 C1287 1.327 . S
C1289 C1305 1.429 . S
C1289 H1311 0.950 . S
C1290 H1286 0.949 . S
C1290 C1298 1.574 1_545 S
C1290 C1306 1.368 . S
H1291 C1299 0.950 . S
H1292 C1297 0.950 . S
H1293 C1298 0.949 . S
H1294 C1300 0.950 . S
H1295 C1301 0.950 . S
H1296 C1302 0.949 . S
C1297 H1292 0.950 . S
C1297 C1299 1.327 . S
C1297 C1303 1.429 . S
C1298 C1290 1.574 1_565 S
C1298 H1293 0.949 . S
C1298 C1304 1.368 . S
C1299 C1283 1.349 . S
C1299 H1291 0.950 . S
C1299 C1297 1.327 . S
C1300 C1288 1.349 . S
C1300 H1294 0.950 . S
C1300 C1301 1.327 . S
C1301 H1295 0.950 . S
C1301 C1300 1.327 . S
C1301 C1305 1.429 . S
C1302 C1285 1.574 1_545 S
C1302 H1296 0.949 . S
C1302 C1306 1.368 . S
C1303 C1284 1.429 . S
C1303 C1297 1.429 . S
C1303 C1304 1.523 . S
C1304 C1285 1.368 . S
C1304 C1298 1.368 . S
C1304 C1303 1.523 . S
C1305 C1289 1.429 . S
C1305 C1301 1.429 . S
C1305 C1306 1.523 . S
C1306 C1290 1.368 . S
C1306 C1302 1.368 . S
C1306 C1305 1.523 . S
H1307 C1282 0.950 . S
H1308 C1284 0.950 . S
H1309 C1285 0.949 . S
H1310 C1287 0.950 . S
H1311 C1289 0.950 . S
C1312 C1313 1.349 . S
C1312 C1314 1.327 . S
C1312 H1337 0.950 . S
C1313 C1312 1.349 . S
C1313 C1329 1.349 . S
C1314 C1312 1.327 . S
C1314 C1333 1.429 . S
C1314 H1338 0.950 1_556 S
C1315 C1332 1.574 . S
C1315 C1334 1.368 . S
C1315 H1339 0.949 . S
H1316 C1320 0.949 . S
C1317 C1318 1.349 . S
C1317 C1319 1.327 . S
C1317 H1340 0.950 . S
C1318 C1317 1.349 . S
C1318 C1330 1.349 . S
C1319 C1317 1.327 . S
C1319 C1335 1.429 . S
C1319 H1341 0.950 1_554 S
C1320 H1316 0.949 . S
C1320 C1328 1.574 . S
C1320 C1336 1.368 . S
H1321 C1329 0.950 . S
H1322 C1327 0.950 . S
H1323 C1328 0.949 . S
H1324 C1330 0.950 . S
H1325 C1331 0.950 . S
H1326 C1332 0.949 . S
C1327 H1322 0.950 . S
C1327 C1329 1.327 . S
C1327 C1333 1.429 . S
C1328 C1320 1.574 . S
C1328 H1323 0.949 . S
C1328 C1334 1.368 1_554 S
C1329 C1313 1.349 . S
C1329 H1321 0.950 . S
C1329 C1327 1.327 . S
C1330 C1318 1.349 . S
C1330 H1324 0.950 . S
C1330 C1331 1.327 . S
C1331 H1325 0.950 . S
C1331 C1330 1.327 . S
C1331 C1335 1.429 . S
C1332 C1315 1.574 . S
C1332 H1326 0.949 . S
C1332 C1336 1.368 1_556 S
C1333 C1314 1.429 . S
C1333 C1327 1.429 . S
C1333 C1334 1.523 . S
C1334 C1315 1.368 . S
C1334 C1328 1.368 1_556 S
C1334 C1333 1.523 . S
C1335 C1319 1.429 . S
C1335 C1331 1.429 . S
C1335 C1336 1.523 . S
C1336 C1320 1.368 . S
C1336 C1332 1.368 1_554 S
C1336 C1335 1.523 . S
H1337 C1312 0.950 . S
H1338 C1314 0.950 1_554 S
H1339 C1315 0.949 . S
H1340 C1317 0.950 . S
H1341 C1319 0.950 1_556 S
C1342 C1343 1.349 . S
C1342 C1344 1.327 . S
C1342 H1367 0.950 . S
C1343 C1342 1.349 . S
C1343 C1359 1.349 . S
C1344 C1342 1.327 . S
C1344 C1363 1.429 . S
C1344 H1368 0.950 . S
C1345 C1362 1.574 1_554 S
C1345 C1364 1.368 . S
C1345 H1369 0.949 . S
H1346 C1350 0.949 . S
C1347 C1348 1.349 . S
C1347 C1349 1.327 . S
C1347 H1370 0.950 . S
C1348 C1347 1.349 . S
C1348 C1360 1.349 . S
C1349 C1347 1.327 . S
C1349 C1365 1.429 . S
C1349 H1371 0.950 . S
C1350 H1346 0.949 . S
C1350 C1358 1.574 1_556 S
C1350 C1366 1.368 . S
H1351 C1359 0.950 . S
H1352 C1357 0.950 . S
H1353 C1358 0.949 . S
H1354 C1360 0.950 . S
H1355 C1361 0.950 . S
H1356 C1362 0.949 . S
C1357 H1352 0.950 . S
C1357 C1359 1.327 . S
C1357 C1363 1.429 . S
C1358 C1350 1.574 1_554 S
C1358 H1353 0.949 . S
C1358 C1364 1.368 . S
C1359 C1343 1.349 . S
C1359 H1351 0.950 . S
C1359 C1357 1.327 . S
C1360 C1348 1.349 . S
C1360 H1354 0.950 . S
C1360 C1361 1.327 . S
C1361 H1355 0.950 . S
C1361 C1360 1.327 . S
C1361 C1365 1.429 . S
C1362 C1345 1.574 1_556 S
C1362 H1356 0.949 . S
C1362 C1366 1.368 . S
C1363 C1344 1.429 . S
C1363 C1357 1.429 . S
C1363 C1364 1.523 . S
C1364 C1345 1.368 . S
C1364 C1358 1.368 . S
C1364 C1363 1.523 . S
C1365 C1349 1.429 . S
C1365 C1361 1.429 . S
C1365 C1366 1.523 . S
C1366 C1350 1.368 . S
C1366 C1362 1.368 . S
C1366 C1365 1.523 . S
H1367 C1342 0.950 . S
H1368 C1344 0.950 . S
H1369 C1345 0.949 . S
H1370 C1347 0.950 . S
H1371 C1349 0.950 . S
C1372 C1373 1.349 . S
C1372 C1374 1.327 . S
C1372 H1397 0.950 . S
C1373 C1372 1.349 . S
C1373 C1389 1.349 . S
C1374 C1372 1.327 . S
C1374 C1393 1.429 . S
C1374 H1398 0.950 . S
C1375 C1392 1.574 . S
C1375 C1394 1.368 . S
C1375 H1399 0.949 . S
H1376 C1380 0.949 . S
C1377 C1378 1.349 . S
C1377 C1379 1.327 . S
C1377 H1400 0.950 . S
C1378 C1377 1.349 . S
C1378 C1390 1.349 . S
C1379 C1377 1.327 . S
C1379 C1395 1.429 . S
C1379 H1401 0.950 . S
C1380 H1376 0.949 . S
C1380 C1388 1.574 . S
C1380 C1396 1.368 . S
H1381 C1389 0.950 . S
H1382 C1387 0.950 . S
H1383 C1388 0.949 . S
H1384 C1390 0.950 . S
H1385 C1391 0.950 . S
H1386 C1392 0.949 . S
C1387 H1382 0.950 . S
C1387 C1389 1.327 . S
C1387 C1393 1.429 . S
C1388 C1380 1.574 . S
C1388 H1383 0.949 . S
C1388 C1394 1.368 . S
C1389 C1373 1.349 . S
C1389 H1381 0.950 . S
C1389 C1387 1.327 . S
C1390 C1378 1.349 . S
C1390 H1384 0.950 . S
C1390 C1391 1.327 . S
C1391 H1385 0.950 . S
C1391 C1390 1.327 . S
C1391 C1395 1.429 . S
C1392 C1375 1.574 . S
C1392 H1386 0.949 . S
C1392 C1396 1.368 . S
C1393 C1374 1.429 . S
C1393 C1387 1.429 . S
C1393 C1394 1.523 . S
C1394 C1375 1.368 . S
C1394 C1388 1.368 . S
C1394 C1393 1.523 . S
C1395 C1379 1.429 . S
C1395 C1391 1.429 . S
C1395 C1396 1.523 . S
C1396 C1380 1.368 . S
C1396 C1392 1.368 . S
C1396 C1395 1.523 . S
H1397 C1372 0.950 . S
H1398 C1374 0.950 . S
H1399 C1375 0.949 . S
H1400 C1377 0.950 . S
H1401 C1379 0.950 . S
C1402 C1403 1.349 . S
C1402 C1404 1.327 . S
C1402 H1427 0.950 . S
C1403 C1402 1.349 . S
C1403 C1419 1.349 . S
C1404 C1402 1.327 . S
C1404 C1423 1.429 . S
C1404 H1428 0.950 . S
C1405 C1422 1.574 . S
C1405 C1424 1.368 . S
C1405 H1429 0.949 . S
H1406 C1410 0.949 . S
C1407 C1408 1.349 . S
C1407 C1409 1.327 . S
C1407 H1430 0.950 . S
C1408 C1407 1.349 . S
C1408 C1420 1.349 . S
C1409 C1407 1.327 . S
C1409 C1425 1.429 . S
C1409 H1431 0.950 . S
C1410 H1406 0.949 . S
C1410 C1418 1.574 . S
C1410 C1426 1.368 . S
H1411 C1419 0.950 . S
H1412 C1417 0.950 . S
H1413 C1418 0.949 . S
H1414 C1420 0.950 . S
H1415 C1421 0.950 . S
H1416 C1422 0.949 . S
C1417 H1412 0.950 . S
C1417 C1419 1.327 . S
C1417 C1423 1.429 . S
C1418 C1410 1.574 . S
C1418 H1413 0.949 . S
C1418 C1424 1.368 . S
C1419 C1403 1.349 . S
C1419 H1411 0.950 . S
C1419 C1417 1.327 . S
C1420 C1408 1.349 . S
C1420 H1414 0.950 . S
C1420 C1421 1.327 . S
C1421 H1415 0.950 . S
C1421 C1420 1.327 . S
C1421 C1425 1.429 . S
C1422 C1405 1.574 . S
C1422 H1416 0.949 . S
C1422 C1426 1.368 . S
C1423 C1404 1.429 . S
C1423 C1417 1.429 . S
C1423 C1424 1.523 . S
C1424 C1405 1.368 . S
C1424 C1418 1.368 . S
C1424 C1423 1.523 . S
C1425 C1409 1.429 . S
C1425 C1421 1.429 . S
C1425 C1426 1.523 . S
C1426 C1410 1.368 . S
C1426 C1422 1.368 . S
C1426 C1425 1.523 . S
H1427 C1402 0.950 . S
H1428 C1404 0.950 . S
H1429 C1405 0.949 . S
H1430 C1407 0.950 . S
H1431 C1409 0.950 . S
C1432 C1433 1.349 . S
C1432 C1434 1.327 . S
C1432 H1457 0.950 . S
C1433 C1432 1.349 . S
C1433 C1449 1.349 . S
C1434 C1432 1.327 . S
C1434 C1453 1.429 . S
C1434 H1458 0.950 . S
C1435 C1452 1.574 . S
C1435 C1454 1.368 1_554 S
C1435 H1459 0.949 . S
H1436 C1440 0.949 . S
C1437 C1438 1.349 . S
C1437 C1439 1.327 . S
C1437 H1460 0.950 . S
C1438 C1437 1.349 . S
C1438 C1450 1.349 . S
C1439 C1437 1.327 . S
C1439 C1455 1.429 . S
C1439 H1461 0.950 . S
C1440 H1436 0.949 . S
C1440 C1448 1.574 . S
C1440 C1456 1.368 1_556 S
H1441 C1449 0.950 . S
H1442 C1447 0.950 . S
H1443 C1448 0.949 . S
H1444 C1450 0.950 . S
H1445 C1451 0.950 . S
H1446 C1452 0.949 . S
C1447 H1442 0.950 . S
C1447 C1449 1.327 . S
C1447 C1453 1.429 . S
C1448 C1440 1.574 . S
C1448 H1443 0.949 . S
C1448 C1454 1.368 . S
C1449 C1433 1.349 . S
C1449 H1441 0.950 . S
C1449 C1447 1.327 . S
C1450 C1438 1.349 . S
C1450 H1444 0.950 . S
C1450 C1451 1.327 . S
C1451 H1445 0.950 . S
C1451 C1450 1.327 . S
C1451 C1455 1.429 . S
C1452 C1435 1.574 . S
C1452 H1446 0.949 . S
C1452 C1456 1.368 . S
C1453 C1434 1.429 . S
C1453 C1447 1.429 . S
C1453 C1454 1.523 . S
C1454 C1435 1.368 1_556 S
C1454 C1448 1.368 . S
C1454 C1453 1.523 . S
C1455 C1439 1.429 . S
C1455 C1451 1.429 . S
C1455 C1456 1.523 . S
C1456 C1440 1.368 1_554 S
C1456 C1452 1.368 . S
C1456 C1455 1.523 . S
H1457 C1432 0.950 . S
H1458 C1434 0.950 . S
H1459 C1435 0.949 . S
H1460 C1437 0.950 . S
H1461 C1439 0.950 . S
C1462 C1463 1.349 . S
C1462 C1464 1.327 . S
C1462 H1487 0.950 . S
C1463 C1462 1.349 . S
C1463 C1479 1.349 . S
C1464 C1462 1.327 . S
C1464 C1483 1.429 . S
C1464 H1488 0.950 1_556 S
C1465 C1482 1.574 . S
C1465 C1484 1.368 . S
C1465 H1489 0.949 . S
H1466 C1470 0.949 . S
C1467 C1468 1.349 . S
C1467 C1469 1.327 . S
C1467 H1490 0.950 . S
C1468 C1467 1.349 . S
C1468 C1480 1.349 . S
C1469 C1467 1.327 . S
C1469 C1485 1.429 . S
C1469 H1491 0.950 1_554 S
C1470 H1466 0.949 . S
C1470 C1478 1.574 . S
C1470 C1486 1.368 . S
H1471 C1479 0.950 . S
H1472 C1477 0.950 . S
H1473 C1478 0.949 . S
H1474 C1480 0.950 . S
H1475 C1481 0.950 . S
H1476 C1482 0.949 . S
C1477 H1472 0.950 . S
C1477 C1479 1.327 . S
C1477 C1483 1.429 . S
C1478 C1470 1.574 . S
C1478 H1473 0.949 . S
C1478 C1484 1.368 1_554 S
C1479 C1463 1.349 . S
C1479 H1471 0.950 . S
C1479 C1477 1.327 . S
C1480 C1468 1.349 . S
C1480 H1474 0.950 . S
C1480 C1481 1.327 . S
C1481 H1475 0.950 . S
C1481 C1480 1.327 . S
C1481 C1485 1.429 . S
C1482 C1465 1.574 . S
C1482 H1476 0.949 . S
C1482 C1486 1.368 1_556 S
C1483 C1464 1.429 . S
C1483 C1477 1.429 . S
C1483 C1484 1.523 . S
C1484 C1465 1.368 . S
C1484 C1478 1.368 1_556 S
C1484 C1483 1.523 . S
C1485 C1469 1.429 . S
C1485 C1481 1.429 . S
C1485 C1486 1.523 . S
C1486 C1470 1.368 . S
C1486 C1482 1.368 1_554 S
C1486 C1485 1.523 . S
H1487 C1462 0.950 . S
H1488 C1464 0.950 1_554 S
H1489 C1465 0.949 . S
H1490 C1467 0.950 . S
H1491 C1469 0.950 1_556 S
C1492 C1493 1.349 . S
C1492 C1494 1.327 . S
C1492 H1517 0.950 . S
C1493 C1492 1.349 . S
C1493 C1509 1.349 . S
C1494 C1492 1.327 . S
C1494 C1513 1.429 . S
C1494 H1518 0.950 . S
C1495 C1512 1.574 . S
C1495 C1514 1.368 . S
C1495 H1519 0.949 . S
H1496 C1500 0.949 . S
C1497 C1498 1.349 . S
C1497 C1499 1.327 . S
C1497 H1520 0.950 . S
C1498 C1497 1.349 . S
C1498 C1510 1.349 . S
C1499 C1497 1.327 . S
C1499 C1515 1.429 . S
C1499 H1521 0.950 . S
C1500 H1496 0.949 . S
C1500 C1508 1.574 . S
C1500 C1516 1.368 . S
H1501 C1509 0.950 . S
H1502 C1507 0.950 . S
H1503 C1508 0.949 . S
H1504 C1510 0.950 . S
H1505 C1511 0.950 . S
H1506 C1512 0.949 . S
C1507 H1502 0.950 . S
C1507 C1509 1.327 . S
C1507 C1513 1.429 . S
C1508 C1500 1.574 . S
C1508 H1503 0.949 . S
C1508 C1514 1.368 . S
C1509 C1493 1.349 . S
C1509 H1501 0.950 . S
C1509 C1507 1.327 . S
C1510 C1498 1.349 . S
C1510 H1504 0.950 . S
C1510 C1511 1.327 . S
C1511 H1505 0.950 . S
C1511 C1510 1.327 . S
C1511 C1515 1.429 . S
C1512 C1495 1.574 . S
C1512 H1506 0.949 . S
C1512 C1516 1.368 . S
C1513 C1494 1.429 . S
C1513 C1507 1.429 . S
C1513 C1514 1.523 . S
C1514 C1495 1.368 . S
C1514 C1508 1.368 . S
C1514 C1513 1.523 . S
C1515 C1499 1.429 . S
C1515 C1511 1.429 . S
C1515 C1516 1.523 . S
C1516 C1500 1.368 . S
C1516 C1512 1.368 . S
C1516 C1515 1.523 . S
H1517 C1492 0.950 . S
H1518 C1494 0.950 . S
H1519 C1495 0.949 . S
H1520 C1497 0.950 . S
H1521 C1499 0.950 . S
C1522 C1523 1.349 . S
C1522 C1524 1.327 . S
C1522 H1547 0.950 . S
C1523 C1522 1.349 . S
C1523 C1539 1.349 . S
C1524 C1522 1.327 . S
C1524 C1543 1.429 . S
C1524 H1548 0.950 . S
C1525 C1542 1.574 . S
C1525 C1544 1.368 . S
C1525 H1549 0.949 . S
H1526 C1530 0.949 . S
C1527 C1528 1.349 . S
C1527 C1529 1.327 . S
C1527 H1550 0.950 . S
C1528 C1527 1.349 . S
C1528 C1540 1.349 . S
C1529 C1527 1.327 . S
C1529 C1545 1.429 . S
C1529 H1551 0.950 . S
C1530 H1526 0.949 . S
C1530 C1538 1.574 . S
C1530 C1546 1.368 . S
H1531 C1539 0.950 . S
H1532 C1537 0.950 . S
H1533 C1538 0.949 . S
H1534 C1540 0.950 . S
H1535 C1541 0.950 . S
H1536 C1542 0.949 . S
C1537 H1532 0.950 . S
C1537 C1539 1.327 . S
C1537 C1543 1.429 . S
C1538 C1530 1.574 . S
C1538 H1533 0.949 . S
C1538 C1544 1.368 . S
C1539 C1523 1.349 . S
C1539 H1531 0.950 . S
C1539 C1537 1.327 . S
C1540 C1528 1.349 . S
C1540 H1534 0.950 . S
C1540 C1541 1.327 . S
C1541 H1535 0.950 . S
C1541 C1540 1.327 . S
C1541 C1545 1.429 . S
C1542 C1525 1.574 . S
C1542 H1536 0.949 . S
C1542 C1546 1.368 . S
C1543 C1524 1.429 . S
C1543 C1537 1.429 . S
C1543 C1544 1.523 . S
C1544 C1525 1.368 . S
C1544 C1538 1.368 . S
C1544 C1543 1.523 . S
C1545 C1529 1.429 . S
C1545 C1541 1.429 . S
C1545 C1546 1.523 . S
C1546 C1530 1.368 . S
C1546 C1542 1.368 . S
C1546 C1545 1.523 . S
H1547 C1522 0.950 . S
H1548 C1524 0.950 . S
H1549 C1525 0.949 . S
H1550 C1527 0.950 . S
H1551 C1529 0.950 . S
C1552 C1553 1.349 . S
C1552 C1554 1.327 . S
C1552 H1577 0.950 . S
C1553 C1552 1.349 . S
C1553 C1569 1.349 . S
C1554 C1552 1.327 . S
C1554 C1573 1.429 . S
C1554 H1578 0.950 . S
C1555 C1572 1.574 1_455 S
C1555 C1574 1.368 . S
C1555 H1579 0.949 . S
H1556 C1560 0.949 . S
C1557 C1558 1.349 . S
C1557 C1559 1.327 . S
C1557 H1580 0.950 . S
C1558 C1557 1.349 . S
C1558 C1570 1.349 . S
C1559 C1557 1.327 . S
C1559 C1575 1.429 . S
C1559 H1581 0.950 . S
C1560 H1556 0.949 . S
C1560 C1568 1.574 1_655 S
C1560 C1576 1.368 . S
H1561 C1569 0.950 . S
H1562 C1567 0.950 . S
H1563 C1568 0.949 . S
H1564 C1570 0.950 . S
H1565 C1571 0.950 . S
H1566 C1572 0.949 . S
C1567 H1562 0.950 . S
C1567 C1569 1.327 . S
C1567 C1573 1.429 . S
C1568 C1560 1.574 1_455 S
C1568 H1563 0.949 . S
C1568 C1574 1.368 . S
C1569 C1553 1.349 . S
C1569 H1561 0.950 . S
C1569 C1567 1.327 . S
C1570 C1558 1.349 . S
C1570 H1564 0.950 . S
C1570 C1571 1.327 . S
C1571 H1565 0.950 . S
C1571 C1570 1.327 . S
C1571 C1575 1.429 . S
C1572 C1555 1.574 1_655 S
C1572 H1566 0.949 . S
C1572 C1576 1.368 . S
C1573 C1554 1.429 . S
C1573 C1567 1.429 . S
C1573 C1574 1.523 . S
C1574 C1555 1.368 . S
C1574 C1568 1.368 . S
C1574 C1573 1.523 . S
C1575 C1559 1.429 . S
C1575 C1571 1.429 . S
C1575 C1576 1.523 . S
C1576 C1560 1.368 . S
C1576 C1572 1.368 . S
C1576 C1575 1.523 . S
H1577 C1552 0.950 . S
H1578 C1554 0.950 . S
H1579 C1555 0.949 . S
H1580 C1557 0.950 . S
H1581 C1559 0.950 . S
C1582 C1583 1.349 . S
C1582 C1584 1.327 . S
C1582 H1607 0.950 . S
C1583 C1582 1.349 . S
C1583 C1599 1.349 . S
C1584 C1582 1.327 . S
C1584 C1603 1.429 . S
C1584 H1608 0.950 . S
C1585 C1602 1.574 . S
C1585 C1604 1.368 . S
C1585 H1609 0.949 . S
H1586 C1590 0.949 . S
C1587 C1588 1.349 . S
C1587 C1589 1.327 . S
C1587 H1610 0.950 . S
C1588 C1587 1.349 . S
C1588 C1600 1.349 . S
C1589 C1587 1.327 . S
C1589 C1605 1.429 . S
C1589 H1611 0.950 . S
C1590 H1586 0.949 . S
C1590 C1598 1.574 . S
C1590 C1606 1.368 . S
H1591 C1599 0.950 . S
H1592 C1597 0.950 . S
H1593 C1598 0.949 . S
H1594 C1600 0.950 . S
H1595 C1601 0.950 . S
H1596 C1602 0.949 . S
C1597 H1592 0.950 . S
C1597 C1599 1.327 . S
C1597 C1603 1.429 . S
C1598 C1590 1.574 . S
C1598 H1593 0.949 . S
C1598 C1604 1.368 . S
C1599 C1583 1.349 . S
C1599 H1591 0.950 . S
C1599 C1597 1.327 . S
C1600 C1588 1.349 . S
C1600 H1594 0.950 . S
C1600 C1601 1.327 . S
C1601 H1595 0.950 . S
C1601 C1600 1.327 . S
C1601 C1605 1.429 . S
C1602 C1585 1.574 . S
C1602 H1596 0.949 . S
C1602 C1606 1.368 . S
C1603 C1584 1.429 . S
C1603 C1597 1.429 . S
C1603 C1604 1.523 . S
C1604 C1585 1.368 . S
C1604 C1598 1.368 . S
C1604 C1603 1.523 . S
C1605 C1589 1.429 . S
C1605 C1601 1.429 . S
C1605 C1606 1.523 . S
C1606 C1590 1.368 . S
C1606 C1602 1.368 . S
C1606 C1605 1.523 . S
H1607 C1582 0.950 . S
H1608 C1584 0.950 . S
H1609 C1585 0.949 . S
H1610 C1587 0.950 . S
H1611 C1589 0.950 . S
C1612 C1613 1.349 . S
C1612 C1614 1.327 . S
C1612 H1637 0.950 . S
C1613 C1612 1.349 . S
C1613 C1629 1.349 . S
C1614 C1612 1.327 . S
C1614 C1633 1.429 . S
C1614 H1638 0.950 . S
C1615 C1632 1.574 . S
C1615 C1634 1.368 . S
C1615 H1639 0.949 . S
H1616 C1620 0.949 . S
C1617 C1618 1.349 . S
C1617 C1619 1.327 . S
C1617 H1640 0.950 . S
C1618 C1617 1.349 . S
C1618 C1630 1.349 . S
C1619 C1617 1.327 . S
C1619 C1635 1.429 . S
C1619 H1641 0.950 . S
C1620 H1616 0.949 . S
C1620 C1628 1.574 . S
C1620 C1636 1.368 . S
H1621 C1629 0.950 . S
H1622 C1627 0.950 . S
H1623 C1628 0.949 . S
H1624 C1630 0.950 . S
H1625 C1631 0.950 . S
H1626 C1632 0.949 . S
C1627 H1622 0.950 . S
C1627 C1629 1.327 . S
C1627 C1633 1.429 . S
C1628 C1620 1.574 . S
C1628 H1623 0.949 . S
C1628 C1634 1.368 . S
C1629 C1613 1.349 . S
C1629 H1621 0.950 . S
C1629 C1627 1.327 . S
C1630 C1618 1.349 . S
C1630 H1624 0.950 . S
C1630 C1631 1.327 . S
C1631 H1625 0.950 . S
C1631 C1630 1.327 . S
C1631 C1635 1.429 . S
C1632 C1615 1.574 . S
C1632 H1626 0.949 . S
C1632 C1636 1.368 . S
C1633 C1614 1.429 . S
C1633 C1627 1.429 . S
C1633 C1634 1.523 . S
C1634 C1615 1.368 . S
C1634 C1628 1.368 . S
C1634 C1633 1.523 . S
C1635 C1619 1.429 . S
C1635 C1631 1.429 . S
C1635 C1636 1.523 . S
C1636 C1620 1.368 . S
C1636 C1632 1.368 . S
C1636 C1635 1.523 . S
H1637 C1612 0.950 . S
H1638 C1614 0.950 . S
H1639 C1615 0.949 . S
H1640 C1617 0.950 . S
H1641 C1619 0.950 . S
C1642 C1643 1.349 . S
C1642 C1644 1.327 . S
C1642 H1667 0.950 . S
C1643 C1642 1.349 . S
C1643 C1659 1.349 . S
C1644 C1642 1.327 . S
C1644 C1663 1.429 . S
C1644 H1668 0.950 . S
C1645 C1662 1.574 1_455 S
C1645 C1664 1.368 . S
C1645 H1669 0.949 . S
H1646 C1650 0.949 . S
C1647 C1648 1.349 . S
C1647 C1649 1.327 . S
C1647 H1670 0.950 . S
C1648 C1647 1.349 . S
C1648 C1660 1.349 . S
C1649 C1647 1.327 . S
C1649 C1665 1.429 . S
C1649 H1671 0.950 . S
C1650 H1646 0.949 . S
C1650 C1658 1.574 1_655 S
C1650 C1666 1.368 . S
H1651 C1659 0.950 . S
H1652 C1657 0.950 . S
H1653 C1658 0.949 . S
H1654 C1660 0.950 . S
H1655 C1661 0.950 . S
H1656 C1662 0.949 . S
C1657 H1652 0.950 . S
C1657 C1659 1.327 . S
C1657 C1663 1.429 . S
C1658 C1650 1.574 1_455 S
C1658 H1653 0.949 . S
C1658 C1664 1.368 . S
C1659 C1643 1.349 . S
C1659 H1651 0.950 . S
C1659 C1657 1.327 . S
C1660 C1648 1.349 . S
C1660 H1654 0.950 . S
C1660 C1661 1.327 . S
C1661 H1655 0.950 . S
C1661 C1660 1.327 . S
C1661 C1665 1.429 . S
C1662 C1645 1.574 1_655 S
C1662 H1656 0.949 . S
C1662 C1666 1.368 . S
C1663 C1644 1.429 . S
C1663 C1657 1.429 . S
C1663 C1664 1.523 . S
C1664 C1645 1.368 . S
C1664 C1658 1.368 . S
C1664 C1663 1.523 . S
C1665 C1649 1.429 . S
C1665 C1661 1.429 . S
C1665 C1666 1.523 . S
C1666 C1650 1.368 . S
C1666 C1662 1.368 . S
C1666 C1665 1.523 . S
H1667 C1642 0.950 . S
H1668 C1644 0.950 . S
H1669 C1645 0.949 . S
H1670 C1647 0.950 . S
H1671 C1649 0.950 . S
C1672 C1673 1.349 . S
C1672 C1674 1.327 . S
C1672 H1697 0.950 . S
C1673 C1672 1.349 . S
C1673 C1689 1.349 . S
C1674 C1672 1.327 . S
C1674 C1693 1.429 . S
C1674 H1698 0.950 . S
C1675 C1692 1.574 1_655 S
C1675 C1694 1.368 . S
C1675 H1699 0.949 . S
H1676 C1680 0.949 . S
C1677 C1678 1.349 . S
C1677 C1679 1.327 . S
C1677 H1700 0.950 . S
C1678 C1677 1.349 . S
C1678 C1690 1.349 . S
C1679 C1677 1.327 . S
C1679 C1695 1.429 . S
C1679 H1701 0.950 . S
C1680 H1676 0.949 . S
C1680 C1688 1.574 1_455 S
C1680 C1696 1.368 . S
H1681 C1689 0.950 . S
H1682 C1687 0.950 . S
H1683 C1688 0.949 . S
H1684 C1690 0.950 . S
H1685 C1691 0.950 . S
H1686 C1692 0.949 . S
C1687 H1682 0.950 . S
C1687 C1689 1.327 . S
C1687 C1693 1.429 . S
C1688 C1680 1.574 1_655 S
C1688 H1683 0.949 . S
C1688 C1694 1.368 . S
C1689 C1673 1.349 . S
C1689 H1681 0.950 . S
C1689 C1687 1.327 . S
C1690 C1678 1.349 . S
C1690 H1684 0.950 . S
C1690 C1691 1.327 . S
C1691 H1685 0.950 . S
C1691 C1690 1.327 . S
C1691 C1695 1.429 . S
C1692 C1675 1.574 1_455 S
C1692 H1686 0.949 . S
C1692 C1696 1.368 . S
C1693 C1674 1.429 . S
C1693 C1687 1.429 . S
C1693 C1694 1.523 . S
C1694 C1675 1.368 . S
C1694 C1688 1.368 . S
C1694 C1693 1.523 . S
C1695 C1679 1.429 . S
C1695 C1691 1.429 . S
C1695 C1696 1.523 . S
C1696 C1680 1.368 . S
C1696 C1692 1.368 . S
C1696 C1695 1.523 . S
H1697 C1672 0.950 . S
H1698 C1674 0.950 . S
H1699 C1675 0.949 . S
H1700 C1677 0.950 . S
H1701 C1679 0.950 . S
C1702 C1703 1.349 . S
C1702 C1704 1.327 . S
C1702 H1727 0.950 . S
C1703 C1702 1.349 . S
C1703 C1719 1.349 . S
C1704 C1702 1.327 . S
C1704 C1723 1.429 . S
C1704 H1728 0.950 . S
C1705 C1722 1.574 . S
C1705 C1724 1.368 . S
C1705 H1729 0.949 . S
H1706 C1710 0.949 . S
C1707 C1708 1.349 . S
C1707 C1709 1.327 . S
C1707 H1730 0.950 . S
C1708 C1707 1.349 . S
C1708 C1720 1.349 . S
C1709 C1707 1.327 . S
C1709 C1725 1.429 . S
C1709 H1731 0.950 . S
C1710 H1706 0.949 . S
C1710 C1718 1.574 . S
C1710 C1726 1.368 . S
H1711 C1719 0.950 . S
H1712 C1717 0.950 . S
H1713 C1718 0.949 . S
H1714 C1720 0.950 . S
H1715 C1721 0.950 . S
H1716 C1722 0.949 . S
C1717 H1712 0.950 . S
C1717 C1719 1.327 . S
C1717 C1723 1.429 . S
C1718 C1710 1.574 . S
C1718 H1713 0.949 . S
C1718 C1724 1.368 . S
C1719 C1703 1.349 . S
C1719 H1711 0.950 . S
C1719 C1717 1.327 . S
C1720 C1708 1.349 . S
C1720 H1714 0.950 . S
C1720 C1721 1.327 . S
C1721 H1715 0.950 . S
C1721 C1720 1.327 . S
C1721 C1725 1.429 . S
C1722 C1705 1.574 . S
C1722 H1716 0.949 . S
C1722 C1726 1.368 . S
C1723 C1704 1.429 . S
C1723 C1717 1.429 . S
C1723 C1724 1.523 . S
C1724 C1705 1.368 . S
C1724 C1718 1.368 . S
C1724 C1723 1.523 . S
C1725 C1709 1.429 . S
C1725 C1721 1.429 . S
C1725 C1726 1.523 . S
C1726 C1710 1.368 . S
C1726 C1722 1.368 . S
C1726 C1725 1.523 . S
H1727 C1702 0.950 . S
H1728 C1704 0.950 . S
H1729 C1705 0.949 . S
H1730 C1707 0.950 . S
H1731 C1709 0.950 . S
C1732 C1733 1.349 . S
C1732 C1734 1.327 . S
C1732 H1757 0.950 . S
C1733 C1732 1.349 . S
C1733 C1749 1.349 . S
C1734 C1732 1.327 . S
C1734 C1753 1.429 . S
C1734 H1758 0.950 . S
C1735 C1752 1.574 . S
C1735 C1754 1.368 . S
C1735 H1759 0.949 . S
H1736 C1740 0.949 . S
C1737 C1738 1.349 . S
C1737 C1739 1.327 . S
C1737 H1760 0.950 . S
C1738 C1737 1.349 . S
C1738 C1750 1.349 . S
C1739 C1737 1.327 . S
C1739 C1755 1.429 . S
C1739 H1761 0.950 . S
C1740 H1736 0.949 . S
C1740 C1748 1.574 . S
C1740 C1756 1.368 . S
H1741 C1749 0.950 . S
H1742 C1747 0.950 . S
H1743 C1748 0.949 . S
H1744 C1750 0.950 . S
H1745 C1751 0.950 . S
H1746 C1752 0.949 . S
C1747 H1742 0.950 . S
C1747 C1749 1.327 . S
C1747 C1753 1.429 . S
C1748 C1740 1.574 . S
C1748 H1743 0.949 . S
C1748 C1754 1.368 . S
C1749 C1733 1.349 . S
C1749 H1741 0.950 . S
C1749 C1747 1.327 . S
C1750 C1738 1.349 . S
C1750 H1744 0.950 . S
C1750 C1751 1.327 . S
C1751 H1745 0.950 . S
C1751 C1750 1.327 . S
C1751 C1755 1.429 . S
C1752 C1735 1.574 . S
C1752 H1746 0.949 . S
C1752 C1756 1.368 . S
C1753 C1734 1.429 . S
C1753 C1747 1.429 . S
C1753 C1754 1.523 . S
C1754 C1735 1.368 . S
C1754 C1748 1.368 . S
C1754 C1753 1.523 . S
C1755 C1739 1.429 . S
C1755 C1751 1.429 . S
C1755 C1756 1.523 . S
C1756 C1740 1.368 . S
C1756 C1752 1.368 . S
C1756 C1755 1.523 . S
H1757 C1732 0.950 . S
H1758 C1734 0.950 . S
H1759 C1735 0.949 . S
H1760 C1737 0.950 . S
H1761 C1739 0.950 . S
C1762 C1763 1.349 . S
C1762 C1764 1.327 . S
C1762 H1787 0.950 . S
C1763 C1762 1.349 . S
C1763 C1779 1.349 . S
C1764 C1762 1.327 . S
C1764 C1783 1.429 . S
C1764 H1788 0.950 . S
C1765 C1782 1.574 1_455 S
C1765 C1784 1.368 . S
C1765 H1789 0.949 . S
H1766 C1770 0.949 . S
C1767 C1768 1.349 . S
C1767 C1769 1.327 . S
C1767 H1790 0.950 . S
C1768 C1767 1.349 . S
C1768 C1780 1.349 . S
C1769 C1767 1.327 . S
C1769 C1785 1.429 . S
C1769 H1791 0.950 . S
C1770 H1766 0.949 . S
C1770 C1778 1.574 1_655 S
C1770 C1786 1.368 . S
H1771 C1779 0.950 . S
H1772 C1777 0.950 . S
H1773 C1778 0.949 . S
H1774 C1780 0.950 . S
H1775 C1781 0.950 . S
H1776 C1782 0.949 . S
C1777 H1772 0.950 . S
C1777 C1779 1.327 . S
C1777 C1783 1.429 . S
C1778 C1770 1.574 1_455 S
C1778 H1773 0.949 . S
C1778 C1784 1.368 . S
C1779 C1763 1.349 . S
C1779 H1771 0.950 . S
C1779 C1777 1.327 . S
C1780 C1768 1.349 . S
C1780 H1774 0.950 . S
C1780 C1781 1.327 . S
C1781 H1775 0.950 . S
C1781 C1780 1.327 . S
C1781 C1785 1.429 . S
C1782 C1765 1.574 1_655 S
C1782 H1776 0.949 . S
C1782 C1786 1.368 . S
C1783 C1764 1.429 . S
C1783 C1777 1.429 . S
C1783 C1784 1.523 . S
C1784 C1765 1.368 . S
C1784 C1778 1.368 . S
C1784 C1783 1.523 . S
C1785 C1769 1.429 . S
C1785 C1781 1.429 . S
C1785 C1786 1.523 . S
C1786 C1770 1.368 . S
C1786 C1782 1.368 . S
C1786 C1785 1.523 . S
H1787 C1762 0.950 . S
H1788 C1764 0.950 . S
H1789 C1765 0.949 . S
H1790 C1767 0.950 . S
H1791 C1769 0.950 . S
C353 C10 1.358 . S
C358 C293 1.404 . S
C383 C279 1.404 . S
C388 C30 1.358 . S
C413 C337 1.404 . S
C418 C54 1.358 . S
C443 C315 1.404 . S
C448 C74 1.358 . S
C473 C205 1.410 . S
C478 C106 1.372 . S
C503 C128 1.372 . S
C508 C197 1.410 . S
C533 C263 1.410 . S
C538 C142 1.372 . S
C563 C164 1.372 . S
C568 C235 1.410 . S
C593 C131 1.404 . S
C598 C186 1.358 . S
C623 C206 1.358 . S
C628 C109 1.404 . S
C653 C161 1.404 . S
C658 C238 1.358 . S
C683 C139 1.404 . S
C688 C252 1.358 . S
C713 C272 1.372 . S
C718 C29 1.410 . S
C743 C21 1.410 . S
C748 C296 1.372 . S
C773 C318 1.372 . S
C778 C73 1.410 . S
C803 C65 1.410 . S
C808 C340 1.372 . S
C833 C228 1.444 . S
C838 C18 1.444 . S
C863 C32 1.444 . S
C868 C260 1.444 . S
C893 C194 1.444 . S
C898 C62 1.444 . S
C923 C208 1.444 . S
C928 C76 1.444 . S
C953 C316 1.443 . S
C958 C98 1.443 . S
C983 C120 1.443 . S
C988 C338 1.443 . S
C1013 C140 1.443 . S
C1018 C282 1.443 . S
C1043 C294 1.443 . S
C1048 C162 1.443 . S
C1073 C7 1.518 . S
C1078 C37 1.518 . S
C1103 C51 1.518 . S
C1108 C81 1.518 . S
C1133 C103 1.527 . S
C1138 C125 1.527 . S
C1163 C175 1.527 . S
C1168 C153 1.527 . S
C1193 C213 1.518 . S
C1198 C183 1.518 . S
C1223 C241 1.518 . S
C1228 C249 1.518 . S
C1253 C307 1.527 . S
C1258 C271 1.527 . S
C1283 C329 1.527 . S
C1288 C351 1.527 . S
C1313 C285 0.319 . S
C1318 C15 0.344 . S
C1343 C43 0.344 . S
C1348 C301 0.319 . S
C1373 C59 0.344 . S
C1378 C323 0.319 . S
C1403 C87 0.344 . S
C1408 C345 0.319 . S
C1433 C95 0.319 . S
C1438 C191 0.344 . S
C1463 C117 0.319 . S
C1468 C219 0.344 . S
C1493 C147 0.319 . S
C1498 C227 0.344 . S
C1523 C257 0.344 . S
C1528 C169 0.319 . S
C1553 C8 1.487 . S
C1558 C216 1.487 . S
C1583 C40 1.487 . S
C1588 C184 1.487 . S
C1613 C250 1.487 . S
C1618 C52 1.487 . S
C1643 C230 1.487 . S
C1648 C84 1.487 . S
C1673 C96 1.465 . S
C1678 C304 1.465 . S
C1703 C118 1.465 . S
C1708 C274 1.465 . S
C1733 C348 1.465 . S
C1738 C150 1.465 . S
C1763 C172 1.465 . S
C1768 C326 1.465 . S
