# Generated by pormake.
# Topology hbo, (4)-cn, num edge types: 1
# Building blocks:
#     Node 0, Type 0, BuildingBlock: GALJAG_clean_sbu_0, # of connection points: 4
#     Node 1, Type 0, BuildingBlock: GALJAG_clean_sbu_0, # of connection points: 4
#     Node 2, Type 0, BuildingBlock: GALJAG_clean_sbu_0, # of connection points: 4
#     Node 3, Type 0, BuildingBlock: GALJAG_clean_sbu_0, # of connection points: 4
#     Node 4, Type 0, BuildingBlock: GALJAG_clean_sbu_0, # of connection points: 4
#     Node 5, Type 0, BuildingBlock: GALJAG_clean_sbu_0, # of connection points: 4
#     Node 6, Type 0, BuildingBlock: GALJAG_clean_sbu_0, # of connection points: 4
#     Node 7, Type 0, BuildingBlock: GALJAG_clean_sbu_0, # of connection points: 4
#     Node 8, Type 0, BuildingBlock: GALJAG_clean_sbu_0, # of connection points: 4
#     Node 9, Type 0, BuildingBlock: GALJAG_clean_sbu_0, # of connection points: 4
#     Node 10, Type 0, BuildingBlock: GALJAG_clean_sbu_0, # of connection points: 4
#     Node 11, Type 0, BuildingBlock: GALJAG_clean_sbu_0, # of connection points: 4
#     Node 12, Type 0, BuildingBlock: GALJAG_clean_sbu_0, # of connection points: 4
#     Node 13, Type 0, BuildingBlock: GALJAG_clean_sbu_0, # of connection points: 4
#     Node 14, Type 0, BuildingBlock: GALJAG_clean_sbu_0, # of connection points: 4
#     Node 15, Type 0, BuildingBlock: GALJAG_clean_sbu_0, # of connection points: 4
#     Node 16, Type 0, BuildingBlock: GALJAG_clean_sbu_0, # of connection points: 4
#     Node 17, Type 0, BuildingBlock: GALJAG_clean_sbu_0, # of connection points: 4
#     Node 18, Type 0, BuildingBlock: GALJAG_clean_sbu_0, # of connection points: 4
#     Node 19, Type 0, BuildingBlock: GALJAG_clean_sbu_0, # of connection points: 4
#     Node 20, Type 0, BuildingBlock: GALJAG_clean_sbu_0, # of connection points: 4
#     Node 21, Type 0, BuildingBlock: GALJAG_clean_sbu_0, # of connection points: 4
#     Node 22, Type 0, BuildingBlock: GALJAG_clean_sbu_0, # of connection points: 4
#     Node 23, Type 0, BuildingBlock: GALJAG_clean_sbu_0, # of connection points: 4
#     Edge 24, Type (0, 0), BuildingBlock: AJUNOK_clean_linker_0, # of connection points: 2
#     Edge 25, Type (0, 0), BuildingBlock: AJUNOK_clean_linker_0, # of connection points: 2
#     Edge 26, Type (0, 0), BuildingBlock: AJUNOK_clean_linker_0, # of connection points: 2
#     Edge 27, Type (0, 0), BuildingBlock: AJUNOK_clean_linker_0, # of connection points: 2
#     Edge 28, Type (0, 0), BuildingBlock: AJUNOK_clean_linker_0, # of connection points: 2
#     Edge 29, Type (0, 0), BuildingBlock: AJUNOK_clean_linker_0, # of connection points: 2
#     Edge 30, Type (0, 0), BuildingBlock: AJUNOK_clean_linker_0, # of connection points: 2
#     Edge 31, Type (0, 0), BuildingBlock: AJUNOK_clean_linker_0, # of connection points: 2
#     Edge 32, Type (0, 0), BuildingBlock: AJUNOK_clean_linker_0, # of connection points: 2
#     Edge 33, Type (0, 0), BuildingBlock: AJUNOK_clean_linker_0, # of connection points: 2
#     Edge 34, Type (0, 0), BuildingBlock: AJUNOK_clean_linker_0, # of connection points: 2
#     Edge 35, Type (0, 0), BuildingBlock: AJUNOK_clean_linker_0, # of connection points: 2
#     Edge 36, Type (0, 0), BuildingBlock: AJUNOK_clean_linker_0, # of connection points: 2
#     Edge 37, Type (0, 0), BuildingBlock: AJUNOK_clean_linker_0, # of connection points: 2
#     Edge 38, Type (0, 0), BuildingBlock: AJUNOK_clean_linker_0, # of connection points: 2
#     Edge 39, Type (0, 0), BuildingBlock: AJUNOK_clean_linker_0, # of connection points: 2
#     Edge 40, Type (0, 0), BuildingBlock: AJUNOK_clean_linker_0, # of connection points: 2
#     Edge 41, Type (0, 0), BuildingBlock: AJUNOK_clean_linker_0, # of connection points: 2
#     Edge 42, Type (0, 0), BuildingBlock: AJUNOK_clean_linker_0, # of connection points: 2
#     Edge 43, Type (0, 0), BuildingBlock: AJUNOK_clean_linker_0, # of connection points: 2
#     Edge 44, Type (0, 0), BuildingBlock: AJUNOK_clean_linker_0, # of connection points: 2
#     Edge 45, Type (0, 0), BuildingBlock: AJUNOK_clean_linker_0, # of connection points: 2
#     Edge 46, Type (0, 0), BuildingBlock: AJUNOK_clean_linker_0, # of connection points: 2
#     Edge 47, Type (0, 0), BuildingBlock: AJUNOK_clean_linker_0, # of connection points: 2
#     Edge 48, Type (0, 0), BuildingBlock: AJUNOK_clean_linker_0, # of connection points: 2
#     Edge 49, Type (0, 0), BuildingBlock: AJUNOK_clean_linker_0, # of connection points: 2
#     Edge 50, Type (0, 0), BuildingBlock: AJUNOK_clean_linker_0, # of connection points: 2
#     Edge 51, Type (0, 0), BuildingBlock: AJUNOK_clean_linker_0, # of connection points: 2
#     Edge 52, Type (0, 0), BuildingBlock: AJUNOK_clean_linker_0, # of connection points: 2
#     Edge 53, Type (0, 0), BuildingBlock: AJUNOK_clean_linker_0, # of connection points: 2
#     Edge 54, Type (0, 0), BuildingBlock: AJUNOK_clean_linker_0, # of connection points: 2
#     Edge 55, Type (0, 0), BuildingBlock: AJUNOK_clean_linker_0, # of connection points: 2
#     Edge 56, Type (0, 0), BuildingBlock: AJUNOK_clean_linker_0, # of connection points: 2
#     Edge 57, Type (0, 0), BuildingBlock: AJUNOK_clean_linker_0, # of connection points: 2
#     Edge 58, Type (0, 0), BuildingBlock: AJUNOK_clean_linker_0, # of connection points: 2
#     Edge 59, Type (0, 0), BuildingBlock: AJUNOK_clean_linker_0, # of connection points: 2
#     Edge 60, Type (0, 0), BuildingBlock: AJUNOK_clean_linker_0, # of connection points: 2
#     Edge 61, Type (0, 0), BuildingBlock: AJUNOK_clean_linker_0, # of connection points: 2
#     Edge 62, Type (0, 0), BuildingBlock: AJUNOK_clean_linker_0, # of connection points: 2
#     Edge 63, Type (0, 0), BuildingBlock: AJUNOK_clean_linker_0, # of connection points: 2
#     Edge 64, Type (0, 0), BuildingBlock: AJUNOK_clean_linker_0, # of connection points: 2
#     Edge 65, Type (0, 0), BuildingBlock: AJUNOK_clean_linker_0, # of connection points: 2
#     Edge 66, Type (0, 0), BuildingBlock: AJUNOK_clean_linker_0, # of connection points: 2
#     Edge 67, Type (0, 0), BuildingBlock: AJUNOK_clean_linker_0, # of connection points: 2
#     Edge 68, Type (0, 0), BuildingBlock: AJUNOK_clean_linker_0, # of connection points: 2
#     Edge 69, Type (0, 0), BuildingBlock: AJUNOK_clean_linker_0, # of connection points: 2
#     Edge 70, Type (0, 0), BuildingBlock: AJUNOK_clean_linker_0, # of connection points: 2
#     Edge 71, Type (0, 0), BuildingBlock: AJUNOK_clean_linker_0, # of connection points: 2
# Relax obj value: 0.092
# Max RMSD: 0.160
# Mean RMSD: 0.160
data_MOF--net-hbo--node1-GALJAG_clean_sbu_0--edge1-AJUNOK_clean_linker_0
_symmetry_space_group_name_H-M    P1
_symmetry_Int_Tables_number       1
_symmetry_cell_setting            triclinic
loop_
_symmetry_equiv_pos_as_xyz
'x, y, z'
_cell_length_a     39.874413
_cell_length_b     40.023468
_cell_length_c     39.92989
_cell_angle_alpha  89.921458
_cell_angle_beta   90.039809
_cell_angle_gamma 90.022373
loop_
_atom_site_label
_atom_site_type_symbol
_atom_site_fract_x
_atom_site_fract_y
_atom_site_fract_z
_atom_type_partial_charge
In0 In 0.13065 0.35245 0.24724 0.0
O1 O 0.13845 0.3998 0.27835 0.0
O2 O 0.13032 0.40413 0.22569 0.0
C3 C 0.14157 0.30005 0.28777 0.0
C4 C 0.06386 0.34975 0.2398 0.0
C5 C 0.18382 0.3417 0.20749 0.0
O6 O 0.14795 0.32971 0.29678 0.0
O7 O 0.12895 0.29736 0.25891 0.0
O8 O 0.15422 0.33483 0.19818 0.0
O9 O 0.18611 0.35411 0.23641 0.0
C10 C 0.13562 0.41884 0.25314 0.0
O11 O 0.0835 0.34457 0.21545 0.0
O12 O 0.07817 0.3559 0.26733 0.0
In13 In 0.13307 0.62823 0.74206 0.0
O14 O 0.14188 0.58089 0.7112 0.0
O15 O 0.13333 0.57667 0.76385 0.0
C16 C 0.14254 0.6813 0.7021 0.0
C17 C 0.06605 0.62976 0.74691 0.0
C18 C 0.18579 0.63944 0.78227 0.0
O19 O 0.15053 0.65203 0.69304 0.0
O20 O 0.12966 0.68328 0.73087 0.0
O21 O 0.15604 0.64565 0.79158 0.0
O22 O 0.18841 0.62765 0.75311 0.0
C23 C 0.13931 0.56197 0.73655 0.0
O24 O 0.08458 0.63583 0.772 0.0
O25 O 0.08163 0.62306 0.72026 0.0
In26 In 0.85347 0.63211 0.23453 0.0
O27 O 0.84252 0.58488 0.2647 0.0
O28 O 0.85343 0.58042 0.21257 0.0
C29 C 0.84473 0.68406 0.27606 0.0
C30 C 0.92045 0.63208 0.23037 0.0
C31 C 0.80186 0.64631 0.19387 0.0
O32 O 0.83582 0.65471 0.28396 0.0
O33 O 0.85827 0.6867 0.24766 0.0
O34 O 0.83184 0.65279 0.18557 0.0
O35 O 0.79852 0.63236 0.222 0.0
C36 C 0.84636 0.56578 0.23972 0.0
O37 O 0.90238 0.63904 0.20518 0.0
O38 O 0.90449 0.62538 0.25683 0.0
In39 In 0.85017 0.35485 0.74515 0.0
O40 O 0.84021 0.40476 0.71892 0.0
O41 O 0.85055 0.40442 0.77136 0.0
C42 C 0.83838 0.30498 0.70191 0.0
C43 C 0.91727 0.35227 0.74799 0.0
C44 C 0.7991 0.33815 0.78547 0.0
O45 O 0.83044 0.33493 0.69526 0.0
O46 O 0.85307 0.30089 0.7296 0.0
O47 O 0.82933 0.33254 0.79351 0.0
O48 O 0.79519 0.35296 0.75782 0.0
C49 C 0.84377 0.42149 0.74562 0.0
O50 O 0.89929 0.34501 0.77312 0.0
O51 O 0.90118 0.36073 0.72207 0.0
In52 In 0.24296 0.12947 0.35152 0.0
O53 O 0.21245 0.08199 0.34233 0.0
O54 O 0.26548 0.07827 0.34904 0.0
C55 C 0.20137 0.18153 0.34311 0.0
C56 C 0.24942 0.1289 0.41825 0.0
C57 C 0.28317 0.14289 0.29947 0.0
O58 O 0.19338 0.15226 0.33412 0.0
O59 O 0.22984 0.18401 0.35664 0.0
O60 O 0.29205 0.14905 0.32931 0.0
O61 O 0.25445 0.13005 0.29641 0.0
C62 C 0.23811 0.06336 0.3436 0.0
O63 O 0.27373 0.13677 0.3994 0.0
O64 O 0.22257 0.1216 0.40318 0.0
In65 In 0.35489 0.73798 0.85475 0.0
O66 O 0.40484 0.71179 0.8444 0.0
O67 O 0.4044 0.76435 0.8538 0.0
C68 C 0.30374 0.69596 0.84327 0.0
C69 C 0.35453 0.74075 0.9218 0.0
C70 C 0.34042 0.77792 0.80289 0.0
O71 O 0.33374 0.68832 0.8361 0.0
O72 O 0.30021 0.72404 0.85716 0.0
O73 O 0.33372 0.78637 0.83277 0.0
O74 O 0.35443 0.74984 0.79978 0.0
C75 C 0.42147 0.73869 0.84693 0.0
O76 O 0.34585 0.76564 0.90413 0.0
O77 O 0.36279 0.7151 0.9054 0.0
In78 In 0.75257 0.85404 0.35508 0.0
O79 O 0.722 0.84353 0.40217 0.0
O80 O 0.77495 0.85019 0.40661 0.0
C81 C 0.7105 0.8481 0.30284 0.0
C82 C 0.7597 0.9204 0.3585 0.0
C83 C 0.79153 0.80171 0.33965 0.0
O84 O 0.70252 0.83857 0.33201 0.0
O85 O 0.73916 0.86121 0.30057 0.0
O86 O 0.80144 0.83152 0.33545 0.0
O87 O 0.76264 0.79885 0.35218 0.0
C88 C 0.74737 0.84482 0.42123 0.0
O89 O 0.78323 0.90206 0.34773 0.0
O90 O 0.73321 0.90517 0.36656 0.0
In91 In 0.63105 0.23109 0.85258 0.0
O92 O 0.64038 0.20044 0.90001 0.0
O93 O 0.63176 0.25293 0.90417 0.0
C94 C 0.64081 0.19065 0.80001 0.0
C95 C 0.56404 0.23623 0.85239 0.0
C96 C 0.68301 0.27197 0.84058 0.0
O97 O 0.64954 0.18235 0.82936 0.0
O98 O 0.62679 0.2188 0.79771 0.0
O99 O 0.65308 0.28068 0.8344 0.0
O100 O 0.6862 0.24305 0.85275 0.0
C101 C 0.63765 0.22565 0.91897 0.0
O102 O 0.58255 0.26096 0.84517 0.0
O103 O 0.5796 0.20959 0.85908 0.0
In104 In 0.24006 0.85212 0.63392 0.0
O105 O 0.27 0.84386 0.5857 0.0
O106 O 0.21887 0.85911 0.58229 0.0
C107 C 0.28016 0.83749 0.68583 0.0
C108 C 0.23701 0.91841 0.64179 0.0
C109 C 0.19841 0.80043 0.64389 0.0
O110 O 0.28926 0.8327 0.65581 0.0
O111 O 0.25137 0.85012 0.68916 0.0
O112 O 0.19037 0.83002 0.65173 0.0
O113 O 0.22676 0.79754 0.63021 0.0
C114 C 0.24548 0.85145 0.567 0.0
O115 O 0.21087 0.90044 0.64323 0.0
O116 O 0.2639 0.90277 0.6362 0.0
In117 In 0.63326 0.75425 0.13296 0.0
O118 O 0.63977 0.78496 0.08473 0.0
O119 O 0.62382 0.7342 0.08153 0.0
C120 C 0.64787 0.79448 0.18471 0.0
C121 C 0.567 0.74747 0.14156 0.0
C122 C 0.68492 0.71174 0.14077 0.0
O123 O 0.65345 0.80318 0.15471 0.0
O124 O 0.6344 0.76617 0.18803 0.0
O125 O 0.65523 0.70411 0.14884 0.0
O126 O 0.68816 0.74046 0.12813 0.0
C127 C 0.63056 0.76095 0.06624 0.0
O128 O 0.58686 0.72296 0.14434 0.0
O129 O 0.58085 0.77511 0.13497 0.0
In130 In 0.74369 0.13277 0.62892 0.0
O131 O 0.71253 0.14139 0.58178 0.0
O132 O 0.76577 0.13728 0.57747 0.0
C133 C 0.70128 0.13824 0.68083 0.0
C134 C 0.75377 0.06664 0.6263 0.0
C135 C 0.78092 0.187 0.64232 0.0
O136 O 0.6929 0.14632 0.65135 0.0
O137 O 0.73057 0.12668 0.6836 0.0
O138 O 0.79194 0.15771 0.64732 0.0
O139 O 0.75158 0.18844 0.63062 0.0
C140 C 0.73798 0.14136 0.56281 0.0
O141 O 0.77631 0.08615 0.63717 0.0
O142 O 0.72675 0.08063 0.61778 0.0
In143 In 0.35224 0.24438 0.13057 0.0
O144 O 0.40224 0.27194 0.13788 0.0
O145 O 0.40246 0.22103 0.12206 0.0
C146 C 0.30138 0.28562 0.14532 0.0
C147 C 0.34414 0.24038 0.0642 0.0
C148 C 0.34181 0.20266 0.18218 0.0
O149 O 0.33161 0.29364 0.15104 0.0
O150 O 0.29745 0.25757 0.13151 0.0
O151 O 0.33391 0.19505 0.15245 0.0
O152 O 0.35577 0.23077 0.18537 0.0
C153 C 0.41934 0.24674 0.1291 0.0
O154 O 0.33998 0.21529 0.0831 0.0
O155 O 0.35194 0.26715 0.07907 0.0
In156 In 0.85298 0.63291 0.75169 0.0
O157 O 0.90367 0.63951 0.77822 0.0
O158 O 0.90256 0.62653 0.72646 0.0
C159 C 0.80269 0.64845 0.79336 0.0
C160 C 0.84499 0.56652 0.74929 0.0
C161 C 0.84191 0.68441 0.71005 0.0
O162 O 0.83302 0.6543 0.80093 0.0
O163 O 0.79841 0.63412 0.76555 0.0
O164 O 0.8339 0.65474 0.70244 0.0
O165 O 0.85603 0.68758 0.73817 0.0
C166 C 0.92018 0.63282 0.75193 0.0
O167 O 0.84057 0.58471 0.72366 0.0
O168 O 0.85333 0.58204 0.77553 0.0
In169 In 0.85116 0.35417 0.23851 0.0
O170 O 0.84149 0.40235 0.26761 0.0
O171 O 0.85162 0.40528 0.21522 0.0
C172 C 0.84075 0.3023 0.27972 0.0
C173 C 0.91819 0.35185 0.23489 0.0
C174 C 0.79954 0.33905 0.19818 0.0
O175 O 0.83204 0.33172 0.28756 0.0
O176 O 0.85517 0.29966 0.25176 0.0
O177 O 0.82968 0.33397 0.1895 0.0
O178 O 0.796 0.35265 0.22644 0.0
C179 C 0.84521 0.42073 0.24202 0.0
O180 O 0.89999 0.34628 0.20946 0.0
O181 O 0.90234 0.35855 0.26141 0.0
In182 In 0.12972 0.351 0.73455 0.0
O183 O 0.08257 0.34191 0.76587 0.0
O184 O 0.07722 0.35737 0.71501 0.0
C185 C 0.18311 0.33848 0.77346 0.0
C186 C 0.13686 0.41739 0.73232 0.0
C187 C 0.13945 0.29937 0.69286 0.0
O188 O 0.15348 0.33226 0.78314 0.0
O189 O 0.18533 0.35084 0.74448 0.0
O190 O 0.14621 0.32913 0.68434 0.0
O191 O 0.12699 0.29627 0.72173 0.0
C192 C 0.06292 0.34942 0.74209 0.0
O193 O 0.13822 0.39994 0.70588 0.0
O194 O 0.13135 0.40122 0.7589 0.0
In195 In 0.13231 0.63007 0.24643 0.0
O196 O 0.13958 0.58275 0.27782 0.0
O197 O 0.13305 0.57842 0.22494 0.0
C198 C 0.13948 0.68252 0.2876 0.0
C199 C 0.06587 0.63138 0.23692 0.0
C200 C 0.18643 0.64164 0.20822 0.0
O201 O 0.14771 0.65324 0.29641 0.0
O202 O 0.12741 0.68483 0.25851 0.0
O203 O 0.15698 0.6474 0.19778 0.0
O204 O 0.18812 0.63005 0.23756 0.0
C205 C 0.13746 0.56371 0.25259 0.0
O206 O 0.08605 0.6386 0.21351 0.0
O207 O 0.07949 0.62386 0.26446 0.0
In208 In 0.75003 0.85584 0.63251 0.0
O209 O 0.78069 0.90397 0.63931 0.0
O210 O 0.73048 0.90689 0.62087 0.0
C211 C 0.78814 0.8027 0.64738 0.0
C212 C 0.7459 0.84649 0.56636 0.0
C213 C 0.70788 0.84958 0.68455 0.0
O214 O 0.79822 0.83223 0.65295 0.0
O215 O 0.75946 0.80057 0.63422 0.0
O216 O 0.69981 0.84055 0.65525 0.0
O217 O 0.73664 0.86246 0.68704 0.0
C218 C 0.75705 0.92223 0.62851 0.0
O219 O 0.72018 0.84527 0.58495 0.0
O220 O 0.77322 0.8521 0.58142 0.0
In221 In 0.63145 0.2324 0.13039 0.0
O222 O 0.64005 0.2013 0.08322 0.0
O223 O 0.63343 0.25403 0.0786 0.0
C224 C 0.64069 0.19024 0.182 0.0
C225 C 0.56467 0.24002 0.12925 0.0
C226 C 0.68327 0.27344 0.1429 0.0
O227 O 0.65014 0.18317 0.15262 0.0
O228 O 0.62609 0.21802 0.18483 0.0
O229 O 0.68659 0.24488 0.13008 0.0
O230 O 0.65334 0.28168 0.14955 0.0
C231 C 0.63833 0.22647 0.06404 0.0
O232 O 0.58385 0.26353 0.13841 0.0
O233 O 0.57935 0.21316 0.12167 0.0
In234 In 0.2409 0.12913 0.63021 0.0
O235 O 0.27206 0.13705 0.58276 0.0
O236 O 0.22147 0.1203 0.57827 0.0
C237 C 0.28043 0.14396 0.68241 0.0
C238 C 0.23737 0.06301 0.63954 0.0
C239 C 0.19886 0.18105 0.63731 0.0
O240 O 0.29002 0.1483 0.65247 0.0
O241 O 0.25132 0.13201 0.68552 0.0
O242 O 0.19082 0.15177 0.64633 0.0
O243 O 0.22757 0.18357 0.62432 0.0
C244 C 0.2483 0.12839 0.56358 0.0
O245 O 0.21131 0.08111 0.64017 0.0
O246 O 0.2644 0.07843 0.6339 0.0
In247 In 0.35495 0.74068 0.13468 0.0
O248 O 0.40422 0.71381 0.14573 0.0
O249 O 0.40525 0.76593 0.13426 0.0
C250 C 0.30458 0.69811 0.14739 0.0
C251 C 0.35431 0.74213 0.06756 0.0
C252 C 0.33894 0.78207 0.18488 0.0
O253 O 0.3346 0.69154 0.15546 0.0
O254 O 0.30064 0.72535 0.13195 0.0
O255 O 0.33264 0.78934 0.15461 0.0
O256 O 0.35404 0.75471 0.18918 0.0
C257 C 0.42169 0.73995 0.14159 0.0
O258 O 0.34634 0.76757 0.08468 0.0
O259 O 0.36191 0.71659 0.08451 0.0
In260 In 0.74424 0.13055 0.35205 0.0
O261 O 0.77701 0.08399 0.34458 0.0
O262 O 0.72774 0.07851 0.36461 0.0
C263 C 0.78264 0.18362 0.33731 0.0
C264 C 0.73825 0.14047 0.41796 0.0
C265 C 0.70139 0.13581 0.30031 0.0
O266 O 0.793 0.15398 0.33327 0.0
O267 O 0.75334 0.18602 0.34892 0.0
O268 O 0.69345 0.14444 0.32971 0.0
O269 O 0.73045 0.12371 0.29754 0.0
C270 C 0.75481 0.06458 0.35624 0.0
O271 O 0.71288 0.13988 0.39888 0.0
O272 O 0.76611 0.13642 0.4035 0.0
In273 In 0.35115 0.24202 0.85245 0.0
O274 O 0.33907 0.21365 0.9005 0.0
O275 O 0.35187 0.2654 0.90352 0.0
C276 C 0.34028 0.20141 0.80034 0.0
C277 C 0.41827 0.24225 0.8527 0.0
C278 C 0.30051 0.28326 0.83718 0.0
O279 O 0.33148 0.19353 0.82981 0.0
O280 O 0.35507 0.22915 0.79775 0.0
O281 O 0.33078 0.29123 0.83158 0.0
O282 O 0.29646 0.25533 0.85129 0.0
C283 C 0.34382 0.23898 0.91892 0.0
O284 O 0.40175 0.26841 0.84561 0.0
O285 O 0.4007 0.21682 0.85914 0.0
In286 In 0.23718 0.85273 0.35469 0.0
O287 O 0.20844 0.90133 0.34536 0.0
O288 O 0.26158 0.90301 0.35205 0.0
C289 C 0.19512 0.80121 0.34584 0.0
C290 C 0.24403 0.85198 0.42146 0.0
C291 C 0.27585 0.83916 0.30153 0.0
O292 O 0.18682 0.83088 0.3385 0.0
O293 O 0.22399 0.79814 0.35841 0.0
O294 O 0.28582 0.83373 0.33121 0.0
O295 O 0.24676 0.85132 0.29919 0.0
C296 C 0.23486 0.91893 0.34632 0.0
O297 O 0.26797 0.84383 0.4023 0.0
O298 O 0.21729 0.8603 0.40669 0.0
In299 In 0.6327 0.75383 0.85464 0.0
O300 O 0.63929 0.78465 0.90266 0.0
O301 O 0.62263 0.73411 0.90612 0.0
C302 C 0.64696 0.79388 0.80262 0.0
C303 C 0.56648 0.74749 0.84524 0.0
C304 C 0.68553 0.71267 0.84765 0.0
O305 O 0.6516 0.80315 0.8326 0.0
O306 O 0.63475 0.76498 0.79941 0.0
O307 O 0.65623 0.70432 0.83877 0.0
O308 O 0.68771 0.74131 0.86057 0.0
C309 C 0.62974 0.76082 0.92127 0.0
O310 O 0.58588 0.72245 0.84433 0.0
O311 O 0.58073 0.77513 0.85074 0.0
C312 C 0.13891 0.50858 0.22446 0.0
C313 C 0.13901 0.52688 0.25448 0.0
C314 C 0.13837 0.47377 0.2246 0.0
C315 C 0.13794 0.45563 0.25475 0.0
H316 H 0.13887 0.52121 0.20044 0.0
H317 H 0.13798 0.46103 0.20068 0.0
S318 S 0.13905 0.49144 0.3404 0.0
N319 N 0.13949 0.52434 0.31537 0.0
N320 N 0.13852 0.45843 0.31562 0.0
C321 C 0.13878 0.47345 0.28509 0.0
C322 C 0.13931 0.50918 0.28495 0.0
C323 C 0.97669 0.63884 0.7792 0.0
C324 C 0.9573 0.63211 0.75052 0.0
C325 C 0.01191 0.63805 0.778 0.0
C326 C 0.02892 0.63049 0.74807 0.0
H327 H 0.96462 0.64474 0.80275 0.0
H328 H 0.02585 0.6434 0.80066 0.0
S329 S 0.98974 0.611 0.66589 0.0
N330 N 0.95787 0.61766 0.69128 0.0
N331 N 0.02358 0.61616 0.68905 0.0
C332 C 0.00976 0.62372 0.71924 0.0
C333 C 0.97409 0.62454 0.72046 0.0
C334 C 0.84637 0.47541 0.21254 0.0
C335 C 0.84335 0.45763 0.24279 0.0
C336 C 0.84665 0.51027 0.21198 0.0
C337 C 0.84389 0.52895 0.24163 0.0
H338 H 0.84899 0.46233 0.18895 0.0
H339 H 0.84946 0.52263 0.18798 0.0
S340 S 0.83417 0.4946 0.32747 0.0
N341 N 0.83656 0.46128 0.30322 0.0
N342 N 0.83706 0.52716 0.30217 0.0
C343 C 0.84008 0.51162 0.27209 0.0
C344 C 0.83981 0.47589 0.27266 0.0
C345 C 0.00662 0.35864 0.71708 0.0
C346 C 0.02593 0.34946 0.74508 0.0
C347 C 0.97166 0.35941 0.71852 0.0
C348 C 0.95437 0.35102 0.74804 0.0
H349 H 0.01854 0.36541 0.69365 0.0
H350 H 0.95813 0.3667 0.69614 0.0
S351 S -0.00697 0.32511 0.82855 0.0
N352 N 0.02523 0.33169 0.80338 0.0
N353 N 0.95916 0.33312 0.8061 0.0
C354 C 0.97325 0.34172 0.77634 0.0
C355 C 0.00909 0.34094 0.77486 0.0
C356 C 0.13615 0.4731 0.70344 0.0
C357 C 0.14075 0.45408 0.73274 0.0
C358 C 0.13681 0.50819 0.70447 0.0
C359 C 0.14206 0.52523 0.73483 0.0
H360 H 0.13095 0.46088 0.67982 0.0
H361 H 0.13206 0.52201 0.6816 0.0
S362 S 0.16026 0.48682 0.81753 0.0
N363 N 0.15418 0.45485 0.79221 0.0
N364 N 0.15535 0.52045 0.79411 0.0
C365 C 0.14836 0.50641 0.76389 0.0
C366 C 0.14773 0.4709 0.76286 0.0
C367 C 0.9745 0.62005 0.25853 0.0
C368 C 0.95751 0.63163 0.22993 0.0
C369 C 0.00941 0.61993 0.26014 0.0
C370 C 0.02899 0.6314 0.23322 0.0
H371 H 0.96077 0.61102 0.28013 0.0
H372 H 0.02107 0.61081 0.28289 0.0
S373 S -0.00306 0.66408 0.1523 0.0
N374 N 0.96281 0.65466 0.17377 0.0
N375 N 0.02893 0.65444 0.17679 0.0
C376 C 0.01248 0.64276 0.2042 0.0
C377 C 0.97663 0.64288 0.20255 0.0
C378 C 0.841 0.51238 0.71803 0.0
C379 C 0.84197 0.52968 0.74867 0.0
C380 C 0.84075 0.4773 0.71714 0.0
C381 C 0.84143 0.45838 0.74686 0.0
H382 H 0.84131 0.52596 0.69455 0.0
H383 H 0.84085 0.46499 0.693 0.0
S384 S 0.84046 0.4918 0.8336 0.0
N385 N 0.84107 0.52526 0.80945 0.0
N386 N 0.84056 0.45964 0.80781 0.0
C387 C 0.84109 0.47545 0.77764 0.0
C388 C 0.84137 0.51103 0.77854 0.0
C389 C 0.97269 0.35586 0.26471 0.0
C390 C 0.95528 0.35061 0.23454 0.0
C391 C 0.00765 0.35524 0.26592 0.0
C392 C 0.02685 0.34936 0.23701 0.0
H393 H 0.95926 0.36059 0.2878 0.0
H394 H 0.01965 0.35957 0.28987 0.0
S395 S -0.00638 0.33389 0.15159 0.0
N396 N 0.95982 0.33909 0.1749 0.0
N397 N 0.02593 0.33797 0.17717 0.0
C398 C 0.0099 0.34388 0.20658 0.0
C399 C 0.97404 0.34449 0.20535 0.0
C400 C 0.22328 0.11598 0.50812 0.0
C401 C 0.25073 0.12798 0.52665 0.0
C402 C 0.22355 0.11612 0.47322 0.0
C403 C 0.25128 0.12825 0.45521 0.0
H404 H 0.2011 0.10654 0.52062 0.0
H405 H 0.20157 0.10677 0.4603 0.0
S406 S 0.32999 0.16181 0.49166 0.0
N407 N 0.30683 0.15182 0.52448 0.0
N408 N 0.30734 0.15206 0.45841 0.0
C409 C 0.27924 0.13987 0.47327 0.0
C410 C 0.27896 0.13975 0.5091 0.0
C411 C 0.34222 0.76859 0.97676 0.0
C412 C 0.35514 0.74118 0.9589 0.0
C413 C 0.34216 0.76893 0.01195 0.0
C414 C 0.35501 0.74185 0.03047 0.0
H415 H 0.33183 0.78984 0.96352 0.0
H416 H 0.33174 0.79042 0.02469 0.0
S417 S 0.3934 0.6648 -0.00438 0.0
N418 N 0.38225 0.68679 0.96248 0.0
N419 N 0.38214 0.68742 0.02821 0.0
C420 C 0.36844 0.71453 0.01285 0.0
C421 C 0.36851 0.71419 0.97718 0.0
C422 C 0.77534 0.84099 0.47668 0.0
C423 C 0.74541 0.84212 0.4581 0.0
C424 C 0.77498 0.84146 0.51163 0.0
C425 C 0.74468 0.84307 0.52953 0.0
H426 H 0.79944 0.84037 0.46418 0.0
H427 H 0.79882 0.84116 0.52467 0.0
S428 S 0.65917 0.84492 0.49285 0.0
N429 N 0.68444 0.84363 0.46013 0.0
N430 N 0.68377 0.8445 0.52614 0.0
C431 C 0.71443 0.84312 0.51138 0.0
C432 C 0.71479 0.84264 0.47559 0.0
C433 C 0.64179 0.25442 0.00874 0.0
C434 C 0.64068 0.22453 0.0272 0.0
C435 C 0.64159 0.25422 0.97383 0.0
C436 C 0.6403 0.22411 0.95582 0.0
H437 H 0.64233 0.27839 0.0213 0.0
H438 H 0.64201 0.27804 0.96092 0.0
S439 S 0.63837 0.13876 0.99211 0.0
N440 N 0.63931 0.16378 0.02496 0.0
N441 N 0.63897 0.16341 0.9589 0.0
C442 C 0.64013 0.19388 0.97381 0.0
C443 C 0.64031 0.19408 0.00962 0.0
C444 C 0.21829 0.86252 0.47704 0.0
C445 C 0.24623 0.85184 0.45846 0.0
C446 C 0.21863 0.86237 0.51197 0.0
C447 C 0.24693 0.85155 0.52998 0.0
H448 H 0.19572 0.87104 0.46456 0.0
H449 H 0.19632 0.8708 0.52491 0.0
S450 S 0.32687 0.82132 0.49341 0.0
N451 N 0.30325 0.83031 0.46061 0.0
N452 N 0.3039 0.83006 0.52668 0.0
C453 C 0.27526 0.841 0.51185 0.0
C454 C 0.2749 0.84113 0.47601 0.0
C455 C 0.6462 0.78709 0.01122 0.0
C456 C 0.62781 0.76319 0.02944 0.0
C457 C 0.64599 0.78706 0.97601 0.0
C458 C 0.62735 0.76315 0.95809 0.0
H459 H 0.66171 0.80515 0.02419 0.0
H460 H 0.66134 0.8051 0.96281 0.0
S461 S 0.57092 0.69873 -0.00579 0.0
N462 N 0.58764 0.71748 0.02697 0.0
N463 N 0.58722 0.71745 0.96118 0.0
C464 C 0.6075 0.74036 0.97611 0.0
C465 C 0.60773 0.74038 0.01172 0.0
C466 C 0.76587 0.14888 0.50786 0.0
C467 C 0.73604 0.14436 0.52603 0.0
C468 C 0.76593 0.14869 0.47294 0.0
C469 C 0.73617 0.14397 0.45468 0.0
H470 H 0.78963 0.15195 0.52068 0.0
H471 H 0.78974 0.15161 0.46019 0.0
S472 S 0.65096 0.13267 0.49022 0.0
N473 N 0.6756 0.1364 0.52328 0.0
N474 N 0.67572 0.13604 0.45724 0.0
C475 C 0.70588 0.14063 0.47241 0.0
C476 C 0.70581 0.14083 0.5082 0.0
C477 C 0.34554 0.26848 0.00871 0.0
C478 C 0.34154 0.2389 0.0273 0.0
C479 C 0.34549 0.26813 0.97376 0.0
C480 C 0.34141 0.23819 0.95585 0.0
H481 H 0.34928 0.29221 0.0212 0.0
H482 H 0.34916 0.29161 0.96074 0.0
S483 S 0.32855 0.15392 -0.00746 0.0
N484 N 0.33225 0.17884 0.02526 0.0
N485 N 0.33213 0.17819 0.95925 0.0
C486 C 0.33651 0.20844 0.97402 0.0
C487 C 0.33658 0.2088 0.00981 0.0
C488 C 0.51083 0.26855 0.14483 0.0
C489 C 0.52779 0.24316 0.12734 0.0
C490 C 0.47561 0.27025 0.14474 0.0
C491 C 0.45635 0.2466 0.12715 0.0
H492 H 0.52477 0.2867 0.15935 0.0
H493 H 0.46342 0.28962 0.15922 0.0
S494 S 0.48892 0.17801 0.07375 0.0
N495 N 0.52273 0.19584 0.08947 0.0
N496 N 0.45694 0.19902 0.08927 0.0
C497 C 0.47314 0.22202 0.10843 0.0
C498 C 0.50877 0.2203 0.10853 0.0
C499 C 0.5134 0.71391 0.84631 0.0
C500 C 0.52965 0.74485 0.84201 0.0
C501 C 0.47824 0.71175 0.84679 0.0
C502 C 0.45827 0.74048 0.84303 0.0
H503 H 0.52789 0.69139 0.85046 0.0
H504 H 0.46669 0.68766 0.85125 0.0
S505 S 0.48859 0.82664 0.82636 0.0
N506 N 0.52305 0.80422 0.8306 0.0
N507 N 0.45727 0.80019 0.83152 0.0
C508 C 0.47426 0.77124 0.83704 0.0
C509 C 0.50988 0.77342 0.83652 0.0
C510 C 0.78285 0.97551 0.3394 0.0
C511 C 0.7619 0.9571 0.36093 0.0
C512 C 0.78157 0.01061 0.33877 0.0
C513 C 0.7593 0.02815 0.35966 0.0
H514 H 0.79923 0.96274 0.32197 0.0
H515 H 0.79704 0.02397 0.32093 0.0
S516 S 0.70377 -0.00842 0.42466 0.0
N517 N 0.72151 0.95907 0.4065 0.0
N518 N 0.7191 0.0247 0.40534 0.0
C519 C 0.73989 0.01 0.38273 0.0
C520 C 0.74119 0.97452 0.38336 0.0
C521 C 0.47471 0.26816 0.8423 0.0
C522 C 0.45537 0.2409 0.85341 0.0
C523 C 0.50992 0.26667 0.84217 0.0
C524 C 0.52696 0.23787 0.85316 0.0
H525 H 0.4626 0.29069 0.83334 0.0
H526 H 0.52383 0.28812 0.83316 0.0
S527 S 0.48794 0.16028 0.88635 0.0
N528 N 0.45601 0.18467 0.87682 0.0
N529 N 0.52175 0.1819 0.87657 0.0
C530 C 0.50786 0.21066 0.8648 0.0
C531 C 0.47219 0.21217 0.86494 0.0
C532 C 0.20562 0.97432 0.34712 0.0
C533 C 0.23498 0.95555 0.34201 0.0
C534 C 0.2064 0.00939 0.34638 0.0
C535 C 0.23657 0.02666 0.3405 0.0
H536 H 0.18216 0.96192 0.35289 0.0
H537 H 0.18353 0.023 0.35164 0.0
S538 S 0.31917 0.9889 0.32056 0.0
N539 N 0.29418 0.95673 0.32727 0.0
N540 N 0.29563 0.02236 0.32589 0.0
C541 C 0.26564 0.00809 0.33354 0.0
C542 C 0.26485 0.97257 0.33429 0.0
C543 C 0.51034 0.77327 0.1413 0.0
C544 C 0.53014 0.74436 0.14414 0.0
C545 C 0.47538 0.77143 0.14123 0.0
C546 C 0.45868 0.74061 0.14403 0.0
H547 H 0.52187 0.79763 0.13856 0.0
H548 H 0.46139 0.79447 0.13849 0.0
S549 S 0.49882 0.6575 0.15354 0.0
N550 N 0.53055 0.68392 0.15096 0.0
N551 N 0.46453 0.68048 0.15087 0.0
C552 C 0.47807 0.71149 0.14778 0.0
C553 C 0.51387 0.71336 0.14782 0.0
C554 C 0.781 0.97769 0.64564 0.0
C555 C 0.75936 0.95889 0.62516 0.0
C556 C 0.78019 0.01282 0.6451 0.0
C557 C 0.75774 0.03004 0.62405 0.0
H558 H 0.79763 0.96523 0.66311 0.0
H559 H 0.79623 0.0265 0.66216 0.0
S560 S 0.70024 -0.00777 0.56152 0.0
N561 N 0.71795 0.96006 0.58041 0.0
N562 N 0.71646 0.0257 0.57938 0.0
C563 C 0.73755 0.01143 0.60204 0.0
C564 C 0.73836 0.97592 0.6026 0.0
C565 C 0.20676 0.0083 0.63928 0.0
C566 C 0.23671 0.02635 0.64376 0.0
C567 C 0.20667 0.97321 0.63987 0.0
C568 C 0.23652 0.95516 0.64494 0.0
H569 H 0.18348 0.02128 0.63415 0.0
H570 H 0.18332 0.96019 0.63515 0.0
S571 S 0.32061 0.99083 0.66277 0.0
N572 N 0.29625 0.02363 0.65689 0.0
N573 N 0.29607 0.95798 0.65796 0.0
C574 C 0.26623 0.97301 0.6512 0.0
C575 C 0.26633 0.00856 0.65062 0.0
C576 C 0.14273 0.23829 0.29546 0.0
C577 C 0.15185 0.27023 0.3071 0.0
C578 C 0.15711 0.20936 0.30897 0.0
C579 C 0.18133 0.21135 0.33444 0.0
H580 H 0.12552 0.2356 0.27463 0.0
H581 H 0.15066 0.18547 0.29797 0.0
S582 S 0.20989 0.28851 0.37737 0.0
N583 N 0.18351 0.30184 0.34842 0.0
N584 N 0.21073 0.24743 0.37373 0.0
C585 C 0.18874 0.24291 0.34809 0.0
C586 C 0.17392 0.27238 0.33446 0.0
C587 C 0.24193 0.68651 0.84214 0.0
C588 C 0.27428 0.67626 0.83236 0.0
C589 C 0.21316 0.67283 0.82739 0.0
C590 C 0.21571 0.64861 0.80212 0.0
H591 H 0.23875 0.70639 0.86024 0.0
H592 H 0.1889 0.68272 0.83449 0.0
S593 S 0.29421 0.60948 0.77121 0.0
N594 N 0.30694 0.63753 0.79871 0.0
N595 N 0.25288 0.61193 0.77081 0.0
C596 C 0.24775 0.63635 0.79388 0.0
C597 C 0.27706 0.65013 0.80908 0.0
C598 C 0.81152 0.71133 0.32122 0.0
C599 C 0.8363 0.71372 0.29637 0.0
C600 C 0.79857 0.74 0.3365 0.0
C601 C 0.81013 0.77209 0.32773 0.0
H602 H 0.80068 0.68734 0.32765 0.0
H603 H 0.77832 0.737 0.35434 0.0
S604 S 0.87842 0.79143 0.26775 0.0
N605 N 0.87466 0.75037 0.26633 0.0
N606 N 0.85038 0.80428 0.29528 0.0
C607 C 0.8367 0.77465 0.3048 0.0
C608 C 0.84975 0.74544 0.28903 0.0
C609 C 0.73737 0.33427 0.79452 0.0
C610 C 0.77002 0.32513 0.80442 0.0
C611 C 0.70911 0.3183 0.80784 0.0
C612 C 0.71249 0.29239 0.83134 0.0
H613 H 0.73357 0.35303 0.7753 0.0
H614 H 0.6846 0.32516 0.79836 0.0
S615 S 0.79211 0.26204 0.86887 0.0
N616 N 0.80388 0.29088 0.84172 0.0
N617 N 0.75079 0.26067 0.86667 0.0
C618 C 0.74485 0.28447 0.84307 0.0
C619 C 0.77363 0.30092 0.82967 0.0
C620 C 0.18973 0.73877 0.64376 0.0
C621 C 0.1788 0.77066 0.65388 0.0
C622 C 0.17617 0.7097 0.65782 0.0
C623 C 0.15135 0.71149 0.68268 0.0
H624 H 0.2101 0.73618 0.62601 0.0
H625 H 0.18664 0.68581 0.65056 0.0
S626 S 0.11023 0.78858 0.71394 0.0
N627 N 0.13874 0.80211 0.6872 0.0
N628 N 0.11331 0.74745 0.71378 0.0
C629 C 0.13834 0.74307 0.69112 0.0
C630 C 0.15203 0.77269 0.67664 0.0
C631 C 0.74678 0.70205 0.14097 0.0
C632 C 0.71431 0.69072 0.14905 0.0
C633 C 0.77536 0.68595 0.15354 0.0
C634 C 0.77242 0.65813 0.1748 0.0
H635 H 0.75021 0.72448 0.12615 0.0
H636 H 0.79975 0.69666 0.14824 0.0
S637 S 0.69351 0.61527 0.199 0.0
N638 N 0.68116 0.64739 0.17613 0.0
N639 N 0.73485 0.61732 0.19994 0.0
C640 C 0.74027 0.64502 0.18095 0.0
C641 C 0.71119 0.66127 0.168 0.0
C642 C 0.82582 0.21519 0.67542 0.0
C643 C 0.79926 0.21748 0.65244 0.0
C644 C 0.83972 0.24393 0.68981 0.0
C645 C 0.82778 0.27601 0.68151 0.0
H646 H 0.83478 0.19101 0.68375 0.0
H647 H 0.85903 0.24083 0.70866 0.0
S648 S 0.76198 0.29567 0.61882 0.0
N649 N 0.76398 0.25447 0.61918 0.0
N650 N 0.79028 0.30848 0.64614 0.0
C651 C 0.80295 0.27875 0.65669 0.0
C652 C 0.78861 0.24946 0.6422 0.0
C653 C 0.21114 0.30923 0.1618 0.0
C654 C 0.21388 0.33255 0.1879 0.0
C655 C 0.23977 0.29567 0.14679 0.0
C656 C 0.27219 0.30512 0.15712 0.0
H657 H 0.18679 0.30002 0.15407 0.0
H658 H 0.23639 0.27656 0.12789 0.0
S659 S 0.29284 0.36901 0.22106 0.0
N660 N 0.25147 0.36731 0.22098 0.0
N661 N 0.30529 0.34186 0.19258 0.0
C662 C 0.27526 0.33025 0.18144 0.0
C663 C 0.24608 0.34392 0.19692 0.0
C664 C 0.34038 0.19382 0.24402 0.0
C665 C 0.33174 0.18267 0.21169 0.0
C666 C 0.32628 0.17926 0.27265 0.0
C667 C 0.30285 0.15322 0.26992 0.0
H668 H 0.35697 0.21502 0.24727 0.0
H669 H 0.33229 0.18981 0.2969 0.0
S670 S 0.27598 0.11123 0.19153 0.0
N671 N 0.30149 0.14121 0.17895 0.0
N672 N 0.27481 0.11399 0.23276 0.0
C673 C 0.29592 0.14016 0.23795 0.0
C674 C 0.31044 0.15484 0.20881 0.0
C675 C 0.3032 0.82036 0.77619 0.0
C676 C 0.32956 0.79731 0.77331 0.0
C677 C 0.28848 0.83454 0.74767 0.0
C678 C 0.2998 0.82641 0.71526 0.0
H679 H 0.29264 0.82616 0.80049 0.0
H680 H 0.26722 0.85102 0.75106 0.0
S681 S 0.37144 0.77109 0.69459 0.0
N682 N 0.36883 0.76967 0.73583 0.0
N683 N 0.34127 0.79653 0.68223 0.0
C684 C 0.3277 0.80523 0.71219 0.0
C685 C 0.34254 0.7906 0.74123 0.0
C686 C 0.66443 0.81636 0.27519 0.0
C687 C 0.69023 0.84015 0.27287 0.0
C688 C 0.6494 0.80324 0.24639 0.0
C689 C 0.65941 0.81361 0.2142 0.0
H690 H 0.65709 0.80631 0.29931 0.0
H691 H 0.63085 0.78369 0.24941 0.0
S692 S 0.7221 0.87929 0.19475 0.0
N693 N 0.72239 0.87654 0.23601 0.0
N694 N 0.69394 0.85192 0.18184 0.0
C695 C 0.68323 0.83935 0.2116 0.0
C696 C 0.69872 0.8526 0.24097 0.0
C697 C 0.69243 0.13654 0.74258 0.0
C698 C 0.6807 0.1459 0.71064 0.0
C699 C 0.67759 0.14909 0.77173 0.0
C700 C 0.65067 0.17163 0.76994 0.0
H701 H 0.71437 0.12078 0.74515 0.0
H702 H 0.68874 0.14278 0.79567 0.0
S703 S 0.60674 0.19924 0.69275 0.0
N704 N 0.63761 0.17538 0.67915 0.0
N705 N 0.60985 0.19916 0.73398 0.0
C706 C 0.63688 0.17892 0.73832 0.0
C707 C 0.65186 0.16597 0.70862 0.0
C708 C 0.82972 0.77484 0.68487 0.0
C709 C 0.80632 0.77257 0.65868 0.0
C710 C 0.84247 0.74601 0.7002 0.0
C711 C 0.8325 0.7139 0.68971 0.0
H712 H 0.83682 0.79899 0.69486 0.0
H713 H 0.85922 0.74902 0.72136 0.0
S714 S 0.77578 0.69461 0.61863 0.0
N715 N 0.77655 0.73581 0.62033 0.0
N716 N 0.8007 0.68165 0.64902 0.0
C717 C 0.81104 0.71133 0.66192 0.0
C718 C 0.79788 0.74068 0.64645 0.0
C719 C 0.70938 0.31878 0.17688 0.0
C720 C 0.71262 0.29396 0.15229 0.0
C721 C 0.73769 0.33465 0.19022 0.0
C722 C 0.77024 0.3265 0.17924 0.0
H723 H 0.68499 0.32479 0.18719 0.0
H724 H 0.73405 0.35247 0.21029 0.0
S725 S 0.79175 0.26672 0.11169 0.0
N726 N 0.75053 0.26451 0.1148 0.0
N727 N 0.80372 0.29454 0.13975 0.0
C728 C 0.77362 0.30349 0.15292 0.0
C729 C 0.7448 0.28713 0.13951 0.0
C730 C 0.13974 0.23773 0.68422 0.0
C731 C 0.14938 0.26974 0.6731 0.0
C732 C 0.15404 0.20882 0.67066 0.0
C733 C 0.17871 0.21089 0.64566 0.0
H734 H 0.12223 0.23495 0.70478 0.0
H735 H 0.14723 0.18488 0.68136 0.0
S736 S 0.20857 0.28831 0.60391 0.0
N737 N 0.18189 0.30154 0.63258 0.0
N738 N 0.20896 0.24718 0.60715 0.0
C739 C 0.18655 0.24255 0.63238 0.0
C740 C 0.17181 0.27201 0.64607 0.0
C741 C 0.21438 0.67308 0.16205 0.0
C742 C 0.21685 0.65086 0.18919 0.0
C743 C 0.24316 0.68667 0.14726 0.0
C744 C 0.27545 0.67832 0.15889 0.0
H745 H 0.19008 0.68144 0.15326 0.0
H746 H 0.23996 0.70499 0.12752 0.0
S747 S 0.29551 0.61736 0.22602 0.0
N748 N 0.25414 0.6182 0.22472 0.0
N749 N 0.30822 0.64365 0.19677 0.0
C750 C 0.2783 0.6542 0.18433 0.0
C751 C 0.24898 0.64052 0.19955 0.0
C752 C 0.80361 0.27444 0.32141 0.0
C753 C 0.83074 0.27248 0.29911 0.0
C754 C 0.78927 0.24549 0.33494 0.0
C755 C 0.80172 0.21356 0.3269 0.0
H756 H 0.79212 0.29831 0.327 0.0
H757 H 0.7674 0.24816 0.3508 0.0
S758 S 0.87566 0.19536 0.27366 0.0
N759 N 0.87193 0.23643 0.27243 0.0
N760 N 0.84507 0.182 0.29811 0.0
C761 C 0.8304 0.21143 0.30661 0.0
C762 C 0.84487 0.24092 0.29263 0.0
C763 C 0.21037 0.30665 0.81979 0.0
C764 C 0.2132 0.32927 0.79305 0.0
C765 C 0.23894 0.29341 0.83527 0.0
C766 C 0.2714 0.30254 0.82479 0.0
H767 H 0.18597 0.29777 0.82777 0.0
H768 H 0.2355 0.27483 0.85473 0.0
S769 S 0.29233 0.36453 0.75894 0.0
N770 N 0.25095 0.36297 0.75899 0.0
N771 N 0.30466 0.33814 0.78827 0.0
C772 C 0.27458 0.32695 0.7997 0.0
C773 C 0.24545 0.34027 0.78374 0.0
C774 C 0.18606 0.73965 0.34652 0.0
C775 C 0.17516 0.77156 0.33634 0.0
C776 C 0.17247 0.71062 0.33246 0.0
C777 C 0.1477 0.71249 0.30753 0.0
H778 H 0.2065 0.73702 0.36422 0.0
H779 H 0.18303 0.68672 0.33965 0.0
S780 S 0.10637 0.78963 0.27642 0.0
N781 N 0.13493 0.8031 0.30316 0.0
N782 N 0.10948 0.74849 0.27655 0.0
C783 C 0.13456 0.74407 0.29921 0.0
C784 C 0.14825 0.77365 0.3137 0.0
C785 C 0.74125 0.65002 0.80413 0.0
C786 C 0.77372 0.66073 0.8129 0.0
C787 C 0.71272 0.66555 0.81728 0.0
C788 C 0.71557 0.69255 0.83953 0.0
H789 H 0.73774 0.63043 0.78576 0.0
H790 H 0.68833 0.65745 0.80847 0.0
S791 S 0.79479 0.72706 0.87418 0.0
N792 N 0.80706 0.69754 0.84807 0.0
N793 N 0.75341 0.7269 0.87278 0.0
C794 C 0.74785 0.70192 0.85043 0.0
C795 C 0.77695 0.68594 0.83714 0.0
C796 C 0.66287 0.81631 0.7121 0.0
C797 C 0.68773 0.84106 0.71443 0.0
C798 C 0.64835 0.80259 0.7409 0.0
C799 C 0.65792 0.81333 0.77309 0.0
H800 H 0.65597 0.80597 0.68799 0.0
H801 H 0.63056 0.78235 0.73789 0.0
S802 S 0.71797 0.8814 0.7925 0.0
N803 N 0.71843 0.87865 0.75124 0.0
N804 N 0.69088 0.85296 0.80543 0.0
C805 C 0.68071 0.83998 0.77568 0.0
C806 C 0.69571 0.85381 0.74631 0.0
C807 C 0.6928 0.13538 0.23847 0.0
C808 C 0.68073 0.14368 0.27054 0.0
C809 C 0.67792 0.14845 0.20952 0.0
C810 C 0.65057 0.17046 0.21164 0.0
H811 H 0.71508 0.12016 0.23568 0.0
H812 H 0.68936 0.14303 0.18554 0.0
S813 S 0.60547 0.19488 0.28909 0.0
N814 N 0.63676 0.17131 0.30236 0.0
N815 N 0.6089 0.19607 0.2479 0.0
C816 C 0.6364 0.17655 0.2433 0.0
C817 C 0.65145 0.16308 0.2728 0.0
C818 C 0.28869 0.14574 0.74419 0.0
C819 C 0.3001 0.15442 0.71196 0.0
C820 C 0.30343 0.15929 0.77293 0.0
C821 C 0.32994 0.18225 0.77048 0.0
H822 H 0.2673 0.12932 0.74728 0.0
H823 H 0.29271 0.15312 0.79708 0.0
S824 S 0.37219 0.20962 0.69227 0.0
N825 N 0.34188 0.18458 0.67946 0.0
N826 N 0.36952 0.2103 0.73353 0.0
C827 C 0.34311 0.18941 0.73855 0.0
C828 C 0.32822 0.1754 0.70926 0.0
C829 C 0.32195 0.80675 0.27465 0.0
C830 C 0.29518 0.82933 0.27155 0.0
C831 C 0.33721 0.793 0.24626 0.0
C832 C 0.32647 0.80155 0.21374 0.0
H833 H 0.33013 0.79834 0.29912 0.0
H834 H 0.35673 0.77453 0.24993 0.0
S835 S 0.26037 0.86306 0.1921 0.0
N836 N 0.26076 0.86226 0.23344 0.0
N837 N 0.28962 0.83648 0.18011 0.0
C838 C 0.3013 0.82584 0.21028 0.0
C839 C 0.28557 0.83968 0.2392 0.0
loop_
_geom_bond_atom_site_label_1
_geom_bond_atom_site_label_2
_geom_bond_distance
_geom_bond_site_symmetry_2
_ccdc_geom_bond_type
In0 O1 2.294 . S
In0 O2 2.326 . S
In0 O6 2.266 . S
In0 O7 2.326 . S
In0 O8 2.266 . S
In0 O9 2.326 . S
In0 O11 2.294 . S
In0 O12 2.326 . S
O1 In0 2.294 . S
O1 C10 1.240 . S
O2 In0 2.326 . S
O2 C10 1.252 . S
C3 O6 1.252 . S
C3 O7 1.260 . S
C4 O11 1.240 . S
C4 O12 1.252 . S
C5 O8 1.252 . S
C5 O9 1.260 . S
O6 In0 2.266 . S
O6 C3 1.252 . S
O7 In0 2.326 . S
O7 C3 1.260 . S
O8 In0 2.266 . S
O8 C5 1.252 . S
O9 In0 2.326 . S
O9 C5 1.260 . S
C10 O1 1.240 . S
C10 O2 1.252 . S
O11 In0 2.294 . S
O11 C4 1.240 . S
O12 In0 2.326 . S
O12 C4 1.252 . S
In13 O14 2.294 . S
In13 O15 2.326 . S
In13 O19 2.266 . S
In13 O20 2.326 . S
In13 O21 2.266 . S
In13 O22 2.326 . S
In13 O24 2.294 . S
In13 O25 2.326 . S
O14 In13 2.294 . S
O14 C23 1.240 . S
O15 In13 2.326 . S
O15 C23 1.252 . S
C16 O19 1.252 . S
C16 O20 1.260 . S
C17 O24 1.240 . S
C17 O25 1.252 . S
C18 O21 1.252 . S
C18 O22 1.260 . S
O19 In13 2.266 . S
O19 C16 1.252 . S
O20 In13 2.326 . S
O20 C16 1.260 . S
O21 In13 2.266 . S
O21 C18 1.252 . S
O22 In13 2.326 . S
O22 C18 1.260 . S
C23 O14 1.240 . S
C23 O15 1.252 . S
O24 In13 2.294 . S
O24 C17 1.240 . S
O25 In13 2.326 . S
O25 C17 1.252 . S
In26 O27 2.294 . S
In26 O28 2.326 . S
In26 O32 2.266 . S
In26 O33 2.326 . S
In26 O34 2.266 . S
In26 O35 2.326 . S
In26 O37 2.294 . S
In26 O38 2.326 . S
O27 In26 2.294 . S
O27 C36 1.240 . S
O28 In26 2.326 . S
O28 C36 1.252 . S
C29 O32 1.252 . S
C29 O33 1.260 . S
C30 O37 1.240 . S
C30 O38 1.252 . S
C31 O34 1.252 . S
C31 O35 1.260 . S
O32 In26 2.266 . S
O32 C29 1.252 . S
O33 In26 2.326 . S
O33 C29 1.260 . S
O34 In26 2.266 . S
O34 C31 1.252 . S
O35 In26 2.326 . S
O35 C31 1.260 . S
C36 O27 1.240 . S
C36 O28 1.252 . S
O37 In26 2.294 . S
O37 C30 1.240 . S
O38 In26 2.326 . S
O38 C30 1.252 . S
In39 O40 2.294 . S
In39 O41 2.326 . S
In39 O45 2.266 . S
In39 O46 2.326 . S
In39 O47 2.266 . S
In39 O48 2.326 . S
In39 O50 2.294 . S
In39 O51 2.326 . S
O40 In39 2.294 . S
O40 C49 1.240 . S
O41 In39 2.326 . S
O41 C49 1.252 . S
C42 O45 1.252 . S
C42 O46 1.260 . S
C43 O50 1.240 . S
C43 O51 1.252 . S
C44 O47 1.252 . S
C44 O48 1.260 . S
O45 In39 2.266 . S
O45 C42 1.252 . S
O46 In39 2.326 . S
O46 C42 1.260 . S
O47 In39 2.266 . S
O47 C44 1.252 . S
O48 In39 2.326 . S
O48 C44 1.260 . S
C49 O40 1.240 . S
C49 O41 1.252 . S
O50 In39 2.294 . S
O50 C43 1.240 . S
O51 In39 2.326 . S
O51 C43 1.252 . S
In52 O53 2.294 . S
In52 O54 2.326 . S
In52 O58 2.266 . S
In52 O59 2.326 . S
In52 O60 2.266 . S
In52 O61 2.326 . S
In52 O63 2.294 . S
In52 O64 2.326 . S
O53 In52 2.294 . S
O53 C62 1.240 . S
O54 In52 2.326 . S
O54 C62 1.252 . S
C55 O58 1.252 . S
C55 O59 1.260 . S
C56 O63 1.240 . S
C56 O64 1.252 . S
C57 O60 1.252 . S
C57 O61 1.260 . S
O58 In52 2.266 . S
O58 C55 1.252 . S
O59 In52 2.326 . S
O59 C55 1.260 . S
O60 In52 2.266 . S
O60 C57 1.252 . S
O61 In52 2.326 . S
O61 C57 1.260 . S
C62 O53 1.240 . S
C62 O54 1.252 . S
O63 In52 2.294 . S
O63 C56 1.240 . S
O64 In52 2.326 . S
O64 C56 1.252 . S
In65 O66 2.294 . S
In65 O67 2.326 . S
In65 O71 2.266 . S
In65 O72 2.326 . S
In65 O73 2.266 . S
In65 O74 2.326 . S
In65 O76 2.294 . S
In65 O77 2.326 . S
O66 In65 2.294 . S
O66 C75 1.240 . S
O67 In65 2.326 . S
O67 C75 1.252 . S
C68 O71 1.252 . S
C68 O72 1.260 . S
C69 O76 1.240 . S
C69 O77 1.252 . S
C70 O73 1.252 . S
C70 O74 1.260 . S
O71 In65 2.266 . S
O71 C68 1.252 . S
O72 In65 2.326 . S
O72 C68 1.260 . S
O73 In65 2.266 . S
O73 C70 1.252 . S
O74 In65 2.326 . S
O74 C70 1.260 . S
C75 O66 1.240 . S
C75 O67 1.252 . S
O76 In65 2.294 . S
O76 C69 1.240 . S
O77 In65 2.326 . S
O77 C69 1.252 . S
In78 O79 2.294 . S
In78 O80 2.326 . S
In78 O84 2.266 . S
In78 O85 2.326 . S
In78 O86 2.266 . S
In78 O87 2.326 . S
In78 O89 2.294 . S
In78 O90 2.326 . S
O79 In78 2.294 . S
O79 C88 1.240 . S
O80 In78 2.326 . S
O80 C88 1.252 . S
C81 O84 1.252 . S
C81 O85 1.260 . S
C82 O89 1.240 . S
C82 O90 1.252 . S
C83 O86 1.252 . S
C83 O87 1.260 . S
O84 In78 2.266 . S
O84 C81 1.252 . S
O85 In78 2.326 . S
O85 C81 1.260 . S
O86 In78 2.266 . S
O86 C83 1.252 . S
O87 In78 2.326 . S
O87 C83 1.260 . S
C88 O79 1.240 . S
C88 O80 1.252 . S
O89 In78 2.294 . S
O89 C82 1.240 . S
O90 In78 2.326 . S
O90 C82 1.252 . S
In91 O92 2.294 . S
In91 O93 2.326 . S
In91 O97 2.266 . S
In91 O98 2.326 . S
In91 O99 2.266 . S
In91 O100 2.326 . S
In91 O102 2.294 . S
In91 O103 2.326 . S
O92 In91 2.294 . S
O92 C101 1.240 . S
O93 In91 2.326 . S
O93 C101 1.252 . S
C94 O97 1.252 . S
C94 O98 1.260 . S
C95 O102 1.240 . S
C95 O103 1.252 . S
C96 O99 1.252 . S
C96 O100 1.260 . S
O97 In91 2.266 . S
O97 C94 1.252 . S
O98 In91 2.326 . S
O98 C94 1.260 . S
O99 In91 2.266 . S
O99 C96 1.252 . S
O100 In91 2.326 . S
O100 C96 1.260 . S
C101 O92 1.240 . S
C101 O93 1.252 . S
O102 In91 2.294 . S
O102 C95 1.240 . S
O103 In91 2.326 . S
O103 C95 1.252 . S
In104 O105 2.294 . S
In104 O106 2.326 . S
In104 O110 2.266 . S
In104 O111 2.326 . S
In104 O112 2.266 . S
In104 O113 2.326 . S
In104 O115 2.294 . S
In104 O116 2.326 . S
O105 In104 2.294 . S
O105 C114 1.240 . S
O106 In104 2.326 . S
O106 C114 1.252 . S
C107 O110 1.252 . S
C107 O111 1.260 . S
C108 O115 1.240 . S
C108 O116 1.252 . S
C109 O112 1.252 . S
C109 O113 1.260 . S
O110 In104 2.266 . S
O110 C107 1.252 . S
O111 In104 2.326 . S
O111 C107 1.260 . S
O112 In104 2.266 . S
O112 C109 1.252 . S
O113 In104 2.326 . S
O113 C109 1.260 . S
C114 O105 1.240 . S
C114 O106 1.252 . S
O115 In104 2.294 . S
O115 C108 1.240 . S
O116 In104 2.326 . S
O116 C108 1.252 . S
In117 O118 2.294 . S
In117 O119 2.326 . S
In117 O123 2.266 . S
In117 O124 2.326 . S
In117 O125 2.266 . S
In117 O126 2.326 . S
In117 O128 2.294 . S
In117 O129 2.326 . S
O118 In117 2.294 . S
O118 C127 1.240 . S
O119 In117 2.326 . S
O119 C127 1.252 . S
C120 O123 1.252 . S
C120 O124 1.260 . S
C121 O128 1.240 . S
C121 O129 1.252 . S
C122 O125 1.252 . S
C122 O126 1.260 . S
O123 In117 2.266 . S
O123 C120 1.252 . S
O124 In117 2.326 . S
O124 C120 1.260 . S
O125 In117 2.266 . S
O125 C122 1.252 . S
O126 In117 2.326 . S
O126 C122 1.260 . S
C127 O118 1.240 . S
C127 O119 1.252 . S
O128 In117 2.294 . S
O128 C121 1.240 . S
O129 In117 2.326 . S
O129 C121 1.252 . S
In130 O131 2.294 . S
In130 O132 2.326 . S
In130 O136 2.266 . S
In130 O137 2.326 . S
In130 O138 2.266 . S
In130 O139 2.326 . S
In130 O141 2.294 . S
In130 O142 2.326 . S
O131 In130 2.294 . S
O131 C140 1.240 . S
O132 In130 2.326 . S
O132 C140 1.252 . S
C133 O136 1.252 . S
C133 O137 1.260 . S
C134 O141 1.240 . S
C134 O142 1.252 . S
C135 O138 1.252 . S
C135 O139 1.260 . S
O136 In130 2.266 . S
O136 C133 1.252 . S
O137 In130 2.326 . S
O137 C133 1.260 . S
O138 In130 2.266 . S
O138 C135 1.252 . S
O139 In130 2.326 . S
O139 C135 1.260 . S
C140 O131 1.240 . S
C140 O132 1.252 . S
O141 In130 2.294 . S
O141 C134 1.240 . S
O142 In130 2.326 . S
O142 C134 1.252 . S
In143 O144 2.294 . S
In143 O145 2.326 . S
In143 O149 2.266 . S
In143 O150 2.326 . S
In143 O151 2.266 . S
In143 O152 2.326 . S
In143 O154 2.294 . S
In143 O155 2.326 . S
O144 In143 2.294 . S
O144 C153 1.240 . S
O145 In143 2.326 . S
O145 C153 1.252 . S
C146 O149 1.252 . S
C146 O150 1.260 . S
C147 O154 1.240 . S
C147 O155 1.252 . S
C148 O151 1.252 . S
C148 O152 1.260 . S
O149 In143 2.266 . S
O149 C146 1.252 . S
O150 In143 2.326 . S
O150 C146 1.260 . S
O151 In143 2.266 . S
O151 C148 1.252 . S
O152 In143 2.326 . S
O152 C148 1.260 . S
C153 O144 1.240 . S
C153 O145 1.252 . S
O154 In143 2.294 . S
O154 C147 1.240 . S
O155 In143 2.326 . S
O155 C147 1.252 . S
In156 O157 2.294 . S
In156 O158 2.326 . S
In156 O162 2.266 . S
In156 O163 2.326 . S
In156 O164 2.266 . S
In156 O165 2.326 . S
In156 O167 2.294 . S
In156 O168 2.326 . S
O157 In156 2.294 . S
O157 C166 1.240 . S
O158 In156 2.326 . S
O158 C166 1.252 . S
C159 O162 1.252 . S
C159 O163 1.260 . S
C160 O167 1.240 . S
C160 O168 1.252 . S
C161 O164 1.252 . S
C161 O165 1.260 . S
O162 In156 2.266 . S
O162 C159 1.252 . S
O163 In156 2.326 . S
O163 C159 1.260 . S
O164 In156 2.266 . S
O164 C161 1.252 . S
O165 In156 2.326 . S
O165 C161 1.260 . S
C166 O157 1.240 . S
C166 O158 1.252 . S
O167 In156 2.294 . S
O167 C160 1.240 . S
O168 In156 2.326 . S
O168 C160 1.252 . S
In169 O170 2.294 . S
In169 O171 2.326 . S
In169 O175 2.266 . S
In169 O176 2.326 . S
In169 O177 2.266 . S
In169 O178 2.326 . S
In169 O180 2.294 . S
In169 O181 2.326 . S
O170 In169 2.294 . S
O170 C179 1.240 . S
O171 In169 2.326 . S
O171 C179 1.252 . S
C172 O175 1.252 . S
C172 O176 1.260 . S
C173 O180 1.240 . S
C173 O181 1.252 . S
C174 O177 1.252 . S
C174 O178 1.260 . S
O175 In169 2.266 . S
O175 C172 1.252 . S
O176 In169 2.326 . S
O176 C172 1.260 . S
O177 In169 2.266 . S
O177 C174 1.252 . S
O178 In169 2.326 . S
O178 C174 1.260 . S
C179 O170 1.240 . S
C179 O171 1.252 . S
O180 In169 2.294 . S
O180 C173 1.240 . S
O181 In169 2.326 . S
O181 C173 1.252 . S
In182 O183 2.294 . S
In182 O184 2.326 . S
In182 O188 2.266 . S
In182 O189 2.326 . S
In182 O190 2.266 . S
In182 O191 2.326 . S
In182 O193 2.294 . S
In182 O194 2.326 . S
O183 In182 2.294 . S
O183 C192 1.240 . S
O184 In182 2.326 . S
O184 C192 1.252 . S
C185 O188 1.252 . S
C185 O189 1.260 . S
C186 O193 1.240 . S
C186 O194 1.252 . S
C187 O190 1.252 . S
C187 O191 1.260 . S
O188 In182 2.266 . S
O188 C185 1.252 . S
O189 In182 2.326 . S
O189 C185 1.260 . S
O190 In182 2.266 . S
O190 C187 1.252 . S
O191 In182 2.326 . S
O191 C187 1.260 . S
C192 O183 1.240 . S
C192 O184 1.252 . S
O193 In182 2.294 . S
O193 C186 1.240 . S
O194 In182 2.326 . S
O194 C186 1.252 . S
In195 O196 2.294 . S
In195 O197 2.326 . S
In195 O201 2.266 . S
In195 O202 2.326 . S
In195 O203 2.266 . S
In195 O204 2.326 . S
In195 O206 2.294 . S
In195 O207 2.326 . S
O196 In195 2.294 . S
O196 C205 1.240 . S
O197 In195 2.326 . S
O197 C205 1.252 . S
C198 O201 1.252 . S
C198 O202 1.260 . S
C199 O206 1.240 . S
C199 O207 1.252 . S
C200 O203 1.252 . S
C200 O204 1.260 . S
O201 In195 2.266 . S
O201 C198 1.252 . S
O202 In195 2.326 . S
O202 C198 1.260 . S
O203 In195 2.266 . S
O203 C200 1.252 . S
O204 In195 2.326 . S
O204 C200 1.260 . S
C205 O196 1.240 . S
C205 O197 1.252 . S
O206 In195 2.294 . S
O206 C199 1.240 . S
O207 In195 2.326 . S
O207 C199 1.252 . S
In208 O209 2.294 . S
In208 O210 2.326 . S
In208 O214 2.266 . S
In208 O215 2.326 . S
In208 O216 2.266 . S
In208 O217 2.326 . S
In208 O219 2.294 . S
In208 O220 2.326 . S
O209 In208 2.294 . S
O209 C218 1.240 . S
O210 In208 2.326 . S
O210 C218 1.252 . S
C211 O214 1.252 . S
C211 O215 1.260 . S
C212 O219 1.240 . S
C212 O220 1.252 . S
C213 O216 1.252 . S
C213 O217 1.260 . S
O214 In208 2.266 . S
O214 C211 1.252 . S
O215 In208 2.326 . S
O215 C211 1.260 . S
O216 In208 2.266 . S
O216 C213 1.252 . S
O217 In208 2.326 . S
O217 C213 1.260 . S
C218 O209 1.240 . S
C218 O210 1.252 . S
O219 In208 2.294 . S
O219 C212 1.240 . S
O220 In208 2.326 . S
O220 C212 1.252 . S
In221 O222 2.294 . S
In221 O223 2.326 . S
In221 O227 2.266 . S
In221 O228 2.326 . S
In221 O229 2.266 . S
In221 O230 2.326 . S
In221 O232 2.294 . S
In221 O233 2.326 . S
O222 In221 2.294 . S
O222 C231 1.240 . S
O223 In221 2.326 . S
O223 C231 1.252 . S
C224 O227 1.252 . S
C224 O228 1.260 . S
C225 O232 1.240 . S
C225 O233 1.252 . S
C226 O229 1.252 . S
C226 O230 1.260 . S
O227 In221 2.266 . S
O227 C224 1.252 . S
O228 In221 2.326 . S
O228 C224 1.260 . S
O229 In221 2.266 . S
O229 C226 1.252 . S
O230 In221 2.326 . S
O230 C226 1.260 . S
C231 O222 1.240 . S
C231 O223 1.252 . S
O232 In221 2.294 . S
O232 C225 1.240 . S
O233 In221 2.326 . S
O233 C225 1.252 . S
In234 O235 2.294 . S
In234 O236 2.326 . S
In234 O240 2.266 . S
In234 O241 2.326 . S
In234 O242 2.266 . S
In234 O243 2.326 . S
In234 O245 2.294 . S
In234 O246 2.326 . S
O235 In234 2.294 . S
O235 C244 1.240 . S
O236 In234 2.326 . S
O236 C244 1.252 . S
C237 O240 1.252 . S
C237 O241 1.260 . S
C238 O245 1.240 . S
C238 O246 1.252 . S
C239 O242 1.252 . S
C239 O243 1.260 . S
O240 In234 2.266 . S
O240 C237 1.252 . S
O241 In234 2.326 . S
O241 C237 1.260 . S
O242 In234 2.266 . S
O242 C239 1.252 . S
O243 In234 2.326 . S
O243 C239 1.260 . S
C244 O235 1.240 . S
C244 O236 1.252 . S
O245 In234 2.294 . S
O245 C238 1.240 . S
O246 In234 2.326 . S
O246 C238 1.252 . S
In247 O248 2.294 . S
In247 O249 2.326 . S
In247 O253 2.266 . S
In247 O254 2.326 . S
In247 O255 2.266 . S
In247 O256 2.326 . S
In247 O258 2.294 . S
In247 O259 2.326 . S
O248 In247 2.294 . S
O248 C257 1.240 . S
O249 In247 2.326 . S
O249 C257 1.252 . S
C250 O253 1.252 . S
C250 O254 1.260 . S
C251 O258 1.240 . S
C251 O259 1.252 . S
C252 O255 1.252 . S
C252 O256 1.260 . S
O253 In247 2.266 . S
O253 C250 1.252 . S
O254 In247 2.326 . S
O254 C250 1.260 . S
O255 In247 2.266 . S
O255 C252 1.252 . S
O256 In247 2.326 . S
O256 C252 1.260 . S
C257 O248 1.240 . S
C257 O249 1.252 . S
O258 In247 2.294 . S
O258 C251 1.240 . S
O259 In247 2.326 . S
O259 C251 1.252 . S
In260 O261 2.294 . S
In260 O262 2.326 . S
In260 O266 2.266 . S
In260 O267 2.326 . S
In260 O268 2.266 . S
In260 O269 2.326 . S
In260 O271 2.294 . S
In260 O272 2.326 . S
O261 In260 2.294 . S
O261 C270 1.240 . S
O262 In260 2.326 . S
O262 C270 1.252 . S
C263 O266 1.252 . S
C263 O267 1.260 . S
C264 O271 1.240 . S
C264 O272 1.252 . S
C265 O268 1.252 . S
C265 O269 1.260 . S
O266 In260 2.266 . S
O266 C263 1.252 . S
O267 In260 2.326 . S
O267 C263 1.260 . S
O268 In260 2.266 . S
O268 C265 1.252 . S
O269 In260 2.326 . S
O269 C265 1.260 . S
C270 O261 1.240 . S
C270 O262 1.252 . S
O271 In260 2.294 . S
O271 C264 1.240 . S
O272 In260 2.326 . S
O272 C264 1.252 . S
In273 O274 2.294 . S
In273 O275 2.326 . S
In273 O279 2.266 . S
In273 O280 2.326 . S
In273 O281 2.266 . S
In273 O282 2.326 . S
In273 O284 2.294 . S
In273 O285 2.326 . S
O274 In273 2.294 . S
O274 C283 1.240 . S
O275 In273 2.326 . S
O275 C283 1.252 . S
C276 O279 1.252 . S
C276 O280 1.260 . S
C277 O284 1.240 . S
C277 O285 1.252 . S
C278 O281 1.252 . S
C278 O282 1.260 . S
O279 In273 2.266 . S
O279 C276 1.252 . S
O280 In273 2.326 . S
O280 C276 1.260 . S
O281 In273 2.266 . S
O281 C278 1.252 . S
O282 In273 2.326 . S
O282 C278 1.260 . S
C283 O274 1.240 . S
C283 O275 1.252 . S
O284 In273 2.294 . S
O284 C277 1.240 . S
O285 In273 2.326 . S
O285 C277 1.252 . S
In286 O287 2.294 . S
In286 O288 2.326 . S
In286 O292 2.266 . S
In286 O293 2.326 . S
In286 O294 2.266 . S
In286 O295 2.326 . S
In286 O297 2.294 . S
In286 O298 2.326 . S
O287 In286 2.294 . S
O287 C296 1.240 . S
O288 In286 2.326 . S
O288 C296 1.252 . S
C289 O292 1.252 . S
C289 O293 1.260 . S
C290 O297 1.240 . S
C290 O298 1.252 . S
C291 O294 1.252 . S
C291 O295 1.260 . S
O292 In286 2.266 . S
O292 C289 1.252 . S
O293 In286 2.326 . S
O293 C289 1.260 . S
O294 In286 2.266 . S
O294 C291 1.252 . S
O295 In286 2.326 . S
O295 C291 1.260 . S
C296 O287 1.240 . S
C296 O288 1.252 . S
O297 In286 2.294 . S
O297 C290 1.240 . S
O298 In286 2.326 . S
O298 C290 1.252 . S
In299 O300 2.294 . S
In299 O301 2.326 . S
In299 O305 2.266 . S
In299 O306 2.326 . S
In299 O307 2.266 . S
In299 O308 2.326 . S
In299 O310 2.294 . S
In299 O311 2.326 . S
O300 In299 2.294 . S
O300 C309 1.240 . S
O301 In299 2.326 . S
O301 C309 1.252 . S
C302 O305 1.252 . S
C302 O306 1.260 . S
C303 O310 1.240 . S
C303 O311 1.252 . S
C304 O307 1.252 . S
C304 O308 1.260 . S
O305 In299 2.266 . S
O305 C302 1.252 . S
O306 In299 2.326 . S
O306 C302 1.260 . S
O307 In299 2.266 . S
O307 C304 1.252 . S
O308 In299 2.326 . S
O308 C304 1.260 . S
C309 O300 1.240 . S
C309 O301 1.252 . S
O310 In299 2.294 . S
O310 C303 1.240 . S
O311 In299 2.326 . S
O311 C303 1.252 . S
C312 C313 1.369 . S
C312 C314 1.419 . S
C312 H316 0.930 . S
C313 C312 1.369 . S
C313 C322 1.429 . S
C314 C312 1.419 . S
C314 C315 1.363 . S
C314 H317 0.929 . S
C315 C314 1.363 . S
C315 C321 1.428 . S
H316 C312 0.930 . S
H317 C314 0.929 . S
S318 N319 1.613 . S
S318 N320 1.610 . S
N319 S318 1.613 . S
N319 C322 1.350 . S
N320 S318 1.610 . S
N320 C321 1.351 . S
C321 C315 1.428 . S
C321 N320 1.351 . S
C321 C322 1.434 . S
C322 C313 1.429 . S
C322 N319 1.350 . S
C322 C321 1.434 . S
C323 C324 1.369 . S
C323 C325 1.419 1_655 S
C323 H327 0.930 . S
C324 C323 1.369 . S
C324 C333 1.429 . S
C325 C323 1.419 1_455 S
C325 C326 1.363 . S
C325 H328 0.929 . S
C326 C325 1.363 . S
C326 C332 1.428 . S
H327 C323 0.930 . S
H328 C325 0.929 . S
S329 N330 1.615 1_455 S
S329 N331 1.608 . S
N330 S329 1.615 1_655 S
N330 C333 1.350 . S
N331 S329 1.608 . S
N331 C332 1.351 . S
C332 C326 1.428 . S
C332 N331 1.351 . S
C332 C333 1.434 1_455 S
C333 C324 1.429 . S
C333 N330 1.350 . S
C333 C332 1.434 1_655 S
C334 C335 1.369 . S
C334 C336 1.419 . S
C334 H338 0.930 . S
C335 C334 1.369 . S
C335 C344 1.429 . S
C336 C334 1.419 . S
C336 C337 1.363 . S
C336 H339 0.929 . S
C337 C336 1.363 . S
C337 C343 1.428 . S
H338 C334 0.930 . S
H339 C336 0.929 . S
S340 N341 1.613 . S
S340 N342 1.610 . S
N341 S340 1.613 . S
N341 C344 1.350 . S
N342 S340 1.610 . S
N342 C343 1.351 . S
C343 C337 1.428 . S
C343 N342 1.351 . S
C343 C344 1.434 . S
C344 C335 1.429 . S
C344 N341 1.350 . S
C344 C343 1.434 . S
C345 C346 1.369 . S
C345 C347 1.419 1_455 S
C345 H349 0.930 . S
C346 C345 1.369 . S
C346 C355 1.429 . S
C347 C345 1.419 1_655 S
C347 C348 1.363 . S
C347 H350 0.929 . S
C348 C347 1.363 . S
C348 C354 1.428 . S
H349 C345 0.930 . S
H350 C347 0.929 . S
S351 N352 1.615 1_655 S
S351 N353 1.608 . S
N352 S351 1.615 1_455 S
N352 C355 1.350 . S
N353 S351 1.608 . S
N353 C354 1.351 . S
C354 C348 1.428 . S
C354 N353 1.351 . S
C354 C355 1.434 1_655 S
C355 C346 1.429 . S
C355 N352 1.350 . S
C355 C354 1.434 1_455 S
C356 C357 1.369 . S
C356 C358 1.419 . S
C356 H360 0.930 . S
C357 C356 1.369 . S
C357 C366 1.429 . S
C358 C356 1.419 . S
C358 C359 1.363 . S
C358 H361 0.929 . S
C359 C358 1.363 . S
C359 C365 1.428 . S
H360 C356 0.930 . S
H361 C358 0.929 . S
S362 N363 1.613 . S
S362 N364 1.610 . S
N363 S362 1.613 . S
N363 C366 1.350 . S
N364 S362 1.610 . S
N364 C365 1.351 . S
C365 C359 1.428 . S
C365 N364 1.351 . S
C365 C366 1.434 . S
C366 C357 1.429 . S
C366 N363 1.350 . S
C366 C365 1.434 . S
C367 C368 1.369 . S
C367 C369 1.419 1_655 S
C367 H371 0.930 . S
C368 C367 1.369 . S
C368 C377 1.429 . S
C369 C367 1.419 1_455 S
C369 C370 1.363 . S
C369 H372 0.929 . S
C370 C369 1.363 . S
C370 C376 1.428 . S
H371 C367 0.930 . S
H372 C369 0.929 . S
S373 N374 1.615 1_455 S
S373 N375 1.608 . S
N374 S373 1.615 1_655 S
N374 C377 1.350 . S
N375 S373 1.608 . S
N375 C376 1.351 . S
C376 C370 1.428 . S
C376 N375 1.351 . S
C376 C377 1.434 1_455 S
C377 C368 1.429 . S
C377 N374 1.350 . S
C377 C376 1.434 1_655 S
C378 C379 1.369 . S
C378 C380 1.419 . S
C378 H382 0.930 . S
C379 C378 1.369 . S
C379 C388 1.429 . S
C380 C378 1.419 . S
C380 C381 1.363 . S
C380 H383 0.929 . S
C381 C380 1.363 . S
C381 C387 1.428 . S
H382 C378 0.930 . S
H383 C380 0.929 . S
S384 N385 1.613 . S
S384 N386 1.610 . S
N385 S384 1.613 . S
N385 C388 1.350 . S
N386 S384 1.610 . S
N386 C387 1.351 . S
C387 C381 1.428 . S
C387 N386 1.351 . S
C387 C388 1.434 . S
C388 C379 1.429 . S
C388 N385 1.350 . S
C388 C387 1.434 . S
C389 C390 1.369 . S
C389 C391 1.419 1_655 S
C389 H393 0.930 . S
C390 C389 1.369 . S
C390 C399 1.429 . S
C391 C389 1.419 1_455 S
C391 C392 1.363 . S
C391 H394 0.929 . S
C392 C391 1.363 . S
C392 C398 1.428 . S
H393 C389 0.930 . S
H394 C391 0.929 . S
S395 N396 1.615 1_455 S
S395 N397 1.608 . S
N396 S395 1.615 1_655 S
N396 C399 1.350 . S
N397 S395 1.608 . S
N397 C398 1.351 . S
C398 C392 1.428 . S
C398 N397 1.351 . S
C398 C399 1.434 1_455 S
C399 C390 1.429 . S
C399 N396 1.350 . S
C399 C398 1.434 1_655 S
C400 C401 1.369 . S
C400 C402 1.419 . S
C400 H404 0.930 . S
C401 C400 1.369 . S
C401 C410 1.429 . S
C402 C400 1.419 . S
C402 C403 1.363 . S
C402 H405 0.929 . S
C403 C402 1.363 . S
C403 C409 1.428 . S
H404 C400 0.930 . S
H405 C402 0.929 . S
S406 N407 1.613 . S
S406 N408 1.610 . S
N407 S406 1.613 . S
N407 C410 1.350 . S
N408 S406 1.610 . S
N408 C409 1.351 . S
C409 C403 1.428 . S
C409 N408 1.351 . S
C409 C410 1.434 . S
C410 C401 1.429 . S
C410 N407 1.350 . S
C410 C409 1.434 . S
C411 C412 1.369 . S
C411 C413 1.419 1_556 S
C411 H415 0.930 . S
C412 C411 1.369 . S
C412 C421 1.429 . S
C413 C411 1.419 1_554 S
C413 C414 1.363 . S
C413 H416 0.929 . S
C414 C413 1.363 . S
C414 C420 1.428 . S
H415 C411 0.930 . S
H416 C413 0.929 . S
S417 N418 1.615 1_554 S
S417 N419 1.608 . S
N418 S417 1.615 1_556 S
N418 C421 1.350 . S
N419 S417 1.608 . S
N419 C420 1.351 . S
C420 C414 1.428 . S
C420 N419 1.351 . S
C420 C421 1.434 1_554 S
C421 C412 1.429 . S
C421 N418 1.350 . S
C421 C420 1.434 1_556 S
C422 C423 1.369 . S
C422 C424 1.419 . S
C422 H426 0.930 . S
C423 C422 1.369 . S
C423 C432 1.429 . S
C424 C422 1.419 . S
C424 C425 1.363 . S
C424 H427 0.929 . S
C425 C424 1.363 . S
C425 C431 1.428 . S
H426 C422 0.930 . S
H427 C424 0.929 . S
S428 N429 1.613 . S
S428 N430 1.610 . S
N429 S428 1.613 . S
N429 C432 1.350 . S
N430 S428 1.610 . S
N430 C431 1.351 . S
C431 C425 1.428 . S
C431 N430 1.351 . S
C431 C432 1.434 . S
C432 C423 1.429 . S
C432 N429 1.350 . S
C432 C431 1.434 . S
C433 C434 1.369 . S
C433 C435 1.419 1_554 S
C433 H437 0.930 . S
C434 C433 1.369 . S
C434 C443 1.429 . S
C435 C433 1.419 1_556 S
C435 C436 1.363 . S
C435 H438 0.929 . S
C436 C435 1.363 . S
C436 C442 1.428 . S
H437 C433 0.930 . S
H438 C435 0.929 . S
S439 N440 1.615 1_556 S
S439 N441 1.608 . S
N440 S439 1.615 1_554 S
N440 C443 1.350 . S
N441 S439 1.608 . S
N441 C442 1.351 . S
C442 C436 1.428 . S
C442 N441 1.351 . S
C442 C443 1.434 1_556 S
C443 C434 1.429 . S
C443 N440 1.350 . S
C443 C442 1.434 1_554 S
C444 C445 1.369 . S
C444 C446 1.419 . S
C444 H448 0.930 . S
C445 C444 1.369 . S
C445 C454 1.429 . S
C446 C444 1.419 . S
C446 C447 1.363 . S
C446 H449 0.929 . S
C447 C446 1.363 . S
C447 C453 1.428 . S
H448 C444 0.930 . S
H449 C446 0.929 . S
S450 N451 1.613 . S
S450 N452 1.610 . S
N451 S450 1.613 . S
N451 C454 1.350 . S
N452 S450 1.610 . S
N452 C453 1.351 . S
C453 C447 1.428 . S
C453 N452 1.351 . S
C453 C454 1.434 . S
C454 C445 1.429 . S
C454 N451 1.350 . S
C454 C453 1.434 . S
C455 C456 1.369 . S
C455 C457 1.419 1_554 S
C455 H459 0.930 . S
C456 C455 1.369 . S
C456 C465 1.429 . S
C457 C455 1.419 1_556 S
C457 C458 1.363 . S
C457 H460 0.929 . S
C458 C457 1.363 . S
C458 C464 1.428 . S
H459 C455 0.930 . S
H460 C457 0.929 . S
S461 N462 1.615 1_556 S
S461 N463 1.608 . S
N462 S461 1.615 1_554 S
N462 C465 1.350 . S
N463 S461 1.608 . S
N463 C464 1.351 . S
C464 C458 1.428 . S
C464 N463 1.351 . S
C464 C465 1.434 1_556 S
C465 C456 1.429 . S
C465 N462 1.350 . S
C465 C464 1.434 1_554 S
C466 C467 1.369 . S
C466 C468 1.419 . S
C466 H470 0.930 . S
C467 C466 1.369 . S
C467 C476 1.429 . S
C468 C466 1.419 . S
C468 C469 1.363 . S
C468 H471 0.929 . S
C469 C468 1.363 . S
C469 C475 1.428 . S
H470 C466 0.930 . S
H471 C468 0.929 . S
S472 N473 1.613 . S
S472 N474 1.610 . S
N473 S472 1.613 . S
N473 C476 1.350 . S
N474 S472 1.610 . S
N474 C475 1.351 . S
C475 C469 1.428 . S
C475 N474 1.351 . S
C475 C476 1.434 . S
C476 C467 1.429 . S
C476 N473 1.350 . S
C476 C475 1.434 . S
C477 C478 1.369 . S
C477 C479 1.419 1_554 S
C477 H481 0.930 . S
C478 C477 1.369 . S
C478 C487 1.429 . S
C479 C477 1.419 1_556 S
C479 C480 1.363 . S
C479 H482 0.929 . S
C480 C479 1.363 . S
C480 C486 1.428 . S
H481 C477 0.930 . S
H482 C479 0.929 . S
S483 N484 1.615 1_556 S
S483 N485 1.608 . S
N484 S483 1.615 1_554 S
N484 C487 1.350 . S
N485 S483 1.608 . S
N485 C486 1.351 . S
C486 C480 1.428 . S
C486 N485 1.351 . S
C486 C487 1.434 1_556 S
C487 C478 1.429 . S
C487 N484 1.350 . S
C487 C486 1.434 1_554 S
C488 C489 1.369 . S
C488 C490 1.419 . S
C488 H492 0.930 . S
C489 C488 1.369 . S
C489 C498 1.429 . S
C490 C488 1.419 . S
C490 C491 1.363 . S
C490 H493 0.929 . S
C491 C490 1.363 . S
C491 C497 1.428 . S
H492 C488 0.930 . S
H493 C490 0.929 . S
S494 N495 1.613 . S
S494 N496 1.610 . S
N495 S494 1.613 . S
N495 C498 1.350 . S
N496 S494 1.610 . S
N496 C497 1.351 . S
C497 C491 1.428 . S
C497 N496 1.351 . S
C497 C498 1.434 . S
C498 C489 1.429 . S
C498 N495 1.350 . S
C498 C497 1.434 . S
C499 C500 1.369 . S
C499 C501 1.419 . S
C499 H503 0.930 . S
C500 C499 1.369 . S
C500 C509 1.429 . S
C501 C499 1.419 . S
C501 C502 1.363 . S
C501 H504 0.929 . S
C502 C501 1.363 . S
C502 C508 1.428 . S
H503 C499 0.930 . S
H504 C501 0.929 . S
S505 N506 1.613 . S
S505 N507 1.610 . S
N506 S505 1.613 . S
N506 C509 1.350 . S
N507 S505 1.610 . S
N507 C508 1.351 . S
C508 C502 1.428 . S
C508 N507 1.351 . S
C508 C509 1.434 . S
C509 C500 1.429 . S
C509 N506 1.350 . S
C509 C508 1.434 . S
C510 C511 1.369 . S
C510 C512 1.419 1_565 S
C510 H514 0.930 . S
C511 C510 1.369 . S
C511 C520 1.429 . S
C512 C510 1.419 1_545 S
C512 C513 1.363 . S
C512 H515 0.929 . S
C513 C512 1.363 . S
C513 C519 1.428 . S
H514 C510 0.930 . S
H515 C512 0.929 . S
S516 N517 1.615 1_545 S
S516 N518 1.608 . S
N517 S516 1.615 1_565 S
N517 C520 1.350 . S
N518 S516 1.608 . S
N518 C519 1.351 . S
C519 C513 1.428 . S
C519 N518 1.351 . S
C519 C520 1.434 1_545 S
C520 C511 1.429 . S
C520 N517 1.350 . S
C520 C519 1.434 1_565 S
C521 C522 1.369 . S
C521 C523 1.419 . S
C521 H525 0.930 . S
C522 C521 1.369 . S
C522 C531 1.429 . S
C523 C521 1.419 . S
C523 C524 1.363 . S
C523 H526 0.929 . S
C524 C523 1.363 . S
C524 C530 1.428 . S
H525 C521 0.930 . S
H526 C523 0.929 . S
S527 N528 1.613 . S
S527 N529 1.610 . S
N528 S527 1.613 . S
N528 C531 1.350 . S
N529 S527 1.610 . S
N529 C530 1.351 . S
C530 C524 1.428 . S
C530 N529 1.351 . S
C530 C531 1.434 . S
C531 C522 1.429 . S
C531 N528 1.350 . S
C531 C530 1.434 . S
C532 C533 1.369 . S
C532 C534 1.419 1_565 S
C532 H536 0.930 . S
C533 C532 1.369 . S
C533 C542 1.429 . S
C534 C532 1.419 1_545 S
C534 C535 1.363 . S
C534 H537 0.929 . S
C535 C534 1.363 . S
C535 C541 1.428 . S
H536 C532 0.930 . S
H537 C534 0.929 . S
S538 N539 1.615 1_545 S
S538 N540 1.608 . S
N539 S538 1.615 1_565 S
N539 C542 1.350 . S
N540 S538 1.608 . S
N540 C541 1.351 . S
C541 C535 1.428 . S
C541 N540 1.351 . S
C541 C542 1.434 1_545 S
C542 C533 1.429 . S
C542 N539 1.350 . S
C542 C541 1.434 1_565 S
C543 C544 1.369 . S
C543 C545 1.419 . S
C543 H547 0.930 . S
C544 C543 1.369 . S
C544 C553 1.429 . S
C545 C543 1.419 . S
C545 C546 1.363 . S
C545 H548 0.929 . S
C546 C545 1.363 . S
C546 C552 1.428 . S
H547 C543 0.930 . S
H548 C545 0.929 . S
S549 N550 1.613 . S
S549 N551 1.610 . S
N550 S549 1.613 . S
N550 C553 1.350 . S
N551 S549 1.610 . S
N551 C552 1.351 . S
C552 C546 1.428 . S
C552 N551 1.351 . S
C552 C553 1.434 . S
C553 C544 1.429 . S
C553 N550 1.350 . S
C553 C552 1.434 . S
C554 C555 1.369 . S
C554 C556 1.419 1_565 S
C554 H558 0.930 . S
C555 C554 1.369 . S
C555 C564 1.429 . S
C556 C554 1.419 1_545 S
C556 C557 1.363 . S
C556 H559 0.929 . S
C557 C556 1.363 . S
C557 C563 1.428 . S
H558 C554 0.930 . S
H559 C556 0.929 . S
S560 N561 1.615 1_545 S
S560 N562 1.608 . S
N561 S560 1.615 1_565 S
N561 C564 1.350 . S
N562 S560 1.608 . S
N562 C563 1.351 . S
C563 C557 1.428 . S
C563 N562 1.351 . S
C563 C564 1.434 1_545 S
C564 C555 1.429 . S
C564 N561 1.350 . S
C564 C563 1.434 1_565 S
C565 C566 1.369 . S
C565 C567 1.419 1_545 S
C565 H569 0.930 . S
C566 C565 1.369 . S
C566 C575 1.429 . S
C567 C565 1.419 1_565 S
C567 C568 1.363 . S
C567 H570 0.929 . S
C568 C567 1.363 . S
C568 C574 1.428 . S
H569 C565 0.930 . S
H570 C567 0.929 . S
S571 N572 1.615 1_565 S
S571 N573 1.608 . S
N572 S571 1.615 1_545 S
N572 C575 1.350 . S
N573 S571 1.608 . S
N573 C574 1.351 . S
C574 C568 1.428 . S
C574 N573 1.351 . S
C574 C575 1.434 1_565 S
C575 C566 1.429 . S
C575 N572 1.350 . S
C575 C574 1.434 1_545 S
C576 C577 1.369 . S
C576 C578 1.419 . S
C576 H580 0.930 . S
C577 C576 1.369 . S
C577 C586 1.429 . S
C578 C576 1.419 . S
C578 C579 1.363 . S
C578 H581 0.929 . S
C579 C578 1.363 . S
C579 C585 1.428 . S
H580 C576 0.930 . S
H581 C578 0.929 . S
S582 N583 1.613 . S
S582 N584 1.610 . S
N583 S582 1.613 . S
N583 C586 1.350 . S
N584 S582 1.610 . S
N584 C585 1.351 . S
C585 C579 1.428 . S
C585 N584 1.351 . S
C585 C586 1.434 . S
C586 C577 1.429 . S
C586 N583 1.350 . S
C586 C585 1.434 . S
C587 C588 1.369 . S
C587 C589 1.419 . S
C587 H591 0.930 . S
C588 C587 1.369 . S
C588 C597 1.429 . S
C589 C587 1.419 . S
C589 C590 1.363 . S
C589 H592 0.929 . S
C590 C589 1.363 . S
C590 C596 1.428 . S
H591 C587 0.930 . S
H592 C589 0.929 . S
S593 N594 1.613 . S
S593 N595 1.610 . S
N594 S593 1.613 . S
N594 C597 1.350 . S
N595 S593 1.610 . S
N595 C596 1.351 . S
C596 C590 1.428 . S
C596 N595 1.351 . S
C596 C597 1.434 . S
C597 C588 1.429 . S
C597 N594 1.350 . S
C597 C596 1.434 . S
C598 C599 1.369 . S
C598 C600 1.419 . S
C598 H602 0.930 . S
C599 C598 1.369 . S
C599 C608 1.429 . S
C600 C598 1.419 . S
C600 C601 1.363 . S
C600 H603 0.929 . S
C601 C600 1.363 . S
C601 C607 1.428 . S
H602 C598 0.930 . S
H603 C600 0.929 . S
S604 N605 1.613 . S
S604 N606 1.610 . S
N605 S604 1.613 . S
N605 C608 1.350 . S
N606 S604 1.610 . S
N606 C607 1.351 . S
C607 C601 1.428 . S
C607 N606 1.351 . S
C607 C608 1.434 . S
C608 C599 1.429 . S
C608 N605 1.350 . S
C608 C607 1.434 . S
C609 C610 1.369 . S
C609 C611 1.419 . S
C609 H613 0.930 . S
C610 C609 1.369 . S
C610 C619 1.429 . S
C611 C609 1.419 . S
C611 C612 1.363 . S
C611 H614 0.929 . S
C612 C611 1.363 . S
C612 C618 1.428 . S
H613 C609 0.930 . S
H614 C611 0.929 . S
S615 N616 1.613 . S
S615 N617 1.610 . S
N616 S615 1.613 . S
N616 C619 1.350 . S
N617 S615 1.610 . S
N617 C618 1.351 . S
C618 C612 1.428 . S
C618 N617 1.351 . S
C618 C619 1.434 . S
C619 C610 1.429 . S
C619 N616 1.350 . S
C619 C618 1.434 . S
C620 C621 1.369 . S
C620 C622 1.419 . S
C620 H624 0.930 . S
C621 C620 1.369 . S
C621 C630 1.429 . S
C622 C620 1.419 . S
C622 C623 1.363 . S
C622 H625 0.929 . S
C623 C622 1.363 . S
C623 C629 1.428 . S
H624 C620 0.930 . S
H625 C622 0.929 . S
S626 N627 1.613 . S
S626 N628 1.610 . S
N627 S626 1.613 . S
N627 C630 1.350 . S
N628 S626 1.610 . S
N628 C629 1.351 . S
C629 C623 1.428 . S
C629 N628 1.351 . S
C629 C630 1.434 . S
C630 C621 1.429 . S
C630 N627 1.350 . S
C630 C629 1.434 . S
C631 C632 1.369 . S
C631 C633 1.419 . S
C631 H635 0.930 . S
C632 C631 1.369 . S
C632 C641 1.429 . S
C633 C631 1.419 . S
C633 C634 1.363 . S
C633 H636 0.929 . S
C634 C633 1.363 . S
C634 C640 1.428 . S
H635 C631 0.930 . S
H636 C633 0.929 . S
S637 N638 1.613 . S
S637 N639 1.610 . S
N638 S637 1.613 . S
N638 C641 1.350 . S
N639 S637 1.610 . S
N639 C640 1.351 . S
C640 C634 1.428 . S
C640 N639 1.351 . S
C640 C641 1.434 . S
C641 C632 1.429 . S
C641 N638 1.350 . S
C641 C640 1.434 . S
C642 C643 1.369 . S
C642 C644 1.419 . S
C642 H646 0.930 . S
C643 C642 1.369 . S
C643 C652 1.429 . S
C644 C642 1.419 . S
C644 C645 1.363 . S
C644 H647 0.929 . S
C645 C644 1.363 . S
C645 C651 1.428 . S
H646 C642 0.930 . S
H647 C644 0.929 . S
S648 N649 1.613 . S
S648 N650 1.610 . S
N649 S648 1.613 . S
N649 C652 1.350 . S
N650 S648 1.610 . S
N650 C651 1.351 . S
C651 C645 1.428 . S
C651 N650 1.351 . S
C651 C652 1.434 . S
C652 C643 1.429 . S
C652 N649 1.350 . S
C652 C651 1.434 . S
C653 C654 1.369 . S
C653 C655 1.419 . S
C653 H657 0.930 . S
C654 C653 1.369 . S
C654 C663 1.429 . S
C655 C653 1.419 . S
C655 C656 1.363 . S
C655 H658 0.929 . S
C656 C655 1.363 . S
C656 C662 1.428 . S
H657 C653 0.930 . S
H658 C655 0.929 . S
S659 N660 1.613 . S
S659 N661 1.610 . S
N660 S659 1.613 . S
N660 C663 1.350 . S
N661 S659 1.610 . S
N661 C662 1.351 . S
C662 C656 1.428 . S
C662 N661 1.351 . S
C662 C663 1.434 . S
C663 C654 1.429 . S
C663 N660 1.350 . S
C663 C662 1.434 . S
C664 C665 1.369 . S
C664 C666 1.419 . S
C664 H668 0.930 . S
C665 C664 1.369 . S
C665 C674 1.429 . S
C666 C664 1.419 . S
C666 C667 1.363 . S
C666 H669 0.929 . S
C667 C666 1.363 . S
C667 C673 1.428 . S
H668 C664 0.930 . S
H669 C666 0.929 . S
S670 N671 1.613 . S
S670 N672 1.610 . S
N671 S670 1.613 . S
N671 C674 1.350 . S
N672 S670 1.610 . S
N672 C673 1.351 . S
C673 C667 1.428 . S
C673 N672 1.351 . S
C673 C674 1.434 . S
C674 C665 1.429 . S
C674 N671 1.350 . S
C674 C673 1.434 . S
C675 C676 1.369 . S
C675 C677 1.419 . S
C675 H679 0.930 . S
C676 C675 1.369 . S
C676 C685 1.429 . S
C677 C675 1.419 . S
C677 C678 1.363 . S
C677 H680 0.929 . S
C678 C677 1.363 . S
C678 C684 1.428 . S
H679 C675 0.930 . S
H680 C677 0.929 . S
S681 N682 1.613 . S
S681 N683 1.610 . S
N682 S681 1.613 . S
N682 C685 1.350 . S
N683 S681 1.610 . S
N683 C684 1.351 . S
C684 C678 1.428 . S
C684 N683 1.351 . S
C684 C685 1.434 . S
C685 C676 1.429 . S
C685 N682 1.350 . S
C685 C684 1.434 . S
C686 C687 1.369 . S
C686 C688 1.419 . S
C686 H690 0.930 . S
C687 C686 1.369 . S
C687 C696 1.429 . S
C688 C686 1.419 . S
C688 C689 1.363 . S
C688 H691 0.929 . S
C689 C688 1.363 . S
C689 C695 1.428 . S
H690 C686 0.930 . S
H691 C688 0.929 . S
S692 N693 1.613 . S
S692 N694 1.610 . S
N693 S692 1.613 . S
N693 C696 1.350 . S
N694 S692 1.610 . S
N694 C695 1.351 . S
C695 C689 1.428 . S
C695 N694 1.351 . S
C695 C696 1.434 . S
C696 C687 1.429 . S
C696 N693 1.350 . S
C696 C695 1.434 . S
C697 C698 1.369 . S
C697 C699 1.419 . S
C697 H701 0.930 . S
C698 C697 1.369 . S
C698 C707 1.429 . S
C699 C697 1.419 . S
C699 C700 1.363 . S
C699 H702 0.929 . S
C700 C699 1.363 . S
C700 C706 1.428 . S
H701 C697 0.930 . S
H702 C699 0.929 . S
S703 N704 1.613 . S
S703 N705 1.610 . S
N704 S703 1.613 . S
N704 C707 1.350 . S
N705 S703 1.610 . S
N705 C706 1.351 . S
C706 C700 1.428 . S
C706 N705 1.351 . S
C706 C707 1.434 . S
C707 C698 1.429 . S
C707 N704 1.350 . S
C707 C706 1.434 . S
C708 C709 1.369 . S
C708 C710 1.419 . S
C708 H712 0.930 . S
C709 C708 1.369 . S
C709 C718 1.429 . S
C710 C708 1.419 . S
C710 C711 1.363 . S
C710 H713 0.929 . S
C711 C710 1.363 . S
C711 C717 1.428 . S
H712 C708 0.930 . S
H713 C710 0.929 . S
S714 N715 1.613 . S
S714 N716 1.610 . S
N715 S714 1.613 . S
N715 C718 1.350 . S
N716 S714 1.610 . S
N716 C717 1.351 . S
C717 C711 1.428 . S
C717 N716 1.351 . S
C717 C718 1.434 . S
C718 C709 1.429 . S
C718 N715 1.350 . S
C718 C717 1.434 . S
C719 C720 1.369 . S
C719 C721 1.419 . S
C719 H723 0.930 . S
C720 C719 1.369 . S
C720 C729 1.429 . S
C721 C719 1.419 . S
C721 C722 1.363 . S
C721 H724 0.929 . S
C722 C721 1.363 . S
C722 C728 1.428 . S
H723 C719 0.930 . S
H724 C721 0.929 . S
S725 N726 1.613 . S
S725 N727 1.610 . S
N726 S725 1.613 . S
N726 C729 1.350 . S
N727 S725 1.610 . S
N727 C728 1.351 . S
C728 C722 1.428 . S
C728 N727 1.351 . S
C728 C729 1.434 . S
C729 C720 1.429 . S
C729 N726 1.350 . S
C729 C728 1.434 . S
C730 C731 1.369 . S
C730 C732 1.419 . S
C730 H734 0.930 . S
C731 C730 1.369 . S
C731 C740 1.429 . S
C732 C730 1.419 . S
C732 C733 1.363 . S
C732 H735 0.929 . S
C733 C732 1.363 . S
C733 C739 1.428 . S
H734 C730 0.930 . S
H735 C732 0.929 . S
S736 N737 1.613 . S
S736 N738 1.610 . S
N737 S736 1.613 . S
N737 C740 1.350 . S
N738 S736 1.610 . S
N738 C739 1.351 . S
C739 C733 1.428 . S
C739 N738 1.351 . S
C739 C740 1.434 . S
C740 C731 1.429 . S
C740 N737 1.350 . S
C740 C739 1.434 . S
C741 C742 1.369 . S
C741 C743 1.419 . S
C741 H745 0.930 . S
C742 C741 1.369 . S
C742 C751 1.429 . S
C743 C741 1.419 . S
C743 C744 1.363 . S
C743 H746 0.929 . S
C744 C743 1.363 . S
C744 C750 1.428 . S
H745 C741 0.930 . S
H746 C743 0.929 . S
S747 N748 1.613 . S
S747 N749 1.610 . S
N748 S747 1.613 . S
N748 C751 1.350 . S
N749 S747 1.610 . S
N749 C750 1.351 . S
C750 C744 1.428 . S
C750 N749 1.351 . S
C750 C751 1.434 . S
C751 C742 1.429 . S
C751 N748 1.350 . S
C751 C750 1.434 . S
C752 C753 1.369 . S
C752 C754 1.419 . S
C752 H756 0.930 . S
C753 C752 1.369 . S
C753 C762 1.429 . S
C754 C752 1.419 . S
C754 C755 1.363 . S
C754 H757 0.929 . S
C755 C754 1.363 . S
C755 C761 1.428 . S
H756 C752 0.930 . S
H757 C754 0.929 . S
S758 N759 1.613 . S
S758 N760 1.610 . S
N759 S758 1.613 . S
N759 C762 1.350 . S
N760 S758 1.610 . S
N760 C761 1.351 . S
C761 C755 1.428 . S
C761 N760 1.351 . S
C761 C762 1.434 . S
C762 C753 1.429 . S
C762 N759 1.350 . S
C762 C761 1.434 . S
C763 C764 1.369 . S
C763 C765 1.419 . S
C763 H767 0.930 . S
C764 C763 1.369 . S
C764 C773 1.429 . S
C765 C763 1.419 . S
C765 C766 1.363 . S
C765 H768 0.929 . S
C766 C765 1.363 . S
C766 C772 1.428 . S
H767 C763 0.930 . S
H768 C765 0.929 . S
S769 N770 1.613 . S
S769 N771 1.610 . S
N770 S769 1.613 . S
N770 C773 1.350 . S
N771 S769 1.610 . S
N771 C772 1.351 . S
C772 C766 1.428 . S
C772 N771 1.351 . S
C772 C773 1.434 . S
C773 C764 1.429 . S
C773 N770 1.350 . S
C773 C772 1.434 . S
C774 C775 1.369 . S
C774 C776 1.419 . S
C774 H778 0.930 . S
C775 C774 1.369 . S
C775 C784 1.429 . S
C776 C774 1.419 . S
C776 C777 1.363 . S
C776 H779 0.929 . S
C777 C776 1.363 . S
C777 C783 1.428 . S
H778 C774 0.930 . S
H779 C776 0.929 . S
S780 N781 1.613 . S
S780 N782 1.610 . S
N781 S780 1.613 . S
N781 C784 1.350 . S
N782 S780 1.610 . S
N782 C783 1.351 . S
C783 C777 1.428 . S
C783 N782 1.351 . S
C783 C784 1.434 . S
C784 C775 1.429 . S
C784 N781 1.350 . S
C784 C783 1.434 . S
C785 C786 1.369 . S
C785 C787 1.419 . S
C785 H789 0.930 . S
C786 C785 1.369 . S
C786 C795 1.429 . S
C787 C785 1.419 . S
C787 C788 1.363 . S
C787 H790 0.929 . S
C788 C787 1.363 . S
C788 C794 1.428 . S
H789 C785 0.930 . S
H790 C787 0.929 . S
S791 N792 1.613 . S
S791 N793 1.610 . S
N792 S791 1.613 . S
N792 C795 1.350 . S
N793 S791 1.610 . S
N793 C794 1.351 . S
C794 C788 1.428 . S
C794 N793 1.351 . S
C794 C795 1.434 . S
C795 C786 1.429 . S
C795 N792 1.350 . S
C795 C794 1.434 . S
C796 C797 1.369 . S
C796 C798 1.419 . S
C796 H800 0.930 . S
C797 C796 1.369 . S
C797 C806 1.429 . S
C798 C796 1.419 . S
C798 C799 1.363 . S
C798 H801 0.929 . S
C799 C798 1.363 . S
C799 C805 1.428 . S
H800 C796 0.930 . S
H801 C798 0.929 . S
S802 N803 1.613 . S
S802 N804 1.610 . S
N803 S802 1.613 . S
N803 C806 1.350 . S
N804 S802 1.610 . S
N804 C805 1.351 . S
C805 C799 1.428 . S
C805 N804 1.351 . S
C805 C806 1.434 . S
C806 C797 1.429 . S
C806 N803 1.350 . S
C806 C805 1.434 . S
C807 C808 1.369 . S
C807 C809 1.419 . S
C807 H811 0.930 . S
C808 C807 1.369 . S
C808 C817 1.429 . S
C809 C807 1.419 . S
C809 C810 1.363 . S
C809 H812 0.929 . S
C810 C809 1.363 . S
C810 C816 1.428 . S
H811 C807 0.930 . S
H812 C809 0.929 . S
S813 N814 1.613 . S
S813 N815 1.610 . S
N814 S813 1.613 . S
N814 C817 1.350 . S
N815 S813 1.610 . S
N815 C816 1.351 . S
C816 C810 1.428 . S
C816 N815 1.351 . S
C816 C817 1.434 . S
C817 C808 1.429 . S
C817 N814 1.350 . S
C817 C816 1.434 . S
C818 C819 1.369 . S
C818 C820 1.419 . S
C818 H822 0.930 . S
C819 C818 1.369 . S
C819 C828 1.429 . S
C820 C818 1.419 . S
C820 C821 1.363 . S
C820 H823 0.929 . S
C821 C820 1.363 . S
C821 C827 1.428 . S
H822 C818 0.930 . S
H823 C820 0.929 . S
S824 N825 1.613 . S
S824 N826 1.610 . S
N825 S824 1.613 . S
N825 C828 1.350 . S
N826 S824 1.610 . S
N826 C827 1.351 . S
C827 C821 1.428 . S
C827 N826 1.351 . S
C827 C828 1.434 . S
C828 C819 1.429 . S
C828 N825 1.350 . S
C828 C827 1.434 . S
C829 C830 1.369 . S
C829 C831 1.419 . S
C829 H833 0.930 . S
C830 C829 1.369 . S
C830 C839 1.429 . S
C831 C829 1.419 . S
C831 C832 1.363 . S
C831 H834 0.929 . S
C832 C831 1.363 . S
C832 C838 1.428 . S
H833 C829 0.930 . S
H834 C831 0.929 . S
S835 N836 1.613 . S
S835 N837 1.610 . S
N836 S835 1.613 . S
N836 C839 1.350 . S
N837 S835 1.610 . S
N837 C838 1.351 . S
C838 C832 1.428 . S
C838 N837 1.351 . S
C838 C839 1.434 . S
C839 C830 1.429 . S
C839 N836 1.350 . S
C839 C838 1.434 . S
C313 C205 1.436 . S
C315 C10 1.436 . S
C324 C166 1.435 . S
C326 C17 1.435 . S
C335 C179 1.436 . S
C337 C36 1.436 . S
C346 C192 1.436 . S
C348 C43 1.436 . S
C357 C186 1.435 . S
C359 C23 1.435 . S
C368 C30 1.436 . S
C370 C199 1.436 . S
C379 C160 1.435 . S
C381 C49 1.435 . S
C390 C173 1.436 . S
C392 C4 1.436 . S
C401 C244 1.436 . S
C403 C56 1.436 . S
C412 C69 1.435 . S
C414 C251 1.435 . S
C423 C88 1.435 . S
C425 C212 1.435 . S
C434 C231 1.436 . S
C436 C101 1.436 . S
C445 C290 1.436 . S
C447 C114 1.436 . S
C456 C127 1.435 . S
C458 C309 1.435 . S
C467 C140 1.435 . S
C469 C264 1.435 . S
C478 C147 1.436 . S
C480 C283 1.436 . S
C489 C225 1.435 . S
C491 C153 1.435 . S
C500 C303 1.435 . S
C502 C75 1.435 . S
C511 C82 1.435 . S
C513 C270 1.435 . S
C522 C277 1.435 . S
C524 C95 1.435 . S
C533 C296 1.435 . S
C535 C62 1.435 . S
C544 C121 1.436 . S
C546 C257 1.436 . S
C555 C218 1.435 . S
C557 C134 1.435 . S
C566 C238 1.435 . S
C568 C108 1.435 . S
C577 C3 1.238 . S
C579 C55 1.235 . S
C588 C68 1.235 . S
C590 C18 1.232 . S
C599 C29 1.238 . S
C601 C83 1.237 . S
C610 C44 1.238 . S
C612 C96 1.235 . S
C621 C109 1.232 . S
C623 C16 1.233 . S
C632 C122 1.237 . S
C634 C31 1.233 . S
C643 C135 1.231 . S
C645 C42 1.235 . S
C654 C5 1.231 . S
C656 C146 1.235 . S
C665 C148 1.236 . S
C667 C57 1.233 . S
C676 C70 1.237 . S
C678 C107 1.237 . S
C687 C81 1.233 . S
C689 C120 1.237 . S
C698 C133 1.233 . S
C700 C94 1.232 . S
C709 C211 1.235 . S
C711 C161 1.238 . S
C720 C226 1.236 . S
C722 C174 1.237 . S
C731 C187 1.238 . S
C733 C239 1.235 . S
C742 C200 1.233 . S
C744 C250 1.232 . S
C753 C172 1.235 . S
C755 C263 1.238 . S
C764 C185 1.232 . S
C766 C278 1.233 . S
C775 C289 1.236 . S
C777 C198 1.232 . S
C786 C159 1.236 . S
C788 C304 1.232 . S
C797 C213 1.235 . S
C799 C302 1.238 . S
C808 C265 1.238 . S
C810 C224 1.237 . S
C819 C237 1.238 . S
C821 C276 1.236 . S
C830 C291 1.232 . S
C832 C252 1.233 . S
