# Generated by pormake.
# Topology ukn, (4)-cn, num edge types: 1
# Building blocks:
#     Node 0, Type 0, BuildingBlock: QUQFOY_clean_sbu_1, # of connection points: 4
#     Node 1, Type 0, BuildingBlock: QUQFOY_clean_sbu_1, # of connection points: 4
#     Node 2, Type 0, BuildingBlock: QUQFOY_clean_sbu_1, # of connection points: 4
#     Node 3, Type 0, BuildingBlock: QUQFOY_clean_sbu_1, # of connection points: 4
#     Node 4, Type 0, BuildingBlock: QUQFOY_clean_sbu_1, # of connection points: 4
#     Node 5, Type 0, BuildingBlock: QUQFOY_clean_sbu_1, # of connection points: 4
#     Node 6, Type 0, BuildingBlock: QUQFOY_clean_sbu_1, # of connection points: 4
#     Node 7, Type 0, BuildingBlock: QUQFOY_clean_sbu_1, # of connection points: 4
#     Node 8, Type 0, BuildingBlock: QUQFOY_clean_sbu_1, # of connection points: 4
#     Node 9, Type 0, BuildingBlock: QUQFOY_clean_sbu_1, # of connection points: 4
#     Node 10, Type 0, BuildingBlock: QUQFOY_clean_sbu_1, # of connection points: 4
#     Node 11, Type 0, BuildingBlock: QUQFOY_clean_sbu_1, # of connection points: 4
#     Node 12, Type 0, BuildingBlock: QUQFOY_clean_sbu_1, # of connection points: 4
#     Node 13, Type 0, BuildingBlock: QUQFOY_clean_sbu_1, # of connection points: 4
#     Node 14, Type 0, BuildingBlock: QUQFOY_clean_sbu_1, # of connection points: 4
#     Node 15, Type 0, BuildingBlock: QUQFOY_clean_sbu_1, # of connection points: 4
#     Node 16, Type 0, BuildingBlock: QUQFOY_clean_sbu_1, # of connection points: 4
#     Node 17, Type 0, BuildingBlock: QUQFOY_clean_sbu_1, # of connection points: 4
#     Node 18, Type 0, BuildingBlock: QUQFOY_clean_sbu_1, # of connection points: 4
#     Node 19, Type 0, BuildingBlock: QUQFOY_clean_sbu_1, # of connection points: 4
#     Node 20, Type 0, BuildingBlock: QUQFOY_clean_sbu_1, # of connection points: 4
#     Node 21, Type 0, BuildingBlock: QUQFOY_clean_sbu_1, # of connection points: 4
#     Node 22, Type 0, BuildingBlock: QUQFOY_clean_sbu_1, # of connection points: 4
#     Node 23, Type 0, BuildingBlock: QUQFOY_clean_sbu_1, # of connection points: 4
#     Node 24, Type 0, BuildingBlock: QUQFOY_clean_sbu_1, # of connection points: 4
#     Node 25, Type 0, BuildingBlock: QUQFOY_clean_sbu_1, # of connection points: 4
#     Node 26, Type 0, BuildingBlock: QUQFOY_clean_sbu_1, # of connection points: 4
#     Node 27, Type 0, BuildingBlock: QUQFOY_clean_sbu_1, # of connection points: 4
#     Node 28, Type 0, BuildingBlock: QUQFOY_clean_sbu_1, # of connection points: 4
#     Node 29, Type 0, BuildingBlock: QUQFOY_clean_sbu_1, # of connection points: 4
#     Node 30, Type 0, BuildingBlock: QUQFOY_clean_sbu_1, # of connection points: 4
#     Node 31, Type 0, BuildingBlock: QUQFOY_clean_sbu_1, # of connection points: 4
#     Node 32, Type 0, BuildingBlock: QUQFOY_clean_sbu_1, # of connection points: 4
#     Node 33, Type 0, BuildingBlock: QUQFOY_clean_sbu_1, # of connection points: 4
#     Node 34, Type 0, BuildingBlock: QUQFOY_clean_sbu_1, # of connection points: 4
#     Node 35, Type 0, BuildingBlock: QUQFOY_clean_sbu_1, # of connection points: 4
#     Edge 36, Type (0, 0), BuildingBlock: TEMPAE_clean_linker_10, # of connection points: 2
#     Edge 37, Type (0, 0), BuildingBlock: TEMPAE_clean_linker_10, # of connection points: 2
#     Edge 38, Type (0, 0), BuildingBlock: TEMPAE_clean_linker_10, # of connection points: 2
#     Edge 39, Type (0, 0), BuildingBlock: TEMPAE_clean_linker_10, # of connection points: 2
#     Edge 40, Type (0, 0), BuildingBlock: TEMPAE_clean_linker_10, # of connection points: 2
#     Edge 41, Type (0, 0), BuildingBlock: TEMPAE_clean_linker_10, # of connection points: 2
#     Edge 42, Type (0, 0), BuildingBlock: TEMPAE_clean_linker_10, # of connection points: 2
#     Edge 43, Type (0, 0), BuildingBlock: TEMPAE_clean_linker_10, # of connection points: 2
#     Edge 44, Type (0, 0), BuildingBlock: TEMPAE_clean_linker_10, # of connection points: 2
#     Edge 45, Type (0, 0), BuildingBlock: TEMPAE_clean_linker_10, # of connection points: 2
#     Edge 46, Type (0, 0), BuildingBlock: TEMPAE_clean_linker_10, # of connection points: 2
#     Edge 47, Type (0, 0), BuildingBlock: TEMPAE_clean_linker_10, # of connection points: 2
#     Edge 48, Type (0, 0), BuildingBlock: TEMPAE_clean_linker_10, # of connection points: 2
#     Edge 49, Type (0, 0), BuildingBlock: TEMPAE_clean_linker_10, # of connection points: 2
#     Edge 50, Type (0, 0), BuildingBlock: TEMPAE_clean_linker_10, # of connection points: 2
#     Edge 51, Type (0, 0), BuildingBlock: TEMPAE_clean_linker_10, # of connection points: 2
#     Edge 52, Type (0, 0), BuildingBlock: TEMPAE_clean_linker_10, # of connection points: 2
#     Edge 53, Type (0, 0), BuildingBlock: TEMPAE_clean_linker_10, # of connection points: 2
#     Edge 54, Type (0, 0), BuildingBlock: TEMPAE_clean_linker_10, # of connection points: 2
#     Edge 55, Type (0, 0), BuildingBlock: TEMPAE_clean_linker_10, # of connection points: 2
#     Edge 56, Type (0, 0), BuildingBlock: TEMPAE_clean_linker_10, # of connection points: 2
#     Edge 57, Type (0, 0), BuildingBlock: TEMPAE_clean_linker_10, # of connection points: 2
#     Edge 58, Type (0, 0), BuildingBlock: TEMPAE_clean_linker_10, # of connection points: 2
#     Edge 59, Type (0, 0), BuildingBlock: TEMPAE_clean_linker_10, # of connection points: 2
#     Edge 60, Type (0, 0), BuildingBlock: TEMPAE_clean_linker_10, # of connection points: 2
#     Edge 61, Type (0, 0), BuildingBlock: TEMPAE_clean_linker_10, # of connection points: 2
#     Edge 62, Type (0, 0), BuildingBlock: TEMPAE_clean_linker_10, # of connection points: 2
#     Edge 63, Type (0, 0), BuildingBlock: TEMPAE_clean_linker_10, # of connection points: 2
#     Edge 64, Type (0, 0), BuildingBlock: TEMPAE_clean_linker_10, # of connection points: 2
#     Edge 65, Type (0, 0), BuildingBlock: TEMPAE_clean_linker_10, # of connection points: 2
#     Edge 66, Type (0, 0), BuildingBlock: TEMPAE_clean_linker_10, # of connection points: 2
#     Edge 67, Type (0, 0), BuildingBlock: TEMPAE_clean_linker_10, # of connection points: 2
#     Edge 68, Type (0, 0), BuildingBlock: TEMPAE_clean_linker_10, # of connection points: 2
#     Edge 69, Type (0, 0), BuildingBlock: TEMPAE_clean_linker_10, # of connection points: 2
#     Edge 70, Type (0, 0), BuildingBlock: TEMPAE_clean_linker_10, # of connection points: 2
#     Edge 71, Type (0, 0), BuildingBlock: TEMPAE_clean_linker_10, # of connection points: 2
#     Edge 72, Type (0, 0), BuildingBlock: TEMPAE_clean_linker_10, # of connection points: 2
#     Edge 73, Type (0, 0), BuildingBlock: TEMPAE_clean_linker_10, # of connection points: 2
#     Edge 74, Type (0, 0), BuildingBlock: TEMPAE_clean_linker_10, # of connection points: 2
#     Edge 75, Type (0, 0), BuildingBlock: TEMPAE_clean_linker_10, # of connection points: 2
#     Edge 76, Type (0, 0), BuildingBlock: TEMPAE_clean_linker_10, # of connection points: 2
#     Edge 77, Type (0, 0), BuildingBlock: TEMPAE_clean_linker_10, # of connection points: 2
#     Edge 78, Type (0, 0), BuildingBlock: TEMPAE_clean_linker_10, # of connection points: 2
#     Edge 79, Type (0, 0), BuildingBlock: TEMPAE_clean_linker_10, # of connection points: 2
#     Edge 80, Type (0, 0), BuildingBlock: TEMPAE_clean_linker_10, # of connection points: 2
#     Edge 81, Type (0, 0), BuildingBlock: TEMPAE_clean_linker_10, # of connection points: 2
#     Edge 82, Type (0, 0), BuildingBlock: TEMPAE_clean_linker_10, # of connection points: 2
#     Edge 83, Type (0, 0), BuildingBlock: TEMPAE_clean_linker_10, # of connection points: 2
#     Edge 84, Type (0, 0), BuildingBlock: TEMPAE_clean_linker_10, # of connection points: 2
#     Edge 85, Type (0, 0), BuildingBlock: TEMPAE_clean_linker_10, # of connection points: 2
#     Edge 86, Type (0, 0), BuildingBlock: TEMPAE_clean_linker_10, # of connection points: 2
#     Edge 87, Type (0, 0), BuildingBlock: TEMPAE_clean_linker_10, # of connection points: 2
#     Edge 88, Type (0, 0), BuildingBlock: TEMPAE_clean_linker_10, # of connection points: 2
#     Edge 89, Type (0, 0), BuildingBlock: TEMPAE_clean_linker_10, # of connection points: 2
#     Edge 90, Type (0, 0), BuildingBlock: TEMPAE_clean_linker_10, # of connection points: 2
#     Edge 91, Type (0, 0), BuildingBlock: TEMPAE_clean_linker_10, # of connection points: 2
#     Edge 92, Type (0, 0), BuildingBlock: TEMPAE_clean_linker_10, # of connection points: 2
#     Edge 93, Type (0, 0), BuildingBlock: TEMPAE_clean_linker_10, # of connection points: 2
#     Edge 94, Type (0, 0), BuildingBlock: TEMPAE_clean_linker_10, # of connection points: 2
#     Edge 95, Type (0, 0), BuildingBlock: TEMPAE_clean_linker_10, # of connection points: 2
#     Edge 96, Type (0, 0), BuildingBlock: TEMPAE_clean_linker_10, # of connection points: 2
#     Edge 97, Type (0, 0), BuildingBlock: TEMPAE_clean_linker_10, # of connection points: 2
#     Edge 98, Type (0, 0), BuildingBlock: TEMPAE_clean_linker_10, # of connection points: 2
#     Edge 99, Type (0, 0), BuildingBlock: TEMPAE_clean_linker_10, # of connection points: 2
#     Edge 100, Type (0, 0), BuildingBlock: TEMPAE_clean_linker_10, # of connection points: 2
#     Edge 101, Type (0, 0), BuildingBlock: TEMPAE_clean_linker_10, # of connection points: 2
#     Edge 102, Type (0, 0), BuildingBlock: TEMPAE_clean_linker_10, # of connection points: 2
#     Edge 103, Type (0, 0), BuildingBlock: TEMPAE_clean_linker_10, # of connection points: 2
#     Edge 104, Type (0, 0), BuildingBlock: TEMPAE_clean_linker_10, # of connection points: 2
#     Edge 105, Type (0, 0), BuildingBlock: TEMPAE_clean_linker_10, # of connection points: 2
#     Edge 106, Type (0, 0), BuildingBlock: TEMPAE_clean_linker_10, # of connection points: 2
#     Edge 107, Type (0, 0), BuildingBlock: TEMPAE_clean_linker_10, # of connection points: 2
# Relax obj value: 0.012
# Max RMSD: 0.058
# Mean RMSD: 0.058
data_MOF--net-ukn--node1-QUQFOY_clean_sbu_1--edge1-TEMPAE_clean_linker_10
_symmetry_space_group_name_H-M    P1
_symmetry_Int_Tables_number       1
_symmetry_cell_setting            triclinic
loop_
_symmetry_equiv_pos_as_xyz
'x, y, z'
_cell_length_a     110.92335
_cell_length_b     111.0061
_cell_length_c     28.803603
_cell_angle_alpha  90.008298
_cell_angle_beta   90.004484
_cell_angle_gamma 119.99781
loop_
_atom_site_label
_atom_site_type_symbol
_atom_site_fract_x
_atom_site_fract_y
_atom_site_fract_z
_atom_type_partial_charge
O0 O 0.10125 0.30098 0.11472 0.0
Cd1 Cd 0.08812 0.3091 0.10588 0.0
Cd2 Cd 0.07398 0.28389 0.05955 0.0
O3 O 0.08811 0.27946 0.0894 0.0
O4 O 0.09653 0.32527 0.1497 0.0
O5 O 0.07562 0.30711 0.16029 0.0
C6 C 0.08567 0.31877 0.17563 0.0
C7 C 0.05017 0.26803 0.0551 0.0
C8 C 0.09927 0.28879 0.10815 0.0
C9 C 0.08551 0.31 1.00257 0.0
O10 O 0.08126 0.29707 1.00395 0.0
O11 O 0.08753 0.3169 0.04001 0.0
O12 O 0.05908 0.26632 0.03152 0.0
O13 O 0.05489 0.27837 0.08378 0.0
O14 O 0.69512 0.80095 0.08746 0.0
Cd15 Cd 0.68724 0.77978 0.08631 0.0
Cd16 Cd 0.71312 0.7888 0.04726 0.0
O17 O 0.71718 0.808 0.07244 0.0
O18 O 0.67155 0.77239 0.13186 0.0
O19 O 0.69036 0.77067 0.14226 0.0
C20 C 0.67861 0.76875 0.15804 0.0
C21 C 0.72995 0.78203 0.04749 0.0
C22 C 0.70767 0.81068 0.08355 0.0
C23 C 0.68726 0.77309 0.98693 0.0
O24 O 0.70039 0.78077 0.98994 0.0
O25 O 0.67961 0.77029 0.02277 0.0
O26 O 0.73114 0.79201 0.0215 0.0
O27 O 0.71964 0.77652 0.07625 0.0
O28 O 0.19877 0.89806 0.12037 0.0
Cd29 Cd 0.22016 0.90957 0.11591 0.0
Cd30 Cd 0.21219 0.92638 0.06151 0.0
O31 O 0.19241 0.91104 0.08072 0.0
O32 O 0.22609 0.90031 0.1629 0.0
O33 O 0.23079 0.92203 0.17011 0.0
C34 C 0.23124 0.91152 0.18739 0.0
C35 C 0.21789 0.9496 0.05438 0.0
C36 C 0.18933 0.90022 0.10447 0.0
C37 C 0.22868 0.91446 0.01535 0.0
O38 O 0.22244 0.92139 0.01282 0.0
O39 O 0.22922 0.90888 0.05334 0.0
O40 O 0.20918 0.94016 0.02666 0.0
O41 O 0.22271 0.9457 0.08847 0.0
O42 O 0.30336 0.1038 0.91699 0.0
Cd43 Cd 0.31136 0.09064 0.91522 0.0
Cd44 Cd 0.2857 0.07346 0.95786 0.0
O45 O 0.28155 0.0888 0.93544 0.0
O46 O 0.32673 0.09935 0.86876 0.0
O47 O 0.30815 0.07863 0.85861 0.0
C48 C 0.31973 0.08864 0.84255 0.0
C49 C 0.26821 0.05011 0.96043 0.0
C50 C 0.29089 0.10097 0.92352 0.0
C51 C 0.31257 0.0836 0.01332 0.0
O52 O 0.29939 0.07792 0.01235 0.0
O53 O 0.31977 0.08881 0.97683 0.0
O54 O 0.26798 0.05927 0.98725 0.0
O55 O 0.27793 0.05439 0.9295 0.0
O56 O 0.89792 0.19958 0.90323 0.0
Cd57 Cd 0.91094 0.22089 0.9113 0.0
Cd58 Cd 0.92484 0.2099 0.9605 0.0
O59 O 0.91093 0.19129 0.93059 0.0
O60 O 0.90239 0.22834 0.86675 0.0
O61 O 0.92341 0.23133 0.85671 0.0
C62 C 0.91328 0.23275 0.84099 0.0
C63 C 0.94859 0.21772 0.96739 0.0
C64 C 0.89987 0.1894 0.9109 0.0
C65 C 0.91301 0.22472 0.01455 0.0
O66 O 0.91712 0.21592 0.01453 0.0
O67 O 0.91133 0.22957 0.97649 0.0
O68 O 0.93946 0.20722 0.99088 0.0
O69 O 0.94415 0.2233 0.93753 0.0
O70 O 0.801 0.70001 0.89922 0.0
Cd71 Cd 0.77946 0.69069 0.90388 0.0
Cd72 Cd 0.78871 0.7154 0.95482 0.0
O73 O 0.80793 0.7209 0.92821 0.0
O74 O 0.77318 0.67507 0.85811 0.0
O75 O 0.76911 0.69242 0.84839 0.0
C76 C 0.76839 0.68121 0.83231 0.0
C77 C 0.78087 0.73131 0.96281 0.0
C78 C 0.81067 0.71227 0.90892 0.0
C79 C 0.7741 0.68811 1.00636 0.0
O80 O 0.78217 0.70118 1.00751 0.0
O81 O 0.77024 0.68169 0.9677 0.0
O82 O 0.79103 0.73228 0.98733 0.0
O83 O 0.77562 0.72169 0.93149 0.0
O84 O 0.89562 0.6963 0.93322 0.0
Cd85 Cd 0.90952 0.68918 0.93542 0.0
Cd86 Cd 0.92569 0.71516 0.97097 0.0
O87 O 0.91045 0.71868 0.94298 0.0
O88 O 0.90185 0.67334 0.89061 0.0
O89 O 0.92196 0.69266 0.87989 0.0
C90 C 0.91248 0.68069 0.8644 0.0
C91 C 0.94934 0.73174 0.9692 0.0
C92 C 0.89825 0.70882 0.93387 0.0
C93 C 0.91621 0.69023 0.03476 0.0
O94 O 0.92106 0.70323 0.03034 0.0
O95 O 0.91184 0.68225 0.99954 0.0
O96 O 0.94068 0.73348 0.99409 0.0
O97 O 0.94437 0.72102 0.94214 0.0
O98 O 0.29778 0.19703 0.90917 0.0
Cd99 Cd 0.30787 0.2184 0.91556 0.0
Cd100 Cd 0.28243 0.21032 0.9648 0.0
O101 O 0.27759 0.19065 0.94324 0.0
O102 O 0.32355 0.22468 0.87009 0.0
O103 O 0.30651 0.22929 0.86123 0.0
C104 C 0.31763 0.22984 0.8449 0.0
C105 C 0.26564 0.21711 0.9693 0.0
C106 C 0.2857 0.18761 0.92162 0.0
C107 C 0.30986 0.22543 0.01744 0.0
O108 O 0.29666 0.2191 0.01725 0.0
O109 O 0.31666 0.2268 0.98022 0.0
O110 O 0.26529 0.20768 0.99622 0.0
O111 O 0.27504 0.22205 0.93722 0.0
O112 O 0.79756 0.10378 0.91312 0.0
Cd113 Cd 0.77669 0.08866 0.91442 0.0
Cd114 Cd 0.78857 0.07534 0.9527 0.0
O115 O 0.80635 0.08992 0.91917 0.0
O116 O 0.76801 0.09589 0.86985 0.0
O117 O 0.76846 0.07645 0.85782 0.0
C118 C 0.7654 0.08559 0.84288 0.0
C119 C 0.78163 0.05178 0.9564 0.0
C120 C 0.80795 0.10189 0.91137 0.0
C121 C 0.77256 0.08407 0.01449 0.0
O122 O 0.78272 0.08188 0.01107 0.0
O123 O 0.7667 0.0852 0.97807 0.0
O124 O 0.79253 0.06099 0.9781 0.0
O125 O 0.77519 0.05608 0.92966 0.0
O126 O 0.70104 0.89965 0.12291 0.0
Cd127 Cd 0.69032 0.91038 0.12069 0.0
Cd128 Cd 0.71474 0.92819 0.06456 0.0
O129 O 0.71988 0.91321 0.08168 0.0
O130 O 0.67545 0.90046 0.16837 0.0
O131 O 0.69181 0.92244 0.17581 0.0
C132 C 0.68117 0.91161 0.19319 0.0
C133 C 0.73199 0.9515 0.05516 0.0
C134 C 0.71263 0.90226 0.10548 0.0
C135 C 0.68584 0.91528 0.02084 0.0
O136 O 0.69896 0.92276 0.01766 0.0
O137 O 0.68006 0.90937 0.05889 0.0
O138 O 0.73094 0.94196 0.02728 0.0
O139 O 0.72375 0.94768 0.09058 0.0
O140 O 0.10382 0.79861 0.09185 0.0
Cd141 Cd 0.08937 0.77753 0.09008 0.0
Cd142 Cd 0.07511 0.78877 0.05208 0.0
O143 O 0.08948 0.80684 0.08469 0.0
O144 O 0.09736 0.76937 0.13406 0.0
O145 O 0.07754 0.76891 0.14741 0.0
C146 C 0.08711 0.76639 0.16176 0.0
C147 C 0.0514 0.78141 0.04861 0.0
C148 C 0.10158 0.80879 0.09291 0.0
C149 C 0.08479 0.77362 0.9895 0.0
O150 O 0.08187 0.78327 0.99357 0.0
O151 O 0.08636 0.76791 0.02558 0.0
O152 O 0.06046 0.79226 0.02637 0.0
O153 O 0.05592 0.77524 0.07567 0.0
O154 O 0.2018 0.306 0.10755 0.0
Cd155 Cd 0.2227 0.31182 0.10639 0.0
Cd156 Cd 0.21089 0.28668 0.06726 0.0
O157 O 0.19307 0.28337 0.10081 0.0
O158 O 0.23126 0.32764 0.1513 0.0
O159 O 0.23095 0.3078 0.16286 0.0
C160 C 0.23393 0.31994 0.17805 0.0
C161 C 0.21758 0.26988 0.06226 0.0
C162 C 0.19143 0.2937 0.10896 0.0
C163 C 0.22694 0.31167 1.00638 0.0
O164 O 0.2168 0.2993 1.00945 0.0
O165 O 0.23276 0.31855 0.04298 0.0
O166 O 0.2068 0.26849 0.04053 0.0
O167 O 0.22406 0.28044 0.08968 0.0
O168 O 0.77147 0.63825 0.42608 0.0
Cd169 Cd 0.75669 0.64446 0.42397 0.0
Cd170 Cd 0.74284 0.61898 0.38661 0.0
O171 O 0.75742 0.61564 0.41937 0.0
O172 O 0.76431 0.66062 0.46785 0.0
O173 O 0.74474 0.64101 0.48112 0.0
C174 C 0.75409 0.65318 0.49547 0.0
C175 C 0.71915 0.60259 0.38458 0.0
C176 C 0.76945 0.62592 0.42747 0.0
C177 C 0.75196 0.64352 0.32335 0.0
O178 O 0.74932 0.63105 0.3276 0.0
O179 O 0.75344 0.65081 0.35934 0.0
O180 O 0.72814 0.60068 0.36231 0.0
O181 O 0.72376 0.61346 0.41085 0.0
O182 O 0.36184 0.13286 0.43033 0.0
Cd183 Cd 0.35398 0.11172 0.43209 0.0
Cd184 Cd 0.37952 0.1203 0.38958 0.0
O185 O 0.38368 0.13982 0.41175 0.0
O186 O 0.33862 0.10503 0.47859 0.0
O187 O 0.35728 0.10303 0.48876 0.0
C188 C 0.34569 0.10141 0.50485 0.0
C189 C 0.39675 0.11407 0.38802 0.0
C190 C 0.37427 0.14257 0.42369 0.0
C191 C 0.35276 0.10357 0.33392 0.0
O192 O 0.36592 0.11116 0.33485 0.0
O193 O 0.34556 0.10147 0.37049 0.0
O194 O 0.39722 0.12353 0.36095 0.0
O195 O 0.38696 0.10882 0.41875 0.0
O196 O 0.86496 0.22929 0.44394 0.0
Cd197 Cd 0.88617 0.24274 0.43523 0.0
Cd198 Cd 0.87497 0.25695 0.39073 0.0
O199 O 0.85644 0.2424 0.41959 0.0
O200 O 0.89439 0.23479 0.47908 0.0
O201 O 0.8965 0.25545 0.48934 0.0
C202 C 0.89852 0.24566 0.50477 0.0
C203 C 0.88238 0.28063 0.38852 0.0
C204 C 0.85468 0.2312 0.43761 0.0
C205 C 0.88999 0.24621 0.33208 0.0
O206 O 0.8813 0.25045 0.33414 0.0
O207 O 0.89466 0.24376 0.36922 0.0
O208 O 0.87189 0.27176 0.36439 0.0
O209 O 0.88817 0.27591 0.4165 0.0
O210 O 0.96546 0.43441 0.24639 0.0
Cd211 Cd 0.97573 0.42328 0.25262 0.0
Cd212 Cd 0.95044 0.40587 0.30312 0.0
O213 O 0.94561 0.42079 0.28268 0.0
O214 O 0.9913 0.43272 0.20679 0.0
O215 O 0.97439 0.41101 0.19838 0.0
C216 C 0.98543 0.4216 0.18179 0.0
C217 C 0.93345 0.38236 0.30717 0.0
C218 C 0.95351 0.43181 0.26008 0.0
C219 C 0.97809 0.41818 0.35437 0.0
O220 O 0.9649 0.41113 0.3547 0.0
O221 O 0.98471 0.42379 0.31705 0.0
O222 O 0.93336 0.39141 0.33491 0.0
O223 O 0.94274 0.38682 0.27475 0.0
O224 O 0.56566 0.53169 0.23998 0.0
Cd225 Cd 0.57725 0.55297 0.24782 0.0
Cd226 Cd 0.59386 0.54419 0.29764 0.0
O227 O 0.57883 0.52469 0.27507 0.0
O228 O 0.56816 0.5596 0.20256 0.0
O229 O 0.58976 0.564 0.19421 0.0
C230 C 0.5793 0.56472 0.17771 0.0
C231 C 0.61742 0.55086 0.3013 0.0
C232 C 0.56792 0.52201 0.25246 0.0
C233 C 0.58182 0.55955 0.35001 0.0
O234 O 0.58853 0.55306 0.35017 0.0
O235 O 0.57664 0.56112 0.31258 0.0
O236 O 0.60839 0.54144 0.32837 0.0
O237 O 0.61291 0.55586 0.26958 0.0
O238 O 0.46692 0.03193 0.23085 0.0
Cd239 Cd 0.44537 0.02256 0.23534 0.0
Cd240 Cd 0.45459 0.04729 0.2869 0.0
O241 O 0.4738 0.05277 0.26029 0.0
O242 O 0.43913 0.007 0.18936 0.0
O243 O 0.435 0.02431 0.17992 0.0
C244 C 0.43431 0.01313 0.16369 0.0
C245 C 0.44709 0.06343 0.2962 0.0
C246 C 0.47658 0.04418 0.24082 0.0
C247 C 0.43989 0.01985 0.33779 0.0
O248 O 0.44794 0.03293 0.33916 0.0
O249 O 0.4361 0.01348 0.29903 0.0
O250 O 0.45719 0.06414 0.32036 0.0
O251 O 0.4417 0.05394 0.26451 0.0
O252 O 0.56171 0.02854 0.26541 0.0
Cd253 Cd 0.57558 0.02139 0.26754 0.0
Cd254 Cd 0.5917 0.04738 0.30411 0.0
O255 O 0.57648 0.05091 0.27597 0.0
O256 O 0.56782 0.00557 0.22264 0.0
O257 O 0.58799 0.02482 0.21195 0.0
C258 C 0.57845 0.01289 0.19641 0.0
C259 C 0.61532 0.06411 0.30382 0.0
C260 C 0.56431 0.04105 0.26645 0.0
C261 C 0.58208 0.02219 0.36696 0.0
O262 O 0.58693 0.0352 0.36293 0.0
O263 O 0.57776 0.0143 0.33152 0.0
O264 O 0.60648 0.06563 0.32846 0.0
O265 O 0.61055 0.05354 0.27613 0.0
O266 O 0.97049 0.53315 0.24976 0.0
Cd267 Cd 0.97832 0.55429 0.24827 0.0
Cd268 Cd 0.95277 0.5456 0.29115 0.0
O269 O 0.94868 0.52612 0.26897 0.0
O270 O 0.99371 0.56104 0.2019 0.0
O271 O 0.97506 0.56305 0.19166 0.0
C272 C 0.98667 0.56468 0.17564 0.0
C273 C 0.93546 0.55171 0.29284 0.0
C274 C 0.95809 0.52341 0.25669 0.0
C275 C 0.97955 0.56236 0.34664 0.0
O276 O 0.96638 0.55475 0.34581 0.0
O277 O 0.98672 0.56447 0.30999 0.0
O278 O 0.93501 0.54224 0.31977 0.0
O279 O 0.94528 0.55706 0.26222 0.0
O280 O 0.46609 0.43646 0.24607 0.0
Cd281 Cd 0.44505 0.42174 0.24627 0.0
Cd282 Cd 0.45624 0.40777 0.28524 0.0
O283 O 0.47448 0.42231 0.2541 0.0
O284 O 0.43688 0.42943 0.2013 0.0
O285 O 0.43677 0.40972 0.18923 0.0
C286 C 0.43407 0.41909 0.17422 0.0
C287 C 0.4489 0.38411 0.28778 0.0
C288 C 0.47637 0.43438 0.24599 0.0
C289 C 0.44034 0.41686 0.3463 0.0
O290 O 0.4502 0.4142 0.34334 0.0
O291 O 0.43487 0.41843 0.30961 0.0
O292 O 0.45965 0.39308 0.31067 0.0
O293 O 0.44283 0.38872 0.2606 0.0
O294 O 0.36622 0.23111 0.44283 0.0
Cd295 Cd 0.35571 0.24202 0.43762 0.0
Cd296 Cd 0.38083 0.25968 0.38549 0.0
O297 O 0.38584 0.24484 0.4055 0.0
O298 O 0.34037 0.23247 0.48416 0.0
O299 O 0.35707 0.25429 0.49192 0.0
C300 C 0.34618 0.24364 0.50892 0.0
C301 C 0.39794 0.2831 0.37857 0.0
C302 C 0.37814 0.23381 0.42831 0.0
C303 C 0.35276 0.24696 0.33625 0.0
O304 O 0.36594 0.25419 0.33524 0.0
O305 O 0.34636 0.24127 0.3738 0.0
O306 O 0.3976 0.27376 0.35128 0.0
O307 O 0.38904 0.27902 0.41215 0.0
O308 O 0.7689 0.12909 0.43406 0.0
Cd309 Cd 0.75394 0.10819 0.43323 0.0
Cd310 Cd 0.74035 0.1199 0.39518 0.0
O311 O 0.7549 0.13775 0.42863 0.0
O312 O 0.76157 0.09984 0.47757 0.0
O313 O 0.74198 0.09995 0.49037 0.0
C314 C 0.75134 0.09717 0.50501 0.0
C315 C 0.71677 0.113 0.39066 0.0
C316 C 0.76693 0.13942 0.436 0.0
C317 C 0.7495 0.10414 0.33336 0.0
O318 O 0.74708 0.11415 0.33704 0.0
O319 O 0.75064 0.09825 0.36962 0.0
O320 O 0.72606 0.12381 0.36884 0.0
O321 O 0.721 0.10662 0.41795 0.0
O322 O 0.86722 0.63517 0.45902 0.0
Cd323 Cd 0.88864 0.64542 0.45533 0.0
Cd324 Cd 0.8812 0.62091 0.39883 0.0
O325 O 0.86131 0.61624 0.41748 0.0
O326 O 0.89408 0.66039 0.50284 0.0
O327 O 0.89933 0.64375 0.50969 0.0
C328 C 0.89943 0.65451 0.52725 0.0
C329 C 0.88672 0.60329 0.3893 0.0
C330 C 0.85797 0.62367 0.44195 0.0
C331 C 0.89757 0.64973 0.3551 0.0
O332 O 0.89165 0.63659 0.35172 0.0
O333 O 0.89773 0.65555 0.39335 0.0
O334 O 0.87823 0.60448 0.36178 0.0
O335 O 0.89148 0.61165 0.42437 0.0
O336 O 0.43668 0.97006 0.75729 0.0
Cd337 Cd 0.42192 0.97629 0.75531 0.0
Cd338 Cd 0.40808 0.95086 0.71838 0.0
O339 O 0.4226 0.94744 0.75139 0.0
O340 O 0.42959 0.99248 0.79909 0.0
O341 O 0.41004 0.97287 0.81262 0.0
C342 C 0.41941 0.98505 0.82686 0.0
C343 C 0.38432 0.93479 0.71646 0.0
C344 C 0.43465 0.95773 0.75907 0.0
C345 C 0.41726 0.97529 0.65476 0.0
O346 O 0.41469 0.96285 0.65923 0.0
O347 O 0.41863 0.98259 0.69064 0.0
O348 O 0.39317 0.93264 0.69434 0.0
O349 O 0.3891 0.94569 0.74265 0.0
O350 O 0.03397 0.46834 0.7799 0.0
Cd351 Cd 0.02363 0.44693 0.77459 0.0
Cd352 Cd 0.04881 0.45443 0.72413 0.0
O353 O 0.05381 0.47429 0.74398 0.0
O354 O 0.00816 0.44101 0.8207 0.0
O355 O 0.02501 0.43611 0.82911 0.0
C356 C 0.01402 0.43576 0.84577 0.0
C357 C 0.0657 0.44777 0.71977 0.0
C358 C 0.04595 0.47759 0.76605 0.0
C359 C 0.02109 0.43925 0.67311 0.0
O360 O 0.03427 0.44527 0.67269 0.0
O361 O 0.01452 0.43837 0.71045 0.0
O362 O 0.0658 0.4569 0.69203 0.0
O363 O 0.05647 0.44301 0.75237 0.0
O364 O 0.53118 0.56232 0.77861 0.0
Cd365 Cd 0.55249 0.57434 0.7713 0.0
Cd366 Cd 0.54348 0.59074 0.7219 0.0
O367 O 0.52405 0.57541 0.74377 0.0
O368 O 0.55954 0.56578 0.81714 0.0
O369 O 0.56327 0.58717 0.82457 0.0
C370 C 0.5644 0.577 0.84151 0.0
C371 C 0.5495 0.61409 0.71862 0.0
C372 C 0.52144 0.56446 0.76595 0.0
C373 C 0.55941 0.57935 0.66944 0.0
O374 O 0.55273 0.58587 0.66933 0.0
O375 O 0.56094 0.57408 0.70674 0.0
O376 O 0.5402 0.60495 0.69146 0.0
O377 O 0.55475 0.6098 0.75015 0.0
O378 O 0.63163 0.76688 0.56382 0.0
Cd379 Cd 0.64205 0.75586 0.56693 0.0
Cd380 Cd 0.61739 0.7382 0.621 0.0
O381 O 0.61244 0.75326 0.60333 0.0
O382 O 0.65717 0.76565 0.51998 0.0
O383 O 0.64056 0.7438 0.51189 0.0
C384 C 0.65137 0.75455 0.49494 0.0
C385 C 0.60005 0.71487 0.62766 0.0
C386 C 0.61993 0.76429 0.58018 0.0
C387 C 0.64587 0.75073 0.6672 0.0
O388 O 0.63271 0.74338 0.66955 0.0
O389 O 0.6519 0.7566 0.6294 0.0
O390 O 0.60075 0.72418 0.65591 0.0
O391 O 0.60875 0.71894 0.59349 0.0
O392 O 0.22878 0.86656 0.59408 0.0
Cd393 Cd 0.24234 0.88764 0.59577 0.0
Cd394 Cd 0.25888 0.87816 0.63373 0.0
O395 O 0.24372 0.85926 0.60645 0.0
O396 O 0.23427 0.89532 0.5506 0.0
O397 O 0.25466 0.89671 0.54004 0.0
C398 C 0.24495 0.89883 0.52439 0.0
C399 C 0.28243 0.88469 0.63467 0.0
C400 C 0.23153 0.85676 0.59621 0.0
C401 C 0.24885 0.89377 0.69514 0.0
O402 O 0.25404 0.88588 0.69163 0.0
O403 O 0.24429 0.89698 0.65948 0.0
O404 O 0.27343 0.87458 0.65976 0.0
O405 O 0.27788 0.89047 0.60605 0.0
O406 O 0.13406 0.36365 0.57352 0.0
Cd407 Cd 0.11279 0.3557 0.58185 0.0
Cd408 Cd 0.12392 0.38077 0.62891 0.0
O409 O 0.14246 0.38512 0.59926 0.0
O410 O 0.10485 0.33969 0.53733 0.0
O411 O 0.10244 0.35808 0.52774 0.0
C412 C 0.10061 0.34639 0.51189 0.0
C413 C 0.11635 0.39691 0.63383 0.0
C414 C 0.1443 0.37581 0.58047 0.0
C415 C 0.10894 0.35456 0.68507 0.0
O416 O 0.11777 0.36746 0.68418 0.0
O417 O 0.10414 0.3478 0.64736 0.0
O418 O 0.12687 0.39838 0.65743 0.0
O419 O 0.1106 0.38664 0.60492 0.0
O420 O 0.23019 0.35969 0.58623 0.0
Cd421 Cd 0.2452 0.35381 0.58744 0.0
Cd422 Cd 0.25876 0.37907 0.62413 0.0
O423 O 0.24421 0.38235 0.59052 0.0
O424 O 0.23771 0.33779 0.54336 0.0
O425 O 0.2572 0.35755 0.53047 0.0
C426 C 0.24792 0.34536 0.51593 0.0
C427 C 0.28246 0.39534 0.62718 0.0
C428 C 0.23216 0.37198 0.58364 0.0
C429 C 0.24979 0.35455 0.68727 0.0
O430 O 0.25213 0.36692 0.68305 0.0
O431 O 0.24861 0.34739 0.65128 0.0
O432 O 0.27342 0.3973 0.64893 0.0
O433 O 0.2779 0.38454 0.60063 0.0
O434 O 0.63735 0.86554 0.60006 0.0
Cd435 Cd 0.64506 0.88668 0.60161 0.0
Cd436 Cd 0.61904 0.87739 0.63936 0.0
O437 O 0.61517 0.85838 0.61315 0.0
O438 O 0.6609 0.89428 0.55663 0.0
O439 O 0.64199 0.89577 0.54551 0.0
C440 C 0.65382 0.89782 0.53013 0.0
C441 C 0.60217 0.88409 0.63864 0.0
C442 C 0.62478 0.85578 0.60279 0.0
C443 C 0.64455 0.89296 0.70112 0.0
O444 O 0.63146 0.88513 0.69749 0.0
O445 O 0.65235 0.89605 0.66554 0.0
O446 O 0.60084 0.87396 0.66411 0.0
O447 O 0.61267 0.88982 0.61068 0.0
O448 O 0.1349 0.76749 0.56504 0.0
Cd449 Cd 0.11338 0.75507 0.56997 0.0
Cd450 Cd 0.12302 0.73994 0.62092 0.0
O451 O 0.14213 0.75376 0.59399 0.0
O452 O 0.10685 0.7642 0.52426 0.0
O453 O 0.1031 0.7429 0.51458 0.0
C454 C 0.10219 0.75328 0.4985 0.0
C455 C 0.11541 0.71627 0.62918 0.0
C456 C 0.1447 0.76507 0.57461 0.0
C457 C 0.10812 0.75228 0.67256 0.0
O458 O 0.11639 0.74752 0.67367 0.0
O459 O 0.10413 0.75469 0.63391 0.0
O460 O 0.12559 0.72554 0.65339 0.0
O461 O 0.11002 0.72051 0.59793 0.0
O462 O 0.02881 0.56172 0.76435 0.0
Cd463 Cd 0.02086 0.57493 0.76553 0.0
Cd464 Cd 0.0465 0.59196 0.72309 0.0
O465 O 0.05062 0.57662 0.74569 0.0
O466 O 0.0055 0.56635 0.81201 0.0
O467 O 0.02412 0.58706 0.82182 0.0
C468 C 0.01253 0.5771 0.83802 0.0
C469 C 0.0639 0.61535 0.7209 0.0
C470 C 0.04126 0.56448 0.75786 0.0
C471 C 0.01971 0.58187 0.66729 0.0
O472 O 0.03289 0.58752 0.66839 0.0
O473 O 0.01248 0.57668 0.70374 0.0
O474 O 0.06422 0.60625 0.69402 0.0
O475 O 0.05415 0.61099 0.75175 0.0
O476 O 0.43584 0.46276 0.76474 0.0
Cd477 Cd 0.42137 0.4417 0.76442 0.0
Cd478 Cd 0.40726 0.45282 0.72461 0.0
O479 O 0.42156 0.47102 0.7567 0.0
O480 O 0.42955 0.43391 0.80895 0.0
O481 O 0.40962 0.43327 0.82197 0.0
C482 C 0.41928 0.43093 0.83657 0.0
C483 C 0.3836 0.44553 0.71927 0.0
C484 C 0.43366 0.47297 0.76501 0.0
C485 C 0.41703 0.43725 0.66435 0.0
O486 O 0.41424 0.44701 0.6673 0.0
O487 O 0.41839 0.43164 0.70102 0.0
O488 O 0.39281 0.45627 0.697 0.0
O489 O 0.38793 0.43944 0.74746 0.0
O490 O 0.53265 0.9675 0.79153 0.0
Cd491 Cd 0.55406 0.97767 0.78762 0.0
Cd492 Cd 0.54666 0.95311 0.73277 0.0
O493 O 0.52673 0.94838 0.75119 0.0
O494 O 0.5597 0.99269 0.835 0.0
O495 O 0.56475 0.97591 0.84177 0.0
C496 C 0.565 0.98674 0.85931 0.0
C497 C 0.55254 0.9357 0.72546 0.0
C498 C 0.52339 0.95591 0.77503 0.0
C499 C 0.5629 0.98166 0.68741 0.0
O500 O 0.55695 0.96851 0.68463 0.0
O501 O 0.56313 0.98763 0.7254 0.0
O502 O 0.54395 0.93651 0.69737 0.0
O503 O 0.55718 0.9443 0.7599 0.0
C504 C 0.11993 0.2927 0.15439 0.0
C505 C 0.11081 0.28612 0.11725 0.0
C506 C 0.13226 0.29218 0.15885 0.0
C507 C 0.13579 0.2854 0.12428 0.0
C508 C 0.12626 0.27815 0.08798 0.0
C509 C 0.11375 0.2784 0.08536 0.0
C510 C 0.1419 0.29961 0.19902 0.0
C511 C 0.12977 0.27113 0.04966 0.0
C512 C 0.17426 0.30157 0.09759 0.0
C513 C 0.17731 0.29165 0.11529 0.0
C514 C 0.16077 0.29957 0.1001 0.0
C515 C 0.15015 0.28756 0.12236 0.0
C516 C 0.15326 0.27768 0.14161 0.0
C517 C 0.16679 0.27971 0.13704 0.0
C518 C 0.15783 0.31018 0.07794 0.0
C519 C 0.14233 0.26502 0.16701 0.0
H520 H 0.1176 0.29859 0.17925 0.0
H521 H 0.10676 0.27342 0.05636 0.0
H522 H 0.14597 0.29314 0.21405 0.0
H523 H 0.15094 0.30943 0.18658 0.0
H524 H 0.13662 0.30219 0.22684 0.0
H525 H 0.12071 0.26477 0.02674 0.0
H526 H 0.13832 0.27916 0.02816 0.0
H527 H 0.13352 0.26435 0.06426 0.0
H528 H 0.18235 0.31073 0.08027 0.0
H529 H 0.16917 0.27207 0.15092 0.0
H530 H 0.15423 0.31487 0.1046 0.0
H531 H 0.14937 0.30504 0.05192 0.0
H532 H 0.16714 0.31866 0.06045 0.0
H533 H 0.13772 0.26823 0.19525 0.0
H534 H 0.14663 0.25876 0.18225 0.0
H535 H 0.13376 0.25832 0.14295 0.0
C536 C 0.7006 0.82862 0.07836 0.0
C537 C 0.71087 0.82522 0.08914 0.0
C538 C 0.70319 0.84227 0.08261 0.0
C539 C 0.71627 0.85278 0.09932 0.0
C540 C 0.72669 0.84944 0.11057 0.0
C541 C 0.72393 0.83569 0.10468 0.0
C542 C 0.69188 0.84541 0.06916 0.0
C543 C 0.74061 0.8603 0.12961 0.0
C544 C 0.72289 0.88887 0.07032 0.0
C545 C 0.71667 0.89146 0.10847 0.0
C546 C 0.72379 0.8767 0.06814 0.0
C547 C 0.71867 0.86713 0.10554 0.0
C548 C 0.71367 0.87044 0.14602 0.0
C549 C 0.71252 0.88246 0.1467 0.0
C550 C 0.72896 0.87347 0.024 0.0
C551 C 0.70849 0.86074 0.18721 0.0
H552 H 0.69054 0.82059 0.06578 0.0
H553 H 0.73186 0.83307 0.11319 0.0
H554 H 0.68854 0.84897 0.10005 0.0
H555 H 0.6959 0.85394 0.04323 0.0
H556 H 0.6826 0.83621 0.05431 0.0
H557 H 0.7477 0.85609 0.13578 0.0
H558 H 0.74573 0.8692 0.10528 0.0
H559 H 0.73908 0.86441 0.16286 0.0
H560 H 0.72604 0.89577 0.04058 0.0
H561 H 0.70783 0.88453 0.17644 0.0
H562 H 0.71996 0.86528 1.00445 0.0
H563 H 0.73605 0.8694 0.0318 0.0
H564 H 0.73449 0.88276 1.00133 0.0
H565 H 0.69818 0.85163 0.17895 0.0
H566 H 0.70736 0.8659 0.21861 0.0
H567 H 0.71568 0.85679 0.19525 0.0
C568 C 0.12687 0.82598 0.08727 0.0
C569 C 0.11344 0.82304 0.09961 0.0
C570 C 0.13825 0.8395 0.09057 0.0
C571 C 0.13627 0.85032 0.1079 0.0
C572 C 0.12278 0.84738 0.12144 0.0
C573 C 0.11146 0.83378 0.11646 0.0
C574 C 0.1524 0.84222 0.07481 0.0
C575 C 0.12036 0.85857 0.1413 0.0
C576 C 0.17054 0.88043 0.14864 0.0
C577 C 0.17466 0.88915 0.10968 0.0
C578 C 0.15744 0.86832 0.15034 0.0
C579 C 0.14845 0.86464 0.1115 0.0
C580 C 0.15223 0.87387 0.07326 0.0
C581 C 0.16524 0.88614 0.07311 0.0
C582 C 0.15364 0.85899 0.19236 0.0
C583 C 0.14309 0.87021 0.03076 0.0
H584 H 0.12844 0.81776 0.07372 0.0
H585 H 0.1011 0.83152 0.12619 0.0
H586 H 0.15658 0.85043 0.04771 0.0
H587 H 0.1598 0.84606 0.10435 0.0
H588 H 0.15206 0.83276 0.0605 0.0
H589 H 0.10933 0.8545 0.15149 0.0
H590 H 0.12706 0.86329 0.17223 0.0
H591 H 0.12329 0.867 0.11548 0.0
H592 H 0.17777 0.88282 0.17716 0.0
H593 H 0.16844 0.89283 0.04281 0.0
H594 H 0.1546 0.84976 0.18385 0.0
H595 H 0.14268 0.85519 0.20269 0.0
H596 H 0.16053 0.8644 0.22242 0.0
H597 H 0.14328 0.8616 0.01184 0.0
H598 H 0.14662 0.87919 1.00673 0.0
H599 H 0.13213 0.86653 0.04068 0.0
C600 C 0.29773 0.12569 0.93523 0.0
C601 C 0.28768 0.11234 0.92075 0.0
C602 C 0.29514 0.13679 0.93368 0.0
C603 C 0.28232 0.13462 0.91575 0.0
C604 C 0.27211 0.12116 0.90075 0.0
C605 C 0.27483 0.11008 0.90418 0.0
C606 C 0.30619 0.15088 0.95124 0.0
C607 C 0.2585 0.11856 0.88016 0.0
C608 C 0.27504 0.16326 0.9507 0.0
C609 C 0.28189 0.17294 0.91517 0.0
C610 C 0.27419 0.15021 0.94993 0.0
C611 C 0.27999 0.14667 0.91208 0.0
C612 C 0.28568 0.15592 0.87402 0.0
C613 C 0.28679 0.16906 0.87641 0.0
C614 C 0.26832 0.14081 0.99167 0.0
C615 C 0.29157 0.15238 0.83234 0.0
H616 H 0.30761 0.12741 0.94863 0.0
H617 H 0.26707 0.09975 0.89281 0.0
H618 H 0.31007 0.15846 0.92224 0.0
H619 H 0.3017 0.15479 0.97767 0.0
H620 H 0.31518 0.15058 0.96693 0.0
H621 H 0.25152 0.10743 0.87127 0.0
H622 H 0.25302 0.12186 0.90478 0.0
H623 H 0.26056 0.12488 0.84821 0.0
H624 H 0.27133 0.1663 0.98085 0.0
H625 H 0.29197 0.17651 0.84871 0.0
H626 H 0.27699 0.14117 0.012 0.0
H627 H 0.2614 0.12987 0.98089 0.0
H628 H 0.26239 0.14402 0.0147 0.0
H629 H 0.30174 0.15339 0.84162 0.0
H630 H 0.29321 0.1594 0.80256 0.0
H631 H 0.28455 0.14148 0.82127 0.0
C632 C 0.82502 0.12698 0.92218 0.0
C633 C 0.82204 0.11398 0.9049 0.0
C634 C 0.83847 0.13851 0.91946 0.0
C635 C 0.84914 0.13714 0.89746 0.0
C636 C 0.84611 0.12413 0.87864 0.0
C637 C 0.83262 0.1126 0.88337 0.0
C638 C 0.84132 0.15208 0.94116 0.0
C639 C 0.8571 0.12241 0.85354 0.0
C640 C 0.87926 0.17248 0.8648 0.0
C641 C 0.88837 0.17515 0.90208 0.0
C642 C 0.86696 0.15959 0.86054 0.0
C643 C 0.86346 0.14938 0.89542 0.0
C644 C 0.87299 0.15179 0.93188 0.0
C645 C 0.88546 0.16459 0.93432 0.0
C646 C 0.85733 0.15724 0.82022 0.0
C647 C 0.86951 0.14136 0.97051 0.0
H648 H 0.81689 0.12804 0.93931 0.0
H649 H 0.8303 0.10256 0.8698 0.0
H650 H 0.84976 0.1555 0.96728 0.0
H651 H 0.8449 0.16031 0.91427 0.0
H652 H 0.83197 0.15125 0.95842 0.0
H653 H 0.85287 0.11183 0.83859 0.0
H654 H 0.86168 0.13016 0.82513 0.0
H655 H 0.86567 0.12437 0.87772 0.0
H656 H 0.88156 0.18062 0.83966 0.0
H657 H 0.89244 0.16669 0.96342 0.0
H658 H 0.84824 0.15799 0.83241 0.0
H659 H 0.85332 0.14667 0.80549 0.0
H660 H 0.86259 0.16504 0.79224 0.0
H661 H 0.86093 0.14085 0.99181 0.0
H662 H 0.87857 0.14416 0.99357 0.0
H663 H 0.86584 0.13082 0.95622 0.0
C664 C 0.82893 0.70911 0.86935 0.0
C665 C 0.82531 0.71572 0.90351 0.0
C666 C 0.84211 0.71022 0.86934 0.0
C667 C 0.85167 0.71772 0.9053 0.0
C668 C 0.84837 0.72513 0.93813 0.0
C669 C 0.83527 0.72419 0.93641 0.0
C670 C 0.8454 0.70254 0.8328 0.0
C671 C 0.85809 0.73297 0.97767 0.0
C672 C 0.8735 0.7021 0.94447 0.0
C673 C 0.88668 0.71159 0.92697 0.0
C674 C 0.86217 0.70421 0.93849 0.0
C675 C 0.86393 0.71589 0.91298 0.0
C676 C 0.87722 0.72551 0.89492 0.0
C677 C 0.88854 0.72337 0.90284 0.0
C678 C 0.8483 0.6939 0.95954 0.0
C679 C 0.87938 0.73783 0.8664 0.0
H680 H 0.82128 0.70265 0.8436 0.0
H681 H 0.83247 0.72925 0.96308 0.0
H682 H 0.85618 0.70908 0.81977 0.0
H683 H 0.84463 0.69303 0.84822 0.0
H684 H 0.83808 0.69939 0.80297 0.0
H685 H 0.85491 0.73972 0.99622 0.0
H686 H 0.85812 0.72543 1.00288 0.0
H687 H 0.86891 0.73951 0.96501 0.0
H688 H 0.87209 0.69307 0.96358 0.0
H689 H 0.89873 0.73065 0.88906 0.0
H690 H 0.8405 0.68859 0.93167 0.0
H691 H 0.84443 0.69939 0.9819 0.0
H692 H 0.84891 0.68587 0.98074 0.0
H693 H 0.87275 0.73414 0.83486 0.0
H694 H 0.8904 0.74449 0.85558 0.0
H695 H 0.87613 0.74427 0.88639 0.0
C696 C 0.83883 0.62419 0.48557 0.0
C697 C 0.84322 0.61986 0.44658 0.0
C698 C 0.82564 0.62301 0.4868 0.0
C699 C 0.81684 0.6178 0.44749 0.0
C700 C 0.82089 0.61262 0.40919 0.0
C701 C 0.834 0.61354 0.40947 0.0
C702 C 0.82154 0.62826 0.52889 0.0
C703 C 0.81195 0.60723 0.36623 0.0
C704 C 0.77962 0.61106 0.45109 0.0
C705 C 0.78144 0.62376 0.4346 0.0
C706 C 0.79106 0.60899 0.45639 0.0
C707 C 0.80453 0.61972 0.44362 0.0
C708 C 0.80637 0.63251 0.42671 0.0
C709 C 0.79485 0.63443 0.42302 0.0
C710 C 0.78878 0.59537 0.47575 0.0
C711 C 0.8205 0.64414 0.41179 0.0
H712 H 0.84591 0.62896 0.5145 0.0
H713 H 0.83741 0.61027 0.37915 0.0
H714 H 0.82237 0.63841 0.52073 0.0
H715 H 0.81057 0.62094 0.53865 0.0
H716 H 0.82833 0.6297 0.55919 0.0
H717 H 0.81572 0.60201 0.34209 0.0
H718 H 0.80099 0.59979 0.37556 0.0
H719 H 0.81207 0.61604 0.34765 0.0
H720 H 0.76927 0.60281 0.46023 0.0
H721 H 0.79631 0.64422 0.40978 0.0
H722 H 0.7954 0.59732 0.50689 0.0
H723 H 0.79192 0.59008 0.44981 0.0
H724 H 0.77774 0.58826 0.48546 0.0
H725 H 0.82778 0.64766 0.44167 0.0
H726 H 0.82006 0.65325 0.39786 0.0
H727 H 0.8249 0.64036 0.38465 0.0
C728 C 0.39031 0.16786 0.44162 0.0
C729 C 0.37734 0.15712 0.42656 0.0
C730 C 0.39289 0.18161 0.44516 0.0
C731 C 0.38239 0.18465 0.43187 0.0
C732 C 0.36943 0.17384 0.41546 0.0
C733 C 0.367 0.16021 0.41371 0.0
C734 C 0.40667 0.1928 0.46403 0.0
C735 C 0.35805 0.17664 0.39977 0.0
C736 C 0.3779 0.21447 0.47295 0.0
C737 C 0.38221 0.2231 0.43376 0.0
C738 C 0.37925 0.20257 0.47474 0.0
C739 C 0.38456 0.19897 0.43572 0.0
C740 C 0.38977 0.20816 0.39732 0.0
C741 C 0.38871 0.22024 0.3971 0.0
C742 C 0.37399 0.1933 0.51697 0.0
C743 C 0.39523 0.20458 0.35458 0.0
H744 H 0.39829 0.16546 0.45172 0.0
H745 H 0.35702 0.15194 0.40145 0.0
H746 H 0.41176 0.20149 0.43891 0.0
H747 H 0.40494 0.19713 0.49643 0.0
H748 H 0.41387 0.18882 0.47168 0.0
H749 H 0.34893 0.16723 0.38518 0.0
H750 H 0.35445 0.18038 0.4295 0.0
H751 H 0.36211 0.18493 0.37296 0.0
H752 H 0.37299 0.21675 0.50152 0.0
H753 H 0.39196 0.22687 0.36664 0.0
H754 H 0.38126 0.18959 0.5268 0.0
H755 H 0.36377 0.18401 0.50896 0.0
H756 H 0.37262 0.19873 0.54718 0.0
H757 H 0.40239 0.20073 0.36414 0.0
H758 H 0.40077 0.21365 0.33098 0.0
H759 H 0.38638 0.19612 0.33531 0.0
C760 C 0.8297 0.21706 0.4154 0.0
C761 C 0.84047 0.21958 0.44632 0.0
C762 C 0.81686 0.20465 0.41763 0.0
C763 C 0.81461 0.19476 0.45258 0.0
C764 C 0.82506 0.19783 0.48626 0.0
C765 C 0.83799 0.21009 0.48218 0.0
C766 C 0.80617 0.20163 0.38023 0.0
C767 C 0.82291 0.18779 0.52501 0.0
C768 C 0.77784 0.16393 0.46555 0.0
C769 C 0.77902 0.15351 0.44206 0.0
C770 C 0.78943 0.17737 0.47049 0.0
C771 C 0.80228 0.18051 0.44988 0.0
C772 C 0.80341 0.17002 0.42566 0.0
C773 C 0.79184 0.15661 0.42279 0.0
C774 C 0.78798 0.18816 0.49791 0.0
C775 C 0.81679 0.173 0.40197 0.0
H776 H 0.83165 0.22434 0.3874 0.0
H777 H 0.84628 0.2121 0.50635 0.0
H778 H 0.80545 0.19326 0.35729 0.0
H779 H 0.79573 0.19787 0.39564 0.0
H780 H 0.80887 0.21093 0.35859 0.0
H781 H 0.83094 0.1927 0.55255 0.0
H782 H 0.81247 0.18374 0.54087 0.0
H783 H 0.82344 0.17877 0.51086 0.0
H784 H 0.76792 0.1615 0.48064 0.0
H785 H 0.79273 0.1486 0.40414 0.0
H786 H 0.79001 0.19705 0.47521 0.0
H787 H 0.79584 0.19231 0.52615 0.0
H788 H 0.77746 0.18389 0.51343 0.0
H789 H 0.82007 0.18172 0.37707 0.0
H790 H 0.81574 0.16383 0.38289 0.0
H791 H 0.82522 0.17624 0.42801 0.0
C792 C 0.94188 0.49798 0.24139 0.0
C793 C 0.95507 0.50887 0.25405 0.0
C794 C 0.93924 0.48419 0.23894 0.0
C795 C 0.94991 0.48128 0.25095 0.0
C796 C 0.96314 0.49226 0.26461 0.0
C797 C 0.9656 0.5059 0.26529 0.0
C798 C 0.92516 0.47281 0.2229 0.0
C799 C 0.97473 0.4896 0.27882 0.0
C800 C 0.94376 0.44613 0.29074 0.0
C801 C 0.94958 0.44258 0.25377 0.0
C802 C 0.94289 0.45832 0.2892 0.0
C803 C 0.94756 0.46686 0.24913 0.0
C804 C 0.95218 0.46255 0.21003 0.0
C805 C 0.9534 0.45059 0.21317 0.0
C806 C 0.93824 0.4627 0.33209 0.0
C807 C 0.95682 0.47109 0.1661 0.0
H808 H 0.93374 0.50028 0.23254 0.0
H809 H 0.97576 0.51428 0.27568 0.0
H810 H 0.92637 0.46772 0.1915 0.0
H811 H 0.92029 0.46469 0.25005 0.0
H812 H 0.918 0.4768 0.21464 0.0
H813 H 0.98413 0.49919 0.29103 0.0
H814 H 0.97112 0.48175 0.30706 0.0
H815 H 0.97774 0.48533 0.24903 0.0
H816 H 0.94091 0.43999 0.32229 0.0
H817 H 0.95781 0.44777 0.18443 0.0
H818 H 0.93093 0.46641 0.32298 0.0
H819 H 0.94744 0.47148 0.34895 0.0
H820 H 0.93312 0.4541 0.35764 0.0
H821 H 0.9495 0.47478 0.15675 0.0
H822 H 0.95758 0.4651 0.13645 0.0
H823 H 0.96721 0.4804 0.17166 0.0
C824 C 0.54868 0.50405 0.2043 0.0
C825 C 0.55691 0.50749 0.24437 0.0
C826 C 0.53657 0.49103 0.19982 0.0
C827 C 0.53237 0.48145 0.23706 0.0
C828 C 0.54109 0.48457 0.27647 0.0
C829 C 0.5534 0.49751 0.27933 0.0
C830 C 0.52782 0.48794 0.15658 0.0
C831 C 0.53685 0.47479 0.31739 0.0
C832 C 0.4934 0.45957 0.25522 0.0
C833 C 0.49064 0.44635 0.2412 0.0
C834 C 0.50695 0.47099 0.2544 0.0
C835 C 0.518 0.46925 0.23779 0.0
C836 C 0.51525 0.456 0.22238 0.0
C837 C 0.5016 0.44462 0.22498 0.0
C838 C 0.50945 0.48487 0.27215 0.0
C839 C 0.52669 0.45386 0.20312 0.0
H840 H 0.55146 0.51175 0.17707 0.0
H841 H 0.55971 0.50021 0.3105 0.0
H842 H 0.52413 0.47716 0.14449 0.0
H843 H 0.51849 0.48882 0.16444 0.0
H844 H 0.53365 0.49527 0.12795 0.0
H845 H 0.54547 0.47793 0.34268 0.0
H846 H 0.52796 0.47469 0.33548 0.0
H847 H 0.53331 0.46401 0.30573 0.0
H848 H 0.48499 0.46093 0.26831 0.0
H849 H 0.49948 0.4344 0.21398 0.0
H850 H 0.51367 0.49271 0.24392 0.0
H851 H 0.5173 0.48863 0.30043 0.0
H852 H 0.4998 0.48433 0.28558 0.0
H853 H 0.5319 0.4611 0.17375 0.0
H854 H 0.52274 0.44304 0.19082 0.0
H855 H 0.53472 0.45627 0.23009 0.0
C856 C 0.53953 0.03424 0.27678 0.0
C857 C 0.55272 0.0438 0.25952 0.0
C858 C 0.52817 0.0363 0.2707 0.0
C859 C 0.52992 0.04799 0.24533 0.0
C860 C 0.54322 0.05768 0.22753 0.0
C861 C 0.55457 0.05559 0.23555 0.0
C862 C 0.51429 0.02591 0.29148 0.0
C863 C 0.54536 0.07003 0.19918 0.0
C864 C 0.49493 0.04112 0.20136 0.0
C865 C 0.49122 0.04766 0.23556 0.0
C866 C 0.50813 0.0423 0.20146 0.0
C867 C 0.51763 0.04977 0.23756 0.0
C868 C 0.51425 0.0571 0.27047 0.0
C869 C 0.50114 0.05612 0.26865 0.0
C870 C 0.5115 0.0347 0.16483 0.0
C871 C 0.52392 0.06491 0.31018 0.0
H872 H 0.53814 0.02519 0.29576 0.0
H873 H 0.56476 0.06292 0.22196 0.0
H874 H 0.51035 0.03134 0.31386 0.0
H875 H 0.50654 0.02061 0.26346 0.0
H876 H 0.51491 0.01787 0.3126 0.0
H877 H 0.5564 0.07674 0.18856 0.0
H878 H 0.5388 0.06636 0.16751 0.0
H879 H 0.54204 0.07641 0.21919 0.0
H880 H 0.48732 0.03468 0.17548 0.0
H881 H 0.49828 0.06112 0.29534 0.0
H882 H 0.51076 0.02518 0.18013 0.0
H883 H 0.5223 0.04129 0.15197 0.0
H884 H 0.50422 0.03157 0.13491 0.0
H885 H 0.52395 0.05734 0.33528 0.0
H886 H 0.52067 0.0716 0.32882 0.0
H887 H 0.53474 0.07151 0.29769 0.0
C888 C 0.44491 0.94305 0.78385 0.0
C889 C 0.44666 0.95559 0.76614 0.0
C890 C 0.45639 0.94104 0.78942 0.0
C891 C 0.4698 0.95167 0.77565 0.0
C892 C 0.47155 0.96428 0.75737 0.0
C893 C 0.46001 0.96615 0.75346 0.0
C894 C 0.45421 0.92762 0.81023 0.0
C895 C 0.48561 0.97579 0.74134 0.0
C896 C 0.50429 0.95671 0.81799 0.0
C897 C 0.50863 0.95208 0.77964 0.0
C898 C 0.49107 0.95547 0.819 0.0
C899 C 0.48217 0.94985 0.78009 0.0
C900 C 0.48616 0.94436 0.74253 0.0
C901 C 0.49931 0.94538 0.74304 0.0
C902 C 0.48705 0.96107 0.86033 0.0
C903 C 0.47711 0.93852 0.69999 0.0
H904 H 0.43461 0.93488 0.79383 0.0
H905 H 0.4614 0.97581 0.73925 0.0
H906 H 0.45741 0.92216 0.78512 0.0
H907 H 0.46086 0.92987 0.84149 0.0
H908 H 0.44319 0.92053 0.8202 0.0
H909 H 0.48508 0.98472 0.72624 0.0
H910 H 0.49299 0.97963 0.77095 0.0
H911 H 0.48995 0.97176 0.71481 0.0
H912 H 0.51144 0.96178 0.84656 0.0
H913 H 0.50267 0.94186 0.71321 0.0
H914 H 0.47612 0.9538 0.87067 0.0
H915 H 0.48779 0.97111 0.85098 0.0
H916 H 0.49394 0.96284 0.89063 0.0
H917 H 0.46618 0.93115 0.70991 0.0
H918 H 0.48083 0.93309 0.67666 0.0
H919 H 0.47714 0.94714 0.68031 0.0
C920 C 0.0574 0.55543 0.77694 0.0
C921 C 0.04443 0.55308 0.76131 0.0
C922 C 0.06009 0.54435 0.78108 0.0
C923 C 0.0497 0.53076 0.76781 0.0
C924 C 0.03674 0.52848 0.75084 0.0
C925 C 0.03421 0.53961 0.74851 0.0
C926 C 0.07386 0.54708 0.80056 0.0
C927 C 0.02549 0.51425 0.73515 0.0
C928 C 0.05647 0.50166 0.73455 0.0
C929 C 0.04992 0.49234 0.77123 0.0
C930 C 0.0574 0.51476 0.73429 0.0
C931 C 0.052 0.5187 0.77225 0.0
C932 C 0.04664 0.50984 0.81135 0.0
C933 C 0.04543 0.49664 0.81001 0.0
C934 C 0.06291 0.52373 0.69148 0.0
C935 C 0.04118 0.51382 0.85315 0.0
H936 H 0.06529 0.56585 0.78701 0.0
H937 H 0.02423 0.53781 0.73584 0.0
H938 H 0.07207 0.54106 0.8331 0.0
H939 H 0.07908 0.5435 0.77585 0.0
H940 H 0.08096 0.55828 0.80815 0.0
H941 H 0.01637 0.51444 0.72007 0.0
H942 H 0.02969 0.51004 0.70874 0.0
H943 H 0.02186 0.50696 0.76499 0.0
H944 H 0.05986 0.4983 0.70439 0.0
H945 H 0.04047 0.48947 0.83859 0.0
H946 H 0.06996 0.53477 0.70096 0.0
H947 H 0.05406 0.52323 0.67177 0.0
H948 H 0.06858 0.52026 0.66831 0.0
H949 H 0.04834 0.52483 0.8629 0.0
H950 H 0.0398 0.50709 0.88355 0.0
H951 H 0.03095 0.51278 0.84465 0.0
C952 C 0.45881 0.49011 0.75581 0.0
C953 C 0.44558 0.48723 0.77041 0.0
C954 C 0.47024 0.50363 0.7578 0.0
C955 C 0.46852 0.5145 0.77622 0.0
C956 C 0.45525 0.51162 0.79205 0.0
C957 C 0.44385 0.49802 0.78823 0.0
C958 C 0.48413 0.50628 0.73948 0.0
C959 C 0.45314 0.52287 0.81319 0.0
C960 C 0.5034 0.54466 0.81214 0.0
C961 C 0.50691 0.55332 0.77315 0.0
C962 C 0.49033 0.53256 0.81561 0.0
C963 C 0.48076 0.52881 0.77842 0.0
C964 C 0.48396 0.53795 0.74018 0.0
C965 C 0.49695 0.55023 0.73835 0.0
C966 C 0.48715 0.52334 0.85766 0.0
C967 C 0.47421 0.53421 0.6993 0.0
H968 H 0.46016 0.48183 0.74147 0.0
H969 H 0.43362 0.49579 0.79969 0.0
H970 H 0.48796 0.51445 0.71229 0.0
H971 H 0.49194 0.51013 0.76784 0.0
H972 H 0.48356 0.49679 0.72447 0.0
H973 H 0.44226 0.51884 0.82518 0.0
H974 H 0.46026 0.52763 0.84316 0.0
H975 H 0.45573 0.53125 0.78749 0.0
H976 H 0.51106 0.54711 0.83928 0.0
H977 H 0.49969 0.55688 0.70803 0.0
H978 H 0.48797 0.51408 0.84829 0.0
H979 H 0.47636 0.51958 0.8699 0.0
H980 H 0.49448 0.52882 0.88667 0.0
H981 H 0.47409 0.52552 0.6798 0.0
H982 H 0.47741 0.54311 0.67519 0.0
H983 H 0.46342 0.53058 0.71112 0.0
C984 C 0.6318 0.83783 0.60873 0.0
C985 C 0.62166 0.84128 0.59676 0.0
C986 C 0.62925 0.8242 0.60415 0.0
C987 C 0.61636 0.81379 0.58586 0.0
C988 C 0.60607 0.8172 0.57337 0.0
C989 C 0.60877 0.83092 0.57964 0.0
C990 C 0.6404 0.82097 0.61895 0.0
C991 C 0.59236 0.80646 0.55263 0.0
C992 C 0.62056 0.78434 0.53902 0.0
C993 C 0.61598 0.77514 0.57675 0.0
C994 C 0.61944 0.79638 0.53954 0.0
C995 C 0.61401 0.79948 0.57938 0.0
C996 C 0.60847 0.78972 0.61616 0.0
C997 C 0.60937 0.77755 0.61411 0.0
C998 C 0.62507 0.80629 0.49899 0.0
C999 C 0.60283 0.79272 0.65962 0.0
H1000 H 0.64171 0.84578 0.62253 0.0
H1001 H 0.60094 0.8336 0.5702 0.0
H1002 H 0.63609 0.8123 0.64439 0.0
H1003 H 0.64406 0.81757 0.58849 0.0
H1004 H 0.64952 0.83008 0.63491 0.0
H1005 H 0.58536 0.81071 0.54555 0.0
H1006 H 0.59426 0.80252 0.51961 0.0
H1007 H 0.58697 0.79743 0.57634 0.0
H1008 H 0.62556 0.78242 0.50986 0.0
H1009 H 0.60588 0.77048 0.64345 0.0
H1010 H 0.6353 0.81534 0.5085 0.0
H1011 H 0.61799 0.8103 0.49007 0.0
H1012 H 0.62654 0.80129 0.46776 0.0
H1013 H 0.61162 0.80081 0.68023 0.0
H1014 H 0.59705 0.78332 0.68164 0.0
H1015 H 0.59584 0.79685 0.65095 0.0
C1016 C 0.16924 0.77819 0.60232 0.0
C1017 C 0.15926 0.77636 0.56897 0.0
C1018 C 0.18224 0.79045 0.60364 0.0
C1019 C 0.18544 0.80092 0.56994 0.0
C1020 C 0.17588 0.79851 0.53362 0.0
C1021 C 0.16278 0.78636 0.53406 0.0
C1022 C 0.19196 0.79272 0.64362 0.0
C1023 C 0.17907 0.8092 0.49615 0.0
C1024 C 0.20683 0.83862 0.60672 0.0
C1025 C 0.22008 0.84234 0.58983 0.0
C1026 C 0.19562 0.8251 0.60131 0.0
C1027 C 0.19757 0.81512 0.57696 0.0
C1028 C 0.21093 0.81882 0.55947 0.0
C1029 C 0.22213 0.83238 0.56685 0.0
C1030 C 0.18166 0.82151 0.62175 0.0
C1031 C 0.21329 0.80859 0.53215 0.0
H1032 H 0.16651 0.77052 0.62957 0.0
H1033 H 0.15511 0.7849 0.50799 0.0
H1034 H 0.20281 0.79703 0.63123 0.0
H1035 H 0.19184 0.80041 0.668 0.0
H1036 H 0.18888 0.78295 0.66302 0.0
H1037 H 0.1718 0.80477 0.46629 0.0
H1038 H 0.17814 0.81797 0.5106 0.0
H1039 H 0.18989 0.8135 0.4834 0.0
H1040 H 0.20528 0.84629 0.62495 0.0
H1041 H 0.23238 0.8353 0.55355 0.0
H1042 H 0.17786 0.81231 0.64479 0.0
H1043 H 0.1739 0.81878 0.5936 0.0
H1044 H 0.18213 0.83024 0.6421 0.0
H1045 H 0.21016 0.79907 0.55295 0.0
H1046 H 0.22434 0.81301 0.52152 0.0
H1047 H 0.20668 0.80536 0.50054 0.0
C1048 C 0.20721 0.36425 0.59634 0.0
C1049 C 0.22007 0.37398 0.57726 0.0
C1050 C 0.19564 0.36609 0.59314 0.0
C1051 C 0.1968 0.3777 0.56881 0.0
C1052 C 0.20968 0.38741 0.54838 0.0
C1053 C 0.22127 0.38556 0.55363 0.0
C1054 C 0.18223 0.3557 0.61661 0.0
C1055 C 0.21116 0.39964 0.52086 0.0
C1056 C 0.16111 0.37154 0.53593 0.0
C1057 C 0.15855 0.3785 0.57178 0.0
C1058 C 0.17406 0.37223 0.53201 0.0
C1059 C 0.18446 0.37962 0.56584 0.0
C1060 C 0.18215 0.38724 0.60072 0.0
C1061 C 0.16928 0.38676 0.6028 0.0
C1062 C 0.17628 0.36437 0.49334 0.0
C1063 C 0.19279 0.39492 0.63823 0.0
H1064 H 0.20631 0.35536 0.6151 0.0
H1065 H 0.23121 0.39305 0.53867 0.0
H1066 H 0.1789 0.36112 0.64142 0.0
H1067 H 0.17384 0.35051 0.59044 0.0
H1068 H 0.18325 0.34757 0.63577 0.0
H1069 H 0.22171 0.40589 0.5055 0.0
H1070 H 0.20334 0.39593 0.49249 0.0
H1071 H 0.20909 0.4065 0.54345 0.0
H1072 H 0.15285 0.36524 0.51168 0.0
H1073 H 0.16728 0.39206 0.63079 0.0
H1074 H 0.17573 0.35482 0.50751 0.0
H1075 H 0.18675 0.37076 0.47767 0.0
H1076 H 0.1683 0.36128 0.46565 0.0
H1077 H 0.19349 0.38728 0.6613 0.0
H1078 H 0.19006 0.40152 0.65973 0.0
H1079 H 0.20325 0.40158 0.62296 0.0
C1080 C 0.03038 0.24855 0.01255 0.0
C1081 C 0.03506 0.25914 0.04603 0.0
C1082 C 0.01633 0.24108 0.99928 0.0
C1083 C 0.00669 0.24425 0.02006 0.0
C1084 C 0.01125 0.25461 0.05499 0.0
C1085 C 0.02538 0.26194 0.06755 0.0
C1086 C 0.01189 0.23009 0.96204 0.0
C1087 C 0.00125 0.25821 0.0782 0.0
C1088 C 0.97357 0.23592 0.95495 0.0
C1089 C 0.96363 0.22381 0.97756 0.0
C1090 C 0.98766 0.24256 0.96794 0.0
C1091 C 0.99191 0.23697 1.00447 0.0
C1092 C 0.98199 0.22454 0.02657 0.0
C1093 C 0.96799 0.2181 0.01281 0.0
C1094 C 0.99796 0.25575 0.9433 0.0
C1095 C 0.98611 0.21823 0.06558 0.0
H1096 H 0.03778 0.2463 0.99569 0.0
H1097 H 0.0289 0.27012 0.09336 0.0
H1098 H 0.00321 0.22005 0.97478 0.0
H1099 H 0.00799 0.23316 0.93137 0.0
H1100 H 0.02054 0.22845 0.95076 0.0
H1101 H 0.00631 0.26609 0.10609 0.0
H1102 H 0.9969 0.26233 0.05205 0.0
H1103 H 0.99238 0.24874 0.0934 0.0
H1104 H 0.97029 0.24042 0.92777 0.0
H1105 H 0.9604 0.20875 0.03057 0.0
H1106 H 0.00662 0.25461 0.92892 0.0
H1107 H 0.00257 0.26452 0.96836 0.0
H1108 H 0.99308 0.25849 0.91456 0.0
H1109 H 0.99455 0.21633 0.05403 0.0
H1110 H 0.97723 0.20826 0.07807 0.0
H1111 H 0.99022 0.2256 0.09518 0.0
C1112 C 0.78052 0.75027 1.00863 0.0
C1113 C 0.77479 0.74025 0.97326 0.0
C1114 C 0.77413 0.75786 0.02249 0.0
C1115 C 0.7617 0.75538 1.00047 0.0
C1116 C 0.75605 0.74555 0.96391 0.0
C1117 C 0.76267 0.7381 0.95072 0.0
C1118 C 0.7805 0.7683 0.06144 0.0
C1119 C 0.74284 0.74267 0.93941 0.0
C1120 C 0.73659 0.76386 0.06265 0.0
C1121 C 0.73926 0.77619 0.04039 0.0
C1122 C 0.74407 0.75716 0.05086 0.0
C1123 C 0.75446 0.76293 0.01601 0.0
C1124 C 0.7576 0.77567 0.99485 0.0
C1125 C 0.74997 0.78214 1.00732 0.0
C1126 C 0.74051 0.74363 0.07446 0.0
C1127 C 0.76865 0.7822 0.95776 0.0
H1128 H 0.78989 0.75201 0.02629 0.0
H1129 H 0.75815 0.73036 0.92348 0.0
H1130 H 0.78243 0.77864 0.04985 0.0
H1131 H 0.77316 0.76507 0.09111 0.0
H1132 H 0.79048 0.76937 0.07383 0.0
H1133 H 0.74002 0.73501 0.91082 0.0
H1134 H 0.7341 0.73861 0.9646 0.0
H1135 H 0.74401 0.75246 0.92485 0.0
H1136 H 0.72832 0.75917 0.08815 0.0
H1137 H 0.75213 0.79168 0.98993 0.0
H1138 H 0.75002 0.74424 0.08936 0.0
H1139 H 0.73624 0.73508 0.04859 0.0
H1140 H 0.73273 0.74094 0.10264 0.0
H1141 H 0.77864 0.78342 0.97046 0.0
H1142 H 0.7704 0.79255 0.94673 0.0
H1143 H 0.76551 0.77529 0.92691 0.0
C1144 C 0.23501 0.97485 0.06688 0.0
C1145 C 0.2232 0.9645 0.04405 0.0
C1146 C 0.24136 0.9888 0.05252 0.0
C1147 C 0.23569 0.99247 0.01466 0.0
C1148 C 0.22339 0.98217 0.99289 0.0
C1149 C 0.21732 0.9683 1.00776 0.0
C1150 C 0.25445 -0.0005 0.07669 0.0
C1151 C 0.21694 0.9857 0.9528 0.0
C1152 C 0.24784 0.03092 1.00168 0.0
C1153 C 0.25858 0.03511 0.9689 0.0
C1154 C 0.23998 0.01698 0.01575 0.0
C1155 C 0.24296 0.007 0.99678 0.0
C1156 C 0.25335 0.01105 0.96216 0.0
C1157 C 0.26101 0.02506 0.9485 0.0
C1158 C 0.22887 0.01305 0.05231 0.0
C1159 C 0.25681 0.00069 0.941 0.0
H1160 H 0.23964 0.97199 0.09481 0.0
H1161 H 0.20816 0.96037 0.98999 0.0
H1162 H 0.26328 0.00381 0.05185 0.0
H1163 H 0.25321 0.00829 0.08895 0.0
H1164 H 0.25718 0.99509 0.10685 0.0
H1165 H 0.20682 0.9767 0.94193 0.0
H1166 H 0.21526 0.99444 0.96231 0.0
H1167 H 0.22412 0.98915 0.92265 0.0
H1168 H 0.24586 0.03861 0.01752 0.0
H1169 H 0.26931 0.02822 0.92329 0.0
H1170 H 0.23199 0.00986 0.08454 0.0
H1171 H 0.21891 0.00404 0.04051 0.0
H1172 H 0.22705 0.02179 0.06077 0.0
H1173 H 0.26097 0.99668 0.96821 0.0
H1174 H 0.26463 0.00533 0.91274 0.0
H1175 H 0.24727 0.99166 0.92683 0.0
C1176 C 0.9695 0.75147 1.00948 0.0
C1177 C 0.96454 0.74087 0.97593 0.0
C1178 C 0.98364 0.7589 0.02158 0.0
C1179 C 0.9931 0.75574 0.99942 0.0
C1180 C 0.98828 0.74548 0.96409 0.0
C1181 C 0.97405 0.73815 0.95282 0.0
C1182 C 0.98836 0.76977 0.05936 0.0
C1183 C 0.99809 0.74192 0.93929 0.0
C1184 C 0.0319 0.78159 1.00569 0.0
C1185 C 0.03632 0.77558 0.03966 0.0
C1186 C 0.01785 0.77534 0.99264 0.0
C1187 C 0.00795 0.76282 0.01427 0.0
C1188 C 0.01226 0.75693 0.04966 0.0
C1189 C 0.02641 0.76336 0.06185 0.0
C1190 C 0.01367 0.78194 0.95476 0.0
C1191 C 0.00198 0.74365 0.07389 0.0
H1192 H 0.96224 0.75366 0.02759 0.0
H1193 H 0.97031 0.72997 0.92693 0.0
H1194 H 0.99224 0.76646 0.08949 0.0
H1195 H 0.99711 0.77979 0.04685 0.0
H1196 H 0.97985 0.77152 0.07141 0.0
H1197 H 0.99287 0.73429 0.91083 0.0
H1198 H 0.00699 0.75146 0.92453 0.0
H1199 H 0.00242 0.73749 0.96437 0.0
H1200 H 0.03948 0.79101 0.98822 0.0
H1201 H 0.02974 0.75864 0.08807 0.0
H1202 H 0.00531 0.78385 0.96732 0.0
H1203 H 0.00941 0.77475 0.92474 0.0
H1204 H 0.02254 0.79195 0.94257 0.0
H1205 H 0.99343 0.74481 0.08919 0.0
H1206 H 0.00691 0.74071 0.10188 0.0
H1207 H 0.99721 0.73502 0.04837 0.0
C1208 C 0.25852 0.23496 0.95505 0.0
C1209 C 0.25653 0.22305 0.97865 0.0
C1210 C 0.25134 0.24183 0.96848 0.0
C1211 C 0.24194 0.23666 1.00636 0.0
C1212 C 0.23945 0.22432 0.029 0.0
C1213 C 0.24676 0.21766 0.01487 0.0
C1214 C 0.2542 0.25492 0.94325 0.0
C1215 C 0.22946 0.21843 0.06933 0.0
C1216 C 0.23567 0.26283 0.07147 0.0
C1217 C 0.22305 0.26041 0.05215 0.0
C1218 C 0.2418 0.25498 0.05752 0.0
C1219 C 0.23514 0.24448 0.02343 0.0
C1220 C 0.22218 0.24167 1.00497 0.0
C1221 C 0.21628 0.24965 0.01958 0.0
C1222 C 0.2556 0.25821 0.07828 0.0
C1223 C 0.21474 0.23052 0.96871 0.0
H1224 H 0.26606 0.2392 0.92712 0.0
H1225 H 0.24513 0.20845 0.03329 0.0
H1226 H 0.2443 0.25405 0.93108 0.0
H1227 H 0.25912 0.26391 0.96737 0.0
H1228 H 0.26118 0.25714 0.91291 0.0
H1229 H 0.22801 0.20828 0.08126 0.0
H1230 H 0.23341 0.22584 0.09885 0.0
H1231 H 0.21916 0.21703 0.05955 0.0
H1232 H 0.24098 0.27113 0.09656 0.0
H1233 H 0.20652 0.2477 1.00441 0.0
H1234 H 0.26364 0.26189 0.05069 0.0
H1235 H 0.25482 0.24866 0.09345 0.0
H1236 H 0.25913 0.26631 0.10574 0.0
H1237 H 0.22116 0.23324 0.93677 0.0
H1238 H 0.2044 0.22917 0.95952 0.0
H1239 H 0.21326 0.22043 0.9813 0.0
C1240 C 0.76283 0.02686 0.94916 0.0
C1241 C 0.77595 0.03678 0.96607 0.0
C1242 C 0.7565 0.01291 0.96352 0.0
C1243 C 0.76348 0.00879 0.99544 0.0
C1244 C 0.77697 0.01864 0.01113 0.0
C1245 C 0.78303 0.03251 0.99629 0.0
C1246 C 0.74213 0.00269 0.94581 0.0
C1247 C 0.78479 0.01463 0.04485 0.0
C1248 C 0.74056 0.97682 0.06843 0.0
C1249 C 0.74138 0.96636 0.04379 0.0
C1250 C 0.74798 0.99075 0.05372 0.0
C1251 C 0.75645 0.99429 0.01353 0.0
C1252 C 0.75778 0.98387 0.9897 0.0
C1253 C 0.75022 0.97004 1.00507 0.0
C1254 C 0.74635 0.00159 0.08019 0.0
C1255 C 0.76679 0.98724 0.94696 0.0
H1256 H 0.75727 0.03007 0.92592 0.0
H1257 H 0.79319 0.0401 1.00952 0.0
H1258 H 0.74209 0.99355 0.93007 0.0
H1259 H 0.73466 0.99883 0.97519 0.0
H1260 H 0.73838 0.00739 0.91954 0.0
H1261 H 0.79553 0.0233 0.05143 0.0
H1262 H 0.77913 0.01146 0.0784 0.0
H1263 H 0.78539 0.00558 0.03144 0.0
H1264 H 0.73373 0.97407 0.09828 0.0
H1265 H 0.75094 0.96203 0.98585 0.0
H1266 H 0.74134 0.00594 0.05762 0.0
H1267 H 0.7567 0.01033 0.09028 0.0
H1268 H 0.73994 0.99728 0.112 0.0
H1269 H 0.7625 0.9908 0.91876 0.0
H1270 H 0.76744 0.97813 0.93424 0.0
H1271 H 0.77747 0.99585 0.95434 0.0
C1272 C 0.64241 0.56831 0.28506 0.0
C1273 C 0.63251 0.55669 0.30991 0.0
C1274 C 0.65656 0.57504 0.29735 0.0
C1275 C 0.6609 0.57003 0.33538 0.0
C1276 C 0.65104 0.558 0.35942 0.0
C1277 C 0.63698 0.55147 0.34638 0.0
C1278 C 0.6668 0.5878 0.27064 0.0
C1279 C 0.65526 0.5523 0.39999 0.0
C1280 C 0.69948 0.58218 0.34495 0.0
C1281 C 0.70405 0.5933 0.37635 0.0
C1282 C 0.68543 0.57435 0.33199 0.0
C1283 C 0.67569 0.57767 0.35094 0.0
C1284 C 0.68013 0.58855 0.38392 0.0
C1285 C 0.69427 0.59625 0.39622 0.0
C1286 C 0.68109 0.5628 0.29688 0.0
C1287 C 0.67002 0.59234 0.40518 0.0
H1288 H 0.63906 0.57243 0.25693 0.0
H1289 H 0.62941 0.54248 0.36579 0.0
H1290 H 0.67132 0.597 0.29392 0.0
H1291 H 0.67553 0.58652 0.25784 0.0
H1292 H 0.6619 0.58995 0.24053 0.0
H1293 H 0.64647 0.54239 0.41331 0.0
H1294 H 0.66386 0.55047 0.3898 0.0
H1295 H 0.65918 0.56001 0.42865 0.0
H1296 H 0.70696 0.57983 0.32937 0.0
H1297 H 0.69771 0.60482 0.42042 0.0
H1298 H 0.67722 0.56536 0.26498 0.0
H1299 H 0.67242 0.55294 0.3108 0.0
H1300 H 0.6898 0.56106 0.28721 0.0
H1301 H 0.66559 0.59597 0.37766 0.0
H1302 H 0.67502 0.60065 0.43179 0.0
H1303 H 0.66123 0.58305 0.42153 0.0
C1304 C 0.42895 0.07039 0.28615 0.0
C1305 C 0.44121 0.07249 0.30751 0.0
C1306 C 0.42249 0.0779 0.30038 0.0
C1307 C 0.42846 0.08777 0.33674 0.0
C1308 C 0.44105 0.09023 0.35746 0.0
C1309 C 0.44727 0.08256 0.34262 0.0
C1310 C 0.40908 0.07503 0.2773 0.0
C1311 C 0.44778 0.10071 0.39608 0.0
C1312 C 0.41661 0.11439 0.34605 0.0
C1313 C 0.40617 0.10842 0.38003 0.0
C1314 C 0.42424 0.108 0.33259 0.0
C1315 C 0.42135 0.09531 0.35358 0.0
C1316 C 0.41127 0.08955 0.38937 0.0
C1317 C 0.40381 0.09618 0.40224 0.0
C1318 C 0.43498 0.11454 0.2946 0.0
C1319 C 0.40796 0.07606 0.41276 0.0
H1320 H 0.42418 0.06261 0.25913 0.0
H1321 H 0.45675 0.08426 0.35933 0.0
H1322 H 0.40057 0.07099 0.3033 0.0
H1323 H 0.41015 0.08481 0.26312 0.0
H1324 H 0.40602 0.06735 0.24865 0.0
H1325 H 0.45788 0.10183 0.40716 0.0
H1326 H 0.44956 0.11103 0.38483 0.0
H1327 H 0.44073 0.0975 0.42656 0.0
H1328 H 0.41854 0.12386 0.32875 0.0
H1329 H 0.39574 0.09148 0.42841 0.0
H1330 H 0.43158 0.10766 0.26367 0.0
H1331 H 0.44507 0.11573 0.3061 0.0
H1332 H 0.43668 0.1249 0.28411 0.0
H1333 H 0.40347 0.06748 0.38703 0.0
H1334 H 0.40045 0.07339 0.44179 0.0
H1335 H 0.41761 0.07671 0.42645 0.0
C1336 C 0.90101 0.30539 0.4011 0.0
C1337 C 0.88833 0.29575 0.38066 0.0
C1338 C 0.90761 0.31955 0.38908 0.0
C1339 C 0.90136 0.32415 0.35593 0.0
C1340 C 0.88831 0.31455 0.33651 0.0
C1341 C 0.88196 0.30047 0.34909 0.0
C1342 C 0.9215 0.3295 0.41076 0.0
C1343 C 0.88127 0.31907 0.30131 0.0
C1344 C 0.91433 0.36292 0.35195 0.0
C1345 C 0.92406 0.36731 0.31562 0.0
C1346 C 0.90663 0.34886 0.36474 0.0
C1347 C 0.90869 0.33894 0.34063 0.0
C1348 C 0.9181 0.34321 0.30278 0.0
C1349 C 0.92567 0.35736 0.29068 0.0
C1350 C 0.89663 0.34471 0.40508 0.0
C1351 C 0.92052 0.33291 0.27606 0.0
H1352 H 0.90601 0.30183 0.42542 0.0
H1353 H 0.87214 0.2931 0.33315 0.0
H1354 H 0.92964 0.33389 0.38346 0.0
H1355 H 0.92108 0.33832 0.42716 0.0
H1356 H 0.92467 0.32439 0.43741 0.0
H1357 H 0.87079 0.31047 0.29142 0.0
H1358 H 0.8802 0.3278 0.31528 0.0
H1359 H 0.88777 0.32291 0.26955 0.0
H1360 H 0.913 0.37054 0.3714 0.0
H1361 H 0.93318 0.36066 0.26266 0.0
H1362 H 0.90029 0.34067 0.43381 0.0
H1363 H 0.88618 0.33621 0.39462 0.0
H1364 H 0.89561 0.35355 0.41842 0.0
H1365 H 0.92503 0.32824 0.29944 0.0
H1366 H 0.92768 0.33779 0.24619 0.0
H1367 H 0.91049 0.3243 0.26291 0.0
C1368 C 0.69164 0.09509 0.40205 0.0
C1369 C 0.70177 0.10739 0.38086 0.0
C1370 C 0.67759 0.08883 0.38881 0.0
C1371 C 0.67358 0.09499 0.35339 0.0
C1372 C 0.68369 0.10762 0.33285 0.0
C1373 C 0.69764 0.11368 0.34691 0.0
C1374 C 0.66707 0.07543 0.41188 0.0
C1375 C 0.67985 0.11451 0.29502 0.0
C1376 C 0.64015 0.07071 0.28891 0.0
C1377 C 0.63047 0.07328 0.31158 0.0
C1378 C 0.6543 0.078 0.30126 0.0
C1379 C 0.65886 0.08804 0.33723 0.0
C1380 C 0.64924 0.09107 0.35889 0.0
C1381 C 0.63518 0.08369 0.34572 0.0
C1382 C 0.66429 0.07459 0.27696 0.0
C1383 C 0.65368 0.10172 0.39732 0.0
H1384 H 0.69473 0.09015 0.42823 0.0
H1385 H 0.70539 0.12317 0.33022 0.0
H1386 H 0.65843 0.07654 0.42657 0.0
H1387 H 0.66249 0.06696 0.38577 0.0
H1388 H 0.67175 0.0723 0.44015 0.0
H1389 H 0.68883 0.12461 0.28396 0.0
H1390 H 0.67586 0.10755 0.26435 0.0
H1391 H 0.67138 0.11632 0.30704 0.0
H1392 H 0.6366 0.06268 0.26255 0.0
H1393 H 0.62779 0.08575 0.36349 0.0
H1394 H 0.66841 0.06997 0.30213 0.0
H1395 H 0.67331 0.08421 0.26321 0.0
H1396 H 0.65928 0.06716 0.24784 0.0
H1397 H 0.65726 0.09819 0.42767 0.0
H1398 H 0.6451 0.10346 0.4087 0.0
H1399 H 0.66257 0.11179 0.3858 0.0
C1400 C 0.88592 0.58424 0.34075 0.0
C1401 C 0.89181 0.59359 0.37792 0.0
C1402 C 0.89175 0.57627 0.32528 0.0
C1403 C 0.90381 0.57775 0.34732 0.0
C1404 C 0.90951 0.58678 0.38593 0.0
C1405 C 0.90341 0.59456 0.40089 0.0
C1406 C 0.88527 0.56663 0.28438 0.0
C1407 C 0.92237 0.58862 0.4104 0.0
C1408 C 0.91506 0.55079 0.33307 0.0
C1409 C 0.926 0.55731 0.30101 0.0
C1410 C 0.9074 0.55708 0.3472 0.0
C1411 C 0.9108 0.57025 0.32906 0.0
C1412 C 0.9214 0.57658 0.29506 0.0
C1413 C 0.92884 0.57 0.28129 0.0
C1414 C 0.89605 0.5499 0.38302 0.0
C1415 C 0.92532 0.59062 0.27481 0.0
H1416 H 0.87693 0.58339 0.32285 0.0
H1417 H 0.90805 0.60179 0.4295 0.0
H1418 H 0.8926 0.57038 0.25464 0.0
H1419 H 0.88322 0.55604 0.29314 0.0
H1420 H 0.87535 0.56593 0.27322 0.0
H1421 H 0.92517 0.59562 0.44099 0.0
H1422 H 0.92075 0.5784 0.42208 0.0
H1423 H 0.93129 0.59305 0.38593 0.0
H1424 H 0.91276 0.54094 0.34837 0.0
H1425 H 0.9373 0.57513 0.25665 0.0
H1426 H 0.8863 0.54937 0.37101 0.0
H1427 H 0.89918 0.55598 0.41577 0.0
H1428 H 0.89387 0.53918 0.39066 0.0
H1429 H 0.91597 0.59051 0.26056 0.0
H1430 H 0.93321 0.59376 0.2468 0.0
H1431 H 0.92959 0.59862 0.30257 0.0
C1432 C 0.43 0.35933 0.27783 0.0
C1433 C 0.44296 0.36903 0.29649 0.0
C1434 C 0.42341 0.34527 0.29106 0.0
C1435 C 0.42995 0.34082 0.32364 0.0
C1436 C 0.44326 0.35046 0.34119 0.0
C1437 C 0.4496 0.36444 0.32741 0.0
C1438 C 0.40924 0.33527 0.27136 0.0
C1439 C 0.4506 0.3461 0.37572 0.0
C1440 C 0.40616 0.30831 0.39301 0.0
C1441 C 0.40733 0.29805 0.36838 0.0
C1442 C 0.41371 0.32233 0.37944 0.0
C1443 C 0.42265 0.32617 0.34037 0.0
C1444 C 0.42427 0.31594 0.31648 0.0
C1445 C 0.4166 0.30201 0.33077 0.0
C1446 C 0.41177 0.33298 0.40596 0.0
C1447 C 0.43375 0.31962 0.27485 0.0
H1448 H 0.42478 0.36279 0.25403 0.0
H1449 H 0.45962 0.37186 0.34199 0.0
H1450 H 0.40932 0.32622 0.25536 0.0
H1451 H 0.40142 0.33122 0.29971 0.0
H1452 H 0.40586 0.34023 0.24481 0.0
H1453 H 0.46125 0.35468 0.38401 0.0
H1454 H 0.4445 0.34264 0.40838 0.0
H1455 H 0.45135 0.33716 0.36203 0.0
H1456 H 0.39901 0.30534 0.42201 0.0
H1457 H 0.41759 0.29416 0.31152 0.0
H1458 H 0.40708 0.33754 0.3829 0.0
H1459 H 0.422 0.34161 0.41763 0.0
H1460 H 0.40495 0.32843 0.4368 0.0
H1461 H 0.42984 0.3235 0.24643 0.0
H1462 H 0.43447 0.31059 0.26175 0.0
H1463 H 0.44437 0.32811 0.28377 0.0
C1464 C 0.30201 0.88473 0.67771 0.0
C1465 C 0.29753 0.89035 0.64259 0.0
C1466 C 0.31609 0.89107 0.69047 0.0
C1467 C 0.32596 0.90331 0.66737 0.0
C1468 C 0.32161 0.90873 0.63059 0.0
C1469 C 0.30743 0.90221 0.61869 0.0
C1470 C 0.32031 0.88496 0.72982 0.0
C1471 C 0.33186 0.92169 0.60479 0.0
C1472 C 0.35954 0.92872 0.72898 0.0
C1473 C 0.36918 0.92577 0.70805 0.0
C1474 C 0.34538 0.9213 0.71674 0.0
C1475 C 0.34078 0.9107 0.68263 0.0
C1476 C 0.35038 0.90738 0.66247 0.0
C1477 C 0.36445 0.91492 0.6755 0.0
C1478 C 0.33542 0.92504 0.73939 0.0
C1479 C 0.34588 0.89615 0.62605 0.0
H1480 H 0.29445 0.87558 0.69646 0.0
H1481 H 0.30406 0.90663 0.59158 0.0
H1482 H 0.32882 0.88312 0.71857 0.0
H1483 H 0.32436 0.89244 0.75915 0.0
H1484 H 0.31149 0.875 0.7426 0.0
H1485 H 0.32694 0.92414 0.57544 0.0
H1486 H 0.33647 0.93068 0.62895 0.0
H1487 H 0.34053 0.92046 0.59105 0.0
H1488 H 0.3631 0.93709 0.75409 0.0
H1489 H 0.37182 0.91256 0.65904 0.0
H1490 H 0.32658 0.91567 0.75518 0.0
H1491 H 0.33103 0.929 0.71279 0.0
H1492 H 0.34052 0.93311 0.76673 0.0
H1493 H 0.33719 0.8862 0.63934 0.0
H1494 H 0.35451 0.89442 0.61521 0.0
H1495 H 0.34197 0.89904 0.59498 0.0
C1496 C 0.07324 0.4303 0.73549 0.0
C1497 C 0.07501 0.442 0.71109 0.0
C1498 C 0.08071 0.42364 0.72303 0.0
C1499 C 0.09019 0.42884 0.68538 0.0
C1500 C 0.09242 0.44097 0.66186 0.0
C1501 C 0.08481 0.4474 0.67498 0.0
C1502 C 0.07811 0.41076 0.74912 0.0
C1503 C 0.1025 0.44689 0.62177 0.0
C1504 C 0.11673 0.41686 0.67548 0.0
C1505 C 0.11037 0.406 0.64308 0.0
C1506 C 0.11041 0.42455 0.68895 0.0
C1507 C 0.09741 0.42131 0.66959 0.0
C1508 C 0.09114 0.41065 0.63578 0.0
C1509 C 0.09771 0.40313 0.62288 0.0
C1510 C 0.11746 0.43589 0.72486 0.0
C1511 C 0.07731 0.40694 0.61418 0.0
H1512 H 0.06567 0.42605 0.76333 0.0
H1513 H 0.08626 0.45646 0.65595 0.0
H1514 H 0.07352 0.40168 0.72532 0.0
H1515 H 0.08807 0.41199 0.76218 0.0
H1516 H 0.07094 0.40845 0.77897 0.0
H1517 H 0.10366 0.45685 0.60892 0.0
H1518 H 0.11289 0.44868 0.63228 0.0
H1519 H 0.09883 0.43933 0.59268 0.0
H1520 H 0.12652 0.41916 0.69128 0.0
H1521 H 0.09271 0.39474 0.59793 0.0
H1522 H 0.11088 0.43315 0.75643 0.0
H1523 H 0.11872 0.44582 0.71144 0.0
H1524 H 0.12786 0.43757 0.73491 0.0
H1525 H 0.06916 0.4032 0.64144 0.0
H1526 H 0.07406 0.39873 0.58722 0.0
H1527 H 0.07784 0.41628 0.59815 0.0
C1528 C 0.56733 0.63912 0.73121 0.0
C1529 C 0.55495 0.6291 0.71009 0.0
C1530 C 0.57375 0.65315 0.71783 0.0
C1531 C 0.56758 0.65726 0.68277 0.0
C1532 C 0.55474 0.64731 0.66298 0.0
C1533 C 0.5486 0.63334 0.67677 0.0
C1534 C 0.58744 0.66348 0.73984 0.0
C1535 C 0.54775 0.65131 0.62594 0.0
C1536 C 0.58059 0.69596 0.67304 0.0
C1537 C 0.59048 0.69993 0.63735 0.0
C1538 C 0.57274 0.68204 0.68725 0.0
C1539 C 0.57489 0.67185 0.66546 0.0
C1540 C 0.58447 0.6757 0.62821 0.0
C1541 C 0.59211 0.68969 0.61446 0.0
C1542 C 0.5625 0.67832 0.72667 0.0
C1543 C 0.58705 0.66511 0.60408 0.0
H1544 H 0.57232 0.63592 0.75683 0.0
H1545 H 0.539 0.62567 0.66036 0.0
H1546 H 0.59576 0.66762 0.71311 0.0
H1547 H 0.58681 0.67243 0.75413 0.0
H1548 H 0.5905 0.65877 0.76819 0.0
H1549 H 0.53728 0.64257 0.61669 0.0
H1550 H 0.54666 0.66024 0.63774 0.0
H1551 H 0.55428 0.65466 0.59418 0.0
H1552 H 0.57923 0.70381 0.69082 0.0
H1553 H 0.59977 0.69269 0.587 0.0
H1554 H 0.56607 0.67478 0.75701 0.0
H1555 H 0.55216 0.66959 0.71641 0.0
H1556 H 0.56129 0.68726 0.73757 0.0
H1557 H 0.59145 0.66075 0.62914 0.0
H1558 H 0.59436 0.66966 0.57439 0.0
H1559 H 0.5771 0.65634 0.59113 0.0
C1560 C 0.3644 0.44555 0.67386 0.0
C1561 C 0.36859 0.43965 0.709 0.0
C1562 C 0.35047 0.4392 0.6594 0.0
C1563 C 0.34043 0.42669 0.68078 0.0
C1564 C 0.34448 0.42095 0.71741 0.0
C1565 C 0.35853 0.42748 0.731 0.0
C1566 C 0.34657 0.44565 0.62022 0.0
C1567 C 0.33405 0.4077 0.74141 0.0
C1568 C 0.30199 0.41501 0.67002 0.0
C1569 C 0.29753 0.40442 0.63656 0.0
C1570 C 0.31596 0.42251 0.68414 0.0
C1571 C 0.32575 0.41943 0.66413 0.0
C1572 C 0.32144 0.40914 0.62904 0.0
C1573 C 0.30737 0.40173 0.61575 0.0
C1574 C 0.32013 0.4334 0.72162 0.0
C1575 C 0.33162 0.40567 0.6065 0.0
H1576 H 0.3721 0.45494 0.65654 0.0
H1577 H 0.36167 0.42285 0.75812 0.0
H1578 H 0.34273 0.43842 0.5902 0.0
H1579 H 0.33799 0.44742 0.63116 0.0
H1580 H 0.35549 0.45571 0.60857 0.0
H1581 H 0.33874 0.40493 0.77065 0.0
H1582 H 0.32526 0.40876 0.75496 0.0
H1583 H 0.32965 0.39898 0.71614 0.0
H1584 H 0.29447 0.41716 0.68639 0.0
H1585 H 0.30402 0.39357 0.58993 0.0
H1586 H 0.32892 0.44347 0.70956 0.0
H1587 H 0.32379 0.43022 0.75267 0.0
H1588 H 0.3114 0.43501 0.73211 0.0
H1589 H 0.34058 0.41521 0.59208 0.0
H1590 H 0.32677 0.39791 0.57815 0.0
H1591 H 0.33579 0.40143 0.6329 0.0
C1592 C 0.58153 0.88335 0.67642 0.0
C1593 C 0.59281 0.88988 0.64562 0.0
C1594 C 0.57383 0.88972 0.68929 0.0
C1595 C 0.57752 0.90295 0.67101 0.0
C1596 C 0.58849 0.90931 0.6383 0.0
C1597 C 0.59599 0.90268 0.62591 0.0
C1598 C 0.56212 0.88254 0.72388 0.0
C1599 C 0.59269 0.92339 0.61786 0.0
C1600 C 0.55242 0.91679 0.67796 0.0
C1601 C 0.55787 0.92611 0.71538 0.0
C1602 C 0.55849 0.90892 0.66383 0.0
C1603 C 0.57033 0.91043 0.68759 0.0
C1604 C 0.57558 0.91944 0.72644 0.0
C1605 C 0.56927 0.92715 0.73995 0.0
C1606 C 0.5525 0.89933 0.62254 0.0
C1607 C 0.58817 0.92129 0.75277 0.0
H1608 H 0.57897 0.87344 0.69175 0.0
H1609 H 0.60471 0.90781 0.60221 0.0
H1610 H 0.56488 0.88864 0.75655 0.0
H1611 H 0.55249 0.88197 0.71031 0.0
H1612 H 0.55989 0.87184 0.73213 0.0
H1613 H 0.60091 0.92657 0.59098 0.0
H1614 H 0.58353 0.92333 0.6021 0.0
H1615 H 0.59663 0.93135 0.64579 0.0
H1616 H 0.5436 0.91589 0.6588 0.0
H1617 H 0.57357 0.93435 0.76878 0.0
H1618 H 0.55032 0.88872 0.63172 0.0
H1619 H 0.5602 0.9031 0.59385 0.0
H1620 H 0.54274 0.89867 0.6097 0.0
H1621 H 0.58646 0.91106 0.76484 0.0
H1622 H 0.59061 0.92824 0.78334 0.0
H1623 H 0.59736 0.92577 0.72945 0.0
C1624 C 0.07136 0.6404 0.73491 0.0
C1625 C 0.07348 0.63037 0.71264 0.0
C1626 C 0.079 0.65447 0.72194 0.0
C1627 C 0.08901 0.6586 0.68596 0.0
C1628 C 0.09164 0.64863 0.66486 0.0
C1629 C 0.08384 0.63465 0.67844 0.0
C1630 C 0.07597 0.66483 0.74545 0.0
C1631 C 0.10229 0.65263 0.62665 0.0
C1632 C 0.09705 0.69128 0.61883 0.0
C1633 C 0.1094 0.7013 0.64011 0.0
C1634 C 0.09042 0.6773 0.63293 0.0
C1635 C 0.09632 0.67324 0.66909 0.0
C1636 C 0.10901 0.68322 0.68964 0.0
C1637 C 0.11539 0.69712 0.67493 0.0
C1638 C 0.07692 0.66693 0.61 0.0
C1639 C 0.11566 0.67928 0.72805 0.0
H1640 H 0.06336 0.63718 0.76125 0.0
H1641 H 0.08557 0.62698 0.66108 0.0
H1642 H 0.08573 0.67372 0.75905 0.0
H1643 H 0.07159 0.66906 0.71981 0.0
H1644 H 0.06847 0.66011 0.77456 0.0
H1645 H 0.10376 0.64383 0.61604 0.0
H1646 H 0.09895 0.65622 0.59584 0.0
H1647 H 0.11247 0.66141 0.638 0.0
H1648 H 0.09233 0.69442 0.59202 0.0
H1649 H 0.12494 0.70478 0.69158 0.0
H1650 H 0.06842 0.66261 0.6361 0.0
H1651 H 0.07778 0.6581 0.5958 0.0
H1652 H 0.07395 0.67165 0.58139 0.0
H1653 H 0.10867 0.67559 0.7587 0.0
H1654 H 0.12588 0.68814 0.7389 0.0
H1655 H 0.1172 0.6706 0.71669 0.0
C1656 C 0.09137 0.33643 0.73895 0.0
C1657 C 0.10478 0.34762 0.7309 0.0
C1658 C 0.08741 0.33048 0.7835 0.0
C1659 C 0.09724 0.33559 0.82029 0.0
C1660 C 0.11085 0.34675 0.81195 0.0
C1661 C 0.11438 0.35273 0.76763 0.0
C1662 C 0.07272 0.31878 0.79131 0.0
C1663 C 0.12179 0.35223 0.84963 0.0
C1664 C 0.08676 0.32829 0.94787 0.0
C1665 C 0.08851 0.31684 0.9565 0.0
C1666 C 0.08908 0.33422 0.9032 0.0
C1667 C 0.09366 0.32883 0.8669 0.0
C1668 C 0.0956 0.31738 0.8758 0.0
C1669 C 0.09284 0.31144 0.92021 0.0
C1670 C 0.0866 0.34623 0.89477 0.0
C1671 C 0.10091 0.31158 0.83866 0.0
H1672 H 0.0839 0.33256 0.71076 0.0
H1673 H 0.1248 0.36133 0.76149 0.0
H1674 H 0.07281 0.30917 0.80122 0.0
H1675 H 0.06791 0.32142 0.82045 0.0
H1676 H 0.06611 0.31656 0.75994 0.0
H1677 H 0.13191 0.36095 0.8374 0.0
H1678 H 0.11822 0.35589 0.87961 0.0
H1679 H 0.12349 0.34376 0.86236 0.0
H1680 H 0.08329 0.3324 0.97571 0.0
H1681 H 0.09431 0.30264 0.92679 0.0
H1682 H 0.07935 0.34383 0.86513 0.0
H1683 H 0.09653 0.35566 0.88534 0.0
H1684 H 0.0822 0.34863 0.92571 0.0
H1685 H 0.09381 0.30815 0.80829 0.0
H1686 H 0.10185 0.30263 0.85125 0.0
H1687 H 0.11128 0.31981 0.8264 0.0
C1688 C 0.66843 0.76726 0.9287 0.0
C1689 C 0.68104 0.76806 0.9406 0.0
C1690 C 0.66331 0.76411 0.88305 0.0
C1691 C 0.67078 0.76126 0.84897 0.0
C1692 C 0.68322 0.76147 0.86143 0.0
C1693 C 0.68833 0.7651 0.90691 0.0
C1694 C 0.65014 0.76427 0.87093 0.0
C1695 C 0.69122 0.75801 0.82662 0.0
C1696 C 0.64962 0.7422 0.7426 0.0
C1697 C 0.65386 0.75306 0.71046 0.0
C1698 C 0.65556 0.74459 0.78704 0.0
C1699 C 0.66564 0.75828 0.80019 0.0
C1700 C 0.67026 0.76922 0.76733 0.0
C1701 C 0.66445 0.76643 0.72251 0.0
C1702 C 0.65069 0.73255 0.82042 0.0
C1703 C 0.68078 0.78401 0.7803 0.0
H1704 H 0.66287 0.7697 0.9546 0.0
H1705 H 0.69806 0.76564 0.91618 0.0
H1706 H 0.65234 0.77205 0.8432 0.0
H1707 H 0.64222 0.75398 0.8572 0.0
H1708 H 0.64567 0.76684 0.90129 0.0
H1709 H 0.70017 0.7577 0.84269 0.0
H1710 H 0.68424 0.74777 0.81034 0.0
H1711 H 0.69521 0.76588 0.79846 0.0
H1712 H 0.64143 0.73184 0.7332 0.0
H1713 H 0.66758 0.77486 0.69787 0.0
H1714 H 0.64467 0.73375 0.84902 0.0
H1715 H 0.65974 0.73243 0.83628 0.0
H1716 H 0.64398 0.72238 0.80321 0.0
H1717 H 0.67643 0.78765 0.8081 0.0
H1718 H 0.68366 0.79122 0.75031 0.0
H1719 H 0.69035 0.78455 0.79428 0.0
C1720 C 0.24129 0.92337 0.94075 0.0
C1721 C 0.23453 0.91234 0.97221 0.0
C1722 C 0.24506 0.9212 0.89636 0.0
C1723 C 0.2415 0.90758 0.88257 0.0
C1724 C 0.23503 0.89647 0.91478 0.0
C1725 C 0.23181 0.89904 0.9596 0.0
C1726 C 0.25239 0.93341 0.86371 0.0
C1727 C 0.23079 0.88175 0.90107 0.0
C1728 C 0.23571 0.89931 0.75359 0.0
C1729 C 0.24754 0.89853 0.74176 0.0
C1730 C 0.2336 0.9022 0.79939 0.0
C1731 C 0.2438 0.90483 0.8337 0.0
C1732 C 0.25605 0.90464 0.82135 0.0
C1733 C 0.25766 0.90124 0.77569 0.0
C1734 C 0.22025 0.90201 0.81139 0.0
C1735 C 0.26739 0.90788 0.85644 0.0
H1736 H 0.24339 0.93367 0.95063 0.0
H1737 H 0.2264 0.89049 0.98377 0.0
H1738 H 0.2616 0.93357 0.84797 0.0
H1739 H 0.24528 0.93239 0.83497 0.0
H1740 H 0.25584 0.9435 0.8815 0.0
H1741 H 0.22635 0.87439 0.93066 0.0
H1742 H 0.22288 0.87824 0.87301 0.0
H1743 H 0.23985 0.88126 0.88717 0.0
H1744 H 0.22781 0.89705 0.72748 0.0
H1745 H 0.26685 0.9007 0.76645 0.0
H1746 H 0.2226 0.91225 0.82554 0.0
H1747 H 0.21459 0.89413 0.83875 0.0
H1748 H 0.21328 0.89958 0.78086 0.0
H1749 H 0.27063 0.91805 0.87328 0.0
H1750 H 0.27668 0.90824 0.84047 0.0
H1751 H 0.2634 0.89988 0.88416 0.0
C1752 C 0.31337 0.07402 0.09067 0.0
C1753 C 0.31941 0.08489 0.05835 0.0
C1754 C 0.31882 0.07563 0.13567 0.0
C1755 C 0.33022 0.08862 0.1491 0.0
C1756 C 0.33652 0.09955 0.11621 0.0
C1757 C 0.33118 0.09746 0.07089 0.0
C1758 C 0.31216 0.06356 0.16912 0.0
C1759 C 0.34846 0.11366 0.12951 0.0
C1760 C 0.33412 0.0988 0.27646 0.0
C1761 C 0.34592 0.09804 0.28887 0.0
C1762 C 0.32878 0.09559 0.23113 0.0
C1763 C 0.33513 0.09105 0.19809 0.0
C1764 C 0.34657 0.08951 0.21138 0.0
C1765 C 0.35201 0.0933 0.2564 0.0
C1766 C 0.31679 0.09772 0.21799 0.0
C1767 C 0.35327 0.08419 0.17775 0.0
H1768 H 0.30428 0.06428 0.08079 0.0
H1769 H 0.33573 0.10591 0.04599 0.0
H1770 H 0.32024 0.06189 0.18572 0.0
H1771 H 0.3068 0.06592 0.19717 0.0
H1772 H 0.30444 0.05377 0.15177 0.0
H1773 H 0.3523 0.12099 0.09969 0.0
H1774 H 0.34509 0.11822 0.15741 0.0
H1775 H 0.35724 0.11266 0.14344 0.0
H1776 H 0.32953 0.10264 0.30148 0.0
H1777 H 0.36112 0.09268 0.26617 0.0
H1778 H 0.30805 0.08795 0.20394 0.0
H1779 H 0.32014 0.10569 0.19021 0.0
H1780 H 0.31293 0.10114 0.24791 0.0
H1781 H 0.34523 0.07445 0.161 0.0
H1782 H 0.36102 0.08212 0.195 0.0
H1783 H 0.35862 0.09194 0.14982 0.0
C1784 C 0.88521 0.24122 0.24766 0.0
C1785 C 0.89414 0.2438 0.28557 0.0
C1786 C 0.88862 0.23882 0.20308 0.0
C1787 C 0.90147 0.23931 0.19574 0.0
C1788 C 0.9107 0.2422 0.23363 0.0
C1789 C 0.90684 0.24423 0.2783 0.0
C1790 C 0.87829 0.23538 0.16409 0.0
C1791 C 0.92461 0.24306 0.22697 0.0
C1792 C 0.9036 0.21855 0.09458 0.0
C1793 C 0.90972 0.22869 0.05981 0.0
C1794 C 0.90085 0.22189 0.13876 0.0
C1795 C 0.9047 0.23582 0.14906 0.0
C1796 C 0.91103 0.24617 0.1142 0.0
C1797 C 0.91326 0.24243 0.0696 0.0
C1798 C 0.89365 0.21044 0.17425 0.0
C1799 C 0.91556 0.26119 0.1242 0.0
H1800 H 0.87531 0.24077 0.25301 0.0
H1801 H 0.91383 0.24633 0.30736 0.0
H1802 H 0.88318 0.24282 0.13504 0.0
H1803 H 0.87503 0.22484 0.15036 0.0
H1804 H 0.86885 0.23565 0.17541 0.0
H1805 H 0.93103 0.24645 0.25903 0.0
H1806 H 0.92302 0.23275 0.21654 0.0
H1807 H 0.93047 0.25046 0.19859 0.0
H1808 H 0.90079 0.20789 0.08695 0.0
H1809 H 0.91815 0.25029 0.0429 0.0
H1810 H 0.88385 0.2099 0.18581 0.0
H1811 H 0.90035 0.2127 0.20533 0.0
H1812 H 0.89113 0.20009 0.1604 0.0
H1813 H 0.90641 0.2622 0.13359 0.0
H1814 H 0.92088 0.26806 0.09406 0.0
H1815 H 0.92275 0.26489 0.15438 0.0
C1816 C 0.75803 0.64391 0.23983 0.0
C1817 C 0.75391 0.64951 0.27609 0.0
C1818 C 0.76042 0.64954 0.19496 0.0
C1819 C 0.75831 0.66087 0.18564 0.0
C1820 C 0.7537 0.6663 0.22172 0.0
C1821 C 0.75175 0.66068 0.26675 0.0
C1822 C 0.76574 0.64371 0.15799 0.0
C1823 C 0.75104 0.67817 0.2129 0.0
C1824 C 0.77933 0.68544 0.08824 0.0
C1825 C 0.76987 0.68059 0.05113 0.0
C1826 C 0.77569 0.67905 0.13192 0.0
C1827 C 0.7621 0.66774 0.13924 0.0
C1828 C 0.75243 0.66282 0.10197 0.0
C1829 C 0.75651 0.66918 0.05801 0.0
C1830 C 0.78648 0.68436 0.17012 0.0
C1831 C 0.73775 0.65099 0.10877 0.0
H1832 H 0.7598 0.63532 0.24684 0.0
H1833 H 0.74844 0.66496 0.29454 0.0
H1834 H 0.75887 0.64056 0.12706 0.0
H1835 H 0.77626 0.65185 0.14662 0.0
H1836 H 0.76637 0.63457 0.17043 0.0
H1837 H 0.7462 0.68028 0.24326 0.0
H1838 H 0.76099 0.68775 0.20483 0.0
H1839 H 0.74413 0.67584 0.18233 0.0
H1840 H 0.78971 0.6942 0.08292 0.0
H1841 H 0.74916 0.66552 0.02948 0.0
H1842 H 0.788 0.6758 0.18307 0.0
H1843 H 0.78284 0.68806 0.19983 0.0
H1844 H 0.79669 0.69303 0.15835 0.0
H1845 H 0.73789 0.64145 0.11934 0.0
H1846 H 0.73137 0.64869 0.07679 0.0
H1847 H 0.73265 0.65357 0.13716 0.0
C1848 C 0.92511 0.69238 0.11562 0.0
C1849 C 0.91517 0.68448 0.08178 0.0
C1850 C 0.92378 0.68757 0.16144 0.0
C1851 C 0.91199 0.67478 0.17403 0.0
C1852 C 0.90196 0.66672 0.13984 0.0
C1853 C 0.9038 0.67157 0.0939 0.0
C1854 C 0.93494 0.69621 0.19642 0.0
C1855 C 0.88908 0.65316 0.15208 0.0
C1856 C 0.91071 0.65433 0.28123 0.0
C1857 C 0.90337 0.65797 0.31246 0.0
C1858 C 0.91431 0.66035 0.23693 0.0
C1859 C 0.90998 0.66983 0.22299 0.0
C1860 C 0.90295 0.67388 0.25503 0.0
C1861 C 0.89992 0.66804 0.29978 0.0
C1862 C 0.92224 0.65614 0.20447 0.0
C1863 C 0.89789 0.68371 0.24116 0.0
H1864 H 0.93396 0.70235 0.10617 0.0
H1865 H 0.89604 0.66553 0.06786 0.0
H1866 H 0.93054 0.69981 0.22413 0.0
H1867 H 0.93882 0.68981 0.21331 0.0
H1868 H 0.94389 0.70546 0.18035 0.0
H1869 H 0.88216 0.64829 0.12166 0.0
H1870 H 0.89205 0.64572 0.16625 0.0
H1871 H 0.88312 0.65496 0.1795 0.0
H1872 H 0.91336 0.64652 0.29116 0.0
H1873 H 0.89405 0.67067 0.32375 0.0
H1874 H 0.9311 0.66547 0.18854 0.0
H1875 H 0.91532 0.6497 0.17586 0.0
H1876 H 0.92631 0.65005 0.22248 0.0
H1877 H 0.90659 0.69348 0.22693 0.0
H1878 H 0.89319 0.68633 0.27074 0.0
H1879 H 0.88997 0.67888 0.2133 0.0
C1880 C 0.32897 0.22991 0.07342 0.0
C1881 C 0.31702 0.23057 0.06254 0.0
C1882 C 0.33455 0.23289 0.11862 0.0
C1883 C 0.32821 0.23697 0.15325 0.0
C1884 C 0.31651 0.23826 0.14171 0.0
C1885 C 0.31095 0.23487 0.09672 0.0
C1886 C 0.34692 0.2312 0.12975 0.0
C1887 C 0.3097 0.243 0.17708 0.0
C1888 C 0.33394 0.23171 0.28045 0.0
C1889 C 0.3452 0.24477 0.29195 0.0
C1890 C 0.32825 0.22903 0.23541 0.0
C1891 C 0.33373 0.23978 0.20166 0.0
C1892 C 0.34465 0.25317 0.21399 0.0
C1893 C 0.35038 0.25544 0.25873 0.0
C1894 C 0.31675 0.21455 0.22341 0.0
C1895 C 0.35049 0.26503 0.17962 0.0
H1896 H 0.33357 0.22643 0.04723 0.0
H1897 H 0.30173 0.23546 0.08833 0.0
H1898 H 0.3556 0.2411 0.14329 0.0
H1899 H 0.34408 0.22325 0.15736 0.0
H1900 H 0.35067 0.22799 0.09897 0.0
H1901 H 0.30124 0.24431 0.16173 0.0
H1902 H 0.30526 0.2353 0.20565 0.0
H1903 H 0.31756 0.25303 0.19268 0.0
H1904 H 0.33006 0.22341 0.30589 0.0
H1905 H 0.35908 0.26556 0.26764 0.0
H1906 H 0.32028 0.2102 0.19529 0.0
H1907 H 0.30753 0.21489 0.21021 0.0
H1908 H 0.31353 0.2074 0.25368 0.0
H1909 H 0.35556 0.2627 0.15054 0.0
H1910 H 0.35826 0.27504 0.19571 0.0
H1911 H 0.34198 0.26629 0.16458 0.0
C1912 C 0.7775 0.08999 0.09836 0.0
C1913 C 0.76807 0.08581 0.06122 0.0
C1914 C 0.77378 0.09212 0.1428 0.0
C1915 C 0.76015 0.08971 0.15071 0.0
C1916 C 0.75043 0.0851 0.11369 0.0
C1917 C 0.75457 0.08339 0.06914 0.0
C1918 C 0.78458 0.09739 0.18095 0.0
C1919 C 0.73572 0.08213 0.12107 0.0
C1920 C 0.74955 0.08669 0.27784 0.0
C1921 C 0.75165 0.10003 0.28654 0.0
C1922 C 0.75173 0.08296 0.23323 0.0
C1923 C 0.75648 0.09294 0.197 0.0
C1924 C 0.75858 0.10639 0.20571 0.0
C1925 C 0.75597 0.10971 0.25014 0.0
C1926 C 0.74908 0.06841 0.22495 0.0
C1927 C 0.76399 0.11746 0.16846 0.0
H1928 H 0.78799 0.09196 0.09242 0.0
H1929 H 0.74721 0.08004 0.04064 0.0
H1930 H 0.78647 0.10766 0.19333 0.0
H1931 H 0.78075 0.09019 0.21102 0.0
H1932 H 0.79463 0.09852 0.16928 0.0
H1933 H 0.72912 0.07754 0.08977 0.0
H1934 H 0.73089 0.07486 0.15065 0.0
H1935 H 0.7358 0.09189 0.13001 0.0
H1936 H 0.74609 0.07914 0.30577 0.0
H1937 H 0.75771 0.12008 0.2567 0.0
H1938 H 0.759 0.06875 0.21659 0.0
H1939 H 0.74205 0.0637 0.1947 0.0
H1940 H 0.74434 0.06157 0.25562 0.0
H1941 H 0.77442 0.11961 0.15679 0.0
H1942 H 0.76486 0.12736 0.18072 0.0
H1943 H 0.75702 0.11377 0.13778 0.0
C1944 C 0.64294 0.90025 0.78173 0.0
C1945 C 0.65057 0.89785 0.74779 0.0
C1946 C 0.64791 0.90379 0.82738 0.0
C1947 C 0.6606 0.90449 0.83974 0.0
C1948 C 0.6684 0.9022 0.80544 0.0
C1949 C 0.66339 0.89911 0.75965 0.0
C1950 C 0.63954 0.90665 0.86246 0.0
C1951 C 0.68185 0.90258 0.81742 0.0
C1952 C 0.68138 0.92372 0.94646 0.0
C1953 C 0.67759 0.91281 0.9781 0.0
C1954 C 0.67536 0.92127 0.90214 0.0
C1955 C 0.66568 0.90749 0.88858 0.0
C1956 C 0.66148 0.89648 0.921 0.0
C1957 C 0.66735 0.89932 0.96573 0.0
C1958 C 0.67978 0.93335 0.86926 0.0
C1959 C 0.6514 0.88161 0.90758 0.0
H1960 H 0.63305 0.89935 0.77251 0.0
H1961 H 0.66922 0.89711 0.73358 0.0
H1962 H 0.63584 0.89871 0.89036 0.0
H1963 H 0.64617 0.91693 0.87905 0.0
H1964 H 0.63036 0.90655 0.84655 0.0
H1965 H 0.68655 0.90036 0.78693 0.0
H1966 H 0.68948 0.91295 0.83142 0.0
H1967 H 0.67994 0.89482 0.84491 0.0
H1968 H 0.68932 0.93417 0.95611 0.0
H1969 H 0.66458 0.89086 0.98998 0.0
H1970 H 0.67051 0.93308 0.8535 0.0
H1971 H 0.68603 0.93259 0.84056 0.0
H1972 H 0.68612 0.94354 0.88687 0.0
H1973 H 0.64167 0.8807 0.89352 0.0
H1974 H 0.64872 0.87435 0.93735 0.0
H1975 H 0.65604 0.87831 0.87971 0.0
C1976 C 0.09031 0.75327 0.72408 0.0
C1977 C 0.10375 0.75541 0.71737 0.0
C1978 C 0.08608 0.75536 0.76806 0.0
C1979 C 0.09567 0.7601 0.80554 0.0
C1980 C 0.10934 0.76256 0.79841 0.0
C1981 C 0.11313 0.76 0.75469 0.0
C1982 C 0.07133 0.75233 0.77464 0.0
C1983 C 0.12004 0.76803 0.83686 0.0
C1984 C 0.09109 0.7795 0.90625 0.0
C1985 C 0.08697 0.76972 0.94232 0.0
C1986 C 0.09367 0.77639 0.86143 0.0
C1987 C 0.09174 0.76304 0.85193 0.0
C1988 C 0.08714 0.75294 0.88781 0.0
C1989 C 0.08501 0.75647 0.93283 0.0
C1990 C 0.09897 0.7876 0.8247 0.0
C1991 C 0.08467 0.73849 0.87877 0.0
H1992 H 0.083 0.74958 0.69539 0.0
H1993 H 0.12357 0.76176 0.74951 0.0
H1994 H 0.06625 0.7446 0.80287 0.0
H1995 H 0.07132 0.76193 0.78532 0.0
H1996 H 0.06501 0.74825 0.74253 0.0
H1997 H 0.13032 0.76969 0.82526 0.0
H1998 H 0.12145 0.77805 0.84999 0.0
H1999 H 0.1164 0.76063 0.86639 0.0
H2000 H 0.09272 0.78979 0.9134 0.0
H2001 H 0.0817 0.74884 0.96047 0.0
H2002 H 0.09216 0.7839 0.79364 0.0
H2003 H 0.10954 0.79009 0.81349 0.0
H2004 H 0.09949 0.79731 0.8373 0.0
H2005 H 0.07782 0.7339 0.84808 0.0
H2006 H 0.07984 0.73147 0.90899 0.0
H2007 H 0.09469 0.73898 0.87081 0.0
C2008 C 0.22188 0.31304 0.92295 0.0
C2009 C 0.23141 0.31801 0.95984 0.0
C2010 C 0.22563 0.31896 0.87861 0.0
C2011 C 0.23936 0.32991 0.87052 0.0
C2012 C 0.24917 0.33476 0.90732 0.0
C2013 C 0.24501 0.32888 0.95181 0.0
C2014 C 0.21474 0.31373 0.84073 0.0
C2015 C 0.26399 0.34621 0.89972 0.0
C2016 C 0.24962 0.33705 0.74307 0.0
C2017 C 0.24781 0.34847 0.73434 0.0
C2018 C 0.2475 0.33125 0.78781 0.0
C2019 C 0.24311 0.33677 0.82419 0.0
C2020 C 0.24136 0.34835 0.81552 0.0
C2021 C 0.24389 0.35415 0.77091 0.0
C2022 C 0.24976 0.31909 0.79603 0.0
C2023 C 0.23636 0.35435 0.85297 0.0
H2024 H 0.21132 0.3047 0.92903 0.0
H2025 H 0.25244 0.33266 0.98014 0.0
H2026 H 0.21319 0.32234 0.82841 0.0
H2027 H 0.21829 0.31011 0.81056 0.0
H2028 H 0.20456 0.30505 0.85262 0.0
H2029 H 0.27059 0.34809 0.93093 0.0
H2030 H 0.26864 0.34355 0.87012 0.0
H2031 H 0.26419 0.35602 0.89066 0.0
H2032 H 0.25276 0.33271 0.71502 0.0
H2033 H 0.24239 0.36293 0.76437 0.0
H2034 H 0.2397 0.30968 0.80443 0.0
H2035 H 0.25677 0.32123 0.82622 0.0
H2036 H 0.25434 0.31681 0.76529 0.0
H2037 H 0.22584 0.34634 0.8648 0.0
H2038 H 0.23585 0.36358 0.84083 0.0
H2039 H 0.24337 0.35741 0.88352 0.0
C2040 C 0.00213 0.43537 0.61733 0.0
C2041 C 0.0137 0.43402 0.62843 0.0
C2042 C 0.99648 0.43242 0.57223 0.0
C2043 C 0.00233 0.42767 0.53795 0.0
C2044 C 0.01358 0.42567 0.54979 0.0
C2045 C 0.01925 0.42905 0.59465 0.0
C2046 C 0.98461 0.43488 0.56078 0.0
C2047 C 0.01984 0.42022 0.51482 0.0
C2048 C 0.97975 0.40967 0.43276 0.0
C2049 C 0.98543 0.42021 0.39909 0.0
C2050 C 0.9854 0.41182 0.4776 0.0
C2051 C 0.99679 0.42497 0.48955 0.0
C2052 C 0.00277 0.43558 0.4554 0.0
C2053 C 0.99712 0.43301 0.41031 0.0
C2054 C 0.979 0.40009 0.51242 0.0
C2055 C 0.01479 0.44981 0.46699 0.0
H2056 H 0.99795 0.43937 0.6432 0.0
H2057 H 0.02817 0.42796 0.60322 0.0
H2058 H 0.98785 0.44282 0.53296 0.0
H2059 H 0.9756 0.42519 0.54739 0.0
H2060 H 0.98117 0.43848 0.59137 0.0
H2061 H 0.02791 0.41835 0.53047 0.0
H2062 H 0.01159 0.41035 0.49947 0.0
H2063 H 0.02465 0.42779 0.48603 0.0
H2064 H 0.97073 0.39973 0.42409 0.0
H2065 H 0.00141 0.44122 0.38453 0.0
H2066 H 0.97429 0.40293 0.54133 0.0
H2067 H 0.98715 0.39828 0.52764 0.0
H2068 H 0.97082 0.39023 0.49669 0.0
H2069 H 0.01167 0.45458 0.49494 0.0
H2070 H 0.01832 0.45688 0.43649 0.0
H2071 H 0.02371 0.44894 0.48026 0.0
C2072 C 0.56677 0.56332 0.406 0.0
C2073 C 0.57966 0.56462 0.39494 0.0
C2074 C 0.56403 0.56612 0.45121 0.0
C2075 C 0.57457 0.57072 0.4856 0.0
C2076 C 0.58782 0.57269 0.4738 0.0
C2077 C 0.59013 0.5694 0.42885 0.0
C2078 C 0.54968 0.56365 0.46265 0.0
C2079 C 0.59949 0.57801 0.50889 0.0
C2080 C 0.56969 0.58824 0.5915 0.0
C2081 C 0.56482 0.57756 0.62465 0.0
C2082 C 0.57336 0.58631 0.54663 0.0
C2083 C 0.57168 0.57323 0.53411 0.0
C2084 C 0.56699 0.56248 0.56775 0.0
C2085 C 0.5638 0.56485 0.61292 0.0
C2086 C 0.57877 0.59819 0.51239 0.0
C2087 C 0.56482 0.5483 0.5555 0.0
H2088 H 0.55862 0.55944 0.37998 0.0
H2089 H 0.60013 0.57045 0.42025 0.0
H2090 H 0.54494 0.55563 0.49023 0.0
H2091 H 0.55038 0.57331 0.47636 0.0
H2092 H 0.54267 0.56015 0.43198 0.0
H2093 H 0.60946 0.57997 0.4932 0.0
H2094 H 0.60109 0.58782 0.52475 0.0
H2095 H 0.59672 0.57033 0.53732 0.0
H2096 H 0.57053 0.5981 0.60063 0.0
H2097 H 0.55987 0.55654 0.63835 0.0
H2098 H 0.57126 0.5955 0.48343 0.0
H2099 H 0.58874 0.60004 0.49715 0.0
H2100 H 0.58046 0.60799 0.52865 0.0
H2101 H 0.55699 0.54365 0.5273 0.0
H2102 H 0.5612 0.5411 0.58565 0.0
H2103 H 0.57465 0.54924 0.54233 0.0
C2104 C 0.42345 0.97564 0.5714 0.0
C2105 C 0.41925 0.98124 0.60742 0.0
C2106 C 0.4259 0.98124 0.52647 0.0
C2107 C 0.42375 0.99252 0.51684 0.0
C2108 C 0.41905 0.99794 0.55267 0.0
C2109 C 0.41704 0.99236 0.59777 0.0
C2110 C 0.43132 0.97541 0.4898 0.0
C2111 C 0.41635 0.00977 0.5435 0.0
C2112 C 0.44496 0.01713 0.41981 0.0
C2113 C 0.43559 0.01228 0.38246 0.0
C2114 C 0.44123 0.01073 0.46343 0.0
C2115 C 0.42764 0.99939 0.47045 0.0
C2116 C 0.41806 0.99446 0.43293 0.0
C2117 C 0.42223 0.00085 0.38904 0.0
C2118 C 0.45192 0.01606 0.50193 0.0
C2119 C 0.40338 0.9826 0.4394 0.0
H2120 H 0.42526 0.96708 0.57866 0.0
H2121 H 0.41366 0.99663 0.62536 0.0
H2122 H 0.42453 0.97227 0.45868 0.0
H2123 H 0.44186 0.98357 0.47868 0.0
H2124 H 0.43193 0.96628 0.50242 0.0
H2125 H 0.41141 0.01186 0.57363 0.0
H2126 H 0.4263 0.01938 0.53562 0.0
H2127 H 0.40951 0.00742 0.51272 0.0
H2128 H 0.45534 0.02592 0.41473 0.0
H2129 H 0.41494 0.99718 0.36032 0.0
H2130 H 0.45344 0.00752 0.5151 0.0
H2131 H 0.4482 0.01975 0.53143 0.0
H2132 H 0.46216 0.02474 0.49037 0.0
H2133 H 0.40353 0.97308 0.45024 0.0
H2134 H 0.39708 0.98026 0.4072 0.0
H2135 H 0.39818 0.98516 0.46749 0.0
C2136 C 0.56552 2e-05 0.63177 0.0
C2137 C 0.56868 0.98974 0.64446 0.0
C2138 C 0.56862 0.00582 0.58697 0.0
C2139 C 0.57541 0.00151 0.55486 0.0
C2140 C 0.57942 0.99179 0.56876 0.0
C2141 C 0.57577 0.98583 0.61312 0.0
C2142 C 0.56389 0.01592 0.57314 0.0
C2143 C 0.5871 0.98728 0.53622 0.0
C2144 C 0.56937 0.00353 0.42582 0.0
C2145 C 0.58093 0.01632 0.41381 0.0
C2146 C 0.56742 0.99862 0.47171 0.0
C2147 C 0.57753 0.00649 0.50593 0.0
C2148 C 0.58951 0.01914 0.49343 0.0
C2149 C 0.59095 0.02403 0.44768 0.0
C2150 C 0.55435 0.98523 0.48387 0.0
C2151 C 0.60076 0.02756 0.52844 0.0
H2152 H 0.55985 0.00288 0.65583 0.0
H2153 H 0.57821 0.97786 0.62307 0.0
H2154 H 0.57274 0.0256 0.55905 0.0
H2155 H 0.55597 0.01127 0.54519 0.0
H2156 H 0.55929 0.01867 0.60271 0.0
H2157 H 0.59092 0.98097 0.55415 0.0
H2158 H 0.5801 0.98099 0.50757 0.0
H2159 H 0.59611 0.9965 0.52036 0.0
H2160 H 0.56155 0.99765 0.39975 0.0
H2161 H 0.59994 0.0339 0.43829 0.0
H2162 H 0.54851 0.98721 0.51127 0.0
H2163 H 0.55706 0.9776 0.49804 0.0
H2164 H 0.5474 0.98049 0.45342 0.0
H2165 H 0.59653 0.03135 0.55614 0.0
H2166 H 0.60985 0.03667 0.51239 0.0
H2167 H 0.60437 0.02094 0.54532 0.0
C2168 C 0.98031 0.57248 0.42443 0.0
C2169 C 0.98642 0.56784 0.39168 0.0
C2170 C 0.98577 0.57621 0.46945 0.0
C2171 C 0.99725 0.5747 0.48245 0.0
C2172 C 0.00362 0.57027 0.44912 0.0
C2173 C 0.99826 0.56712 0.4038 0.0
C2174 C 0.97903 0.58141 0.5034 0.0
C2175 C 0.01565 0.56817 0.46193 0.0
C2176 C 0.01895 0.59155 0.59013 0.0
C2177 C 0.01292 0.58062 0.6222 0.0
C2178 C 0.01352 0.59001 0.54512 0.0
C2179 C 0.00217 0.57703 0.53142 0.0
C2180 C 0.99589 0.56603 0.56405 0.0
C2181 C 0.0012 0.56805 0.60941 0.0
C2182 C 0.02014 0.60215 0.51195 0.0
C2183 C 0.984 0.55191 0.55046 0.0
H2184 H 0.97116 0.57308 0.41487 0.0
H2185 H 0.00286 0.56336 0.37857 0.0
H2186 H 0.97372 0.57358 0.53115 0.0
H2187 H 0.98705 0.59112 0.52034 0.0
H2188 H 0.97126 0.58348 0.48638 0.0
H2189 H 0.01955 0.56487 0.43179 0.0
H2190 H 0.02436 0.57793 0.47622 0.0
H2191 H 0.01234 0.56013 0.48944 0.0
H2192 H 0.02799 0.6013 0.60022 0.0
H2193 H 0.99667 0.55955 0.63412 0.0
H2194 H 0.01205 0.60384 0.49558 0.0
H2195 H 0.02551 0.59988 0.4837 0.0
H2196 H 0.02785 0.61192 0.52949 0.0
H2197 H 0.97518 0.55289 0.53678 0.0
H2198 H 0.98021 0.54451 0.58006 0.0
H2199 H 0.98741 0.54746 0.52229 0.0
C2200 C 0.44517 0.42266 0.43023 0.0
C2201 C 0.43582 0.41866 0.39289 0.0
C2202 C 0.44144 0.42483 0.47461 0.0
C2203 C 0.42788 0.42262 0.48227 0.0
C2204 C 0.41823 0.4182 0.44504 0.0
C2205 C 0.42239 0.41646 0.40054 0.0
C2206 C 0.45218 0.42993 0.51294 0.0
C2207 C 0.40359 0.41543 0.45215 0.0
C2208 C 0.41713 0.41972 0.60927 0.0
C2209 C 0.41935 0.43311 0.61783 0.0
C2210 C 0.41932 0.41594 0.56474 0.0
C2211 C 0.42423 0.42592 0.5285 0.0
C2212 C 0.42651 0.43945 0.53713 0.0
C2213 C 0.42387 0.44281 0.58145 0.0
C2214 C 0.41646 0.40132 0.55651 0.0
C2215 C 0.43213 0.45053 0.49994 0.0
H2216 H 0.45561 0.42447 0.42448 0.0
H2217 H 0.41509 0.41324 0.37187 0.0
H2218 H 0.45421 0.44025 0.52534 0.0
H2219 H 0.44822 0.42272 0.54294 0.0
H2220 H 0.46219 0.43091 0.50144 0.0
H2221 H 0.39702 0.41092 0.42076 0.0
H2222 H 0.39864 0.40818 0.48169 0.0
H2223 H 0.40381 0.42526 0.46104 0.0
H2224 H 0.41352 0.41217 0.6372 0.0
H2225 H 0.42571 0.45322 0.58793 0.0
H2226 H 0.42632 0.4015 0.54817 0.0
H2227 H 0.40943 0.39668 0.52626 0.0
H2228 H 0.41166 0.39451 0.5872 0.0
H2229 H 0.44249 0.45249 0.48834 0.0
H2230 H 0.43319 0.46051 0.5122 0.0
H2231 H 0.42517 0.44697 0.46921 0.0
C2232 C 0.09778 0.33497 0.2419 0.0
C2233 C 0.08555 0.32386 0.22339 0.0
C2234 C 0.09868 0.33871 0.2889 0.0
C2235 C 0.087 0.33134 0.3183 0.0
C2236 C 0.07436 0.32065 0.29927 0.0
C2237 C 0.07381 0.31695 0.25216 0.0
C2238 C 0.11242 0.35008 0.30761 0.0
C2239 C 0.06157 0.31273 0.32911 0.0
C2240 C 0.09613 0.3303 0.44497 0.0
C2241 C 0.0952 0.34143 0.46421 0.0
C2242 C 0.09297 0.3266 0.39805 0.0
C2243 C 0.08854 0.33404 0.3695 0.0
C2244 C 0.08681 0.34478 0.38929 0.0
C2245 C 0.09028 0.34843 0.4363 0.0
C2246 C 0.09512 0.31518 0.37847 0.0
C2247 C 0.08184 0.35277 0.36039 0.0
H2248 H 0.10693 0.34039 0.22012 0.0
H2249 H 0.0643 0.30839 0.23822 0.0
H2250 H 0.11095 0.358 0.32624 0.0
H2251 H 0.11663 0.3456 0.33298 0.0
H2252 H 0.12027 0.35535 0.27977 0.0
H2253 H 0.05214 0.30607 0.3081 0.0
H2254 H 0.0632 0.30598 0.35372 0.0
H2255 H 0.05969 0.32002 0.35004 0.0
H2256 H 0.09992 0.32481 0.46609 0.0
H2257 H 0.08947 0.35701 0.45082 0.0
H2258 H 0.10361 0.31962 0.35237 0.0
H2259 H 0.08557 0.30729 0.36049 0.0
H2260 H 0.09787 0.30988 0.40573 0.0
H2261 H 0.09004 0.35945 0.33518 0.0
H2262 H 0.07931 0.3595 0.38202 0.0
H2263 H 0.07247 0.34552 0.34013 0.0
C2264 C 0.66683 0.76718 0.42766 0.0
C2265 C 0.65636 0.75467 0.44689 0.0
C2266 C 0.67059 0.76807 0.38072 0.0
C2267 C 0.66386 0.75612 0.35211 0.0
C2268 C 0.65378 0.74328 0.37179 0.0
C2269 C 0.65007 0.74273 0.41887 0.0
C2270 C 0.68133 0.782 0.36125 0.0
C2271 C 0.64652 0.73025 0.3427 0.0
C2272 C 0.66232 0.76401 0.22454 0.0
C2273 C 0.67387 0.7637 0.20613 0.0
C2274 C 0.65865 0.76103 0.27153 0.0
C2275 C 0.66661 0.75747 0.301 0.0
C2276 C 0.67785 0.75642 0.28214 0.0
C2277 C 0.68141 0.75963 0.23501 0.0
C2278 C 0.64665 0.76241 0.29013 0.0
C2279 C 0.68645 0.75242 0.31216 0.0
H2280 H 0.67178 0.77648 0.44891 0.0
H2281 H 0.64202 0.733 0.4334 0.0
H2282 H 0.68967 0.78109 0.34325 0.0
H2283 H 0.67637 0.78551 0.33519 0.0
H2284 H 0.68616 0.79011 0.38857 0.0
H2285 H 0.64019 0.72084 0.36415 0.0
H2286 H 0.63956 0.73125 0.31728 0.0
H2287 H 0.65424 0.72879 0.32266 0.0
H2288 H 0.6564 0.76712 0.20263 0.0
H2289 H 0.69032 0.7593 0.22111 0.0
H2290 H 0.65061 0.77109 0.31548 0.0
H2291 H 0.63918 0.75279 0.30876 0.0
H2292 H 0.64099 0.76445 0.26222 0.0
H2293 H 0.69265 0.76093 0.33708 0.0
H2294 H 0.6937 0.75042 0.29133 0.0
H2295 H 0.6796 0.74299 0.33276 0.0
C2296 C 0.24205 0.92385 0.26249 0.0
C2297 C 0.23634 0.91174 0.2353 0.0
C2298 C 0.24538 0.9236 0.30957 0.0
C2299 C 0.24273 0.9109 0.33008 0.0
C2300 C 0.23748 0.89878 0.30227 0.0
C2301 C 0.23445 0.89938 0.2553 0.0
C2302 C 0.25121 0.9368 0.33777 0.0
C2303 C 0.23437 0.88498 0.32266 0.0
C2304 C 0.25689 0.90786 0.44745 0.0
C2305 C 0.2453 0.90388 0.4763 0.0
C2306 C 0.25652 0.91096 0.40021 0.0
C2307 C 0.24421 0.90984 0.38125 0.0
C2308 C 0.23272 0.90639 0.41072 0.0
C2309 C 0.23344 0.90356 0.45781 0.0
C2310 C 0.2691 0.91485 0.3702 0.0
C2311 C 0.21933 0.90495 0.392 0.0
H2312 H 0.24361 0.93346 0.24733 0.0
H2313 H 0.23005 0.88995 0.23468 0.0
H2314 H 0.24328 0.93597 0.36303 0.0
H2315 H 0.26041 0.93836 0.35796 0.0
H2316 H 0.2543 0.94609 0.31565 0.0
H2317 H 0.23104 0.87672 0.29588 0.0
H2318 H 0.24369 0.88603 0.34067 0.0
H2319 H 0.22596 0.8816 0.3489 0.0
H2320 H 0.26613 0.9082 0.46142 0.0
H2321 H 0.22442 0.90051 0.47972 0.0
H2322 H 0.2716 0.92413 0.34887 0.0
H2323 H 0.26682 0.9062 0.34595 0.0
H2324 H 0.2784 0.91705 0.39111 0.0
H2325 H 0.22145 0.91446 0.37279 0.0
H2326 H 0.21167 0.90305 0.41991 0.0
H2327 H 0.21455 0.89613 0.36714 0.0
C2328 C 0.34825 0.09204 0.58153 0.0
C2329 C 0.34109 0.09667 0.5532 0.0
C2330 C 0.34478 0.08895 0.62875 0.0
C2331 C 0.33406 0.09077 0.64823 0.0
C2332 C 0.32649 0.09497 0.61935 0.0
C2333 C 0.33003 0.09776 0.57224 0.0
C2334 C 0.35291 0.08423 0.65816 0.0
C2335 C 0.3151 0.09721 0.63867 0.0
C2336 C 0.31737 0.07661 0.76619 0.0
C2337 C 0.32438 0.08848 0.79429 0.0
C2338 C 0.32089 0.07696 0.71903 0.0
C2339 C 0.33148 0.08952 0.69936 0.0
C2340 C 0.3389 0.10137 0.72801 0.0
C2341 C 0.33533 0.10067 0.77508 0.0
C2342 C 0.31293 0.06402 0.68989 0.0
C2343 C 0.35016 0.11503 0.70847 0.0
H2344 H 0.35676 0.0911 0.56708 0.0
H2345 H 0.32442 0.10133 0.55072 0.0
H2346 H 0.35954 0.09257 0.68304 0.0
H2347 H 0.34573 0.07494 0.6788 0.0
H2348 H 0.3597 0.0817 0.63687 0.0
H2349 H 0.30972 0.09978 0.61119 0.0
H2350 H 0.30726 0.08776 0.65723 0.0
H2351 H 0.31959 0.10584 0.66423 0.0
H2352 H 0.30894 0.06713 0.78078 0.0
H2353 H 0.34082 0.1099 0.79641 0.0
H2354 H 0.32022 0.062 0.66947 0.0
H2355 H 0.30622 0.06555 0.66481 0.0
H2356 H 0.30623 0.05472 0.71135 0.0
H2357 H 0.35809 0.11353 0.69007 0.0
H2358 H 0.35544 0.12305 0.73581 0.0
H2359 H 0.34556 0.11902 0.68272 0.0
C2360 C 0.90112 0.23656 0.77426 0.0
C2361 C 0.91341 0.23789 0.79312 0.0
C2362 C 0.90027 0.23942 0.72725 0.0
C2363 C 0.91206 0.24397 0.69819 0.0
C2364 C 0.92474 0.2461 0.71754 0.0
C2365 C 0.92523 0.24292 0.76467 0.0
C2366 C 0.88649 0.23685 0.70817 0.0
C2367 C 0.93763 0.25122 0.68807 0.0
C2368 C 0.9033 0.2341 0.57117 0.0
C2369 C 0.904 0.24611 0.55233 0.0
C2370 C 0.90644 0.23349 0.61805 0.0
C2371 C 0.91063 0.24525 0.64699 0.0
C2372 C 0.91216 0.25767 0.62759 0.0
C2373 C 0.90871 0.25792 0.58061 0.0
C2374 C 0.90451 0.21997 0.6372 0.0
C2375 C 0.91688 0.27053 0.65691 0.0
H2376 H 0.89191 0.23267 0.79579 0.0
H2377 H 0.93479 0.24403 0.77888 0.0
H2378 H 0.88784 0.24623 0.68988 0.0
H2379 H 0.88252 0.22826 0.68242 0.0
H2380 H 0.87852 0.23402 0.73575 0.0
H2381 H 0.94704 0.25405 0.70932 0.0
H2382 H 0.9362 0.24297 0.6632 0.0
H2383 H 0.93943 0.26041 0.66742 0.0
H2384 H 0.89967 0.2249 0.54976 0.0
H2385 H 0.90935 0.26727 0.5664 0.0
H2386 H 0.89593 0.21568 0.66297 0.0
H2387 H 0.91407 0.22175 0.65546 0.0
H2388 H 0.90201 0.21205 0.60965 0.0
H2389 H 0.90856 0.2688 0.68191 0.0
H2390 H 0.91933 0.27981 0.63555 0.0
H2391 H 0.92623 0.27272 0.6774 0.0
C2392 C 0.76558 0.66575 0.76497 0.0
C2393 C 0.76344 0.67614 0.78431 0.0
C2394 C 0.76261 0.66191 0.71808 0.0
C2395 C 0.75713 0.66843 0.68964 0.0
C2396 C 0.75429 0.67845 0.70946 0.0
C2397 C 0.75759 0.68228 0.75643 0.0
C2398 C 0.76597 0.6513 0.69846 0.0
C2399 C 0.74819 0.68546 0.68066 0.0
C2400 C 0.7658 0.66976 0.56124 0.0
C2401 C 0.75395 0.65802 0.54362 0.0
C2402 C 0.76674 0.67353 0.60825 0.0
C2403 C 0.75547 0.6655 0.63857 0.0
C2404 C 0.74317 0.65407 0.62052 0.0
C2405 C 0.7426 0.65038 0.57339 0.0
C2406 C 0.78012 0.6857 0.62593 0.0
C2407 C 0.73081 0.64541 0.65137 0.0
H2408 H 0.77012 0.66095 0.78606 0.0
H2409 H 0.75584 0.69028 0.77103 0.0
H2410 H 0.75668 0.64278 0.68118 0.0
H2411 H 0.77424 0.65628 0.67176 0.0
H2412 H 0.76958 0.64672 0.72558 0.0
H2413 H 0.74511 0.69178 0.70223 0.0
H2414 H 0.75594 0.69237 0.65465 0.0
H2415 H 0.73893 0.67759 0.6613 0.0
H2416 H 0.77466 0.67573 0.53869 0.0
H2417 H 0.73338 0.64132 0.56013 0.0
H2418 H 0.78511 0.68195 0.65105 0.0
H2419 H 0.77795 0.69314 0.6446 0.0
H2420 H 0.78764 0.69133 0.59752 0.0
H2421 H 0.73341 0.63941 0.67618 0.0
H2422 H 0.72149 0.63798 0.63116 0.0
H2423 H 0.72817 0.65221 0.67208 0.0
C2424 C 0.90207 0.66952 0.59558 0.0
C2425 C 0.90438 0.65935 0.5753 0.0
C2426 C 0.90501 0.67311 0.6426 0.0
C2427 C 0.91061 0.66652 0.67018 0.0
C2428 C 0.91366 0.65677 0.64941 0.0
C2429 C 0.91041 0.65322 0.60229 0.0
C2430 C 0.90147 0.68347 0.66328 0.0
C2431 C 0.91987 0.64972 0.67737 0.0
C2432 C 0.9245 0.6839 0.78747 0.0
C2433 C 0.913 0.67604 0.8164 0.0
C2434 C 0.92422 0.68046 0.74024 0.0
C2435 C 0.91208 0.66904 0.72136 0.0
C2436 C 0.9007 0.66073 0.75092 0.0
C2437 C 0.90134 0.66427 0.79801 0.0
C2438 C 0.93668 0.68942 0.71014 0.0
C2439 C 0.88749 0.64854 0.73229 0.0
H2440 H 0.89742 0.67434 0.57512 0.0
H2441 H 0.91229 0.6454 0.58691 0.0
H2442 H 0.89314 0.67822 0.68964 0.0
H2443 H 0.91067 0.69191 0.6812 0.0
H2444 H 0.89786 0.6882 0.63668 0.0
H2445 H 0.92319 0.64373 0.65509 0.0
H2446 H 0.92898 0.65751 0.69749 0.0
H2447 H 0.91208 0.64247 0.70269 0.0
H2448 H 0.93358 0.69297 0.80137 0.0
H2449 H 0.89239 0.65811 0.81998 0.0
H2450 H 0.93413 0.69563 0.68606 0.0
H2451 H 0.93943 0.68285 0.68863 0.0
H2452 H 0.94591 0.69669 0.731 0.0
H2453 H 0.88244 0.65233 0.70765 0.0
H2454 H 0.87995 0.64258 0.76028 0.0
H2455 H 0.88991 0.64138 0.71286 0.0
C2456 C 0.33402 0.23399 0.7791 0.0
C2457 C 0.32278 0.23497 0.79713 0.0
C2458 C 0.33793 0.23694 0.73226 0.0
C2459 C 0.33053 0.24112 0.70246 0.0
C2460 C 0.31963 0.24284 0.72095 0.0
C2461 C 0.31584 0.23968 0.76798 0.0
C2462 C 0.34957 0.23491 0.71416 0.0
C2463 C 0.3116 0.24744 0.69059 0.0
C2464 C 0.34773 0.25556 0.58505 0.0
C2465 C 0.34112 0.24368 0.55679 0.0
C2466 C 0.34397 0.2551 0.63206 0.0
C2467 C 0.33345 0.24243 0.65141 0.0
C2468 C 0.32638 0.23057 0.62253 0.0
C2469 C 0.33025 0.23136 0.5757 0.0
C2470 C 0.35163 0.26802 0.66143 0.0
C2471 C 0.31515 0.21683 0.6416 0.0
H2472 H 0.33948 0.23039 0.80121 0.0
H2473 H 0.30717 0.24051 0.78152 0.0
H2474 H 0.34534 0.22622 0.6888 0.0
H2475 H 0.35741 0.24438 0.69567 0.0
H2476 H 0.3549 0.23252 0.74233 0.0
H2477 H 0.30461 0.24988 0.71113 0.0
H2478 H 0.31883 0.25677 0.67016 0.0
H2479 H 0.30517 0.23907 0.6655 0.0
H2480 H 0.35611 0.26514 0.57082 0.0
H2481 H 0.32504 0.22212 0.55428 0.0
H2482 H 0.35825 0.26658 0.68713 0.0
H2483 H 0.34414 0.26991 0.68116 0.0
H2484 H 0.35837 0.27738 0.64023 0.0
H2485 H 0.3197 0.21292 0.66778 0.0
H2486 H 0.3101 0.20882 0.61408 0.0
H2487 H 0.30703 0.21818 0.65937 0.0
C2488 C 0.75567 0.0732 0.76703 0.0
C2489 C 0.76033 0.08511 0.79476 0.0
C2490 C 0.75232 0.0733 0.7199 0.0
C2491 C 0.754 0.08571 0.69978 0.0
C2492 C 0.75828 0.0976 0.72806 0.0
C2493 C 0.76123 0.0971 0.77519 0.0
C2494 C 0.74744 0.06029 0.69127 0.0
C2495 C 0.76046 0.11113 0.70803 0.0
C2496 C 0.76341 0.09353 0.57222 0.0
C2497 C 0.75122 0.09239 0.55332 0.0
C2498 C 0.76427 0.09093 0.61944 0.0
C2499 C 0.75255 0.08677 0.64856 0.0
C2500 C 0.73996 0.08483 0.62918 0.0
C2501 C 0.73948 0.08783 0.5819 0.0
C2502 C 0.77799 0.09337 0.63865 0.0
C2503 C 0.72713 0.08006 0.65872 0.0
H2504 H 0.75488 0.06386 0.78192 0.0
H2505 H 0.76488 0.10638 0.79622 0.0
H2506 H 0.73807 0.0581 0.67084 0.0
H2507 H 0.75568 0.06181 0.66623 0.0
H2508 H 0.74493 0.05108 0.71313 0.0
H2509 H 0.76321 0.11924 0.73505 0.0
H2510 H 0.76896 0.1151 0.68198 0.0
H2511 H 0.75093 0.10945 0.68989 0.0
H2512 H 0.77256 0.0971 0.55054 0.0
H2513 H 0.73 0.08685 0.56755 0.0
H2514 H 0.77653 0.08401 0.6574 0.0
H2515 H 0.78209 0.10206 0.66403 0.0
H2516 H 0.78593 0.09598 0.61108 0.0
H2517 H 0.72517 0.07089 0.67981 0.0
H2518 H 0.71774 0.07731 0.63748 0.0
H2519 H 0.72874 0.08845 0.68319 0.0
C2520 C 0.66598 0.89895 0.26097 0.0
C2521 C 0.67625 0.9115 0.24135 0.0
C2522 C 0.66223 0.89813 0.30792 0.0
C2523 C 0.66878 0.91018 0.33613 0.0
C2524 C 0.67869 0.92303 0.31606 0.0
C2525 C 0.68238 0.92353 0.26899 0.0
C2526 C 0.65169 0.88418 0.3278 0.0
C2527 C 0.68574 0.93616 0.34471 0.0
C2528 C 0.65098 0.90668 0.4527 0.0
C2529 C 0.65862 0.90287 0.48208 0.0
C2530 C 0.65459 0.90982 0.40556 0.0
C2531 C 0.66599 0.90895 0.3872 0.0
C2532 C 0.67406 0.90567 0.41718 0.0
C2533 C 0.67034 0.90277 0.46416 0.0
C2534 C 0.64585 0.9135 0.375 0.0
C2535 C 0.68623 0.90452 0.39914 0.0
H2536 H 0.66116 0.88958 0.24002 0.0
H2537 H 0.69028 0.93328 0.25414 0.0
H2538 H 0.65677 0.88092 0.35428 0.0
H2539 H 0.64321 0.88494 0.34541 0.0
H2540 H 0.64703 0.87595 0.30079 0.0
H2541 H 0.692 0.94554 0.32301 0.0
H2542 H 0.6779 0.93754 0.36433 0.0
H2543 H 0.69274 0.93537 0.37051 0.0
H2544 H 0.64195 0.90685 0.4662 0.0
H2545 H 0.67634 0.89985 0.48645 0.0
H2546 H 0.63978 0.90488 0.35032 0.0
H2547 H 0.6526 0.92291 0.35413 0.0
H2548 H 0.63847 0.91541 0.39544 0.0
H2549 H 0.68245 0.89575 0.3742 0.0
H2550 H 0.69199 0.90274 0.42739 0.0
H2551 H 0.69359 0.91412 0.38018 0.0
C2552 C 0.09905 0.76573 0.43123 0.0
C2553 C 0.09715 0.75329 0.45055 0.0
C2554 C 0.09599 0.76652 0.38437 0.0
C2555 C 0.09066 0.75452 0.35595 0.0
C2556 C 0.08807 0.74175 0.37576 0.0
C2557 C 0.09145 0.7413 0.4227 0.0
C2558 C 0.09908 0.7804 0.36477 0.0
C2559 C 0.08215 0.72865 0.34699 0.0
C2560 C 0.07579 0.75766 0.23987 0.0
C2561 C 0.08714 0.76153 0.20995 0.0
C2562 C 0.07648 0.75462 0.28701 0.0
C2563 C 0.08891 0.75573 0.30491 0.0
C2564 C 0.1002 0.75916 0.27444 0.0
C2565 C 0.09913 0.7619 0.22744 0.0
C2566 C 0.0641 0.75073 0.31802 0.0
C2567 C 0.11371 0.76063 0.29195 0.0
H2568 H 0.10346 0.77507 0.4523 0.0
H2569 H 0.08989 0.73163 0.43728 0.0
H2570 H 0.10734 0.78382 0.33799 0.0
H2571 H 0.0897 0.77946 0.34759 0.0
H2572 H 0.10259 0.7886 0.39187 0.0
H2573 H 0.07926 0.7193 0.36855 0.0
H2574 H 0.0728 0.72709 0.32776 0.0
H2575 H 0.08993 0.72963 0.32087 0.0
H2576 H 0.06645 0.75729 0.22673 0.0
H2577 H 0.10799 0.7649 0.20477 0.0
H2578 H 0.0666 0.75931 0.34285 0.0
H2579 H 0.06165 0.74135 0.33871 0.0
H2580 H 0.05471 0.74869 0.29794 0.0
H2581 H 0.11858 0.76937 0.31703 0.0
H2582 H 0.12123 0.76263 0.26345 0.0
H2583 H 0.11173 0.75107 0.31062 0.0
C2584 C 0.23796 0.33547 0.24608 0.0
C2585 C 0.23898 0.32448 0.2262 0.0
C2586 C 0.24093 0.33888 0.29323 0.0
C2587 C 0.24534 0.33131 0.32122 0.0
C2588 C 0.24715 0.3207 0.30079 0.0
C2589 C 0.24377 0.31728 0.25365 0.0
C2590 C 0.23861 0.3501 0.3136 0.0
C2591 C 0.25218 0.31264 0.3291 0.0
C2592 C 0.25982 0.34796 0.43908 0.0
C2593 C 0.24811 0.3407 0.4677 0.0
C2594 C 0.25936 0.3445 0.39179 0.0
C2595 C 0.24681 0.33376 0.37246 0.0
C2596 C 0.23513 0.3261 0.40163 0.0
C2597 C 0.23597 0.32956 0.44886 0.0
C2598 C 0.27215 0.35267 0.36218 0.0
C2599 C 0.22146 0.31474 0.38247 0.0
H2600 H 0.23422 0.34107 0.22527 0.0
H2601 H 0.24467 0.30882 0.23851 0.0
H2602 H 0.23014 0.34547 0.33978 0.0
H2603 H 0.24813 0.35801 0.33167 0.0
H2604 H 0.23574 0.35542 0.28679 0.0
H2605 H 0.25477 0.30604 0.30702 0.0
H2606 H 0.26153 0.31985 0.34953 0.0
H2607 H 0.24399 0.30583 0.35414 0.0
H2608 H 0.26925 0.35653 0.45339 0.0
H2609 H 0.22685 0.32391 0.47058 0.0
H2610 H 0.27045 0.35944 0.33796 0.0
H2611 H 0.27417 0.34554 0.34084 0.0
H2612 H 0.28154 0.35932 0.38341 0.0
H2613 H 0.21724 0.31927 0.35731 0.0
H2614 H 0.21357 0.30932 0.4101 0.0
H2615 H 0.22303 0.30694 0.36349 0.0
C2616 C 0.99791 0.43199 0.91211 0.0
C2617 C 0.00893 0.43071 0.89365 0.0
C2618 C 0.99402 0.429 0.95896 0.0
C2619 C 0.00122 0.42448 0.98832 0.0
C2620 C 0.01191 0.42249 0.96942 0.0
C2621 C 0.01568 0.42569 0.92239 0.0
C2622 C 0.98261 0.43133 0.97753 0.0
C2623 C 0.01972 0.41752 0.99931 0.0
C2624 C 0.00164 0.43384 0.1156 0.0
C2625 C 0.99055 0.42158 0.134 0.0
C2626 C 0.00554 0.43472 0.06877 0.0
C2627 C 0.99829 0.42302 0.03937 0.0
C2628 C 0.98755 0.41039 0.05823 0.0
C2629 C 0.98376 0.40983 0.10524 0.0
C2630 C 0.01702 0.44842 0.05026 0.0
C2631 C 0.97967 0.39762 0.0283 0.0
H2632 H 0.99259 0.43583 0.89032 0.0
H2633 H 0.02418 0.42463 0.90851 0.0
H2634 H 0.97461 0.42188 0.99561 0.0
H2635 H 0.98703 0.4399 1.00334 0.0
H2636 H 0.97746 0.43405 0.94968 0.0
H2637 H 0.02659 0.41498 0.97848 0.0
H2638 H 0.02624 0.42572 0.02478 0.0
H2639 H 0.01233 0.40816 0.01932 0.0
H2640 H 0.007 0.44299 0.13741 0.0
H2641 H 0.97521 0.4003 0.11907 0.0
H2642 H 0.01265 0.45264 0.0245 0.0
H2643 H 0.02498 0.44689 0.03212 0.0
H2644 H 0.02222 0.45627 0.07814 0.0
H2645 H 0.97318 0.39936 1.00287 0.0
H2646 H 0.97277 0.38823 0.04912 0.0
H2647 H 0.98702 0.3956 1.00825 0.0
C2648 C 0.56717 0.56867 0.11123 0.0
C2649 C 0.57943 0.56991 0.12997 0.0
C2650 C 0.56631 0.57152 0.06424 0.0
C2651 C 0.57805 0.5759 0.03506 0.0
C2652 C 0.59071 0.57797 0.0543 0.0
C2653 C 0.59123 0.57487 0.10146 0.0
C2654 C 0.55257 0.56908 0.04528 0.0
C2655 C 0.60354 0.58287 0.02463 0.0
C2656 C 0.56893 0.56551 0.90867 0.0
C2657 C 0.56985 0.57753 0.88916 0.0
C2658 C 0.57213 0.56506 0.95557 0.0
C2659 C 0.57655 0.57698 0.98385 0.0
C2660 C 0.57826 0.5894 0.9638 0.0
C2661 C 0.5748 0.58951 0.91677 0.0
C2662 C 0.57005 0.55155 0.97543 0.0
C2663 C 0.58318 0.60241 0.99249 0.0
H2664 H 0.55798 0.56488 0.13286 0.0
H2665 H 0.60077 0.57592 0.11558 0.0
H2666 H 0.55402 0.57842 0.02638 0.0
H2667 H 0.5484 0.56034 0.02011 0.0
H2668 H 0.5447 0.56654 0.07302 0.0
H2669 H 0.61297 0.58573 0.04579 0.0
H2670 H 0.60199 0.57448 1.00021 0.0
H2671 H 0.60537 0.59199 1.00349 0.0
H2672 H 0.56513 0.55619 0.88774 0.0
H2673 H 0.57561 0.59887 0.90203 0.0
H2674 H 0.56151 0.54748 1.00137 0.0
H2675 H 0.5796 0.5533 0.99367 0.0
H2676 H 0.5674 0.5435 0.94829 0.0
H2677 H 0.57494 0.60089 0.01754 0.0
H2678 H 0.5857 0.61163 0.97068 0.0
H2679 H 0.59253 0.60457 0.01292 0.0
C2680 C 0.43155 0.99777 0.0961 0.0
C2681 C 0.42932 0.00808 0.11571 0.0
C2682 C 0.4285 0.99392 0.04923 0.0
C2683 C 0.42284 0.00035 0.02111 0.0
C2684 C 0.41993 0.01028 0.04122 0.0
C2685 C 0.42332 0.01412 0.08815 0.0
C2686 C 0.43194 0.98341 0.0293 0.0
C2687 C 0.41364 0.01718 0.01278 0.0
C2688 C 0.43119 0.00171 0.8924 0.0
C2689 C 0.41935 0.98989 0.87506 0.0
C2690 C 0.43222 0.00549 0.93942 0.0
C2691 C 0.42106 0.9974 0.97006 0.0
C2692 C 0.40877 0.98589 0.95232 0.0
C2693 C 0.4081 0.98219 0.90515 0.0
C2694 C 0.44559 0.01775 0.95676 0.0
C2695 C 0.39652 0.97715 0.98352 0.0
H2696 H 0.43621 0.99304 0.11694 0.0
H2697 H 0.4215 0.02205 0.10297 0.0
H2698 H 0.42265 0.97483 0.01227 0.0
H2699 H 0.44012 0.98845 1.00234 0.0
H2700 H 0.43572 0.97891 0.05619 0.0
H2701 H 0.41056 0.02346 0.03455 0.0
H2702 H 0.42128 0.02411 0.98653 0.0
H2703 H 0.40435 0.00924 0.9937 0.0
H2704 H 0.43996 0.00773 0.8696 0.0
H2705 H 0.39889 0.97308 0.89213 0.0
H2706 H 0.45072 0.01408 0.98159 0.0
H2707 H 0.44338 0.02513 0.97567 0.0
H2708 H 0.453 0.02343 0.92814 0.0
H2709 H 0.39928 0.97122 1.00811 0.0
H2710 H 0.38718 0.96966 0.96357 0.0
H2711 H 0.39386 0.98389 1.00447 0.0
C2712 C 0.57597 0.98534 0.9342 0.0
C2713 C 0.57005 0.99159 0.90728 0.0
C2714 C 0.5793 0.9889 0.98129 0.0
C2715 C 0.57643 0.99877 1.00208 0.0
C2716 C 0.57096 0.00548 0.97454 0.0
C2717 C 0.56794 0.00189 0.92755 0.0
C2718 C 0.58538 0.9817 1.0092 0.0
C2719 C 0.56761 0.01598 0.99525 0.0
C2720 C 0.56717 0.99656 0.1299 0.0
C2721 C 0.57891 0.00823 0.14836 0.0
C2722 C 0.56649 0.99304 0.08278 0.0
C2723 C 0.57792 0.00127 0.05327 0.0
C2724 C 0.59013 0.01258 0.07221 0.0
C2725 C 0.59045 0.01601 0.11947 0.0
C2726 C 0.55321 0.98097 0.06408 0.0
C2727 C 0.60264 0.02144 0.04216 0.0
H2728 H 0.57771 0.97742 0.91881 0.0
H2729 H 0.56338 0.00681 0.90713 0.0
H2730 H 0.59452 0.98942 0.02937 0.0
H2731 H 0.57754 0.97449 0.03446 0.0
H2732 H 0.5886 0.97565 0.98687 0.0
H2733 H 0.56411 0.02081 0.96865 0.0
H2734 H 0.55926 0.01082 0.02158 0.0
H2735 H 0.57687 0.02434 0.01319 0.0
H2736 H 0.5582 0.99047 0.15184 0.0
H2737 H 0.59959 0.025 0.13343 0.0
H2738 H 0.5555 0.97372 0.04465 0.0
H2739 H 0.54826 0.98487 0.03943 0.0
H2740 H 0.54562 0.97507 0.09203 0.0
H2741 H 0.60527 0.0148 0.02058 0.0
H2742 H 0.6119 0.02861 0.06306 0.0
H2743 H 0.6002 0.02775 0.01814 0.0
C2744 C 0.01495 0.58929 0.9141 0.0
C2745 C 0.00791 0.57737 0.88624 0.0
C2746 C 0.01146 0.58903 0.96125 0.0
C2747 C 0.00087 0.57651 0.98116 0.0
C2748 C 0.99343 0.56461 0.95273 0.0
C2749 C 0.99696 0.56523 0.90567 0.0
C2750 C 0.01946 0.60201 0.99014 0.0
C2751 C 0.98217 0.55099 0.97253 0.0
C2752 C 0.00238 0.56838 0.10835 0.0
C2753 C 0.9913 0.56946 0.12734 0.0
C2754 C 0.00591 0.57116 0.06125 0.0
C2755 C 0.99834 0.57534 0.03231 0.0
C2756 C 0.98763 0.57717 0.05175 0.0
C2757 C 0.98415 0.57409 0.09897 0.0
C2758 C 0.01731 0.56891 0.04197 0.0
C2759 C 0.9795 0.58188 0.02229 0.0
H2760 H 0.02338 0.59874 0.89934 0.0
H2761 H 0.99145 0.55595 0.88451 0.0
H2762 H 0.01219 0.60406 0.0106 0.0
H2763 H 0.02621 0.60054 0.01519 0.0
H2764 H 0.02611 0.61129 0.96849 0.0
H2765 H 0.97686 0.54292 0.94535 0.0
H2766 H 0.98678 0.54704 0.99838 0.0
H2767 H 0.97425 0.55253 0.99086 0.0
H2768 H 0.00798 0.56481 0.1299 0.0
H2769 H 0.97562 0.57503 0.11338 0.0
H2770 H 0.02513 0.57834 0.02325 0.0
H2771 H 0.01281 0.56024 0.01655 0.0
H2772 H 0.02271 0.56639 0.0695 0.0
H2773 H 0.98667 0.59113 1.00146 0.0
H2774 H 0.97275 0.58447 0.04357 0.0
H2775 H 0.97281 0.5735 0.99759 0.0
C2776 C 0.42999 0.43082 0.10684 0.0
C2777 C 0.42908 0.41877 0.12604 0.0
C2778 C 0.42699 0.43141 0.0598 0.0
C2779 C 0.42268 0.41958 0.03117 0.0
C2780 C 0.42104 0.40714 0.05087 0.0
C2781 C 0.42441 0.40692 0.09794 0.0
C2782 C 0.42911 0.44497 0.04025 0.0
C2783 C 0.41617 0.3942 0.02187 0.0
C2784 C 0.40774 0.42164 0.91397 0.0
C2785 C 0.41939 0.42627 0.88491 0.0
C2786 C 0.4084 0.41868 0.96119 0.0
C2787 C 0.42109 0.42071 0.98004 0.0
C2788 C 0.43273 0.42496 0.95047 0.0
C2789 C 0.4317 0.42754 0.90333 0.0
C2790 C 0.39566 0.41385 0.99124 0.0
C2791 C 0.44654 0.42748 0.96908 0.0
H2792 H 0.43363 0.44004 0.12814 0.0
H2793 H 0.42361 0.39755 0.11251 0.0
H2794 H 0.43756 0.449 0.014 0.0
H2795 H 0.41953 0.4433 0.02244 0.0
H2796 H 0.43189 0.45302 0.06749 0.0
H2797 H 0.41381 0.38497 0.04338 0.0
H2798 H 0.40671 0.39197 1.00193 0.0
H2799 H 0.42434 0.39584 0.99637 0.0
H2800 H 0.39818 0.42057 0.90003 0.0
H2801 H 0.44078 0.43116 0.8813 0.0
H2802 H 0.39735 0.42219 0.01608 0.0
H2803 H 0.39377 0.40464 0.01193 0.0
H2804 H 0.38621 0.41114 0.97042 0.0
H2805 H 0.45066 0.43614 0.99455 0.0
H2806 H 0.4544 0.43015 0.9412 0.0
H2807 H 0.44518 0.41812 0.98758 0.0
loop_
_geom_bond_atom_site_label_1
_geom_bond_atom_site_label_2
_geom_bond_distance
_geom_bond_site_symmetry_2
_ccdc_geom_bond_type
O0 Cd1 2.223 . S
O0 C8 1.315 . S
Cd1 O0 2.223 . S
Cd1 O4 2.297 . S
Cd1 O5 2.439 . S
Cd1 O11 2.240 . S
Cd2 O3 2.240 . S
Cd2 O10 2.223 1_554 S
Cd2 O12 2.295 1_554 S
Cd2 O13 2.439 . S
O3 Cd2 2.240 . S
O3 C8 1.279 . S
O4 Cd1 2.297 . S
O4 C6 1.247 . S
O5 Cd1 2.439 . S
O5 C6 1.208 . S
C6 O4 1.247 . S
C6 O5 1.208 . S
C7 O12 1.243 1_554 S
C7 O13 1.208 . S
C8 O0 1.315 . S
C8 O3 1.279 . S
C9 O10 1.315 . S
C9 O11 1.279 1_556 S
O10 Cd2 2.223 1_556 S
O10 C9 1.315 . S
O11 Cd1 2.240 . S
O11 C9 1.279 1_554 S
O12 Cd2 2.295 1_556 S
O12 C7 1.243 1_556 S
O13 Cd2 2.439 . S
O13 C7 1.208 . S
O14 Cd15 2.223 . S
O14 C22 1.315 . S
Cd15 O14 2.223 . S
Cd15 O18 2.297 . S
Cd15 O19 2.439 . S
Cd15 O25 2.240 . S
Cd16 O17 2.240 . S
Cd16 O24 2.223 1_554 S
Cd16 O26 2.295 1_554 S
Cd16 O27 2.439 . S
O17 Cd16 2.240 . S
O17 C22 1.279 . S
O18 Cd15 2.297 . S
O18 C20 1.247 . S
O19 Cd15 2.439 . S
O19 C20 1.208 . S
C20 O18 1.247 . S
C20 O19 1.208 . S
C21 O26 1.242 1_554 S
C21 O27 1.208 . S
C22 O14 1.315 . S
C22 O17 1.279 . S
C23 O24 1.315 . S
C23 O25 1.279 1_556 S
O24 Cd16 2.223 1_556 S
O24 C23 1.315 . S
O25 Cd15 2.240 . S
O25 C23 1.279 1_554 S
O26 Cd16 2.295 1_556 S
O26 C21 1.242 1_556 S
O27 Cd16 2.439 . S
O27 C21 1.208 . S
O28 Cd29 2.223 . S
O28 C36 1.315 . S
Cd29 O28 2.223 . S
Cd29 O32 2.297 . S
Cd29 O33 2.439 . S
Cd29 O39 2.240 . S
Cd30 O31 2.240 . S
Cd30 O38 2.223 1_554 S
Cd30 O40 2.293 1_554 S
Cd30 O41 2.439 . S
O31 Cd30 2.240 . S
O31 C36 1.279 . S
O32 Cd29 2.297 . S
O32 C34 1.247 . S
O33 Cd29 2.439 . S
O33 C34 1.208 . S
C34 O32 1.247 . S
C34 O33 1.208 . S
C35 O40 1.239 1_554 S
C35 O41 1.208 . S
C36 O28 1.315 . S
C36 O31 1.279 . S
C37 O38 1.315 . S
C37 O39 1.279 1_556 S
O38 Cd30 2.223 1_556 S
O38 C37 1.315 . S
O39 Cd29 2.240 . S
O39 C37 1.279 1_554 S
O40 Cd30 2.293 1_556 S
O40 C35 1.239 1_556 S
O41 Cd30 2.439 . S
O41 C35 1.208 . S
O42 Cd43 2.223 . S
O42 C50 1.315 . S
Cd43 O42 2.223 . S
Cd43 O46 2.297 . S
Cd43 O47 2.439 . S
Cd43 O53 2.240 . S
Cd44 O45 2.240 . S
Cd44 O52 2.223 1_556 S
Cd44 O54 2.295 1_556 S
Cd44 O55 2.439 . S
O45 Cd44 2.240 . S
O45 C50 1.279 . S
O46 Cd43 2.297 . S
O46 C48 1.247 . S
O47 Cd43 2.439 . S
O47 C48 1.208 . S
C48 O46 1.247 . S
C48 O47 1.208 . S
C49 O54 1.243 1_556 S
C49 O55 1.208 . S
C50 O42 1.315 . S
C50 O45 1.279 . S
C51 O52 1.315 . S
C51 O53 1.279 1_554 S
O52 Cd44 2.223 1_554 S
O52 C51 1.315 . S
O53 Cd43 2.240 . S
O53 C51 1.279 1_556 S
O54 Cd44 2.295 1_554 S
O54 C49 1.243 1_554 S
O55 Cd44 2.439 . S
O55 C49 1.208 . S
O56 Cd57 2.223 . S
O56 C64 1.315 . S
Cd57 O56 2.223 . S
Cd57 O60 2.297 . S
Cd57 O61 2.439 . S
Cd57 O67 2.240 . S
Cd58 O59 2.240 . S
Cd58 O66 2.223 1_556 S
Cd58 O68 2.293 1_556 S
Cd58 O69 2.439 . S
O59 Cd58 2.240 . S
O59 C64 1.279 . S
O60 Cd57 2.297 . S
O60 C62 1.247 . S
O61 Cd57 2.439 . S
O61 C62 1.208 . S
C62 O60 1.247 . S
C62 O61 1.208 . S
C63 O68 1.239 1_556 S
C63 O69 1.208 . S
C64 O56 1.315 . S
C64 O59 1.279 . S
C65 O66 1.315 . S
C65 O67 1.279 1_554 S
O66 Cd58 2.223 1_554 S
O66 C65 1.315 . S
O67 Cd57 2.240 . S
O67 C65 1.279 1_556 S
O68 Cd58 2.293 1_554 S
O68 C63 1.239 1_554 S
O69 Cd58 2.439 . S
O69 C63 1.208 . S
O70 Cd71 2.223 . S
O70 C78 1.315 . S
Cd71 O70 2.223 . S
Cd71 O74 2.297 . S
Cd71 O75 2.439 . S
Cd71 O81 2.240 . S
Cd72 O73 2.240 . S
Cd72 O80 2.223 1_556 S
Cd72 O82 2.295 1_556 S
Cd72 O83 2.439 . S
O73 Cd72 2.240 . S
O73 C78 1.279 . S
O74 Cd71 2.297 . S
O74 C76 1.247 . S
O75 Cd71 2.439 . S
O75 C76 1.208 . S
C76 O74 1.247 . S
C76 O75 1.208 . S
C77 O82 1.242 1_556 S
C77 O83 1.208 . S
C78 O70 1.315 . S
C78 O73 1.279 . S
C79 O80 1.315 . S
C79 O81 1.279 1_554 S
O80 Cd72 2.223 1_554 S
O80 C79 1.315 . S
O81 Cd71 2.240 . S
O81 C79 1.279 1_556 S
O82 Cd72 2.295 1_554 S
O82 C77 1.242 1_554 S
O83 Cd72 2.439 . S
O83 C77 1.208 . S
O84 Cd85 2.223 . S
O84 C92 1.315 . S
Cd85 O84 2.223 . S
Cd85 O88 2.297 . S
Cd85 O89 2.439 . S
Cd85 O95 2.240 . S
Cd86 O87 2.240 . S
Cd86 O94 2.223 1_556 S
Cd86 O96 2.295 1_556 S
Cd86 O97 2.439 . S
O87 Cd86 2.240 . S
O87 C92 1.279 . S
O88 Cd85 2.297 . S
O88 C90 1.247 . S
O89 Cd85 2.439 . S
O89 C90 1.208 . S
C90 O88 1.247 . S
C90 O89 1.208 . S
C91 O96 1.243 1_556 S
C91 O97 1.208 . S
C92 O84 1.315 . S
C92 O87 1.279 . S
C93 O94 1.315 . S
C93 O95 1.279 1_554 S
O94 Cd86 2.223 1_554 S
O94 C93 1.315 . S
O95 Cd85 2.240 . S
O95 C93 1.279 1_556 S
O96 Cd86 2.295 1_554 S
O96 C91 1.243 1_554 S
O97 Cd86 2.439 . S
O97 C91 1.208 . S
O98 Cd99 2.223 . S
O98 C106 1.315 . S
Cd99 O98 2.223 . S
Cd99 O102 2.297 . S
Cd99 O103 2.439 . S
Cd99 O109 2.240 . S
Cd100 O101 2.240 . S
Cd100 O108 2.223 1_556 S
Cd100 O110 2.295 1_556 S
Cd100 O111 2.439 . S
O101 Cd100 2.240 . S
O101 C106 1.279 . S
O102 Cd99 2.297 . S
O102 C104 1.247 . S
O103 Cd99 2.439 . S
O103 C104 1.208 . S
C104 O102 1.247 . S
C104 O103 1.208 . S
C105 O110 1.242 1_556 S
C105 O111 1.208 . S
C106 O98 1.315 . S
C106 O101 1.279 . S
C107 O108 1.315 . S
C107 O109 1.279 1_554 S
O108 Cd100 2.223 1_554 S
O108 C107 1.315 . S
O109 Cd99 2.240 . S
O109 C107 1.279 1_556 S
O110 Cd100 2.295 1_554 S
O110 C105 1.242 1_554 S
O111 Cd100 2.439 . S
O111 C105 1.208 . S
O112 Cd113 2.223 . S
O112 C120 1.315 . S
Cd113 O112 2.223 . S
Cd113 O116 2.297 . S
Cd113 O117 2.439 . S
Cd113 O123 2.240 . S
Cd114 O115 2.240 . S
Cd114 O122 2.223 1_556 S
Cd114 O124 2.293 1_556 S
Cd114 O125 2.439 . S
O115 Cd114 2.240 . S
O115 C120 1.279 . S
O116 Cd113 2.297 . S
O116 C118 1.247 . S
O117 Cd113 2.439 . S
O117 C118 1.208 . S
C118 O116 1.247 . S
C118 O117 1.208 . S
C119 O124 1.239 1_556 S
C119 O125 1.208 . S
C120 O112 1.315 . S
C120 O115 1.279 . S
C121 O122 1.315 . S
C121 O123 1.279 1_554 S
O122 Cd114 2.223 1_554 S
O122 C121 1.315 . S
O123 Cd113 2.240 . S
O123 C121 1.279 1_556 S
O124 Cd114 2.293 1_554 S
O124 C119 1.239 1_554 S
O125 Cd114 2.439 . S
O125 C119 1.208 . S
O126 Cd127 2.223 . S
O126 C134 1.315 . S
Cd127 O126 2.223 . S
Cd127 O130 2.297 . S
Cd127 O131 2.439 . S
Cd127 O137 2.240 . S
Cd128 O129 2.240 . S
Cd128 O136 2.223 1_554 S
Cd128 O138 2.295 1_554 S
Cd128 O139 2.439 . S
O129 Cd128 2.240 . S
O129 C134 1.279 . S
O130 Cd127 2.297 . S
O130 C132 1.247 . S
O131 Cd127 2.439 . S
O131 C132 1.208 . S
C132 O130 1.247 . S
C132 O131 1.208 . S
C133 O138 1.243 1_554 S
C133 O139 1.208 . S
C134 O126 1.315 . S
C134 O129 1.279 . S
C135 O136 1.315 . S
C135 O137 1.279 1_556 S
O136 Cd128 2.223 1_556 S
O136 C135 1.315 . S
O137 Cd127 2.240 . S
O137 C135 1.279 1_554 S
O138 Cd128 2.295 1_556 S
O138 C133 1.243 1_556 S
O139 Cd128 2.439 . S
O139 C133 1.208 . S
O140 Cd141 2.223 . S
O140 C148 1.315 . S
Cd141 O140 2.223 . S
Cd141 O144 2.297 . S
Cd141 O145 2.439 . S
Cd141 O151 2.240 . S
Cd142 O143 2.240 . S
Cd142 O150 2.223 1_554 S
Cd142 O152 2.293 1_554 S
Cd142 O153 2.439 . S
O143 Cd142 2.240 . S
O143 C148 1.279 . S
O144 Cd141 2.297 . S
O144 C146 1.247 . S
O145 Cd141 2.439 . S
O145 C146 1.208 . S
C146 O144 1.247 . S
C146 O145 1.208 . S
C147 O152 1.239 1_554 S
C147 O153 1.208 . S
C148 O140 1.315 . S
C148 O143 1.279 . S
C149 O150 1.315 . S
C149 O151 1.279 1_556 S
O150 Cd142 2.223 1_556 S
O150 C149 1.315 . S
O151 Cd141 2.240 . S
O151 C149 1.279 1_554 S
O152 Cd142 2.293 1_556 S
O152 C147 1.239 1_556 S
O153 Cd142 2.439 . S
O153 C147 1.208 . S
O154 Cd155 2.223 . S
O154 C162 1.315 . S
Cd155 O154 2.223 . S
Cd155 O158 2.297 . S
Cd155 O159 2.439 . S
Cd155 O165 2.240 . S
Cd156 O157 2.240 . S
Cd156 O164 2.223 1_554 S
Cd156 O166 2.295 1_554 S
Cd156 O167 2.439 . S
O157 Cd156 2.240 . S
O157 C162 1.279 . S
O158 Cd155 2.297 . S
O158 C160 1.247 . S
O159 Cd155 2.439 . S
O159 C160 1.208 . S
C160 O158 1.247 . S
C160 O159 1.208 . S
C161 O166 1.242 1_554 S
C161 O167 1.208 . S
C162 O154 1.315 . S
C162 O157 1.279 . S
C163 O164 1.315 . S
C163 O165 1.279 1_556 S
O164 Cd156 2.223 1_556 S
O164 C163 1.315 . S
O165 Cd155 2.240 . S
O165 C163 1.279 1_554 S
O166 Cd156 2.295 1_556 S
O166 C161 1.242 1_556 S
O167 Cd156 2.439 . S
O167 C161 1.208 . S
O168 Cd169 2.223 . S
O168 C176 1.315 . S
Cd169 O168 2.223 . S
Cd169 O172 2.297 . S
Cd169 O173 2.439 . S
Cd169 O179 2.240 . S
Cd170 O171 2.240 . S
Cd170 O178 2.223 . S
Cd170 O180 2.297 . S
Cd170 O181 2.439 . S
O171 Cd170 2.240 . S
O171 C176 1.279 . S
O172 Cd169 2.297 . S
O172 C174 1.247 . S
O173 Cd169 2.439 . S
O173 C174 1.208 . S
C174 O172 1.247 . S
C174 O173 1.208 . S
C175 O180 1.247 . S
C175 O181 1.208 . S
C176 O168 1.315 . S
C176 O171 1.279 . S
C177 O178 1.315 . S
C177 O179 1.279 . S
O178 Cd170 2.223 . S
O178 C177 1.315 . S
O179 Cd169 2.240 . S
O179 C177 1.279 . S
O180 Cd170 2.297 . S
O180 C175 1.247 . S
O181 Cd170 2.439 . S
O181 C175 1.208 . S
O182 Cd183 2.223 . S
O182 C190 1.315 . S
Cd183 O182 2.223 . S
Cd183 O186 2.297 . S
Cd183 O187 2.439 . S
Cd183 O193 2.240 . S
Cd184 O185 2.240 . S
Cd184 O192 2.223 . S
Cd184 O194 2.297 . S
Cd184 O195 2.439 . S
O185 Cd184 2.240 . S
O185 C190 1.279 . S
O186 Cd183 2.297 . S
O186 C188 1.247 . S
O187 Cd183 2.439 . S
O187 C188 1.208 . S
C188 O186 1.247 . S
C188 O187 1.208 . S
C189 O194 1.247 . S
C189 O195 1.208 . S
C190 O182 1.315 . S
C190 O185 1.279 . S
C191 O192 1.315 . S
C191 O193 1.279 . S
O192 Cd184 2.223 . S
O192 C191 1.315 . S
O193 Cd183 2.240 . S
O193 C191 1.279 . S
O194 Cd184 2.297 . S
O194 C189 1.247 . S
O195 Cd184 2.439 . S
O195 C189 1.208 . S
O196 Cd197 2.223 . S
O196 C204 1.315 . S
Cd197 O196 2.223 . S
Cd197 O200 2.297 . S
Cd197 O201 2.439 . S
Cd197 O207 2.240 . S
Cd198 O199 2.240 . S
Cd198 O206 2.223 . S
Cd198 O208 2.297 . S
Cd198 O209 2.439 . S
O199 Cd198 2.240 . S
O199 C204 1.279 . S
O200 Cd197 2.297 . S
O200 C202 1.247 . S
O201 Cd197 2.439 . S
O201 C202 1.208 . S
C202 O200 1.247 . S
C202 O201 1.208 . S
C203 O208 1.247 . S
C203 O209 1.208 . S
C204 O196 1.315 . S
C204 O199 1.279 . S
C205 O206 1.315 . S
C205 O207 1.279 . S
O206 Cd198 2.223 . S
O206 C205 1.315 . S
O207 Cd197 2.240 . S
O207 C205 1.279 . S
O208 Cd198 2.297 . S
O208 C203 1.247 . S
O209 Cd198 2.439 . S
O209 C203 1.208 . S
O210 Cd211 2.223 . S
O210 C218 1.315 . S
Cd211 O210 2.223 . S
Cd211 O214 2.297 . S
Cd211 O215 2.439 . S
Cd211 O221 2.240 . S
Cd212 O213 2.240 . S
Cd212 O220 2.223 . S
Cd212 O222 2.297 . S
Cd212 O223 2.439 . S
O213 Cd212 2.240 . S
O213 C218 1.279 . S
O214 Cd211 2.297 . S
O214 C216 1.247 . S
O215 Cd211 2.439 . S
O215 C216 1.208 . S
C216 O214 1.247 . S
C216 O215 1.208 . S
C217 O222 1.247 . S
C217 O223 1.208 . S
C218 O210 1.315 . S
C218 O213 1.279 . S
C219 O220 1.315 . S
C219 O221 1.279 . S
O220 Cd212 2.223 . S
O220 C219 1.315 . S
O221 Cd211 2.240 . S
O221 C219 1.279 . S
O222 Cd212 2.297 . S
O222 C217 1.247 . S
O223 Cd212 2.439 . S
O223 C217 1.208 . S
O224 Cd225 2.223 . S
O224 C232 1.315 . S
Cd225 O224 2.223 . S
Cd225 O228 2.297 . S
Cd225 O229 2.439 . S
Cd225 O235 2.240 . S
Cd226 O227 2.240 . S
Cd226 O234 2.223 . S
Cd226 O236 2.297 . S
Cd226 O237 2.439 . S
O227 Cd226 2.240 . S
O227 C232 1.279 . S
O228 Cd225 2.297 . S
O228 C230 1.247 . S
O229 Cd225 2.439 . S
O229 C230 1.208 . S
C230 O228 1.247 . S
C230 O229 1.208 . S
C231 O236 1.247 . S
C231 O237 1.208 . S
C232 O224 1.315 . S
C232 O227 1.279 . S
C233 O234 1.315 . S
C233 O235 1.279 . S
O234 Cd226 2.223 . S
O234 C233 1.315 . S
O235 Cd225 2.240 . S
O235 C233 1.279 . S
O236 Cd226 2.297 . S
O236 C231 1.247 . S
O237 Cd226 2.439 . S
O237 C231 1.208 . S
O238 Cd239 2.223 . S
O238 C246 1.315 . S
Cd239 O238 2.223 . S
Cd239 O242 2.297 . S
Cd239 O243 2.439 . S
Cd239 O249 2.240 . S
Cd240 O241 2.240 . S
Cd240 O248 2.223 . S
Cd240 O250 2.297 . S
Cd240 O251 2.439 . S
O241 Cd240 2.240 . S
O241 C246 1.279 . S
O242 Cd239 2.297 . S
O242 C244 1.247 . S
O243 Cd239 2.439 . S
O243 C244 1.208 . S
C244 O242 1.247 . S
C244 O243 1.208 . S
C245 O250 1.247 . S
C245 O251 1.208 . S
C246 O238 1.315 . S
C246 O241 1.279 . S
C247 O248 1.315 . S
C247 O249 1.279 . S
O248 Cd240 2.223 . S
O248 C247 1.315 . S
O249 Cd239 2.240 . S
O249 C247 1.279 . S
O250 Cd240 2.297 . S
O250 C245 1.247 . S
O251 Cd240 2.439 . S
O251 C245 1.208 . S
O252 Cd253 2.223 . S
O252 C260 1.315 . S
Cd253 O252 2.223 . S
Cd253 O256 2.297 . S
Cd253 O257 2.439 . S
Cd253 O263 2.240 . S
Cd254 O255 2.240 . S
Cd254 O262 2.223 . S
Cd254 O264 2.297 . S
Cd254 O265 2.439 . S
O255 Cd254 2.240 . S
O255 C260 1.279 . S
O256 Cd253 2.297 . S
O256 C258 1.247 . S
O257 Cd253 2.439 . S
O257 C258 1.208 . S
C258 O256 1.247 . S
C258 O257 1.208 . S
C259 O264 1.247 . S
C259 O265 1.208 . S
C260 O252 1.315 . S
C260 O255 1.279 . S
C261 O262 1.315 . S
C261 O263 1.279 . S
O262 Cd254 2.223 . S
O262 C261 1.315 . S
O263 Cd253 2.240 . S
O263 C261 1.279 . S
O264 Cd254 2.297 . S
O264 C259 1.247 . S
O265 Cd254 2.439 . S
O265 C259 1.208 . S
O266 Cd267 2.223 . S
O266 C274 1.315 . S
Cd267 O266 2.223 . S
Cd267 O270 2.297 . S
Cd267 O271 2.439 . S
Cd267 O277 2.240 . S
Cd268 O269 2.240 . S
Cd268 O276 2.223 . S
Cd268 O278 2.297 . S
Cd268 O279 2.439 . S
O269 Cd268 2.240 . S
O269 C274 1.279 . S
O270 Cd267 2.297 . S
O270 C272 1.247 . S
O271 Cd267 2.439 . S
O271 C272 1.208 . S
C272 O270 1.247 . S
C272 O271 1.208 . S
C273 O278 1.247 . S
C273 O279 1.208 . S
C274 O266 1.315 . S
C274 O269 1.279 . S
C275 O276 1.315 . S
C275 O277 1.279 . S
O276 Cd268 2.223 . S
O276 C275 1.315 . S
O277 Cd267 2.240 . S
O277 C275 1.279 . S
O278 Cd268 2.297 . S
O278 C273 1.247 . S
O279 Cd268 2.439 . S
O279 C273 1.208 . S
O280 Cd281 2.223 . S
O280 C288 1.315 . S
Cd281 O280 2.223 . S
Cd281 O284 2.297 . S
Cd281 O285 2.439 . S
Cd281 O291 2.240 . S
Cd282 O283 2.240 . S
Cd282 O290 2.223 . S
Cd282 O292 2.297 . S
Cd282 O293 2.439 . S
O283 Cd282 2.240 . S
O283 C288 1.279 . S
O284 Cd281 2.297 . S
O284 C286 1.247 . S
O285 Cd281 2.439 . S
O285 C286 1.208 . S
C286 O284 1.247 . S
C286 O285 1.208 . S
C287 O292 1.247 . S
C287 O293 1.208 . S
C288 O280 1.315 . S
C288 O283 1.279 . S
C289 O290 1.315 . S
C289 O291 1.279 . S
O290 Cd282 2.223 . S
O290 C289 1.315 . S
O291 Cd281 2.240 . S
O291 C289 1.279 . S
O292 Cd282 2.297 . S
O292 C287 1.247 . S
O293 Cd282 2.439 . S
O293 C287 1.208 . S
O294 Cd295 2.223 . S
O294 C302 1.315 . S
Cd295 O294 2.223 . S
Cd295 O298 2.297 . S
Cd295 O299 2.439 . S
Cd295 O305 2.240 . S
Cd296 O297 2.240 . S
Cd296 O304 2.223 . S
Cd296 O306 2.297 . S
Cd296 O307 2.439 . S
O297 Cd296 2.240 . S
O297 C302 1.279 . S
O298 Cd295 2.297 . S
O298 C300 1.247 . S
O299 Cd295 2.439 . S
O299 C300 1.208 . S
C300 O298 1.247 . S
C300 O299 1.208 . S
C301 O306 1.247 . S
C301 O307 1.208 . S
C302 O294 1.315 . S
C302 O297 1.279 . S
C303 O304 1.315 . S
C303 O305 1.279 . S
O304 Cd296 2.223 . S
O304 C303 1.315 . S
O305 Cd295 2.240 . S
O305 C303 1.279 . S
O306 Cd296 2.297 . S
O306 C301 1.247 . S
O307 Cd296 2.439 . S
O307 C301 1.208 . S
O308 Cd309 2.223 . S
O308 C316 1.315 . S
Cd309 O308 2.223 . S
Cd309 O312 2.297 . S
Cd309 O313 2.439 . S
Cd309 O319 2.240 . S
Cd310 O311 2.240 . S
Cd310 O318 2.223 . S
Cd310 O320 2.297 . S
Cd310 O321 2.439 . S
O311 Cd310 2.240 . S
O311 C316 1.279 . S
O312 Cd309 2.297 . S
O312 C314 1.247 . S
O313 Cd309 2.439 . S
O313 C314 1.208 . S
C314 O312 1.247 . S
C314 O313 1.208 . S
C315 O320 1.247 . S
C315 O321 1.208 . S
C316 O308 1.315 . S
C316 O311 1.279 . S
C317 O318 1.315 . S
C317 O319 1.279 . S
O318 Cd310 2.223 . S
O318 C317 1.315 . S
O319 Cd309 2.240 . S
O319 C317 1.279 . S
O320 Cd310 2.297 . S
O320 C315 1.247 . S
O321 Cd310 2.439 . S
O321 C315 1.208 . S
O322 Cd323 2.223 . S
O322 C330 1.315 . S
Cd323 O322 2.223 . S
Cd323 O326 2.297 . S
Cd323 O327 2.439 . S
Cd323 O333 2.240 . S
Cd324 O325 2.240 . S
Cd324 O332 2.223 . S
Cd324 O334 2.297 . S
Cd324 O335 2.439 . S
O325 Cd324 2.240 . S
O325 C330 1.279 . S
O326 Cd323 2.297 . S
O326 C328 1.247 . S
O327 Cd323 2.439 . S
O327 C328 1.208 . S
C328 O326 1.247 . S
C328 O327 1.208 . S
C329 O334 1.247 . S
C329 O335 1.208 . S
C330 O322 1.315 . S
C330 O325 1.279 . S
C331 O332 1.315 . S
C331 O333 1.279 . S
O332 Cd324 2.223 . S
O332 C331 1.315 . S
O333 Cd323 2.240 . S
O333 C331 1.279 . S
O334 Cd324 2.297 . S
O334 C329 1.247 . S
O335 Cd324 2.439 . S
O335 C329 1.208 . S
O336 Cd337 2.223 . S
O336 C344 1.315 . S
Cd337 O336 2.223 . S
Cd337 O340 2.297 . S
Cd337 O341 2.439 . S
Cd337 O347 2.240 . S
Cd338 O339 2.240 . S
Cd338 O346 2.223 . S
Cd338 O348 2.297 . S
Cd338 O349 2.439 . S
O339 Cd338 2.240 . S
O339 C344 1.279 . S
O340 Cd337 2.297 . S
O340 C342 1.247 . S
O341 Cd337 2.439 . S
O341 C342 1.208 . S
C342 O340 1.247 . S
C342 O341 1.208 . S
C343 O348 1.247 . S
C343 O349 1.208 . S
C344 O336 1.315 . S
C344 O339 1.279 . S
C345 O346 1.315 . S
C345 O347 1.279 . S
O346 Cd338 2.223 . S
O346 C345 1.315 . S
O347 Cd337 2.240 . S
O347 C345 1.279 . S
O348 Cd338 2.297 . S
O348 C343 1.247 . S
O349 Cd338 2.439 . S
O349 C343 1.208 . S
O350 Cd351 2.223 . S
O350 C358 1.315 . S
Cd351 O350 2.223 . S
Cd351 O354 2.297 . S
Cd351 O355 2.439 . S
Cd351 O361 2.240 . S
Cd352 O353 2.240 . S
Cd352 O360 2.223 . S
Cd352 O362 2.297 . S
Cd352 O363 2.439 . S
O353 Cd352 2.240 . S
O353 C358 1.279 . S
O354 Cd351 2.297 . S
O354 C356 1.247 . S
O355 Cd351 2.439 . S
O355 C356 1.208 . S
C356 O354 1.247 . S
C356 O355 1.208 . S
C357 O362 1.247 . S
C357 O363 1.208 . S
C358 O350 1.315 . S
C358 O353 1.279 . S
C359 O360 1.315 . S
C359 O361 1.279 . S
O360 Cd352 2.223 . S
O360 C359 1.315 . S
O361 Cd351 2.240 . S
O361 C359 1.279 . S
O362 Cd352 2.297 . S
O362 C357 1.247 . S
O363 Cd352 2.439 . S
O363 C357 1.208 . S
O364 Cd365 2.223 . S
O364 C372 1.315 . S
Cd365 O364 2.223 . S
Cd365 O368 2.297 . S
Cd365 O369 2.439 . S
Cd365 O375 2.240 . S
Cd366 O367 2.240 . S
Cd366 O374 2.223 . S
Cd366 O376 2.297 . S
Cd366 O377 2.439 . S
O367 Cd366 2.240 . S
O367 C372 1.279 . S
O368 Cd365 2.297 . S
O368 C370 1.247 . S
O369 Cd365 2.439 . S
O369 C370 1.208 . S
C370 O368 1.247 . S
C370 O369 1.208 . S
C371 O376 1.247 . S
C371 O377 1.208 . S
C372 O364 1.315 . S
C372 O367 1.279 . S
C373 O374 1.315 . S
C373 O375 1.279 . S
O374 Cd366 2.223 . S
O374 C373 1.315 . S
O375 Cd365 2.240 . S
O375 C373 1.279 . S
O376 Cd366 2.297 . S
O376 C371 1.247 . S
O377 Cd366 2.439 . S
O377 C371 1.208 . S
O378 Cd379 2.223 . S
O378 C386 1.315 . S
Cd379 O378 2.223 . S
Cd379 O382 2.297 . S
Cd379 O383 2.439 . S
Cd379 O389 2.240 . S
Cd380 O381 2.240 . S
Cd380 O388 2.223 . S
Cd380 O390 2.297 . S
Cd380 O391 2.439 . S
O381 Cd380 2.240 . S
O381 C386 1.279 . S
O382 Cd379 2.297 . S
O382 C384 1.247 . S
O383 Cd379 2.439 . S
O383 C384 1.208 . S
C384 O382 1.247 . S
C384 O383 1.208 . S
C385 O390 1.247 . S
C385 O391 1.208 . S
C386 O378 1.315 . S
C386 O381 1.279 . S
C387 O388 1.315 . S
C387 O389 1.279 . S
O388 Cd380 2.223 . S
O388 C387 1.315 . S
O389 Cd379 2.240 . S
O389 C387 1.279 . S
O390 Cd380 2.297 . S
O390 C385 1.247 . S
O391 Cd380 2.439 . S
O391 C385 1.208 . S
O392 Cd393 2.223 . S
O392 C400 1.315 . S
Cd393 O392 2.223 . S
Cd393 O396 2.297 . S
Cd393 O397 2.439 . S
Cd393 O403 2.240 . S
Cd394 O395 2.240 . S
Cd394 O402 2.223 . S
Cd394 O404 2.297 . S
Cd394 O405 2.439 . S
O395 Cd394 2.240 . S
O395 C400 1.279 . S
O396 Cd393 2.297 . S
O396 C398 1.247 . S
O397 Cd393 2.439 . S
O397 C398 1.208 . S
C398 O396 1.247 . S
C398 O397 1.208 . S
C399 O404 1.247 . S
C399 O405 1.208 . S
C400 O392 1.315 . S
C400 O395 1.279 . S
C401 O402 1.315 . S
C401 O403 1.279 . S
O402 Cd394 2.223 . S
O402 C401 1.315 . S
O403 Cd393 2.240 . S
O403 C401 1.279 . S
O404 Cd394 2.297 . S
O404 C399 1.247 . S
O405 Cd394 2.439 . S
O405 C399 1.208 . S
O406 Cd407 2.223 . S
O406 C414 1.315 . S
Cd407 O406 2.223 . S
Cd407 O410 2.297 . S
Cd407 O411 2.439 . S
Cd407 O417 2.240 . S
Cd408 O409 2.240 . S
Cd408 O416 2.223 . S
Cd408 O418 2.297 . S
Cd408 O419 2.439 . S
O409 Cd408 2.240 . S
O409 C414 1.279 . S
O410 Cd407 2.297 . S
O410 C412 1.247 . S
O411 Cd407 2.439 . S
O411 C412 1.208 . S
C412 O410 1.247 . S
C412 O411 1.208 . S
C413 O418 1.247 . S
C413 O419 1.208 . S
C414 O406 1.315 . S
C414 O409 1.279 . S
C415 O416 1.315 . S
C415 O417 1.279 . S
O416 Cd408 2.223 . S
O416 C415 1.315 . S
O417 Cd407 2.240 . S
O417 C415 1.279 . S
O418 Cd408 2.297 . S
O418 C413 1.247 . S
O419 Cd408 2.439 . S
O419 C413 1.208 . S
O420 Cd421 2.223 . S
O420 C428 1.315 . S
Cd421 O420 2.223 . S
Cd421 O424 2.297 . S
Cd421 O425 2.439 . S
Cd421 O431 2.240 . S
Cd422 O423 2.240 . S
Cd422 O430 2.223 . S
Cd422 O432 2.297 . S
Cd422 O433 2.439 . S
O423 Cd422 2.240 . S
O423 C428 1.279 . S
O424 Cd421 2.297 . S
O424 C426 1.247 . S
O425 Cd421 2.439 . S
O425 C426 1.208 . S
C426 O424 1.247 . S
C426 O425 1.208 . S
C427 O432 1.247 . S
C427 O433 1.208 . S
C428 O420 1.315 . S
C428 O423 1.279 . S
C429 O430 1.315 . S
C429 O431 1.279 . S
O430 Cd422 2.223 . S
O430 C429 1.315 . S
O431 Cd421 2.240 . S
O431 C429 1.279 . S
O432 Cd422 2.297 . S
O432 C427 1.247 . S
O433 Cd422 2.439 . S
O433 C427 1.208 . S
O434 Cd435 2.223 . S
O434 C442 1.315 . S
Cd435 O434 2.223 . S
Cd435 O438 2.297 . S
Cd435 O439 2.439 . S
Cd435 O445 2.240 . S
Cd436 O437 2.240 . S
Cd436 O444 2.223 . S
Cd436 O446 2.297 . S
Cd436 O447 2.439 . S
O437 Cd436 2.240 . S
O437 C442 1.279 . S
O438 Cd435 2.297 . S
O438 C440 1.247 . S
O439 Cd435 2.439 . S
O439 C440 1.208 . S
C440 O438 1.247 . S
C440 O439 1.208 . S
C441 O446 1.247 . S
C441 O447 1.208 . S
C442 O434 1.315 . S
C442 O437 1.279 . S
C443 O444 1.315 . S
C443 O445 1.279 . S
O444 Cd436 2.223 . S
O444 C443 1.315 . S
O445 Cd435 2.240 . S
O445 C443 1.279 . S
O446 Cd436 2.297 . S
O446 C441 1.247 . S
O447 Cd436 2.439 . S
O447 C441 1.208 . S
O448 Cd449 2.223 . S
O448 C456 1.315 . S
Cd449 O448 2.223 . S
Cd449 O452 2.297 . S
Cd449 O453 2.439 . S
Cd449 O459 2.240 . S
Cd450 O451 2.240 . S
Cd450 O458 2.223 . S
Cd450 O460 2.297 . S
Cd450 O461 2.439 . S
O451 Cd450 2.240 . S
O451 C456 1.279 . S
O452 Cd449 2.297 . S
O452 C454 1.247 . S
O453 Cd449 2.439 . S
O453 C454 1.208 . S
C454 O452 1.247 . S
C454 O453 1.208 . S
C455 O460 1.247 . S
C455 O461 1.208 . S
C456 O448 1.315 . S
C456 O451 1.279 . S
C457 O458 1.315 . S
C457 O459 1.279 . S
O458 Cd450 2.223 . S
O458 C457 1.315 . S
O459 Cd449 2.240 . S
O459 C457 1.279 . S
O460 Cd450 2.297 . S
O460 C455 1.247 . S
O461 Cd450 2.439 . S
O461 C455 1.208 . S
O462 Cd463 2.223 . S
O462 C470 1.315 . S
Cd463 O462 2.223 . S
Cd463 O466 2.297 . S
Cd463 O467 2.439 . S
Cd463 O473 2.240 . S
Cd464 O465 2.240 . S
Cd464 O472 2.223 . S
Cd464 O474 2.297 . S
Cd464 O475 2.439 . S
O465 Cd464 2.240 . S
O465 C470 1.279 . S
O466 Cd463 2.297 . S
O466 C468 1.247 . S
O467 Cd463 2.439 . S
O467 C468 1.208 . S
C468 O466 1.247 . S
C468 O467 1.208 . S
C469 O474 1.247 . S
C469 O475 1.208 . S
C470 O462 1.315 . S
C470 O465 1.279 . S
C471 O472 1.315 . S
C471 O473 1.279 . S
O472 Cd464 2.223 . S
O472 C471 1.315 . S
O473 Cd463 2.240 . S
O473 C471 1.279 . S
O474 Cd464 2.297 . S
O474 C469 1.247 . S
O475 Cd464 2.439 . S
O475 C469 1.208 . S
O476 Cd477 2.223 . S
O476 C484 1.315 . S
Cd477 O476 2.223 . S
Cd477 O480 2.297 . S
Cd477 O481 2.439 . S
Cd477 O487 2.240 . S
Cd478 O479 2.240 . S
Cd478 O486 2.223 . S
Cd478 O488 2.297 . S
Cd478 O489 2.439 . S
O479 Cd478 2.240 . S
O479 C484 1.279 . S
O480 Cd477 2.297 . S
O480 C482 1.247 . S
O481 Cd477 2.439 . S
O481 C482 1.208 . S
C482 O480 1.247 . S
C482 O481 1.208 . S
C483 O488 1.247 . S
C483 O489 1.208 . S
C484 O476 1.315 . S
C484 O479 1.279 . S
C485 O486 1.315 . S
C485 O487 1.279 . S
O486 Cd478 2.223 . S
O486 C485 1.315 . S
O487 Cd477 2.240 . S
O487 C485 1.279 . S
O488 Cd478 2.297 . S
O488 C483 1.247 . S
O489 Cd478 2.439 . S
O489 C483 1.208 . S
O490 Cd491 2.223 . S
O490 C498 1.315 . S
Cd491 O490 2.223 . S
Cd491 O494 2.297 . S
Cd491 O495 2.439 . S
Cd491 O501 2.240 . S
Cd492 O493 2.240 . S
Cd492 O500 2.223 . S
Cd492 O502 2.297 . S
Cd492 O503 2.439 . S
O493 Cd492 2.240 . S
O493 C498 1.279 . S
O494 Cd491 2.297 . S
O494 C496 1.247 . S
O495 Cd491 2.439 . S
O495 C496 1.208 . S
C496 O494 1.247 . S
C496 O495 1.208 . S
C497 O502 1.247 . S
C497 O503 1.208 . S
C498 O490 1.315 . S
C498 O493 1.279 . S
C499 O500 1.315 . S
C499 O501 1.279 . S
O500 Cd492 2.223 . S
O500 C499 1.315 . S
O501 Cd491 2.240 . S
O501 C499 1.279 . S
O502 Cd492 2.297 . S
O502 C497 1.247 . S
O503 Cd492 2.439 . S
O503 C497 1.208 . S
C504 C505 1.391 . S
C504 C506 1.394 . S
C504 H520 0.931 . S
C505 C504 1.391 . S
C505 C509 1.376 . S
C506 C504 1.394 . S
C506 C507 1.369 . S
C506 C510 1.531 . S
C507 C506 1.369 . S
C507 C508 1.410 . S
C507 C515 1.503 . S
C508 C507 1.410 . S
C508 C509 1.392 . S
C508 C511 1.511 1_554 S
C509 C505 1.376 . S
C509 C508 1.392 . S
C509 H521 0.921 1_554 S
C510 C506 1.531 . S
C510 H522 0.960 . S
C510 H523 0.962 . S
C510 H524 0.960 . S
C511 C508 1.511 1_556 S
C511 H525 0.961 . S
C511 H526 0.961 . S
C511 H527 0.961 . S
C512 C513 1.370 . S
C512 C514 1.363 . S
C512 H528 0.931 . S
C513 C512 1.370 . S
C513 C517 1.408 . S
C514 C512 1.363 . S
C514 C515 1.370 . S
C514 C518 1.524 . S
C515 C507 1.503 . S
C515 C514 1.370 . S
C515 C516 1.403 . S
C516 C515 1.403 . S
C516 C517 1.404 . S
C516 C519 1.539 . S
C517 C513 1.408 . S
C517 C516 1.404 . S
C517 H529 0.930 . S
C518 C514 1.524 . S
C518 H530 0.956 . S
C518 H531 0.964 . S
C518 H532 0.961 . S
C519 C516 1.539 . S
C519 H533 0.958 . S
C519 H534 0.961 . S
C519 H535 0.960 . S
H520 C504 0.931 . S
H521 C509 0.921 1_556 S
H522 C510 0.960 . S
H523 C510 0.962 . S
H524 C510 0.960 . S
H525 C511 0.961 . S
H526 C511 0.961 . S
H527 C511 0.961 . S
H528 C512 0.931 . S
H529 C517 0.930 . S
H530 C518 0.956 . S
H531 C518 0.964 . S
H532 C518 0.961 . S
H533 C519 0.958 . S
H534 C519 0.961 . S
H535 C519 0.960 . S
C536 C537 1.391 . S
C536 C538 1.394 . S
C536 H552 0.931 . S
C537 C536 1.391 . S
C537 C541 1.376 . S
C538 C536 1.394 . S
C538 C539 1.369 . S
C538 C542 1.531 . S
C539 C538 1.369 . S
C539 C540 1.410 . S
C539 C547 1.503 . S
C540 C539 1.410 . S
C540 C541 1.392 . S
C540 C543 1.511 . S
C541 C537 1.376 . S
C541 C540 1.392 . S
C541 H553 0.929 . S
C542 C538 1.531 . S
C542 H554 0.960 . S
C542 H555 0.962 . S
C542 H556 0.960 . S
C543 C540 1.511 . S
C543 H557 0.961 . S
C543 H558 0.961 . S
C543 H559 0.961 . S
C544 C545 1.370 . S
C544 C546 1.363 . S
C544 H560 0.931 1_554 S
C545 C544 1.370 . S
C545 C549 1.408 . S
C546 C544 1.363 . S
C546 C547 1.370 . S
C546 C550 1.524 1_554 S
C547 C539 1.503 . S
C547 C546 1.370 . S
C547 C548 1.403 . S
C548 C547 1.403 . S
C548 C549 1.404 . S
C548 C551 1.539 . S
C549 C545 1.408 . S
C549 C548 1.404 . S
C549 H561 0.930 . S
C550 C546 1.524 1_556 S
C550 H562 0.956 . S
C550 H563 0.961 . S
C550 H564 0.961 . S
C551 C548 1.539 . S
C551 H565 0.958 . S
C551 H566 0.961 . S
C551 H567 0.960 . S
H552 C536 0.931 . S
H553 C541 0.929 . S
H554 C542 0.960 . S
H555 C542 0.962 . S
H556 C542 0.960 . S
H557 C543 0.961 . S
H558 C543 0.961 . S
H559 C543 0.961 . S
H560 C544 0.931 1_556 S
H561 C549 0.930 . S
H562 C550 0.956 . S
H563 C550 0.961 . S
H564 C550 0.961 . S
H565 C551 0.958 . S
H566 C551 0.961 . S
H567 C551 0.960 . S
C568 C569 1.391 . S
C568 C570 1.394 . S
C568 H584 0.931 . S
C569 C568 1.391 . S
C569 C573 1.376 . S
C570 C568 1.394 . S
C570 C571 1.369 . S
C570 C574 1.531 . S
C571 C570 1.369 . S
C571 C572 1.410 . S
C571 C579 1.503 . S
C572 C571 1.410 . S
C572 C573 1.392 . S
C572 C575 1.511 . S
C573 C569 1.376 . S
C573 C572 1.392 . S
C573 H585 0.929 . S
C574 C570 1.531 . S
C574 H586 0.960 . S
C574 H587 0.962 . S
C574 H588 0.960 . S
C575 C572 1.511 . S
C575 H589 0.961 . S
C575 H590 0.961 . S
C575 H591 0.961 . S
C576 C577 1.370 . S
C576 C578 1.363 . S
C576 H592 0.931 . S
C577 C576 1.370 . S
C577 C581 1.408 . S
C578 C576 1.363 . S
C578 C579 1.370 . S
C578 C582 1.524 . S
C579 C571 1.503 . S
C579 C578 1.370 . S
C579 C580 1.403 . S
C580 C579 1.403 . S
C580 C581 1.404 . S
C580 C583 1.539 1_554 S
C581 C577 1.408 . S
C581 C580 1.404 . S
C581 H593 0.930 1_554 S
C582 C578 1.524 . S
C582 H594 0.956 . S
C582 H595 0.961 . S
C582 H596 0.961 . S
C583 C580 1.539 1_556 S
C583 H597 0.958 . S
C583 H598 0.961 . S
C583 H599 0.960 . S
H584 C568 0.931 . S
H585 C573 0.929 . S
H586 C574 0.960 . S
H587 C574 0.962 . S
H588 C574 0.960 . S
H589 C575 0.961 . S
H590 C575 0.961 . S
H591 C575 0.961 . S
H592 C576 0.931 . S
H593 C581 0.930 1_556 S
H594 C582 0.956 . S
H595 C582 0.961 . S
H596 C582 0.961 . S
H597 C583 0.958 . S
H598 C583 0.961 . S
H599 C583 0.960 . S
C600 C601 1.391 . S
C600 C602 1.394 . S
C600 H616 0.931 . S
C601 C600 1.391 . S
C601 C605 1.376 . S
C602 C600 1.394 . S
C602 C603 1.369 . S
C602 C606 1.525 1_556 S
C603 C602 1.369 . S
C603 C604 1.410 . S
C603 C611 1.503 . S
C604 C603 1.410 . S
C604 C605 1.392 . S
C604 C607 1.511 . S
C605 C601 1.376 . S
C605 C604 1.392 . S
C605 H617 0.929 . S
C606 C602 1.525 1_554 S
C606 H618 0.956 1_554 S
C606 H619 0.969 . S
C606 H620 0.963 . S
C607 C604 1.511 . S
C607 H621 0.961 . S
C607 H622 0.961 . S
C607 H623 0.961 . S
C608 C609 1.370 . S
C608 C610 1.363 . S
C608 H624 0.931 . S
C609 C608 1.370 . S
C609 C613 1.408 . S
C610 C608 1.363 . S
C610 C611 1.370 . S
C610 C614 1.524 . S
C611 C603 1.503 . S
C611 C610 1.370 . S
C611 C612 1.403 . S
C612 C611 1.403 . S
C612 C613 1.404 . S
C612 C615 1.539 . S
C613 C609 1.408 . S
C613 C612 1.404 . S
C613 H625 0.930 . S
C614 C610 1.524 . S
C614 H626 0.956 1_556 S
C614 H627 0.961 . S
C614 H628 0.961 1_556 S
C615 C612 1.539 . S
C615 H629 0.958 . S
C615 H630 0.961 . S
C615 H631 0.960 . S
H616 C600 0.931 . S
H617 C605 0.929 . S
H618 C606 0.956 1_556 S
H619 C606 0.969 . S
H620 C606 0.963 . S
H621 C607 0.961 . S
H622 C607 0.961 . S
H623 C607 0.961 . S
H624 C608 0.931 . S
H625 C613 0.930 . S
H626 C614 0.956 1_554 S
H627 C614 0.961 . S
H628 C614 0.961 1_554 S
H629 C615 0.958 . S
H630 C615 0.961 . S
H631 C615 0.960 . S
C632 C633 1.391 . S
C632 C634 1.394 . S
C632 H648 0.931 . S
C633 C632 1.391 . S
C633 C637 1.376 . S
C634 C632 1.394 . S
C634 C635 1.369 . S
C634 C638 1.531 1_556 S
C635 C634 1.369 . S
C635 C636 1.410 . S
C635 C643 1.503 . S
C636 C635 1.410 . S
C636 C637 1.392 . S
C636 C639 1.511 . S
C637 C633 1.376 . S
C637 C636 1.392 . S
C637 H649 0.929 . S
C638 C634 1.531 1_554 S
C638 H650 0.960 . S
C638 H651 0.962 1_554 S
C638 H652 0.960 . S
C639 C636 1.511 . S
C639 H653 0.961 . S
C639 H654 0.961 . S
C639 H655 0.961 . S
C640 C641 1.370 . S
C640 C642 1.363 . S
C640 H656 0.931 . S
C641 C640 1.370 . S
C641 C645 1.408 . S
C642 C640 1.363 . S
C642 C643 1.370 . S
C642 C646 1.524 . S
C643 C635 1.503 . S
C643 C642 1.370 . S
C643 C644 1.403 . S
C644 C643 1.403 . S
C644 C645 1.404 . S
C644 C647 1.539 1_556 S
C645 C641 1.408 . S
C645 C644 1.404 . S
C645 H657 0.930 . S
C646 C642 1.524 . S
C646 H658 0.956 . S
C646 H659 0.961 . S
C646 H660 0.961 . S
C647 C644 1.539 1_554 S
C647 H661 0.958 . S
C647 H662 0.961 . S
C647 H663 0.958 1_554 S
H648 C632 0.931 . S
H649 C637 0.929 . S
H650 C638 0.960 . S
H651 C638 0.962 1_556 S
H652 C638 0.960 . S
H653 C639 0.961 . S
H654 C639 0.961 . S
H655 C639 0.961 . S
H656 C640 0.931 . S
H657 C645 0.930 . S
H658 C646 0.956 . S
H659 C646 0.961 . S
H660 C646 0.961 . S
H661 C647 0.958 . S
H662 C647 0.961 . S
H663 C647 0.958 1_556 S
C664 C665 1.391 . S
C664 C666 1.394 . S
C664 H680 0.931 . S
C665 C664 1.391 . S
C665 C669 1.376 . S
C666 C664 1.394 . S
C666 C667 1.369 . S
C666 C670 1.531 . S
C667 C666 1.369 . S
C667 C668 1.410 . S
C667 C675 1.503 . S
C668 C667 1.410 . S
C668 C669 1.392 . S
C668 C671 1.511 . S
C669 C665 1.376 . S
C669 C668 1.392 . S
C669 H681 0.929 . S
C670 C666 1.531 . S
C670 H682 0.960 . S
C670 H683 0.962 . S
C670 H684 0.960 . S
C671 C668 1.511 . S
C671 H685 0.961 1_556 S
C671 H686 0.961 1_556 S
C671 H687 0.961 . S
C672 C673 1.370 . S
C672 C674 1.363 . S
C672 H688 0.931 . S
C673 C672 1.370 . S
C673 C677 1.408 . S
C674 C672 1.363 . S
C674 C675 1.370 . S
C674 C678 1.524 . S
C675 C667 1.503 . S
C675 C674 1.370 . S
C675 C676 1.403 . S
C676 C675 1.403 . S
C676 C677 1.404 . S
C676 C679 1.539 . S
C677 C673 1.408 . S
C677 C676 1.404 . S
C677 H689 0.930 . S
C678 C674 1.524 . S
C678 H690 0.956 . S
C678 H691 0.961 1_556 S
C678 H692 0.961 1_556 S
C679 C676 1.539 . S
C679 H693 0.958 . S
C679 H694 0.961 . S
C679 H695 0.960 . S
H680 C664 0.931 . S
H681 C669 0.929 . S
H682 C670 0.960 . S
H683 C670 0.962 . S
H684 C670 0.960 . S
H685 C671 0.961 1_554 S
H686 C671 0.961 1_554 S
H687 C671 0.961 . S
H688 C672 0.931 . S
H689 C677 0.930 . S
H690 C678 0.956 . S
H691 C678 0.961 1_554 S
H692 C678 0.961 1_554 S
H693 C679 0.958 . S
H694 C679 0.961 . S
H695 C679 0.960 . S
C696 C697 1.391 . S
C696 C698 1.394 . S
C696 H712 0.931 . S
C697 C696 1.391 . S
C697 C701 1.376 . S
C698 C696 1.394 . S
C698 C699 1.369 . S
C698 C702 1.531 . S
C699 C698 1.369 . S
C699 C700 1.410 . S
C699 C707 1.503 . S
C700 C699 1.410 . S
C700 C701 1.392 . S
C700 C703 1.511 . S
C701 C697 1.376 . S
C701 C700 1.392 . S
C701 H713 0.929 . S
C702 C698 1.531 . S
C702 H714 0.960 . S
C702 H715 0.962 . S
C702 H716 0.960 . S
C703 C700 1.511 . S
C703 H717 0.961 . S
C703 H718 0.961 . S
C703 H719 0.961 . S
C704 C705 1.370 . S
C704 C706 1.363 . S
C704 H720 0.931 . S
C705 C704 1.370 . S
C705 C709 1.408 . S
C706 C704 1.363 . S
C706 C707 1.370 . S
C706 C710 1.524 . S
C707 C699 1.503 . S
C707 C706 1.370 . S
C707 C708 1.403 . S
C708 C707 1.403 . S
C708 C709 1.404 . S
C708 C711 1.539 . S
C709 C705 1.408 . S
C709 C708 1.404 . S
C709 H721 0.930 . S
C710 C706 1.524 . S
C710 H722 0.956 . S
C710 H723 0.961 . S
C710 H724 0.961 . S
C711 C708 1.539 . S
C711 H725 0.958 . S
C711 H726 0.961 . S
C711 H727 0.960 . S
H712 C696 0.931 . S
H713 C701 0.929 . S
H714 C702 0.960 . S
H715 C702 0.962 . S
H716 C702 0.960 . S
H717 C703 0.961 . S
H718 C703 0.961 . S
H719 C703 0.961 . S
H720 C704 0.931 . S
H721 C709 0.930 . S
H722 C710 0.956 . S
H723 C710 0.961 . S
H724 C710 0.961 . S
H725 C711 0.958 . S
H726 C711 0.961 . S
H727 C711 0.960 . S
C728 C729 1.391 . S
C728 C730 1.394 . S
C728 H744 0.931 . S
C729 C728 1.391 . S
C729 C733 1.376 . S
C730 C728 1.394 . S
C730 C731 1.369 . S
C730 C734 1.531 . S
C731 C730 1.369 . S
C731 C732 1.410 . S
C731 C739 1.503 . S
C732 C731 1.410 . S
C732 C733 1.392 . S
C732 C735 1.511 . S
C733 C729 1.376 . S
C733 C732 1.392 . S
C733 H745 0.929 . S
C734 C730 1.531 . S
C734 H746 0.960 . S
C734 H747 0.962 . S
C734 H748 0.960 . S
C735 C732 1.511 . S
C735 H749 0.961 . S
C735 H750 0.961 . S
C735 H751 0.961 . S
C736 C737 1.370 . S
C736 C738 1.363 . S
C736 H752 0.931 . S
C737 C736 1.370 . S
C737 C741 1.408 . S
C738 C736 1.363 . S
C738 C739 1.370 . S
C738 C742 1.524 . S
C739 C731 1.503 . S
C739 C738 1.370 . S
C739 C740 1.403 . S
C740 C739 1.403 . S
C740 C741 1.404 . S
C740 C743 1.539 . S
C741 C737 1.408 . S
C741 C740 1.404 . S
C741 H753 0.930 . S
C742 C738 1.524 . S
C742 H754 0.956 . S
C742 H755 0.961 . S
C742 H756 0.961 . S
C743 C740 1.539 . S
C743 H757 0.958 . S
C743 H758 0.961 . S
C743 H759 0.960 . S
H744 C728 0.931 . S
H745 C733 0.929 . S
H746 C734 0.960 . S
H747 C734 0.962 . S
H748 C734 0.960 . S
H749 C735 0.961 . S
H750 C735 0.961 . S
H751 C735 0.961 . S
H752 C736 0.931 . S
H753 C741 0.930 . S
H754 C742 0.956 . S
H755 C742 0.961 . S
H756 C742 0.961 . S
H757 C743 0.958 . S
H758 C743 0.961 . S
H759 C743 0.960 . S
C760 C761 1.391 . S
C760 C762 1.394 . S
C760 H776 0.931 . S
C761 C760 1.391 . S
C761 C765 1.376 . S
C762 C760 1.394 . S
C762 C763 1.369 . S
C762 C766 1.531 . S
C763 C762 1.369 . S
C763 C764 1.410 . S
C763 C771 1.503 . S
C764 C763 1.410 . S
C764 C765 1.392 . S
C764 C767 1.511 . S
C765 C761 1.376 . S
C765 C764 1.392 . S
C765 H777 0.929 . S
C766 C762 1.531 . S
C766 H778 0.960 . S
C766 H779 0.962 . S
C766 H780 0.960 . S
C767 C764 1.511 . S
C767 H781 0.961 . S
C767 H782 0.961 . S
C767 H783 0.961 . S
C768 C769 1.370 . S
C768 C770 1.363 . S
C768 H784 0.931 . S
C769 C768 1.370 . S
C769 C773 1.408 . S
C770 C768 1.363 . S
C770 C771 1.370 . S
C770 C774 1.524 . S
C771 C763 1.503 . S
C771 C770 1.370 . S
C771 C772 1.403 . S
C772 C771 1.403 . S
C772 C773 1.404 . S
C772 C775 1.539 . S
C773 C769 1.408 . S
C773 C772 1.404 . S
C773 H785 0.930 . S
C774 C770 1.524 . S
C774 H786 0.956 . S
C774 H787 0.961 . S
C774 H788 0.961 . S
C775 C772 1.539 . S
C775 H789 0.958 . S
C775 H790 0.961 . S
C775 H791 0.960 . S
H776 C760 0.931 . S
H777 C765 0.929 . S
H778 C766 0.960 . S
H779 C766 0.962 . S
H780 C766 0.960 . S
H781 C767 0.961 . S
H782 C767 0.961 . S
H783 C767 0.961 . S
H784 C768 0.931 . S
H785 C773 0.930 . S
H786 C774 0.956 . S
H787 C774 0.961 . S
H788 C774 0.961 . S
H789 C775 0.958 . S
H790 C775 0.961 . S
H791 C775 0.960 . S
C792 C793 1.391 . S
C792 C794 1.394 . S
C792 H808 0.931 . S
C793 C792 1.391 . S
C793 C797 1.376 . S
C794 C792 1.394 . S
C794 C795 1.369 . S
C794 C798 1.531 . S
C795 C794 1.369 . S
C795 C796 1.410 . S
C795 C803 1.503 . S
C796 C795 1.410 . S
C796 C797 1.392 . S
C796 C799 1.511 . S
C797 C793 1.376 . S
C797 C796 1.392 . S
C797 H809 0.929 . S
C798 C794 1.531 . S
C798 H810 0.960 . S
C798 H811 0.962 . S
C798 H812 0.960 . S
C799 C796 1.511 . S
C799 H813 0.961 . S
C799 H814 0.961 . S
C799 H815 0.961 . S
C800 C801 1.370 . S
C800 C802 1.363 . S
C800 H816 0.931 . S
C801 C800 1.370 . S
C801 C805 1.408 . S
C802 C800 1.363 . S
C802 C803 1.370 . S
C802 C806 1.524 . S
C803 C795 1.503 . S
C803 C802 1.370 . S
C803 C804 1.403 . S
C804 C803 1.403 . S
C804 C805 1.404 . S
C804 C807 1.539 . S
C805 C801 1.408 . S
C805 C804 1.404 . S
C805 H817 0.930 . S
C806 C802 1.524 . S
C806 H818 0.956 . S
C806 H819 0.961 . S
C806 H820 0.961 . S
C807 C804 1.539 . S
C807 H821 0.958 . S
C807 H822 0.961 . S
C807 H823 0.960 . S
H808 C792 0.931 . S
H809 C797 0.929 . S
H810 C798 0.960 . S
H811 C798 0.962 . S
H812 C798 0.960 . S
H813 C799 0.961 . S
H814 C799 0.961 . S
H815 C799 0.961 . S
H816 C800 0.931 . S
H817 C805 0.930 . S
H818 C806 0.956 . S
H819 C806 0.961 . S
H820 C806 0.961 . S
H821 C807 0.958 . S
H822 C807 0.961 . S
H823 C807 0.960 . S
C824 C825 1.391 . S
C824 C826 1.394 . S
C824 H840 0.931 . S
C825 C824 1.391 . S
C825 C829 1.376 . S
C826 C824 1.394 . S
C826 C827 1.369 . S
C826 C830 1.531 . S
C827 C826 1.369 . S
C827 C828 1.410 . S
C827 C835 1.503 . S
C828 C827 1.410 . S
C828 C829 1.392 . S
C828 C831 1.511 . S
C829 C825 1.376 . S
C829 C828 1.392 . S
C829 H841 0.929 . S
C830 C826 1.531 . S
C830 H842 0.960 . S
C830 H843 0.962 . S
C830 H844 0.960 . S
C831 C828 1.511 . S
C831 H845 0.961 . S
C831 H846 0.961 . S
C831 H847 0.961 . S
C832 C833 1.370 . S
C832 C834 1.363 . S
C832 H848 0.931 . S
C833 C832 1.370 . S
C833 C837 1.408 . S
C834 C832 1.363 . S
C834 C835 1.370 . S
C834 C838 1.524 . S
C835 C827 1.503 . S
C835 C834 1.370 . S
C835 C836 1.403 . S
C836 C835 1.403 . S
C836 C837 1.404 . S
C836 C839 1.539 . S
C837 C833 1.408 . S
C837 C836 1.404 . S
C837 H849 0.930 . S
C838 C834 1.524 . S
C838 H850 0.956 . S
C838 H851 0.961 . S
C838 H852 0.961 . S
C839 C836 1.539 . S
C839 H853 0.958 . S
C839 H854 0.961 . S
C839 H855 0.960 . S
H840 C824 0.931 . S
H841 C829 0.929 . S
H842 C830 0.960 . S
H843 C830 0.962 . S
H844 C830 0.960 . S
H845 C831 0.961 . S
H846 C831 0.961 . S
H847 C831 0.961 . S
H848 C832 0.931 . S
H849 C837 0.930 . S
H850 C838 0.956 . S
H851 C838 0.961 . S
H852 C838 0.961 . S
H853 C839 0.958 . S
H854 C839 0.961 . S
H855 C839 0.960 . S
C856 C857 1.391 . S
C856 C858 1.394 . S
C856 H872 0.931 . S
C857 C856 1.391 . S
C857 C861 1.376 . S
C858 C856 1.394 . S
C858 C859 1.369 . S
C858 C862 1.531 . S
C859 C858 1.369 . S
C859 C860 1.410 . S
C859 C867 1.503 . S
C860 C859 1.410 . S
C860 C861 1.392 . S
C860 C863 1.511 . S
C861 C857 1.376 . S
C861 C860 1.392 . S
C861 H873 0.929 . S
C862 C858 1.531 . S
C862 H874 0.960 . S
C862 H875 0.962 . S
C862 H876 0.960 . S
C863 C860 1.511 . S
C863 H877 0.961 . S
C863 H878 0.961 . S
C863 H879 0.961 . S
C864 C865 1.370 . S
C864 C866 1.363 . S
C864 H880 0.931 . S
C865 C864 1.370 . S
C865 C869 1.408 . S
C866 C864 1.363 . S
C866 C867 1.370 . S
C866 C870 1.524 . S
C867 C859 1.503 . S
C867 C866 1.370 . S
C867 C868 1.403 . S
C868 C867 1.403 . S
C868 C869 1.404 . S
C868 C871 1.539 . S
C869 C865 1.408 . S
C869 C868 1.404 . S
C869 H881 0.930 . S
C870 C866 1.524 . S
C870 H882 0.956 . S
C870 H883 0.961 . S
C870 H884 0.961 . S
C871 C868 1.539 . S
C871 H885 0.958 . S
C871 H886 0.961 . S
C871 H887 0.960 . S
H872 C856 0.931 . S
H873 C861 0.929 . S
H874 C862 0.960 . S
H875 C862 0.962 . S
H876 C862 0.960 . S
H877 C863 0.961 . S
H878 C863 0.961 . S
H879 C863 0.961 . S
H880 C864 0.931 . S
H881 C869 0.930 . S
H882 C870 0.956 . S
H883 C870 0.961 . S
H884 C870 0.961 . S
H885 C871 0.958 . S
H886 C871 0.961 . S
H887 C871 0.960 . S
C888 C889 1.391 . S
C888 C890 1.394 . S
C888 H904 0.931 . S
C889 C888 1.391 . S
C889 C893 1.376 . S
C890 C888 1.394 . S
C890 C891 1.369 . S
C890 C894 1.531 . S
C891 C890 1.369 . S
C891 C892 1.410 . S
C891 C899 1.503 . S
C892 C891 1.410 . S
C892 C893 1.392 . S
C892 C895 1.511 . S
C893 C889 1.376 . S
C893 C892 1.392 . S
C893 H905 0.929 . S
C894 C890 1.531 . S
C894 H906 0.960 . S
C894 H907 0.962 . S
C894 H908 0.960 . S
C895 C892 1.511 . S
C895 H909 0.961 . S
C895 H910 0.961 . S
C895 H911 0.961 . S
C896 C897 1.370 . S
C896 C898 1.363 . S
C896 H912 0.931 . S
C897 C896 1.370 . S
C897 C901 1.408 . S
C898 C896 1.363 . S
C898 C899 1.370 . S
C898 C902 1.524 . S
C899 C891 1.503 . S
C899 C898 1.370 . S
C899 C900 1.403 . S
C900 C899 1.403 . S
C900 C901 1.404 . S
C900 C903 1.539 . S
C901 C897 1.408 . S
C901 C900 1.404 . S
C901 H913 0.930 . S
C902 C898 1.524 . S
C902 H914 0.956 . S
C902 H915 0.961 . S
C902 H916 0.961 . S
C903 C900 1.539 . S
C903 H917 0.958 . S
C903 H918 0.961 . S
C903 H919 0.960 . S
H904 C888 0.931 . S
H905 C893 0.929 . S
H906 C894 0.960 . S
H907 C894 0.962 . S
H908 C894 0.960 . S
H909 C895 0.961 . S
H910 C895 0.961 . S
H911 C895 0.961 . S
H912 C896 0.931 . S
H913 C901 0.930 . S
H914 C902 0.956 . S
H915 C902 0.961 . S
H916 C902 0.961 . S
H917 C903 0.958 . S
H918 C903 0.961 . S
H919 C903 0.960 . S
C920 C921 1.391 . S
C920 C922 1.394 . S
C920 H936 0.931 . S
C921 C920 1.391 . S
C921 C925 1.376 . S
C922 C920 1.394 . S
C922 C923 1.369 . S
C922 C926 1.531 . S
C923 C922 1.369 . S
C923 C924 1.410 . S
C923 C931 1.503 . S
C924 C923 1.410 . S
C924 C925 1.392 . S
C924 C927 1.511 . S
C925 C921 1.376 . S
C925 C924 1.392 . S
C925 H937 0.929 . S
C926 C922 1.531 . S
C926 H938 0.960 . S
C926 H939 0.962 . S
C926 H940 0.960 . S
C927 C924 1.511 . S
C927 H941 0.961 . S
C927 H942 0.961 . S
C927 H943 0.961 . S
C928 C929 1.370 . S
C928 C930 1.363 . S
C928 H944 0.931 . S
C929 C928 1.370 . S
C929 C933 1.408 . S
C930 C928 1.363 . S
C930 C931 1.370 . S
C930 C934 1.524 . S
C931 C923 1.503 . S
C931 C930 1.370 . S
C931 C932 1.403 . S
C932 C931 1.403 . S
C932 C933 1.404 . S
C932 C935 1.539 . S
C933 C929 1.408 . S
C933 C932 1.404 . S
C933 H945 0.930 . S
C934 C930 1.524 . S
C934 H946 0.956 . S
C934 H947 0.961 . S
C934 H948 0.961 . S
C935 C932 1.539 . S
C935 H949 0.958 . S
C935 H950 0.961 . S
C935 H951 0.960 . S
H936 C920 0.931 . S
H937 C925 0.929 . S
H938 C926 0.960 . S
H939 C926 0.962 . S
H940 C926 0.960 . S
H941 C927 0.961 . S
H942 C927 0.961 . S
H943 C927 0.961 . S
H944 C928 0.931 . S
H945 C933 0.930 . S
H946 C934 0.956 . S
H947 C934 0.961 . S
H948 C934 0.961 . S
H949 C935 0.958 . S
H950 C935 0.961 . S
H951 C935 0.960 . S
C952 C953 1.391 . S
C952 C954 1.394 . S
C952 H968 0.931 . S
C953 C952 1.391 . S
C953 C957 1.376 . S
C954 C952 1.394 . S
C954 C955 1.369 . S
C954 C958 1.531 . S
C955 C954 1.369 . S
C955 C956 1.410 . S
C955 C963 1.503 . S
C956 C955 1.410 . S
C956 C957 1.392 . S
C956 C959 1.511 . S
C957 C953 1.376 . S
C957 C956 1.392 . S
C957 H969 0.929 . S
C958 C954 1.531 . S
C958 H970 0.960 . S
C958 H971 0.962 . S
C958 H972 0.960 . S
C959 C956 1.511 . S
C959 H973 0.961 . S
C959 H974 0.961 . S
C959 H975 0.961 . S
C960 C961 1.370 . S
C960 C962 1.363 . S
C960 H976 0.931 . S
C961 C960 1.370 . S
C961 C965 1.408 . S
C962 C960 1.363 . S
C962 C963 1.370 . S
C962 C966 1.524 . S
C963 C955 1.503 . S
C963 C962 1.370 . S
C963 C964 1.403 . S
C964 C963 1.403 . S
C964 C965 1.404 . S
C964 C967 1.539 . S
C965 C961 1.408 . S
C965 C964 1.404 . S
C965 H977 0.930 . S
C966 C962 1.524 . S
C966 H978 0.956 . S
C966 H979 0.961 . S
C966 H980 0.961 . S
C967 C964 1.539 . S
C967 H981 0.958 . S
C967 H982 0.961 . S
C967 H983 0.960 . S
H968 C952 0.931 . S
H969 C957 0.929 . S
H970 C958 0.960 . S
H971 C958 0.962 . S
H972 C958 0.960 . S
H973 C959 0.961 . S
H974 C959 0.961 . S
H975 C959 0.961 . S
H976 C960 0.931 . S
H977 C965 0.930 . S
H978 C966 0.956 . S
H979 C966 0.961 . S
H980 C966 0.961 . S
H981 C967 0.958 . S
H982 C967 0.961 . S
H983 C967 0.960 . S
C984 C985 1.391 . S
C984 C986 1.394 . S
C984 H1000 0.931 . S
C985 C984 1.391 . S
C985 C989 1.376 . S
C986 C984 1.394 . S
C986 C987 1.369 . S
C986 C990 1.531 . S
C987 C986 1.369 . S
C987 C988 1.410 . S
C987 C995 1.503 . S
C988 C987 1.410 . S
C988 C989 1.392 . S
C988 C991 1.511 . S
C989 C985 1.376 . S
C989 C988 1.392 . S
C989 H1001 0.929 . S
C990 C986 1.531 . S
C990 H1002 0.960 . S
C990 H1003 0.962 . S
C990 H1004 0.960 . S
C991 C988 1.511 . S
C991 H1005 0.961 . S
C991 H1006 0.961 . S
C991 H1007 0.961 . S
C992 C993 1.370 . S
C992 C994 1.363 . S
C992 H1008 0.931 . S
C993 C992 1.370 . S
C993 C997 1.408 . S
C994 C992 1.363 . S
C994 C995 1.370 . S
C994 C998 1.524 . S
C995 C987 1.503 . S
C995 C994 1.370 . S
C995 C996 1.403 . S
C996 C995 1.403 . S
C996 C997 1.404 . S
C996 C999 1.539 . S
C997 C993 1.408 . S
C997 C996 1.404 . S
C997 H1009 0.930 . S
C998 C994 1.524 . S
C998 H1010 0.956 . S
C998 H1011 0.961 . S
C998 H1012 0.961 . S
C999 C996 1.539 . S
C999 H1013 0.958 . S
C999 H1014 0.961 . S
C999 H1015 0.960 . S
H1000 C984 0.931 . S
H1001 C989 0.929 . S
H1002 C990 0.960 . S
H1003 C990 0.962 . S
H1004 C990 0.960 . S
H1005 C991 0.961 . S
H1006 C991 0.961 . S
H1007 C991 0.961 . S
H1008 C992 0.931 . S
H1009 C997 0.930 . S
H1010 C998 0.956 . S
H1011 C998 0.961 . S
H1012 C998 0.961 . S
H1013 C999 0.958 . S
H1014 C999 0.961 . S
H1015 C999 0.960 . S
C1016 C1017 1.391 . S
C1016 C1018 1.394 . S
C1016 H1032 0.931 . S
C1017 C1016 1.391 . S
C1017 C1021 1.376 . S
C1018 C1016 1.394 . S
C1018 C1019 1.369 . S
C1018 C1022 1.531 . S
C1019 C1018 1.369 . S
C1019 C1020 1.410 . S
C1019 C1027 1.503 . S
C1020 C1019 1.410 . S
C1020 C1021 1.392 . S
C1020 C1023 1.511 . S
C1021 C1017 1.376 . S
C1021 C1020 1.392 . S
C1021 H1033 0.929 . S
C1022 C1018 1.531 . S
C1022 H1034 0.960 . S
C1022 H1035 0.962 . S
C1022 H1036 0.960 . S
C1023 C1020 1.511 . S
C1023 H1037 0.961 . S
C1023 H1038 0.961 . S
C1023 H1039 0.961 . S
C1024 C1025 1.370 . S
C1024 C1026 1.363 . S
C1024 H1040 0.931 . S
C1025 C1024 1.370 . S
C1025 C1029 1.408 . S
C1026 C1024 1.363 . S
C1026 C1027 1.370 . S
C1026 C1030 1.524 . S
C1027 C1019 1.503 . S
C1027 C1026 1.370 . S
C1027 C1028 1.403 . S
C1028 C1027 1.403 . S
C1028 C1029 1.404 . S
C1028 C1031 1.539 . S
C1029 C1025 1.408 . S
C1029 C1028 1.404 . S
C1029 H1041 0.930 . S
C1030 C1026 1.524 . S
C1030 H1042 0.956 . S
C1030 H1043 0.961 . S
C1030 H1044 0.961 . S
C1031 C1028 1.539 . S
C1031 H1045 0.958 . S
C1031 H1046 0.961 . S
C1031 H1047 0.960 . S
H1032 C1016 0.931 . S
H1033 C1021 0.929 . S
H1034 C1022 0.960 . S
H1035 C1022 0.962 . S
H1036 C1022 0.960 . S
H1037 C1023 0.961 . S
H1038 C1023 0.961 . S
H1039 C1023 0.961 . S
H1040 C1024 0.931 . S
H1041 C1029 0.930 . S
H1042 C1030 0.956 . S
H1043 C1030 0.961 . S
H1044 C1030 0.961 . S
H1045 C1031 0.958 . S
H1046 C1031 0.961 . S
H1047 C1031 0.960 . S
C1048 C1049 1.391 . S
C1048 C1050 1.394 . S
C1048 H1064 0.931 . S
C1049 C1048 1.391 . S
C1049 C1053 1.376 . S
C1050 C1048 1.394 . S
C1050 C1051 1.369 . S
C1050 C1054 1.531 . S
C1051 C1050 1.369 . S
C1051 C1052 1.410 . S
C1051 C1059 1.503 . S
C1052 C1051 1.410 . S
C1052 C1053 1.392 . S
C1052 C1055 1.511 . S
C1053 C1049 1.376 . S
C1053 C1052 1.392 . S
C1053 H1065 0.929 . S
C1054 C1050 1.531 . S
C1054 H1066 0.960 . S
C1054 H1067 0.962 . S
C1054 H1068 0.960 . S
C1055 C1052 1.511 . S
C1055 H1069 0.961 . S
C1055 H1070 0.961 . S
C1055 H1071 0.961 . S
C1056 C1057 1.370 . S
C1056 C1058 1.363 . S
C1056 H1072 0.931 . S
C1057 C1056 1.370 . S
C1057 C1061 1.408 . S
C1058 C1056 1.363 . S
C1058 C1059 1.370 . S
C1058 C1062 1.524 . S
C1059 C1051 1.503 . S
C1059 C1058 1.370 . S
C1059 C1060 1.403 . S
C1060 C1059 1.403 . S
C1060 C1061 1.404 . S
C1060 C1063 1.539 . S
C1061 C1057 1.408 . S
C1061 C1060 1.404 . S
C1061 H1073 0.930 . S
C1062 C1058 1.524 . S
C1062 H1074 0.956 . S
C1062 H1075 0.961 . S
C1062 H1076 0.961 . S
C1063 C1060 1.539 . S
C1063 H1077 0.958 . S
C1063 H1078 0.961 . S
C1063 H1079 0.960 . S
H1064 C1048 0.931 . S
H1065 C1053 0.929 . S
H1066 C1054 0.960 . S
H1067 C1054 0.962 . S
H1068 C1054 0.960 . S
H1069 C1055 0.961 . S
H1070 C1055 0.961 . S
H1071 C1055 0.961 . S
H1072 C1056 0.931 . S
H1073 C1061 0.930 . S
H1074 C1062 0.956 . S
H1075 C1062 0.961 . S
H1076 C1062 0.961 . S
H1077 C1063 0.958 . S
H1078 C1063 0.961 . S
H1079 C1063 0.960 . S
C1080 C1081 1.391 . S
C1080 C1082 1.394 . S
C1080 H1096 0.931 . S
C1081 C1080 1.391 . S
C1081 C1085 1.376 . S
C1082 C1080 1.394 . S
C1082 C1083 1.369 . S
C1082 C1086 1.531 . S
C1083 C1082 1.369 . S
C1083 C1084 1.410 1_554 S
C1083 C1091 1.507 1_455 S
C1084 C1083 1.410 1_556 S
C1084 C1085 1.392 1_556 S
C1084 C1087 1.511 . S
C1085 C1081 1.376 . S
C1085 C1084 1.392 1_554 S
C1085 H1097 0.929 1_554 S
C1086 C1082 1.531 . S
C1086 H1098 0.960 1_455 S
C1086 H1099 0.962 . S
C1086 H1100 0.960 . S
C1087 C1084 1.511 . S
C1087 H1101 0.961 . S
C1087 H1102 0.961 . S
C1087 H1103 0.961 . S
C1088 C1089 1.370 . S
C1088 C1090 1.363 . S
C1088 H1104 0.931 . S
C1089 C1088 1.370 . S
C1089 C1093 1.408 1_556 S
C1090 C1088 1.363 . S
C1090 C1091 1.360 1_556 S
C1090 C1094 1.596 . S
C1091 C1083 1.507 1_655 S
C1091 C1090 1.360 1_554 S
C1091 C1092 1.410 . S
C1092 C1091 1.410 . S
C1092 C1093 1.404 . S
C1092 C1095 1.539 . S
C1093 C1089 1.408 1_554 S
C1093 C1092 1.404 . S
C1093 H1105 0.930 . S
C1094 C1090 1.596 . S
C1094 H1106 0.896 1_655 S
C1094 H1107 0.938 1_655 S
C1094 H1108 0.981 . S
C1095 C1092 1.539 . S
C1095 H1109 0.958 . S
C1095 H1110 0.961 . S
C1095 H1111 0.960 . S
H1096 C1080 0.931 . S
H1097 C1085 0.929 1_556 S
H1098 C1086 0.960 1_655 S
H1099 C1086 0.962 . S
H1100 C1086 0.960 . S
H1101 C1087 0.961 . S
H1102 C1087 0.961 . S
H1103 C1087 0.961 . S
H1104 C1088 0.931 . S
H1105 C1093 0.930 . S
H1106 C1094 0.896 1_455 S
H1107 C1094 0.938 1_455 S
H1108 C1094 0.981 . S
H1109 C1095 0.958 . S
H1110 C1095 0.961 . S
H1111 C1095 0.960 . S
C1112 C1113 1.391 . S
C1112 C1114 1.394 . S
C1112 H1128 0.931 . S
C1113 C1112 1.391 . S
C1113 C1117 1.376 . S
C1114 C1112 1.394 . S
C1114 C1115 1.369 . S
C1114 C1118 1.531 . S
C1115 C1114 1.369 . S
C1115 C1116 1.410 1_556 S
C1115 C1123 1.503 . S
C1116 C1115 1.410 1_554 S
C1116 C1117 1.392 1_554 S
C1116 C1119 1.511 . S
C1117 C1113 1.376 . S
C1117 C1116 1.392 1_556 S
C1117 H1129 0.929 1_556 S
C1118 C1114 1.531 . S
C1118 H1130 0.960 . S
C1118 H1131 0.962 . S
C1118 H1132 0.960 . S
C1119 C1116 1.511 . S
C1119 H1133 0.961 . S
C1119 H1134 0.961 . S
C1119 H1135 0.961 . S
C1120 C1121 1.370 . S
C1120 C1122 1.363 . S
C1120 H1136 0.931 . S
C1121 C1120 1.370 . S
C1121 C1125 1.408 1_554 S
C1122 C1120 1.363 . S
C1122 C1123 1.371 1_554 S
C1122 C1126 1.524 . S
C1123 C1115 1.503 . S
C1123 C1122 1.371 1_556 S
C1123 C1124 1.402 . S
C1124 C1123 1.402 . S
C1124 C1125 1.404 . S
C1124 C1127 1.539 . S
C1125 C1121 1.408 1_556 S
C1125 C1124 1.404 . S
C1125 H1137 0.930 . S
C1126 C1122 1.524 . S
C1126 H1138 0.956 . S
C1126 H1139 0.961 . S
C1126 H1140 0.961 . S
C1127 C1124 1.539 . S
C1127 H1141 0.958 . S
C1127 H1142 0.961 . S
C1127 H1143 0.960 . S
H1128 C1112 0.931 . S
H1129 C1117 0.929 1_554 S
H1130 C1118 0.960 . S
H1131 C1118 0.962 . S
H1132 C1118 0.960 . S
H1133 C1119 0.961 . S
H1134 C1119 0.961 . S
H1135 C1119 0.961 . S
H1136 C1120 0.931 . S
H1137 C1125 0.930 . S
H1138 C1126 0.956 . S
H1139 C1126 0.961 . S
H1140 C1126 0.961 . S
H1141 C1127 0.958 . S
H1142 C1127 0.961 . S
H1143 C1127 0.960 . S
C1144 C1145 1.391 . S
C1144 C1146 1.394 . S
C1144 H1160 0.931 . S
C1145 C1144 1.391 . S
C1145 C1149 1.376 1_554 S
C1146 C1144 1.394 . S
C1146 C1147 1.350 1_554 S
C1146 C1150 1.531 . S
C1147 C1146 1.350 1_556 S
C1147 C1148 1.422 . S
C1147 C1155 1.509 1_565 S
C1148 C1147 1.422 . S
C1148 C1149 1.392 . S
C1148 C1151 1.511 . S
C1149 C1145 1.376 1_556 S
C1149 C1148 1.392 . S
C1149 H1161 0.929 . S
C1150 C1146 1.531 . S
C1150 H1162 0.960 1_565 S
C1150 H1163 0.910 1_565 S
C1150 H1164 0.960 . S
C1151 C1148 1.511 . S
C1151 H1165 0.961 . S
C1151 H1166 0.961 . S
C1151 H1167 0.961 . S
C1152 C1153 1.370 1_554 S
C1152 C1154 1.363 . S
C1152 H1168 0.931 . S
C1153 C1152 1.370 1_556 S
C1153 C1157 1.408 . S
C1154 C1152 1.363 . S
C1154 C1155 1.370 1_554 S
C1154 C1158 1.524 . S
C1155 C1147 1.509 1_545 S
C1155 C1154 1.370 1_556 S
C1155 C1156 1.403 . S
C1156 C1155 1.403 . S
C1156 C1157 1.404 . S
C1156 C1159 1.539 . S
C1157 C1153 1.408 . S
C1157 C1156 1.404 . S
C1157 H1169 0.930 . S
C1158 C1154 1.524 . S
C1158 H1170 0.956 . S
C1158 H1171 0.961 . S
C1158 H1172 0.961 . S
C1159 C1156 1.539 . S
C1159 H1173 0.958 . S
C1159 H1174 0.961 . S
C1159 H1175 0.960 1_545 S
H1160 C1144 0.931 . S
H1161 C1149 0.929 . S
H1162 C1150 0.960 1_545 S
H1163 C1150 0.910 1_545 S
H1164 C1150 0.960 . S
H1165 C1151 0.961 . S
H1166 C1151 0.961 . S
H1167 C1151 0.961 . S
H1168 C1152 0.931 . S
H1169 C1157 0.930 . S
H1170 C1158 0.956 . S
H1171 C1158 0.961 . S
H1172 C1158 0.961 . S
H1173 C1159 0.958 . S
H1174 C1159 0.961 . S
H1175 C1159 0.960 1_565 S
C1176 C1177 1.391 . S
C1176 C1178 1.394 . S
C1176 H1192 0.931 . S
C1177 C1176 1.391 . S
C1177 C1181 1.376 . S
C1178 C1176 1.394 . S
C1178 C1179 1.369 1_556 S
C1178 C1182 1.531 . S
C1179 C1178 1.369 1_554 S
C1179 C1180 1.410 . S
C1179 C1187 1.503 1_655 S
C1180 C1179 1.410 . S
C1180 C1181 1.392 1_554 S
C1180 C1183 1.511 . S
C1181 C1177 1.376 . S
C1181 C1180 1.392 1_556 S
C1181 H1193 0.929 . S
C1182 C1178 1.531 . S
C1182 H1194 0.966 1_556 S
C1182 H1195 0.962 . S
C1182 H1196 0.960 1_556 S
C1183 C1180 1.511 . S
C1183 H1197 0.959 1_554 S
C1183 H1198 0.889 1_655 S
C1183 H1199 0.961 . S
C1184 C1185 1.370 1_556 S
C1184 C1186 1.363 . S
C1184 H1200 0.931 . S
C1185 C1184 1.370 1_554 S
C1185 C1189 1.408 . S
C1186 C1184 1.363 . S
C1186 C1187 1.370 1_556 S
C1186 C1190 1.524 . S
C1187 C1179 1.503 1_455 S
C1187 C1186 1.370 1_554 S
C1187 C1188 1.403 . S
C1188 C1187 1.403 . S
C1188 C1189 1.404 . S
C1188 C1191 1.539 . S
C1189 C1185 1.408 . S
C1189 C1188 1.404 . S
C1189 H1201 0.930 . S
C1190 C1186 1.524 . S
C1190 H1202 0.956 . S
C1190 H1203 0.961 . S
C1190 H1204 0.961 . S
C1191 C1188 1.539 . S
C1191 H1205 0.963 . S
C1191 H1206 0.961 . S
C1191 H1207 0.960 1_455 S
H1192 C1176 0.931 . S
H1193 C1181 0.929 . S
H1194 C1182 0.966 1_554 S
H1195 C1182 0.962 . S
H1196 C1182 0.960 1_554 S
H1197 C1183 0.959 1_556 S
H1198 C1183 0.889 1_455 S
H1199 C1183 0.961 . S
H1200 C1184 0.931 . S
H1201 C1189 0.930 . S
H1202 C1190 0.956 . S
H1203 C1190 0.961 . S
H1204 C1190 0.961 . S
H1205 C1191 0.963 . S
H1206 C1191 0.961 . S
H1207 C1191 0.960 1_655 S
C1208 C1209 1.391 . S
C1208 C1210 1.394 . S
C1208 H1224 0.931 . S
C1209 C1208 1.391 . S
C1209 C1213 1.376 . S
C1210 C1208 1.394 . S
C1210 C1211 1.369 . S
C1210 C1214 1.531 1_556 S
C1211 C1210 1.369 . S
C1211 C1212 1.410 . S
C1211 C1219 1.503 . S
C1212 C1211 1.410 . S
C1212 C1213 1.392 . S
C1212 C1215 1.511 . S
C1213 C1209 1.376 . S
C1213 C1212 1.392 . S
C1213 H1225 0.929 . S
C1214 C1210 1.531 1_554 S
C1214 H1226 0.960 1_554 S
C1214 H1227 0.962 . S
C1214 H1228 0.960 1_554 S
C1215 C1212 1.511 . S
C1215 H1229 0.961 . S
C1215 H1230 0.961 . S
C1215 H1231 0.961 . S
C1216 C1217 1.370 . S
C1216 C1218 1.363 . S
C1216 H1232 0.931 . S
C1217 C1216 1.370 . S
C1217 C1221 1.408 1_554 S
C1218 C1216 1.363 . S
C1218 C1219 1.370 1_554 S
C1218 C1222 1.524 . S
C1219 C1211 1.503 . S
C1219 C1218 1.370 1_556 S
C1219 C1220 1.403 . S
C1220 C1219 1.403 . S
C1220 C1221 1.404 . S
C1220 C1223 1.539 . S
C1221 C1217 1.408 1_556 S
C1221 C1220 1.404 . S
C1221 H1233 0.930 . S
C1222 C1218 1.524 . S
C1222 H1234 0.956 . S
C1222 H1235 0.961 . S
C1222 H1236 0.961 . S
C1223 C1220 1.539 . S
C1223 H1237 0.958 . S
C1223 H1238 0.961 . S
C1223 H1239 0.960 . S
H1224 C1208 0.931 . S
H1225 C1213 0.929 . S
H1226 C1214 0.960 1_556 S
H1227 C1214 0.962 . S
H1228 C1214 0.960 1_556 S
H1229 C1215 0.961 . S
H1230 C1215 0.961 . S
H1231 C1215 0.961 . S
H1232 C1216 0.931 . S
H1233 C1221 0.930 . S
H1234 C1222 0.956 . S
H1235 C1222 0.961 . S
H1236 C1222 0.961 . S
H1237 C1223 0.958 . S
H1238 C1223 0.961 . S
H1239 C1223 0.960 . S
C1240 C1241 1.391 . S
C1240 C1242 1.394 . S
C1240 H1256 0.931 . S
C1241 C1240 1.391 . S
C1241 C1245 1.376 . S
C1242 C1240 1.394 . S
C1242 C1243 1.369 . S
C1242 C1246 1.531 . S
C1243 C1242 1.369 . S
C1243 C1244 1.410 . S
C1243 C1251 1.503 1_545 S
C1244 C1243 1.410 . S
C1244 C1245 1.392 . S
C1244 C1247 1.511 . S
C1245 C1241 1.376 . S
C1245 C1244 1.392 . S
C1245 H1257 0.929 . S
C1246 C1242 1.531 . S
C1246 H1258 0.960 1_545 S
C1246 H1259 0.955 1_556 S
C1246 H1260 0.960 . S
C1247 C1244 1.511 . S
C1247 H1261 0.961 1_556 S
C1247 H1262 0.942 1_546 S
C1247 H1263 0.961 . S
C1248 C1249 1.370 . S
C1248 C1250 1.363 . S
C1248 H1264 0.931 . S
C1249 C1248 1.370 . S
C1249 C1253 1.408 1_554 S
C1250 C1248 1.363 . S
C1250 C1251 1.370 1_554 S
C1250 C1254 1.530 1_565 S
C1251 C1243 1.503 1_565 S
C1251 C1250 1.370 1_556 S
C1251 C1252 1.403 . S
C1252 C1251 1.403 . S
C1252 C1253 1.404 . S
C1252 C1255 1.539 . S
C1253 C1249 1.408 1_556 S
C1253 C1252 1.404 . S
C1253 H1265 0.930 . S
C1254 C1250 1.530 1_545 S
C1254 H1266 0.949 . S
C1254 H1267 0.959 . S
C1254 H1268 0.964 1_545 S
C1255 C1252 1.539 . S
C1255 H1269 0.958 . S
C1255 H1270 0.961 . S
C1255 H1271 0.960 . S
H1256 C1240 0.931 . S
H1257 C1245 0.929 . S
H1258 C1246 0.960 1_565 S
H1259 C1246 0.955 1_554 S
H1260 C1246 0.960 . S
H1261 C1247 0.961 1_554 S
H1262 C1247 0.942 1_564 S
H1263 C1247 0.961 . S
H1264 C1248 0.931 . S
H1265 C1253 0.930 . S
H1266 C1254 0.949 . S
H1267 C1254 0.959 . S
H1268 C1254 0.964 1_565 S
H1269 C1255 0.958 . S
H1270 C1255 0.961 . S
H1271 C1255 0.960 . S
C1272 C1273 1.391 . S
C1272 C1274 1.394 . S
C1272 H1288 0.931 . S
C1273 C1272 1.391 . S
C1273 C1277 1.376 . S
C1274 C1272 1.394 . S
C1274 C1275 1.369 . S
C1274 C1278 1.531 . S
C1275 C1274 1.369 . S
C1275 C1276 1.410 . S
C1275 C1283 1.503 . S
C1276 C1275 1.410 . S
C1276 C1277 1.392 . S
C1276 C1279 1.511 . S
C1277 C1273 1.376 . S
C1277 C1276 1.392 . S
C1277 H1289 0.929 . S
C1278 C1274 1.531 . S
C1278 H1290 0.960 . S
C1278 H1291 0.962 . S
C1278 H1292 0.960 . S
C1279 C1276 1.511 . S
C1279 H1293 0.961 . S
C1279 H1294 0.961 . S
C1279 H1295 0.961 . S
C1280 C1281 1.370 . S
C1280 C1282 1.363 . S
C1280 H1296 0.931 . S
C1281 C1280 1.370 . S
C1281 C1285 1.408 . S
C1282 C1280 1.363 . S
C1282 C1283 1.370 . S
C1282 C1286 1.524 . S
C1283 C1275 1.503 . S
C1283 C1282 1.370 . S
C1283 C1284 1.403 . S
C1284 C1283 1.403 . S
C1284 C1285 1.404 . S
C1284 C1287 1.539 . S
C1285 C1281 1.408 . S
C1285 C1284 1.404 . S
C1285 H1297 0.930 . S
C1286 C1282 1.524 . S
C1286 H1298 0.956 . S
C1286 H1299 0.961 . S
C1286 H1300 0.961 . S
C1287 C1284 1.539 . S
C1287 H1301 0.958 . S
C1287 H1302 0.961 . S
C1287 H1303 0.960 . S
H1288 C1272 0.931 . S
H1289 C1277 0.929 . S
H1290 C1278 0.960 . S
H1291 C1278 0.962 . S
H1292 C1278 0.960 . S
H1293 C1279 0.961 . S
H1294 C1279 0.961 . S
H1295 C1279 0.961 . S
H1296 C1280 0.931 . S
H1297 C1285 0.930 . S
H1298 C1286 0.956 . S
H1299 C1286 0.961 . S
H1300 C1286 0.961 . S
H1301 C1287 0.958 . S
H1302 C1287 0.961 . S
H1303 C1287 0.960 . S
C1304 C1305 1.391 . S
C1304 C1306 1.394 . S
C1304 H1320 0.931 . S
C1305 C1304 1.391 . S
C1305 C1309 1.376 . S
C1306 C1304 1.394 . S
C1306 C1307 1.369 . S
C1306 C1310 1.531 . S
C1307 C1306 1.369 . S
C1307 C1308 1.410 . S
C1307 C1315 1.503 . S
C1308 C1307 1.410 . S
C1308 C1309 1.392 . S
C1308 C1311 1.511 . S
C1309 C1305 1.376 . S
C1309 C1308 1.392 . S
C1309 H1321 0.929 . S
C1310 C1306 1.531 . S
C1310 H1322 0.960 . S
C1310 H1323 0.962 . S
C1310 H1324 0.960 . S
C1311 C1308 1.511 . S
C1311 H1325 0.961 . S
C1311 H1326 0.961 . S
C1311 H1327 0.961 . S
C1312 C1313 1.370 . S
C1312 C1314 1.363 . S
C1312 H1328 0.931 . S
C1313 C1312 1.370 . S
C1313 C1317 1.408 . S
C1314 C1312 1.363 . S
C1314 C1315 1.370 . S
C1314 C1318 1.524 . S
C1315 C1307 1.503 . S
C1315 C1314 1.370 . S
C1315 C1316 1.403 . S
C1316 C1315 1.403 . S
C1316 C1317 1.404 . S
C1316 C1319 1.539 . S
C1317 C1313 1.408 . S
C1317 C1316 1.404 . S
C1317 H1329 0.930 . S
C1318 C1314 1.524 . S
C1318 H1330 0.956 . S
C1318 H1331 0.961 . S
C1318 H1332 0.961 . S
C1319 C1316 1.539 . S
C1319 H1333 0.958 . S
C1319 H1334 0.961 . S
C1319 H1335 0.960 . S
H1320 C1304 0.931 . S
H1321 C1309 0.929 . S
H1322 C1310 0.960 . S
H1323 C1310 0.962 . S
H1324 C1310 0.960 . S
H1325 C1311 0.961 . S
H1326 C1311 0.961 . S
H1327 C1311 0.961 . S
H1328 C1312 0.931 . S
H1329 C1317 0.930 . S
H1330 C1318 0.956 . S
H1331 C1318 0.961 . S
H1332 C1318 0.961 . S
H1333 C1319 0.958 . S
H1334 C1319 0.961 . S
H1335 C1319 0.960 . S
C1336 C1337 1.391 . S
C1336 C1338 1.394 . S
C1336 H1352 0.931 . S
C1337 C1336 1.391 . S
C1337 C1341 1.376 . S
C1338 C1336 1.394 . S
C1338 C1339 1.369 . S
C1338 C1342 1.531 . S
C1339 C1338 1.369 . S
C1339 C1340 1.410 . S
C1339 C1347 1.503 . S
C1340 C1339 1.410 . S
C1340 C1341 1.392 . S
C1340 C1343 1.511 . S
C1341 C1337 1.376 . S
C1341 C1340 1.392 . S
C1341 H1353 0.929 . S
C1342 C1338 1.531 . S
C1342 H1354 0.960 . S
C1342 H1355 0.962 . S
C1342 H1356 0.960 . S
C1343 C1340 1.511 . S
C1343 H1357 0.961 . S
C1343 H1358 0.961 . S
C1343 H1359 0.961 . S
C1344 C1345 1.370 . S
C1344 C1346 1.363 . S
C1344 H1360 0.931 . S
C1345 C1344 1.370 . S
C1345 C1349 1.408 . S
C1346 C1344 1.363 . S
C1346 C1347 1.370 . S
C1346 C1350 1.524 . S
C1347 C1339 1.503 . S
C1347 C1346 1.370 . S
C1347 C1348 1.403 . S
C1348 C1347 1.403 . S
C1348 C1349 1.404 . S
C1348 C1351 1.539 . S
C1349 C1345 1.408 . S
C1349 C1348 1.404 . S
C1349 H1361 0.930 . S
C1350 C1346 1.524 . S
C1350 H1362 0.956 . S
C1350 H1363 0.961 . S
C1350 H1364 0.961 . S
C1351 C1348 1.539 . S
C1351 H1365 0.958 . S
C1351 H1366 0.961 . S
C1351 H1367 0.960 . S
H1352 C1336 0.931 . S
H1353 C1341 0.929 . S
H1354 C1342 0.960 . S
H1355 C1342 0.962 . S
H1356 C1342 0.960 . S
H1357 C1343 0.961 . S
H1358 C1343 0.961 . S
H1359 C1343 0.961 . S
H1360 C1344 0.931 . S
H1361 C1349 0.930 . S
H1362 C1350 0.956 . S
H1363 C1350 0.961 . S
H1364 C1350 0.961 . S
H1365 C1351 0.958 . S
H1366 C1351 0.961 . S
H1367 C1351 0.960 . S
C1368 C1369 1.391 . S
C1368 C1370 1.394 . S
C1368 H1384 0.931 . S
C1369 C1368 1.391 . S
C1369 C1373 1.376 . S
C1370 C1368 1.394 . S
C1370 C1371 1.369 . S
C1370 C1374 1.531 . S
C1371 C1370 1.369 . S
C1371 C1372 1.410 . S
C1371 C1379 1.503 . S
C1372 C1371 1.410 . S
C1372 C1373 1.392 . S
C1372 C1375 1.511 . S
C1373 C1369 1.376 . S
C1373 C1372 1.392 . S
C1373 H1385 0.929 . S
C1374 C1370 1.531 . S
C1374 H1386 0.960 . S
C1374 H1387 0.962 . S
C1374 H1388 0.960 . S
C1375 C1372 1.511 . S
C1375 H1389 0.961 . S
C1375 H1390 0.961 . S
C1375 H1391 0.961 . S
C1376 C1377 1.370 . S
C1376 C1378 1.363 . S
C1376 H1392 0.931 . S
C1377 C1376 1.370 . S
C1377 C1381 1.408 . S
C1378 C1376 1.363 . S
C1378 C1379 1.370 . S
C1378 C1382 1.524 . S
C1379 C1371 1.503 . S
C1379 C1378 1.370 . S
C1379 C1380 1.403 . S
C1380 C1379 1.403 . S
C1380 C1381 1.404 . S
C1380 C1383 1.539 . S
C1381 C1377 1.408 . S
C1381 C1380 1.404 . S
C1381 H1393 0.930 . S
C1382 C1378 1.524 . S
C1382 H1394 0.956 . S
C1382 H1395 0.961 . S
C1382 H1396 0.961 . S
C1383 C1380 1.539 . S
C1383 H1397 0.958 . S
C1383 H1398 0.961 . S
C1383 H1399 0.960 . S
H1384 C1368 0.931 . S
H1385 C1373 0.929 . S
H1386 C1374 0.960 . S
H1387 C1374 0.962 . S
H1388 C1374 0.960 . S
H1389 C1375 0.961 . S
H1390 C1375 0.961 . S
H1391 C1375 0.961 . S
H1392 C1376 0.931 . S
H1393 C1381 0.930 . S
H1394 C1382 0.956 . S
H1395 C1382 0.961 . S
H1396 C1382 0.961 . S
H1397 C1383 0.958 . S
H1398 C1383 0.961 . S
H1399 C1383 0.960 . S
C1400 C1401 1.391 . S
C1400 C1402 1.394 . S
C1400 H1416 0.931 . S
C1401 C1400 1.391 . S
C1401 C1405 1.376 . S
C1402 C1400 1.394 . S
C1402 C1403 1.369 . S
C1402 C1406 1.531 . S
C1403 C1402 1.369 . S
C1403 C1404 1.410 . S
C1403 C1411 1.503 . S
C1404 C1403 1.410 . S
C1404 C1405 1.392 . S
C1404 C1407 1.511 . S
C1405 C1401 1.376 . S
C1405 C1404 1.392 . S
C1405 H1417 0.929 . S
C1406 C1402 1.531 . S
C1406 H1418 0.960 . S
C1406 H1419 0.962 . S
C1406 H1420 0.960 . S
C1407 C1404 1.511 . S
C1407 H1421 0.961 . S
C1407 H1422 0.961 . S
C1407 H1423 0.961 . S
C1408 C1409 1.370 . S
C1408 C1410 1.363 . S
C1408 H1424 0.931 . S
C1409 C1408 1.370 . S
C1409 C1413 1.408 . S
C1410 C1408 1.363 . S
C1410 C1411 1.370 . S
C1410 C1414 1.524 . S
C1411 C1403 1.503 . S
C1411 C1410 1.370 . S
C1411 C1412 1.403 . S
C1412 C1411 1.403 . S
C1412 C1413 1.404 . S
C1412 C1415 1.539 . S
C1413 C1409 1.408 . S
C1413 C1412 1.404 . S
C1413 H1425 0.930 . S
C1414 C1410 1.524 . S
C1414 H1426 0.956 . S
C1414 H1427 0.961 . S
C1414 H1428 0.961 . S
C1415 C1412 1.539 . S
C1415 H1429 0.958 . S
C1415 H1430 0.961 . S
C1415 H1431 0.960 . S
H1416 C1400 0.931 . S
H1417 C1405 0.929 . S
H1418 C1406 0.960 . S
H1419 C1406 0.962 . S
H1420 C1406 0.960 . S
H1421 C1407 0.961 . S
H1422 C1407 0.961 . S
H1423 C1407 0.961 . S
H1424 C1408 0.931 . S
H1425 C1413 0.930 . S
H1426 C1414 0.956 . S
H1427 C1414 0.961 . S
H1428 C1414 0.961 . S
H1429 C1415 0.958 . S
H1430 C1415 0.961 . S
H1431 C1415 0.960 . S
C1432 C1433 1.391 . S
C1432 C1434 1.394 . S
C1432 H1448 0.931 . S
C1433 C1432 1.391 . S
C1433 C1437 1.376 . S
C1434 C1432 1.394 . S
C1434 C1435 1.369 . S
C1434 C1438 1.531 . S
C1435 C1434 1.369 . S
C1435 C1436 1.410 . S
C1435 C1443 1.503 . S
C1436 C1435 1.410 . S
C1436 C1437 1.392 . S
C1436 C1439 1.511 . S
C1437 C1433 1.376 . S
C1437 C1436 1.392 . S
C1437 H1449 0.929 . S
C1438 C1434 1.531 . S
C1438 H1450 0.960 . S
C1438 H1451 0.962 . S
C1438 H1452 0.960 . S
C1439 C1436 1.511 . S
C1439 H1453 0.961 . S
C1439 H1454 0.961 . S
C1439 H1455 0.961 . S
C1440 C1441 1.370 . S
C1440 C1442 1.363 . S
C1440 H1456 0.931 . S
C1441 C1440 1.370 . S
C1441 C1445 1.408 . S
C1442 C1440 1.363 . S
C1442 C1443 1.370 . S
C1442 C1446 1.524 . S
C1443 C1435 1.503 . S
C1443 C1442 1.370 . S
C1443 C1444 1.403 . S
C1444 C1443 1.403 . S
C1444 C1445 1.404 . S
C1444 C1447 1.539 . S
C1445 C1441 1.408 . S
C1445 C1444 1.404 . S
C1445 H1457 0.930 . S
C1446 C1442 1.524 . S
C1446 H1458 0.956 . S
C1446 H1459 0.961 . S
C1446 H1460 0.961 . S
C1447 C1444 1.539 . S
C1447 H1461 0.958 . S
C1447 H1462 0.961 . S
C1447 H1463 0.960 . S
H1448 C1432 0.931 . S
H1449 C1437 0.929 . S
H1450 C1438 0.960 . S
H1451 C1438 0.962 . S
H1452 C1438 0.960 . S
H1453 C1439 0.961 . S
H1454 C1439 0.961 . S
H1455 C1439 0.961 . S
H1456 C1440 0.931 . S
H1457 C1445 0.930 . S
H1458 C1446 0.956 . S
H1459 C1446 0.961 . S
H1460 C1446 0.961 . S
H1461 C1447 0.958 . S
H1462 C1447 0.961 . S
H1463 C1447 0.960 . S
C1464 C1465 1.391 . S
C1464 C1466 1.394 . S
C1464 H1480 0.931 . S
C1465 C1464 1.391 . S
C1465 C1469 1.376 . S
C1466 C1464 1.394 . S
C1466 C1467 1.369 . S
C1466 C1470 1.531 . S
C1467 C1466 1.369 . S
C1467 C1468 1.410 . S
C1467 C1475 1.503 . S
C1468 C1467 1.410 . S
C1468 C1469 1.392 . S
C1468 C1471 1.511 . S
C1469 C1465 1.376 . S
C1469 C1468 1.392 . S
C1469 H1481 0.929 . S
C1470 C1466 1.531 . S
C1470 H1482 0.960 . S
C1470 H1483 0.962 . S
C1470 H1484 0.960 . S
C1471 C1468 1.511 . S
C1471 H1485 0.961 . S
C1471 H1486 0.961 . S
C1471 H1487 0.961 . S
C1472 C1473 1.370 . S
C1472 C1474 1.363 . S
C1472 H1488 0.931 . S
C1473 C1472 1.370 . S
C1473 C1477 1.408 . S
C1474 C1472 1.363 . S
C1474 C1475 1.370 . S
C1474 C1478 1.524 . S
C1475 C1467 1.503 . S
C1475 C1474 1.370 . S
C1475 C1476 1.403 . S
C1476 C1475 1.403 . S
C1476 C1477 1.404 . S
C1476 C1479 1.539 . S
C1477 C1473 1.408 . S
C1477 C1476 1.404 . S
C1477 H1489 0.930 . S
C1478 C1474 1.524 . S
C1478 H1490 0.956 . S
C1478 H1491 0.961 . S
C1478 H1492 0.961 . S
C1479 C1476 1.539 . S
C1479 H1493 0.958 . S
C1479 H1494 0.961 . S
C1479 H1495 0.960 . S
H1480 C1464 0.931 . S
H1481 C1469 0.929 . S
H1482 C1470 0.960 . S
H1483 C1470 0.962 . S
H1484 C1470 0.960 . S
H1485 C1471 0.961 . S
H1486 C1471 0.961 . S
H1487 C1471 0.961 . S
H1488 C1472 0.931 . S
H1489 C1477 0.930 . S
H1490 C1478 0.956 . S
H1491 C1478 0.961 . S
H1492 C1478 0.961 . S
H1493 C1479 0.958 . S
H1494 C1479 0.961 . S
H1495 C1479 0.960 . S
C1496 C1497 1.391 . S
C1496 C1498 1.394 . S
C1496 H1512 0.931 . S
C1497 C1496 1.391 . S
C1497 C1501 1.376 . S
C1498 C1496 1.394 . S
C1498 C1499 1.369 . S
C1498 C1502 1.531 . S
C1499 C1498 1.369 . S
C1499 C1500 1.410 . S
C1499 C1507 1.503 . S
C1500 C1499 1.410 . S
C1500 C1501 1.392 . S
C1500 C1503 1.511 . S
C1501 C1497 1.376 . S
C1501 C1500 1.392 . S
C1501 H1513 0.929 . S
C1502 C1498 1.531 . S
C1502 H1514 0.960 . S
C1502 H1515 0.962 . S
C1502 H1516 0.960 . S
C1503 C1500 1.511 . S
C1503 H1517 0.961 . S
C1503 H1518 0.961 . S
C1503 H1519 0.961 . S
C1504 C1505 1.370 . S
C1504 C1506 1.363 . S
C1504 H1520 0.931 . S
C1505 C1504 1.370 . S
C1505 C1509 1.408 . S
C1506 C1504 1.363 . S
C1506 C1507 1.370 . S
C1506 C1510 1.524 . S
C1507 C1499 1.503 . S
C1507 C1506 1.370 . S
C1507 C1508 1.403 . S
C1508 C1507 1.403 . S
C1508 C1509 1.404 . S
C1508 C1511 1.539 . S
C1509 C1505 1.408 . S
C1509 C1508 1.404 . S
C1509 H1521 0.930 . S
C1510 C1506 1.524 . S
C1510 H1522 0.956 . S
C1510 H1523 0.961 . S
C1510 H1524 0.961 . S
C1511 C1508 1.539 . S
C1511 H1525 0.958 . S
C1511 H1526 0.961 . S
C1511 H1527 0.960 . S
H1512 C1496 0.931 . S
H1513 C1501 0.929 . S
H1514 C1502 0.960 . S
H1515 C1502 0.962 . S
H1516 C1502 0.960 . S
H1517 C1503 0.961 . S
H1518 C1503 0.961 . S
H1519 C1503 0.961 . S
H1520 C1504 0.931 . S
H1521 C1509 0.930 . S
H1522 C1510 0.956 . S
H1523 C1510 0.961 . S
H1524 C1510 0.961 . S
H1525 C1511 0.958 . S
H1526 C1511 0.961 . S
H1527 C1511 0.960 . S
C1528 C1529 1.391 . S
C1528 C1530 1.394 . S
C1528 H1544 0.931 . S
C1529 C1528 1.391 . S
C1529 C1533 1.376 . S
C1530 C1528 1.394 . S
C1530 C1531 1.369 . S
C1530 C1534 1.531 . S
C1531 C1530 1.369 . S
C1531 C1532 1.410 . S
C1531 C1539 1.503 . S
C1532 C1531 1.410 . S
C1532 C1533 1.392 . S
C1532 C1535 1.511 . S
C1533 C1529 1.376 . S
C1533 C1532 1.392 . S
C1533 H1545 0.929 . S
C1534 C1530 1.531 . S
C1534 H1546 0.960 . S
C1534 H1547 0.962 . S
C1534 H1548 0.960 . S
C1535 C1532 1.511 . S
C1535 H1549 0.961 . S
C1535 H1550 0.961 . S
C1535 H1551 0.961 . S
C1536 C1537 1.370 . S
C1536 C1538 1.363 . S
C1536 H1552 0.931 . S
C1537 C1536 1.370 . S
C1537 C1541 1.408 . S
C1538 C1536 1.363 . S
C1538 C1539 1.370 . S
C1538 C1542 1.524 . S
C1539 C1531 1.503 . S
C1539 C1538 1.370 . S
C1539 C1540 1.403 . S
C1540 C1539 1.403 . S
C1540 C1541 1.404 . S
C1540 C1543 1.539 . S
C1541 C1537 1.408 . S
C1541 C1540 1.404 . S
C1541 H1553 0.930 . S
C1542 C1538 1.524 . S
C1542 H1554 0.956 . S
C1542 H1555 0.961 . S
C1542 H1556 0.961 . S
C1543 C1540 1.539 . S
C1543 H1557 0.958 . S
C1543 H1558 0.961 . S
C1543 H1559 0.960 . S
H1544 C1528 0.931 . S
H1545 C1533 0.929 . S
H1546 C1534 0.960 . S
H1547 C1534 0.962 . S
H1548 C1534 0.960 . S
H1549 C1535 0.961 . S
H1550 C1535 0.961 . S
H1551 C1535 0.961 . S
H1552 C1536 0.931 . S
H1553 C1541 0.930 . S
H1554 C1542 0.956 . S
H1555 C1542 0.961 . S
H1556 C1542 0.961 . S
H1557 C1543 0.958 . S
H1558 C1543 0.961 . S
H1559 C1543 0.960 . S
C1560 C1561 1.391 . S
C1560 C1562 1.394 . S
C1560 H1576 0.931 . S
C1561 C1560 1.391 . S
C1561 C1565 1.376 . S
C1562 C1560 1.394 . S
C1562 C1563 1.369 . S
C1562 C1566 1.531 . S
C1563 C1562 1.369 . S
C1563 C1564 1.410 . S
C1563 C1571 1.503 . S
C1564 C1563 1.410 . S
C1564 C1565 1.392 . S
C1564 C1567 1.511 . S
C1565 C1561 1.376 . S
C1565 C1564 1.392 . S
C1565 H1577 0.929 . S
C1566 C1562 1.531 . S
C1566 H1578 0.960 . S
C1566 H1579 0.962 . S
C1566 H1580 0.960 . S
C1567 C1564 1.511 . S
C1567 H1581 0.961 . S
C1567 H1582 0.961 . S
C1567 H1583 0.961 . S
C1568 C1569 1.370 . S
C1568 C1570 1.363 . S
C1568 H1584 0.931 . S
C1569 C1568 1.370 . S
C1569 C1573 1.408 . S
C1570 C1568 1.363 . S
C1570 C1571 1.370 . S
C1570 C1574 1.524 . S
C1571 C1563 1.503 . S
C1571 C1570 1.370 . S
C1571 C1572 1.403 . S
C1572 C1571 1.403 . S
C1572 C1573 1.404 . S
C1572 C1575 1.539 . S
C1573 C1569 1.408 . S
C1573 C1572 1.404 . S
C1573 H1585 0.930 . S
C1574 C1570 1.524 . S
C1574 H1586 0.956 . S
C1574 H1587 0.961 . S
C1574 H1588 0.961 . S
C1575 C1572 1.539 . S
C1575 H1589 0.958 . S
C1575 H1590 0.961 . S
C1575 H1591 0.960 . S
H1576 C1560 0.931 . S
H1577 C1565 0.929 . S
H1578 C1566 0.960 . S
H1579 C1566 0.962 . S
H1580 C1566 0.960 . S
H1581 C1567 0.961 . S
H1582 C1567 0.961 . S
H1583 C1567 0.961 . S
H1584 C1568 0.931 . S
H1585 C1573 0.930 . S
H1586 C1574 0.956 . S
H1587 C1574 0.961 . S
H1588 C1574 0.961 . S
H1589 C1575 0.958 . S
H1590 C1575 0.961 . S
H1591 C1575 0.960 . S
C1592 C1593 1.391 . S
C1592 C1594 1.394 . S
C1592 H1608 0.931 . S
C1593 C1592 1.391 . S
C1593 C1597 1.376 . S
C1594 C1592 1.394 . S
C1594 C1595 1.369 . S
C1594 C1598 1.531 . S
C1595 C1594 1.369 . S
C1595 C1596 1.410 . S
C1595 C1603 1.503 . S
C1596 C1595 1.410 . S
C1596 C1597 1.392 . S
C1596 C1599 1.511 . S
C1597 C1593 1.376 . S
C1597 C1596 1.392 . S
C1597 H1609 0.929 . S
C1598 C1594 1.531 . S
C1598 H1610 0.960 . S
C1598 H1611 0.962 . S
C1598 H1612 0.960 . S
C1599 C1596 1.511 . S
C1599 H1613 0.961 . S
C1599 H1614 0.961 . S
C1599 H1615 0.961 . S
C1600 C1601 1.370 . S
C1600 C1602 1.363 . S
C1600 H1616 0.931 . S
C1601 C1600 1.370 . S
C1601 C1605 1.408 . S
C1602 C1600 1.363 . S
C1602 C1603 1.370 . S
C1602 C1606 1.524 . S
C1603 C1595 1.503 . S
C1603 C1602 1.370 . S
C1603 C1604 1.403 . S
C1604 C1603 1.403 . S
C1604 C1605 1.404 . S
C1604 C1607 1.539 . S
C1605 C1601 1.408 . S
C1605 C1604 1.404 . S
C1605 H1617 0.930 . S
C1606 C1602 1.524 . S
C1606 H1618 0.956 . S
C1606 H1619 0.961 . S
C1606 H1620 0.961 . S
C1607 C1604 1.539 . S
C1607 H1621 0.958 . S
C1607 H1622 0.961 . S
C1607 H1623 0.960 . S
H1608 C1592 0.931 . S
H1609 C1597 0.929 . S
H1610 C1598 0.960 . S
H1611 C1598 0.962 . S
H1612 C1598 0.960 . S
H1613 C1599 0.961 . S
H1614 C1599 0.961 . S
H1615 C1599 0.961 . S
H1616 C1600 0.931 . S
H1617 C1605 0.930 . S
H1618 C1606 0.956 . S
H1619 C1606 0.961 . S
H1620 C1606 0.961 . S
H1621 C1607 0.958 . S
H1622 C1607 0.961 . S
H1623 C1607 0.960 . S
C1624 C1625 1.391 . S
C1624 C1626 1.394 . S
C1624 H1640 0.931 . S
C1625 C1624 1.391 . S
C1625 C1629 1.376 . S
C1626 C1624 1.394 . S
C1626 C1627 1.369 . S
C1626 C1630 1.531 . S
C1627 C1626 1.369 . S
C1627 C1628 1.410 . S
C1627 C1635 1.503 . S
C1628 C1627 1.410 . S
C1628 C1629 1.392 . S
C1628 C1631 1.511 . S
C1629 C1625 1.376 . S
C1629 C1628 1.392 . S
C1629 H1641 0.929 . S
C1630 C1626 1.531 . S
C1630 H1642 0.960 . S
C1630 H1643 0.962 . S
C1630 H1644 0.960 . S
C1631 C1628 1.511 . S
C1631 H1645 0.961 . S
C1631 H1646 0.961 . S
C1631 H1647 0.961 . S
C1632 C1633 1.370 . S
C1632 C1634 1.363 . S
C1632 H1648 0.931 . S
C1633 C1632 1.370 . S
C1633 C1637 1.408 . S
C1634 C1632 1.363 . S
C1634 C1635 1.370 . S
C1634 C1638 1.524 . S
C1635 C1627 1.503 . S
C1635 C1634 1.370 . S
C1635 C1636 1.403 . S
C1636 C1635 1.403 . S
C1636 C1637 1.404 . S
C1636 C1639 1.539 . S
C1637 C1633 1.408 . S
C1637 C1636 1.404 . S
C1637 H1649 0.930 . S
C1638 C1634 1.524 . S
C1638 H1650 0.956 . S
C1638 H1651 0.961 . S
C1638 H1652 0.961 . S
C1639 C1636 1.539 . S
C1639 H1653 0.958 . S
C1639 H1654 0.961 . S
C1639 H1655 0.960 . S
H1640 C1624 0.931 . S
H1641 C1629 0.929 . S
H1642 C1630 0.960 . S
H1643 C1630 0.962 . S
H1644 C1630 0.960 . S
H1645 C1631 0.961 . S
H1646 C1631 0.961 . S
H1647 C1631 0.961 . S
H1648 C1632 0.931 . S
H1649 C1637 0.930 . S
H1650 C1638 0.956 . S
H1651 C1638 0.961 . S
H1652 C1638 0.961 . S
H1653 C1639 0.958 . S
H1654 C1639 0.961 . S
H1655 C1639 0.960 . S
C1656 C1657 1.391 . S
C1656 C1658 1.394 . S
C1656 H1672 0.931 . S
C1657 C1656 1.391 . S
C1657 C1661 1.376 . S
C1658 C1656 1.394 . S
C1658 C1659 1.369 . S
C1658 C1662 1.531 . S
C1659 C1658 1.369 . S
C1659 C1660 1.410 . S
C1659 C1667 1.503 . S
C1660 C1659 1.410 . S
C1660 C1661 1.392 . S
C1660 C1663 1.511 . S
C1661 C1657 1.376 . S
C1661 C1660 1.392 . S
C1661 H1673 0.929 . S
C1662 C1658 1.531 . S
C1662 H1674 0.960 . S
C1662 H1675 0.962 . S
C1662 H1676 0.960 . S
C1663 C1660 1.511 . S
C1663 H1677 0.961 . S
C1663 H1678 0.961 . S
C1663 H1679 0.961 . S
C1664 C1665 1.370 . S
C1664 C1666 1.363 . S
C1664 H1680 0.931 . S
C1665 C1664 1.370 . S
C1665 C1669 1.408 . S
C1666 C1664 1.363 . S
C1666 C1667 1.370 . S
C1666 C1670 1.524 . S
C1667 C1659 1.503 . S
C1667 C1666 1.370 . S
C1667 C1668 1.403 . S
C1668 C1667 1.403 . S
C1668 C1669 1.404 . S
C1668 C1671 1.539 . S
C1669 C1665 1.408 . S
C1669 C1668 1.404 . S
C1669 H1681 0.930 . S
C1670 C1666 1.524 . S
C1670 H1682 0.956 . S
C1670 H1683 0.961 . S
C1670 H1684 0.961 . S
C1671 C1668 1.539 . S
C1671 H1685 0.958 . S
C1671 H1686 0.961 . S
C1671 H1687 0.960 . S
H1672 C1656 0.931 . S
H1673 C1661 0.929 . S
H1674 C1662 0.960 . S
H1675 C1662 0.962 . S
H1676 C1662 0.960 . S
H1677 C1663 0.961 . S
H1678 C1663 0.961 . S
H1679 C1663 0.961 . S
H1680 C1664 0.931 . S
H1681 C1669 0.930 . S
H1682 C1670 0.956 . S
H1683 C1670 0.961 . S
H1684 C1670 0.961 . S
H1685 C1671 0.958 . S
H1686 C1671 0.961 . S
H1687 C1671 0.960 . S
C1688 C1689 1.391 . S
C1688 C1690 1.394 . S
C1688 H1704 0.931 . S
C1689 C1688 1.391 . S
C1689 C1693 1.376 . S
C1690 C1688 1.394 . S
C1690 C1691 1.369 . S
C1690 C1694 1.531 . S
C1691 C1690 1.369 . S
C1691 C1692 1.410 . S
C1691 C1699 1.503 . S
C1692 C1691 1.410 . S
C1692 C1693 1.392 . S
C1692 C1695 1.511 . S
C1693 C1689 1.376 . S
C1693 C1692 1.392 . S
C1693 H1705 0.929 . S
C1694 C1690 1.531 . S
C1694 H1706 0.960 . S
C1694 H1707 0.962 . S
C1694 H1708 0.960 . S
C1695 C1692 1.511 . S
C1695 H1709 0.961 . S
C1695 H1710 0.961 . S
C1695 H1711 0.961 . S
C1696 C1697 1.370 . S
C1696 C1698 1.363 . S
C1696 H1712 0.931 . S
C1697 C1696 1.370 . S
C1697 C1701 1.408 . S
C1698 C1696 1.363 . S
C1698 C1699 1.370 . S
C1698 C1702 1.524 . S
C1699 C1691 1.503 . S
C1699 C1698 1.370 . S
C1699 C1700 1.403 . S
C1700 C1699 1.403 . S
C1700 C1701 1.404 . S
C1700 C1703 1.539 . S
C1701 C1697 1.408 . S
C1701 C1700 1.404 . S
C1701 H1713 0.930 . S
C1702 C1698 1.524 . S
C1702 H1714 0.956 . S
C1702 H1715 0.961 . S
C1702 H1716 0.961 . S
C1703 C1700 1.539 . S
C1703 H1717 0.958 . S
C1703 H1718 0.961 . S
C1703 H1719 0.960 . S
H1704 C1688 0.931 . S
H1705 C1693 0.929 . S
H1706 C1694 0.960 . S
H1707 C1694 0.962 . S
H1708 C1694 0.960 . S
H1709 C1695 0.961 . S
H1710 C1695 0.961 . S
H1711 C1695 0.961 . S
H1712 C1696 0.931 . S
H1713 C1701 0.930 . S
H1714 C1702 0.956 . S
H1715 C1702 0.961 . S
H1716 C1702 0.961 . S
H1717 C1703 0.958 . S
H1718 C1703 0.961 . S
H1719 C1703 0.960 . S
C1720 C1721 1.391 . S
C1720 C1722 1.394 . S
C1720 H1736 0.931 . S
C1721 C1720 1.391 . S
C1721 C1725 1.376 . S
C1722 C1720 1.394 . S
C1722 C1723 1.369 . S
C1722 C1726 1.531 . S
C1723 C1722 1.369 . S
C1723 C1724 1.410 . S
C1723 C1731 1.503 . S
C1724 C1723 1.410 . S
C1724 C1725 1.392 . S
C1724 C1727 1.511 . S
C1725 C1721 1.376 . S
C1725 C1724 1.392 . S
C1725 H1737 0.929 . S
C1726 C1722 1.531 . S
C1726 H1738 0.960 . S
C1726 H1739 0.962 . S
C1726 H1740 0.960 . S
C1727 C1724 1.511 . S
C1727 H1741 0.961 . S
C1727 H1742 0.961 . S
C1727 H1743 0.961 . S
C1728 C1729 1.370 . S
C1728 C1730 1.363 . S
C1728 H1744 0.931 . S
C1729 C1728 1.370 . S
C1729 C1733 1.408 . S
C1730 C1728 1.363 . S
C1730 C1731 1.370 . S
C1730 C1734 1.524 . S
C1731 C1723 1.503 . S
C1731 C1730 1.370 . S
C1731 C1732 1.403 . S
C1732 C1731 1.403 . S
C1732 C1733 1.404 . S
C1732 C1735 1.539 . S
C1733 C1729 1.408 . S
C1733 C1732 1.404 . S
C1733 H1745 0.930 . S
C1734 C1730 1.524 . S
C1734 H1746 0.956 . S
C1734 H1747 0.961 . S
C1734 H1748 0.961 . S
C1735 C1732 1.539 . S
C1735 H1749 0.958 . S
C1735 H1750 0.961 . S
C1735 H1751 0.960 . S
H1736 C1720 0.931 . S
H1737 C1725 0.929 . S
H1738 C1726 0.960 . S
H1739 C1726 0.962 . S
H1740 C1726 0.960 . S
H1741 C1727 0.961 . S
H1742 C1727 0.961 . S
H1743 C1727 0.961 . S
H1744 C1728 0.931 . S
H1745 C1733 0.930 . S
H1746 C1734 0.956 . S
H1747 C1734 0.961 . S
H1748 C1734 0.961 . S
H1749 C1735 0.958 . S
H1750 C1735 0.961 . S
H1751 C1735 0.960 . S
C1752 C1753 1.391 . S
C1752 C1754 1.394 . S
C1752 H1768 0.931 . S
C1753 C1752 1.391 . S
C1753 C1757 1.376 . S
C1754 C1752 1.394 . S
C1754 C1755 1.369 . S
C1754 C1758 1.531 . S
C1755 C1754 1.369 . S
C1755 C1756 1.410 . S
C1755 C1763 1.503 . S
C1756 C1755 1.410 . S
C1756 C1757 1.392 . S
C1756 C1759 1.511 . S
C1757 C1753 1.376 . S
C1757 C1756 1.392 . S
C1757 H1769 0.929 . S
C1758 C1754 1.531 . S
C1758 H1770 0.960 . S
C1758 H1771 0.962 . S
C1758 H1772 0.960 . S
C1759 C1756 1.511 . S
C1759 H1773 0.961 . S
C1759 H1774 0.961 . S
C1759 H1775 0.961 . S
C1760 C1761 1.370 . S
C1760 C1762 1.363 . S
C1760 H1776 0.931 . S
C1761 C1760 1.370 . S
C1761 C1765 1.408 . S
C1762 C1760 1.363 . S
C1762 C1763 1.370 . S
C1762 C1766 1.524 . S
C1763 C1755 1.503 . S
C1763 C1762 1.370 . S
C1763 C1764 1.403 . S
C1764 C1763 1.403 . S
C1764 C1765 1.404 . S
C1764 C1767 1.539 . S
C1765 C1761 1.408 . S
C1765 C1764 1.404 . S
C1765 H1777 0.930 . S
C1766 C1762 1.524 . S
C1766 H1778 0.956 . S
C1766 H1779 0.961 . S
C1766 H1780 0.961 . S
C1767 C1764 1.539 . S
C1767 H1781 0.958 . S
C1767 H1782 0.961 . S
C1767 H1783 0.960 . S
H1768 C1752 0.931 . S
H1769 C1757 0.929 . S
H1770 C1758 0.960 . S
H1771 C1758 0.962 . S
H1772 C1758 0.960 . S
H1773 C1759 0.961 . S
H1774 C1759 0.961 . S
H1775 C1759 0.961 . S
H1776 C1760 0.931 . S
H1777 C1765 0.930 . S
H1778 C1766 0.956 . S
H1779 C1766 0.961 . S
H1780 C1766 0.961 . S
H1781 C1767 0.958 . S
H1782 C1767 0.961 . S
H1783 C1767 0.960 . S
C1784 C1785 1.391 . S
C1784 C1786 1.394 . S
C1784 H1800 0.931 . S
C1785 C1784 1.391 . S
C1785 C1789 1.376 . S
C1786 C1784 1.394 . S
C1786 C1787 1.369 . S
C1786 C1790 1.531 . S
C1787 C1786 1.369 . S
C1787 C1788 1.410 . S
C1787 C1795 1.503 . S
C1788 C1787 1.410 . S
C1788 C1789 1.392 . S
C1788 C1791 1.511 . S
C1789 C1785 1.376 . S
C1789 C1788 1.392 . S
C1789 H1801 0.929 . S
C1790 C1786 1.531 . S
C1790 H1802 0.960 . S
C1790 H1803 0.962 . S
C1790 H1804 0.960 . S
C1791 C1788 1.511 . S
C1791 H1805 0.961 . S
C1791 H1806 0.961 . S
C1791 H1807 0.961 . S
C1792 C1793 1.370 . S
C1792 C1794 1.363 . S
C1792 H1808 0.931 . S
C1793 C1792 1.370 . S
C1793 C1797 1.408 . S
C1794 C1792 1.363 . S
C1794 C1795 1.370 . S
C1794 C1798 1.524 . S
C1795 C1787 1.503 . S
C1795 C1794 1.370 . S
C1795 C1796 1.403 . S
C1796 C1795 1.403 . S
C1796 C1797 1.404 . S
C1796 C1799 1.539 . S
C1797 C1793 1.408 . S
C1797 C1796 1.404 . S
C1797 H1809 0.930 . S
C1798 C1794 1.524 . S
C1798 H1810 0.956 . S
C1798 H1811 0.961 . S
C1798 H1812 0.961 . S
C1799 C1796 1.539 . S
C1799 H1813 0.958 . S
C1799 H1814 0.961 . S
C1799 H1815 0.960 . S
H1800 C1784 0.931 . S
H1801 C1789 0.929 . S
H1802 C1790 0.960 . S
H1803 C1790 0.962 . S
H1804 C1790 0.960 . S
H1805 C1791 0.961 . S
H1806 C1791 0.961 . S
H1807 C1791 0.961 . S
H1808 C1792 0.931 . S
H1809 C1797 0.930 . S
H1810 C1798 0.956 . S
H1811 C1798 0.961 . S
H1812 C1798 0.961 . S
H1813 C1799 0.958 . S
H1814 C1799 0.961 . S
H1815 C1799 0.960 . S
C1816 C1817 1.391 . S
C1816 C1818 1.394 . S
C1816 H1832 0.931 . S
C1817 C1816 1.391 . S
C1817 C1821 1.376 . S
C1818 C1816 1.394 . S
C1818 C1819 1.369 . S
C1818 C1822 1.531 . S
C1819 C1818 1.369 . S
C1819 C1820 1.410 . S
C1819 C1827 1.503 . S
C1820 C1819 1.410 . S
C1820 C1821 1.392 . S
C1820 C1823 1.511 . S
C1821 C1817 1.376 . S
C1821 C1820 1.392 . S
C1821 H1833 0.929 . S
C1822 C1818 1.531 . S
C1822 H1834 0.960 . S
C1822 H1835 0.962 . S
C1822 H1836 0.960 . S
C1823 C1820 1.511 . S
C1823 H1837 0.961 . S
C1823 H1838 0.961 . S
C1823 H1839 0.961 . S
C1824 C1825 1.370 . S
C1824 C1826 1.363 . S
C1824 H1840 0.931 . S
C1825 C1824 1.370 . S
C1825 C1829 1.408 . S
C1826 C1824 1.363 . S
C1826 C1827 1.370 . S
C1826 C1830 1.524 . S
C1827 C1819 1.503 . S
C1827 C1826 1.370 . S
C1827 C1828 1.403 . S
C1828 C1827 1.403 . S
C1828 C1829 1.404 . S
C1828 C1831 1.539 . S
C1829 C1825 1.408 . S
C1829 C1828 1.404 . S
C1829 H1841 0.930 . S
C1830 C1826 1.524 . S
C1830 H1842 0.956 . S
C1830 H1843 0.961 . S
C1830 H1844 0.961 . S
C1831 C1828 1.539 . S
C1831 H1845 0.958 . S
C1831 H1846 0.961 . S
C1831 H1847 0.960 . S
H1832 C1816 0.931 . S
H1833 C1821 0.929 . S
H1834 C1822 0.960 . S
H1835 C1822 0.962 . S
H1836 C1822 0.960 . S
H1837 C1823 0.961 . S
H1838 C1823 0.961 . S
H1839 C1823 0.961 . S
H1840 C1824 0.931 . S
H1841 C1829 0.930 . S
H1842 C1830 0.956 . S
H1843 C1830 0.961 . S
H1844 C1830 0.961 . S
H1845 C1831 0.958 . S
H1846 C1831 0.961 . S
H1847 C1831 0.960 . S
C1848 C1849 1.391 . S
C1848 C1850 1.394 . S
C1848 H1864 0.931 . S
C1849 C1848 1.391 . S
C1849 C1853 1.376 . S
C1850 C1848 1.394 . S
C1850 C1851 1.369 . S
C1850 C1854 1.531 . S
C1851 C1850 1.369 . S
C1851 C1852 1.410 . S
C1851 C1859 1.503 . S
C1852 C1851 1.410 . S
C1852 C1853 1.392 . S
C1852 C1855 1.511 . S
C1853 C1849 1.376 . S
C1853 C1852 1.392 . S
C1853 H1865 0.929 . S
C1854 C1850 1.531 . S
C1854 H1866 0.960 . S
C1854 H1867 0.962 . S
C1854 H1868 0.960 . S
C1855 C1852 1.511 . S
C1855 H1869 0.961 . S
C1855 H1870 0.961 . S
C1855 H1871 0.961 . S
C1856 C1857 1.370 . S
C1856 C1858 1.363 . S
C1856 H1872 0.931 . S
C1857 C1856 1.370 . S
C1857 C1861 1.408 . S
C1858 C1856 1.363 . S
C1858 C1859 1.370 . S
C1858 C1862 1.524 . S
C1859 C1851 1.503 . S
C1859 C1858 1.370 . S
C1859 C1860 1.403 . S
C1860 C1859 1.403 . S
C1860 C1861 1.404 . S
C1860 C1863 1.539 . S
C1861 C1857 1.408 . S
C1861 C1860 1.404 . S
C1861 H1873 0.930 . S
C1862 C1858 1.524 . S
C1862 H1874 0.956 . S
C1862 H1875 0.961 . S
C1862 H1876 0.961 . S
C1863 C1860 1.539 . S
C1863 H1877 0.958 . S
C1863 H1878 0.961 . S
C1863 H1879 0.960 . S
H1864 C1848 0.931 . S
H1865 C1853 0.929 . S
H1866 C1854 0.960 . S
H1867 C1854 0.962 . S
H1868 C1854 0.960 . S
H1869 C1855 0.961 . S
H1870 C1855 0.961 . S
H1871 C1855 0.961 . S
H1872 C1856 0.931 . S
H1873 C1861 0.930 . S
H1874 C1862 0.956 . S
H1875 C1862 0.961 . S
H1876 C1862 0.961 . S
H1877 C1863 0.958 . S
H1878 C1863 0.961 . S
H1879 C1863 0.960 . S
C1880 C1881 1.391 . S
C1880 C1882 1.394 . S
C1880 H1896 0.931 . S
C1881 C1880 1.391 . S
C1881 C1885 1.376 . S
C1882 C1880 1.394 . S
C1882 C1883 1.369 . S
C1882 C1886 1.531 . S
C1883 C1882 1.369 . S
C1883 C1884 1.410 . S
C1883 C1891 1.503 . S
C1884 C1883 1.410 . S
C1884 C1885 1.392 . S
C1884 C1887 1.511 . S
C1885 C1881 1.376 . S
C1885 C1884 1.392 . S
C1885 H1897 0.929 . S
C1886 C1882 1.531 . S
C1886 H1898 0.960 . S
C1886 H1899 0.962 . S
C1886 H1900 0.960 . S
C1887 C1884 1.511 . S
C1887 H1901 0.961 . S
C1887 H1902 0.961 . S
C1887 H1903 0.961 . S
C1888 C1889 1.370 . S
C1888 C1890 1.363 . S
C1888 H1904 0.931 . S
C1889 C1888 1.370 . S
C1889 C1893 1.408 . S
C1890 C1888 1.363 . S
C1890 C1891 1.370 . S
C1890 C1894 1.524 . S
C1891 C1883 1.503 . S
C1891 C1890 1.370 . S
C1891 C1892 1.403 . S
C1892 C1891 1.403 . S
C1892 C1893 1.404 . S
C1892 C1895 1.539 . S
C1893 C1889 1.408 . S
C1893 C1892 1.404 . S
C1893 H1905 0.930 . S
C1894 C1890 1.524 . S
C1894 H1906 0.956 . S
C1894 H1907 0.961 . S
C1894 H1908 0.961 . S
C1895 C1892 1.539 . S
C1895 H1909 0.958 . S
C1895 H1910 0.961 . S
C1895 H1911 0.960 . S
H1896 C1880 0.931 . S
H1897 C1885 0.929 . S
H1898 C1886 0.960 . S
H1899 C1886 0.962 . S
H1900 C1886 0.960 . S
H1901 C1887 0.961 . S
H1902 C1887 0.961 . S
H1903 C1887 0.961 . S
H1904 C1888 0.931 . S
H1905 C1893 0.930 . S
H1906 C1894 0.956 . S
H1907 C1894 0.961 . S
H1908 C1894 0.961 . S
H1909 C1895 0.958 . S
H1910 C1895 0.961 . S
H1911 C1895 0.960 . S
C1912 C1913 1.391 . S
C1912 C1914 1.394 . S
C1912 H1928 0.931 . S
C1913 C1912 1.391 . S
C1913 C1917 1.376 . S
C1914 C1912 1.394 . S
C1914 C1915 1.369 . S
C1914 C1918 1.531 . S
C1915 C1914 1.369 . S
C1915 C1916 1.410 . S
C1915 C1923 1.503 . S
C1916 C1915 1.410 . S
C1916 C1917 1.392 . S
C1916 C1919 1.511 . S
C1917 C1913 1.376 . S
C1917 C1916 1.392 . S
C1917 H1929 0.929 . S
C1918 C1914 1.531 . S
C1918 H1930 0.960 . S
C1918 H1931 0.962 . S
C1918 H1932 0.960 . S
C1919 C1916 1.511 . S
C1919 H1933 0.961 . S
C1919 H1934 0.961 . S
C1919 H1935 0.961 . S
C1920 C1921 1.370 . S
C1920 C1922 1.363 . S
C1920 H1936 0.931 . S
C1921 C1920 1.370 . S
C1921 C1925 1.408 . S
C1922 C1920 1.363 . S
C1922 C1923 1.370 . S
C1922 C1926 1.524 . S
C1923 C1915 1.503 . S
C1923 C1922 1.370 . S
C1923 C1924 1.403 . S
C1924 C1923 1.403 . S
C1924 C1925 1.404 . S
C1924 C1927 1.539 . S
C1925 C1921 1.408 . S
C1925 C1924 1.404 . S
C1925 H1937 0.930 . S
C1926 C1922 1.524 . S
C1926 H1938 0.956 . S
C1926 H1939 0.961 . S
C1926 H1940 0.961 . S
C1927 C1924 1.539 . S
C1927 H1941 0.958 . S
C1927 H1942 0.961 . S
C1927 H1943 0.960 . S
H1928 C1912 0.931 . S
H1929 C1917 0.929 . S
H1930 C1918 0.960 . S
H1931 C1918 0.962 . S
H1932 C1918 0.960 . S
H1933 C1919 0.961 . S
H1934 C1919 0.961 . S
H1935 C1919 0.961 . S
H1936 C1920 0.931 . S
H1937 C1925 0.930 . S
H1938 C1926 0.956 . S
H1939 C1926 0.961 . S
H1940 C1926 0.961 . S
H1941 C1927 0.958 . S
H1942 C1927 0.961 . S
H1943 C1927 0.960 . S
C1944 C1945 1.391 . S
C1944 C1946 1.394 . S
C1944 H1960 0.931 . S
C1945 C1944 1.391 . S
C1945 C1949 1.376 . S
C1946 C1944 1.394 . S
C1946 C1947 1.369 . S
C1946 C1950 1.531 . S
C1947 C1946 1.369 . S
C1947 C1948 1.410 . S
C1947 C1955 1.503 . S
C1948 C1947 1.410 . S
C1948 C1949 1.392 . S
C1948 C1951 1.511 . S
C1949 C1945 1.376 . S
C1949 C1948 1.392 . S
C1949 H1961 0.929 . S
C1950 C1946 1.531 . S
C1950 H1962 0.960 . S
C1950 H1963 0.962 . S
C1950 H1964 0.960 . S
C1951 C1948 1.511 . S
C1951 H1965 0.961 . S
C1951 H1966 0.961 . S
C1951 H1967 0.961 . S
C1952 C1953 1.370 . S
C1952 C1954 1.363 . S
C1952 H1968 0.931 . S
C1953 C1952 1.370 . S
C1953 C1957 1.408 . S
C1954 C1952 1.363 . S
C1954 C1955 1.370 . S
C1954 C1958 1.524 . S
C1955 C1947 1.503 . S
C1955 C1954 1.370 . S
C1955 C1956 1.403 . S
C1956 C1955 1.403 . S
C1956 C1957 1.404 . S
C1956 C1959 1.539 . S
C1957 C1953 1.408 . S
C1957 C1956 1.404 . S
C1957 H1969 0.930 . S
C1958 C1954 1.524 . S
C1958 H1970 0.956 . S
C1958 H1971 0.961 . S
C1958 H1972 0.961 . S
C1959 C1956 1.539 . S
C1959 H1973 0.958 . S
C1959 H1974 0.961 . S
C1959 H1975 0.960 . S
H1960 C1944 0.931 . S
H1961 C1949 0.929 . S
H1962 C1950 0.960 . S
H1963 C1950 0.962 . S
H1964 C1950 0.960 . S
H1965 C1951 0.961 . S
H1966 C1951 0.961 . S
H1967 C1951 0.961 . S
H1968 C1952 0.931 . S
H1969 C1957 0.930 . S
H1970 C1958 0.956 . S
H1971 C1958 0.961 . S
H1972 C1958 0.961 . S
H1973 C1959 0.958 . S
H1974 C1959 0.961 . S
H1975 C1959 0.960 . S
C1976 C1977 1.391 . S
C1976 C1978 1.394 . S
C1976 H1992 0.931 . S
C1977 C1976 1.391 . S
C1977 C1981 1.376 . S
C1978 C1976 1.394 . S
C1978 C1979 1.369 . S
C1978 C1982 1.531 . S
C1979 C1978 1.369 . S
C1979 C1980 1.410 . S
C1979 C1987 1.503 . S
C1980 C1979 1.410 . S
C1980 C1981 1.392 . S
C1980 C1983 1.511 . S
C1981 C1977 1.376 . S
C1981 C1980 1.392 . S
C1981 H1993 0.929 . S
C1982 C1978 1.531 . S
C1982 H1994 0.960 . S
C1982 H1995 0.962 . S
C1982 H1996 0.960 . S
C1983 C1980 1.511 . S
C1983 H1997 0.961 . S
C1983 H1998 0.961 . S
C1983 H1999 0.961 . S
C1984 C1985 1.370 . S
C1984 C1986 1.363 . S
C1984 H2000 0.931 . S
C1985 C1984 1.370 . S
C1985 C1989 1.408 . S
C1986 C1984 1.363 . S
C1986 C1987 1.370 . S
C1986 C1990 1.524 . S
C1987 C1979 1.503 . S
C1987 C1986 1.370 . S
C1987 C1988 1.403 . S
C1988 C1987 1.403 . S
C1988 C1989 1.404 . S
C1988 C1991 1.539 . S
C1989 C1985 1.408 . S
C1989 C1988 1.404 . S
C1989 H2001 0.930 . S
C1990 C1986 1.524 . S
C1990 H2002 0.956 . S
C1990 H2003 0.961 . S
C1990 H2004 0.961 . S
C1991 C1988 1.539 . S
C1991 H2005 0.958 . S
C1991 H2006 0.961 . S
C1991 H2007 0.960 . S
H1992 C1976 0.931 . S
H1993 C1981 0.929 . S
H1994 C1982 0.960 . S
H1995 C1982 0.962 . S
H1996 C1982 0.960 . S
H1997 C1983 0.961 . S
H1998 C1983 0.961 . S
H1999 C1983 0.961 . S
H2000 C1984 0.931 . S
H2001 C1989 0.930 . S
H2002 C1990 0.956 . S
H2003 C1990 0.961 . S
H2004 C1990 0.961 . S
H2005 C1991 0.958 . S
H2006 C1991 0.961 . S
H2007 C1991 0.960 . S
C2008 C2009 1.391 . S
C2008 C2010 1.394 . S
C2008 H2024 0.931 . S
C2009 C2008 1.391 . S
C2009 C2013 1.376 . S
C2010 C2008 1.394 . S
C2010 C2011 1.369 . S
C2010 C2014 1.531 . S
C2011 C2010 1.369 . S
C2011 C2012 1.410 . S
C2011 C2019 1.503 . S
C2012 C2011 1.410 . S
C2012 C2013 1.392 . S
C2012 C2015 1.511 . S
C2013 C2009 1.376 . S
C2013 C2012 1.392 . S
C2013 H2025 0.929 . S
C2014 C2010 1.531 . S
C2014 H2026 0.960 . S
C2014 H2027 0.962 . S
C2014 H2028 0.960 . S
C2015 C2012 1.511 . S
C2015 H2029 0.961 . S
C2015 H2030 0.961 . S
C2015 H2031 0.961 . S
C2016 C2017 1.370 . S
C2016 C2018 1.363 . S
C2016 H2032 0.931 . S
C2017 C2016 1.370 . S
C2017 C2021 1.408 . S
C2018 C2016 1.363 . S
C2018 C2019 1.370 . S
C2018 C2022 1.524 . S
C2019 C2011 1.503 . S
C2019 C2018 1.370 . S
C2019 C2020 1.403 . S
C2020 C2019 1.403 . S
C2020 C2021 1.404 . S
C2020 C2023 1.539 . S
C2021 C2017 1.408 . S
C2021 C2020 1.404 . S
C2021 H2033 0.930 . S
C2022 C2018 1.524 . S
C2022 H2034 0.956 . S
C2022 H2035 0.961 . S
C2022 H2036 0.961 . S
C2023 C2020 1.539 . S
C2023 H2037 0.958 . S
C2023 H2038 0.961 . S
C2023 H2039 0.960 . S
H2024 C2008 0.931 . S
H2025 C2013 0.929 . S
H2026 C2014 0.960 . S
H2027 C2014 0.962 . S
H2028 C2014 0.960 . S
H2029 C2015 0.961 . S
H2030 C2015 0.961 . S
H2031 C2015 0.961 . S
H2032 C2016 0.931 . S
H2033 C2021 0.930 . S
H2034 C2022 0.956 . S
H2035 C2022 0.961 . S
H2036 C2022 0.961 . S
H2037 C2023 0.958 . S
H2038 C2023 0.961 . S
H2039 C2023 0.960 . S
C2040 C2041 1.391 . S
C2040 C2042 1.394 . S
C2040 H2056 0.931 . S
C2041 C2040 1.391 . S
C2041 C2045 1.376 . S
C2042 C2040 1.394 . S
C2042 C2043 1.369 . S
C2042 C2046 1.531 . S
C2043 C2042 1.369 . S
C2043 C2044 1.410 . S
C2043 C2051 1.503 1_455 S
C2044 C2043 1.410 . S
C2044 C2045 1.392 . S
C2044 C2047 1.511 . S
C2045 C2041 1.376 . S
C2045 C2044 1.392 . S
C2045 H2057 0.929 . S
C2046 C2042 1.531 . S
C2046 H2058 0.960 . S
C2046 H2059 0.962 1_455 S
C2046 H2060 0.960 . S
C2047 C2044 1.511 . S
C2047 H2061 0.961 . S
C2047 H2062 0.926 1_455 S
C2047 H2063 0.961 . S
C2048 C2049 1.370 . S
C2048 C2050 1.363 . S
C2048 H2064 0.931 . S
C2049 C2048 1.370 . S
C2049 C2053 1.483 . S
C2050 C2048 1.363 . S
C2050 C2051 1.370 . S
C2050 C2054 1.524 . S
C2051 C2043 1.503 1_655 S
C2051 C2050 1.370 . S
C2051 C2052 1.403 1_655 S
C2052 C2051 1.403 1_455 S
C2052 C2053 1.370 1_455 S
C2052 C2055 1.539 . S
C2053 C2049 1.483 . S
C2053 C2052 1.370 1_655 S
C2053 H2065 0.897 1_655 S
C2054 C2050 1.524 . S
C2054 H2066 0.956 . S
C2054 H2067 0.961 . S
C2054 H2068 0.961 . S
C2055 C2052 1.539 . S
C2055 H2069 0.958 . S
C2055 H2070 0.961 . S
C2055 H2071 0.960 . S
H2056 C2040 0.931 . S
H2057 C2045 0.929 . S
H2058 C2046 0.960 . S
H2059 C2046 0.962 1_655 S
H2060 C2046 0.960 . S
H2061 C2047 0.961 . S
H2062 C2047 0.926 1_655 S
H2063 C2047 0.961 . S
H2064 C2048 0.931 . S
H2065 C2053 0.897 1_455 S
H2066 C2054 0.956 . S
H2067 C2054 0.961 . S
H2068 C2054 0.961 . S
H2069 C2055 0.958 . S
H2070 C2055 0.961 . S
H2071 C2055 0.960 . S
C2072 C2073 1.391 . S
C2072 C2074 1.394 . S
C2072 H2088 0.931 . S
C2073 C2072 1.391 . S
C2073 C2077 1.376 . S
C2074 C2072 1.394 . S
C2074 C2075 1.369 . S
C2074 C2078 1.531 . S
C2075 C2074 1.369 . S
C2075 C2076 1.410 . S
C2075 C2083 1.503 . S
C2076 C2075 1.410 . S
C2076 C2077 1.392 . S
C2076 C2079 1.511 . S
C2077 C2073 1.376 . S
C2077 C2076 1.392 . S
C2077 H2089 0.929 . S
C2078 C2074 1.531 . S
C2078 H2090 0.960 . S
C2078 H2091 0.962 . S
C2078 H2092 0.960 . S
C2079 C2076 1.511 . S
C2079 H2093 0.961 . S
C2079 H2094 0.961 . S
C2079 H2095 0.961 . S
C2080 C2081 1.370 . S
C2080 C2082 1.363 . S
C2080 H2096 0.931 . S
C2081 C2080 1.370 . S
C2081 C2085 1.408 . S
C2082 C2080 1.363 . S
C2082 C2083 1.370 . S
C2082 C2086 1.524 . S
C2083 C2075 1.503 . S
C2083 C2082 1.370 . S
C2083 C2084 1.403 . S
C2084 C2083 1.403 . S
C2084 C2085 1.404 . S
C2084 C2087 1.539 . S
C2085 C2081 1.408 . S
C2085 C2084 1.404 . S
C2085 H2097 0.930 . S
C2086 C2082 1.524 . S
C2086 H2098 0.956 . S
C2086 H2099 0.961 . S
C2086 H2100 0.961 . S
C2087 C2084 1.539 . S
C2087 H2101 0.958 . S
C2087 H2102 0.961 . S
C2087 H2103 0.960 . S
H2088 C2072 0.931 . S
H2089 C2077 0.929 . S
H2090 C2078 0.960 . S
H2091 C2078 0.962 . S
H2092 C2078 0.960 . S
H2093 C2079 0.961 . S
H2094 C2079 0.961 . S
H2095 C2079 0.961 . S
H2096 C2080 0.931 . S
H2097 C2085 0.930 . S
H2098 C2086 0.956 . S
H2099 C2086 0.961 . S
H2100 C2086 0.961 . S
H2101 C2087 0.958 . S
H2102 C2087 0.961 . S
H2103 C2087 0.960 . S
C2104 C2105 1.391 . S
C2104 C2106 1.394 . S
C2104 H2120 0.931 . S
C2105 C2104 1.391 . S
C2105 C2109 1.376 . S
C2106 C2104 1.394 . S
C2106 C2107 1.369 . S
C2106 C2110 1.531 . S
C2107 C2106 1.369 . S
C2107 C2108 1.410 . S
C2107 C2115 1.503 1_565 S
C2108 C2107 1.410 . S
C2108 C2109 1.392 . S
C2108 C2111 1.468 1_565 S
C2109 C2105 1.376 . S
C2109 C2108 1.392 . S
C2109 H2121 0.929 . S
C2110 C2106 1.531 . S
C2110 H2122 0.960 . S
C2110 H2123 0.962 . S
C2110 H2124 0.960 . S
C2111 C2108 1.468 1_545 S
C2111 H2125 0.994 . S
C2111 H2126 0.993 . S
C2111 H2127 0.943 1_545 S
C2112 C2113 1.370 . S
C2112 C2114 1.363 . S
C2112 H2128 0.931 . S
C2113 C2112 1.370 . S
C2113 C2117 1.408 . S
C2114 C2112 1.363 . S
C2114 C2115 1.370 . S
C2114 C2118 1.524 . S
C2115 C2107 1.503 1_545 S
C2115 C2114 1.370 . S
C2115 C2116 1.403 1_545 S
C2116 C2115 1.403 1_565 S
C2116 C2117 1.404 1_565 S
C2116 C2119 1.539 . S
C2117 C2113 1.408 . S
C2117 C2116 1.404 1_545 S
C2117 H2129 0.930 1_545 S
C2118 C2114 1.524 . S
C2118 H2130 0.956 . S
C2118 H2131 0.961 . S
C2118 H2132 0.961 . S
C2119 C2116 1.539 . S
C2119 H2133 0.958 . S
C2119 H2134 0.961 . S
C2119 H2135 0.960 . S
H2120 C2104 0.931 . S
H2121 C2109 0.929 . S
H2122 C2110 0.960 . S
H2123 C2110 0.962 . S
H2124 C2110 0.960 . S
H2125 C2111 0.994 . S
H2126 C2111 0.993 . S
H2127 C2111 0.943 1_565 S
H2128 C2112 0.931 . S
H2129 C2117 0.930 1_565 S
H2130 C2118 0.956 . S
H2131 C2118 0.961 . S
H2132 C2118 0.961 . S
H2133 C2119 0.958 . S
H2134 C2119 0.961 . S
H2135 C2119 0.960 . S
C2136 C2137 1.391 . S
C2136 C2138 1.394 1_565 S
C2136 H2152 0.931 . S
C2137 C2136 1.391 . S
C2137 C2141 1.376 . S
C2138 C2136 1.394 1_545 S
C2138 C2139 1.369 1_545 S
C2138 C2142 1.531 . S
C2139 C2138 1.369 1_565 S
C2139 C2140 1.410 . S
C2139 C2147 1.503 1_565 S
C2140 C2139 1.410 . S
C2140 C2141 1.392 . S
C2140 C2143 1.511 . S
C2141 C2137 1.376 . S
C2141 C2140 1.392 . S
C2141 H2153 0.929 . S
C2142 C2138 1.531 . S
C2142 H2154 0.960 . S
C2142 H2155 0.962 . S
C2142 H2156 0.960 . S
C2143 C2140 1.511 . S
C2143 H2157 0.961 . S
C2143 H2158 0.961 . S
C2143 H2159 0.961 . S
C2144 C2145 1.370 . S
C2144 C2146 1.336 1_545 S
C2144 H2160 0.931 . S
C2145 C2144 1.370 . S
C2145 C2149 1.408 . S
C2146 C2144 1.336 1_565 S
C2146 C2147 1.368 1_565 S
C2146 C2150 1.559 . S
C2147 C2139 1.503 1_545 S
C2147 C2146 1.368 1_545 S
C2147 C2148 1.403 . S
C2148 C2147 1.403 . S
C2148 C2149 1.404 . S
C2148 C2151 1.539 . S
C2149 C2145 1.408 . S
C2149 C2148 1.404 . S
C2149 H2161 0.930 . S
C2150 C2146 1.559 . S
C2150 H2162 0.956 . S
C2150 H2163 0.961 . S
C2150 H2164 0.961 . S
C2151 C2148 1.539 . S
C2151 H2165 0.958 . S
C2151 H2166 0.961 . S
C2151 H2167 0.960 . S
H2152 C2136 0.931 . S
H2153 C2141 0.929 . S
H2154 C2142 0.960 . S
H2155 C2142 0.962 . S
H2156 C2142 0.960 . S
H2157 C2143 0.961 . S
H2158 C2143 0.961 . S
H2159 C2143 0.961 . S
H2160 C2144 0.931 . S
H2161 C2149 0.930 . S
H2162 C2150 0.956 . S
H2163 C2150 0.961 . S
H2164 C2150 0.961 . S
H2165 C2151 0.958 . S
H2166 C2151 0.961 . S
H2167 C2151 0.960 . S
C2168 C2169 1.391 . S
C2168 C2170 1.394 . S
C2168 H2184 0.931 . S
C2169 C2168 1.391 . S
C2169 C2173 1.376 . S
C2170 C2168 1.394 . S
C2170 C2171 1.369 . S
C2170 C2174 1.531 . S
C2171 C2170 1.369 . S
C2171 C2172 1.410 1_655 S
C2171 C2179 1.503 1_655 S
C2172 C2171 1.410 1_455 S
C2172 C2173 1.392 1_455 S
C2172 C2175 1.511 . S
C2173 C2169 1.376 . S
C2173 C2172 1.392 1_655 S
C2173 H2185 0.929 1_655 S
C2174 C2170 1.531 . S
C2174 H2186 0.960 . S
C2174 H2187 0.962 . S
C2174 H2188 0.960 . S
C2175 C2172 1.511 . S
C2175 H2189 0.961 . S
C2175 H2190 0.961 . S
C2175 H2191 0.961 . S
C2176 C2177 1.370 . S
C2176 C2178 1.363 . S
C2176 H2192 0.931 . S
C2177 C2176 1.370 . S
C2177 C2181 1.408 . S
C2178 C2176 1.363 . S
C2178 C2179 1.370 . S
C2178 C2182 1.524 . S
C2179 C2171 1.503 1_455 S
C2179 C2178 1.370 . S
C2179 C2180 1.403 . S
C2180 C2179 1.403 . S
C2180 C2181 1.404 . S
C2180 C2183 1.557 1_455 S
C2181 C2177 1.408 . S
C2181 C2180 1.404 . S
C2181 H2193 0.930 . S
C2182 C2178 1.524 . S
C2182 H2194 0.956 1_455 S
C2182 H2195 0.961 . S
C2182 H2196 0.961 . S
C2183 C2180 1.557 1_655 S
C2183 H2197 1.020 . S
C2183 H2198 0.889 1_655 S
C2183 H2199 0.959 . S
H2184 C2168 0.931 . S
H2185 C2173 0.929 1_455 S
H2186 C2174 0.960 . S
H2187 C2174 0.962 . S
H2188 C2174 0.960 . S
H2189 C2175 0.961 . S
H2190 C2175 0.961 . S
H2191 C2175 0.961 . S
H2192 C2176 0.931 . S
H2193 C2181 0.930 . S
H2194 C2182 0.956 1_655 S
H2195 C2182 0.961 . S
H2196 C2182 0.961 . S
H2197 C2183 1.020 . S
H2198 C2183 0.889 1_455 S
H2199 C2183 0.959 . S
C2200 C2201 1.391 . S
C2200 C2202 1.394 . S
C2200 H2216 0.931 . S
C2201 C2200 1.391 . S
C2201 C2205 1.376 . S
C2202 C2200 1.394 . S
C2202 C2203 1.369 . S
C2202 C2206 1.531 . S
C2203 C2202 1.369 . S
C2203 C2204 1.410 . S
C2203 C2211 1.503 . S
C2204 C2203 1.410 . S
C2204 C2205 1.392 . S
C2204 C2207 1.511 . S
C2205 C2201 1.376 . S
C2205 C2204 1.392 . S
C2205 H2217 0.929 . S
C2206 C2202 1.531 . S
C2206 H2218 0.960 . S
C2206 H2219 0.962 . S
C2206 H2220 0.960 . S
C2207 C2204 1.511 . S
C2207 H2221 0.961 . S
C2207 H2222 0.961 . S
C2207 H2223 0.961 . S
C2208 C2209 1.370 . S
C2208 C2210 1.363 . S
C2208 H2224 0.931 . S
C2209 C2208 1.370 . S
C2209 C2213 1.408 . S
C2210 C2208 1.363 . S
C2210 C2211 1.370 . S
C2210 C2214 1.524 . S
C2211 C2203 1.503 . S
C2211 C2210 1.370 . S
C2211 C2212 1.403 . S
C2212 C2211 1.403 . S
C2212 C2213 1.404 . S
C2212 C2215 1.539 . S
C2213 C2209 1.408 . S
C2213 C2212 1.404 . S
C2213 H2225 0.930 . S
C2214 C2210 1.524 . S
C2214 H2226 0.956 . S
C2214 H2227 0.961 . S
C2214 H2228 0.961 . S
C2215 C2212 1.539 . S
C2215 H2229 0.958 . S
C2215 H2230 0.961 . S
C2215 H2231 0.960 . S
H2216 C2200 0.931 . S
H2217 C2205 0.929 . S
H2218 C2206 0.960 . S
H2219 C2206 0.962 . S
H2220 C2206 0.960 . S
H2221 C2207 0.961 . S
H2222 C2207 0.961 . S
H2223 C2207 0.961 . S
H2224 C2208 0.931 . S
H2225 C2213 0.930 . S
H2226 C2214 0.956 . S
H2227 C2214 0.961 . S
H2228 C2214 0.961 . S
H2229 C2215 0.958 . S
H2230 C2215 0.961 . S
H2231 C2215 0.960 . S
C2232 C2233 1.391 . S
C2232 C2234 1.394 . S
C2232 H2248 0.931 . S
C2233 C2232 1.391 . S
C2233 C2237 1.376 . S
C2234 C2232 1.394 . S
C2234 C2235 1.369 . S
C2234 C2238 1.531 . S
C2235 C2234 1.369 . S
C2235 C2236 1.410 . S
C2235 C2243 1.503 . S
C2236 C2235 1.410 . S
C2236 C2237 1.392 . S
C2236 C2239 1.511 . S
C2237 C2233 1.376 . S
C2237 C2236 1.392 . S
C2237 H2249 0.929 . S
C2238 C2234 1.531 . S
C2238 H2250 0.960 . S
C2238 H2251 0.962 . S
C2238 H2252 0.960 . S
C2239 C2236 1.511 . S
C2239 H2253 0.961 . S
C2239 H2254 0.961 . S
C2239 H2255 0.961 . S
C2240 C2241 1.370 . S
C2240 C2242 1.363 . S
C2240 H2256 0.931 . S
C2241 C2240 1.370 . S
C2241 C2245 1.408 . S
C2242 C2240 1.363 . S
C2242 C2243 1.370 . S
C2242 C2246 1.524 . S
C2243 C2235 1.503 . S
C2243 C2242 1.370 . S
C2243 C2244 1.403 . S
C2244 C2243 1.403 . S
C2244 C2245 1.404 . S
C2244 C2247 1.539 . S
C2245 C2241 1.408 . S
C2245 C2244 1.404 . S
C2245 H2257 0.930 . S
C2246 C2242 1.524 . S
C2246 H2258 0.956 . S
C2246 H2259 0.961 . S
C2246 H2260 0.961 . S
C2247 C2244 1.539 . S
C2247 H2261 0.958 . S
C2247 H2262 0.961 . S
C2247 H2263 0.960 . S
H2248 C2232 0.931 . S
H2249 C2237 0.929 . S
H2250 C2238 0.960 . S
H2251 C2238 0.962 . S
H2252 C2238 0.960 . S
H2253 C2239 0.961 . S
H2254 C2239 0.961 . S
H2255 C2239 0.961 . S
H2256 C2240 0.931 . S
H2257 C2245 0.930 . S
H2258 C2246 0.956 . S
H2259 C2246 0.961 . S
H2260 C2246 0.961 . S
H2261 C2247 0.958 . S
H2262 C2247 0.961 . S
H2263 C2247 0.960 . S
C2264 C2265 1.391 . S
C2264 C2266 1.394 . S
C2264 H2280 0.931 . S
C2265 C2264 1.391 . S
C2265 C2269 1.376 . S
C2266 C2264 1.394 . S
C2266 C2267 1.369 . S
C2266 C2270 1.531 . S
C2267 C2266 1.369 . S
C2267 C2268 1.410 . S
C2267 C2275 1.503 . S
C2268 C2267 1.410 . S
C2268 C2269 1.392 . S
C2268 C2271 1.511 . S
C2269 C2265 1.376 . S
C2269 C2268 1.392 . S
C2269 H2281 0.929 . S
C2270 C2266 1.531 . S
C2270 H2282 0.960 . S
C2270 H2283 0.962 . S
C2270 H2284 0.960 . S
C2271 C2268 1.511 . S
C2271 H2285 0.961 . S
C2271 H2286 0.961 . S
C2271 H2287 0.961 . S
C2272 C2273 1.370 . S
C2272 C2274 1.363 . S
C2272 H2288 0.931 . S
C2273 C2272 1.370 . S
C2273 C2277 1.408 . S
C2274 C2272 1.363 . S
C2274 C2275 1.370 . S
C2274 C2278 1.524 . S
C2275 C2267 1.503 . S
C2275 C2274 1.370 . S
C2275 C2276 1.403 . S
C2276 C2275 1.403 . S
C2276 C2277 1.404 . S
C2276 C2279 1.539 . S
C2277 C2273 1.408 . S
C2277 C2276 1.404 . S
C2277 H2289 0.930 . S
C2278 C2274 1.524 . S
C2278 H2290 0.956 . S
C2278 H2291 0.961 . S
C2278 H2292 0.961 . S
C2279 C2276 1.539 . S
C2279 H2293 0.958 . S
C2279 H2294 0.961 . S
C2279 H2295 0.960 . S
H2280 C2264 0.931 . S
H2281 C2269 0.929 . S
H2282 C2270 0.960 . S
H2283 C2270 0.962 . S
H2284 C2270 0.960 . S
H2285 C2271 0.961 . S
H2286 C2271 0.961 . S
H2287 C2271 0.961 . S
H2288 C2272 0.931 . S
H2289 C2277 0.930 . S
H2290 C2278 0.956 . S
H2291 C2278 0.961 . S
H2292 C2278 0.961 . S
H2293 C2279 0.958 . S
H2294 C2279 0.961 . S
H2295 C2279 0.960 . S
C2296 C2297 1.391 . S
C2296 C2298 1.394 . S
C2296 H2312 0.931 . S
C2297 C2296 1.391 . S
C2297 C2301 1.376 . S
C2298 C2296 1.394 . S
C2298 C2299 1.369 . S
C2298 C2302 1.531 . S
C2299 C2298 1.369 . S
C2299 C2300 1.410 . S
C2299 C2307 1.503 . S
C2300 C2299 1.410 . S
C2300 C2301 1.392 . S
C2300 C2303 1.511 . S
C2301 C2297 1.376 . S
C2301 C2300 1.392 . S
C2301 H2313 0.929 . S
C2302 C2298 1.531 . S
C2302 H2314 0.960 . S
C2302 H2315 0.962 . S
C2302 H2316 0.960 . S
C2303 C2300 1.511 . S
C2303 H2317 0.961 . S
C2303 H2318 0.961 . S
C2303 H2319 0.961 . S
C2304 C2305 1.370 . S
C2304 C2306 1.363 . S
C2304 H2320 0.931 . S
C2305 C2304 1.370 . S
C2305 C2309 1.408 . S
C2306 C2304 1.363 . S
C2306 C2307 1.370 . S
C2306 C2310 1.524 . S
C2307 C2299 1.503 . S
C2307 C2306 1.370 . S
C2307 C2308 1.403 . S
C2308 C2307 1.403 . S
C2308 C2309 1.404 . S
C2308 C2311 1.539 . S
C2309 C2305 1.408 . S
C2309 C2308 1.404 . S
C2309 H2321 0.930 . S
C2310 C2306 1.524 . S
C2310 H2322 0.956 . S
C2310 H2323 0.961 . S
C2310 H2324 0.961 . S
C2311 C2308 1.539 . S
C2311 H2325 0.958 . S
C2311 H2326 0.961 . S
C2311 H2327 0.960 . S
H2312 C2296 0.931 . S
H2313 C2301 0.929 . S
H2314 C2302 0.960 . S
H2315 C2302 0.962 . S
H2316 C2302 0.960 . S
H2317 C2303 0.961 . S
H2318 C2303 0.961 . S
H2319 C2303 0.961 . S
H2320 C2304 0.931 . S
H2321 C2309 0.930 . S
H2322 C2310 0.956 . S
H2323 C2310 0.961 . S
H2324 C2310 0.961 . S
H2325 C2311 0.958 . S
H2326 C2311 0.961 . S
H2327 C2311 0.960 . S
C2328 C2329 1.391 . S
C2328 C2330 1.394 . S
C2328 H2344 0.931 . S
C2329 C2328 1.391 . S
C2329 C2333 1.376 . S
C2330 C2328 1.394 . S
C2330 C2331 1.369 . S
C2330 C2334 1.531 . S
C2331 C2330 1.369 . S
C2331 C2332 1.410 . S
C2331 C2339 1.503 . S
C2332 C2331 1.410 . S
C2332 C2333 1.392 . S
C2332 C2335 1.511 . S
C2333 C2329 1.376 . S
C2333 C2332 1.392 . S
C2333 H2345 0.929 . S
C2334 C2330 1.531 . S
C2334 H2346 0.960 . S
C2334 H2347 0.962 . S
C2334 H2348 0.960 . S
C2335 C2332 1.511 . S
C2335 H2349 0.961 . S
C2335 H2350 0.961 . S
C2335 H2351 0.961 . S
C2336 C2337 1.370 . S
C2336 C2338 1.363 . S
C2336 H2352 0.931 . S
C2337 C2336 1.370 . S
C2337 C2341 1.408 . S
C2338 C2336 1.363 . S
C2338 C2339 1.370 . S
C2338 C2342 1.524 . S
C2339 C2331 1.503 . S
C2339 C2338 1.370 . S
C2339 C2340 1.403 . S
C2340 C2339 1.403 . S
C2340 C2341 1.404 . S
C2340 C2343 1.539 . S
C2341 C2337 1.408 . S
C2341 C2340 1.404 . S
C2341 H2353 0.930 . S
C2342 C2338 1.524 . S
C2342 H2354 0.956 . S
C2342 H2355 0.961 . S
C2342 H2356 0.961 . S
C2343 C2340 1.539 . S
C2343 H2357 0.958 . S
C2343 H2358 0.961 . S
C2343 H2359 0.960 . S
H2344 C2328 0.931 . S
H2345 C2333 0.929 . S
H2346 C2334 0.960 . S
H2347 C2334 0.962 . S
H2348 C2334 0.960 . S
H2349 C2335 0.961 . S
H2350 C2335 0.961 . S
H2351 C2335 0.961 . S
H2352 C2336 0.931 . S
H2353 C2341 0.930 . S
H2354 C2342 0.956 . S
H2355 C2342 0.961 . S
H2356 C2342 0.961 . S
H2357 C2343 0.958 . S
H2358 C2343 0.961 . S
H2359 C2343 0.960 . S
C2360 C2361 1.391 . S
C2360 C2362 1.394 . S
C2360 H2376 0.931 . S
C2361 C2360 1.391 . S
C2361 C2365 1.376 . S
C2362 C2360 1.394 . S
C2362 C2363 1.369 . S
C2362 C2366 1.531 . S
C2363 C2362 1.369 . S
C2363 C2364 1.410 . S
C2363 C2371 1.503 . S
C2364 C2363 1.410 . S
C2364 C2365 1.392 . S
C2364 C2367 1.511 . S
C2365 C2361 1.376 . S
C2365 C2364 1.392 . S
C2365 H2377 0.929 . S
C2366 C2362 1.531 . S
C2366 H2378 0.960 . S
C2366 H2379 0.962 . S
C2366 H2380 0.960 . S
C2367 C2364 1.511 . S
C2367 H2381 0.961 . S
C2367 H2382 0.961 . S
C2367 H2383 0.961 . S
C2368 C2369 1.370 . S
C2368 C2370 1.363 . S
C2368 H2384 0.931 . S
C2369 C2368 1.370 . S
C2369 C2373 1.408 . S
C2370 C2368 1.363 . S
C2370 C2371 1.370 . S
C2370 C2374 1.524 . S
C2371 C2363 1.503 . S
C2371 C2370 1.370 . S
C2371 C2372 1.403 . S
C2372 C2371 1.403 . S
C2372 C2373 1.404 . S
C2372 C2375 1.539 . S
C2373 C2369 1.408 . S
C2373 C2372 1.404 . S
C2373 H2385 0.930 . S
C2374 C2370 1.524 . S
C2374 H2386 0.956 . S
C2374 H2387 0.961 . S
C2374 H2388 0.961 . S
C2375 C2372 1.539 . S
C2375 H2389 0.958 . S
C2375 H2390 0.961 . S
C2375 H2391 0.960 . S
H2376 C2360 0.931 . S
H2377 C2365 0.929 . S
H2378 C2366 0.960 . S
H2379 C2366 0.962 . S
H2380 C2366 0.960 . S
H2381 C2367 0.961 . S
H2382 C2367 0.961 . S
H2383 C2367 0.961 . S
H2384 C2368 0.931 . S
H2385 C2373 0.930 . S
H2386 C2374 0.956 . S
H2387 C2374 0.961 . S
H2388 C2374 0.961 . S
H2389 C2375 0.958 . S
H2390 C2375 0.961 . S
H2391 C2375 0.960 . S
C2392 C2393 1.391 . S
C2392 C2394 1.394 . S
C2392 H2408 0.931 . S
C2393 C2392 1.391 . S
C2393 C2397 1.376 . S
C2394 C2392 1.394 . S
C2394 C2395 1.369 . S
C2394 C2398 1.531 . S
C2395 C2394 1.369 . S
C2395 C2396 1.410 . S
C2395 C2403 1.503 . S
C2396 C2395 1.410 . S
C2396 C2397 1.392 . S
C2396 C2399 1.511 . S
C2397 C2393 1.376 . S
C2397 C2396 1.392 . S
C2397 H2409 0.929 . S
C2398 C2394 1.531 . S
C2398 H2410 0.960 . S
C2398 H2411 0.962 . S
C2398 H2412 0.960 . S
C2399 C2396 1.511 . S
C2399 H2413 0.961 . S
C2399 H2414 0.961 . S
C2399 H2415 0.961 . S
C2400 C2401 1.370 . S
C2400 C2402 1.363 . S
C2400 H2416 0.931 . S
C2401 C2400 1.370 . S
C2401 C2405 1.408 . S
C2402 C2400 1.363 . S
C2402 C2403 1.370 . S
C2402 C2406 1.524 . S
C2403 C2395 1.503 . S
C2403 C2402 1.370 . S
C2403 C2404 1.403 . S
C2404 C2403 1.403 . S
C2404 C2405 1.404 . S
C2404 C2407 1.539 . S
C2405 C2401 1.408 . S
C2405 C2404 1.404 . S
C2405 H2417 0.930 . S
C2406 C2402 1.524 . S
C2406 H2418 0.956 . S
C2406 H2419 0.961 . S
C2406 H2420 0.961 . S
C2407 C2404 1.539 . S
C2407 H2421 0.958 . S
C2407 H2422 0.961 . S
C2407 H2423 0.960 . S
H2408 C2392 0.931 . S
H2409 C2397 0.929 . S
H2410 C2398 0.960 . S
H2411 C2398 0.962 . S
H2412 C2398 0.960 . S
H2413 C2399 0.961 . S
H2414 C2399 0.961 . S
H2415 C2399 0.961 . S
H2416 C2400 0.931 . S
H2417 C2405 0.930 . S
H2418 C2406 0.956 . S
H2419 C2406 0.961 . S
H2420 C2406 0.961 . S
H2421 C2407 0.958 . S
H2422 C2407 0.961 . S
H2423 C2407 0.960 . S
C2424 C2425 1.391 . S
C2424 C2426 1.394 . S
C2424 H2440 0.931 . S
C2425 C2424 1.391 . S
C2425 C2429 1.376 . S
C2426 C2424 1.394 . S
C2426 C2427 1.369 . S
C2426 C2430 1.531 . S
C2427 C2426 1.369 . S
C2427 C2428 1.410 . S
C2427 C2435 1.503 . S
C2428 C2427 1.410 . S
C2428 C2429 1.392 . S
C2428 C2431 1.511 . S
C2429 C2425 1.376 . S
C2429 C2428 1.392 . S
C2429 H2441 0.929 . S
C2430 C2426 1.531 . S
C2430 H2442 0.960 . S
C2430 H2443 0.962 . S
C2430 H2444 0.960 . S
C2431 C2428 1.511 . S
C2431 H2445 0.961 . S
C2431 H2446 0.961 . S
C2431 H2447 0.961 . S
C2432 C2433 1.370 . S
C2432 C2434 1.363 . S
C2432 H2448 0.931 . S
C2433 C2432 1.370 . S
C2433 C2437 1.408 . S
C2434 C2432 1.363 . S
C2434 C2435 1.370 . S
C2434 C2438 1.524 . S
C2435 C2427 1.503 . S
C2435 C2434 1.370 . S
C2435 C2436 1.403 . S
C2436 C2435 1.403 . S
C2436 C2437 1.404 . S
C2436 C2439 1.539 . S
C2437 C2433 1.408 . S
C2437 C2436 1.404 . S
C2437 H2449 0.930 . S
C2438 C2434 1.524 . S
C2438 H2450 0.956 . S
C2438 H2451 0.961 . S
C2438 H2452 0.961 . S
C2439 C2436 1.539 . S
C2439 H2453 0.958 . S
C2439 H2454 0.961 . S
C2439 H2455 0.960 . S
H2440 C2424 0.931 . S
H2441 C2429 0.929 . S
H2442 C2430 0.960 . S
H2443 C2430 0.962 . S
H2444 C2430 0.960 . S
H2445 C2431 0.961 . S
H2446 C2431 0.961 . S
H2447 C2431 0.961 . S
H2448 C2432 0.931 . S
H2449 C2437 0.930 . S
H2450 C2438 0.956 . S
H2451 C2438 0.961 . S
H2452 C2438 0.961 . S
H2453 C2439 0.958 . S
H2454 C2439 0.961 . S
H2455 C2439 0.960 . S
C2456 C2457 1.391 . S
C2456 C2458 1.394 . S
C2456 H2472 0.931 . S
C2457 C2456 1.391 . S
C2457 C2461 1.376 . S
C2458 C2456 1.394 . S
C2458 C2459 1.369 . S
C2458 C2462 1.531 . S
C2459 C2458 1.369 . S
C2459 C2460 1.410 . S
C2459 C2467 1.503 . S
C2460 C2459 1.410 . S
C2460 C2461 1.392 . S
C2460 C2463 1.511 . S
C2461 C2457 1.376 . S
C2461 C2460 1.392 . S
C2461 H2473 0.929 . S
C2462 C2458 1.531 . S
C2462 H2474 0.960 . S
C2462 H2475 0.962 . S
C2462 H2476 0.960 . S
C2463 C2460 1.511 . S
C2463 H2477 0.961 . S
C2463 H2478 0.961 . S
C2463 H2479 0.961 . S
C2464 C2465 1.370 . S
C2464 C2466 1.363 . S
C2464 H2480 0.931 . S
C2465 C2464 1.370 . S
C2465 C2469 1.408 . S
C2466 C2464 1.363 . S
C2466 C2467 1.370 . S
C2466 C2470 1.524 . S
C2467 C2459 1.503 . S
C2467 C2466 1.370 . S
C2467 C2468 1.403 . S
C2468 C2467 1.403 . S
C2468 C2469 1.404 . S
C2468 C2471 1.539 . S
C2469 C2465 1.408 . S
C2469 C2468 1.404 . S
C2469 H2481 0.930 . S
C2470 C2466 1.524 . S
C2470 H2482 0.956 . S
C2470 H2483 0.961 . S
C2470 H2484 0.961 . S
C2471 C2468 1.539 . S
C2471 H2485 0.958 . S
C2471 H2486 0.961 . S
C2471 H2487 0.960 . S
H2472 C2456 0.931 . S
H2473 C2461 0.929 . S
H2474 C2462 0.960 . S
H2475 C2462 0.962 . S
H2476 C2462 0.960 . S
H2477 C2463 0.961 . S
H2478 C2463 0.961 . S
H2479 C2463 0.961 . S
H2480 C2464 0.931 . S
H2481 C2469 0.930 . S
H2482 C2470 0.956 . S
H2483 C2470 0.961 . S
H2484 C2470 0.961 . S
H2485 C2471 0.958 . S
H2486 C2471 0.961 . S
H2487 C2471 0.960 . S
C2488 C2489 1.391 . S
C2488 C2490 1.394 . S
C2488 H2504 0.931 . S
C2489 C2488 1.391 . S
C2489 C2493 1.376 . S
C2490 C2488 1.394 . S
C2490 C2491 1.369 . S
C2490 C2494 1.531 . S
C2491 C2490 1.369 . S
C2491 C2492 1.410 . S
C2491 C2499 1.503 . S
C2492 C2491 1.410 . S
C2492 C2493 1.392 . S
C2492 C2495 1.511 . S
C2493 C2489 1.376 . S
C2493 C2492 1.392 . S
C2493 H2505 0.929 . S
C2494 C2490 1.531 . S
C2494 H2506 0.960 . S
C2494 H2507 0.962 . S
C2494 H2508 0.960 . S
C2495 C2492 1.511 . S
C2495 H2509 0.961 . S
C2495 H2510 0.961 . S
C2495 H2511 0.961 . S
C2496 C2497 1.370 . S
C2496 C2498 1.363 . S
C2496 H2512 0.931 . S
C2497 C2496 1.370 . S
C2497 C2501 1.408 . S
C2498 C2496 1.363 . S
C2498 C2499 1.370 . S
C2498 C2502 1.524 . S
C2499 C2491 1.503 . S
C2499 C2498 1.370 . S
C2499 C2500 1.403 . S
C2500 C2499 1.403 . S
C2500 C2501 1.404 . S
C2500 C2503 1.539 . S
C2501 C2497 1.408 . S
C2501 C2500 1.404 . S
C2501 H2513 0.930 . S
C2502 C2498 1.524 . S
C2502 H2514 0.956 . S
C2502 H2515 0.961 . S
C2502 H2516 0.961 . S
C2503 C2500 1.539 . S
C2503 H2517 0.958 . S
C2503 H2518 0.961 . S
C2503 H2519 0.960 . S
H2504 C2488 0.931 . S
H2505 C2493 0.929 . S
H2506 C2494 0.960 . S
H2507 C2494 0.962 . S
H2508 C2494 0.960 . S
H2509 C2495 0.961 . S
H2510 C2495 0.961 . S
H2511 C2495 0.961 . S
H2512 C2496 0.931 . S
H2513 C2501 0.930 . S
H2514 C2502 0.956 . S
H2515 C2502 0.961 . S
H2516 C2502 0.961 . S
H2517 C2503 0.958 . S
H2518 C2503 0.961 . S
H2519 C2503 0.960 . S
C2520 C2521 1.391 . S
C2520 C2522 1.394 . S
C2520 H2536 0.931 . S
C2521 C2520 1.391 . S
C2521 C2525 1.376 . S
C2522 C2520 1.394 . S
C2522 C2523 1.369 . S
C2522 C2526 1.531 . S
C2523 C2522 1.369 . S
C2523 C2524 1.410 . S
C2523 C2531 1.503 . S
C2524 C2523 1.410 . S
C2524 C2525 1.392 . S
C2524 C2527 1.511 . S
C2525 C2521 1.376 . S
C2525 C2524 1.392 . S
C2525 H2537 0.929 . S
C2526 C2522 1.531 . S
C2526 H2538 0.960 . S
C2526 H2539 0.962 . S
C2526 H2540 0.960 . S
C2527 C2524 1.511 . S
C2527 H2541 0.961 . S
C2527 H2542 0.961 . S
C2527 H2543 0.961 . S
C2528 C2529 1.370 . S
C2528 C2530 1.363 . S
C2528 H2544 0.931 . S
C2529 C2528 1.370 . S
C2529 C2533 1.408 . S
C2530 C2528 1.363 . S
C2530 C2531 1.370 . S
C2530 C2534 1.524 . S
C2531 C2523 1.503 . S
C2531 C2530 1.370 . S
C2531 C2532 1.403 . S
C2532 C2531 1.403 . S
C2532 C2533 1.404 . S
C2532 C2535 1.539 . S
C2533 C2529 1.408 . S
C2533 C2532 1.404 . S
C2533 H2545 0.930 . S
C2534 C2530 1.524 . S
C2534 H2546 0.956 . S
C2534 H2547 0.961 . S
C2534 H2548 0.961 . S
C2535 C2532 1.539 . S
C2535 H2549 0.958 . S
C2535 H2550 0.961 . S
C2535 H2551 0.960 . S
H2536 C2520 0.931 . S
H2537 C2525 0.929 . S
H2538 C2526 0.960 . S
H2539 C2526 0.962 . S
H2540 C2526 0.960 . S
H2541 C2527 0.961 . S
H2542 C2527 0.961 . S
H2543 C2527 0.961 . S
H2544 C2528 0.931 . S
H2545 C2533 0.930 . S
H2546 C2534 0.956 . S
H2547 C2534 0.961 . S
H2548 C2534 0.961 . S
H2549 C2535 0.958 . S
H2550 C2535 0.961 . S
H2551 C2535 0.960 . S
C2552 C2553 1.391 . S
C2552 C2554 1.394 . S
C2552 H2568 0.931 . S
C2553 C2552 1.391 . S
C2553 C2557 1.376 . S
C2554 C2552 1.394 . S
C2554 C2555 1.369 . S
C2554 C2558 1.531 . S
C2555 C2554 1.369 . S
C2555 C2556 1.410 . S
C2555 C2563 1.503 . S
C2556 C2555 1.410 . S
C2556 C2557 1.392 . S
C2556 C2559 1.511 . S
C2557 C2553 1.376 . S
C2557 C2556 1.392 . S
C2557 H2569 0.929 . S
C2558 C2554 1.531 . S
C2558 H2570 0.960 . S
C2558 H2571 0.962 . S
C2558 H2572 0.960 . S
C2559 C2556 1.511 . S
C2559 H2573 0.961 . S
C2559 H2574 0.961 . S
C2559 H2575 0.961 . S
C2560 C2561 1.370 . S
C2560 C2562 1.363 . S
C2560 H2576 0.931 . S
C2561 C2560 1.370 . S
C2561 C2565 1.408 . S
C2562 C2560 1.363 . S
C2562 C2563 1.370 . S
C2562 C2566 1.524 . S
C2563 C2555 1.503 . S
C2563 C2562 1.370 . S
C2563 C2564 1.403 . S
C2564 C2563 1.403 . S
C2564 C2565 1.404 . S
C2564 C2567 1.539 . S
C2565 C2561 1.408 . S
C2565 C2564 1.404 . S
C2565 H2577 0.930 . S
C2566 C2562 1.524 . S
C2566 H2578 0.956 . S
C2566 H2579 0.961 . S
C2566 H2580 0.961 . S
C2567 C2564 1.539 . S
C2567 H2581 0.958 . S
C2567 H2582 0.961 . S
C2567 H2583 0.960 . S
H2568 C2552 0.931 . S
H2569 C2557 0.929 . S
H2570 C2558 0.960 . S
H2571 C2558 0.962 . S
H2572 C2558 0.960 . S
H2573 C2559 0.961 . S
H2574 C2559 0.961 . S
H2575 C2559 0.961 . S
H2576 C2560 0.931 . S
H2577 C2565 0.930 . S
H2578 C2566 0.956 . S
H2579 C2566 0.961 . S
H2580 C2566 0.961 . S
H2581 C2567 0.958 . S
H2582 C2567 0.961 . S
H2583 C2567 0.960 . S
C2584 C2585 1.391 . S
C2584 C2586 1.394 . S
C2584 H2600 0.931 . S
C2585 C2584 1.391 . S
C2585 C2589 1.376 . S
C2586 C2584 1.394 . S
C2586 C2587 1.369 . S
C2586 C2590 1.531 . S
C2587 C2586 1.369 . S
C2587 C2588 1.410 . S
C2587 C2595 1.503 . S
C2588 C2587 1.410 . S
C2588 C2589 1.392 . S
C2588 C2591 1.511 . S
C2589 C2585 1.376 . S
C2589 C2588 1.392 . S
C2589 H2601 0.929 . S
C2590 C2586 1.531 . S
C2590 H2602 0.960 . S
C2590 H2603 0.962 . S
C2590 H2604 0.960 . S
C2591 C2588 1.511 . S
C2591 H2605 0.961 . S
C2591 H2606 0.961 . S
C2591 H2607 0.961 . S
C2592 C2593 1.370 . S
C2592 C2594 1.363 . S
C2592 H2608 0.931 . S
C2593 C2592 1.370 . S
C2593 C2597 1.408 . S
C2594 C2592 1.363 . S
C2594 C2595 1.370 . S
C2594 C2598 1.524 . S
C2595 C2587 1.503 . S
C2595 C2594 1.370 . S
C2595 C2596 1.403 . S
C2596 C2595 1.403 . S
C2596 C2597 1.404 . S
C2596 C2599 1.539 . S
C2597 C2593 1.408 . S
C2597 C2596 1.404 . S
C2597 H2609 0.930 . S
C2598 C2594 1.524 . S
C2598 H2610 0.956 . S
C2598 H2611 0.961 . S
C2598 H2612 0.961 . S
C2599 C2596 1.539 . S
C2599 H2613 0.958 . S
C2599 H2614 0.961 . S
C2599 H2615 0.960 . S
H2600 C2584 0.931 . S
H2601 C2589 0.929 . S
H2602 C2590 0.960 . S
H2603 C2590 0.962 . S
H2604 C2590 0.960 . S
H2605 C2591 0.961 . S
H2606 C2591 0.961 . S
H2607 C2591 0.961 . S
H2608 C2592 0.931 . S
H2609 C2597 0.930 . S
H2610 C2598 0.956 . S
H2611 C2598 0.961 . S
H2612 C2598 0.961 . S
H2613 C2599 0.958 . S
H2614 C2599 0.961 . S
H2615 C2599 0.960 . S
C2616 C2617 1.385 1_655 S
C2616 C2618 1.396 . S
C2616 H2632 0.935 . S
C2617 C2616 1.385 1_455 S
C2617 C2621 1.376 . S
C2618 C2616 1.396 . S
C2618 C2619 1.369 1_655 S
C2618 C2622 1.531 . S
C2619 C2618 1.369 1_455 S
C2619 C2620 1.410 . S
C2619 C2627 1.503 1_456 S
C2620 C2619 1.410 . S
C2620 C2621 1.392 . S
C2620 C2623 1.511 1_556 S
C2621 C2617 1.376 . S
C2621 C2620 1.392 . S
C2621 H2633 0.929 . S
C2622 C2618 1.531 . S
C2622 H2634 0.960 . S
C2622 H2635 0.962 . S
C2622 H2636 0.960 . S
C2623 C2620 1.511 1_554 S
C2623 H2637 0.961 . S
C2623 H2638 0.961 . S
C2623 H2639 0.961 . S
C2624 C2625 1.370 . S
C2624 C2626 1.363 . S
C2624 H2640 0.931 . S
C2625 C2624 1.370 . S
C2625 C2629 1.408 . S
C2626 C2624 1.363 . S
C2626 C2627 1.370 . S
C2626 C2630 1.524 . S
C2627 C2619 1.503 1_654 S
C2627 C2626 1.370 . S
C2627 C2628 1.403 . S
C2628 C2627 1.403 . S
C2628 C2629 1.404 . S
C2628 C2631 1.539 . S
C2629 C2625 1.408 . S
C2629 C2628 1.404 . S
C2629 H2641 0.930 . S
C2630 C2626 1.524 . S
C2630 H2642 0.956 1_554 S
C2630 H2643 0.961 1_655 S
C2630 H2644 0.961 . S
C2631 C2628 1.539 . S
C2631 H2645 0.958 . S
C2631 H2646 0.961 . S
C2631 H2647 0.960 1_655 S
H2632 C2616 0.935 . S
H2633 C2621 0.929 . S
H2634 C2622 0.960 . S
H2635 C2622 0.962 . S
H2636 C2622 0.960 . S
H2637 C2623 0.961 . S
H2638 C2623 0.961 . S
H2639 C2623 0.961 . S
H2640 C2624 0.931 . S
H2641 C2629 0.930 . S
H2642 C2630 0.956 1_556 S
H2643 C2630 0.961 1_455 S
H2644 C2630 0.961 . S
H2645 C2631 0.958 . S
H2646 C2631 0.961 . S
H2647 C2631 0.960 1_455 S
C2648 C2649 1.391 . S
C2648 C2650 1.394 . S
C2648 H2664 0.931 . S
C2649 C2648 1.391 . S
C2649 C2653 1.376 . S
C2650 C2648 1.394 . S
C2650 C2651 1.369 . S
C2650 C2654 1.531 . S
C2651 C2650 1.369 . S
C2651 C2652 1.410 . S
C2651 C2659 1.503 1_554 S
C2652 C2651 1.410 . S
C2652 C2653 1.392 . S
C2652 C2655 1.511 1_554 S
C2653 C2649 1.376 . S
C2653 C2652 1.392 . S
C2653 H2665 0.929 . S
C2654 C2650 1.531 . S
C2654 H2666 0.960 . S
C2654 H2667 0.962 . S
C2654 H2668 0.960 . S
C2655 C2652 1.511 1_556 S
C2655 H2669 0.961 . S
C2655 H2670 0.961 . S
C2655 H2671 0.961 . S
C2656 C2657 1.370 . S
C2656 C2658 1.363 . S
C2656 H2672 0.931 . S
C2657 C2656 1.370 . S
C2657 C2661 1.408 . S
C2658 C2656 1.363 . S
C2658 C2659 1.370 . S
C2658 C2662 1.524 . S
C2659 C2651 1.503 1_556 S
C2659 C2658 1.370 . S
C2659 C2660 1.403 . S
C2660 C2659 1.403 . S
C2660 C2661 1.404 . S
C2660 C2663 1.539 . S
C2661 C2657 1.408 . S
C2661 C2660 1.404 . S
C2661 H2673 0.930 . S
C2662 C2658 1.524 . S
C2662 H2674 0.956 1_556 S
C2662 H2675 0.961 1_556 S
C2662 H2676 0.961 . S
C2663 C2660 1.539 . S
C2663 H2677 0.958 . S
C2663 H2678 0.961 . S
C2663 H2679 0.960 . S
H2664 C2648 0.931 . S
H2665 C2653 0.929 . S
H2666 C2654 0.960 . S
H2667 C2654 0.962 . S
H2668 C2654 0.960 . S
H2669 C2655 0.961 . S
H2670 C2655 0.961 . S
H2671 C2655 0.961 . S
H2672 C2656 0.931 . S
H2673 C2661 0.930 . S
H2674 C2662 0.956 1_554 S
H2675 C2662 0.961 1_554 S
H2676 C2662 0.961 . S
H2677 C2663 0.958 . S
H2678 C2663 0.961 . S
H2679 C2663 0.960 . S
C2680 C2681 1.391 . S
C2680 C2682 1.394 . S
C2680 H2696 0.931 . S
C2681 C2680 1.391 . S
C2681 C2685 1.376 . S
C2682 C2680 1.394 . S
C2682 C2683 1.390 . S
C2682 C2686 1.531 . S
C2683 C2682 1.390 . S
C2683 C2684 1.419 1_545 S
C2683 C2691 1.484 1_544 S
C2684 C2683 1.419 1_565 S
C2684 C2685 1.392 1_565 S
C2684 C2687 1.511 . S
C2685 C2681 1.376 . S
C2685 C2684 1.392 1_545 S
C2685 H2697 0.924 . S
C2686 C2682 1.531 . S
C2686 H2698 0.960 1_554 S
C2686 H2699 0.962 1_554 S
C2686 H2700 0.960 . S
C2687 C2684 1.511 . S
C2687 H2701 0.961 . S
C2687 H2702 0.961 . S
C2687 H2703 0.961 . S
C2688 C2689 1.370 . S
C2688 C2690 1.363 1_565 S
C2688 H2704 0.931 1_565 S
C2689 C2688 1.370 . S
C2689 C2693 1.408 . S
C2690 C2688 1.363 1_545 S
C2690 C2691 1.370 1_545 S
C2690 C2694 1.524 . S
C2691 C2683 1.484 1_566 S
C2691 C2690 1.370 1_565 S
C2691 C2692 1.403 . S
C2692 C2691 1.403 . S
C2692 C2693 1.404 . S
C2692 C2695 1.539 1_556 S
C2693 C2689 1.408 . S
C2693 C2692 1.404 . S
C2693 H2705 0.930 . S
C2694 C2690 1.524 . S
C2694 H2706 0.956 . S
C2694 H2707 0.961 . S
C2694 H2708 0.961 . S
C2695 C2692 1.539 1_554 S
C2695 H2709 0.958 . S
C2695 H2710 0.961 1_554 S
C2695 H2711 0.960 . S
H2696 C2680 0.931 . S
H2697 C2685 0.924 . S
H2698 C2686 0.960 1_556 S
H2699 C2686 0.962 1_556 S
H2700 C2686 0.960 . S
H2701 C2687 0.961 . S
H2702 C2687 0.961 . S
H2703 C2687 0.961 . S
H2704 C2688 0.931 1_545 S
H2705 C2693 0.930 . S
H2706 C2694 0.956 . S
H2707 C2694 0.961 . S
H2708 C2694 0.961 . S
H2709 C2695 0.958 . S
H2710 C2695 0.961 1_556 S
H2711 C2695 0.960 . S
C2712 C2713 1.391 . S
C2712 C2714 1.394 . S
C2712 H2728 0.931 . S
C2713 C2712 1.391 . S
C2713 C2717 1.390 . S
C2714 C2712 1.394 . S
C2714 C2715 1.369 . S
C2714 C2718 1.531 1_556 S
C2715 C2714 1.369 . S
C2715 C2716 1.410 1_565 S
C2715 C2723 1.503 1_566 S
C2716 C2715 1.410 1_545 S
C2716 C2717 1.387 1_545 S
C2716 C2719 1.511 . S
C2717 C2713 1.390 . S
C2717 C2716 1.387 1_565 S
C2717 H2729 0.920 1_565 S
C2718 C2714 1.531 1_554 S
C2718 H2730 0.960 . S
C2718 H2731 0.962 . S
C2718 H2732 0.960 1_554 S
C2719 C2716 1.511 . S
C2719 H2733 0.961 . S
C2719 H2734 0.961 . S
C2719 H2735 0.961 . S
C2720 C2721 1.370 . S
C2720 C2722 1.363 . S
C2720 H2736 0.931 . S
C2721 C2720 1.370 . S
C2721 C2725 1.408 . S
C2722 C2720 1.363 . S
C2722 C2723 1.370 . S
C2722 C2726 1.524 1_545 S
C2723 C2715 1.503 1_544 S
C2723 C2722 1.370 . S
C2723 C2724 1.403 . S
C2724 C2723 1.403 . S
C2724 C2725 1.404 . S
C2724 C2727 1.539 . S
C2725 C2721 1.408 . S
C2725 C2724 1.404 . S
C2725 H2737 0.930 . S
C2726 C2722 1.524 1_565 S
C2726 H2738 0.956 . S
C2726 H2739 0.960 . S
C2726 H2740 0.961 . S
C2727 C2724 1.539 . S
C2727 H2741 0.958 . S
C2727 H2742 0.961 . S
C2727 H2743 0.960 1_554 S
H2728 C2712 0.931 . S
H2729 C2717 0.920 1_545 S
H2730 C2718 0.960 . S
H2731 C2718 0.962 . S
H2732 C2718 0.960 1_556 S
H2733 C2719 0.961 . S
H2734 C2719 0.961 . S
H2735 C2719 0.961 . S
H2736 C2720 0.931 . S
H2737 C2725 0.930 . S
H2738 C2726 0.956 . S
H2739 C2726 0.960 . S
H2740 C2726 0.961 . S
H2741 C2727 0.958 . S
H2742 C2727 0.961 . S
H2743 C2727 0.960 1_556 S
C2744 C2745 1.391 . S
C2744 C2746 1.394 . S
C2744 H2760 0.931 . S
C2745 C2744 1.391 . S
C2745 C2749 1.374 . S
C2746 C2744 1.394 . S
C2746 C2747 1.369 . S
C2746 C2750 1.531 1_556 S
C2747 C2746 1.369 . S
C2747 C2748 1.410 1_455 S
C2747 C2755 1.503 1_456 S
C2748 C2747 1.410 1_655 S
C2748 C2749 1.393 1_655 S
C2748 C2751 1.511 . S
C2749 C2745 1.374 . S
C2749 C2748 1.393 1_455 S
C2749 H2761 0.930 1_455 S
C2750 C2746 1.531 1_554 S
C2750 H2762 0.960 . S
C2750 H2763 0.962 . S
C2750 H2764 0.960 1_554 S
C2751 C2748 1.511 . S
C2751 H2765 0.961 . S
C2751 H2766 0.961 . S
C2751 H2767 0.961 . S
C2752 C2753 1.370 . S
C2752 C2754 1.363 . S
C2752 H2768 0.931 . S
C2753 C2752 1.370 . S
C2753 C2757 1.408 . S
C2754 C2752 1.363 . S
C2754 C2755 1.370 . S
C2754 C2758 1.524 1_655 S
C2755 C2747 1.503 1_654 S
C2755 C2754 1.370 . S
C2755 C2756 1.403 . S
C2756 C2755 1.403 . S
C2756 C2757 1.404 . S
C2756 C2759 1.539 . S
C2757 C2753 1.408 . S
C2757 C2756 1.404 . S
C2757 H2769 0.930 . S
C2758 C2754 1.524 1_455 S
C2758 H2770 0.956 . S
C2758 H2771 0.968 1_554 S
C2758 H2772 0.961 . S
C2759 C2756 1.539 . S
C2759 H2773 0.958 . S
C2759 H2774 0.961 . S
C2759 H2775 0.960 1_554 S
H2760 C2744 0.931 . S
H2761 C2749 0.930 1_655 S
H2762 C2750 0.960 . S
H2763 C2750 0.962 . S
H2764 C2750 0.960 1_556 S
H2765 C2751 0.961 . S
H2766 C2751 0.961 . S
H2767 C2751 0.961 . S
H2768 C2752 0.931 . S
H2769 C2757 0.930 . S
H2770 C2758 0.956 . S
H2771 C2758 0.968 1_556 S
H2772 C2758 0.961 . S
H2773 C2759 0.958 . S
H2774 C2759 0.961 . S
H2775 C2759 0.960 1_556 S
C2776 C2777 1.391 . S
C2776 C2778 1.394 . S
C2776 H2792 0.931 . S
C2777 C2776 1.391 . S
C2777 C2781 1.376 . S
C2778 C2776 1.394 . S
C2778 C2779 1.369 . S
C2778 C2782 1.531 . S
C2779 C2778 1.369 . S
C2779 C2780 1.410 . S
C2779 C2787 1.503 1_554 S
C2780 C2779 1.410 . S
C2780 C2781 1.392 . S
C2780 C2783 1.511 1_554 S
C2781 C2777 1.376 . S
C2781 C2780 1.392 . S
C2781 H2793 0.929 . S
C2782 C2778 1.531 . S
C2782 H2794 0.960 . S
C2782 H2795 0.962 . S
C2782 H2796 0.960 . S
C2783 C2780 1.511 1_556 S
C2783 H2797 0.961 1_556 S
C2783 H2798 0.961 . S
C2783 H2799 0.961 . S
C2784 C2785 1.370 . S
C2784 C2786 1.363 . S
C2784 H2800 0.931 . S
C2785 C2784 1.370 . S
C2785 C2789 1.408 . S
C2786 C2784 1.363 . S
C2786 C2787 1.370 . S
C2786 C2790 1.524 . S
C2787 C2779 1.503 1_556 S
C2787 C2786 1.370 . S
C2787 C2788 1.403 . S
C2788 C2787 1.403 . S
C2788 C2789 1.404 . S
C2788 C2791 1.539 . S
C2789 C2785 1.408 . S
C2789 C2788 1.404 . S
C2789 H2801 0.930 . S
C2790 C2786 1.524 . S
C2790 H2802 0.956 1_556 S
C2790 H2803 0.961 1_556 S
C2790 H2804 0.961 . S
C2791 C2788 1.539 . S
C2791 H2805 0.958 . S
C2791 H2806 0.961 . S
C2791 H2807 0.960 . S
H2792 C2776 0.931 . S
H2793 C2781 0.929 . S
H2794 C2782 0.960 . S
H2795 C2782 0.962 . S
H2796 C2782 0.960 . S
H2797 C2783 0.961 1_554 S
H2798 C2783 0.961 . S
H2799 C2783 0.961 . S
H2800 C2784 0.931 . S
H2801 C2789 0.930 . S
H2802 C2790 0.956 1_554 S
H2803 C2790 0.961 1_554 S
H2804 C2790 0.961 . S
H2805 C2791 0.958 . S
H2806 C2791 0.961 . S
H2807 C2791 0.960 . S
C505 C8 1.321 . S
C513 C162 1.315 . S
C537 C22 1.280 . S
C545 C134 1.298 . S
C569 C148 1.315 . S
C577 C36 1.313 . S
C601 C50 1.272 . S
C609 C106 1.293 . S
C633 C120 1.331 . S
C641 C64 1.318 . S
C665 C78 1.313 . S
C673 C92 1.311 . S
C697 C330 1.275 . S
C705 C176 1.295 . S
C729 C190 1.313 . S
C737 C302 1.308 . S
C761 C204 1.293 . S
C769 C316 1.299 . S
C793 C274 1.297 . S
C801 C218 1.301 . S
C825 C232 1.328 . S
C833 C288 1.317 . S
C857 C260 1.330 . S
C865 C246 1.318 . S
C889 C344 1.332 . S
C897 C498 1.318 . S
C921 C470 1.282 . S
C929 C358 1.295 . S
C953 C484 1.327 . S
C961 C372 1.317 . S
C985 C442 1.323 . S
C993 C386 1.315 . S
C1017 C456 1.330 . S
C1025 C400 1.316 . S
C1049 C428 1.329 . S
C1057 C414 1.317 . S
C1081 C7 1.420 . S
C1089 C63 1.402 . S
C1113 C77 1.419 . S
C1121 C21 1.402 . S
C1145 C35 1.397 . S
C1153 C49 1.411 . S
C1177 C91 1.382 . S
C1185 C147 1.409 . S
C1209 C105 1.417 . S
C1217 C161 1.396 . S
C1241 C119 1.412 . S
C1249 C133 1.394 . S
C1273 C231 1.380 . S
C1281 C175 1.406 . S
C1305 C245 1.379 . S
C1313 C189 1.405 . S
C1337 C203 1.378 . S
C1345 C217 1.402 . S
C1369 C315 1.396 . S
C1377 C259 1.395 . S
C1401 C329 1.407 . S
C1409 C273 1.408 . S
C1433 C287 1.416 . S
C1441 C301 1.395 . S
C1465 C399 1.378 . S
C1473 C343 1.402 . S
C1497 C357 1.414 . S
C1505 C413 1.408 . S
C1529 C371 1.407 . S
C1537 C385 1.411 . S
C1561 C483 1.411 . S
C1569 C427 1.408 . S
C1593 C441 1.399 . S
C1601 C497 1.410 . S
C1625 C469 1.401 . S
C1633 C455 1.394 . S
C1657 C415 1.458 . S
C1665 C9 1.441 . S
C1689 C23 1.426 . S
C1697 C387 1.452 . S
C1721 C37 1.437 . S
C1729 C401 1.438 . S
C1753 C51 1.445 . S
C1761 C191 1.437 . S
C1785 C205 1.431 . S
C1793 C65 1.441 . S
C1817 C177 1.422 . S
C1825 C79 1.446 . S
C1849 C93 1.430 . S
C1857 C331 1.451 . S
C1881 C107 1.434 . S
C1889 C303 1.442 . S
C1913 C121 1.455 . S
C1921 C317 1.440 . S
C1945 C443 1.436 . S
C1953 C135 1.449 . S
C1977 C457 1.426 . S
C1985 C149 1.446 . S
C2009 C163 1.460 . S
C2017 C429 1.436 . S
C2041 C359 1.421 . S
C2049 C219 1.451 . S
C2073 C233 1.422 . S
C2081 C373 1.452 . S
C2105 C345 1.420 . S
C2113 C247 1.449 . S
C2137 C499 1.450 . S
C2145 C261 1.436 . S
C2169 C275 1.442 . S
C2177 C471 1.446 . S
C2201 C289 1.456 . S
C2209 C485 1.440 . S
C2233 C6 1.533 . S
C2241 C412 1.561 . S
C2265 C384 1.549 . S
C2273 C20 1.557 . S
C2297 C34 1.572 . S
C2305 C398 1.544 . S
C2329 C188 1.528 . S
C2337 C48 1.555 . S
C2361 C62 1.543 . S
C2369 C202 1.559 . S
C2393 C76 1.535 . S
C2401 C174 1.561 . S
C2425 C328 1.572 . S
C2433 C90 1.546 . S
C2457 C104 1.551 . S
C2465 C300 1.543 . S
C2489 C118 1.529 . S
C2497 C314 1.562 . S
C2521 C132 1.538 . S
C2529 C440 1.547 . S
C2553 C454 1.546 . S
C2561 C146 1.545 . S
C2585 C160 1.572 . S
C2593 C426 1.545 . S
C2617 C356 1.556 . S
C2625 C216 1.554 . S
C2649 C230 1.565 . S
C2657 C370 1.550 . S
C2681 C244 1.524 . S
C2689 C342 1.559 . S
C2713 C496 1.547 . S
C2721 C258 1.560 . S
C2745 C468 1.548 . S
C2753 C272 1.559 . S
C2777 C286 1.553 . S
C2785 C482 1.543 . S
