# Generated by pormake.
# Topology sxg, (6)-cn, num edge types: 1
# Building blocks:
#     Node 0, Type 0, BuildingBlock: VOLQOD_clean_sbu_1, # of connection points: 6
#     Node 1, Type 0, BuildingBlock: VOLQOD_clean_sbu_1, # of connection points: 6
#     Node 2, Type 0, BuildingBlock: VOLQOD_clean_sbu_1, # of connection points: 6
#     Node 3, Type 0, BuildingBlock: VOLQOD_clean_sbu_1, # of connection points: 6
#     Node 4, Type 0, BuildingBlock: VOLQOD_clean_sbu_1, # of connection points: 6
#     Node 5, Type 0, BuildingBlock: VOLQOD_clean_sbu_1, # of connection points: 6
#     Node 6, Type 0, BuildingBlock: VOLQOD_clean_sbu_1, # of connection points: 6
#     Node 7, Type 0, BuildingBlock: VOLQOD_clean_sbu_1, # of connection points: 6
#     Node 8, Type 0, BuildingBlock: VOLQOD_clean_sbu_1, # of connection points: 6
#     Node 9, Type 0, BuildingBlock: VOLQOD_clean_sbu_1, # of connection points: 6
#     Node 10, Type 0, BuildingBlock: VOLQOD_clean_sbu_1, # of connection points: 6
#     Node 11, Type 0, BuildingBlock: VOLQOD_clean_sbu_1, # of connection points: 6
#     Node 12, Type 0, BuildingBlock: VOLQOD_clean_sbu_1, # of connection points: 6
#     Node 13, Type 0, BuildingBlock: VOLQOD_clean_sbu_1, # of connection points: 6
#     Node 14, Type 0, BuildingBlock: VOLQOD_clean_sbu_1, # of connection points: 6
#     Node 15, Type 0, BuildingBlock: VOLQOD_clean_sbu_1, # of connection points: 6
#     Node 16, Type 0, BuildingBlock: VOLQOD_clean_sbu_1, # of connection points: 6
#     Node 17, Type 0, BuildingBlock: VOLQOD_clean_sbu_1, # of connection points: 6
#     Node 18, Type 0, BuildingBlock: VOLQOD_clean_sbu_1, # of connection points: 6
#     Node 19, Type 0, BuildingBlock: VOLQOD_clean_sbu_1, # of connection points: 6
#     Node 20, Type 0, BuildingBlock: VOLQOD_clean_sbu_1, # of connection points: 6
#     Node 21, Type 0, BuildingBlock: VOLQOD_clean_sbu_1, # of connection points: 6
#     Node 22, Type 0, BuildingBlock: VOLQOD_clean_sbu_1, # of connection points: 6
#     Node 23, Type 0, BuildingBlock: VOLQOD_clean_sbu_1, # of connection points: 6
#     Edge 24, Type (0, 0), BuildingBlock: ZUJKAS_clean_linker_0, # of connection points: 2
#     Edge 25, Type (0, 0), BuildingBlock: ZUJKAS_clean_linker_0, # of connection points: 2
#     Edge 26, Type (0, 0), BuildingBlock: ZUJKAS_clean_linker_0, # of connection points: 2
#     Edge 27, Type (0, 0), BuildingBlock: ZUJKAS_clean_linker_0, # of connection points: 2
#     Edge 28, Type (0, 0), BuildingBlock: ZUJKAS_clean_linker_0, # of connection points: 2
#     Edge 29, Type (0, 0), BuildingBlock: ZUJKAS_clean_linker_0, # of connection points: 2
#     Edge 30, Type (0, 0), BuildingBlock: ZUJKAS_clean_linker_0, # of connection points: 2
#     Edge 31, Type (0, 0), BuildingBlock: ZUJKAS_clean_linker_0, # of connection points: 2
#     Edge 32, Type (0, 0), BuildingBlock: ZUJKAS_clean_linker_0, # of connection points: 2
#     Edge 33, Type (0, 0), BuildingBlock: ZUJKAS_clean_linker_0, # of connection points: 2
#     Edge 34, Type (0, 0), BuildingBlock: ZUJKAS_clean_linker_0, # of connection points: 2
#     Edge 35, Type (0, 0), BuildingBlock: ZUJKAS_clean_linker_0, # of connection points: 2
#     Edge 36, Type (0, 0), BuildingBlock: ZUJKAS_clean_linker_0, # of connection points: 2
#     Edge 37, Type (0, 0), BuildingBlock: ZUJKAS_clean_linker_0, # of connection points: 2
#     Edge 38, Type (0, 0), BuildingBlock: ZUJKAS_clean_linker_0, # of connection points: 2
#     Edge 39, Type (0, 0), BuildingBlock: ZUJKAS_clean_linker_0, # of connection points: 2
#     Edge 40, Type (0, 0), BuildingBlock: ZUJKAS_clean_linker_0, # of connection points: 2
#     Edge 41, Type (0, 0), BuildingBlock: ZUJKAS_clean_linker_0, # of connection points: 2
#     Edge 42, Type (0, 0), BuildingBlock: ZUJKAS_clean_linker_0, # of connection points: 2
#     Edge 43, Type (0, 0), BuildingBlock: ZUJKAS_clean_linker_0, # of connection points: 2
#     Edge 44, Type (0, 0), BuildingBlock: ZUJKAS_clean_linker_0, # of connection points: 2
#     Edge 45, Type (0, 0), BuildingBlock: ZUJKAS_clean_linker_0, # of connection points: 2
#     Edge 46, Type (0, 0), BuildingBlock: ZUJKAS_clean_linker_0, # of connection points: 2
#     Edge 47, Type (0, 0), BuildingBlock: ZUJKAS_clean_linker_0, # of connection points: 2
#     Edge 48, Type (0, 0), BuildingBlock: ZUJKAS_clean_linker_0, # of connection points: 2
#     Edge 49, Type (0, 0), BuildingBlock: ZUJKAS_clean_linker_0, # of connection points: 2
#     Edge 50, Type (0, 0), BuildingBlock: ZUJKAS_clean_linker_0, # of connection points: 2
#     Edge 51, Type (0, 0), BuildingBlock: ZUJKAS_clean_linker_0, # of connection points: 2
#     Edge 52, Type (0, 0), BuildingBlock: ZUJKAS_clean_linker_0, # of connection points: 2
#     Edge 53, Type (0, 0), BuildingBlock: ZUJKAS_clean_linker_0, # of connection points: 2
#     Edge 54, Type (0, 0), BuildingBlock: ZUJKAS_clean_linker_0, # of connection points: 2
#     Edge 55, Type (0, 0), BuildingBlock: ZUJKAS_clean_linker_0, # of connection points: 2
#     Edge 56, Type (0, 0), BuildingBlock: ZUJKAS_clean_linker_0, # of connection points: 2
#     Edge 57, Type (0, 0), BuildingBlock: ZUJKAS_clean_linker_0, # of connection points: 2
#     Edge 58, Type (0, 0), BuildingBlock: ZUJKAS_clean_linker_0, # of connection points: 2
#     Edge 59, Type (0, 0), BuildingBlock: ZUJKAS_clean_linker_0, # of connection points: 2
#     Edge 60, Type (0, 0), BuildingBlock: ZUJKAS_clean_linker_0, # of connection points: 2
#     Edge 61, Type (0, 0), BuildingBlock: ZUJKAS_clean_linker_0, # of connection points: 2
#     Edge 62, Type (0, 0), BuildingBlock: ZUJKAS_clean_linker_0, # of connection points: 2
#     Edge 63, Type (0, 0), BuildingBlock: ZUJKAS_clean_linker_0, # of connection points: 2
#     Edge 64, Type (0, 0), BuildingBlock: ZUJKAS_clean_linker_0, # of connection points: 2
#     Edge 65, Type (0, 0), BuildingBlock: ZUJKAS_clean_linker_0, # of connection points: 2
#     Edge 66, Type (0, 0), BuildingBlock: ZUJKAS_clean_linker_0, # of connection points: 2
#     Edge 67, Type (0, 0), BuildingBlock: ZUJKAS_clean_linker_0, # of connection points: 2
#     Edge 68, Type (0, 0), BuildingBlock: ZUJKAS_clean_linker_0, # of connection points: 2
#     Edge 69, Type (0, 0), BuildingBlock: ZUJKAS_clean_linker_0, # of connection points: 2
#     Edge 70, Type (0, 0), BuildingBlock: ZUJKAS_clean_linker_0, # of connection points: 2
#     Edge 71, Type (0, 0), BuildingBlock: ZUJKAS_clean_linker_0, # of connection points: 2
#     Edge 72, Type (0, 0), BuildingBlock: ZUJKAS_clean_linker_0, # of connection points: 2
#     Edge 73, Type (0, 0), BuildingBlock: ZUJKAS_clean_linker_0, # of connection points: 2
#     Edge 74, Type (0, 0), BuildingBlock: ZUJKAS_clean_linker_0, # of connection points: 2
#     Edge 75, Type (0, 0), BuildingBlock: ZUJKAS_clean_linker_0, # of connection points: 2
#     Edge 76, Type (0, 0), BuildingBlock: ZUJKAS_clean_linker_0, # of connection points: 2
#     Edge 77, Type (0, 0), BuildingBlock: ZUJKAS_clean_linker_0, # of connection points: 2
#     Edge 78, Type (0, 0), BuildingBlock: ZUJKAS_clean_linker_0, # of connection points: 2
#     Edge 79, Type (0, 0), BuildingBlock: ZUJKAS_clean_linker_0, # of connection points: 2
#     Edge 80, Type (0, 0), BuildingBlock: ZUJKAS_clean_linker_0, # of connection points: 2
#     Edge 81, Type (0, 0), BuildingBlock: ZUJKAS_clean_linker_0, # of connection points: 2
#     Edge 82, Type (0, 0), BuildingBlock: ZUJKAS_clean_linker_0, # of connection points: 2
#     Edge 83, Type (0, 0), BuildingBlock: ZUJKAS_clean_linker_0, # of connection points: 2
#     Edge 84, Type (0, 0), BuildingBlock: ZUJKAS_clean_linker_0, # of connection points: 2
#     Edge 85, Type (0, 0), BuildingBlock: ZUJKAS_clean_linker_0, # of connection points: 2
#     Edge 86, Type (0, 0), BuildingBlock: ZUJKAS_clean_linker_0, # of connection points: 2
#     Edge 87, Type (0, 0), BuildingBlock: ZUJKAS_clean_linker_0, # of connection points: 2
#     Edge 88, Type (0, 0), BuildingBlock: ZUJKAS_clean_linker_0, # of connection points: 2
#     Edge 89, Type (0, 0), BuildingBlock: ZUJKAS_clean_linker_0, # of connection points: 2
#     Edge 90, Type (0, 0), BuildingBlock: ZUJKAS_clean_linker_0, # of connection points: 2
#     Edge 91, Type (0, 0), BuildingBlock: ZUJKAS_clean_linker_0, # of connection points: 2
#     Edge 92, Type (0, 0), BuildingBlock: ZUJKAS_clean_linker_0, # of connection points: 2
#     Edge 93, Type (0, 0), BuildingBlock: ZUJKAS_clean_linker_0, # of connection points: 2
#     Edge 94, Type (0, 0), BuildingBlock: ZUJKAS_clean_linker_0, # of connection points: 2
#     Edge 95, Type (0, 0), BuildingBlock: ZUJKAS_clean_linker_0, # of connection points: 2
# Relax obj value: 0.329
# Max RMSD: 0.256
# Mean RMSD: 0.256
data_MOF--net-sxg--node1-VOLQOD_clean_sbu_1--edge1-ZUJKAS_clean_linker_0
_symmetry_space_group_name_H-M    P1
_symmetry_Int_Tables_number       1
_symmetry_cell_setting            triclinic
loop_
_symmetry_equiv_pos_as_xyz
'x, y, z'
_cell_length_a     59.690839
_cell_length_b     59.679435
_cell_length_c     59.692172
_cell_angle_alpha  89.96131
_cell_angle_beta   89.99375
_cell_angle_gamma 90.016004
loop_
_atom_site_label
_atom_site_type_symbol
_atom_site_fract_x
_atom_site_fract_y
_atom_site_fract_z
_atom_type_partial_charge
O0 O 0.05968 0.28727 0.24487 0.0
Zn1 Zn 0.04749 0.31833 0.24573 0.0
O2 O 0.0365 0.32665 0.21675 0.0
Zn3 Zn 0.0535 0.35148 0.2043 0.0
Zn4 Zn 0.03752 0.30081 0.1977 0.0
Zn5 Zn 0.00586 0.33523 0.21945 0.0
O6 O 0.03285 0.37822 0.19813 0.0
O7 O 0.00466 0.36839 0.22064 0.0
O8 O 0.07118 0.33941 0.25664 0.0
O9 O 0.07575 0.36204 0.22742 0.0
O10 O 0.07197 0.34083 0.17756 0.0
O11 O 0.06348 0.30448 0.17721 0.0
O12 O 0.01078 0.29979 0.17736 0.0
O13 O 0.02237 0.31641 0.26786 0.0
O14 O 0.98889 0.32617 0.19166 0.0
O15 O 0.99188 0.32255 0.24745 0.0
C16 C 0.05376 0.27029 0.23341 0.0
C17 C 0.01515 0.38302 0.20918 0.0
C18 C 0.07481 0.32103 0.16992 0.0
C19 C 0.08088 0.35593 0.24723 0.0
C20 C 0.99316 0.31178 0.17649 0.0
C21 C 0.00114 0.31691 0.26585 0.0
O22 O 0.04211 0.27232 0.2156 0.0
O23 O 0.43228 0.691 0.74146 0.0
Zn24 Zn 0.44286 0.6609 0.73134 0.0
O25 O 0.44625 0.66057 0.69905 0.0
Zn26 Zn 0.42893 0.63593 0.68623 0.0
Zn27 Zn 0.43635 0.68883 0.68659 0.0
Zn28 Zn 0.47754 0.65704 0.692 0.0
O29 O 0.44937 0.61029 0.6767 0.0
O30 O 0.48282 0.62618 0.68103 0.0
O31 O 0.41993 0.63853 0.74173 0.0
O32 O 0.40838 0.62346 0.70974 0.0
O33 O 0.40889 0.64723 0.66099 0.0
O34 O 0.40883 0.68373 0.66862 0.0
O35 O 0.45816 0.70058 0.66363 0.0
O36 O 0.47237 0.65655 0.74688 0.0
O37 O 0.48719 0.67772 0.66749 0.0
O38 O 0.49682 0.66095 0.71917 0.0
C39 C 0.42845 0.70966 0.73191 0.0
C40 C 0.4707 0.6095 0.67572 0.0
C41 C 0.40123 0.66697 0.65783 0.0
C42 C 0.40698 0.62546 0.73093 0.0
C43 C 0.47757 0.69404 0.65773 0.0
C44 C 0.49242 0.65878 0.73993 0.0
O45 O 0.43 0.7118 0.7107 0.0
O46 O 0.55042 0.20062 0.73681 0.0
Zn47 Zn 0.54348 0.16822 0.74174 0.0
O48 O 0.54155 0.16218 0.77381 0.0
Zn49 Zn 0.56312 0.13881 0.78209 0.0
Zn50 Zn 0.54723 0.18943 0.7909 0.0
Zn51 Zn 0.51145 0.15238 0.78064 0.0
O52 O 0.54752 0.10967 0.79052 0.0
O53 O 0.5118 0.11998 0.78787 0.0
O54 O 0.56798 0.15018 0.72673 0.0
O55 O 0.58203 0.13136 0.75556 0.0
O56 O 0.58467 0.14974 0.80615 0.0
O57 O 0.57551 0.18581 0.80821 0.0
O58 O 0.52382 0.19466 0.81483 0.0
O59 O 0.51388 0.16297 0.72641 0.0
O60 O 0.49935 0.16764 0.80783 0.0
O61 O 0.49048 0.1566 0.7546 0.0
C62 C 0.55228 0.21781 0.74927 0.0
C63 C 0.52667 0.1052 0.79161 0.0
C64 C 0.58796 0.16943 0.81381 0.0
C65 C 0.5822 0.1365 0.73487 0.0
C66 C 0.506 0.18401 0.81973 0.0
C67 C 0.49413 0.15968 0.7338 0.0
O68 O 0.55073 0.21635 0.77054 0.0
O69 O 0.94404 0.78478 0.25232 0.0
Zn70 Zn 0.95634 0.81479 0.26068 0.0
O71 O 0.95703 0.81823 0.29293 0.0
Zn72 Zn 0.93991 0.84488 0.30145 0.0
Zn73 Zn 0.94458 0.79176 0.30703 0.0
Zn74 Zn 0.9879 0.8212 0.30253 0.0
O75 O 0.96081 0.87032 0.31003 0.0
O76 O 0.99375 0.85298 0.31062 0.0
O77 O 0.93678 0.83785 0.24592 0.0
O78 O 0.92284 0.85648 0.27491 0.0
O79 O 0.91715 0.83748 0.32578 0.0
O80 O 0.91691 0.80027 0.32341 0.0
O81 O 0.96439 0.78043 0.33195 0.0
O82 O 0.98725 0.81636 0.2479 0.0
O83 O 0.99422 0.80251 0.32973 0.0
O84 O 0.00958 0.81443 0.2776 0.0
C85 C 0.93745 0.76762 0.26313 0.0
C86 C 0.98199 0.8706 0.31276 0.0
C87 C 0.909 0.81846 0.33124 0.0
C88 C 0.92388 0.85282 0.25392 0.0
C89 C 0.98325 0.787 0.33944 0.0
C90 C 0.00673 0.8148 0.25645 0.0
O91 O 0.9372 0.76742 0.2845 0.0
O92 O 0.25094 0.05291 0.29376 0.0
Zn93 Zn 0.24101 0.04541 0.32494 0.0
O94 O 0.20907 0.04005 0.32558 0.0
Zn95 Zn 0.19478 0.05844 0.34845 0.0
Zn96 Zn 0.19635 0.047 0.29666 0.0
Zn97 Zn 0.2038 0.00881 0.33153 0.0
O98 O 0.18519 0.03965 0.37525 0.0
O99 O 0.19258 0.00537 0.36259 0.0
O100 O 0.24964 0.07109 0.34499 0.0
O101 O 0.217 0.08098 0.35991 0.0
O102 O 0.16894 0.0761 0.33496 0.0
O103 O 0.17885 0.07521 0.299 0.0
O104 O 0.17328 0.02396 0.28777 0.0
O105 O 0.25807 0.01748 0.33263 0.0
O106 O 0.17967 -0.00357 0.31189 0.0
O107 O 0.23215 0.99097 0.32916 0.0
C108 C 0.24131 0.05358 0.27475 0.0
C109 C 0.18568 0.01846 0.37788 0.0
C110 C 0.16692 0.08306 0.31483 0.0
C111 C 0.23801 0.08389 0.35749 0.0
C112 C 0.16862 0.00468 0.29563 0.0
C113 C 0.25251 -0.00311 0.33161 0.0
O114 O 0.22022 0.0507 0.27292 0.0
O115 O 0.25516 0.94283 0.78779 0.0
Zn116 Zn 0.26332 0.954 0.81829 0.0
O117 O 0.29553 0.95288 0.82244 0.0
Zn118 Zn 0.30253 0.93414 0.84839 0.0
Zn119 Zn 0.3098 0.94113 0.79571 0.0
Zn120 Zn 0.30654 0.98296 0.82734 0.0
O121 O 0.31083 0.95334 0.87522 0.0
O122 O 0.3137 0.98706 0.85965 0.0
O123 O 0.24695 0.9343 0.84023 0.0
O124 O 0.27502 0.91761 0.85801 0.0
O125 O 0.32596 0.91058 0.84073 0.0
O126 O 0.32533 0.91276 0.80351 0.0
O127 O 0.33524 0.96079 0.78523 0.0
O128 O 0.25208 0.98552 0.82032 0.0
O129 O 0.33437 0.9888 0.80964 0.0
O130 O 0.28308 0.00611 0.82045 0.0
C131 C 0.26603 0.93608 0.77074 0.0
C132 C 0.3145 0.97433 0.87671 0.0
C133 C 0.33194 0.9034 0.82149 0.0
C134 C 0.25416 0.91996 0.85428 0.0
C135 C 0.34356 0.97871 0.79327 0.0
C136 C 0.26181 0.00451 0.81977 0.0
O137 O 0.28737 0.93496 0.77094 0.0
O138 O 0.74884 0.44222 0.68781 0.0
Zn139 Zn 0.73929 0.44817 0.65625 0.0
O140 O 0.70714 0.45217 0.65542 0.0
Zn141 Zn 0.69402 0.43278 0.63283 0.0
Zn142 Zn 0.69391 0.44577 0.68429 0.0
Zn143 Zn 0.70121 0.48297 0.64832 0.0
O144 O 0.68597 0.45025 0.60473 0.0
O145 O 0.69247 0.4851 0.61633 0.0
O146 O 0.74917 0.42173 0.63762 0.0
O147 O 0.71679 0.41025 0.62336 0.0
O148 O 0.66832 0.41471 0.64586 0.0
O149 O 0.67632 0.4174 0.68218 0.0
O150 O 0.67029 0.46874 0.69213 0.0
O151 O 0.75539 0.47648 0.64736 0.0
O152 O 0.67525 0.49458 0.6659 0.0
O153 O 0.72871 0.502 0.65224 0.0
C154 C 0.73903 0.44105 0.70671 0.0
C155 C 0.68671 0.4713 0.60117 0.0
C156 C 0.66536 0.40855 0.66614 0.0
C157 C 0.73782 0.40791 0.62597 0.0
C158 C 0.6645 0.48697 0.68266 0.0
C159 C 0.74919 0.49685 0.64907 0.0
O160 O 0.71777 0.44278 0.70833 0.0
O161 O 0.73476 0.55272 0.19815 0.0
Zn162 Zn 0.74136 0.54396 0.16643 0.0
O163 O 0.77352 0.54184 0.16176 0.0
Zn164 Zn 0.78296 0.56298 0.13851 0.0
Zn165 Zn 0.78908 0.54798 0.18958 0.0
Zn166 Zn 0.78082 0.51162 0.15275 0.0
O167 O 0.79041 0.54668 0.10949 0.0
O168 O 0.78748 0.51108 0.12018 0.0
O169 O 0.72728 0.56734 0.14656 0.0
O170 O 0.75712 0.58279 0.13056 0.0
O171 O 0.8081 0.58339 0.14959 0.0
O172 O 0.80683 0.57589 0.18605 0.0
O173 O 0.81251 0.5246 0.19644 0.0
O174 O 0.72649 0.51411 0.16212 0.0
O175 O 0.80816 0.50047 0.16854 0.0
O176 O 0.755 0.49058 0.15795 0.0
C177 C 0.74647 0.55486 0.21584 0.0
C178 C 0.79101 0.52577 0.10516 0.0
C179 C 0.81429 0.58735 0.16969 0.0
C180 C 0.73607 0.58219 0.134 0.0
C181 C 0.81872 0.50719 0.18579 0.0
C182 C 0.7341 0.49426 0.16023 0.0
O183 O 0.7677 0.55254 0.21542 0.0
O184 O 0.28542 0.23901 0.06304 0.0
Zn185 Zn 0.31505 0.23356 0.04831 0.0
O186 O 0.31808 0.20209 0.04081 0.0
Zn187 Zn 0.34542 0.18982 0.05389 0.0
Zn188 Zn 0.29233 0.18573 0.05165 0.0
Zn189 Zn 0.31864 0.19905 0.00866 0.0
O190 O 0.36884 0.18355 0.02978 0.0
O191 O 0.34982 0.19274 -0.00094 0.0
O192 O 0.33934 0.244 0.06942 0.0
O193 O 0.35877 0.21266 0.07443 0.0
O194 O 0.33854 0.16293 0.07383 0.0
O195 O 0.30161 0.16675 0.07735 0.0
O196 O 0.28182 0.16308 0.02908 0.0
O197 O 0.31388 0.25251 0.02054 0.0
O198 O 0.30065 0.17249 -0.00151 0.0
O199 O 0.30892 0.22749 0.99342 0.0
C200 C 0.26786 0.22732 0.06617 0.0
C201 C 0.36777 0.18637 0.00861 0.0
C202 C 0.31997 0.15748 0.08298 0.0
C203 C 0.35518 0.23321 0.07882 0.0
C204 C 0.28711 0.15957 0.00874 0.0
C205 C 0.3095 0.24772 0.0002 0.0
O206 O 0.26742 0.20647 0.06148 0.0
O207 O 0.78767 0.26242 0.93303 0.0
Zn208 Zn 0.81612 0.27242 0.94769 0.0
O209 O 0.81766 0.30482 0.94927 0.0
Zn210 Zn 0.84556 0.31545 0.93516 0.0
Zn211 Zn 0.79172 0.31753 0.93438 0.0
Zn212 Zn 0.81641 0.31368 0.98051 0.0
O213 O 0.86724 0.32726 0.95884 0.0
O214 O 0.84598 0.32586 0.98942 0.0
O215 O 0.84169 0.25968 0.93009 0.0
O216 O 0.86136 0.28963 0.92007 0.0
O217 O 0.8388 0.3386 0.91077 0.0
O218 O 0.80188 0.33441 0.90771 0.0
O219 O 0.77692 0.34143 0.9531 0.0
O220 O 0.81628 0.25883 0.97826 0.0
O221 O 0.79426 0.33829 0.98579 0.0
O222 O 0.81096 0.28758 0.0012 0.0
C223 C 0.77069 0.27245 0.92493 0.0
C224 C 0.86446 0.3303 0.97982 0.0
C225 C 0.82023 0.34296 0.90104 0.0
C226 C 0.85819 0.26852 0.91986 0.0
C227 C 0.78004 0.34791 0.97317 0.0
C228 C 0.81301 0.26662 -0.00218 0.0
O229 O 0.76955 0.29378 0.92457 0.0
O230 O 0.70285 0.74943 0.4492 0.0
Zn231 Zn 0.67174 0.74045 0.45771 0.0
O232 O 0.6688 0.70812 0.45729 0.0
Zn233 Zn 0.64396 0.69952 0.43792 0.0
Zn234 Zn 0.69622 0.6947 0.44631 0.0
Zn235 Zn 0.66338 0.69769 0.48753 0.0
O236 O 0.61689 0.69038 0.45622 0.0
O237 O 0.6313 0.68888 0.49053 0.0
O238 O 0.6512 0.75531 0.43551 0.0
O239 O 0.63408 0.7261 0.42013 0.0
O240 O 0.65343 0.6758 0.41542 0.0
O241 O 0.69044 0.67977 0.41701 0.0
O242 O 0.70583 0.66908 0.46601 0.0
O243 O 0.66666 0.75252 0.48858 0.0
O244 O 0.68202 0.67062 0.49455 0.0
O245 O 0.66801 0.72226 0.51024 0.0
C246 C 0.72061 0.73896 0.44384 0.0
C247 C 0.61481 0.68694 0.47718 0.0
C248 C 0.67299 0.67154 0.40789 0.0
C249 C 0.63769 0.74709 0.42121 0.0
C250 C 0.69817 0.66119 0.48428 0.0
C251 C 0.66711 0.74347 0.50791 0.0
O252 O 0.72091 0.71763 0.44246 0.0
O253 O 0.19818 0.74326 0.54405 0.0
Zn254 Zn 0.16583 0.75012 0.53936 0.0
O255 O 0.16142 0.7823 0.53885 0.0
Zn256 Zn 0.13891 0.79088 0.56103 0.0
Zn257 Zn 0.18947 0.7976 0.54476 0.0
Zn258 Zn 0.15159 0.79066 0.50925 0.0
O259 O 0.10919 0.79851 0.54601 0.0
O260 O 0.11904 0.7972 0.51008 0.0
O261 O 0.14891 0.73534 0.5646 0.0
O262 O 0.13233 0.7645 0.58067 0.0
O263 O 0.1508 0.81545 0.58166 0.0
O264 O 0.18723 0.81328 0.57405 0.0
O265 O 0.19469 0.82294 0.52293 0.0
O266 O 0.15831 0.73617 0.50971 0.0
O267 O 0.16674 0.81861 0.49886 0.0
O268 O 0.15589 0.76562 0.48709 0.0
C269 C 0.21608 0.75467 0.54586 0.0
C270 C 0.10438 0.80001 0.52525 0.0
C271 C 0.17111 0.82081 0.58581 0.0
C272 C 0.13679 0.74365 0.58005 0.0
C273 C 0.1836 0.82955 0.50595 0.0
C274 C 0.15669 0.7445 0.49013 0.0
O275 O 0.21569 0.77604 0.54586 0.0
O276 O 0.94287 0.69954 0.74471 0.0
Zn277 Zn 0.94989 0.66761 0.75177 0.0
O278 O 0.9512 0.66333 0.78389 0.0
Zn279 Zn 0.92897 0.64089 0.79279 0.0
Zn280 Zn 0.94584 0.69159 0.79916 0.0
Zn281 Zn 0.98095 0.65324 0.79173 0.0
O282 O 0.944 0.61115 0.80024 0.0
O283 O 0.97996 0.62072 0.79836 0.0
O284 O 0.9261 0.64863 0.73732 0.0
O285 O 0.90897 0.63368 0.76676 0.0
O286 O 0.90909 0.65275 0.81786 0.0
O287 O 0.9176 0.68904 0.81672 0.0
O288 O 0.96903 0.69753 0.82317 0.0
O289 O 0.9796 0.6615 0.73756 0.0
O290 O 0.99195 0.66854 0.81938 0.0
O291 O 0.00284 0.65701 0.76624 0.0
C292 C 0.9411 0.71755 0.75597 0.0
C293 C 0.96474 0.60614 0.80136 0.0
C294 C 0.90575 0.67293 0.82416 0.0
C295 C 0.91041 0.63686 0.74571 0.0
C296 C 0.98572 0.68602 0.82986 0.0
C297 C -0.0007 0.6588 0.74527 0.0
O298 O 0.94271 0.7175 0.77729 0.0
O299 O 0.56034 0.27408 0.26098 0.0
Zn300 Zn 0.54933 0.30556 0.26485 0.0
O301 O 0.54436 0.31203 0.29632 0.0
Zn302 Zn 0.56031 0.33962 0.3044 0.0
Zn303 Zn 0.55487 0.2872 0.3144 0.0
Zn304 Zn 0.51237 0.31496 0.30143 0.0
O305 O 0.53843 0.36454 0.31193 0.0
O306 O 0.50576 0.34685 0.30857 0.0
O307 O 0.57188 0.32633 0.25089 0.0
O308 O 0.57842 0.35054 0.27829 0.0
O309 O 0.58299 0.33396 0.32921 0.0
O310 O 0.58164 0.29677 0.33162 0.0
O311 O 0.53261 0.27867 0.33809 0.0
O312 O 0.5207 0.30799 0.24761 0.0
O313 O 0.50206 0.29733 0.32826 0.0
O314 O 0.49428 0.30733 0.27385 0.0
C315 C 0.56467 0.25801 0.27433 0.0
C316 C 0.51707 0.3645 0.31246 0.0
C317 C 0.59021 0.31548 0.33716 0.0
C318 C 0.58173 0.34369 0.25838 0.0
C319 C 0.51231 0.28411 0.3415 0.0
C320 C 0.50018 0.30709 0.25333 0.0
O321 O 0.56292 0.26039 0.29548 0.0
O322 O 0.45023 0.79595 0.23931 0.0
Zn323 Zn 0.45815 0.82805 0.23477 0.0
O324 O 0.46404 0.83364 0.20371 0.0
Zn325 Zn 0.44448 0.85665 0.19122 0.0
Zn326 Zn 0.46168 0.80605 0.18681 0.0
Zn327 Zn 0.49401 0.84471 0.2018 0.0
O328 O 0.46268 0.88257 0.17804 0.0
O329 O 0.49356 0.87766 0.19821 0.0
O330 O 0.43324 0.84749 0.24562 0.0
O331 O 0.42488 0.86867 0.21607 0.0
O332 O 0.42376 0.84316 0.16791 0.0
O333 O 0.43395 0.80734 0.1681 0.0
O334 O 0.48681 0.80421 0.16415 0.0
O335 O 0.48537 0.83308 0.25379 0.0
O336 O 0.50811 0.83318 0.17376 0.0
O337 O 0.51255 0.83823 0.229 0.0
C338 C 0.45231 0.77817 0.22774 0.0
C339 C 0.4814 0.88965 0.18551 0.0
C340 C 0.42117 0.823 0.16129 0.0
C341 C 0.42191 0.86309 0.2365 0.0
C342 C 0.50339 0.8172 0.16045 0.0
C343 C 0.50603 0.83554 0.24912 0.0
O344 O 0.45843 0.77887 0.20724 0.0
O345 O 0.05363 0.20817 0.75398 0.0
Zn346 Zn 0.05269 0.17485 0.75262 0.0
O347 O 0.04312 0.16616 0.72352 0.0
Zn348 Zn 0.06483 0.14848 0.70757 0.0
Zn349 Zn 0.03414 0.1918 0.70624 0.0
Zn350 Zn 0.01865 0.1464 0.72731 0.0
O351 O 0.04992 0.11974 0.69627 0.0
O352 O 0.02972 0.11496 0.72688 0.0
O353 O 0.08268 0.16122 0.75956 0.0
O354 O 0.08986 0.1411 0.72894 0.0
O355 O 0.07825 0.16696 0.68252 0.0
O356 O 0.05886 0.19874 0.68439 0.0
O357 O 0.00685 0.18385 0.68757 0.0
O358 O 0.02968 0.16682 0.77606 0.0
O359 O -0.00114 0.14978 0.70058 0.0
O360 O 0.0021 0.15232 0.75583 0.0
C361 C 0.04197 0.22321 0.74428 0.0
C362 C 0.03774 0.1073 0.70871 0.0
C363 C 0.0747 0.18705 0.67609 0.0
C364 C 0.09514 0.1478 0.74855 0.0
C365 C -0.00422 0.16557 0.68655 0.0
C366 C 0.00965 0.15961 0.7744 0.0
O367 O 0.03071 0.21895 0.72656 0.0
O368 O 0.75769 0.94562 0.6989 0.0
Zn369 Zn 0.7609 0.95002 0.66593 0.0
O370 O 0.79231 0.95254 0.65805 0.0
Zn371 Zn 0.80001 0.92981 0.63569 0.0
Zn372 Zn 0.81071 0.94905 0.6847 0.0
Zn373 Zn 0.79758 0.98208 0.64586 0.0
O374 O 0.80352 0.94355 0.60461 0.0
O375 O 0.80121 0.97978 0.61293 0.0
O376 O 0.74625 0.92325 0.65149 0.0
O377 O 0.77464 0.90812 0.63286 0.0
O378 O 0.82689 0.91132 0.64569 0.0
O379 O 0.82885 0.92123 0.68154 0.0
O380 O 0.83391 0.97358 0.687 0.0
O381 O 0.74425 0.97824 0.6586 0.0
O382 O 0.82603 0.99523 0.65781 0.0
O383 O 0.77122 0.00269 0.65081 0.0
C384 C 0.77092 0.94458 0.71557 0.0
C385 C 0.80333 0.96409 0.59871 0.0
C386 C 0.83504 0.90886 0.66532 0.0
C387 C 0.75434 0.90769 0.63936 0.0
C388 C 0.83852 0.99015 0.67433 0.0
C389 C 0.75064 -0.00185 0.65427 0.0
O390 O 0.79208 0.94613 0.71303 0.0
O391 O 0.75944 0.04932 0.19573 0.0
Zn392 Zn 0.75545 0.04574 0.16263 0.0
O393 O 0.72511 0.03747 0.15659 0.0
Zn394 Zn 0.70926 0.05887 0.13823 0.0
Zn395 Zn 0.70932 0.03213 0.18409 0.0
Zn396 Zn 0.7255 0.01082 0.13932 0.0
O397 O 0.69627 0.04363 0.11047 0.0
O398 O 0.7234 0.01859 0.10703 0.0
O399 O 0.76306 0.07448 0.14663 0.0
O400 O 0.73125 0.08252 0.1288 0.0
O401 O 0.68536 0.07447 0.15645 0.0
O402 O 0.68886 0.0581 0.18973 0.0
O403 O 0.68873 0.00561 0.18043 0.0
O404 O 0.77663 0.02067 0.15445 0.0
O405 O 0.69791 0.99298 0.14663 0.0
O406 O 0.75358 0.99331 0.14426 0.0
C407 C 0.74955 0.04058 0.21254 0.0
C408 C 0.70688 0.02921 0.09881 0.0
C409 C 0.68008 0.0729 0.1771 0.0
C410 C 0.75159 0.08699 0.13363 0.0
C411 C 0.68516 0.99272 0.16376 0.0
C412 C 0.77315 0.0003 0.14903 0.0
O413 O 0.73075 0.03054 0.21046 0.0
O414 O 0.25387 0.55676 0.28314 0.0
Zn415 Zn 0.25873 0.55051 0.31564 0.0
O416 O 0.29048 0.54689 0.32178 0.0
Zn417 Zn 0.30012 0.56861 0.34456 0.0
Zn418 Zn 0.30752 0.55073 0.29427 0.0
Zn419 Zn 0.29539 0.51663 0.33215 0.0
O420 O 0.30785 0.55294 0.37402 0.0
O421 O 0.3028 0.51725 0.36443 0.0
O422 O 0.24548 0.57615 0.33287 0.0
O423 O 0.27462 0.58949 0.35175 0.0
O424 O 0.32564 0.5881 0.33265 0.0
O425 O 0.32572 0.57852 0.29665 0.0
O426 O 0.33052 0.52628 0.29005 0.0
O427 O 0.24154 0.52236 0.32214 0.0
O428 O 0.32167 0.50249 0.31716 0.0
O429 O 0.26813 0.49723 0.32866 0.0
C430 C 0.26625 0.55681 0.2658 0.0
C431 C 0.30763 0.53212 0.37885 0.0
C432 C 0.33267 0.59082 0.31261 0.0
C433 C 0.25401 0.59037 0.34627 0.0
C434 C 0.33418 0.50829 0.30092 0.0
C435 C 0.2476 0.50225 0.32587 0.0
O436 O 0.28734 0.55373 0.26721 0.0
O437 O 0.22834 0.43984 0.79478 0.0
Zn438 Zn 0.2159 0.45127 0.82356 0.0
O439 O 0.18411 0.45402 0.82106 0.0
Zn440 Zn 0.16967 0.44075 0.8469 0.0
Zn441 Zn 0.17344 0.43924 0.7946 0.0
Zn442 Zn 0.17757 0.48532 0.81872 0.0
O443 O 0.16118 0.46508 0.869 0.0
O444 O 0.16712 0.49573 0.84854 0.0
O445 O 0.22433 0.4295 0.8476 0.0
O446 O 0.19155 0.42035 0.86271 0.0
O447 O 0.14324 0.4218 0.83657 0.0
O448 O 0.15717 0.41149 0.80353 0.0
O449 O 0.14934 0.45785 0.77985 0.0
O450 O 0.23046 0.48112 0.82815 0.0
O451 O 0.15259 0.49068 0.797 0.0
O452 O 0.20543 0.50315 0.81159 0.0
C453 C 0.22006 0.4331 0.77635 0.0
C454 C 0.16134 0.48634 0.86679 0.0
C455 C 0.14294 0.40918 0.81929 0.0
C456 C 0.21275 0.41812 0.86144 0.0
C457 C 0.14279 0.47791 0.783 0.0
C458 C 0.22506 0.49982 0.81938 0.0
O459 O 0.19891 0.43199 0.77338 0.0
O460 O 0.6994 0.75025 0.93456 0.0
Zn461 Zn 0.66709 0.7563 0.94021 0.0
O462 O 0.66259 0.78791 0.94505 0.0
Zn463 Zn 0.64202 0.80114 0.92319 0.0
Zn464 Zn 0.69113 0.80351 0.94487 0.0
Zn465 Zn 0.64926 0.7909 0.97397 0.0
O466 O 0.61418 0.8144 0.93822 0.0
O467 O 0.61689 0.7965 0.97078 0.0
O468 O 0.64907 0.7458 0.91398 0.0
O469 O 0.6314 0.77661 0.90257 0.0
O470 O 0.6581 0.82433 0.90411 0.0
O471 O 0.69284 0.82256 0.91738 0.0
O472 O 0.69274 0.82566 0.97057 0.0
O473 O 0.65939 0.7379 0.96746 0.0
O474 O 0.66147 0.81793 0.98918 0.0
O475 O 0.65246 0.76371 0.99321 0.0
C476 C 0.7175 0.76115 0.93747 0.0
C477 C 0.60574 0.80796 0.95676 0.0
C478 C 0.67866 0.83016 0.90338 0.0
C479 C 0.6356 0.75573 0.90074 0.0
C480 C 0.67876 0.83002 0.98614 0.0
C481 C 0.65514 0.74333 0.98764 0.0
O482 O 0.71733 0.78178 0.94316 0.0
O483 O 0.2093 0.75246 0.05011 0.0
Zn484 Zn 0.17686 0.74701 0.04354 0.0
O485 O 0.17182 0.71555 0.0366 0.0
Zn486 Zn 0.14858 0.7029 0.05625 0.0
Zn487 Zn 0.19974 0.69907 0.03992 0.0
Zn488 Zn 0.16253 0.7132 0.00572 0.0
O489 O 0.12003 0.6951 0.03906 0.0
O490 O 0.13116 0.70278 0.00434 0.0
O491 O 0.15955 0.75633 0.0709 0.0
O492 O 0.14034 0.72562 0.07951 0.0
O493 O 0.16053 0.67598 0.07344 0.0
O494 O 0.19682 0.67756 0.06512 0.0
O495 O 0.20567 0.67912 0.01348 0.0
O496 O 0.169 0.76692 0.01746 0.0
O497 O 0.17983 0.68991 0.98915 0.0
O498 O 0.16333 0.74267 0.98983 0.0
C499 C 0.22689 0.74041 0.05036 0.0
C500 C 0.11633 0.69614 0.01806 0.0
C501 C 0.18058 0.66897 0.07593 0.0
C502 C 0.14585 0.74584 0.08347 0.0
C503 C 0.19604 0.6772 0.99457 0.0
C504 C 0.16491 0.76271 -0.00306 0.0
O505 O 0.22603 0.71947 0.04626 0.0
O506 O 0.27777 0.26691 0.56055 0.0
Zn507 Zn 0.30961 0.26816 0.54996 0.0
O508 O 0.31898 0.29914 0.54583 0.0
Zn509 Zn 0.34591 0.30474 0.56378 0.0
Zn510 Zn 0.29493 0.31909 0.55483 0.0
Zn511 Zn 0.3251 0.30466 0.51432 0.0
O512 O 0.37327 0.30874 0.544 0.0
O513 O 0.358 0.30814 0.51002 0.0
O514 O 0.32869 0.25165 0.57263 0.0
O515 O 0.35263 0.27812 0.58295 0.0
O516 O 0.34128 0.3306 0.58533 0.0
O517 O 0.30461 0.33628 0.58159 0.0
O518 O 0.28918 0.34303 0.5319 0.0
O519 O 0.31034 0.25181 0.5207 0.0
O520 O 0.31102 0.33337 0.50347 0.0
O521 O 0.31594 0.27835 0.49517 0.0
C522 C 0.26254 0.28136 0.56428 0.0
C523 C 0.37502 0.3095 0.52274 0.0
C524 C 0.32322 0.34044 0.59111 0.0
C525 C 0.34502 0.25828 0.58465 0.0
C526 C 0.29723 0.34688 0.51254 0.0
C527 C 0.31187 0.25802 0.50034 0.0
O528 O 0.2664 0.30228 0.56226 0.0
O529 O 0.79464 0.22447 0.44203 0.0
Zn530 Zn 0.82165 0.21057 0.45626 0.0
O531 O 0.81831 0.1788 0.45786 0.0
Zn532 Zn 0.84545 0.16368 0.44785 0.0
Zn533 Zn 0.79384 0.16951 0.43933 0.0
Zn534 Zn 0.81108 0.17189 0.48837 0.0
O535 O 0.86249 0.15132 0.47486 0.0
O536 O 0.83833 0.15889 0.50219 0.0
O537 O 0.84839 0.21868 0.43817 0.0
O538 O 0.86543 0.18618 0.43188 0.0
O539 O 0.83743 0.1398 0.42462 0.0
O540 O 0.80608 0.15543 0.41171 0.0
O541 O 0.77672 0.14467 0.45458 0.0
O542 O 0.8239 0.22397 0.48677 0.0
O543 O 0.78751 0.14798 0.49 0.0
O544 O 0.80388 0.19961 0.50654 0.0
C545 C 0.7769 0.21664 0.43319 0.0
C546 C 0.85712 0.15132 0.49558 0.0
C547 C 0.82214 0.14152 0.40973 0.0
C548 C 0.86426 0.20741 0.42951 0.0
C549 C 0.77606 0.13815 0.47489 0.0
C550 C 0.81339 0.21865 0.50455 0.0
O551 O 0.77382 0.19558 0.43125 0.0
H552 H 0.10615 0.39098 0.23212 0.0
H553 H 0.13584 0.41075 0.25202 0.0
H554 H 0.12589 0.36837 0.30971 0.0
H555 H 0.09591 0.34848 0.29001 0.0
H556 H 0.12897 0.4145 0.31981 0.0
H557 H 0.19892 0.38658 0.26574 0.0
H558 H 0.17603 0.39804 0.24995 0.0
H559 H 0.17197 0.3728 0.26597 0.0
C560 C 0.11025 0.38578 0.24902 0.0
C561 C 0.09871 0.36807 0.25942 0.0
C562 C 0.12732 0.39702 0.26031 0.0
C563 C 0.13327 0.39071 0.28215 0.0
C564 C 0.12162 0.37331 0.29277 0.0
H565 H 0.25398 0.45716 0.33197 0.0
H566 H 0.22637 0.4273 0.32686 0.0
C567 C 0.10452 0.36199 0.28147 0.0
C568 C 0.15128 0.4029 0.29392 0.0
H569 H 0.20545 0.41972 0.28768 0.0
C570 C 0.14583 0.41537 0.31308 0.0
C571 C 0.17335 0.40357 0.28538 0.0
C572 C 0.18051 0.38934 0.26577 0.0
C573 C 0.16153 0.42976 0.32299 0.0
C574 C 0.18301 0.43192 0.31321 0.0
C575 C 0.1889 0.41824 0.29503 0.0
C576 C 0.19881 0.44979 0.31988 0.0
C577 C 0.15482 0.44287 0.34351 0.0
C578 C 0.19237 0.47231 0.31791 0.0
C579 C 0.20805 0.48938 0.32081 0.0
C580 C 0.23056 0.48426 0.32549 0.0
C581 C 0.23679 0.46169 0.3283 0.0
C582 C 0.22105 0.4446 0.32543 0.0
H583 H 0.14181 0.43382 0.3533 0.0
H584 H 0.16942 0.44617 0.35456 0.0
H585 H 0.14761 0.45918 0.33825 0.0
H586 H 0.17544 0.47669 0.31308 0.0
H587 H 0.20265 0.50656 0.31852 0.0
H588 H 0.22408 0.5366 0.79196 0.0
H589 H 0.25581 0.56051 0.78181 0.0
H590 H 0.29753 0.52564 0.82938 0.0
H591 H 0.26611 0.50143 0.83939 0.0
H592 H 0.28654 0.58861 0.80563 0.0
H593 H 0.32715 0.51361 0.76811 0.0
H594 H 0.29814 0.51384 0.77656 0.0
H595 H 0.31987 0.51096 0.79719 0.0
C596 C 0.23989 0.53429 0.80057 0.0
C597 C 0.24272 0.51685 0.81616 0.0
C598 C 0.25797 0.54797 0.79476 0.0
C599 C 0.27905 0.54446 0.80453 0.0
C600 C 0.28147 0.52827 0.82136 0.0
H601 H 0.39829 0.62539 0.77607 0.0
H602 H 0.36776 0.60609 0.79553 0.0
C603 C 0.26348 0.51448 0.82706 0.0
C604 C 0.29889 0.55625 0.79563 0.0
H605 H 0.34745 0.54742 0.76685 0.0
C606 C 0.29996 0.57967 0.79726 0.0
C607 C 0.31613 0.54444 0.78446 0.0
C608 C 0.31528 0.51935 0.78125 0.0
C609 C 0.31789 0.59166 0.78787 0.0
C610 C 0.33522 0.5798 0.77689 0.0
C611 C 0.3342 0.55638 0.77545 0.0
C612 C 0.35388 0.59136 0.76547 0.0
C613 C 0.31779 0.61691 0.7891 0.0
C614 C 0.35649 0.5889 0.74226 0.0
C615 C 0.37397 0.59967 0.73114 0.0
C616 C 0.38922 0.61312 0.74303 0.0
C617 C 0.38678 0.61524 0.76639 0.0
C618 C 0.36927 0.60438 0.77752 0.0
H619 H 0.30107 0.62357 0.79387 0.0
H620 H 0.33008 0.62246 0.8019 0.0
H621 H 0.32275 0.62435 0.77278 0.0
H622 H 0.34482 0.5788 0.7327 0.0
H623 H 0.37533 0.59765 0.71315 0.0
H624 H 0.59221 0.14638 0.69087 0.0
H625 H 0.62219 0.12993 0.66793 0.0
H626 H 0.6411 0.08743 0.72325 0.0
H627 H 0.61175 0.10374 0.74617 0.0
H628 H 0.6772 0.11051 0.70276 0.0
H629 H 0.62325 0.06569 0.64109 0.0
H630 H 0.61886 0.09523 0.64533 0.0
H631 H 0.61226 0.07587 0.66735 0.0
C632 C 0.60272 0.13346 0.69807 0.0
C633 C 0.59958 0.1264 0.72037 0.0
C634 C 0.61979 0.12408 0.68494 0.0
C635 C 0.63378 0.10745 0.69392 0.0
C636 C 0.63054 0.10034 0.71606 0.0
H637 H 0.70665 0.99516 0.66613 0.0
H638 H 0.67976 0.02549 0.66999 0.0
C639 C 0.61368 0.10968 0.72913 0.0
C640 C 0.65203 0.09709 0.68077 0.0
H641 H 0.66147 0.05678 0.64143 0.0
C642 C 0.67396 0.09913 0.68897 0.0
C643 C 0.64758 0.08235 0.66281 0.0
C644 C 0.62424 0.07945 0.65357 0.0
C645 C 0.69126 0.08543 0.68098 0.0
C646 C 0.68654 0.06965 0.66393 0.0
C647 C 0.66499 0.06891 0.65449 0.0
C648 C 0.70243 0.05139 0.65856 0.0
C649 C 0.71392 0.08669 0.69217 0.0
C650 C 0.72401 0.05579 0.6503 0.0
C651 C 0.73966 0.03842 0.64835 0.0
C652 C 0.73382 0.01637 0.65438 0.0
C653 C 0.7118 0.01193 0.66147 0.0
C654 C 0.69632 0.02926 0.66358 0.0
H655 H 0.71367 0.09737 0.70741 0.0
H656 H 0.71979 0.0697 0.69699 0.0
H657 H 0.72627 0.09392 0.68031 0.0
H658 H 0.72893 0.0727 0.64592 0.0
H659 H 0.7564 0.04235 0.64255 0.0
H660 H 0.91939 0.84848 0.20837 0.0
H661 H 0.89545 0.87063 0.18345 0.0
H662 H 0.87293 0.90978 0.23981 0.0
H663 H 0.89643 0.88769 0.26483 0.0
H664 H 0.83839 0.89336 0.21256 0.0
H665 H 0.90479 0.93619 0.16292 0.0
H666 H 0.9062 0.90612 0.16447 0.0
H667 H 0.91055 0.92251 0.18929 0.0
C668 C 0.90941 0.86187 0.21545 0.0
C669 C 0.90982 0.86631 0.23861 0.0
C670 C 0.89585 0.87456 0.20116 0.0
C671 C 0.88264 0.89194 0.2098 0.0
C672 C 0.88306 0.89643 0.23285 0.0
H673 H 0.81481 0.00717 0.16671 0.0
H674 H 0.84229 0.97861 0.17658 0.0
C675 C 0.89652 0.88377 0.24712 0.0
C676 C 0.86768 0.90518 0.19521 0.0
H677 H 0.86735 0.94547 0.1546 0.0
C678 C 0.84464 0.90456 0.19967 0.0
C679 C 0.87603 0.91978 0.17852 0.0
C680 C 0.90075 0.92142 0.17351 0.0
C681 C 0.82972 0.91883 0.18855 0.0
C682 C 0.83808 0.93376 0.17211 0.0
C683 C 0.86104 0.93383 0.16705 0.0
C684 C 0.82356 0.95115 0.16211 0.0
C685 C 0.80536 0.91868 0.19543 0.0
C686 C 0.80446 0.94528 0.14976 0.0
C687 C 0.78855 0.96154 0.1443 0.0
C688 C 0.79167 0.98396 0.1509 0.0
C689 C 0.81179 0.99004 0.16152 0.0
C690 C 0.82757 0.97375 0.16713 0.0
H691 H 0.80261 0.90931 0.21128 0.0
H692 H 0.79904 0.93603 0.19767 0.0
H693 H 0.79527 0.91053 0.18213 0.0
H694 H 0.80133 0.92796 0.14533 0.0
H695 H 0.77338 0.95637 0.1358 0.0
H696 H 0.30015 0.21414 0.50536 0.0
H697 H 0.29363 0.1865 0.47618 0.0
H698 H 0.30991 0.23554 0.42562 0.0
H699 H 0.31613 0.26367 0.45486 0.0
H700 H 0.27146 0.2135 0.41627 0.0
H701 H 0.33711 0.15195 0.43755 0.0
H702 H 0.32046 0.15858 0.46164 0.0
H703 H 0.33712 0.18012 0.44858 0.0
C704 C 0.30256 0.21909 0.48807 0.0
C705 C 0.30867 0.24115 0.48247 0.0
C706 C 0.29902 0.20316 0.47139 0.0
C707 C 0.30178 0.20883 0.44876 0.0
C708 C 0.30794 0.23079 0.44302 0.0
H709 H 0.28153 0.09821 0.35359 0.0
H710 H 0.29903 0.13018 0.37242 0.0
C711 C 0.31143 0.24683 0.45975 0.0
C712 C 0.29641 0.19214 0.43126 0.0
H713 H 0.30517 0.13752 0.41695 0.0
C714 C 0.27913 0.19703 0.4161 0.0
C715 C 0.30674 0.17081 0.43072 0.0
C716 C 0.32656 0.16515 0.44535 0.0
C717 C 0.27083 0.18062 0.4015 0.0
C718 C 0.27973 0.15868 0.40251 0.0
C719 C 0.29808 0.15425 0.4165 0.0
C720 C 0.26914 0.13975 0.39054 0.0
C721 C 0.25231 0.18685 0.38547 0.0
C722 C 0.24668 0.13433 0.39484 0.0
C723 C 0.23663 0.11617 0.38414 0.0
C724 C 0.24893 0.10287 0.3691 0.0
C725 C 0.27157 0.10812 0.36507 0.0
C726 C 0.2816 0.1264 0.37576 0.0
H727 H 0.25281 0.20499 0.38131 0.0
H728 H 0.25341 0.17707 0.36969 0.0
H729 H 0.23588 0.18333 0.39344 0.0
H730 H 0.23695 0.14403 0.40669 0.0
H731 H 0.21924 0.11252 0.38778 0.0
H732 H 0.26393 0.88742 0.88474 0.0
H733 H 0.23803 0.86249 0.9039 0.0
H734 H 0.18224 0.89405 0.87058 0.0
H735 H 0.20818 0.91943 0.85117 0.0
H736 H 0.17667 0.88675 0.9183 0.0
H737 H 0.20369 0.81027 0.87367 0.0
H738 H 0.22707 0.82599 0.88417 0.0
H739 H 0.20919 0.83814 0.86313 0.0
C740 C 0.24618 0.88915 0.88139 0.0
C741 C 0.23815 0.90534 0.86628 0.0
C742 C 0.23141 0.8748 0.8923 0.0
C743 C 0.20833 0.87621 0.88829 0.0
C744 C 0.20007 0.89263 0.87367 0.0
H745 H 0.14766 0.76157 0.95456 0.0
H746 H 0.14997 0.79094 0.92611 0.0
C747 C 0.2149 0.90707 0.86264 0.0
C748 C 0.19319 0.86049 0.89988 0.0
H749 H 0.18784 0.80476 0.91053 0.0
C750 C 0.17859 0.86879 0.9163 0.0
C751 C 0.19529 0.83713 0.89678 0.0
C752 C 0.20948 0.82735 0.8783 0.0
C753 C 0.16763 0.85421 0.93116 0.0
C754 C 0.17187 0.83092 0.92972 0.0
C755 C 0.18478 0.82263 0.9119 0.0
C756 C 0.16588 0.81515 0.94792 0.0
C757 C 0.15224 0.86397 0.94864 0.0
C758 C 0.17355 0.81918 0.96979 0.0
C759 C 0.17209 0.80252 0.98612 0.0
C760 C 0.16336 0.78133 0.98074 0.0
C761 C 0.1547 0.77766 0.95915 0.0
C762 C 0.15589 0.79445 0.9429 0.0
H763 H 0.14371 0.8792 0.94216 0.0
H764 H 0.13935 0.85171 0.95408 0.0
H765 H 0.16226 0.86907 0.96345 0.0
H766 H 0.18194 0.83472 0.97394 0.0
H767 H 0.17897 0.80583 0.00257 0.0
H768 H 0.78242 0.22011 0.53843 0.0
H769 H 0.77468 0.25196 0.56317 0.0
H770 H 0.83104 0.28756 0.53528 0.0
H771 H 0.83872 0.2561 0.51036 0.0
H772 H 0.80114 0.27878 0.59505 0.0
H773 H 0.77468 0.32506 0.5185 0.0
H774 H 0.7788 0.29511 0.51876 0.0
H775 H 0.80251 0.31362 0.51779 0.0
C776 C 0.79342 0.23454 0.5379 0.0
C777 C 0.81089 0.23581 0.52216 0.0
C778 C 0.78901 0.25267 0.55205 0.0
C779 C 0.80209 0.27216 0.55069 0.0
C780 C 0.82058 0.27275 0.53628 0.0
H781 H 0.78199 0.39519 0.62911 0.0
H782 H 0.79962 0.36223 0.61199 0.0
C783 C 0.8249 0.25477 0.52204 0.0
C784 C 0.79493 0.29271 0.56237 0.0
H785 H 0.77319 0.34465 0.55262 0.0
C786 C 0.79515 0.29328 0.58586 0.0
C787 C 0.78695 0.31142 0.55019 0.0
C788 C 0.7855 0.31134 0.52493 0.0
C789 C 0.78741 0.31217 0.59755 0.0
C790 C 0.77945 0.33083 0.58533 0.0
C791 C 0.77951 0.33032 0.56186 0.0
C792 C 0.76914 0.35037 0.59638 0.0
C793 C 0.78705 0.3118 0.62281 0.0
C794 C 0.74634 0.35467 0.5929 0.0
C795 C 0.7363 0.37341 0.60244 0.0
C796 C 0.7489 0.38833 0.61563 0.0
C797 C 0.77183 0.38402 0.61904 0.0
C798 C 0.78189 0.36515 0.60944 0.0
H799 H 0.79057 0.29484 0.62963 0.0
H800 H 0.79995 0.32352 0.6293 0.0
H801 H 0.77051 0.3175 0.62914 0.0
H802 H 0.73628 0.34346 0.58276 0.0
H803 H 0.71862 0.37616 0.59945 0.0
H804 H 0.74943 0.61605 0.10646 0.0
H805 H 0.72616 0.64357 0.08753 0.0
H806 H 0.66699 0.61461 0.11724 0.0
H807 H 0.69026 0.58654 0.13625 0.0
H808 H 0.66282 0.62239 0.07145 0.0
H809 H 0.69466 0.69799 0.11403 0.0
H810 H 0.71733 0.68119 0.10376 0.0
H811 H 0.69899 0.67011 0.12504 0.0
C812 C 0.7315 0.61552 0.10916 0.0
C813 C 0.72173 0.59911 0.12295 0.0
C814 C 0.71823 0.63141 0.09844 0.0
C815 C 0.69493 0.6314 0.10139 0.0
C816 C 0.68499 0.61501 0.11499 0.0
H817 H 0.6401 0.74721 0.03077 0.0
H818 H 0.64259 0.71919 0.06056 0.0
C819 C 0.69831 0.59901 0.1258 0.0
C820 C 0.68124 0.64794 0.08909 0.0
H821 H 0.68005 0.70355 0.07644 0.0
C822 C 0.66611 0.64021 0.07286 0.0
C823 C 0.68508 0.67119 0.09136 0.0
C824 C 0.69972 0.68061 0.10968 0.0
C825 C 0.65631 0.65503 0.05746 0.0
C826 C 0.66227 0.67797 0.0581 0.0
C827 C 0.67575 0.6859 0.07566 0.0
C828 C 0.65711 0.69353 0.03947 0.0
C829 C 0.64023 0.64582 0.04029 0.0
C830 C 0.66419 0.68833 0.01766 0.0
C831 C 0.66266 0.70421 0.00058 0.0
C832 C 0.65442 0.72579 0.0051 0.0
C833 C 0.64668 0.73077 0.02679 0.0
C834 C 0.648 0.71477 0.04382 0.0
H835 H 0.6308 0.63131 0.04715 0.0
H836 H 0.62809 0.65874 0.03464 0.0
H837 H 0.64981 0.6398 0.02555 0.0
H838 H 0.67193 0.67233 0.01402 0.0
H839 H 0.66887 0.69987 0.9841 0.0
H840 H 0.38299 0.21307 0.10874 0.0
H841 H 0.4056 0.23063 0.13769 0.0
H842 H 0.38251 0.29583 0.11663 0.0
H843 H 0.35907 0.27822 0.08784 0.0
H844 H 0.43949 0.25917 0.13301 0.0
H845 H 0.37206 0.29865 0.18359 0.0
H846 H 0.36633 0.2783 0.16199 0.0
H847 H 0.37256 0.30685 0.15464 0.0
C848 C 0.38263 0.23116 0.11021 0.0
C849 C 0.36922 0.24426 0.09597 0.0
C850 C 0.39557 0.24117 0.12683 0.0
C851 C 0.39554 0.26451 0.1295 0.0
C852 C 0.38238 0.27775 0.11518 0.0
H853 H 0.50325 0.32155 0.21026 0.0
H854 H 0.47677 0.31486 0.17979 0.0
C855 C 0.36915 0.26768 0.09864 0.0
C856 C 0.41003 0.27464 0.1469 0.0
H857 H 0.40936 0.30534 0.19516 0.0
C858 C 0.43292 0.26936 0.14655 0.0
C859 C 0.40134 0.28773 0.16464 0.0
C860 C 0.3767 0.2931 0.16645 0.0
C861 C 0.44731 0.27626 0.16372 0.0
C862 C 0.43872 0.2896 0.18134 0.0
C863 C 0.4159 0.29529 0.18151 0.0
C864 C 0.45304 0.29666 0.20032 0.0
C865 C 0.47133 0.2683 0.16326 0.0
C866 C 0.44776 0.2899 0.22223 0.0
C867 C 0.46265 0.29415 0.2398 0.0
C868 C 0.48312 0.30497 0.2356 0.0
C869 C 0.48778 0.31276 0.21387 0.0
C870 C 0.47272 0.30891 0.19645 0.0
H871 H 0.4735 0.25351 0.15217 0.0
H872 H 0.48218 0.28191 0.15673 0.0
H873 H 0.47723 0.26375 0.18031 0.0
H874 H 0.43257 0.28055 0.22559 0.0
H875 H 0.45862 0.28806 0.25642 0.0
H876 H 0.89368 0.28128 0.89376 0.0
H877 H 0.91831 0.2572 0.87166 0.0
H878 H 0.88264 0.19882 0.89491 0.0
H879 H 0.85792 0.2227 0.91722 0.0
H880 H 0.9312 0.19521 0.89537 0.0
H881 H 0.89693 0.22435 0.81395 0.0
H882 H 0.90563 0.24649 0.83238 0.0
H883 H 0.88258 0.22877 0.84021 0.0
C884 C 0.89108 0.26332 0.89427 0.0
C885 C 0.8737 0.25395 0.90713 0.0
C886 C 0.90513 0.24961 0.88158 0.0
C887 C 0.90205 0.22631 0.88149 0.0
C888 C 0.88517 0.2168 0.89474 0.0
H889 H 0.96553 0.1473 0.77696 0.0
H890 H 0.93841 0.15884 0.80534 0.0
C891 C 0.87104 0.2305 0.9074 0.0
C892 C 0.91623 0.21199 0.86715 0.0
H893 H 0.93055 0.20307 0.81263 0.0
C894 C 0.93096 0.19671 0.87727 0.0
C895 C 0.91552 0.21375 0.84356 0.0
C896 C 0.89918 0.22906 0.83181 0.0
C897 C 0.94577 0.18379 0.86434 0.0
C898 C 0.94589 0.18647 0.8408 0.0
C899 C 0.93048 0.20108 0.8307 0.0
C900 C 0.96278 0.17564 0.82625 0.0
C901 C 0.9612 0.16751 0.87598 0.0
C902 C 0.98557 0.1807 0.82897 0.0
C903 C 0.00114 0.17409 0.81282 0.0
C904 C 0.99413 0.16253 0.79351 0.0
C905 C 0.97149 0.15628 0.79156 0.0
C906 C 0.95595 0.16285 0.80776 0.0
H907 H 0.95432 0.16223 0.89245 0.0
H908 H 0.96413 0.15238 0.86557 0.0
H909 H 0.97758 0.17576 0.87902 0.0
H910 H 0.99116 0.19092 0.84287 0.0
H911 H 0.01843 0.1792 0.81487 0.0
H912 H 0.55088 0.84539 0.24725 0.0
H913 H 0.57872 0.83987 0.27689 0.0
H914 H 0.52672 0.8167 0.32145 0.0
H915 H 0.49882 0.82274 0.29235 0.0
H916 H 0.55806 0.843 0.34301 0.0
H917 H 0.59852 0.77643 0.29151 0.0
H918 H 0.59755 0.80397 0.27941 0.0
H919 H 0.572 0.78868 0.28391 0.0
C920 C 0.54537 0.83933 0.26344 0.0
C921 C 0.5227 0.83416 0.26735 0.0
C922 C 0.56128 0.83618 0.28033 0.0
C923 C 0.55479 0.82751 0.3012 0.0
C924 C 0.53206 0.8234 0.30545 0.0
H925 H 0.60387 0.73613 0.39272 0.0
H926 H 0.58674 0.75959 0.36412 0.0
C927 C 0.51615 0.82675 0.28872 0.0
C928 C 0.57153 0.82066 0.3181 0.0
H929 H 0.61053 0.78025 0.32851 0.0
C930 C 0.56988 0.82957 0.33981 0.0
C931 C 0.58681 0.80307 0.31378 0.0
C932 C 0.58883 0.79231 0.29097 0.0
C933 C 0.58215 0.82041 0.35765 0.0
C934 C 0.59661 0.80217 0.35346 0.0
C935 C 0.59936 0.79426 0.33153 0.0
C936 C 0.6066 0.78893 0.37179 0.0
C937 C 0.57849 0.82927 0.38103 0.0
C938 C 0.62327 0.79783 0.38574 0.0
C939 C 0.63308 0.78443 0.4023 0.0
C940 C 0.62645 0.76194 0.40492 0.0
C941 C 0.60947 0.75332 0.39109 0.0
C942 C 0.59966 0.76669 0.37471 0.0
H943 H 0.56467 0.84173 0.38175 0.0
H944 H 0.57456 0.8153 0.39269 0.0
H945 H 0.59406 0.83746 0.38703 0.0
H946 H 0.62898 0.81491 0.38353 0.0
H947 H 0.64619 0.79152 0.41264 0.0
H948 H 0.14836 0.70015 0.58993 0.0
H949 H 0.13352 0.67674 0.62034 0.0
H950 H 0.08984 0.7307 0.64041 0.0
H951 H 0.1048 0.7542 0.6107 0.0
H952 H 0.11216 0.71113 0.67596 0.0
H953 H 0.07183 0.6469 0.62148 0.0
H954 H 0.10138 0.65168 0.61804 0.0
H955 H 0.08182 0.67321 0.61042 0.0
C956 C 0.13555 0.70696 0.60081 0.0
C957 C 0.12772 0.72902 0.59788 0.0
C958 C 0.12707 0.69355 0.61812 0.0
C959 C 0.1105 0.70196 0.63251 0.0
C960 C 0.10273 0.72393 0.62955 0.0
H961 H -0.00191 0.66868 0.70078 0.0
H962 H 0.02954 0.67325 0.67541 0.0
C963 C 0.11126 0.73733 0.61249 0.0
C964 C 0.10064 0.68824 0.65065 0.0
H965 H 0.06277 0.6464 0.65958 0.0
C966 C 0.10171 0.69665 0.67257 0.0
C967 C 0.0872 0.66929 0.64605 0.0
C968 C 0.08529 0.6597 0.62274 0.0
C969 C 0.08808 0.68799 0.68961 0.0
C970 C 0.07347 0.66997 0.68466 0.0
C971 C 0.07398 0.66023 0.66325 0.0
C972 C 0.05475 0.66404 0.69981 0.0
C973 C 0.08802 0.6995 0.71214 0.0
C974 C 0.0584 0.65676 0.72188 0.0
C975 C 0.04034 0.65447 0.73668 0.0
C976 C 0.01837 0.6591 0.72946 0.0
C977 C 0.01477 0.6651 0.70698 0.0
C978 C 0.03276 0.66761 0.69237 0.0
H979 H 0.09793 0.71526 0.71203 0.0
H980 H 0.07063 0.70353 0.71738 0.0
H981 H 0.0954 0.68816 0.72488 0.0
H982 H 0.07522 0.65345 0.72782 0.0
H983 H 0.04363 0.64951 0.75382 0.0
H984 H 0.87342 0.6129 0.75787 0.0
H985 H 0.84822 0.5919 0.73359 0.0
H986 H 0.88499 0.61415 0.67552 0.0
H987 H 0.91037 0.63554 0.69972 0.0
H988 H 0.83647 0.61465 0.67092 0.0
H989 H 0.86949 0.53367 0.70211 0.0
H990 H 0.86104 0.55224 0.7242 0.0
H991 H 0.88401 0.5599 0.70624 0.0
C992 C 0.87615 0.6135 0.73994 0.0
C993 C 0.8941 0.6257 0.73076 0.0
C994 C 0.86174 0.60144 0.7261 0.0
C995 C 0.86505 0.6012 0.70286 0.0
C996 C 0.88231 0.61407 0.69347 0.0
H997 H 0.79296 0.4938 0.63596 0.0
H998 H 0.8227 0.52111 0.64264 0.0
C999 C 0.89678 0.62623 0.70733 0.0
C1000 C 0.85085 0.58673 0.68871 0.0
H1001 H 0.83419 0.53246 0.68327 0.0
C1002 C 0.83614 0.59663 0.67328 0.0
C1003 C 0.8509 0.56322 0.69147 0.0
C1004 C 0.86737 0.55158 0.70673 0.0
C1005 C 0.82041 0.58364 0.66154 0.0
C1006 C 0.81924 0.56032 0.66573 0.0
C1007 C 0.83494 0.55036 0.68014 0.0
C1008 C 0.80079 0.54607 0.65721 0.0
C1009 C 0.80507 0.59506 0.64504 0.0
C1010 C 0.7785 0.55128 0.66256 0.0
C1011 C 0.76143 0.53579 0.65858 0.0
C1012 C 0.76644 0.51461 0.64958 0.0
C1013 C 0.78859 0.50989 0.64311 0.0
C1014 C 0.8056 0.52551 0.64685 0.0
H1015 H 0.81319 0.61011 0.63766 0.0
H1016 H 0.80008 0.58358 0.63128 0.0
H1017 H 0.78972 0.60072 0.65388 0.0
H1018 H 0.77442 0.56676 0.67109 0.0
H1019 H 0.74456 0.53992 0.66381 0.0
H1020 H 0.60316 0.3829 0.26782 0.0
H1021 H 0.62983 0.40311 0.24447 0.0
H1022 H 0.62346 0.35281 0.19302 0.0
H1023 H 0.59634 0.33247 0.21622 0.0
H1024 H 0.67079 0.38688 0.22823 0.0
H1025 H 0.61332 0.41237 0.15925 0.0
H1026 H 0.60311 0.40246 0.18594 0.0
H1027 H 0.61448 0.38302 0.16603 0.0
C1028 C 0.6073 0.37611 0.25151 0.0
C1029 C 0.59757 0.35607 0.24388 0.0
C1030 C 0.62258 0.38769 0.2382 0.0
C1031 C 0.62847 0.37951 0.21699 0.0
C1032 C 0.61886 0.35954 0.20922 0.0
H1033 H 0.74345 0.44939 0.15647 0.0
H1034 H 0.71853 0.41808 0.16552 0.0
C1035 C 0.60344 0.34792 0.22254 0.0
C1036 C 0.64507 0.39197 0.2035 0.0
H1037 H 0.65034 0.42573 0.15765 0.0
C1038 C 0.6665 0.39513 0.2126 0.0
C1039 C 0.63927 0.40267 0.18319 0.0
C1040 C 0.61627 0.40016 0.17299 0.0
C1041 C 0.68196 0.40966 0.20256 0.0
C1042 C 0.67594 0.42092 0.18258 0.0
C1043 C 0.65489 0.41692 0.17288 0.0
C1044 C 0.69004 0.43908 0.17334 0.0
C1045 C 0.70401 0.41391 0.21423 0.0
C1046 C 0.68188 0.46111 0.1736 0.0
C1047 C 0.69595 0.47897 0.16826 0.0
C1048 C 0.7185 0.47514 0.16263 0.0
C1049 C 0.72625 0.45293 0.16102 0.0
C1050 C 0.71207 0.43502 0.16624 0.0
H1051 H 0.70425 0.40698 0.23151 0.0
H1052 H 0.71771 0.40583 0.20462 0.0
H1053 H 0.70757 0.43215 0.21513 0.0
H1054 H 0.66489 0.46458 0.17898 0.0
H1055 H 0.68935 0.49583 0.1695 0.0
H1056 H 0.39874 0.90102 0.22552 0.0
H1057 H 0.36999 0.91989 0.24767 0.0
H1058 H 0.37682 0.87 0.29955 0.0
H1059 H 0.40597 0.85128 0.27779 0.0
H1060 H 0.3298 0.90284 0.26161 0.0
H1061 H 0.38174 0.92826 0.33463 0.0
H1062 H 0.39384 0.91855 0.30869 0.0
H1063 H 0.38213 0.89885 0.32823 0.0
C1064 C 0.39423 0.89412 0.24169 0.0
C1065 C 0.4047 0.87471 0.24993 0.0
C1066 C 0.37781 0.90491 0.25432 0.0
C1067 C 0.37152 0.89647 0.27535 0.0
C1068 C 0.3818 0.87703 0.28358 0.0
H1069 H 0.24776 0.95122 0.33222 0.0
H1070 H 0.27653 0.92348 0.32312 0.0
C1071 C 0.39836 0.86632 0.27105 0.0
C1072 C 0.35365 0.90776 0.28818 0.0
H1073 H 0.34319 0.93696 0.33618 0.0
C1074 C 0.33263 0.91017 0.27799 0.0
C1075 C 0.35753 0.91727 0.30952 0.0
C1076 C 0.38007 0.91581 0.32089 0.0
C1077 C 0.31555 0.92256 0.28819 0.0
C1078 C 0.31945 0.93226 0.30947 0.0
C1079 C 0.34024 0.92924 0.32 0.0
C1080 C 0.30314 0.94786 0.31958 0.0
C1081 C 0.29394 0.92615 0.27551 0.0
C1082 C 0.30901 0.97046 0.32209 0.0
C1083 C 0.29275 0.98628 0.32757 0.0
C1084 C 0.2703 0.97975 0.33046 0.0
C1085 C 0.26484 0.95682 0.32973 0.0
C1086 C 0.28121 0.94096 0.32447 0.0
H1087 H 0.29545 0.92134 0.25759 0.0
H1088 H 0.28055 0.91573 0.28312 0.0
H1089 H 0.28863 0.94396 0.27638 0.0
H1090 H 0.3259 0.97607 0.31852 0.0
H1091 H 0.29758 0.00376 0.32819 0.0
H1092 H 0.27599 0.04828 0.81835 0.0
H1093 H 0.25276 0.08178 0.81348 0.0
H1094 H 0.19355 0.04036 0.81158 0.0
H1095 H 0.21634 0.00708 0.81681 0.0
H1096 H 0.22688 0.09136 0.77798 0.0
H1097 H 0.17356 0.08951 0.85317 0.0
H1098 H 0.19916 0.07349 0.85117 0.0
H1099 H 0.17328 0.06252 0.84008 0.0
C1100 C 0.25798 0.04636 0.8172 0.0
C1101 C 0.24802 0.02499 0.81794 0.0
C1102 C 0.24477 0.06551 0.81449 0.0
C1103 C 0.22141 0.06359 0.81267 0.0
C1104 C 0.21147 0.04231 0.81366 0.0
H1105 H 0.12343 0.11585 0.73225 0.0
H1106 H 0.15723 0.10125 0.74966 0.0
C1107 C 0.22459 0.02324 0.8164 0.0
C1108 C 0.20735 0.08323 0.80728 0.0
H1109 H 0.15628 0.10556 0.81945 0.0
C1110 C 0.21174 0.09495 0.78737 0.0
C1111 C 0.18793 0.0884 0.81982 0.0
C1112 C 0.18338 0.07796 0.84239 0.0
C1113 C 0.19604 0.10998 0.7785 0.0
C1114 C 0.1753 0.11284 0.78958 0.0
C1115 C 0.17197 0.10296 0.81066 0.0
C1116 C 0.15588 0.12338 0.77838 0.0
C1117 C 0.20149 0.12193 0.75691 0.0
C1118 C 0.14349 0.14026 0.78904 0.0
C1119 C 0.12384 0.14842 0.77927 0.0
C1120 C 0.11623 0.13974 0.75871 0.0
C1121 C 0.12885 0.12301 0.74801 0.0
C1122 C 0.14836 0.11481 0.75783 0.0
H1123 H 0.21978 0.12514 0.75553 0.0
H1124 H 0.19661 0.11117 0.74256 0.0
H1125 H 0.19245 0.13813 0.75555 0.0
H1126 H 0.14888 0.1469 0.80505 0.0
H1127 H 0.11453 0.16136 0.78793 0.0
H1128 H 0.71191 0.89722 0.654 0.0
H1129 H 0.68894 0.86503 0.64274 0.0
H1130 H 0.74153 0.84326 0.59821 0.0
H1131 H 0.76459 0.87474 0.60961 0.0
H1132 H 0.6726 0.85466 0.60252 0.0
H1133 H 0.72708 0.78551 0.62934 0.0
H1134 H 0.73102 0.81382 0.63928 0.0
H1135 H 0.7434 0.80484 0.6132 0.0
C1136 C 0.71861 0.88544 0.64195 0.0
C1137 C 0.74013 0.88849 0.63278 0.0
C1138 C 0.70551 0.86704 0.63562 0.0
C1139 C 0.71378 0.85141 0.62013 0.0
C1140 C 0.73512 0.85463 0.61082 0.0
H1141 H 0.67041 0.78896 0.50879 0.0
H1142 H 0.67519 0.81293 0.54119 0.0
C1143 C 0.74821 0.87283 0.61718 0.0
C1144 C 0.69974 0.83271 0.61189 0.0
H1145 H 0.70483 0.77841 0.59523 0.0
C1146 C 0.67929 0.83779 0.60148 0.0
C1147 C 0.70792 0.81049 0.61123 0.0
C1148 C 0.72843 0.80334 0.62414 0.0
C1149 C 0.66827 0.82188 0.58817 0.0
C1150 C 0.67839 0.80072 0.5847 0.0
C1151 C 0.69732 0.79482 0.59735 0.0
C1152 C 0.67213 0.78619 0.56559 0.0
C1153 C 0.64646 0.8283 0.57715 0.0
C1154 C 0.66925 0.763 0.56836 0.0
C1155 C 0.66698 0.74905 0.54966 0.0
C1156 C 0.66761 0.7581 0.5279 0.0
C1157 C 0.66975 0.7814 0.52527 0.0
C1158 C 0.67219 0.79523 0.54388 0.0
H1159 H 0.6365 0.83937 0.58831 0.0
H1160 H 0.65001 0.83786 0.56159 0.0
H1161 H 0.63624 0.81336 0.57285 0.0
H1162 H 0.66941 0.75563 0.58495 0.0
H1163 H 0.66527 0.73116 0.55226 0.0
H1164 H 0.81061 0.27638 0.04272 0.0
H1165 H 0.80749 0.24972 0.07383 0.0
H1166 H 0.80847 0.19483 0.02684 0.0
H1167 H 0.81207 0.22105 -0.00406 0.0
H1168 H 0.77429 0.22116 0.0817 0.0
H1169 H 0.85202 0.17241 0.07283 0.0
H1170 H 0.84813 0.19913 0.05916 0.0
H1171 H 0.83802 0.1737 0.04633 0.0
C1172 C 0.8104 0.25861 0.03907 0.0
C1173 C 0.8116 0.25084 0.01685 0.0
C1174 C 0.80872 0.24343 0.05685 0.0
C1175 C 0.80831 0.22029 0.05268 0.0
C1176 C 0.80954 0.21256 0.03053 0.0
H1177 H 0.73431 0.11443 0.1015 0.0
H1178 H 0.75033 0.1489 0.08681 0.0
C1179 C 0.81133 0.22764 0.01283 0.0
C1180 C 0.80423 0.20405 0.07095 0.0
H1181 H 0.81988 0.15197 0.08842 0.0
C1182 C 0.78458 0.20629 0.08363 0.0
C1183 C 0.81794 0.18495 0.07396 0.0
C1184 C 0.84033 0.18257 0.0625 0.0
C1185 C 0.77715 0.18893 0.09757 0.0
C1186 C 0.78942 0.16867 0.0983 0.0
C1187 C 0.81019 0.16732 0.08741 0.0
C1188 C 0.77978 0.14801 0.10798 0.0
C1189 C 0.75581 0.19217 0.11071 0.0
C1190 C 0.79149 0.13554 0.12411 0.0
C1191 C 0.7825 0.11552 0.13233 0.0
C1192 C 0.7617 0.10766 0.12448 0.0
C1193 C 0.75024 0.12008 0.10809 0.0
C1194 C 0.75927 0.13994 0.09982 0.0
H1195 H 0.75339 0.21009 0.11515 0.0
H1196 H 0.74133 0.18698 0.10027 0.0
H1197 H 0.75579 0.18207 0.12634 0.0
H1198 H 0.8075 0.14135 0.13037 0.0
H1199 H 0.79175 0.10633 0.14497 0.0
H1200 H 0.15277 0.75539 0.44561 0.0
H1201 H 0.15991 0.73094 0.41349 0.0
H1202 H 0.17137 0.6754 0.45835 0.0
H1203 H 0.16366 0.69934 0.49029 0.0
H1204 H 0.1986 0.71229 0.40505 0.0
H1205 H 0.13654 0.6444 0.41061 0.0
H1206 H 0.13334 0.67033 0.42588 0.0
H1207 H 0.1498 0.64768 0.43731 0.0
C1208 C 0.15627 0.73782 0.44859 0.0
C1209 C 0.15779 0.72935 0.47054 0.0
C1210 C 0.16032 0.72389 0.43021 0.0
C1211 C 0.16588 0.70126 0.43346 0.0
C1212 C 0.16648 0.69261 0.45532 0.0
H1213 H 0.26503 0.62052 0.37882 0.0
H1214 H 0.2412 0.6491 0.39547 0.0
C1215 C 0.16229 0.70644 0.47365 0.0
C1216 C 0.17421 0.68739 0.41464 0.0
H1217 H 0.17299 0.63393 0.39453 0.0
C1218 C 0.19261 0.69535 0.40233 0.0
C1219 C 0.16615 0.66546 0.41064 0.0
C1220 C 0.1452 0.65662 0.42167 0.0
C1221 C 0.20435 0.68132 0.38764 0.0
C1222 C 0.19789 0.65861 0.38573 0.0
C1223 C 0.17829 0.65122 0.39643 0.0
C1224 C 0.2124 0.64183 0.37464 0.0
C1225 C 0.22398 0.69083 0.37486 0.0
C1226 C 0.20392 0.62775 0.35785 0.0
C1227 C 0.21746 0.61109 0.34848 0.0
C1228 C 0.23969 0.6082 0.35582 0.0
C1229 C 0.24808 0.62238 0.37263 0.0
C1230 C 0.23452 0.63889 0.38204 0.0
H1231 H 0.22161 0.70899 0.37149 0.0
H1232 H 0.23941 0.68899 0.38507 0.0
H1233 H 0.2265 0.68204 0.35866 0.0
H1234 H 0.18681 0.6296 0.35208 0.0
H1235 H 0.21046 0.60045 0.33556 0.0
H1236 H 0.30054 0.29133 0.01065 0.0
H1237 H 0.28622 0.32043 0.98582 0.0
H1238 H 0.29044 0.27502 0.92978 0.0
H1239 H 0.3042 0.24548 0.95466 0.0
H1240 H 0.30249 0.34094 0.94886 0.0
H1241 H 0.22521 0.29346 0.92817 0.0
H1242 H 0.2441 0.2849 0.95014 0.0
H1243 H 0.25062 0.27892 0.92134 0.0
C1244 C 0.2986 0.28752 0.99302 0.0
C1245 C 0.30325 0.26598 0.98467 0.0
C1246 C 0.29041 0.3042 0.97885 0.0
C1247 C 0.28682 0.29972 0.95608 0.0
C1248 C 0.29253 0.27862 0.94744 0.0
H1249 H 0.25554 0.40247 0.85738 0.0
H1250 H 0.27399 0.37401 0.8802 0.0
C1251 C 0.30052 0.26181 0.96165 0.0
C1252 C 0.27645 0.31702 0.94167 0.0
H1253 H 0.23082 0.32767 0.90894 0.0
C1254 C 0.28683 0.33807 0.94009 0.0
C1255 C 0.25582 0.31331 0.93061 0.0
C1256 C 0.24314 0.29151 0.93278 0.0
C1257 C 0.27715 0.35554 0.9277 0.0
C1258 C 0.25684 0.35161 0.91613 0.0
C1259 C 0.24646 0.33057 0.91772 0.0
C1260 C 0.24582 0.36915 0.90251 0.0
C1261 C 0.28845 0.37816 0.92767 0.0
C1262 C 0.22363 0.37544 0.90712 0.0
C1263 C 0.21288 0.39146 0.89389 0.0
C1264 C 0.22419 0.40154 0.87585 0.0
C1265 C 0.24644 0.39523 0.87132 0.0
C1266 C 0.25708 0.37904 0.88441 0.0
H1267 H 0.29985 0.38016 0.94225 0.0
H1268 H 0.29865 0.37989 0.91222 0.0
H1269 H 0.27595 0.39193 0.92798 0.0
H1270 H 0.21462 0.36791 0.92097 0.0
H1271 H 0.19574 0.39595 0.89781 0.0
H1272 H 0.4885 0.66584 0.78489 0.0
H1273 H 0.5182 0.67629 0.81084 0.0
H1274 H 0.56741 0.66716 0.7587 0.0
H1275 H 0.53763 0.65736 0.73229 0.0
H1276 H 0.55667 0.65765 0.82679 0.0
H1277 H 0.57512 0.73267 0.77448 0.0
H1278 H 0.55115 0.715 0.76949 0.0
H1279 H 0.57856 0.70621 0.76062 0.0
C1280 C 0.50566 0.66571 0.77897 0.0
C1281 C 0.51068 0.6612 0.75642 0.0
C1282 C 0.52263 0.67165 0.79386 0.0
C1283 C 0.54491 0.673 0.78652 0.0
C1284 C 0.55022 0.66677 0.7645 0.0
H1285 H 0.64607 0.71362 0.88598 0.0
H1286 H 0.62677 0.69181 0.85717 0.0
C1287 C 0.53321 0.6611 0.74948 0.0
C1288 C 0.56198 0.68283 0.80151 0.0
H1289 H 0.59508 0.72897 0.80806 0.0
C1290 C 0.5653 0.67311 0.82266 0.0
C1291 C 0.57296 0.70314 0.79606 0.0
C1292 C 0.56919 0.71502 0.77403 0.0
C1293 C 0.57869 0.68359 0.83887 0.0
C1294 C 0.58944 0.70403 0.83349 0.0
C1295 C 0.58683 0.71326 0.81204 0.0
C1296 C 0.6018 0.71721 0.8504 0.0
C1297 C 0.5802 0.67332 0.86194 0.0
C1298 C 0.59459 0.73898 0.85557 0.0
C1299 C 0.60575 0.7516 0.87171 0.0
C1300 C 0.62429 0.74263 0.88309 0.0
C1301 C 0.63169 0.72091 0.87767 0.0
C1302 C 0.62063 0.70837 0.86131 0.0
H1303 H 0.56701 0.66048 0.86474 0.0
H1304 H 0.59673 0.66506 0.8639 0.0
H1305 H 0.57866 0.68637 0.87511 0.0
H1306 H 0.5801 0.74611 0.84728 0.0
H1307 H 0.59962 0.76826 0.87551 0.0
H1308 H 0.05136 0.8138 0.2677 0.0
H1309 H 0.08332 0.80997 0.2422 0.0
H1310 H 0.03808 0.8079 0.18588 0.0
H1311 H 0.00633 0.81215 0.21091 0.0
H1312 H 0.09214 0.77534 0.21549 0.0
H1313 H 0.08463 0.85068 0.16284 0.0
H1314 H 0.07025 0.84804 0.18934 0.0
H1315 H 0.05809 0.83674 0.16409 0.0
C1316 C 0.04827 0.8128 0.24984 0.0
C1317 C 0.02628 0.81326 0.24134 0.0
C1318 C 0.06654 0.81071 0.23533 0.0
C1319 C 0.0631 0.80919 0.21212 0.0
C1320 C 0.0412 0.80981 0.20365 0.0
H1321 H 0.11318 0.73024 0.11127 0.0
H1322 H 0.09828 0.74803 0.14473 0.0
C1323 C 0.02301 0.81197 0.21806 0.0
C1324 C 0.08188 0.80445 0.19668 0.0
H1325 H 0.1006 0.81754 0.14434 0.0
C1326 C 0.09446 0.78491 0.2002 0.0
C1327 C 0.0854 0.81723 0.17702 0.0
C1328 C 0.07402 0.83948 0.17327 0.0
C1329 C 0.10874 0.77662 0.18355 0.0
C1330 C 0.10997 0.78788 0.16273 0.0
C1331 C 0.09922 0.80862 0.16012 0.0
C1332 C 0.11987 0.77714 0.14275 0.0
C1333 C 0.12168 0.75538 0.18811 0.0
C1334 C 0.13634 0.78803 0.13001 0.0
C1335 C 0.14472 0.77801 0.11056 0.0
C1336 C 0.13664 0.75699 0.10355 0.0
C1337 C 0.11993 0.74633 0.11626 0.0
C1338 C 0.11154 0.75638 0.13556 0.0
H1339 H 0.12575 0.75381 0.2062 0.0
H1340 H 0.11124 0.74073 0.18342 0.0
H1341 H 0.1375 0.7548 0.17833 0.0
H1342 H 0.14275 0.80422 0.13514 0.0
H1343 H 0.1576 0.78666 0.10113 0.0
H1344 H 0.44975 0.15161 0.74265 0.0
H1345 H 0.41787 0.15836 0.71781 0.0
H1346 H 0.46312 0.17852 0.66517 0.0
H1347 H 0.49497 0.17132 0.68954 0.0
H1348 H 0.40677 0.19794 0.70203 0.0
H1349 H 0.41941 0.142 0.6298 0.0
H1350 H 0.43408 0.13805 0.65598 0.0
H1351 H 0.44464 0.15734 0.63523 0.0
C1352 C 0.45294 0.15703 0.72562 0.0
C1353 C 0.47493 0.16105 0.71813 0.0
C1354 C 0.43468 0.16082 0.71144 0.0
C1355 C 0.43808 0.16864 0.68951 0.0
C1356 C 0.46005 0.17188 0.68178 0.0
H1357 H 0.37848 0.26796 0.61411 0.0
H1358 H 0.39658 0.24295 0.64063 0.0
C1359 C 0.47829 0.16797 0.69586 0.0
C1360 C 0.41893 0.17638 0.67571 0.0
H1361 H 0.3996 0.17713 0.6219 0.0
C1362 C 0.40483 0.19294 0.68466 0.0
C1363 C 0.416 0.1696 0.65318 0.0
C1364 C 0.42921 0.15057 0.64311 0.0
C1365 C 0.3893 0.20424 0.67119 0.0
C1366 C 0.38818 0.19919 0.64808 0.0
C1367 C 0.40079 0.18128 0.63955 0.0
C1368 C 0.37634 0.21408 0.6322 0.0
C1369 C 0.37484 0.22214 0.68164 0.0
C1370 C 0.35929 0.20597 0.61818 0.0
C1371 C 0.34887 0.2203 0.60277 0.0
C1372 C 0.35557 0.24286 0.60101 0.0
C1373 C 0.37279 0.25075 0.61502 0.0
C1374 C 0.38308 0.2365 0.63036 0.0
H1375 H 0.37189 0.21868 0.6997 0.0
H1376 H 0.38351 0.23854 0.68036 0.0
H1377 H 0.3584 0.22348 0.67303 0.0
H1378 H 0.35404 0.18863 0.61921 0.0
H1379 H 0.33573 0.21368 0.59216 0.0
H1380 H 0.86582 0.25215 0.42033 0.0
H1381 H 0.89036 0.27144 0.39409 0.0
H1382 H 0.9248 0.20943 0.38032 0.0
H1383 H 0.89989 0.1897 0.40632 0.0
H1384 H 0.93594 0.27673 0.39231 0.0
H1385 H 0.90446 0.22993 0.31829 0.0
H1386 H 0.89077 0.22885 0.34521 0.0
H1387 H 0.91559 0.21256 0.34019 0.0
C1388 C 0.87866 0.24253 0.41185 0.0
C1389 C 0.88072 0.21928 0.41526 0.0
C1390 C 0.8927 0.25365 0.39687 0.0
C1391 C 0.90909 0.24179 0.38499 0.0
C1392 C 0.9119 0.21878 0.38901 0.0
H1393 H 0.01555 0.29994 0.30581 0.0
H1394 H 0.99297 0.2831 0.33532 0.0
C1395 C 0.89775 0.20757 0.40397 0.0
C1396 C 0.92271 0.25359 0.368 0.0
H1397 H 0.93442 0.25513 0.31209 0.0
C1398 C 0.93565 0.27203 0.37476 0.0
C1399 C 0.9219 0.24765 0.34508 0.0
C1400 C 0.90729 0.22881 0.33665 0.0
C1401 C 0.94802 0.28459 0.35921 0.0
C1402 C 0.94773 0.27822 0.3364 0.0
C1403 C 0.93464 0.25991 0.32962 0.0
C1404 C 0.96121 0.28999 0.31927 0.0
C1405 C 0.96089 0.30479 0.36729 0.0
C1406 C 0.95084 0.29929 0.30032 0.0
C1407 C 0.96373 0.30877 0.28322 0.0
C1408 C 0.98723 0.30902 0.28478 0.0
C1409 C -0.00251 0.30016 0.30408 0.0
C1410 C 0.98461 0.29062 0.32108 0.0
H1411 H 0.95418 0.31117 0.38343 0.0
H1412 H 0.97865 0.30002 0.37001 0.0
H1413 H 0.9604 0.31855 0.35477 0.0
H1414 H 0.93277 0.29888 0.29861 0.0
H1415 H 0.9553 0.31542 0.26859 0.0
H1416 H 0.12765 0.09278 0.3368 0.0
H1417 H 0.09843 0.11915 0.3246 0.0
H1418 H 0.13943 0.13825 0.26816 0.0
H1419 H 0.16799 0.11167 0.27969 0.0
H1420 H 0.09817 0.16272 0.3198 0.0
H1421 H 0.08172 0.12682 0.23676 0.0
H1422 H 0.09748 0.11185 0.25782 0.0
H1423 H 0.11125 0.13142 0.23927 0.0
C1424 C 0.13033 0.10265 0.32179 0.0
C1425 C 0.14996 0.10005 0.30905 0.0
C1426 C 0.1136 0.11755 0.31477 0.0
C1427 C 0.1164 0.13006 0.29501 0.0
C1428 C 0.13643 0.12806 0.28289 0.0
H1429 H 0.08891 0.26011 0.26017 0.0
H1430 H 0.09839 0.22398 0.27636 0.0
C1431 C 0.15289 0.11305 0.28966 0.0
C1432 C 0.09939 0.1465 0.28755 0.0
H1433 H 0.0767 0.16775 0.23964 0.0
C1434 C 0.09296 0.16351 0.30241 0.0
C1435 C 0.09177 0.14717 0.2651 0.0
C1436 C 0.09572 0.12813 0.24897 0.0
C1437 C 0.08123 0.18236 0.29478 0.0
C1438 C 0.07663 0.18455 0.27161 0.0
C1439 C 0.08083 0.16642 0.25729 0.0
C1440 C 0.07032 0.20635 0.26158 0.0
C1441 C 0.07459 0.20006 0.31155 0.0
C1442 C 0.05215 0.20822 0.24673 0.0
C1443 C 0.04702 0.2289 0.23687 0.0
C1444 C 0.05996 0.24793 0.24187 0.0
C1445 C 0.07844 0.24581 0.25627 0.0
C1446 C 0.0837 0.2252 0.26578 0.0
H1447 H 0.07057 0.19236 0.32802 0.0
H1448 H 0.08887 0.21169 0.31418 0.0
H1449 H 0.05987 0.20985 0.30577 0.0
H1450 H 0.04183 0.19378 0.24295 0.0
H1451 H 0.03266 0.23011 0.22586 0.0
H1452 H 0.33959 0.86951 0.85191 0.0
H1453 H 0.36179 0.83531 0.84561 0.0
H1454 H 0.37978 0.85928 0.77983 0.0
H1455 H 0.35809 0.8931 0.78595 0.0
H1456 H 0.35295 0.805 0.81113 0.0
H1457 H 0.43947 0.83665 0.80339 0.0
H1458 H 0.41748 0.8526 0.81675 0.0
H1459 H 0.42053 0.85294 0.78672 0.0
C1460 C 0.34869 0.86761 0.83633 0.0
C1461 C 0.34699 0.88388 0.81937 0.0
C1462 C 0.36131 0.84812 0.83275 0.0
C1463 C 0.37271 0.84497 0.81239 0.0
C1464 C 0.37158 0.86159 0.79586 0.0
H1465 H 0.42022 0.75282 0.71843 0.0
H1466 H 0.40837 0.78436 0.74179 0.0
C1467 C 0.35893 0.88082 0.79931 0.0
C1468 C 0.38366 0.82345 0.80688 0.0
H1469 H 0.43097 0.8026 0.78251 0.0
C1470 C 0.3702 0.80422 0.80547 0.0
C1471 C 0.40616 0.82255 0.79951 0.0
C1472 C 0.42179 0.84227 0.80189 0.0
C1473 C 0.37813 0.78463 0.79519 0.0
C1474 C 0.40009 0.78434 0.78634 0.0
C1475 C 0.41403 0.80304 0.78908 0.0
C1476 C 0.40824 0.7654 0.77269 0.0
C1477 C 0.36254 0.7649 0.79256 0.0
C1478 C 0.41232 0.74448 0.78248 0.0
C1479 C 0.41907 0.72644 0.76922 0.0
C1480 C 0.42188 0.72904 0.74592 0.0
C1481 C 0.41814 0.7502 0.73627 0.0
C1482 C 0.41144 0.76824 0.74958 0.0
H1483 H 0.34513 0.76892 0.79777 0.0
H1484 H 0.36232 0.75916 0.77487 0.0
H1485 H 0.36864 0.75078 0.80302 0.0
H1486 H 0.41014 0.74207 0.80033 0.0
H1487 H 0.4219 0.71041 0.77725 0.0
H1488 H 0.65241 0.3945 0.7076 0.0
H1489 H 0.62719 0.36387 0.71697 0.0
H1490 H 0.61559 0.3515 0.64676 0.0
H1491 H 0.64119 0.3822 0.63705 0.0
H1492 H 0.58125 0.35639 0.70533 0.0
H1493 H 0.63895 0.29107 0.67185 0.0
H1494 H 0.64801 0.31946 0.67695 0.0
H1495 H 0.63093 0.31319 0.65301 0.0
C1496 C 0.64451 0.38536 0.69406 0.0
C1497 C 0.64903 0.39066 0.67153 0.0
C1498 C 0.62999 0.36792 0.69949 0.0
C1499 C 0.61973 0.35534 0.68257 0.0
C1500 C 0.6236 0.36091 0.66004 0.0
H1501 H 0.55176 0.2279 0.70466 0.0
H1502 H 0.5642 0.26248 0.68673 0.0
C1503 C 0.63817 0.37846 0.65454 0.0
C1504 C 0.60589 0.33581 0.68887 0.0
H1505 H 0.60651 0.2787 0.69013 0.0
C1506 C 0.58657 0.33937 0.70179 0.0
C1507 C 0.61293 0.31369 0.68419 0.0
C1508 C 0.6339 0.30896 0.67087 0.0
C1509 C 0.57435 0.32133 0.71064 0.0
C1510 C 0.58196 0.29924 0.70677 0.0
C1511 C 0.60075 0.29568 0.69309 0.0
C1512 C 0.57165 0.27956 0.71779 0.0
C1513 C 0.55356 0.32609 0.72418 0.0
C1514 C 0.57148 0.2778 0.74126 0.0
C1515 C 0.56432 0.25804 0.75162 0.0
C1516 C 0.55749 0.23961 0.73865 0.0
C1517 C 0.55704 0.24172 0.71517 0.0
C1518 C 0.56409 0.26149 0.70486 0.0
H1519 H 0.54616 0.34257 0.71967 0.0
H1520 H 0.54071 0.31287 0.72171 0.0
H1521 H 0.55801 0.3266 0.74222 0.0
H1522 H 0.57773 0.29136 0.75155 0.0
H1523 H 0.56497 0.25693 0.76972 0.0
H1524 H 0.83215 0.59761 0.2103 0.0
H1525 H 0.85739 0.62799 0.21974 0.0
H1526 H 0.85912 0.64871 0.15053 0.0
H1527 H 0.83323 0.61817 0.14076 0.0
H1528 H 0.90058 0.63746 0.20416 0.0
H1529 H 0.84007 0.7058 0.18438 0.0
H1530 H 0.83144 0.67693 0.18692 0.0
H1531 H 0.84624 0.68614 0.16241 0.0
C1532 C 0.8378 0.60854 0.19694 0.0
C1533 C 0.83045 0.60552 0.17474 0.0
C1534 C 0.85236 0.62588 0.20242 0.0
C1535 C 0.85996 0.6407 0.1859 0.0
C1536 C 0.85316 0.63759 0.16358 0.0
H1537 H 0.93391 0.76337 0.21767 0.0
H1538 H 0.91797 0.73217 0.19661 0.0
C1539 C 0.83846 0.62011 0.15802 0.0
C1540 C 0.87448 0.65961 0.19271 0.0
H1541 H 0.87395 0.71613 0.20135 0.0
C1542 C 0.89493 0.65472 0.20327 0.0
C1543 C 0.86704 0.68207 0.19151 0.0
C1544 C 0.84495 0.68819 0.18084 0.0
C1545 C 0.90776 0.67161 0.21338 0.0
C1546 C 0.89976 0.69388 0.21313 0.0
C1547 C 0.87992 0.69897 0.20159 0.0
C1548 C 0.91098 0.71196 0.22584 0.0
C1549 C 0.92956 0.66543 0.22456 0.0
C1550 C 0.91231 0.7109 0.2493 0.0
C1551 C 0.92135 0.72874 0.26148 0.0
C1552 C 0.92914 0.74801 0.25038 0.0
C1553 C 0.92809 0.7488 0.22681 0.0
C1554 C 0.91899 0.731 0.21469 0.0
H1555 H 0.93635 0.64941 0.21794 0.0
H1556 H 0.9423 0.67879 0.22221 0.0
H1557 H 0.92668 0.6633 0.24281 0.0
H1558 H 0.90581 0.69649 0.25825 0.0
H1559 H 0.92183 0.7276 0.27958 0.0
H1560 H 0.22702 0.05793 0.23135 0.0
H1561 H 0.24943 0.06808 0.19867 0.0
H1562 H 0.30892 0.06989 0.23961 0.0
H1563 H 0.28665 0.05999 0.27249 0.0
H1564 H 0.30326 0.10787 0.21483 0.0
H1565 H 0.29414 0.03363 0.16038 0.0
H1566 H 0.26753 0.04344 0.17031 0.0
H1567 H 0.28785 0.03295 0.18999 0.0
C1568 C 0.24491 0.0602 0.23339 0.0
C1569 C 0.25499 0.05824 0.25457 0.0
C1570 C 0.25774 0.0658 0.21464 0.0
C1571 C 0.28091 0.06935 0.21666 0.0
C1572 C 0.29111 0.06701 0.23767 0.0
H1573 H 0.35429 0.14239 0.10995 0.0
H1574 H 0.35082 0.11714 0.1424 0.0
C1575 C 0.2783 0.06142 0.25644 0.0
C1576 C 0.29388 0.0778 0.19727 0.0
H1577 H 0.30278 0.06868 0.14159 0.0
C1578 C 0.30373 0.09909 0.19893 0.0
C1579 C 0.29464 0.06618 0.17666 0.0
C1580 C 0.28568 0.04267 0.17427 0.0
C1581 C 0.31253 0.10992 0.18002 0.0
C1582 C 0.31167 0.09899 0.15903 0.0
C1583 C 0.30337 0.07702 0.15772 0.0
C1584 C 0.31527 0.11151 0.13796 0.0
C1585 C 0.32103 0.13364 0.18229 0.0
C1586 C 0.29666 0.11594 0.12438 0.0
C1587 C 0.29857 0.13021 0.10606 0.0
C1588 C 0.31918 0.14032 0.10082 0.0
C1589 C 0.33819 0.1349 0.11366 0.0
C1590 C 0.33621 0.12059 0.1322 0.0
H1591 H 0.31843 0.14046 0.19941 0.0
H1592 H 0.33923 0.13408 0.17855 0.0
H1593 H 0.31245 0.14477 0.1701 0.0
H1594 H 0.28036 0.10907 0.12853 0.0
H1595 H 0.28366 0.13377 0.09634 0.0
H1596 H 0.22055 0.93487 0.76537 0.0
H1597 H 0.19945 0.91959 0.73385 0.0
H1598 H 0.2612 0.90434 0.69966 0.0
H1599 H 0.2826 0.91966 0.73112 0.0
H1600 H 0.22539 0.9257 0.67272 0.0
H1601 H 0.19718 0.85069 0.72072 0.0
H1602 H 0.19256 0.87769 0.7333 0.0
H1603 H 0.22064 0.86763 0.72956 0.0
C1604 C 0.22972 0.92841 0.75111 0.0
C1605 C 0.25333 0.92835 0.75086 0.0
C1606 C 0.21759 0.91962 0.73316 0.0
C1607 C 0.2288 0.91061 0.71464 0.0
C1608 C 0.25229 0.91117 0.71392 0.0
H1609 H 0.21171 0.83928 0.59499 0.0
H1610 H 0.22193 0.86346 0.62597 0.0
C1611 C 0.26448 0.91991 0.73191 0.0
C1612 C 0.21611 0.89998 0.69624 0.0
H1613 H 0.18616 0.85308 0.68302 0.0
C1614 C 0.21663 0.90994 0.67497 0.0
C1615 C 0.20447 0.87957 0.69938 0.0
C1616 C 0.20369 0.8681 0.72191 0.0
C1617 C 0.20632 0.89965 0.65654 0.0
C1618 C 0.1957 0.87864 0.65942 0.0
C1619 C 0.19429 0.8692 0.6809 0.0
C1620 C 0.18856 0.86494 0.64003 0.0
C1621 C 0.20721 0.9112 0.63407 0.0
C1622 C 0.16641 0.85726 0.6379 0.0
C1623 C 0.16043 0.84315 0.6201 0.0
C1624 C 0.17662 0.83631 0.6044 0.0
C1625 C 0.19875 0.84415 0.6067 0.0
C1626 C 0.20463 0.85821 0.62433 0.0
H1627 H 0.20873 0.92966 0.63601 0.0
H1628 H 0.22214 0.90526 0.62473 0.0
H1629 H 0.19206 0.90746 0.62393 0.0
H1630 H 0.15383 0.86209 0.65005 0.0
H1631 H 0.14328 0.83735 0.61884 0.0
H1632 H 0.72481 0.43614 0.75015 0.0
H1633 H 0.74758 0.42664 0.78282 0.0
H1634 H 0.8071 0.42711 0.74188 0.0
H1635 H 0.78454 0.43641 0.70907 0.0
H1636 H 0.80241 0.38858 0.76676 0.0
H1637 H 0.79156 0.46296 0.82079 0.0
H1638 H 0.76528 0.45235 0.81076 0.0
H1639 H 0.78541 0.46332 0.79114 0.0
C1640 C 0.74277 0.43452 0.74812 0.0
C1641 C 0.7528 0.43696 0.72695 0.0
C1642 C 0.7558 0.42928 0.76685 0.0
C1643 C 0.77908 0.42652 0.76481 0.0
C1644 C 0.7892 0.42935 0.74383 0.0
H1645 H 0.85438 0.35708 0.87309 0.0
H1646 H 0.85053 0.38093 0.83956 0.0
C1647 C 0.77622 0.43462 0.7251 0.0
C1648 C 0.79237 0.41853 0.78416 0.0
H1649 H 0.80158 0.42842 0.83964 0.0
C1650 C 0.80279 0.3975 0.78258 0.0
C1651 C 0.79305 0.43037 0.80463 0.0
C1652 C 0.78342 0.45362 0.8069 0.0
C1653 C 0.81206 0.38708 0.80151 0.0
C1654 C 0.81109 0.39818 0.82241 0.0
C1655 C 0.80227 0.41995 0.82357 0.0
C1656 C 0.81482 0.3859 0.8436 0.0
C1657 C 0.82117 0.36359 0.79941 0.0
C1658 C 0.79621 0.38141 0.85713 0.0
C1659 C 0.79833 0.36794 0.876 0.0
C1660 C 0.81917 0.35865 0.88188 0.0
C1661 C 0.83811 0.36392 0.86888 0.0
C1662 C 0.83592 0.37744 0.84975 0.0
H1663 H 0.81895 0.35666 0.78228 0.0
H1664 H 0.83932 0.3636 0.8034 0.0
H1665 H 0.81269 0.3523 0.81154 0.0
H1666 H 0.7798 0.38776 0.85268 0.0
H1667 H 0.78342 0.36453 0.88579 0.0
H1668 H 0.7658 0.56527 0.25613 0.0
H1669 H 0.74719 0.57954 0.28963 0.0
H1670 H 0.68304 0.57349 0.25697 0.0
H1671 H 0.70148 0.55952 0.22323 0.0
H1672 H 0.68966 0.61484 0.27502 0.0
H1673 H 0.70962 0.5498 0.33792 0.0
H1674 H 0.73418 0.55943 0.32351 0.0
H1675 H 0.71253 0.54508 0.30818 0.0
C1676 C 0.7477 0.56663 0.25616 0.0
C1677 C 0.73516 0.56132 0.23695 0.0
C1678 C 0.73707 0.57464 0.2754 0.0
C1679 C 0.7137 0.57727 0.27589 0.0
C1680 C 0.70107 0.57145 0.25697 0.0
H1681 H 0.64061 0.65242 0.38108 0.0
H1682 H 0.64659 0.62733 0.34899 0.0
C1683 C 0.71168 0.56349 0.2377 0.0
C1684 C 0.7028 0.58808 0.29537 0.0
H1685 H 0.69981 0.5863 0.35241 0.0
C1686 C 0.69142 0.60838 0.29191 0.0
C1687 C 0.70501 0.57952 0.31734 0.0
C1688 C 0.7158 0.55713 0.32196 0.0
C1689 C 0.68355 0.62113 0.31001 0.0
C1690 C 0.68699 0.6132 0.33205 0.0
C1691 C 0.69727 0.59233 0.33545 0.0
C1692 C 0.68273 0.62756 0.35174 0.0
C1693 C 0.67286 0.64361 0.30557 0.0
C1694 C 0.70104 0.63567 0.36393 0.0
C1695 C 0.69774 0.64992 0.38208 0.0
C1696 C 0.67599 0.65631 0.38855 0.0
C1697 C 0.65757 0.64789 0.37647 0.0
C1698 C 0.66093 0.63361 0.35815 0.0
H1699 H 0.6737 0.6484 0.2876 0.0
H1700 H 0.65498 0.64304 0.31064 0.0
H1701 H 0.6812 0.65682 0.31566 0.0
H1702 H 0.71799 0.63119 0.35919 0.0
H1703 H 0.71235 0.65592 0.39101 0.0
H1704 H 0.26367 0.27083 0.0798 0.0
H1705 H 0.23046 0.28927 0.09489 0.0
H1706 H 0.19283 0.22804 0.08741 0.0
H1707 H 0.22609 0.20924 0.0726 0.0
H1708 H 0.18815 0.29595 0.0762 0.0
H1709 H 0.18367 0.2441 0.15328 0.0
H1710 H 0.20802 0.24451 0.13537 0.0
H1711 H 0.18395 0.22798 0.1279 0.0
C1712 C 0.24836 0.2612 0.08139 0.0
C1713 C 0.24761 0.23845 0.07517 0.0
C1714 C 0.22939 0.27183 0.08996 0.0
C1715 C 0.20931 0.25994 0.09252 0.0
C1716 C 0.20832 0.23738 0.08594 0.0
H1717 H 0.0779 0.28499 0.14242 0.0
H1718 H 0.11055 0.27281 0.1212 0.0
C1719 C 0.22733 0.22668 0.07743 0.0
C1720 C 0.18949 0.27109 0.10236 0.0
H1721 H 0.15262 0.26781 0.14586 0.0
C1722 C 0.18042 0.28992 0.09149 0.0
C1723 C 0.17964 0.26329 0.12244 0.0
C1724 C 0.18942 0.244 0.13558 0.0
C1725 C 0.16124 0.30071 0.09986 0.0
C1726 C 0.15111 0.29247 0.11957 0.0
C1727 C 0.16042 0.27394 0.13063 0.0
C1728 C 0.13033 0.30216 0.12886 0.0
C1729 C 0.15158 0.32042 0.08737 0.0
C1730 C 0.13046 0.32309 0.13959 0.0
C1731 C 0.11171 0.33018 0.1518 0.0
C1732 C 0.09278 0.31626 0.15358 0.0
C1733 C 0.09231 0.29599 0.14158 0.0
C1734 C 0.11093 0.289 0.1294 0.0
H1735 H 0.15961 0.32283 0.07075 0.0
H1736 H 0.13327 0.31816 0.08495 0.0
H1737 H 0.15407 0.33588 0.0974 0.0
H1738 H 0.14544 0.33335 0.13953 0.0
H1739 H 0.11258 0.34583 0.16094 0.0
H1740 H 0.76416 0.22731 0.92914 0.0
H1741 H 0.73463 0.20456 0.91215 0.0
H1742 H 0.70621 0.2637 0.88196 0.0
H1743 H 0.73562 0.28673 0.89896 0.0
H1744 H 0.68506 0.21141 0.91665 0.0
H1745 H 0.71781 0.21671 0.82961 0.0
H1746 H 0.73513 0.22175 0.85393 0.0
H1747 H 0.71589 0.24285 0.84449 0.0
C1748 C 0.75163 0.23553 0.91891 0.0
C1749 C 0.7523 0.25886 0.91533 0.0
C1750 C 0.73478 0.22248 0.90926 0.0
C1751 C 0.71848 0.23246 0.89566 0.0
C1752 C 0.71886 0.25572 0.89225 0.0
H1753 H 0.59118 0.20317 0.84403 0.0
H1754 H 0.62387 0.21407 0.86591 0.0
C1755 C 0.73559 0.26884 0.90205 0.0
C1756 C 0.70093 0.21861 0.88506 0.0
H1757 H 0.68106 0.202 0.83414 0.0
C1758 C 0.68428 0.2091 0.89864 0.0
C1759 C 0.70025 0.21536 0.86163 0.0
C1760 C 0.7183 0.22452 0.84649 0.0
C1761 C 0.66622 0.19736 0.88921 0.0
C1762 C 0.66488 0.1952 0.86567 0.0
C1763 C 0.68216 0.20371 0.8522 0.0
C1764 C 0.64453 0.18657 0.85453 0.0
C1765 C 0.64844 0.18779 0.9044 0.0
C1766 C 0.64531 0.16737 0.84097 0.0
C1767 C 0.62651 0.16096 0.82847 0.0
C1768 C 0.6069 0.174 0.82904 0.0
C1769 C 0.60608 0.19284 0.84316 0.0
C1770 C 0.62469 0.19902 0.8558 0.0
H1771 H 0.65479 0.18543 0.92174 0.0
H1772 H 0.63404 0.19953 0.90508 0.0
H1773 H 0.64227 0.17146 0.89797 0.0
H1774 H 0.66061 0.15769 0.83966 0.0
H1775 H 0.62764 0.14646 0.81763 0.0
H1776 H 0.72538 0.78456 0.44378 0.0
H1777 H 0.75759 0.80631 0.4309 0.0
H1778 H 0.79367 0.7452 0.41753 0.0
H1779 H 0.76161 0.72319 0.43046 0.0
H1780 H 0.81886 0.78163 0.44022 0.0
H1781 H 0.77405 0.80837 0.36265 0.0
H1782 H 0.7605 0.81291 0.3892 0.0
H1783 H 0.76466 0.78487 0.37925 0.0
C1784 C 0.74022 0.77568 0.43829 0.0
C1785 C 0.74083 0.75208 0.43795 0.0
C1786 C 0.75857 0.78819 0.4309 0.0
C1787 C 0.77781 0.77732 0.42306 0.0
C1788 C 0.77887 0.75384 0.42352 0.0
H1789 H 0.89624 0.78139 0.35415 0.0
H1790 H 0.86501 0.77716 0.37975 0.0
C1791 C 0.76053 0.7413 0.43086 0.0
C1792 C 0.79651 0.79019 0.41323 0.0
H1793 H 0.81223 0.81701 0.36524 0.0
C1794 C 0.81736 0.78974 0.42401 0.0
C1795 C 0.79436 0.80102 0.39226 0.0
C1796 C 0.77226 0.80184 0.38 0.0
C1797 C 0.83646 0.79877 0.41375 0.0
C1798 C 0.83465 0.80799 0.39199 0.0
C1799 C 0.81352 0.80992 0.38193 0.0
C1800 C 0.85467 0.81186 0.37794 0.0
C1801 C 0.85858 0.79755 0.4259 0.0
C1802 C 0.859 0.83278 0.36803 0.0
C1803 C 0.877 0.8353 0.35312 0.0
C1804 C 0.89053 0.81679 0.34766 0.0
C1805 C 0.88611 0.796 0.35784 0.0
C1806 C 0.8684 0.79357 0.37274 0.0
H1807 H 0.85611 0.79787 0.44435 0.0
H1808 H 0.86704 0.78156 0.42162 0.0
H1809 H 0.86976 0.81162 0.42106 0.0
H1810 H 0.84835 0.84701 0.37164 0.0
H1811 H 0.87998 0.85151 0.34551 0.0
H1812 H 0.38517 0.70742 0.64448 0.0
H1813 H 0.35569 0.71515 0.61763 0.0
H1814 H 0.34769 0.6444 0.60537 0.0
H1815 H 0.37744 0.63628 0.63272 0.0
H1816 H 0.3523 0.70287 0.5711 0.0
H1817 H 0.28451 0.66705 0.62465 0.0
H1818 H 0.31184 0.67354 0.63583 0.0
H1819 H 0.30821 0.64963 0.61801 0.0
C1820 C 0.37725 0.69338 0.63616 0.0
C1821 C 0.38355 0.67117 0.64095 0.0
C1822 C 0.36046 0.69789 0.62067 0.0
C1823 C 0.3495 0.68037 0.60962 0.0
C1824 C 0.35591 0.65814 0.61391 0.0
H1825 H 0.22366 0.70983 0.54116 0.0
H1826 H 0.25731 0.68903 0.5514 0.0
C1827 C 0.37287 0.65355 0.6295 0.0
C1828 C 0.33069 0.68594 0.59455 0.0
H1829 H 0.27366 0.68826 0.59357 0.0
C1830 C 0.33507 0.69931 0.57569 0.0
C1831 C 0.30831 0.68119 0.6006 0.0
C1832 C 0.30275 0.66716 0.62091 0.0
C1833 C 0.31759 0.70903 0.56336 0.0
C1834 C 0.29525 0.70556 0.57037 0.0
C1835 C 0.29084 0.69098 0.58832 0.0
C1836 C 0.27629 0.7184 0.56087 0.0
C1837 C 0.32324 0.72336 0.54332 0.0
C1838 C 0.27594 0.74188 0.56248 0.0
C1839 C 0.25671 0.75389 0.55661 0.0
C1840 C 0.23742 0.74255 0.54931 0.0
C1841 C 0.23817 0.71909 0.54689 0.0
C1842 C 0.2574 0.70715 0.55266 0.0
H1843 H 0.33945 0.71825 0.53574 0.0
H1844 H 0.30996 0.72237 0.53033 0.0
H1845 H 0.32485 0.74107 0.54873 0.0
H1846 H 0.29016 0.75087 0.56928 0.0
H1847 H 0.25666 0.77191 0.55874 0.0
H1848 H 0.8504 0.87584 0.63692 0.0
H1849 H 0.87459 0.84406 0.64672 0.0
H1850 H 0.88007 0.86897 0.71431 0.0
H1851 H 0.85662 0.90078 0.70468 0.0
H1852 H 0.92014 0.85263 0.69838 0.0
H1853 H 0.85049 0.79218 0.68407 0.0
H1854 H 0.85825 0.80915 0.66044 0.0
H1855 H 0.84603 0.82206 0.68472 0.0
C1856 C 0.85698 0.87467 0.65378 0.0
C1857 C 0.85129 0.89071 0.67007 0.0
C1858 C 0.8707 0.85646 0.65938 0.0
C1859 C 0.87876 0.85398 0.68136 0.0
C1860 C 0.87397 0.87051 0.69728 0.0
H1861 H 0.93309 0.75935 0.77351 0.0
H1862 H 0.92115 0.79292 0.75317 0.0
C1863 C 0.86042 0.88867 0.69172 0.0
C1864 C 0.89106 0.83365 0.68853 0.0
H1865 H 0.88408 0.77775 0.69836 0.0
C1866 C 0.91239 0.83619 0.69815 0.0
C1867 C 0.88083 0.81226 0.6883 0.0
C1868 C 0.85758 0.80864 0.679 0.0
C1869 C 0.92355 0.81799 0.70801 0.0
C1870 C 0.91298 0.79682 0.70841 0.0
C1871 C 0.89208 0.79407 0.69803 0.0
C1872 C 0.92267 0.77742 0.72043 0.0
C1873 C 0.94643 0.82157 0.71812 0.0
C1874 C 0.92744 0.75765 0.70875 0.0
C1875 C 0.93415 0.73847 0.72029 0.0
C1876 C 0.93603 0.7386 0.74381 0.0
C1877 C 0.93185 0.75866 0.75543 0.0
C1878 C 0.92516 0.7779 0.74382 0.0
H1879 H 0.95463 0.83683 0.71128 0.0
H1880 H 0.9447 0.82371 0.7365 0.0
H1881 H 0.95745 0.80691 0.71502 0.0
H1882 H 0.9255 0.75694 0.69072 0.0
H1883 H 0.93731 0.72336 0.71075 0.0
H1884 H 0.66039 0.10914 0.15682 0.0
H1885 H 0.63701 0.13782 0.17448 0.0
H1886 H 0.64045 0.10225 0.23727 0.0
H1887 H 0.66393 0.07362 0.21994 0.0
H1888 H 0.59506 0.13445 0.19911 0.0
H1889 H 0.66605 0.16541 0.25099 0.0
H1890 H 0.67009 0.14743 0.22702 0.0
H1891 H 0.6603 0.13592 0.25304 0.0
C1892 C 0.65604 0.1073 0.17434 0.0
C1893 C 0.66427 0.08921 0.18703 0.0
C1894 C 0.64265 0.12368 0.18437 0.0
C1895 C 0.63735 0.12226 0.20722 0.0
C1896 C 0.6447 0.10378 0.21969 0.0
H1897 H 0.57689 0.22003 0.29717 0.0
H1898 H 0.59206 0.18534 0.28146 0.0
C1899 C 0.65808 0.08742 0.20972 0.0
C1900 C 0.62499 0.14063 0.21825 0.0
H1901 H 0.63094 0.18242 0.25675 0.0
C1902 C 0.60283 0.14493 0.21175 0.0
C1903 C 0.63524 0.15417 0.23476 0.0
C1904 C 0.65928 0.1507 0.2418 0.0
C1905 C 0.59056 0.16251 0.22142 0.0
C1906 C 0.60096 0.1763 0.23765 0.0
C1907 C 0.623 0.17173 0.24437 0.0
C1908 C 0.58983 0.19636 0.24699 0.0
C1909 C 0.56658 0.16605 0.2143 0.0
C1910 C 0.58359 0.21401 0.2328 0.0
C1911 C 0.57493 0.23381 0.24168 0.0
C1912 C 0.57254 0.23644 0.26498 0.0
C1913 C 0.5785 0.21857 0.27916 0.0
C1914 C 0.58715 0.19873 0.27023 0.0
H1915 H 0.55917 0.15049 0.20727 0.0
H1916 H 0.55609 0.17174 0.22858 0.0
H1917 H 0.566 0.17911 0.20108 0.0
H1918 H 0.58602 0.21273 0.21486 0.0
H1919 H 0.57058 0.24722 0.23025 0.0
H1920 H 0.44726 0.76991 0.2723 0.0
H1921 H 0.43256 0.73617 0.28997 0.0
H1922 H 0.4283 0.70401 0.22543 0.0
H1923 H 0.44334 0.73779 0.2075 0.0
H1924 H 0.39057 0.71982 0.28051 0.0
H1925 H 0.4551 0.65478 0.26513 0.0
H1926 H 0.46085 0.68439 0.26254 0.0
H1927 H 0.44663 0.66972 0.24042 0.0
C1928 C 0.44356 0.75556 0.26183 0.0
C1929 C 0.4463 0.7566 0.23843 0.0
C1930 C 0.43519 0.73627 0.27201 0.0
C1931 C 0.42946 0.71757 0.25906 0.0
C1932 C 0.43301 0.71814 0.23579 0.0
H1933 H 0.35181 0.59935 0.27208 0.0
H1934 H 0.37683 0.62982 0.26197 0.0
C1935 C 0.44151 0.73748 0.22555 0.0
C1936 C 0.41758 0.69852 0.26965 0.0
H1937 H 0.41919 0.64189 0.27735 0.0
C1938 C 0.39695 0.70281 0.2801 0.0
C1939 C 0.42597 0.6764 0.26906 0.0
C1940 C 0.44845 0.671 0.25887 0.0
C1941 C 0.384 0.68542 0.28918 0.0
C1942 C 0.39214 0.6632 0.28815 0.0
C1943 C 0.41306 0.65898 0.2782 0.0
C1944 C 0.37822 0.64394 0.29529 0.0
C1945 C 0.36127 0.69087 0.29883 0.0
C1946 C 0.37097 0.64153 0.31756 0.0
C1947 C 0.35641 0.62407 0.32347 0.0
C1948 C 0.349 0.60874 0.30718 0.0
C1949 C 0.35698 0.6109 0.28508 0.0
C1950 C 0.37141 0.62827 0.27923 0.0
H1951 H 0.35568 0.70804 0.29431 0.0
H1952 H 0.34849 0.67872 0.29288 0.0
H1953 H 0.36205 0.68976 0.31737 0.0
H1954 H 0.37635 0.65328 0.33028 0.0
H1955 H 0.35072 0.6228 0.34065 0.0
H1956 H 0.06618 0.23764 0.77995 0.0
H1957 H 0.06788 0.27485 0.79567 0.0
H1958 H 0.01871 0.29786 0.74792 0.0
H1959 H 0.01733 0.26019 0.73137 0.0
H1960 H 0.05251 0.32493 0.74829 0.0
H1961 H 0.03107 0.31199 0.83639 0.0
H1962 H 0.05128 0.29102 0.82939 0.0
H1963 H 0.02447 0.29129 0.81531 0.0
C1964 C 0.05543 0.25042 0.77286 0.0
C1965 C 0.04168 0.2459 0.75428 0.0
C1966 C 0.05615 0.27173 0.78218 0.0
C1967 C 0.0429 0.28907 0.77349 0.0
C1968 C 0.0288 0.28462 0.75515 0.0
H1969 H 0.10066 0.40912 0.83769 0.0
H1970 H 0.06928 0.3845 0.82711 0.0
C1971 C 0.02815 0.26315 0.74564 0.0
C1972 C 0.04679 0.3122 0.78165 0.0
H1973 H 0.06315 0.33861 0.82958 0.0
C1974 C 0.05401 0.32827 0.76609 0.0
C1975 C 0.04806 0.31714 0.80482 0.0
C1976 C 0.038 0.30196 0.82234 0.0
C1977 C 0.06542 0.34753 0.77312 0.0
C1978 C 0.07023 0.35031 0.79616 0.0
C1979 C 0.06015 0.33603 0.81185 0.0
C1980 C 0.08875 0.36499 0.80357 0.0
C1981 C 0.07365 0.36387 0.75567 0.0
C1982 C 0.11019 0.36139 0.79467 0.0
C1983 C 0.12794 0.37521 0.80065 0.0
C1984 C 0.12476 0.39277 0.81594 0.0
C1985 C 0.10358 0.39565 0.8259 0.0
C1986 C 0.08564 0.38178 0.81974 0.0
H1987 H 0.06183 0.3647 0.74132 0.0
H1988 H 0.07576 0.38095 0.76275 0.0
H1989 H 0.09005 0.35808 0.7491 0.0
H1990 H 0.11316 0.34797 0.78282 0.0
H1991 H 0.14412 0.37237 0.79292 0.0
H1992 H 0.65388 0.85197 0.87124 0.0
H1993 H 0.66788 0.87635 0.8413 0.0
H1994 H 0.73539 0.86755 0.86545 0.0
H1995 H 0.72165 0.84367 0.89557 0.0
H1996 H 0.72626 0.91148 0.85377 0.0
H1997 H 0.70073 0.85244 0.78645 0.0
H1998 H 0.67836 0.86125 0.80451 0.0
H1999 H 0.70087 0.84463 0.81564 0.0
C2000 C 0.67169 0.85529 0.87023 0.0
C2001 C 0.68664 0.84568 0.8857 0.0
C2002 C 0.67966 0.86916 0.85307 0.0
C2003 C 0.70271 0.87345 0.85097 0.0
C2004 C 0.71755 0.86441 0.86674 0.0
H2005 H 0.79291 0.93137 0.7538 0.0
H2006 H 0.77587 0.91702 0.7883 0.0
C2007 C 0.70963 0.85067 0.88392 0.0
C2008 C 0.71162 0.88671 0.83198 0.0
H2009 H 0.71668 0.88672 0.77506 0.0
C2010 C 0.72412 0.90614 0.83654 0.0
C2011 C 0.70893 0.87958 0.80955 0.0
C2012 C 0.69668 0.85824 0.80366 0.0
C2013 C 0.7339 0.91871 0.8192 0.0
C2014 C 0.73124 0.9115 0.79683 0.0
C2015 C 0.71857 0.89223 0.79227 0.0
C2016 C 0.74176 0.92328 0.77771 0.0
C2017 C 0.74683 0.93966 0.82489 0.0
C2018 C 0.72824 0.9318 0.76052 0.0
C2019 C 0.73788 0.93987 0.74083 0.0
C2020 C 0.76127 0.93946 0.73785 0.0
C2021 C 0.77487 0.93199 0.75559 0.0
C2022 C 0.76516 0.92386 0.77534 0.0
H2023 H 0.74282 0.94581 0.84199 0.0
H2024 H 0.76503 0.93597 0.8242 0.0
H2025 H 0.74324 0.9532 0.81263 0.0
H2026 H 0.71015 0.93147 0.76203 0.0
H2027 H 0.72688 0.94565 0.72759 0.0
H2028 H 0.73726 0.02056 0.25226 0.0
H2029 H 0.75326 0.02743 0.28948 0.0
H2030 H 0.80076 0.0736 0.26051 0.0
H2031 H 0.78558 0.06631 0.22349 0.0
H2032 H 0.8198 0.04892 0.29367 0.0
H2033 H 0.7383 0.08478 0.32179 0.0
H2034 H 0.73785 0.05593 0.31332 0.0
H2035 H 0.74344 0.07745 0.29298 0.0
C2036 C 0.75125 0.032 0.25384 0.0
C2037 C 0.75991 0.04313 0.23494 0.0
C2038 C 0.76035 0.03593 0.27511 0.0
C2039 C 0.77794 0.05134 0.27782 0.0
C2040 C 0.7872 0.06163 0.25884 0.0
H2041 H 0.80747 0.15138 0.36818 0.0
H2042 H 0.7992 0.12523 0.33797 0.0
C2043 C 0.77836 0.05753 0.23765 0.0
C2044 C 0.78566 0.05857 0.30028 0.0
H2045 H 0.76904 0.08946 0.34536 0.0
C2046 C 0.80867 0.05744 0.30523 0.0
C2047 C 0.77108 0.06973 0.31527 0.0
C2048 C 0.74633 0.07225 0.31061 0.0
C2049 C 0.81768 0.06841 0.32401 0.0
C2050 C 0.8032 0.08046 0.33829 0.0
C2051 C 0.78005 0.08022 0.33424 0.0
C2052 C 0.81164 0.09607 0.35558 0.0
C2053 C 0.84268 0.06832 0.32764 0.0
C2054 C 0.82221 0.08843 0.37517 0.0
C2055 C 0.8273 0.10353 0.39245 0.0
C2056 C 0.8215 0.12627 0.39035 0.0
C2057 C 0.812 0.13392 0.37026 0.0
C2058 C 0.80721 0.11899 0.35303 0.0
H2059 H 0.8518 0.06012 0.31365 0.0
H2060 H 0.84896 0.08574 0.32948 0.0
H2061 H 0.8466 0.0592 0.34336 0.0
H2062 H 0.82556 0.07075 0.37753 0.0
H2063 H 0.83441 0.09721 0.40791 0.0
H2064 H 0.21765 0.64269 0.07681 0.0
H2065 H 0.22935 0.61713 0.10638 0.0
H2066 H 0.16751 0.62925 0.14172 0.0
H2067 H 0.15544 0.65488 0.11187 0.0
H2068 H 0.23411 0.63422 0.15017 0.0
H2069 H 0.17735 0.56034 0.14776 0.0
H2070 H 0.18136 0.57863 0.12393 0.0
H2071 H 0.16407 0.5874 0.14691 0.0
C2072 C 0.20631 0.63966 0.09066 0.0
C2073 C 0.18573 0.65103 0.09219 0.0
C2074 C 0.21301 0.62495 0.10748 0.0
C2075 C 0.19928 0.62128 0.12615 0.0
C2076 C 0.17818 0.63162 0.12723 0.0
H2077 H 0.22251 0.56729 0.25741 0.0
H2078 H 0.20637 0.58045 0.22229 0.0
C2079 C 0.17136 0.64633 0.11025 0.0
C2080 C 0.20853 0.60919 0.14566 0.0
H2081 H 0.2021 0.56304 0.17882 0.0
C2082 C 0.22724 0.61855 0.15635 0.0
C2083 C 0.19934 0.58892 0.15369 0.0
C2084 C 0.17951 0.57806 0.14244 0.0
C2085 C 0.23688 0.60837 0.17513 0.0
C2086 C 0.22787 0.58796 0.18311 0.0
C2087 C 0.2091 0.57856 0.17245 0.0
C2088 C 0.23704 0.57698 0.20333 0.0
C2089 C 0.25618 0.61998 0.18667 0.0
C2090 C 0.25947 0.56995 0.20407 0.0
C2091 C 0.26889 0.56262 0.22421 0.0
C2092 C 0.25592 0.56201 0.24387 0.0
C2093 C 0.23307 0.56774 0.24266 0.0
C2094 C 0.22374 0.57518 0.22257 0.0
H2095 H 0.25751 0.63788 0.1817 0.0
H2096 H 0.25436 0.6191 0.20517 0.0
H2097 H 0.27207 0.61156 0.182 0.0
H2098 H 0.26987 0.57084 0.18923 0.0
H2099 H 0.28645 0.55807 0.2245 0.0
H2100 H 0.21022 0.41026 0.73778 0.0
H2101 H 0.23657 0.39784 0.70889 0.0
H2102 H 0.29118 0.42817 0.74512 0.0
H2103 H 0.2651 0.44063 0.77412 0.0
H2104 H 0.28877 0.4372 0.69619 0.0
H2105 H 0.28517 0.34719 0.71953 0.0
H2106 H 0.25832 0.36055 0.71663 0.0
H2107 H 0.27705 0.36936 0.73847 0.0
C2108 C 0.22781 0.41435 0.73958 0.0
C2109 C 0.23558 0.42628 0.75831 0.0
C2110 C 0.24282 0.40718 0.72313 0.0
C2111 C 0.26577 0.41191 0.72512 0.0
C2112 C 0.27352 0.42428 0.74345 0.0
H2113 H 0.34917 0.33945 0.62893 0.0
H2114 H 0.34217 0.36047 0.66363 0.0
C2115 C 0.25858 0.4313 0.75998 0.0
C2116 C 0.28159 0.40384 0.70797 0.0
H2117 H 0.30052 0.35587 0.68363 0.0
C2118 C 0.2917 0.41945 0.69361 0.0
C2119 C 0.28576 0.38075 0.70509 0.0
C2120 C 0.2762 0.36345 0.72085 0.0
C2121 C 0.3046 0.41237 0.67528 0.0
C2122 C 0.3072 0.38917 0.6713 0.0
C2123 C 0.29848 0.37367 0.68669 0.0
C2124 C 0.31534 0.38046 0.64963 0.0
C2125 C 0.31465 0.42973 0.65991 0.0
C2126 C 0.30298 0.3852 0.63024 0.0
C2127 C 0.30676 0.37315 0.61066 0.0
C2128 C 0.32302 0.35616 0.61009 0.0
C2129 C 0.33662 0.35256 0.62895 0.0
C2130 C 0.33263 0.36451 0.64873 0.0
H2131 H 0.31817 0.44555 0.66905 0.0
H2132 H 0.3304 0.42361 0.65215 0.0
H2133 H 0.30254 0.43362 0.64635 0.0
H2134 H 0.28926 0.39708 0.63067 0.0
H2135 H 0.29611 0.3763 0.5963 0.0
H2136 H 0.89885 0.71265 0.84541 0.0
H2137 H 0.86846 0.72273 0.8705 0.0
H2138 H 0.84166 0.65581 0.86554 0.0
H2139 H 0.87217 0.64546 0.83995 0.0
H2140 H 0.81058 0.68951 0.85707 0.0
H2141 H 0.85604 0.70741 0.93583 0.0
H2142 H 0.868 0.72159 0.91217 0.0
H2143 H 0.86829 0.69145 0.91323 0.0
C2144 C 0.88667 0.69991 0.84975 0.0
C2145 C 0.88791 0.67823 0.84055 0.0
C2146 C 0.86942 0.70568 0.86434 0.0
C2147 C 0.85306 0.68991 0.87022 0.0
C2148 C 0.85432 0.66813 0.86138 0.0
H2149 H 0.72461 0.71619 0.93464 0.0
H2150 H 0.75813 0.6971 0.92118 0.0
C2151 C 0.87171 0.66227 0.84676 0.0
C2152 C 0.83359 0.6971 0.88376 0.0
H2153 H 0.81929 0.72376 0.93232 0.0
C2154 C 0.81238 0.6966 0.8737 0.0
C2155 C 0.83608 0.70651 0.90537 0.0
C2156 C 0.85831 0.70659 0.91737 0.0
C2157 C 0.79373 0.70622 0.88422 0.0
C2158 C 0.79634 0.71623 0.90555 0.0
C2159 C 0.81741 0.71615 0.91593 0.0
C2160 C 0.7774 0.72748 0.91685 0.0
C2161 C 0.77159 0.70649 0.87197 0.0
C2162 C 0.7776 0.75079 0.91997 0.0
C2163 C 0.75847 0.76182 0.92784 0.0
C2164 C 0.73888 0.74963 0.93262 0.0
C2165 C 0.7393 0.72612 0.93077 0.0
C2166 C 0.75842 0.71515 0.92306 0.0
H2167 H 0.77357 0.70253 0.85389 0.0
H2168 H 0.7603 0.69375 0.87945 0.0
H2169 H 0.76337 0.72311 0.87353 0.0
H2170 H 0.79219 0.76055 0.91535 0.0
H2171 H 0.75868 0.77992 0.92914 0.0
H2172 H 0.26697 0.71971 0.05917 0.0
H2173 H 0.30113 0.73704 0.07387 0.0
H2174 H 0.26974 0.80202 0.07081 0.0
H2175 H 0.23551 0.78496 0.05639 0.0
H2176 H 0.32932 0.77242 0.05724 0.0
H2177 H 0.28708 0.79461 0.13728 0.0
H2178 H 0.27519 0.77505 0.11754 0.0
H2179 H 0.27352 0.80467 0.11236 0.0
C2180 C 0.2674 0.73772 0.0614 0.0
C2181 C 0.2484 0.7509 0.05688 0.0
C2182 C 0.28692 0.74757 0.06978 0.0
C2183 C 0.28775 0.77073 0.07378 0.0
C2184 C 0.26925 0.78406 0.06823 0.0
H2185 H 0.38728 0.85021 0.14612 0.0
H2186 H 0.35562 0.83952 0.12226 0.0
C2187 C 0.24972 0.77425 0.05994 0.0
C2188 C 0.30755 0.78077 0.08475 0.0
H2189 H 0.32448 0.8064 0.13294 0.0
C2190 C 0.3283 0.77993 0.07375 0.0
C2191 C 0.30607 0.79058 0.10627 0.0
C2192 C 0.28433 0.79118 0.1192 0.0
C2193 C 0.3477 0.78864 0.08378 0.0
C2194 C 0.34629 0.79805 0.10547 0.0
C2195 C 0.32545 0.79929 0.11625 0.0
C2196 C 0.3664 0.80517 0.11808 0.0
C2197 C 0.36953 0.78772 0.07106 0.0
C2198 C 0.38285 0.78937 0.12363 0.0
C2199 C 0.40085 0.79536 0.13725 0.0
C2200 C 0.40271 0.81728 0.14574 0.0
C2201 C 0.38638 0.83321 0.13984 0.0
C2202 C 0.3683 0.82715 0.12621 0.0
H2203 H 0.36668 0.78651 0.05271 0.0
H2204 H 0.37998 0.80272 0.07453 0.0
H2205 H 0.37903 0.77264 0.07636 0.0
H2206 H 0.38143 0.77219 0.11796 0.0
H2207 H 0.41309 0.78263 0.14144 0.0
H2208 H 0.2487 0.23813 0.56992 0.0
H2209 H 0.21281 0.22494 0.58406 0.0
H2210 H 0.18952 0.29312 0.5894 0.0
H2211 H 0.22573 0.30664 0.57551 0.0
H2212 H 0.18276 0.26879 0.62772 0.0
H2213 H 0.15168 0.22085 0.5548 0.0
H2214 H 0.17955 0.21278 0.5626 0.0
H2215 H 0.17434 0.2408 0.55267 0.0
C2216 C 0.23592 0.25039 0.57385 0.0
C2217 C 0.24015 0.27348 0.57159 0.0
C2218 C 0.2153 0.24277 0.58176 0.0
C2219 C 0.19834 0.25802 0.58738 0.0
C2220 C 0.20234 0.28107 0.58494 0.0
H2221 H 0.0735 0.22995 0.65977 0.0
H2222 H 0.10141 0.24847 0.63619 0.0
C2223 C 0.22304 0.28876 0.57702 0.0
C2224 C 0.17726 0.24978 0.59758 0.0
H2225 H 0.13493 0.21193 0.59044 0.0
C2226 C 0.17205 0.25668 0.61943 0.0
C2227 C 0.16335 0.23395 0.58672 0.0
C2228 C 0.16738 0.22683 0.56281 0.0
C2229 C 0.15395 0.24732 0.63116 0.0
C2230 C 0.14058 0.23085 0.62061 0.0
C2231 C 0.1453 0.22449 0.59849 0.0
C2232 C 0.12244 0.21917 0.63281 0.0
C2233 C 0.14991 0.25435 0.65511 0.0
C2234 C 0.12465 0.19635 0.63798 0.0
C2235 C 0.10872 0.18566 0.65141 0.0
C2236 C 0.09024 0.19762 0.65984 0.0
C2237 C 0.08758 0.22026 0.65372 0.0
C2238 C 0.10354 0.23092 0.6403 0.0
H2239 H 0.16417 0.26408 0.66206 0.0
H2240 H 0.13471 0.26503 0.65588 0.0
H2241 H 0.147 0.23948 0.66592 0.0
H2242 H 0.13911 0.187 0.63226 0.0
H2243 H 0.11125 0.1682 0.65569 0.0
H2244 H 0.62579 0.34462 0.33883 0.0
H2245 H 0.66124 0.33856 0.35903 0.0
H2246 H 0.63372 0.27899 0.38935 0.0
H2247 H 0.59861 0.28489 0.36946 0.0
H2248 H 0.66229 0.30585 0.41837 0.0
H2249 H 0.69968 0.28475 0.33531 0.0
H2250 H 0.68684 0.3118 0.33889 0.0
H2251 H 0.66978 0.28706 0.33909 0.0
C2252 C 0.62718 0.33062 0.3503 0.0
C2253 C 0.60965 0.31502 0.35237 0.0
C2254 C 0.6474 0.32713 0.36171 0.0
C2255 C 0.6501 0.30817 0.37541 0.0
C2256 C 0.63195 0.29369 0.37883 0.0
H2257 H 0.73881 0.20697 0.40958 0.0
H2258 H 0.71039 0.23327 0.39623 0.0
C2259 C 0.61195 0.29702 0.36736 0.0
C2260 C 0.67226 0.30134 0.38403 0.0
H2261 H 0.71943 0.27372 0.36728 0.0
C2262 C 0.67514 0.29939 0.40728 0.0
C2263 C 0.68877 0.29269 0.36939 0.0
C2264 C 0.68624 0.29401 0.34426 0.0
C2265 C 0.69356 0.28786 0.41627 0.0
C2266 C 0.70934 0.27814 0.40157 0.0
C2267 C 0.70717 0.28123 0.37841 0.0
C2268 C 0.72678 0.26264 0.40973 0.0
C2269 C 0.69529 0.28483 0.4413 0.0
C2270 C 0.74537 0.27058 0.42161 0.0
C2271 C 0.76168 0.25561 0.42922 0.0
C2272 C 0.75961 0.23246 0.42509 0.0
C2273 C 0.74091 0.22464 0.41311 0.0
C2274 C 0.72469 0.23964 0.40543 0.0
H2275 H 0.68066 0.29198 0.45031 0.0
H2276 H 0.69663 0.26674 0.44547 0.0
H2277 H 0.7107 0.29318 0.44749 0.0
H2278 H 0.74728 0.28832 0.42492 0.0
H2279 H 0.77588 0.26221 0.4384 0.0
H2280 H 0.95496 0.33567 0.16755 0.0
H2281 H 0.93634 0.33985 0.13131 0.0
H2282 H 0.98252 0.29269 0.10197 0.0
H2283 H 0.00089 0.28796 0.13812 0.0
H2284 H 0.95609 0.35596 0.09292 0.0
H2285 H 0.92313 0.27015 0.07855 0.0
H2286 H 0.93288 0.27943 0.10561 0.0
H2287 H 0.9526 0.27106 0.08443 0.0
C2288 C 0.96084 0.32576 0.15353 0.0
C2289 C 0.97941 0.31143 0.15581 0.0
C2290 C 0.95027 0.3283 0.13279 0.0
C2291 C 0.95799 0.31652 0.11396 0.0
C2292 C 0.97602 0.30165 0.11633 0.0
H2293 H 0.90769 0.31576 0.97646 0.0
H2294 H 0.93514 0.31528 0.00711 0.0
C2295 C 0.98652 0.29899 0.13707 0.0
C2296 C 0.94799 0.32078 0.09163 0.0
H2297 H 0.92057 0.29559 0.04827 0.0
C2298 C 0.94834 0.34275 0.08314 0.0
C2299 C 0.9381 0.30349 0.07879 0.0
C2300 C 0.93643 0.27975 0.08736 0.0
C2301 C 0.93877 0.34795 0.0623 0.0
C2302 C 0.92851 0.33075 0.04971 0.0
C2303 C 0.92872 0.30869 0.05787 0.0
C2304 C 0.91502 0.33551 0.02946 0.0
C2305 C 0.93953 0.3718 0.05397 0.0
C2306 C 0.8951 0.34776 0.03164 0.0
C2307 C 0.87946 0.34793 0.0143 0.0
C2308 C 0.88351 0.33595 0.99446 0.0
C2309 C 0.90431 0.32538 0.99148 0.0
C2310 C 0.9199 0.32496 0.00901 0.0
H2311 H 0.95333 0.38139 0.06197 0.0
H2312 H 0.9417 0.37238 0.0355 0.0
H2313 H 0.9235 0.38023 0.05818 0.0
H2314 H 0.89085 0.35573 0.04737 0.0
H2315 H 0.86348 0.35611 0.01704 0.0
H2316 H 0.60351 0.66129 0.5129 0.0
H2317 H 0.57007 0.66564 0.5361 0.0
H2318 H 0.54304 0.71291 0.4886 0.0
H2319 H 0.57635 0.70816 0.46493 0.0
H2320 H 0.55283 0.72854 0.53543 0.0
H2321 H 0.50047 0.65177 0.532 0.0
H2322 H 0.53018 0.64676 0.53277 0.0
H2323 H 0.51809 0.6607 0.50899 0.0
C2324 C 0.59 0.67186 0.50694 0.0
C2325 C 0.59243 0.68437 0.48717 0.0
C2326 C 0.57092 0.67433 0.52017 0.0
C2327 C 0.55414 0.68956 0.51399 0.0
C2328 C 0.55576 0.70092 0.49348 0.0
H2329 H 0.4556 0.71098 0.62142 0.0
H2330 H 0.47098 0.71538 0.58358 0.0
C2331 C 0.5747 0.69809 0.47995 0.0
C2332 C 0.53738 0.69622 0.53088 0.0
H2333 H 0.4979 0.67393 0.5656 0.0
C2334 C 0.5403 0.71692 0.54166 0.0
C2335 C 0.52116 0.681 0.53891 0.0
C2336 C 0.51709 0.65886 0.52748 0.0
C2337 C 0.52866 0.72199 0.56142 0.0
C2338 C 0.51373 0.70602 0.57038 0.0
C2339 C 0.50944 0.68612 0.55862 0.0
C2340 C 0.50503 0.70797 0.59341 0.0
C2341 C 0.5333 0.74375 0.57335 0.0
C2342 C 0.51929 0.703 0.6114 0.0
C2343 C 0.51057 0.7002 0.6329 0.0
C2344 C 0.48749 0.70257 0.63675 0.0
C2345 C 0.4735 0.70929 0.61899 0.0
C2346 C 0.4822 0.71169 0.59736 0.0
H2347 H 0.54155 0.75615 0.56218 0.0
H2348 H 0.51751 0.75107 0.57994 0.0
H2349 H 0.54453 0.7405 0.58782 0.0
H2350 H 0.53695 0.69991 0.60855 0.0
H2351 H 0.5217 0.69499 0.64627 0.0
H2352 H 0.41201 0.19348 0.01932 0.0
H2353 H 0.44378 0.19426 0.99289 0.0
H2354 H 0.3998 0.17348 0.93952 0.0
H2355 H 0.36826 0.17288 0.96545 0.0
H2356 H 0.44879 0.15142 0.94678 0.0
H2357 H 0.44089 0.24402 0.93693 0.0
H2358 H 0.43943 0.23086 0.96415 0.0
H2359 H 0.4167 0.22765 0.94482 0.0
C2360 C 0.40932 0.18861 0.00205 0.0
C2361 C 0.3877 0.18324 0.99435 0.0
C2362 C 0.42738 0.18919 0.98702 0.0
C2363 C 0.42395 0.18409 0.96432 0.0
C2364 C 0.40267 0.17753 0.95698 0.0
H2365 H 0.46559 0.16767 0.83335 0.0
H2366 H 0.44954 0.16938 0.87083 0.0
C2367 C 0.3847 0.17721 0.97181 0.0
C2368 C 0.4418 0.18677 0.94747 0.0
H2369 H 0.4603 0.22444 0.90859 0.0
C2370 C 0.45187 0.16745 0.93878 0.0
C2371 C 0.44573 0.20773 0.93716 0.0
C2372 C 0.43522 0.22887 0.94614 0.0
C2373 C 0.46469 0.16835 0.91912 0.0
C2374 C 0.46694 0.18901 0.90767 0.0
C2375 C 0.45833 0.20861 0.91731 0.0
C2376 C 0.47598 0.18997 0.88462 0.0
C2377 C 0.47495 0.14702 0.91027 0.0
C2378 C 0.4955 0.20208 0.87968 0.0
C2379 C 0.50469 0.20132 0.8581 0.0
C2380 C 0.4944 0.18847 0.84119 0.0
C2381 C 0.47409 0.17754 0.84599 0.0
C2382 C 0.46496 0.17834 0.86746 0.0
H2383 H 0.47778 0.13468 0.92393 0.0
H2384 H 0.46334 0.13931 0.89796 0.0
H2385 H 0.49114 0.15038 0.90174 0.0
H2386 H 0.50406 0.21141 0.89268 0.0
H2387 H 0.52036 0.20993 0.85497 0.0
H2388 H 0.08755 0.82919 0.49514 0.0
H2389 H 0.05445 0.82269 0.4721 0.0
H2390 H 0.03671 0.76603 0.51336 0.0
H2391 H 0.06978 0.77289 0.53684 0.0
H2392 H 0.04752 0.7559 0.46826 0.0
H2393 H 0.98537 0.82445 0.4718 0.0
H2394 H 0.01363 0.83473 0.47132 0.0
H2395 H 0.00418 0.81823 0.49474 0.0
C2396 C 0.07587 0.81617 0.50004 0.0
C2397 C 0.08102 0.80163 0.51777 0.0
C2398 C 0.05695 0.81243 0.48688 0.0
C2399 C 0.04308 0.7939 0.49106 0.0
C2400 C 0.04708 0.78056 0.51003 0.0
H2401 H 0.95752 0.77018 0.37336 0.0
H2402 H 0.96847 0.76612 0.41273 0.0
C2403 C 0.06585 0.78458 0.52351 0.0
C2404 C 0.02813 0.78602 0.47293 0.0
H2405 H 0.98937 0.80557 0.43581 0.0
C2406 C 0.03426 0.76635 0.46155 0.0
C2407 C 0.01084 0.79961 0.46422 0.0
C2408 C 0.00295 0.82033 0.47629 0.0
C2409 C 0.02502 0.76111 0.4406 0.0
C2410 C 0.0093 0.77587 0.43093 0.0
C2411 C 0.0016 0.79436 0.44324 0.0
C2412 C 0.00325 0.7744 0.40698 0.0
C2413 C 0.0331 0.74056 0.42834 0.0
C2414 C 0.01935 0.77989 0.39074 0.0
C2415 C 0.01315 0.78247 0.36835 0.0
C2416 C 0.99076 0.7794 0.36178 0.0
C2417 C 0.97496 0.77243 0.37786 0.0
C2418 C 0.98112 0.77022 0.40037 0.0
H2419 H 0.04043 0.72806 0.44002 0.0
H2420 H 0.01919 0.7326 0.41888 0.0
H2421 H 0.04625 0.74552 0.41616 0.0
H2422 H 0.03648 0.78342 0.39561 0.0
H2423 H 0.02566 0.7879 0.35636 0.0
H2424 H 0.13202 0.02342 0.27536 0.0
H2425 H 0.09429 0.00727 0.27367 0.0
H2426 H 0.11967 0.9449 0.29976 0.0
H2427 H 0.15733 0.96085 0.30175 0.0
H2428 H 0.08222 0.94742 0.25949 0.0
H2429 H 0.06652 0.98997 0.3412 0.0
H2430 H 0.08068 0.00438 0.31868 0.0
H2431 H 0.0946 0.98209 0.33319 0.0
C2432 C 0.12973 0.00603 0.28004 0.0
C2433 C 0.14762 0.99343 0.28888 0.0
C2434 C 0.10815 -0.00309 0.27916 0.0
C2435 C 0.10432 0.97505 0.28681 0.0
C2436 C 0.12241 0.96185 0.29385 0.0
H2437 H 0.02054 0.87838 0.3354 0.0
H2438 H 0.04631 0.90957 0.32913 0.0
C2439 C 0.14389 0.97098 0.29495 0.0
C2440 C 0.08136 0.9665 0.28999 0.0
H2441 H 0.04088 0.96208 0.33017 0.0
C2442 C 0.07279 0.95105 0.27459 0.0
C2443 C 0.06933 0.97128 0.30983 0.0
C2444 C 0.0781 0.98783 0.32679 0.0
C2445 C 0.05293 0.9393 0.2791 0.0
C2446 C 0.04158 0.94313 0.29956 0.0
C2447 C 0.04956 0.95942 0.31443 0.0
C2448 C 0.02386 0.92767 0.3072 0.0
C2449 C 0.04497 0.92174 0.26275 0.0
C2450 C 0.00229 0.92828 0.29789 0.0
C2451 C 0.98736 0.91059 0.30175 0.0
C2452 C 0.99407 0.89204 0.31464 0.0
C2453 C 0.01498 0.89249 0.32541 0.0
C2454 C 0.02971 0.91025 0.32181 0.0
H2455 H 0.05602 0.92046 0.24783 0.0
H2456 H 0.04431 0.90513 0.27113 0.0
H2457 H 0.02776 0.92585 0.25705 0.0
H2458 H -0.00243 0.94166 0.28657 0.0
H2459 H 0.97142 0.91051 0.29306 0.0
H2460 H 0.54064 0.0674 0.77007 0.0
H2461 H 0.51842 0.03287 0.76627 0.0
H2462 H 0.47197 0.0575 0.81584 0.0
H2463 H 0.49385 0.09179 0.81947 0.0
H2464 H 0.4789 0.0087 0.8156 0.0
H2465 H 0.45815 0.0464 0.73249 0.0
H2466 H 0.48693 0.0405 0.7393 0.0
H2467 H 0.47238 0.06247 0.75375 0.0
C2468 C 0.52627 0.06488 0.78087 0.0
C2469 C 0.51879 0.08215 0.79499 0.0
C2470 C 0.51352 0.04529 0.77856 0.0
C2471 C 0.49341 0.04287 0.79053 0.0
C2472 C 0.48744 0.05906 0.80646 0.0
H2473 H 0.36242 0.01975 0.79959 0.0
H2474 H 0.40161 0.03 0.79398 0.0
C2475 C 0.49993 0.07863 0.80855 0.0
C2476 C 0.47633 0.02612 0.78414 0.0
H2477 H 0.43243 0.02111 0.74779 0.0
C2478 C 0.4692 0.01069 0.80036 0.0
C2479 C 0.46362 0.02897 0.76429 0.0
C2480 C 0.47049 0.04548 0.74639 0.0
C2481 C 0.44868 -0.00056 0.79812 0.0
C2482 C 0.43507 0.00393 0.7793 0.0
C2483 C 0.44307 0.01778 0.76214 0.0
C2484 C 0.41106 -0.00183 0.77952 0.0
C2485 C 0.44065 0.98441 0.81679 0.0
C2486 C 0.40341 0.97714 0.77247 0.0
C2487 C 0.38089 0.97126 0.77547 0.0
C2488 C 0.36591 0.98631 0.78578 0.0
C2489 C 0.37353 0.00778 0.79168 0.0
C2490 C 0.3959 0.01366 0.78852 0.0
H2491 H 0.4541 0.98078 0.82913 0.0
H2492 H 0.42651 0.99262 0.82566 0.0
H2493 H 0.43436 0.96836 0.80981 0.0
H2494 H 0.41498 0.96504 0.76548 0.0
H2495 H 0.37555 0.95453 0.77089 0.0
H2496 H 0.64876 0.52768 0.66918 0.0
H2497 H 0.60997 0.54045 0.67025 0.0
H2498 H 0.59142 0.48216 0.70868 0.0
H2499 H 0.63035 0.46912 0.70777 0.0
H2500 H 0.57418 0.50916 0.65179 0.0
H2501 H 0.55986 0.53887 0.73923 0.0
H2502 H 0.58754 0.53913 0.72697 0.0
H2503 H 0.5747 0.51301 0.73431 0.0
C2504 C 0.6366 0.51781 0.67838 0.0
C2505 C 0.64265 0.49729 0.68824 0.0
C2506 C 0.61442 0.5251 0.67887 0.0
C2507 C 0.5979 0.51211 0.68935 0.0
C2508 C 0.60402 0.4924 0.70056 0.0
H2509 H 0.46226 0.5682 0.69334 0.0
H2510 H 0.48926 0.53711 0.69497 0.0
C2511 C 0.62629 0.48507 0.70011 0.0
C2512 C 0.57415 0.51848 0.68665 0.0
H2513 H 0.53166 0.5462 0.71276 0.0
C2514 C 0.56465 0.51687 0.66521 0.0
C2515 C 0.56172 0.52811 0.70428 0.0
C2516 C 0.57133 0.53001 0.72756 0.0
C2517 C 0.54354 0.52604 0.66057 0.0
C2518 C 0.53189 0.5374 0.67774 0.0
C2519 C 0.54063 0.53744 0.69961 0.0
C2520 C 0.51316 0.55282 0.67266 0.0
C2521 C 0.53433 0.52434 0.63711 0.0
C2522 C 0.51734 0.57147 0.65897 0.0
C2523 C 0.50213 0.58914 0.65817 0.0
C2524 C 0.4824 0.5884 0.67091 0.0
C2525 C 0.47721 0.56892 0.68307 0.0
C2526 C 0.49267 0.55128 0.68415 0.0
H2527 H 0.54046 0.50894 0.62864 0.0
H2528 H 0.51573 0.52422 0.63711 0.0
H2529 H 0.54014 0.53895 0.62719 0.0
H2530 H 0.5332 0.57324 0.65033 0.0
H2531 H 0.50657 0.60411 0.64889 0.0
H2532 H 0.00172 0.40922 0.24332 0.0
H2533 H 0.97234 0.43768 0.24123 0.0
H2534 H 0.9733 0.43345 0.16913 0.0
H2535 H 0.00318 0.40522 0.17118 0.0
H2536 H 0.96131 0.47879 0.19027 0.0
H2537 H 0.91313 0.40463 0.22011 0.0
H2538 H 0.93689 0.41254 0.23683 0.0
H2539 H 0.94109 0.40234 0.20885 0.0
C2540 C -0.00357 0.41522 0.22702 0.0
C2541 C 0.00454 0.40511 0.2074 0.0
C2542 C 0.97962 0.43137 0.22585 0.0
C2543 C 0.97046 0.43728 0.20507 0.0
C2544 C 0.98024 0.42906 0.18532 0.0
H2545 H 0.83562 0.46827 0.16878 0.0
H2546 H 0.8729 0.45265 0.17476 0.0
C2547 C -0.00266 0.41304 0.18648 0.0
C2548 C 0.94829 0.44821 0.20423 0.0
H2549 H 0.89303 0.43806 0.21486 0.0
C2550 C 0.94636 0.47002 0.19574 0.0
C2551 C 0.92886 0.43649 0.21114 0.0
C2552 C 0.92993 0.41264 0.2196 0.0
C2553 C 0.92533 0.48048 0.194 0.0
C2554 C 0.90595 0.46877 0.2011 0.0
C2555 C 0.90798 0.44701 0.20964 0.0
C2556 C 0.88318 0.47811 0.19841 0.0
C2557 C 0.92387 0.50364 0.18398 0.0
C2558 C 0.87641 0.4972 0.21031 0.0
C2559 C 0.855 0.50614 0.20704 0.0
C2560 C 0.84006 0.4961 0.19179 0.0
C2561 C 0.84669 0.47647 0.18059 0.0
C2562 C 0.86802 0.46755 0.18392 0.0
H2563 H 0.93971 0.50861 0.17555 0.0
H2564 H 0.90997 0.50457 0.17164 0.0
H2565 H 0.92036 0.51593 0.19746 0.0
H2566 H 0.88775 0.5053 0.22192 0.0
H2567 H 0.85044 0.52128 0.21592 0.0
H2568 H 0.28883 0.14844 0.96435 0.0
H2569 H 0.28835 0.11057 0.94874 0.0
H2570 H 0.27317 0.0835 0.01395 0.0
H2571 H 0.27322 0.12132 0.02972 0.0
H2572 H 0.31591 0.06867 0.99002 0.0
H2573 H 0.23774 0.06018 0.94014 0.0
H2574 H 0.25222 0.08653 0.93763 0.0
H2575 H 0.24001 0.07873 0.96399 0.0
C2576 C 0.28465 0.13452 0.97524 0.0
C2577 C 0.28116 0.1379 -0.00172 0.0
C2578 C 0.2844 0.11291 0.9663 0.0
C2579 C 0.28078 0.09434 0.98025 0.0
C2580 C 0.2759 0.09769 0.00295 0.0
H2581 H 0.29062 0.96364 0.91408 0.0
H2582 H 0.28287 0.98903 0.94546 0.0
C2583 C 0.27582 0.11934 0.01187 0.0
C2584 C 0.28503 0.07158 0.97155 0.0
H2585 H 0.26734 0.03455 0.93189 0.0
C2586 C 0.30507 0.0609 0.97768 0.0
C2587 C 0.2708 0.06153 0.95559 0.0
C2588 C 0.24887 0.07219 0.949 0.0
C2589 C 0.31198 0.0411 0.96705 0.0
C2590 C 0.29844 0.03185 0.95003 0.0
C2591 C 0.27767 0.0417 0.94502 0.0
C2592 C 0.30679 0.01413 0.93492 0.0
C2593 C 0.33411 0.03071 0.97336 0.0
C2594 C 0.32339 0.01954 0.91919 0.0
C2595 C 0.32763 0.00527 0.9012 0.0
C2596 C 0.31552 0.98525 0.89881 0.0
C2597 C 0.30043 0.97883 0.91572 0.0
C2598 C 0.29587 0.99336 0.93355 0.0
H2599 H 0.33974 0.03626 0.99021 0.0
H2600 H 0.33299 0.01213 0.97315 0.0
H2601 H 0.347 0.03583 0.96097 0.0
H2602 H 0.3318 0.03563 0.91984 0.0
H2603 H 0.33922 0.01065 0.88829 0.0
H2604 H 0.77282 0.36171 0.01606 0.0
H2605 H 0.76721 0.40028 0.02845 0.0
H2606 H 0.76182 0.42193 0.95974 0.0
H2607 H 0.76707 0.38323 0.94715 0.0
H2608 H 0.79792 0.4415 0.98585 0.0
H2609 H 0.71612 0.44808 0.02908 0.0
H2610 H 0.73126 0.42302 0.0361 0.0
H2611 H 0.72179 0.42725 0.00781 0.0
C2612 C 0.76959 0.37453 0.00361 0.0
C2613 C 0.77046 0.36946 0.98066 0.0
C2614 C 0.76632 0.39656 0.01071 0.0
C2615 C 0.76404 0.41391 0.99499 0.0
C2616 C 0.76337 0.40872 0.9721 0.0
H2617 H 0.76736 0.54042 0.06909 0.0
H2618 H 0.76067 0.51877 0.03471 0.0
C2619 C 0.76627 0.38658 0.96497 0.0
C2620 C 0.76619 0.43737 0.00261 0.0
H2621 H 0.74532 0.47328 0.04172 0.0
C2622 C 0.78609 0.44885 -0.00247 0.0
C2623 C 0.75068 0.44699 0.01764 0.0
C2624 C 0.72864 0.4358 0.02284 0.0
C2625 C 0.79189 0.46862 0.00883 0.0
C2626 C 0.77739 0.477 0.02553 0.0
C2627 C 0.75648 0.46676 0.02895 0.0
C2628 C 0.78519 0.49325 0.04251 0.0
C2629 C 0.81408 0.47962 0.00388 0.0
C2630 C 0.80171 0.48644 0.05778 0.0
C2631 C 0.80529 0.49852 0.07742 0.0
C2632 C 0.79264 0.51779 0.08194 0.0
C2633 C 0.7776 0.52581 0.06572 0.0
C2634 C 0.77366 0.51341 0.04619 0.0
H2635 H 0.81975 0.47586 0.98655 0.0
H2636 H 0.81306 0.49807 0.00606 0.0
H2637 H 0.82689 0.47306 0.01565 0.0
H2638 H 0.8105 0.47073 0.05545 0.0
H2639 H 0.81676 0.49191 0.08985 0.0
H2640 H 0.69479 0.64322 0.52616 0.0
H2641 H 0.69868 0.60367 0.53622 0.0
H2642 H 0.71995 0.58834 0.46896 0.0
H2643 H 0.71657 0.62799 0.45879 0.0
H2644 H 0.6767 0.56592 0.49046 0.0
H2645 H 0.7565 0.55825 0.53783 0.0
H2646 H 0.74014 0.58304 0.54318 0.0
H2647 H 0.7523 0.57889 0.516 0.0
C2648 C 0.70094 0.63156 0.51369 0.0
C2649 C 0.70533 0.6387 0.4917 0.0
C2650 C 0.70315 0.60901 0.51945 0.0
C2651 C 0.70955 0.59323 0.50328 0.0
C2652 C 0.7151 0.60038 0.48163 0.0
H2653 H 0.7104 0.46038 0.56403 0.0
H2654 H 0.71589 0.48519 0.53164 0.0
C2655 C 0.71327 0.62304 0.47593 0.0
C2656 C 0.70772 0.56919 0.50862 0.0
H2657 H 0.72884 0.52999 0.54425 0.0
C2658 C 0.68839 0.55773 0.50171 0.0
C2659 C 0.7231 0.55861 0.52308 0.0
C2660 C 0.74431 0.5702 0.53039 0.0
C2661 C 0.68307 0.5366 0.51055 0.0
C2662 C 0.69747 0.52689 0.52661 0.0
C2663 C 0.71782 0.53748 0.53188 0.0
C2664 C 0.68995 0.50853 0.54141 0.0
C2665 C 0.66149 0.52543 0.50372 0.0
C2666 C 0.67294 0.513 0.557 0.0
C2667 C 0.67005 0.49911 0.57555 0.0
C2668 C 0.68385 0.48036 0.57854 0.0
C2669 C 0.69927 0.47453 0.56176 0.0
C2670 C 0.7025 0.48873 0.54337 0.0
H2671 H 0.65608 0.53098 0.48679 0.0
H2672 H 0.66322 0.5069 0.50379 0.0
H2673 H 0.64813 0.53005 0.5158 0.0
H2674 H 0.66337 0.5284 0.55603 0.0
H2675 H 0.65834 0.50406 0.58852 0.0
H2676 H 0.167 0.84675 0.46706 0.0
H2677 H 0.16854 0.88562 0.45456 0.0
H2678 H 0.21079 0.90238 0.51069 0.0
H2679 H 0.20952 0.86331 0.52335 0.0
H2680 H 0.15326 0.92255 0.48295 0.0
H2681 H 0.24201 0.93122 0.45487 0.0
H2682 H 0.22869 0.90414 0.45717 0.0
H2683 H 0.23638 0.91919 0.48198 0.0
C2684 C 0.17699 0.85855 0.47655 0.0
C2685 C 0.18809 0.85192 0.49624 0.0
C2686 C 0.17775 0.88078 0.46945 0.0
C2687 C 0.18965 0.89682 0.48179 0.0
C2688 C 0.20162 0.89017 0.50088 0.0
H2689 H 0.20175 0.02912 0.41926 0.0
H2690 H 0.20084 0.00437 0.45224 0.0
C2691 C 0.20094 0.86783 0.50802 0.0
C2692 C 0.1884 0.92057 0.47492 0.0
H2693 H 0.21747 0.96071 0.44656 0.0
C2694 C 0.1674 0.93114 0.47541 0.0
C2695 C 0.20696 0.93183 0.4655 0.0
C2696 C 0.22983 0.92112 0.46469 0.0
C2697 C 0.1641 0.95202 0.46518 0.0
C2698 C 0.18218 0.96235 0.45395 0.0
C2699 C 0.20362 0.95272 0.45521 0.0
C2700 C 0.17848 0.98015 0.43713 0.0
C2701 C 0.14103 0.96229 0.46545 0.0
C2702 C 0.16567 0.97504 0.4181 0.0
C2703 C 0.16639 0.98891 0.39936 0.0
C2704 C 0.17972 0.00824 0.39942 0.0
C2705 C 0.19104 0.01445 0.41906 0.0
C2706 C 0.19064 0.0003 0.4378 0.0
H2707 H 0.13168 0.95731 0.48076 0.0
H2708 H 0.14186 0.98087 0.46463 0.0
H2709 H 0.13144 0.95618 0.45074 0.0
H2710 H 0.15658 0.95936 0.41701 0.0
H2711 H 0.15775 0.98371 0.38426 0.0
H2712 H 0.02204 0.66567 0.84869 0.0
H2713 H 0.03513 0.66898 0.88719 0.0
H2714 H 0.98586 0.72019 0.89998 0.0
H2715 H 0.97246 0.71703 0.86125 0.0
H2716 H 0.03073 0.72858 0.91742 0.0
H2717 H -0.00192 0.6452 0.94155 0.0
H2718 H 0.01427 0.64462 0.91619 0.0
H2719 H 0.98843 0.66012 0.91701 0.0
C2720 C 0.01409 0.67785 0.85953 0.0
C2721 C -0.00395 0.69095 0.85188 0.0
C2722 C 0.02148 0.67957 0.8816 0.0
C2723 C 0.01102 0.69436 0.89653 0.0
C2724 C 0.99389 0.70843 0.88874 0.0
H2725 H 0.07578 0.71483 0.02792 0.0
H2726 H 0.0429 0.71435 0.00298 0.0
C2727 C 0.98639 0.7067 0.86657 0.0
C2728 C 0.01832 0.69489 0.92019 0.0
H2729 H 0.02777 0.66013 0.9646 0.0
C2730 C 0.02959 0.7139 0.92808 0.0
C2731 C 0.01652 0.67574 0.93405 0.0
C2732 C 0.00346 0.65533 0.92688 0.0
C2733 C 0.04097 0.71352 0.94866 0.0
C2734 C 0.04072 0.69367 0.9617 0.0
C2735 C 0.02791 0.67531 0.95459 0.0
C2736 C 0.05712 0.69022 0.97995 0.0
C2737 C 0.05474 0.73364 0.95538 0.0
C2738 C 0.07519 0.67574 0.97599 0.0
C2739 C 0.09374 0.67599 0.99011 0.0
C2740 C 0.09439 0.69045 0.00859 0.0
C2741 C 0.07542 0.7033 0.01391 0.0
C2742 C 0.05682 0.70322 -0.00043 0.0
H2743 H 0.05471 0.74693 0.94233 0.0
H2744 H 0.04787 0.74087 0.97107 0.0
H2745 H 0.07234 0.7286 0.95866 0.0
H2746 H 0.07574 0.66558 0.96096 0.0
H2747 H 0.10831 0.66612 0.98562 0.0
H2748 H 0.53289 0.26987 0.37983 0.0
H2749 H 0.51648 0.26825 0.41736 0.0
H2750 H 0.45158 0.28372 0.38975 0.0
H2751 H 0.46782 0.28575 0.3522 0.0
H2752 H 0.49248 0.30937 0.43393 0.0
H2753 H 0.44174 0.23144 0.43737 0.0
H2754 H 0.46575 0.23462 0.41914 0.0
H2755 H 0.43942 0.24716 0.41174 0.0
C2756 C 0.515 0.27228 0.38162 0.0
C2757 C 0.50165 0.27807 0.36304 0.0
C2758 C 0.50571 0.27142 0.4031 0.0
C2759 C 0.48287 0.27581 0.40623 0.0
C2760 C 0.46922 0.28007 0.38758 0.0
H2761 H 0.38782 0.33221 0.48568 0.0
H2762 H 0.42032 0.32403 0.46216 0.0
C2763 C 0.47853 0.28127 0.36616 0.0
C2764 C 0.47367 0.27895 0.42895 0.0
H2765 H 0.43204 0.26048 0.46339 0.0
C2766 C 0.47967 0.2984 0.44073 0.0
C2767 C 0.45711 0.26454 0.43774 0.0
C2768 C 0.45069 0.24314 0.42598 0.0
C2769 C 0.46821 0.3047 0.46025 0.0
C2770 C 0.4505 0.29115 0.46808 0.0
C2771 C 0.4457 0.27081 0.4573 0.0
C2772 C 0.43432 0.29944 0.48482 0.0
C2773 C 0.47425 0.32637 0.47172 0.0
C2774 C 0.43196 0.28886 0.50568 0.0
C2775 C 0.4136 0.29389 0.51939 0.0
C2776 C 0.39719 0.30907 0.51201 0.0
C2777 C 0.40035 0.32056 0.49175 0.0
C2778 C 0.41888 0.31591 0.47834 0.0
H2779 H 0.49138 0.33203 0.46714 0.0
H2780 H 0.4622 0.33957 0.46656 0.0
H2781 H 0.47318 0.32454 0.49021 0.0
H2782 H 0.44364 0.27594 0.51079 0.0
H2783 H 0.4113 0.28457 0.5348 0.0
H2784 H 0.59521 0.85066 0.96756 0.0
H2785 H 0.57048 0.85954 -0.00094 0.0
H2786 H 0.54464 0.79209 -0.0022 0.0
H2787 H 0.5693 0.78324 0.96644 0.0
H2788 H 0.51397 0.82755 0.01633 0.0
H2789 H 0.59998 0.82392 0.05272 0.0
H2790 H 0.59499 0.84427 0.03107 0.0
H2791 H 0.59417 0.81494 0.02447 0.0
C2792 C 0.58309 0.83826 0.97298 0.0
C2793 C 0.58411 0.81627 0.96474 0.0
C2794 C 0.56917 0.84326 0.99115 0.0
C2795 C 0.55621 0.82627 0.00102 0.0
C2796 C 0.5546 0.80538 0.99044 0.0
H2797 H 0.49762 0.78666 0.12658 0.0
H2798 H 0.51041 0.79027 0.08783 0.0
C2799 C 0.56856 0.80037 0.97239 0.0
C2800 C 0.54902 0.82805 0.02464 0.0
H2801 H 0.56997 0.8249 0.07777 0.0
C2802 C 0.52614 0.82731 0.02982 0.0
C2803 C 0.56504 0.8275 0.04214 0.0
C2804 C 0.58993 0.82756 0.03747 0.0
C2805 C 0.51881 0.82588 0.05215 0.0
C2806 C 0.53487 0.82444 0.06958 0.0
C2807 C 0.55772 0.82584 0.06437 0.0
C2808 C 0.52842 0.82127 0.09335 0.0
C2809 C 0.49398 0.82601 0.05683 0.0
C2810 C 0.53559 0.83664 0.1096 0.0
C2811 C 0.52877 0.83434 0.13184 0.0
C2812 C 0.51454 0.81665 0.13828 0.0
C2813 C 0.50846 0.80054 0.1222 0.0
C2814 C 0.51547 0.80277 0.09996 0.0
H2815 H 0.48447 0.83394 0.04292 0.0
H2816 H 0.48798 0.80849 0.05855 0.0
H2817 H 0.49014 0.83509 0.0726 0.0
H2818 H 0.54588 0.85086 0.10493 0.0
H2819 H 0.53379 0.84712 0.14372 0.0
H2820 H 0.90206 0.14158 0.4908 0.0
H2821 H 0.92934 0.13616 0.52111 0.0
H2822 H 0.87619 0.14168 0.5698 0.0
H2823 H 0.84908 0.14606 0.54005 0.0
H2824 H 0.93989 0.1658 0.55145 0.0
H2825 H 0.90987 0.09143 0.5967 0.0
H2826 H 0.89986 0.09836 0.56902 0.0
H2827 H 0.88696 0.1105 0.59353 0.0
C2828 C 0.89616 0.14095 0.50795 0.0
C2829 C 0.8734 0.14438 0.51297 0.0
C2830 C 0.91176 0.13794 0.52525 0.0
C2831 C 0.9048 0.1382 0.54776 0.0
C2832 C 0.88198 0.14073 0.55263 0.0
H2833 H 0.9717 0.19541 0.66121 0.0
H2834 H 0.95099 0.18735 0.62666 0.0
C2835 C 0.86646 0.14352 0.53548 0.0
C2836 C 0.92124 0.13868 0.56639 0.0
H2837 H 0.92916 0.11945 0.61959 0.0
C2838 C 0.93788 0.15532 0.56617 0.0
C2839 C 0.919 0.12477 0.58546 0.0
C2840 C 0.9031 0.10512 0.58604 0.0
C2841 C 0.95136 0.15933 0.585 0.0
C2842 C 0.94745 0.14698 0.60489 0.0
C2843 C 0.93179 0.1294 0.6046 0.0
C2844 C 0.95928 0.15197 0.6262 0.0
C2845 C 0.96961 0.17675 0.58327 0.0
C2846 C 0.96974 0.13463 0.63812 0.0
C2847 C 0.98068 0.13905 0.65826 0.0
C2848 C 0.98178 0.161 0.66673 0.0
C2849 C 0.97113 0.17836 0.655 0.0
C2850 C 0.95959 0.1738 0.6351 0.0
H2851 H 0.97554 0.17856 0.56571 0.0
H2852 H 0.96287 0.19324 0.58859 0.0
H2853 H 0.98417 0.17248 0.59402 0.0
H2854 H 0.96975 0.11767 0.63165 0.0
H2855 H 0.98903 0.12538 0.66678 0.0
H2856 H 0.85714 0.02125 0.64632 0.0
H2857 H 0.89495 0.03663 0.64782 0.0
H2858 H 0.9071 0.00116 0.70962 0.0
H2859 H 0.86944 0.98513 0.70796 0.0
H2860 H 0.9149 0.06271 0.67791 0.0
H2861 H 0.96072 0.98218 0.67297 0.0
H2862 H 0.93105 0.98434 0.66759 0.0
H2863 H 0.94133 0.98311 0.69591 0.0
C2864 C 0.86775 0.01679 0.66035 0.0
C2865 C 0.86026 0.00183 0.67697 0.0
C2866 C 0.88943 0.02552 0.66109 0.0
C2867 C 0.90406 0.01953 0.67848 0.0
C2868 C 0.89635 0.0054 0.69564 0.0
H2869 H 0.02352 0.07107 0.73216 0.0
H2870 H 0.99348 0.04585 0.72054 0.0
C2871 C 0.87469 -0.0035 0.69482 0.0
C2872 C 0.9271 0.0288 0.67902 0.0
H2873 H 0.98239 0.01444 0.68322 0.0
C2874 C 0.92966 0.05215 0.67877 0.0
C2875 C 0.94636 0.01496 0.67997 0.0
C2876 C 0.94479 0.98976 0.67889 0.0
C2877 C 0.95085 0.06209 0.68038 0.0
C2878 C 0.97006 0.04828 0.68201 0.0
C2879 C 0.96762 0.02492 0.68179 0.0
C2880 C 0.99234 0.05812 0.68647 0.0
C2881 C 0.95247 0.08732 0.68104 0.0
C2882 C 0.00272 0.07211 0.67064 0.0
C2883 C 0.02012 0.08639 0.6772 0.0
C2884 C 0.02703 0.08696 0.6997 0.0
C2885 C 0.01842 0.071 0.71474 0.0
C2886 C 0.00123 0.05662 0.70813 0.0
H2887 H 0.93587 0.09539 0.68345 0.0
H2888 H 0.96382 0.09288 0.69469 0.0
H2889 H 0.9595 0.09331 0.66494 0.0
H2890 H -0.00387 0.07334 0.65378 0.0
H2891 H 0.02635 0.09861 0.66529 0.0
H2892 H 0.6674 0.97035 0.12776 0.0
H2893 H 0.62886 0.95702 0.12367 0.0
H2894 H 0.61541 0.97434 0.19247 0.0
H2895 H 0.65375 0.98788 0.19676 0.0
H2896 H 0.60365 0.9248 0.14718 0.0
H2897 H 0.56764 0.00963 0.15727 0.0
H2898 H 0.597 0.00491 0.15164 0.0
H2899 H 0.58626 0.00216 0.17968 0.0
C2900 C 0.6564 0.97096 0.14218 0.0
C2901 C 0.66365 0.98039 0.16257 0.0
C2902 C 0.63432 0.96348 0.13972 0.0
C2903 C 0.61915 0.96538 0.15755 0.0
C2904 C 0.62672 0.97338 0.17831 0.0
H2905 H 0.50047 0.92275 0.20948 0.0
H2906 H 0.53139 0.94597 0.19627 0.0
C2907 C 0.64873 0.98087 0.1808 0.0
C2908 C 0.59535 0.95903 0.1547 0.0
H2909 H 0.54224 0.9787 0.16263 0.0
C2910 C 0.59015 0.93662 0.15004 0.0
C2911 C 0.57784 0.97464 0.15813 0.0
C2912 C 0.58243 -0.00077 0.16172 0.0
C2913 C 0.56792 0.92898 0.15058 0.0
C2914 C 0.55049 0.94432 0.15556 0.0
C2915 C 0.55561 0.96702 0.15876 0.0
C2916 C 0.52781 0.9363 0.16153 0.0
C2917 C 0.56344 0.90426 0.14746 0.0
C2918 C 0.51442 0.92466 0.14606 0.0
C2919 C 0.49648 0.91155 0.15361 0.0
C2920 C 0.49195 0.91 0.17664 0.0
C2921 C 0.50359 0.92386 0.19162 0.0
C2922 C 0.52134 0.93702 0.18409 0.0
H2923 H 0.57913 0.89431 0.14644 0.0
H2924 H 0.55318 0.89768 0.16152 0.0
H2925 H 0.5539 0.90164 0.13172 0.0
H2926 H 0.51902 0.92417 0.12851 0.0
H2927 H 0.48791 0.90074 0.14181 0.0
H2928 H 0.52826 0.4065 0.29786 0.0
H2929 H 0.50309 0.4391 0.29599 0.0
H2930 H 0.45241 0.40183 0.33161 0.0
H2931 H 0.47718 0.36941 0.33328 0.0
H2932 H 0.46022 0.43481 0.27382 0.0
H2933 H 0.45069 0.46449 0.36106 0.0
H2934 H 0.47473 0.44859 0.35174 0.0
H2935 H 0.44899 0.43454 0.35882 0.0
C2936 C 0.51202 0.40561 0.30592 0.0
C2937 C 0.50458 0.38551 0.31569 0.0
C2938 C 0.49767 0.42414 0.30474 0.0
C2939 C 0.476 0.42287 0.31381 0.0
C2940 C 0.46919 0.40326 0.32482 0.0
H2941 H 0.34437 0.46655 0.31627 0.0
H2942 H 0.38111 0.44874 0.31663 0.0
C2943 C 0.48331 0.38473 0.32569 0.0
C2944 C 0.45919 0.44048 0.30943 0.0
H2945 H 0.41935 0.4713 0.33625 0.0
C2946 C 0.45162 0.44336 0.28734 0.0
C2947 C 0.44807 0.45152 0.32714 0.0
C2948 C 0.45618 0.44982 0.35101 0.0
C2949 C 0.43201 0.45552 0.28273 0.0
C2950 C 0.41999 0.46515 0.30069 0.0
C2951 C 0.42851 0.46364 0.32255 0.0
C2952 C 0.39747 0.47495 0.29766 0.0
C2953 C 0.42343 0.45671 0.259 0.0
C2954 C 0.3944 0.49522 0.28618 0.0
C2955 C 0.37329 0.50542 0.28578 0.0
C2956 C 0.35506 0.49556 0.29707 0.0
C2957 C 0.35805 0.47465 0.3075 0.0
C2958 C 0.37905 0.46448 0.30781 0.0
H2959 H 0.43334 0.44606 0.24739 0.0
H2960 H 0.40562 0.45136 0.25832 0.0
H2961 H 0.42429 0.47429 0.25299 0.0
H2962 H 0.40848 0.50362 0.2784 0.0
H2963 H 0.37158 0.52161 0.27774 0.0
H2964 H 0.12697 0.52058 0.77927 0.0
H2965 H 0.08785 0.53155 0.77509 0.0
H2966 H 0.06945 0.46274 0.76305 0.0
H2967 H 0.1087 0.45152 0.76727 0.0
H2968 H 0.05217 0.52441 0.7421 0.0
H2969 H 0.03874 0.48066 0.82366 0.0
H2970 H 0.06653 0.48692 0.81354 0.0
H2971 H 0.05034 0.46523 0.80049 0.0
C2972 C 0.11475 0.50785 0.77504 0.0
C2973 C 0.1209 0.48516 0.77391 0.0
C2974 C 0.09238 0.51414 0.77264 0.0
C2975 C 0.07576 0.49788 0.76919 0.0
C2976 C 0.08204 0.47547 0.76597 0.0
H2977 H 0.94791 0.57053 0.77821 0.0
H2978 H 0.96892 0.53621 0.76946 0.0
C2979 C 0.10452 0.46915 0.76821 0.0
C2980 C 0.05203 0.50441 0.77204 0.0
H2981 H 0.01192 0.50704 0.81274 0.0
C2982 C 0.0429 0.52008 0.75713 0.0
C2983 C 0.04013 0.49869 0.79175 0.0
C2984 C 0.04933 0.48202 0.80841 0.0
C2985 C 0.0231 0.53162 0.76231 0.0
C2986 C 0.01218 0.52723 0.78292 0.0
C2987 C 0.02028 0.51019 0.79691 0.0
C2988 C -0.00393 0.54355 0.79232 0.0
C2989 C 0.01519 0.54993 0.74674 0.0
C2990 C 0.00365 0.55806 0.80916 0.0
C2991 C 0.99179 0.57753 0.8141 0.0
C2992 C 0.97202 0.58263 0.80249 0.0
C2993 C 0.96301 0.56681 0.78756 0.0
C2994 C 0.97509 0.54734 0.78239 0.0
H2995 H 0.02636 0.55202 0.732 0.0
H2996 H -0.0019 0.54594 0.74061 0.0
H2997 H 0.01432 0.56614 0.75584 0.0
H2998 H 0.0198 0.5554 0.81703 0.0
H2999 H -0.00092 0.58953 0.82562 0.0
H3000 H 0.71284 0.86091 0.98491 0.0
H3001 H 0.71252 0.89865 0.00096 0.0
H3002 H 0.64751 0.88591 0.02985 0.0
H3003 H 0.64795 0.84814 0.01463 0.0
H3004 H 0.68255 0.93226 0.9919 0.0
H3005 H 0.68062 0.91145 0.08256 0.0
H3006 H 0.68711 0.89088 0.06142 0.0
H3007 H 0.65848 0.89861 0.06683 0.0
C3008 C 0.69872 0.86596 0.99512 0.0
C3009 C 0.68051 0.85141 -0.00142 0.0
C3010 C 0.69847 0.88759 0.00412 0.0
C3011 C 0.68004 0.89504 0.0167 0.0
C3012 C 0.6621 0.8804 0.02058 0.0
H3013 H 0.66337 0.01839 0.09119 0.0
H3014 H 0.65131 0.98866 0.06565 0.0
C3015 C 0.66241 0.85874 0.01182 0.0
C3016 C 0.67924 0.91837 0.02509 0.0
H3017 H 0.67563 0.94942 0.07287 0.0
C3018 C 0.68099 0.93604 0.0096 0.0
C3019 C 0.67693 0.92325 0.04816 0.0
C3020 C 0.67588 0.90506 0.06573 0.0
C3021 C 0.68094 0.95848 0.01664 0.0
C3022 C 0.67919 0.96329 0.03973 0.0
C3023 C 0.67665 0.94567 0.05511 0.0
C3024 C 0.68335 0.98592 0.04891 0.0
C3025 C 0.68307 0.97683 -0.0006 0.0
C3026 C 0.70488 0.99513 0.04694 0.0
C3027 C 0.71178 0.012 0.06153 0.0
C3028 C 0.69722 0.01992 0.0782 0.0
C3029 C 0.6748 0.01278 0.07826 0.0
C3030 C 0.66795 -0.00433 0.06379 0.0
H3031 H 0.67694 0.97122 0.98275 0.0
H3032 H 0.6736 0.99201 0.00452 0.0
H3033 H 0.70098 0.98147 -0.00238 0.0
H3034 H 0.71714 0.98764 0.03585 0.0
H3035 H 0.7292 0.01714 0.06134 0.0
H3036 H 0.17469 0.47854 0.90977 0.0
H3037 H 0.18011 0.5073 0.93865 0.0
H3038 H 0.14777 0.55599 0.89612 0.0
H3039 H 0.14249 0.52753 0.86734 0.0
H3040 H 0.20674 0.54496 0.92713 0.0
H3041 H 0.12376 0.5716 0.95857 0.0
H3042 H 0.12841 0.5446 0.94567 0.0
H3043 H 0.12436 0.56915 0.92861 0.0
C3044 C 0.16788 0.49514 0.90706 0.0
C3045 C 0.15822 0.50092 0.88638 0.0
C3046 C 0.17113 0.51156 0.92346 0.0
C3047 C 0.16428 0.53371 0.9195 0.0
C3048 C 0.15287 0.53893 0.89965 0.0
H3049 H 0.18196 0.66917 0.95186 0.0
H3050 H 0.17776 0.63239 0.93455 0.0
C3051 C 0.1499 0.52268 0.8832 0.0
C3052 C 0.17204 0.55218 0.93398 0.0
H3053 H 0.1533 0.59925 0.9602 0.0
C3054 C 0.19515 0.5566 0.93488 0.0
C3055 C 0.15683 0.5673 0.94393 0.0
C3056 C 0.13197 0.56282 0.94436 0.0
C3057 C 0.20333 0.5766 0.94416 0.0
C3058 C 0.18797 0.59231 0.95287 0.0
C3059 C 0.16499 0.58726 0.95314 0.0
C3060 C 0.19502 0.61457 0.96098 0.0
C3061 C 0.22814 0.58137 0.9435 0.0
C3062 C 0.20719 0.61676 0.98093 0.0
C3063 C 0.20981 0.63784 0.9908 0.0
C3064 C 0.19997 0.6569 0.98097 0.0
C3065 C 0.18959 0.65482 0.95993 0.0
C3066 C 0.18708 0.63381 0.95007 0.0
H3067 H 0.23739 0.56903 0.93309 0.0
H3068 H 0.23128 0.59845 0.9368 0.0
H3069 H 0.23498 0.58072 0.96078 0.0
H3070 H 0.21331 0.60207 0.98964 0.0
H3071 H 0.21783 0.63883 0.00705 0.0
H3072 H 0.27863 0.38419 0.53158 0.0
H3073 H 0.27746 0.42209 0.51589 0.0
H3074 H 0.30544 0.39757 0.45405 0.0
H3075 H 0.307 0.35964 0.46959 0.0
H3076 H 0.32255 0.44286 0.49428 0.0
H3077 H 0.24554 0.43961 0.44178 0.0
H3078 H 0.24893 0.42276 0.46675 0.0
H3079 H 0.26355 0.41538 0.44158 0.0
C3080 C 0.28413 0.38673 0.51447 0.0
C3081 C 0.29297 0.36886 0.50183 0.0
C3082 C 0.28355 0.40842 0.50563 0.0
C3083 C 0.29142 0.4125 0.48392 0.0
C3084 C 0.29927 0.39462 0.47087 0.0
H3085 H 0.33964 0.5041 0.39386 0.0
H3086 H 0.33607 0.47973 0.42653 0.0
C3087 C 0.3001 0.37298 0.47976 0.0
C3088 C 0.29283 0.43558 0.47516 0.0
H3089 H 0.27047 0.46992 0.43545 0.0
C3090 C 0.31095 0.44904 0.48173 0.0
C3091 C 0.27755 0.44354 0.45901 0.0
C3092 C 0.25766 0.42971 0.45186 0.0
C3093 C 0.31494 0.46984 0.47145 0.0
C3094 C 0.30045 0.47717 0.45424 0.0
C3095 C 0.28152 0.46431 0.44875 0.0
C3096 C 0.3063 0.49605 0.43926 0.0
C3097 C 0.33503 0.48343 0.47847 0.0
C3098 C 0.29136 0.51397 0.43619 0.0
C3099 C 0.29368 0.52821 0.41768 0.0
C3100 C 0.31069 0.52433 0.40193 0.0
C3101 C 0.3267 0.50765 0.40609 0.0
C3102 C 0.32461 0.4937 0.42472 0.0
H3103 H 0.34033 0.47923 0.49582 0.0
H3104 H 0.34923 0.47967 0.46707 0.0
H3105 H 0.33146 0.50166 0.47746 0.0
H3106 H 0.27698 0.51587 0.4471 0.0
H3107 H 0.28085 0.54063 0.41445 0.0
H3108 H 0.76803 0.12053 0.51629 0.0
H3109 H 0.76385 0.08093 0.52505 0.0
H3110 H 0.75766 0.06566 0.45472 0.0
H3111 H 0.76226 0.10542 0.44569 0.0
H3112 H 0.73491 0.04468 0.51612 0.0
H3113 H 0.81716 0.03605 0.47251 0.0
H3114 H 0.80538 0.06318 0.47858 0.0
H3115 H 0.79354 0.04616 0.4568 0.0
C3116 C 0.76509 0.1089 0.50268 0.0
C3117 C 0.76603 0.11609 0.48028 0.0
C3118 C 0.76265 0.08622 0.50771 0.0
C3119 C 0.76107 0.07031 0.49048 0.0
C3120 C 0.75934 0.07765 0.46822 0.0
H3121 H 0.77863 0.94471 0.56537 0.0
H3122 H 0.76699 0.96362 0.53064 0.0
C3123 C 0.76178 0.10043 0.46313 0.0
C3124 C 0.76479 0.04641 0.49612 0.0
H3125 H 0.80748 0.00839 0.49827 0.0
C3126 C 0.75038 0.03626 0.51166 0.0
C3127 C 0.78503 0.03552 0.49018 0.0
C3128 C 0.80129 0.0457 0.47368 0.0
C3129 C 0.75672 0.01675 0.52318 0.0
C3130 C 0.77793 0.00708 0.51878 0.0
C3131 C 0.79123 0.01585 0.50151 0.0
C3132 C 0.78875 0.99222 0.53546 0.0
C3133 C 0.74174 0.00806 0.54163 0.0
C3134 C 0.80597 0.00126 0.54865 0.0
C3135 C 0.81261 0.99055 0.56828 0.0
C3136 C 0.80233 0.9705 0.57493 0.0
C3137 C 0.78694 0.96009 0.56046 0.0
C3138 C 0.7801 0.97098 0.54078 0.0
H3139 H 0.72637 0.01835 0.5437 0.0
H3140 H 0.7366 0.99062 0.5378 0.0
H3141 H 0.75095 0.00788 0.5578 0.0
H3142 H 0.81292 0.0176 0.54483 0.0
H3143 H 0.82449 -0.00111 0.57919 0.0
loop_
_geom_bond_atom_site_label_1
_geom_bond_atom_site_label_2
_geom_bond_distance
_geom_bond_site_symmetry_2
_ccdc_geom_bond_type
O0 Zn1 1.953 . S
O0 C16 1.225 . S
Zn1 O0 1.953 . S
Zn1 O2 1.949 . S
Zn1 O8 1.919 . S
Zn1 O13 1.924 . S
O2 Zn1 1.949 . S
O2 Zn3 1.923 . S
O2 Zn4 1.950 . S
O2 Zn5 1.945 . S
Zn3 O2 1.923 . S
Zn3 O6 1.933 . S
Zn3 O9 1.941 . S
Zn3 O10 1.965 . S
Zn4 O2 1.950 . S
Zn4 O11 1.938 . S
Zn4 O12 1.906 . S
Zn4 O22 1.953 . S
Zn5 O2 1.945 . S
Zn5 O7 1.932 . S
Zn5 O14 1.977 1_455 S
Zn5 O15 1.910 1_455 S
O6 Zn3 1.933 . S
O6 C17 1.226 . S
O7 Zn5 1.932 . S
O7 C17 1.307 . S
O8 Zn1 1.919 . S
O8 C19 1.253 . S
O9 Zn3 1.941 . S
O9 C19 1.283 . S
O10 Zn3 1.965 . S
O10 C18 1.303 . S
O11 Zn4 1.938 . S
O11 C18 1.247 . S
O12 Zn4 1.906 . S
O12 C20 1.304 . S
O13 Zn1 1.924 . S
O13 C21 1.311 . S
O14 Zn5 1.977 1_655 S
O14 C20 1.272 1_655 S
O15 Zn5 1.910 1_655 S
O15 C21 1.231 1_655 S
C16 O0 1.225 . S
C16 O22 1.298 . S
C17 O6 1.226 . S
C17 O7 1.307 . S
C18 O10 1.303 . S
C18 O11 1.247 . S
C19 O8 1.253 . S
C19 O9 1.283 . S
C20 O12 1.304 . S
C20 O14 1.272 1_455 S
C21 O13 1.311 . S
C21 O15 1.231 1_455 S
O22 Zn4 1.953 . S
O22 C16 1.298 . S
O23 Zn24 1.953 . S
O23 C39 1.225 . S
Zn24 O23 1.953 . S
Zn24 O25 1.949 . S
Zn24 O31 1.919 . S
Zn24 O36 1.924 . S
O25 Zn24 1.949 . S
O25 Zn26 1.923 . S
O25 Zn27 1.950 . S
O25 Zn28 1.945 . S
Zn26 O25 1.923 . S
Zn26 O29 1.933 . S
Zn26 O32 1.941 . S
Zn26 O33 1.965 . S
Zn27 O25 1.950 . S
Zn27 O34 1.938 . S
Zn27 O35 1.906 . S
Zn27 O45 1.953 . S
Zn28 O25 1.945 . S
Zn28 O30 1.932 . S
Zn28 O37 1.977 . S
Zn28 O38 1.910 . S
O29 Zn26 1.933 . S
O29 C40 1.226 . S
O30 Zn28 1.932 . S
O30 C40 1.307 . S
O31 Zn24 1.919 . S
O31 C42 1.253 . S
O32 Zn26 1.941 . S
O32 C42 1.283 . S
O33 Zn26 1.965 . S
O33 C41 1.303 . S
O34 Zn27 1.938 . S
O34 C41 1.247 . S
O35 Zn27 1.906 . S
O35 C43 1.304 . S
O36 Zn24 1.924 . S
O36 C44 1.311 . S
O37 Zn28 1.977 . S
O37 C43 1.272 . S
O38 Zn28 1.910 . S
O38 C44 1.231 . S
C39 O23 1.225 . S
C39 O45 1.298 . S
C40 O29 1.226 . S
C40 O30 1.307 . S
C41 O33 1.303 . S
C41 O34 1.247 . S
C42 O31 1.253 . S
C42 O32 1.283 . S
C43 O35 1.304 . S
C43 O37 1.272 . S
C44 O36 1.311 . S
C44 O38 1.231 . S
O45 Zn27 1.953 . S
O45 C39 1.298 . S
O46 Zn47 1.953 . S
O46 C62 1.225 . S
Zn47 O46 1.953 . S
Zn47 O48 1.949 . S
Zn47 O54 1.919 . S
Zn47 O59 1.924 . S
O48 Zn47 1.949 . S
O48 Zn49 1.923 . S
O48 Zn50 1.950 . S
O48 Zn51 1.945 . S
Zn49 O48 1.923 . S
Zn49 O52 1.933 . S
Zn49 O55 1.941 . S
Zn49 O56 1.965 . S
Zn50 O48 1.950 . S
Zn50 O57 1.938 . S
Zn50 O58 1.906 . S
Zn50 O68 1.953 . S
Zn51 O48 1.945 . S
Zn51 O53 1.932 . S
Zn51 O60 1.977 . S
Zn51 O61 1.910 . S
O52 Zn49 1.933 . S
O52 C63 1.226 . S
O53 Zn51 1.932 . S
O53 C63 1.307 . S
O54 Zn47 1.919 . S
O54 C65 1.253 . S
O55 Zn49 1.941 . S
O55 C65 1.283 . S
O56 Zn49 1.965 . S
O56 C64 1.303 . S
O57 Zn50 1.938 . S
O57 C64 1.247 . S
O58 Zn50 1.906 . S
O58 C66 1.304 . S
O59 Zn47 1.924 . S
O59 C67 1.311 . S
O60 Zn51 1.977 . S
O60 C66 1.272 . S
O61 Zn51 1.910 . S
O61 C67 1.231 . S
C62 O46 1.225 . S
C62 O68 1.298 . S
C63 O52 1.226 . S
C63 O53 1.307 . S
C64 O56 1.303 . S
C64 O57 1.247 . S
C65 O54 1.253 . S
C65 O55 1.283 . S
C66 O58 1.304 . S
C66 O60 1.272 . S
C67 O59 1.311 . S
C67 O61 1.231 . S
O68 Zn50 1.953 . S
O68 C62 1.298 . S
O69 Zn70 1.953 . S
O69 C85 1.225 . S
Zn70 O69 1.953 . S
Zn70 O71 1.949 . S
Zn70 O77 1.919 . S
Zn70 O82 1.924 . S
O71 Zn70 1.949 . S
O71 Zn72 1.923 . S
O71 Zn73 1.950 . S
O71 Zn74 1.945 . S
Zn72 O71 1.923 . S
Zn72 O75 1.933 . S
Zn72 O78 1.941 . S
Zn72 O79 1.965 . S
Zn73 O71 1.950 . S
Zn73 O80 1.938 . S
Zn73 O81 1.906 . S
Zn73 O91 1.953 . S
Zn74 O71 1.945 . S
Zn74 O76 1.932 . S
Zn74 O83 1.977 1_655 S
Zn74 O84 1.910 1_655 S
O75 Zn72 1.933 . S
O75 C86 1.226 . S
O76 Zn74 1.932 . S
O76 C86 1.307 . S
O77 Zn70 1.919 . S
O77 C88 1.253 . S
O78 Zn72 1.941 . S
O78 C88 1.283 . S
O79 Zn72 1.965 . S
O79 C87 1.303 . S
O80 Zn73 1.938 . S
O80 C87 1.247 . S
O81 Zn73 1.906 . S
O81 C89 1.304 . S
O82 Zn70 1.924 . S
O82 C90 1.311 . S
O83 Zn74 1.977 1_455 S
O83 C89 1.272 1_455 S
O84 Zn74 1.910 1_455 S
O84 C90 1.231 1_455 S
C85 O69 1.225 . S
C85 O91 1.298 . S
C86 O75 1.226 . S
C86 O76 1.307 . S
C87 O79 1.303 . S
C87 O80 1.247 . S
C88 O77 1.253 . S
C88 O78 1.283 . S
C89 O81 1.304 . S
C89 O83 1.272 1_655 S
C90 O82 1.311 . S
C90 O84 1.231 1_655 S
O91 Zn73 1.953 . S
O91 C85 1.298 . S
O92 Zn93 1.953 . S
O92 C108 1.225 . S
Zn93 O92 1.953 . S
Zn93 O94 1.949 . S
Zn93 O100 1.919 . S
Zn93 O105 1.924 . S
O94 Zn93 1.949 . S
O94 Zn95 1.923 . S
O94 Zn96 1.950 . S
O94 Zn97 1.945 . S
Zn95 O94 1.923 . S
Zn95 O98 1.933 . S
Zn95 O101 1.941 . S
Zn95 O102 1.965 . S
Zn96 O94 1.950 . S
Zn96 O103 1.938 . S
Zn96 O104 1.906 . S
Zn96 O114 1.953 . S
Zn97 O94 1.945 . S
Zn97 O99 1.932 . S
Zn97 O106 1.977 1_545 S
Zn97 O107 1.910 1_545 S
O98 Zn95 1.933 . S
O98 C109 1.226 . S
O99 Zn97 1.932 . S
O99 C109 1.307 . S
O100 Zn93 1.919 . S
O100 C111 1.253 . S
O101 Zn95 1.941 . S
O101 C111 1.283 . S
O102 Zn95 1.965 . S
O102 C110 1.303 . S
O103 Zn96 1.938 . S
O103 C110 1.247 . S
O104 Zn96 1.906 . S
O104 C112 1.304 . S
O105 Zn93 1.924 . S
O105 C113 1.311 . S
O106 Zn97 1.977 1_565 S
O106 C112 1.272 1_565 S
O107 Zn97 1.910 1_565 S
O107 C113 1.231 1_565 S
C108 O92 1.225 . S
C108 O114 1.298 . S
C109 O98 1.226 . S
C109 O99 1.307 . S
C110 O102 1.303 . S
C110 O103 1.247 . S
C111 O100 1.253 . S
C111 O101 1.283 . S
C112 O104 1.304 . S
C112 O106 1.272 1_545 S
C113 O105 1.311 . S
C113 O107 1.231 1_545 S
O114 Zn96 1.953 . S
O114 C108 1.298 . S
O115 Zn116 1.953 . S
O115 C131 1.225 . S
Zn116 O115 1.953 . S
Zn116 O117 1.949 . S
Zn116 O123 1.919 . S
Zn116 O128 1.924 . S
O117 Zn116 1.949 . S
O117 Zn118 1.923 . S
O117 Zn119 1.950 . S
O117 Zn120 1.945 . S
Zn118 O117 1.923 . S
Zn118 O121 1.933 . S
Zn118 O124 1.941 . S
Zn118 O125 1.965 . S
Zn119 O117 1.950 . S
Zn119 O126 1.938 . S
Zn119 O127 1.906 . S
Zn119 O137 1.953 . S
Zn120 O117 1.945 . S
Zn120 O122 1.932 . S
Zn120 O129 1.977 1_565 S
Zn120 O130 1.910 1_565 S
O121 Zn118 1.933 . S
O121 C132 1.226 . S
O122 Zn120 1.932 . S
O122 C132 1.307 . S
O123 Zn116 1.919 . S
O123 C134 1.253 . S
O124 Zn118 1.941 . S
O124 C134 1.283 . S
O125 Zn118 1.965 . S
O125 C133 1.303 . S
O126 Zn119 1.938 . S
O126 C133 1.247 . S
O127 Zn119 1.906 . S
O127 C135 1.304 . S
O128 Zn116 1.924 . S
O128 C136 1.311 . S
O129 Zn120 1.977 1_545 S
O129 C135 1.272 1_545 S
O130 Zn120 1.910 1_545 S
O130 C136 1.231 1_545 S
C131 O115 1.225 . S
C131 O137 1.298 . S
C132 O121 1.226 . S
C132 O122 1.307 . S
C133 O125 1.303 . S
C133 O126 1.247 . S
C134 O123 1.253 . S
C134 O124 1.283 . S
C135 O127 1.304 . S
C135 O129 1.272 1_565 S
C136 O128 1.311 . S
C136 O130 1.231 1_565 S
O137 Zn119 1.953 . S
O137 C131 1.298 . S
O138 Zn139 1.953 . S
O138 C154 1.225 . S
Zn139 O138 1.953 . S
Zn139 O140 1.949 . S
Zn139 O146 1.919 . S
Zn139 O151 1.924 . S
O140 Zn139 1.949 . S
O140 Zn141 1.923 . S
O140 Zn142 1.950 . S
O140 Zn143 1.945 . S
Zn141 O140 1.923 . S
Zn141 O144 1.933 . S
Zn141 O147 1.941 . S
Zn141 O148 1.965 . S
Zn142 O140 1.950 . S
Zn142 O149 1.938 . S
Zn142 O150 1.906 . S
Zn142 O160 1.953 . S
Zn143 O140 1.945 . S
Zn143 O145 1.932 . S
Zn143 O152 1.977 . S
Zn143 O153 1.910 . S
O144 Zn141 1.933 . S
O144 C155 1.226 . S
O145 Zn143 1.932 . S
O145 C155 1.307 . S
O146 Zn139 1.919 . S
O146 C157 1.253 . S
O147 Zn141 1.941 . S
O147 C157 1.283 . S
O148 Zn141 1.965 . S
O148 C156 1.303 . S
O149 Zn142 1.938 . S
O149 C156 1.247 . S
O150 Zn142 1.906 . S
O150 C158 1.304 . S
O151 Zn139 1.924 . S
O151 C159 1.311 . S
O152 Zn143 1.977 . S
O152 C158 1.272 . S
O153 Zn143 1.910 . S
O153 C159 1.231 . S
C154 O138 1.225 . S
C154 O160 1.298 . S
C155 O144 1.226 . S
C155 O145 1.307 . S
C156 O148 1.303 . S
C156 O149 1.247 . S
C157 O146 1.253 . S
C157 O147 1.283 . S
C158 O150 1.304 . S
C158 O152 1.272 . S
C159 O151 1.311 . S
C159 O153 1.231 . S
O160 Zn142 1.953 . S
O160 C154 1.298 . S
O161 Zn162 1.953 . S
O161 C177 1.225 . S
Zn162 O161 1.953 . S
Zn162 O163 1.949 . S
Zn162 O169 1.919 . S
Zn162 O174 1.924 . S
O163 Zn162 1.949 . S
O163 Zn164 1.923 . S
O163 Zn165 1.950 . S
O163 Zn166 1.945 . S
Zn164 O163 1.923 . S
Zn164 O167 1.933 . S
Zn164 O170 1.941 . S
Zn164 O171 1.965 . S
Zn165 O163 1.950 . S
Zn165 O172 1.938 . S
Zn165 O173 1.906 . S
Zn165 O183 1.953 . S
Zn166 O163 1.945 . S
Zn166 O168 1.932 . S
Zn166 O175 1.977 . S
Zn166 O176 1.910 . S
O167 Zn164 1.933 . S
O167 C178 1.226 . S
O168 Zn166 1.932 . S
O168 C178 1.307 . S
O169 Zn162 1.919 . S
O169 C180 1.253 . S
O170 Zn164 1.941 . S
O170 C180 1.283 . S
O171 Zn164 1.965 . S
O171 C179 1.303 . S
O172 Zn165 1.938 . S
O172 C179 1.247 . S
O173 Zn165 1.906 . S
O173 C181 1.304 . S
O174 Zn162 1.924 . S
O174 C182 1.311 . S
O175 Zn166 1.977 . S
O175 C181 1.272 . S
O176 Zn166 1.910 . S
O176 C182 1.231 . S
C177 O161 1.225 . S
C177 O183 1.298 . S
C178 O167 1.226 . S
C178 O168 1.307 . S
C179 O171 1.303 . S
C179 O172 1.247 . S
C180 O169 1.253 . S
C180 O170 1.283 . S
C181 O173 1.304 . S
C181 O175 1.272 . S
C182 O174 1.311 . S
C182 O176 1.231 . S
O183 Zn165 1.953 . S
O183 C177 1.298 . S
O184 Zn185 1.953 . S
O184 C200 1.225 . S
Zn185 O184 1.953 . S
Zn185 O186 1.949 . S
Zn185 O192 1.919 . S
Zn185 O197 1.924 . S
O186 Zn185 1.949 . S
O186 Zn187 1.923 . S
O186 Zn188 1.950 . S
O186 Zn189 1.945 . S
Zn187 O186 1.923 . S
Zn187 O190 1.933 . S
Zn187 O193 1.941 . S
Zn187 O194 1.965 . S
Zn188 O186 1.950 . S
Zn188 O195 1.938 . S
Zn188 O196 1.906 . S
Zn188 O206 1.953 . S
Zn189 O186 1.945 . S
Zn189 O191 1.932 . S
Zn189 O198 1.977 1_554 S
Zn189 O199 1.910 1_554 S
O190 Zn187 1.933 . S
O190 C201 1.226 . S
O191 Zn189 1.932 . S
O191 C201 1.307 . S
O192 Zn185 1.919 . S
O192 C203 1.253 . S
O193 Zn187 1.941 . S
O193 C203 1.283 . S
O194 Zn187 1.965 . S
O194 C202 1.303 . S
O195 Zn188 1.938 . S
O195 C202 1.247 . S
O196 Zn188 1.906 . S
O196 C204 1.304 . S
O197 Zn185 1.924 . S
O197 C205 1.311 . S
O198 Zn189 1.977 1_556 S
O198 C204 1.272 1_556 S
O199 Zn189 1.910 1_556 S
O199 C205 1.231 1_556 S
C200 O184 1.225 . S
C200 O206 1.298 . S
C201 O190 1.226 . S
C201 O191 1.307 . S
C202 O194 1.303 . S
C202 O195 1.247 . S
C203 O192 1.253 . S
C203 O193 1.283 . S
C204 O196 1.304 . S
C204 O198 1.272 1_554 S
C205 O197 1.311 . S
C205 O199 1.231 1_554 S
O206 Zn188 1.953 . S
O206 C200 1.298 . S
O207 Zn208 1.953 . S
O207 C223 1.225 . S
Zn208 O207 1.953 . S
Zn208 O209 1.949 . S
Zn208 O215 1.919 . S
Zn208 O220 1.924 . S
O209 Zn208 1.949 . S
O209 Zn210 1.923 . S
O209 Zn211 1.950 . S
O209 Zn212 1.945 . S
Zn210 O209 1.923 . S
Zn210 O213 1.933 . S
Zn210 O216 1.941 . S
Zn210 O217 1.965 . S
Zn211 O209 1.950 . S
Zn211 O218 1.938 . S
Zn211 O219 1.906 . S
Zn211 O229 1.953 . S
Zn212 O209 1.945 . S
Zn212 O214 1.932 . S
Zn212 O221 1.977 1_556 S
Zn212 O222 1.910 1_556 S
O213 Zn210 1.933 . S
O213 C224 1.226 . S
O214 Zn212 1.932 . S
O214 C224 1.307 . S
O215 Zn208 1.919 . S
O215 C226 1.253 . S
O216 Zn210 1.941 . S
O216 C226 1.283 . S
O217 Zn210 1.965 . S
O217 C225 1.303 . S
O218 Zn211 1.938 . S
O218 C225 1.247 . S
O219 Zn211 1.906 . S
O219 C227 1.304 . S
O220 Zn208 1.924 . S
O220 C228 1.311 . S
O221 Zn212 1.977 1_554 S
O221 C227 1.272 1_554 S
O222 Zn212 1.910 1_554 S
O222 C228 1.231 1_554 S
C223 O207 1.225 . S
C223 O229 1.298 . S
C224 O213 1.226 . S
C224 O214 1.307 . S
C225 O217 1.303 . S
C225 O218 1.247 . S
C226 O215 1.253 . S
C226 O216 1.283 . S
C227 O219 1.304 . S
C227 O221 1.272 1_556 S
C228 O220 1.311 . S
C228 O222 1.231 1_556 S
O229 Zn211 1.953 . S
O229 C223 1.298 . S
O230 Zn231 1.953 . S
O230 C246 1.225 . S
Zn231 O230 1.953 . S
Zn231 O232 1.949 . S
Zn231 O238 1.919 . S
Zn231 O243 1.924 . S
O232 Zn231 1.949 . S
O232 Zn233 1.923 . S
O232 Zn234 1.950 . S
O232 Zn235 1.945 . S
Zn233 O232 1.923 . S
Zn233 O236 1.933 . S
Zn233 O239 1.941 . S
Zn233 O240 1.965 . S
Zn234 O232 1.950 . S
Zn234 O241 1.938 . S
Zn234 O242 1.906 . S
Zn234 O252 1.953 . S
Zn235 O232 1.945 . S
Zn235 O237 1.932 . S
Zn235 O244 1.977 . S
Zn235 O245 1.910 . S
O236 Zn233 1.933 . S
O236 C247 1.226 . S
O237 Zn235 1.932 . S
O237 C247 1.307 . S
O238 Zn231 1.919 . S
O238 C249 1.253 . S
O239 Zn233 1.941 . S
O239 C249 1.283 . S
O240 Zn233 1.965 . S
O240 C248 1.303 . S
O241 Zn234 1.938 . S
O241 C248 1.247 . S
O242 Zn234 1.906 . S
O242 C250 1.304 . S
O243 Zn231 1.924 . S
O243 C251 1.311 . S
O244 Zn235 1.977 . S
O244 C250 1.272 . S
O245 Zn235 1.910 . S
O245 C251 1.231 . S
C246 O230 1.225 . S
C246 O252 1.298 . S
C247 O236 1.226 . S
C247 O237 1.307 . S
C248 O240 1.303 . S
C248 O241 1.247 . S
C249 O238 1.253 . S
C249 O239 1.283 . S
C250 O242 1.304 . S
C250 O244 1.272 . S
C251 O243 1.311 . S
C251 O245 1.231 . S
O252 Zn234 1.953 . S
O252 C246 1.298 . S
O253 Zn254 1.953 . S
O253 C269 1.225 . S
Zn254 O253 1.953 . S
Zn254 O255 1.949 . S
Zn254 O261 1.919 . S
Zn254 O266 1.924 . S
O255 Zn254 1.949 . S
O255 Zn256 1.923 . S
O255 Zn257 1.950 . S
O255 Zn258 1.945 . S
Zn256 O255 1.923 . S
Zn256 O259 1.933 . S
Zn256 O262 1.941 . S
Zn256 O263 1.965 . S
Zn257 O255 1.950 . S
Zn257 O264 1.938 . S
Zn257 O265 1.906 . S
Zn257 O275 1.953 . S
Zn258 O255 1.945 . S
Zn258 O260 1.932 . S
Zn258 O267 1.977 . S
Zn258 O268 1.910 . S
O259 Zn256 1.933 . S
O259 C270 1.226 . S
O260 Zn258 1.932 . S
O260 C270 1.307 . S
O261 Zn254 1.919 . S
O261 C272 1.253 . S
O262 Zn256 1.941 . S
O262 C272 1.283 . S
O263 Zn256 1.965 . S
O263 C271 1.303 . S
O264 Zn257 1.938 . S
O264 C271 1.247 . S
O265 Zn257 1.906 . S
O265 C273 1.304 . S
O266 Zn254 1.924 . S
O266 C274 1.311 . S
O267 Zn258 1.977 . S
O267 C273 1.272 . S
O268 Zn258 1.910 . S
O268 C274 1.231 . S
C269 O253 1.225 . S
C269 O275 1.298 . S
C270 O259 1.226 . S
C270 O260 1.307 . S
C271 O263 1.303 . S
C271 O264 1.247 . S
C272 O261 1.253 . S
C272 O262 1.283 . S
C273 O265 1.304 . S
C273 O267 1.272 . S
C274 O266 1.311 . S
C274 O268 1.231 . S
O275 Zn257 1.953 . S
O275 C269 1.298 . S
O276 Zn277 1.953 . S
O276 C292 1.225 . S
Zn277 O276 1.953 . S
Zn277 O278 1.949 . S
Zn277 O284 1.919 . S
Zn277 O289 1.924 . S
O278 Zn277 1.949 . S
O278 Zn279 1.923 . S
O278 Zn280 1.950 . S
O278 Zn281 1.945 . S
Zn279 O278 1.923 . S
Zn279 O282 1.933 . S
Zn279 O285 1.941 . S
Zn279 O286 1.965 . S
Zn280 O278 1.950 . S
Zn280 O287 1.938 . S
Zn280 O288 1.906 . S
Zn280 O298 1.953 . S
Zn281 O278 1.945 . S
Zn281 O283 1.932 . S
Zn281 O290 1.977 1_655 S
Zn281 O291 1.910 1_655 S
O282 Zn279 1.933 . S
O282 C293 1.226 . S
O283 Zn281 1.932 . S
O283 C293 1.307 . S
O284 Zn277 1.919 . S
O284 C295 1.253 . S
O285 Zn279 1.941 . S
O285 C295 1.283 . S
O286 Zn279 1.965 . S
O286 C294 1.303 . S
O287 Zn280 1.938 . S
O287 C294 1.247 . S
O288 Zn280 1.906 . S
O288 C296 1.304 . S
O289 Zn277 1.924 . S
O289 C297 1.311 . S
O290 Zn281 1.977 1_455 S
O290 C296 1.272 1_455 S
O291 Zn281 1.910 1_455 S
O291 C297 1.231 1_455 S
C292 O276 1.225 . S
C292 O298 1.298 . S
C293 O282 1.226 . S
C293 O283 1.307 . S
C294 O286 1.303 . S
C294 O287 1.247 . S
C295 O284 1.253 . S
C295 O285 1.283 . S
C296 O288 1.304 . S
C296 O290 1.272 1_655 S
C297 O289 1.311 . S
C297 O291 1.231 1_655 S
O298 Zn280 1.953 . S
O298 C292 1.298 . S
O299 Zn300 1.953 . S
O299 C315 1.225 . S
Zn300 O299 1.953 . S
Zn300 O301 1.949 . S
Zn300 O307 1.919 . S
Zn300 O312 1.924 . S
O301 Zn300 1.949 . S
O301 Zn302 1.923 . S
O301 Zn303 1.950 . S
O301 Zn304 1.945 . S
Zn302 O301 1.923 . S
Zn302 O305 1.933 . S
Zn302 O308 1.941 . S
Zn302 O309 1.965 . S
Zn303 O301 1.950 . S
Zn303 O310 1.938 . S
Zn303 O311 1.906 . S
Zn303 O321 1.953 . S
Zn304 O301 1.945 . S
Zn304 O306 1.932 . S
Zn304 O313 1.977 . S
Zn304 O314 1.910 . S
O305 Zn302 1.933 . S
O305 C316 1.226 . S
O306 Zn304 1.932 . S
O306 C316 1.307 . S
O307 Zn300 1.919 . S
O307 C318 1.253 . S
O308 Zn302 1.941 . S
O308 C318 1.283 . S
O309 Zn302 1.965 . S
O309 C317 1.303 . S
O310 Zn303 1.938 . S
O310 C317 1.247 . S
O311 Zn303 1.906 . S
O311 C319 1.304 . S
O312 Zn300 1.924 . S
O312 C320 1.311 . S
O313 Zn304 1.977 . S
O313 C319 1.272 . S
O314 Zn304 1.910 . S
O314 C320 1.231 . S
C315 O299 1.225 . S
C315 O321 1.298 . S
C316 O305 1.226 . S
C316 O306 1.307 . S
C317 O309 1.303 . S
C317 O310 1.247 . S
C318 O307 1.253 . S
C318 O308 1.283 . S
C319 O311 1.304 . S
C319 O313 1.272 . S
C320 O312 1.311 . S
C320 O314 1.231 . S
O321 Zn303 1.953 . S
O321 C315 1.298 . S
O322 Zn323 1.953 . S
O322 C338 1.225 . S
Zn323 O322 1.953 . S
Zn323 O324 1.949 . S
Zn323 O330 1.919 . S
Zn323 O335 1.924 . S
O324 Zn323 1.949 . S
O324 Zn325 1.923 . S
O324 Zn326 1.950 . S
O324 Zn327 1.945 . S
Zn325 O324 1.923 . S
Zn325 O328 1.933 . S
Zn325 O331 1.941 . S
Zn325 O332 1.965 . S
Zn326 O324 1.950 . S
Zn326 O333 1.938 . S
Zn326 O334 1.906 . S
Zn326 O344 1.953 . S
Zn327 O324 1.945 . S
Zn327 O329 1.932 . S
Zn327 O336 1.977 . S
Zn327 O337 1.910 . S
O328 Zn325 1.933 . S
O328 C339 1.226 . S
O329 Zn327 1.932 . S
O329 C339 1.307 . S
O330 Zn323 1.919 . S
O330 C341 1.253 . S
O331 Zn325 1.941 . S
O331 C341 1.283 . S
O332 Zn325 1.965 . S
O332 C340 1.303 . S
O333 Zn326 1.938 . S
O333 C340 1.247 . S
O334 Zn326 1.906 . S
O334 C342 1.304 . S
O335 Zn323 1.924 . S
O335 C343 1.311 . S
O336 Zn327 1.977 . S
O336 C342 1.272 . S
O337 Zn327 1.910 . S
O337 C343 1.231 . S
C338 O322 1.225 . S
C338 O344 1.298 . S
C339 O328 1.226 . S
C339 O329 1.307 . S
C340 O332 1.303 . S
C340 O333 1.247 . S
C341 O330 1.253 . S
C341 O331 1.283 . S
C342 O334 1.304 . S
C342 O336 1.272 . S
C343 O335 1.311 . S
C343 O337 1.231 . S
O344 Zn326 1.953 . S
O344 C338 1.298 . S
O345 Zn346 1.953 . S
O345 C361 1.225 . S
Zn346 O345 1.953 . S
Zn346 O347 1.949 . S
Zn346 O353 1.919 . S
Zn346 O358 1.924 . S
O347 Zn346 1.949 . S
O347 Zn348 1.923 . S
O347 Zn349 1.950 . S
O347 Zn350 1.945 . S
Zn348 O347 1.923 . S
Zn348 O351 1.933 . S
Zn348 O354 1.941 . S
Zn348 O355 1.965 . S
Zn349 O347 1.950 . S
Zn349 O356 1.938 . S
Zn349 O357 1.906 . S
Zn349 O367 1.953 . S
Zn350 O347 1.945 . S
Zn350 O352 1.932 . S
Zn350 O359 1.977 1_455 S
Zn350 O360 1.910 1_455 S
O351 Zn348 1.933 . S
O351 C362 1.226 . S
O352 Zn350 1.932 . S
O352 C362 1.307 . S
O353 Zn346 1.919 . S
O353 C364 1.253 . S
O354 Zn348 1.941 . S
O354 C364 1.283 . S
O355 Zn348 1.965 . S
O355 C363 1.303 . S
O356 Zn349 1.938 . S
O356 C363 1.247 . S
O357 Zn349 1.906 . S
O357 C365 1.304 . S
O358 Zn346 1.924 . S
O358 C366 1.311 . S
O359 Zn350 1.977 1_655 S
O359 C365 1.272 1_655 S
O360 Zn350 1.910 1_655 S
O360 C366 1.231 1_655 S
C361 O345 1.225 . S
C361 O367 1.298 . S
C362 O351 1.226 . S
C362 O352 1.307 . S
C363 O355 1.303 . S
C363 O356 1.247 . S
C364 O353 1.253 . S
C364 O354 1.283 . S
C365 O357 1.304 . S
C365 O359 1.272 1_455 S
C366 O358 1.311 . S
C366 O360 1.231 1_455 S
O367 Zn349 1.953 . S
O367 C361 1.298 . S
O368 Zn369 1.953 . S
O368 C384 1.225 . S
Zn369 O368 1.953 . S
Zn369 O370 1.949 . S
Zn369 O376 1.919 . S
Zn369 O381 1.924 . S
O370 Zn369 1.949 . S
O370 Zn371 1.923 . S
O370 Zn372 1.950 . S
O370 Zn373 1.945 . S
Zn371 O370 1.923 . S
Zn371 O374 1.933 . S
Zn371 O377 1.941 . S
Zn371 O378 1.965 . S
Zn372 O370 1.950 . S
Zn372 O379 1.938 . S
Zn372 O380 1.906 . S
Zn372 O390 1.953 . S
Zn373 O370 1.945 . S
Zn373 O375 1.932 . S
Zn373 O382 1.977 1_565 S
Zn373 O383 1.910 1_565 S
O374 Zn371 1.933 . S
O374 C385 1.226 . S
O375 Zn373 1.932 . S
O375 C385 1.307 . S
O376 Zn369 1.919 . S
O376 C387 1.253 . S
O377 Zn371 1.941 . S
O377 C387 1.283 . S
O378 Zn371 1.965 . S
O378 C386 1.303 . S
O379 Zn372 1.938 . S
O379 C386 1.247 . S
O380 Zn372 1.906 . S
O380 C388 1.304 . S
O381 Zn369 1.924 . S
O381 C389 1.311 . S
O382 Zn373 1.977 1_545 S
O382 C388 1.272 1_545 S
O383 Zn373 1.910 1_545 S
O383 C389 1.231 1_545 S
C384 O368 1.225 . S
C384 O390 1.298 . S
C385 O374 1.226 . S
C385 O375 1.307 . S
C386 O378 1.303 . S
C386 O379 1.247 . S
C387 O376 1.253 . S
C387 O377 1.283 . S
C388 O380 1.304 . S
C388 O382 1.272 1_565 S
C389 O381 1.311 . S
C389 O383 1.231 1_565 S
O390 Zn372 1.953 . S
O390 C384 1.298 . S
O391 Zn392 1.953 . S
O391 C407 1.225 . S
Zn392 O391 1.953 . S
Zn392 O393 1.949 . S
Zn392 O399 1.919 . S
Zn392 O404 1.924 . S
O393 Zn392 1.949 . S
O393 Zn394 1.923 . S
O393 Zn395 1.950 . S
O393 Zn396 1.945 . S
Zn394 O393 1.923 . S
Zn394 O397 1.933 . S
Zn394 O400 1.941 . S
Zn394 O401 1.965 . S
Zn395 O393 1.950 . S
Zn395 O402 1.938 . S
Zn395 O403 1.906 . S
Zn395 O413 1.953 . S
Zn396 O393 1.945 . S
Zn396 O398 1.932 . S
Zn396 O405 1.977 1_545 S
Zn396 O406 1.910 1_545 S
O397 Zn394 1.933 . S
O397 C408 1.226 . S
O398 Zn396 1.932 . S
O398 C408 1.307 . S
O399 Zn392 1.919 . S
O399 C410 1.253 . S
O400 Zn394 1.941 . S
O400 C410 1.283 . S
O401 Zn394 1.965 . S
O401 C409 1.303 . S
O402 Zn395 1.938 . S
O402 C409 1.247 . S
O403 Zn395 1.906 . S
O403 C411 1.304 . S
O404 Zn392 1.924 . S
O404 C412 1.311 . S
O405 Zn396 1.977 1_565 S
O405 C411 1.272 1_565 S
O406 Zn396 1.910 1_565 S
O406 C412 1.231 1_565 S
C407 O391 1.225 . S
C407 O413 1.298 . S
C408 O397 1.226 . S
C408 O398 1.307 . S
C409 O401 1.303 . S
C409 O402 1.247 . S
C410 O399 1.253 . S
C410 O400 1.283 . S
C411 O403 1.304 . S
C411 O405 1.272 1_545 S
C412 O404 1.311 . S
C412 O406 1.231 1_545 S
O413 Zn395 1.953 . S
O413 C407 1.298 . S
O414 Zn415 1.953 . S
O414 C430 1.225 . S
Zn415 O414 1.953 . S
Zn415 O416 1.949 . S
Zn415 O422 1.919 . S
Zn415 O427 1.924 . S
O416 Zn415 1.949 . S
O416 Zn417 1.923 . S
O416 Zn418 1.950 . S
O416 Zn419 1.945 . S
Zn417 O416 1.923 . S
Zn417 O420 1.933 . S
Zn417 O423 1.941 . S
Zn417 O424 1.965 . S
Zn418 O416 1.950 . S
Zn418 O425 1.938 . S
Zn418 O426 1.906 . S
Zn418 O436 1.953 . S
Zn419 O416 1.945 . S
Zn419 O421 1.932 . S
Zn419 O428 1.977 . S
Zn419 O429 1.910 . S
O420 Zn417 1.933 . S
O420 C431 1.226 . S
O421 Zn419 1.932 . S
O421 C431 1.307 . S
O422 Zn415 1.919 . S
O422 C433 1.253 . S
O423 Zn417 1.941 . S
O423 C433 1.283 . S
O424 Zn417 1.965 . S
O424 C432 1.303 . S
O425 Zn418 1.938 . S
O425 C432 1.247 . S
O426 Zn418 1.906 . S
O426 C434 1.304 . S
O427 Zn415 1.924 . S
O427 C435 1.311 . S
O428 Zn419 1.977 . S
O428 C434 1.272 . S
O429 Zn419 1.910 . S
O429 C435 1.231 . S
C430 O414 1.225 . S
C430 O436 1.298 . S
C431 O420 1.226 . S
C431 O421 1.307 . S
C432 O424 1.303 . S
C432 O425 1.247 . S
C433 O422 1.253 . S
C433 O423 1.283 . S
C434 O426 1.304 . S
C434 O428 1.272 . S
C435 O427 1.311 . S
C435 O429 1.231 . S
O436 Zn418 1.953 . S
O436 C430 1.298 . S
O437 Zn438 1.953 . S
O437 C453 1.225 . S
Zn438 O437 1.953 . S
Zn438 O439 1.949 . S
Zn438 O445 1.919 . S
Zn438 O450 1.924 . S
O439 Zn438 1.949 . S
O439 Zn440 1.923 . S
O439 Zn441 1.950 . S
O439 Zn442 1.945 . S
Zn440 O439 1.923 . S
Zn440 O443 1.933 . S
Zn440 O446 1.941 . S
Zn440 O447 1.965 . S
Zn441 O439 1.950 . S
Zn441 O448 1.938 . S
Zn441 O449 1.906 . S
Zn441 O459 1.953 . S
Zn442 O439 1.945 . S
Zn442 O444 1.932 . S
Zn442 O451 1.977 . S
Zn442 O452 1.910 . S
O443 Zn440 1.933 . S
O443 C454 1.226 . S
O444 Zn442 1.932 . S
O444 C454 1.307 . S
O445 Zn438 1.919 . S
O445 C456 1.253 . S
O446 Zn440 1.941 . S
O446 C456 1.283 . S
O447 Zn440 1.965 . S
O447 C455 1.303 . S
O448 Zn441 1.938 . S
O448 C455 1.247 . S
O449 Zn441 1.906 . S
O449 C457 1.304 . S
O450 Zn438 1.924 . S
O450 C458 1.311 . S
O451 Zn442 1.977 . S
O451 C457 1.272 . S
O452 Zn442 1.910 . S
O452 C458 1.231 . S
C453 O437 1.225 . S
C453 O459 1.298 . S
C454 O443 1.226 . S
C454 O444 1.307 . S
C455 O447 1.303 . S
C455 O448 1.247 . S
C456 O445 1.253 . S
C456 O446 1.283 . S
C457 O449 1.304 . S
C457 O451 1.272 . S
C458 O450 1.311 . S
C458 O452 1.231 . S
O459 Zn441 1.953 . S
O459 C453 1.298 . S
O460 Zn461 1.953 . S
O460 C476 1.225 . S
Zn461 O460 1.953 . S
Zn461 O462 1.949 . S
Zn461 O468 1.919 . S
Zn461 O473 1.924 . S
O462 Zn461 1.949 . S
O462 Zn463 1.923 . S
O462 Zn464 1.950 . S
O462 Zn465 1.945 . S
Zn463 O462 1.923 . S
Zn463 O466 1.933 . S
Zn463 O469 1.941 . S
Zn463 O470 1.965 . S
Zn464 O462 1.950 . S
Zn464 O471 1.938 . S
Zn464 O472 1.906 . S
Zn464 O482 1.953 . S
Zn465 O462 1.945 . S
Zn465 O467 1.932 . S
Zn465 O474 1.977 1_556 S
Zn465 O475 1.910 1_556 S
O466 Zn463 1.933 . S
O466 C477 1.226 . S
O467 Zn465 1.932 . S
O467 C477 1.307 . S
O468 Zn461 1.919 . S
O468 C479 1.253 . S
O469 Zn463 1.941 . S
O469 C479 1.283 . S
O470 Zn463 1.965 . S
O470 C478 1.303 . S
O471 Zn464 1.938 . S
O471 C478 1.247 . S
O472 Zn464 1.906 . S
O472 C480 1.304 . S
O473 Zn461 1.924 . S
O473 C481 1.311 . S
O474 Zn465 1.977 1_554 S
O474 C480 1.272 1_554 S
O475 Zn465 1.910 1_554 S
O475 C481 1.231 1_554 S
C476 O460 1.225 . S
C476 O482 1.298 . S
C477 O466 1.226 . S
C477 O467 1.307 . S
C478 O470 1.303 . S
C478 O471 1.247 . S
C479 O468 1.253 . S
C479 O469 1.283 . S
C480 O472 1.304 . S
C480 O474 1.272 1_556 S
C481 O473 1.311 . S
C481 O475 1.231 1_556 S
O482 Zn464 1.953 . S
O482 C476 1.298 . S
O483 Zn484 1.953 . S
O483 C499 1.225 . S
Zn484 O483 1.953 . S
Zn484 O485 1.949 . S
Zn484 O491 1.919 . S
Zn484 O496 1.924 . S
O485 Zn484 1.949 . S
O485 Zn486 1.923 . S
O485 Zn487 1.950 . S
O485 Zn488 1.945 . S
Zn486 O485 1.923 . S
Zn486 O489 1.933 . S
Zn486 O492 1.941 . S
Zn486 O493 1.965 . S
Zn487 O485 1.950 . S
Zn487 O494 1.938 . S
Zn487 O495 1.906 . S
Zn487 O505 1.953 . S
Zn488 O485 1.945 . S
Zn488 O490 1.932 . S
Zn488 O497 1.977 1_554 S
Zn488 O498 1.910 1_554 S
O489 Zn486 1.933 . S
O489 C500 1.226 . S
O490 Zn488 1.932 . S
O490 C500 1.307 . S
O491 Zn484 1.919 . S
O491 C502 1.253 . S
O492 Zn486 1.941 . S
O492 C502 1.283 . S
O493 Zn486 1.965 . S
O493 C501 1.303 . S
O494 Zn487 1.938 . S
O494 C501 1.247 . S
O495 Zn487 1.906 . S
O495 C503 1.304 . S
O496 Zn484 1.924 . S
O496 C504 1.311 . S
O497 Zn488 1.977 1_556 S
O497 C503 1.272 1_556 S
O498 Zn488 1.910 1_556 S
O498 C504 1.231 1_556 S
C499 O483 1.225 . S
C499 O505 1.298 . S
C500 O489 1.226 . S
C500 O490 1.307 . S
C501 O493 1.303 . S
C501 O494 1.247 . S
C502 O491 1.253 . S
C502 O492 1.283 . S
C503 O495 1.304 . S
C503 O497 1.272 1_554 S
C504 O496 1.311 . S
C504 O498 1.231 1_554 S
O505 Zn487 1.953 . S
O505 C499 1.298 . S
O506 Zn507 1.953 . S
O506 C522 1.225 . S
Zn507 O506 1.953 . S
Zn507 O508 1.949 . S
Zn507 O514 1.919 . S
Zn507 O519 1.924 . S
O508 Zn507 1.949 . S
O508 Zn509 1.923 . S
O508 Zn510 1.950 . S
O508 Zn511 1.945 . S
Zn509 O508 1.923 . S
Zn509 O512 1.933 . S
Zn509 O515 1.941 . S
Zn509 O516 1.965 . S
Zn510 O508 1.950 . S
Zn510 O517 1.938 . S
Zn510 O518 1.906 . S
Zn510 O528 1.953 . S
Zn511 O508 1.945 . S
Zn511 O513 1.932 . S
Zn511 O520 1.977 . S
Zn511 O521 1.910 . S
O512 Zn509 1.933 . S
O512 C523 1.226 . S
O513 Zn511 1.932 . S
O513 C523 1.307 . S
O514 Zn507 1.919 . S
O514 C525 1.253 . S
O515 Zn509 1.941 . S
O515 C525 1.283 . S
O516 Zn509 1.965 . S
O516 C524 1.303 . S
O517 Zn510 1.938 . S
O517 C524 1.247 . S
O518 Zn510 1.906 . S
O518 C526 1.304 . S
O519 Zn507 1.924 . S
O519 C527 1.311 . S
O520 Zn511 1.977 . S
O520 C526 1.272 . S
O521 Zn511 1.910 . S
O521 C527 1.231 . S
C522 O506 1.225 . S
C522 O528 1.298 . S
C523 O512 1.226 . S
C523 O513 1.307 . S
C524 O516 1.303 . S
C524 O517 1.247 . S
C525 O514 1.253 . S
C525 O515 1.283 . S
C526 O518 1.304 . S
C526 O520 1.272 . S
C527 O519 1.311 . S
C527 O521 1.231 . S
O528 Zn510 1.953 . S
O528 C522 1.298 . S
O529 Zn530 1.953 . S
O529 C545 1.225 . S
Zn530 O529 1.953 . S
Zn530 O531 1.949 . S
Zn530 O537 1.919 . S
Zn530 O542 1.924 . S
O531 Zn530 1.949 . S
O531 Zn532 1.923 . S
O531 Zn533 1.950 . S
O531 Zn534 1.945 . S
Zn532 O531 1.923 . S
Zn532 O535 1.933 . S
Zn532 O538 1.941 . S
Zn532 O539 1.965 . S
Zn533 O531 1.950 . S
Zn533 O540 1.938 . S
Zn533 O541 1.906 . S
Zn533 O551 1.953 . S
Zn534 O531 1.945 . S
Zn534 O536 1.932 . S
Zn534 O543 1.977 . S
Zn534 O544 1.910 . S
O535 Zn532 1.933 . S
O535 C546 1.226 . S
O536 Zn534 1.932 . S
O536 C546 1.307 . S
O537 Zn530 1.919 . S
O537 C548 1.253 . S
O538 Zn532 1.941 . S
O538 C548 1.283 . S
O539 Zn532 1.965 . S
O539 C547 1.303 . S
O540 Zn533 1.938 . S
O540 C547 1.247 . S
O541 Zn533 1.906 . S
O541 C549 1.304 . S
O542 Zn530 1.924 . S
O542 C550 1.311 . S
O543 Zn534 1.977 . S
O543 C549 1.272 . S
O544 Zn534 1.910 . S
O544 C550 1.231 . S
C545 O529 1.225 . S
C545 O551 1.298 . S
C546 O535 1.226 . S
C546 O536 1.307 . S
C547 O539 1.303 . S
C547 O540 1.247 . S
C548 O537 1.253 . S
C548 O538 1.283 . S
C549 O541 1.304 . S
C549 O543 1.272 . S
C550 O542 1.311 . S
C550 O544 1.231 . S
O551 Zn533 1.953 . S
O551 C545 1.298 . S
H552 C560 0.929 . S
H553 C562 0.930 . S
H554 C564 0.930 . S
H555 C567 0.929 . S
H556 C570 0.930 . S
H557 C572 0.960 . S
H558 C572 0.960 . S
H559 C572 0.960 . S
C560 H552 0.929 . S
C560 C561 1.377 . S
C560 C562 1.384 . S
C561 C560 1.377 . S
C561 C567 1.390 . S
C562 H553 0.930 . S
C562 C560 1.384 . S
C562 C563 1.372 . S
C563 C562 1.372 . S
C563 C564 1.400 . S
C563 C568 1.490 . S
C564 H554 0.930 . S
C564 C563 1.400 . S
C564 C567 1.386 . S
H565 C581 0.930 . S
H566 C582 0.931 . S
C567 H555 0.929 . S
C567 C561 1.390 . S
C567 C564 1.386 . S
C568 C563 1.490 . S
C568 C570 1.395 . S
C568 C571 1.403 . S
H569 C575 0.930 . S
C570 H556 0.930 . S
C570 C568 1.395 . S
C570 C573 1.403 . S
C571 C568 1.403 . S
C571 C572 1.524 . S
C571 C575 1.400 . S
C572 H557 0.960 . S
C572 H558 0.960 . S
C572 H559 0.960 . S
C572 C571 1.524 . S
C573 C570 1.403 . S
C573 C574 1.392 . S
C573 C577 1.495 . S
C574 C573 1.392 . S
C574 C575 1.385 . S
C574 C576 1.478 . S
C575 H569 0.930 . S
C575 C571 1.400 . S
C575 C574 1.385 . S
C576 C574 1.478 . S
C576 C578 1.381 . S
C576 C582 1.383 . S
C577 C573 1.495 . S
C577 H583 0.959 . S
C577 H584 0.961 . S
C577 H585 0.960 . S
C578 C576 1.381 . S
C578 C579 1.394 . S
C578 H586 0.930 . S
C579 C578 1.394 . S
C579 C580 1.383 . S
C579 H587 0.929 . S
C580 C579 1.383 . S
C580 C581 1.377 . S
C581 H565 0.930 . S
C581 C580 1.377 . S
C581 C582 1.379 . S
C582 H566 0.931 . S
C582 C576 1.383 . S
C582 C581 1.379 . S
H583 C577 0.959 . S
H584 C577 0.961 . S
H585 C577 0.960 . S
H586 C578 0.930 . S
H587 C579 0.929 . S
H588 C596 0.929 . S
H589 C598 0.930 . S
H590 C600 0.930 . S
H591 C603 0.929 . S
H592 C606 0.930 . S
H593 C608 0.960 . S
H594 C608 0.960 . S
H595 C608 0.960 . S
C596 H588 0.929 . S
C596 C597 1.377 . S
C596 C598 1.384 . S
C597 C596 1.377 . S
C597 C603 1.390 . S
C598 H589 0.930 . S
C598 C596 1.384 . S
C598 C599 1.372 . S
C599 C598 1.372 . S
C599 C600 1.400 . S
C599 C604 1.490 . S
C600 H590 0.930 . S
C600 C599 1.400 . S
C600 C603 1.386 . S
H601 C617 0.930 . S
H602 C618 0.931 . S
C603 H591 0.929 . S
C603 C597 1.390 . S
C603 C600 1.386 . S
C604 C599 1.490 . S
C604 C606 1.395 . S
C604 C607 1.403 . S
H605 C611 0.930 . S
C606 H592 0.930 . S
C606 C604 1.395 . S
C606 C609 1.403 . S
C607 C604 1.403 . S
C607 C608 1.524 . S
C607 C611 1.400 . S
C608 H593 0.960 . S
C608 H594 0.960 . S
C608 H595 0.960 . S
C608 C607 1.524 . S
C609 C606 1.403 . S
C609 C610 1.392 . S
C609 C613 1.495 . S
C610 C609 1.392 . S
C610 C611 1.385 . S
C610 C612 1.478 . S
C611 H605 0.930 . S
C611 C607 1.400 . S
C611 C610 1.385 . S
C612 C610 1.478 . S
C612 C614 1.381 . S
C612 C618 1.383 . S
C613 C609 1.495 . S
C613 H619 0.959 . S
C613 H620 0.961 . S
C613 H621 0.960 . S
C614 C612 1.381 . S
C614 C615 1.394 . S
C614 H622 0.930 . S
C615 C614 1.394 . S
C615 C616 1.383 . S
C615 H623 0.929 . S
C616 C615 1.383 . S
C616 C617 1.377 . S
C617 H601 0.930 . S
C617 C616 1.377 . S
C617 C618 1.379 . S
C618 H602 0.931 . S
C618 C612 1.383 . S
C618 C617 1.379 . S
H619 C613 0.959 . S
H620 C613 0.961 . S
H621 C613 0.960 . S
H622 C614 0.930 . S
H623 C615 0.929 . S
H624 C632 0.929 . S
H625 C634 0.930 . S
H626 C636 0.930 . S
H627 C639 0.929 . S
H628 C642 0.930 . S
H629 C644 0.960 . S
H630 C644 0.960 . S
H631 C644 0.960 . S
C632 H624 0.929 . S
C632 C633 1.377 . S
C632 C634 1.384 . S
C633 C632 1.377 . S
C633 C639 1.390 . S
C634 H625 0.930 . S
C634 C632 1.384 . S
C634 C635 1.372 . S
C635 C634 1.372 . S
C635 C636 1.400 . S
C635 C640 1.490 . S
C636 H626 0.930 . S
C636 C635 1.400 . S
C636 C639 1.386 . S
H637 C653 0.933 1_565 S
H638 C654 0.931 . S
C639 H627 0.929 . S
C639 C633 1.390 . S
C639 C636 1.386 . S
C640 C635 1.490 . S
C640 C642 1.395 . S
C640 C643 1.403 . S
H641 C647 0.930 . S
C642 H628 0.930 . S
C642 C640 1.395 . S
C642 C645 1.403 . S
C643 C640 1.403 . S
C643 C644 1.524 . S
C643 C647 1.400 . S
C644 H629 0.960 . S
C644 H630 0.960 . S
C644 H631 0.960 . S
C644 C643 1.524 . S
C645 C642 1.403 . S
C645 C646 1.392 . S
C645 C649 1.495 . S
C646 C645 1.392 . S
C646 C647 1.385 . S
C646 C648 1.478 . S
C647 H641 0.930 . S
C647 C643 1.400 . S
C647 C646 1.385 . S
C648 C646 1.478 . S
C648 C650 1.381 . S
C648 C654 1.383 . S
C649 C645 1.495 . S
C649 H655 0.959 . S
C649 H656 0.961 . S
C649 H657 0.960 . S
C650 C648 1.381 . S
C650 C651 1.394 . S
C650 H658 0.930 . S
C651 C650 1.394 . S
C651 C652 1.383 . S
C651 H659 0.929 . S
C652 C651 1.383 . S
C652 C653 1.377 . S
C653 H637 0.933 1_545 S
C653 C652 1.377 . S
C653 C654 1.376 . S
C654 H638 0.931 . S
C654 C648 1.383 . S
C654 C653 1.376 . S
H655 C649 0.959 . S
H656 C649 0.961 . S
H657 C649 0.960 . S
H658 C650 0.930 . S
H659 C651 0.929 . S
H660 C668 0.929 . S
H661 C670 0.930 . S
H662 C672 0.930 . S
H663 C675 0.929 . S
H664 C678 0.930 . S
H665 C680 0.960 . S
H666 C680 0.960 . S
H667 C680 0.960 . S
C668 H660 0.929 . S
C668 C669 1.377 . S
C668 C670 1.384 . S
C669 C668 1.377 . S
C669 C675 1.390 . S
C670 H661 0.930 . S
C670 C668 1.384 . S
C670 C671 1.372 . S
C671 C670 1.372 . S
C671 C672 1.400 . S
C671 C676 1.490 . S
C672 H662 0.930 . S
C672 C671 1.400 . S
C672 C675 1.386 . S
H673 C689 0.930 . S
H674 C690 0.931 . S
C675 H663 0.929 . S
C675 C669 1.390 . S
C675 C672 1.386 . S
C676 C671 1.490 . S
C676 C678 1.395 . S
C676 C679 1.403 . S
H677 C683 0.930 . S
C678 H664 0.930 . S
C678 C676 1.395 . S
C678 C681 1.403 . S
C679 C676 1.403 . S
C679 C680 1.524 . S
C679 C683 1.400 . S
C680 H665 0.960 . S
C680 H666 0.960 . S
C680 H667 0.960 . S
C680 C679 1.524 . S
C681 C678 1.403 . S
C681 C682 1.392 . S
C681 C685 1.495 . S
C682 C681 1.392 . S
C682 C683 1.385 . S
C682 C684 1.478 . S
C683 H677 0.930 . S
C683 C679 1.400 . S
C683 C682 1.385 . S
C684 C682 1.478 . S
C684 C686 1.381 . S
C684 C690 1.383 . S
C685 C681 1.495 . S
C685 H691 0.959 . S
C685 H692 0.961 . S
C685 H693 0.960 . S
C686 C684 1.381 . S
C686 C687 1.394 . S
C686 H694 0.930 . S
C687 C686 1.394 . S
C687 C688 1.423 . S
C687 H695 0.929 . S
C688 C687 1.423 . S
C688 C689 1.366 1_565 S
C689 H673 0.930 . S
C689 C688 1.366 1_545 S
C689 C690 1.379 1_545 S
C690 H674 0.931 . S
C690 C684 1.383 . S
C690 C689 1.379 1_565 S
H691 C685 0.959 . S
H692 C685 0.961 . S
H693 C685 0.960 . S
H694 C686 0.930 . S
H695 C687 0.929 . S
H696 C704 0.929 . S
H697 C706 0.930 . S
H698 C708 0.930 . S
H699 C711 0.929 . S
H700 C714 0.930 . S
H701 C716 0.960 . S
H702 C716 0.960 . S
H703 C716 0.960 . S
C704 H696 0.929 . S
C704 C705 1.377 . S
C704 C706 1.384 . S
C705 C704 1.377 . S
C705 C711 1.390 . S
C706 H697 0.930 . S
C706 C704 1.384 . S
C706 C707 1.372 . S
C707 C706 1.372 . S
C707 C708 1.400 . S
C707 C712 1.490 . S
C708 H698 0.930 . S
C708 C707 1.400 . S
C708 C711 1.386 . S
H709 C725 0.930 . S
H710 C726 0.931 . S
C711 H699 0.929 . S
C711 C705 1.390 . S
C711 C708 1.386 . S
C712 C707 1.490 . S
C712 C714 1.395 . S
C712 C715 1.403 . S
H713 C719 0.930 . S
C714 H700 0.930 . S
C714 C712 1.395 . S
C714 C717 1.403 . S
C715 C712 1.403 . S
C715 C716 1.524 . S
C715 C719 1.400 . S
C716 H701 0.960 . S
C716 H702 0.960 . S
C716 H703 0.960 . S
C716 C715 1.524 . S
C717 C714 1.403 . S
C717 C718 1.392 . S
C717 C721 1.495 . S
C718 C717 1.392 . S
C718 C719 1.385 . S
C718 C720 1.478 . S
C719 H713 0.930 . S
C719 C715 1.400 . S
C719 C718 1.385 . S
C720 C718 1.478 . S
C720 C722 1.381 . S
C720 C726 1.383 . S
C721 C717 1.495 . S
C721 H727 0.959 . S
C721 H728 0.961 . S
C721 H729 0.960 . S
C722 C720 1.381 . S
C722 C723 1.394 . S
C722 H730 0.930 . S
C723 C722 1.394 . S
C723 C724 1.383 . S
C723 H731 0.929 . S
C724 C723 1.383 . S
C724 C725 1.377 . S
C725 H709 0.930 . S
C725 C724 1.377 . S
C725 C726 1.379 . S
C726 H710 0.931 . S
C726 C720 1.383 . S
C726 C725 1.379 . S
H727 C721 0.959 . S
H728 C721 0.961 . S
H729 C721 0.960 . S
H730 C722 0.930 . S
H731 C723 0.929 . S
H732 C740 0.929 . S
H733 C742 0.930 . S
H734 C744 0.930 . S
H735 C747 0.929 . S
H736 C750 0.930 . S
H737 C752 0.960 . S
H738 C752 0.960 . S
H739 C752 0.960 . S
C740 H732 0.929 . S
C740 C741 1.377 . S
C740 C742 1.384 . S
C741 C740 1.377 . S
C741 C747 1.390 . S
C742 H733 0.930 . S
C742 C740 1.384 . S
C742 C743 1.372 . S
C743 C742 1.372 . S
C743 C744 1.400 . S
C743 C748 1.490 . S
C744 H734 0.930 . S
C744 C743 1.400 . S
C744 C747 1.386 . S
H745 C761 0.930 . S
H746 C762 0.931 . S
C747 H735 0.929 . S
C747 C741 1.390 . S
C747 C744 1.386 . S
C748 C743 1.490 . S
C748 C750 1.395 . S
C748 C751 1.403 . S
H749 C755 0.930 . S
C750 H736 0.930 . S
C750 C748 1.395 . S
C750 C753 1.403 . S
C751 C748 1.403 . S
C751 C752 1.524 . S
C751 C755 1.400 . S
C752 H737 0.960 . S
C752 H738 0.960 . S
C752 H739 0.960 . S
C752 C751 1.524 . S
C753 C750 1.403 . S
C753 C754 1.392 . S
C753 C757 1.495 . S
C754 C753 1.392 . S
C754 C755 1.385 . S
C754 C756 1.478 . S
C755 H749 0.930 . S
C755 C751 1.400 . S
C755 C754 1.385 . S
C756 C754 1.478 . S
C756 C758 1.381 . S
C756 C762 1.383 . S
C757 C753 1.495 . S
C757 H763 0.959 . S
C757 H764 0.961 . S
C757 H765 0.960 . S
C758 C756 1.381 . S
C758 C759 1.394 1_556 S
C758 H766 0.930 . S
C759 C758 1.394 1_554 S
C759 C760 1.395 . S
C759 H767 0.929 . S
C760 C759 1.395 . S
C760 C761 1.334 1_554 S
C761 H745 0.930 . S
C761 C760 1.334 1_556 S
C761 C762 1.379 . S
C762 H746 0.931 . S
C762 C756 1.383 . S
C762 C761 1.379 . S
H763 C757 0.959 . S
H764 C757 0.961 . S
H765 C757 0.960 . S
H766 C758 0.930 . S
H767 C759 0.929 . S
H768 C776 0.929 . S
H769 C778 0.930 . S
H770 C780 0.930 . S
H771 C783 0.929 . S
H772 C786 0.930 . S
H773 C788 0.960 . S
H774 C788 0.960 . S
H775 C788 0.960 . S
C776 H768 0.929 . S
C776 C777 1.377 . S
C776 C778 1.384 . S
C777 C776 1.377 . S
C777 C783 1.390 . S
C778 H769 0.930 . S
C778 C776 1.384 . S
C778 C779 1.372 . S
C779 C778 1.372 . S
C779 C780 1.400 . S
C779 C784 1.490 . S
C780 H770 0.930 . S
C780 C779 1.400 . S
C780 C783 1.386 . S
H781 C797 0.930 . S
H782 C798 0.931 . S
C783 H771 0.929 . S
C783 C777 1.390 . S
C783 C780 1.386 . S
C784 C779 1.490 . S
C784 C786 1.395 . S
C784 C787 1.403 . S
H785 C791 0.930 . S
C786 H772 0.930 . S
C786 C784 1.395 . S
C786 C789 1.403 . S
C787 C784 1.403 . S
C787 C788 1.524 . S
C787 C791 1.400 . S
C788 H773 0.960 . S
C788 H774 0.960 . S
C788 H775 0.960 . S
C788 C787 1.524 . S
C789 C786 1.403 . S
C789 C790 1.392 . S
C789 C793 1.495 . S
C790 C789 1.392 . S
C790 C791 1.385 . S
C790 C792 1.478 . S
C791 H785 0.930 . S
C791 C787 1.400 . S
C791 C790 1.385 . S
C792 C790 1.478 . S
C792 C794 1.381 . S
C792 C798 1.383 . S
C793 C789 1.495 . S
C793 H799 0.959 . S
C793 H800 0.961 . S
C793 H801 0.960 . S
C794 C792 1.381 . S
C794 C795 1.394 . S
C794 H802 0.930 . S
C795 C794 1.394 . S
C795 C796 1.383 . S
C795 H803 0.929 . S
C796 C795 1.383 . S
C796 C797 1.377 . S
C797 H781 0.930 . S
C797 C796 1.377 . S
C797 C798 1.379 . S
C798 H782 0.931 . S
C798 C792 1.383 . S
C798 C797 1.379 . S
H799 C793 0.959 . S
H800 C793 0.961 . S
H801 C793 0.960 . S
H802 C794 0.930 . S
H803 C795 0.929 . S
H804 C812 0.929 . S
H805 C814 0.930 . S
H806 C816 0.930 . S
H807 C819 0.929 . S
H808 C822 0.930 . S
H809 C824 0.960 . S
H810 C824 0.960 . S
H811 C824 0.960 . S
C812 H804 0.929 . S
C812 C813 1.377 . S
C812 C814 1.384 . S
C813 C812 1.377 . S
C813 C819 1.390 . S
C814 H805 0.930 . S
C814 C812 1.384 . S
C814 C815 1.372 . S
C815 C814 1.372 . S
C815 C816 1.400 . S
C815 C820 1.490 . S
C816 H806 0.930 . S
C816 C815 1.400 . S
C816 C819 1.386 . S
H817 C833 0.930 . S
H818 C834 0.931 . S
C819 H807 0.929 . S
C819 C813 1.390 . S
C819 C816 1.386 . S
C820 C815 1.490 . S
C820 C822 1.395 . S
C820 C823 1.403 . S
H821 C827 0.930 . S
C822 H808 0.930 . S
C822 C820 1.395 . S
C822 C825 1.403 . S
C823 C820 1.403 . S
C823 C824 1.524 . S
C823 C827 1.400 . S
C824 H809 0.960 . S
C824 H810 0.960 . S
C824 H811 0.960 . S
C824 C823 1.524 . S
C825 C822 1.403 . S
C825 C826 1.392 . S
C825 C829 1.495 . S
C826 C825 1.392 . S
C826 C827 1.385 . S
C826 C828 1.478 . S
C827 H821 0.930 . S
C827 C823 1.400 . S
C827 C826 1.385 . S
C828 C826 1.478 . S
C828 C830 1.381 . S
C828 C834 1.383 . S
C829 C825 1.495 . S
C829 H835 0.959 . S
C829 H836 0.961 . S
C829 H837 0.960 . S
C830 C828 1.381 . S
C830 C831 1.405 . S
C830 H838 0.930 . S
C831 C830 1.405 . S
C831 C832 1.382 1_554 S
C831 H839 0.920 1_554 S
C832 C831 1.382 1_556 S
C832 C833 1.377 1_556 S
C833 H817 0.930 . S
C833 C832 1.377 1_554 S
C833 C834 1.379 . S
C834 H818 0.931 . S
C834 C828 1.383 . S
C834 C833 1.379 . S
H835 C829 0.959 . S
H836 C829 0.961 . S
H837 C829 0.960 . S
H838 C830 0.930 . S
H839 C831 0.920 1_556 S
H840 C848 0.929 . S
H841 C850 0.930 . S
H842 C852 0.930 . S
H843 C855 0.929 . S
H844 C858 0.930 . S
H845 C860 0.960 . S
H846 C860 0.960 . S
H847 C860 0.960 . S
C848 H840 0.929 . S
C848 C849 1.377 . S
C848 C850 1.384 . S
C849 C848 1.377 . S
C849 C855 1.390 . S
C850 H841 0.930 . S
C850 C848 1.384 . S
C850 C851 1.372 . S
C851 C850 1.372 . S
C851 C852 1.400 . S
C851 C856 1.490 . S
C852 H842 0.930 . S
C852 C851 1.400 . S
C852 C855 1.386 . S
H853 C869 0.930 . S
H854 C870 0.931 . S
C855 H843 0.929 . S
C855 C849 1.390 . S
C855 C852 1.386 . S
C856 C851 1.490 . S
C856 C858 1.395 . S
C856 C859 1.403 . S
H857 C863 0.930 . S
C858 H844 0.930 . S
C858 C856 1.395 . S
C858 C861 1.403 . S
C859 C856 1.403 . S
C859 C860 1.524 . S
C859 C863 1.400 . S
C860 H845 0.960 . S
C860 H846 0.960 . S
C860 H847 0.960 . S
C860 C859 1.524 . S
C861 C858 1.403 . S
C861 C862 1.392 . S
C861 C865 1.495 . S
C862 C861 1.392 . S
C862 C863 1.385 . S
C862 C864 1.478 . S
C863 H857 0.930 . S
C863 C859 1.400 . S
C863 C862 1.385 . S
C864 C862 1.478 . S
C864 C866 1.381 . S
C864 C870 1.383 . S
C865 C861 1.495 . S
C865 H871 0.959 . S
C865 H872 0.961 . S
C865 H873 0.960 . S
C866 C864 1.381 . S
C866 C867 1.394 . S
C866 H874 0.930 . S
C867 C866 1.394 . S
C867 C868 1.383 . S
C867 H875 0.929 . S
C868 C867 1.383 . S
C868 C869 1.377 . S
C869 H853 0.930 . S
C869 C868 1.377 . S
C869 C870 1.379 . S
C870 H854 0.931 . S
C870 C864 1.383 . S
C870 C869 1.379 . S
H871 C865 0.959 . S
H872 C865 0.961 . S
H873 C865 0.960 . S
H874 C866 0.930 . S
H875 C867 0.929 . S
H876 C884 0.929 . S
H877 C886 0.930 . S
H878 C888 0.930 . S
H879 C891 0.929 . S
H880 C894 0.930 . S
H881 C896 0.960 . S
H882 C896 0.960 . S
H883 C896 0.960 . S
C884 H876 0.929 . S
C884 C885 1.377 . S
C884 C886 1.384 . S
C885 C884 1.377 . S
C885 C891 1.390 . S
C886 H877 0.930 . S
C886 C884 1.384 . S
C886 C887 1.372 . S
C887 C886 1.372 . S
C887 C888 1.400 . S
C887 C892 1.490 . S
C888 H878 0.930 . S
C888 C887 1.400 . S
C888 C891 1.386 . S
H889 C905 0.930 . S
H890 C906 0.931 . S
C891 H879 0.929 . S
C891 C885 1.390 . S
C891 C888 1.386 . S
C892 C887 1.490 . S
C892 C894 1.395 . S
C892 C895 1.403 . S
H893 C899 0.930 . S
C894 H880 0.930 . S
C894 C892 1.395 . S
C894 C897 1.403 . S
C895 C892 1.403 . S
C895 C896 1.524 . S
C895 C899 1.400 . S
C896 H881 0.960 . S
C896 H882 0.960 . S
C896 H883 0.960 . S
C896 C895 1.524 . S
C897 C894 1.403 . S
C897 C898 1.392 . S
C897 C901 1.495 . S
C898 C897 1.392 . S
C898 C899 1.385 . S
C898 C900 1.478 . S
C899 H893 0.930 . S
C899 C895 1.400 . S
C899 C898 1.385 . S
C900 C898 1.478 . S
C900 C902 1.381 . S
C900 C906 1.383 . S
C901 C897 1.495 . S
C901 H907 0.959 . S
C901 H908 0.961 . S
C901 H909 0.960 . S
C902 C900 1.381 . S
C902 C903 1.394 . S
C902 H910 0.930 . S
C903 C902 1.394 . S
C903 C904 1.383 1_655 S
C903 H911 0.929 1_655 S
C904 C903 1.383 1_455 S
C904 C905 1.377 1_455 S
C905 H889 0.930 . S
C905 C904 1.377 1_655 S
C905 C906 1.379 . S
C906 H890 0.931 . S
C906 C900 1.383 . S
C906 C905 1.379 . S
H907 C901 0.959 . S
H908 C901 0.961 . S
H909 C901 0.960 . S
H910 C902 0.930 . S
H911 C903 0.929 1_455 S
H912 C920 0.929 . S
H913 C922 0.930 . S
H914 C924 0.930 . S
H915 C927 0.929 . S
H916 C930 0.930 . S
H917 C932 0.960 . S
H918 C932 0.960 . S
H919 C932 0.960 . S
C920 H912 0.929 . S
C920 C921 1.377 . S
C920 C922 1.384 . S
C921 C920 1.377 . S
C921 C927 1.390 . S
C922 H913 0.930 . S
C922 C920 1.384 . S
C922 C923 1.372 . S
C923 C922 1.372 . S
C923 C924 1.400 . S
C923 C928 1.490 . S
C924 H914 0.930 . S
C924 C923 1.400 . S
C924 C927 1.386 . S
H925 C941 0.930 . S
H926 C942 0.931 . S
C927 H915 0.929 . S
C927 C921 1.390 . S
C927 C924 1.386 . S
C928 C923 1.490 . S
C928 C930 1.395 . S
C928 C931 1.403 . S
H929 C935 0.930 . S
C930 H916 0.930 . S
C930 C928 1.395 . S
C930 C933 1.403 . S
C931 C928 1.403 . S
C931 C932 1.524 . S
C931 C935 1.400 . S
C932 H917 0.960 . S
C932 H918 0.960 . S
C932 H919 0.960 . S
C932 C931 1.524 . S
C933 C930 1.403 . S
C933 C934 1.392 . S
C933 C937 1.495 . S
C934 C933 1.392 . S
C934 C935 1.385 . S
C934 C936 1.478 . S
C935 H929 0.930 . S
C935 C931 1.400 . S
C935 C934 1.385 . S
C936 C934 1.478 . S
C936 C938 1.381 . S
C936 C942 1.383 . S
C937 C933 1.495 . S
C937 H943 0.959 . S
C937 H944 0.961 . S
C937 H945 0.960 . S
C938 C936 1.381 . S
C938 C939 1.394 . S
C938 H946 0.930 . S
C939 C938 1.394 . S
C939 C940 1.383 . S
C939 H947 0.929 . S
C940 C939 1.383 . S
C940 C941 1.377 . S
C941 H925 0.930 . S
C941 C940 1.377 . S
C941 C942 1.379 . S
C942 H926 0.931 . S
C942 C936 1.383 . S
C942 C941 1.379 . S
H943 C937 0.959 . S
H944 C937 0.961 . S
H945 C937 0.960 . S
H946 C938 0.930 . S
H947 C939 0.929 . S
H948 C956 0.929 . S
H949 C958 0.930 . S
H950 C960 0.930 . S
H951 C963 0.929 . S
H952 C966 0.930 . S
H953 C968 0.960 . S
H954 C968 0.960 . S
H955 C968 0.960 . S
C956 H948 0.929 . S
C956 C957 1.377 . S
C956 C958 1.384 . S
C957 C956 1.377 . S
C957 C963 1.390 . S
C958 H949 0.930 . S
C958 C956 1.384 . S
C958 C959 1.372 . S
C959 C958 1.372 . S
C959 C960 1.400 . S
C959 C964 1.490 . S
C960 H950 0.930 . S
C960 C959 1.400 . S
C960 C963 1.386 . S
H961 C977 0.905 1_655 S
H962 C978 0.931 . S
C963 H951 0.929 . S
C963 C957 1.390 . S
C963 C960 1.386 . S
C964 C959 1.490 . S
C964 C966 1.395 . S
C964 C967 1.403 . S
H965 C971 0.930 . S
C966 H952 0.930 . S
C966 C964 1.395 . S
C966 C969 1.403 . S
C967 C964 1.403 . S
C967 C968 1.524 . S
C967 C971 1.400 . S
C968 H953 0.960 . S
C968 H954 0.960 . S
C968 H955 0.960 . S
C968 C967 1.524 . S
C969 C966 1.403 . S
C969 C970 1.392 . S
C969 C973 1.495 . S
C970 C969 1.392 . S
C970 C971 1.385 . S
C970 C972 1.478 . S
C971 H965 0.930 . S
C971 C967 1.400 . S
C971 C970 1.385 . S
C972 C970 1.478 . S
C972 C974 1.381 . S
C972 C978 1.383 . S
C973 C969 1.495 . S
C973 H979 0.959 . S
C973 H980 0.961 . S
C973 H981 0.960 . S
C974 C972 1.381 . S
C974 C975 1.394 . S
C974 H982 0.930 . S
C975 C974 1.394 . S
C975 C976 1.383 . S
C975 H983 0.929 . S
C976 C975 1.383 . S
C976 C977 1.378 . S
C977 H961 0.905 1_455 S
C977 C976 1.378 . S
C977 C978 1.403 . S
C978 H962 0.931 . S
C978 C972 1.383 . S
C978 C977 1.403 . S
H979 C973 0.959 . S
H980 C973 0.961 . S
H981 C973 0.960 . S
H982 C974 0.930 . S
H983 C975 0.929 . S
H984 C992 0.929 . S
H985 C994 0.930 . S
H986 C996 0.930 . S
H987 C999 0.929 . S
H988 C1002 0.930 . S
H989 C1004 0.960 . S
H990 C1004 0.960 . S
H991 C1004 0.960 . S
C992 H984 0.929 . S
C992 C993 1.377 . S
C992 C994 1.384 . S
C993 C992 1.377 . S
C993 C999 1.390 . S
C994 H985 0.930 . S
C994 C992 1.384 . S
C994 C995 1.372 . S
C995 C994 1.372 . S
C995 C996 1.400 . S
C995 C1000 1.490 . S
C996 H986 0.930 . S
C996 C995 1.400 . S
C996 C999 1.386 . S
H997 C1013 0.930 . S
H998 C1014 0.931 . S
C999 H987 0.929 . S
C999 C993 1.390 . S
C999 C996 1.386 . S
C1000 C995 1.490 . S
C1000 C1002 1.395 . S
C1000 C1003 1.403 . S
H1001 C1007 0.930 . S
C1002 H988 0.930 . S
C1002 C1000 1.395 . S
C1002 C1005 1.403 . S
C1003 C1000 1.403 . S
C1003 C1004 1.524 . S
C1003 C1007 1.400 . S
C1004 H989 0.960 . S
C1004 H990 0.960 . S
C1004 H991 0.960 . S
C1004 C1003 1.524 . S
C1005 C1002 1.403 . S
C1005 C1006 1.392 . S
C1005 C1009 1.495 . S
C1006 C1005 1.392 . S
C1006 C1007 1.385 . S
C1006 C1008 1.478 . S
C1007 H1001 0.930 . S
C1007 C1003 1.400 . S
C1007 C1006 1.385 . S
C1008 C1006 1.478 . S
C1008 C1010 1.381 . S
C1008 C1014 1.383 . S
C1009 C1005 1.495 . S
C1009 H1015 0.959 . S
C1009 H1016 0.961 . S
C1009 H1017 0.960 . S
C1010 C1008 1.381 . S
C1010 C1011 1.394 . S
C1010 H1018 0.930 . S
C1011 C1010 1.394 . S
C1011 C1012 1.383 . S
C1011 H1019 0.929 . S
C1012 C1011 1.383 . S
C1012 C1013 1.377 . S
C1013 H997 0.930 . S
C1013 C1012 1.377 . S
C1013 C1014 1.379 . S
C1014 H998 0.931 . S
C1014 C1008 1.383 . S
C1014 C1013 1.379 . S
H1015 C1009 0.959 . S
H1016 C1009 0.961 . S
H1017 C1009 0.960 . S
H1018 C1010 0.930 . S
H1019 C1011 0.929 . S
H1020 C1028 0.929 . S
H1021 C1030 0.930 . S
H1022 C1032 0.930 . S
H1023 C1035 0.929 . S
H1024 C1038 0.930 . S
H1025 C1040 0.960 . S
H1026 C1040 0.960 . S
H1027 C1040 0.960 . S
C1028 H1020 0.929 . S
C1028 C1029 1.377 . S
C1028 C1030 1.384 . S
C1029 C1028 1.377 . S
C1029 C1035 1.390 . S
C1030 H1021 0.930 . S
C1030 C1028 1.384 . S
C1030 C1031 1.372 . S
C1031 C1030 1.372 . S
C1031 C1032 1.400 . S
C1031 C1036 1.490 . S
C1032 H1022 0.930 . S
C1032 C1031 1.400 . S
C1032 C1035 1.386 . S
H1033 C1049 0.930 . S
H1034 C1050 0.931 . S
C1035 H1023 0.929 . S
C1035 C1029 1.390 . S
C1035 C1032 1.386 . S
C1036 C1031 1.490 . S
C1036 C1038 1.395 . S
C1036 C1039 1.403 . S
H1037 C1043 0.930 . S
C1038 H1024 0.930 . S
C1038 C1036 1.395 . S
C1038 C1041 1.403 . S
C1039 C1036 1.403 . S
C1039 C1040 1.524 . S
C1039 C1043 1.400 . S
C1040 H1025 0.960 . S
C1040 H1026 0.960 . S
C1040 H1027 0.960 . S
C1040 C1039 1.524 . S
C1041 C1038 1.403 . S
C1041 C1042 1.392 . S
C1041 C1045 1.495 . S
C1042 C1041 1.392 . S
C1042 C1043 1.385 . S
C1042 C1044 1.478 . S
C1043 H1037 0.930 . S
C1043 C1039 1.400 . S
C1043 C1042 1.385 . S
C1044 C1042 1.478 . S
C1044 C1046 1.381 . S
C1044 C1050 1.383 . S
C1045 C1041 1.495 . S
C1045 H1051 0.959 . S
C1045 H1052 0.961 . S
C1045 H1053 0.960 . S
C1046 C1044 1.381 . S
C1046 C1047 1.394 . S
C1046 H1054 0.930 . S
C1047 C1046 1.394 . S
C1047 C1048 1.383 . S
C1047 H1055 0.929 . S
C1048 C1047 1.383 . S
C1048 C1049 1.377 . S
C1049 H1033 0.930 . S
C1049 C1048 1.377 . S
C1049 C1050 1.379 . S
C1050 H1034 0.931 . S
C1050 C1044 1.383 . S
C1050 C1049 1.379 . S
H1051 C1045 0.959 . S
H1052 C1045 0.961 . S
H1053 C1045 0.960 . S
H1054 C1046 0.930 . S
H1055 C1047 0.929 . S
H1056 C1064 0.929 . S
H1057 C1066 0.930 . S
H1058 C1068 0.930 . S
H1059 C1071 0.929 . S
H1060 C1074 0.930 . S
H1061 C1076 0.960 . S
H1062 C1076 0.960 . S
H1063 C1076 0.960 . S
C1064 H1056 0.929 . S
C1064 C1065 1.377 . S
C1064 C1066 1.384 . S
C1065 C1064 1.377 . S
C1065 C1071 1.390 . S
C1066 H1057 0.930 . S
C1066 C1064 1.384 . S
C1066 C1067 1.372 . S
C1067 C1066 1.372 . S
C1067 C1068 1.400 . S
C1067 C1072 1.490 . S
C1068 H1058 0.930 . S
C1068 C1067 1.400 . S
C1068 C1071 1.386 . S
H1069 C1085 0.930 . S
H1070 C1086 0.931 . S
C1071 H1059 0.929 . S
C1071 C1065 1.390 . S
C1071 C1068 1.386 . S
C1072 C1067 1.490 . S
C1072 C1074 1.395 . S
C1072 C1075 1.403 . S
H1073 C1079 0.930 . S
C1074 H1060 0.930 . S
C1074 C1072 1.395 . S
C1074 C1077 1.403 . S
C1075 C1072 1.403 . S
C1075 C1076 1.524 . S
C1075 C1079 1.400 . S
C1076 H1061 0.960 . S
C1076 H1062 0.960 . S
C1076 H1063 0.960 . S
C1076 C1075 1.524 . S
C1077 C1074 1.403 . S
C1077 C1078 1.392 . S
C1077 C1081 1.495 . S
C1078 C1077 1.392 . S
C1078 C1079 1.385 . S
C1078 C1080 1.478 . S
C1079 H1073 0.930 . S
C1079 C1075 1.400 . S
C1079 C1078 1.385 . S
C1080 C1078 1.478 . S
C1080 C1082 1.381 . S
C1080 C1086 1.383 . S
C1081 C1077 1.495 . S
C1081 H1087 0.959 . S
C1081 H1088 0.961 . S
C1081 H1089 0.960 . S
C1082 C1080 1.381 . S
C1082 C1083 1.394 1_565 S
C1082 H1090 0.940 . S
C1083 C1082 1.394 1_545 S
C1083 C1084 1.386 . S
C1083 H1091 0.929 . S
C1084 C1083 1.386 . S
C1084 C1085 1.369 1_545 S
C1085 H1069 0.930 . S
C1085 C1084 1.369 1_565 S
C1085 C1086 1.379 . S
C1086 H1070 0.931 . S
C1086 C1080 1.383 . S
C1086 C1085 1.379 . S
H1087 C1081 0.959 . S
H1088 C1081 0.961 . S
H1089 C1081 0.960 . S
H1090 C1082 0.940 . S
H1091 C1083 0.929 . S
H1092 C1100 0.929 . S
H1093 C1102 0.930 . S
H1094 C1104 0.930 . S
H1095 C1107 0.929 . S
H1096 C1110 0.930 . S
H1097 C1112 0.960 . S
H1098 C1112 0.960 . S
H1099 C1112 0.960 . S
C1100 H1092 0.929 . S
C1100 C1101 1.386 . S
C1100 C1102 1.384 . S
C1101 C1100 1.386 . S
C1101 C1107 1.387 1_545 S
C1102 H1093 0.930 . S
C1102 C1100 1.384 . S
C1102 C1103 1.372 . S
C1103 C1102 1.372 . S
C1103 C1104 1.400 . S
C1103 C1108 1.490 . S
C1104 H1094 0.930 . S
C1104 C1103 1.400 . S
C1104 C1107 1.386 1_545 S
H1105 C1121 0.930 . S
H1106 C1122 0.931 . S
C1107 H1095 0.929 . S
C1107 C1101 1.387 1_565 S
C1107 C1104 1.386 1_565 S
C1108 C1103 1.490 . S
C1108 C1110 1.395 . S
C1108 C1111 1.403 . S
H1109 C1115 0.930 . S
C1110 H1096 0.930 . S
C1110 C1108 1.395 . S
C1110 C1113 1.403 . S
C1111 C1108 1.403 . S
C1111 C1112 1.524 . S
C1111 C1115 1.400 . S
C1112 H1097 0.960 . S
C1112 H1098 0.960 . S
C1112 H1099 0.960 . S
C1112 C1111 1.524 . S
C1113 C1110 1.403 . S
C1113 C1114 1.392 . S
C1113 C1117 1.495 . S
C1114 C1113 1.392 . S
C1114 C1115 1.385 . S
C1114 C1116 1.478 . S
C1115 H1109 0.930 . S
C1115 C1111 1.400 . S
C1115 C1114 1.385 . S
C1116 C1114 1.478 . S
C1116 C1118 1.381 . S
C1116 C1122 1.383 . S
C1117 C1113 1.495 . S
C1117 H1123 0.959 . S
C1117 H1124 0.961 . S
C1117 H1125 0.960 . S
C1118 C1116 1.381 . S
C1118 C1119 1.394 . S
C1118 H1126 0.930 . S
C1119 C1118 1.394 . S
C1119 C1120 1.383 . S
C1119 H1127 0.929 . S
C1120 C1119 1.383 . S
C1120 C1121 1.377 . S
C1121 H1105 0.930 . S
C1121 C1120 1.377 . S
C1121 C1122 1.379 . S
C1122 H1106 0.931 . S
C1122 C1116 1.383 . S
C1122 C1121 1.379 . S
H1123 C1117 0.959 . S
H1124 C1117 0.961 . S
H1125 C1117 0.960 . S
H1126 C1118 0.930 . S
H1127 C1119 0.929 . S
H1128 C1136 0.929 . S
H1129 C1138 0.930 . S
H1130 C1140 0.930 . S
H1131 C1143 0.929 . S
H1132 C1146 0.930 . S
H1133 C1148 0.960 . S
H1134 C1148 0.960 . S
H1135 C1148 0.960 . S
C1136 H1128 0.929 . S
C1136 C1137 1.377 . S
C1136 C1138 1.384 . S
C1137 C1136 1.377 . S
C1137 C1143 1.390 . S
C1138 H1129 0.930 . S
C1138 C1136 1.384 . S
C1138 C1139 1.372 . S
C1139 C1138 1.372 . S
C1139 C1140 1.400 . S
C1139 C1144 1.490 . S
C1140 H1130 0.930 . S
C1140 C1139 1.400 . S
C1140 C1143 1.386 . S
H1141 C1157 0.930 . S
H1142 C1158 0.931 . S
C1143 H1131 0.929 . S
C1143 C1137 1.390 . S
C1143 C1140 1.386 . S
C1144 C1139 1.490 . S
C1144 C1146 1.395 . S
C1144 C1147 1.403 . S
H1145 C1151 0.930 . S
C1146 H1132 0.930 . S
C1146 C1144 1.395 . S
C1146 C1149 1.403 . S
C1147 C1144 1.403 . S
C1147 C1148 1.524 . S
C1147 C1151 1.400 . S
C1148 H1133 0.960 . S
C1148 H1134 0.960 . S
C1148 H1135 0.960 . S
C1148 C1147 1.524 . S
C1149 C1146 1.403 . S
C1149 C1150 1.392 . S
C1149 C1153 1.495 . S
C1150 C1149 1.392 . S
C1150 C1151 1.385 . S
C1150 C1152 1.478 . S
C1151 H1145 0.930 . S
C1151 C1147 1.400 . S
C1151 C1150 1.385 . S
C1152 C1150 1.478 . S
C1152 C1154 1.381 . S
C1152 C1158 1.383 . S
C1153 C1149 1.495 . S
C1153 H1159 0.959 . S
C1153 H1160 0.961 . S
C1153 H1161 0.960 . S
C1154 C1152 1.381 . S
C1154 C1155 1.394 . S
C1154 H1162 0.930 . S
C1155 C1154 1.394 . S
C1155 C1156 1.383 . S
C1155 H1163 0.929 . S
C1156 C1155 1.383 . S
C1156 C1157 1.377 . S
C1157 H1141 0.930 . S
C1157 C1156 1.377 . S
C1157 C1158 1.379 . S
C1158 H1142 0.931 . S
C1158 C1152 1.383 . S
C1158 C1157 1.379 . S
H1159 C1153 0.959 . S
H1160 C1153 0.961 . S
H1161 C1153 0.960 . S
H1162 C1154 0.930 . S
H1163 C1155 0.929 . S
H1164 C1172 0.929 . S
H1165 C1174 0.930 . S
H1166 C1176 0.930 . S
H1167 C1179 0.929 1_556 S
H1168 C1182 0.930 . S
H1169 C1184 0.960 . S
H1170 C1184 0.960 . S
H1171 C1184 0.960 . S
C1172 H1164 0.929 . S
C1172 C1173 1.375 . S
C1172 C1174 1.384 . S
C1173 C1172 1.375 . S
C1173 C1179 1.389 . S
C1174 H1165 0.930 . S
C1174 C1172 1.384 . S
C1174 C1175 1.372 . S
C1175 C1174 1.372 . S
C1175 C1176 1.400 . S
C1175 C1180 1.490 . S
C1176 H1166 0.930 . S
C1176 C1175 1.400 . S
C1176 C1179 1.386 . S
H1177 C1193 0.930 . S
H1178 C1194 0.931 . S
C1179 H1167 0.929 1_554 S
C1179 C1173 1.389 . S
C1179 C1176 1.386 . S
C1180 C1175 1.490 . S
C1180 C1182 1.395 . S
C1180 C1183 1.403 . S
H1181 C1187 0.930 . S
C1182 H1168 0.930 . S
C1182 C1180 1.395 . S
C1182 C1185 1.403 . S
C1183 C1180 1.403 . S
C1183 C1184 1.524 . S
C1183 C1187 1.400 . S
C1184 H1169 0.960 . S
C1184 H1170 0.960 . S
C1184 H1171 0.960 . S
C1184 C1183 1.524 . S
C1185 C1182 1.403 . S
C1185 C1186 1.392 . S
C1185 C1189 1.495 . S
C1186 C1185 1.392 . S
C1186 C1187 1.385 . S
C1186 C1188 1.478 . S
C1187 H1181 0.930 . S
C1187 C1183 1.400 . S
C1187 C1186 1.385 . S
C1188 C1186 1.478 . S
C1188 C1190 1.381 . S
C1188 C1194 1.383 . S
C1189 C1185 1.495 . S
C1189 H1195 0.959 . S
C1189 H1196 0.961 . S
C1189 H1197 0.960 . S
C1190 C1188 1.381 . S
C1190 C1191 1.394 . S
C1190 H1198 0.930 . S
C1191 C1190 1.394 . S
C1191 C1192 1.383 . S
C1191 H1199 0.929 . S
C1192 C1191 1.383 . S
C1192 C1193 1.377 . S
C1193 H1177 0.930 . S
C1193 C1192 1.377 . S
C1193 C1194 1.379 . S
C1194 H1178 0.931 . S
C1194 C1188 1.383 . S
C1194 C1193 1.379 . S
H1195 C1189 0.959 . S
H1196 C1189 0.961 . S
H1197 C1189 0.960 . S
H1198 C1190 0.930 . S
H1199 C1191 0.929 . S
H1200 C1208 0.929 . S
H1201 C1210 0.930 . S
H1202 C1212 0.930 . S
H1203 C1215 0.929 . S
H1204 C1218 0.930 . S
H1205 C1220 0.960 . S
H1206 C1220 0.960 . S
H1207 C1220 0.960 . S
C1208 H1200 0.929 . S
C1208 C1209 1.377 . S
C1208 C1210 1.384 . S
C1209 C1208 1.377 . S
C1209 C1215 1.390 . S
C1210 H1201 0.930 . S
C1210 C1208 1.384 . S
C1210 C1211 1.372 . S
C1211 C1210 1.372 . S
C1211 C1212 1.400 . S
C1211 C1216 1.490 . S
C1212 H1202 0.930 . S
C1212 C1211 1.400 . S
C1212 C1215 1.386 . S
H1213 C1229 0.930 . S
H1214 C1230 0.931 . S
C1215 H1203 0.929 . S
C1215 C1209 1.390 . S
C1215 C1212 1.386 . S
C1216 C1211 1.490 . S
C1216 C1218 1.395 . S
C1216 C1219 1.403 . S
H1217 C1223 0.930 . S
C1218 H1204 0.930 . S
C1218 C1216 1.395 . S
C1218 C1221 1.403 . S
C1219 C1216 1.403 . S
C1219 C1220 1.524 . S
C1219 C1223 1.400 . S
C1220 H1205 0.960 . S
C1220 H1206 0.960 . S
C1220 H1207 0.960 . S
C1220 C1219 1.524 . S
C1221 C1218 1.403 . S
C1221 C1222 1.392 . S
C1221 C1225 1.495 . S
C1222 C1221 1.392 . S
C1222 C1223 1.385 . S
C1222 C1224 1.478 . S
C1223 H1217 0.930 . S
C1223 C1219 1.400 . S
C1223 C1222 1.385 . S
C1224 C1222 1.478 . S
C1224 C1226 1.381 . S
C1224 C1230 1.383 . S
C1225 C1221 1.495 . S
C1225 H1231 0.959 . S
C1225 H1232 0.961 . S
C1225 H1233 0.960 . S
C1226 C1224 1.381 . S
C1226 C1227 1.394 . S
C1226 H1234 0.930 . S
C1227 C1226 1.394 . S
C1227 C1228 1.383 . S
C1227 H1235 0.929 . S
C1228 C1227 1.383 . S
C1228 C1229 1.377 . S
C1229 H1213 0.930 . S
C1229 C1228 1.377 . S
C1229 C1230 1.379 . S
C1230 H1214 0.931 . S
C1230 C1224 1.383 . S
C1230 C1229 1.379 . S
H1231 C1225 0.959 . S
H1232 C1225 0.961 . S
H1233 C1225 0.960 . S
H1234 C1226 0.930 . S
H1235 C1227 0.929 . S
H1236 C1244 0.929 . S
H1237 C1246 0.930 . S
H1238 C1248 0.930 . S
H1239 C1251 0.929 . S
H1240 C1254 0.930 . S
H1241 C1256 0.960 . S
H1242 C1256 0.960 . S
H1243 C1256 0.960 . S
C1244 H1236 0.929 . S
C1244 C1245 1.377 . S
C1244 C1246 1.384 1_554 S
C1245 C1244 1.377 . S
C1245 C1251 1.392 1_554 S
C1246 H1237 0.930 . S
C1246 C1244 1.384 1_556 S
C1246 C1247 1.372 . S
C1247 C1246 1.372 . S
C1247 C1248 1.400 . S
C1247 C1252 1.490 . S
C1248 H1238 0.930 . S
C1248 C1247 1.400 . S
C1248 C1251 1.386 . S
H1249 C1265 0.930 . S
H1250 C1266 0.931 . S
C1251 H1239 0.929 . S
C1251 C1245 1.392 1_556 S
C1251 C1248 1.386 . S
C1252 C1247 1.490 . S
C1252 C1254 1.395 . S
C1252 C1255 1.403 . S
H1253 C1259 0.930 . S
C1254 H1240 0.930 . S
C1254 C1252 1.395 . S
C1254 C1257 1.403 . S
C1255 C1252 1.403 . S
C1255 C1256 1.524 . S
C1255 C1259 1.400 . S
C1256 H1241 0.960 . S
C1256 H1242 0.960 . S
C1256 H1243 0.960 . S
C1256 C1255 1.524 . S
C1257 C1254 1.403 . S
C1257 C1258 1.392 . S
C1257 C1261 1.495 . S
C1258 C1257 1.392 . S
C1258 C1259 1.385 . S
C1258 C1260 1.478 . S
C1259 H1253 0.930 . S
C1259 C1255 1.400 . S
C1259 C1258 1.385 . S
C1260 C1258 1.478 . S
C1260 C1262 1.381 . S
C1260 C1266 1.383 . S
C1261 C1257 1.495 . S
C1261 H1267 0.959 . S
C1261 H1268 0.961 . S
C1261 H1269 0.960 . S
C1262 C1260 1.381 . S
C1262 C1263 1.394 . S
C1262 H1270 0.930 . S
C1263 C1262 1.394 . S
C1263 C1264 1.383 . S
C1263 H1271 0.929 . S
C1264 C1263 1.383 . S
C1264 C1265 1.377 . S
C1265 H1249 0.930 . S
C1265 C1264 1.377 . S
C1265 C1266 1.379 . S
C1266 H1250 0.931 . S
C1266 C1260 1.383 . S
C1266 C1265 1.379 . S
H1267 C1261 0.959 . S
H1268 C1261 0.961 . S
H1269 C1261 0.960 . S
H1270 C1262 0.930 . S
H1271 C1263 0.929 . S
H1272 C1280 0.929 . S
H1273 C1282 0.930 . S
H1274 C1284 0.930 . S
H1275 C1287 0.929 . S
H1276 C1290 0.930 . S
H1277 C1292 0.960 . S
H1278 C1292 0.960 . S
H1279 C1292 0.960 . S
C1280 H1272 0.929 . S
C1280 C1281 1.377 . S
C1280 C1282 1.384 . S
C1281 C1280 1.377 . S
C1281 C1287 1.390 . S
C1282 H1273 0.930 . S
C1282 C1280 1.384 . S
C1282 C1283 1.372 . S
C1283 C1282 1.372 . S
C1283 C1284 1.400 . S
C1283 C1288 1.490 . S
C1284 H1274 0.930 . S
C1284 C1283 1.400 . S
C1284 C1287 1.386 . S
H1285 C1301 0.930 . S
H1286 C1302 0.931 . S
C1287 H1275 0.929 . S
C1287 C1281 1.390 . S
C1287 C1284 1.386 . S
C1288 C1283 1.490 . S
C1288 C1290 1.395 . S
C1288 C1291 1.403 . S
H1289 C1295 0.930 . S
C1290 H1276 0.930 . S
C1290 C1288 1.395 . S
C1290 C1293 1.403 . S
C1291 C1288 1.403 . S
C1291 C1292 1.524 . S
C1291 C1295 1.400 . S
C1292 H1277 0.960 . S
C1292 H1278 0.960 . S
C1292 H1279 0.960 . S
C1292 C1291 1.524 . S
C1293 C1290 1.403 . S
C1293 C1294 1.392 . S
C1293 C1297 1.495 . S
C1294 C1293 1.392 . S
C1294 C1295 1.385 . S
C1294 C1296 1.478 . S
C1295 H1289 0.930 . S
C1295 C1291 1.400 . S
C1295 C1294 1.385 . S
C1296 C1294 1.478 . S
C1296 C1298 1.381 . S
C1296 C1302 1.383 . S
C1297 C1293 1.495 . S
C1297 H1303 0.959 . S
C1297 H1304 0.961 . S
C1297 H1305 0.960 . S
C1298 C1296 1.381 . S
C1298 C1299 1.394 . S
C1298 H1306 0.930 . S
C1299 C1298 1.394 . S
C1299 C1300 1.383 . S
C1299 H1307 0.929 . S
C1300 C1299 1.383 . S
C1300 C1301 1.377 . S
C1301 H1285 0.930 . S
C1301 C1300 1.377 . S
C1301 C1302 1.379 . S
C1302 H1286 0.931 . S
C1302 C1296 1.383 . S
C1302 C1301 1.379 . S
H1303 C1297 0.959 . S
H1304 C1297 0.961 . S
H1305 C1297 0.960 . S
H1306 C1298 0.930 . S
H1307 C1299 0.929 . S
H1308 C1316 0.929 . S
H1309 C1318 0.930 . S
H1310 C1320 0.930 . S
H1311 C1323 0.941 . S
H1312 C1326 0.930 . S
H1313 C1328 0.960 . S
H1314 C1328 0.960 . S
H1315 C1328 0.960 . S
C1316 H1308 0.929 . S
C1316 C1317 1.378 . S
C1316 C1318 1.384 . S
C1317 C1316 1.378 . S
C1317 C1323 1.389 1_455 S
C1318 H1309 0.930 . S
C1318 C1316 1.384 . S
C1318 C1319 1.372 . S
C1319 C1318 1.372 . S
C1319 C1320 1.400 . S
C1319 C1324 1.490 . S
C1320 H1310 0.930 . S
C1320 C1319 1.400 . S
C1320 C1323 1.375 1_455 S
H1321 C1337 0.930 . S
H1322 C1338 0.931 . S
C1323 H1311 0.941 . S
C1323 C1317 1.389 1_655 S
C1323 C1320 1.375 1_655 S
C1324 C1319 1.490 . S
C1324 C1326 1.395 . S
C1324 C1327 1.403 . S
H1325 C1331 0.930 . S
C1326 H1312 0.930 . S
C1326 C1324 1.395 . S
C1326 C1329 1.403 . S
C1327 C1324 1.403 . S
C1327 C1328 1.524 . S
C1327 C1331 1.400 . S
C1328 H1313 0.960 . S
C1328 H1314 0.960 . S
C1328 H1315 0.960 . S
C1328 C1327 1.524 . S
C1329 C1326 1.403 . S
C1329 C1330 1.392 . S
C1329 C1333 1.495 . S
C1330 C1329 1.392 . S
C1330 C1331 1.385 . S
C1330 C1332 1.478 . S
C1331 H1325 0.930 . S
C1331 C1327 1.400 . S
C1331 C1330 1.385 . S
C1332 C1330 1.478 . S
C1332 C1334 1.381 . S
C1332 C1338 1.383 . S
C1333 C1329 1.495 . S
C1333 H1339 0.959 . S
C1333 H1340 0.961 . S
C1333 H1341 0.960 . S
C1334 C1332 1.381 . S
C1334 C1335 1.394 . S
C1334 H1342 0.930 . S
C1335 C1334 1.394 . S
C1335 C1336 1.383 . S
C1335 H1343 0.929 . S
C1336 C1335 1.383 . S
C1336 C1337 1.377 . S
C1337 H1321 0.930 . S
C1337 C1336 1.377 . S
C1337 C1338 1.379 . S
C1338 H1322 0.931 . S
C1338 C1332 1.383 . S
C1338 C1337 1.379 . S
H1339 C1333 0.959 . S
H1340 C1333 0.961 . S
H1341 C1333 0.960 . S
H1342 C1334 0.930 . S
H1343 C1335 0.929 . S
H1344 C1352 0.929 . S
H1345 C1354 0.930 . S
H1346 C1356 0.930 . S
H1347 C1359 0.929 . S
H1348 C1362 0.930 . S
H1349 C1364 0.960 . S
H1350 C1364 0.960 . S
H1351 C1364 0.960 . S
C1352 H1344 0.929 . S
C1352 C1353 1.377 . S
C1352 C1354 1.384 . S
C1353 C1352 1.377 . S
C1353 C1359 1.390 . S
C1354 H1345 0.930 . S
C1354 C1352 1.384 . S
C1354 C1355 1.372 . S
C1355 C1354 1.372 . S
C1355 C1356 1.400 . S
C1355 C1360 1.490 . S
C1356 H1346 0.930 . S
C1356 C1355 1.400 . S
C1356 C1359 1.386 . S
H1357 C1373 0.930 . S
H1358 C1374 0.931 . S
C1359 H1347 0.929 . S
C1359 C1353 1.390 . S
C1359 C1356 1.386 . S
C1360 C1355 1.490 . S
C1360 C1362 1.395 . S
C1360 C1363 1.403 . S
H1361 C1367 0.930 . S
C1362 H1348 0.930 . S
C1362 C1360 1.395 . S
C1362 C1365 1.403 . S
C1363 C1360 1.403 . S
C1363 C1364 1.524 . S
C1363 C1367 1.400 . S
C1364 H1349 0.960 . S
C1364 H1350 0.960 . S
C1364 H1351 0.960 . S
C1364 C1363 1.524 . S
C1365 C1362 1.403 . S
C1365 C1366 1.392 . S
C1365 C1369 1.495 . S
C1366 C1365 1.392 . S
C1366 C1367 1.385 . S
C1366 C1368 1.478 . S
C1367 H1361 0.930 . S
C1367 C1363 1.400 . S
C1367 C1366 1.385 . S
C1368 C1366 1.478 . S
C1368 C1370 1.381 . S
C1368 C1374 1.383 . S
C1369 C1365 1.495 . S
C1369 H1375 0.959 . S
C1369 H1376 0.961 . S
C1369 H1377 0.960 . S
C1370 C1368 1.381 . S
C1370 C1371 1.394 . S
C1370 H1378 0.930 . S
C1371 C1370 1.394 . S
C1371 C1372 1.383 . S
C1371 H1379 0.929 . S
C1372 C1371 1.383 . S
C1372 C1373 1.377 . S
C1373 H1357 0.930 . S
C1373 C1372 1.377 . S
C1373 C1374 1.379 . S
C1374 H1358 0.931 . S
C1374 C1368 1.383 . S
C1374 C1373 1.379 . S
H1375 C1369 0.959 . S
H1376 C1369 0.961 . S
H1377 C1369 0.960 . S
H1378 C1370 0.930 . S
H1379 C1371 0.929 . S
H1380 C1388 0.929 . S
H1381 C1390 0.930 . S
H1382 C1392 0.930 . S
H1383 C1395 0.929 . S
H1384 C1398 0.930 . S
H1385 C1400 0.960 . S
H1386 C1400 0.960 . S
H1387 C1400 0.960 . S
C1388 H1380 0.929 . S
C1388 C1389 1.377 . S
C1388 C1390 1.384 . S
C1389 C1388 1.377 . S
C1389 C1395 1.390 . S
C1390 H1381 0.930 . S
C1390 C1388 1.384 . S
C1390 C1391 1.372 . S
C1391 C1390 1.372 . S
C1391 C1392 1.400 . S
C1391 C1396 1.490 . S
C1392 H1382 0.930 . S
C1392 C1391 1.400 . S
C1392 C1395 1.386 . S
H1393 C1409 0.930 . S
H1394 C1410 0.931 . S
C1395 H1383 0.929 . S
C1395 C1389 1.390 . S
C1395 C1392 1.386 . S
C1396 C1391 1.490 . S
C1396 C1398 1.395 . S
C1396 C1399 1.403 . S
H1397 C1403 0.930 . S
C1398 H1384 0.930 . S
C1398 C1396 1.395 . S
C1398 C1401 1.403 . S
C1399 C1396 1.403 . S
C1399 C1400 1.524 . S
C1399 C1403 1.400 . S
C1400 H1385 0.960 . S
C1400 H1386 0.960 . S
C1400 H1387 0.960 . S
C1400 C1399 1.524 . S
C1401 C1398 1.403 . S
C1401 C1402 1.392 . S
C1401 C1405 1.495 . S
C1402 C1401 1.392 . S
C1402 C1403 1.385 . S
C1402 C1404 1.478 . S
C1403 H1397 0.930 . S
C1403 C1399 1.400 . S
C1403 C1402 1.385 . S
C1404 C1402 1.478 . S
C1404 C1406 1.381 . S
C1404 C1410 1.383 . S
C1405 C1401 1.495 . S
C1405 H1411 0.959 . S
C1405 H1412 0.961 . S
C1405 H1413 0.960 . S
C1406 C1404 1.381 . S
C1406 C1407 1.394 . S
C1406 H1414 0.930 . S
C1407 C1406 1.394 . S
C1407 C1408 1.393 . S
C1407 H1415 0.929 . S
C1408 C1407 1.393 . S
C1408 C1409 1.374 1_655 S
C1409 H1393 0.930 . S
C1409 C1408 1.374 1_455 S
C1409 C1410 1.379 1_455 S
C1410 H1394 0.931 . S
C1410 C1404 1.383 . S
C1410 C1409 1.379 1_655 S
H1411 C1405 0.959 . S
H1412 C1405 0.961 . S
H1413 C1405 0.960 . S
H1414 C1406 0.930 . S
H1415 C1407 0.929 . S
H1416 C1424 0.929 . S
H1417 C1426 0.930 . S
H1418 C1428 0.930 . S
H1419 C1431 0.929 . S
H1420 C1434 0.930 . S
H1421 C1436 0.960 . S
H1422 C1436 0.960 . S
H1423 C1436 0.960 . S
C1424 H1416 0.929 . S
C1424 C1425 1.377 . S
C1424 C1426 1.384 . S
C1425 C1424 1.377 . S
C1425 C1431 1.390 . S
C1426 H1417 0.930 . S
C1426 C1424 1.384 . S
C1426 C1427 1.372 . S
C1427 C1426 1.372 . S
C1427 C1428 1.400 . S
C1427 C1432 1.490 . S
C1428 H1418 0.930 . S
C1428 C1427 1.400 . S
C1428 C1431 1.386 . S
H1429 C1445 0.930 . S
H1430 C1446 0.931 . S
C1431 H1419 0.929 . S
C1431 C1425 1.390 . S
C1431 C1428 1.386 . S
C1432 C1427 1.490 . S
C1432 C1434 1.395 . S
C1432 C1435 1.403 . S
H1433 C1439 0.930 . S
C1434 H1420 0.930 . S
C1434 C1432 1.395 . S
C1434 C1437 1.403 . S
C1435 C1432 1.403 . S
C1435 C1436 1.524 . S
C1435 C1439 1.400 . S
C1436 H1421 0.960 . S
C1436 H1422 0.960 . S
C1436 H1423 0.960 . S
C1436 C1435 1.524 . S
C1437 C1434 1.403 . S
C1437 C1438 1.392 . S
C1437 C1441 1.495 . S
C1438 C1437 1.392 . S
C1438 C1439 1.385 . S
C1438 C1440 1.478 . S
C1439 H1433 0.930 . S
C1439 C1435 1.400 . S
C1439 C1438 1.385 . S
C1440 C1438 1.478 . S
C1440 C1442 1.381 . S
C1440 C1446 1.383 . S
C1441 C1437 1.495 . S
C1441 H1447 0.959 . S
C1441 H1448 0.961 . S
C1441 H1449 0.960 . S
C1442 C1440 1.381 . S
C1442 C1443 1.394 . S
C1442 H1450 0.930 . S
C1443 C1442 1.394 . S
C1443 C1444 1.383 . S
C1443 H1451 0.929 . S
C1444 C1443 1.383 . S
C1444 C1445 1.377 . S
C1445 H1429 0.930 . S
C1445 C1444 1.377 . S
C1445 C1446 1.379 . S
C1446 H1430 0.931 . S
C1446 C1440 1.383 . S
C1446 C1445 1.379 . S
H1447 C1441 0.959 . S
H1448 C1441 0.961 . S
H1449 C1441 0.960 . S
H1450 C1442 0.930 . S
H1451 C1443 0.929 . S
H1452 C1460 0.929 . S
H1453 C1462 0.930 . S
H1454 C1464 0.930 . S
H1455 C1467 0.929 . S
H1456 C1470 0.930 . S
H1457 C1472 0.960 . S
H1458 C1472 0.960 . S
H1459 C1472 0.960 . S
C1460 H1452 0.929 . S
C1460 C1461 1.377 . S
C1460 C1462 1.384 . S
C1461 C1460 1.377 . S
C1461 C1467 1.390 . S
C1462 H1453 0.930 . S
C1462 C1460 1.384 . S
C1462 C1463 1.372 . S
C1463 C1462 1.372 . S
C1463 C1464 1.400 . S
C1463 C1468 1.490 . S
C1464 H1454 0.930 . S
C1464 C1463 1.400 . S
C1464 C1467 1.386 . S
H1465 C1481 0.930 . S
H1466 C1482 0.931 . S
C1467 H1455 0.929 . S
C1467 C1461 1.390 . S
C1467 C1464 1.386 . S
C1468 C1463 1.490 . S
C1468 C1470 1.395 . S
C1468 C1471 1.403 . S
H1469 C1475 0.930 . S
C1470 H1456 0.930 . S
C1470 C1468 1.395 . S
C1470 C1473 1.403 . S
C1471 C1468 1.403 . S
C1471 C1472 1.524 . S
C1471 C1475 1.400 . S
C1472 H1457 0.960 . S
C1472 H1458 0.960 . S
C1472 H1459 0.960 . S
C1472 C1471 1.524 . S
C1473 C1470 1.403 . S
C1473 C1474 1.392 . S
C1473 C1477 1.495 . S
C1474 C1473 1.392 . S
C1474 C1475 1.385 . S
C1474 C1476 1.478 . S
C1475 H1469 0.930 . S
C1475 C1471 1.400 . S
C1475 C1474 1.385 . S
C1476 C1474 1.478 . S
C1476 C1478 1.381 . S
C1476 C1482 1.383 . S
C1477 C1473 1.495 . S
C1477 H1483 0.959 . S
C1477 H1484 0.961 . S
C1477 H1485 0.960 . S
C1478 C1476 1.381 . S
C1478 C1479 1.394 . S
C1478 H1486 0.930 . S
C1479 C1478 1.394 . S
C1479 C1480 1.383 . S
C1479 H1487 0.929 . S
C1480 C1479 1.383 . S
C1480 C1481 1.377 . S
C1481 H1465 0.930 . S
C1481 C1480 1.377 . S
C1481 C1482 1.379 . S
C1482 H1466 0.931 . S
C1482 C1476 1.383 . S
C1482 C1481 1.379 . S
H1483 C1477 0.959 . S
H1484 C1477 0.961 . S
H1485 C1477 0.960 . S
H1486 C1478 0.930 . S
H1487 C1479 0.929 . S
H1488 C1496 0.929 . S
H1489 C1498 0.930 . S
H1490 C1500 0.930 . S
H1491 C1503 0.929 . S
H1492 C1506 0.930 . S
H1493 C1508 0.960 . S
H1494 C1508 0.960 . S
H1495 C1508 0.960 . S
C1496 H1488 0.929 . S
C1496 C1497 1.377 . S
C1496 C1498 1.384 . S
C1497 C1496 1.377 . S
C1497 C1503 1.390 . S
C1498 H1489 0.930 . S
C1498 C1496 1.384 . S
C1498 C1499 1.372 . S
C1499 C1498 1.372 . S
C1499 C1500 1.400 . S
C1499 C1504 1.490 . S
C1500 H1490 0.930 . S
C1500 C1499 1.400 . S
C1500 C1503 1.386 . S
H1501 C1517 0.930 . S
H1502 C1518 0.931 . S
C1503 H1491 0.929 . S
C1503 C1497 1.390 . S
C1503 C1500 1.386 . S
C1504 C1499 1.490 . S
C1504 C1506 1.395 . S
C1504 C1507 1.403 . S
H1505 C1511 0.930 . S
C1506 H1492 0.930 . S
C1506 C1504 1.395 . S
C1506 C1509 1.403 . S
C1507 C1504 1.403 . S
C1507 C1508 1.524 . S
C1507 C1511 1.400 . S
C1508 H1493 0.960 . S
C1508 H1494 0.960 . S
C1508 H1495 0.960 . S
C1508 C1507 1.524 . S
C1509 C1506 1.403 . S
C1509 C1510 1.392 . S
C1509 C1513 1.495 . S
C1510 C1509 1.392 . S
C1510 C1511 1.385 . S
C1510 C1512 1.478 . S
C1511 H1505 0.930 . S
C1511 C1507 1.400 . S
C1511 C1510 1.385 . S
C1512 C1510 1.478 . S
C1512 C1514 1.381 . S
C1512 C1518 1.383 . S
C1513 C1509 1.495 . S
C1513 H1519 0.959 . S
C1513 H1520 0.961 . S
C1513 H1521 0.960 . S
C1514 C1512 1.381 . S
C1514 C1515 1.394 . S
C1514 H1522 0.930 . S
C1515 C1514 1.394 . S
C1515 C1516 1.383 . S
C1515 H1523 0.929 . S
C1516 C1515 1.383 . S
C1516 C1517 1.377 . S
C1517 H1501 0.930 . S
C1517 C1516 1.377 . S
C1517 C1518 1.379 . S
C1518 H1502 0.931 . S
C1518 C1512 1.383 . S
C1518 C1517 1.379 . S
H1519 C1513 0.959 . S
H1520 C1513 0.961 . S
H1521 C1513 0.960 . S
H1522 C1514 0.930 . S
H1523 C1515 0.929 . S
H1524 C1532 0.929 . S
H1525 C1534 0.930 . S
H1526 C1536 0.930 . S
H1527 C1539 0.929 . S
H1528 C1542 0.930 . S
H1529 C1544 0.960 . S
H1530 C1544 0.960 . S
H1531 C1544 0.960 . S
C1532 H1524 0.929 . S
C1532 C1533 1.377 . S
C1532 C1534 1.384 . S
C1533 C1532 1.377 . S
C1533 C1539 1.390 . S
C1534 H1525 0.930 . S
C1534 C1532 1.384 . S
C1534 C1535 1.372 . S
C1535 C1534 1.372 . S
C1535 C1536 1.400 . S
C1535 C1540 1.490 . S
C1536 H1526 0.930 . S
C1536 C1535 1.400 . S
C1536 C1539 1.386 . S
H1537 C1553 0.930 . S
H1538 C1554 0.931 . S
C1539 H1527 0.929 . S
C1539 C1533 1.390 . S
C1539 C1536 1.386 . S
C1540 C1535 1.490 . S
C1540 C1542 1.395 . S
C1540 C1543 1.403 . S
H1541 C1547 0.930 . S
C1542 H1528 0.930 . S
C1542 C1540 1.395 . S
C1542 C1545 1.403 . S
C1543 C1540 1.403 . S
C1543 C1544 1.524 . S
C1543 C1547 1.400 . S
C1544 H1529 0.960 . S
C1544 H1530 0.960 . S
C1544 H1531 0.960 . S
C1544 C1543 1.524 . S
C1545 C1542 1.403 . S
C1545 C1546 1.392 . S
C1545 C1549 1.495 . S
C1546 C1545 1.392 . S
C1546 C1547 1.385 . S
C1546 C1548 1.478 . S
C1547 H1541 0.930 . S
C1547 C1543 1.400 . S
C1547 C1546 1.385 . S
C1548 C1546 1.478 . S
C1548 C1550 1.381 . S
C1548 C1554 1.383 . S
C1549 C1545 1.495 . S
C1549 H1555 0.959 . S
C1549 H1556 0.961 . S
C1549 H1557 0.960 . S
C1550 C1548 1.381 . S
C1550 C1551 1.394 . S
C1550 H1558 0.930 . S
C1551 C1550 1.394 . S
C1551 C1552 1.383 . S
C1551 H1559 0.929 . S
C1552 C1551 1.383 . S
C1552 C1553 1.377 . S
C1553 H1537 0.930 . S
C1553 C1552 1.377 . S
C1553 C1554 1.379 . S
C1554 H1538 0.931 . S
C1554 C1548 1.383 . S
C1554 C1553 1.379 . S
H1555 C1549 0.959 . S
H1556 C1549 0.961 . S
H1557 C1549 0.960 . S
H1558 C1550 0.930 . S
H1559 C1551 0.929 . S
H1560 C1568 0.929 . S
H1561 C1570 0.930 . S
H1562 C1572 0.930 . S
H1563 C1575 0.929 . S
H1564 C1578 0.930 . S
H1565 C1580 0.960 . S
H1566 C1580 0.960 . S
H1567 C1580 0.960 . S
C1568 H1560 0.929 . S
C1568 C1569 1.377 . S
C1568 C1570 1.384 . S
C1569 C1568 1.377 . S
C1569 C1575 1.390 . S
C1570 H1561 0.930 . S
C1570 C1568 1.384 . S
C1570 C1571 1.372 . S
C1571 C1570 1.372 . S
C1571 C1572 1.400 . S
C1571 C1576 1.490 . S
C1572 H1562 0.930 . S
C1572 C1571 1.400 . S
C1572 C1575 1.386 . S
H1573 C1589 0.930 . S
H1574 C1590 0.931 . S
C1575 H1563 0.929 . S
C1575 C1569 1.390 . S
C1575 C1572 1.386 . S
C1576 C1571 1.490 . S
C1576 C1578 1.395 . S
C1576 C1579 1.403 . S
H1577 C1583 0.930 . S
C1578 H1564 0.930 . S
C1578 C1576 1.395 . S
C1578 C1581 1.403 . S
C1579 C1576 1.403 . S
C1579 C1580 1.524 . S
C1579 C1583 1.400 . S
C1580 H1565 0.960 . S
C1580 H1566 0.960 . S
C1580 H1567 0.960 . S
C1580 C1579 1.524 . S
C1581 C1578 1.403 . S
C1581 C1582 1.392 . S
C1581 C1585 1.495 . S
C1582 C1581 1.392 . S
C1582 C1583 1.385 . S
C1582 C1584 1.478 . S
C1583 H1577 0.930 . S
C1583 C1579 1.400 . S
C1583 C1582 1.385 . S
C1584 C1582 1.478 . S
C1584 C1586 1.381 . S
C1584 C1590 1.383 . S
C1585 C1581 1.495 . S
C1585 H1591 0.959 . S
C1585 H1592 0.961 . S
C1585 H1593 0.960 . S
C1586 C1584 1.381 . S
C1586 C1587 1.394 . S
C1586 H1594 0.930 . S
C1587 C1586 1.394 . S
C1587 C1588 1.383 . S
C1587 H1595 0.929 . S
C1588 C1587 1.383 . S
C1588 C1589 1.377 . S
C1589 H1573 0.930 . S
C1589 C1588 1.377 . S
C1589 C1590 1.379 . S
C1590 H1574 0.931 . S
C1590 C1584 1.383 . S
C1590 C1589 1.379 . S
H1591 C1585 0.959 . S
H1592 C1585 0.961 . S
H1593 C1585 0.960 . S
H1594 C1586 0.930 . S
H1595 C1587 0.929 . S
H1596 C1604 0.929 . S
H1597 C1606 0.930 . S
H1598 C1608 0.930 . S
H1599 C1611 0.929 . S
H1600 C1614 0.930 . S
H1601 C1616 0.960 . S
H1602 C1616 0.960 . S
H1603 C1616 0.960 . S
C1604 H1596 0.929 . S
C1604 C1605 1.377 . S
C1604 C1606 1.384 . S
C1605 C1604 1.377 . S
C1605 C1611 1.390 . S
C1606 H1597 0.930 . S
C1606 C1604 1.384 . S
C1606 C1607 1.372 . S
C1607 C1606 1.372 . S
C1607 C1608 1.400 . S
C1607 C1612 1.490 . S
C1608 H1598 0.930 . S
C1608 C1607 1.400 . S
C1608 C1611 1.386 . S
H1609 C1625 0.930 . S
H1610 C1626 0.931 . S
C1611 H1599 0.929 . S
C1611 C1605 1.390 . S
C1611 C1608 1.386 . S
C1612 C1607 1.490 . S
C1612 C1614 1.395 . S
C1612 C1615 1.403 . S
H1613 C1619 0.930 . S
C1614 H1600 0.930 . S
C1614 C1612 1.395 . S
C1614 C1617 1.403 . S
C1615 C1612 1.403 . S
C1615 C1616 1.524 . S
C1615 C1619 1.400 . S
C1616 H1601 0.960 . S
C1616 H1602 0.960 . S
C1616 H1603 0.960 . S
C1616 C1615 1.524 . S
C1617 C1614 1.403 . S
C1617 C1618 1.392 . S
C1617 C1621 1.495 . S
C1618 C1617 1.392 . S
C1618 C1619 1.385 . S
C1618 C1620 1.478 . S
C1619 H1613 0.930 . S
C1619 C1615 1.400 . S
C1619 C1618 1.385 . S
C1620 C1618 1.478 . S
C1620 C1622 1.381 . S
C1620 C1626 1.383 . S
C1621 C1617 1.495 . S
C1621 H1627 0.959 . S
C1621 H1628 0.961 . S
C1621 H1629 0.960 . S
C1622 C1620 1.381 . S
C1622 C1623 1.394 . S
C1622 H1630 0.930 . S
C1623 C1622 1.394 . S
C1623 C1624 1.383 . S
C1623 H1631 0.929 . S
C1624 C1623 1.383 . S
C1624 C1625 1.377 . S
C1625 H1609 0.930 . S
C1625 C1624 1.377 . S
C1625 C1626 1.379 . S
C1626 H1610 0.931 . S
C1626 C1620 1.383 . S
C1626 C1625 1.379 . S
H1627 C1621 0.959 . S
H1628 C1621 0.961 . S
H1629 C1621 0.960 . S
H1630 C1622 0.930 . S
H1631 C1623 0.929 . S
H1632 C1640 0.929 . S
H1633 C1642 0.930 . S
H1634 C1644 0.930 . S
H1635 C1647 0.929 . S
H1636 C1650 0.930 . S
H1637 C1652 0.960 . S
H1638 C1652 0.960 . S
H1639 C1652 0.960 . S
C1640 H1632 0.929 . S
C1640 C1641 1.377 . S
C1640 C1642 1.384 . S
C1641 C1640 1.377 . S
C1641 C1647 1.390 . S
C1642 H1633 0.930 . S
C1642 C1640 1.384 . S
C1642 C1643 1.372 . S
C1643 C1642 1.372 . S
C1643 C1644 1.400 . S
C1643 C1648 1.490 . S
C1644 H1634 0.930 . S
C1644 C1643 1.400 . S
C1644 C1647 1.386 . S
H1645 C1661 0.930 . S
H1646 C1662 0.931 . S
C1647 H1635 0.929 . S
C1647 C1641 1.390 . S
C1647 C1644 1.386 . S
C1648 C1643 1.490 . S
C1648 C1650 1.395 . S
C1648 C1651 1.403 . S
H1649 C1655 0.930 . S
C1650 H1636 0.930 . S
C1650 C1648 1.395 . S
C1650 C1653 1.403 . S
C1651 C1648 1.403 . S
C1651 C1652 1.524 . S
C1651 C1655 1.400 . S
C1652 H1637 0.960 . S
C1652 H1638 0.960 . S
C1652 H1639 0.960 . S
C1652 C1651 1.524 . S
C1653 C1650 1.403 . S
C1653 C1654 1.392 . S
C1653 C1657 1.495 . S
C1654 C1653 1.392 . S
C1654 C1655 1.385 . S
C1654 C1656 1.478 . S
C1655 H1649 0.930 . S
C1655 C1651 1.400 . S
C1655 C1654 1.385 . S
C1656 C1654 1.478 . S
C1656 C1658 1.381 . S
C1656 C1662 1.383 . S
C1657 C1653 1.495 . S
C1657 H1663 0.959 . S
C1657 H1664 0.961 . S
C1657 H1665 0.960 . S
C1658 C1656 1.381 . S
C1658 C1659 1.394 . S
C1658 H1666 0.930 . S
C1659 C1658 1.394 . S
C1659 C1660 1.383 . S
C1659 H1667 0.929 . S
C1660 C1659 1.383 . S
C1660 C1661 1.377 . S
C1661 H1645 0.930 . S
C1661 C1660 1.377 . S
C1661 C1662 1.379 . S
C1662 H1646 0.931 . S
C1662 C1656 1.383 . S
C1662 C1661 1.379 . S
H1663 C1657 0.959 . S
H1664 C1657 0.961 . S
H1665 C1657 0.960 . S
H1666 C1658 0.930 . S
H1667 C1659 0.929 . S
H1668 C1676 0.929 . S
H1669 C1678 0.930 . S
H1670 C1680 0.930 . S
H1671 C1683 0.929 . S
H1672 C1686 0.930 . S
H1673 C1688 0.960 . S
H1674 C1688 0.960 . S
H1675 C1688 0.960 . S
C1676 H1668 0.929 . S
C1676 C1677 1.377 . S
C1676 C1678 1.384 . S
C1677 C1676 1.377 . S
C1677 C1683 1.390 . S
C1678 H1669 0.930 . S
C1678 C1676 1.384 . S
C1678 C1679 1.372 . S
C1679 C1678 1.372 . S
C1679 C1680 1.400 . S
C1679 C1684 1.490 . S
C1680 H1670 0.930 . S
C1680 C1679 1.400 . S
C1680 C1683 1.386 . S
H1681 C1697 0.930 . S
H1682 C1698 0.931 . S
C1683 H1671 0.929 . S
C1683 C1677 1.390 . S
C1683 C1680 1.386 . S
C1684 C1679 1.490 . S
C1684 C1686 1.395 . S
C1684 C1687 1.403 . S
H1685 C1691 0.930 . S
C1686 H1672 0.930 . S
C1686 C1684 1.395 . S
C1686 C1689 1.403 . S
C1687 C1684 1.403 . S
C1687 C1688 1.524 . S
C1687 C1691 1.400 . S
C1688 H1673 0.960 . S
C1688 H1674 0.960 . S
C1688 H1675 0.960 . S
C1688 C1687 1.524 . S
C1689 C1686 1.403 . S
C1689 C1690 1.392 . S
C1689 C1693 1.495 . S
C1690 C1689 1.392 . S
C1690 C1691 1.385 . S
C1690 C1692 1.478 . S
C1691 H1685 0.930 . S
C1691 C1687 1.400 . S
C1691 C1690 1.385 . S
C1692 C1690 1.478 . S
C1692 C1694 1.381 . S
C1692 C1698 1.383 . S
C1693 C1689 1.495 . S
C1693 H1699 0.959 . S
C1693 H1700 0.961 . S
C1693 H1701 0.960 . S
C1694 C1692 1.381 . S
C1694 C1695 1.394 . S
C1694 H1702 0.930 . S
C1695 C1694 1.394 . S
C1695 C1696 1.383 . S
C1695 H1703 0.929 . S
C1696 C1695 1.383 . S
C1696 C1697 1.377 . S
C1697 H1681 0.930 . S
C1697 C1696 1.377 . S
C1697 C1698 1.379 . S
C1698 H1682 0.931 . S
C1698 C1692 1.383 . S
C1698 C1697 1.379 . S
H1699 C1693 0.959 . S
H1700 C1693 0.961 . S
H1701 C1693 0.960 . S
H1702 C1694 0.930 . S
H1703 C1695 0.929 . S
H1704 C1712 0.929 . S
H1705 C1714 0.930 . S
H1706 C1716 0.930 . S
H1707 C1719 0.929 . S
H1708 C1722 0.930 . S
H1709 C1724 0.960 . S
H1710 C1724 0.960 . S
H1711 C1724 0.960 . S
C1712 H1704 0.929 . S
C1712 C1713 1.377 . S
C1712 C1714 1.384 . S
C1713 C1712 1.377 . S
C1713 C1719 1.390 . S
C1714 H1705 0.930 . S
C1714 C1712 1.384 . S
C1714 C1715 1.372 . S
C1715 C1714 1.372 . S
C1715 C1716 1.400 . S
C1715 C1720 1.490 . S
C1716 H1706 0.930 . S
C1716 C1715 1.400 . S
C1716 C1719 1.386 . S
H1717 C1733 0.930 . S
H1718 C1734 0.931 . S
C1719 H1707 0.929 . S
C1719 C1713 1.390 . S
C1719 C1716 1.386 . S
C1720 C1715 1.490 . S
C1720 C1722 1.395 . S
C1720 C1723 1.403 . S
H1721 C1727 0.930 . S
C1722 H1708 0.930 . S
C1722 C1720 1.395 . S
C1722 C1725 1.403 . S
C1723 C1720 1.403 . S
C1723 C1724 1.524 . S
C1723 C1727 1.400 . S
C1724 H1709 0.960 . S
C1724 H1710 0.960 . S
C1724 H1711 0.960 . S
C1724 C1723 1.524 . S
C1725 C1722 1.403 . S
C1725 C1726 1.392 . S
C1725 C1729 1.495 . S
C1726 C1725 1.392 . S
C1726 C1727 1.385 . S
C1726 C1728 1.478 . S
C1727 H1721 0.930 . S
C1727 C1723 1.400 . S
C1727 C1726 1.385 . S
C1728 C1726 1.478 . S
C1728 C1730 1.381 . S
C1728 C1734 1.383 . S
C1729 C1725 1.495 . S
C1729 H1735 0.959 . S
C1729 H1736 0.961 . S
C1729 H1737 0.960 . S
C1730 C1728 1.381 . S
C1730 C1731 1.394 . S
C1730 H1738 0.930 . S
C1731 C1730 1.394 . S
C1731 C1732 1.383 . S
C1731 H1739 0.929 . S
C1732 C1731 1.383 . S
C1732 C1733 1.377 . S
C1733 H1717 0.930 . S
C1733 C1732 1.377 . S
C1733 C1734 1.379 . S
C1734 H1718 0.931 . S
C1734 C1728 1.383 . S
C1734 C1733 1.379 . S
H1735 C1729 0.959 . S
H1736 C1729 0.961 . S
H1737 C1729 0.960 . S
H1738 C1730 0.930 . S
H1739 C1731 0.929 . S
H1740 C1748 0.929 . S
H1741 C1750 0.930 . S
H1742 C1752 0.930 . S
H1743 C1755 0.929 . S
H1744 C1758 0.930 . S
H1745 C1760 0.960 . S
H1746 C1760 0.960 . S
H1747 C1760 0.960 . S
C1748 H1740 0.929 . S
C1748 C1749 1.377 . S
C1748 C1750 1.384 . S
C1749 C1748 1.377 . S
C1749 C1755 1.390 . S
C1750 H1741 0.930 . S
C1750 C1748 1.384 . S
C1750 C1751 1.372 . S
C1751 C1750 1.372 . S
C1751 C1752 1.400 . S
C1751 C1756 1.490 . S
C1752 H1742 0.930 . S
C1752 C1751 1.400 . S
C1752 C1755 1.386 . S
H1753 C1769 0.930 . S
H1754 C1770 0.931 . S
C1755 H1743 0.929 . S
C1755 C1749 1.390 . S
C1755 C1752 1.386 . S
C1756 C1751 1.490 . S
C1756 C1758 1.395 . S
C1756 C1759 1.403 . S
H1757 C1763 0.930 . S
C1758 H1744 0.930 . S
C1758 C1756 1.395 . S
C1758 C1761 1.403 . S
C1759 C1756 1.403 . S
C1759 C1760 1.524 . S
C1759 C1763 1.400 . S
C1760 H1745 0.960 . S
C1760 H1746 0.960 . S
C1760 H1747 0.960 . S
C1760 C1759 1.524 . S
C1761 C1758 1.403 . S
C1761 C1762 1.392 . S
C1761 C1765 1.495 . S
C1762 C1761 1.392 . S
C1762 C1763 1.385 . S
C1762 C1764 1.478 . S
C1763 H1757 0.930 . S
C1763 C1759 1.400 . S
C1763 C1762 1.385 . S
C1764 C1762 1.478 . S
C1764 C1766 1.381 . S
C1764 C1770 1.383 . S
C1765 C1761 1.495 . S
C1765 H1771 0.959 . S
C1765 H1772 0.961 . S
C1765 H1773 0.960 . S
C1766 C1764 1.381 . S
C1766 C1767 1.394 . S
C1766 H1774 0.930 . S
C1767 C1766 1.394 . S
C1767 C1768 1.383 . S
C1767 H1775 0.929 . S
C1768 C1767 1.383 . S
C1768 C1769 1.377 . S
C1769 H1753 0.930 . S
C1769 C1768 1.377 . S
C1769 C1770 1.379 . S
C1770 H1754 0.931 . S
C1770 C1764 1.383 . S
C1770 C1769 1.379 . S
H1771 C1765 0.959 . S
H1772 C1765 0.961 . S
H1773 C1765 0.960 . S
H1774 C1766 0.930 . S
H1775 C1767 0.929 . S
H1776 C1784 0.929 . S
H1777 C1786 0.930 . S
H1778 C1788 0.930 . S
H1779 C1791 0.929 . S
H1780 C1794 0.930 . S
H1781 C1796 0.960 . S
H1782 C1796 0.960 . S
H1783 C1796 0.960 . S
C1784 H1776 0.929 . S
C1784 C1785 1.377 . S
C1784 C1786 1.384 . S
C1785 C1784 1.377 . S
C1785 C1791 1.390 . S
C1786 H1777 0.930 . S
C1786 C1784 1.384 . S
C1786 C1787 1.372 . S
C1787 C1786 1.372 . S
C1787 C1788 1.400 . S
C1787 C1792 1.490 . S
C1788 H1778 0.930 . S
C1788 C1787 1.400 . S
C1788 C1791 1.386 . S
H1789 C1805 0.930 . S
H1790 C1806 0.931 . S
C1791 H1779 0.929 . S
C1791 C1785 1.390 . S
C1791 C1788 1.386 . S
C1792 C1787 1.490 . S
C1792 C1794 1.395 . S
C1792 C1795 1.403 . S
H1793 C1799 0.930 . S
C1794 H1780 0.930 . S
C1794 C1792 1.395 . S
C1794 C1797 1.403 . S
C1795 C1792 1.403 . S
C1795 C1796 1.524 . S
C1795 C1799 1.400 . S
C1796 H1781 0.960 . S
C1796 H1782 0.960 . S
C1796 H1783 0.960 . S
C1796 C1795 1.524 . S
C1797 C1794 1.403 . S
C1797 C1798 1.392 . S
C1797 C1801 1.495 . S
C1798 C1797 1.392 . S
C1798 C1799 1.385 . S
C1798 C1800 1.478 . S
C1799 H1793 0.930 . S
C1799 C1795 1.400 . S
C1799 C1798 1.385 . S
C1800 C1798 1.478 . S
C1800 C1802 1.381 . S
C1800 C1806 1.383 . S
C1801 C1797 1.495 . S
C1801 H1807 0.959 . S
C1801 H1808 0.961 . S
C1801 H1809 0.960 . S
C1802 C1800 1.381 . S
C1802 C1803 1.394 . S
C1802 H1810 0.930 . S
C1803 C1802 1.394 . S
C1803 C1804 1.383 . S
C1803 H1811 0.929 . S
C1804 C1803 1.383 . S
C1804 C1805 1.377 . S
C1805 H1789 0.930 . S
C1805 C1804 1.377 . S
C1805 C1806 1.379 . S
C1806 H1790 0.931 . S
C1806 C1800 1.383 . S
C1806 C1805 1.379 . S
H1807 C1801 0.959 . S
H1808 C1801 0.961 . S
H1809 C1801 0.960 . S
H1810 C1802 0.930 . S
H1811 C1803 0.929 . S
H1812 C1820 0.929 . S
H1813 C1822 0.930 . S
H1814 C1824 0.930 . S
H1815 C1827 0.929 . S
H1816 C1830 0.930 . S
H1817 C1832 0.960 . S
H1818 C1832 0.960 . S
H1819 C1832 0.960 . S
C1820 H1812 0.929 . S
C1820 C1821 1.377 . S
C1820 C1822 1.384 . S
C1821 C1820 1.377 . S
C1821 C1827 1.390 . S
C1822 H1813 0.930 . S
C1822 C1820 1.384 . S
C1822 C1823 1.372 . S
C1823 C1822 1.372 . S
C1823 C1824 1.400 . S
C1823 C1828 1.490 . S
C1824 H1814 0.930 . S
C1824 C1823 1.400 . S
C1824 C1827 1.386 . S
H1825 C1841 0.930 . S
H1826 C1842 0.931 . S
C1827 H1815 0.929 . S
C1827 C1821 1.390 . S
C1827 C1824 1.386 . S
C1828 C1823 1.490 . S
C1828 C1830 1.395 . S
C1828 C1831 1.403 . S
H1829 C1835 0.930 . S
C1830 H1816 0.930 . S
C1830 C1828 1.395 . S
C1830 C1833 1.403 . S
C1831 C1828 1.403 . S
C1831 C1832 1.524 . S
C1831 C1835 1.400 . S
C1832 H1817 0.960 . S
C1832 H1818 0.960 . S
C1832 H1819 0.960 . S
C1832 C1831 1.524 . S
C1833 C1830 1.403 . S
C1833 C1834 1.392 . S
C1833 C1837 1.495 . S
C1834 C1833 1.392 . S
C1834 C1835 1.385 . S
C1834 C1836 1.478 . S
C1835 H1829 0.930 . S
C1835 C1831 1.400 . S
C1835 C1834 1.385 . S
C1836 C1834 1.478 . S
C1836 C1838 1.381 . S
C1836 C1842 1.383 . S
C1837 C1833 1.495 . S
C1837 H1843 0.959 . S
C1837 H1844 0.961 . S
C1837 H1845 0.960 . S
C1838 C1836 1.381 . S
C1838 C1839 1.394 . S
C1838 H1846 0.930 . S
C1839 C1838 1.394 . S
C1839 C1840 1.383 . S
C1839 H1847 0.929 . S
C1840 C1839 1.383 . S
C1840 C1841 1.377 . S
C1841 H1825 0.930 . S
C1841 C1840 1.377 . S
C1841 C1842 1.379 . S
C1842 H1826 0.931 . S
C1842 C1836 1.383 . S
C1842 C1841 1.379 . S
H1843 C1837 0.959 . S
H1844 C1837 0.961 . S
H1845 C1837 0.960 . S
H1846 C1838 0.930 . S
H1847 C1839 0.929 . S
H1848 C1856 0.929 . S
H1849 C1858 0.930 . S
H1850 C1860 0.930 . S
H1851 C1863 0.929 . S
H1852 C1866 0.930 . S
H1853 C1868 0.960 . S
H1854 C1868 0.960 . S
H1855 C1868 0.960 . S
C1856 H1848 0.929 . S
C1856 C1857 1.377 . S
C1856 C1858 1.384 . S
C1857 C1856 1.377 . S
C1857 C1863 1.390 . S
C1858 H1849 0.930 . S
C1858 C1856 1.384 . S
C1858 C1859 1.372 . S
C1859 C1858 1.372 . S
C1859 C1860 1.400 . S
C1859 C1864 1.490 . S
C1860 H1850 0.930 . S
C1860 C1859 1.400 . S
C1860 C1863 1.386 . S
H1861 C1877 0.930 . S
H1862 C1878 0.931 . S
C1863 H1851 0.929 . S
C1863 C1857 1.390 . S
C1863 C1860 1.386 . S
C1864 C1859 1.490 . S
C1864 C1866 1.395 . S
C1864 C1867 1.403 . S
H1865 C1871 0.930 . S
C1866 H1852 0.930 . S
C1866 C1864 1.395 . S
C1866 C1869 1.403 . S
C1867 C1864 1.403 . S
C1867 C1868 1.524 . S
C1867 C1871 1.400 . S
C1868 H1853 0.960 . S
C1868 H1854 0.960 . S
C1868 H1855 0.960 . S
C1868 C1867 1.524 . S
C1869 C1866 1.403 . S
C1869 C1870 1.392 . S
C1869 C1873 1.495 . S
C1870 C1869 1.392 . S
C1870 C1871 1.385 . S
C1870 C1872 1.478 . S
C1871 H1865 0.930 . S
C1871 C1867 1.400 . S
C1871 C1870 1.385 . S
C1872 C1870 1.478 . S
C1872 C1874 1.381 . S
C1872 C1878 1.383 . S
C1873 C1869 1.495 . S
C1873 H1879 0.959 . S
C1873 H1880 0.961 . S
C1873 H1881 0.960 . S
C1874 C1872 1.381 . S
C1874 C1875 1.394 . S
C1874 H1882 0.930 . S
C1875 C1874 1.394 . S
C1875 C1876 1.383 . S
C1875 H1883 0.929 . S
C1876 C1875 1.383 . S
C1876 C1877 1.377 . S
C1877 H1861 0.930 . S
C1877 C1876 1.377 . S
C1877 C1878 1.379 . S
C1878 H1862 0.931 . S
C1878 C1872 1.383 . S
C1878 C1877 1.379 . S
H1879 C1873 0.959 . S
H1880 C1873 0.961 . S
H1881 C1873 0.960 . S
H1882 C1874 0.930 . S
H1883 C1875 0.929 . S
H1884 C1892 0.929 . S
H1885 C1894 0.930 . S
H1886 C1896 0.930 . S
H1887 C1899 0.929 . S
H1888 C1902 0.930 . S
H1889 C1904 0.960 . S
H1890 C1904 0.960 . S
H1891 C1904 0.960 . S
C1892 H1884 0.929 . S
C1892 C1893 1.377 . S
C1892 C1894 1.384 . S
C1893 C1892 1.377 . S
C1893 C1899 1.390 . S
C1894 H1885 0.930 . S
C1894 C1892 1.384 . S
C1894 C1895 1.372 . S
C1895 C1894 1.372 . S
C1895 C1896 1.400 . S
C1895 C1900 1.490 . S
C1896 H1886 0.930 . S
C1896 C1895 1.400 . S
C1896 C1899 1.386 . S
H1897 C1913 0.930 . S
H1898 C1914 0.931 . S
C1899 H1887 0.929 . S
C1899 C1893 1.390 . S
C1899 C1896 1.386 . S
C1900 C1895 1.490 . S
C1900 C1902 1.395 . S
C1900 C1903 1.403 . S
H1901 C1907 0.930 . S
C1902 H1888 0.930 . S
C1902 C1900 1.395 . S
C1902 C1905 1.403 . S
C1903 C1900 1.403 . S
C1903 C1904 1.524 . S
C1903 C1907 1.400 . S
C1904 H1889 0.960 . S
C1904 H1890 0.960 . S
C1904 H1891 0.960 . S
C1904 C1903 1.524 . S
C1905 C1902 1.403 . S
C1905 C1906 1.392 . S
C1905 C1909 1.495 . S
C1906 C1905 1.392 . S
C1906 C1907 1.385 . S
C1906 C1908 1.478 . S
C1907 H1901 0.930 . S
C1907 C1903 1.400 . S
C1907 C1906 1.385 . S
C1908 C1906 1.478 . S
C1908 C1910 1.381 . S
C1908 C1914 1.383 . S
C1909 C1905 1.495 . S
C1909 H1915 0.959 . S
C1909 H1916 0.961 . S
C1909 H1917 0.960 . S
C1910 C1908 1.381 . S
C1910 C1911 1.394 . S
C1910 H1918 0.930 . S
C1911 C1910 1.394 . S
C1911 C1912 1.383 . S
C1911 H1919 0.929 . S
C1912 C1911 1.383 . S
C1912 C1913 1.377 . S
C1913 H1897 0.930 . S
C1913 C1912 1.377 . S
C1913 C1914 1.379 . S
C1914 H1898 0.931 . S
C1914 C1908 1.383 . S
C1914 C1913 1.379 . S
H1915 C1909 0.959 . S
H1916 C1909 0.961 . S
H1917 C1909 0.960 . S
H1918 C1910 0.930 . S
H1919 C1911 0.929 . S
H1920 C1928 0.929 . S
H1921 C1930 0.930 . S
H1922 C1932 0.930 . S
H1923 C1935 0.929 . S
H1924 C1938 0.930 . S
H1925 C1940 0.960 . S
H1926 C1940 0.960 . S
H1927 C1940 0.960 . S
C1928 H1920 0.929 . S
C1928 C1929 1.377 . S
C1928 C1930 1.384 . S
C1929 C1928 1.377 . S
C1929 C1935 1.390 . S
C1930 H1921 0.930 . S
C1930 C1928 1.384 . S
C1930 C1931 1.372 . S
C1931 C1930 1.372 . S
C1931 C1932 1.400 . S
C1931 C1936 1.490 . S
C1932 H1922 0.930 . S
C1932 C1931 1.400 . S
C1932 C1935 1.386 . S
H1933 C1949 0.930 . S
H1934 C1950 0.931 . S
C1935 H1923 0.929 . S
C1935 C1929 1.390 . S
C1935 C1932 1.386 . S
C1936 C1931 1.490 . S
C1936 C1938 1.395 . S
C1936 C1939 1.403 . S
H1937 C1943 0.930 . S
C1938 H1924 0.930 . S
C1938 C1936 1.395 . S
C1938 C1941 1.403 . S
C1939 C1936 1.403 . S
C1939 C1940 1.524 . S
C1939 C1943 1.400 . S
C1940 H1925 0.960 . S
C1940 H1926 0.960 . S
C1940 H1927 0.960 . S
C1940 C1939 1.524 . S
C1941 C1938 1.403 . S
C1941 C1942 1.392 . S
C1941 C1945 1.495 . S
C1942 C1941 1.392 . S
C1942 C1943 1.385 . S
C1942 C1944 1.478 . S
C1943 H1937 0.930 . S
C1943 C1939 1.400 . S
C1943 C1942 1.385 . S
C1944 C1942 1.478 . S
C1944 C1946 1.381 . S
C1944 C1950 1.383 . S
C1945 C1941 1.495 . S
C1945 H1951 0.959 . S
C1945 H1952 0.961 . S
C1945 H1953 0.960 . S
C1946 C1944 1.381 . S
C1946 C1947 1.394 . S
C1946 H1954 0.930 . S
C1947 C1946 1.394 . S
C1947 C1948 1.383 . S
C1947 H1955 0.929 . S
C1948 C1947 1.383 . S
C1948 C1949 1.377 . S
C1949 H1933 0.930 . S
C1949 C1948 1.377 . S
C1949 C1950 1.379 . S
C1950 H1934 0.931 . S
C1950 C1944 1.383 . S
C1950 C1949 1.379 . S
H1951 C1945 0.959 . S
H1952 C1945 0.961 . S
H1953 C1945 0.960 . S
H1954 C1946 0.930 . S
H1955 C1947 0.929 . S
H1956 C1964 0.929 . S
H1957 C1966 0.930 . S
H1958 C1968 0.930 . S
H1959 C1971 0.929 . S
H1960 C1974 0.930 . S
H1961 C1976 0.960 . S
H1962 C1976 0.960 . S
H1963 C1976 0.960 . S
C1964 H1956 0.929 . S
C1964 C1965 1.377 . S
C1964 C1966 1.384 . S
C1965 C1964 1.377 . S
C1965 C1971 1.390 . S
C1966 H1957 0.930 . S
C1966 C1964 1.384 . S
C1966 C1967 1.372 . S
C1967 C1966 1.372 . S
C1967 C1968 1.400 . S
C1967 C1972 1.490 . S
C1968 H1958 0.930 . S
C1968 C1967 1.400 . S
C1968 C1971 1.386 . S
H1969 C1985 0.930 . S
H1970 C1986 0.931 . S
C1971 H1959 0.929 . S
C1971 C1965 1.390 . S
C1971 C1968 1.386 . S
C1972 C1967 1.490 . S
C1972 C1974 1.395 . S
C1972 C1975 1.403 . S
H1973 C1979 0.930 . S
C1974 H1960 0.930 . S
C1974 C1972 1.395 . S
C1974 C1977 1.403 . S
C1975 C1972 1.403 . S
C1975 C1976 1.524 . S
C1975 C1979 1.400 . S
C1976 H1961 0.960 . S
C1976 H1962 0.960 . S
C1976 H1963 0.960 . S
C1976 C1975 1.524 . S
C1977 C1974 1.403 . S
C1977 C1978 1.392 . S
C1977 C1981 1.495 . S
C1978 C1977 1.392 . S
C1978 C1979 1.385 . S
C1978 C1980 1.478 . S
C1979 H1973 0.930 . S
C1979 C1975 1.400 . S
C1979 C1978 1.385 . S
C1980 C1978 1.478 . S
C1980 C1982 1.381 . S
C1980 C1986 1.383 . S
C1981 C1977 1.495 . S
C1981 H1987 0.959 . S
C1981 H1988 0.961 . S
C1981 H1989 0.960 . S
C1982 C1980 1.381 . S
C1982 C1983 1.394 . S
C1982 H1990 0.930 . S
C1983 C1982 1.394 . S
C1983 C1984 1.383 . S
C1983 H1991 0.929 . S
C1984 C1983 1.383 . S
C1984 C1985 1.377 . S
C1985 H1969 0.930 . S
C1985 C1984 1.377 . S
C1985 C1986 1.379 . S
C1986 H1970 0.931 . S
C1986 C1980 1.383 . S
C1986 C1985 1.379 . S
H1987 C1981 0.959 . S
H1988 C1981 0.961 . S
H1989 C1981 0.960 . S
H1990 C1982 0.930 . S
H1991 C1983 0.929 . S
H1992 C2000 0.929 . S
H1993 C2002 0.930 . S
H1994 C2004 0.930 . S
H1995 C2007 0.929 . S
H1996 C2010 0.930 . S
H1997 C2012 0.960 . S
H1998 C2012 0.960 . S
H1999 C2012 0.960 . S
C2000 H1992 0.929 . S
C2000 C2001 1.377 . S
C2000 C2002 1.384 . S
C2001 C2000 1.377 . S
C2001 C2007 1.390 . S
C2002 H1993 0.930 . S
C2002 C2000 1.384 . S
C2002 C2003 1.372 . S
C2003 C2002 1.372 . S
C2003 C2004 1.400 . S
C2003 C2008 1.490 . S
C2004 H1994 0.930 . S
C2004 C2003 1.400 . S
C2004 C2007 1.386 . S
H2005 C2021 0.930 . S
H2006 C2022 0.931 . S
C2007 H1995 0.929 . S
C2007 C2001 1.390 . S
C2007 C2004 1.386 . S
C2008 C2003 1.490 . S
C2008 C2010 1.395 . S
C2008 C2011 1.403 . S
H2009 C2015 0.930 . S
C2010 H1996 0.930 . S
C2010 C2008 1.395 . S
C2010 C2013 1.403 . S
C2011 C2008 1.403 . S
C2011 C2012 1.524 . S
C2011 C2015 1.400 . S
C2012 H1997 0.960 . S
C2012 H1998 0.960 . S
C2012 H1999 0.960 . S
C2012 C2011 1.524 . S
C2013 C2010 1.403 . S
C2013 C2014 1.392 . S
C2013 C2017 1.495 . S
C2014 C2013 1.392 . S
C2014 C2015 1.385 . S
C2014 C2016 1.478 . S
C2015 H2009 0.930 . S
C2015 C2011 1.400 . S
C2015 C2014 1.385 . S
C2016 C2014 1.478 . S
C2016 C2018 1.381 . S
C2016 C2022 1.383 . S
C2017 C2013 1.495 . S
C2017 H2023 0.959 . S
C2017 H2024 0.961 . S
C2017 H2025 0.960 . S
C2018 C2016 1.381 . S
C2018 C2019 1.394 . S
C2018 H2026 0.930 . S
C2019 C2018 1.394 . S
C2019 C2020 1.383 . S
C2019 H2027 0.929 . S
C2020 C2019 1.383 . S
C2020 C2021 1.377 . S
C2021 H2005 0.930 . S
C2021 C2020 1.377 . S
C2021 C2022 1.379 . S
C2022 H2006 0.931 . S
C2022 C2016 1.383 . S
C2022 C2021 1.379 . S
H2023 C2017 0.959 . S
H2024 C2017 0.961 . S
H2025 C2017 0.960 . S
H2026 C2018 0.930 . S
H2027 C2019 0.929 . S
H2028 C2036 0.929 . S
H2029 C2038 0.930 . S
H2030 C2040 0.930 . S
H2031 C2043 0.929 . S
H2032 C2046 0.930 . S
H2033 C2048 0.960 . S
H2034 C2048 0.960 . S
H2035 C2048 0.960 . S
C2036 H2028 0.929 . S
C2036 C2037 1.377 . S
C2036 C2038 1.384 . S
C2037 C2036 1.377 . S
C2037 C2043 1.390 . S
C2038 H2029 0.930 . S
C2038 C2036 1.384 . S
C2038 C2039 1.372 . S
C2039 C2038 1.372 . S
C2039 C2040 1.400 . S
C2039 C2044 1.490 . S
C2040 H2030 0.930 . S
C2040 C2039 1.400 . S
C2040 C2043 1.386 . S
H2041 C2057 0.930 . S
H2042 C2058 0.931 . S
C2043 H2031 0.929 . S
C2043 C2037 1.390 . S
C2043 C2040 1.386 . S
C2044 C2039 1.490 . S
C2044 C2046 1.395 . S
C2044 C2047 1.403 . S
H2045 C2051 0.930 . S
C2046 H2032 0.930 . S
C2046 C2044 1.395 . S
C2046 C2049 1.403 . S
C2047 C2044 1.403 . S
C2047 C2048 1.524 . S
C2047 C2051 1.400 . S
C2048 H2033 0.960 . S
C2048 H2034 0.960 . S
C2048 H2035 0.960 . S
C2048 C2047 1.524 . S
C2049 C2046 1.403 . S
C2049 C2050 1.392 . S
C2049 C2053 1.495 . S
C2050 C2049 1.392 . S
C2050 C2051 1.385 . S
C2050 C2052 1.478 . S
C2051 H2045 0.930 . S
C2051 C2047 1.400 . S
C2051 C2050 1.385 . S
C2052 C2050 1.478 . S
C2052 C2054 1.381 . S
C2052 C2058 1.383 . S
C2053 C2049 1.495 . S
C2053 H2059 0.959 . S
C2053 H2060 0.961 . S
C2053 H2061 0.960 . S
C2054 C2052 1.381 . S
C2054 C2055 1.394 . S
C2054 H2062 0.930 . S
C2055 C2054 1.394 . S
C2055 C2056 1.383 . S
C2055 H2063 0.929 . S
C2056 C2055 1.383 . S
C2056 C2057 1.377 . S
C2057 H2041 0.930 . S
C2057 C2056 1.377 . S
C2057 C2058 1.379 . S
C2058 H2042 0.931 . S
C2058 C2052 1.383 . S
C2058 C2057 1.379 . S
H2059 C2053 0.959 . S
H2060 C2053 0.961 . S
H2061 C2053 0.960 . S
H2062 C2054 0.930 . S
H2063 C2055 0.929 . S
H2064 C2072 0.929 . S
H2065 C2074 0.930 . S
H2066 C2076 0.930 . S
H2067 C2079 0.929 . S
H2068 C2082 0.930 . S
H2069 C2084 0.960 . S
H2070 C2084 0.960 . S
H2071 C2084 0.960 . S
C2072 H2064 0.929 . S
C2072 C2073 1.377 . S
C2072 C2074 1.384 . S
C2073 C2072 1.377 . S
C2073 C2079 1.390 . S
C2074 H2065 0.930 . S
C2074 C2072 1.384 . S
C2074 C2075 1.372 . S
C2075 C2074 1.372 . S
C2075 C2076 1.400 . S
C2075 C2080 1.490 . S
C2076 H2066 0.930 . S
C2076 C2075 1.400 . S
C2076 C2079 1.386 . S
H2077 C2093 0.930 . S
H2078 C2094 0.931 . S
C2079 H2067 0.929 . S
C2079 C2073 1.390 . S
C2079 C2076 1.386 . S
C2080 C2075 1.490 . S
C2080 C2082 1.395 . S
C2080 C2083 1.403 . S
H2081 C2087 0.930 . S
C2082 H2068 0.930 . S
C2082 C2080 1.395 . S
C2082 C2085 1.403 . S
C2083 C2080 1.403 . S
C2083 C2084 1.524 . S
C2083 C2087 1.400 . S
C2084 H2069 0.960 . S
C2084 H2070 0.960 . S
C2084 H2071 0.960 . S
C2084 C2083 1.524 . S
C2085 C2082 1.403 . S
C2085 C2086 1.392 . S
C2085 C2089 1.495 . S
C2086 C2085 1.392 . S
C2086 C2087 1.385 . S
C2086 C2088 1.478 . S
C2087 H2081 0.930 . S
C2087 C2083 1.400 . S
C2087 C2086 1.385 . S
C2088 C2086 1.478 . S
C2088 C2090 1.381 . S
C2088 C2094 1.383 . S
C2089 C2085 1.495 . S
C2089 H2095 0.959 . S
C2089 H2096 0.961 . S
C2089 H2097 0.960 . S
C2090 C2088 1.381 . S
C2090 C2091 1.394 . S
C2090 H2098 0.930 . S
C2091 C2090 1.394 . S
C2091 C2092 1.383 . S
C2091 H2099 0.929 . S
C2092 C2091 1.383 . S
C2092 C2093 1.377 . S
C2093 H2077 0.930 . S
C2093 C2092 1.377 . S
C2093 C2094 1.379 . S
C2094 H2078 0.931 . S
C2094 C2088 1.383 . S
C2094 C2093 1.379 . S
H2095 C2089 0.959 . S
H2096 C2089 0.961 . S
H2097 C2089 0.960 . S
H2098 C2090 0.930 . S
H2099 C2091 0.929 . S
H2100 C2108 0.929 . S
H2101 C2110 0.930 . S
H2102 C2112 0.930 . S
H2103 C2115 0.929 . S
H2104 C2118 0.930 . S
H2105 C2120 0.960 . S
H2106 C2120 0.960 . S
H2107 C2120 0.960 . S
C2108 H2100 0.929 . S
C2108 C2109 1.377 . S
C2108 C2110 1.384 . S
C2109 C2108 1.377 . S
C2109 C2115 1.390 . S
C2110 H2101 0.930 . S
C2110 C2108 1.384 . S
C2110 C2111 1.372 . S
C2111 C2110 1.372 . S
C2111 C2112 1.400 . S
C2111 C2116 1.490 . S
C2112 H2102 0.930 . S
C2112 C2111 1.400 . S
C2112 C2115 1.386 . S
H2113 C2129 0.930 . S
H2114 C2130 0.931 . S
C2115 H2103 0.929 . S
C2115 C2109 1.390 . S
C2115 C2112 1.386 . S
C2116 C2111 1.490 . S
C2116 C2118 1.395 . S
C2116 C2119 1.403 . S
H2117 C2123 0.930 . S
C2118 H2104 0.930 . S
C2118 C2116 1.395 . S
C2118 C2121 1.403 . S
C2119 C2116 1.403 . S
C2119 C2120 1.524 . S
C2119 C2123 1.400 . S
C2120 H2105 0.960 . S
C2120 H2106 0.960 . S
C2120 H2107 0.960 . S
C2120 C2119 1.524 . S
C2121 C2118 1.403 . S
C2121 C2122 1.392 . S
C2121 C2125 1.495 . S
C2122 C2121 1.392 . S
C2122 C2123 1.385 . S
C2122 C2124 1.478 . S
C2123 H2117 0.930 . S
C2123 C2119 1.400 . S
C2123 C2122 1.385 . S
C2124 C2122 1.478 . S
C2124 C2126 1.381 . S
C2124 C2130 1.383 . S
C2125 C2121 1.495 . S
C2125 H2131 0.959 . S
C2125 H2132 0.961 . S
C2125 H2133 0.960 . S
C2126 C2124 1.381 . S
C2126 C2127 1.394 . S
C2126 H2134 0.930 . S
C2127 C2126 1.394 . S
C2127 C2128 1.383 . S
C2127 H2135 0.929 . S
C2128 C2127 1.383 . S
C2128 C2129 1.377 . S
C2129 H2113 0.930 . S
C2129 C2128 1.377 . S
C2129 C2130 1.379 . S
C2130 H2114 0.931 . S
C2130 C2124 1.383 . S
C2130 C2129 1.379 . S
H2131 C2125 0.959 . S
H2132 C2125 0.961 . S
H2133 C2125 0.960 . S
H2134 C2126 0.930 . S
H2135 C2127 0.929 . S
H2136 C2144 0.929 . S
H2137 C2146 0.930 . S
H2138 C2148 0.930 . S
H2139 C2151 0.929 . S
H2140 C2154 0.930 . S
H2141 C2156 0.960 . S
H2142 C2156 0.960 . S
H2143 C2156 0.960 . S
C2144 H2136 0.929 . S
C2144 C2145 1.377 . S
C2144 C2146 1.384 . S
C2145 C2144 1.377 . S
C2145 C2151 1.390 . S
C2146 H2137 0.930 . S
C2146 C2144 1.384 . S
C2146 C2147 1.372 . S
C2147 C2146 1.372 . S
C2147 C2148 1.400 . S
C2147 C2152 1.490 . S
C2148 H2138 0.930 . S
C2148 C2147 1.400 . S
C2148 C2151 1.386 . S
H2149 C2165 0.930 . S
H2150 C2166 0.931 . S
C2151 H2139 0.929 . S
C2151 C2145 1.390 . S
C2151 C2148 1.386 . S
C2152 C2147 1.490 . S
C2152 C2154 1.395 . S
C2152 C2155 1.403 . S
H2153 C2159 0.930 . S
C2154 H2140 0.930 . S
C2154 C2152 1.395 . S
C2154 C2157 1.403 . S
C2155 C2152 1.403 . S
C2155 C2156 1.524 . S
C2155 C2159 1.400 . S
C2156 H2141 0.960 . S
C2156 H2142 0.960 . S
C2156 H2143 0.960 . S
C2156 C2155 1.524 . S
C2157 C2154 1.403 . S
C2157 C2158 1.392 . S
C2157 C2161 1.495 . S
C2158 C2157 1.392 . S
C2158 C2159 1.385 . S
C2158 C2160 1.478 . S
C2159 H2153 0.930 . S
C2159 C2155 1.400 . S
C2159 C2158 1.385 . S
C2160 C2158 1.478 . S
C2160 C2162 1.381 . S
C2160 C2166 1.383 . S
C2161 C2157 1.495 . S
C2161 H2167 0.959 . S
C2161 H2168 0.961 . S
C2161 H2169 0.960 . S
C2162 C2160 1.381 . S
C2162 C2163 1.394 . S
C2162 H2170 0.930 . S
C2163 C2162 1.394 . S
C2163 C2164 1.383 . S
C2163 H2171 0.929 . S
C2164 C2163 1.383 . S
C2164 C2165 1.377 . S
C2165 H2149 0.930 . S
C2165 C2164 1.377 . S
C2165 C2166 1.379 . S
C2166 H2150 0.931 . S
C2166 C2160 1.383 . S
C2166 C2165 1.379 . S
H2167 C2161 0.959 . S
H2168 C2161 0.961 . S
H2169 C2161 0.960 . S
H2170 C2162 0.930 . S
H2171 C2163 0.929 . S
H2172 C2180 0.929 . S
H2173 C2182 0.930 . S
H2174 C2184 0.930 . S
H2175 C2187 0.929 . S
H2176 C2190 0.930 . S
H2177 C2192 0.960 . S
H2178 C2192 0.960 . S
H2179 C2192 0.960 . S
C2180 H2172 0.929 . S
C2180 C2181 1.377 . S
C2180 C2182 1.384 . S
C2181 C2180 1.377 . S
C2181 C2187 1.390 . S
C2182 H2173 0.930 . S
C2182 C2180 1.384 . S
C2182 C2183 1.372 . S
C2183 C2182 1.372 . S
C2183 C2184 1.400 . S
C2183 C2188 1.490 . S
C2184 H2174 0.930 . S
C2184 C2183 1.400 . S
C2184 C2187 1.386 . S
H2185 C2201 0.930 . S
H2186 C2202 0.931 . S
C2187 H2175 0.929 . S
C2187 C2181 1.390 . S
C2187 C2184 1.386 . S
C2188 C2183 1.490 . S
C2188 C2190 1.395 . S
C2188 C2191 1.403 . S
H2189 C2195 0.930 . S
C2190 H2176 0.930 . S
C2190 C2188 1.395 . S
C2190 C2193 1.403 . S
C2191 C2188 1.403 . S
C2191 C2192 1.524 . S
C2191 C2195 1.400 . S
C2192 H2177 0.960 . S
C2192 H2178 0.960 . S
C2192 H2179 0.960 . S
C2192 C2191 1.524 . S
C2193 C2190 1.403 . S
C2193 C2194 1.392 . S
C2193 C2197 1.495 . S
C2194 C2193 1.392 . S
C2194 C2195 1.385 . S
C2194 C2196 1.478 . S
C2195 H2189 0.930 . S
C2195 C2191 1.400 . S
C2195 C2194 1.385 . S
C2196 C2194 1.478 . S
C2196 C2198 1.381 . S
C2196 C2202 1.383 . S
C2197 C2193 1.495 . S
C2197 H2203 0.959 . S
C2197 H2204 0.961 . S
C2197 H2205 0.960 . S
C2198 C2196 1.381 . S
C2198 C2199 1.394 . S
C2198 H2206 0.930 . S
C2199 C2198 1.394 . S
C2199 C2200 1.383 . S
C2199 H2207 0.929 . S
C2200 C2199 1.383 . S
C2200 C2201 1.377 . S
C2201 H2185 0.930 . S
C2201 C2200 1.377 . S
C2201 C2202 1.379 . S
C2202 H2186 0.931 . S
C2202 C2196 1.383 . S
C2202 C2201 1.379 . S
H2203 C2197 0.959 . S
H2204 C2197 0.961 . S
H2205 C2197 0.960 . S
H2206 C2198 0.930 . S
H2207 C2199 0.929 . S
H2208 C2216 0.929 . S
H2209 C2218 0.930 . S
H2210 C2220 0.930 . S
H2211 C2223 0.929 . S
H2212 C2226 0.930 . S
H2213 C2228 0.960 . S
H2214 C2228 0.960 . S
H2215 C2228 0.960 . S
C2216 H2208 0.929 . S
C2216 C2217 1.377 . S
C2216 C2218 1.384 . S
C2217 C2216 1.377 . S
C2217 C2223 1.390 . S
C2218 H2209 0.930 . S
C2218 C2216 1.384 . S
C2218 C2219 1.372 . S
C2219 C2218 1.372 . S
C2219 C2220 1.400 . S
C2219 C2224 1.490 . S
C2220 H2210 0.930 . S
C2220 C2219 1.400 . S
C2220 C2223 1.386 . S
H2221 C2237 0.930 . S
H2222 C2238 0.931 . S
C2223 H2211 0.929 . S
C2223 C2217 1.390 . S
C2223 C2220 1.386 . S
C2224 C2219 1.490 . S
C2224 C2226 1.395 . S
C2224 C2227 1.403 . S
H2225 C2231 0.930 . S
C2226 H2212 0.930 . S
C2226 C2224 1.395 . S
C2226 C2229 1.403 . S
C2227 C2224 1.403 . S
C2227 C2228 1.524 . S
C2227 C2231 1.400 . S
C2228 H2213 0.960 . S
C2228 H2214 0.960 . S
C2228 H2215 0.960 . S
C2228 C2227 1.524 . S
C2229 C2226 1.403 . S
C2229 C2230 1.392 . S
C2229 C2233 1.495 . S
C2230 C2229 1.392 . S
C2230 C2231 1.385 . S
C2230 C2232 1.478 . S
C2231 H2225 0.930 . S
C2231 C2227 1.400 . S
C2231 C2230 1.385 . S
C2232 C2230 1.478 . S
C2232 C2234 1.381 . S
C2232 C2238 1.383 . S
C2233 C2229 1.495 . S
C2233 H2239 0.959 . S
C2233 H2240 0.961 . S
C2233 H2241 0.960 . S
C2234 C2232 1.381 . S
C2234 C2235 1.394 . S
C2234 H2242 0.930 . S
C2235 C2234 1.394 . S
C2235 C2236 1.383 . S
C2235 H2243 0.929 . S
C2236 C2235 1.383 . S
C2236 C2237 1.377 . S
C2237 H2221 0.930 . S
C2237 C2236 1.377 . S
C2237 C2238 1.379 . S
C2238 H2222 0.931 . S
C2238 C2232 1.383 . S
C2238 C2237 1.379 . S
H2239 C2233 0.959 . S
H2240 C2233 0.961 . S
H2241 C2233 0.960 . S
H2242 C2234 0.930 . S
H2243 C2235 0.929 . S
H2244 C2252 0.929 . S
H2245 C2254 0.930 . S
H2246 C2256 0.930 . S
H2247 C2259 0.929 . S
H2248 C2262 0.930 . S
H2249 C2264 0.960 . S
H2250 C2264 0.960 . S
H2251 C2264 0.960 . S
C2252 H2244 0.929 . S
C2252 C2253 1.377 . S
C2252 C2254 1.384 . S
C2253 C2252 1.377 . S
C2253 C2259 1.390 . S
C2254 H2245 0.930 . S
C2254 C2252 1.384 . S
C2254 C2255 1.372 . S
C2255 C2254 1.372 . S
C2255 C2256 1.400 . S
C2255 C2260 1.490 . S
C2256 H2246 0.930 . S
C2256 C2255 1.400 . S
C2256 C2259 1.386 . S
H2257 C2273 0.930 . S
H2258 C2274 0.931 . S
C2259 H2247 0.929 . S
C2259 C2253 1.390 . S
C2259 C2256 1.386 . S
C2260 C2255 1.490 . S
C2260 C2262 1.395 . S
C2260 C2263 1.403 . S
H2261 C2267 0.930 . S
C2262 H2248 0.930 . S
C2262 C2260 1.395 . S
C2262 C2265 1.403 . S
C2263 C2260 1.403 . S
C2263 C2264 1.524 . S
C2263 C2267 1.400 . S
C2264 H2249 0.960 . S
C2264 H2250 0.960 . S
C2264 H2251 0.960 . S
C2264 C2263 1.524 . S
C2265 C2262 1.403 . S
C2265 C2266 1.392 . S
C2265 C2269 1.495 . S
C2266 C2265 1.392 . S
C2266 C2267 1.385 . S
C2266 C2268 1.478 . S
C2267 H2261 0.930 . S
C2267 C2263 1.400 . S
C2267 C2266 1.385 . S
C2268 C2266 1.478 . S
C2268 C2270 1.381 . S
C2268 C2274 1.383 . S
C2269 C2265 1.495 . S
C2269 H2275 0.959 . S
C2269 H2276 0.961 . S
C2269 H2277 0.960 . S
C2270 C2268 1.381 . S
C2270 C2271 1.394 . S
C2270 H2278 0.930 . S
C2271 C2270 1.394 . S
C2271 C2272 1.383 . S
C2271 H2279 0.929 . S
C2272 C2271 1.383 . S
C2272 C2273 1.377 . S
C2273 H2257 0.930 . S
C2273 C2272 1.377 . S
C2273 C2274 1.379 . S
C2274 H2258 0.931 . S
C2274 C2268 1.383 . S
C2274 C2273 1.379 . S
H2275 C2269 0.959 . S
H2276 C2269 0.961 . S
H2277 C2269 0.960 . S
H2278 C2270 0.930 . S
H2279 C2271 0.929 . S
H2280 C2288 0.929 . S
H2281 C2290 0.930 . S
H2282 C2292 0.930 . S
H2283 C2295 0.929 . S
H2284 C2298 0.930 . S
H2285 C2300 0.960 . S
H2286 C2300 0.960 . S
H2287 C2300 0.960 . S
C2288 H2280 0.929 . S
C2288 C2289 1.377 . S
C2288 C2290 1.384 . S
C2289 C2288 1.377 . S
C2289 C2295 1.390 . S
C2290 H2281 0.930 . S
C2290 C2288 1.384 . S
C2290 C2291 1.372 . S
C2291 C2290 1.372 . S
C2291 C2292 1.400 . S
C2291 C2296 1.490 . S
C2292 H2282 0.930 . S
C2292 C2291 1.400 . S
C2292 C2295 1.386 . S
H2293 C2309 0.930 1_556 S
H2294 C2310 0.931 . S
C2295 H2283 0.929 . S
C2295 C2289 1.390 . S
C2295 C2292 1.386 . S
C2296 C2291 1.490 . S
C2296 C2298 1.395 . S
C2296 C2299 1.403 . S
H2297 C2303 0.930 . S
C2298 H2284 0.930 . S
C2298 C2296 1.395 . S
C2298 C2301 1.403 . S
C2299 C2296 1.403 . S
C2299 C2300 1.524 . S
C2299 C2303 1.400 . S
C2300 H2285 0.960 . S
C2300 H2286 0.960 . S
C2300 H2287 0.960 . S
C2300 C2299 1.524 . S
C2301 C2298 1.403 . S
C2301 C2302 1.392 . S
C2301 C2305 1.495 . S
C2302 C2301 1.392 . S
C2302 C2303 1.385 . S
C2302 C2304 1.478 . S
C2303 H2297 0.930 . S
C2303 C2299 1.400 . S
C2303 C2302 1.385 . S
C2304 C2302 1.478 . S
C2304 C2306 1.381 . S
C2304 C2310 1.383 . S
C2305 C2301 1.495 . S
C2305 H2311 0.959 . S
C2305 H2312 0.961 . S
C2305 H2313 0.960 . S
C2306 C2304 1.381 . S
C2306 C2307 1.394 . S
C2306 H2314 0.930 . S
C2307 C2306 1.394 . S
C2307 C2308 1.383 1_554 S
C2307 H2315 0.929 . S
C2308 C2307 1.383 1_556 S
C2308 C2309 1.377 1_556 S
C2309 H2293 0.930 1_554 S
C2309 C2308 1.377 1_554 S
C2309 C2310 1.379 . S
C2310 H2294 0.931 . S
C2310 C2304 1.383 . S
C2310 C2309 1.379 . S
H2311 C2305 0.959 . S
H2312 C2305 0.961 . S
H2313 C2305 0.960 . S
H2314 C2306 0.930 . S
H2315 C2307 0.929 . S
H2316 C2324 0.929 . S
H2317 C2326 0.930 . S
H2318 C2328 0.930 . S
H2319 C2331 0.929 . S
H2320 C2334 0.930 . S
H2321 C2336 0.960 . S
H2322 C2336 0.960 . S
H2323 C2336 0.960 . S
C2324 H2316 0.929 . S
C2324 C2325 1.377 . S
C2324 C2326 1.384 . S
C2325 C2324 1.377 . S
C2325 C2331 1.390 . S
C2326 H2317 0.930 . S
C2326 C2324 1.384 . S
C2326 C2327 1.372 . S
C2327 C2326 1.372 . S
C2327 C2328 1.400 . S
C2327 C2332 1.490 . S
C2328 H2318 0.930 . S
C2328 C2327 1.400 . S
C2328 C2331 1.386 . S
H2329 C2345 0.930 . S
H2330 C2346 0.931 . S
C2331 H2319 0.929 . S
C2331 C2325 1.390 . S
C2331 C2328 1.386 . S
C2332 C2327 1.490 . S
C2332 C2334 1.395 . S
C2332 C2335 1.403 . S
H2333 C2339 0.930 . S
C2334 H2320 0.930 . S
C2334 C2332 1.395 . S
C2334 C2337 1.403 . S
C2335 C2332 1.403 . S
C2335 C2336 1.524 . S
C2335 C2339 1.400 . S
C2336 H2321 0.960 . S
C2336 H2322 0.960 . S
C2336 H2323 0.960 . S
C2336 C2335 1.524 . S
C2337 C2334 1.403 . S
C2337 C2338 1.392 . S
C2337 C2341 1.495 . S
C2338 C2337 1.392 . S
C2338 C2339 1.385 . S
C2338 C2340 1.478 . S
C2339 H2333 0.930 . S
C2339 C2335 1.400 . S
C2339 C2338 1.385 . S
C2340 C2338 1.478 . S
C2340 C2342 1.381 . S
C2340 C2346 1.383 . S
C2341 C2337 1.495 . S
C2341 H2347 0.959 . S
C2341 H2348 0.961 . S
C2341 H2349 0.960 . S
C2342 C2340 1.381 . S
C2342 C2343 1.394 . S
C2342 H2350 0.930 . S
C2343 C2342 1.394 . S
C2343 C2344 1.383 . S
C2343 H2351 0.929 . S
C2344 C2343 1.383 . S
C2344 C2345 1.377 . S
C2345 H2329 0.930 . S
C2345 C2344 1.377 . S
C2345 C2346 1.379 . S
C2346 H2330 0.931 . S
C2346 C2340 1.383 . S
C2346 C2345 1.379 . S
H2347 C2341 0.959 . S
H2348 C2341 0.961 . S
H2349 C2341 0.960 . S
H2350 C2342 0.930 . S
H2351 C2343 0.929 . S
H2352 C2360 0.940 . S
H2353 C2362 0.930 . S
H2354 C2364 0.930 . S
H2355 C2367 0.929 . S
H2356 C2370 0.930 . S
H2357 C2372 0.960 . S
H2358 C2372 0.960 . S
H2359 C2372 0.960 . S
C2360 H2352 0.940 . S
C2360 C2361 1.378 . S
C2360 C2362 1.373 1_554 S
C2361 C2360 1.378 . S
C2361 C2367 1.390 1_554 S
C2362 H2353 0.930 . S
C2362 C2360 1.373 1_556 S
C2362 C2363 1.372 . S
C2363 C2362 1.372 . S
C2363 C2364 1.400 . S
C2363 C2368 1.490 . S
C2364 H2354 0.930 . S
C2364 C2363 1.400 . S
C2364 C2367 1.386 . S
H2365 C2381 0.930 . S
H2366 C2382 0.931 . S
C2367 H2355 0.929 . S
C2367 C2361 1.390 1_556 S
C2367 C2364 1.386 . S
C2368 C2363 1.490 . S
C2368 C2370 1.395 . S
C2368 C2371 1.403 . S
H2369 C2375 0.930 . S
C2370 H2356 0.930 . S
C2370 C2368 1.395 . S
C2370 C2373 1.403 . S
C2371 C2368 1.403 . S
C2371 C2372 1.524 . S
C2371 C2375 1.400 . S
C2372 H2357 0.960 . S
C2372 H2358 0.960 . S
C2372 H2359 0.960 . S
C2372 C2371 1.524 . S
C2373 C2370 1.403 . S
C2373 C2374 1.392 . S
C2373 C2377 1.495 . S
C2374 C2373 1.392 . S
C2374 C2375 1.385 . S
C2374 C2376 1.478 . S
C2375 H2369 0.930 . S
C2375 C2371 1.400 . S
C2375 C2374 1.385 . S
C2376 C2374 1.478 . S
C2376 C2378 1.381 . S
C2376 C2382 1.383 . S
C2377 C2373 1.495 . S
C2377 H2383 0.959 . S
C2377 H2384 0.961 . S
C2377 H2385 0.960 . S
C2378 C2376 1.381 . S
C2378 C2379 1.394 . S
C2378 H2386 0.930 . S
C2379 C2378 1.394 . S
C2379 C2380 1.383 . S
C2379 H2387 0.929 . S
C2380 C2379 1.383 . S
C2380 C2381 1.377 . S
C2381 H2365 0.930 . S
C2381 C2380 1.377 . S
C2381 C2382 1.379 . S
C2382 H2366 0.931 . S
C2382 C2376 1.383 . S
C2382 C2381 1.379 . S
H2383 C2377 0.959 . S
H2384 C2377 0.961 . S
H2385 C2377 0.960 . S
H2386 C2378 0.930 . S
H2387 C2379 0.929 . S
H2388 C2396 0.929 . S
H2389 C2398 0.930 . S
H2390 C2400 0.930 . S
H2391 C2403 0.929 . S
H2392 C2406 0.930 . S
H2393 C2408 0.960 . S
H2394 C2408 0.960 . S
H2395 C2408 0.960 . S
C2396 H2388 0.929 . S
C2396 C2397 1.377 . S
C2396 C2398 1.384 . S
C2397 C2396 1.377 . S
C2397 C2403 1.390 . S
C2398 H2389 0.930 . S
C2398 C2396 1.384 . S
C2398 C2399 1.372 . S
C2399 C2398 1.372 . S
C2399 C2400 1.400 . S
C2399 C2404 1.490 . S
C2400 H2390 0.930 . S
C2400 C2399 1.400 . S
C2400 C2403 1.386 . S
H2401 C2417 0.930 . S
H2402 C2418 0.931 . S
C2403 H2391 0.929 . S
C2403 C2397 1.390 . S
C2403 C2400 1.386 . S
C2404 C2399 1.490 . S
C2404 C2406 1.395 . S
C2404 C2407 1.403 . S
H2405 C2411 0.930 . S
C2406 H2392 0.930 . S
C2406 C2404 1.395 . S
C2406 C2409 1.403 . S
C2407 C2404 1.403 . S
C2407 C2408 1.524 . S
C2407 C2411 1.400 . S
C2408 H2393 0.960 . S
C2408 H2394 0.960 . S
C2408 H2395 0.960 . S
C2408 C2407 1.524 . S
C2409 C2406 1.403 . S
C2409 C2410 1.392 . S
C2409 C2413 1.495 . S
C2410 C2409 1.392 . S
C2410 C2411 1.385 . S
C2410 C2412 1.478 . S
C2411 H2405 0.930 . S
C2411 C2407 1.400 . S
C2411 C2410 1.385 . S
C2412 C2410 1.478 . S
C2412 C2414 1.381 . S
C2412 C2418 1.383 . S
C2413 C2409 1.495 . S
C2413 H2419 0.959 . S
C2413 H2420 0.961 . S
C2413 H2421 0.960 . S
C2414 C2412 1.381 . S
C2414 C2415 1.394 . S
C2414 H2422 0.930 . S
C2415 C2414 1.394 . S
C2415 C2416 1.383 . S
C2415 H2423 0.929 . S
C2416 C2415 1.383 . S
C2416 C2417 1.377 . S
C2417 H2401 0.930 . S
C2417 C2416 1.377 . S
C2417 C2418 1.379 . S
C2418 H2402 0.931 . S
C2418 C2412 1.383 . S
C2418 C2417 1.379 . S
H2419 C2413 0.959 . S
H2420 C2413 0.961 . S
H2421 C2413 0.960 . S
H2422 C2414 0.930 . S
H2423 C2415 0.929 . S
H2424 C2432 0.929 . S
H2425 C2434 0.930 . S
H2426 C2436 0.930 . S
H2427 C2439 0.929 1_545 S
H2428 C2442 0.930 . S
H2429 C2444 0.960 . S
H2430 C2444 0.960 . S
H2431 C2444 0.960 . S
C2432 H2424 0.929 . S
C2432 C2433 1.377 . S
C2432 C2434 1.384 . S
C2433 C2432 1.377 . S
C2433 C2439 1.390 . S
C2434 H2425 0.930 . S
C2434 C2432 1.384 . S
C2434 C2435 1.372 . S
C2435 C2434 1.372 . S
C2435 C2436 1.400 . S
C2435 C2440 1.490 . S
C2436 H2426 0.930 . S
C2436 C2435 1.400 . S
C2436 C2439 1.386 . S
H2437 C2453 0.930 1_655 S
H2438 C2454 0.931 . S
C2439 H2427 0.929 1_565 S
C2439 C2433 1.390 . S
C2439 C2436 1.386 . S
C2440 C2435 1.490 . S
C2440 C2442 1.395 . S
C2440 C2443 1.403 . S
H2441 C2447 0.930 . S
C2442 H2428 0.930 . S
C2442 C2440 1.395 . S
C2442 C2445 1.403 . S
C2443 C2440 1.403 . S
C2443 C2444 1.524 . S
C2443 C2447 1.400 . S
C2444 H2429 0.960 . S
C2444 H2430 0.960 . S
C2444 H2431 0.960 . S
C2444 C2443 1.524 . S
C2445 C2442 1.403 . S
C2445 C2446 1.392 . S
C2445 C2449 1.495 . S
C2446 C2445 1.392 . S
C2446 C2447 1.385 . S
C2446 C2448 1.478 . S
C2447 H2441 0.930 . S
C2447 C2443 1.400 . S
C2447 C2446 1.385 . S
C2448 C2446 1.478 . S
C2448 C2450 1.381 . S
C2448 C2454 1.383 . S
C2449 C2445 1.495 . S
C2449 H2455 0.959 . S
C2449 H2456 0.961 . S
C2449 H2457 0.960 . S
C2450 C2448 1.381 . S
C2450 C2451 1.394 . S
C2450 H2458 0.930 . S
C2451 C2450 1.394 . S
C2451 C2452 1.359 1_455 S
C2451 H2459 0.929 . S
C2452 C2451 1.359 1_655 S
C2452 C2453 1.367 1_655 S
C2453 H2437 0.930 1_455 S
C2453 C2452 1.367 1_455 S
C2453 C2454 1.379 . S
C2454 H2438 0.931 . S
C2454 C2448 1.383 . S
C2454 C2453 1.379 . S
H2455 C2449 0.959 . S
H2456 C2449 0.961 . S
H2457 C2449 0.960 . S
H2458 C2450 0.930 . S
H2459 C2451 0.929 . S
H2460 C2468 0.929 . S
H2461 C2470 0.930 . S
H2462 C2472 0.930 . S
H2463 C2475 0.929 . S
H2464 C2478 0.930 . S
H2465 C2480 0.960 . S
H2466 C2480 0.960 . S
H2467 C2480 0.960 . S
C2468 H2460 0.929 . S
C2468 C2469 1.377 . S
C2468 C2470 1.384 . S
C2469 C2468 1.377 . S
C2469 C2475 1.390 . S
C2470 H2461 0.930 . S
C2470 C2468 1.384 . S
C2470 C2471 1.372 . S
C2471 C2470 1.372 . S
C2471 C2472 1.400 . S
C2471 C2476 1.490 . S
C2472 H2462 0.930 . S
C2472 C2471 1.400 . S
C2472 C2475 1.386 . S
H2473 C2489 0.930 . S
H2474 C2490 0.931 . S
C2475 H2463 0.929 . S
C2475 C2469 1.390 . S
C2475 C2472 1.386 . S
C2476 C2471 1.490 . S
C2476 C2478 1.395 . S
C2476 C2479 1.403 . S
H2477 C2483 0.930 . S
C2478 H2464 0.930 . S
C2478 C2476 1.395 . S
C2478 C2481 1.403 . S
C2479 C2476 1.403 . S
C2479 C2480 1.524 . S
C2479 C2483 1.400 . S
C2480 H2465 0.960 . S
C2480 H2466 0.960 . S
C2480 H2467 0.960 . S
C2480 C2479 1.524 . S
C2481 C2478 1.403 . S
C2481 C2482 1.392 . S
C2481 C2485 1.495 . S
C2482 C2481 1.392 . S
C2482 C2483 1.385 . S
C2482 C2484 1.478 . S
C2483 H2477 0.930 . S
C2483 C2479 1.400 . S
C2483 C2482 1.385 . S
C2484 C2482 1.478 . S
C2484 C2486 1.381 . S
C2484 C2490 1.383 . S
C2485 C2481 1.495 . S
C2485 H2491 0.959 . S
C2485 H2492 0.961 . S
C2485 H2493 0.944 1_545 S
C2486 C2484 1.381 . S
C2486 C2487 1.378 1_545 S
C2486 H2494 0.930 . S
C2487 C2486 1.378 1_565 S
C2487 C2488 1.369 1_565 S
C2487 H2495 0.961 . S
C2488 C2487 1.369 1_545 S
C2488 C2489 1.377 . S
C2489 H2473 0.930 . S
C2489 C2488 1.377 . S
C2489 C2490 1.379 . S
C2490 H2474 0.931 . S
C2490 C2484 1.383 . S
C2490 C2489 1.379 . S
H2491 C2485 0.959 . S
H2492 C2485 0.961 . S
H2493 C2485 0.944 1_565 S
H2494 C2486 0.930 . S
H2495 C2487 0.961 . S
H2496 C2504 0.929 . S
H2497 C2506 0.930 . S
H2498 C2508 0.930 . S
H2499 C2511 0.929 . S
H2500 C2514 0.930 . S
H2501 C2516 0.960 . S
H2502 C2516 0.960 . S
H2503 C2516 0.960 . S
C2504 H2496 0.929 . S
C2504 C2505 1.377 . S
C2504 C2506 1.384 . S
C2505 C2504 1.377 . S
C2505 C2511 1.390 . S
C2506 H2497 0.930 . S
C2506 C2504 1.384 . S
C2506 C2507 1.372 . S
C2507 C2506 1.372 . S
C2507 C2508 1.400 . S
C2507 C2512 1.490 . S
C2508 H2498 0.930 . S
C2508 C2507 1.400 . S
C2508 C2511 1.386 . S
H2509 C2525 0.930 . S
H2510 C2526 0.931 . S
C2511 H2499 0.929 . S
C2511 C2505 1.390 . S
C2511 C2508 1.386 . S
C2512 C2507 1.490 . S
C2512 C2514 1.395 . S
C2512 C2515 1.403 . S
H2513 C2519 0.930 . S
C2514 H2500 0.930 . S
C2514 C2512 1.395 . S
C2514 C2517 1.403 . S
C2515 C2512 1.403 . S
C2515 C2516 1.524 . S
C2515 C2519 1.400 . S
C2516 H2501 0.960 . S
C2516 H2502 0.960 . S
C2516 H2503 0.960 . S
C2516 C2515 1.524 . S
C2517 C2514 1.403 . S
C2517 C2518 1.392 . S
C2517 C2521 1.495 . S
C2518 C2517 1.392 . S
C2518 C2519 1.385 . S
C2518 C2520 1.478 . S
C2519 H2513 0.930 . S
C2519 C2515 1.400 . S
C2519 C2518 1.385 . S
C2520 C2518 1.478 . S
C2520 C2522 1.381 . S
C2520 C2526 1.383 . S
C2521 C2517 1.495 . S
C2521 H2527 0.959 . S
C2521 H2528 0.961 . S
C2521 H2529 0.960 . S
C2522 C2520 1.381 . S
C2522 C2523 1.394 . S
C2522 H2530 0.930 . S
C2523 C2522 1.394 . S
C2523 C2524 1.383 . S
C2523 H2531 0.929 . S
C2524 C2523 1.383 . S
C2524 C2525 1.377 . S
C2525 H2509 0.930 . S
C2525 C2524 1.377 . S
C2525 C2526 1.379 . S
C2526 H2510 0.931 . S
C2526 C2520 1.383 . S
C2526 C2525 1.379 . S
H2527 C2521 0.959 . S
H2528 C2521 0.961 . S
H2529 C2521 0.960 . S
H2530 C2522 0.930 . S
H2531 C2523 0.929 . S
H2532 C2540 0.929 1_455 S
H2533 C2542 0.930 . S
H2534 C2544 0.930 . S
H2535 C2547 0.929 . S
H2536 C2550 0.930 . S
H2537 C2552 0.960 . S
H2538 C2552 0.960 . S
H2539 C2552 0.960 . S
C2540 H2532 0.929 1_655 S
C2540 C2541 1.377 1_655 S
C2540 C2542 1.384 . S
C2541 C2540 1.377 1_455 S
C2541 C2547 1.390 1_455 S
C2542 H2533 0.930 . S
C2542 C2540 1.384 . S
C2542 C2543 1.372 . S
C2543 C2542 1.372 . S
C2543 C2544 1.400 . S
C2543 C2548 1.490 . S
C2544 H2534 0.930 . S
C2544 C2543 1.400 . S
C2544 C2547 1.386 . S
H2545 C2561 0.930 . S
H2546 C2562 0.931 . S
C2547 H2535 0.929 . S
C2547 C2541 1.390 1_655 S
C2547 C2544 1.386 . S
C2548 C2543 1.490 . S
C2548 C2550 1.395 . S
C2548 C2551 1.403 . S
H2549 C2555 0.930 . S
C2550 H2536 0.930 . S
C2550 C2548 1.395 . S
C2550 C2553 1.403 . S
C2551 C2548 1.403 . S
C2551 C2552 1.524 . S
C2551 C2555 1.400 . S
C2552 H2537 0.960 . S
C2552 H2538 0.960 . S
C2552 H2539 0.960 . S
C2552 C2551 1.524 . S
C2553 C2550 1.403 . S
C2553 C2554 1.392 . S
C2553 C2557 1.495 . S
C2554 C2553 1.392 . S
C2554 C2555 1.385 . S
C2554 C2556 1.478 . S
C2555 H2549 0.930 . S
C2555 C2551 1.400 . S
C2555 C2554 1.385 . S
C2556 C2554 1.478 . S
C2556 C2558 1.381 . S
C2556 C2562 1.383 . S
C2557 C2553 1.495 . S
C2557 H2563 0.959 . S
C2557 H2564 0.961 . S
C2557 H2565 0.960 . S
C2558 C2556 1.381 . S
C2558 C2559 1.394 . S
C2558 H2566 0.930 . S
C2559 C2558 1.394 . S
C2559 C2560 1.383 . S
C2559 H2567 0.929 . S
C2560 C2559 1.383 . S
C2560 C2561 1.377 . S
C2561 H2545 0.930 . S
C2561 C2560 1.377 . S
C2561 C2562 1.379 . S
C2562 H2546 0.931 . S
C2562 C2556 1.383 . S
C2562 C2561 1.379 . S
H2563 C2557 0.959 . S
H2564 C2557 0.961 . S
H2565 C2557 0.960 . S
H2566 C2558 0.930 . S
H2567 C2559 0.929 . S
H2568 C2576 0.929 . S
H2569 C2578 0.930 . S
H2570 C2580 0.930 . S
H2571 C2583 0.929 . S
H2572 C2586 0.930 . S
H2573 C2588 0.960 . S
H2574 C2588 0.960 . S
H2575 C2588 0.960 . S
C2576 H2568 0.929 . S
C2576 C2577 1.377 . S
C2576 C2578 1.384 . S
C2577 C2576 1.377 . S
C2577 C2583 1.390 . S
C2578 H2569 0.930 . S
C2578 C2576 1.384 . S
C2578 C2579 1.372 . S
C2579 C2578 1.372 . S
C2579 C2580 1.400 . S
C2579 C2584 1.490 . S
C2580 H2570 0.930 . S
C2580 C2579 1.400 . S
C2580 C2583 1.386 . S
H2581 C2597 0.947 . S
H2582 C2598 0.931 . S
C2583 H2571 0.929 . S
C2583 C2577 1.390 . S
C2583 C2580 1.386 . S
C2584 C2579 1.490 . S
C2584 C2586 1.395 . S
C2584 C2587 1.403 . S
H2585 C2591 0.930 . S
C2586 H2572 0.930 . S
C2586 C2584 1.395 . S
C2586 C2589 1.403 . S
C2587 C2584 1.403 . S
C2587 C2588 1.524 . S
C2587 C2591 1.400 . S
C2588 H2573 0.960 . S
C2588 H2574 0.960 . S
C2588 H2575 0.960 . S
C2588 C2587 1.524 . S
C2589 C2586 1.403 . S
C2589 C2590 1.392 . S
C2589 C2593 1.495 . S
C2590 C2589 1.392 . S
C2590 C2591 1.385 . S
C2590 C2592 1.478 . S
C2591 H2585 0.930 . S
C2591 C2587 1.400 . S
C2591 C2590 1.385 . S
C2592 C2590 1.478 . S
C2592 C2594 1.381 . S
C2592 C2598 1.383 . S
C2593 C2589 1.495 . S
C2593 H2599 0.959 . S
C2593 H2600 0.961 . S
C2593 H2601 0.960 . S
C2594 C2592 1.381 . S
C2594 C2595 1.394 . S
C2594 H2602 0.930 . S
C2595 C2594 1.394 . S
C2595 C2596 1.383 1_545 S
C2595 H2603 0.929 . S
C2596 C2595 1.383 1_565 S
C2596 C2597 1.377 1_565 S
C2597 H2581 0.947 . S
C2597 C2596 1.377 1_545 S
C2597 C2598 1.379 . S
C2598 H2582 0.931 . S
C2598 C2592 1.383 . S
C2598 C2597 1.379 . S
H2599 C2593 0.959 . S
H2600 C2593 0.961 . S
H2601 C2593 0.960 . S
H2602 C2594 0.930 . S
H2603 C2595 0.929 . S
H2604 C2612 0.929 . S
H2605 C2614 0.930 . S
H2606 C2616 0.930 . S
H2607 C2619 0.981 . S
H2608 C2622 0.930 . S
H2609 C2624 0.960 . S
H2610 C2624 0.960 . S
H2611 C2624 0.960 . S
C2612 H2604 0.929 . S
C2612 C2613 1.377 . S
C2612 C2614 1.384 . S
C2613 C2612 1.377 . S
C2613 C2619 1.366 1_554 S
C2614 H2605 0.930 . S
C2614 C2612 1.384 . S
C2614 C2615 1.372 . S
C2615 C2614 1.372 . S
C2615 C2616 1.400 . S
C2615 C2620 1.490 . S
C2616 H2606 0.930 . S
C2616 C2615 1.400 . S
C2616 C2619 1.359 1_554 S
H2617 C2633 0.930 . S
H2618 C2634 0.931 . S
C2619 H2607 0.981 . S
C2619 C2613 1.366 1_556 S
C2619 C2616 1.359 1_556 S
C2620 C2615 1.490 . S
C2620 C2622 1.395 . S
C2620 C2623 1.403 . S
H2621 C2627 0.930 . S
C2622 H2608 0.930 . S
C2622 C2620 1.395 . S
C2622 C2625 1.403 . S
C2623 C2620 1.403 . S
C2623 C2624 1.524 . S
C2623 C2627 1.400 . S
C2624 H2609 0.960 . S
C2624 H2610 0.960 . S
C2624 H2611 0.960 . S
C2624 C2623 1.524 . S
C2625 C2622 1.403 . S
C2625 C2626 1.392 . S
C2625 C2629 1.495 . S
C2626 C2625 1.392 . S
C2626 C2627 1.385 . S
C2626 C2628 1.478 . S
C2627 H2621 0.930 . S
C2627 C2623 1.400 . S
C2627 C2626 1.385 . S
C2628 C2626 1.478 . S
C2628 C2630 1.381 . S
C2628 C2634 1.383 . S
C2629 C2625 1.495 . S
C2629 H2635 0.959 . S
C2629 H2636 0.961 . S
C2629 H2637 0.960 . S
C2630 C2628 1.381 . S
C2630 C2631 1.394 . S
C2630 H2638 0.930 . S
C2631 C2630 1.394 . S
C2631 C2632 1.383 . S
C2631 H2639 0.929 . S
C2632 C2631 1.383 . S
C2632 C2633 1.377 . S
C2633 H2617 0.930 . S
C2633 C2632 1.377 . S
C2633 C2634 1.379 . S
C2634 H2618 0.931 . S
C2634 C2628 1.383 . S
C2634 C2633 1.379 . S
H2635 C2629 0.959 . S
H2636 C2629 0.961 . S
H2637 C2629 0.960 . S
H2638 C2630 0.930 . S
H2639 C2631 0.929 . S
H2640 C2648 0.929 . S
H2641 C2650 0.930 . S
H2642 C2652 0.930 . S
H2643 C2655 0.929 . S
H2644 C2658 0.930 . S
H2645 C2660 0.960 . S
H2646 C2660 0.960 . S
H2647 C2660 0.960 . S
C2648 H2640 0.929 . S
C2648 C2649 1.377 . S
C2648 C2650 1.384 . S
C2649 C2648 1.377 . S
C2649 C2655 1.390 . S
C2650 H2641 0.930 . S
C2650 C2648 1.384 . S
C2650 C2651 1.372 . S
C2651 C2650 1.372 . S
C2651 C2652 1.400 . S
C2651 C2656 1.490 . S
C2652 H2642 0.930 . S
C2652 C2651 1.400 . S
C2652 C2655 1.386 . S
H2653 C2669 0.930 . S
H2654 C2670 0.931 . S
C2655 H2643 0.929 . S
C2655 C2649 1.390 . S
C2655 C2652 1.386 . S
C2656 C2651 1.490 . S
C2656 C2658 1.395 . S
C2656 C2659 1.403 . S
H2657 C2663 0.930 . S
C2658 H2644 0.930 . S
C2658 C2656 1.395 . S
C2658 C2661 1.403 . S
C2659 C2656 1.403 . S
C2659 C2660 1.524 . S
C2659 C2663 1.400 . S
C2660 H2645 0.960 . S
C2660 H2646 0.960 . S
C2660 H2647 0.960 . S
C2660 C2659 1.524 . S
C2661 C2658 1.403 . S
C2661 C2662 1.392 . S
C2661 C2665 1.495 . S
C2662 C2661 1.392 . S
C2662 C2663 1.385 . S
C2662 C2664 1.478 . S
C2663 H2657 0.930 . S
C2663 C2659 1.400 . S
C2663 C2662 1.385 . S
C2664 C2662 1.478 . S
C2664 C2666 1.381 . S
C2664 C2670 1.383 . S
C2665 C2661 1.495 . S
C2665 H2671 0.959 . S
C2665 H2672 0.961 . S
C2665 H2673 0.960 . S
C2666 C2664 1.381 . S
C2666 C2667 1.394 . S
C2666 H2674 0.930 . S
C2667 C2666 1.394 . S
C2667 C2668 1.383 . S
C2667 H2675 0.929 . S
C2668 C2667 1.383 . S
C2668 C2669 1.377 . S
C2669 H2653 0.930 . S
C2669 C2668 1.377 . S
C2669 C2670 1.379 . S
C2670 H2654 0.931 . S
C2670 C2664 1.383 . S
C2670 C2669 1.379 . S
H2671 C2665 0.959 . S
H2672 C2665 0.961 . S
H2673 C2665 0.960 . S
H2674 C2666 0.930 . S
H2675 C2667 0.929 . S
H2676 C2684 0.929 . S
H2677 C2686 0.930 . S
H2678 C2688 0.930 . S
H2679 C2691 0.929 . S
H2680 C2694 0.930 . S
H2681 C2696 0.960 . S
H2682 C2696 0.960 . S
H2683 C2696 0.960 . S
C2684 H2676 0.929 . S
C2684 C2685 1.377 . S
C2684 C2686 1.384 . S
C2685 C2684 1.377 . S
C2685 C2691 1.390 . S
C2686 H2677 0.930 . S
C2686 C2684 1.384 . S
C2686 C2687 1.372 . S
C2687 C2686 1.372 . S
C2687 C2688 1.400 . S
C2687 C2692 1.490 . S
C2688 H2678 0.930 . S
C2688 C2687 1.400 . S
C2688 C2691 1.386 . S
H2689 C2705 0.930 1_545 S
H2690 C2706 0.931 . S
C2691 H2679 0.929 . S
C2691 C2685 1.390 . S
C2691 C2688 1.386 . S
C2692 C2687 1.490 . S
C2692 C2694 1.395 . S
C2692 C2695 1.403 . S
H2693 C2699 0.930 . S
C2694 H2680 0.930 . S
C2694 C2692 1.395 . S
C2694 C2697 1.403 . S
C2695 C2692 1.403 . S
C2695 C2696 1.524 . S
C2695 C2699 1.400 . S
C2696 H2681 0.960 . S
C2696 H2682 0.960 . S
C2696 H2683 0.960 . S
C2696 C2695 1.524 . S
C2697 C2694 1.403 . S
C2697 C2698 1.392 . S
C2697 C2701 1.495 . S
C2698 C2697 1.392 . S
C2698 C2699 1.385 . S
C2698 C2700 1.478 . S
C2699 H2693 0.930 . S
C2699 C2695 1.400 . S
C2699 C2698 1.385 . S
C2700 C2698 1.478 . S
C2700 C2702 1.381 . S
C2700 C2706 1.383 . S
C2701 C2697 1.495 . S
C2701 H2707 0.959 . S
C2701 H2708 0.961 . S
C2701 H2709 0.960 . S
C2702 C2700 1.381 . S
C2702 C2703 1.394 . S
C2702 H2710 0.930 . S
C2703 C2702 1.394 . S
C2703 C2704 1.383 1_565 S
C2703 H2711 0.929 . S
C2704 C2703 1.383 1_545 S
C2704 C2705 1.377 1_545 S
C2705 H2689 0.930 1_565 S
C2705 C2704 1.377 1_565 S
C2705 C2706 1.379 . S
C2706 H2690 0.931 . S
C2706 C2700 1.383 . S
C2706 C2705 1.379 . S
H2707 C2701 0.959 . S
H2708 C2701 0.961 . S
H2709 C2701 0.960 . S
H2710 C2702 0.930 . S
H2711 C2703 0.929 . S
H2712 C2720 0.929 . S
H2713 C2722 0.930 . S
H2714 C2724 0.930 . S
H2715 C2727 0.929 1_655 S
H2716 C2730 0.930 . S
H2717 C2732 0.960 . S
H2718 C2732 0.960 . S
H2719 C2732 0.960 . S
C2720 H2712 0.929 . S
C2720 C2721 1.377 . S
C2720 C2722 1.384 . S
C2721 C2720 1.377 . S
C2721 C2727 1.390 . S
C2722 H2713 0.930 . S
C2722 C2720 1.384 . S
C2722 C2723 1.372 . S
C2723 C2722 1.372 . S
C2723 C2724 1.400 . S
C2723 C2728 1.490 . S
C2724 H2714 0.930 . S
C2724 C2723 1.400 . S
C2724 C2727 1.386 . S
H2725 C2741 0.930 1_554 S
H2726 C2742 0.931 . S
C2727 H2715 0.929 1_455 S
C2727 C2721 1.390 . S
C2727 C2724 1.386 . S
C2728 C2723 1.490 . S
C2728 C2730 1.395 . S
C2728 C2731 1.403 . S
H2729 C2735 0.930 . S
C2730 H2716 0.930 . S
C2730 C2728 1.395 . S
C2730 C2733 1.403 . S
C2731 C2728 1.403 . S
C2731 C2732 1.524 . S
C2731 C2735 1.400 . S
C2732 H2717 0.960 . S
C2732 H2718 0.960 . S
C2732 H2719 0.960 . S
C2732 C2731 1.524 . S
C2733 C2730 1.403 . S
C2733 C2734 1.392 . S
C2733 C2737 1.495 . S
C2734 C2733 1.392 . S
C2734 C2735 1.385 . S
C2734 C2736 1.478 . S
C2735 H2729 0.930 . S
C2735 C2731 1.400 . S
C2735 C2734 1.385 . S
C2736 C2734 1.478 . S
C2736 C2738 1.381 . S
C2736 C2742 1.383 . S
C2737 C2733 1.495 . S
C2737 H2743 0.959 . S
C2737 H2744 0.961 . S
C2737 H2745 0.960 . S
C2738 C2736 1.381 . S
C2738 C2739 1.394 . S
C2738 H2746 0.930 . S
C2739 C2738 1.394 . S
C2739 C2740 1.351 1_556 S
C2739 H2747 0.929 . S
C2740 C2739 1.351 1_554 S
C2740 C2741 1.370 1_554 S
C2741 H2725 0.930 1_556 S
C2741 C2740 1.370 1_556 S
C2741 C2742 1.379 . S
C2742 H2726 0.931 . S
C2742 C2736 1.383 . S
C2742 C2741 1.379 . S
H2743 C2737 0.959 . S
H2744 C2737 0.961 . S
H2745 C2737 0.960 . S
H2746 C2738 0.930 . S
H2747 C2739 0.929 . S
H2748 C2756 0.929 . S
H2749 C2758 0.930 . S
H2750 C2760 0.930 . S
H2751 C2763 0.929 . S
H2752 C2766 0.930 . S
H2753 C2768 0.960 . S
H2754 C2768 0.960 . S
H2755 C2768 0.960 . S
C2756 H2748 0.929 . S
C2756 C2757 1.377 . S
C2756 C2758 1.384 . S
C2757 C2756 1.377 . S
C2757 C2763 1.390 . S
C2758 H2749 0.930 . S
C2758 C2756 1.384 . S
C2758 C2759 1.372 . S
C2759 C2758 1.372 . S
C2759 C2760 1.400 . S
C2759 C2764 1.490 . S
C2760 H2750 0.930 . S
C2760 C2759 1.400 . S
C2760 C2763 1.386 . S
H2761 C2777 0.930 . S
H2762 C2778 0.931 . S
C2763 H2751 0.929 . S
C2763 C2757 1.390 . S
C2763 C2760 1.386 . S
C2764 C2759 1.490 . S
C2764 C2766 1.395 . S
C2764 C2767 1.403 . S
H2765 C2771 0.930 . S
C2766 H2752 0.930 . S
C2766 C2764 1.395 . S
C2766 C2769 1.403 . S
C2767 C2764 1.403 . S
C2767 C2768 1.524 . S
C2767 C2771 1.400 . S
C2768 H2753 0.960 . S
C2768 H2754 0.960 . S
C2768 H2755 0.960 . S
C2768 C2767 1.524 . S
C2769 C2766 1.403 . S
C2769 C2770 1.392 . S
C2769 C2773 1.495 . S
C2770 C2769 1.392 . S
C2770 C2771 1.385 . S
C2770 C2772 1.478 . S
C2771 H2765 0.930 . S
C2771 C2767 1.400 . S
C2771 C2770 1.385 . S
C2772 C2770 1.478 . S
C2772 C2774 1.381 . S
C2772 C2778 1.383 . S
C2773 C2769 1.495 . S
C2773 H2779 0.959 . S
C2773 H2780 0.961 . S
C2773 H2781 0.960 . S
C2774 C2772 1.381 . S
C2774 C2775 1.394 . S
C2774 H2782 0.930 . S
C2775 C2774 1.394 . S
C2775 C2776 1.383 . S
C2775 H2783 0.929 . S
C2776 C2775 1.383 . S
C2776 C2777 1.377 . S
C2777 H2761 0.930 . S
C2777 C2776 1.377 . S
C2777 C2778 1.379 . S
C2778 H2762 0.931 . S
C2778 C2772 1.383 . S
C2778 C2777 1.379 . S
H2779 C2773 0.959 . S
H2780 C2773 0.961 . S
H2781 C2773 0.960 . S
H2782 C2774 0.930 . S
H2783 C2775 0.929 . S
H2784 C2792 0.929 1_556 S
H2785 C2794 0.930 . S
H2786 C2796 0.930 . S
H2787 C2799 0.929 . S
H2788 C2802 0.930 . S
H2789 C2804 0.960 . S
H2790 C2804 0.960 . S
H2791 C2804 0.960 . S
C2792 H2784 0.929 1_554 S
C2792 C2793 1.377 1_554 S
C2792 C2794 1.384 . S
C2793 C2792 1.377 1_556 S
C2793 C2799 1.390 1_556 S
C2794 H2785 0.930 . S
C2794 C2792 1.384 . S
C2794 C2795 1.372 . S
C2795 C2794 1.372 . S
C2795 C2796 1.400 . S
C2795 C2800 1.490 . S
C2796 H2786 0.930 . S
C2796 C2795 1.400 . S
C2796 C2799 1.386 . S
H2797 C2813 0.930 . S
H2798 C2814 0.931 . S
C2799 H2787 0.929 . S
C2799 C2793 1.390 1_554 S
C2799 C2796 1.386 . S
C2800 C2795 1.490 . S
C2800 C2802 1.395 . S
C2800 C2803 1.403 . S
H2801 C2807 0.930 . S
C2802 H2788 0.930 . S
C2802 C2800 1.395 . S
C2802 C2805 1.403 . S
C2803 C2800 1.403 . S
C2803 C2804 1.524 . S
C2803 C2807 1.400 . S
C2804 H2789 0.960 . S
C2804 H2790 0.960 . S
C2804 H2791 0.960 . S
C2804 C2803 1.524 . S
C2805 C2802 1.403 . S
C2805 C2806 1.392 . S
C2805 C2809 1.495 . S
C2806 C2805 1.392 . S
C2806 C2807 1.385 . S
C2806 C2808 1.478 . S
C2807 H2801 0.930 . S
C2807 C2803 1.400 . S
C2807 C2806 1.385 . S
C2808 C2806 1.478 . S
C2808 C2810 1.381 . S
C2808 C2814 1.383 . S
C2809 C2805 1.495 . S
C2809 H2815 0.959 . S
C2809 H2816 0.961 . S
C2809 H2817 0.960 . S
C2810 C2808 1.381 . S
C2810 C2811 1.394 . S
C2810 H2818 0.930 . S
C2811 C2810 1.394 . S
C2811 C2812 1.383 . S
C2811 H2819 0.929 . S
C2812 C2811 1.383 . S
C2812 C2813 1.377 . S
C2813 H2797 0.930 . S
C2813 C2812 1.377 . S
C2813 C2814 1.379 . S
C2814 H2798 0.931 . S
C2814 C2808 1.383 . S
C2814 C2813 1.379 . S
H2815 C2809 0.959 . S
H2816 C2809 0.961 . S
H2817 C2809 0.960 . S
H2818 C2810 0.930 . S
H2819 C2811 0.929 . S
H2820 C2828 0.929 . S
H2821 C2830 0.930 . S
H2822 C2832 0.930 . S
H2823 C2835 0.929 . S
H2824 C2838 0.930 . S
H2825 C2840 0.960 . S
H2826 C2840 0.960 . S
H2827 C2840 0.960 . S
C2828 H2820 0.929 . S
C2828 C2829 1.377 . S
C2828 C2830 1.384 . S
C2829 C2828 1.377 . S
C2829 C2835 1.390 . S
C2830 H2821 0.930 . S
C2830 C2828 1.384 . S
C2830 C2831 1.372 . S
C2831 C2830 1.372 . S
C2831 C2832 1.400 . S
C2831 C2836 1.490 . S
C2832 H2822 0.930 . S
C2832 C2831 1.400 . S
C2832 C2835 1.386 . S
H2833 C2849 0.930 . S
H2834 C2850 0.931 . S
C2835 H2823 0.929 . S
C2835 C2829 1.390 . S
C2835 C2832 1.386 . S
C2836 C2831 1.490 . S
C2836 C2838 1.395 . S
C2836 C2839 1.403 . S
H2837 C2843 0.930 . S
C2838 H2824 0.930 . S
C2838 C2836 1.395 . S
C2838 C2841 1.403 . S
C2839 C2836 1.403 . S
C2839 C2840 1.524 . S
C2839 C2843 1.400 . S
C2840 H2825 0.960 . S
C2840 H2826 0.960 . S
C2840 H2827 0.960 . S
C2840 C2839 1.524 . S
C2841 C2838 1.403 . S
C2841 C2842 1.392 . S
C2841 C2845 1.495 . S
C2842 C2841 1.392 . S
C2842 C2843 1.385 . S
C2842 C2844 1.478 . S
C2843 H2837 0.930 . S
C2843 C2839 1.400 . S
C2843 C2842 1.385 . S
C2844 C2842 1.478 . S
C2844 C2846 1.381 . S
C2844 C2850 1.383 . S
C2845 C2841 1.495 . S
C2845 H2851 0.959 . S
C2845 H2852 0.961 1_655 S
C2845 H2853 0.960 . S
C2846 C2844 1.381 . S
C2846 C2847 1.394 . S
C2846 H2854 0.930 . S
C2847 C2846 1.394 . S
C2847 C2848 1.383 . S
C2847 H2855 0.929 . S
C2848 C2847 1.383 . S
C2848 C2849 1.377 . S
C2849 H2833 0.930 . S
C2849 C2848 1.377 . S
C2849 C2850 1.379 . S
C2850 H2834 0.931 . S
C2850 C2844 1.383 . S
C2850 C2849 1.379 . S
H2851 C2845 0.959 . S
H2852 C2845 0.961 1_455 S
H2853 C2845 0.960 . S
H2854 C2846 0.930 . S
H2855 C2847 0.929 . S
H2856 C2864 0.929 1_565 S
H2857 C2866 0.930 . S
H2858 C2868 0.930 . S
H2859 C2871 0.929 . S
H2860 C2874 0.930 . S
H2861 C2876 0.960 . S
H2862 C2876 0.960 . S
H2863 C2876 0.960 . S
C2864 H2856 0.929 1_545 S
C2864 C2865 1.377 . S
C2864 C2866 1.384 . S
C2865 C2864 1.377 . S
C2865 C2871 1.390 . S
C2866 H2857 0.930 . S
C2866 C2864 1.384 . S
C2866 C2867 1.372 . S
C2867 C2866 1.372 . S
C2867 C2868 1.400 . S
C2867 C2872 1.490 . S
C2868 H2858 0.930 . S
C2868 C2867 1.400 . S
C2868 C2871 1.386 . S
H2869 C2885 0.930 . S
H2870 C2886 0.931 . S
C2871 H2859 0.929 . S
C2871 C2865 1.390 . S
C2871 C2868 1.386 . S
C2872 C2867 1.490 . S
C2872 C2874 1.395 . S
C2872 C2875 1.403 . S
H2873 C2879 0.930 . S
C2874 H2860 0.930 . S
C2874 C2872 1.395 . S
C2874 C2877 1.403 . S
C2875 C2872 1.403 . S
C2875 C2876 1.524 . S
C2875 C2879 1.400 . S
C2876 H2861 0.960 . S
C2876 H2862 0.960 . S
C2876 H2863 0.960 . S
C2876 C2875 1.524 . S
C2877 C2874 1.403 . S
C2877 C2878 1.392 . S
C2877 C2881 1.495 . S
C2878 C2877 1.392 . S
C2878 C2879 1.385 . S
C2878 C2880 1.478 . S
C2879 H2873 0.930 . S
C2879 C2875 1.400 . S
C2879 C2878 1.385 . S
C2880 C2878 1.478 . S
C2880 C2882 1.381 . S
C2880 C2886 1.383 . S
C2881 C2877 1.495 . S
C2881 H2887 0.959 . S
C2881 H2888 0.961 . S
C2881 H2889 0.960 . S
C2882 C2880 1.381 . S
C2882 C2883 1.394 . S
C2882 H2890 0.930 . S
C2883 C2882 1.394 . S
C2883 C2884 1.383 1_655 S
C2883 H2891 0.929 1_655 S
C2884 C2883 1.383 1_455 S
C2884 C2885 1.377 1_455 S
C2885 H2869 0.930 . S
C2885 C2884 1.377 1_655 S
C2885 C2886 1.379 . S
C2886 H2870 0.931 . S
C2886 C2880 1.383 . S
C2886 C2885 1.379 . S
H2887 C2881 0.959 . S
H2888 C2881 0.961 . S
H2889 C2881 0.960 . S
H2890 C2882 0.930 . S
H2891 C2883 0.929 1_455 S
H2892 C2900 0.929 . S
H2893 C2902 0.930 . S
H2894 C2904 0.930 . S
H2895 C2907 0.929 . S
H2896 C2910 0.930 . S
H2897 C2912 0.960 . S
H2898 C2912 0.960 . S
H2899 C2912 0.960 . S
C2900 H2892 0.929 . S
C2900 C2901 1.377 . S
C2900 C2902 1.384 . S
C2901 C2900 1.377 . S
C2901 C2907 1.390 . S
C2902 H2893 0.930 . S
C2902 C2900 1.384 . S
C2902 C2903 1.372 . S
C2903 C2902 1.372 . S
C2903 C2904 1.400 . S
C2903 C2908 1.490 . S
C2904 H2894 0.930 . S
C2904 C2903 1.400 . S
C2904 C2907 1.386 . S
H2905 C2921 0.930 . S
H2906 C2922 0.931 . S
C2907 H2895 0.929 . S
C2907 C2901 1.390 . S
C2907 C2904 1.386 . S
C2908 C2903 1.490 . S
C2908 C2910 1.395 . S
C2908 C2911 1.403 . S
H2909 C2915 0.930 . S
C2910 H2896 0.930 . S
C2910 C2908 1.395 . S
C2910 C2913 1.403 . S
C2911 C2908 1.403 . S
C2911 C2912 1.524 . S
C2911 C2915 1.400 . S
C2912 H2897 0.960 . S
C2912 H2898 0.960 . S
C2912 H2899 0.960 . S
C2912 C2911 1.524 . S
C2913 C2910 1.403 . S
C2913 C2914 1.392 . S
C2913 C2917 1.495 . S
C2914 C2913 1.392 . S
C2914 C2915 1.385 . S
C2914 C2916 1.478 . S
C2915 H2909 0.930 . S
C2915 C2911 1.400 . S
C2915 C2914 1.385 . S
C2916 C2914 1.478 . S
C2916 C2918 1.381 . S
C2916 C2922 1.383 . S
C2917 C2913 1.495 . S
C2917 H2923 0.959 . S
C2917 H2924 0.961 . S
C2917 H2925 0.960 . S
C2918 C2916 1.381 . S
C2918 C2919 1.394 . S
C2918 H2926 0.930 . S
C2919 C2918 1.394 . S
C2919 C2920 1.383 . S
C2919 H2927 0.929 . S
C2920 C2919 1.383 . S
C2920 C2921 1.377 . S
C2921 H2905 0.930 . S
C2921 C2920 1.377 . S
C2921 C2922 1.379 . S
C2922 H2906 0.931 . S
C2922 C2916 1.383 . S
C2922 C2921 1.379 . S
H2923 C2917 0.959 . S
H2924 C2917 0.961 . S
H2925 C2917 0.960 . S
H2926 C2918 0.930 . S
H2927 C2919 0.929 . S
H2928 C2936 0.929 . S
H2929 C2938 0.930 . S
H2930 C2940 0.930 . S
H2931 C2943 0.929 . S
H2932 C2946 0.930 . S
H2933 C2948 0.960 . S
H2934 C2948 0.960 . S
H2935 C2948 0.960 . S
C2936 H2928 0.929 . S
C2936 C2937 1.377 . S
C2936 C2938 1.384 . S
C2937 C2936 1.377 . S
C2937 C2943 1.390 . S
C2938 H2929 0.930 . S
C2938 C2936 1.384 . S
C2938 C2939 1.372 . S
C2939 C2938 1.372 . S
C2939 C2940 1.400 . S
C2939 C2944 1.490 . S
C2940 H2930 0.930 . S
C2940 C2939 1.400 . S
C2940 C2943 1.386 . S
H2941 C2957 0.930 . S
H2942 C2958 0.931 . S
C2943 H2931 0.929 . S
C2943 C2937 1.390 . S
C2943 C2940 1.386 . S
C2944 C2939 1.490 . S
C2944 C2946 1.395 . S
C2944 C2947 1.403 . S
H2945 C2951 0.930 . S
C2946 H2932 0.930 . S
C2946 C2944 1.395 . S
C2946 C2949 1.403 . S
C2947 C2944 1.403 . S
C2947 C2948 1.524 . S
C2947 C2951 1.400 . S
C2948 H2933 0.960 . S
C2948 H2934 0.960 . S
C2948 H2935 0.960 . S
C2948 C2947 1.524 . S
C2949 C2946 1.403 . S
C2949 C2950 1.392 . S
C2949 C2953 1.495 . S
C2950 C2949 1.392 . S
C2950 C2951 1.385 . S
C2950 C2952 1.478 . S
C2951 H2945 0.930 . S
C2951 C2947 1.400 . S
C2951 C2950 1.385 . S
C2952 C2950 1.478 . S
C2952 C2954 1.381 . S
C2952 C2958 1.383 . S
C2953 C2949 1.495 . S
C2953 H2959 0.959 . S
C2953 H2960 0.961 . S
C2953 H2961 0.960 . S
C2954 C2952 1.381 . S
C2954 C2955 1.394 . S
C2954 H2962 0.930 . S
C2955 C2954 1.394 . S
C2955 C2956 1.383 . S
C2955 H2963 0.929 . S
C2956 C2955 1.383 . S
C2956 C2957 1.377 . S
C2957 H2941 0.930 . S
C2957 C2956 1.377 . S
C2957 C2958 1.379 . S
C2958 H2942 0.931 . S
C2958 C2952 1.383 . S
C2958 C2957 1.379 . S
H2959 C2953 0.959 . S
H2960 C2953 0.961 . S
H2961 C2953 0.960 . S
H2962 C2954 0.930 . S
H2963 C2955 0.929 . S
H2964 C2972 0.929 . S
H2965 C2974 0.930 . S
H2966 C2976 0.930 . S
H2967 C2979 0.929 . S
H2968 C2982 0.930 . S
H2969 C2984 0.960 . S
H2970 C2984 0.960 . S
H2971 C2984 0.960 . S
C2972 H2964 0.929 . S
C2972 C2973 1.377 . S
C2972 C2974 1.384 . S
C2973 C2972 1.377 . S
C2973 C2979 1.390 . S
C2974 H2965 0.930 . S
C2974 C2972 1.384 . S
C2974 C2975 1.372 . S
C2975 C2974 1.372 . S
C2975 C2976 1.400 . S
C2975 C2980 1.490 . S
C2976 H2966 0.930 . S
C2976 C2975 1.400 . S
C2976 C2979 1.386 . S
H2977 C2993 0.930 1_655 S
H2978 C2994 0.931 . S
C2979 H2967 0.929 . S
C2979 C2973 1.390 . S
C2979 C2976 1.386 . S
C2980 C2975 1.490 . S
C2980 C2982 1.395 . S
C2980 C2983 1.403 . S
H2981 C2987 0.930 . S
C2982 H2968 0.930 . S
C2982 C2980 1.395 . S
C2982 C2985 1.403 . S
C2983 C2980 1.403 . S
C2983 C2984 1.524 . S
C2983 C2987 1.400 . S
C2984 H2969 0.960 . S
C2984 H2970 0.960 . S
C2984 H2971 0.960 . S
C2984 C2983 1.524 . S
C2985 C2982 1.403 . S
C2985 C2986 1.392 . S
C2985 C2989 1.495 . S
C2986 C2985 1.392 . S
C2986 C2987 1.385 . S
C2986 C2988 1.478 . S
C2987 H2981 0.930 . S
C2987 C2983 1.400 . S
C2987 C2986 1.385 . S
C2988 C2986 1.478 . S
C2988 C2990 1.381 . S
C2988 C2994 1.383 . S
C2989 C2985 1.495 . S
C2989 H2995 0.959 . S
C2989 H2996 0.961 . S
C2989 H2997 0.960 . S
C2990 C2988 1.381 . S
C2990 C2991 1.394 . S
C2990 H2998 0.930 . S
C2991 C2990 1.394 . S
C2991 C2992 1.363 1_455 S
C2991 H2999 0.929 . S
C2992 C2991 1.363 1_655 S
C2992 C2993 1.364 1_655 S
C2993 H2977 0.930 1_455 S
C2993 C2992 1.364 1_455 S
C2993 C2994 1.379 . S
C2994 H2978 0.931 . S
C2994 C2988 1.383 . S
C2994 C2993 1.379 . S
H2995 C2989 0.959 . S
H2996 C2989 0.961 . S
H2997 C2989 0.960 . S
H2998 C2990 0.930 . S
H2999 C2991 0.929 . S
H3000 C3008 0.929 . S
H3001 C3010 0.930 . S
H3002 C3012 0.930 . S
H3003 C3015 0.929 . S
H3004 C3018 0.930 . S
H3005 C3020 0.960 . S
H3006 C3020 0.960 . S
H3007 C3020 0.960 . S
C3008 H3000 0.929 . S
C3008 C3009 1.377 . S
C3008 C3010 1.384 . S
C3009 C3008 1.377 . S
C3009 C3015 1.390 . S
C3010 H3001 0.930 . S
C3010 C3008 1.384 . S
C3010 C3011 1.372 . S
C3011 C3010 1.372 . S
C3011 C3012 1.400 . S
C3011 C3016 1.490 . S
C3012 H3002 0.930 . S
C3012 C3011 1.400 . S
C3012 C3015 1.386 . S
H3013 C3029 0.930 1_545 S
H3014 C3030 0.931 . S
C3015 H3003 0.929 . S
C3015 C3009 1.390 . S
C3015 C3012 1.386 . S
C3016 C3011 1.490 . S
C3016 C3018 1.395 . S
C3016 C3019 1.403 . S
H3017 C3023 0.930 . S
C3018 H3004 0.930 . S
C3018 C3016 1.395 . S
C3018 C3021 1.403 . S
C3019 C3016 1.403 . S
C3019 C3020 1.524 . S
C3019 C3023 1.400 . S
C3020 H3005 0.960 . S
C3020 H3006 0.960 . S
C3020 H3007 0.960 . S
C3020 C3019 1.524 . S
C3021 C3018 1.403 . S
C3021 C3022 1.392 . S
C3021 C3025 1.495 . S
C3022 C3021 1.392 . S
C3022 C3023 1.385 . S
C3022 C3024 1.478 . S
C3023 H3017 0.930 . S
C3023 C3019 1.400 . S
C3023 C3022 1.385 . S
C3024 C3022 1.478 . S
C3024 C3026 1.381 . S
C3024 C3030 1.383 . S
C3025 C3021 1.495 . S
C3025 H3031 0.959 . S
C3025 H3032 0.961 . S
C3025 H3033 0.960 . S
C3026 C3024 1.381 . S
C3026 C3027 1.394 . S
C3026 H3034 0.930 . S
C3027 C3026 1.394 . S
C3027 C3028 1.383 1_565 S
C3027 H3035 0.929 . S
C3028 C3027 1.383 1_545 S
C3028 C3029 1.377 1_545 S
C3029 H3013 0.930 1_565 S
C3029 C3028 1.377 1_565 S
C3029 C3030 1.379 . S
C3030 H3014 0.931 . S
C3030 C3024 1.383 . S
C3030 C3029 1.379 . S
H3031 C3025 0.959 . S
H3032 C3025 0.961 . S
H3033 C3025 0.960 . S
H3034 C3026 0.930 . S
H3035 C3027 0.929 . S
H3036 C3044 0.929 . S
H3037 C3046 0.930 . S
H3038 C3048 0.930 . S
H3039 C3051 0.929 . S
H3040 C3054 0.930 . S
H3041 C3056 0.960 . S
H3042 C3056 0.960 . S
H3043 C3056 0.960 . S
C3044 H3036 0.929 . S
C3044 C3045 1.377 . S
C3044 C3046 1.384 . S
C3045 C3044 1.377 . S
C3045 C3051 1.390 . S
C3046 H3037 0.930 . S
C3046 C3044 1.384 . S
C3046 C3047 1.372 . S
C3047 C3046 1.372 . S
C3047 C3048 1.400 . S
C3047 C3052 1.490 . S
C3048 H3038 0.930 . S
C3048 C3047 1.400 . S
C3048 C3051 1.386 . S
H3049 C3065 0.930 . S
H3050 C3066 0.931 . S
C3051 H3039 0.929 . S
C3051 C3045 1.390 . S
C3051 C3048 1.386 . S
C3052 C3047 1.490 . S
C3052 C3054 1.395 . S
C3052 C3055 1.403 . S
H3053 C3059 0.930 . S
C3054 H3040 0.930 . S
C3054 C3052 1.395 . S
C3054 C3057 1.403 . S
C3055 C3052 1.403 . S
C3055 C3056 1.524 . S
C3055 C3059 1.400 . S
C3056 H3041 0.960 . S
C3056 H3042 0.960 . S
C3056 H3043 0.960 . S
C3056 C3055 1.524 . S
C3057 C3054 1.403 . S
C3057 C3058 1.392 . S
C3057 C3061 1.495 . S
C3058 C3057 1.392 . S
C3058 C3059 1.385 . S
C3058 C3060 1.478 . S
C3059 H3053 0.930 . S
C3059 C3055 1.400 . S
C3059 C3058 1.385 . S
C3060 C3058 1.478 . S
C3060 C3062 1.381 . S
C3060 C3066 1.383 . S
C3061 C3057 1.495 . S
C3061 H3067 0.959 . S
C3061 H3068 0.961 . S
C3061 H3069 0.960 . S
C3062 C3060 1.381 . S
C3062 C3063 1.394 1_556 S
C3062 H3070 0.930 . S
C3063 C3062 1.394 1_554 S
C3063 C3064 1.383 1_554 S
C3063 H3071 0.929 . S
C3064 C3063 1.383 1_556 S
C3064 C3065 1.377 . S
C3065 H3049 0.930 . S
C3065 C3064 1.377 . S
C3065 C3066 1.379 . S
C3066 H3050 0.931 . S
C3066 C3060 1.383 . S
C3066 C3065 1.379 . S
H3067 C3061 0.959 . S
H3068 C3061 0.961 . S
H3069 C3061 0.960 . S
H3070 C3062 0.930 . S
H3071 C3063 0.929 . S
H3072 C3080 0.929 . S
H3073 C3082 0.930 . S
H3074 C3084 0.930 . S
H3075 C3087 0.929 . S
H3076 C3090 0.930 . S
H3077 C3092 0.960 . S
H3078 C3092 0.960 . S
H3079 C3092 0.960 . S
C3080 H3072 0.929 . S
C3080 C3081 1.377 . S
C3080 C3082 1.384 . S
C3081 C3080 1.377 . S
C3081 C3087 1.390 . S
C3082 H3073 0.930 . S
C3082 C3080 1.384 . S
C3082 C3083 1.372 . S
C3083 C3082 1.372 . S
C3083 C3084 1.400 . S
C3083 C3088 1.490 . S
C3084 H3074 0.930 . S
C3084 C3083 1.400 . S
C3084 C3087 1.386 . S
H3085 C3101 0.930 . S
H3086 C3102 0.931 . S
C3087 H3075 0.929 . S
C3087 C3081 1.390 . S
C3087 C3084 1.386 . S
C3088 C3083 1.490 . S
C3088 C3090 1.395 . S
C3088 C3091 1.403 . S
H3089 C3095 0.930 . S
C3090 H3076 0.930 . S
C3090 C3088 1.395 . S
C3090 C3093 1.403 . S
C3091 C3088 1.403 . S
C3091 C3092 1.524 . S
C3091 C3095 1.400 . S
C3092 H3077 0.960 . S
C3092 H3078 0.960 . S
C3092 H3079 0.960 . S
C3092 C3091 1.524 . S
C3093 C3090 1.403 . S
C3093 C3094 1.392 . S
C3093 C3097 1.495 . S
C3094 C3093 1.392 . S
C3094 C3095 1.385 . S
C3094 C3096 1.478 . S
C3095 H3089 0.930 . S
C3095 C3091 1.400 . S
C3095 C3094 1.385 . S
C3096 C3094 1.478 . S
C3096 C3098 1.381 . S
C3096 C3102 1.383 . S
C3097 C3093 1.495 . S
C3097 H3103 0.959 . S
C3097 H3104 0.961 . S
C3097 H3105 0.960 . S
C3098 C3096 1.381 . S
C3098 C3099 1.394 . S
C3098 H3106 0.930 . S
C3099 C3098 1.394 . S
C3099 C3100 1.383 . S
C3099 H3107 0.929 . S
C3100 C3099 1.383 . S
C3100 C3101 1.377 . S
C3101 H3085 0.930 . S
C3101 C3100 1.377 . S
C3101 C3102 1.379 . S
C3102 H3086 0.931 . S
C3102 C3096 1.383 . S
C3102 C3101 1.379 . S
H3103 C3097 0.959 . S
H3104 C3097 0.961 . S
H3105 C3097 0.960 . S
H3106 C3098 0.930 . S
H3107 C3099 0.929 . S
H3108 C3116 0.929 . S
H3109 C3118 0.930 . S
H3110 C3120 0.930 . S
H3111 C3123 0.929 . S
H3112 C3126 0.930 . S
H3113 C3128 0.960 . S
H3114 C3128 0.960 . S
H3115 C3128 0.960 . S
C3116 H3108 0.929 . S
C3116 C3117 1.377 . S
C3116 C3118 1.384 . S
C3117 C3116 1.377 . S
C3117 C3123 1.390 . S
C3118 H3109 0.930 . S
C3118 C3116 1.384 . S
C3118 C3119 1.372 . S
C3119 C3118 1.372 . S
C3119 C3120 1.400 . S
C3119 C3124 1.490 . S
C3120 H3110 0.930 . S
C3120 C3119 1.400 . S
C3120 C3123 1.386 . S
H3121 C3137 0.938 . S
H3122 C3138 0.931 . S
C3123 H3111 0.929 . S
C3123 C3117 1.390 . S
C3123 C3120 1.386 . S
C3124 C3119 1.490 . S
C3124 C3126 1.395 . S
C3124 C3127 1.403 . S
H3125 C3131 0.930 . S
C3126 H3112 0.930 . S
C3126 C3124 1.395 . S
C3126 C3129 1.403 . S
C3127 C3124 1.403 . S
C3127 C3128 1.524 . S
C3127 C3131 1.400 . S
C3128 H3113 0.960 . S
C3128 H3114 0.960 . S
C3128 H3115 0.960 . S
C3128 C3127 1.524 . S
C3129 C3126 1.403 . S
C3129 C3130 1.392 . S
C3129 C3133 1.495 . S
C3130 C3129 1.392 . S
C3130 C3131 1.385 . S
C3130 C3132 1.478 . S
C3131 H3125 0.930 . S
C3131 C3127 1.400 . S
C3131 C3130 1.385 . S
C3132 C3130 1.478 . S
C3132 C3134 1.381 . S
C3132 C3138 1.383 . S
C3133 C3129 1.495 . S
C3133 H3139 0.959 . S
C3133 H3140 0.961 . S
C3133 H3141 0.960 . S
C3134 C3132 1.381 . S
C3134 C3135 1.394 . S
C3134 H3142 0.930 . S
C3135 C3134 1.394 . S
C3135 C3136 1.383 1_545 S
C3135 H3143 0.929 . S
C3136 C3135 1.383 1_565 S
C3136 C3137 1.377 . S
C3137 H3121 0.938 . S
C3137 C3136 1.377 . S
C3137 C3138 1.370 1_565 S
C3138 H3122 0.931 . S
C3138 C3132 1.383 . S
C3138 C3137 1.370 1_545 S
H3139 C3133 0.959 . S
H3140 C3133 0.961 . S
H3141 C3133 0.960 . S
H3142 C3134 0.930 . S
H3143 C3135 0.929 . S
C561 C19 0.901 . S
C580 C435 0.943 . S
C597 C458 0.933 . S
C616 C42 0.888 . S
C633 C65 0.918 . S
C652 C389 0.923 1_545 S
C669 C88 0.913 . S
C688 C412 0.915 1_565 S
C705 C527 0.930 . S
C724 C111 0.867 . S
C741 C134 0.904 . S
C760 C504 0.954 . S
C777 C550 0.932 . S
C796 C157 0.899 . S
C813 C180 0.902 . S
C832 C481 0.939 . S
C849 C203 0.902 . S
C868 C320 0.947 . S
C885 C226 0.901 . S
C904 C366 0.944 . S
C921 C343 0.924 . S
C940 C249 0.953 . S
C957 C272 0.919 . S
C976 C297 0.922 1_455 S
C993 C295 0.905 . S
C1012 C159 0.908 . S
C1029 C318 0.912 . S
C1048 C182 0.924 . S
C1065 C341 0.920 . S
C1084 C113 0.953 . S
C1101 C136 0.919 1_545 S
C1120 C364 0.865 . S
C1137 C387 0.901 . S
C1156 C251 0.904 . S
C1173 C228 0.930 1_554 S
C1192 C410 0.889 . S
C1209 C274 0.924 . S
C1228 C433 0.867 . S
C1245 C205 0.931 . S
C1264 C456 0.938 . S
C1281 C44 0.930 . S
C1300 C479 0.936 . S
C1317 C90 0.925 1_455 S
C1336 C502 0.874 . S
C1353 C67 0.926 . S
C1372 C525 0.884 . S
C1389 C548 0.902 . S
C1408 C21 0.900 1_655 S
C1425 C110 1.284 . S
C1444 C16 1.292 . S
C1461 C133 1.289 . S
C1480 C39 1.301 . S
C1497 C156 1.283 . S
C1516 C62 1.303 . S
C1533 C179 1.282 . S
C1552 C85 1.302 . S
C1569 C108 1.304 . S
C1588 C202 1.265 . S
C1605 C131 1.302 . S
C1624 C271 1.280 . S
C1641 C154 1.305 . S
C1660 C225 1.301 . S
C1677 C177 1.306 . S
C1696 C248 1.297 . S
C1713 C200 1.302 . S
C1732 C18 1.283 . S
C1749 C223 1.305 . S
C1768 C64 1.302 . S
C1785 C246 1.304 . S
C1804 C87 1.303 . S
C1821 C41 1.282 . S
C1840 C269 1.300 . S
C1857 C386 1.290 . S
C1876 C292 1.306 . S
C1893 C409 1.286 . S
C1912 C315 1.293 . S
C1929 C338 1.303 . S
C1948 C432 1.300 . S
C1965 C361 1.303 . S
C1984 C455 1.262 . S
C2001 C478 1.290 . S
C2020 C384 1.306 . S
C2037 C407 1.305 . S
C2056 C547 1.304 . S
C2073 C501 1.286 . S
C2092 C430 1.309 . S
C2109 C453 1.305 . S
C2128 C524 1.281 . S
C2145 C294 1.282 . S
C2164 C476 1.302 . S
C2181 C499 1.305 . S
C2200 C340 1.273 . S
C2217 C522 1.303 . S
C2236 C363 1.295 . S
C2253 C317 1.283 . S
C2272 C545 1.293 . S
C2289 C20 1.373 1_655 S
C2308 C224 1.347 . S
C2325 C247 1.315 . S
C2344 C43 1.378 . S
C2361 C201 1.318 . S
C2380 C66 1.360 . S
C2397 C270 1.324 . S
C2416 C89 1.377 1_455 S
C2433 C112 1.374 1_565 S
C2452 C86 1.318 . S
C2469 C63 1.318 . S
C2488 C135 1.360 1_545 S
C2505 C158 1.375 . S
C2524 C40 1.297 . S
C2541 C17 1.314 . S
C2560 C181 1.364 . S
C2577 C204 1.373 1_556 S
C2596 C132 1.349 . S
C2613 C227 1.375 1_554 S
C2632 C178 1.308 . S
C2649 C250 1.372 . S
C2668 C155 1.346 . S
C2685 C273 1.374 . S
C2704 C109 1.345 . S
C2721 C296 1.371 1_455 S
C2740 C500 1.317 . S
C2757 C319 1.374 . S
C2776 C523 1.318 . S
C2793 C477 1.321 . S
C2812 C342 1.367 . S
C2829 C546 1.319 . S
C2848 C365 1.364 1_655 S
C2865 C388 1.371 1_545 S
C2884 C362 1.308 . S
C2901 C411 1.371 1_565 S
C2920 C339 1.302 . S
C2937 C316 1.323 . S
C2956 C434 1.379 . S
C2973 C457 1.371 . S
C2992 C293 1.315 . S
C3009 C480 1.375 1_554 S
C3028 C408 1.329 . S
C3045 C454 1.324 . S
C3064 C503 1.372 1_556 S
C3081 C526 1.374 . S
C3100 C431 1.326 . S
C3117 C549 1.373 . S
C3136 C385 1.305 . S
