# Generated by pormake.
# Topology mer, (4)-cn, num edge types: 1
# Building blocks:
#     Node 0, Type 0, BuildingBlock: ICAMEG_clean_sbu_1, # of connection points: 4
#     Node 1, Type 0, BuildingBlock: ICAMEG_clean_sbu_1, # of connection points: 4
#     Node 2, Type 0, BuildingBlock: ICAMEG_clean_sbu_1, # of connection points: 4
#     Node 3, Type 0, BuildingBlock: ICAMEG_clean_sbu_1, # of connection points: 4
#     Node 4, Type 0, BuildingBlock: ICAMEG_clean_sbu_1, # of connection points: 4
#     Node 5, Type 0, BuildingBlock: ICAMEG_clean_sbu_1, # of connection points: 4
#     Node 6, Type 0, BuildingBlock: ICAMEG_clean_sbu_1, # of connection points: 4
#     Node 7, Type 0, BuildingBlock: ICAMEG_clean_sbu_1, # of connection points: 4
#     Node 8, Type 0, BuildingBlock: ICAMEG_clean_sbu_1, # of connection points: 4
#     Node 9, Type 0, BuildingBlock: ICAMEG_clean_sbu_1, # of connection points: 4
#     Node 10, Type 0, BuildingBlock: ICAMEG_clean_sbu_1, # of connection points: 4
#     Node 11, Type 0, BuildingBlock: ICAMEG_clean_sbu_1, # of connection points: 4
#     Node 12, Type 0, BuildingBlock: ICAMEG_clean_sbu_1, # of connection points: 4
#     Node 13, Type 0, BuildingBlock: ICAMEG_clean_sbu_1, # of connection points: 4
#     Node 14, Type 0, BuildingBlock: ICAMEG_clean_sbu_1, # of connection points: 4
#     Node 15, Type 0, BuildingBlock: ICAMEG_clean_sbu_1, # of connection points: 4
#     Node 16, Type 0, BuildingBlock: ICAMEG_clean_sbu_1, # of connection points: 4
#     Node 17, Type 0, BuildingBlock: ICAMEG_clean_sbu_1, # of connection points: 4
#     Node 18, Type 0, BuildingBlock: ICAMEG_clean_sbu_1, # of connection points: 4
#     Node 19, Type 0, BuildingBlock: ICAMEG_clean_sbu_1, # of connection points: 4
#     Node 20, Type 0, BuildingBlock: ICAMEG_clean_sbu_1, # of connection points: 4
#     Node 21, Type 0, BuildingBlock: ICAMEG_clean_sbu_1, # of connection points: 4
#     Node 22, Type 0, BuildingBlock: ICAMEG_clean_sbu_1, # of connection points: 4
#     Node 23, Type 0, BuildingBlock: ICAMEG_clean_sbu_1, # of connection points: 4
#     Node 24, Type 0, BuildingBlock: ICAMEG_clean_sbu_1, # of connection points: 4
#     Node 25, Type 0, BuildingBlock: ICAMEG_clean_sbu_1, # of connection points: 4
#     Node 26, Type 0, BuildingBlock: ICAMEG_clean_sbu_1, # of connection points: 4
#     Node 27, Type 0, BuildingBlock: ICAMEG_clean_sbu_1, # of connection points: 4
#     Node 28, Type 0, BuildingBlock: ICAMEG_clean_sbu_1, # of connection points: 4
#     Node 29, Type 0, BuildingBlock: ICAMEG_clean_sbu_1, # of connection points: 4
#     Node 30, Type 0, BuildingBlock: ICAMEG_clean_sbu_1, # of connection points: 4
#     Node 31, Type 0, BuildingBlock: ICAMEG_clean_sbu_1, # of connection points: 4
#     Edge 32, Type (0, 0), BuildingBlock: CIFDUS_clean_linker_0, # of connection points: 2
#     Edge 33, Type (0, 0), BuildingBlock: CIFDUS_clean_linker_0, # of connection points: 2
#     Edge 34, Type (0, 0), BuildingBlock: CIFDUS_clean_linker_0, # of connection points: 2
#     Edge 35, Type (0, 0), BuildingBlock: CIFDUS_clean_linker_0, # of connection points: 2
#     Edge 36, Type (0, 0), BuildingBlock: CIFDUS_clean_linker_0, # of connection points: 2
#     Edge 37, Type (0, 0), BuildingBlock: CIFDUS_clean_linker_0, # of connection points: 2
#     Edge 38, Type (0, 0), BuildingBlock: CIFDUS_clean_linker_0, # of connection points: 2
#     Edge 39, Type (0, 0), BuildingBlock: CIFDUS_clean_linker_0, # of connection points: 2
#     Edge 40, Type (0, 0), BuildingBlock: CIFDUS_clean_linker_0, # of connection points: 2
#     Edge 41, Type (0, 0), BuildingBlock: CIFDUS_clean_linker_0, # of connection points: 2
#     Edge 42, Type (0, 0), BuildingBlock: CIFDUS_clean_linker_0, # of connection points: 2
#     Edge 43, Type (0, 0), BuildingBlock: CIFDUS_clean_linker_0, # of connection points: 2
#     Edge 44, Type (0, 0), BuildingBlock: CIFDUS_clean_linker_0, # of connection points: 2
#     Edge 45, Type (0, 0), BuildingBlock: CIFDUS_clean_linker_0, # of connection points: 2
#     Edge 46, Type (0, 0), BuildingBlock: CIFDUS_clean_linker_0, # of connection points: 2
#     Edge 47, Type (0, 0), BuildingBlock: CIFDUS_clean_linker_0, # of connection points: 2
#     Edge 48, Type (0, 0), BuildingBlock: CIFDUS_clean_linker_0, # of connection points: 2
#     Edge 49, Type (0, 0), BuildingBlock: CIFDUS_clean_linker_0, # of connection points: 2
#     Edge 50, Type (0, 0), BuildingBlock: CIFDUS_clean_linker_0, # of connection points: 2
#     Edge 51, Type (0, 0), BuildingBlock: CIFDUS_clean_linker_0, # of connection points: 2
#     Edge 52, Type (0, 0), BuildingBlock: CIFDUS_clean_linker_0, # of connection points: 2
#     Edge 53, Type (0, 0), BuildingBlock: CIFDUS_clean_linker_0, # of connection points: 2
#     Edge 54, Type (0, 0), BuildingBlock: CIFDUS_clean_linker_0, # of connection points: 2
#     Edge 55, Type (0, 0), BuildingBlock: CIFDUS_clean_linker_0, # of connection points: 2
#     Edge 56, Type (0, 0), BuildingBlock: CIFDUS_clean_linker_0, # of connection points: 2
#     Edge 57, Type (0, 0), BuildingBlock: CIFDUS_clean_linker_0, # of connection points: 2
#     Edge 58, Type (0, 0), BuildingBlock: CIFDUS_clean_linker_0, # of connection points: 2
#     Edge 59, Type (0, 0), BuildingBlock: CIFDUS_clean_linker_0, # of connection points: 2
#     Edge 60, Type (0, 0), BuildingBlock: CIFDUS_clean_linker_0, # of connection points: 2
#     Edge 61, Type (0, 0), BuildingBlock: CIFDUS_clean_linker_0, # of connection points: 2
#     Edge 62, Type (0, 0), BuildingBlock: CIFDUS_clean_linker_0, # of connection points: 2
#     Edge 63, Type (0, 0), BuildingBlock: CIFDUS_clean_linker_0, # of connection points: 2
#     Edge 64, Type (0, 0), BuildingBlock: CIFDUS_clean_linker_0, # of connection points: 2
#     Edge 65, Type (0, 0), BuildingBlock: CIFDUS_clean_linker_0, # of connection points: 2
#     Edge 66, Type (0, 0), BuildingBlock: CIFDUS_clean_linker_0, # of connection points: 2
#     Edge 67, Type (0, 0), BuildingBlock: CIFDUS_clean_linker_0, # of connection points: 2
#     Edge 68, Type (0, 0), BuildingBlock: CIFDUS_clean_linker_0, # of connection points: 2
#     Edge 69, Type (0, 0), BuildingBlock: CIFDUS_clean_linker_0, # of connection points: 2
#     Edge 70, Type (0, 0), BuildingBlock: CIFDUS_clean_linker_0, # of connection points: 2
#     Edge 71, Type (0, 0), BuildingBlock: CIFDUS_clean_linker_0, # of connection points: 2
#     Edge 72, Type (0, 0), BuildingBlock: CIFDUS_clean_linker_0, # of connection points: 2
#     Edge 73, Type (0, 0), BuildingBlock: CIFDUS_clean_linker_0, # of connection points: 2
#     Edge 74, Type (0, 0), BuildingBlock: CIFDUS_clean_linker_0, # of connection points: 2
#     Edge 75, Type (0, 0), BuildingBlock: CIFDUS_clean_linker_0, # of connection points: 2
#     Edge 76, Type (0, 0), BuildingBlock: CIFDUS_clean_linker_0, # of connection points: 2
#     Edge 77, Type (0, 0), BuildingBlock: CIFDUS_clean_linker_0, # of connection points: 2
#     Edge 78, Type (0, 0), BuildingBlock: CIFDUS_clean_linker_0, # of connection points: 2
#     Edge 79, Type (0, 0), BuildingBlock: CIFDUS_clean_linker_0, # of connection points: 2
#     Edge 80, Type (0, 0), BuildingBlock: CIFDUS_clean_linker_0, # of connection points: 2
#     Edge 81, Type (0, 0), BuildingBlock: CIFDUS_clean_linker_0, # of connection points: 2
#     Edge 82, Type (0, 0), BuildingBlock: CIFDUS_clean_linker_0, # of connection points: 2
#     Edge 83, Type (0, 0), BuildingBlock: CIFDUS_clean_linker_0, # of connection points: 2
#     Edge 84, Type (0, 0), BuildingBlock: CIFDUS_clean_linker_0, # of connection points: 2
#     Edge 85, Type (0, 0), BuildingBlock: CIFDUS_clean_linker_0, # of connection points: 2
#     Edge 86, Type (0, 0), BuildingBlock: CIFDUS_clean_linker_0, # of connection points: 2
#     Edge 87, Type (0, 0), BuildingBlock: CIFDUS_clean_linker_0, # of connection points: 2
#     Edge 88, Type (0, 0), BuildingBlock: CIFDUS_clean_linker_0, # of connection points: 2
#     Edge 89, Type (0, 0), BuildingBlock: CIFDUS_clean_linker_0, # of connection points: 2
#     Edge 90, Type (0, 0), BuildingBlock: CIFDUS_clean_linker_0, # of connection points: 2
#     Edge 91, Type (0, 0), BuildingBlock: CIFDUS_clean_linker_0, # of connection points: 2
#     Edge 92, Type (0, 0), BuildingBlock: CIFDUS_clean_linker_0, # of connection points: 2
#     Edge 93, Type (0, 0), BuildingBlock: CIFDUS_clean_linker_0, # of connection points: 2
#     Edge 94, Type (0, 0), BuildingBlock: CIFDUS_clean_linker_0, # of connection points: 2
#     Edge 95, Type (0, 0), BuildingBlock: CIFDUS_clean_linker_0, # of connection points: 2
# Relax obj value: 0.031
# Max RMSD: 0.077
# Mean RMSD: 0.077
data_MOF--net-mer--node1-ICAMEG_clean_sbu_1--edge1-CIFDUS_clean_linker_0
_symmetry_space_group_name_H-M    P1
_symmetry_Int_Tables_number       1
_symmetry_cell_setting            triclinic
loop_
_symmetry_equiv_pos_as_xyz
'x, y, z'
_cell_length_a     57.586644
_cell_length_b     57.593826
_cell_length_c     52.404174
_cell_angle_alpha  90.015867
_cell_angle_beta   90.008958
_cell_angle_gamma 90.002888
loop_
_atom_site_label
_atom_site_type_symbol
_atom_site_fract_x
_atom_site_fract_y
_atom_site_fract_z
_atom_type_partial_charge
Co0 Co 0.15886 0.30901 0.38085 0.0
Co1 Co 0.11621 0.26717 0.38286 0.0
O2 O 0.1298 0.29538 0.36846 0.0
C3 C 0.16638 0.304 0.32526 0.0
O4 O 0.15737 0.28313 0.32711 0.0
C5 C 0.07373 0.29745 0.38703 0.0
O6 O 0.08428 0.31132 0.4032 0.0
O7 O 0.11756 0.28056 0.41791 0.0
O8 O 0.15031 0.30175 0.41702 0.0
H9 H 0.10949 0.20199 0.44614 0.0
H10 H 0.12788 0.33605 0.3469 0.0
O11 O 0.16818 0.31681 0.34497 0.0
H12 H 0.13454 0.38248 0.42564 0.0
H13 H 0.22265 0.3688 0.38224 0.0
H14 H 0.19391 0.29565 0.41958 0.0
H15 H 0.15549 0.34535 0.42134 0.0
H16 H 0.18582 0.35154 0.36747 0.0
O17 O 0.08434 0.28012 0.37743 0.0
H18 H 0.12698 0.23705 0.42719 0.0
H19 H 0.07524 0.23783 0.36941 0.0
H20 H 0.23074 0.3124 0.43507 0.0
H21 H 0.10676 0.37319 0.35029 0.0
H22 H 0.24533 0.34924 0.41635 0.0
H23 H 0.10999 0.39666 0.38991 0.0
O24 O 0.17527 0.27861 0.37781 0.0
H25 H 0.09907 0.26839 0.28884 0.0
H26 H 0.13044 0.22185 0.35989 0.0
H27 H 0.13011 0.20544 0.31644 0.0
H28 H 0.1143 0.22875 0.28054 0.0
H29 H 0.09998 0.28423 0.33255 0.0
H30 H 0.0571 0.20286 0.38784 0.0
H31 H 0.07428 0.18466 0.42644 0.0
O32 O 0.14748 0.253 0.38802 0.0
C33 C 0.13346 0.29229 0.42898 0.0
C34 C 0.10188 0.20971 0.42927 0.0
C35 C 0.07246 0.21023 0.39657 0.0
N36 N 0.10225 0.23939 0.39711 0.0
C37 C 0.11174 0.22954 0.41842 0.0
C38 C 0.08279 0.23005 0.38625 0.0
C39 C 0.08211 0.20002 0.41822 0.0
C40 C 0.12948 0.34624 0.36413 0.0
N41 N 0.14296 0.33858 0.38386 0.0
C42 C 0.11743 0.36722 0.36597 0.0
C43 C 0.11923 0.38037 0.38822 0.0
C44 C 0.13299 0.37242 0.40828 0.0
C45 C 0.14477 0.35134 0.40576 0.0
C46 C 0.21645 0.35276 0.39058 0.0
C47 C 0.20008 0.31175 0.41146 0.0
C48 C 0.19564 0.34288 0.38225 0.0
N49 N 0.18765 0.32269 0.39279 0.0
C50 C 0.22098 0.32112 0.42025 0.0
C51 C 0.22916 0.34178 0.40972 0.0
C52 C 0.16861 0.25813 0.38347 0.0
C53 C 0.10595 0.25804 0.30433 0.0
C54 C 0.12365 0.23216 0.34437 0.0
C55 C 0.12343 0.22274 0.31981 0.0
C56 C 0.11453 0.23582 0.29968 0.0
N57 N 0.11522 0.25398 0.34878 0.0
C58 C 0.10641 0.26688 0.32914 0.0
Co59 Co 0.69171 0.14988 0.37336 0.0
Co60 Co 0.73886 0.11372 0.38187 0.0
O61 O 0.70988 0.12219 0.36494 0.0
C62 C 0.70098 0.15391 0.31808 0.0
O63 O 0.72236 0.1477 0.32338 0.0
C64 C 0.71148 0.06968 0.38746 0.0
O65 O 0.69438 0.0812 0.39818 0.0
O66 O 0.72404 0.1169 0.41605 0.0
O67 O 0.69718 0.14486 0.41086 0.0
H68 H 0.80203 0.12189 0.44739 0.0
H69 H 0.67155 0.11362 0.33991 0.0
O70 O 0.68601 0.15563 0.33593 0.0
H71 H 0.61907 0.11839 0.41408 0.0
H72 H 0.62426 0.20469 0.36323 0.0
H73 H 0.69698 0.18891 0.40983 0.0
H74 H 0.65335 0.14392 0.41104 0.0
H75 H 0.64744 0.16974 0.35359 0.0
O76 O 0.72983 0.08019 0.38033 0.0
H77 H 0.7658 0.13274 0.4253 0.0
H78 H 0.77324 0.07543 0.37491 0.0
H79 H 0.67424 0.22396 0.42024 0.0
H80 H 0.63737 0.08786 0.34208 0.0
H81 H 0.63759 0.23203 0.39685 0.0
H82 H 0.61088 0.09013 0.3794 0.0
O83 O 0.7197 0.17015 0.37153 0.0
H84 H 0.74314 0.08693 0.29073 0.0
H85 H 0.78314 0.13062 0.35867 0.0
H86 H 0.80108 0.12779 0.31607 0.0
H87 H 0.78106 0.10578 0.28175 0.0
H88 H 0.72567 0.09046 0.33351 0.0
H89 H 0.80946 0.06386 0.39658 0.0
H90 H 0.82413 0.08723 0.43303 0.0
O91 O 0.74903 0.14687 0.3833 0.0
C92 C 0.70903 0.1311 0.42492 0.0
C93 C 0.79586 0.11162 0.43147 0.0
C94 C 0.80001 0.07903 0.40298 0.0
N95 N 0.76751 0.10484 0.39872 0.0
C96 C 0.77539 0.11771 0.41885 0.0
C97 C 0.77946 0.08564 0.39082 0.0
C98 C 0.80824 0.09215 0.42343 0.0
C99 C 0.66 0.11482 0.35611 0.0
N100 N 0.66436 0.13033 0.37524 0.0
C101 C 0.64072 0.10014 0.35728 0.0
C102 C 0.62588 0.10141 0.37824 0.0
C103 C 0.63047 0.11725 0.39771 0.0
C104 C 0.64993 0.13163 0.3959 0.0
C105 C 0.64017 0.20133 0.37359 0.0
C106 C 0.68097 0.19223 0.3997 0.0
C107 C 0.65339 0.1816 0.36818 0.0
N108 N 0.67343 0.17721 0.38129 0.0
C109 C 0.6682 0.21214 0.40562 0.0
C110 C 0.64766 0.21666 0.39246 0.0
C111 C 0.74088 0.16679 0.37756 0.0
C112 C 0.75205 0.09653 0.30554 0.0
C113 C 0.77424 0.12116 0.34381 0.0
C114 C 0.78454 0.11952 0.31974 0.0
C115 C 0.77331 0.10715 0.3005 0.0
N116 N 0.75336 0.11075 0.34859 0.0
C117 C 0.7423 0.09851 0.32984 0.0
Co118 Co 0.84524 0.68131 0.3807 0.0
Co119 Co 0.8837 0.72746 0.3831 0.0
O120 O 0.87365 0.69729 0.36995 0.0
C121 C 0.83992 0.68581 0.32449 0.0
O122 O 0.8483 0.70691 0.32665 0.0
C123 C 0.92528 0.69903 0.39618 0.0
O124 O 0.91165 0.68483 0.40882 0.0
O125 O 0.87887 0.71717 0.41909 0.0
O126 O 0.85153 0.68935 0.41732 0.0
H127 H 0.87818 0.79835 0.43867 0.0
H128 H 0.87947 0.65679 0.34826 0.0
O129 O 0.838 0.67292 0.3442 0.0
H130 H 0.87426 0.61056 0.42725 0.0
H131 H 0.78695 0.61618 0.37878 0.0
H132 H 0.80749 0.69149 0.4175 0.0
H133 H 0.85038 0.64575 0.42173 0.0
H134 H 0.82274 0.63664 0.36597 0.0
O135 O 0.91676 0.71633 0.38426 0.0
H136 H 0.86553 0.76047 0.42166 0.0
H137 H 0.9242 0.75834 0.37259 0.0
H138 H 0.77164 0.67153 0.43104 0.0
H139 H 0.90354 0.62159 0.35289 0.0
H140 H 0.76117 0.6336 0.41161 0.0
H141 H 0.90104 0.59824 0.39264 0.0
O142 O 0.82626 0.71002 0.37671 0.0
H143 H 0.91268 0.71948 0.2931 0.0
H144 H 0.86954 0.76927 0.35322 0.0
H145 H 0.8743 0.78183 0.30855 0.0
H146 H 0.89603 0.75685 0.27815 0.0
H147 H 0.90731 0.70748 0.33791 0.0
H148 H 0.93758 0.79611 0.38923 0.0
H149 H 0.91445 0.81642 0.42244 0.0
O150 O 0.85123 0.73952 0.38207 0.0
C151 C 0.86507 0.70279 0.42979 0.0
C152 C 0.88837 0.78971 0.42415 0.0
C153 C 0.92172 0.78844 0.39642 0.0
N154 N 0.894 0.7573 0.39601 0.0
C155 C 0.88126 0.76829 0.41439 0.0
C156 C 0.91408 0.76704 0.38711 0.0
C157 C 0.90873 0.79983 0.41505 0.0
C158 C 0.87817 0.64661 0.36552 0.0
N159 N 0.86347 0.65323 0.38463 0.0
C160 C 0.89189 0.62674 0.36808 0.0
C161 C 0.8905 0.61367 0.3904 0.0
C162 C 0.87549 0.62057 0.40983 0.0
C163 C 0.86205 0.64055 0.40662 0.0
C164 C 0.79135 0.63268 0.38742 0.0
C165 C 0.80312 0.67491 0.40909 0.0
C166 C 0.81156 0.64436 0.3802 0.0
N167 N 0.81726 0.66515 0.39112 0.0
C168 C 0.78277 0.66373 0.41677 0.0
C169 C 0.77689 0.64246 0.40585 0.0
C170 C 0.83076 0.73161 0.37882 0.0
C171 C 0.90323 0.73053 0.30618 0.0
C172 C 0.87895 0.75827 0.3401 0.0
C173 C 0.88164 0.7655 0.31484 0.0
C174 C 0.89385 0.75149 0.2978 0.0
N175 N 0.8882 0.73769 0.34818 0.0
C176 C 0.90022 0.72388 0.3316 0.0
Co177 Co 0.30459 0.84929 0.38093 0.0
Co178 Co 0.26235 0.89171 0.37837 0.0
O179 O 0.29156 0.87796 0.36667 0.0
C180 C 0.30272 0.84004 0.32523 0.0
O181 O 0.28184 0.84916 0.32531 0.0
C182 C 0.2928 0.93368 0.38438 0.0
O183 O 0.30651 0.92216 0.3999 0.0
O184 O 0.27314 0.8909 0.41448 0.0
O185 O 0.2954 0.85889 0.41634 0.0
H186 H 0.19271 0.89884 0.43558 0.0
H187 H 0.33335 0.87931 0.34767 0.0
O188 O 0.31437 0.83889 0.34588 0.0
H189 H 0.37534 0.87548 0.42958 0.0
H190 H 0.3645 0.78599 0.38859 0.0
H191 H 0.28932 0.81539 0.42002 0.0
H192 H 0.33861 0.85416 0.42361 0.0
H193 H 0.34786 0.82218 0.3713 0.0
O194 O 0.27551 0.92366 0.37396 0.0
H195 H 0.22918 0.88137 0.42011 0.0
H196 H 0.23384 0.93226 0.36168 0.0
H197 H 0.30543 0.77923 0.43802 0.0
H198 H 0.37015 0.90077 0.35273 0.0
H199 H 0.34328 0.76431 0.42228 0.0
H200 H 0.39137 0.89896 0.39395 0.0
O201 O 0.27446 0.83254 0.37652 0.0
H202 H 0.27054 0.90778 0.28458 0.0
H203 H 0.21899 0.87688 0.35159 0.0
H204 H 0.20593 0.87657 0.30678 0.0
H205 H 0.23178 0.89212 0.27291 0.0
H206 H 0.28302 0.90754 0.32962 0.0
H207 H 0.19751 0.95039 0.37665 0.0
H208 H 0.17664 0.93361 0.4138 0.0
O209 O 0.24795 0.86048 0.38267 0.0
C210 C 0.28471 0.87578 0.42695 0.0
C211 C 0.20161 0.90627 0.41933 0.0
C212 C 0.20432 0.93522 0.38627 0.0
N213 N 0.23355 0.90568 0.38991 0.0
C214 C 0.22224 0.89642 0.41044 0.0
C215 C 0.22491 0.92491 0.37792 0.0
C216 C 0.19261 0.92579 0.40712 0.0
C217 C 0.34257 0.87832 0.3656 0.0
N218 N 0.33388 0.86543 0.38528 0.0
C219 C 0.36336 0.89056 0.36838 0.0
C220 C 0.37525 0.88956 0.39152 0.0
C221 C 0.36626 0.8764 0.41153 0.0
C222 C 0.34541 0.86441 0.40806 0.0
C223 C 0.34801 0.79233 0.39563 0.0
C224 C 0.30587 0.80907 0.41319 0.0
C225 C 0.33847 0.81278 0.38587 0.0
N226 N 0.31772 0.82096 0.39477 0.0
C227 C 0.31487 0.78856 0.4234 0.0
C228 C 0.3361 0.78018 0.41454 0.0
C229 C 0.25355 0.83924 0.37979 0.0
C230 C 0.2591 0.90101 0.29917 0.0
C231 C 0.23038 0.88359 0.33696 0.0
C232 C 0.22286 0.88343 0.31163 0.0
C233 C 0.23736 0.89218 0.29264 0.0
N234 N 0.25174 0.89226 0.34322 0.0
C235 C 0.26603 0.90092 0.32472 0.0
Co236 Co 0.15109 0.69321 0.62039 0.0
Co237 Co 0.10928 0.73601 0.62597 0.0
O238 O 0.12276 0.70612 0.63538 0.0
C239 C 0.16053 0.69608 0.67534 0.0
O240 O 0.15142 0.71693 0.67428 0.0
C241 C 0.06965 0.70394 0.61675 0.0
O242 O 0.08347 0.69053 0.60331 0.0
O243 O 0.1113 0.72818 0.58906 0.0
O244 O 0.1406 0.70252 0.58549 0.0
H245 H 0.10368 0.81011 0.57576 0.0
H246 H 0.12196 0.66435 0.65459 0.0
O247 O 0.16205 0.68375 0.65522 0.0
H248 H 0.1236 0.62261 0.57243 0.0
H249 H 0.21427 0.63335 0.61153 0.0
H250 H 0.184 0.70818 0.58013 0.0
H251 H 0.14506 0.65933 0.57783 0.0
H252 H 0.17846 0.65011 0.62968 0.0
O253 O 0.07748 0.72221 0.6274 0.0
H254 H 0.12089 0.77257 0.58825 0.0
H255 H 0.0678 0.76266 0.64344 0.0
H256 H 0.21976 0.69197 0.56128 0.0
H257 H 0.10039 0.62756 0.6501 0.0
H258 H 0.23512 0.65429 0.57701 0.0
H259 H 0.10109 0.60646 0.60876 0.0
O260 O 0.1681 0.7232 0.6242 0.0
H261 H 0.09009 0.72014 0.71784 0.0
H262 H 0.12289 0.77704 0.65748 0.0
H263 H 0.12167 0.78637 0.70339 0.0
H264 H 0.10518 0.7578 0.73392 0.0
H265 H 0.09183 0.71143 0.67178 0.0
H266 H 0.04989 0.79998 0.63139 0.0
H267 H 0.06791 0.82403 0.5974 0.0
O268 O 0.14053 0.7507 0.6244 0.0
C269 C 0.12487 0.71545 0.57581 0.0
C270 C 0.09571 0.79983 0.59066 0.0
C271 C 0.06551 0.79413 0.62187 0.0
N272 N 0.09548 0.76555 0.6167 0.0
C273 C 0.10542 0.7786 0.59787 0.0
C274 C 0.0757 0.77299 0.62857 0.0
C275 C 0.07563 0.80762 0.60279 0.0
C276 C 0.12249 0.65517 0.6366 0.0
N277 N 0.13483 0.66393 0.61653 0.0
C278 C 0.11018 0.63439 0.63415 0.0
C279 C 0.11056 0.62258 0.61094 0.0
C280 C 0.12317 0.63163 0.59054 0.0
C281 C 0.13524 0.65247 0.59369 0.0
C282 C 0.20773 0.64976 0.60449 0.0
C283 C 0.1905 0.69171 0.58695 0.0
C284 C 0.18749 0.65935 0.61473 0.0
N285 N 0.17908 0.68001 0.60583 0.0
C286 C 0.21079 0.68265 0.57626 0.0
C287 C 0.21941 0.66152 0.58511 0.0
C288 C 0.16173 0.7444 0.62451 0.0
C289 C 0.09725 0.73276 0.70471 0.0
C290 C 0.11572 0.7645 0.67064 0.0
C291 C 0.11503 0.7699 0.69661 0.0
C292 C 0.10575 0.75387 0.71373 0.0
N293 N 0.10737 0.74374 0.66195 0.0
C294 C 0.09818 0.72797 0.67861 0.0
Co295 Co 0.3045 0.1456 0.63059 0.0
Co296 Co 0.26209 0.10328 0.62945 0.0
O297 O 0.29053 0.11677 0.64314 0.0
C298 C 0.29674 0.1534 0.6855 0.0
O299 O 0.2758 0.14527 0.68136 0.0
C300 C 0.29341 0.0619 0.6248 0.0
O301 O 0.30778 0.07381 0.6104 0.0
O302 O 0.27473 0.105 0.59423 0.0
O303 O 0.29811 0.13635 0.59413 0.0
H304 H 0.19546 0.09718 0.56791 0.0
H305 H 0.33065 0.11536 0.66625 0.0
O306 O 0.31101 0.15524 0.66696 0.0
H307 H 0.37882 0.11994 0.58862 0.0
H308 H 0.36454 0.2091 0.63066 0.0
H309 H 0.29284 0.1799 0.5904 0.0
H310 H 0.34164 0.14107 0.59127 0.0
H311 H 0.34647 0.17266 0.64545 0.0
O312 O 0.27525 0.0714 0.6339 0.0
H313 H 0.23102 0.11443 0.58604 0.0
H314 H 0.23309 0.06216 0.64317 0.0
H315 H 0.31042 0.21631 0.57485 0.0
H316 H 0.3678 0.09409 0.66449 0.0
H317 H 0.34653 0.23113 0.59504 0.0
H318 H 0.39214 0.09628 0.62544 0.0
O319 O 0.27419 0.16241 0.63202 0.0
H320 H 0.26551 0.08517 0.72316 0.0
H321 H 0.21734 0.11729 0.65383 0.0
H322 H 0.20197 0.11657 0.69774 0.0
H323 H 0.22612 0.10039 0.73276 0.0
H324 H 0.28031 0.08649 0.67902 0.0
H325 H 0.19765 0.04425 0.62554 0.0
H326 H 0.17853 0.06183 0.58769 0.0
O327 O 0.24784 0.13449 0.62504 0.0
C328 C 0.2874 0.11987 0.58268 0.0
C329 C 0.20358 0.0894 0.58446 0.0
C330 C 0.20483 0.05968 0.61678 0.0
N331 N 0.23401 0.08944 0.61577 0.0
C332 C 0.22368 0.09913 0.59485 0.0
C333 C 0.22492 0.06988 0.62665 0.0
C334 C 0.19411 0.06956 0.59555 0.0
C335 C 0.34123 0.11653 0.64927 0.0
N336 N 0.33405 0.12953 0.62895 0.0
C337 C 0.36221 0.10439 0.64835 0.0
C338 C 0.37585 0.10561 0.62642 0.0
C339 C 0.36838 0.11887 0.60575 0.0
C340 C 0.34729 0.13075 0.60734 0.0
C341 C 0.34882 0.2028 0.62168 0.0
C342 C 0.30863 0.18617 0.59916 0.0
C343 C 0.33849 0.18221 0.63001 0.0
N344 N 0.31873 0.1741 0.61866 0.0
C345 C 0.31847 0.20683 0.59033 0.0
C346 C 0.33872 0.21515 0.60168 0.0
C347 C 0.25344 0.15574 0.62777 0.0
C348 C 0.2548 0.0922 0.70805 0.0
C349 C 0.22799 0.11031 0.66897 0.0
C350 C 0.21917 0.10989 0.69379 0.0
C351 C 0.23271 0.10078 0.71343 0.0
N352 N 0.24969 0.10189 0.66385 0.0
C353 C 0.26305 0.09289 0.683 0.0
Co354 Co 0.84872 0.3228 0.62773 0.0
Co355 Co 0.88599 0.27577 0.62607 0.0
O356 O 0.87623 0.30589 0.63941 0.0
C357 C 0.84184 0.31694 0.68296 0.0
O358 O 0.84935 0.29561 0.67997 0.0
C359 C 0.92818 0.30458 0.61805 0.0
O360 O 0.91512 0.32036 0.60704 0.0
O361 O 0.88315 0.287 0.59032 0.0
O362 O 0.85605 0.3151 0.59145 0.0
H363 H 0.88112 0.20631 0.56828 0.0
H364 H 0.88247 0.34589 0.66208 0.0
O365 O 0.84062 0.33063 0.66392 0.0
H366 H 0.88134 0.39332 0.58376 0.0
H367 H 0.79218 0.38945 0.62866 0.0
H368 H 0.81205 0.31433 0.58909 0.0
H369 H 0.85627 0.35878 0.58766 0.0
H370 H 0.82691 0.36776 0.64252 0.0
O371 O 0.91914 0.28608 0.6269 0.0
H372 H 0.86873 0.24414 0.58565 0.0
H373 H 0.92513 0.24357 0.63788 0.0
H374 H 0.77727 0.33552 0.5745 0.0
H375 H 0.90771 0.3804 0.65907 0.0
H376 H 0.76714 0.37336 0.59434 0.0
H377 H 0.90727 0.40435 0.61966 0.0
O378 O 0.82883 0.29459 0.63026 0.0
H379 H 0.91116 0.28092 0.71771 0.0
H380 H 0.86938 0.23374 0.65398 0.0
H381 H 0.87178 0.22008 0.69849 0.0
H382 H 0.89281 0.24374 0.73071 0.0
H383 H 0.90815 0.29405 0.67302 0.0
H384 H 0.93826 0.20583 0.62093 0.0
H385 H 0.91613 0.1869 0.58595 0.0
O386 O 0.85325 0.26463 0.625 0.0
C387 C 0.86989 0.3017 0.57939 0.0
C388 C 0.89087 0.21435 0.58358 0.0
C389 C 0.92295 0.21409 0.61311 0.0
N390 N 0.89607 0.24595 0.6129 0.0
C391 C 0.88389 0.23573 0.59354 0.0
C392 C 0.91546 0.23548 0.6226 0.0
C393 C 0.91052 0.20348 0.59349 0.0
C394 C 0.88205 0.35634 0.64496 0.0
N395 N 0.86784 0.35041 0.62513 0.0
C396 C 0.89644 0.37581 0.64333 0.0
C397 C 0.89621 0.38922 0.62119 0.0
C398 C 0.88167 0.38304 0.60104 0.0
C399 C 0.86755 0.36344 0.60334 0.0
C400 C 0.79644 0.373 0.61983 0.0
C401 C 0.80783 0.33086 0.59769 0.0
C402 C 0.81605 0.36063 0.62763 0.0
N403 N 0.82159 0.3399 0.61647 0.0
C404 C 0.78808 0.34275 0.58941 0.0
C405 C 0.7824 0.36397 0.60057 0.0
C406 C 0.83289 0.27297 0.62758 0.0
C407 C 0.90201 0.27043 0.70383 0.0
C408 C 0.8785 0.24417 0.66789 0.0
C409 C 0.87985 0.23632 0.69306 0.0
C410 C 0.89167 0.24959 0.71112 0.0
N411 N 0.88867 0.26465 0.66089 0.0
C412 C 0.90034 0.27772 0.67848 0.0
Co413 Co 0.6923 0.85517 0.62605 0.0
Co414 Co 0.73241 0.89949 0.63181 0.0
O415 O 0.70327 0.88435 0.64079 0.0
C416 C 0.69522 0.84667 0.68116 0.0
O417 O 0.71556 0.85689 0.68008 0.0
C418 C 0.69797 0.93652 0.62085 0.0
O419 O 0.68616 0.92158 0.60708 0.0
O420 O 0.72555 0.89639 0.59477 0.0
O421 O 0.70152 0.86574 0.59117 0.0
H422 H 0.8071 0.90912 0.5834 0.0
H423 H 0.66118 0.88276 0.65943 0.0
O424 O 0.68315 0.84414 0.66096 0.0
H425 H 0.62092 0.87786 0.57653 0.0
H426 H 0.63643 0.78843 0.61739 0.0
H427 H 0.7097 0.8227 0.5865 0.0
H428 H 0.65886 0.85881 0.58281 0.0
H429 H 0.65081 0.8254 0.63519 0.0
O430 O 0.71645 0.93029 0.63232 0.0
H431 H 0.7705 0.88968 0.59528 0.0
H432 H 0.75586 0.94292 0.64903 0.0
H433 H 0.69586 0.78581 0.568 0.0
H434 H 0.62317 0.90191 0.65405 0.0
H435 H 0.65897 0.76844 0.58347 0.0
H436 H 0.60281 0.89956 0.61234 0.0
O437 O 0.72318 0.84007 0.63042 0.0
H438 H 0.71353 0.91892 0.72296 0.0
H439 H 0.77354 0.88891 0.66447 0.0
H440 H 0.78186 0.8913 0.71057 0.0
H441 H 0.75172 0.90638 0.74015 0.0
H442 H 0.70588 0.91605 0.67674 0.0
H443 H 0.79221 0.96304 0.63758 0.0
H444 H 0.81816 0.94608 0.60462 0.0
O445 O 0.74906 0.86918 0.63106 0.0
C446 C 0.7139 0.88191 0.5815 0.0
C447 C 0.79598 0.91664 0.59786 0.0
C448 C 0.78761 0.94692 0.62825 0.0
N449 N 0.76118 0.91503 0.62299 0.0
C450 C 0.77528 0.90567 0.60472 0.0
C451 C 0.76703 0.93546 0.63462 0.0
C452 C 0.80217 0.93739 0.60975 0.0
C453 C 0.65233 0.88151 0.64129 0.0
N454 N 0.66215 0.86958 0.62151 0.0
C455 C 0.63086 0.89246 0.63833 0.0
C456 C 0.61946 0.89115 0.61491 0.0
C457 C 0.62961 0.87899 0.59481 0.0
C458 C 0.65112 0.86828 0.59846 0.0
C459 C 0.6525 0.79585 0.61046 0.0
C460 C 0.69355 0.81532 0.5932 0.0
C461 C 0.66075 0.81674 0.62051 0.0
N462 N 0.68098 0.82626 0.61174 0.0
C463 C 0.68584 0.79439 0.58271 0.0
C464 C 0.66516 0.78464 0.59142 0.0
C465 C 0.74397 0.84765 0.63101 0.0
C466 C 0.72683 0.91239 0.71025 0.0
C467 C 0.76033 0.89547 0.67722 0.0
C468 C 0.76515 0.89682 0.7033 0.0
C469 C 0.74824 0.90531 0.71989 0.0
N470 N 0.73927 0.90241 0.66792 0.0
C471 C 0.72263 0.91082 0.68405 0.0
Co472 Co 0.85243 0.69373 0.63008 0.0
Co473 Co 0.88876 0.74147 0.62963 0.0
O474 O 0.87935 0.71115 0.64243 0.0
C475 C 0.84472 0.70041 0.68512 0.0
O476 O 0.85056 0.72207 0.68084 0.0
C477 C 0.9321 0.71368 0.6236 0.0
O478 O 0.92038 0.69776 0.61111 0.0
O479 O 0.88715 0.73009 0.59388 0.0
O480 O 0.86045 0.70151 0.59356 0.0
H481 H 0.88407 0.81085 0.57179 0.0
H482 H 0.886 0.6714 0.6653 0.0
O483 O 0.84403 0.68599 0.6666 0.0
H484 H 0.88716 0.62367 0.58716 0.0
H485 H 0.79716 0.62606 0.63038 0.0
H486 H 0.81656 0.70106 0.59029 0.0
H487 H 0.86142 0.65778 0.59036 0.0
H488 H 0.83109 0.64863 0.64497 0.0
O489 O 0.922 0.73185 0.63186 0.0
H490 H 0.87199 0.77276 0.5887 0.0
H491 H 0.92694 0.77443 0.64275 0.0
H492 H 0.7826 0.67898 0.57493 0.0
H493 H 0.91188 0.63733 0.66299 0.0
H494 H 0.77271 0.64119 0.59504 0.0
H495 H 0.9126 0.61324 0.62368 0.0
O496 O 0.83193 0.72156 0.63194 0.0
H497 H 0.91146 0.73673 0.72208 0.0
H498 H 0.87088 0.78333 0.65697 0.0
H499 H 0.87191 0.79708 0.70151 0.0
H500 H 0.89237 0.77373 0.73442 0.0
H501 H 0.90969 0.72345 0.67738 0.0
H502 H 0.93974 0.81245 0.62628 0.0
H503 H 0.91818 0.83096 0.59062 0.0
O504 O 0.85588 0.752 0.6275 0.0
C505 C 0.87455 0.71526 0.58218 0.0
C506 C 0.89356 0.803 0.58739 0.0
C507 C 0.92482 0.80389 0.61795 0.0
N508 N 0.89861 0.77148 0.61683 0.0
C509 C 0.88676 0.78147 0.59709 0.0
C510 C 0.91752 0.78233 0.62716 0.0
C511 C 0.91271 0.81426 0.59795 0.0
C512 C 0.88608 0.66088 0.64821 0.0
N513 N 0.87212 0.66649 0.62805 0.0
C514 C 0.90083 0.64166 0.64698 0.0
C515 C 0.90124 0.62817 0.62491 0.0
C516 C 0.88698 0.63402 0.6044 0.0
C517 C 0.87248 0.65338 0.60631 0.0
C518 C 0.80131 0.64248 0.62143 0.0
C519 C 0.81244 0.68456 0.599 0.0
C520 C 0.82046 0.65535 0.62965 0.0
N521 N 0.82587 0.67603 0.61834 0.0
C522 C 0.79316 0.67217 0.59029 0.0
C523 C 0.78761 0.65098 0.6016 0.0
C524 C 0.83563 0.74327 0.62952 0.0
C525 C 0.90255 0.74709 0.7079 0.0
C526 C 0.87968 0.773 0.67119 0.0
C527 C 0.88029 0.78092 0.69637 0.0
C528 C 0.8918 0.76783 0.71482 0.0
N529 N 0.89024 0.75262 0.66455 0.0
C530 C 0.90157 0.7397 0.68253 0.0
Co531 Co 0.32128 0.84409 0.62691 0.0
Co532 Co 0.276 0.88348 0.62606 0.0
O533 O 0.30591 0.87241 0.63875 0.0
C534 C 0.31663 0.83761 0.68272 0.0
O535 O 0.29558 0.84609 0.68049 0.0
C536 C 0.30625 0.92454 0.61659 0.0
O537 O 0.32086 0.91102 0.60438 0.0
O538 O 0.28629 0.87993 0.58996 0.0
O539 O 0.31307 0.85152 0.59062 0.0
H540 H 0.2051 0.88156 0.5702 0.0
H541 H 0.34666 0.87696 0.6603 0.0
O542 O 0.32964 0.83582 0.66311 0.0
H543 H 0.39223 0.87311 0.58074 0.0
H544 H 0.3853 0.78459 0.62653 0.0
H545 H 0.31024 0.80757 0.5889 0.0
H546 H 0.35664 0.84972 0.58579 0.0
H547 H 0.36555 0.82037 0.64065 0.0
O548 O 0.28787 0.91614 0.62649 0.0
H549 H 0.24267 0.86747 0.58666 0.0
H550 H 0.24598 0.92419 0.63837 0.0
H551 H 0.32948 0.77176 0.57406 0.0
H552 H 0.38224 0.90052 0.65615 0.0
H553 H 0.36729 0.76006 0.59292 0.0
H554 H 0.40526 0.89871 0.61611 0.0
O555 O 0.29225 0.82558 0.6304 0.0
H556 H 0.28433 0.90873 0.71739 0.0
H557 H 0.2338 0.86908 0.65514 0.0
H558 H 0.22124 0.87231 0.69998 0.0
H559 H 0.24658 0.89227 0.73145 0.0
H560 H 0.29633 0.9049 0.6724 0.0
H561 H 0.20853 0.93899 0.62232 0.0
H562 H 0.18779 0.91757 0.58806 0.0
O563 O 0.26329 0.85126 0.62551 0.0
C564 C 0.30007 0.86589 0.57873 0.0
C565 C 0.21393 0.891 0.58519 0.0
C566 C 0.21588 0.92326 0.61442 0.0
N567 N 0.24641 0.89489 0.6136 0.0
C568 C 0.23518 0.88308 0.59464 0.0
C569 C 0.2371 0.91482 0.6234 0.0
C570 C 0.20424 0.91122 0.5952 0.0
C571 C 0.3567 0.87595 0.64291 0.0
N572 N 0.34967 0.8619 0.62338 0.0
C573 C 0.37678 0.88939 0.64063 0.0
C574 C 0.38967 0.88838 0.61815 0.0
C575 C 0.38236 0.87403 0.59829 0.0
C576 C 0.36217 0.86086 0.60124 0.0
C577 C 0.36886 0.78952 0.61812 0.0
C578 C 0.32677 0.80267 0.59707 0.0
C579 C 0.35757 0.80973 0.62608 0.0
N580 N 0.33686 0.81612 0.61546 0.0
C581 C 0.33754 0.78234 0.58865 0.0
C582 C 0.35874 0.77577 0.59926 0.0
C583 C 0.27078 0.83057 0.62816 0.0
C584 C 0.27311 0.90005 0.70384 0.0
C585 C 0.24497 0.87771 0.66873 0.0
C586 C 0.23773 0.87955 0.69408 0.0
C587 C 0.25195 0.89077 0.71173 0.0
N588 N 0.26577 0.88683 0.66115 0.0
C589 C 0.27977 0.89792 0.67832 0.0
Co590 Co 0.14537 0.31009 0.62667 0.0
Co591 Co 0.1093 0.26233 0.63036 0.0
O592 O 0.11896 0.29329 0.64121 0.0
C593 C 0.15485 0.30807 0.68189 0.0
O594 O 0.14839 0.28625 0.68074 0.0
C595 C 0.06571 0.28956 0.62488 0.0
O596 O 0.07735 0.3053 0.61204 0.0
O597 O 0.1092 0.2721 0.59396 0.0
O598 O 0.1366 0.29982 0.59136 0.0
H599 H 0.11233 0.19058 0.57593 0.0
H600 H 0.11251 0.33453 0.66093 0.0
O601 O 0.15477 0.32056 0.6618 0.0
H602 H 0.10879 0.37665 0.57911 0.0
H603 H 0.19982 0.37812 0.61914 0.0
H604 H 0.18042 0.3001 0.5867 0.0
H605 H 0.13499 0.34311 0.58433 0.0
H606 H 0.16652 0.35643 0.63673 0.0
O607 O 0.076 0.27167 0.6336 0.0
H608 H 0.1246 0.22952 0.59014 0.0
H609 H 0.07229 0.22951 0.64728 0.0
H610 H 0.21373 0.32125 0.56839 0.0
H611 H 0.08618 0.3681 0.65661 0.0
H612 H 0.22362 0.36056 0.58463 0.0
H613 H 0.08417 0.38936 0.61544 0.0
O614 O 0.16616 0.28262 0.63035 0.0
H615 H 0.09066 0.27088 0.72356 0.0
H616 H 0.12928 0.22212 0.65887 0.0
H617 H 0.13059 0.21046 0.70412 0.0
H618 H 0.11118 0.23492 0.73682 0.0
H619 H 0.08996 0.28202 0.67812 0.0
H620 H 0.05932 0.19064 0.63353 0.0
H621 H 0.07946 0.17088 0.59769 0.0
O622 O 0.14222 0.25206 0.62704 0.0
C623 C 0.12189 0.28602 0.58115 0.0
C624 C 0.10346 0.19898 0.59162 0.0
C625 C 0.07369 0.19903 0.62394 0.0
N626 N 0.0993 0.23168 0.61965 0.0
C627 C 0.11037 0.221 0.5998 0.0
C628 C 0.08108 0.22105 0.6316 0.0
C629 C 0.08501 0.18794 0.60383 0.0
C630 C 0.11187 0.34383 0.64303 0.0
N631 N 0.12535 0.33696 0.62296 0.0
C632 C 0.09687 0.36276 0.64066 0.0
C633 C 0.09573 0.37467 0.61755 0.0
C634 C 0.10953 0.36754 0.59715 0.0
C635 C 0.1243 0.34851 0.60021 0.0
C636 C 0.19566 0.36102 0.61187 0.0
C637 C 0.18453 0.31726 0.59375 0.0
C638 C 0.17686 0.34865 0.62179 0.0
N639 N 0.17144 0.32711 0.6126 0.0
C640 C 0.20345 0.32912 0.58336 0.0
C641 C 0.209 0.35116 0.5925 0.0
C642 C 0.16248 0.26086 0.62854 0.0
C643 C 0.09912 0.26004 0.70948 0.0
C644 C 0.12084 0.23289 0.67298 0.0
C645 C 0.12159 0.22617 0.69857 0.0
C646 C 0.11067 0.23989 0.71691 0.0
N647 N 0.10949 0.25271 0.66584 0.0
C648 C 0.09869 0.2662 0.6837 0.0
Co649 Co 0.69218 0.15632 0.62242 0.0
Co650 Co 0.73479 0.11462 0.62796 0.0
O651 O 0.70536 0.12848 0.6381 0.0
C652 C 0.69542 0.16691 0.67732 0.0
O653 O 0.71675 0.15904 0.67578 0.0
C654 C 0.70343 0.07346 0.62417 0.0
O655 O 0.68998 0.08474 0.60818 0.0
O656 O 0.72478 0.11411 0.59167 0.0
O657 O 0.7015 0.14527 0.58734 0.0
H658 H 0.80576 0.10553 0.5731 0.0
H659 H 0.66362 0.12753 0.6573 0.0
O660 O 0.68273 0.16765 0.65736 0.0
H661 H 0.62169 0.12748 0.57524 0.0
H662 H 0.63179 0.21884 0.61271 0.0
H663 H 0.70668 0.18864 0.58138 0.0
H664 H 0.6583 0.14927 0.58008 0.0
H665 H 0.64895 0.1835 0.63148 0.0
O666 O 0.72143 0.08308 0.6335 0.0
H667 H 0.76894 0.12352 0.58676 0.0
H668 H 0.7628 0.07466 0.6471 0.0
H669 H 0.69006 0.22392 0.5619 0.0
H670 H 0.62697 0.10564 0.65335 0.0
H671 H 0.65234 0.23924 0.57758 0.0
H672 H 0.60578 0.10549 0.61207 0.0
O673 O 0.72211 0.17354 0.62572 0.0
H674 H 0.72463 0.10202 0.72219 0.0
H675 H 0.77749 0.13061 0.65515 0.0
H676 H 0.78959 0.13267 0.70023 0.0
H677 H 0.76307 0.11829 0.73411 0.0
H678 H 0.71311 0.10053 0.67689 0.0
H679 H 0.79947 0.05604 0.63397 0.0
H680 H 0.82126 0.07153 0.59678 0.0
O681 O 0.74912 0.14566 0.6226 0.0
C682 C 0.71303 0.12824 0.57802 0.0
C683 C 0.79647 0.09867 0.5894 0.0
C684 C 0.79293 0.07088 0.62354 0.0
N685 N 0.76384 0.10029 0.61784 0.0
C686 C 0.77565 0.10882 0.59727 0.0
C687 C 0.77215 0.08147 0.63086 0.0
C688 C 0.80515 0.07958 0.60267 0.0
C689 C 0.6544 0.12769 0.63933 0.0
N690 N 0.66302 0.13976 0.61899 0.0
C691 C 0.6337 0.1152 0.63718 0.0
C692 C 0.62183 0.1151 0.61401 0.0
C693 C 0.63076 0.12743 0.59333 0.0
C694 C 0.65152 0.1397 0.59617 0.0
C695 C 0.64821 0.21231 0.60568 0.0
C696 C 0.69019 0.19513 0.58819 0.0
C697 C 0.65803 0.19235 0.61628 0.0
N698 N 0.6787 0.18395 0.60739 0.0
C699 C 0.6809 0.21514 0.57714 0.0
C700 C 0.65975 0.22374 0.58596 0.0
C701 C 0.74316 0.16693 0.62366 0.0
C702 C 0.73637 0.10827 0.70759 0.0
C703 C 0.76582 0.12438 0.66978 0.0
C704 C 0.77279 0.12554 0.69527 0.0
C705 C 0.75792 0.11744 0.71427 0.0
N706 N 0.74463 0.11539 0.66337 0.0
C707 C 0.72998 0.10737 0.6819 0.0
Co708 Co 0.8538 0.31 0.38228 0.0
Co709 Co 0.89775 0.26922 0.37845 0.0
O710 O 0.88303 0.2983 0.36818 0.0
C711 C 0.84546 0.30657 0.32704 0.0
O712 O 0.85549 0.28615 0.32823 0.0
C713 C 0.93584 0.30294 0.38863 0.0
O714 O 0.92118 0.31549 0.40197 0.0
O715 O 0.89466 0.27741 0.41519 0.0
O716 O 0.86387 0.30138 0.41751 0.0
H717 H 0.906 0.19619 0.4301 0.0
H718 H 0.88236 0.33995 0.34865 0.0
O719 O 0.84316 0.3188 0.34714 0.0
H720 H 0.87689 0.3821 0.43036 0.0
H721 H 0.78778 0.36697 0.38905 0.0
H722 H 0.8207 0.29373 0.42174 0.0
H723 H 0.85728 0.34438 0.4247 0.0
H724 H 0.82471 0.35179 0.37198 0.0
O725 O 0.929 0.28452 0.37744 0.0
H726 H 0.88726 0.2327 0.41663 0.0
H727 H 0.94072 0.24433 0.36228 0.0
H728 H 0.78383 0.30838 0.43952 0.0
H729 H 0.90208 0.37774 0.3534 0.0
H730 H 0.76714 0.34525 0.42314 0.0
H731 H 0.89945 0.39905 0.39451 0.0
O732 O 0.83828 0.27922 0.37832 0.0
H733 H 0.91774 0.28466 0.28671 0.0
H734 H 0.88649 0.22721 0.34744 0.0
H735 H 0.88886 0.21731 0.30172 0.0
H736 H 0.90457 0.24616 0.27101 0.0
H737 H 0.91489 0.2939 0.33257 0.0
H738 H 0.96014 0.20804 0.3753 0.0
H739 H 0.94271 0.18365 0.40937 0.0
O740 O 0.86714 0.2531 0.37975 0.0
C741 C 0.88002 0.28943 0.42784 0.0
C742 C 0.91372 0.20662 0.41516 0.0
C743 C 0.94412 0.21329 0.38443 0.0
N744 N 0.91276 0.24051 0.38853 0.0
C745 C 0.90315 0.22728 0.40741 0.0
C746 C 0.93306 0.23384 0.37716 0.0
C747 C 0.93433 0.19961 0.40355 0.0
C748 C 0.881 0.34921 0.36653 0.0
N749 N 0.86861 0.34002 0.38634 0.0
C750 C 0.89226 0.37056 0.36914 0.0
C751 C 0.8908 0.38249 0.39222 0.0
C752 C 0.87816 0.37299 0.41235 0.0
C753 C 0.86714 0.35159 0.40905 0.0
C754 C 0.7949 0.3509 0.39637 0.0
C755 C 0.81361 0.30987 0.41464 0.0
C756 C 0.81577 0.3422 0.38674 0.0
N757 N 0.82491 0.32198 0.39599 0.0
C758 C 0.7927 0.31804 0.42472 0.0
C759 C 0.78333 0.33871 0.4155 0.0
C760 C 0.84565 0.25835 0.37891 0.0
C761 C 0.91093 0.27192 0.29991 0.0
C762 C 0.89333 0.23986 0.33419 0.0
C763 C 0.89467 0.23414 0.30833 0.0
C764 C 0.9035 0.25033 0.29111 0.0
N765 N 0.90063 0.26109 0.34267 0.0
C766 C 0.90938 0.27702 0.32592 0.0
Co767 Co 0.69099 0.84887 0.38065 0.0
Co768 Co 0.73326 0.89134 0.38323 0.0
O769 O 0.70441 0.87847 0.3695 0.0
C770 C 0.69532 0.84375 0.32485 0.0
O771 O 0.71604 0.85307 0.32684 0.0
C772 C 0.70124 0.93146 0.39203 0.0
O773 O 0.68683 0.91767 0.40416 0.0
O774 O 0.72193 0.88731 0.41886 0.0
O775 O 0.69881 0.85593 0.4169 0.0
H776 H 0.80197 0.89381 0.44226 0.0
H777 H 0.66335 0.88099 0.34861 0.0
O778 O 0.68274 0.84098 0.34458 0.0
H779 H 0.61843 0.87167 0.42807 0.0
H780 H 0.63111 0.78515 0.37995 0.0
H781 H 0.70488 0.81226 0.41737 0.0
H782 H 0.65545 0.85086 0.42206 0.0
H783 H 0.64821 0.82254 0.36674 0.0
O784 O 0.71978 0.92338 0.38219 0.0
H785 H 0.76593 0.87751 0.42422 0.0
H786 H 0.76156 0.93349 0.37169 0.0
H787 H 0.68831 0.77484 0.43128 0.0
H788 H 0.6263 0.902 0.35374 0.0
H789 H 0.65116 0.76107 0.41252 0.0
H790 H 0.6036 0.89743 0.39372 0.0
O791 O 0.72126 0.83245 0.37636 0.0
H792 H 0.72631 0.9157 0.29151 0.0
H793 H 0.77718 0.87941 0.35584 0.0
H794 H 0.79091 0.88323 0.31148 0.0
H795 H 0.76541 0.90151 0.27896 0.0
H796 H 0.71317 0.91131 0.33606 0.0
H797 H 0.79745 0.95049 0.3893 0.0
H798 H 0.81796 0.93057 0.42479 0.0
O799 O 0.74784 0.85994 0.38441 0.0
C800 C 0.7096 0.87158 0.42939 0.0
C801 C 0.79324 0.90262 0.42675 0.0
C802 C 0.79068 0.93444 0.39704 0.0
N803 N 0.76174 0.90443 0.3968 0.0
C804 C 0.77285 0.89343 0.41641 0.0
C805 C 0.77034 0.92475 0.38719 0.0
C806 C 0.80218 0.92325 0.41695 0.0
C807 C 0.65347 0.87879 0.36599 0.0
N808 N 0.66149 0.86464 0.38496 0.0
C809 C 0.63255 0.89078 0.36881 0.0
C810 C 0.61983 0.88823 0.39127 0.0
C811 C 0.62815 0.87379 0.41055 0.0
C812 C 0.64916 0.8621 0.40706 0.0
C813 C 0.64729 0.79099 0.3883 0.0
C814 C 0.68864 0.80644 0.40924 0.0
C815 C 0.65707 0.81212 0.38086 0.0
N816 N 0.67743 0.81964 0.39141 0.0
C817 C 0.67937 0.78522 0.41714 0.0
C818 C 0.65854 0.77749 0.40658 0.0
C819 C 0.74215 0.8389 0.38019 0.0
C820 C 0.73761 0.90775 0.30552 0.0
C821 C 0.76594 0.88729 0.34179 0.0
C822 C 0.77384 0.88947 0.31671 0.0
C823 C 0.75953 0.89975 0.29848 0.0
N824 N 0.7444 0.89516 0.34854 0.0
C825 C 0.7303 0.90531 0.33079 0.0
Co826 Co 0.14847 0.68329 0.3745 0.0
Co827 Co 0.10993 0.72928 0.37824 0.0
O828 O 0.12023 0.69965 0.36395 0.0
C829 C 0.15389 0.6891 0.31881 0.0
O830 O 0.14593 0.7103 0.32152 0.0
C831 C 0.06276 0.71463 0.39575 0.0
O832 O 0.06951 0.71824 0.41934 0.0
O833 O 0.11407 0.71734 0.41357 0.0
O834 O 0.14219 0.69045 0.41109 0.0
H835 H 0.11349 0.79732 0.43813 0.0
H836 H 0.11425 0.65953 0.34132 0.0
O837 O 0.15568 0.67573 0.33806 0.0
H838 H 0.11972 0.61122 0.41878 0.0
H839 H 0.20677 0.61821 0.37105 0.0
H840 H 0.18617 0.69267 0.41165 0.0
H841 H 0.14333 0.64673 0.41445 0.0
H842 H 0.17101 0.63893 0.35868 0.0
O843 O 0.0769 0.71755 0.37724 0.0
H844 H 0.12674 0.76034 0.41938 0.0
H845 H 0.06993 0.76084 0.3677 0.0
H846 H 0.22199 0.67243 0.42475 0.0
H847 H 0.09046 0.62402 0.34474 0.0
H848 H 0.23249 0.63492 0.40438 0.0
H849 H 0.0931 0.59962 0.38371 0.0
O850 O 0.16734 0.71209 0.37142 0.0
H851 H 0.08356 0.72548 0.28689 0.0
H852 H 0.1249 0.77237 0.35123 0.0
H853 H 0.12143 0.78699 0.30718 0.0
H854 H 0.10061 0.7635 0.27467 0.0
H855 H 0.08765 0.71139 0.33111 0.0
H856 H 0.05597 0.79776 0.38599 0.0
H857 H 0.07784 0.81627 0.42143 0.0
O858 O 0.14254 0.74142 0.37897 0.0
C859 C 0.1282 0.7031 0.42383 0.0
C860 C 0.10383 0.78946 0.42266 0.0
C861 C 0.07154 0.78969 0.39341 0.0
N862 N 0.09919 0.75852 0.39239 0.0
C863 C 0.11128 0.76854 0.41193 0.0
C864 C 0.07951 0.76878 0.38315 0.0
C865 C 0.08382 0.80007 0.41329 0.0
C866 C 0.11558 0.64891 0.35826 0.0
N867 N 0.13022 0.65513 0.3776 0.0
C868 C 0.10203 0.62887 0.36012 0.0
C869 C 0.1035 0.6152 0.38201 0.0
C870 C 0.11842 0.6217 0.40169 0.0
C871 C 0.1317 0.64187 0.39917 0.0
C872 C 0.20235 0.63451 0.3801 0.0
C873 C 0.19054 0.67627 0.40283 0.0
C874 C 0.18215 0.64635 0.37315 0.0
N875 N 0.17642 0.66689 0.38459 0.0
C876 C 0.21088 0.66493 0.41027 0.0
C877 C 0.21677 0.6439 0.39881 0.0
C878 C 0.16298 0.73355 0.37507 0.0
C879 C 0.09261 0.73591 0.30091 0.0
C880 C 0.11587 0.762 0.33719 0.0
C881 C 0.11391 0.77041 0.31228 0.0
C882 C 0.10221 0.75722 0.29405 0.0
N883 N 0.10639 0.74109 0.34378 0.0
C884 C 0.09487 0.72808 0.32601 0.0
Co885 Co 0.3232 0.15086 0.3817 0.0
Co886 Co 0.27636 0.11343 0.38447 0.0
O887 O 0.30645 0.12298 0.37088 0.0
C888 C 0.31776 0.15593 0.32581 0.0
O889 O 0.29648 0.1483 0.32883 0.0
C890 C 0.30525 0.07139 0.39383 0.0
O891 O 0.3206 0.08466 0.40527 0.0
O892 O 0.28765 0.1171 0.42013 0.0
O893 O 0.31536 0.14458 0.41846 0.0
H894 H 0.20692 0.11923 0.44216 0.0
H895 H 0.3466 0.11621 0.34874 0.0
O896 O 0.3312 0.15794 0.34506 0.0
H897 H 0.39371 0.11998 0.42722 0.0
H898 H 0.38957 0.20769 0.37901 0.0
H899 H 0.31439 0.18863 0.41891 0.0
H900 H 0.35903 0.1447 0.42224 0.0
H901 H 0.36812 0.17243 0.36635 0.0
O902 O 0.28687 0.08023 0.38437 0.0
H903 H 0.2447 0.13141 0.42447 0.0
H904 H 0.24434 0.07391 0.3737 0.0
H905 H 0.33533 0.22396 0.43232 0.0
H906 H 0.38125 0.0913 0.35283 0.0
H907 H 0.3732 0.23368 0.4123 0.0
H908 H 0.40504 0.09307 0.39233 0.0
O909 O 0.29494 0.17048 0.37821 0.0
H910 H 0.28138 0.08624 0.29352 0.0
H911 H 0.23427 0.12939 0.3562 0.0
H912 H 0.22053 0.12597 0.31178 0.0
H913 H 0.24415 0.10426 0.2801 0.0
H914 H 0.2946 0.09028 0.33808 0.0
H915 H 0.20665 0.06099 0.39099 0.0
H916 H 0.18765 0.08378 0.4254 0.0
O917 O 0.26502 0.14625 0.38472 0.0
C918 C 0.30211 0.13078 0.43086 0.0
C919 C 0.21499 0.1092 0.42711 0.0
C920 C 0.21485 0.0765 0.39841 0.0
N921 N 0.2466 0.1035 0.39792 0.0
C922 C 0.23634 0.11605 0.41697 0.0
C923 C 0.23621 0.08387 0.38873 0.0
C924 C 0.20419 0.08929 0.41771 0.0
C925 C 0.35698 0.1172 0.36589 0.0
N926 N 0.35089 0.13197 0.38516 0.0
C927 C 0.37653 0.103 0.36814 0.0
C928 C 0.38986 0.10398 0.39032 0.0
C929 C 0.3835 0.11907 0.40991 0.0
C930 C 0.36382 0.13299 0.407 0.0
C931 C 0.37311 0.20361 0.38792 0.0
C932 C 0.33094 0.19267 0.41026 0.0
C933 C 0.36087 0.1837 0.38079 0.0
N934 N 0.34013 0.1784 0.39204 0.0
C935 C 0.34268 0.21273 0.41786 0.0
C936 C 0.36392 0.21819 0.4066 0.0
C937 C 0.27334 0.16652 0.38119 0.0
C938 C 0.27091 0.09569 0.30717 0.0
C939 C 0.24469 0.11997 0.34251 0.0
C940 C 0.23679 0.11804 0.3174 0.0
C941 C 0.25004 0.10584 0.29964 0.0
N942 N 0.26519 0.10998 0.34974 0.0
C943 C 0.27825 0.09793 0.33245 0.0
Co944 Co 0.65242 0.81687 0.87932 0.0
Co945 Co 0.61434 0.77074 0.87376 0.0
O946 O 0.62532 0.80161 0.8644 0.0
C947 C 0.66212 0.81405 0.82443 0.0
O948 O 0.65459 0.7926 0.82588 0.0
C949 C 0.57336 0.8005 0.88343 0.0
O950 O 0.58705 0.81479 0.89588 0.0
O951 O 0.61624 0.77837 0.9107 0.0
O952 O 0.64267 0.80696 0.91431 0.0
H953 H 0.61531 0.69592 0.92304 0.0
H954 H 0.6213 0.84313 0.84469 0.0
O955 O 0.66265 0.82677 0.84434 0.0
H956 H 0.61896 0.8852 0.92662 0.0
H957 H 0.71043 0.8818 0.88764 0.0
H958 H 0.68634 0.80504 0.91986 0.0
H959 H 0.64337 0.8503 0.92162 0.0
H960 H 0.6762 0.86194 0.86956 0.0
O961 O 0.5816 0.78226 0.87307 0.0
H962 H 0.62935 0.73481 0.91078 0.0
H963 H 0.57466 0.74124 0.85685 0.0
H964 H 0.72055 0.82436 0.93866 0.0
H965 H 0.59679 0.87807 0.84879 0.0
H966 H 0.73279 0.86302 0.92252 0.0
H967 H 0.59548 0.89932 0.89001 0.0
O968 O 0.67179 0.78838 0.87589 0.0
H969 H 0.59275 0.78566 0.78233 0.0
H970 H 0.6307 0.73114 0.84171 0.0
H971 H 0.62963 0.72203 0.79574 0.0
H972 H 0.61056 0.74941 0.7657 0.0
H973 H 0.59437 0.79417 0.82844 0.0
H974 H 0.55989 0.7025 0.86869 0.0
H975 H 0.58033 0.67953 0.90193 0.0
O976 O 0.64672 0.75856 0.87474 0.0
C977 C 0.62846 0.79237 0.92397 0.0
C978 C 0.6063 0.70573 0.90846 0.0
C979 C 0.57518 0.70943 0.87798 0.0
N980 N 0.60297 0.74017 0.88295 0.0
C981 C 0.61421 0.72772 0.90139 0.0
C982 C 0.5836 0.73137 0.87139 0.0
C983 C 0.58666 0.69655 0.89663 0.0
C984 C 0.62097 0.85241 0.86261 0.0
N985 N 0.63384 0.84477 0.88284 0.0
C986 C 0.607 0.87212 0.86485 0.0
C987 C 0.60625 0.88402 0.888 0.0
C988 C 0.61941 0.8761 0.90855 0.0
C989 C 0.63316 0.85631 0.90562 0.0
C990 C 0.70524 0.86497 0.89486 0.0
C991 C 0.69149 0.82193 0.91286 0.0
C992 C 0.68592 0.85363 0.88466 0.0
N993 N 0.6792 0.83245 0.89379 0.0
C994 C 0.71091 0.83275 0.92352 0.0
C995 C 0.71778 0.85443 0.91444 0.0
C996 C 0.6673 0.76672 0.87511 0.0
C997 C 0.60104 0.77356 0.79524 0.0
C998 C 0.62238 0.74315 0.82876 0.0
C999 C 0.62179 0.73788 0.80275 0.0
C1000 C 0.61107 0.75324 0.78592 0.0
N1001 N 0.61252 0.76313 0.83776 0.0
C1002 C 0.60192 0.77824 0.82137 0.0
Co1003 Co 0.18259 0.65176 0.87386 0.0
Co1004 Co 0.22984 0.61525 0.87813 0.0
O1005 O 0.20046 0.62466 0.86255 0.0
C1006 C 0.18903 0.65968 0.81874 0.0
O1007 O 0.21068 0.65313 0.82177 0.0
C1008 C 0.20405 0.57016 0.88118 0.0
O1009 O 0.18726 0.58026 0.89401 0.0
O1010 O 0.21554 0.61552 0.91274 0.0
O1011 O 0.18965 0.64464 0.91035 0.0
H1012 H 0.29381 0.6191 0.94322 0.0
H1013 H 0.16118 0.61729 0.83913 0.0
O1014 O 0.17511 0.65972 0.83762 0.0
H1015 H 0.11168 0.61778 0.91592 0.0
H1016 H 0.11464 0.70672 0.87161 0.0
H1017 H 0.18955 0.68861 0.91265 0.0
H1018 H 0.14573 0.64361 0.9129 0.0
H1019 H 0.13735 0.67252 0.85817 0.0
O1020 O 0.22146 0.58185 0.87353 0.0
H1021 H 0.25708 0.63105 0.92291 0.0
H1022 H 0.26484 0.57842 0.86675 0.0
H1023 H 0.1673 0.72286 0.92684 0.0
H1024 H 0.12718 0.59128 0.84125 0.0
H1025 H 0.12956 0.73211 0.90626 0.0
H1026 H 0.10219 0.5914 0.87989 0.0
O1027 O 0.2105 0.67221 0.8719 0.0
H1028 H 0.23336 0.59595 0.7847 0.0
H1029 H 0.27333 0.63509 0.85596 0.0
H1030 H 0.2907 0.63606 0.81298 0.0
H1031 H 0.2707 0.61636 0.77698 0.0
H1032 H 0.21645 0.59564 0.82794 0.0
H1033 H 0.30157 0.56579 0.88658 0.0
H1034 H 0.31633 0.58624 0.92503 0.0
O1035 O 0.23945 0.64817 0.8827 0.0
C1036 C 0.20129 0.62971 0.92301 0.0
C1037 C 0.2876 0.61009 0.92642 0.0
C1038 C 0.29194 0.58015 0.89465 0.0
N1039 N 0.2589 0.60556 0.89356 0.0
C1040 C 0.26684 0.61681 0.9148 0.0
C1041 C 0.2711 0.58735 0.88354 0.0
C1042 C 0.30021 0.59164 0.91622 0.0
C1043 C 0.15029 0.61754 0.85592 0.0
N1044 N 0.15538 0.632 0.87582 0.0
C1045 C 0.1311 0.60273 0.85705 0.0
C1046 C 0.11711 0.60279 0.87875 0.0
C1047 C 0.12243 0.61757 0.89898 0.0
C1048 C 0.14177 0.63212 0.89719 0.0
C1049 C 0.13104 0.70285 0.88075 0.0
C1050 C 0.17307 0.69244 0.90371 0.0
C1051 C 0.144 0.68354 0.87319 0.0
N1052 N 0.16467 0.67849 0.88475 0.0
C1053 C 0.16058 0.71189 0.91178 0.0
C1054 C 0.13942 0.71708 0.9002 0.0
C1055 C 0.23158 0.66838 0.87799 0.0
C1056 C 0.24227 0.60455 0.80024 0.0
C1057 C 0.26445 0.62657 0.84039 0.0
C1058 C 0.27442 0.62711 0.8161 0.0
C1059 C 0.2632 0.61604 0.79592 0.0
N1060 N 0.2439 0.61529 0.84447 0.0
C1061 C 0.23284 0.60434 0.82479 0.0
Co1062 Co 0.34683 0.19322 0.8747 0.0
Co1063 Co 0.39172 0.23261 0.88183 0.0
O1064 O 0.37785 0.20498 0.86649 0.0
C1065 C 0.34576 0.20085 0.81877 0.0
O1066 O 0.35626 0.22069 0.8231 0.0
C1067 C 0.42838 0.19817 0.89592 0.0
O1068 O 0.41285 0.18618 0.90866 0.0
O1069 O 0.38366 0.22158 0.91682 0.0
O1070 O 0.35237 0.1986 0.91205 0.0
H1071 H 0.39479 0.30081 0.94155 0.0
H1072 H 0.37874 0.16503 0.84294 0.0
O1073 O 0.34061 0.18752 0.83736 0.0
H1074 H 0.36175 0.11683 0.91843 0.0
H1075 H 0.2793 0.13836 0.86532 0.0
H1076 H 0.30923 0.20756 0.90996 0.0
H1077 H 0.34403 0.15557 0.91367 0.0
H1078 H 0.31849 0.1534 0.8559 0.0
O1079 O 0.42255 0.2164 0.88373 0.0
H1080 H 0.37714 0.2663 0.9215 0.0
H1081 H 0.43696 0.25715 0.87516 0.0
H1082 H 0.27 0.19302 0.92011 0.0
H1083 H 0.39671 0.1263 0.84682 0.0
H1084 H 0.25481 0.15817 0.8977 0.0
H1085 H 0.38826 0.10193 0.88481 0.0
O1086 O 0.33274 0.22473 0.87146 0.0
H1087 H 0.42302 0.22401 0.79285 0.0
H1088 H 0.38591 0.27748 0.85398 0.0
H1089 H 0.39459 0.29104 0.81039 0.0
H1090 H 0.41331 0.26422 0.77949 0.0
H1091 H 0.41382 0.21109 0.83657 0.0
H1092 H 0.45532 0.29146 0.89485 0.0
H1093 H 0.43416 0.31359 0.92823 0.0
O1094 O 0.36162 0.2497 0.88002 0.0
C1095 C 0.36733 0.20906 0.92593 0.0
C1096 C 0.40415 0.29136 0.92696 0.0
C1097 C 0.43814 0.28609 0.90077 0.0
N1098 N 0.40592 0.25984 0.89704 0.0
C1099 C 0.39422 0.27185 0.91549 0.0
C1100 C 0.42767 0.26665 0.88973 0.0
C1101 C 0.42625 0.2985 0.9195 0.0
C1102 C 0.37486 0.15445 0.85943 0.0
N1103 N 0.36027 0.16249 0.87798 0.0
C1104 C 0.38514 0.13257 0.86156 0.0
C1105 C 0.38041 0.11892 0.8829 0.0
C1106 C 0.36555 0.12727 0.90177 0.0
C1107 C 0.35561 0.14924 0.899 0.0
C1108 C 0.28574 0.15353 0.87525 0.0
C1109 C 0.30278 0.1923 0.90026 0.0
C1110 C 0.3079 0.16215 0.86996 0.0
N1111 N 0.31618 0.18124 0.88251 0.0
C1112 C 0.28054 0.18419 0.90603 0.0
C1113 C 0.27201 0.16465 0.89342 0.0
C1114 C 0.34038 0.24524 0.87523 0.0
C1115 C 0.41491 0.23587 0.80616 0.0
C1116 C 0.39396 0.26567 0.84062 0.0
C1117 C 0.3989 0.27348 0.81598 0.0
C1118 C 0.40942 0.25843 0.79866 0.0
N1119 N 0.39938 0.24352 0.84783 0.0
C1120 C 0.40975 0.22868 0.83097 0.0
Co1121 Co 0.81148 0.35275 0.88246 0.0
Co1122 Co 0.76266 0.3874 0.87827 0.0
O1123 O 0.79391 0.37853 0.86774 0.0
C1124 C 0.80854 0.34267 0.82774 0.0
O1125 O 0.78655 0.34835 0.82966 0.0
C1126 C 0.78924 0.43132 0.88423 0.0
O1127 O 0.80492 0.41992 0.89742 0.0
O1128 O 0.77204 0.38746 0.91479 0.0
O1129 O 0.80142 0.36183 0.91762 0.0
H1130 H 0.69035 0.38257 0.93163 0.0
H1131 H 0.83469 0.38572 0.84728 0.0
O1132 O 0.82162 0.34319 0.84734 0.0
H1133 H 0.87781 0.39149 0.92835 0.0
H1134 H 0.8808 0.29995 0.88977 0.0
H1135 H 0.80287 0.31815 0.92326 0.0
H1136 H 0.84481 0.36446 0.92408 0.0
H1137 H 0.85811 0.33248 0.87195 0.0
O1138 O 0.77149 0.42085 0.87538 0.0
H1139 H 0.72967 0.37112 0.91782 0.0
H1140 H 0.72941 0.42399 0.86134 0.0
H1141 H 0.82503 0.28561 0.94181 0.0
H1142 H 0.8677 0.41285 0.85065 0.0
H1143 H 0.8643 0.27634 0.92503 0.0
H1144 H 0.88947 0.4159 0.89144 0.0
O1145 O 0.78447 0.3313 0.87959 0.0
H1146 H 0.77185 0.40677 0.78532 0.0
H1147 H 0.72311 0.36691 0.84909 0.0
H1148 H 0.71195 0.36566 0.80368 0.0
H1149 H 0.7364 0.38569 0.77144 0.0
H1150 H 0.78251 0.40738 0.8309 0.0
H1151 H 0.69017 0.43616 0.87468 0.0
H1152 H 0.67034 0.41532 0.90999 0.0
O1153 O 0.75302 0.35424 0.88118 0.0
C1154 C 0.78677 0.37576 0.92767 0.0
C1155 C 0.69878 0.39174 0.91616 0.0
C1156 C 0.69869 0.42183 0.88422 0.0
N1157 N 0.73172 0.39674 0.88865 0.0
C1158 C 0.721 0.38529 0.90821 0.0
C1159 C 0.72092 0.4149 0.87678 0.0
C1160 C 0.68757 0.41013 0.90403 0.0
C1161 C 0.84421 0.38681 0.86502 0.0
N1162 N 0.83792 0.37344 0.88541 0.0
C1163 C 0.86283 0.40226 0.86685 0.0
C1164 C 0.87502 0.40398 0.88975 0.0
C1165 C 0.86847 0.3903 0.91047 0.0
C1166 C 0.84975 0.37506 0.90796 0.0
C1167 C 0.86373 0.30385 0.89727 0.0
C1168 C 0.82 0.3143 0.91598 0.0
C1169 C 0.85079 0.32221 0.88722 0.0
N1170 N 0.82927 0.3273 0.8967 0.0
C1171 C 0.83244 0.29582 0.9265 0.0
C1172 C 0.85446 0.29061 0.91706 0.0
C1173 C 0.76255 0.33428 0.88051 0.0
C1174 C 0.76101 0.39804 0.7992 0.0
C1175 C 0.73387 0.37563 0.83518 0.0
C1176 C 0.72743 0.3749 0.8095 0.0
C1177 C 0.74114 0.38617 0.79142 0.0
N1178 N 0.75341 0.38727 0.84266 0.0
C1179 C 0.7669 0.39842 0.82505 0.0
Co1180 Co 0.64985 0.19536 0.1284 0.0
Co1181 Co 0.60759 0.23799 0.12829 0.0
O1182 O 0.62075 0.20894 0.14066 0.0
C1183 C 0.656 0.20209 0.18369 0.0
O1184 O 0.64744 0.2229 0.17983 0.0
C1185 C 0.56875 0.20486 0.11967 0.0
O1186 O 0.58332 0.19086 0.10806 0.0
O1187 O 0.61136 0.22771 0.09238 0.0
O1188 O 0.6411 0.20233 0.09192 0.0
H1189 H 0.60382 0.30847 0.07197 0.0
H1190 H 0.61919 0.16843 0.16294 0.0
O1191 O 0.65887 0.18831 0.16485 0.0
H1192 H 0.62512 0.12173 0.08432 0.0
H1193 H 0.71364 0.13565 0.12854 0.0
H1194 H 0.68473 0.20783 0.08912 0.0
H1195 H 0.64606 0.15893 0.08819 0.0
H1196 H 0.67686 0.1533 0.14296 0.0
O1197 O 0.57583 0.22397 0.12912 0.0
H1198 H 0.6207 0.27207 0.08842 0.0
H1199 H 0.56516 0.26528 0.14122 0.0
H1200 H 0.72149 0.19069 0.07396 0.0
H1201 H 0.5981 0.13124 0.15996 0.0
H1202 H 0.73617 0.15434 0.09373 0.0
H1203 H 0.60097 0.10765 0.12041 0.0
O1204 O 0.66652 0.22567 0.1308 0.0
H1205 H 0.58377 0.22831 0.21988 0.0
H1206 H 0.61952 0.28112 0.1571 0.0
H1207 H 0.61579 0.29361 0.20193 0.0
H1208 H 0.59776 0.26713 0.23366 0.0
H1209 H 0.5881 0.2164 0.17492 0.0
H1210 H 0.54758 0.30151 0.1252 0.0
H1211 H 0.56699 0.32341 0.09039 0.0
O1212 O 0.63883 0.25285 0.12721 0.0
C1213 C 0.62555 0.21447 0.08062 0.0
C1214 C 0.59524 0.29913 0.08721 0.0
C1215 C 0.56366 0.29521 0.11706 0.0
N1216 N 0.59405 0.26669 0.11592 0.0
C1217 C 0.60475 0.27855 0.09665 0.0
C1218 C 0.57368 0.27469 0.12603 0.0
C1219 C 0.57457 0.30749 0.09753 0.0
C1220 C 0.62067 0.15817 0.14576 0.0
N1221 N 0.63394 0.16577 0.12583 0.0
C1222 C 0.60863 0.13717 0.14414 0.0
C1223 C 0.61022 0.12395 0.12193 0.0
C1224 C 0.62376 0.13185 0.10167 0.0
C1225 C 0.63554 0.15294 0.10395 0.0
C1226 C 0.70741 0.15147 0.11975 0.0
C1227 C 0.69094 0.19193 0.09769 0.0
C1228 C 0.68663 0.16156 0.12787 0.0
N1229 N 0.6786 0.18146 0.11675 0.0
C1230 C 0.7118 0.18234 0.08909 0.0
C1231 C 0.72003 0.16196 0.10021 0.0
C1232 C 0.66005 0.24678 0.12896 0.0
C1233 C 0.59158 0.24003 0.20622 0.0
C1234 C 0.61174 0.26946 0.17081 0.0
C1235 C 0.60962 0.27666 0.19616 0.0
C1236 C 0.59948 0.2618 0.21395 0.0
N1237 N 0.60396 0.24808 0.16339 0.0
C1238 C 0.59399 0.23342 0.18072 0.0
Co1239 Co 0.80424 0.64908 0.12498 0.0
Co1240 Co 0.76031 0.6085 0.12814 0.0
O1241 O 0.79009 0.62104 0.13938 0.0
C1242 C 0.80211 0.65771 0.18063 0.0
O1243 O 0.78081 0.64969 0.17969 0.0
C1244 C 0.78992 0.56597 0.12288 0.0
O1245 O 0.80436 0.57744 0.10813 0.0
O1246 O 0.77087 0.60881 0.09203 0.0
O1247 O 0.79467 0.6397 0.08943 0.0
H1248 H 0.68998 0.60398 0.0716 0.0
H1249 H 0.83181 0.61812 0.15851 0.0
O1250 O 0.8142 0.659 0.16027 0.0
H1251 H 0.87379 0.61971 0.07651 0.0
H1252 H 0.86671 0.70986 0.11771 0.0
H1253 H 0.79069 0.68341 0.08556 0.0
H1254 H 0.83793 0.64251 0.08233 0.0
H1255 H 0.84845 0.67444 0.13497 0.0
O1256 O 0.77231 0.57611 0.13247 0.0
H1257 H 0.72724 0.62004 0.08668 0.0
H1258 H 0.7304 0.5691 0.14518 0.0
H1259 H 0.8084 0.71882 0.0676 0.0
H1260 H 0.86772 0.59519 0.15359 0.0
H1261 H 0.84669 0.73226 0.08369 0.0
H1262 H 0.88894 0.59587 0.11233 0.0
O1263 O 0.77487 0.66714 0.12911 0.0
H1264 H 0.76856 0.59212 0.22186 0.0
H1265 H 0.71784 0.62516 0.15531 0.0
H1266 H 0.70517 0.62606 0.20024 0.0
H1267 H 0.73061 0.60944 0.23388 0.0
H1268 H 0.78067 0.59181 0.17671 0.0
H1269 H 0.69326 0.55238 0.13061 0.0
H1270 H 0.67275 0.56989 0.09362 0.0
O1271 O 0.74713 0.64029 0.12384 0.0
C1272 C 0.78303 0.62321 0.07919 0.0
C1273 C 0.69872 0.59623 0.08779 0.0
C1274 C 0.70057 0.56726 0.12089 0.0
N1275 N 0.73089 0.59564 0.11691 0.0
C1276 C 0.71979 0.60529 0.09646 0.0
C1277 C 0.72162 0.57678 0.12902 0.0
C1278 C 0.68907 0.5771 0.10014 0.0
C1279 C 0.84105 0.61864 0.14057 0.0
N1280 N 0.83285 0.63173 0.12079 0.0
C1281 C 0.86133 0.60556 0.13787 0.0
C1282 C 0.87321 0.60593 0.1147 0.0
C1283 C 0.86471 0.61929 0.09459 0.0
C1284 C 0.84437 0.63212 0.09798 0.0
C1285 C 0.85004 0.70416 0.11051 0.0
C1286 C 0.80742 0.68908 0.09254 0.0
C1287 C 0.8396 0.68415 0.12025 0.0
N1288 N 0.81861 0.67679 0.11114 0.0
C1289 C 0.81733 0.70917 0.08236 0.0
C1290 C 0.8388 0.71671 0.09141 0.0
C1291 C 0.75368 0.66132 0.12616 0.0
C1292 C 0.75729 0.59935 0.20737 0.0
C1293 C 0.72905 0.61798 0.16983 0.0
C1294 C 0.72175 0.61847 0.19524 0.0
C1295 C 0.73602 0.60912 0.2141 0.0
N1296 N 0.74996 0.60841 0.16338 0.0
C1297 C 0.76401 0.59913 0.18176 0.0
Co1298 Co 0.34982 0.80589 0.1285 0.0
Co1299 Co 0.39284 0.76436 0.12564 0.0
O1300 O 0.37936 0.79267 0.1402 0.0
C1301 C 0.34305 0.80242 0.18481 0.0
O1302 O 0.35271 0.78179 0.18411 0.0
C1303 C 0.43538 0.7944 0.11885 0.0
O1304 O 0.42429 0.808 0.10285 0.0
O1305 O 0.3903 0.77723 0.09035 0.0
O1306 O 0.35745 0.79814 0.09223 0.0
H1307 H 0.39792 0.69833 0.0632 0.0
H1308 H 0.38127 0.83376 0.16104 0.0
O1309 O 0.3411 0.81436 0.16445 0.0
H1310 H 0.37254 0.87874 0.08155 0.0
H1311 H 0.28557 0.86522 0.12757 0.0
H1312 H 0.31384 0.79143 0.0913 0.0
H1313 H 0.352 0.84153 0.08716 0.0
H1314 H 0.32293 0.84858 0.14156 0.0
O1315 O 0.42491 0.77753 0.12959 0.0
H1316 H 0.38086 0.73359 0.08222 0.0
H1317 H 0.43436 0.73538 0.13801 0.0
H1318 H 0.27647 0.80754 0.07661 0.0
H1319 H 0.40201 0.87102 0.15634 0.0
H1320 H 0.26211 0.84469 0.09479 0.0
H1321 H 0.39773 0.89375 0.11634 0.0
O1322 O 0.33377 0.7754 0.13259 0.0
H1323 H 0.41276 0.76721 0.21893 0.0
H1324 H 0.37996 0.71918 0.14988 0.0
H1325 H 0.3818 0.70344 0.19357 0.0
H1326 H 0.39835 0.7275 0.22846 0.0
H1327 H 0.41032 0.78237 0.175 0.0
H1328 H 0.45208 0.70024 0.11947 0.0
H1329 H 0.43379 0.68142 0.08184 0.0
O1330 O 0.36149 0.74986 0.12191 0.0
C1331 C 0.37395 0.78868 0.07972 0.0
C1332 C 0.40602 0.70633 0.07964 0.0
C1333 C 0.43643 0.70743 0.11119 0.0
N1334 N 0.40651 0.73646 0.1113 0.0
C1335 C 0.39641 0.72627 0.09053 0.0
C1336 C 0.42634 0.72736 0.12157 0.0
C1337 C 0.42615 0.69687 0.09009 0.0
C1338 C 0.37922 0.84364 0.14365 0.0
N1339 N 0.36538 0.83553 0.12444 0.0
C1340 C 0.39105 0.86469 0.14106 0.0
C1341 C 0.38866 0.87742 0.1186 0.0
C1342 C 0.37454 0.86901 0.09908 0.0
C1343 C 0.363 0.84789 0.10233 0.0
C1344 C 0.29166 0.84903 0.11947 0.0
C1345 C 0.30776 0.80767 0.09919 0.0
C1346 C 0.31277 0.8395 0.12736 0.0
N1347 N 0.32062 0.81913 0.11713 0.0
C1348 C 0.28656 0.81668 0.09085 0.0
C1349 C 0.27851 0.83751 0.10108 0.0
C1350 C 0.34043 0.7549 0.12698 0.0
C1351 C 0.40555 0.75654 0.20388 0.0
C1352 C 0.38702 0.72982 0.16497 0.0
C1353 C 0.38812 0.72077 0.18967 0.0
C1354 C 0.39743 0.73427 0.20923 0.0
N1355 N 0.395 0.75168 0.15988 0.0
C1356 C 0.40421 0.765 0.17895 0.0
Co1357 Co 0.18905 0.34717 0.12601 0.0
Co1358 Co 0.2316 0.38898 0.12172 0.0
O1359 O 0.20365 0.37609 0.13754 0.0
C1360 C 0.19579 0.33952 0.1814 0.0
O1361 O 0.21672 0.34821 0.17882 0.0
C1362 C 0.20291 0.43259 0.11792 0.0
O1363 O 0.18844 0.42256 0.10199 0.0
O1364 O 0.21691 0.38766 0.0873 0.0
O1365 O 0.19532 0.35522 0.08951 0.0
H1366 H 0.29446 0.39369 0.05541 0.0
H1367 H 0.16375 0.37888 0.16073 0.0
O1368 O 0.18226 0.33821 0.16223 0.0
H1369 H 0.11467 0.37267 0.08391 0.0
H1370 H 0.12796 0.28463 0.12756 0.0
H1371 H 0.20046 0.31153 0.08716 0.0
H1372 H 0.15148 0.35099 0.08694 0.0
H1373 H 0.14642 0.32121 0.14128 0.0
O1374 O 0.21975 0.42123 0.1275 0.0
H1375 H 0.25971 0.37722 0.07609 0.0
H1376 H 0.26254 0.42921 0.13353 0.0
H1377 H 0.18247 0.27495 0.0727 0.0
H1378 H 0.12694 0.40074 0.15861 0.0
H1379 H 0.14595 0.26127 0.09296 0.0
H1380 H 0.10215 0.39773 0.11996 0.0
O1381 O 0.2192 0.33016 0.12801 0.0
H1382 H 0.23443 0.40659 0.2156 0.0
H1383 H 0.2774 0.37374 0.14265 0.0
H1384 H 0.29548 0.37387 0.18529 0.0
H1385 H 0.27397 0.39042 0.22214 0.0
H1386 H 0.21689 0.40587 0.17266 0.0
H1387 H 0.29722 0.44633 0.11336 0.0
H1388 H 0.31346 0.4285 0.07406 0.0
O1389 O 0.24474 0.35743 0.11612 0.0
C1390 C 0.20471 0.37172 0.07692 0.0
C1391 C 0.28759 0.40158 0.07257 0.0
C1392 C 0.28912 0.43114 0.10507 0.0
N1393 N 0.25917 0.40214 0.10608 0.0
C1394 C 0.26794 0.3923 0.0844 0.0
C1395 C 0.26944 0.42139 0.11638 0.0
C1396 C 0.29823 0.42112 0.08303 0.0
C1397 C 0.15297 0.37739 0.14392 0.0
N1398 N 0.15972 0.36363 0.12402 0.0
C1399 C 0.13219 0.38984 0.1428 0.0
C1400 C 0.1183 0.38817 0.12109 0.0
C1401 C 0.12532 0.37412 0.10085 0.0
C1402 C 0.14622 0.36194 0.10264 0.0
C1403 C 0.14384 0.29042 0.11856 0.0
C1404 C 0.1845 0.30576 0.09596 0.0
C1405 C 0.15441 0.31109 0.12628 0.0
N1406 N 0.17441 0.31857 0.1149 0.0
C1407 C 0.17442 0.285 0.08774 0.0
C1408 C 0.15395 0.27733 0.09914 0.0
C1409 C 0.23949 0.33645 0.12116 0.0
C1410 C 0.244 0.39938 0.19968 0.0
C1411 C 0.26787 0.38086 0.15859 0.0
C1412 C 0.27824 0.38096 0.18269 0.0
C1413 C 0.26617 0.39027 0.20335 0.0
N1414 N 0.24611 0.38982 0.15515 0.0
C1415 C 0.2342 0.39902 0.17531 0.0
Co1416 Co 0.35128 0.18496 0.12451 0.0
Co1417 Co 0.38562 0.2339 0.12813 0.0
O1418 O 0.37704 0.20274 0.13909 0.0
C1419 C 0.34198 0.18739 0.17969 0.0
O1420 O 0.34699 0.20952 0.17766 0.0
C1421 C 0.43061 0.20869 0.12386 0.0
O1422 O 0.42022 0.19255 0.11032 0.0
O1423 O 0.38672 0.2236 0.09203 0.0
O1424 O 0.3597 0.19549 0.08891 0.0
H1425 H 0.38106 0.30463 0.07225 0.0
H1426 H 0.38505 0.16187 0.15887 0.0
O1427 O 0.34241 0.1744 0.15994 0.0
H1428 H 0.39023 0.11961 0.07721 0.0
H1429 H 0.29931 0.11499 0.11759 0.0
H1430 H 0.31594 0.19337 0.0844 0.0
H1431 H 0.36285 0.15222 0.08231 0.0
H1432 H 0.33181 0.13801 0.135 0.0
O1433 O 0.41917 0.22595 0.13236 0.0
H1434 H 0.37001 0.26545 0.08686 0.0
H1435 H 0.4209 0.26843 0.14545 0.0
H1436 H 0.28341 0.17088 0.06627 0.0
H1437 H 0.41255 0.12924 0.15467 0.0
H1438 H 0.27492 0.13139 0.0829 0.0
H1439 H 0.41529 0.1079 0.11358 0.0
O1440 O 0.32948 0.21163 0.12802 0.0
H1441 H 0.40309 0.22759 0.22182 0.0
H1442 H 0.36343 0.27361 0.1555 0.0
H1443 H 0.36092 0.28591 0.20049 0.0
H1444 H 0.38086 0.26284 0.23401 0.0
H1445 H 0.40491 0.21573 0.17663 0.0
H1446 H 0.43265 0.30756 0.13133 0.0
H1447 H 0.4126 0.32596 0.09455 0.0
O1448 O 0.35242 0.24284 0.12382 0.0
C1449 C 0.37435 0.20957 0.07895 0.0
C1450 C 0.38987 0.29684 0.08836 0.0
C1451 C 0.41884 0.29847 0.1215 0.0
N1452 N 0.39463 0.26477 0.11714 0.0
C1453 C 0.38364 0.27469 0.09677 0.0
C1454 C 0.41214 0.2763 0.12938 0.0
C1455 C 0.40758 0.30878 0.10087 0.0
C1456 C 0.38601 0.15253 0.141 0.0
N1457 N 0.37228 0.15885 0.12091 0.0
C1458 C 0.40167 0.13413 0.1387 0.0
C1459 C 0.40322 0.12219 0.11563 0.0
C1460 C 0.38917 0.12875 0.09522 0.0
C1461 C 0.37374 0.14726 0.0982 0.0
C1462 C 0.30286 0.13216 0.11016 0.0
C1463 C 0.31244 0.17613 0.09161 0.0
C1464 C 0.3212 0.14528 0.11997 0.0
N1465 N 0.32586 0.16692 0.11057 0.0
C1466 C 0.29396 0.16351 0.08133 0.0
C1467 C 0.28919 0.14137 0.09068 0.0
C1468 C 0.33245 0.23342 0.12553 0.0
C1469 C 0.3944 0.23783 0.20738 0.0
C1470 C 0.37209 0.26342 0.16998 0.0
C1471 C 0.37066 0.27052 0.19542 0.0
C1472 C 0.38188 0.25758 0.21421 0.0
N1473 N 0.38437 0.244 0.16343 0.0
C1474 C 0.39546 0.23126 0.18175 0.0
Co1475 Co 0.81905 0.34789 0.12806 0.0
Co1476 Co 0.77328 0.38673 0.12638 0.0
O1477 O 0.80321 0.3761 0.13958 0.0
C1478 C 0.81424 0.34134 0.18366 0.0
O1479 O 0.79299 0.34932 0.18146 0.0
C1480 C 0.80302 0.4282 0.11682 0.0
O1481 O 0.81801 0.41474 0.10507 0.0
O1482 O 0.78402 0.38305 0.09044 0.0
O1483 O 0.81109 0.35497 0.09186 0.0
H1484 H 0.70305 0.38343 0.06959 0.0
H1485 H 0.84366 0.38143 0.16132 0.0
O1486 O 0.82735 0.33998 0.16415 0.0
H1487 H 0.89008 0.3774 0.08237 0.0
H1488 H 0.88382 0.28919 0.12847 0.0
H1489 H 0.80865 0.311 0.09028 0.0
H1490 H 0.85479 0.35356 0.0873 0.0
H1491 H 0.86358 0.32481 0.14221 0.0
O1492 O 0.78469 0.4196 0.12663 0.0
H1493 H 0.74062 0.36998 0.0867 0.0
H1494 H 0.74257 0.42713 0.13792 0.0
H1495 H 0.82839 0.27533 0.07582 0.0
H1496 H 0.87895 0.40546 0.15729 0.0
H1497 H 0.86625 0.26422 0.09497 0.0
H1498 H 0.90239 0.40356 0.11756 0.0
O1499 O 0.79017 0.32903 0.13151 0.0
H1500 H 0.78041 0.41263 0.21761 0.0
H1501 H 0.73092 0.3721 0.15503 0.0
H1502 H 0.71786 0.37548 0.19969 0.0
H1503 H 0.74268 0.39589 0.23132 0.0
H1504 H 0.79291 0.40865 0.17279 0.0
H1505 H 0.70512 0.4413 0.12121 0.0
H1506 H 0.68506 0.41934 0.08687 0.0
O1507 O 0.76098 0.35435 0.12602 0.0
C1508 C 0.79816 0.36909 0.07963 0.0
C1509 C 0.71159 0.39311 0.08461 0.0
C1510 C 0.71276 0.42561 0.11356 0.0
N1511 N 0.74368 0.39765 0.11342 0.0
C1512 C 0.73283 0.38554 0.09443 0.0
C1513 C 0.73399 0.41752 0.12291 0.0
C1514 C 0.70151 0.41327 0.0943 0.0
C1515 C 0.85388 0.38039 0.14406 0.0
N1516 N 0.84724 0.36604 0.12462 0.0
C1517 C 0.87379 0.39409 0.14185 0.0
C1518 C 0.88692 0.39303 0.11954 0.0
C1519 C 0.88002 0.37837 0.09978 0.0
C1520 C 0.85999 0.36495 0.10266 0.0
C1521 C 0.86735 0.29386 0.11995 0.0
C1522 C 0.8252 0.30635 0.09858 0.0
C1523 C 0.85579 0.31398 0.12769 0.0
N1524 N 0.83504 0.32005 0.11691 0.0
C1525 C 0.83626 0.2861 0.09037 0.0
C1526 C 0.85749 0.27987 0.10115 0.0
C1527 C 0.76865 0.33377 0.12905 0.0
C1528 C 0.76942 0.40375 0.20399 0.0
C1529 C 0.74186 0.38093 0.16869 0.0
C1530 C 0.73434 0.38285 0.19394 0.0
C1531 C 0.74826 0.39432 0.21168 0.0
N1532 N 0.76264 0.39021 0.1613 0.0
C1533 C 0.77636 0.40153 0.17857 0.0
Co1534 Co 0.65426 0.82159 0.12516 0.0
Co1535 Co 0.61503 0.77617 0.12232 0.0
O1536 O 0.62578 0.80584 0.13613 0.0
C1537 C 0.6605 0.81601 0.18064 0.0
O1538 O 0.65242 0.79483 0.17797 0.0
C1539 C 0.57355 0.80604 0.11259 0.0
O1540 O 0.58706 0.82096 0.10082 0.0
O1541 O 0.61906 0.78739 0.08659 0.0
O1542 O 0.64746 0.81409 0.08881 0.0
H1543 H 0.6183 0.70674 0.06436 0.0
H1544 H 0.62062 0.84608 0.15838 0.0
O1545 O 0.66194 0.82944 0.16142 0.0
H1546 H 0.62567 0.89333 0.08012 0.0
H1547 H 0.71342 0.88593 0.12706 0.0
H1548 H 0.69143 0.81133 0.08767 0.0
H1549 H 0.64921 0.85782 0.08482 0.0
H1550 H 0.67753 0.8658 0.14014 0.0
O1551 O 0.58212 0.78775 0.12253 0.0
H1552 H 0.63183 0.74399 0.0822 0.0
H1553 H 0.5744 0.74551 0.13302 0.0
H1554 H 0.72736 0.83096 0.07386 0.0
H1555 H 0.59688 0.88158 0.15458 0.0
H1556 H 0.73856 0.86854 0.09362 0.0
H1557 H 0.5993 0.90544 0.11519 0.0
O1558 O 0.67288 0.79253 0.12843 0.0
H1559 H 0.58866 0.78218 0.21346 0.0
H1560 H 0.62926 0.73333 0.15035 0.0
H1561 H 0.62556 0.71968 0.19476 0.0
H1562 H 0.60512 0.74418 0.22666 0.0
H1563 H 0.59294 0.79527 0.16888 0.0
H1564 H 0.56014 0.70837 0.11559 0.0
H1565 H 0.5822 0.68868 0.08108 0.0
O1566 O 0.64738 0.76366 0.12202 0.0
C1567 C 0.63332 0.80149 0.0762 0.0
C1568 C 0.60857 0.71511 0.07945 0.0
C1569 C 0.57591 0.71604 0.10818 0.0
N1570 N 0.60402 0.74682 0.10876 0.0
C1571 C 0.61618 0.73618 0.08967 0.0
C1572 C 0.58405 0.7371 0.11794 0.0
C1573 C 0.58831 0.705 0.08882 0.0
C1574 C 0.62188 0.85648 0.14127 0.0
N1575 N 0.63634 0.84995 0.1219 0.0
C1576 C 0.60835 0.87651 0.13919 0.0
C1577 C 0.60969 0.88988 0.11707 0.0
C1578 C 0.62448 0.88309 0.09738 0.0
C1579 C 0.63772 0.86293 0.10013 0.0
C1580 C 0.70871 0.86959 0.11828 0.0
C1581 C 0.69612 0.82775 0.09624 0.0
C1582 C 0.68843 0.85809 0.12564 0.0
N1583 N 0.68232 0.8375 0.11454 0.0
C1584 C 0.71651 0.83875 0.08839 0.0
C1585 C 0.7228 0.85982 0.0995 0.0
C1586 C 0.668 0.7711 0.12548 0.0
C1587 C 0.59755 0.77133 0.19972 0.0
C1588 C 0.6204 0.74413 0.16413 0.0
C1589 C 0.61831 0.73628 0.18924 0.0
C1590 C 0.60682 0.75002 0.20712 0.0
N1591 N 0.61127 0.76505 0.15702 0.0
C1592 C 0.59994 0.7786 0.17443 0.0
Co1593 Co 0.18438 0.64987 0.11972 0.0
Co1594 Co 0.2301 0.61128 0.12582 0.0
O1595 O 0.1992 0.62257 0.13474 0.0
C1596 C 0.18687 0.65946 0.17464 0.0
O1597 O 0.2082 0.65157 0.17333 0.0
C1598 C 0.19969 0.57095 0.11494 0.0
O1599 O 0.1859 0.58529 0.10271 0.0
O1600 O 0.22312 0.61368 0.08876 0.0
O1601 O 0.19444 0.63997 0.0848 0.0
H1602 H 0.30579 0.61179 0.07818 0.0
H1603 H 0.15748 0.61907 0.15407 0.0
O1604 O 0.1743 0.66025 0.15463 0.0
H1605 H 0.11595 0.61735 0.07179 0.0
H1606 H 0.12031 0.70874 0.11083 0.0
H1607 H 0.19699 0.68362 0.07932 0.0
H1608 H 0.15112 0.64129 0.07712 0.0
H1609 H 0.13954 0.67424 0.12906 0.0
O1610 O 0.21803 0.57855 0.12576 0.0
H1611 H 0.26688 0.62622 0.08981 0.0
H1612 H 0.25871 0.57099 0.14273 0.0
H1613 H 0.1783 0.71811 0.06039 0.0
H1614 H 0.12225 0.59502 0.14964 0.0
H1615 H 0.13968 0.73087 0.07617 0.0
H1616 H 0.10127 0.59402 0.10824 0.0
O1617 O 0.2131 0.66885 0.12347 0.0
H1618 H 0.21326 0.5889 0.21661 0.0
H1619 H 0.26934 0.62674 0.15892 0.0
H1620 H 0.27759 0.62507 0.20508 0.0
H1621 H 0.24942 0.60605 0.23426 0.0
H1622 H 0.2056 0.59111 0.17035 0.0
H1623 H 0.29745 0.55582 0.13151 0.0
H1624 H 0.32131 0.57633 0.09909 0.0
O1625 O 0.24278 0.64364 0.12557 0.0
C1626 C 0.2092 0.62582 0.07532 0.0
C1627 C 0.2956 0.60274 0.0924 0.0
C1628 C 0.2909 0.57131 0.12231 0.0
N1629 N 0.26065 0.59959 0.11711 0.0
C1630 C 0.27359 0.61088 0.09912 0.0
C1631 C 0.26897 0.57996 0.12855 0.0
C1632 C 0.30429 0.58283 0.10412 0.0
C1633 C 0.14832 0.61887 0.13606 0.0
N1634 N 0.15627 0.63165 0.11592 0.0
C1635 C 0.12844 0.60516 0.13364 0.0
C1636 C 0.11669 0.60458 0.11039 0.0
C1637 C 0.12492 0.61765 0.08993 0.0
C1638 C 0.14488 0.63114 0.09304 0.0
C1639 C 0.13712 0.70333 0.10377 0.0
C1640 C 0.18012 0.689 0.08616 0.0
C1641 C 0.14811 0.68384 0.11405 0.0
N1642 N 0.16928 0.67685 0.10512 0.0
C1643 C 0.16965 0.70857 0.07543 0.0
C1644 C 0.14799 0.71573 0.08431 0.0
C1645 C 0.23472 0.66428 0.12493 0.0
C1646 C 0.2257 0.59716 0.20407 0.0
C1647 C 0.25699 0.61844 0.1715 0.0
C1648 C 0.26178 0.61751 0.19761 0.0
C1649 C 0.24598 0.60683 0.21397 0.0
N1650 N 0.23705 0.60894 0.16195 0.0
C1651 C 0.22151 0.59837 0.17786 0.0
Co1652 Co 0.35453 0.80393 0.88194 0.0
Co1653 Co 0.39365 0.75886 0.87784 0.0
O1654 O 0.38161 0.78883 0.86669 0.0
C1655 C 0.34427 0.80127 0.82686 0.0
O1656 O 0.35138 0.77966 0.82815 0.0
C1657 C 0.43601 0.78831 0.88011 0.0
O1658 O 0.42463 0.80336 0.89419 0.0
O1659 O 0.39495 0.76977 0.91378 0.0
O1660 O 0.36467 0.79424 0.91717 0.0
H1661 H 0.39837 0.68902 0.93505 0.0
H1662 H 0.38525 0.83035 0.84704 0.0
O1663 O 0.34395 0.81383 0.84692 0.0
H1664 H 0.38753 0.87277 0.92876 0.0
H1665 H 0.29591 0.86826 0.89071 0.0
H1666 H 0.32102 0.79177 0.92275 0.0
H1667 H 0.36346 0.83761 0.92406 0.0
H1668 H 0.33022 0.84876 0.87236 0.0
O1669 O 0.42601 0.77004 0.87202 0.0
H1670 H 0.38281 0.72658 0.92026 0.0
H1671 H 0.4316 0.72777 0.8595 0.0
H1672 H 0.28674 0.81073 0.94182 0.0
H1673 H 0.40943 0.86554 0.85085 0.0
H1674 H 0.27399 0.84925 0.92578 0.0
H1675 H 0.4107 0.88697 0.89197 0.0
O1676 O 0.33551 0.77513 0.87874 0.0
H1677 H 0.40706 0.7654 0.78336 0.0
H1678 H 0.37466 0.71668 0.85206 0.0
H1679 H 0.37181 0.70347 0.80741 0.0
H1680 H 0.3881 0.72789 0.77269 0.0
H1681 H 0.4093 0.77808 0.82825 0.0
H1682 H 0.44781 0.69031 0.87374 0.0
H1683 H 0.43111 0.67063 0.91171 0.0
O1684 O 0.36173 0.74672 0.88374 0.0
C1685 C 0.38115 0.78228 0.92698 0.0
C1686 C 0.40574 0.69738 0.91842 0.0
C1687 C 0.4335 0.69811 0.88402 0.0
N1688 N 0.40612 0.72924 0.88889 0.0
C1689 C 0.39695 0.71861 0.90991 0.0
C1690 C 0.42427 0.71934 0.87607 0.0
C1691 C 0.42412 0.68708 0.90533 0.0
C1692 C 0.38557 0.83969 0.86493 0.0
N1693 N 0.37286 0.83201 0.88525 0.0
C1694 C 0.39935 0.85956 0.867 0.0
C1695 C 0.40009 0.87156 0.89009 0.0
C1696 C 0.3871 0.86359 0.91074 0.0
C1697 C 0.37353 0.84365 0.90798 0.0
C1698 C 0.30133 0.85149 0.89789 0.0
C1699 C 0.31565 0.8086 0.91579 0.0
C1700 C 0.3207 0.84035 0.88754 0.0
N1701 N 0.32769 0.81924 0.89662 0.0
C1702 C 0.2962 0.81922 0.9266 0.0
C1703 C 0.28904 0.84082 0.91757 0.0
C1704 C 0.34085 0.75386 0.88201 0.0
C1705 C 0.39997 0.75457 0.79833 0.0
C1706 C 0.38172 0.72745 0.83706 0.0
C1707 C 0.38011 0.71985 0.81182 0.0
C1708 C 0.38928 0.73354 0.79235 0.0
N1709 N 0.39219 0.74812 0.84277 0.0
C1710 C 0.40128 0.76161 0.82379 0.0
Co1711 Co 0.18658 0.35309 0.87962 0.0
Co1712 Co 0.23272 0.39123 0.87403 0.0
O1713 O 0.20176 0.38027 0.86479 0.0
C1714 C 0.18866 0.34384 0.82433 0.0
O1715 O 0.20989 0.35205 0.82518 0.0
C1716 C 0.20243 0.43165 0.88467 0.0
O1717 O 0.18834 0.41729 0.89645 0.0
O1718 O 0.22552 0.38876 0.91104 0.0
O1719 O 0.19662 0.3627 0.91471 0.0
H1720 H 0.30818 0.38973 0.92212 0.0
H1721 H 0.16006 0.38428 0.84535 0.0
O1722 O 0.17643 0.34288 0.84461 0.0
H1723 H 0.11843 0.38617 0.92756 0.0
H1724 H 0.12188 0.29484 0.88808 0.0
H1725 H 0.19884 0.31897 0.91976 0.0
H1726 H 0.15335 0.36185 0.92219 0.0
H1727 H 0.14147 0.32926 0.87011 0.0
O1728 O 0.22094 0.42403 0.87423 0.0
H1729 H 0.2692 0.3757 0.91011 0.0
H1730 H 0.26177 0.43139 0.85763 0.0
H1731 H 0.17979 0.28457 0.93845 0.0
H1732 H 0.12509 0.4087 0.84981 0.0
H1733 H 0.14103 0.2723 0.92258 0.0
H1734 H 0.10407 0.40979 0.89118 0.0
O1735 O 0.2151 0.3339 0.87581 0.0
H1736 H 0.21671 0.41446 0.78331 0.0
H1737 H 0.272 0.37557 0.8411 0.0
H1738 H 0.2806 0.37755 0.79504 0.0
H1739 H 0.25284 0.39709 0.76581 0.0
H1740 H 0.2087 0.41193 0.82947 0.0
H1741 H 0.30058 0.44615 0.86924 0.0
H1742 H 0.3241 0.42521 0.90163 0.0
O1743 O 0.24511 0.35874 0.87413 0.0
C1744 C 0.21144 0.37671 0.92437 0.0
C1745 C 0.29813 0.39896 0.90792 0.0
C1746 C 0.29385 0.43065 0.87827 0.0
N1747 N 0.26333 0.40259 0.88303 0.0
C1748 C 0.27609 0.39106 0.90099 0.0
C1749 C 0.27188 0.42223 0.87181 0.0
C1750 C 0.30704 0.41888 0.89643 0.0
C1751 C 0.15087 0.38451 0.86333 0.0
N1752 N 0.15865 0.37156 0.88343 0.0
C1753 C 0.13114 0.39843 0.86578 0.0
C1754 C 0.11937 0.39906 0.889 0.0
C1755 C 0.12743 0.38582 0.90943 0.0
C1756 C 0.14723 0.37212 0.90629 0.0
C1757 C 0.13875 0.30004 0.89519 0.0
C1758 C 0.1819 0.31382 0.91289 0.0
C1759 C 0.14994 0.31947 0.88505 0.0
N1760 N 0.17118 0.32619 0.89403 0.0
C1761 C 0.17124 0.29429 0.92348 0.0
C1762 C 0.1495 0.2874 0.91455 0.0
C1763 C 0.23678 0.3382 0.87451 0.0
C1764 C 0.22897 0.40596 0.79586 0.0
C1765 C 0.25982 0.38408 0.8285 0.0
C1766 C 0.2648 0.38519 0.80244 0.0
C1767 C 0.24923 0.39618 0.78605 0.0
N1768 N 0.2399 0.3937 0.83797 0.0
C1769 C 0.22458 0.40456 0.82203 0.0
Co1770 Co 0.657 0.18621 0.87872 0.0
Co1771 Co 0.61084 0.22441 0.88302 0.0
O1772 O 0.62623 0.19726 0.86828 0.0
C1773 C 0.66126 0.1928 0.82268 0.0
O1774 O 0.65011 0.21251 0.82543 0.0
C1775 C 0.56578 0.20377 0.89894 0.0
O1776 O 0.57139 0.20859 0.92264 0.0
O1777 O 0.61639 0.21236 0.9181 0.0
O1778 O 0.64965 0.19213 0.91559 0.0
H1779 H 0.6019 0.29021 0.94523 0.0
H1780 H 0.62744 0.15672 0.84566 0.0
O1781 O 0.66528 0.18 0.84204 0.0
H1782 H 0.64182 0.11013 0.92301 0.0
H1783 H 0.72601 0.13265 0.87482 0.0
H1784 H 0.69255 0.20214 0.91573 0.0
H1785 H 0.65864 0.1493 0.91864 0.0
H1786 H 0.68703 0.14661 0.86271 0.0
O1787 O 0.58023 0.20761 0.88095 0.0
H1788 H 0.62138 0.25645 0.92573 0.0
H1789 H 0.56668 0.24978 0.87184 0.0
H1790 H 0.73151 0.18868 0.92855 0.0
H1791 H 0.61044 0.11752 0.84912 0.0
H1792 H 0.74848 0.15369 0.90803 0.0
H1793 H 0.61758 0.09396 0.88804 0.0
O1794 O 0.67042 0.21794 0.87562 0.0
H1795 H 0.587 0.21826 0.791 0.0
H1796 H 0.61871 0.27006 0.85734 0.0
H1797 H 0.61357 0.28482 0.81356 0.0
H1798 H 0.59757 0.25886 0.78003 0.0
H1799 H 0.5927 0.20411 0.83497 0.0
H1800 H 0.54656 0.2834 0.89082 0.0
H1801 H 0.5642 0.30389 0.92777 0.0
O1802 O 0.64078 0.24182 0.88485 0.0
C1803 C 0.63318 0.20136 0.92839 0.0
C1804 C 0.59405 0.28145 0.92911 0.0
C1805 C 0.56299 0.27762 0.89858 0.0
N1806 N 0.59521 0.25118 0.89763 0.0
C1807 C 0.60501 0.26235 0.91797 0.0
C1808 C 0.57445 0.25858 0.88793 0.0
C1809 C 0.57289 0.28911 0.91931 0.0
C1810 C 0.63073 0.14651 0.86258 0.0
N1811 N 0.64409 0.15524 0.88187 0.0
C1812 C 0.62101 0.12435 0.86447 0.0
C1813 C 0.62501 0.11115 0.88632 0.0
C1814 C 0.63859 0.12022 0.90595 0.0
C1815 C 0.64801 0.14244 0.9034 0.0
C1816 C 0.71878 0.14789 0.88393 0.0
C1817 C 0.69976 0.18681 0.90684 0.0
C1818 C 0.69674 0.1559 0.87712 0.0
N1819 N 0.68746 0.17506 0.88865 0.0
C1820 C 0.72185 0.17931 0.91412 0.0
C1821 C 0.73137 0.1597 0.90258 0.0
C1822 C 0.66222 0.23805 0.88036 0.0
C1823 C 0.59393 0.22976 0.80546 0.0
C1824 C 0.61185 0.25861 0.84285 0.0
C1825 C 0.6089 0.2671 0.8181 0.0
C1826 C 0.5999 0.25253 0.79931 0.0
N1827 N 0.60595 0.23625 0.84875 0.0
C1828 C 0.59708 0.22188 0.83042 0.0
Co1829 Co 0.80773 0.65059 0.87557 0.0
Co1830 Co 0.76587 0.60806 0.88185 0.0
O1831 O 0.79413 0.62054 0.8666 0.0
C1832 C 0.79991 0.65281 0.81988 0.0
O1833 O 0.77938 0.64389 0.82451 0.0
C1834 C 0.79883 0.56888 0.89115 0.0
O1835 O 0.81323 0.58308 0.90275 0.0
O1836 O 0.77813 0.61387 0.91678 0.0
O1837 O 0.80178 0.64478 0.91289 0.0
H1838 H 0.69882 0.6073 0.94318 0.0
H1839 H 0.83407 0.61756 0.84324 0.0
O1840 O 0.81383 0.65695 0.83829 0.0
H1841 H 0.88281 0.63019 0.91937 0.0
H1842 H 0.86668 0.7147 0.8676 0.0
H1843 H 0.79571 0.68841 0.91162 0.0
H1844 H 0.84526 0.65036 0.91479 0.0
H1845 H 0.84922 0.6767 0.85736 0.0
O1846 O 0.77982 0.57636 0.88187 0.0
H1847 H 0.73409 0.6233 0.92308 0.0
H1848 H 0.73802 0.56498 0.87362 0.0
H1849 H 0.81269 0.72646 0.92261 0.0
H1850 H 0.8716 0.59716 0.84695 0.0
H1851 H 0.84843 0.73982 0.90051 0.0
H1852 H 0.89623 0.60341 0.88526 0.0
O1853 O 0.77719 0.66666 0.87253 0.0
H1854 H 0.77062 0.57965 0.79134 0.0
H1855 H 0.72099 0.61799 0.85539 0.0
H1856 H 0.70605 0.61193 0.8118 0.0
H1857 H 0.73094 0.59261 0.77943 0.0
H1858 H 0.78497 0.58631 0.83508 0.0
H1859 H 0.7029 0.54828 0.89331 0.0
H1860 H 0.683 0.56952 0.9283 0.0
O1861 O 0.75092 0.63921 0.88189 0.0
C1862 C 0.79097 0.62971 0.92636 0.0
C1863 C 0.70729 0.59792 0.92789 0.0
C1864 C 0.70959 0.56478 0.89993 0.0
N1865 N 0.73799 0.59519 0.89706 0.0
C1866 C 0.72722 0.60692 0.91639 0.0
C1867 C 0.7295 0.57431 0.88888 0.0
C1868 C 0.69844 0.57671 0.91955 0.0
C1869 C 0.84478 0.62049 0.85987 0.0
N1870 N 0.83756 0.63522 0.8787 0.0
C1871 C 0.86597 0.60884 0.86191 0.0
C1872 C 0.87977 0.61233 0.88342 0.0
C1873 C 0.87225 0.62734 0.90258 0.0
C1874 C 0.85095 0.63868 0.8999 0.0
C1875 C 0.85113 0.70905 0.8774 0.0
C1876 C 0.81136 0.69405 0.90206 0.0
C1877 C 0.84115 0.68758 0.87164 0.0
N1878 N 0.82158 0.68029 0.88403 0.0
C1879 C 0.82085 0.71563 0.9083 0.0
C1880 C 0.84089 0.72313 0.89587 0.0
C1881 C 0.75642 0.66017 0.87703 0.0
C1882 C 0.7596 0.58805 0.80529 0.0
C1883 C 0.73197 0.60969 0.84139 0.0
C1884 C 0.72339 0.60622 0.81675 0.0
C1885 C 0.73734 0.59536 0.79861 0.0
N1886 N 0.75383 0.60252 0.84779 0.0
C1887 C 0.76759 0.59178 0.83012 0.0
H1888 H 0.22693 0.16567 0.39058 0.0
H1889 H 0.28277 0.21234 0.3707 0.0
H1890 H 0.25552 0.24487 0.36985 0.0
H1891 H 0.21559 0.26007 0.37452 0.0
H1892 H 0.16042 0.21269 0.39501 0.0
H1893 H 0.18773 0.18066 0.39585 0.0
C1894 C 0.23325 0.18292 0.38601 0.0
C1895 C 0.25692 0.18643 0.38063 0.0
C1896 C 0.21756 0.20155 0.38567 0.0
C1897 C 0.26466 0.20903 0.3749 0.0
C1898 C 0.24907 0.22769 0.37441 0.0
C1899 C 0.20954 0.24275 0.3792 0.0
C1900 C 0.18586 0.23895 0.38454 0.0
C1901 C 0.22544 0.22416 0.37974 0.0
C1902 C 0.17844 0.21631 0.39067 0.0
C1903 C 0.19408 0.19786 0.39118 0.0
H1904 H 0.78765 0.16568 0.38436 0.0
H1905 H 0.73092 0.21308 0.37057 0.0
H1906 H 0.75818 0.24565 0.36987 0.0
H1907 H 0.79833 0.26062 0.37292 0.0
H1908 H 0.8546 0.21223 0.38533 0.0
H1909 H 0.82721 0.1802 0.38657 0.0
C1910 C 0.78112 0.18308 0.3811 0.0
C1911 C 0.75719 0.18679 0.37743 0.0
C1912 C 0.79685 0.20164 0.38039 0.0
C1913 C 0.74922 0.20961 0.37338 0.0
C1914 C 0.76482 0.22828 0.37297 0.0
C1915 C 0.80462 0.24307 0.37586 0.0
C1916 C 0.82859 0.23899 0.37904 0.0
C1917 C 0.78871 0.22449 0.37639 0.0
C1918 C 0.83634 0.21605 0.38278 0.0
C1919 C 0.82066 0.19763 0.38354 0.0
H1920 H 0.83342 0.77851 0.38364 0.0
H1921 H 0.78421 0.72297 0.37171 0.0
H1922 H 0.75244 0.75114 0.37074 0.0
H1923 H 0.73859 0.79168 0.3738 0.0
H1924 H 0.78857 0.84655 0.38625 0.0
H1925 H 0.81991 0.81841 0.38644 0.0
C1926 C 0.81579 0.77244 0.38074 0.0
C1927 C 0.81133 0.74857 0.37772 0.0
C1928 C 0.79763 0.78865 0.38031 0.0
C1929 C 0.78825 0.74121 0.37407 0.0
C1930 C 0.77003 0.75732 0.37353 0.0
C1931 C 0.75633 0.7975 0.37647 0.0
C1932 C 0.76105 0.82132 0.37992 0.0
C1933 C 0.77451 0.78112 0.3767 0.0
C1934 C 0.78424 0.82843 0.38347 0.0
C1935 C 0.80228 0.81232 0.38361 0.0
H1936 H 0.16123 0.78022 0.38309 0.0
H1937 H 0.20926 0.7245 0.36708 0.0
H1938 H 0.24154 0.75202 0.36735 0.0
H1939 H 0.25621 0.79211 0.37203 0.0
H1940 H 0.2075 0.84731 0.38815 0.0
H1941 H 0.17566 0.81974 0.38794 0.0
C1942 C 0.17872 0.774 0.3796 0.0
C1943 C 0.18267 0.75025 0.375 0.0
C1944 C 0.19723 0.78987 0.37982 0.0
C1945 C 0.20558 0.74266 0.37063 0.0
C1946 C 0.22411 0.7584 0.37079 0.0
C1947 C 0.23865 0.79811 0.37552 0.0
C1948 C 0.23444 0.82187 0.38002 0.0
C1949 C 0.22015 0.78208 0.37537 0.0
C1950 C 0.21146 0.82922 0.38454 0.0
C1951 C 0.19311 0.81344 0.38444 0.0
H1952 H 0.20903 0.73955 0.62783 0.0
H1953 H 0.15475 0.79122 0.62271 0.0
H1954 H 0.18356 0.82197 0.62366 0.0
H1955 H 0.22383 0.83449 0.6256 0.0
H1956 H 0.27867 0.78355 0.63093 0.0
H1957 H 0.24988 0.75235 0.63028 0.0
C1958 C 0.20348 0.75752 0.62693 0.0
C1959 C 0.17966 0.76292 0.62519 0.0
C1960 C 0.22021 0.77534 0.62754 0.0
C1961 C 0.17289 0.78639 0.62408 0.0
C1962 C 0.18937 0.80409 0.62462 0.0
C1963 C 0.22961 0.81659 0.6267 0.0
C1964 C 0.25346 0.81147 0.62835 0.0
C1965 C 0.21304 0.79878 0.62631 0.0
C1966 C 0.26045 0.78808 0.62971 0.0
C1967 C 0.24399 0.7702 0.6293 0.0
H1968 H 0.25617 0.20314 0.63359 0.0
H1969 H 0.20762 0.14747 0.61861 0.0
H1970 H 0.17584 0.17499 0.61736 0.0
H1971 H 0.16137 0.21433 0.62108 0.0
H1972 H 0.20883 0.27084 0.6357 0.0
H1973 H 0.24137 0.24347 0.63641 0.0
C1974 C 0.23865 0.19704 0.63002 0.0
C1975 C 0.23445 0.17314 0.62638 0.0
C1976 C 0.22017 0.21307 0.62926 0.0
C1977 C 0.21156 0.16565 0.62165 0.0
C1978 C 0.19325 0.1814 0.6209 0.0
C1979 C 0.17879 0.22081 0.62444 0.0
C1980 C 0.18254 0.24466 0.62845 0.0
C1981 C 0.19732 0.20507 0.6248 0.0
C1982 C 0.20536 0.25257 0.63258 0.0
C1983 C 0.224 0.23692 0.63302 0.0
H1984 H 0.73982 0.21422 0.62957 0.0
H1985 H 0.78929 0.15905 0.61624 0.0
H1986 H 0.82086 0.18687 0.61632 0.0
H1987 H 0.83481 0.22638 0.62057 0.0
H1988 H 0.78634 0.28231 0.63387 0.0
H1989 H 0.75412 0.2546 0.63339 0.0
C1990 C 0.75749 0.2083 0.62661 0.0
C1991 C 0.76203 0.18448 0.623 0.0
C1992 C 0.77583 0.22448 0.62673 0.0
C1993 C 0.78511 0.17719 0.61918 0.0
C1994 C 0.80329 0.1931 0.61921 0.0
C1995 C 0.81724 0.23265 0.62341 0.0
C1996 C 0.81311 0.25645 0.62735 0.0
C1997 C 0.79888 0.21672 0.62308 0.0
C1998 C 0.79011 0.26409 0.63086 0.0
C1999 C 0.77165 0.24825 0.63057 0.0
H2000 H 0.83706 0.79036 0.62872 0.0
H2001 H 0.78904 0.73277 0.63076 0.0
H2002 H 0.75638 0.75992 0.63161 0.0
H2003 H 0.74155 0.80012 0.63178 0.0
H2004 H 0.79038 0.85716 0.63053 0.0
H2005 H 0.82257 0.82994 0.62958 0.0
C2006 C 0.8195 0.78361 0.62942 0.0
C2007 C 0.81561 0.75948 0.62975 0.0
C2008 C 0.80088 0.79924 0.63013 0.0
C2009 C 0.79262 0.75123 0.63055 0.0
C2010 C 0.77391 0.76676 0.63104 0.0
C2011 C 0.75922 0.80662 0.63138 0.0
C2012 C 0.7634 0.83074 0.63124 0.0
C2013 C 0.77784 0.79082 0.63088 0.0
C2014 C 0.78649 0.83876 0.6307 0.0
C2015 C 0.805 0.82319 0.63011 0.0
H2016 H 0.66475 0.7198 0.87857 0.0
H2017 H 0.71397 0.77592 0.87064 0.0
H2018 H 0.74595 0.74797 0.8701 0.0
H2019 H 0.75991 0.70747 0.8722 0.0
H2020 H 0.70994 0.65205 0.88137 0.0
H2021 H 0.67842 0.67997 0.88103 0.0
C2022 C 0.68244 0.72603 0.87666 0.0
C2023 C 0.68686 0.74998 0.8746 0.0
C2024 C 0.7007 0.70997 0.87655 0.0
C2025 C 0.70999 0.7576 0.87227 0.0
C2026 C 0.72832 0.74162 0.87194 0.0
C2027 C 0.74213 0.70148 0.87403 0.0
C2028 C 0.73744 0.67758 0.87662 0.0
C2029 C 0.72387 0.71773 0.87411 0.0
C2030 C 0.71423 0.67025 0.87919 0.0
C2031 C 0.69609 0.68622 0.87904 0.0
H2032 H 0.27673 0.66614 0.89184 0.0
H2033 H 0.22439 0.71464 0.86652 0.0
H2034 H 0.25338 0.74583 0.86635 0.0
H2035 H 0.29421 0.75882 0.87195 0.0
H2036 H 0.34565 0.70877 0.89624 0.0
H2037 H 0.31624 0.67877 0.89811 0.0
C2038 C 0.27146 0.6835 0.88627 0.0
C2039 C 0.24837 0.68792 0.87902 0.0
C2040 C 0.28814 0.70113 0.88593 0.0
C2041 C 0.24205 0.71067 0.87212 0.0
C2042 C 0.25864 0.72851 0.87198 0.0
C2043 C 0.29894 0.74138 0.87775 0.0
C2044 C 0.32223 0.73616 0.88381 0.0
C2045 C 0.28184 0.72388 0.87862 0.0
C2046 C 0.32799 0.7134 0.89129 0.0
C2047 C 0.31116 0.69614 0.89242 0.0
H2048 H 0.29299 0.24376 0.87124 0.0
H2049 H 0.35053 0.29157 0.87763 0.0
H2050 H 0.32377 0.32424 0.87731 0.0
H2051 H 0.28412 0.33946 0.87605 0.0
H2052 H 0.22633 0.29188 0.87074 0.0
H2053 H 0.25314 0.2591 0.86981 0.0
C2054 C 0.29972 0.26131 0.87243 0.0
C2055 C 0.32384 0.26505 0.87435 0.0
C2056 C 0.28418 0.28018 0.87252 0.0
C2057 C 0.33212 0.28801 0.87606 0.0
C2058 C 0.31681 0.3068 0.87591 0.0
C2059 C 0.27732 0.32195 0.8746 0.0
C2060 C 0.25317 0.31827 0.87347 0.0
C2061 C 0.29281 0.3031 0.87427 0.0
C2062 C 0.2448 0.29535 0.87168 0.0
C2063 C 0.26013 0.27653 0.87114 0.0
H2064 H 0.70962 0.23801 0.87578 0.0
H2065 H 0.65089 0.28376 0.88643 0.0
H2066 H 0.67668 0.31712 0.8874 0.0
H2067 H 0.71557 0.33354 0.88526 0.0
H2068 H 0.77478 0.28839 0.87529 0.0
H2069 H 0.74904 0.25466 0.87416 0.0
C2070 C 0.70243 0.25527 0.87824 0.0
C2071 C 0.67825 0.25824 0.88084 0.0
C2072 C 0.71742 0.27455 0.87899 0.0
C2073 C 0.66935 0.2808 0.88423 0.0
C2074 C 0.6841 0.29998 0.88484 0.0
C2075 C 0.72296 0.31636 0.88282 0.0
C2076 C 0.74714 0.31361 0.88029 0.0
C2077 C 0.70813 0.29707 0.88223 0.0
C2078 C 0.75626 0.29111 0.87728 0.0
C2079 C 0.74154 0.27177 0.8766 0.0
H2080 H 0.70738 0.24239 0.13293 0.0
H2081 H 0.65285 0.29344 0.12462 0.0
H2082 H 0.68149 0.32437 0.12402 0.0
H2083 H 0.72169 0.3372 0.12556 0.0
H2084 H 0.7768 0.2869 0.13397 0.0
H2085 H 0.74818 0.25553 0.13478 0.0
C2086 C 0.70174 0.26027 0.13103 0.0
C2087 C 0.67788 0.26543 0.12887 0.0
C2088 C 0.71839 0.27819 0.13069 0.0
C2089 C 0.671 0.28879 0.12638 0.0
C2090 C 0.6874 0.30658 0.12601 0.0
C2091 C 0.72758 0.31941 0.12764 0.0
C2092 C 0.75146 0.31453 0.12975 0.0
C2093 C 0.7111 0.3015 0.12812 0.0
C2094 C 0.75856 0.29127 0.13235 0.0
C2095 C 0.74219 0.27328 0.13281 0.0
H2096 H 0.75865 0.70862 0.13132 0.0
H2097 H 0.7072 0.65507 0.11906 0.0
H2098 H 0.67675 0.68409 0.11777 0.0
H2099 H 0.6643 0.72433 0.12009 0.0
H2100 H 0.71482 0.77861 0.1324 0.0
H2101 H 0.74586 0.74963 0.13363 0.0
C2102 C 0.74078 0.70329 0.12839 0.0
C2103 C 0.7354 0.67956 0.12538 0.0
C2104 C 0.72307 0.72019 0.12765 0.0
C2105 C 0.71206 0.67309 0.12153 0.0
C2106 C 0.69451 0.68972 0.12076 0.0
C2107 C 0.68206 0.72996 0.12309 0.0
C2108 C 0.68709 0.75371 0.12621 0.0
C2109 C 0.69979 0.71327 0.12381 0.0
C2110 C 0.71034 0.76048 0.12998 0.0
C2111 C 0.72814 0.74389 0.13069 0.0
H2112 H 0.28179 0.6624 0.12088 0.0
H2113 H 0.22519 0.7106 0.13157 0.0
H2114 H 0.25271 0.74284 0.13349 0.0
H2115 H 0.29301 0.75746 0.132 0.0
H2116 H 0.34903 0.70875 0.11979 0.0
H2117 H 0.32155 0.67684 0.11869 0.0
C2118 C 0.27539 0.67992 0.1237 0.0
C2119 C 0.2514 0.68395 0.12614 0.0
C2120 C 0.29125 0.69843 0.12455 0.0
C2121 C 0.24354 0.70689 0.1296 0.0
C2122 C 0.25928 0.72539 0.13072 0.0
C2123 C 0.29923 0.73987 0.12917 0.0
C2124 C 0.32319 0.73567 0.12623 0.0
C2125 C 0.28321 0.72138 0.12821 0.0
C2126 C 0.3308 0.71269 0.12233 0.0
C2127 C 0.31506 0.69431 0.12163 0.0
H2128 H 0.23797 0.28965 0.1319 0.0
H2129 H 0.28403 0.34415 0.10611 0.0
H2130 H 0.31612 0.31709 0.1049 0.0
H2131 H 0.33175 0.2787 0.1121 0.0
H2132 H 0.28694 0.22316 0.13726 0.0
H2133 H 0.25382 0.2499 0.13757 0.0
C2134 C 0.255 0.29557 0.12592 0.0
C2135 C 0.25845 0.31906 0.11937 0.0
C2136 C 0.2737 0.27978 0.12516 0.0
C2137 C 0.28069 0.32631 0.11151 0.0
C2138 C 0.29919 0.31083 0.11076 0.0
C2139 C 0.31478 0.2723 0.11767 0.0
C2140 C 0.31194 0.24897 0.12484 0.0
C2141 C 0.29595 0.28764 0.11776 0.0
C2142 C 0.28967 0.24106 0.13169 0.0
C2143 C 0.27072 0.25636 0.13191 0.0
H2144 H 0.96877 0.28522 0.3574 0.0
H2145 H 0.95956 0.33261 0.42036 0.0
H2146 H 0.00173 0.33695 0.42411 0.0
H2147 H 0.04136 0.32413 0.41204 0.0
H2148 H 0.0495 0.27621 0.34923 0.0
H2149 H 0.00772 0.2754 0.3429 0.0
C2150 C 0.97593 0.29671 0.37181 0.0
C2151 C 0.96102 0.30834 0.38877 0.0
C2152 C 1.0001 0.29891 0.37402 0.0
C2153 C 0.97063 0.32339 0.40708 0.0
C2154 C 0.99477 0.32579 0.40932 0.0
C2155 C 0.034 0.31382 0.39673 0.0
C2156 C 0.04861 0.30003 0.38139 0.0
C2157 C 0.00972 0.31319 0.39327 0.0
C2158 C 0.03873 0.28679 0.36158 0.0
C2159 C 0.01478 0.28628 0.35789 0.0
H2160 H 0.68059 0.03857 0.40841 0.0
H2161 H 0.73986 0.04327 0.35812 0.0
H2162 H 0.74067 0.00132 0.35386 0.0
H2163 H 0.72636 0.96328 0.36599 0.0
H2164 H 0.66786 0.95715 0.41699 0.0
H2165 H 0.66477 0.99957 0.41905 0.0
C2166 C 0.69353 0.03039 0.39636 0.0
C2167 C 0.71026 0.04415 0.38383 0.0
C2168 C 0.69411 0.00597 0.39412 0.0
C2169 C 0.7269 0.03322 0.36825 0.0
C2170 C 0.7274 0.00916 0.36573 0.0
C2171 C 0.7128 0.97112 0.37749 0.0
C2172 C 0.69749 0.95697 0.39149 0.0
C2173 C 0.71136 0.99537 0.37887 0.0
C2174 C 0.67992 0.96758 0.40604 0.0
C2175 C 0.67821 0.99186 0.4073 0.0
H2176 H 0.03115 0.69352 0.42659 0.0
H2177 H 0.0385 0.72624 0.35299 0.0
H2178 H 0.99664 0.72336 0.34605 0.0
H2179 H 0.95757 0.71406 0.36223 0.0
H2180 H 0.95031 0.67935 0.43471 0.0
H2181 H 0.99244 0.68025 0.44064 0.0
C2182 C 0.02358 0.6998 0.40894 0.0
C2183 C 0.03787 0.71027 0.39045 0.0
C2184 C 0.9995 0.69779 0.4049 0.0
C2185 C 0.02789 0.71807 0.36752 0.0
C2186 C 0.00393 0.71653 0.36358 0.0
C2187 C 0.96526 0.70646 0.37919 0.0
C2188 C 0.95084 0.69684 0.39811 0.0
C2189 C 0.98951 0.7068 0.38233 0.0
C2190 C 0.96103 0.68682 0.41984 0.0
C2191 C 0.98512 0.68745 0.42331 0.0
H2192 H 0.32209 0.96371 0.40944 0.0
H2193 H 0.26918 0.96106 0.35104 0.0
H2194 H 0.26931 0.00315 0.34806 0.0
H2195 H 0.28221 0.04082 0.36385 0.0
H2196 H 0.3352 0.04449 0.4219 0.0
H2197 H 0.3374 0.00202 0.42297 0.0
C2198 C 0.31082 0.97233 0.39584 0.0
C2199 C 0.29547 0.95912 0.38073 0.0
C2200 C 0.31085 0.99678 0.39424 0.0
C2201 C 0.28103 0.97067 0.36314 0.0
C2202 C 0.28105 0.99481 0.3614 0.0
C2203 C 0.29436 0.03238 0.37667 0.0
C2204 C 0.30832 0.04583 0.39298 0.0
C2205 C 0.29551 0.00805 0.3772 0.0
C2206 C 0.32419 0.03456 0.40918 0.0
C2207 C 0.32541 0.01026 0.40986 0.0
H2208 H 0.03832 0.72536 0.64694 0.0
H2209 H 0.04399 0.67284 0.58853 0.0
H2210 H 0.00156 0.66971 0.58678 0.0
H2211 H 0.96276 0.68458 0.5994 0.0
H2212 H 0.95843 0.73808 0.65702 0.0
H2213 H 1.0004 0.73808 0.66143 0.0
C2214 C 0.03036 0.71307 0.63391 0.0
C2215 C 0.04432 0.69956 0.61767 0.0
C2216 C 0.00612 0.71167 0.63271 0.0
C2217 C 0.03365 0.68351 0.6012 0.0
C2218 C 0.00938 0.6818 0.60011 0.0
C2219 C 0.97102 0.69601 0.61311 0.0
C2220 C 0.95745 0.7115 0.62761 0.0
C2221 C 0.99541 0.69618 0.61539 0.0
C2222 C 0.96842 0.72619 0.64534 0.0
C2223 C 0.99246 0.72621 0.64795 0.0
H2224 H 0.28448 0.95519 0.6474 0.0
H2225 H 0.33597 0.95114 0.58779 0.0
H2226 H 0.33818 0.99363 0.58639 0.0
H2227 H 0.3228 0.032 0.59976 0.0
H2228 H 0.27093 0.03487 0.65924 0.0
H2229 H 0.2717 0.99285 0.66304 0.0
C2230 C 0.29634 0.96355 0.63419 0.0
C2231 C 0.30982 0.95001 0.6175 0.0
C2232 C 0.29737 0.98785 0.63337 0.0
C2233 C 0.32533 0.96116 0.6008 0.0
C2234 C 0.32653 0.98546 0.59993 0.0
C2235 C 0.31194 0.02344 0.61379 0.0
C2236 C 0.29663 0.03663 0.62895 0.0
C2237 C 0.31226 0.99902 0.61578 0.0
C2238 C 0.28269 0.02521 0.64708 0.0
C2239 C 0.28309 0.00112 0.64931 0.0
H2240 H 0.03598 0.32145 0.60375 0.0
H2241 H 0.03804 0.26181 0.65373 0.0
H2242 H 0.99598 0.26223 0.65705 0.0
H2243 H 0.95857 0.27781 0.6441 0.0
H2244 H 0.95535 0.33709 0.59386 0.0
H2245 H 0.99786 0.33866 0.5926 0.0
C2246 C 0.02722 0.30869 0.61553 0.0
C2247 C 0.04022 0.29149 0.62824 0.0
C2248 C 0.00281 0.30888 0.61729 0.0
C2249 C 0.02856 0.27513 0.64351 0.0
C2250 C 0.00444 0.27533 0.64547 0.0
C2251 C 0.9671 0.29119 0.63293 0.0
C2252 C 0.95377 0.30716 0.61889 0.0
C2253 C 0.9914 0.29186 0.63213 0.0
C2254 C 0.96518 0.32452 0.6048 0.0
C2255 C 0.9895 0.32538 0.60401 0.0
H2256 H 0.67781 0.04178 0.59712 0.0
H2257 H 0.72071 0.04936 0.66423 0.0
H2258 H 0.72044 0.00757 0.67065 0.0
H2259 H 0.71204 0.96883 0.65467 0.0
H2260 H 0.67014 0.96011 0.58712 0.0
H2261 H 0.66564 0.00231 0.58369 0.0
C2262 C 0.68669 0.03428 0.6134 0.0
C2263 C 0.69955 0.04864 0.62993 0.0
C2264 C 0.68683 0.01002 0.61681 0.0
C2265 C 0.71096 0.03868 0.65099 0.0
C2266 C 0.71084 0.01476 0.65471 0.0
C2267 C 0.70167 0.97613 0.63935 0.0
C2268 C 0.69175 0.96142 0.62096 0.0
C2269 C 0.69949 1.00026 0.6373 0.0
C2270 C 0.67804 0.9711 0.60148 0.0
C2271 C 0.67558 0.99523 0.59943 0.0
H2272 H 0.54189 0.778 0.85429 0.0
H2273 H 0.54771 0.83128 0.91184 0.0
H2274 H 0.50533 0.8338 0.91445 0.0
H2275 H 0.46663 0.81825 0.90292 0.0
H2276 H 0.46188 0.76438 0.84576 0.0
H2277 H 0.50379 0.76486 0.84044 0.0
C2278 C 0.53394 0.79031 0.8673 0.0
C2279 C 0.54794 0.80421 0.88308 0.0
C2280 C 0.50969 0.79148 0.86888 0.0
C2281 C 0.53732 0.8203 0.89954 0.0
C2282 C 0.51308 0.82169 0.90111 0.0
C2283 C 0.47476 0.80687 0.88907 0.0
C2284 C 0.46112 0.79111 0.87502 0.0
C2285 C 0.49908 0.80699 0.88625 0.0
C2286 C 0.47194 0.7765 0.85708 0.0
C2287 C 0.49594 0.77673 0.85399 0.0
H2288 H 0.2256 0.46503 0.85857 0.0
H2289 H 0.16852 0.45517 0.91081 0.0
H2290 H 0.16279 0.49721 0.91318 0.0
H2291 H 0.17571 0.53703 0.90239 0.0
H2292 H 0.23307 0.54596 0.85018 0.0
H2293 H 0.23679 0.50414 0.84581 0.0
C2294 C 0.2118 0.47202 0.8704 0.0
C2295 C 0.19767 0.45695 0.88467 0.0
C2296 C 0.20867 0.49614 0.87176 0.0
C2297 C 0.17974 0.46636 0.89968 0.0
C2298 C 0.17647 0.49043 0.90109 0.0
C2299 C 0.18883 0.52982 0.88984 0.0
C2300 C 0.20421 0.54471 0.87687 0.0
C2301 C 0.19107 0.50554 0.8875 0.0
C2302 C 0.22111 0.535 0.86065 0.0
C2303 C 0.2233 0.51103 0.85809 0.0
H2304 H 0.46225 0.20621 0.86121 0.0
H2305 H 0.45052 0.17846 0.93651 0.0
H2306 H 0.49247 0.17587 0.94355 0.0
H2307 H 0.53237 0.18552 0.92987 0.0
H2308 H 0.54382 0.21167 0.85371 0.0
H2309 H 0.50219 0.21056 0.84534 0.0
C2310 C 0.46892 0.19924 0.87899 0.0
C2311 C 0.45337 0.19276 0.89841 0.0
C2312 C 0.49301 0.19764 0.88281 0.0
C2313 C 0.46216 0.18351 0.92126 0.0
C2314 C 0.48614 0.18217 0.92535 0.0
C2315 C 0.52576 0.19059 0.9113 0.0
C2316 C 0.54118 0.19892 0.89258 0.0
C2317 C 0.50172 0.18978 0.90651 0.0
C2318 C 0.53238 0.20518 0.8685 0.0
C2319 C 0.50853 0.2047 0.86372 0.0
H2320 H 0.81861 0.46203 0.90796 0.0
H2321 H 0.76403 0.45771 0.85155 0.0
H2322 H 0.76385 0.49969 0.84733 0.0
H2323 H 0.77683 0.53757 0.8616 0.0
H2324 H 0.83054 0.54328 0.91867 0.0
H2325 H 0.8337 0.50082 0.92033 0.0
C2326 C 0.80687 0.47029 0.89457 0.0
C2327 C 0.79116 0.4567 0.88035 0.0
C2328 C 0.80664 0.49467 0.89237 0.0
C2329 C 0.77611 0.46769 0.863 0.0
C2330 C 0.77599 0.49174 0.86051 0.0
C2331 C 0.78937 0.52961 0.87434 0.0
C2332 C 0.80322 0.54357 0.89024 0.0
C2333 C 0.79081 0.50538 0.87545 0.0
C2334 C 0.81962 0.53292 0.90628 0.0
C2335 C 0.82134 0.50864 0.90732 0.0
H2336 H 0.46302 0.18011 0.10176 0.0
H2337 H 0.45539 0.23611 0.156 0.0
H2338 H 0.49727 0.23851 0.16073 0.0
H2339 H 0.536 0.22689 0.1475 0.0
H2340 H 0.54479 0.17149 0.0929 0.0
H2341 H 0.50258 0.16648 0.0906 0.0
C2342 C 0.47053 0.19264 0.11481 0.0
C2343 C 0.45601 0.20808 0.12825 0.0
C2344 C 0.49485 0.19413 0.11734 0.0
C2345 C 0.46607 0.22418 0.14516 0.0
C2346 C 0.49007 0.22559 0.14793 0.0
C2347 C 0.52875 0.21358 0.13518 0.0
C2348 C 0.54353 0.19977 0.12018 0.0
C2349 C 0.50461 0.211 0.13376 0.0
C2350 C 0.53381 0.18242 0.10461 0.0
C2351 C 0.50966 0.17961 0.10321 0.0
H2352 H 0.81981 0.53563 0.09916 0.0
H2353 H 0.76555 0.53908 0.15597 0.0
H2354 H 0.76595 0.49708 0.16007 0.0
H2355 H 0.77952 0.45924 0.1457 0.0
H2356 H 0.83357 0.45467 0.08893 0.0
H2357 H 0.8356 0.49713 0.08692 0.0
C2358 C 0.80829 0.5272 0.11265 0.0
C2359 C 0.7925 0.54059 0.127 0.0
C2360 C 0.80845 0.50279 0.11486 0.0
C2361 C 0.77773 0.52931 0.14444 0.0
C2362 C 0.77791 0.50522 0.14684 0.0
C2363 C 0.79188 0.46748 0.13297 0.0
C2364 C 0.80619 0.45376 0.11729 0.0
C2365 C 0.79284 0.49178 0.13181 0.0
C2366 C 0.8223 0.46479 0.10118 0.0
C2367 C 0.82341 0.48909 0.09995 0.0
H2368 H 0.46617 0.82343 0.09444 0.0
H2369 H 0.4621 0.77036 0.15252 0.0
H2370 H 0.50412 0.77024 0.15648 0.0
H2371 H 0.5422 0.78307 0.14177 0.0
H2372 H 0.54728 0.83622 0.08405 0.0
H2373 H 0.50485 0.83857 0.0819 0.0
C2374 C 0.47446 0.81206 0.10817 0.0
C2375 C 0.46084 0.79676 0.12292 0.0
C2376 C 0.49889 0.81196 0.11037 0.0
C2377 C 0.47199 0.78218 0.14069 0.0
C2378 C 0.49611 0.78206 0.14301 0.0
C2379 C 0.53408 0.79531 0.12881 0.0
C2380 C 0.54795 0.80928 0.11292 0.0
C2381 C 0.50975 0.79652 0.12763 0.0
C2382 C 0.53705 0.82521 0.09648 0.0
C2383 C 0.51276 0.82651 0.09518 0.0
H2384 H 0.17577 0.46541 0.09435 0.0
H2385 H 0.22792 0.45691 0.15289 0.0
H2386 H 0.23055 0.49875 0.15797 0.0
H2387 H 0.22041 0.53784 0.14384 0.0
H2388 H 0.16829 0.54717 0.08557 0.0
H2389 H 0.1632 0.50508 0.08258 0.0
C2390 C 0.18746 0.4727 0.10846 0.0
C2391 C 0.20179 0.45793 0.12297 0.0
C2392 C 0.18907 0.497 0.11125 0.0
C2393 C 0.21681 0.46776 0.14122 0.0
C2394 C 0.21839 0.49176 0.14417 0.0
C2395 C 0.20781 0.53071 0.13058 0.0
C2396 C 0.19496 0.54565 0.11476 0.0
C2397 C 0.205 0.50654 0.12892 0.0
C2398 C 0.1785 0.53608 0.09793 0.0
C2399 C 0.17561 0.51198 0.09616 0.0
H2400 H 0.10453 0.27066 0.46302 0.0
H2401 H 0.16165 0.31918 0.45876 0.0
H2402 H 0.16237 0.32218 0.50501 0.0
H2403 H 0.14789 0.31024 0.5468 0.0
H2404 H 0.09155 0.26091 0.55165 0.0
H2405 H 0.0895 0.25917 0.50517 0.0
C2406 C 0.11704 0.28202 0.47216 0.0
C2407 C 0.13295 0.29469 0.45722 0.0
C2408 C 0.11761 0.28351 0.49897 0.0
C2409 C 0.14912 0.30921 0.46957 0.0
C2410 C 0.1496 0.31095 0.49613 0.0
C2411 C 0.13504 0.29917 0.53778 0.0
C2412 C 0.11994 0.28572 0.55286 0.0
C2413 C 0.13408 0.29805 0.51102 0.0
C2414 C 0.10346 0.27147 0.54064 0.0
C2415 C 0.10227 0.27043 0.514 0.0
H2416 H 0.6891 0.15261 0.5415 0.0
H2417 H 0.73823 0.09652 0.55074 0.0
H2418 H 0.74071 0.09206 0.50465 0.0
H2419 H 0.73008 0.10469 0.46157 0.0
H2420 H 0.68084 0.1606 0.45198 0.0
H2421 H 0.67729 0.16429 0.49819 0.0
C2422 C 0.70027 0.13932 0.53349 0.0
C2423 C 0.71348 0.125 0.5498 0.0
C2424 C 0.70168 0.13677 0.50678 0.0
C2425 C 0.72782 0.10785 0.53886 0.0
C2426 C 0.7293 0.10527 0.5124 0.0
C2427 C 0.71844 0.11763 0.4695 0.0
C2428 C 0.70584 0.13237 0.45311 0.0
C2429 C 0.71647 0.11973 0.49616 0.0
C2430 C 0.69083 0.14898 0.46396 0.0
C2431 C 0.68879 0.15116 0.49047 0.0
H2432 H 0.89133 0.72765 0.46359 0.0
H2433 H 0.83768 0.67532 0.46024 0.0
H2434 H 0.83626 0.67404 0.50675 0.0
H2435 H 0.84962 0.68833 0.54862 0.0
H2436 H 0.90318 0.74084 0.55149 0.0
H2437 H 0.90516 0.7413 0.50515 0.0
C2438 C 0.87933 0.71589 0.47295 0.0
C2439 C 0.86463 0.70165 0.45821 0.0
C2440 C 0.87853 0.71523 0.49978 0.0
C2441 C 0.84925 0.68653 0.47091 0.0
C2442 C 0.84839 0.68578 0.4976 0.0
C2443 C 0.86182 0.69981 0.53916 0.0
C2444 C 0.87618 0.71454 0.55378 0.0
C2445 C 0.86287 0.70012 0.51227 0.0
C2446 C 0.89184 0.72929 0.54097 0.0
C2447 C 0.89301 0.72961 0.51435 0.0
H2448 H 0.27604 0.89394 0.5458 0.0
H2449 H 0.32525 0.8373 0.54747 0.0
H2450 H 0.32495 0.83563 0.50104 0.0
H2451 H 0.31015 0.8494 0.45998 0.0
H2452 H 0.26127 0.90627 0.4579 0.0
H2453 H 0.26209 0.90856 0.50442 0.0
C2454 C 0.2868 0.88128 0.53606 0.0
C2455 C 0.3006 0.86575 0.55032 0.0
C2456 C 0.28658 0.88035 0.50922 0.0
C2457 C 0.31442 0.84951 0.53718 0.0
C2458 C 0.31426 0.84848 0.51055 0.0
C2459 C 0.29971 0.8624 0.4696 0.0
C2460 C 0.28566 0.87762 0.45527 0.0
C2461 C 0.3003 0.86371 0.49638 0.0
C2462 C 0.2723 0.89432 0.46829 0.0
C2463 C 0.27272 0.89564 0.49496 0.0
H2464 H 0.10376 0.72887 0.45841 0.0
H2465 H 0.15519 0.67442 0.45301 0.0
H2466 H 0.15847 0.67342 0.49929 0.0
H2467 H 0.14759 0.68847 0.54119 0.0
H2468 H 0.09607 0.74276 0.54693 0.0
H2469 H 0.09209 0.74325 0.50058 0.0
C2470 C 0.11557 0.71664 0.4673 0.0
C2471 C 0.12916 0.70174 0.45208 0.0
C2472 C 0.11748 0.71616 0.49402 0.0
C2473 C 0.14445 0.68611 0.4641 0.0
C2474 C 0.1464 0.68553 0.49063 0.0
C2475 C 0.13542 0.7004 0.53241 0.0
C2476 C 0.12219 0.71556 0.54766 0.0
C2477 C 0.13313 0.70057 0.50575 0.0
C2478 C 0.1065 0.73086 0.53576 0.0
C2479 C 0.10419 0.73117 0.50921 0.0
H2480 H 0.27915 0.10233 0.46394 0.0
H2481 H 0.32734 0.15977 0.46195 0.0
H2482 H 0.32753 0.16116 0.50853 0.0
H2483 H 0.31313 0.14681 0.54997 0.0
H2484 H 0.26506 0.08918 0.55134 0.0
H2485 H 0.26588 0.08723 0.505 0.0
C2486 C 0.2898 0.11514 0.4736 0.0
C2487 C 0.30313 0.13097 0.45926 0.0
C2488 C 0.28986 0.11588 0.50042 0.0
C2489 C 0.31686 0.14734 0.47234 0.0
C2490 C 0.31697 0.14819 0.49905 0.0
C2491 C 0.30291 0.13373 0.54018 0.0
C2492 C 0.28902 0.11822 0.55436 0.0
C2493 C 0.3034 0.13265 0.51331 0.0
C2494 C 0.27594 0.10139 0.54115 0.0
C2495 C 0.27635 0.10025 0.51454 0.0
H2496 H 0.855 0.3156 0.4612 0.0
H2497 H 0.90883 0.26341 0.45814 0.0
H2498 H 0.91083 0.26301 0.50467 0.0
H2499 H 0.89675 0.27687 0.5462 0.0
H2500 H 0.84309 0.32931 0.54881 0.0
H2501 H 0.8418 0.33021 0.50242 0.0
C2502 C 0.86727 0.30417 0.47061 0.0
C2503 C 0.88172 0.28955 0.45607 0.0
C2504 C 0.8684 0.30405 0.49734 0.0
C2505 C 0.89749 0.27489 0.46876 0.0
C2506 C 0.89865 0.27462 0.4954 0.0
C2507 C 0.88483 0.28859 0.53668 0.0
C2508 C 0.87002 0.30294 0.55113 0.0
C2509 C 0.88411 0.28906 0.50989 0.0
C2510 C 0.85472 0.31803 0.53832 0.0
C2511 C 0.85392 0.31856 0.51172 0.0
H2512 H 0.69224 0.85443 0.54664 0.0
H2513 H 0.73806 0.91358 0.55277 0.0
H2514 H 0.74052 0.91586 0.50635 0.0
H2515 H 0.7302 0.90065 0.46396 0.0
H2516 H 0.68459 0.84122 0.45848 0.0
H2517 H 0.68161 0.83963 0.50468 0.0
C2518 C 0.70273 0.86791 0.53792 0.0
C2519 C 0.71493 0.88378 0.5533 0.0
C2520 C 0.70417 0.8691 0.51125 0.0
C2521 C 0.72844 0.90109 0.54149 0.0
C2522 C 0.7299 0.90242 0.5149 0.0
C2523 C 0.71954 0.88738 0.47283 0.0
C2524 C 0.70765 0.87112 0.4576 0.0
C2525 C 0.71791 0.88644 0.49958 0.0
C2526 C 0.69396 0.85403 0.46956 0.0
C2527 C 0.69222 0.85305 0.49607 0.0
H2528 H 0.60892 0.77588 0.04133 0.0
H2529 H 0.65963 0.83096 0.04735 0.0
H2530 H 0.66218 0.83318 1.00114 0.0
H2531 H 0.65087 0.81914 0.95901 0.0
H2532 H 0.60051 0.76384 0.95246 0.0
H2533 H 0.59708 0.76218 0.99882 0.0
C2534 C 0.62044 0.78847 0.03257 0.0
C2535 C 0.63401 0.80322 0.04796 0.0
C2536 C 0.622 0.78962 0.00582 0.0
C2537 C 0.64892 0.81935 0.03614 0.0
C2538 C 0.65045 0.82065 0.00963 0.0
C2539 C 0.63907 0.80674 0.96763 0.0
C2540 C 0.62601 0.79165 0.95214 0.0
C2541 C 0.63719 0.8058 0.99429 0.0
C2542 C 0.61083 0.7757 0.96382 0.0
C2543 C 0.60883 0.77471 0.99038 0.0
H2544 H 0.22688 0.60579 0.95825 0.0
H2545 H 0.17011 0.65448 0.95134 0.0
H2546 H 0.16736 0.65716 0.99753 0.0
H2547 H 0.18173 0.64691 0.03989 0.0
H2548 H 0.23878 0.59865 0.04724 0.0
H2549 H 0.24067 0.59473 1.00095 0.0
C2550 C 0.21376 0.61683 0.96681 0.0
C2551 C 0.19874 0.62987 0.95118 0.0
C2552 C 0.21237 0.61855 0.99354 0.0
C2553 C 0.18194 0.64419 0.96275 0.0
C2554 C 0.18035 0.64581 0.98924 0.0
C2555 C 0.19457 0.63546 0.03146 0.0
C2556 C 0.2101 0.62316 0.04716 0.0
C2557 C 0.19562 0.63327 0.00481 0.0
C2558 C 0.22658 0.60839 0.03572 0.0
C2559 C 0.22769 0.60611 0.0092 0.0
H2560 H 0.34714 0.18844 0.04275 0.0
H2561 H 0.40704 0.23295 0.05127 0.0
H2562 H 0.41021 0.23645 0.00515 0.0
H2563 H 0.39568 0.22783 0.96229 0.0
H2564 H 0.33547 0.18383 0.95333 0.0
H2565 H 0.33285 0.17931 0.99953 0.0
C2566 C 0.36098 0.19878 0.03455 0.0
C2567 C 0.37678 0.21041 0.05067 0.0
C2568 C 0.36265 0.20097 0.00782 0.0
C2569 C 0.39454 0.22382 0.03952 0.0
C2570 C 0.3964 0.22588 0.01305 0.0
C2571 C 0.38196 0.21721 0.97036 0.0
C2572 C 0.36581 0.20624 0.95415 0.0
C2573 C 0.38046 0.2147 0.99701 0.0
C2574 C 0.3482 0.19254 0.96517 0.0
C2575 C 0.34666 0.18991 0.99167 0.0
H2576 H 0.77193 0.3938 0.0456 0.0
H2577 H 0.82752 0.3435 0.04985 0.0
H2578 H 0.82923 0.34174 0.00355 0.0
H2579 H 0.81452 0.35351 0.96187 0.0
H2580 H 0.75859 0.40333 0.95708 0.0
H2581 H 0.75761 0.40618 0.00353 0.0
C2582 C 0.78452 0.38254 0.03644 0.0
C2583 C 0.79956 0.36884 0.05136 0.0
C2584 C 0.78537 0.38143 0.00965 0.0
C2585 C 0.81569 0.35429 0.03901 0.0
C2586 C 0.81671 0.35322 0.01246 0.0
C2587 C 0.80214 0.36509 0.97089 0.0
C2588 C 0.78665 0.37815 0.95587 0.0
C2589 C 0.80154 0.36658 0.9976 0.0
C2590 C 0.77075 0.39303 0.96807 0.0
C2591 C 0.77014 0.39468 0.99468 0.0
H2592 H 0.65311 0.19053 0.04682 0.0
H2593 H 0.59344 0.23594 0.05041 0.0
H2594 H 0.59016 0.23514 0.0042 0.0
H2595 H 0.60448 0.22255 0.9626 0.0
H2596 H 0.66441 0.17764 0.95825 0.0
H2597 H 0.66714 0.17727 0.00475 0.0
C2598 C 0.63934 0.2002 0.03754 0.0
C2599 C 0.62362 0.21331 0.05231 0.0
C2600 C 0.63752 0.1998 0.01071 0.0
C2601 C 0.60589 0.22572 0.03975 0.0
C2602 C 0.60394 0.22529 0.01321 0.0
C2603 C 0.61807 0.2125 0.97173 0.0
C2604 C 0.63415 0.20011 0.95676 0.0
C2605 C 0.6197 0.2125 0.99849 0.0
C2606 C 0.65172 0.18735 0.96915 0.0
C2607 C 0.65334 0.18714 0.99581 0.0
H2608 H 0.80609 0.65006 0.04413 0.0
H2609 H 0.76008 0.59104 0.05021 0.0
H2610 H 0.75903 0.58761 0.00393 0.0
H2611 H 0.77026 0.60167 0.96165 0.0
H2612 H 0.81606 0.66077 0.9551 0.0
H2613 H 0.81806 0.66368 1.00153 0.0
C2614 C 0.79589 0.63638 0.0354 0.0
C2615 C 0.78317 0.62087 0.05087 0.0
C2616 C 0.79526 0.63447 0.00859 0.0
C2617 C 0.77007 0.60327 0.03899 0.0
C2618 C 0.76942 0.60127 0.01243 0.0
C2619 C 0.78079 0.61516 0.97028 0.0
C2620 C 0.79296 0.63097 0.95469 0.0
C2621 C 0.78182 0.61683 0.99703 0.0
C2622 C 0.80648 0.64832 0.96645 0.0
C2623 C 0.80763 0.65003 0.99308 0.0
H2624 H 0.35476 0.80507 0.9623 0.0
H2625 H 0.41381 0.75924 0.95548 0.0
H2626 H 0.41733 0.75772 1.00184 0.0
H2627 H 0.40294 0.7684 0.04458 0.0
H2628 H 0.3434 0.81372 0.05084 0.0
H2629 H 0.34099 0.81637 0.00466 0.0
C2630 C 0.36851 0.79482 0.97086 0.0
C2631 C 0.38394 0.78229 0.95523 0.0
C2632 C 0.37038 0.79385 0.9976 0.0
C2633 C 0.40161 0.7691 0.96689 0.0
C2634 C 0.40366 0.76818 0.99348 0.0
C2635 C 0.38952 0.77898 0.03588 0.0
C2636 C 0.37343 0.79083 0.05141 0.0
C2637 C 0.38803 0.78034 0.00907 0.0
C2638 C 0.35611 0.80438 0.0396 0.0
C2639 C 0.35465 0.80592 0.01307 0.0
H2640 H 0.18596 0.35329 0.95993 0.0
H2641 H 0.23878 0.40613 0.95247 0.0
H2642 H 0.24053 0.41011 0.99876 0.0
H2643 H 0.22786 0.39792 0.04154 0.0
H2644 H 0.17579 0.34429 0.04862 0.0
H2645 H 0.17291 0.34159 1.00244 0.0
C2646 C 0.19783 0.36575 0.96835 0.0
C2647 C 0.21222 0.37932 0.95258 0.0
C2648 C 0.19888 0.36792 0.99503 0.0
C2649 C 0.22749 0.39536 0.96402 0.0
C2650 C 0.22851 0.3977 0.99055 0.0
C2651 C 0.21573 0.38579 0.03302 0.0
C2652 C 0.20203 0.37142 0.04872 0.0
C2653 C 0.21437 0.38399 0.00627 0.0
C2654 C 0.18654 0.35567 0.03718 0.0
C2655 C 0.1849 0.35402 0.01068 0.0
H2656 H 0.21142 0.35172 0.22857 0.0
H2657 H 0.16231 0.30716 0.19023 0.0
H2658 H 0.14939 0.29166 0.23121 0.0
H2659 H 0.1519 0.29079 0.27807 0.0
H2660 H 0.19908 0.33723 0.31661 0.0
H2661 H 0.21287 0.35192 0.27556 0.0
C2662 C 0.19794 0.33857 0.22922 0.0
C2663 C 0.18793 0.33052 0.2064 0.0
C2664 C 0.19023 0.33006 0.25292 0.0
C2665 C 0.17026 0.3137 0.20754 0.0
C2666 C 0.16289 0.30478 0.23096 0.0
C2667 C 0.16526 0.30406 0.27745 0.0
C2668 C 0.17456 0.31279 0.30031 0.0
C2669 C 0.17274 0.31282 0.25378 0.0
C2670 C 0.19162 0.33024 0.29925 0.0
C2671 C 0.19955 0.33863 0.27579 0.0
H2672 H 0.68751 0.16962 0.19939 0.0
H2673 H 0.63619 0.21788 0.22734 0.0
H2674 H 0.64452 0.20631 0.27118 0.0
H2675 H 0.66707 0.18321 0.30187 0.0
H2676 H 0.7207 0.13729 0.27446 0.0
H2677 H 0.71084 0.1471 0.23033 0.0
C2678 C 0.67812 0.1775 0.21511 0.0
C2679 C 0.66123 0.19455 0.2101 0.0
C2680 C 0.68346 0.1712 0.24043 0.0
C2681 C 0.64935 0.2048 0.23067 0.0
C2682 C 0.65407 0.19815 0.25577 0.0
C2683 C 0.67648 0.17525 0.28621 0.0
C2684 C 0.6945 0.15947 0.29141 0.0
C2685 C 0.67117 0.18148 0.26091 0.0
C2686 C 0.70678 0.14953 0.27095 0.0
C2687 C 0.70114 0.15512 0.24571 0.0
H2688 H 0.79019 0.64252 0.22792 0.0
H2689 H 0.83676 0.68922 0.18896 0.0
H2690 H 0.85254 0.70219 0.22995 0.0
H2691 H 0.85263 0.70071 0.27708 0.0
H2692 H 0.80783 0.65198 0.31563 0.0
H2693 H 0.79196 0.63931 0.2747 0.0
C2694 C 0.80377 0.65557 0.22841 0.0
C2695 C 0.81212 0.66507 0.20544 0.0
C2696 C 0.81312 0.66255 0.25202 0.0
C2697 C 0.83001 0.68166 0.20637 0.0
C2698 C 0.83901 0.68911 0.22981 0.0
C2699 C 0.83942 0.68729 0.27649 0.0
C2700 C 0.83133 0.67742 0.29942 0.0
C2701 C 0.83064 0.67975 0.25279 0.0
C2702 C 0.81442 0.65984 0.2983 0.0
C2703 C 0.80526 0.65263 0.27489 0.0
H2704 H 0.35467 0.79043 0.23364 0.0
H2705 H 0.30968 0.83551 0.19026 0.0
H2706 H 0.29294 0.85072 0.22962 0.0
H2707 H 0.29085 0.85128 0.27649 0.0
H2708 H 0.33737 0.80804 0.32012 0.0
H2709 H 0.35367 0.79216 0.28073 0.0
C2710 C 0.34118 0.80355 0.23283 0.0
C2711 C 0.33339 0.81172 0.20901 0.0
C2712 C 0.33187 0.8126 0.25564 0.0
C2713 C 0.31607 0.82894 0.20831 0.0
C2714 C 0.30642 0.83764 0.23083 0.0
C2715 C 0.30452 0.83834 0.27736 0.0
C2716 C 0.31276 0.83076 0.30122 0.0
C2717 C 0.31414 0.82959 0.25462 0.0
C2718 C 0.33071 0.81421 0.30201 0.0
C2719 C 0.34002 0.80507 0.27948 0.0
H2720 H 0.20576 0.64839 0.77183 0.0
H2721 H 0.15397 0.69012 0.80976 0.0
H2722 H 0.14099 0.70548 0.76876 0.0
H2723 H 0.1445 0.70734 0.72219 0.0
H2724 H 0.19419 0.66363 0.68367 0.0
H2725 H 0.20785 0.64872 0.72478 0.0
C2726 C 0.19165 0.66086 0.77105 0.0
C2727 C 0.18093 0.66823 0.79374 0.0
C2728 C 0.18393 0.66926 0.74734 0.0
C2729 C 0.16246 0.68414 0.79252 0.0
C2730 C 0.15507 0.69299 0.7691 0.0
C2731 C 0.15837 0.6946 0.72283 0.0
C2732 C 0.1685 0.68674 0.70004 0.0
C2733 C 0.16571 0.68573 0.74642 0.0
C2734 C 0.18616 0.66993 0.70103 0.0
C2735 C 0.19399 0.66144 0.72451 0.0
H2736 H 0.33145 0.18282 0.7005 0.0
H2737 H 0.2776 0.13806 0.72979 0.0
H2738 H 0.28849 0.14806 0.77342 0.0
H2739 H 0.3129 0.1699 0.80346 0.0
H2740 H 0.36517 0.21663 0.7745 0.0
H2741 H 0.35534 0.20555 0.73073 0.0
C2742 C 0.32217 0.17523 0.71646 0.0
C2743 C 0.30377 0.15968 0.71186 0.0
C2744 C 0.32821 0.18145 0.74162 0.0
C2745 C 0.29177 0.15015 0.73275 0.0
C2746 C 0.29801 0.15582 0.75775 0.0
C2747 C 0.3222 0.17759 0.78757 0.0
C2748 C 0.33979 0.19401 0.79227 0.0
C2749 C 0.31614 0.17151 0.76243 0.0
C2750 C 0.35149 0.20401 0.77143 0.0
C2751 C 0.34591 0.19764 0.74638 0.0
H2752 H 0.85692 0.30223 0.72925 0.0
H2753 H 0.80886 0.34937 0.69314 0.0
H2754 H 0.79407 0.36125 0.73487 0.0
H2755 H 0.79426 0.35765 0.78153 0.0
H2756 H 0.84429 0.31292 0.81802 0.0
H2757 H 0.85896 0.30068 0.77624 0.0
C2758 C 0.84323 0.31511 0.73059 0.0
C2759 C 0.83383 0.32479 0.70824 0.0
C2760 C 0.83518 0.32224 0.75465 0.0
C2761 C 0.81636 0.34172 0.71013 0.0
C2762 C 0.80785 0.34846 0.73395 0.0
C2763 C 0.80837 0.34521 0.78029 0.0
C2764 C 0.81804 0.33597 0.80269 0.0
C2765 C 0.81704 0.33873 0.75631 0.0
C2766 C 0.83659 0.32022 0.80094 0.0
C2767 C 0.84492 0.31319 0.7771 0.0
H2768 H 0.70702 0.86213 0.72823 0.0
H2769 H 0.66325 0.8126 0.68944 0.0
H2770 H 0.64926 0.79798 0.73049 0.0
H2771 H 0.64993 0.79896 0.77736 0.0
H2772 H 0.69192 0.85005 0.81609 0.0
H2773 H 0.70612 0.86448 0.77505 0.0
C2774 C 0.69445 0.84811 0.72879 0.0
C2775 C 0.68632 0.83829 0.7059 0.0
C2776 C 0.68618 0.84011 0.7524 0.0
C2777 C 0.66976 0.8204 0.70684 0.0
C2778 C 0.6618 0.81202 0.73028 0.0
C2779 C 0.66221 0.81324 0.77679 0.0
C2780 C 0.67005 0.82331 0.79967 0.0
C2781 C 0.66997 0.82168 0.75317 0.0
C2782 C 0.68566 0.84203 0.7987 0.0
C2783 C 0.69382 0.85024 0.77527 0.0
H2784 H 0.81609 0.66543 0.70108 0.0
H2785 H 0.86186 0.71913 0.72869 0.0
H2786 H 0.85314 0.70839 0.77269 0.0
H2787 H 0.83158 0.68458 0.80358 0.0
H2788 H 0.78333 0.63296 0.7763 0.0
H2789 H 0.79385 0.64197 0.73218 0.0
C2790 C 0.82423 0.67464 0.71677 0.0
C2791 C 0.83965 0.693 0.71161 0.0
C2792 C 0.8186 0.66881 0.74216 0.0
C2793 C 0.84987 0.70498 0.73213 0.0
C2794 C 0.84491 0.69884 0.75733 0.0
C2795 C 0.82348 0.67522 0.78796 0.0
C2796 C 0.80676 0.65809 0.79322 0.0
C2797 C 0.82916 0.68092 0.7626 0.0
C2798 C 0.7962 0.6463 0.77277 0.0
C2799 C 0.80224 0.65142 0.74752 0.0
H2800 H 0.3589 0.78817 0.77983 0.0
H2801 H 0.31365 0.83659 0.81816 0.0
H2802 H 0.30089 0.85204 0.77694 0.0
H2803 H 0.30219 0.85133 0.72984 0.0
H2804 H 0.34963 0.80477 0.69186 0.0
H2805 H 0.36201 0.78914 0.73303 0.0
C2806 C 0.34621 0.80209 0.77914 0.0
C2807 C 0.33703 0.81107 0.80198 0.0
C2808 C 0.33939 0.81124 0.75542 0.0
C2809 C 0.32093 0.82937 0.80083 0.0
C2810 C 0.31361 0.83818 0.77727 0.0
C2811 C 0.31526 0.83778 0.73062 0.0
C2812 C 0.32485 0.8291 0.70782 0.0
C2813 C 0.32265 0.82918 0.75442 0.0
C2814 C 0.342 0.81177 0.70912 0.0
C2815 C 0.34904 0.80277 0.73266 0.0
H2816 H 0.14205 0.29468 0.72951 0.0
H2817 H 0.18509 0.34382 0.68924 0.0
H2818 H 0.1995 0.35915 0.72982 0.0
H2819 H 0.2005 0.35797 0.77675 0.0
H2820 H 0.15539 0.31079 0.81709 0.0
H2821 H 0.14106 0.29535 0.77651 0.0
C2822 C 0.15458 0.30876 0.72966 0.0
C2823 C 0.16269 0.31797 0.70645 0.0
C2824 C 0.1624 0.31781 0.75305 0.0
C2825 C 0.17861 0.33645 0.70688 0.0
C2826 C 0.18689 0.34517 0.73005 0.0
C2827 C 0.18752 0.34432 0.77662 0.0
C2828 C 0.17917 0.33536 0.79984 0.0
C2829 C 0.17902 0.33589 0.75325 0.0
C2830 C 0.16208 0.31795 0.79944 0.0
C2831 C 0.15393 0.30908 0.77626 0.0
H2832 H 0.71078 0.1538 0.72403 0.0
H2833 H 0.65873 0.19584 0.68706 0.0
H2834 H 0.64375 0.20797 0.72875 0.0
H2835 H 0.64564 0.20672 0.7759 0.0
H2836 H 0.69636 0.16261 0.81231 0.0
H2837 H 0.71159 0.15118 0.7707 0.0
C2838 C 0.6962 0.16567 0.72507 0.0
C2839 C 0.68602 0.17407 0.70247 0.0
C2840 C 0.6874 0.17218 0.74905 0.0
C2841 C 0.66689 0.18915 0.70417 0.0
C2842 C 0.65834 0.19611 0.72801 0.0
C2843 C 0.66005 0.19464 0.77469 0.0
C2844 C 0.66993 0.18564 0.79721 0.0
C2845 C 0.66849 0.18777 0.7506 0.0
C2846 C 0.68839 0.16976 0.79531 0.0
C2847 C 0.69717 0.16325 0.77151 0.0
H2848 H 0.79863 0.35327 0.23087 0.0
H2849 H 0.84925 0.31061 0.19226 0.0
H2850 H 0.863 0.29572 0.23316 0.0
H2851 H 0.86055 0.29457 0.27989 0.0
H2852 H 0.81168 0.33891 0.31885 0.0
H2853 H 0.79736 0.35339 0.27789 0.0
C2854 C 0.81265 0.3407 0.23146 0.0
C2855 C 0.82281 0.33296 0.20859 0.0
C2856 C 0.82078 0.3325 0.25509 0.0
C2857 C 0.84117 0.31689 0.20961 0.0
C2858 C 0.84901 0.30831 0.23298 0.0
C2859 C 0.84671 0.30735 0.27939 0.0
C2860 C 0.83705 0.31552 0.3023 0.0
C2861 C 0.83891 0.31593 0.25583 0.0
C2862 C 0.81939 0.33236 0.30142 0.0
C2863 C 0.81117 0.34061 0.27802 0.0
H2864 H 0.6485 0.79954 0.22738 0.0
H2865 H 0.69146 0.85068 0.19008 0.0
H2866 H 0.70653 0.86342 0.23135 0.0
H2867 H 0.70771 0.85989 0.27812 0.0
H2868 H 0.66293 0.81043 0.31554 0.0
H2869 H 0.6484 0.79718 0.27423 0.0
C2870 C 0.66117 0.81346 0.22832 0.0
C2871 C 0.66894 0.82406 0.20574 0.0
C2872 C 0.66946 0.82099 0.25214 0.0
C2873 C 0.68515 0.84228 0.20723 0.0
C2874 C 0.69384 0.84953 0.2308 0.0
C2875 C 0.69483 0.84617 0.27717 0.0
C2876 C 0.68652 0.83605 0.29978 0.0
C2877 C 0.68617 0.83898 0.25338 0.0
C2878 C 0.66957 0.81852 0.29836 0.0
C2879 C 0.66128 0.8109 0.27476 0.0
H2880 H 0.13956 0.70372 0.27198 0.0
H2881 H 0.18617 0.65588 0.30931 0.0
H2882 H 0.20061 0.64272 0.26799 0.0
H2883 H 0.20043 0.6451 0.22135 0.0
H2884 H 0.15219 0.69083 0.18346 0.0
H2885 H 0.13785 0.70448 0.22486 0.0
C2886 C 0.15288 0.69043 0.27099 0.0
C2887 C 0.1619 0.68089 0.29362 0.0
C2888 C 0.16079 0.68258 0.24711 0.0
C2889 C 0.17892 0.66345 0.29214 0.0
C2890 C 0.18724 0.65596 0.26854 0.0
C2891 C 0.1868 0.65808 0.22217 0.0
C2892 C 0.17752 0.66713 0.19946 0.0
C2893 C 0.17837 0.66545 0.24593 0.0
C2894 C 0.15959 0.68363 0.20074 0.0
C2895 C 0.15144 0.69147 0.22438 0.0
H2896 H 0.30336 0.13957 0.27973 0.0
H2897 H 0.35007 0.18886 0.31451 0.0
H2898 H 0.36157 0.20298 0.27235 0.0
H2899 H 0.35749 0.20214 0.22566 0.0
H2900 H 0.31322 0.15094 0.19049 0.0
H2901 H 0.30167 0.13664 0.23269 0.0
C2902 C 0.31611 0.15336 0.27803 0.0
C2903 C 0.32571 0.16331 0.30019 0.0
C2904 C 0.32303 0.16104 0.25368 0.0
C2905 C 0.34246 0.18091 0.29774 0.0
C2906 C 0.34898 0.18904 0.27365 0.0
C2907 C 0.34534 0.18782 0.22725 0.0
C2908 C 0.336 0.17776 0.20504 0.0
C2909 C 0.33924 0.17938 0.25151 0.0
C2910 C 0.32061 0.15896 0.20734 0.0
C2911 C 0.31396 0.15084 0.23145 0.0
loop_
_geom_bond_atom_site_label_1
_geom_bond_atom_site_label_2
_geom_bond_distance
_geom_bond_site_symmetry_2
_ccdc_geom_bond_type
Co0 O2 2.143 . S
Co0 O8 2.074 . S
Co0 O11 2.093 . S
Co0 O24 2.097 . S
Co0 N41 2.151 . S
Co0 N49 2.214 . S
Co1 O2 2.160 . S
Co1 O7 2.058 . S
Co1 O17 2.057 . S
Co1 O32 2.037 . S
Co1 N36 2.145 . S
Co1 N57 2.257 . S
O2 Co0 2.143 . S
O2 Co1 2.160 . S
C3 O4 1.278 . S
C3 O11 1.224 . S
O4 C3 1.278 . S
C5 O6 1.245 . S
C5 O17 1.232 . S
O6 C5 1.245 . S
O7 Co1 2.058 . S
O7 C33 1.269 . S
O8 Co0 2.074 . S
O8 C33 1.257 . S
H9 C34 0.930 . S
H10 C40 0.930 . S
O11 Co0 2.093 . S
O11 C3 1.224 . S
H12 C44 0.929 . S
H13 C46 0.930 . S
H14 C47 0.930 . S
H15 C45 0.929 . S
H16 C48 0.928 . S
O17 Co1 2.057 . S
O17 C5 1.232 . S
H18 C37 0.929 . S
H19 C38 0.929 . S
H20 C50 0.931 . S
H21 C42 0.929 . S
H22 C51 0.930 . S
H23 C43 0.931 . S
O24 Co0 2.097 . S
O24 C52 1.214 . S
H25 C53 0.929 . S
H26 C54 0.929 . S
H27 C55 0.930 . S
H28 C56 0.929 . S
H29 C58 0.930 . S
H30 C35 0.930 . S
H31 C39 0.930 . S
O32 Co1 2.037 . S
O32 C52 1.234 . S
C33 O7 1.269 . S
C33 O8 1.257 . S
C34 H9 0.930 . S
C34 C37 1.388 . S
C34 C39 1.418 . S
C35 H30 0.930 . S
C35 C38 1.404 . S
C35 C39 1.353 . S
N36 Co1 2.145 . S
N36 C37 1.397 . S
N36 C38 1.334 . S
C37 H18 0.929 . S
C37 C34 1.388 . S
C37 N36 1.397 . S
C38 H19 0.929 . S
C38 C35 1.404 . S
C38 N36 1.334 . S
C39 H31 0.930 . S
C39 C34 1.418 . S
C39 C35 1.353 . S
C40 H10 0.930 . S
C40 N41 1.330 . S
C40 C42 1.446 . S
N41 Co0 2.151 . S
N41 C40 1.330 . S
N41 C45 1.418 . S
C42 H21 0.929 . S
C42 C40 1.446 . S
C42 C43 1.332 . S
C43 H23 0.931 . S
C43 C42 1.332 . S
C43 C44 1.267 . S
C44 H12 0.929 . S
C44 C43 1.267 . S
C44 C45 1.251 . S
C45 H15 0.929 . S
C45 N41 1.418 . S
C45 C44 1.251 . S
C46 H13 0.930 . S
C46 C48 1.406 . S
C46 C51 1.261 . S
C47 H14 0.930 . S
C47 N49 1.325 . S
C47 C50 1.357 . S
C48 H16 0.928 . S
C48 C46 1.406 . S
C48 N49 1.261 . S
N49 Co0 2.214 . S
N49 C47 1.325 . S
N49 C48 1.261 . S
C50 H20 0.931 . S
C50 C47 1.357 . S
C50 C51 1.312 . S
C51 H22 0.930 . S
C51 C46 1.261 . S
C51 C50 1.312 . S
C52 O24 1.214 . S
C52 O32 1.234 . S
C53 H25 0.929 . S
C53 C56 1.391 . S
C53 C58 1.391 . S
C54 H26 0.929 . S
C54 C55 1.390 . S
C54 N57 1.391 . S
C55 H27 0.930 . S
C55 C54 1.390 . S
C55 C56 1.392 . S
C56 H28 0.929 . S
C56 C53 1.391 . S
C56 C55 1.392 . S
N57 Co1 2.257 . S
N57 C54 1.391 . S
N57 C58 1.388 . S
C58 H29 0.930 . S
C58 C53 1.391 . S
C58 N57 1.388 . S
Co59 O61 2.143 . S
Co59 O67 2.074 . S
Co59 O70 2.093 . S
Co59 O83 2.097 . S
Co59 N100 2.151 . S
Co59 N108 2.214 . S
Co60 O61 2.160 . S
Co60 O66 2.058 . S
Co60 O76 2.057 . S
Co60 O91 2.037 . S
Co60 N95 2.145 . S
Co60 N116 2.257 . S
O61 Co59 2.143 . S
O61 Co60 2.160 . S
C62 O63 1.278 . S
C62 O70 1.224 . S
O63 C62 1.278 . S
C64 O65 1.245 . S
C64 O76 1.232 . S
O65 C64 1.245 . S
O66 Co60 2.058 . S
O66 C92 1.269 . S
O67 Co59 2.074 . S
O67 C92 1.257 . S
H68 C93 0.930 . S
H69 C99 0.930 . S
O70 Co59 2.093 . S
O70 C62 1.224 . S
H71 C103 0.929 . S
H72 C105 0.930 . S
H73 C106 0.930 . S
H74 C104 0.929 . S
H75 C107 0.928 . S
O76 Co60 2.057 . S
O76 C64 1.232 . S
H77 C96 0.929 . S
H78 C97 0.929 . S
H79 C109 0.931 . S
H80 C101 0.929 . S
H81 C110 0.930 . S
H82 C102 0.931 . S
O83 Co59 2.097 . S
O83 C111 1.214 . S
H84 C112 0.929 . S
H85 C113 0.929 . S
H86 C114 0.930 . S
H87 C115 0.929 . S
H88 C117 0.930 . S
H89 C94 0.930 . S
H90 C98 0.930 . S
O91 Co60 2.037 . S
O91 C111 1.234 . S
C92 O66 1.269 . S
C92 O67 1.257 . S
C93 H68 0.930 . S
C93 C96 1.388 . S
C93 C98 1.418 . S
C94 H89 0.930 . S
C94 C97 1.404 . S
C94 C98 1.353 . S
N95 Co60 2.145 . S
N95 C96 1.397 . S
N95 C97 1.334 . S
C96 H77 0.929 . S
C96 C93 1.388 . S
C96 N95 1.397 . S
C97 H78 0.929 . S
C97 C94 1.404 . S
C97 N95 1.334 . S
C98 H90 0.930 . S
C98 C93 1.418 . S
C98 C94 1.353 . S
C99 H69 0.930 . S
C99 N100 1.330 . S
C99 C101 1.446 . S
N100 Co59 2.151 . S
N100 C99 1.330 . S
N100 C104 1.418 . S
C101 H80 0.929 . S
C101 C99 1.446 . S
C101 C102 1.332 . S
C102 H82 0.931 . S
C102 C101 1.332 . S
C102 C103 1.267 . S
C103 H71 0.929 . S
C103 C102 1.267 . S
C103 C104 1.251 . S
C104 H74 0.929 . S
C104 N100 1.418 . S
C104 C103 1.251 . S
C105 H72 0.930 . S
C105 C107 1.406 . S
C105 C110 1.261 . S
C106 H73 0.930 . S
C106 N108 1.325 . S
C106 C109 1.357 . S
C107 H75 0.928 . S
C107 C105 1.406 . S
C107 N108 1.261 . S
N108 Co59 2.214 . S
N108 C106 1.325 . S
N108 C107 1.261 . S
C109 H79 0.931 . S
C109 C106 1.357 . S
C109 C110 1.312 . S
C110 H81 0.930 . S
C110 C105 1.261 . S
C110 C109 1.312 . S
C111 O83 1.214 . S
C111 O91 1.234 . S
C112 H84 0.929 . S
C112 C115 1.391 . S
C112 C117 1.391 . S
C113 H85 0.929 . S
C113 C114 1.390 . S
C113 N116 1.391 . S
C114 H86 0.930 . S
C114 C113 1.390 . S
C114 C115 1.392 . S
C115 H87 0.929 . S
C115 C112 1.391 . S
C115 C114 1.392 . S
N116 Co60 2.257 . S
N116 C113 1.391 . S
N116 C117 1.388 . S
C117 H88 0.930 . S
C117 C112 1.391 . S
C117 N116 1.388 . S
Co118 O120 2.143 . S
Co118 O126 2.074 . S
Co118 O129 2.093 . S
Co118 O142 2.097 . S
Co118 N159 2.151 . S
Co118 N167 2.214 . S
Co119 O120 2.160 . S
Co119 O125 2.058 . S
Co119 O135 2.057 . S
Co119 O150 2.037 . S
Co119 N154 2.145 . S
Co119 N175 2.257 . S
O120 Co118 2.143 . S
O120 Co119 2.160 . S
C121 O122 1.278 . S
C121 O129 1.224 . S
O122 C121 1.278 . S
C123 O124 1.245 . S
C123 O135 1.232 . S
O124 C123 1.245 . S
O125 Co119 2.058 . S
O125 C151 1.269 . S
O126 Co118 2.074 . S
O126 C151 1.257 . S
H127 C152 0.930 . S
H128 C158 0.930 . S
O129 Co118 2.093 . S
O129 C121 1.224 . S
H130 C162 0.929 . S
H131 C164 0.930 . S
H132 C165 0.930 . S
H133 C163 0.929 . S
H134 C166 0.928 . S
O135 Co119 2.057 . S
O135 C123 1.232 . S
H136 C155 0.929 . S
H137 C156 0.929 . S
H138 C168 0.931 . S
H139 C160 0.929 . S
H140 C169 0.930 . S
H141 C161 0.931 . S
O142 Co118 2.097 . S
O142 C170 1.214 . S
H143 C171 0.929 . S
H144 C172 0.929 . S
H145 C173 0.930 . S
H146 C174 0.929 . S
H147 C176 0.930 . S
H148 C153 0.930 . S
H149 C157 0.930 . S
O150 Co119 2.037 . S
O150 C170 1.234 . S
C151 O125 1.269 . S
C151 O126 1.257 . S
C152 H127 0.930 . S
C152 C155 1.388 . S
C152 C157 1.418 . S
C153 H148 0.930 . S
C153 C156 1.404 . S
C153 C157 1.353 . S
N154 Co119 2.145 . S
N154 C155 1.397 . S
N154 C156 1.334 . S
C155 H136 0.929 . S
C155 C152 1.388 . S
C155 N154 1.397 . S
C156 H137 0.929 . S
C156 C153 1.404 . S
C156 N154 1.334 . S
C157 H149 0.930 . S
C157 C152 1.418 . S
C157 C153 1.353 . S
C158 H128 0.930 . S
C158 N159 1.330 . S
C158 C160 1.446 . S
N159 Co118 2.151 . S
N159 C158 1.330 . S
N159 C163 1.418 . S
C160 H139 0.929 . S
C160 C158 1.446 . S
C160 C161 1.332 . S
C161 H141 0.931 . S
C161 C160 1.332 . S
C161 C162 1.267 . S
C162 H130 0.929 . S
C162 C161 1.267 . S
C162 C163 1.251 . S
C163 H133 0.929 . S
C163 N159 1.418 . S
C163 C162 1.251 . S
C164 H131 0.930 . S
C164 C166 1.406 . S
C164 C169 1.261 . S
C165 H132 0.930 . S
C165 N167 1.325 . S
C165 C168 1.357 . S
C166 H134 0.928 . S
C166 C164 1.406 . S
C166 N167 1.261 . S
N167 Co118 2.214 . S
N167 C165 1.325 . S
N167 C166 1.261 . S
C168 H138 0.931 . S
C168 C165 1.357 . S
C168 C169 1.312 . S
C169 H140 0.930 . S
C169 C164 1.261 . S
C169 C168 1.312 . S
C170 O142 1.214 . S
C170 O150 1.234 . S
C171 H143 0.929 . S
C171 C174 1.391 . S
C171 C176 1.391 . S
C172 H144 0.929 . S
C172 C173 1.390 . S
C172 N175 1.391 . S
C173 H145 0.930 . S
C173 C172 1.390 . S
C173 C174 1.392 . S
C174 H146 0.929 . S
C174 C171 1.391 . S
C174 C173 1.392 . S
N175 Co119 2.257 . S
N175 C172 1.391 . S
N175 C176 1.388 . S
C176 H147 0.930 . S
C176 C171 1.391 . S
C176 N175 1.388 . S
Co177 O179 2.143 . S
Co177 O185 2.074 . S
Co177 O188 2.093 . S
Co177 O201 2.097 . S
Co177 N218 2.151 . S
Co177 N226 2.214 . S
Co178 O179 2.160 . S
Co178 O184 2.058 . S
Co178 O194 2.057 . S
Co178 O209 2.037 . S
Co178 N213 2.145 . S
Co178 N234 2.257 . S
O179 Co177 2.143 . S
O179 Co178 2.160 . S
C180 O181 1.278 . S
C180 O188 1.224 . S
O181 C180 1.278 . S
C182 O183 1.245 . S
C182 O194 1.232 . S
O183 C182 1.245 . S
O184 Co178 2.058 . S
O184 C210 1.269 . S
O185 Co177 2.074 . S
O185 C210 1.257 . S
H186 C211 0.930 . S
H187 C217 0.930 . S
O188 Co177 2.093 . S
O188 C180 1.224 . S
H189 C221 0.929 . S
H190 C223 0.930 . S
H191 C224 0.930 . S
H192 C222 0.929 . S
H193 C225 0.928 . S
O194 Co178 2.057 . S
O194 C182 1.232 . S
H195 C214 0.929 . S
H196 C215 0.929 . S
H197 C227 0.931 . S
H198 C219 0.929 . S
H199 C228 0.930 . S
H200 C220 0.931 . S
O201 Co177 2.097 . S
O201 C229 1.214 . S
H202 C230 0.929 . S
H203 C231 0.929 . S
H204 C232 0.930 . S
H205 C233 0.929 . S
H206 C235 0.930 . S
H207 C212 0.930 . S
H208 C216 0.930 . S
O209 Co178 2.037 . S
O209 C229 1.234 . S
C210 O184 1.269 . S
C210 O185 1.257 . S
C211 H186 0.930 . S
C211 C214 1.388 . S
C211 C216 1.418 . S
C212 H207 0.930 . S
C212 C215 1.404 . S
C212 C216 1.353 . S
N213 Co178 2.145 . S
N213 C214 1.397 . S
N213 C215 1.334 . S
C214 H195 0.929 . S
C214 C211 1.388 . S
C214 N213 1.397 . S
C215 H196 0.929 . S
C215 C212 1.404 . S
C215 N213 1.334 . S
C216 H208 0.930 . S
C216 C211 1.418 . S
C216 C212 1.353 . S
C217 H187 0.930 . S
C217 N218 1.330 . S
C217 C219 1.446 . S
N218 Co177 2.151 . S
N218 C217 1.330 . S
N218 C222 1.418 . S
C219 H198 0.929 . S
C219 C217 1.446 . S
C219 C220 1.332 . S
C220 H200 0.931 . S
C220 C219 1.332 . S
C220 C221 1.267 . S
C221 H189 0.929 . S
C221 C220 1.267 . S
C221 C222 1.251 . S
C222 H192 0.929 . S
C222 N218 1.418 . S
C222 C221 1.251 . S
C223 H190 0.930 . S
C223 C225 1.406 . S
C223 C228 1.261 . S
C224 H191 0.930 . S
C224 N226 1.325 . S
C224 C227 1.357 . S
C225 H193 0.928 . S
C225 C223 1.406 . S
C225 N226 1.261 . S
N226 Co177 2.214 . S
N226 C224 1.325 . S
N226 C225 1.261 . S
C227 H197 0.931 . S
C227 C224 1.357 . S
C227 C228 1.312 . S
C228 H199 0.930 . S
C228 C223 1.261 . S
C228 C227 1.312 . S
C229 O201 1.214 . S
C229 O209 1.234 . S
C230 H202 0.929 . S
C230 C233 1.391 . S
C230 C235 1.391 . S
C231 H203 0.929 . S
C231 C232 1.390 . S
C231 N234 1.391 . S
C232 H204 0.930 . S
C232 C231 1.390 . S
C232 C233 1.392 . S
C233 H205 0.929 . S
C233 C230 1.391 . S
C233 C232 1.392 . S
N234 Co178 2.257 . S
N234 C231 1.391 . S
N234 C235 1.388 . S
C235 H206 0.930 . S
C235 C230 1.391 . S
C235 N234 1.388 . S
Co236 O238 2.143 . S
Co236 O244 2.074 . S
Co236 O247 2.093 . S
Co236 O260 2.097 . S
Co236 N277 2.151 . S
Co236 N285 2.214 . S
Co237 O238 2.160 . S
Co237 O243 2.058 . S
Co237 O253 2.057 . S
Co237 O268 2.037 . S
Co237 N272 2.145 . S
Co237 N293 2.257 . S
O238 Co236 2.143 . S
O238 Co237 2.160 . S
C239 O240 1.278 . S
C239 O247 1.224 . S
O240 C239 1.278 . S
C241 O242 1.245 . S
C241 O253 1.232 . S
O242 C241 1.245 . S
O243 Co237 2.058 . S
O243 C269 1.269 . S
O244 Co236 2.074 . S
O244 C269 1.257 . S
H245 C270 0.930 . S
H246 C276 0.930 . S
O247 Co236 2.093 . S
O247 C239 1.224 . S
H248 C280 0.929 . S
H249 C282 0.930 . S
H250 C283 0.930 . S
H251 C281 0.929 . S
H252 C284 0.928 . S
O253 Co237 2.057 . S
O253 C241 1.232 . S
H254 C273 0.929 . S
H255 C274 0.929 . S
H256 C286 0.931 . S
H257 C278 0.929 . S
H258 C287 0.930 . S
H259 C279 0.931 . S
O260 Co236 2.097 . S
O260 C288 1.214 . S
H261 C289 0.929 . S
H262 C290 0.929 . S
H263 C291 0.930 . S
H264 C292 0.929 . S
H265 C294 0.930 . S
H266 C271 0.930 . S
H267 C275 0.930 . S
O268 Co237 2.037 . S
O268 C288 1.234 . S
C269 O243 1.269 . S
C269 O244 1.257 . S
C270 H245 0.930 . S
C270 C273 1.388 . S
C270 C275 1.418 . S
C271 H266 0.930 . S
C271 C274 1.404 . S
C271 C275 1.353 . S
N272 Co237 2.145 . S
N272 C273 1.397 . S
N272 C274 1.334 . S
C273 H254 0.929 . S
C273 C270 1.388 . S
C273 N272 1.397 . S
C274 H255 0.929 . S
C274 C271 1.404 . S
C274 N272 1.334 . S
C275 H267 0.930 . S
C275 C270 1.418 . S
C275 C271 1.353 . S
C276 H246 0.930 . S
C276 N277 1.330 . S
C276 C278 1.446 . S
N277 Co236 2.151 . S
N277 C276 1.330 . S
N277 C281 1.418 . S
C278 H257 0.929 . S
C278 C276 1.446 . S
C278 C279 1.332 . S
C279 H259 0.931 . S
C279 C278 1.332 . S
C279 C280 1.267 . S
C280 H248 0.929 . S
C280 C279 1.267 . S
C280 C281 1.251 . S
C281 H251 0.929 . S
C281 N277 1.418 . S
C281 C280 1.251 . S
C282 H249 0.930 . S
C282 C284 1.406 . S
C282 C287 1.261 . S
C283 H250 0.930 . S
C283 N285 1.325 . S
C283 C286 1.357 . S
C284 H252 0.928 . S
C284 C282 1.406 . S
C284 N285 1.261 . S
N285 Co236 2.214 . S
N285 C283 1.325 . S
N285 C284 1.261 . S
C286 H256 0.931 . S
C286 C283 1.357 . S
C286 C287 1.312 . S
C287 H258 0.930 . S
C287 C282 1.261 . S
C287 C286 1.312 . S
C288 O260 1.214 . S
C288 O268 1.234 . S
C289 H261 0.929 . S
C289 C292 1.391 . S
C289 C294 1.391 . S
C290 H262 0.929 . S
C290 C291 1.390 . S
C290 N293 1.391 . S
C291 H263 0.930 . S
C291 C290 1.390 . S
C291 C292 1.392 . S
C292 H264 0.929 . S
C292 C289 1.391 . S
C292 C291 1.392 . S
N293 Co237 2.257 . S
N293 C290 1.391 . S
N293 C294 1.388 . S
C294 H265 0.930 . S
C294 C289 1.391 . S
C294 N293 1.388 . S
Co295 O297 2.143 . S
Co295 O303 2.074 . S
Co295 O306 2.093 . S
Co295 O319 2.097 . S
Co295 N336 2.151 . S
Co295 N344 2.214 . S
Co296 O297 2.160 . S
Co296 O302 2.058 . S
Co296 O312 2.057 . S
Co296 O327 2.037 . S
Co296 N331 2.145 . S
Co296 N352 2.257 . S
O297 Co295 2.143 . S
O297 Co296 2.160 . S
C298 O299 1.278 . S
C298 O306 1.224 . S
O299 C298 1.278 . S
C300 O301 1.245 . S
C300 O312 1.232 . S
O301 C300 1.245 . S
O302 Co296 2.058 . S
O302 C328 1.269 . S
O303 Co295 2.074 . S
O303 C328 1.257 . S
H304 C329 0.930 . S
H305 C335 0.930 . S
O306 Co295 2.093 . S
O306 C298 1.224 . S
H307 C339 0.929 . S
H308 C341 0.930 . S
H309 C342 0.930 . S
H310 C340 0.929 . S
H311 C343 0.928 . S
O312 Co296 2.057 . S
O312 C300 1.232 . S
H313 C332 0.929 . S
H314 C333 0.929 . S
H315 C345 0.931 . S
H316 C337 0.929 . S
H317 C346 0.930 . S
H318 C338 0.931 . S
O319 Co295 2.097 . S
O319 C347 1.214 . S
H320 C348 0.929 . S
H321 C349 0.929 . S
H322 C350 0.930 . S
H323 C351 0.929 . S
H324 C353 0.930 . S
H325 C330 0.930 . S
H326 C334 0.930 . S
O327 Co296 2.037 . S
O327 C347 1.234 . S
C328 O302 1.269 . S
C328 O303 1.257 . S
C329 H304 0.930 . S
C329 C332 1.388 . S
C329 C334 1.418 . S
C330 H325 0.930 . S
C330 C333 1.404 . S
C330 C334 1.353 . S
N331 Co296 2.145 . S
N331 C332 1.397 . S
N331 C333 1.334 . S
C332 H313 0.929 . S
C332 C329 1.388 . S
C332 N331 1.397 . S
C333 H314 0.929 . S
C333 C330 1.404 . S
C333 N331 1.334 . S
C334 H326 0.930 . S
C334 C329 1.418 . S
C334 C330 1.353 . S
C335 H305 0.930 . S
C335 N336 1.330 . S
C335 C337 1.446 . S
N336 Co295 2.151 . S
N336 C335 1.330 . S
N336 C340 1.418 . S
C337 H316 0.929 . S
C337 C335 1.446 . S
C337 C338 1.332 . S
C338 H318 0.931 . S
C338 C337 1.332 . S
C338 C339 1.267 . S
C339 H307 0.929 . S
C339 C338 1.267 . S
C339 C340 1.251 . S
C340 H310 0.929 . S
C340 N336 1.418 . S
C340 C339 1.251 . S
C341 H308 0.930 . S
C341 C343 1.406 . S
C341 C346 1.261 . S
C342 H309 0.930 . S
C342 N344 1.325 . S
C342 C345 1.357 . S
C343 H311 0.928 . S
C343 C341 1.406 . S
C343 N344 1.261 . S
N344 Co295 2.214 . S
N344 C342 1.325 . S
N344 C343 1.261 . S
C345 H315 0.931 . S
C345 C342 1.357 . S
C345 C346 1.312 . S
C346 H317 0.930 . S
C346 C341 1.261 . S
C346 C345 1.312 . S
C347 O319 1.214 . S
C347 O327 1.234 . S
C348 H320 0.929 . S
C348 C351 1.391 . S
C348 C353 1.391 . S
C349 H321 0.929 . S
C349 C350 1.390 . S
C349 N352 1.391 . S
C350 H322 0.930 . S
C350 C349 1.390 . S
C350 C351 1.392 . S
C351 H323 0.929 . S
C351 C348 1.391 . S
C351 C350 1.392 . S
N352 Co296 2.257 . S
N352 C349 1.391 . S
N352 C353 1.388 . S
C353 H324 0.930 . S
C353 C348 1.391 . S
C353 N352 1.388 . S
Co354 O356 2.143 . S
Co354 O362 2.074 . S
Co354 O365 2.093 . S
Co354 O378 2.097 . S
Co354 N395 2.151 . S
Co354 N403 2.214 . S
Co355 O356 2.160 . S
Co355 O361 2.058 . S
Co355 O371 2.057 . S
Co355 O386 2.037 . S
Co355 N390 2.145 . S
Co355 N411 2.257 . S
O356 Co354 2.143 . S
O356 Co355 2.160 . S
C357 O358 1.278 . S
C357 O365 1.224 . S
O358 C357 1.278 . S
C359 O360 1.245 . S
C359 O371 1.232 . S
O360 C359 1.245 . S
O361 Co355 2.058 . S
O361 C387 1.269 . S
O362 Co354 2.074 . S
O362 C387 1.257 . S
H363 C388 0.930 . S
H364 C394 0.930 . S
O365 Co354 2.093 . S
O365 C357 1.224 . S
H366 C398 0.929 . S
H367 C400 0.930 . S
H368 C401 0.930 . S
H369 C399 0.929 . S
H370 C402 0.928 . S
O371 Co355 2.057 . S
O371 C359 1.232 . S
H372 C391 0.929 . S
H373 C392 0.929 . S
H374 C404 0.931 . S
H375 C396 0.929 . S
H376 C405 0.930 . S
H377 C397 0.931 . S
O378 Co354 2.097 . S
O378 C406 1.214 . S
H379 C407 0.929 . S
H380 C408 0.929 . S
H381 C409 0.930 . S
H382 C410 0.929 . S
H383 C412 0.930 . S
H384 C389 0.930 . S
H385 C393 0.930 . S
O386 Co355 2.037 . S
O386 C406 1.234 . S
C387 O361 1.269 . S
C387 O362 1.257 . S
C388 H363 0.930 . S
C388 C391 1.388 . S
C388 C393 1.418 . S
C389 H384 0.930 . S
C389 C392 1.404 . S
C389 C393 1.353 . S
N390 Co355 2.145 . S
N390 C391 1.397 . S
N390 C392 1.334 . S
C391 H372 0.929 . S
C391 C388 1.388 . S
C391 N390 1.397 . S
C392 H373 0.929 . S
C392 C389 1.404 . S
C392 N390 1.334 . S
C393 H385 0.930 . S
C393 C388 1.418 . S
C393 C389 1.353 . S
C394 H364 0.930 . S
C394 N395 1.330 . S
C394 C396 1.446 . S
N395 Co354 2.151 . S
N395 C394 1.330 . S
N395 C399 1.418 . S
C396 H375 0.929 . S
C396 C394 1.446 . S
C396 C397 1.332 . S
C397 H377 0.931 . S
C397 C396 1.332 . S
C397 C398 1.267 . S
C398 H366 0.929 . S
C398 C397 1.267 . S
C398 C399 1.251 . S
C399 H369 0.929 . S
C399 N395 1.418 . S
C399 C398 1.251 . S
C400 H367 0.930 . S
C400 C402 1.406 . S
C400 C405 1.261 . S
C401 H368 0.930 . S
C401 N403 1.325 . S
C401 C404 1.357 . S
C402 H370 0.928 . S
C402 C400 1.406 . S
C402 N403 1.261 . S
N403 Co354 2.214 . S
N403 C401 1.325 . S
N403 C402 1.261 . S
C404 H374 0.931 . S
C404 C401 1.357 . S
C404 C405 1.312 . S
C405 H376 0.930 . S
C405 C400 1.261 . S
C405 C404 1.312 . S
C406 O378 1.214 . S
C406 O386 1.234 . S
C407 H379 0.929 . S
C407 C410 1.391 . S
C407 C412 1.391 . S
C408 H380 0.929 . S
C408 C409 1.390 . S
C408 N411 1.391 . S
C409 H381 0.930 . S
C409 C408 1.390 . S
C409 C410 1.392 . S
C410 H382 0.929 . S
C410 C407 1.391 . S
C410 C409 1.392 . S
N411 Co355 2.257 . S
N411 C408 1.391 . S
N411 C412 1.388 . S
C412 H383 0.930 . S
C412 C407 1.391 . S
C412 N411 1.388 . S
Co413 O415 2.143 . S
Co413 O421 2.074 . S
Co413 O424 2.093 . S
Co413 O437 2.097 . S
Co413 N454 2.151 . S
Co413 N462 2.214 . S
Co414 O415 2.160 . S
Co414 O420 2.058 . S
Co414 O430 2.057 . S
Co414 O445 2.037 . S
Co414 N449 2.145 . S
Co414 N470 2.257 . S
O415 Co413 2.143 . S
O415 Co414 2.160 . S
C416 O417 1.278 . S
C416 O424 1.224 . S
O417 C416 1.278 . S
C418 O419 1.245 . S
C418 O430 1.232 . S
O419 C418 1.245 . S
O420 Co414 2.058 . S
O420 C446 1.269 . S
O421 Co413 2.074 . S
O421 C446 1.257 . S
H422 C447 0.930 . S
H423 C453 0.930 . S
O424 Co413 2.093 . S
O424 C416 1.224 . S
H425 C457 0.929 . S
H426 C459 0.930 . S
H427 C460 0.930 . S
H428 C458 0.929 . S
H429 C461 0.928 . S
O430 Co414 2.057 . S
O430 C418 1.232 . S
H431 C450 0.929 . S
H432 C451 0.929 . S
H433 C463 0.931 . S
H434 C455 0.929 . S
H435 C464 0.930 . S
H436 C456 0.931 . S
O437 Co413 2.097 . S
O437 C465 1.214 . S
H438 C466 0.929 . S
H439 C467 0.929 . S
H440 C468 0.930 . S
H441 C469 0.929 . S
H442 C471 0.930 . S
H443 C448 0.930 . S
H444 C452 0.930 . S
O445 Co414 2.037 . S
O445 C465 1.234 . S
C446 O420 1.269 . S
C446 O421 1.257 . S
C447 H422 0.930 . S
C447 C450 1.388 . S
C447 C452 1.418 . S
C448 H443 0.930 . S
C448 C451 1.404 . S
C448 C452 1.353 . S
N449 Co414 2.145 . S
N449 C450 1.397 . S
N449 C451 1.334 . S
C450 H431 0.929 . S
C450 C447 1.388 . S
C450 N449 1.397 . S
C451 H432 0.929 . S
C451 C448 1.404 . S
C451 N449 1.334 . S
C452 H444 0.930 . S
C452 C447 1.418 . S
C452 C448 1.353 . S
C453 H423 0.930 . S
C453 N454 1.330 . S
C453 C455 1.446 . S
N454 Co413 2.151 . S
N454 C453 1.330 . S
N454 C458 1.418 . S
C455 H434 0.929 . S
C455 C453 1.446 . S
C455 C456 1.332 . S
C456 H436 0.931 . S
C456 C455 1.332 . S
C456 C457 1.267 . S
C457 H425 0.929 . S
C457 C456 1.267 . S
C457 C458 1.251 . S
C458 H428 0.929 . S
C458 N454 1.418 . S
C458 C457 1.251 . S
C459 H426 0.930 . S
C459 C461 1.406 . S
C459 C464 1.261 . S
C460 H427 0.930 . S
C460 N462 1.325 . S
C460 C463 1.357 . S
C461 H429 0.928 . S
C461 C459 1.406 . S
C461 N462 1.261 . S
N462 Co413 2.214 . S
N462 C460 1.325 . S
N462 C461 1.261 . S
C463 H433 0.931 . S
C463 C460 1.357 . S
C463 C464 1.312 . S
C464 H435 0.930 . S
C464 C459 1.261 . S
C464 C463 1.312 . S
C465 O437 1.214 . S
C465 O445 1.234 . S
C466 H438 0.929 . S
C466 C469 1.391 . S
C466 C471 1.391 . S
C467 H439 0.929 . S
C467 C468 1.390 . S
C467 N470 1.391 . S
C468 H440 0.930 . S
C468 C467 1.390 . S
C468 C469 1.392 . S
C469 H441 0.929 . S
C469 C466 1.391 . S
C469 C468 1.392 . S
N470 Co414 2.257 . S
N470 C467 1.391 . S
N470 C471 1.388 . S
C471 H442 0.930 . S
C471 C466 1.391 . S
C471 N470 1.388 . S
Co472 O474 2.143 . S
Co472 O480 2.074 . S
Co472 O483 2.093 . S
Co472 O496 2.097 . S
Co472 N513 2.151 . S
Co472 N521 2.214 . S
Co473 O474 2.160 . S
Co473 O479 2.058 . S
Co473 O489 2.057 . S
Co473 O504 2.037 . S
Co473 N508 2.145 . S
Co473 N529 2.257 . S
O474 Co472 2.143 . S
O474 Co473 2.160 . S
C475 O476 1.278 . S
C475 O483 1.224 . S
O476 C475 1.278 . S
C477 O478 1.245 . S
C477 O489 1.232 . S
O478 C477 1.245 . S
O479 Co473 2.058 . S
O479 C505 1.269 . S
O480 Co472 2.074 . S
O480 C505 1.257 . S
H481 C506 0.930 . S
H482 C512 0.930 . S
O483 Co472 2.093 . S
O483 C475 1.224 . S
H484 C516 0.929 . S
H485 C518 0.930 . S
H486 C519 0.930 . S
H487 C517 0.929 . S
H488 C520 0.928 . S
O489 Co473 2.057 . S
O489 C477 1.232 . S
H490 C509 0.929 . S
H491 C510 0.929 . S
H492 C522 0.931 . S
H493 C514 0.929 . S
H494 C523 0.930 . S
H495 C515 0.931 . S
O496 Co472 2.097 . S
O496 C524 1.214 . S
H497 C525 0.929 . S
H498 C526 0.929 . S
H499 C527 0.930 . S
H500 C528 0.929 . S
H501 C530 0.930 . S
H502 C507 0.930 . S
H503 C511 0.930 . S
O504 Co473 2.037 . S
O504 C524 1.234 . S
C505 O479 1.269 . S
C505 O480 1.257 . S
C506 H481 0.930 . S
C506 C509 1.388 . S
C506 C511 1.418 . S
C507 H502 0.930 . S
C507 C510 1.404 . S
C507 C511 1.353 . S
N508 Co473 2.145 . S
N508 C509 1.397 . S
N508 C510 1.334 . S
C509 H490 0.929 . S
C509 C506 1.388 . S
C509 N508 1.397 . S
C510 H491 0.929 . S
C510 C507 1.404 . S
C510 N508 1.334 . S
C511 H503 0.930 . S
C511 C506 1.418 . S
C511 C507 1.353 . S
C512 H482 0.930 . S
C512 N513 1.330 . S
C512 C514 1.446 . S
N513 Co472 2.151 . S
N513 C512 1.330 . S
N513 C517 1.418 . S
C514 H493 0.929 . S
C514 C512 1.446 . S
C514 C515 1.332 . S
C515 H495 0.931 . S
C515 C514 1.332 . S
C515 C516 1.267 . S
C516 H484 0.929 . S
C516 C515 1.267 . S
C516 C517 1.251 . S
C517 H487 0.929 . S
C517 N513 1.418 . S
C517 C516 1.251 . S
C518 H485 0.930 . S
C518 C520 1.406 . S
C518 C523 1.261 . S
C519 H486 0.930 . S
C519 N521 1.325 . S
C519 C522 1.357 . S
C520 H488 0.928 . S
C520 C518 1.406 . S
C520 N521 1.261 . S
N521 Co472 2.214 . S
N521 C519 1.325 . S
N521 C520 1.261 . S
C522 H492 0.931 . S
C522 C519 1.357 . S
C522 C523 1.312 . S
C523 H494 0.930 . S
C523 C518 1.261 . S
C523 C522 1.312 . S
C524 O496 1.214 . S
C524 O504 1.234 . S
C525 H497 0.929 . S
C525 C528 1.391 . S
C525 C530 1.391 . S
C526 H498 0.929 . S
C526 C527 1.390 . S
C526 N529 1.391 . S
C527 H499 0.930 . S
C527 C526 1.390 . S
C527 C528 1.392 . S
C528 H500 0.929 . S
C528 C525 1.391 . S
C528 C527 1.392 . S
N529 Co473 2.257 . S
N529 C526 1.391 . S
N529 C530 1.388 . S
C530 H501 0.930 . S
C530 C525 1.391 . S
C530 N529 1.388 . S
Co531 O533 2.143 . S
Co531 O539 2.074 . S
Co531 O542 2.093 . S
Co531 O555 2.097 . S
Co531 N572 2.151 . S
Co531 N580 2.214 . S
Co532 O533 2.160 . S
Co532 O538 2.058 . S
Co532 O548 2.057 . S
Co532 O563 2.037 . S
Co532 N567 2.145 . S
Co532 N588 2.257 . S
O533 Co531 2.143 . S
O533 Co532 2.160 . S
C534 O535 1.278 . S
C534 O542 1.224 . S
O535 C534 1.278 . S
C536 O537 1.245 . S
C536 O548 1.232 . S
O537 C536 1.245 . S
O538 Co532 2.058 . S
O538 C564 1.269 . S
O539 Co531 2.074 . S
O539 C564 1.257 . S
H540 C565 0.930 . S
H541 C571 0.930 . S
O542 Co531 2.093 . S
O542 C534 1.224 . S
H543 C575 0.929 . S
H544 C577 0.930 . S
H545 C578 0.930 . S
H546 C576 0.929 . S
H547 C579 0.928 . S
O548 Co532 2.057 . S
O548 C536 1.232 . S
H549 C568 0.929 . S
H550 C569 0.929 . S
H551 C581 0.931 . S
H552 C573 0.929 . S
H553 C582 0.930 . S
H554 C574 0.931 . S
O555 Co531 2.097 . S
O555 C583 1.214 . S
H556 C584 0.929 . S
H557 C585 0.929 . S
H558 C586 0.930 . S
H559 C587 0.929 . S
H560 C589 0.930 . S
H561 C566 0.930 . S
H562 C570 0.930 . S
O563 Co532 2.037 . S
O563 C583 1.234 . S
C564 O538 1.269 . S
C564 O539 1.257 . S
C565 H540 0.930 . S
C565 C568 1.388 . S
C565 C570 1.418 . S
C566 H561 0.930 . S
C566 C569 1.404 . S
C566 C570 1.353 . S
N567 Co532 2.145 . S
N567 C568 1.397 . S
N567 C569 1.334 . S
C568 H549 0.929 . S
C568 C565 1.388 . S
C568 N567 1.397 . S
C569 H550 0.929 . S
C569 C566 1.404 . S
C569 N567 1.334 . S
C570 H562 0.930 . S
C570 C565 1.418 . S
C570 C566 1.353 . S
C571 H541 0.930 . S
C571 N572 1.330 . S
C571 C573 1.446 . S
N572 Co531 2.151 . S
N572 C571 1.330 . S
N572 C576 1.418 . S
C573 H552 0.929 . S
C573 C571 1.446 . S
C573 C574 1.332 . S
C574 H554 0.931 . S
C574 C573 1.332 . S
C574 C575 1.267 . S
C575 H543 0.929 . S
C575 C574 1.267 . S
C575 C576 1.251 . S
C576 H546 0.929 . S
C576 N572 1.418 . S
C576 C575 1.251 . S
C577 H544 0.930 . S
C577 C579 1.406 . S
C577 C582 1.261 . S
C578 H545 0.930 . S
C578 N580 1.325 . S
C578 C581 1.357 . S
C579 H547 0.928 . S
C579 C577 1.406 . S
C579 N580 1.261 . S
N580 Co531 2.214 . S
N580 C578 1.325 . S
N580 C579 1.261 . S
C581 H551 0.931 . S
C581 C578 1.357 . S
C581 C582 1.312 . S
C582 H553 0.930 . S
C582 C577 1.261 . S
C582 C581 1.312 . S
C583 O555 1.214 . S
C583 O563 1.234 . S
C584 H556 0.929 . S
C584 C587 1.391 . S
C584 C589 1.391 . S
C585 H557 0.929 . S
C585 C586 1.390 . S
C585 N588 1.391 . S
C586 H558 0.930 . S
C586 C585 1.390 . S
C586 C587 1.392 . S
C587 H559 0.929 . S
C587 C584 1.391 . S
C587 C586 1.392 . S
N588 Co532 2.257 . S
N588 C585 1.391 . S
N588 C589 1.388 . S
C589 H560 0.930 . S
C589 C584 1.391 . S
C589 N588 1.388 . S
Co590 O592 2.143 . S
Co590 O598 2.074 . S
Co590 O601 2.093 . S
Co590 O614 2.097 . S
Co590 N631 2.151 . S
Co590 N639 2.214 . S
Co591 O592 2.160 . S
Co591 O597 2.058 . S
Co591 O607 2.057 . S
Co591 O622 2.037 . S
Co591 N626 2.145 . S
Co591 N647 2.257 . S
O592 Co590 2.143 . S
O592 Co591 2.160 . S
C593 O594 1.278 . S
C593 O601 1.224 . S
O594 C593 1.278 . S
C595 O596 1.245 . S
C595 O607 1.232 . S
O596 C595 1.245 . S
O597 Co591 2.058 . S
O597 C623 1.269 . S
O598 Co590 2.074 . S
O598 C623 1.257 . S
H599 C624 0.930 . S
H600 C630 0.930 . S
O601 Co590 2.093 . S
O601 C593 1.224 . S
H602 C634 0.929 . S
H603 C636 0.930 . S
H604 C637 0.930 . S
H605 C635 0.929 . S
H606 C638 0.928 . S
O607 Co591 2.057 . S
O607 C595 1.232 . S
H608 C627 0.929 . S
H609 C628 0.929 . S
H610 C640 0.931 . S
H611 C632 0.929 . S
H612 C641 0.930 . S
H613 C633 0.931 . S
O614 Co590 2.097 . S
O614 C642 1.214 . S
H615 C643 0.929 . S
H616 C644 0.929 . S
H617 C645 0.930 . S
H618 C646 0.929 . S
H619 C648 0.930 . S
H620 C625 0.930 . S
H621 C629 0.930 . S
O622 Co591 2.037 . S
O622 C642 1.234 . S
C623 O597 1.269 . S
C623 O598 1.257 . S
C624 H599 0.930 . S
C624 C627 1.388 . S
C624 C629 1.418 . S
C625 H620 0.930 . S
C625 C628 1.404 . S
C625 C629 1.353 . S
N626 Co591 2.145 . S
N626 C627 1.397 . S
N626 C628 1.334 . S
C627 H608 0.929 . S
C627 C624 1.388 . S
C627 N626 1.397 . S
C628 H609 0.929 . S
C628 C625 1.404 . S
C628 N626 1.334 . S
C629 H621 0.930 . S
C629 C624 1.418 . S
C629 C625 1.353 . S
C630 H600 0.930 . S
C630 N631 1.330 . S
C630 C632 1.446 . S
N631 Co590 2.151 . S
N631 C630 1.330 . S
N631 C635 1.418 . S
C632 H611 0.929 . S
C632 C630 1.446 . S
C632 C633 1.332 . S
C633 H613 0.931 . S
C633 C632 1.332 . S
C633 C634 1.267 . S
C634 H602 0.929 . S
C634 C633 1.267 . S
C634 C635 1.251 . S
C635 H605 0.929 . S
C635 N631 1.418 . S
C635 C634 1.251 . S
C636 H603 0.930 . S
C636 C638 1.406 . S
C636 C641 1.261 . S
C637 H604 0.930 . S
C637 N639 1.325 . S
C637 C640 1.357 . S
C638 H606 0.928 . S
C638 C636 1.406 . S
C638 N639 1.261 . S
N639 Co590 2.214 . S
N639 C637 1.325 . S
N639 C638 1.261 . S
C640 H610 0.931 . S
C640 C637 1.357 . S
C640 C641 1.312 . S
C641 H612 0.930 . S
C641 C636 1.261 . S
C641 C640 1.312 . S
C642 O614 1.214 . S
C642 O622 1.234 . S
C643 H615 0.929 . S
C643 C646 1.391 . S
C643 C648 1.391 . S
C644 H616 0.929 . S
C644 C645 1.390 . S
C644 N647 1.391 . S
C645 H617 0.930 . S
C645 C644 1.390 . S
C645 C646 1.392 . S
C646 H618 0.929 . S
C646 C643 1.391 . S
C646 C645 1.392 . S
N647 Co591 2.257 . S
N647 C644 1.391 . S
N647 C648 1.388 . S
C648 H619 0.930 . S
C648 C643 1.391 . S
C648 N647 1.388 . S
Co649 O651 2.143 . S
Co649 O657 2.074 . S
Co649 O660 2.093 . S
Co649 O673 2.097 . S
Co649 N690 2.151 . S
Co649 N698 2.214 . S
Co650 O651 2.160 . S
Co650 O656 2.058 . S
Co650 O666 2.057 . S
Co650 O681 2.037 . S
Co650 N685 2.145 . S
Co650 N706 2.257 . S
O651 Co649 2.143 . S
O651 Co650 2.160 . S
C652 O653 1.278 . S
C652 O660 1.224 . S
O653 C652 1.278 . S
C654 O655 1.245 . S
C654 O666 1.232 . S
O655 C654 1.245 . S
O656 Co650 2.058 . S
O656 C682 1.269 . S
O657 Co649 2.074 . S
O657 C682 1.257 . S
H658 C683 0.930 . S
H659 C689 0.930 . S
O660 Co649 2.093 . S
O660 C652 1.224 . S
H661 C693 0.929 . S
H662 C695 0.930 . S
H663 C696 0.930 . S
H664 C694 0.929 . S
H665 C697 0.928 . S
O666 Co650 2.057 . S
O666 C654 1.232 . S
H667 C686 0.929 . S
H668 C687 0.929 . S
H669 C699 0.931 . S
H670 C691 0.929 . S
H671 C700 0.930 . S
H672 C692 0.931 . S
O673 Co649 2.097 . S
O673 C701 1.214 . S
H674 C702 0.929 . S
H675 C703 0.929 . S
H676 C704 0.930 . S
H677 C705 0.929 . S
H678 C707 0.930 . S
H679 C684 0.930 . S
H680 C688 0.930 . S
O681 Co650 2.037 . S
O681 C701 1.234 . S
C682 O656 1.269 . S
C682 O657 1.257 . S
C683 H658 0.930 . S
C683 C686 1.388 . S
C683 C688 1.418 . S
C684 H679 0.930 . S
C684 C687 1.404 . S
C684 C688 1.353 . S
N685 Co650 2.145 . S
N685 C686 1.397 . S
N685 C687 1.334 . S
C686 H667 0.929 . S
C686 C683 1.388 . S
C686 N685 1.397 . S
C687 H668 0.929 . S
C687 C684 1.404 . S
C687 N685 1.334 . S
C688 H680 0.930 . S
C688 C683 1.418 . S
C688 C684 1.353 . S
C689 H659 0.930 . S
C689 N690 1.330 . S
C689 C691 1.446 . S
N690 Co649 2.151 . S
N690 C689 1.330 . S
N690 C694 1.418 . S
C691 H670 0.929 . S
C691 C689 1.446 . S
C691 C692 1.332 . S
C692 H672 0.931 . S
C692 C691 1.332 . S
C692 C693 1.267 . S
C693 H661 0.929 . S
C693 C692 1.267 . S
C693 C694 1.251 . S
C694 H664 0.929 . S
C694 N690 1.418 . S
C694 C693 1.251 . S
C695 H662 0.930 . S
C695 C697 1.406 . S
C695 C700 1.261 . S
C696 H663 0.930 . S
C696 N698 1.325 . S
C696 C699 1.357 . S
C697 H665 0.928 . S
C697 C695 1.406 . S
C697 N698 1.261 . S
N698 Co649 2.214 . S
N698 C696 1.325 . S
N698 C697 1.261 . S
C699 H669 0.931 . S
C699 C696 1.357 . S
C699 C700 1.312 . S
C700 H671 0.930 . S
C700 C695 1.261 . S
C700 C699 1.312 . S
C701 O673 1.214 . S
C701 O681 1.234 . S
C702 H674 0.929 . S
C702 C705 1.391 . S
C702 C707 1.391 . S
C703 H675 0.929 . S
C703 C704 1.390 . S
C703 N706 1.391 . S
C704 H676 0.930 . S
C704 C703 1.390 . S
C704 C705 1.392 . S
C705 H677 0.929 . S
C705 C702 1.391 . S
C705 C704 1.392 . S
N706 Co650 2.257 . S
N706 C703 1.391 . S
N706 C707 1.388 . S
C707 H678 0.930 . S
C707 C702 1.391 . S
C707 N706 1.388 . S
Co708 O710 2.143 . S
Co708 O716 2.074 . S
Co708 O719 2.093 . S
Co708 O732 2.097 . S
Co708 N749 2.151 . S
Co708 N757 2.214 . S
Co709 O710 2.160 . S
Co709 O715 2.058 . S
Co709 O725 2.057 . S
Co709 O740 2.037 . S
Co709 N744 2.145 . S
Co709 N765 2.257 . S
O710 Co708 2.143 . S
O710 Co709 2.160 . S
C711 O712 1.278 . S
C711 O719 1.224 . S
O712 C711 1.278 . S
C713 O714 1.245 . S
C713 O725 1.232 . S
O714 C713 1.245 . S
O715 Co709 2.058 . S
O715 C741 1.269 . S
O716 Co708 2.074 . S
O716 C741 1.257 . S
H717 C742 0.930 . S
H718 C748 0.930 . S
O719 Co708 2.093 . S
O719 C711 1.224 . S
H720 C752 0.929 . S
H721 C754 0.930 . S
H722 C755 0.930 . S
H723 C753 0.929 . S
H724 C756 0.928 . S
O725 Co709 2.057 . S
O725 C713 1.232 . S
H726 C745 0.929 . S
H727 C746 0.929 . S
H728 C758 0.931 . S
H729 C750 0.929 . S
H730 C759 0.930 . S
H731 C751 0.931 . S
O732 Co708 2.097 . S
O732 C760 1.214 . S
H733 C761 0.929 . S
H734 C762 0.929 . S
H735 C763 0.930 . S
H736 C764 0.929 . S
H737 C766 0.930 . S
H738 C743 0.930 . S
H739 C747 0.930 . S
O740 Co709 2.037 . S
O740 C760 1.234 . S
C741 O715 1.269 . S
C741 O716 1.257 . S
C742 H717 0.930 . S
C742 C745 1.388 . S
C742 C747 1.418 . S
C743 H738 0.930 . S
C743 C746 1.404 . S
C743 C747 1.353 . S
N744 Co709 2.145 . S
N744 C745 1.397 . S
N744 C746 1.334 . S
C745 H726 0.929 . S
C745 C742 1.388 . S
C745 N744 1.397 . S
C746 H727 0.929 . S
C746 C743 1.404 . S
C746 N744 1.334 . S
C747 H739 0.930 . S
C747 C742 1.418 . S
C747 C743 1.353 . S
C748 H718 0.930 . S
C748 N749 1.330 . S
C748 C750 1.446 . S
N749 Co708 2.151 . S
N749 C748 1.330 . S
N749 C753 1.418 . S
C750 H729 0.929 . S
C750 C748 1.446 . S
C750 C751 1.332 . S
C751 H731 0.931 . S
C751 C750 1.332 . S
C751 C752 1.267 . S
C752 H720 0.929 . S
C752 C751 1.267 . S
C752 C753 1.251 . S
C753 H723 0.929 . S
C753 N749 1.418 . S
C753 C752 1.251 . S
C754 H721 0.930 . S
C754 C756 1.406 . S
C754 C759 1.261 . S
C755 H722 0.930 . S
C755 N757 1.325 . S
C755 C758 1.357 . S
C756 H724 0.928 . S
C756 C754 1.406 . S
C756 N757 1.261 . S
N757 Co708 2.214 . S
N757 C755 1.325 . S
N757 C756 1.261 . S
C758 H728 0.931 . S
C758 C755 1.357 . S
C758 C759 1.312 . S
C759 H730 0.930 . S
C759 C754 1.261 . S
C759 C758 1.312 . S
C760 O732 1.214 . S
C760 O740 1.234 . S
C761 H733 0.929 . S
C761 C764 1.391 . S
C761 C766 1.391 . S
C762 H734 0.929 . S
C762 C763 1.390 . S
C762 N765 1.391 . S
C763 H735 0.930 . S
C763 C762 1.390 . S
C763 C764 1.392 . S
C764 H736 0.929 . S
C764 C761 1.391 . S
C764 C763 1.392 . S
N765 Co709 2.257 . S
N765 C762 1.391 . S
N765 C766 1.388 . S
C766 H737 0.930 . S
C766 C761 1.391 . S
C766 N765 1.388 . S
Co767 O769 2.143 . S
Co767 O775 2.074 . S
Co767 O778 2.093 . S
Co767 O791 2.097 . S
Co767 N808 2.151 . S
Co767 N816 2.214 . S
Co768 O769 2.160 . S
Co768 O774 2.058 . S
Co768 O784 2.057 . S
Co768 O799 2.037 . S
Co768 N803 2.145 . S
Co768 N824 2.257 . S
O769 Co767 2.143 . S
O769 Co768 2.160 . S
C770 O771 1.278 . S
C770 O778 1.224 . S
O771 C770 1.278 . S
C772 O773 1.245 . S
C772 O784 1.232 . S
O773 C772 1.245 . S
O774 Co768 2.058 . S
O774 C800 1.269 . S
O775 Co767 2.074 . S
O775 C800 1.257 . S
H776 C801 0.930 . S
H777 C807 0.930 . S
O778 Co767 2.093 . S
O778 C770 1.224 . S
H779 C811 0.929 . S
H780 C813 0.930 . S
H781 C814 0.930 . S
H782 C812 0.929 . S
H783 C815 0.928 . S
O784 Co768 2.057 . S
O784 C772 1.232 . S
H785 C804 0.929 . S
H786 C805 0.929 . S
H787 C817 0.931 . S
H788 C809 0.929 . S
H789 C818 0.930 . S
H790 C810 0.931 . S
O791 Co767 2.097 . S
O791 C819 1.214 . S
H792 C820 0.929 . S
H793 C821 0.929 . S
H794 C822 0.930 . S
H795 C823 0.929 . S
H796 C825 0.930 . S
H797 C802 0.930 . S
H798 C806 0.930 . S
O799 Co768 2.037 . S
O799 C819 1.234 . S
C800 O774 1.269 . S
C800 O775 1.257 . S
C801 H776 0.930 . S
C801 C804 1.388 . S
C801 C806 1.418 . S
C802 H797 0.930 . S
C802 C805 1.404 . S
C802 C806 1.353 . S
N803 Co768 2.145 . S
N803 C804 1.397 . S
N803 C805 1.334 . S
C804 H785 0.929 . S
C804 C801 1.388 . S
C804 N803 1.397 . S
C805 H786 0.929 . S
C805 C802 1.404 . S
C805 N803 1.334 . S
C806 H798 0.930 . S
C806 C801 1.418 . S
C806 C802 1.353 . S
C807 H777 0.930 . S
C807 N808 1.330 . S
C807 C809 1.446 . S
N808 Co767 2.151 . S
N808 C807 1.330 . S
N808 C812 1.418 . S
C809 H788 0.929 . S
C809 C807 1.446 . S
C809 C810 1.332 . S
C810 H790 0.931 . S
C810 C809 1.332 . S
C810 C811 1.267 . S
C811 H779 0.929 . S
C811 C810 1.267 . S
C811 C812 1.251 . S
C812 H782 0.929 . S
C812 N808 1.418 . S
C812 C811 1.251 . S
C813 H780 0.930 . S
C813 C815 1.406 . S
C813 C818 1.261 . S
C814 H781 0.930 . S
C814 N816 1.325 . S
C814 C817 1.357 . S
C815 H783 0.928 . S
C815 C813 1.406 . S
C815 N816 1.261 . S
N816 Co767 2.214 . S
N816 C814 1.325 . S
N816 C815 1.261 . S
C817 H787 0.931 . S
C817 C814 1.357 . S
C817 C818 1.312 . S
C818 H789 0.930 . S
C818 C813 1.261 . S
C818 C817 1.312 . S
C819 O791 1.214 . S
C819 O799 1.234 . S
C820 H792 0.929 . S
C820 C823 1.391 . S
C820 C825 1.391 . S
C821 H793 0.929 . S
C821 C822 1.390 . S
C821 N824 1.391 . S
C822 H794 0.930 . S
C822 C821 1.390 . S
C822 C823 1.392 . S
C823 H795 0.929 . S
C823 C820 1.391 . S
C823 C822 1.392 . S
N824 Co768 2.257 . S
N824 C821 1.391 . S
N824 C825 1.388 . S
C825 H796 0.930 . S
C825 C820 1.391 . S
C825 N824 1.388 . S
Co826 O828 2.143 . S
Co826 O834 2.074 . S
Co826 O837 2.093 . S
Co826 O850 2.097 . S
Co826 N867 2.151 . S
Co826 N875 2.214 . S
Co827 O828 2.160 . S
Co827 O833 2.058 . S
Co827 O843 2.057 . S
Co827 O858 2.037 . S
Co827 N862 2.145 . S
Co827 N883 2.257 . S
O828 Co826 2.143 . S
O828 Co827 2.160 . S
C829 O830 1.278 . S
C829 O837 1.224 . S
O830 C829 1.278 . S
C831 O832 1.245 . S
C831 O843 1.232 . S
O832 C831 1.245 . S
O833 Co827 2.058 . S
O833 C859 1.269 . S
O834 Co826 2.074 . S
O834 C859 1.257 . S
H835 C860 0.930 . S
H836 C866 0.930 . S
O837 Co826 2.093 . S
O837 C829 1.224 . S
H838 C870 0.929 . S
H839 C872 0.930 . S
H840 C873 0.930 . S
H841 C871 0.929 . S
H842 C874 0.928 . S
O843 Co827 2.057 . S
O843 C831 1.232 . S
H844 C863 0.929 . S
H845 C864 0.929 . S
H846 C876 0.931 . S
H847 C868 0.929 . S
H848 C877 0.930 . S
H849 C869 0.931 . S
O850 Co826 2.097 . S
O850 C878 1.214 . S
H851 C879 0.929 . S
H852 C880 0.929 . S
H853 C881 0.930 . S
H854 C882 0.929 . S
H855 C884 0.930 . S
H856 C861 0.930 . S
H857 C865 0.930 . S
O858 Co827 2.037 . S
O858 C878 1.234 . S
C859 O833 1.269 . S
C859 O834 1.257 . S
C860 H835 0.930 . S
C860 C863 1.388 . S
C860 C865 1.418 . S
C861 H856 0.930 . S
C861 C864 1.404 . S
C861 C865 1.353 . S
N862 Co827 2.145 . S
N862 C863 1.397 . S
N862 C864 1.334 . S
C863 H844 0.929 . S
C863 C860 1.388 . S
C863 N862 1.397 . S
C864 H845 0.929 . S
C864 C861 1.404 . S
C864 N862 1.334 . S
C865 H857 0.930 . S
C865 C860 1.418 . S
C865 C861 1.353 . S
C866 H836 0.930 . S
C866 N867 1.330 . S
C866 C868 1.446 . S
N867 Co826 2.151 . S
N867 C866 1.330 . S
N867 C871 1.418 . S
C868 H847 0.929 . S
C868 C866 1.446 . S
C868 C869 1.332 . S
C869 H849 0.931 . S
C869 C868 1.332 . S
C869 C870 1.267 . S
C870 H838 0.929 . S
C870 C869 1.267 . S
C870 C871 1.251 . S
C871 H841 0.929 . S
C871 N867 1.418 . S
C871 C870 1.251 . S
C872 H839 0.930 . S
C872 C874 1.406 . S
C872 C877 1.261 . S
C873 H840 0.930 . S
C873 N875 1.325 . S
C873 C876 1.357 . S
C874 H842 0.928 . S
C874 C872 1.406 . S
C874 N875 1.261 . S
N875 Co826 2.214 . S
N875 C873 1.325 . S
N875 C874 1.261 . S
C876 H846 0.931 . S
C876 C873 1.357 . S
C876 C877 1.312 . S
C877 H848 0.930 . S
C877 C872 1.261 . S
C877 C876 1.312 . S
C878 O850 1.214 . S
C878 O858 1.234 . S
C879 H851 0.929 . S
C879 C882 1.391 . S
C879 C884 1.391 . S
C880 H852 0.929 . S
C880 C881 1.390 . S
C880 N883 1.391 . S
C881 H853 0.930 . S
C881 C880 1.390 . S
C881 C882 1.392 . S
C882 H854 0.929 . S
C882 C879 1.391 . S
C882 C881 1.392 . S
N883 Co827 2.257 . S
N883 C880 1.391 . S
N883 C884 1.388 . S
C884 H855 0.930 . S
C884 C879 1.391 . S
C884 N883 1.388 . S
Co885 O887 2.143 . S
Co885 O893 2.074 . S
Co885 O896 2.093 . S
Co885 O909 2.097 . S
Co885 N926 2.151 . S
Co885 N934 2.214 . S
Co886 O887 2.160 . S
Co886 O892 2.058 . S
Co886 O902 2.057 . S
Co886 O917 2.037 . S
Co886 N921 2.145 . S
Co886 N942 2.257 . S
O887 Co885 2.143 . S
O887 Co886 2.160 . S
C888 O889 1.278 . S
C888 O896 1.224 . S
O889 C888 1.278 . S
C890 O891 1.245 . S
C890 O902 1.232 . S
O891 C890 1.245 . S
O892 Co886 2.058 . S
O892 C918 1.269 . S
O893 Co885 2.074 . S
O893 C918 1.257 . S
H894 C919 0.930 . S
H895 C925 0.930 . S
O896 Co885 2.093 . S
O896 C888 1.224 . S
H897 C929 0.929 . S
H898 C931 0.930 . S
H899 C932 0.930 . S
H900 C930 0.929 . S
H901 C933 0.928 . S
O902 Co886 2.057 . S
O902 C890 1.232 . S
H903 C922 0.929 . S
H904 C923 0.929 . S
H905 C935 0.931 . S
H906 C927 0.929 . S
H907 C936 0.930 . S
H908 C928 0.931 . S
O909 Co885 2.097 . S
O909 C937 1.214 . S
H910 C938 0.929 . S
H911 C939 0.929 . S
H912 C940 0.930 . S
H913 C941 0.929 . S
H914 C943 0.930 . S
H915 C920 0.930 . S
H916 C924 0.930 . S
O917 Co886 2.037 . S
O917 C937 1.234 . S
C918 O892 1.269 . S
C918 O893 1.257 . S
C919 H894 0.930 . S
C919 C922 1.388 . S
C919 C924 1.418 . S
C920 H915 0.930 . S
C920 C923 1.404 . S
C920 C924 1.353 . S
N921 Co886 2.145 . S
N921 C922 1.397 . S
N921 C923 1.334 . S
C922 H903 0.929 . S
C922 C919 1.388 . S
C922 N921 1.397 . S
C923 H904 0.929 . S
C923 C920 1.404 . S
C923 N921 1.334 . S
C924 H916 0.930 . S
C924 C919 1.418 . S
C924 C920 1.353 . S
C925 H895 0.930 . S
C925 N926 1.330 . S
C925 C927 1.446 . S
N926 Co885 2.151 . S
N926 C925 1.330 . S
N926 C930 1.418 . S
C927 H906 0.929 . S
C927 C925 1.446 . S
C927 C928 1.332 . S
C928 H908 0.931 . S
C928 C927 1.332 . S
C928 C929 1.267 . S
C929 H897 0.929 . S
C929 C928 1.267 . S
C929 C930 1.251 . S
C930 H900 0.929 . S
C930 N926 1.418 . S
C930 C929 1.251 . S
C931 H898 0.930 . S
C931 C933 1.406 . S
C931 C936 1.261 . S
C932 H899 0.930 . S
C932 N934 1.325 . S
C932 C935 1.357 . S
C933 H901 0.928 . S
C933 C931 1.406 . S
C933 N934 1.261 . S
N934 Co885 2.214 . S
N934 C932 1.325 . S
N934 C933 1.261 . S
C935 H905 0.931 . S
C935 C932 1.357 . S
C935 C936 1.312 . S
C936 H907 0.930 . S
C936 C931 1.261 . S
C936 C935 1.312 . S
C937 O909 1.214 . S
C937 O917 1.234 . S
C938 H910 0.929 . S
C938 C941 1.391 . S
C938 C943 1.391 . S
C939 H911 0.929 . S
C939 C940 1.390 . S
C939 N942 1.391 . S
C940 H912 0.930 . S
C940 C939 1.390 . S
C940 C941 1.392 . S
C941 H913 0.929 . S
C941 C938 1.391 . S
C941 C940 1.392 . S
N942 Co886 2.257 . S
N942 C939 1.391 . S
N942 C943 1.388 . S
C943 H914 0.930 . S
C943 C938 1.391 . S
C943 N942 1.388 . S
Co944 O946 2.143 . S
Co944 O952 2.074 . S
Co944 O955 2.093 . S
Co944 O968 2.097 . S
Co944 N985 2.151 . S
Co944 N993 2.214 . S
Co945 O946 2.160 . S
Co945 O951 2.058 . S
Co945 O961 2.057 . S
Co945 O976 2.037 . S
Co945 N980 2.145 . S
Co945 N1001 2.257 . S
O946 Co944 2.143 . S
O946 Co945 2.160 . S
C947 O948 1.278 . S
C947 O955 1.224 . S
O948 C947 1.278 . S
C949 O950 1.245 . S
C949 O961 1.232 . S
O950 C949 1.245 . S
O951 Co945 2.058 . S
O951 C977 1.269 . S
O952 Co944 2.074 . S
O952 C977 1.257 . S
H953 C978 0.930 . S
H954 C984 0.930 . S
O955 Co944 2.093 . S
O955 C947 1.224 . S
H956 C988 0.929 . S
H957 C990 0.930 . S
H958 C991 0.930 . S
H959 C989 0.929 . S
H960 C992 0.928 . S
O961 Co945 2.057 . S
O961 C949 1.232 . S
H962 C981 0.929 . S
H963 C982 0.929 . S
H964 C994 0.931 . S
H965 C986 0.929 . S
H966 C995 0.930 . S
H967 C987 0.931 . S
O968 Co944 2.097 . S
O968 C996 1.214 . S
H969 C997 0.929 . S
H970 C998 0.929 . S
H971 C999 0.930 . S
H972 C1000 0.929 . S
H973 C1002 0.930 . S
H974 C979 0.930 . S
H975 C983 0.930 . S
O976 Co945 2.037 . S
O976 C996 1.234 . S
C977 O951 1.269 . S
C977 O952 1.257 . S
C978 H953 0.930 . S
C978 C981 1.388 . S
C978 C983 1.418 . S
C979 H974 0.930 . S
C979 C982 1.404 . S
C979 C983 1.353 . S
N980 Co945 2.145 . S
N980 C981 1.397 . S
N980 C982 1.334 . S
C981 H962 0.929 . S
C981 C978 1.388 . S
C981 N980 1.397 . S
C982 H963 0.929 . S
C982 C979 1.404 . S
C982 N980 1.334 . S
C983 H975 0.930 . S
C983 C978 1.418 . S
C983 C979 1.353 . S
C984 H954 0.930 . S
C984 N985 1.330 . S
C984 C986 1.446 . S
N985 Co944 2.151 . S
N985 C984 1.330 . S
N985 C989 1.418 . S
C986 H965 0.929 . S
C986 C984 1.446 . S
C986 C987 1.332 . S
C987 H967 0.931 . S
C987 C986 1.332 . S
C987 C988 1.267 . S
C988 H956 0.929 . S
C988 C987 1.267 . S
C988 C989 1.251 . S
C989 H959 0.929 . S
C989 N985 1.418 . S
C989 C988 1.251 . S
C990 H957 0.930 . S
C990 C992 1.406 . S
C990 C995 1.261 . S
C991 H958 0.930 . S
C991 N993 1.325 . S
C991 C994 1.357 . S
C992 H960 0.928 . S
C992 C990 1.406 . S
C992 N993 1.261 . S
N993 Co944 2.214 . S
N993 C991 1.325 . S
N993 C992 1.261 . S
C994 H964 0.931 . S
C994 C991 1.357 . S
C994 C995 1.312 . S
C995 H966 0.930 . S
C995 C990 1.261 . S
C995 C994 1.312 . S
C996 O968 1.214 . S
C996 O976 1.234 . S
C997 H969 0.929 . S
C997 C1000 1.391 . S
C997 C1002 1.391 . S
C998 H970 0.929 . S
C998 C999 1.390 . S
C998 N1001 1.391 . S
C999 H971 0.930 . S
C999 C998 1.390 . S
C999 C1000 1.392 . S
C1000 H972 0.929 . S
C1000 C997 1.391 . S
C1000 C999 1.392 . S
N1001 Co945 2.257 . S
N1001 C998 1.391 . S
N1001 C1002 1.388 . S
C1002 H973 0.930 . S
C1002 C997 1.391 . S
C1002 N1001 1.388 . S
Co1003 O1005 2.143 . S
Co1003 O1011 2.074 . S
Co1003 O1014 2.093 . S
Co1003 O1027 2.097 . S
Co1003 N1044 2.151 . S
Co1003 N1052 2.214 . S
Co1004 O1005 2.160 . S
Co1004 O1010 2.058 . S
Co1004 O1020 2.057 . S
Co1004 O1035 2.037 . S
Co1004 N1039 2.145 . S
Co1004 N1060 2.257 . S
O1005 Co1003 2.143 . S
O1005 Co1004 2.160 . S
C1006 O1007 1.278 . S
C1006 O1014 1.224 . S
O1007 C1006 1.278 . S
C1008 O1009 1.245 . S
C1008 O1020 1.232 . S
O1009 C1008 1.245 . S
O1010 Co1004 2.058 . S
O1010 C1036 1.269 . S
O1011 Co1003 2.074 . S
O1011 C1036 1.257 . S
H1012 C1037 0.930 . S
H1013 C1043 0.930 . S
O1014 Co1003 2.093 . S
O1014 C1006 1.224 . S
H1015 C1047 0.929 . S
H1016 C1049 0.930 . S
H1017 C1050 0.930 . S
H1018 C1048 0.929 . S
H1019 C1051 0.928 . S
O1020 Co1004 2.057 . S
O1020 C1008 1.232 . S
H1021 C1040 0.929 . S
H1022 C1041 0.929 . S
H1023 C1053 0.931 . S
H1024 C1045 0.929 . S
H1025 C1054 0.930 . S
H1026 C1046 0.931 . S
O1027 Co1003 2.097 . S
O1027 C1055 1.214 . S
H1028 C1056 0.929 . S
H1029 C1057 0.929 . S
H1030 C1058 0.930 . S
H1031 C1059 0.929 . S
H1032 C1061 0.930 . S
H1033 C1038 0.930 . S
H1034 C1042 0.930 . S
O1035 Co1004 2.037 . S
O1035 C1055 1.234 . S
C1036 O1010 1.269 . S
C1036 O1011 1.257 . S
C1037 H1012 0.930 . S
C1037 C1040 1.388 . S
C1037 C1042 1.418 . S
C1038 H1033 0.930 . S
C1038 C1041 1.404 . S
C1038 C1042 1.353 . S
N1039 Co1004 2.145 . S
N1039 C1040 1.397 . S
N1039 C1041 1.334 . S
C1040 H1021 0.929 . S
C1040 C1037 1.388 . S
C1040 N1039 1.397 . S
C1041 H1022 0.929 . S
C1041 C1038 1.404 . S
C1041 N1039 1.334 . S
C1042 H1034 0.930 . S
C1042 C1037 1.418 . S
C1042 C1038 1.353 . S
C1043 H1013 0.930 . S
C1043 N1044 1.330 . S
C1043 C1045 1.446 . S
N1044 Co1003 2.151 . S
N1044 C1043 1.330 . S
N1044 C1048 1.418 . S
C1045 H1024 0.929 . S
C1045 C1043 1.446 . S
C1045 C1046 1.332 . S
C1046 H1026 0.931 . S
C1046 C1045 1.332 . S
C1046 C1047 1.267 . S
C1047 H1015 0.929 . S
C1047 C1046 1.267 . S
C1047 C1048 1.251 . S
C1048 H1018 0.929 . S
C1048 N1044 1.418 . S
C1048 C1047 1.251 . S
C1049 H1016 0.930 . S
C1049 C1051 1.406 . S
C1049 C1054 1.261 . S
C1050 H1017 0.930 . S
C1050 N1052 1.325 . S
C1050 C1053 1.357 . S
C1051 H1019 0.928 . S
C1051 C1049 1.406 . S
C1051 N1052 1.261 . S
N1052 Co1003 2.214 . S
N1052 C1050 1.325 . S
N1052 C1051 1.261 . S
C1053 H1023 0.931 . S
C1053 C1050 1.357 . S
C1053 C1054 1.312 . S
C1054 H1025 0.930 . S
C1054 C1049 1.261 . S
C1054 C1053 1.312 . S
C1055 O1027 1.214 . S
C1055 O1035 1.234 . S
C1056 H1028 0.929 . S
C1056 C1059 1.391 . S
C1056 C1061 1.391 . S
C1057 H1029 0.929 . S
C1057 C1058 1.390 . S
C1057 N1060 1.391 . S
C1058 H1030 0.930 . S
C1058 C1057 1.390 . S
C1058 C1059 1.392 . S
C1059 H1031 0.929 . S
C1059 C1056 1.391 . S
C1059 C1058 1.392 . S
N1060 Co1004 2.257 . S
N1060 C1057 1.391 . S
N1060 C1061 1.388 . S
C1061 H1032 0.930 . S
C1061 C1056 1.391 . S
C1061 N1060 1.388 . S
Co1062 O1064 2.143 . S
Co1062 O1070 2.074 . S
Co1062 O1073 2.093 . S
Co1062 O1086 2.097 . S
Co1062 N1103 2.151 . S
Co1062 N1111 2.214 . S
Co1063 O1064 2.160 . S
Co1063 O1069 2.058 . S
Co1063 O1079 2.057 . S
Co1063 O1094 2.037 . S
Co1063 N1098 2.145 . S
Co1063 N1119 2.257 . S
O1064 Co1062 2.143 . S
O1064 Co1063 2.160 . S
C1065 O1066 1.278 . S
C1065 O1073 1.224 . S
O1066 C1065 1.278 . S
C1067 O1068 1.245 . S
C1067 O1079 1.232 . S
O1068 C1067 1.245 . S
O1069 Co1063 2.058 . S
O1069 C1095 1.269 . S
O1070 Co1062 2.074 . S
O1070 C1095 1.257 . S
H1071 C1096 0.930 . S
H1072 C1102 0.930 . S
O1073 Co1062 2.093 . S
O1073 C1065 1.224 . S
H1074 C1106 0.929 . S
H1075 C1108 0.930 . S
H1076 C1109 0.930 . S
H1077 C1107 0.929 . S
H1078 C1110 0.928 . S
O1079 Co1063 2.057 . S
O1079 C1067 1.232 . S
H1080 C1099 0.929 . S
H1081 C1100 0.929 . S
H1082 C1112 0.931 . S
H1083 C1104 0.929 . S
H1084 C1113 0.930 . S
H1085 C1105 0.931 . S
O1086 Co1062 2.097 . S
O1086 C1114 1.214 . S
H1087 C1115 0.929 . S
H1088 C1116 0.929 . S
H1089 C1117 0.930 . S
H1090 C1118 0.929 . S
H1091 C1120 0.930 . S
H1092 C1097 0.930 . S
H1093 C1101 0.930 . S
O1094 Co1063 2.037 . S
O1094 C1114 1.234 . S
C1095 O1069 1.269 . S
C1095 O1070 1.257 . S
C1096 H1071 0.930 . S
C1096 C1099 1.388 . S
C1096 C1101 1.418 . S
C1097 H1092 0.930 . S
C1097 C1100 1.404 . S
C1097 C1101 1.353 . S
N1098 Co1063 2.145 . S
N1098 C1099 1.397 . S
N1098 C1100 1.334 . S
C1099 H1080 0.929 . S
C1099 C1096 1.388 . S
C1099 N1098 1.397 . S
C1100 H1081 0.929 . S
C1100 C1097 1.404 . S
C1100 N1098 1.334 . S
C1101 H1093 0.930 . S
C1101 C1096 1.418 . S
C1101 C1097 1.353 . S
C1102 H1072 0.930 . S
C1102 N1103 1.330 . S
C1102 C1104 1.446 . S
N1103 Co1062 2.151 . S
N1103 C1102 1.330 . S
N1103 C1107 1.418 . S
C1104 H1083 0.929 . S
C1104 C1102 1.446 . S
C1104 C1105 1.332 . S
C1105 H1085 0.931 . S
C1105 C1104 1.332 . S
C1105 C1106 1.267 . S
C1106 H1074 0.929 . S
C1106 C1105 1.267 . S
C1106 C1107 1.251 . S
C1107 H1077 0.929 . S
C1107 N1103 1.418 . S
C1107 C1106 1.251 . S
C1108 H1075 0.930 . S
C1108 C1110 1.406 . S
C1108 C1113 1.261 . S
C1109 H1076 0.930 . S
C1109 N1111 1.325 . S
C1109 C1112 1.357 . S
C1110 H1078 0.928 . S
C1110 C1108 1.406 . S
C1110 N1111 1.261 . S
N1111 Co1062 2.214 . S
N1111 C1109 1.325 . S
N1111 C1110 1.261 . S
C1112 H1082 0.931 . S
C1112 C1109 1.357 . S
C1112 C1113 1.312 . S
C1113 H1084 0.930 . S
C1113 C1108 1.261 . S
C1113 C1112 1.312 . S
C1114 O1086 1.214 . S
C1114 O1094 1.234 . S
C1115 H1087 0.929 . S
C1115 C1118 1.391 . S
C1115 C1120 1.391 . S
C1116 H1088 0.929 . S
C1116 C1117 1.390 . S
C1116 N1119 1.391 . S
C1117 H1089 0.930 . S
C1117 C1116 1.390 . S
C1117 C1118 1.392 . S
C1118 H1090 0.929 . S
C1118 C1115 1.391 . S
C1118 C1117 1.392 . S
N1119 Co1063 2.257 . S
N1119 C1116 1.391 . S
N1119 C1120 1.388 . S
C1120 H1091 0.930 . S
C1120 C1115 1.391 . S
C1120 N1119 1.388 . S
Co1121 O1123 2.143 . S
Co1121 O1129 2.074 . S
Co1121 O1132 2.093 . S
Co1121 O1145 2.097 . S
Co1121 N1162 2.151 . S
Co1121 N1170 2.214 . S
Co1122 O1123 2.160 . S
Co1122 O1128 2.058 . S
Co1122 O1138 2.057 . S
Co1122 O1153 2.037 . S
Co1122 N1157 2.145 . S
Co1122 N1178 2.257 . S
O1123 Co1121 2.143 . S
O1123 Co1122 2.160 . S
C1124 O1125 1.278 . S
C1124 O1132 1.224 . S
O1125 C1124 1.278 . S
C1126 O1127 1.245 . S
C1126 O1138 1.232 . S
O1127 C1126 1.245 . S
O1128 Co1122 2.058 . S
O1128 C1154 1.269 . S
O1129 Co1121 2.074 . S
O1129 C1154 1.257 . S
H1130 C1155 0.930 . S
H1131 C1161 0.930 . S
O1132 Co1121 2.093 . S
O1132 C1124 1.224 . S
H1133 C1165 0.929 . S
H1134 C1167 0.930 . S
H1135 C1168 0.930 . S
H1136 C1166 0.929 . S
H1137 C1169 0.928 . S
O1138 Co1122 2.057 . S
O1138 C1126 1.232 . S
H1139 C1158 0.929 . S
H1140 C1159 0.929 . S
H1141 C1171 0.931 . S
H1142 C1163 0.929 . S
H1143 C1172 0.930 . S
H1144 C1164 0.931 . S
O1145 Co1121 2.097 . S
O1145 C1173 1.214 . S
H1146 C1174 0.929 . S
H1147 C1175 0.929 . S
H1148 C1176 0.930 . S
H1149 C1177 0.929 . S
H1150 C1179 0.930 . S
H1151 C1156 0.930 . S
H1152 C1160 0.930 . S
O1153 Co1122 2.037 . S
O1153 C1173 1.234 . S
C1154 O1128 1.269 . S
C1154 O1129 1.257 . S
C1155 H1130 0.930 . S
C1155 C1158 1.388 . S
C1155 C1160 1.418 . S
C1156 H1151 0.930 . S
C1156 C1159 1.404 . S
C1156 C1160 1.353 . S
N1157 Co1122 2.145 . S
N1157 C1158 1.397 . S
N1157 C1159 1.334 . S
C1158 H1139 0.929 . S
C1158 C1155 1.388 . S
C1158 N1157 1.397 . S
C1159 H1140 0.929 . S
C1159 C1156 1.404 . S
C1159 N1157 1.334 . S
C1160 H1152 0.930 . S
C1160 C1155 1.418 . S
C1160 C1156 1.353 . S
C1161 H1131 0.930 . S
C1161 N1162 1.330 . S
C1161 C1163 1.446 . S
N1162 Co1121 2.151 . S
N1162 C1161 1.330 . S
N1162 C1166 1.418 . S
C1163 H1142 0.929 . S
C1163 C1161 1.446 . S
C1163 C1164 1.332 . S
C1164 H1144 0.931 . S
C1164 C1163 1.332 . S
C1164 C1165 1.267 . S
C1165 H1133 0.929 . S
C1165 C1164 1.267 . S
C1165 C1166 1.251 . S
C1166 H1136 0.929 . S
C1166 N1162 1.418 . S
C1166 C1165 1.251 . S
C1167 H1134 0.930 . S
C1167 C1169 1.406 . S
C1167 C1172 1.261 . S
C1168 H1135 0.930 . S
C1168 N1170 1.325 . S
C1168 C1171 1.357 . S
C1169 H1137 0.928 . S
C1169 C1167 1.406 . S
C1169 N1170 1.261 . S
N1170 Co1121 2.214 . S
N1170 C1168 1.325 . S
N1170 C1169 1.261 . S
C1171 H1141 0.931 . S
C1171 C1168 1.357 . S
C1171 C1172 1.312 . S
C1172 H1143 0.930 . S
C1172 C1167 1.261 . S
C1172 C1171 1.312 . S
C1173 O1145 1.214 . S
C1173 O1153 1.234 . S
C1174 H1146 0.929 . S
C1174 C1177 1.391 . S
C1174 C1179 1.391 . S
C1175 H1147 0.929 . S
C1175 C1176 1.390 . S
C1175 N1178 1.391 . S
C1176 H1148 0.930 . S
C1176 C1175 1.390 . S
C1176 C1177 1.392 . S
C1177 H1149 0.929 . S
C1177 C1174 1.391 . S
C1177 C1176 1.392 . S
N1178 Co1122 2.257 . S
N1178 C1175 1.391 . S
N1178 C1179 1.388 . S
C1179 H1150 0.930 . S
C1179 C1174 1.391 . S
C1179 N1178 1.388 . S
Co1180 O1182 2.143 . S
Co1180 O1188 2.074 . S
Co1180 O1191 2.093 . S
Co1180 O1204 2.097 . S
Co1180 N1221 2.151 . S
Co1180 N1229 2.214 . S
Co1181 O1182 2.160 . S
Co1181 O1187 2.058 . S
Co1181 O1197 2.057 . S
Co1181 O1212 2.037 . S
Co1181 N1216 2.145 . S
Co1181 N1237 2.257 . S
O1182 Co1180 2.143 . S
O1182 Co1181 2.160 . S
C1183 O1184 1.278 . S
C1183 O1191 1.224 . S
O1184 C1183 1.278 . S
C1185 O1186 1.245 . S
C1185 O1197 1.232 . S
O1186 C1185 1.245 . S
O1187 Co1181 2.058 . S
O1187 C1213 1.269 . S
O1188 Co1180 2.074 . S
O1188 C1213 1.257 . S
H1189 C1214 0.930 . S
H1190 C1220 0.930 . S
O1191 Co1180 2.093 . S
O1191 C1183 1.224 . S
H1192 C1224 0.929 . S
H1193 C1226 0.930 . S
H1194 C1227 0.930 . S
H1195 C1225 0.929 . S
H1196 C1228 0.928 . S
O1197 Co1181 2.057 . S
O1197 C1185 1.232 . S
H1198 C1217 0.929 . S
H1199 C1218 0.929 . S
H1200 C1230 0.931 . S
H1201 C1222 0.929 . S
H1202 C1231 0.930 . S
H1203 C1223 0.931 . S
O1204 Co1180 2.097 . S
O1204 C1232 1.214 . S
H1205 C1233 0.929 . S
H1206 C1234 0.929 . S
H1207 C1235 0.930 . S
H1208 C1236 0.929 . S
H1209 C1238 0.930 . S
H1210 C1215 0.930 . S
H1211 C1219 0.930 . S
O1212 Co1181 2.037 . S
O1212 C1232 1.234 . S
C1213 O1187 1.269 . S
C1213 O1188 1.257 . S
C1214 H1189 0.930 . S
C1214 C1217 1.388 . S
C1214 C1219 1.418 . S
C1215 H1210 0.930 . S
C1215 C1218 1.404 . S
C1215 C1219 1.353 . S
N1216 Co1181 2.145 . S
N1216 C1217 1.397 . S
N1216 C1218 1.334 . S
C1217 H1198 0.929 . S
C1217 C1214 1.388 . S
C1217 N1216 1.397 . S
C1218 H1199 0.929 . S
C1218 C1215 1.404 . S
C1218 N1216 1.334 . S
C1219 H1211 0.930 . S
C1219 C1214 1.418 . S
C1219 C1215 1.353 . S
C1220 H1190 0.930 . S
C1220 N1221 1.330 . S
C1220 C1222 1.446 . S
N1221 Co1180 2.151 . S
N1221 C1220 1.330 . S
N1221 C1225 1.418 . S
C1222 H1201 0.929 . S
C1222 C1220 1.446 . S
C1222 C1223 1.332 . S
C1223 H1203 0.931 . S
C1223 C1222 1.332 . S
C1223 C1224 1.267 . S
C1224 H1192 0.929 . S
C1224 C1223 1.267 . S
C1224 C1225 1.251 . S
C1225 H1195 0.929 . S
C1225 N1221 1.418 . S
C1225 C1224 1.251 . S
C1226 H1193 0.930 . S
C1226 C1228 1.406 . S
C1226 C1231 1.261 . S
C1227 H1194 0.930 . S
C1227 N1229 1.325 . S
C1227 C1230 1.357 . S
C1228 H1196 0.928 . S
C1228 C1226 1.406 . S
C1228 N1229 1.261 . S
N1229 Co1180 2.214 . S
N1229 C1227 1.325 . S
N1229 C1228 1.261 . S
C1230 H1200 0.931 . S
C1230 C1227 1.357 . S
C1230 C1231 1.312 . S
C1231 H1202 0.930 . S
C1231 C1226 1.261 . S
C1231 C1230 1.312 . S
C1232 O1204 1.214 . S
C1232 O1212 1.234 . S
C1233 H1205 0.929 . S
C1233 C1236 1.391 . S
C1233 C1238 1.391 . S
C1234 H1206 0.929 . S
C1234 C1235 1.390 . S
C1234 N1237 1.391 . S
C1235 H1207 0.930 . S
C1235 C1234 1.390 . S
C1235 C1236 1.392 . S
C1236 H1208 0.929 . S
C1236 C1233 1.391 . S
C1236 C1235 1.392 . S
N1237 Co1181 2.257 . S
N1237 C1234 1.391 . S
N1237 C1238 1.388 . S
C1238 H1209 0.930 . S
C1238 C1233 1.391 . S
C1238 N1237 1.388 . S
Co1239 O1241 2.143 . S
Co1239 O1247 2.074 . S
Co1239 O1250 2.093 . S
Co1239 O1263 2.097 . S
Co1239 N1280 2.151 . S
Co1239 N1288 2.214 . S
Co1240 O1241 2.160 . S
Co1240 O1246 2.058 . S
Co1240 O1256 2.057 . S
Co1240 O1271 2.037 . S
Co1240 N1275 2.145 . S
Co1240 N1296 2.257 . S
O1241 Co1239 2.143 . S
O1241 Co1240 2.160 . S
C1242 O1243 1.278 . S
C1242 O1250 1.224 . S
O1243 C1242 1.278 . S
C1244 O1245 1.245 . S
C1244 O1256 1.232 . S
O1245 C1244 1.245 . S
O1246 Co1240 2.058 . S
O1246 C1272 1.269 . S
O1247 Co1239 2.074 . S
O1247 C1272 1.257 . S
H1248 C1273 0.930 . S
H1249 C1279 0.930 . S
O1250 Co1239 2.093 . S
O1250 C1242 1.224 . S
H1251 C1283 0.929 . S
H1252 C1285 0.930 . S
H1253 C1286 0.930 . S
H1254 C1284 0.929 . S
H1255 C1287 0.928 . S
O1256 Co1240 2.057 . S
O1256 C1244 1.232 . S
H1257 C1276 0.929 . S
H1258 C1277 0.929 . S
H1259 C1289 0.931 . S
H1260 C1281 0.929 . S
H1261 C1290 0.930 . S
H1262 C1282 0.931 . S
O1263 Co1239 2.097 . S
O1263 C1291 1.214 . S
H1264 C1292 0.929 . S
H1265 C1293 0.929 . S
H1266 C1294 0.930 . S
H1267 C1295 0.929 . S
H1268 C1297 0.930 . S
H1269 C1274 0.930 . S
H1270 C1278 0.930 . S
O1271 Co1240 2.037 . S
O1271 C1291 1.234 . S
C1272 O1246 1.269 . S
C1272 O1247 1.257 . S
C1273 H1248 0.930 . S
C1273 C1276 1.388 . S
C1273 C1278 1.418 . S
C1274 H1269 0.930 . S
C1274 C1277 1.404 . S
C1274 C1278 1.353 . S
N1275 Co1240 2.145 . S
N1275 C1276 1.397 . S
N1275 C1277 1.334 . S
C1276 H1257 0.929 . S
C1276 C1273 1.388 . S
C1276 N1275 1.397 . S
C1277 H1258 0.929 . S
C1277 C1274 1.404 . S
C1277 N1275 1.334 . S
C1278 H1270 0.930 . S
C1278 C1273 1.418 . S
C1278 C1274 1.353 . S
C1279 H1249 0.930 . S
C1279 N1280 1.330 . S
C1279 C1281 1.446 . S
N1280 Co1239 2.151 . S
N1280 C1279 1.330 . S
N1280 C1284 1.418 . S
C1281 H1260 0.929 . S
C1281 C1279 1.446 . S
C1281 C1282 1.332 . S
C1282 H1262 0.931 . S
C1282 C1281 1.332 . S
C1282 C1283 1.267 . S
C1283 H1251 0.929 . S
C1283 C1282 1.267 . S
C1283 C1284 1.251 . S
C1284 H1254 0.929 . S
C1284 N1280 1.418 . S
C1284 C1283 1.251 . S
C1285 H1252 0.930 . S
C1285 C1287 1.406 . S
C1285 C1290 1.261 . S
C1286 H1253 0.930 . S
C1286 N1288 1.325 . S
C1286 C1289 1.357 . S
C1287 H1255 0.928 . S
C1287 C1285 1.406 . S
C1287 N1288 1.261 . S
N1288 Co1239 2.214 . S
N1288 C1286 1.325 . S
N1288 C1287 1.261 . S
C1289 H1259 0.931 . S
C1289 C1286 1.357 . S
C1289 C1290 1.312 . S
C1290 H1261 0.930 . S
C1290 C1285 1.261 . S
C1290 C1289 1.312 . S
C1291 O1263 1.214 . S
C1291 O1271 1.234 . S
C1292 H1264 0.929 . S
C1292 C1295 1.391 . S
C1292 C1297 1.391 . S
C1293 H1265 0.929 . S
C1293 C1294 1.390 . S
C1293 N1296 1.391 . S
C1294 H1266 0.930 . S
C1294 C1293 1.390 . S
C1294 C1295 1.392 . S
C1295 H1267 0.929 . S
C1295 C1292 1.391 . S
C1295 C1294 1.392 . S
N1296 Co1240 2.257 . S
N1296 C1293 1.391 . S
N1296 C1297 1.388 . S
C1297 H1268 0.930 . S
C1297 C1292 1.391 . S
C1297 N1296 1.388 . S
Co1298 O1300 2.143 . S
Co1298 O1306 2.074 . S
Co1298 O1309 2.093 . S
Co1298 O1322 2.097 . S
Co1298 N1339 2.151 . S
Co1298 N1347 2.214 . S
Co1299 O1300 2.160 . S
Co1299 O1305 2.058 . S
Co1299 O1315 2.057 . S
Co1299 O1330 2.037 . S
Co1299 N1334 2.145 . S
Co1299 N1355 2.257 . S
O1300 Co1298 2.143 . S
O1300 Co1299 2.160 . S
C1301 O1302 1.278 . S
C1301 O1309 1.224 . S
O1302 C1301 1.278 . S
C1303 O1304 1.245 . S
C1303 O1315 1.232 . S
O1304 C1303 1.245 . S
O1305 Co1299 2.058 . S
O1305 C1331 1.269 . S
O1306 Co1298 2.074 . S
O1306 C1331 1.257 . S
H1307 C1332 0.930 . S
H1308 C1338 0.930 . S
O1309 Co1298 2.093 . S
O1309 C1301 1.224 . S
H1310 C1342 0.929 . S
H1311 C1344 0.930 . S
H1312 C1345 0.930 . S
H1313 C1343 0.929 . S
H1314 C1346 0.928 . S
O1315 Co1299 2.057 . S
O1315 C1303 1.232 . S
H1316 C1335 0.929 . S
H1317 C1336 0.929 . S
H1318 C1348 0.931 . S
H1319 C1340 0.929 . S
H1320 C1349 0.930 . S
H1321 C1341 0.931 . S
O1322 Co1298 2.097 . S
O1322 C1350 1.214 . S
H1323 C1351 0.929 . S
H1324 C1352 0.929 . S
H1325 C1353 0.930 . S
H1326 C1354 0.929 . S
H1327 C1356 0.930 . S
H1328 C1333 0.930 . S
H1329 C1337 0.930 . S
O1330 Co1299 2.037 . S
O1330 C1350 1.234 . S
C1331 O1305 1.269 . S
C1331 O1306 1.257 . S
C1332 H1307 0.930 . S
C1332 C1335 1.388 . S
C1332 C1337 1.418 . S
C1333 H1328 0.930 . S
C1333 C1336 1.404 . S
C1333 C1337 1.353 . S
N1334 Co1299 2.145 . S
N1334 C1335 1.397 . S
N1334 C1336 1.334 . S
C1335 H1316 0.929 . S
C1335 C1332 1.388 . S
C1335 N1334 1.397 . S
C1336 H1317 0.929 . S
C1336 C1333 1.404 . S
C1336 N1334 1.334 . S
C1337 H1329 0.930 . S
C1337 C1332 1.418 . S
C1337 C1333 1.353 . S
C1338 H1308 0.930 . S
C1338 N1339 1.330 . S
C1338 C1340 1.446 . S
N1339 Co1298 2.151 . S
N1339 C1338 1.330 . S
N1339 C1343 1.418 . S
C1340 H1319 0.929 . S
C1340 C1338 1.446 . S
C1340 C1341 1.332 . S
C1341 H1321 0.931 . S
C1341 C1340 1.332 . S
C1341 C1342 1.267 . S
C1342 H1310 0.929 . S
C1342 C1341 1.267 . S
C1342 C1343 1.251 . S
C1343 H1313 0.929 . S
C1343 N1339 1.418 . S
C1343 C1342 1.251 . S
C1344 H1311 0.930 . S
C1344 C1346 1.406 . S
C1344 C1349 1.261 . S
C1345 H1312 0.930 . S
C1345 N1347 1.325 . S
C1345 C1348 1.357 . S
C1346 H1314 0.928 . S
C1346 C1344 1.406 . S
C1346 N1347 1.261 . S
N1347 Co1298 2.214 . S
N1347 C1345 1.325 . S
N1347 C1346 1.261 . S
C1348 H1318 0.931 . S
C1348 C1345 1.357 . S
C1348 C1349 1.312 . S
C1349 H1320 0.930 . S
C1349 C1344 1.261 . S
C1349 C1348 1.312 . S
C1350 O1322 1.214 . S
C1350 O1330 1.234 . S
C1351 H1323 0.929 . S
C1351 C1354 1.391 . S
C1351 C1356 1.391 . S
C1352 H1324 0.929 . S
C1352 C1353 1.390 . S
C1352 N1355 1.391 . S
C1353 H1325 0.930 . S
C1353 C1352 1.390 . S
C1353 C1354 1.392 . S
C1354 H1326 0.929 . S
C1354 C1351 1.391 . S
C1354 C1353 1.392 . S
N1355 Co1299 2.257 . S
N1355 C1352 1.391 . S
N1355 C1356 1.388 . S
C1356 H1327 0.930 . S
C1356 C1351 1.391 . S
C1356 N1355 1.388 . S
Co1357 O1359 2.143 . S
Co1357 O1365 2.074 . S
Co1357 O1368 2.093 . S
Co1357 O1381 2.097 . S
Co1357 N1398 2.151 . S
Co1357 N1406 2.214 . S
Co1358 O1359 2.160 . S
Co1358 O1364 2.058 . S
Co1358 O1374 2.057 . S
Co1358 O1389 2.037 . S
Co1358 N1393 2.145 . S
Co1358 N1414 2.257 . S
O1359 Co1357 2.143 . S
O1359 Co1358 2.160 . S
C1360 O1361 1.278 . S
C1360 O1368 1.224 . S
O1361 C1360 1.278 . S
C1362 O1363 1.245 . S
C1362 O1374 1.232 . S
O1363 C1362 1.245 . S
O1364 Co1358 2.058 . S
O1364 C1390 1.269 . S
O1365 Co1357 2.074 . S
O1365 C1390 1.257 . S
H1366 C1391 0.930 . S
H1367 C1397 0.930 . S
O1368 Co1357 2.093 . S
O1368 C1360 1.224 . S
H1369 C1401 0.929 . S
H1370 C1403 0.930 . S
H1371 C1404 0.930 . S
H1372 C1402 0.929 . S
H1373 C1405 0.928 . S
O1374 Co1358 2.057 . S
O1374 C1362 1.232 . S
H1375 C1394 0.929 . S
H1376 C1395 0.929 . S
H1377 C1407 0.931 . S
H1378 C1399 0.929 . S
H1379 C1408 0.930 . S
H1380 C1400 0.931 . S
O1381 Co1357 2.097 . S
O1381 C1409 1.214 . S
H1382 C1410 0.929 . S
H1383 C1411 0.929 . S
H1384 C1412 0.930 . S
H1385 C1413 0.929 . S
H1386 C1415 0.930 . S
H1387 C1392 0.930 . S
H1388 C1396 0.930 . S
O1389 Co1358 2.037 . S
O1389 C1409 1.234 . S
C1390 O1364 1.269 . S
C1390 O1365 1.257 . S
C1391 H1366 0.930 . S
C1391 C1394 1.388 . S
C1391 C1396 1.418 . S
C1392 H1387 0.930 . S
C1392 C1395 1.404 . S
C1392 C1396 1.353 . S
N1393 Co1358 2.145 . S
N1393 C1394 1.397 . S
N1393 C1395 1.334 . S
C1394 H1375 0.929 . S
C1394 C1391 1.388 . S
C1394 N1393 1.397 . S
C1395 H1376 0.929 . S
C1395 C1392 1.404 . S
C1395 N1393 1.334 . S
C1396 H1388 0.930 . S
C1396 C1391 1.418 . S
C1396 C1392 1.353 . S
C1397 H1367 0.930 . S
C1397 N1398 1.330 . S
C1397 C1399 1.446 . S
N1398 Co1357 2.151 . S
N1398 C1397 1.330 . S
N1398 C1402 1.418 . S
C1399 H1378 0.929 . S
C1399 C1397 1.446 . S
C1399 C1400 1.332 . S
C1400 H1380 0.931 . S
C1400 C1399 1.332 . S
C1400 C1401 1.267 . S
C1401 H1369 0.929 . S
C1401 C1400 1.267 . S
C1401 C1402 1.251 . S
C1402 H1372 0.929 . S
C1402 N1398 1.418 . S
C1402 C1401 1.251 . S
C1403 H1370 0.930 . S
C1403 C1405 1.406 . S
C1403 C1408 1.261 . S
C1404 H1371 0.930 . S
C1404 N1406 1.325 . S
C1404 C1407 1.357 . S
C1405 H1373 0.928 . S
C1405 C1403 1.406 . S
C1405 N1406 1.261 . S
N1406 Co1357 2.214 . S
N1406 C1404 1.325 . S
N1406 C1405 1.261 . S
C1407 H1377 0.931 . S
C1407 C1404 1.357 . S
C1407 C1408 1.312 . S
C1408 H1379 0.930 . S
C1408 C1403 1.261 . S
C1408 C1407 1.312 . S
C1409 O1381 1.214 . S
C1409 O1389 1.234 . S
C1410 H1382 0.929 . S
C1410 C1413 1.391 . S
C1410 C1415 1.391 . S
C1411 H1383 0.929 . S
C1411 C1412 1.390 . S
C1411 N1414 1.391 . S
C1412 H1384 0.930 . S
C1412 C1411 1.390 . S
C1412 C1413 1.392 . S
C1413 H1385 0.929 . S
C1413 C1410 1.391 . S
C1413 C1412 1.392 . S
N1414 Co1358 2.257 . S
N1414 C1411 1.391 . S
N1414 C1415 1.388 . S
C1415 H1386 0.930 . S
C1415 C1410 1.391 . S
C1415 N1414 1.388 . S
Co1416 O1418 2.143 . S
Co1416 O1424 2.074 . S
Co1416 O1427 2.093 . S
Co1416 O1440 2.097 . S
Co1416 N1457 2.151 . S
Co1416 N1465 2.214 . S
Co1417 O1418 2.160 . S
Co1417 O1423 2.058 . S
Co1417 O1433 2.057 . S
Co1417 O1448 2.037 . S
Co1417 N1452 2.145 . S
Co1417 N1473 2.257 . S
O1418 Co1416 2.143 . S
O1418 Co1417 2.160 . S
C1419 O1420 1.278 . S
C1419 O1427 1.224 . S
O1420 C1419 1.278 . S
C1421 O1422 1.245 . S
C1421 O1433 1.232 . S
O1422 C1421 1.245 . S
O1423 Co1417 2.058 . S
O1423 C1449 1.269 . S
O1424 Co1416 2.074 . S
O1424 C1449 1.257 . S
H1425 C1450 0.930 . S
H1426 C1456 0.930 . S
O1427 Co1416 2.093 . S
O1427 C1419 1.224 . S
H1428 C1460 0.929 . S
H1429 C1462 0.930 . S
H1430 C1463 0.930 . S
H1431 C1461 0.929 . S
H1432 C1464 0.928 . S
O1433 Co1417 2.057 . S
O1433 C1421 1.232 . S
H1434 C1453 0.929 . S
H1435 C1454 0.929 . S
H1436 C1466 0.931 . S
H1437 C1458 0.929 . S
H1438 C1467 0.930 . S
H1439 C1459 0.931 . S
O1440 Co1416 2.097 . S
O1440 C1468 1.214 . S
H1441 C1469 0.929 . S
H1442 C1470 0.929 . S
H1443 C1471 0.930 . S
H1444 C1472 0.929 . S
H1445 C1474 0.930 . S
H1446 C1451 0.930 . S
H1447 C1455 0.930 . S
O1448 Co1417 2.037 . S
O1448 C1468 1.234 . S
C1449 O1423 1.269 . S
C1449 O1424 1.257 . S
C1450 H1425 0.930 . S
C1450 C1453 1.388 . S
C1450 C1455 1.418 . S
C1451 H1446 0.930 . S
C1451 C1454 1.404 . S
C1451 C1455 1.353 . S
N1452 Co1417 2.145 . S
N1452 C1453 1.397 . S
N1452 C1454 1.334 . S
C1453 H1434 0.929 . S
C1453 C1450 1.388 . S
C1453 N1452 1.397 . S
C1454 H1435 0.929 . S
C1454 C1451 1.404 . S
C1454 N1452 1.334 . S
C1455 H1447 0.930 . S
C1455 C1450 1.418 . S
C1455 C1451 1.353 . S
C1456 H1426 0.930 . S
C1456 N1457 1.330 . S
C1456 C1458 1.446 . S
N1457 Co1416 2.151 . S
N1457 C1456 1.330 . S
N1457 C1461 1.418 . S
C1458 H1437 0.929 . S
C1458 C1456 1.446 . S
C1458 C1459 1.332 . S
C1459 H1439 0.931 . S
C1459 C1458 1.332 . S
C1459 C1460 1.267 . S
C1460 H1428 0.929 . S
C1460 C1459 1.267 . S
C1460 C1461 1.251 . S
C1461 H1431 0.929 . S
C1461 N1457 1.418 . S
C1461 C1460 1.251 . S
C1462 H1429 0.930 . S
C1462 C1464 1.406 . S
C1462 C1467 1.261 . S
C1463 H1430 0.930 . S
C1463 N1465 1.325 . S
C1463 C1466 1.357 . S
C1464 H1432 0.928 . S
C1464 C1462 1.406 . S
C1464 N1465 1.261 . S
N1465 Co1416 2.214 . S
N1465 C1463 1.325 . S
N1465 C1464 1.261 . S
C1466 H1436 0.931 . S
C1466 C1463 1.357 . S
C1466 C1467 1.312 . S
C1467 H1438 0.930 . S
C1467 C1462 1.261 . S
C1467 C1466 1.312 . S
C1468 O1440 1.214 . S
C1468 O1448 1.234 . S
C1469 H1441 0.929 . S
C1469 C1472 1.391 . S
C1469 C1474 1.391 . S
C1470 H1442 0.929 . S
C1470 C1471 1.390 . S
C1470 N1473 1.391 . S
C1471 H1443 0.930 . S
C1471 C1470 1.390 . S
C1471 C1472 1.392 . S
C1472 H1444 0.929 . S
C1472 C1469 1.391 . S
C1472 C1471 1.392 . S
N1473 Co1417 2.257 . S
N1473 C1470 1.391 . S
N1473 C1474 1.388 . S
C1474 H1445 0.930 . S
C1474 C1469 1.391 . S
C1474 N1473 1.388 . S
Co1475 O1477 2.143 . S
Co1475 O1483 2.074 . S
Co1475 O1486 2.093 . S
Co1475 O1499 2.097 . S
Co1475 N1516 2.151 . S
Co1475 N1524 2.214 . S
Co1476 O1477 2.160 . S
Co1476 O1482 2.058 . S
Co1476 O1492 2.057 . S
Co1476 O1507 2.037 . S
Co1476 N1511 2.145 . S
Co1476 N1532 2.257 . S
O1477 Co1475 2.143 . S
O1477 Co1476 2.160 . S
C1478 O1479 1.278 . S
C1478 O1486 1.224 . S
O1479 C1478 1.278 . S
C1480 O1481 1.245 . S
C1480 O1492 1.232 . S
O1481 C1480 1.245 . S
O1482 Co1476 2.058 . S
O1482 C1508 1.269 . S
O1483 Co1475 2.074 . S
O1483 C1508 1.257 . S
H1484 C1509 0.930 . S
H1485 C1515 0.930 . S
O1486 Co1475 2.093 . S
O1486 C1478 1.224 . S
H1487 C1519 0.929 . S
H1488 C1521 0.930 . S
H1489 C1522 0.930 . S
H1490 C1520 0.929 . S
H1491 C1523 0.928 . S
O1492 Co1476 2.057 . S
O1492 C1480 1.232 . S
H1493 C1512 0.929 . S
H1494 C1513 0.929 . S
H1495 C1525 0.931 . S
H1496 C1517 0.929 . S
H1497 C1526 0.930 . S
H1498 C1518 0.931 . S
O1499 Co1475 2.097 . S
O1499 C1527 1.214 . S
H1500 C1528 0.929 . S
H1501 C1529 0.929 . S
H1502 C1530 0.930 . S
H1503 C1531 0.929 . S
H1504 C1533 0.930 . S
H1505 C1510 0.930 . S
H1506 C1514 0.930 . S
O1507 Co1476 2.037 . S
O1507 C1527 1.234 . S
C1508 O1482 1.269 . S
C1508 O1483 1.257 . S
C1509 H1484 0.930 . S
C1509 C1512 1.388 . S
C1509 C1514 1.418 . S
C1510 H1505 0.930 . S
C1510 C1513 1.404 . S
C1510 C1514 1.353 . S
N1511 Co1476 2.145 . S
N1511 C1512 1.397 . S
N1511 C1513 1.334 . S
C1512 H1493 0.929 . S
C1512 C1509 1.388 . S
C1512 N1511 1.397 . S
C1513 H1494 0.929 . S
C1513 C1510 1.404 . S
C1513 N1511 1.334 . S
C1514 H1506 0.930 . S
C1514 C1509 1.418 . S
C1514 C1510 1.353 . S
C1515 H1485 0.930 . S
C1515 N1516 1.330 . S
C1515 C1517 1.446 . S
N1516 Co1475 2.151 . S
N1516 C1515 1.330 . S
N1516 C1520 1.418 . S
C1517 H1496 0.929 . S
C1517 C1515 1.446 . S
C1517 C1518 1.332 . S
C1518 H1498 0.931 . S
C1518 C1517 1.332 . S
C1518 C1519 1.267 . S
C1519 H1487 0.929 . S
C1519 C1518 1.267 . S
C1519 C1520 1.251 . S
C1520 H1490 0.929 . S
C1520 N1516 1.418 . S
C1520 C1519 1.251 . S
C1521 H1488 0.930 . S
C1521 C1523 1.406 . S
C1521 C1526 1.261 . S
C1522 H1489 0.930 . S
C1522 N1524 1.325 . S
C1522 C1525 1.357 . S
C1523 H1491 0.928 . S
C1523 C1521 1.406 . S
C1523 N1524 1.261 . S
N1524 Co1475 2.214 . S
N1524 C1522 1.325 . S
N1524 C1523 1.261 . S
C1525 H1495 0.931 . S
C1525 C1522 1.357 . S
C1525 C1526 1.312 . S
C1526 H1497 0.930 . S
C1526 C1521 1.261 . S
C1526 C1525 1.312 . S
C1527 O1499 1.214 . S
C1527 O1507 1.234 . S
C1528 H1500 0.929 . S
C1528 C1531 1.391 . S
C1528 C1533 1.391 . S
C1529 H1501 0.929 . S
C1529 C1530 1.390 . S
C1529 N1532 1.391 . S
C1530 H1502 0.930 . S
C1530 C1529 1.390 . S
C1530 C1531 1.392 . S
C1531 H1503 0.929 . S
C1531 C1528 1.391 . S
C1531 C1530 1.392 . S
N1532 Co1476 2.257 . S
N1532 C1529 1.391 . S
N1532 C1533 1.388 . S
C1533 H1504 0.930 . S
C1533 C1528 1.391 . S
C1533 N1532 1.388 . S
Co1534 O1536 2.143 . S
Co1534 O1542 2.074 . S
Co1534 O1545 2.093 . S
Co1534 O1558 2.097 . S
Co1534 N1575 2.151 . S
Co1534 N1583 2.214 . S
Co1535 O1536 2.160 . S
Co1535 O1541 2.058 . S
Co1535 O1551 2.057 . S
Co1535 O1566 2.037 . S
Co1535 N1570 2.145 . S
Co1535 N1591 2.257 . S
O1536 Co1534 2.143 . S
O1536 Co1535 2.160 . S
C1537 O1538 1.278 . S
C1537 O1545 1.224 . S
O1538 C1537 1.278 . S
C1539 O1540 1.245 . S
C1539 O1551 1.232 . S
O1540 C1539 1.245 . S
O1541 Co1535 2.058 . S
O1541 C1567 1.269 . S
O1542 Co1534 2.074 . S
O1542 C1567 1.257 . S
H1543 C1568 0.930 . S
H1544 C1574 0.930 . S
O1545 Co1534 2.093 . S
O1545 C1537 1.224 . S
H1546 C1578 0.929 . S
H1547 C1580 0.930 . S
H1548 C1581 0.930 . S
H1549 C1579 0.929 . S
H1550 C1582 0.928 . S
O1551 Co1535 2.057 . S
O1551 C1539 1.232 . S
H1552 C1571 0.929 . S
H1553 C1572 0.929 . S
H1554 C1584 0.931 . S
H1555 C1576 0.929 . S
H1556 C1585 0.930 . S
H1557 C1577 0.931 . S
O1558 Co1534 2.097 . S
O1558 C1586 1.214 . S
H1559 C1587 0.929 . S
H1560 C1588 0.929 . S
H1561 C1589 0.930 . S
H1562 C1590 0.929 . S
H1563 C1592 0.930 . S
H1564 C1569 0.930 . S
H1565 C1573 0.930 . S
O1566 Co1535 2.037 . S
O1566 C1586 1.234 . S
C1567 O1541 1.269 . S
C1567 O1542 1.257 . S
C1568 H1543 0.930 . S
C1568 C1571 1.388 . S
C1568 C1573 1.418 . S
C1569 H1564 0.930 . S
C1569 C1572 1.404 . S
C1569 C1573 1.353 . S
N1570 Co1535 2.145 . S
N1570 C1571 1.397 . S
N1570 C1572 1.334 . S
C1571 H1552 0.929 . S
C1571 C1568 1.388 . S
C1571 N1570 1.397 . S
C1572 H1553 0.929 . S
C1572 C1569 1.404 . S
C1572 N1570 1.334 . S
C1573 H1565 0.930 . S
C1573 C1568 1.418 . S
C1573 C1569 1.353 . S
C1574 H1544 0.930 . S
C1574 N1575 1.330 . S
C1574 C1576 1.446 . S
N1575 Co1534 2.151 . S
N1575 C1574 1.330 . S
N1575 C1579 1.418 . S
C1576 H1555 0.929 . S
C1576 C1574 1.446 . S
C1576 C1577 1.332 . S
C1577 H1557 0.931 . S
C1577 C1576 1.332 . S
C1577 C1578 1.267 . S
C1578 H1546 0.929 . S
C1578 C1577 1.267 . S
C1578 C1579 1.251 . S
C1579 H1549 0.929 . S
C1579 N1575 1.418 . S
C1579 C1578 1.251 . S
C1580 H1547 0.930 . S
C1580 C1582 1.406 . S
C1580 C1585 1.261 . S
C1581 H1548 0.930 . S
C1581 N1583 1.325 . S
C1581 C1584 1.357 . S
C1582 H1550 0.928 . S
C1582 C1580 1.406 . S
C1582 N1583 1.261 . S
N1583 Co1534 2.214 . S
N1583 C1581 1.325 . S
N1583 C1582 1.261 . S
C1584 H1554 0.931 . S
C1584 C1581 1.357 . S
C1584 C1585 1.312 . S
C1585 H1556 0.930 . S
C1585 C1580 1.261 . S
C1585 C1584 1.312 . S
C1586 O1558 1.214 . S
C1586 O1566 1.234 . S
C1587 H1559 0.929 . S
C1587 C1590 1.391 . S
C1587 C1592 1.391 . S
C1588 H1560 0.929 . S
C1588 C1589 1.390 . S
C1588 N1591 1.391 . S
C1589 H1561 0.930 . S
C1589 C1588 1.390 . S
C1589 C1590 1.392 . S
C1590 H1562 0.929 . S
C1590 C1587 1.391 . S
C1590 C1589 1.392 . S
N1591 Co1535 2.257 . S
N1591 C1588 1.391 . S
N1591 C1592 1.388 . S
C1592 H1563 0.930 . S
C1592 C1587 1.391 . S
C1592 N1591 1.388 . S
Co1593 O1595 2.143 . S
Co1593 O1601 2.074 . S
Co1593 O1604 2.093 . S
Co1593 O1617 2.097 . S
Co1593 N1634 2.151 . S
Co1593 N1642 2.214 . S
Co1594 O1595 2.160 . S
Co1594 O1600 2.058 . S
Co1594 O1610 2.057 . S
Co1594 O1625 2.037 . S
Co1594 N1629 2.145 . S
Co1594 N1650 2.257 . S
O1595 Co1593 2.143 . S
O1595 Co1594 2.160 . S
C1596 O1597 1.278 . S
C1596 O1604 1.224 . S
O1597 C1596 1.278 . S
C1598 O1599 1.245 . S
C1598 O1610 1.232 . S
O1599 C1598 1.245 . S
O1600 Co1594 2.058 . S
O1600 C1626 1.269 . S
O1601 Co1593 2.074 . S
O1601 C1626 1.257 . S
H1602 C1627 0.930 . S
H1603 C1633 0.930 . S
O1604 Co1593 2.093 . S
O1604 C1596 1.224 . S
H1605 C1637 0.929 . S
H1606 C1639 0.930 . S
H1607 C1640 0.930 . S
H1608 C1638 0.929 . S
H1609 C1641 0.928 . S
O1610 Co1594 2.057 . S
O1610 C1598 1.232 . S
H1611 C1630 0.929 . S
H1612 C1631 0.929 . S
H1613 C1643 0.931 . S
H1614 C1635 0.929 . S
H1615 C1644 0.930 . S
H1616 C1636 0.931 . S
O1617 Co1593 2.097 . S
O1617 C1645 1.214 . S
H1618 C1646 0.929 . S
H1619 C1647 0.929 . S
H1620 C1648 0.930 . S
H1621 C1649 0.929 . S
H1622 C1651 0.930 . S
H1623 C1628 0.930 . S
H1624 C1632 0.930 . S
O1625 Co1594 2.037 . S
O1625 C1645 1.234 . S
C1626 O1600 1.269 . S
C1626 O1601 1.257 . S
C1627 H1602 0.930 . S
C1627 C1630 1.388 . S
C1627 C1632 1.418 . S
C1628 H1623 0.930 . S
C1628 C1631 1.404 . S
C1628 C1632 1.353 . S
N1629 Co1594 2.145 . S
N1629 C1630 1.397 . S
N1629 C1631 1.334 . S
C1630 H1611 0.929 . S
C1630 C1627 1.388 . S
C1630 N1629 1.397 . S
C1631 H1612 0.929 . S
C1631 C1628 1.404 . S
C1631 N1629 1.334 . S
C1632 H1624 0.930 . S
C1632 C1627 1.418 . S
C1632 C1628 1.353 . S
C1633 H1603 0.930 . S
C1633 N1634 1.330 . S
C1633 C1635 1.446 . S
N1634 Co1593 2.151 . S
N1634 C1633 1.330 . S
N1634 C1638 1.418 . S
C1635 H1614 0.929 . S
C1635 C1633 1.446 . S
C1635 C1636 1.332 . S
C1636 H1616 0.931 . S
C1636 C1635 1.332 . S
C1636 C1637 1.267 . S
C1637 H1605 0.929 . S
C1637 C1636 1.267 . S
C1637 C1638 1.251 . S
C1638 H1608 0.929 . S
C1638 N1634 1.418 . S
C1638 C1637 1.251 . S
C1639 H1606 0.930 . S
C1639 C1641 1.406 . S
C1639 C1644 1.261 . S
C1640 H1607 0.930 . S
C1640 N1642 1.325 . S
C1640 C1643 1.357 . S
C1641 H1609 0.928 . S
C1641 C1639 1.406 . S
C1641 N1642 1.261 . S
N1642 Co1593 2.214 . S
N1642 C1640 1.325 . S
N1642 C1641 1.261 . S
C1643 H1613 0.931 . S
C1643 C1640 1.357 . S
C1643 C1644 1.312 . S
C1644 H1615 0.930 . S
C1644 C1639 1.261 . S
C1644 C1643 1.312 . S
C1645 O1617 1.214 . S
C1645 O1625 1.234 . S
C1646 H1618 0.929 . S
C1646 C1649 1.391 . S
C1646 C1651 1.391 . S
C1647 H1619 0.929 . S
C1647 C1648 1.390 . S
C1647 N1650 1.391 . S
C1648 H1620 0.930 . S
C1648 C1647 1.390 . S
C1648 C1649 1.392 . S
C1649 H1621 0.929 . S
C1649 C1646 1.391 . S
C1649 C1648 1.392 . S
N1650 Co1594 2.257 . S
N1650 C1647 1.391 . S
N1650 C1651 1.388 . S
C1651 H1622 0.930 . S
C1651 C1646 1.391 . S
C1651 N1650 1.388 . S
Co1652 O1654 2.143 . S
Co1652 O1660 2.074 . S
Co1652 O1663 2.093 . S
Co1652 O1676 2.097 . S
Co1652 N1693 2.151 . S
Co1652 N1701 2.214 . S
Co1653 O1654 2.160 . S
Co1653 O1659 2.058 . S
Co1653 O1669 2.057 . S
Co1653 O1684 2.037 . S
Co1653 N1688 2.145 . S
Co1653 N1709 2.257 . S
O1654 Co1652 2.143 . S
O1654 Co1653 2.160 . S
C1655 O1656 1.278 . S
C1655 O1663 1.224 . S
O1656 C1655 1.278 . S
C1657 O1658 1.245 . S
C1657 O1669 1.232 . S
O1658 C1657 1.245 . S
O1659 Co1653 2.058 . S
O1659 C1685 1.269 . S
O1660 Co1652 2.074 . S
O1660 C1685 1.257 . S
H1661 C1686 0.930 . S
H1662 C1692 0.930 . S
O1663 Co1652 2.093 . S
O1663 C1655 1.224 . S
H1664 C1696 0.929 . S
H1665 C1698 0.930 . S
H1666 C1699 0.930 . S
H1667 C1697 0.929 . S
H1668 C1700 0.928 . S
O1669 Co1653 2.057 . S
O1669 C1657 1.232 . S
H1670 C1689 0.929 . S
H1671 C1690 0.929 . S
H1672 C1702 0.931 . S
H1673 C1694 0.929 . S
H1674 C1703 0.930 . S
H1675 C1695 0.931 . S
O1676 Co1652 2.097 . S
O1676 C1704 1.214 . S
H1677 C1705 0.929 . S
H1678 C1706 0.929 . S
H1679 C1707 0.930 . S
H1680 C1708 0.929 . S
H1681 C1710 0.930 . S
H1682 C1687 0.930 . S
H1683 C1691 0.930 . S
O1684 Co1653 2.037 . S
O1684 C1704 1.234 . S
C1685 O1659 1.269 . S
C1685 O1660 1.257 . S
C1686 H1661 0.930 . S
C1686 C1689 1.388 . S
C1686 C1691 1.418 . S
C1687 H1682 0.930 . S
C1687 C1690 1.404 . S
C1687 C1691 1.353 . S
N1688 Co1653 2.145 . S
N1688 C1689 1.397 . S
N1688 C1690 1.334 . S
C1689 H1670 0.929 . S
C1689 C1686 1.388 . S
C1689 N1688 1.397 . S
C1690 H1671 0.929 . S
C1690 C1687 1.404 . S
C1690 N1688 1.334 . S
C1691 H1683 0.930 . S
C1691 C1686 1.418 . S
C1691 C1687 1.353 . S
C1692 H1662 0.930 . S
C1692 N1693 1.330 . S
C1692 C1694 1.446 . S
N1693 Co1652 2.151 . S
N1693 C1692 1.330 . S
N1693 C1697 1.418 . S
C1694 H1673 0.929 . S
C1694 C1692 1.446 . S
C1694 C1695 1.332 . S
C1695 H1675 0.931 . S
C1695 C1694 1.332 . S
C1695 C1696 1.267 . S
C1696 H1664 0.929 . S
C1696 C1695 1.267 . S
C1696 C1697 1.251 . S
C1697 H1667 0.929 . S
C1697 N1693 1.418 . S
C1697 C1696 1.251 . S
C1698 H1665 0.930 . S
C1698 C1700 1.406 . S
C1698 C1703 1.261 . S
C1699 H1666 0.930 . S
C1699 N1701 1.325 . S
C1699 C1702 1.357 . S
C1700 H1668 0.928 . S
C1700 C1698 1.406 . S
C1700 N1701 1.261 . S
N1701 Co1652 2.214 . S
N1701 C1699 1.325 . S
N1701 C1700 1.261 . S
C1702 H1672 0.931 . S
C1702 C1699 1.357 . S
C1702 C1703 1.312 . S
C1703 H1674 0.930 . S
C1703 C1698 1.261 . S
C1703 C1702 1.312 . S
C1704 O1676 1.214 . S
C1704 O1684 1.234 . S
C1705 H1677 0.929 . S
C1705 C1708 1.391 . S
C1705 C1710 1.391 . S
C1706 H1678 0.929 . S
C1706 C1707 1.390 . S
C1706 N1709 1.391 . S
C1707 H1679 0.930 . S
C1707 C1706 1.390 . S
C1707 C1708 1.392 . S
C1708 H1680 0.929 . S
C1708 C1705 1.391 . S
C1708 C1707 1.392 . S
N1709 Co1653 2.257 . S
N1709 C1706 1.391 . S
N1709 C1710 1.388 . S
C1710 H1681 0.930 . S
C1710 C1705 1.391 . S
C1710 N1709 1.388 . S
Co1711 O1713 2.143 . S
Co1711 O1719 2.074 . S
Co1711 O1722 2.093 . S
Co1711 O1735 2.097 . S
Co1711 N1752 2.151 . S
Co1711 N1760 2.214 . S
Co1712 O1713 2.160 . S
Co1712 O1718 2.058 . S
Co1712 O1728 2.057 . S
Co1712 O1743 2.037 . S
Co1712 N1747 2.145 . S
Co1712 N1768 2.257 . S
O1713 Co1711 2.143 . S
O1713 Co1712 2.160 . S
C1714 O1715 1.278 . S
C1714 O1722 1.224 . S
O1715 C1714 1.278 . S
C1716 O1717 1.245 . S
C1716 O1728 1.232 . S
O1717 C1716 1.245 . S
O1718 Co1712 2.058 . S
O1718 C1744 1.269 . S
O1719 Co1711 2.074 . S
O1719 C1744 1.257 . S
H1720 C1745 0.930 . S
H1721 C1751 0.930 . S
O1722 Co1711 2.093 . S
O1722 C1714 1.224 . S
H1723 C1755 0.929 . S
H1724 C1757 0.930 . S
H1725 C1758 0.930 . S
H1726 C1756 0.929 . S
H1727 C1759 0.928 . S
O1728 Co1712 2.057 . S
O1728 C1716 1.232 . S
H1729 C1748 0.929 . S
H1730 C1749 0.929 . S
H1731 C1761 0.931 . S
H1732 C1753 0.929 . S
H1733 C1762 0.930 . S
H1734 C1754 0.931 . S
O1735 Co1711 2.097 . S
O1735 C1763 1.214 . S
H1736 C1764 0.929 . S
H1737 C1765 0.929 . S
H1738 C1766 0.930 . S
H1739 C1767 0.929 . S
H1740 C1769 0.930 . S
H1741 C1746 0.930 . S
H1742 C1750 0.930 . S
O1743 Co1712 2.037 . S
O1743 C1763 1.234 . S
C1744 O1718 1.269 . S
C1744 O1719 1.257 . S
C1745 H1720 0.930 . S
C1745 C1748 1.388 . S
C1745 C1750 1.418 . S
C1746 H1741 0.930 . S
C1746 C1749 1.404 . S
C1746 C1750 1.353 . S
N1747 Co1712 2.145 . S
N1747 C1748 1.397 . S
N1747 C1749 1.334 . S
C1748 H1729 0.929 . S
C1748 C1745 1.388 . S
C1748 N1747 1.397 . S
C1749 H1730 0.929 . S
C1749 C1746 1.404 . S
C1749 N1747 1.334 . S
C1750 H1742 0.930 . S
C1750 C1745 1.418 . S
C1750 C1746 1.353 . S
C1751 H1721 0.930 . S
C1751 N1752 1.330 . S
C1751 C1753 1.446 . S
N1752 Co1711 2.151 . S
N1752 C1751 1.330 . S
N1752 C1756 1.418 . S
C1753 H1732 0.929 . S
C1753 C1751 1.446 . S
C1753 C1754 1.332 . S
C1754 H1734 0.931 . S
C1754 C1753 1.332 . S
C1754 C1755 1.267 . S
C1755 H1723 0.929 . S
C1755 C1754 1.267 . S
C1755 C1756 1.251 . S
C1756 H1726 0.929 . S
C1756 N1752 1.418 . S
C1756 C1755 1.251 . S
C1757 H1724 0.930 . S
C1757 C1759 1.406 . S
C1757 C1762 1.261 . S
C1758 H1725 0.930 . S
C1758 N1760 1.325 . S
C1758 C1761 1.357 . S
C1759 H1727 0.928 . S
C1759 C1757 1.406 . S
C1759 N1760 1.261 . S
N1760 Co1711 2.214 . S
N1760 C1758 1.325 . S
N1760 C1759 1.261 . S
C1761 H1731 0.931 . S
C1761 C1758 1.357 . S
C1761 C1762 1.312 . S
C1762 H1733 0.930 . S
C1762 C1757 1.261 . S
C1762 C1761 1.312 . S
C1763 O1735 1.214 . S
C1763 O1743 1.234 . S
C1764 H1736 0.929 . S
C1764 C1767 1.391 . S
C1764 C1769 1.391 . S
C1765 H1737 0.929 . S
C1765 C1766 1.390 . S
C1765 N1768 1.391 . S
C1766 H1738 0.930 . S
C1766 C1765 1.390 . S
C1766 C1767 1.392 . S
C1767 H1739 0.929 . S
C1767 C1764 1.391 . S
C1767 C1766 1.392 . S
N1768 Co1712 2.257 . S
N1768 C1765 1.391 . S
N1768 C1769 1.388 . S
C1769 H1740 0.930 . S
C1769 C1764 1.391 . S
C1769 N1768 1.388 . S
Co1770 O1772 2.143 . S
Co1770 O1778 2.074 . S
Co1770 O1781 2.093 . S
Co1770 O1794 2.097 . S
Co1770 N1811 2.151 . S
Co1770 N1819 2.214 . S
Co1771 O1772 2.160 . S
Co1771 O1777 2.058 . S
Co1771 O1787 2.057 . S
Co1771 O1802 2.037 . S
Co1771 N1806 2.145 . S
Co1771 N1827 2.257 . S
O1772 Co1770 2.143 . S
O1772 Co1771 2.160 . S
C1773 O1774 1.278 . S
C1773 O1781 1.224 . S
O1774 C1773 1.278 . S
C1775 O1776 1.245 . S
C1775 O1787 1.232 . S
O1776 C1775 1.245 . S
O1777 Co1771 2.058 . S
O1777 C1803 1.269 . S
O1778 Co1770 2.074 . S
O1778 C1803 1.257 . S
H1779 C1804 0.930 . S
H1780 C1810 0.930 . S
O1781 Co1770 2.093 . S
O1781 C1773 1.224 . S
H1782 C1814 0.929 . S
H1783 C1816 0.930 . S
H1784 C1817 0.930 . S
H1785 C1815 0.929 . S
H1786 C1818 0.928 . S
O1787 Co1771 2.057 . S
O1787 C1775 1.232 . S
H1788 C1807 0.929 . S
H1789 C1808 0.929 . S
H1790 C1820 0.931 . S
H1791 C1812 0.929 . S
H1792 C1821 0.930 . S
H1793 C1813 0.931 . S
O1794 Co1770 2.097 . S
O1794 C1822 1.214 . S
H1795 C1823 0.929 . S
H1796 C1824 0.929 . S
H1797 C1825 0.930 . S
H1798 C1826 0.929 . S
H1799 C1828 0.930 . S
H1800 C1805 0.930 . S
H1801 C1809 0.930 . S
O1802 Co1771 2.037 . S
O1802 C1822 1.234 . S
C1803 O1777 1.269 . S
C1803 O1778 1.257 . S
C1804 H1779 0.930 . S
C1804 C1807 1.388 . S
C1804 C1809 1.418 . S
C1805 H1800 0.930 . S
C1805 C1808 1.404 . S
C1805 C1809 1.353 . S
N1806 Co1771 2.145 . S
N1806 C1807 1.397 . S
N1806 C1808 1.334 . S
C1807 H1788 0.929 . S
C1807 C1804 1.388 . S
C1807 N1806 1.397 . S
C1808 H1789 0.929 . S
C1808 C1805 1.404 . S
C1808 N1806 1.334 . S
C1809 H1801 0.930 . S
C1809 C1804 1.418 . S
C1809 C1805 1.353 . S
C1810 H1780 0.930 . S
C1810 N1811 1.330 . S
C1810 C1812 1.446 . S
N1811 Co1770 2.151 . S
N1811 C1810 1.330 . S
N1811 C1815 1.418 . S
C1812 H1791 0.929 . S
C1812 C1810 1.446 . S
C1812 C1813 1.332 . S
C1813 H1793 0.931 . S
C1813 C1812 1.332 . S
C1813 C1814 1.267 . S
C1814 H1782 0.929 . S
C1814 C1813 1.267 . S
C1814 C1815 1.251 . S
C1815 H1785 0.929 . S
C1815 N1811 1.418 . S
C1815 C1814 1.251 . S
C1816 H1783 0.930 . S
C1816 C1818 1.406 . S
C1816 C1821 1.261 . S
C1817 H1784 0.930 . S
C1817 N1819 1.325 . S
C1817 C1820 1.357 . S
C1818 H1786 0.928 . S
C1818 C1816 1.406 . S
C1818 N1819 1.261 . S
N1819 Co1770 2.214 . S
N1819 C1817 1.325 . S
N1819 C1818 1.261 . S
C1820 H1790 0.931 . S
C1820 C1817 1.357 . S
C1820 C1821 1.312 . S
C1821 H1792 0.930 . S
C1821 C1816 1.261 . S
C1821 C1820 1.312 . S
C1822 O1794 1.214 . S
C1822 O1802 1.234 . S
C1823 H1795 0.929 . S
C1823 C1826 1.391 . S
C1823 C1828 1.391 . S
C1824 H1796 0.929 . S
C1824 C1825 1.390 . S
C1824 N1827 1.391 . S
C1825 H1797 0.930 . S
C1825 C1824 1.390 . S
C1825 C1826 1.392 . S
C1826 H1798 0.929 . S
C1826 C1823 1.391 . S
C1826 C1825 1.392 . S
N1827 Co1771 2.257 . S
N1827 C1824 1.391 . S
N1827 C1828 1.388 . S
C1828 H1799 0.930 . S
C1828 C1823 1.391 . S
C1828 N1827 1.388 . S
Co1829 O1831 2.143 . S
Co1829 O1837 2.074 . S
Co1829 O1840 2.093 . S
Co1829 O1853 2.097 . S
Co1829 N1870 2.151 . S
Co1829 N1878 2.214 . S
Co1830 O1831 2.160 . S
Co1830 O1836 2.058 . S
Co1830 O1846 2.057 . S
Co1830 O1861 2.037 . S
Co1830 N1865 2.145 . S
Co1830 N1886 2.257 . S
O1831 Co1829 2.143 . S
O1831 Co1830 2.160 . S
C1832 O1833 1.278 . S
C1832 O1840 1.224 . S
O1833 C1832 1.278 . S
C1834 O1835 1.245 . S
C1834 O1846 1.232 . S
O1835 C1834 1.245 . S
O1836 Co1830 2.058 . S
O1836 C1862 1.269 . S
O1837 Co1829 2.074 . S
O1837 C1862 1.257 . S
H1838 C1863 0.930 . S
H1839 C1869 0.930 . S
O1840 Co1829 2.093 . S
O1840 C1832 1.224 . S
H1841 C1873 0.929 . S
H1842 C1875 0.930 . S
H1843 C1876 0.930 . S
H1844 C1874 0.929 . S
H1845 C1877 0.928 . S
O1846 Co1830 2.057 . S
O1846 C1834 1.232 . S
H1847 C1866 0.929 . S
H1848 C1867 0.929 . S
H1849 C1879 0.931 . S
H1850 C1871 0.929 . S
H1851 C1880 0.930 . S
H1852 C1872 0.931 . S
O1853 Co1829 2.097 . S
O1853 C1881 1.214 . S
H1854 C1882 0.929 . S
H1855 C1883 0.929 . S
H1856 C1884 0.930 . S
H1857 C1885 0.929 . S
H1858 C1887 0.930 . S
H1859 C1864 0.930 . S
H1860 C1868 0.930 . S
O1861 Co1830 2.037 . S
O1861 C1881 1.234 . S
C1862 O1836 1.269 . S
C1862 O1837 1.257 . S
C1863 H1838 0.930 . S
C1863 C1866 1.388 . S
C1863 C1868 1.418 . S
C1864 H1859 0.930 . S
C1864 C1867 1.404 . S
C1864 C1868 1.353 . S
N1865 Co1830 2.145 . S
N1865 C1866 1.397 . S
N1865 C1867 1.334 . S
C1866 H1847 0.929 . S
C1866 C1863 1.388 . S
C1866 N1865 1.397 . S
C1867 H1848 0.929 . S
C1867 C1864 1.404 . S
C1867 N1865 1.334 . S
C1868 H1860 0.930 . S
C1868 C1863 1.418 . S
C1868 C1864 1.353 . S
C1869 H1839 0.930 . S
C1869 N1870 1.330 . S
C1869 C1871 1.446 . S
N1870 Co1829 2.151 . S
N1870 C1869 1.330 . S
N1870 C1874 1.418 . S
C1871 H1850 0.929 . S
C1871 C1869 1.446 . S
C1871 C1872 1.332 . S
C1872 H1852 0.931 . S
C1872 C1871 1.332 . S
C1872 C1873 1.267 . S
C1873 H1841 0.929 . S
C1873 C1872 1.267 . S
C1873 C1874 1.251 . S
C1874 H1844 0.929 . S
C1874 N1870 1.418 . S
C1874 C1873 1.251 . S
C1875 H1842 0.930 . S
C1875 C1877 1.406 . S
C1875 C1880 1.261 . S
C1876 H1843 0.930 . S
C1876 N1878 1.325 . S
C1876 C1879 1.357 . S
C1877 H1845 0.928 . S
C1877 C1875 1.406 . S
C1877 N1878 1.261 . S
N1878 Co1829 2.214 . S
N1878 C1876 1.325 . S
N1878 C1877 1.261 . S
C1879 H1849 0.931 . S
C1879 C1876 1.357 . S
C1879 C1880 1.312 . S
C1880 H1851 0.930 . S
C1880 C1875 1.261 . S
C1880 C1879 1.312 . S
C1881 O1853 1.214 . S
C1881 O1861 1.234 . S
C1882 H1854 0.929 . S
C1882 C1885 1.391 . S
C1882 C1887 1.391 . S
C1883 H1855 0.929 . S
C1883 C1884 1.390 . S
C1883 N1886 1.391 . S
C1884 H1856 0.930 . S
C1884 C1883 1.390 . S
C1884 C1885 1.392 . S
C1885 H1857 0.929 . S
C1885 C1882 1.391 . S
C1885 C1884 1.392 . S
N1886 Co1830 2.257 . S
N1886 C1883 1.391 . S
N1886 C1887 1.388 . S
C1887 H1858 0.930 . S
C1887 C1882 1.391 . S
C1887 N1886 1.388 . S
H1888 C1894 0.930 . S
H1889 C1897 0.930 . S
H1890 C1898 0.930 . S
H1891 C1899 0.930 . S
H1892 C1902 0.930 . S
H1893 C1903 0.930 . S
C1894 H1888 0.930 . S
C1894 C1895 1.355 . S
C1894 C1896 1.415 . S
C1895 C1894 1.355 . S
C1895 C1897 1.419 . S
C1896 C1894 1.415 . S
C1896 C1901 1.425 . S
C1896 C1903 1.409 . S
C1897 H1889 0.930 . S
C1897 C1895 1.419 . S
C1897 C1898 1.362 . S
C1898 H1890 0.930 . S
C1898 C1897 1.362 . S
C1898 C1901 1.409 . S
C1899 H1891 0.930 . S
C1899 C1900 1.355 . S
C1899 C1901 1.415 . S
C1900 C1899 1.355 . S
C1900 C1902 1.419 . S
C1901 C1896 1.425 . S
C1901 C1898 1.409 . S
C1901 C1899 1.415 . S
C1902 H1892 0.930 . S
C1902 C1900 1.419 . S
C1902 C1903 1.362 . S
C1903 H1893 0.930 . S
C1903 C1896 1.409 . S
C1903 C1902 1.362 . S
H1904 C1910 0.930 . S
H1905 C1913 0.930 . S
H1906 C1914 0.930 . S
H1907 C1915 0.930 . S
H1908 C1918 0.930 . S
H1909 C1919 0.930 . S
C1910 H1904 0.930 . S
C1910 C1911 1.355 . S
C1910 C1912 1.415 . S
C1911 C1910 1.355 . S
C1911 C1913 1.419 . S
C1912 C1910 1.415 . S
C1912 C1917 1.425 . S
C1912 C1919 1.409 . S
C1913 H1905 0.930 . S
C1913 C1911 1.419 . S
C1913 C1914 1.362 . S
C1914 H1906 0.930 . S
C1914 C1913 1.362 . S
C1914 C1917 1.409 . S
C1915 H1907 0.930 . S
C1915 C1916 1.355 . S
C1915 C1917 1.415 . S
C1916 C1915 1.355 . S
C1916 C1918 1.419 . S
C1917 C1912 1.425 . S
C1917 C1914 1.409 . S
C1917 C1915 1.415 . S
C1918 H1908 0.930 . S
C1918 C1916 1.419 . S
C1918 C1919 1.362 . S
C1919 H1909 0.930 . S
C1919 C1912 1.409 . S
C1919 C1918 1.362 . S
H1920 C1926 0.930 . S
H1921 C1929 0.930 . S
H1922 C1930 0.930 . S
H1923 C1931 0.930 . S
H1924 C1934 0.930 . S
H1925 C1935 0.930 . S
C1926 H1920 0.930 . S
C1926 C1927 1.355 . S
C1926 C1928 1.415 . S
C1927 C1926 1.355 . S
C1927 C1929 1.419 . S
C1928 C1926 1.415 . S
C1928 C1933 1.425 . S
C1928 C1935 1.409 . S
C1929 H1921 0.930 . S
C1929 C1927 1.419 . S
C1929 C1930 1.362 . S
C1930 H1922 0.930 . S
C1930 C1929 1.362 . S
C1930 C1933 1.409 . S
C1931 H1923 0.930 . S
C1931 C1932 1.355 . S
C1931 C1933 1.415 . S
C1932 C1931 1.355 . S
C1932 C1934 1.419 . S
C1933 C1928 1.425 . S
C1933 C1930 1.409 . S
C1933 C1931 1.415 . S
C1934 H1924 0.930 . S
C1934 C1932 1.419 . S
C1934 C1935 1.362 . S
C1935 H1925 0.930 . S
C1935 C1928 1.409 . S
C1935 C1934 1.362 . S
H1936 C1942 0.930 . S
H1937 C1945 0.930 . S
H1938 C1946 0.930 . S
H1939 C1947 0.930 . S
H1940 C1950 0.930 . S
H1941 C1951 0.930 . S
C1942 H1936 0.930 . S
C1942 C1943 1.355 . S
C1942 C1944 1.415 . S
C1943 C1942 1.355 . S
C1943 C1945 1.419 . S
C1944 C1942 1.415 . S
C1944 C1949 1.425 . S
C1944 C1951 1.409 . S
C1945 H1937 0.930 . S
C1945 C1943 1.419 . S
C1945 C1946 1.362 . S
C1946 H1938 0.930 . S
C1946 C1945 1.362 . S
C1946 C1949 1.409 . S
C1947 H1939 0.930 . S
C1947 C1948 1.355 . S
C1947 C1949 1.415 . S
C1948 C1947 1.355 . S
C1948 C1950 1.419 . S
C1949 C1944 1.425 . S
C1949 C1946 1.409 . S
C1949 C1947 1.415 . S
C1950 H1940 0.930 . S
C1950 C1948 1.419 . S
C1950 C1951 1.362 . S
C1951 H1941 0.930 . S
C1951 C1944 1.409 . S
C1951 C1950 1.362 . S
H1952 C1958 0.930 . S
H1953 C1961 0.930 . S
H1954 C1962 0.930 . S
H1955 C1963 0.930 . S
H1956 C1966 0.930 . S
H1957 C1967 0.930 . S
C1958 H1952 0.930 . S
C1958 C1959 1.355 . S
C1958 C1960 1.415 . S
C1959 C1958 1.355 . S
C1959 C1961 1.419 . S
C1960 C1958 1.415 . S
C1960 C1965 1.425 . S
C1960 C1967 1.409 . S
C1961 H1953 0.930 . S
C1961 C1959 1.419 . S
C1961 C1962 1.362 . S
C1962 H1954 0.930 . S
C1962 C1961 1.362 . S
C1962 C1965 1.409 . S
C1963 H1955 0.930 . S
C1963 C1964 1.355 . S
C1963 C1965 1.415 . S
C1964 C1963 1.355 . S
C1964 C1966 1.419 . S
C1965 C1960 1.425 . S
C1965 C1962 1.409 . S
C1965 C1963 1.415 . S
C1966 H1956 0.930 . S
C1966 C1964 1.419 . S
C1966 C1967 1.362 . S
C1967 H1957 0.930 . S
C1967 C1960 1.409 . S
C1967 C1966 1.362 . S
H1968 C1974 0.930 . S
H1969 C1977 0.930 . S
H1970 C1978 0.930 . S
H1971 C1979 0.930 . S
H1972 C1982 0.930 . S
H1973 C1983 0.930 . S
C1974 H1968 0.930 . S
C1974 C1975 1.355 . S
C1974 C1976 1.415 . S
C1975 C1974 1.355 . S
C1975 C1977 1.419 . S
C1976 C1974 1.415 . S
C1976 C1981 1.425 . S
C1976 C1983 1.409 . S
C1977 H1969 0.930 . S
C1977 C1975 1.419 . S
C1977 C1978 1.362 . S
C1978 H1970 0.930 . S
C1978 C1977 1.362 . S
C1978 C1981 1.409 . S
C1979 H1971 0.930 . S
C1979 C1980 1.355 . S
C1979 C1981 1.415 . S
C1980 C1979 1.355 . S
C1980 C1982 1.419 . S
C1981 C1976 1.425 . S
C1981 C1978 1.409 . S
C1981 C1979 1.415 . S
C1982 H1972 0.930 . S
C1982 C1980 1.419 . S
C1982 C1983 1.362 . S
C1983 H1973 0.930 . S
C1983 C1976 1.409 . S
C1983 C1982 1.362 . S
H1984 C1990 0.930 . S
H1985 C1993 0.930 . S
H1986 C1994 0.930 . S
H1987 C1995 0.930 . S
H1988 C1998 0.930 . S
H1989 C1999 0.930 . S
C1990 H1984 0.930 . S
C1990 C1991 1.355 . S
C1990 C1992 1.415 . S
C1991 C1990 1.355 . S
C1991 C1993 1.419 . S
C1992 C1990 1.415 . S
C1992 C1997 1.425 . S
C1992 C1999 1.409 . S
C1993 H1985 0.930 . S
C1993 C1991 1.419 . S
C1993 C1994 1.362 . S
C1994 H1986 0.930 . S
C1994 C1993 1.362 . S
C1994 C1997 1.409 . S
C1995 H1987 0.930 . S
C1995 C1996 1.355 . S
C1995 C1997 1.415 . S
C1996 C1995 1.355 . S
C1996 C1998 1.419 . S
C1997 C1992 1.425 . S
C1997 C1994 1.409 . S
C1997 C1995 1.415 . S
C1998 H1988 0.930 . S
C1998 C1996 1.419 . S
C1998 C1999 1.362 . S
C1999 H1989 0.930 . S
C1999 C1992 1.409 . S
C1999 C1998 1.362 . S
H2000 C2006 0.930 . S
H2001 C2009 0.930 . S
H2002 C2010 0.930 . S
H2003 C2011 0.930 . S
H2004 C2014 0.930 . S
H2005 C2015 0.930 . S
C2006 H2000 0.930 . S
C2006 C2007 1.355 . S
C2006 C2008 1.415 . S
C2007 C2006 1.355 . S
C2007 C2009 1.419 . S
C2008 C2006 1.415 . S
C2008 C2013 1.425 . S
C2008 C2015 1.409 . S
C2009 H2001 0.930 . S
C2009 C2007 1.419 . S
C2009 C2010 1.362 . S
C2010 H2002 0.930 . S
C2010 C2009 1.362 . S
C2010 C2013 1.409 . S
C2011 H2003 0.930 . S
C2011 C2012 1.355 . S
C2011 C2013 1.415 . S
C2012 C2011 1.355 . S
C2012 C2014 1.419 . S
C2013 C2008 1.425 . S
C2013 C2010 1.409 . S
C2013 C2011 1.415 . S
C2014 H2004 0.930 . S
C2014 C2012 1.419 . S
C2014 C2015 1.362 . S
C2015 H2005 0.930 . S
C2015 C2008 1.409 . S
C2015 C2014 1.362 . S
H2016 C2022 0.930 . S
H2017 C2025 0.930 . S
H2018 C2026 0.930 . S
H2019 C2027 0.930 . S
H2020 C2030 0.930 . S
H2021 C2031 0.930 . S
C2022 H2016 0.930 . S
C2022 C2023 1.355 . S
C2022 C2024 1.415 . S
C2023 C2022 1.355 . S
C2023 C2025 1.419 . S
C2024 C2022 1.415 . S
C2024 C2029 1.425 . S
C2024 C2031 1.409 . S
C2025 H2017 0.930 . S
C2025 C2023 1.419 . S
C2025 C2026 1.362 . S
C2026 H2018 0.930 . S
C2026 C2025 1.362 . S
C2026 C2029 1.409 . S
C2027 H2019 0.930 . S
C2027 C2028 1.355 . S
C2027 C2029 1.415 . S
C2028 C2027 1.355 . S
C2028 C2030 1.419 . S
C2029 C2024 1.425 . S
C2029 C2026 1.409 . S
C2029 C2027 1.415 . S
C2030 H2020 0.930 . S
C2030 C2028 1.419 . S
C2030 C2031 1.362 . S
C2031 H2021 0.930 . S
C2031 C2024 1.409 . S
C2031 C2030 1.362 . S
H2032 C2038 0.930 . S
H2033 C2041 0.930 . S
H2034 C2042 0.930 . S
H2035 C2043 0.930 . S
H2036 C2046 0.930 . S
H2037 C2047 0.930 . S
C2038 H2032 0.930 . S
C2038 C2039 1.355 . S
C2038 C2040 1.415 . S
C2039 C2038 1.355 . S
C2039 C2041 1.419 . S
C2040 C2038 1.415 . S
C2040 C2045 1.425 . S
C2040 C2047 1.409 . S
C2041 H2033 0.930 . S
C2041 C2039 1.419 . S
C2041 C2042 1.362 . S
C2042 H2034 0.930 . S
C2042 C2041 1.362 . S
C2042 C2045 1.409 . S
C2043 H2035 0.930 . S
C2043 C2044 1.355 . S
C2043 C2045 1.415 . S
C2044 C2043 1.355 . S
C2044 C2046 1.419 . S
C2045 C2040 1.425 . S
C2045 C2042 1.409 . S
C2045 C2043 1.415 . S
C2046 H2036 0.930 . S
C2046 C2044 1.419 . S
C2046 C2047 1.362 . S
C2047 H2037 0.930 . S
C2047 C2040 1.409 . S
C2047 C2046 1.362 . S
H2048 C2054 0.930 . S
H2049 C2057 0.930 . S
H2050 C2058 0.930 . S
H2051 C2059 0.930 . S
H2052 C2062 0.930 . S
H2053 C2063 0.930 . S
C2054 H2048 0.930 . S
C2054 C2055 1.355 . S
C2054 C2056 1.415 . S
C2055 C2054 1.355 . S
C2055 C2057 1.419 . S
C2056 C2054 1.415 . S
C2056 C2061 1.425 . S
C2056 C2063 1.409 . S
C2057 H2049 0.930 . S
C2057 C2055 1.419 . S
C2057 C2058 1.362 . S
C2058 H2050 0.930 . S
C2058 C2057 1.362 . S
C2058 C2061 1.409 . S
C2059 H2051 0.930 . S
C2059 C2060 1.355 . S
C2059 C2061 1.415 . S
C2060 C2059 1.355 . S
C2060 C2062 1.419 . S
C2061 C2056 1.425 . S
C2061 C2058 1.409 . S
C2061 C2059 1.415 . S
C2062 H2052 0.930 . S
C2062 C2060 1.419 . S
C2062 C2063 1.362 . S
C2063 H2053 0.930 . S
C2063 C2056 1.409 . S
C2063 C2062 1.362 . S
H2064 C2070 0.930 . S
H2065 C2073 0.930 . S
H2066 C2074 0.930 . S
H2067 C2075 0.930 . S
H2068 C2078 0.930 . S
H2069 C2079 0.930 . S
C2070 H2064 0.930 . S
C2070 C2071 1.355 . S
C2070 C2072 1.415 . S
C2071 C2070 1.355 . S
C2071 C2073 1.419 . S
C2072 C2070 1.415 . S
C2072 C2077 1.425 . S
C2072 C2079 1.409 . S
C2073 H2065 0.930 . S
C2073 C2071 1.419 . S
C2073 C2074 1.362 . S
C2074 H2066 0.930 . S
C2074 C2073 1.362 . S
C2074 C2077 1.409 . S
C2075 H2067 0.930 . S
C2075 C2076 1.355 . S
C2075 C2077 1.415 . S
C2076 C2075 1.355 . S
C2076 C2078 1.419 . S
C2077 C2072 1.425 . S
C2077 C2074 1.409 . S
C2077 C2075 1.415 . S
C2078 H2068 0.930 . S
C2078 C2076 1.419 . S
C2078 C2079 1.362 . S
C2079 H2069 0.930 . S
C2079 C2072 1.409 . S
C2079 C2078 1.362 . S
H2080 C2086 0.930 . S
H2081 C2089 0.930 . S
H2082 C2090 0.930 . S
H2083 C2091 0.930 . S
H2084 C2094 0.930 . S
H2085 C2095 0.930 . S
C2086 H2080 0.930 . S
C2086 C2087 1.355 . S
C2086 C2088 1.415 . S
C2087 C2086 1.355 . S
C2087 C2089 1.419 . S
C2088 C2086 1.415 . S
C2088 C2093 1.425 . S
C2088 C2095 1.409 . S
C2089 H2081 0.930 . S
C2089 C2087 1.419 . S
C2089 C2090 1.362 . S
C2090 H2082 0.930 . S
C2090 C2089 1.362 . S
C2090 C2093 1.409 . S
C2091 H2083 0.930 . S
C2091 C2092 1.355 . S
C2091 C2093 1.415 . S
C2092 C2091 1.355 . S
C2092 C2094 1.419 . S
C2093 C2088 1.425 . S
C2093 C2090 1.409 . S
C2093 C2091 1.415 . S
C2094 H2084 0.930 . S
C2094 C2092 1.419 . S
C2094 C2095 1.362 . S
C2095 H2085 0.930 . S
C2095 C2088 1.409 . S
C2095 C2094 1.362 . S
H2096 C2102 0.930 . S
H2097 C2105 0.930 . S
H2098 C2106 0.930 . S
H2099 C2107 0.930 . S
H2100 C2110 0.930 . S
H2101 C2111 0.930 . S
C2102 H2096 0.930 . S
C2102 C2103 1.355 . S
C2102 C2104 1.415 . S
C2103 C2102 1.355 . S
C2103 C2105 1.419 . S
C2104 C2102 1.415 . S
C2104 C2109 1.425 . S
C2104 C2111 1.409 . S
C2105 H2097 0.930 . S
C2105 C2103 1.419 . S
C2105 C2106 1.362 . S
C2106 H2098 0.930 . S
C2106 C2105 1.362 . S
C2106 C2109 1.409 . S
C2107 H2099 0.930 . S
C2107 C2108 1.355 . S
C2107 C2109 1.415 . S
C2108 C2107 1.355 . S
C2108 C2110 1.419 . S
C2109 C2104 1.425 . S
C2109 C2106 1.409 . S
C2109 C2107 1.415 . S
C2110 H2100 0.930 . S
C2110 C2108 1.419 . S
C2110 C2111 1.362 . S
C2111 H2101 0.930 . S
C2111 C2104 1.409 . S
C2111 C2110 1.362 . S
H2112 C2118 0.930 . S
H2113 C2121 0.930 . S
H2114 C2122 0.930 . S
H2115 C2123 0.930 . S
H2116 C2126 0.930 . S
H2117 C2127 0.930 . S
C2118 H2112 0.930 . S
C2118 C2119 1.355 . S
C2118 C2120 1.415 . S
C2119 C2118 1.355 . S
C2119 C2121 1.419 . S
C2120 C2118 1.415 . S
C2120 C2125 1.425 . S
C2120 C2127 1.409 . S
C2121 H2113 0.930 . S
C2121 C2119 1.419 . S
C2121 C2122 1.362 . S
C2122 H2114 0.930 . S
C2122 C2121 1.362 . S
C2122 C2125 1.409 . S
C2123 H2115 0.930 . S
C2123 C2124 1.355 . S
C2123 C2125 1.415 . S
C2124 C2123 1.355 . S
C2124 C2126 1.419 . S
C2125 C2120 1.425 . S
C2125 C2122 1.409 . S
C2125 C2123 1.415 . S
C2126 H2116 0.930 . S
C2126 C2124 1.419 . S
C2126 C2127 1.362 . S
C2127 H2117 0.930 . S
C2127 C2120 1.409 . S
C2127 C2126 1.362 . S
H2128 C2134 0.930 . S
H2129 C2137 0.930 . S
H2130 C2138 0.930 . S
H2131 C2139 0.930 . S
H2132 C2142 0.930 . S
H2133 C2143 0.930 . S
C2134 H2128 0.930 . S
C2134 C2135 1.355 . S
C2134 C2136 1.415 . S
C2135 C2134 1.355 . S
C2135 C2137 1.419 . S
C2136 C2134 1.415 . S
C2136 C2141 1.425 . S
C2136 C2143 1.409 . S
C2137 H2129 0.930 . S
C2137 C2135 1.419 . S
C2137 C2138 1.362 . S
C2138 H2130 0.930 . S
C2138 C2137 1.362 . S
C2138 C2141 1.409 . S
C2139 H2131 0.930 . S
C2139 C2140 1.355 . S
C2139 C2141 1.415 . S
C2140 C2139 1.355 . S
C2140 C2142 1.419 . S
C2141 C2136 1.425 . S
C2141 C2138 1.409 . S
C2141 C2139 1.415 . S
C2142 H2132 0.930 . S
C2142 C2140 1.419 . S
C2142 C2143 1.362 . S
C2143 H2133 0.930 . S
C2143 C2136 1.409 . S
C2143 C2142 1.362 . S
H2144 C2150 0.930 . S
H2145 C2153 0.930 . S
H2146 C2154 0.930 . S
H2147 C2155 0.930 . S
H2148 C2158 0.930 . S
H2149 C2159 0.930 . S
C2150 H2144 0.930 . S
C2150 C2151 1.355 . S
C2150 C2152 1.415 . S
C2151 C2150 1.355 . S
C2151 C2153 1.419 . S
C2152 C2150 1.415 . S
C2152 C2157 1.425 1_655 S
C2152 C2159 1.409 1_655 S
C2153 H2145 0.930 . S
C2153 C2151 1.419 . S
C2153 C2154 1.362 . S
C2154 H2146 0.930 . S
C2154 C2153 1.362 . S
C2154 C2157 1.409 1_655 S
C2155 H2147 0.930 . S
C2155 C2156 1.355 . S
C2155 C2157 1.415 . S
C2156 C2155 1.355 . S
C2156 C2158 1.419 . S
C2157 C2152 1.425 1_455 S
C2157 C2154 1.409 1_455 S
C2157 C2155 1.415 . S
C2158 H2148 0.930 . S
C2158 C2156 1.419 . S
C2158 C2159 1.362 . S
C2159 H2149 0.930 . S
C2159 C2152 1.409 1_455 S
C2159 C2158 1.362 . S
H2160 C2166 0.930 . S
H2161 C2169 0.930 . S
H2162 C2170 0.930 . S
H2163 C2171 0.930 . S
H2164 C2174 0.930 . S
H2165 C2175 0.930 . S
C2166 H2160 0.930 . S
C2166 C2167 1.355 . S
C2166 C2168 1.415 . S
C2167 C2166 1.355 . S
C2167 C2169 1.419 . S
C2168 C2166 1.415 . S
C2168 C2173 1.425 1_545 S
C2168 C2175 1.409 1_545 S
C2169 H2161 0.930 . S
C2169 C2167 1.419 . S
C2169 C2170 1.362 . S
C2170 H2162 0.930 . S
C2170 C2169 1.362 . S
C2170 C2173 1.409 1_545 S
C2171 H2163 0.930 . S
C2171 C2172 1.355 . S
C2171 C2173 1.415 . S
C2172 C2171 1.355 . S
C2172 C2174 1.419 . S
C2173 C2168 1.425 1_565 S
C2173 C2170 1.409 1_565 S
C2173 C2171 1.415 . S
C2174 H2164 0.930 . S
C2174 C2172 1.419 . S
C2174 C2175 1.362 . S
C2175 H2165 0.930 . S
C2175 C2168 1.409 1_565 S
C2175 C2174 1.362 . S
H2176 C2182 0.930 . S
H2177 C2185 0.930 . S
H2178 C2186 0.930 . S
H2179 C2187 0.930 . S
H2180 C2190 0.930 . S
H2181 C2191 0.930 . S
C2182 H2176 0.930 . S
C2182 C2183 1.355 . S
C2182 C2184 1.415 . S
C2183 C2182 1.355 . S
C2183 C2185 1.419 . S
C2184 C2182 1.415 . S
C2184 C2189 1.425 1_455 S
C2184 C2191 1.409 1_455 S
C2185 H2177 0.930 . S
C2185 C2183 1.419 . S
C2185 C2186 1.362 . S
C2186 H2178 0.930 . S
C2186 C2185 1.362 . S
C2186 C2189 1.409 1_455 S
C2187 H2179 0.930 . S
C2187 C2188 1.355 . S
C2187 C2189 1.415 . S
C2188 C2187 1.355 . S
C2188 C2190 1.419 . S
C2189 C2184 1.425 1_655 S
C2189 C2186 1.409 1_655 S
C2189 C2187 1.415 . S
C2190 H2180 0.930 . S
C2190 C2188 1.419 . S
C2190 C2191 1.362 . S
C2191 H2181 0.930 . S
C2191 C2184 1.409 1_655 S
C2191 C2190 1.362 . S
H2192 C2198 0.930 . S
H2193 C2201 0.930 . S
H2194 C2202 0.930 . S
H2195 C2203 0.930 . S
H2196 C2206 0.930 . S
H2197 C2207 0.930 . S
C2198 H2192 0.930 . S
C2198 C2199 1.355 . S
C2198 C2200 1.415 . S
C2199 C2198 1.355 . S
C2199 C2201 1.419 . S
C2200 C2198 1.415 . S
C2200 C2205 1.425 1_565 S
C2200 C2207 1.409 1_565 S
C2201 H2193 0.930 . S
C2201 C2199 1.419 . S
C2201 C2202 1.362 . S
C2202 H2194 0.930 . S
C2202 C2201 1.362 . S
C2202 C2205 1.409 1_565 S
C2203 H2195 0.930 . S
C2203 C2204 1.355 . S
C2203 C2205 1.415 . S
C2204 C2203 1.355 . S
C2204 C2206 1.419 . S
C2205 C2200 1.425 1_545 S
C2205 C2202 1.409 1_545 S
C2205 C2203 1.415 . S
C2206 H2196 0.930 . S
C2206 C2204 1.419 . S
C2206 C2207 1.362 . S
C2207 H2197 0.930 . S
C2207 C2200 1.409 1_545 S
C2207 C2206 1.362 . S
H2208 C2214 0.930 . S
H2209 C2217 0.930 . S
H2210 C2218 0.930 . S
H2211 C2219 0.930 . S
H2212 C2222 0.930 . S
H2213 C2223 0.930 . S
C2214 H2208 0.930 . S
C2214 C2215 1.355 . S
C2214 C2216 1.415 . S
C2215 C2214 1.355 . S
C2215 C2217 1.419 . S
C2216 C2214 1.415 . S
C2216 C2221 1.425 1_455 S
C2216 C2223 1.409 1_455 S
C2217 H2209 0.930 . S
C2217 C2215 1.419 . S
C2217 C2218 1.362 . S
C2218 H2210 0.930 . S
C2218 C2217 1.362 . S
C2218 C2221 1.409 1_455 S
C2219 H2211 0.930 . S
C2219 C2220 1.355 . S
C2219 C2221 1.415 . S
C2220 C2219 1.355 . S
C2220 C2222 1.419 . S
C2221 C2216 1.425 1_655 S
C2221 C2218 1.409 1_655 S
C2221 C2219 1.415 . S
C2222 H2212 0.930 . S
C2222 C2220 1.419 . S
C2222 C2223 1.362 . S
C2223 H2213 0.930 . S
C2223 C2216 1.409 1_655 S
C2223 C2222 1.362 . S
H2224 C2230 0.930 . S
H2225 C2233 0.930 . S
H2226 C2234 0.930 . S
H2227 C2235 0.930 . S
H2228 C2238 0.930 . S
H2229 C2239 0.930 . S
C2230 H2224 0.930 . S
C2230 C2231 1.355 . S
C2230 C2232 1.415 . S
C2231 C2230 1.355 . S
C2231 C2233 1.419 . S
C2232 C2230 1.415 . S
C2232 C2237 1.425 1_565 S
C2232 C2239 1.409 1_565 S
C2233 H2225 0.930 . S
C2233 C2231 1.419 . S
C2233 C2234 1.362 . S
C2234 H2226 0.930 . S
C2234 C2233 1.362 . S
C2234 C2237 1.409 1_565 S
C2235 H2227 0.930 . S
C2235 C2236 1.355 . S
C2235 C2237 1.415 . S
C2236 C2235 1.355 . S
C2236 C2238 1.419 . S
C2237 C2232 1.425 1_545 S
C2237 C2234 1.409 1_545 S
C2237 C2235 1.415 . S
C2238 H2228 0.930 . S
C2238 C2236 1.419 . S
C2238 C2239 1.362 . S
C2239 H2229 0.930 . S
C2239 C2232 1.409 1_545 S
C2239 C2238 1.362 . S
H2240 C2246 0.930 . S
H2241 C2249 0.930 . S
H2242 C2250 0.930 . S
H2243 C2251 0.930 . S
H2244 C2254 0.930 . S
H2245 C2255 0.930 . S
C2246 H2240 0.930 . S
C2246 C2247 1.355 . S
C2246 C2248 1.415 . S
C2247 C2246 1.355 . S
C2247 C2249 1.419 . S
C2248 C2246 1.415 . S
C2248 C2253 1.425 1_455 S
C2248 C2255 1.409 1_455 S
C2249 H2241 0.930 . S
C2249 C2247 1.419 . S
C2249 C2250 1.362 . S
C2250 H2242 0.930 . S
C2250 C2249 1.362 . S
C2250 C2253 1.409 1_455 S
C2251 H2243 0.930 . S
C2251 C2252 1.355 . S
C2251 C2253 1.415 . S
C2252 C2251 1.355 . S
C2252 C2254 1.419 . S
C2253 C2248 1.425 1_655 S
C2253 C2250 1.409 1_655 S
C2253 C2251 1.415 . S
C2254 H2244 0.930 . S
C2254 C2252 1.419 . S
C2254 C2255 1.362 . S
C2255 H2245 0.930 . S
C2255 C2248 1.409 1_655 S
C2255 C2254 1.362 . S
H2256 C2262 0.930 . S
H2257 C2265 0.930 . S
H2258 C2266 0.930 . S
H2259 C2267 0.930 . S
H2260 C2270 0.930 . S
H2261 C2271 0.930 . S
C2262 H2256 0.930 . S
C2262 C2263 1.355 . S
C2262 C2264 1.415 . S
C2263 C2262 1.355 . S
C2263 C2265 1.419 . S
C2264 C2262 1.415 . S
C2264 C2269 1.425 1_545 S
C2264 C2271 1.409 1_545 S
C2265 H2257 0.930 . S
C2265 C2263 1.419 . S
C2265 C2266 1.362 . S
C2266 H2258 0.930 . S
C2266 C2265 1.362 . S
C2266 C2269 1.409 1_545 S
C2267 H2259 0.930 . S
C2267 C2268 1.355 . S
C2267 C2269 1.415 . S
C2268 C2267 1.355 . S
C2268 C2270 1.419 . S
C2269 C2264 1.425 1_565 S
C2269 C2266 1.409 1_565 S
C2269 C2267 1.415 . S
C2270 H2260 0.930 . S
C2270 C2268 1.419 . S
C2270 C2271 1.362 . S
C2271 H2261 0.930 . S
C2271 C2264 1.409 1_565 S
C2271 C2270 1.362 . S
H2272 C2278 0.930 . S
H2273 C2281 0.930 . S
H2274 C2282 0.930 . S
H2275 C2283 0.930 . S
H2276 C2286 0.930 . S
H2277 C2287 0.930 . S
C2278 H2272 0.930 . S
C2278 C2279 1.355 . S
C2278 C2280 1.415 . S
C2279 C2278 1.355 . S
C2279 C2281 1.419 . S
C2280 C2278 1.415 . S
C2280 C2285 1.425 . S
C2280 C2287 1.409 . S
C2281 H2273 0.930 . S
C2281 C2279 1.419 . S
C2281 C2282 1.362 . S
C2282 H2274 0.930 . S
C2282 C2281 1.362 . S
C2282 C2285 1.409 . S
C2283 H2275 0.930 . S
C2283 C2284 1.355 . S
C2283 C2285 1.415 . S
C2284 C2283 1.355 . S
C2284 C2286 1.419 . S
C2285 C2280 1.425 . S
C2285 C2282 1.409 . S
C2285 C2283 1.415 . S
C2286 H2276 0.930 . S
C2286 C2284 1.419 . S
C2286 C2287 1.362 . S
C2287 H2277 0.930 . S
C2287 C2280 1.409 . S
C2287 C2286 1.362 . S
H2288 C2294 0.930 . S
H2289 C2297 0.930 . S
H2290 C2298 0.930 . S
H2291 C2299 0.930 . S
H2292 C2302 0.930 . S
H2293 C2303 0.930 . S
C2294 H2288 0.930 . S
C2294 C2295 1.355 . S
C2294 C2296 1.415 . S
C2295 C2294 1.355 . S
C2295 C2297 1.419 . S
C2296 C2294 1.415 . S
C2296 C2301 1.425 . S
C2296 C2303 1.409 . S
C2297 H2289 0.930 . S
C2297 C2295 1.419 . S
C2297 C2298 1.362 . S
C2298 H2290 0.930 . S
C2298 C2297 1.362 . S
C2298 C2301 1.409 . S
C2299 H2291 0.930 . S
C2299 C2300 1.355 . S
C2299 C2301 1.415 . S
C2300 C2299 1.355 . S
C2300 C2302 1.419 . S
C2301 C2296 1.425 . S
C2301 C2298 1.409 . S
C2301 C2299 1.415 . S
C2302 H2292 0.930 . S
C2302 C2300 1.419 . S
C2302 C2303 1.362 . S
C2303 H2293 0.930 . S
C2303 C2296 1.409 . S
C2303 C2302 1.362 . S
H2304 C2310 0.930 . S
H2305 C2313 0.930 . S
H2306 C2314 0.930 . S
H2307 C2315 0.930 . S
H2308 C2318 0.930 . S
H2309 C2319 0.930 . S
C2310 H2304 0.930 . S
C2310 C2311 1.355 . S
C2310 C2312 1.415 . S
C2311 C2310 1.355 . S
C2311 C2313 1.419 . S
C2312 C2310 1.415 . S
C2312 C2317 1.425 . S
C2312 C2319 1.409 . S
C2313 H2305 0.930 . S
C2313 C2311 1.419 . S
C2313 C2314 1.362 . S
C2314 H2306 0.930 . S
C2314 C2313 1.362 . S
C2314 C2317 1.409 . S
C2315 H2307 0.930 . S
C2315 C2316 1.355 . S
C2315 C2317 1.415 . S
C2316 C2315 1.355 . S
C2316 C2318 1.419 . S
C2317 C2312 1.425 . S
C2317 C2314 1.409 . S
C2317 C2315 1.415 . S
C2318 H2308 0.930 . S
C2318 C2316 1.419 . S
C2318 C2319 1.362 . S
C2319 H2309 0.930 . S
C2319 C2312 1.409 . S
C2319 C2318 1.362 . S
H2320 C2326 0.930 . S
H2321 C2329 0.930 . S
H2322 C2330 0.930 . S
H2323 C2331 0.930 . S
H2324 C2334 0.930 . S
H2325 C2335 0.930 . S
C2326 H2320 0.930 . S
C2326 C2327 1.355 . S
C2326 C2328 1.415 . S
C2327 C2326 1.355 . S
C2327 C2329 1.419 . S
C2328 C2326 1.415 . S
C2328 C2333 1.425 . S
C2328 C2335 1.409 . S
C2329 H2321 0.930 . S
C2329 C2327 1.419 . S
C2329 C2330 1.362 . S
C2330 H2322 0.930 . S
C2330 C2329 1.362 . S
C2330 C2333 1.409 . S
C2331 H2323 0.930 . S
C2331 C2332 1.355 . S
C2331 C2333 1.415 . S
C2332 C2331 1.355 . S
C2332 C2334 1.419 . S
C2333 C2328 1.425 . S
C2333 C2330 1.409 . S
C2333 C2331 1.415 . S
C2334 H2324 0.930 . S
C2334 C2332 1.419 . S
C2334 C2335 1.362 . S
C2335 H2325 0.930 . S
C2335 C2328 1.409 . S
C2335 C2334 1.362 . S
H2336 C2342 0.930 . S
H2337 C2345 0.930 . S
H2338 C2346 0.930 . S
H2339 C2347 0.930 . S
H2340 C2350 0.930 . S
H2341 C2351 0.930 . S
C2342 H2336 0.930 . S
C2342 C2343 1.355 . S
C2342 C2344 1.415 . S
C2343 C2342 1.355 . S
C2343 C2345 1.419 . S
C2344 C2342 1.415 . S
C2344 C2349 1.425 . S
C2344 C2351 1.409 . S
C2345 H2337 0.930 . S
C2345 C2343 1.419 . S
C2345 C2346 1.362 . S
C2346 H2338 0.930 . S
C2346 C2345 1.362 . S
C2346 C2349 1.409 . S
C2347 H2339 0.930 . S
C2347 C2348 1.355 . S
C2347 C2349 1.415 . S
C2348 C2347 1.355 . S
C2348 C2350 1.419 . S
C2349 C2344 1.425 . S
C2349 C2346 1.409 . S
C2349 C2347 1.415 . S
C2350 H2340 0.930 . S
C2350 C2348 1.419 . S
C2350 C2351 1.362 . S
C2351 H2341 0.930 . S
C2351 C2344 1.409 . S
C2351 C2350 1.362 . S
H2352 C2358 0.930 . S
H2353 C2361 0.930 . S
H2354 C2362 0.930 . S
H2355 C2363 0.930 . S
H2356 C2366 0.930 . S
H2357 C2367 0.930 . S
C2358 H2352 0.930 . S
C2358 C2359 1.355 . S
C2358 C2360 1.415 . S
C2359 C2358 1.355 . S
C2359 C2361 1.419 . S
C2360 C2358 1.415 . S
C2360 C2365 1.425 . S
C2360 C2367 1.409 . S
C2361 H2353 0.930 . S
C2361 C2359 1.419 . S
C2361 C2362 1.362 . S
C2362 H2354 0.930 . S
C2362 C2361 1.362 . S
C2362 C2365 1.409 . S
C2363 H2355 0.930 . S
C2363 C2364 1.355 . S
C2363 C2365 1.415 . S
C2364 C2363 1.355 . S
C2364 C2366 1.419 . S
C2365 C2360 1.425 . S
C2365 C2362 1.409 . S
C2365 C2363 1.415 . S
C2366 H2356 0.930 . S
C2366 C2364 1.419 . S
C2366 C2367 1.362 . S
C2367 H2357 0.930 . S
C2367 C2360 1.409 . S
C2367 C2366 1.362 . S
H2368 C2374 0.930 . S
H2369 C2377 0.930 . S
H2370 C2378 0.930 . S
H2371 C2379 0.930 . S
H2372 C2382 0.930 . S
H2373 C2383 0.930 . S
C2374 H2368 0.930 . S
C2374 C2375 1.355 . S
C2374 C2376 1.415 . S
C2375 C2374 1.355 . S
C2375 C2377 1.419 . S
C2376 C2374 1.415 . S
C2376 C2381 1.425 . S
C2376 C2383 1.409 . S
C2377 H2369 0.930 . S
C2377 C2375 1.419 . S
C2377 C2378 1.362 . S
C2378 H2370 0.930 . S
C2378 C2377 1.362 . S
C2378 C2381 1.409 . S
C2379 H2371 0.930 . S
C2379 C2380 1.355 . S
C2379 C2381 1.415 . S
C2380 C2379 1.355 . S
C2380 C2382 1.419 . S
C2381 C2376 1.425 . S
C2381 C2378 1.409 . S
C2381 C2379 1.415 . S
C2382 H2372 0.930 . S
C2382 C2380 1.419 . S
C2382 C2383 1.362 . S
C2383 H2373 0.930 . S
C2383 C2376 1.409 . S
C2383 C2382 1.362 . S
H2384 C2390 0.930 . S
H2385 C2393 0.930 . S
H2386 C2394 0.930 . S
H2387 C2395 0.930 . S
H2388 C2398 0.930 . S
H2389 C2399 0.930 . S
C2390 H2384 0.930 . S
C2390 C2391 1.355 . S
C2390 C2392 1.415 . S
C2391 C2390 1.355 . S
C2391 C2393 1.419 . S
C2392 C2390 1.415 . S
C2392 C2397 1.425 . S
C2392 C2399 1.409 . S
C2393 H2385 0.930 . S
C2393 C2391 1.419 . S
C2393 C2394 1.362 . S
C2394 H2386 0.930 . S
C2394 C2393 1.362 . S
C2394 C2397 1.409 . S
C2395 H2387 0.930 . S
C2395 C2396 1.355 . S
C2395 C2397 1.415 . S
C2396 C2395 1.355 . S
C2396 C2398 1.419 . S
C2397 C2392 1.425 . S
C2397 C2394 1.409 . S
C2397 C2395 1.415 . S
C2398 H2388 0.930 . S
C2398 C2396 1.419 . S
C2398 C2399 1.362 . S
C2399 H2389 0.930 . S
C2399 C2392 1.409 . S
C2399 C2398 1.362 . S
H2400 C2406 0.930 . S
H2401 C2409 0.930 . S
H2402 C2410 0.930 . S
H2403 C2411 0.930 . S
H2404 C2414 0.930 . S
H2405 C2415 0.930 . S
C2406 H2400 0.930 . S
C2406 C2407 1.355 . S
C2406 C2408 1.415 . S
C2407 C2406 1.355 . S
C2407 C2409 1.419 . S
C2408 C2406 1.415 . S
C2408 C2413 1.425 . S
C2408 C2415 1.409 . S
C2409 H2401 0.930 . S
C2409 C2407 1.419 . S
C2409 C2410 1.362 . S
C2410 H2402 0.930 . S
C2410 C2409 1.362 . S
C2410 C2413 1.409 . S
C2411 H2403 0.930 . S
C2411 C2412 1.355 . S
C2411 C2413 1.415 . S
C2412 C2411 1.355 . S
C2412 C2414 1.419 . S
C2413 C2408 1.425 . S
C2413 C2410 1.409 . S
C2413 C2411 1.415 . S
C2414 H2404 0.930 . S
C2414 C2412 1.419 . S
C2414 C2415 1.362 . S
C2415 H2405 0.930 . S
C2415 C2408 1.409 . S
C2415 C2414 1.362 . S
H2416 C2422 0.930 . S
H2417 C2425 0.930 . S
H2418 C2426 0.930 . S
H2419 C2427 0.930 . S
H2420 C2430 0.930 . S
H2421 C2431 0.930 . S
C2422 H2416 0.930 . S
C2422 C2423 1.355 . S
C2422 C2424 1.415 . S
C2423 C2422 1.355 . S
C2423 C2425 1.419 . S
C2424 C2422 1.415 . S
C2424 C2429 1.425 . S
C2424 C2431 1.409 . S
C2425 H2417 0.930 . S
C2425 C2423 1.419 . S
C2425 C2426 1.362 . S
C2426 H2418 0.930 . S
C2426 C2425 1.362 . S
C2426 C2429 1.409 . S
C2427 H2419 0.930 . S
C2427 C2428 1.355 . S
C2427 C2429 1.415 . S
C2428 C2427 1.355 . S
C2428 C2430 1.419 . S
C2429 C2424 1.425 . S
C2429 C2426 1.409 . S
C2429 C2427 1.415 . S
C2430 H2420 0.930 . S
C2430 C2428 1.419 . S
C2430 C2431 1.362 . S
C2431 H2421 0.930 . S
C2431 C2424 1.409 . S
C2431 C2430 1.362 . S
H2432 C2438 0.930 . S
H2433 C2441 0.930 . S
H2434 C2442 0.930 . S
H2435 C2443 0.930 . S
H2436 C2446 0.930 . S
H2437 C2447 0.930 . S
C2438 H2432 0.930 . S
C2438 C2439 1.355 . S
C2438 C2440 1.415 . S
C2439 C2438 1.355 . S
C2439 C2441 1.419 . S
C2440 C2438 1.415 . S
C2440 C2445 1.425 . S
C2440 C2447 1.409 . S
C2441 H2433 0.930 . S
C2441 C2439 1.419 . S
C2441 C2442 1.362 . S
C2442 H2434 0.930 . S
C2442 C2441 1.362 . S
C2442 C2445 1.409 . S
C2443 H2435 0.930 . S
C2443 C2444 1.355 . S
C2443 C2445 1.415 . S
C2444 C2443 1.355 . S
C2444 C2446 1.419 . S
C2445 C2440 1.425 . S
C2445 C2442 1.409 . S
C2445 C2443 1.415 . S
C2446 H2436 0.930 . S
C2446 C2444 1.419 . S
C2446 C2447 1.362 . S
C2447 H2437 0.930 . S
C2447 C2440 1.409 . S
C2447 C2446 1.362 . S
H2448 C2454 0.930 . S
H2449 C2457 0.930 . S
H2450 C2458 0.930 . S
H2451 C2459 0.930 . S
H2452 C2462 0.930 . S
H2453 C2463 0.930 . S
C2454 H2448 0.930 . S
C2454 C2455 1.355 . S
C2454 C2456 1.415 . S
C2455 C2454 1.355 . S
C2455 C2457 1.419 . S
C2456 C2454 1.415 . S
C2456 C2461 1.425 . S
C2456 C2463 1.409 . S
C2457 H2449 0.930 . S
C2457 C2455 1.419 . S
C2457 C2458 1.362 . S
C2458 H2450 0.930 . S
C2458 C2457 1.362 . S
C2458 C2461 1.409 . S
C2459 H2451 0.930 . S
C2459 C2460 1.355 . S
C2459 C2461 1.415 . S
C2460 C2459 1.355 . S
C2460 C2462 1.419 . S
C2461 C2456 1.425 . S
C2461 C2458 1.409 . S
C2461 C2459 1.415 . S
C2462 H2452 0.930 . S
C2462 C2460 1.419 . S
C2462 C2463 1.362 . S
C2463 H2453 0.930 . S
C2463 C2456 1.409 . S
C2463 C2462 1.362 . S
H2464 C2470 0.930 . S
H2465 C2473 0.930 . S
H2466 C2474 0.930 . S
H2467 C2475 0.930 . S
H2468 C2478 0.930 . S
H2469 C2479 0.930 . S
C2470 H2464 0.930 . S
C2470 C2471 1.355 . S
C2470 C2472 1.415 . S
C2471 C2470 1.355 . S
C2471 C2473 1.419 . S
C2472 C2470 1.415 . S
C2472 C2477 1.425 . S
C2472 C2479 1.409 . S
C2473 H2465 0.930 . S
C2473 C2471 1.419 . S
C2473 C2474 1.362 . S
C2474 H2466 0.930 . S
C2474 C2473 1.362 . S
C2474 C2477 1.409 . S
C2475 H2467 0.930 . S
C2475 C2476 1.355 . S
C2475 C2477 1.415 . S
C2476 C2475 1.355 . S
C2476 C2478 1.419 . S
C2477 C2472 1.425 . S
C2477 C2474 1.409 . S
C2477 C2475 1.415 . S
C2478 H2468 0.930 . S
C2478 C2476 1.419 . S
C2478 C2479 1.362 . S
C2479 H2469 0.930 . S
C2479 C2472 1.409 . S
C2479 C2478 1.362 . S
H2480 C2486 0.930 . S
H2481 C2489 0.930 . S
H2482 C2490 0.930 . S
H2483 C2491 0.930 . S
H2484 C2494 0.930 . S
H2485 C2495 0.930 . S
C2486 H2480 0.930 . S
C2486 C2487 1.355 . S
C2486 C2488 1.415 . S
C2487 C2486 1.355 . S
C2487 C2489 1.419 . S
C2488 C2486 1.415 . S
C2488 C2493 1.425 . S
C2488 C2495 1.409 . S
C2489 H2481 0.930 . S
C2489 C2487 1.419 . S
C2489 C2490 1.362 . S
C2490 H2482 0.930 . S
C2490 C2489 1.362 . S
C2490 C2493 1.409 . S
C2491 H2483 0.930 . S
C2491 C2492 1.355 . S
C2491 C2493 1.415 . S
C2492 C2491 1.355 . S
C2492 C2494 1.419 . S
C2493 C2488 1.425 . S
C2493 C2490 1.409 . S
C2493 C2491 1.415 . S
C2494 H2484 0.930 . S
C2494 C2492 1.419 . S
C2494 C2495 1.362 . S
C2495 H2485 0.930 . S
C2495 C2488 1.409 . S
C2495 C2494 1.362 . S
H2496 C2502 0.930 . S
H2497 C2505 0.930 . S
H2498 C2506 0.930 . S
H2499 C2507 0.930 . S
H2500 C2510 0.930 . S
H2501 C2511 0.930 . S
C2502 H2496 0.930 . S
C2502 C2503 1.355 . S
C2502 C2504 1.415 . S
C2503 C2502 1.355 . S
C2503 C2505 1.419 . S
C2504 C2502 1.415 . S
C2504 C2509 1.425 . S
C2504 C2511 1.409 . S
C2505 H2497 0.930 . S
C2505 C2503 1.419 . S
C2505 C2506 1.362 . S
C2506 H2498 0.930 . S
C2506 C2505 1.362 . S
C2506 C2509 1.409 . S
C2507 H2499 0.930 . S
C2507 C2508 1.355 . S
C2507 C2509 1.415 . S
C2508 C2507 1.355 . S
C2508 C2510 1.419 . S
C2509 C2504 1.425 . S
C2509 C2506 1.409 . S
C2509 C2507 1.415 . S
C2510 H2500 0.930 . S
C2510 C2508 1.419 . S
C2510 C2511 1.362 . S
C2511 H2501 0.930 . S
C2511 C2504 1.409 . S
C2511 C2510 1.362 . S
H2512 C2518 0.930 . S
H2513 C2521 0.930 . S
H2514 C2522 0.930 . S
H2515 C2523 0.930 . S
H2516 C2526 0.930 . S
H2517 C2527 0.930 . S
C2518 H2512 0.930 . S
C2518 C2519 1.355 . S
C2518 C2520 1.415 . S
C2519 C2518 1.355 . S
C2519 C2521 1.419 . S
C2520 C2518 1.415 . S
C2520 C2525 1.425 . S
C2520 C2527 1.409 . S
C2521 H2513 0.930 . S
C2521 C2519 1.419 . S
C2521 C2522 1.362 . S
C2522 H2514 0.930 . S
C2522 C2521 1.362 . S
C2522 C2525 1.409 . S
C2523 H2515 0.930 . S
C2523 C2524 1.355 . S
C2523 C2525 1.415 . S
C2524 C2523 1.355 . S
C2524 C2526 1.419 . S
C2525 C2520 1.425 . S
C2525 C2522 1.409 . S
C2525 C2523 1.415 . S
C2526 H2516 0.930 . S
C2526 C2524 1.419 . S
C2526 C2527 1.362 . S
C2527 H2517 0.930 . S
C2527 C2520 1.409 . S
C2527 C2526 1.362 . S
H2528 C2534 0.930 . S
H2529 C2537 0.930 . S
H2530 C2538 0.930 . S
H2531 C2539 0.930 . S
H2532 C2542 0.930 . S
H2533 C2543 0.930 . S
C2534 H2528 0.930 . S
C2534 C2535 1.355 . S
C2534 C2536 1.415 . S
C2535 C2534 1.355 . S
C2535 C2537 1.419 . S
C2536 C2534 1.415 . S
C2536 C2541 1.425 1_554 S
C2536 C2543 1.409 1_554 S
C2537 H2529 0.930 . S
C2537 C2535 1.419 . S
C2537 C2538 1.362 . S
C2538 H2530 0.930 . S
C2538 C2537 1.362 . S
C2538 C2541 1.409 1_554 S
C2539 H2531 0.930 . S
C2539 C2540 1.355 . S
C2539 C2541 1.415 . S
C2540 C2539 1.355 . S
C2540 C2542 1.419 . S
C2541 C2536 1.425 1_556 S
C2541 C2538 1.409 1_556 S
C2541 C2539 1.415 . S
C2542 H2532 0.930 . S
C2542 C2540 1.419 . S
C2542 C2543 1.362 . S
C2543 H2533 0.930 . S
C2543 C2536 1.409 1_556 S
C2543 C2542 1.362 . S
H2544 C2550 0.930 . S
H2545 C2553 0.930 . S
H2546 C2554 0.930 . S
H2547 C2555 0.930 . S
H2548 C2558 0.930 . S
H2549 C2559 0.930 . S
C2550 H2544 0.930 . S
C2550 C2551 1.355 . S
C2550 C2552 1.415 . S
C2551 C2550 1.355 . S
C2551 C2553 1.419 . S
C2552 C2550 1.415 . S
C2552 C2557 1.425 1_556 S
C2552 C2559 1.409 1_556 S
C2553 H2545 0.930 . S
C2553 C2551 1.419 . S
C2553 C2554 1.362 . S
C2554 H2546 0.930 . S
C2554 C2553 1.362 . S
C2554 C2557 1.409 1_556 S
C2555 H2547 0.930 . S
C2555 C2556 1.355 . S
C2555 C2557 1.415 . S
C2556 C2555 1.355 . S
C2556 C2558 1.419 . S
C2557 C2552 1.425 1_554 S
C2557 C2554 1.409 1_554 S
C2557 C2555 1.415 . S
C2558 H2548 0.930 . S
C2558 C2556 1.419 . S
C2558 C2559 1.362 . S
C2559 H2549 0.930 . S
C2559 C2552 1.409 1_554 S
C2559 C2558 1.362 . S
H2560 C2566 0.930 . S
H2561 C2569 0.930 . S
H2562 C2570 0.930 . S
H2563 C2571 0.930 . S
H2564 C2574 0.930 . S
H2565 C2575 0.930 . S
C2566 H2560 0.930 . S
C2566 C2567 1.355 . S
C2566 C2568 1.415 . S
C2567 C2566 1.355 . S
C2567 C2569 1.419 . S
C2568 C2566 1.415 . S
C2568 C2573 1.425 1_554 S
C2568 C2575 1.409 1_554 S
C2569 H2561 0.930 . S
C2569 C2567 1.419 . S
C2569 C2570 1.362 . S
C2570 H2562 0.930 . S
C2570 C2569 1.362 . S
C2570 C2573 1.409 1_554 S
C2571 H2563 0.930 . S
C2571 C2572 1.355 . S
C2571 C2573 1.415 . S
C2572 C2571 1.355 . S
C2572 C2574 1.419 . S
C2573 C2568 1.425 1_556 S
C2573 C2570 1.409 1_556 S
C2573 C2571 1.415 . S
C2574 H2564 0.930 . S
C2574 C2572 1.419 . S
C2574 C2575 1.362 . S
C2575 H2565 0.930 . S
C2575 C2568 1.409 1_556 S
C2575 C2574 1.362 . S
H2576 C2582 0.930 . S
H2577 C2585 0.930 . S
H2578 C2586 0.930 . S
H2579 C2587 0.930 . S
H2580 C2590 0.930 . S
H2581 C2591 0.930 . S
C2582 H2576 0.930 . S
C2582 C2583 1.355 . S
C2582 C2584 1.415 . S
C2583 C2582 1.355 . S
C2583 C2585 1.419 . S
C2584 C2582 1.415 . S
C2584 C2589 1.425 1_554 S
C2584 C2591 1.409 1_554 S
C2585 H2577 0.930 . S
C2585 C2583 1.419 . S
C2585 C2586 1.362 . S
C2586 H2578 0.930 . S
C2586 C2585 1.362 . S
C2586 C2589 1.409 1_554 S
C2587 H2579 0.930 . S
C2587 C2588 1.355 . S
C2587 C2589 1.415 . S
C2588 C2587 1.355 . S
C2588 C2590 1.419 . S
C2589 C2584 1.425 1_556 S
C2589 C2586 1.409 1_556 S
C2589 C2587 1.415 . S
C2590 H2580 0.930 . S
C2590 C2588 1.419 . S
C2590 C2591 1.362 . S
C2591 H2581 0.930 . S
C2591 C2584 1.409 1_556 S
C2591 C2590 1.362 . S
H2592 C2598 0.930 . S
H2593 C2601 0.930 . S
H2594 C2602 0.930 . S
H2595 C2603 0.930 . S
H2596 C2606 0.930 . S
H2597 C2607 0.930 . S
C2598 H2592 0.930 . S
C2598 C2599 1.355 . S
C2598 C2600 1.415 . S
C2599 C2598 1.355 . S
C2599 C2601 1.419 . S
C2600 C2598 1.415 . S
C2600 C2605 1.425 1_554 S
C2600 C2607 1.409 1_554 S
C2601 H2593 0.930 . S
C2601 C2599 1.419 . S
C2601 C2602 1.362 . S
C2602 H2594 0.930 . S
C2602 C2601 1.362 . S
C2602 C2605 1.409 1_554 S
C2603 H2595 0.930 . S
C2603 C2604 1.355 . S
C2603 C2605 1.415 . S
C2604 C2603 1.355 . S
C2604 C2606 1.419 . S
C2605 C2600 1.425 1_556 S
C2605 C2602 1.409 1_556 S
C2605 C2603 1.415 . S
C2606 H2596 0.930 . S
C2606 C2604 1.419 . S
C2606 C2607 1.362 . S
C2607 H2597 0.930 . S
C2607 C2600 1.409 1_556 S
C2607 C2606 1.362 . S
H2608 C2614 0.930 . S
H2609 C2617 0.930 . S
H2610 C2618 0.930 . S
H2611 C2619 0.930 . S
H2612 C2622 0.930 . S
H2613 C2623 0.930 . S
C2614 H2608 0.930 . S
C2614 C2615 1.355 . S
C2614 C2616 1.415 . S
C2615 C2614 1.355 . S
C2615 C2617 1.419 . S
C2616 C2614 1.415 . S
C2616 C2621 1.425 1_554 S
C2616 C2623 1.409 1_554 S
C2617 H2609 0.930 . S
C2617 C2615 1.419 . S
C2617 C2618 1.362 . S
C2618 H2610 0.930 . S
C2618 C2617 1.362 . S
C2618 C2621 1.409 1_554 S
C2619 H2611 0.930 . S
C2619 C2620 1.355 . S
C2619 C2621 1.415 . S
C2620 C2619 1.355 . S
C2620 C2622 1.419 . S
C2621 C2616 1.425 1_556 S
C2621 C2618 1.409 1_556 S
C2621 C2619 1.415 . S
C2622 H2612 0.930 . S
C2622 C2620 1.419 . S
C2622 C2623 1.362 . S
C2623 H2613 0.930 . S
C2623 C2616 1.409 1_556 S
C2623 C2622 1.362 . S
H2624 C2630 0.930 . S
H2625 C2633 0.930 . S
H2626 C2634 0.930 . S
H2627 C2635 0.930 . S
H2628 C2638 0.930 . S
H2629 C2639 0.930 . S
C2630 H2624 0.930 . S
C2630 C2631 1.355 . S
C2630 C2632 1.415 . S
C2631 C2630 1.355 . S
C2631 C2633 1.419 . S
C2632 C2630 1.415 . S
C2632 C2637 1.425 1_556 S
C2632 C2639 1.409 1_556 S
C2633 H2625 0.930 . S
C2633 C2631 1.419 . S
C2633 C2634 1.362 . S
C2634 H2626 0.930 . S
C2634 C2633 1.362 . S
C2634 C2637 1.409 1_556 S
C2635 H2627 0.930 . S
C2635 C2636 1.355 . S
C2635 C2637 1.415 . S
C2636 C2635 1.355 . S
C2636 C2638 1.419 . S
C2637 C2632 1.425 1_554 S
C2637 C2634 1.409 1_554 S
C2637 C2635 1.415 . S
C2638 H2628 0.930 . S
C2638 C2636 1.419 . S
C2638 C2639 1.362 . S
C2639 H2629 0.930 . S
C2639 C2632 1.409 1_554 S
C2639 C2638 1.362 . S
H2640 C2646 0.930 . S
H2641 C2649 0.930 . S
H2642 C2650 0.930 . S
H2643 C2651 0.930 . S
H2644 C2654 0.930 . S
H2645 C2655 0.930 . S
C2646 H2640 0.930 . S
C2646 C2647 1.355 . S
C2646 C2648 1.415 . S
C2647 C2646 1.355 . S
C2647 C2649 1.419 . S
C2648 C2646 1.415 . S
C2648 C2653 1.425 1_556 S
C2648 C2655 1.409 1_556 S
C2649 H2641 0.930 . S
C2649 C2647 1.419 . S
C2649 C2650 1.362 . S
C2650 H2642 0.930 . S
C2650 C2649 1.362 . S
C2650 C2653 1.409 1_556 S
C2651 H2643 0.930 . S
C2651 C2652 1.355 . S
C2651 C2653 1.415 . S
C2652 C2651 1.355 . S
C2652 C2654 1.419 . S
C2653 C2648 1.425 1_554 S
C2653 C2650 1.409 1_554 S
C2653 C2651 1.415 . S
C2654 H2644 0.930 . S
C2654 C2652 1.419 . S
C2654 C2655 1.362 . S
C2655 H2645 0.930 . S
C2655 C2648 1.409 1_554 S
C2655 C2654 1.362 . S
H2656 C2662 0.930 . S
H2657 C2665 0.930 . S
H2658 C2666 0.930 . S
H2659 C2667 0.930 . S
H2660 C2670 0.930 . S
H2661 C2671 0.930 . S
C2662 H2656 0.930 . S
C2662 C2663 1.355 . S
C2662 C2664 1.415 . S
C2663 C2662 1.355 . S
C2663 C2665 1.419 . S
C2664 C2662 1.415 . S
C2664 C2669 1.425 . S
C2664 C2671 1.409 . S
C2665 H2657 0.930 . S
C2665 C2663 1.419 . S
C2665 C2666 1.362 . S
C2666 H2658 0.930 . S
C2666 C2665 1.362 . S
C2666 C2669 1.409 . S
C2667 H2659 0.930 . S
C2667 C2668 1.355 . S
C2667 C2669 1.415 . S
C2668 C2667 1.355 . S
C2668 C2670 1.419 . S
C2669 C2664 1.425 . S
C2669 C2666 1.409 . S
C2669 C2667 1.415 . S
C2670 H2660 0.930 . S
C2670 C2668 1.419 . S
C2670 C2671 1.362 . S
C2671 H2661 0.930 . S
C2671 C2664 1.409 . S
C2671 C2670 1.362 . S
H2672 C2678 0.930 . S
H2673 C2681 0.930 . S
H2674 C2682 0.930 . S
H2675 C2683 0.930 . S
H2676 C2686 0.930 . S
H2677 C2687 0.930 . S
C2678 H2672 0.930 . S
C2678 C2679 1.355 . S
C2678 C2680 1.415 . S
C2679 C2678 1.355 . S
C2679 C2681 1.419 . S
C2680 C2678 1.415 . S
C2680 C2685 1.425 . S
C2680 C2687 1.409 . S
C2681 H2673 0.930 . S
C2681 C2679 1.419 . S
C2681 C2682 1.362 . S
C2682 H2674 0.930 . S
C2682 C2681 1.362 . S
C2682 C2685 1.409 . S
C2683 H2675 0.930 . S
C2683 C2684 1.355 . S
C2683 C2685 1.415 . S
C2684 C2683 1.355 . S
C2684 C2686 1.419 . S
C2685 C2680 1.425 . S
C2685 C2682 1.409 . S
C2685 C2683 1.415 . S
C2686 H2676 0.930 . S
C2686 C2684 1.419 . S
C2686 C2687 1.362 . S
C2687 H2677 0.930 . S
C2687 C2680 1.409 . S
C2687 C2686 1.362 . S
H2688 C2694 0.930 . S
H2689 C2697 0.930 . S
H2690 C2698 0.930 . S
H2691 C2699 0.930 . S
H2692 C2702 0.930 . S
H2693 C2703 0.930 . S
C2694 H2688 0.930 . S
C2694 C2695 1.355 . S
C2694 C2696 1.415 . S
C2695 C2694 1.355 . S
C2695 C2697 1.419 . S
C2696 C2694 1.415 . S
C2696 C2701 1.425 . S
C2696 C2703 1.409 . S
C2697 H2689 0.930 . S
C2697 C2695 1.419 . S
C2697 C2698 1.362 . S
C2698 H2690 0.930 . S
C2698 C2697 1.362 . S
C2698 C2701 1.409 . S
C2699 H2691 0.930 . S
C2699 C2700 1.355 . S
C2699 C2701 1.415 . S
C2700 C2699 1.355 . S
C2700 C2702 1.419 . S
C2701 C2696 1.425 . S
C2701 C2698 1.409 . S
C2701 C2699 1.415 . S
C2702 H2692 0.930 . S
C2702 C2700 1.419 . S
C2702 C2703 1.362 . S
C2703 H2693 0.930 . S
C2703 C2696 1.409 . S
C2703 C2702 1.362 . S
H2704 C2710 0.930 . S
H2705 C2713 0.930 . S
H2706 C2714 0.930 . S
H2707 C2715 0.930 . S
H2708 C2718 0.930 . S
H2709 C2719 0.930 . S
C2710 H2704 0.930 . S
C2710 C2711 1.355 . S
C2710 C2712 1.415 . S
C2711 C2710 1.355 . S
C2711 C2713 1.419 . S
C2712 C2710 1.415 . S
C2712 C2717 1.425 . S
C2712 C2719 1.409 . S
C2713 H2705 0.930 . S
C2713 C2711 1.419 . S
C2713 C2714 1.362 . S
C2714 H2706 0.930 . S
C2714 C2713 1.362 . S
C2714 C2717 1.409 . S
C2715 H2707 0.930 . S
C2715 C2716 1.355 . S
C2715 C2717 1.415 . S
C2716 C2715 1.355 . S
C2716 C2718 1.419 . S
C2717 C2712 1.425 . S
C2717 C2714 1.409 . S
C2717 C2715 1.415 . S
C2718 H2708 0.930 . S
C2718 C2716 1.419 . S
C2718 C2719 1.362 . S
C2719 H2709 0.930 . S
C2719 C2712 1.409 . S
C2719 C2718 1.362 . S
H2720 C2726 0.930 . S
H2721 C2729 0.930 . S
H2722 C2730 0.930 . S
H2723 C2731 0.930 . S
H2724 C2734 0.930 . S
H2725 C2735 0.930 . S
C2726 H2720 0.930 . S
C2726 C2727 1.355 . S
C2726 C2728 1.415 . S
C2727 C2726 1.355 . S
C2727 C2729 1.419 . S
C2728 C2726 1.415 . S
C2728 C2733 1.425 . S
C2728 C2735 1.409 . S
C2729 H2721 0.930 . S
C2729 C2727 1.419 . S
C2729 C2730 1.362 . S
C2730 H2722 0.930 . S
C2730 C2729 1.362 . S
C2730 C2733 1.409 . S
C2731 H2723 0.930 . S
C2731 C2732 1.355 . S
C2731 C2733 1.415 . S
C2732 C2731 1.355 . S
C2732 C2734 1.419 . S
C2733 C2728 1.425 . S
C2733 C2730 1.409 . S
C2733 C2731 1.415 . S
C2734 H2724 0.930 . S
C2734 C2732 1.419 . S
C2734 C2735 1.362 . S
C2735 H2725 0.930 . S
C2735 C2728 1.409 . S
C2735 C2734 1.362 . S
H2736 C2742 0.930 . S
H2737 C2745 0.930 . S
H2738 C2746 0.930 . S
H2739 C2747 0.930 . S
H2740 C2750 0.930 . S
H2741 C2751 0.930 . S
C2742 H2736 0.930 . S
C2742 C2743 1.355 . S
C2742 C2744 1.415 . S
C2743 C2742 1.355 . S
C2743 C2745 1.419 . S
C2744 C2742 1.415 . S
C2744 C2749 1.425 . S
C2744 C2751 1.409 . S
C2745 H2737 0.930 . S
C2745 C2743 1.419 . S
C2745 C2746 1.362 . S
C2746 H2738 0.930 . S
C2746 C2745 1.362 . S
C2746 C2749 1.409 . S
C2747 H2739 0.930 . S
C2747 C2748 1.355 . S
C2747 C2749 1.415 . S
C2748 C2747 1.355 . S
C2748 C2750 1.419 . S
C2749 C2744 1.425 . S
C2749 C2746 1.409 . S
C2749 C2747 1.415 . S
C2750 H2740 0.930 . S
C2750 C2748 1.419 . S
C2750 C2751 1.362 . S
C2751 H2741 0.930 . S
C2751 C2744 1.409 . S
C2751 C2750 1.362 . S
H2752 C2758 0.930 . S
H2753 C2761 0.930 . S
H2754 C2762 0.930 . S
H2755 C2763 0.930 . S
H2756 C2766 0.930 . S
H2757 C2767 0.930 . S
C2758 H2752 0.930 . S
C2758 C2759 1.355 . S
C2758 C2760 1.415 . S
C2759 C2758 1.355 . S
C2759 C2761 1.419 . S
C2760 C2758 1.415 . S
C2760 C2765 1.425 . S
C2760 C2767 1.409 . S
C2761 H2753 0.930 . S
C2761 C2759 1.419 . S
C2761 C2762 1.362 . S
C2762 H2754 0.930 . S
C2762 C2761 1.362 . S
C2762 C2765 1.409 . S
C2763 H2755 0.930 . S
C2763 C2764 1.355 . S
C2763 C2765 1.415 . S
C2764 C2763 1.355 . S
C2764 C2766 1.419 . S
C2765 C2760 1.425 . S
C2765 C2762 1.409 . S
C2765 C2763 1.415 . S
C2766 H2756 0.930 . S
C2766 C2764 1.419 . S
C2766 C2767 1.362 . S
C2767 H2757 0.930 . S
C2767 C2760 1.409 . S
C2767 C2766 1.362 . S
H2768 C2774 0.930 . S
H2769 C2777 0.930 . S
H2770 C2778 0.930 . S
H2771 C2779 0.930 . S
H2772 C2782 0.930 . S
H2773 C2783 0.930 . S
C2774 H2768 0.930 . S
C2774 C2775 1.355 . S
C2774 C2776 1.415 . S
C2775 C2774 1.355 . S
C2775 C2777 1.419 . S
C2776 C2774 1.415 . S
C2776 C2781 1.425 . S
C2776 C2783 1.409 . S
C2777 H2769 0.930 . S
C2777 C2775 1.419 . S
C2777 C2778 1.362 . S
C2778 H2770 0.930 . S
C2778 C2777 1.362 . S
C2778 C2781 1.409 . S
C2779 H2771 0.930 . S
C2779 C2780 1.355 . S
C2779 C2781 1.415 . S
C2780 C2779 1.355 . S
C2780 C2782 1.419 . S
C2781 C2776 1.425 . S
C2781 C2778 1.409 . S
C2781 C2779 1.415 . S
C2782 H2772 0.930 . S
C2782 C2780 1.419 . S
C2782 C2783 1.362 . S
C2783 H2773 0.930 . S
C2783 C2776 1.409 . S
C2783 C2782 1.362 . S
H2784 C2790 0.930 . S
H2785 C2793 0.930 . S
H2786 C2794 0.930 . S
H2787 C2795 0.930 . S
H2788 C2798 0.930 . S
H2789 C2799 0.930 . S
C2790 H2784 0.930 . S
C2790 C2791 1.355 . S
C2790 C2792 1.415 . S
C2791 C2790 1.355 . S
C2791 C2793 1.419 . S
C2792 C2790 1.415 . S
C2792 C2797 1.425 . S
C2792 C2799 1.409 . S
C2793 H2785 0.930 . S
C2793 C2791 1.419 . S
C2793 C2794 1.362 . S
C2794 H2786 0.930 . S
C2794 C2793 1.362 . S
C2794 C2797 1.409 . S
C2795 H2787 0.930 . S
C2795 C2796 1.355 . S
C2795 C2797 1.415 . S
C2796 C2795 1.355 . S
C2796 C2798 1.419 . S
C2797 C2792 1.425 . S
C2797 C2794 1.409 . S
C2797 C2795 1.415 . S
C2798 H2788 0.930 . S
C2798 C2796 1.419 . S
C2798 C2799 1.362 . S
C2799 H2789 0.930 . S
C2799 C2792 1.409 . S
C2799 C2798 1.362 . S
H2800 C2806 0.930 . S
H2801 C2809 0.930 . S
H2802 C2810 0.930 . S
H2803 C2811 0.930 . S
H2804 C2814 0.930 . S
H2805 C2815 0.930 . S
C2806 H2800 0.930 . S
C2806 C2807 1.355 . S
C2806 C2808 1.415 . S
C2807 C2806 1.355 . S
C2807 C2809 1.419 . S
C2808 C2806 1.415 . S
C2808 C2813 1.425 . S
C2808 C2815 1.409 . S
C2809 H2801 0.930 . S
C2809 C2807 1.419 . S
C2809 C2810 1.362 . S
C2810 H2802 0.930 . S
C2810 C2809 1.362 . S
C2810 C2813 1.409 . S
C2811 H2803 0.930 . S
C2811 C2812 1.355 . S
C2811 C2813 1.415 . S
C2812 C2811 1.355 . S
C2812 C2814 1.419 . S
C2813 C2808 1.425 . S
C2813 C2810 1.409 . S
C2813 C2811 1.415 . S
C2814 H2804 0.930 . S
C2814 C2812 1.419 . S
C2814 C2815 1.362 . S
C2815 H2805 0.930 . S
C2815 C2808 1.409 . S
C2815 C2814 1.362 . S
H2816 C2822 0.930 . S
H2817 C2825 0.930 . S
H2818 C2826 0.930 . S
H2819 C2827 0.930 . S
H2820 C2830 0.930 . S
H2821 C2831 0.930 . S
C2822 H2816 0.930 . S
C2822 C2823 1.355 . S
C2822 C2824 1.415 . S
C2823 C2822 1.355 . S
C2823 C2825 1.419 . S
C2824 C2822 1.415 . S
C2824 C2829 1.425 . S
C2824 C2831 1.409 . S
C2825 H2817 0.930 . S
C2825 C2823 1.419 . S
C2825 C2826 1.362 . S
C2826 H2818 0.930 . S
C2826 C2825 1.362 . S
C2826 C2829 1.409 . S
C2827 H2819 0.930 . S
C2827 C2828 1.355 . S
C2827 C2829 1.415 . S
C2828 C2827 1.355 . S
C2828 C2830 1.419 . S
C2829 C2824 1.425 . S
C2829 C2826 1.409 . S
C2829 C2827 1.415 . S
C2830 H2820 0.930 . S
C2830 C2828 1.419 . S
C2830 C2831 1.362 . S
C2831 H2821 0.930 . S
C2831 C2824 1.409 . S
C2831 C2830 1.362 . S
H2832 C2838 0.930 . S
H2833 C2841 0.930 . S
H2834 C2842 0.930 . S
H2835 C2843 0.930 . S
H2836 C2846 0.930 . S
H2837 C2847 0.930 . S
C2838 H2832 0.930 . S
C2838 C2839 1.355 . S
C2838 C2840 1.415 . S
C2839 C2838 1.355 . S
C2839 C2841 1.419 . S
C2840 C2838 1.415 . S
C2840 C2845 1.425 . S
C2840 C2847 1.409 . S
C2841 H2833 0.930 . S
C2841 C2839 1.419 . S
C2841 C2842 1.362 . S
C2842 H2834 0.930 . S
C2842 C2841 1.362 . S
C2842 C2845 1.409 . S
C2843 H2835 0.930 . S
C2843 C2844 1.355 . S
C2843 C2845 1.415 . S
C2844 C2843 1.355 . S
C2844 C2846 1.419 . S
C2845 C2840 1.425 . S
C2845 C2842 1.409 . S
C2845 C2843 1.415 . S
C2846 H2836 0.930 . S
C2846 C2844 1.419 . S
C2846 C2847 1.362 . S
C2847 H2837 0.930 . S
C2847 C2840 1.409 . S
C2847 C2846 1.362 . S
H2848 C2854 0.930 . S
H2849 C2857 0.930 . S
H2850 C2858 0.930 . S
H2851 C2859 0.930 . S
H2852 C2862 0.930 . S
H2853 C2863 0.930 . S
C2854 H2848 0.930 . S
C2854 C2855 1.355 . S
C2854 C2856 1.415 . S
C2855 C2854 1.355 . S
C2855 C2857 1.419 . S
C2856 C2854 1.415 . S
C2856 C2861 1.425 . S
C2856 C2863 1.409 . S
C2857 H2849 0.930 . S
C2857 C2855 1.419 . S
C2857 C2858 1.362 . S
C2858 H2850 0.930 . S
C2858 C2857 1.362 . S
C2858 C2861 1.409 . S
C2859 H2851 0.930 . S
C2859 C2860 1.355 . S
C2859 C2861 1.415 . S
C2860 C2859 1.355 . S
C2860 C2862 1.419 . S
C2861 C2856 1.425 . S
C2861 C2858 1.409 . S
C2861 C2859 1.415 . S
C2862 H2852 0.930 . S
C2862 C2860 1.419 . S
C2862 C2863 1.362 . S
C2863 H2853 0.930 . S
C2863 C2856 1.409 . S
C2863 C2862 1.362 . S
H2864 C2870 0.930 . S
H2865 C2873 0.930 . S
H2866 C2874 0.930 . S
H2867 C2875 0.930 . S
H2868 C2878 0.930 . S
H2869 C2879 0.930 . S
C2870 H2864 0.930 . S
C2870 C2871 1.355 . S
C2870 C2872 1.415 . S
C2871 C2870 1.355 . S
C2871 C2873 1.419 . S
C2872 C2870 1.415 . S
C2872 C2877 1.425 . S
C2872 C2879 1.409 . S
C2873 H2865 0.930 . S
C2873 C2871 1.419 . S
C2873 C2874 1.362 . S
C2874 H2866 0.930 . S
C2874 C2873 1.362 . S
C2874 C2877 1.409 . S
C2875 H2867 0.930 . S
C2875 C2876 1.355 . S
C2875 C2877 1.415 . S
C2876 C2875 1.355 . S
C2876 C2878 1.419 . S
C2877 C2872 1.425 . S
C2877 C2874 1.409 . S
C2877 C2875 1.415 . S
C2878 H2868 0.930 . S
C2878 C2876 1.419 . S
C2878 C2879 1.362 . S
C2879 H2869 0.930 . S
C2879 C2872 1.409 . S
C2879 C2878 1.362 . S
H2880 C2886 0.930 . S
H2881 C2889 0.930 . S
H2882 C2890 0.930 . S
H2883 C2891 0.930 . S
H2884 C2894 0.930 . S
H2885 C2895 0.930 . S
C2886 H2880 0.930 . S
C2886 C2887 1.355 . S
C2886 C2888 1.415 . S
C2887 C2886 1.355 . S
C2887 C2889 1.419 . S
C2888 C2886 1.415 . S
C2888 C2893 1.425 . S
C2888 C2895 1.409 . S
C2889 H2881 0.930 . S
C2889 C2887 1.419 . S
C2889 C2890 1.362 . S
C2890 H2882 0.930 . S
C2890 C2889 1.362 . S
C2890 C2893 1.409 . S
C2891 H2883 0.930 . S
C2891 C2892 1.355 . S
C2891 C2893 1.415 . S
C2892 C2891 1.355 . S
C2892 C2894 1.419 . S
C2893 C2888 1.425 . S
C2893 C2890 1.409 . S
C2893 C2891 1.415 . S
C2894 H2884 0.930 . S
C2894 C2892 1.419 . S
C2894 C2895 1.362 . S
C2895 H2885 0.930 . S
C2895 C2888 1.409 . S
C2895 C2894 1.362 . S
H2896 C2902 0.930 . S
H2897 C2905 0.930 . S
H2898 C2906 0.930 . S
H2899 C2907 0.930 . S
H2900 C2910 0.930 . S
H2901 C2911 0.930 . S
C2902 H2896 0.930 . S
C2902 C2903 1.355 . S
C2902 C2904 1.415 . S
C2903 C2902 1.355 . S
C2903 C2905 1.419 . S
C2904 C2902 1.415 . S
C2904 C2909 1.425 . S
C2904 C2911 1.409 . S
C2905 H2897 0.930 . S
C2905 C2903 1.419 . S
C2905 C2906 1.362 . S
C2906 H2898 0.930 . S
C2906 C2905 1.362 . S
C2906 C2909 1.409 . S
C2907 H2899 0.930 . S
C2907 C2908 1.355 . S
C2907 C2909 1.415 . S
C2908 C2907 1.355 . S
C2908 C2910 1.419 . S
C2909 C2904 1.425 . S
C2909 C2906 1.409 . S
C2909 C2907 1.415 . S
C2910 H2900 0.930 . S
C2910 C2908 1.419 . S
C2910 C2911 1.362 . S
C2911 H2901 0.930 . S
C2911 C2904 1.409 . S
C2911 C2910 1.362 . S
C1895 C937 1.582 . S
C1900 C52 1.574 . S
C1911 C111 1.575 . S
C1916 C760 1.580 . S
C1927 C170 1.580 . S
C1932 C819 1.575 . S
C1943 C878 1.577 . S
C1948 C229 1.579 . S
C1959 C288 1.575 . S
C1964 C583 1.581 . S
C1975 C347 1.574 . S
C1980 C642 1.581 . S
C1991 C701 1.585 . S
C1996 C406 1.571 . S
C2007 C524 1.583 . S
C2012 C465 1.572 . S
C2023 C996 1.582 . S
C2028 C1881 1.574 . S
C2039 C1055 1.586 . S
C2044 C1704 1.570 . S
C2055 C1114 1.572 . S
C2060 C1763 1.583 . S
C2071 C1822 1.586 . S
C2076 C1173 1.570 . S
C2087 C1232 1.583 . S
C2092 C1527 1.573 . S
C2103 C1291 1.586 . S
C2108 C1586 1.570 . S
C2119 C1645 1.578 . S
C2124 C1350 1.578 . S
C2135 C1409 1.574 . S
C2140 C1468 1.581 . S
C2151 C713 1.527 . S
C2156 C5 1.533 . S
C2167 C64 1.524 . S
C2172 C772 1.535 . S
C2183 C831 1.538 . S
C2188 C123 1.521 . S
C2199 C182 1.521 . S
C2204 C890 1.538 . S
C2215 C241 1.537 . S
C2220 C477 1.522 . S
C2231 C536 1.538 . S
C2236 C300 1.521 . S
C2247 C595 1.527 . S
C2252 C359 1.532 . S
C2263 C654 1.533 . S
C2268 C418 1.526 . S
C2279 C949 1.538 . S
C2284 C1657 1.522 . S
C2295 C1716 1.527 . S
C2300 C1008 1.532 . S
C2311 C1067 1.530 . S
C2316 C1775 1.529 . S
C2327 C1126 1.533 . S
C2332 C1834 1.526 . S
C2343 C1421 1.527 . S
C2348 C1185 1.532 . S
C2359 C1244 1.529 . S
C2364 C1480 1.530 . S
C2375 C1303 1.524 . S
C2380 C1539 1.536 . S
C2391 C1362 1.522 . S
C2396 C1598 1.538 . S
C2407 C33 1.352 . S
C2412 C623 1.335 . S
C2423 C682 1.352 . S
C2428 C92 1.336 . S
C2439 C151 1.356 . S
C2444 C505 1.331 . S
C2455 C564 1.332 . S
C2460 C210 1.355 . S
C2471 C859 1.358 . S
C2476 C269 1.330 . S
C2487 C918 1.359 . S
C2492 C328 1.329 . S
C2503 C741 1.333 . S
C2508 C387 1.355 . S
C2519 C446 1.333 . S
C2524 C800 1.355 . S
C2535 C1567 1.354 . S
C2540 C977 1.334 . S
C2551 C1036 1.358 . S
C2556 C1626 1.330 . S
C2567 C1449 1.344 . S
C2572 C1095 1.343 . S
C2583 C1508 1.334 . S
C2588 C1154 1.353 . S
C2599 C1213 1.348 . S
C2604 C1803 1.339 . S
C2615 C1272 1.334 . S
C2620 C1862 1.353 . S
C2631 C1685 1.329 . S
C2636 C1331 1.358 . S
C2647 C1744 1.328 . S
C2652 C1390 1.359 . S
C2663 C1360 1.370 . S
C2668 C3 1.406 . S
C2679 C1183 1.379 . S
C2684 C62 1.355 . S
C2695 C1242 1.380 . S
C2700 C121 1.402 . S
C2711 C1301 1.357 . S
C2716 C180 1.404 . S
C2727 C1006 1.355 . S
C2732 C239 1.402 . S
C2743 C298 1.395 . S
C2748 C1065 1.351 . S
C2759 C357 1.352 . S
C2764 C1124 1.398 . S
C2775 C416 1.406 . S
C2780 C947 1.365 . S
C2791 C475 1.386 . S
C2796 C1832 1.352 . S
C2807 C1655 1.362 . S
C2812 C534 1.406 . S
C2823 C593 1.398 . S
C2828 C1714 1.352 . S
C2839 C652 1.390 . S
C2844 C1773 1.395 . S
C2855 C1478 1.392 . S
C2860 C711 1.351 . S
C2871 C1537 1.397 . S
C2876 C770 1.387 . S
C2887 C829 1.365 . S
C2892 C1596 1.406 . S
C2903 C888 1.403 . S
C2908 C1419 1.355 . S
