# Generated by pormake.
# Topology vmv, (8)-cn, num edge types: 1
# Building blocks:
#     Node 0, Type 0, BuildingBlock: TAGTUT_clean_sbu_1, # of connection points: 8
#     Node 1, Type 0, BuildingBlock: TAGTUT_clean_sbu_1, # of connection points: 8
#     Node 2, Type 0, BuildingBlock: TAGTUT_clean_sbu_1, # of connection points: 8
#     Node 3, Type 0, BuildingBlock: TAGTUT_clean_sbu_1, # of connection points: 8
#     Edge 4, Type (0, 0), BuildingBlock: FUNLAD_clean_linker_1, # of connection points: 2
#     Edge 5, Type (0, 0), BuildingBlock: FUNLAD_clean_linker_1, # of connection points: 2
#     Edge 6, Type (0, 0), BuildingBlock: FUNLAD_clean_linker_1, # of connection points: 2
#     Edge 7, Type (0, 0), BuildingBlock: FUNLAD_clean_linker_1, # of connection points: 2
#     Edge 8, Type (0, 0), BuildingBlock: FUNLAD_clean_linker_1, # of connection points: 2
#     Edge 9, Type (0, 0), BuildingBlock: FUNLAD_clean_linker_1, # of connection points: 2
#     Edge 10, Type (0, 0), BuildingBlock: FUNLAD_clean_linker_1, # of connection points: 2
#     Edge 11, Type (0, 0), BuildingBlock: FUNLAD_clean_linker_1, # of connection points: 2
#     Edge 12, Type (0, 0), BuildingBlock: FUNLAD_clean_linker_1, # of connection points: 2
#     Edge 13, Type (0, 0), BuildingBlock: FUNLAD_clean_linker_1, # of connection points: 2
#     Edge 14, Type (0, 0), BuildingBlock: FUNLAD_clean_linker_1, # of connection points: 2
#     Edge 15, Type (0, 0), BuildingBlock: FUNLAD_clean_linker_1, # of connection points: 2
#     Edge 16, Type (0, 0), BuildingBlock: FUNLAD_clean_linker_1, # of connection points: 2
#     Edge 17, Type (0, 0), BuildingBlock: FUNLAD_clean_linker_1, # of connection points: 2
#     Edge 18, Type (0, 0), BuildingBlock: FUNLAD_clean_linker_1, # of connection points: 2
#     Edge 19, Type (0, 0), BuildingBlock: FUNLAD_clean_linker_1, # of connection points: 2
# Relax obj value: 0.288
# Max RMSD: 0.289
# Mean RMSD: 0.281
data_MOF--net-vmv--node1-TAGTUT_clean_sbu_1--edge1-FUNLAD_clean_linker_1
_symmetry_space_group_name_H-M    P1
_symmetry_Int_Tables_number       1
_symmetry_cell_setting            triclinic
loop_
_symmetry_equiv_pos_as_xyz
'x, y, z'
_cell_length_a     16.886116
_cell_length_b     32.340823
_cell_length_c     33.238638
_cell_angle_alpha  90.82552
_cell_angle_beta   105.05753
_cell_angle_gamma 87.905786
loop_
_atom_site_label
_atom_site_type_symbol
_atom_site_fract_x
_atom_site_fract_y
_atom_site_fract_z
_atom_type_partial_charge
C0 C 0.30796 0.19598 0.7741 0.0
C1 C 0.52521 0.27135 0.80374 0.0
C2 C 0.33711 0.40755 0.75771 0.0
Mg3 Mg 0.41516 0.2354 0.72243 0.0
O4 O 0.3373 0.27908 0.7227 0.0
Mg5 Mg 0.32506 0.30233 0.77665 0.0
Mg6 Mg 0.35206 0.33032 0.69426 0.0
O7 O 0.37 0.38073 0.66377 0.0
Mg8 Mg 0.30144 0.42763 0.65985 0.0
Mg9 Mg 0.36973 0.35232 0.6096 0.0
C10 C 0.36413 0.25656 0.62588 0.0
C11 C 0.53522 0.32566 0.67962 0.0
O12 O 0.29187 0.23206 0.78824 0.0
O13 O 0.35418 0.19118 0.74926 0.0
O14 O 0.45923 0.28828 0.80909 0.0
O15 O 0.52655 0.25163 0.77017 0.0
O16 O 0.39605 0.2292 0.65365 0.0
O17 O 0.34162 0.29254 0.636 0.0
C18 C 0.16486 0.33142 0.70478 0.0
O19 O 0.21072 0.33948 0.68076 0.0
O20 O 0.19452 0.31722 0.74152 0.0
O21 O 0.40227 0.4133 0.58808 0.0
O22 O 0.35837 0.46616 0.62208 0.0
O23 O 0.23338 0.36928 0.57955 0.0
C24 C 0.39544 0.45194 0.59539 0.0
O25 O 0.18486 0.40993 0.62313 0.0
O26 O 0.31549 0.43202 0.72632 0.0
C27 C 0.17428 0.38901 0.58959 0.0
O28 O 0.35758 0.36882 0.75405 0.0
O29 O 0.4931 0.32081 0.70625 0.0
O30 O 0.50166 0.33666 0.64203 0.0
C31 C 0.96527 0.73238 0.70404 0.0
C32 C 0.21103 0.70051 0.78161 0.0
C33 C 0.11258 0.76018 0.91327 0.0
Mg34 Mg 0.12365 0.78249 0.74157 0.0
O35 O 0.06686 0.78664 0.78393 0.0
Mg36 Mg 0.04286 0.73528 0.81074 0.0
Mg37 Mg 0.1204 0.81815 0.83402 0.0
O38 O 0.17623 0.85082 0.88331 0.0
Mg39 Mg 0.12132 0.85821 0.92497 0.0
Mg40 Mg 0.18721 0.90321 0.85343 0.0
C41 C 0.13911 0.88096 0.7611 0.0
C42 C 0.30742 0.83169 0.82963 0.0
O43 O 0.96503 0.72037 0.74105 0.0
O44 O 0.01983 0.75625 0.69751 0.0
O45 O 0.15224 0.6986 0.79892 0.0
O46 O 0.2188 0.73223 0.76037 0.0
O47 O 0.15129 0.85017 0.73792 0.0
O48 O 0.11327 0.87538 0.79348 0.0
C49 C 0.92932 0.80878 0.83537 0.0
O50 O 0.98992 0.83282 0.84163 0.0
O51 O 0.93541 0.77137 0.82356 0.0
O52 O 0.26535 0.92306 0.91493 0.0
O53 O 0.22084 0.89377 0.96563 0.0
O54 O 0.07806 0.93817 0.87117 0.0
C55 C 0.27105 0.91633 0.95332 0.0
O56 O 0.01326 0.895 0.90148 0.0
O57 O 0.09723 0.79356 0.9316 0.0
C58 C 0.01956 0.93053 0.88745 0.0
O59 O 0.12641 0.76049 0.87661 0.0
O60 O 0.25145 0.80505 0.82604 0.0
O61 O 0.29558 0.8695 0.83883 0.0
C62 C 0.64743 0.53804 0.37357 0.0
C63 C 0.86359 0.60829 0.41135 0.0
C64 C 0.65668 0.73925 0.3905 0.0
Mg65 Mg 0.75506 0.5845 0.32661 0.0
O66 O 0.67167 0.62424 0.3318 0.0
Mg67 Mg 0.66348 0.63983 0.38947 0.0
Mg68 Mg 0.6758 0.68157 0.31056 0.0
O69 O 0.68171 0.73831 0.29108 0.0
Mg70 Mg 0.59566 0.77504 0.29697 0.0
Mg71 Mg 0.69203 0.72418 0.23392 0.0
C72 C 0.69915 0.61921 0.24341 0.0
C73 C 0.86081 0.69198 0.29918 0.0
O74 O 0.63913 0.57232 0.39201 0.0
O75 O 0.68826 0.53401 0.34585 0.0
O76 O 0.80006 0.62394 0.42073 0.0
O77 O 0.8613 0.59452 0.3752 0.0
O78 O 0.76829 0.61352 0.26933 0.0
O79 O 0.662 0.65453 0.24383 0.0
C80 C 0.49369 0.67296 0.32458 0.0
O81 O 0.53595 0.68618 0.30087 0.0
O82 O 0.52769 0.65459 0.35888 0.0
O83 O 0.71147 0.79582 0.22987 0.0
O84 O 0.64481 0.82713 0.27339 0.0
O85 O 0.55548 0.73393 0.20435 0.0
C86 C 0.68894 0.82851 0.24733 0.0
O87 O 0.48499 0.75686 0.2488 0.0
O88 O 0.61978 0.76883 0.36635 0.0
C89 C 0.48745 0.74305 0.21277 0.0
O90 O 0.68596 0.70689 0.37606 0.0
O91 O 0.81693 0.67766 0.32159 0.0
O92 O 0.82818 0.71103 0.2651 0.0
C93 C 0.74235 0.10841 0.06018 0.0
C94 C 0.97306 0.09237 0.1415 0.0
C95 C 0.82817 0.14326 0.25701 0.0
Mg96 Mg 0.88584 0.16772 0.10057 0.0
O97 O 0.8124 0.17461 0.13461 0.0
Mg98 Mg 0.79305 0.1217 0.16201 0.0
Mg99 Mg 0.8587 0.20655 0.1868 0.0
O100 O 0.90492 0.23637 0.23869 0.0
Mg101 Mg 0.84491 0.23942 0.27958 0.0
Mg102 Mg 0.93348 0.28803 0.21493 0.0
C103 C 0.88104 0.26214 0.11246 0.0
C104 C 0.05405 0.2162 0.19417 0.0
O105 O 0.73287 0.10242 0.09662 0.0
O106 O 0.79834 0.13133 0.05347 0.0
O107 O 0.90747 0.0853 0.15212 0.0
O108 O 0.9864 0.12818 0.1306 0.0
O109 O 0.92729 0.23163 0.10677 0.0
O110 O 0.85906 0.26538 0.14689 0.0
C111 C 0.66656 0.19342 0.18062 0.0
O112 O 0.72449 0.21926 0.18903 0.0
O113 O 0.67843 0.15612 0.16966 0.0
O114 O 0.00441 0.30161 0.28552 0.0
O115 O 0.9461 0.26301 0.32546 0.0
O116 O 0.81671 0.32168 0.22245 0.0
C117 C 0.00196 0.28712 0.3212 0.0
O118 O 0.75024 0.28854 0.26156 0.0
O119 O 0.81652 0.17314 0.28107 0.0
C120 C 0.75636 0.31898 0.23857 0.0
O121 O 0.85594 0.14924 0.22522 0.0
O122 O 0.99317 0.19228 0.18524 0.0
O123 O 0.04608 0.25349 0.20589 0.0
H124 H 0.99188 0.58927 0.43796 0.0
C125 C 0.93207 0.59218 0.44452 0.0
H126 H 0.8515 0.56572 0.47448 0.0
H127 H 0.98562 0.38515 0.46845 0.0
H128 H 0.85212 0.3832 0.4185 0.0
H129 H 0.76998 0.44737 0.39687 0.0
H130 H 0.819 0.5138 0.42573 0.0
C131 C 0.91398 0.56603 0.47157 0.0
C132 C 0.96486 0.52776 0.48397 0.0
C133 C 0.93451 0.48922 0.46641 0.0
C134 C 0.98233 0.45221 0.47805 0.0
C135 C 0.95112 0.41408 0.46059 0.0
C136 C 0.87483 0.41255 0.4319 0.0
C137 C 0.82837 0.44873 0.41988 0.0
C138 C 0.85745 0.48669 0.43673 0.0
H139 H 0.0453 0.40806 0.56787 0.0
C140 C 0.09938 0.39922 0.55729 0.0
H141 H 0.1647 0.4099 0.51264 0.0
H142 H 0.0389 0.59615 0.52423 0.0
H143 H 0.17547 0.59818 0.57114 0.0
H144 H 0.26216 0.53457 0.58785 0.0
H145 H 0.21248 0.46842 0.55818 0.0
C146 C 0.10784 0.41543 0.52178 0.0
C147 C 0.0605 0.45397 0.50632 0.0
C148 C 0.09235 0.49263 0.52247 0.0
C149 C 0.04359 0.5295 0.51196 0.0
C150 C 0.07455 0.56738 0.53033 0.0
C151 C 0.15263 0.56895 0.55745 0.0
C152 C 0.20137 0.53309 0.56692 0.0
C153 C 0.17193 0.49531 0.54978 0.0
H154 H 0.71538 0.06936 1.0033 0.0
C155 C 0.68896 0.08484 0.02623 0.0
H156 H 0.58983 0.09176 0.05338 0.0
H157 H 0.41085 0.96682 0.90101 0.0
H158 H 0.43289 0.01683 0.85208 0.0
H159 H 0.51599 0.07787 0.87633 0.0
H160 H 0.57979 0.08836 0.94986 0.0
C161 C 0.61399 0.0757 0.02987 0.0
C162 C 0.57319 0.03688 0.0135 0.0
C163 C 0.53561 0.03166 0.97058 0.0
C164 C 0.48616 0.99694 0.95685 0.0
C165 C 0.44949 0.99231 0.91358 0.0
C166 C 0.46142 0.02095 0.88498 0.0
C167 C 0.50813 0.05533 0.89863 0.0
C168 C 0.54452 0.06093 0.94093 0.0
H169 H 0.33046 0.95357 0.00858 0.0
C170 C 0.34097 0.93497 0.98287 0.0
H171 H 0.42112 0.91589 0.9466 0.0
H172 H 0.65048 0.03343 0.09704 0.0
H173 H 0.63823 0.98032 0.14526 0.0
H174 H 0.54849 0.92142 0.1219 0.0
H175 H 0.47276 0.91472 0.04936 0.0
C176 C 0.41274 0.93545 0.97218 0.0
C177 C 0.47248 0.96847 0.98644 0.0
C178 C 0.5151 0.97206 0.0289 0.0
C179 C 0.56594 0.00622 0.04243 0.0
C180 C 0.60957 0.00864 0.085 0.0
C181 C 0.60321 0.97825 0.11313 0.0
C182 C 0.55299 0.94502 0.09989 0.0
C183 C 0.50943 0.94172 0.05825 0.0
H184 H 0.64582 0.47877 0.40405 0.0
C185 C 0.60665 0.50316 0.38642 0.0
H186 H 0.49351 0.53581 0.37411 0.0
H187 H 0.46102 0.39643 0.51569 0.0
H188 H 0.45302 0.34476 0.46164 0.0
H189 H 0.47335 0.36311 0.39333 0.0
H190 H 0.50062 0.43378 0.37862 0.0
C191 C 0.53115 0.51088 0.39185 0.0
C192 C 0.51307 0.49984 0.43171 0.0
C193 C 0.49946 0.45839 0.44017 0.0
C194 C 0.48922 0.44784 0.47982 0.0
C195 C 0.47171 0.40633 0.48668 0.0
C196 C 0.4664 0.37624 0.45575 0.0
C197 C 0.47779 0.38658 0.41729 0.0
C198 C 0.49385 0.42717 0.40935 0.0
H199 H 0.3868 0.50643 0.55511 0.0
C200 C 0.42509 0.47971 0.56831 0.0
H201 H 0.52542 0.43963 0.56731 0.0
H202 H 0.52184 0.58432 0.42357 0.0
H203 H 0.53753 0.63545 0.47841 0.0
H204 H 0.53855 0.61538 0.54985 0.0
H205 H 0.52116 0.54403 0.56621 0.0
C206 C 0.48818 0.46638 0.55312 0.0
C207 C 0.49564 0.47867 0.51143 0.0
C208 C 0.50934 0.52016 0.50295 0.0
C209 C 0.51426 0.53113 0.46245 0.0
C210 C 0.52247 0.57345 0.45415 0.0
C211 C 0.53063 0.60338 0.48537 0.0
C212 C 0.53075 0.59213 0.52551 0.0
C213 C 0.52008 0.55108 0.53437 0.0
H214 H 0.07512 0.06002 0.12318 0.0
C215 C 0.0102 0.05875 0.12175 0.0
H216 H 0.89406 0.04136 0.08533 0.0
H217 H 0.01779 0.06287 0.92251 0.0
H218 H 0.98849 0.13554 0.934 0.0
H219 H 0.95796 0.15887 0.99948 0.0
H220 H 0.954 0.10976 0.05309 0.0
C221 C 0.96014 0.0393 0.08945 0.0
C222 C 0.98767 0.02606 0.05223 0.0
C223 C 0.98719 0.05526 0.02054 0.0
C224 C 0.005 0.04196 0.98283 0.0
C225 C 0.00467 0.07153 0.95176 0.0
C226 C 0.98797 0.11327 0.95793 0.0
C227 C 0.9706 0.12638 0.99475 0.0
C228 C 0.96906 0.09783 0.0255 0.0
H229 H 0.9242 0.9621 0.91168 0.0
C230 C 0.98646 0.96437 0.90862 0.0
H231 H 0.10535 0.98501 0.93717 0.0
H232 H 0.99573 0.96305 0.10711 0.0
H233 H 0.03231 0.89097 0.09706 0.0
H234 H 0.06801 0.86817 0.03263 0.0
H235 H 0.06777 0.91717 0.97819 0.0
C236 C 0.04102 0.98567 0.93746 0.0
C237 C 0.02258 0.99969 0.9768 0.0
C238 C 0.02672 0.97081 0.00921 0.0
C239 C 0.00785 0.98398 0.04671 0.0
C240 C 0.00988 0.95451 0.07808 0.0
C241 C 0.03097 0.91313 0.07277 0.0
C242 C 0.05105 0.9003 0.0365 0.0
C243 C 0.04976 0.9287 1.0052 0.0
H244 H 0.65714 0.2589 0.83529 0.0
C245 C 0.59957 0.27216 0.83923 0.0
H246 H 0.53648 0.29905 0.88091 0.0
H247 H 0.8357 0.19714 0.01469 0.0
H248 H 0.79119 0.1354 0.97376 0.0
H249 H 0.68215 0.13965 0.90849 0.0
H250 H 0.61977 0.20542 0.8822 0.0
C251 C 0.59401 0.28544 0.87724 0.0
C252 C 0.66212 0.28228 0.91619 0.0
C253 C 0.69543 0.24309 0.93212 0.0
C254 C 0.75532 0.24048 0.97118 0.0
C255 C 0.78949 0.20102 0.98552 0.0
C256 C 0.76421 0.16528 0.96257 0.0
C257 C 0.70307 0.16765 0.92561 0.0
C258 C 0.66841 0.2059 0.9106 0.0
H259 H 0.7638 0.29109 0.07503 0.0
C260 C 0.82357 0.27842 0.07371 0.0
H261 H 0.90085 0.25991 0.03547 0.0
H262 H 0.61179 0.36225 0.89487 0.0
H263 H 0.65402 0.42375 0.93635 0.0
H264 H 0.75436 0.4188 1.00499 0.0
H265 H 0.81299 0.35229 0.03264 0.0
C266 C 0.84117 0.27301 0.03647 0.0
C267 C 0.77829 0.27669 0.9956 0.0
C268 C 0.74446 0.31577 0.9799 0.0
C269 C 0.68666 0.31857 0.94016 0.0
C270 C 0.65493 0.35816 0.92504 0.0
C271 C 0.679 0.39378 0.94843 0.0
C272 C 0.73549 0.39099 0.98708 0.0
C273 C 0.76836 0.35257 1.00269 0.0
H274 H 0.70645 0.77452 0.44784 0.0
C275 C 0.67832 0.74554 0.43637 0.0
H276 H 0.64336 0.68755 0.45001 0.0
H277 H 0.90272 0.65349 0.62054 0.0
H278 H 0.87768 0.58574 0.58883 0.0
H279 H 0.77432 0.57701 0.52202 0.0
H280 H 0.70185 0.63579 0.48437 0.0
C281 C 0.67285 0.71552 0.46341 0.0
C282 C 0.71292 0.71767 0.50989 0.0
C283 C 0.75569 0.68227 0.53143 0.0
C284 C 0.8118 0.68683 0.57163 0.0
C285 C 0.85736 0.65161 0.59099 0.0
C286 C 0.84388 0.61251 0.57303 0.0
C287 C 0.78642 0.60766 0.53514 0.0
C288 C 0.74454 0.64201 0.51389 0.0
H289 H 0.85059 0.70034 0.67269 0.0
C290 C 0.89781 0.71998 0.66752 0.0
H291 H 0.93778 0.75509 0.62392 0.0
H292 H 0.60834 0.78507 0.48893 0.0
H293 H 0.61606 0.85055 0.52624 0.0
H294 H 0.71963 0.86008 0.59305 0.0
H295 H 0.81417 0.80379 0.6236 0.0
C296 C 0.89242 0.73399 0.62864 0.0
C297 C 0.82237 0.72625 0.5912 0.0
C298 C 0.77016 0.75993 0.57258 0.0
C299 C 0.71357 0.75526 0.53272 0.0
C300 C 0.65684 0.78819 0.51725 0.0
C301 C 0.65966 0.82562 0.53876 0.0
C302 C 0.71777 0.83094 0.57645 0.0
C303 C 0.77212 0.79849 0.59347 0.0
H304 H 0.11682 0.70997 0.95793 0.0
C305 C 0.15497 0.72916 0.94466 0.0
H306 H 0.26392 0.76139 0.95585 0.0
H307 H 0.36998 0.80449 0.13872 0.0
H308 H 0.31101 0.86939 0.10962 0.0
H309 H 0.22503 0.87361 0.038 0.0
H310 H 0.20203 0.81263 0.99367 0.0
C311 C 0.23028 0.73893 0.96838 0.0
C312 C 0.25856 0.73343 0.01493 0.0
C313 C 0.27009 0.76928 0.04107 0.0
C314 C 0.31605 0.76656 0.08362 0.0
C315 C 0.33221 0.80364 0.10724 0.0
C316 C 0.29927 0.8416 0.09074 0.0
C317 C 0.25136 0.84398 0.05016 0.0
C318 C 0.2381 0.8086 0.02525 0.0
H319 H 0.35287 0.75008 0.18342 0.0
C320 C 0.4111 0.73886 0.17853 0.0
H321 H 0.47343 0.71234 0.13651 0.0
H322 H 0.24119 0.65818 0.97584 0.0
H323 H 0.28792 0.59142 0.0075 0.0
H324 H 0.35969 0.58621 0.0821 0.0
H325 H 0.38613 0.64786 0.12562 0.0
C326 C 0.41541 0.72512 0.14037 0.0
C327 C 0.3477 0.7276 0.10087 0.0
C328 C 0.3287 0.69136 0.07595 0.0
C329 C 0.28525 0.69426 0.03295 0.0
C330 C 0.27227 0.65765 0.00867 0.0
C331 C 0.29893 0.61917 0.02644 0.0
C332 C 0.33949 0.61623 0.06846 0.0
C333 C 0.35459 0.65179 0.09303 0.0
H334 H 0.10897 0.3211 0.35915 0.0
C335 C 0.06969 0.29515 0.35871 0.0
H336 H 0.04545 0.24279 0.39031 0.0
H337 H 0.42238 0.25821 0.50429 0.0
H338 H 0.46592 0.24829 0.44052 0.0
H339 H 0.36456 0.24867 0.37202 0.0
H340 H 0.2194 0.25979 0.36668 0.0
C341 C 0.08478 0.26886 0.39126 0.0
C342 C 0.14856 0.27437 0.4312 0.0
C343 C 0.23311 0.26705 0.43371 0.0
C344 C 0.29159 0.26592 0.47333 0.0
C345 C 0.37565 0.25925 0.475 0.0
C346 C 0.40135 0.25336 0.43868 0.0
C347 C 0.34427 0.25362 0.40011 0.0
C348 C 0.26104 0.26015 0.39747 0.0
H349 H 0.31756 0.21408 0.57291 0.0
C350 C 0.33956 0.24502 0.58107 0.0
H351 H 0.35166 0.30455 0.55882 0.0
H352 H 0.9928 0.29319 0.43721 0.0
H353 H 0.94965 0.3041 0.50075 0.0
H354 H 0.04991 0.29949 0.56943 0.0
H355 H 0.19344 0.28429 0.57495 0.0
C356 C 0.32657 0.27436 0.55142 0.0
C357 C 0.26532 0.27086 0.51033 0.0
C358 C 0.18083 0.27881 0.50774 0.0
C359 C 0.12277 0.28096 0.46819 0.0
C360 C 0.03924 0.29025 0.46648 0.0
C361 C 0.01361 0.2968 0.5027 0.0
C362 C 0.07003 0.29424 0.54133 0.0
C363 C 0.15257 0.28544 0.54401 0.0
H364 H 0.04812 0.34485 0.657 0.0
C365 C 0.07487 0.33676 0.68945 0.0
H366 H 0.05278 0.32089 0.74697 0.0
H367 H 0.68839 0.40389 0.65661 0.0
H368 H 0.75725 0.46819 0.65571 0.0
H369 H 0.90837 0.46998 0.67604 0.0
H370 H 0.99143 0.40746 0.69703 0.0
C371 C 0.02615 0.32997 0.7148 0.0
C372 C 0.93542 0.32922 0.69986 0.0
C373 C 0.88802 0.36623 0.68797 0.0
C374 C 0.80092 0.36526 0.67681 0.0
C375 C 0.75478 0.4027 0.66518 0.0
C376 C 0.79351 0.43991 0.66468 0.0
C377 C 0.87857 0.44091 0.6761 0.0
C378 C 0.92557 0.40468 0.68787 0.0
H379 H 0.65547 0.31328 0.72498 0.0
C380 C 0.6255 0.32058 0.69267 0.0
H381 H 0.64113 0.33546 0.63345 0.0
H382 H 0.00853 0.2525 0.71976 0.0
H383 H 0.9396 0.18807 0.71981 0.0
H384 H 0.78847 0.18642 0.70002 0.0
H385 H 0.70546 0.24921 0.68029 0.0
C386 C 0.6707 0.32692 0.66548 0.0
C387 C 0.76162 0.32747 0.67825 0.0
C388 C 0.809 0.29038 0.68955 0.0
C389 C 0.89606 0.29131 0.70058 0.0
C390 C 0.94214 0.25374 0.71149 0.0
C391 C 0.90338 0.21646 0.71146 0.0
C392 C 0.81831 0.21553 0.70033 0.0
C393 C 0.77136 0.2519 0.6893 0.0
H394 H 0.4045 0.78577 0.82354 0.0
C395 C 0.38958 0.8186 0.8254 0.0
H396 H 0.43231 0.87952 0.82861 0.0
H397 H 0.80343 0.837 0.91003 0.0
H398 H 0.76391 0.87548 0.96519 0.0
H399 H 0.61898 0.89595 0.95886 0.0
H400 H 0.51287 0.87761 0.89759 0.0
C401 C 0.447 0.84673 0.82616 0.0
C402 C 0.53418 0.835 0.8289 0.0
C403 C 0.59585 0.84657 0.8648 0.0
C404 C 0.67963 0.83542 0.86818 0.0
C405 C 0.73928 0.84574 0.90517 0.0
C406 C 0.71734 0.8676 0.93729 0.0
C407 C 0.63578 0.87908 0.93375 0.0
C408 C 0.57545 0.86849 0.89822 0.0
H409 H 0.83833 0.85808 0.84156 0.0
C410 C 0.84886 0.82484 0.83964 0.0
H411 H 0.79844 0.76575 0.83648 0.0
H412 H 0.43274 0.81329 0.7534 0.0
H413 H 0.47266 0.7769 0.6972 0.0
H414 H 0.61763 0.75697 0.70318 0.0
H415 H 0.72343 0.77351 0.76529 0.0
C416 C 0.78782 0.79894 0.83894 0.0
C417 C 0.70163 0.81349 0.8352 0.0
C418 C 0.64015 0.80301 0.79881 0.0
C419 C 0.55642 0.81401 0.79552 0.0
C420 C 0.49689 0.80455 0.75818 0.0
C421 C 0.51905 0.78395 0.72545 0.0
C422 C 0.60064 0.77275 0.7288 0.0
C423 C 0.66075 0.78226 0.76483 0.0
H424 H 0.97611 0.6643 0.33869 0.0
C425 C 0.95086 0.68457 0.31231 0.0
H426 H 0.97659 0.72107 0.26544 0.0
H427 H 0.34423 0.69674 0.40115 0.0
H428 H 0.28412 0.73191 0.45143 0.0
H429 H 0.13624 0.75047 0.43412 0.0
H430 H 0.04756 0.73362 0.36661 0.0
C431 C 0.00166 0.70148 0.29235 0.0
C432 C 0.09176 0.69123 0.30322 0.0
C433 C 0.14324 0.70208 0.3427 0.0
C434 C 0.22901 0.69215 0.35237 0.0
C435 C 0.27875 0.70329 0.39208 0.0
C436 C 0.24512 0.7237 0.42126 0.0
C437 C 0.16186 0.73409 0.41153 0.0
C438 C 0.1114 0.72381 0.3727 0.0
H439 H 0.37715 0.70008 0.28583 0.0
C440 C 0.40361 0.68008 0.31228 0.0
H441 H 0.3803 0.64334 0.35965 0.0
H442 H 0.01127 0.66637 0.2245 0.0
H443 H 0.07146 0.63121 0.17422 0.0
H444 H 0.21943 0.61288 0.19147 0.0
H445 H 0.30805 0.62983 0.25896 0.0
C446 C 0.3541 0.66284 0.33278 0.0
C447 C 0.2638 0.67237 0.32225 0.0
C448 C 0.2123 0.66136 0.28284 0.0
C449 C 0.12652 0.67124 0.27319 0.0
C450 C 0.07679 0.65994 0.23353 0.0
C451 C 0.11046 0.63952 0.20437 0.0
C452 C 0.19376 0.62925 0.21405 0.0
C453 C 0.24419 0.63961 0.25286 0.0
H454 H 0.14105 0.16962 0.17837 0.0
C455 C 0.135 0.2009 0.18989 0.0
H456 H 0.19421 0.25695 0.20955 0.0
H457 H 0.52273 0.13325 0.23669 0.0
H458 H 0.47419 0.10029 0.29039 0.0
H459 H 0.33769 0.11884 0.30062 0.0
H460 H 0.24863 0.17008 0.25687 0.0
C461 C 0.20037 0.22524 0.19921 0.0
C462 C 0.28095 0.21207 0.19213 0.0
C463 C 0.3323 0.18215 0.21819 0.0
C464 C 0.41139 0.17182 0.21261 0.0
C465 C 0.46179 0.14205 0.23926 0.0
C466 C 0.43487 0.12302 0.27039 0.0
C467 C 0.35801 0.13343 0.27611 0.0
C468 C 0.30726 0.16278 0.25059 0.0
H469 H 0.57414 0.23795 0.19447 0.0
C470 C 0.58401 0.20655 0.18423 0.0
H471 H 0.5317 0.14843 0.16662 0.0
H472 H 0.197 0.27005 0.13639 0.0
H473 H 0.24453 0.30207 0.08181 0.0
H474 H 0.38067 0.28324 0.07134 0.0
H475 H 0.47029 0.23257 0.11556 0.0
C476 C 0.52171 0.18024 0.17565 0.0
C477 C 0.43933 0.19181 0.1814 0.0
C478 C 0.38745 0.22123 0.15491 0.0
C479 C 0.30846 0.23162 0.16055 0.0
C480 C 0.2578 0.26114 0.13368 0.0
C481 C 0.28415 0.27965 0.10208 0.0
C482 C 0.36082 0.26907 0.09622 0.0
C483 C 0.41194 0.2401 0.12206 0.0
H484 H 0.2194 0.16179 0.79975 0.0
C485 C 0.26761 0.15831 0.78365 0.0
H486 H 0.33388 0.11759 0.75306 0.0
H487 H 0.19338 0.97429 0.8522 0.0
H488 H 0.24991 0.0111 0.91632 0.0
H489 H 0.30785 0.07974 0.91524 0.0
H490 H 0.30807 0.11179 0.85009 0.0
C491 C 0.28676 0.12039 0.76993 0.0
C492 C 0.24187 0.08143 0.77162 0.0
C493 C 0.24422 0.06235 0.81003 0.0
C494 C 0.21207 0.02211 0.81054 0.0
C495 C 0.21568 1.00441 0.84965 0.0
C496 C 0.24842 0.02531 0.88683 0.0
C497 C 0.28079 0.06398 0.88623 0.0
C498 C 0.28001 0.08215 0.84843 0.0
H499 H 0.20986 0.92581 0.73512 0.0
C500 C 0.16809 0.92308 0.75481 0.0
H501 H 0.10319 0.95395 0.79315 0.0
H502 H 0.21982 0.11043 0.69256 0.0
H503 H 0.15261 0.07601 0.62825 0.0
H504 H 0.09244 0.00783 0.62911 0.0
H505 H 0.10018 0.97341 0.6941 0.0
C506 C 0.14564 0.95738 0.77396 0.0
C507 C 0.17862 1.00016 0.77261 0.0
C508 C 0.17173 0.0206 0.7342 0.0
C509 C 0.20439 0.06073 0.73377 0.0
C510 C 0.19699 0.07996 0.69485 0.0
C511 C 0.15791 0.0607 0.65763 0.0
C512 C 0.12419 0.02228 0.65812 0.0
C513 C 0.13018 1.00254 0.69579 0.0
H514 H 0.28543 0.43356 0.80548 0.0
C515 C 0.34409 0.42855 0.79812 0.0
H516 H 0.45658 0.45397 0.80006 0.0
H517 H 0.28181 0.61986 0.72251 0.0
H518 H 0.34178 0.59235 0.66897 0.0
H519 H 0.41988 0.52584 0.67848 0.0
H520 H 0.43406 0.48535 0.74037 0.0
C521 C 0.39781 0.45954 0.80716 0.0
C522 C 0.36786 0.50411 0.80631 0.0
C523 C 0.36618 0.52926 0.77112 0.0
C524 C 0.32663 0.56942 0.76697 0.0
C525 C 0.31628 0.59092 0.72899 0.0
C526 C 0.34958 0.57519 0.69754 0.0
C527 C 0.39297 0.53759 0.70275 0.0
C528 C 0.4007 0.51464 0.73874 0.0
H529 H 0.32802 0.66708 0.77944 0.0
C530 C 0.26832 0.66371 0.78539 0.0
H531 H 0.18456 0.62368 0.80032 0.0
H532 H 0.37048 0.46711 0.87975 0.0
H533 H 0.32173 0.49722 0.93665 0.0
H534 H 0.26339 0.56856 0.93215 0.0
H535 H 0.25293 0.61021 0.8709 0.0
C536 C 0.24482 0.62605 0.79469 0.0
C537 C 0.29577 0.58635 0.79982 0.0
C538 C 0.30391 0.56244 0.83644 0.0
C539 C 0.33848 0.52127 0.83933 0.0
C540 C 0.3441 0.49826 0.87591 0.0
C541 C 0.31678 0.51524 0.90885 0.0
C542 C 0.28394 0.55541 0.90633 0.0
C543 C 0.2777 0.57889 0.87077 0.0
H544 H 0.75292 0.87124 0.21556 0.0
C545 C 0.71715 0.86938 0.23831 0.0
H546 H 0.66517 0.90222 0.28124 0.0
H547 H 0.95247 0.03169 0.27058 0.0
H548 H 0.05052 0.97596 0.29812 0.0
H549 H 0.00411 0.90593 0.30649 0.0
H550 H 0.85974 0.89112 0.28696 0.0
C551 C 0.70227 0.90373 0.25907 0.0
C552 C 0.73179 0.94529 0.25229 0.0
C553 C 0.81677 0.95349 0.2645 0.0
C554 C 0.84349 0.99412 0.2605 0.0
C555 C 0.92867 1.00144 0.27282 0.0
C556 C 0.98571 0.96976 0.28886 0.0
C557 C 0.95958 0.93033 0.29352 0.0
C558 C 0.87627 0.92218 0.28182 0.0
H559 H 0.76589 0.09778 0.28652 0.0
C560 C 0.80004 0.1016 0.26332 0.0
H561 H 0.85236 0.07181 0.21894 0.0
H562 H 0.56479 0.94013 0.22572 0.0
H563 H 0.46699 0.99575 0.19719 0.0
H564 H 0.51362 0.06577 0.18905 0.0
H565 H 0.65802 0.08082 0.21006 0.0
C566 C 0.81451 0.06878 0.2405 0.0
C567 C 0.78532 0.0267 0.24532 0.0
C568 C 0.70046 0.01844 0.23264 0.0
C569 C 0.6737 0.97781 0.23659 0.0
C570 C 0.58856 0.97043 0.22373 0.0
C571 C 0.53172 1.00204 0.20709 0.0
C572 C 0.55797 0.04148 0.20254 0.0
C573 C 0.64119 0.04974 0.21498 0.0
H574 H 0.69278 0.37204 0.20334 0.0
C575 C 0.69733 0.3545 0.23162 0.0
H576 H 0.68453 0.35802 0.29283 0.0
H577 H 0.81953 0.53775 0.28279 0.0
H578 H 0.93247 0.50333 0.33198 0.0
H579 H 0.92512 0.43019 0.35014 0.0
H580 H 0.80383 0.39153 0.31976 0.0
C581 C 0.6739 0.37351 0.26301 0.0
C582 C 0.66582 0.41964 0.26194 0.0
C583 C 0.73534 0.44252 0.28175 0.0
C584 C 0.73933 0.48471 0.2713 0.0
C585 C 0.81206 0.5059 0.28977 0.0
C586 C 0.87784 0.48642 0.31804 0.0
C587 C 0.87372 0.44528 0.32825 0.0
C588 C 0.80358 0.42344 0.31045 0.0
H589 H 0.59778 0.58072 0.25093 0.0
C590 C 0.65007 0.5816 0.23764 0.0
H591 H 0.7379 0.54877 0.2144 0.0
H592 H 0.51963 0.38622 0.22421 0.0
H593 H 0.40275 0.42126 0.17668 0.0
H594 H 0.40838 0.49476 0.15892 0.0
H595 H 0.53051 0.53376 0.18837 0.0
C596 C 0.68431 0.54636 0.22658 0.0
C597 C 0.67224 0.50462 0.24225 0.0
C598 C 0.59976 0.4827 0.22541 0.0
C599 C 0.59676 0.44008 0.23523 0.0
C600 C 0.52482 0.41845 0.21723 0.0
C601 C 0.45754 0.43822 0.19013 0.0
C602 C 0.46068 0.47965 0.18018 0.0
C603 C 0.53098 0.50174 0.19737 0.0
loop_
_geom_bond_atom_site_label_1
_geom_bond_atom_site_label_2
_geom_bond_distance
_geom_bond_site_symmetry_2
_ccdc_geom_bond_type
C0 O12 1.241 . S
C0 O13 1.280 . S
C1 O14 1.277 . S
C1 O15 1.245 . S
C2 O26 1.247 . S
C2 O28 1.289 . S
Mg3 O4 1.926 . S
Mg3 O13 1.984 . S
Mg3 O15 1.988 . S
Mg3 O16 2.061 . S
O4 Mg3 1.926 . S
O4 Mg5 1.986 . S
O4 Mg6 1.917 . S
Mg5 O4 1.986 . S
Mg5 O12 2.042 . S
Mg5 O14 2.041 . S
Mg5 O20 2.038 . S
Mg5 O28 2.238 . S
Mg6 O4 1.917 . S
Mg6 O7 1.917 . S
Mg6 O17 2.106 . S
Mg6 O19 2.079 . S
Mg6 O28 2.106 . S
Mg6 O29 2.079 . S
O7 Mg6 1.917 . S
O7 Mg8 1.926 . S
O7 Mg9 1.986 . S
Mg8 O7 1.926 . S
Mg8 O22 1.984 . S
Mg8 O25 1.988 . S
Mg8 O26 2.061 . S
Mg9 O7 1.986 . S
Mg9 O17 2.238 . S
Mg9 O21 2.042 . S
Mg9 O23 2.041 . S
Mg9 O30 2.038 . S
C10 O16 1.247 . S
C10 O17 1.289 . S
C11 O29 1.245 . S
C11 O30 1.274 . S
O12 C0 1.241 . S
O12 Mg5 2.042 . S
O13 C0 1.280 . S
O13 Mg3 1.984 . S
O14 C1 1.277 . S
O14 Mg5 2.041 . S
O15 C1 1.245 . S
O15 Mg3 1.988 . S
O16 Mg3 2.061 . S
O16 C10 1.247 . S
O17 Mg6 2.106 . S
O17 Mg9 2.238 . S
O17 C10 1.289 . S
C18 O19 1.245 . S
C18 O20 1.274 . S
O19 Mg6 2.079 . S
O19 C18 1.245 . S
O20 Mg5 2.038 . S
O20 C18 1.274 . S
O21 Mg9 2.042 . S
O21 C24 1.241 . S
O22 Mg8 1.984 . S
O22 C24 1.280 . S
O23 Mg9 2.041 . S
O23 C27 1.277 . S
C24 O21 1.241 . S
C24 O22 1.280 . S
O25 Mg8 1.988 . S
O25 C27 1.245 . S
O26 C2 1.247 . S
O26 Mg8 2.061 . S
C27 O23 1.277 . S
C27 O25 1.245 . S
O28 C2 1.289 . S
O28 Mg5 2.238 . S
O28 Mg6 2.106 . S
O29 Mg6 2.079 . S
O29 C11 1.245 . S
O30 Mg9 2.038 . S
O30 C11 1.274 . S
C31 O43 1.241 . S
C31 O44 1.280 . S
C32 O45 1.277 . S
C32 O46 1.245 . S
C33 O57 1.247 . S
C33 O59 1.289 . S
Mg34 O35 1.926 . S
Mg34 O44 1.984 . S
Mg34 O46 1.988 . S
Mg34 O47 2.061 . S
O35 Mg34 1.926 . S
O35 Mg36 1.986 . S
O35 Mg37 1.917 . S
Mg36 O35 1.986 . S
Mg36 O43 2.042 . S
Mg36 O45 2.041 . S
Mg36 O51 2.038 . S
Mg36 O59 2.238 . S
Mg37 O35 1.917 . S
Mg37 O38 1.917 . S
Mg37 O48 2.106 . S
Mg37 O50 2.079 . S
Mg37 O59 2.106 . S
Mg37 O60 2.079 . S
O38 Mg37 1.917 . S
O38 Mg39 1.926 . S
O38 Mg40 1.986 . S
Mg39 O38 1.926 . S
Mg39 O53 1.984 . S
Mg39 O56 1.988 . S
Mg39 O57 2.061 . S
Mg40 O38 1.986 . S
Mg40 O48 2.238 . S
Mg40 O52 2.042 . S
Mg40 O54 2.041 . S
Mg40 O61 2.038 . S
C41 O47 1.247 . S
C41 O48 1.289 . S
C42 O60 1.245 . S
C42 O61 1.274 . S
O43 C31 1.241 . S
O43 Mg36 2.042 . S
O44 C31 1.280 . S
O44 Mg34 1.984 . S
O45 C32 1.277 . S
O45 Mg36 2.041 . S
O46 C32 1.245 . S
O46 Mg34 1.988 . S
O47 Mg34 2.061 . S
O47 C41 1.247 . S
O48 Mg37 2.106 . S
O48 Mg40 2.238 . S
O48 C41 1.289 . S
C49 O50 1.245 . S
C49 O51 1.274 . S
O50 Mg37 2.079 . S
O50 C49 1.245 . S
O51 Mg36 2.038 . S
O51 C49 1.274 . S
O52 Mg40 2.042 . S
O52 C55 1.241 . S
O53 Mg39 1.984 . S
O53 C55 1.280 . S
O54 Mg40 2.041 . S
O54 C58 1.277 . S
C55 O52 1.241 . S
C55 O53 1.280 . S
O56 Mg39 1.988 . S
O56 C58 1.245 . S
O57 C33 1.247 . S
O57 Mg39 2.061 . S
C58 O54 1.277 . S
C58 O56 1.245 . S
O59 C33 1.289 . S
O59 Mg36 2.238 . S
O59 Mg37 2.106 . S
O60 Mg37 2.079 . S
O60 C42 1.245 . S
O61 Mg40 2.038 . S
O61 C42 1.274 . S
C62 O74 1.241 . S
C62 O75 1.280 . S
C63 O76 1.277 . S
C63 O77 1.245 . S
C64 O88 1.247 . S
C64 O90 1.289 . S
Mg65 O66 1.926 . S
Mg65 O75 1.984 . S
Mg65 O77 1.988 . S
Mg65 O78 2.061 . S
O66 Mg65 1.926 . S
O66 Mg67 1.986 . S
O66 Mg68 1.917 . S
Mg67 O66 1.986 . S
Mg67 O74 2.042 . S
Mg67 O76 2.041 . S
Mg67 O82 2.038 . S
Mg67 O90 2.238 . S
Mg68 O66 1.917 . S
Mg68 O69 1.917 . S
Mg68 O79 2.106 . S
Mg68 O81 2.079 . S
Mg68 O90 2.106 . S
Mg68 O91 2.079 . S
O69 Mg68 1.917 . S
O69 Mg70 1.926 . S
O69 Mg71 1.986 . S
Mg70 O69 1.926 . S
Mg70 O84 1.984 . S
Mg70 O87 1.988 . S
Mg70 O88 2.061 . S
Mg71 O69 1.986 . S
Mg71 O79 2.238 . S
Mg71 O83 2.042 . S
Mg71 O85 2.041 . S
Mg71 O92 2.038 . S
C72 O78 1.247 . S
C72 O79 1.289 . S
C73 O91 1.245 . S
C73 O92 1.274 . S
O74 C62 1.241 . S
O74 Mg67 2.042 . S
O75 C62 1.280 . S
O75 Mg65 1.984 . S
O76 C63 1.277 . S
O76 Mg67 2.041 . S
O77 C63 1.245 . S
O77 Mg65 1.988 . S
O78 Mg65 2.061 . S
O78 C72 1.247 . S
O79 Mg68 2.106 . S
O79 Mg71 2.238 . S
O79 C72 1.289 . S
C80 O81 1.245 . S
C80 O82 1.274 . S
O81 Mg68 2.079 . S
O81 C80 1.245 . S
O82 Mg67 2.038 . S
O82 C80 1.274 . S
O83 Mg71 2.042 . S
O83 C86 1.241 . S
O84 Mg70 1.984 . S
O84 C86 1.280 . S
O85 Mg71 2.041 . S
O85 C89 1.277 . S
C86 O83 1.241 . S
C86 O84 1.280 . S
O87 Mg70 1.988 . S
O87 C89 1.245 . S
O88 C64 1.247 . S
O88 Mg70 2.061 . S
C89 O85 1.277 . S
C89 O87 1.245 . S
O90 C64 1.289 . S
O90 Mg67 2.238 . S
O90 Mg68 2.106 . S
O91 Mg68 2.079 . S
O91 C73 1.245 . S
O92 Mg71 2.038 . S
O92 C73 1.274 . S
C93 O105 1.241 . S
C93 O106 1.280 . S
C94 O107 1.277 . S
C94 O108 1.245 . S
C95 O119 1.247 . S
C95 O121 1.289 . S
Mg96 O97 1.926 . S
Mg96 O106 1.984 . S
Mg96 O108 1.988 . S
Mg96 O109 2.061 . S
O97 Mg96 1.926 . S
O97 Mg98 1.986 . S
O97 Mg99 1.917 . S
Mg98 O97 1.986 . S
Mg98 O105 2.042 . S
Mg98 O107 2.041 . S
Mg98 O113 2.038 . S
Mg98 O121 2.238 . S
Mg99 O97 1.917 . S
Mg99 O100 1.917 . S
Mg99 O110 2.106 . S
Mg99 O112 2.079 . S
Mg99 O121 2.106 . S
Mg99 O122 2.079 . S
O100 Mg99 1.917 . S
O100 Mg101 1.926 . S
O100 Mg102 1.986 . S
Mg101 O100 1.926 . S
Mg101 O115 1.984 . S
Mg101 O118 1.988 . S
Mg101 O119 2.061 . S
Mg102 O100 1.986 . S
Mg102 O110 2.238 . S
Mg102 O114 2.042 . S
Mg102 O116 2.041 . S
Mg102 O123 2.038 . S
C103 O109 1.247 . S
C103 O110 1.289 . S
C104 O122 1.245 . S
C104 O123 1.274 . S
O105 C93 1.241 . S
O105 Mg98 2.042 . S
O106 C93 1.280 . S
O106 Mg96 1.984 . S
O107 C94 1.277 . S
O107 Mg98 2.041 . S
O108 C94 1.245 . S
O108 Mg96 1.988 . S
O109 Mg96 2.061 . S
O109 C103 1.247 . S
O110 Mg99 2.106 . S
O110 Mg102 2.238 . S
O110 C103 1.289 . S
C111 O112 1.245 . S
C111 O113 1.274 . S
O112 Mg99 2.079 . S
O112 C111 1.245 . S
O113 Mg98 2.038 . S
O113 C111 1.274 . S
O114 Mg102 2.042 . S
O114 C117 1.241 . S
O115 Mg101 1.984 . S
O115 C117 1.280 . S
O116 Mg102 2.041 . S
O116 C120 1.277 . S
C117 O114 1.241 . S
C117 O115 1.280 . S
O118 Mg101 1.988 . S
O118 C120 1.245 . S
O119 C95 1.247 . S
O119 Mg101 2.061 . S
C120 O116 1.277 . S
C120 O118 1.245 . S
O121 C95 1.289 . S
O121 Mg98 2.238 . S
O121 Mg99 2.106 . S
O122 Mg99 2.079 . S
O122 C104 1.245 . S
O123 Mg102 2.038 . S
O123 C104 1.274 . S
H124 C125 0.951 . S
C125 H124 0.951 . S
C125 C131 1.265 . S
H126 C131 0.950 . S
H127 C135 0.949 . S
H128 C136 0.950 . S
H129 C137 0.951 . S
H130 C138 0.951 . S
C131 C125 1.265 . S
C131 H126 0.950 . S
C131 C132 1.478 . S
C132 C131 1.478 . S
C132 C133 1.397 . S
C132 C149 1.394 . S
C133 C132 1.397 . S
C133 C134 1.438 1_655 S
C133 C138 1.429 . S
C134 C133 1.438 1_455 S
C134 C135 1.428 . S
C134 C147 1.394 . S
C135 H127 0.949 . S
C135 C134 1.428 . S
C135 C136 1.345 1_455 S
C136 H128 0.950 . S
C136 C135 1.345 1_655 S
C136 C137 1.424 . S
C137 H129 0.951 . S
C137 C136 1.424 . S
C137 C138 1.347 . S
C138 H130 0.951 . S
C138 C133 1.429 . S
C138 C137 1.347 . S
H139 C140 0.951 . S
C140 H139 0.951 . S
C140 C146 1.265 . S
H141 C146 0.950 . S
H142 C150 0.949 . S
H143 C151 0.950 . S
H144 C152 0.951 . S
H145 C153 0.951 . S
C146 C140 1.265 . S
C146 H141 0.950 . S
C146 C147 1.478 . S
C147 C134 1.394 . S
C147 C146 1.478 . S
C147 C148 1.397 . S
C148 C147 1.397 . S
C148 C149 1.438 1_455 S
C148 C153 1.429 . S
C149 C132 1.394 . S
C149 C148 1.438 1_655 S
C149 C150 1.428 . S
C150 H142 0.949 . S
C150 C149 1.428 . S
C150 C151 1.345 1_655 S
C151 H143 0.950 . S
C151 C150 1.345 1_455 S
C151 C152 1.424 . S
C152 H144 0.951 . S
C152 C151 1.424 . S
C152 C153 1.347 . S
C153 H145 0.951 . S
C153 C148 1.429 . S
C153 C152 1.347 . S
H154 C155 0.951 . S
C155 H154 0.951 . S
C155 C161 1.265 1_554 S
H156 C161 0.950 . S
H157 C165 0.949 . S
H158 C166 0.950 . S
H159 C167 0.951 . S
H160 C168 0.951 . S
C161 C155 1.265 1_556 S
C161 H156 0.950 . S
C161 C162 1.478 . S
C162 C161 1.478 . S
C162 C163 1.397 . S
C162 C179 1.394 1_556 S
C163 C162 1.397 . S
C163 C164 1.438 1_545 S
C163 C168 1.429 . S
C164 C163 1.438 1_565 S
C164 C165 1.428 . S
C164 C177 1.394 1_556 S
C165 H157 0.949 . S
C165 C164 1.428 . S
C165 C166 1.345 . S
C166 H158 0.950 . S
C166 C165 1.345 . S
C166 C167 1.424 1_565 S
C167 H159 0.951 . S
C167 C166 1.424 1_545 S
C167 C168 1.347 . S
C168 H160 0.951 . S
C168 C163 1.429 . S
C168 C167 1.347 . S
H169 C170 0.951 . S
C170 H169 0.951 . S
C170 C176 1.265 1_556 S
H171 C176 0.950 . S
H172 C180 0.949 . S
H173 C181 0.950 . S
H174 C182 0.951 . S
H175 C183 0.951 . S
C176 C170 1.265 1_554 S
C176 H171 0.950 . S
C176 C177 1.478 . S
C177 C164 1.394 1_554 S
C177 C176 1.478 . S
C177 C178 1.397 . S
C178 C177 1.397 . S
C178 C179 1.438 1_565 S
C178 C183 1.429 . S
C179 C162 1.394 1_554 S
C179 C178 1.438 1_545 S
C179 C180 1.428 . S
C180 H172 0.949 . S
C180 C179 1.428 . S
C180 C181 1.345 . S
C181 H173 0.950 . S
C181 C180 1.345 . S
C181 C182 1.424 1_545 S
C182 H174 0.951 . S
C182 C181 1.424 1_565 S
C182 C183 1.347 . S
C183 H175 0.951 . S
C183 C178 1.429 . S
C183 C182 1.347 . S
H184 C185 0.951 . S
C185 H184 0.951 . S
C185 C191 1.265 . S
H186 C191 0.950 . S
H187 C195 0.949 . S
H188 C196 0.950 . S
H189 C197 0.951 . S
H190 C198 0.951 . S
C191 C185 1.265 . S
C191 H186 0.950 . S
C191 C192 1.478 . S
C192 C191 1.478 . S
C192 C193 1.397 . S
C192 C209 1.394 . S
C193 C192 1.397 . S
C193 C194 1.438 . S
C193 C198 1.429 . S
C194 C193 1.438 . S
C194 C195 1.428 . S
C194 C207 1.394 . S
C195 H187 0.949 . S
C195 C194 1.428 . S
C195 C196 1.345 . S
C196 H188 0.950 . S
C196 C195 1.345 . S
C196 C197 1.424 . S
C197 H189 0.951 . S
C197 C196 1.424 . S
C197 C198 1.347 . S
C198 H190 0.951 . S
C198 C193 1.429 . S
C198 C197 1.347 . S
H199 C200 0.951 . S
C200 H199 0.951 . S
C200 C206 1.265 . S
H201 C206 0.950 . S
H202 C210 0.949 . S
H203 C211 0.950 . S
H204 C212 0.951 . S
H205 C213 0.951 . S
C206 C200 1.265 . S
C206 H201 0.950 . S
C206 C207 1.478 . S
C207 C194 1.394 . S
C207 C206 1.478 . S
C207 C208 1.397 . S
C208 C207 1.397 . S
C208 C209 1.438 . S
C208 C213 1.429 . S
C209 C192 1.394 . S
C209 C208 1.438 . S
C209 C210 1.428 . S
C210 H202 0.949 . S
C210 C209 1.428 . S
C210 C211 1.345 . S
C211 H203 0.950 . S
C211 C210 1.345 . S
C211 C212 1.424 . S
C212 H204 0.951 . S
C212 C211 1.424 . S
C212 C213 1.347 . S
C213 H205 0.951 . S
C213 C208 1.429 . S
C213 C212 1.347 . S
H214 C215 0.951 . S
C215 H214 0.951 . S
C215 C221 1.265 . S
H216 C221 0.950 . S
H217 C225 0.949 . S
H218 C226 0.950 . S
H219 C227 0.951 . S
H220 C228 0.951 . S
C221 C215 1.265 . S
C221 H216 0.950 . S
C221 C222 1.478 . S
C222 C221 1.478 . S
C222 C223 1.397 1_554 S
C222 C239 1.394 1_545 S
C223 C222 1.397 1_556 S
C223 C224 1.438 1_655 S
C223 C228 1.429 . S
C224 C223 1.438 1_455 S
C224 C225 1.428 . S
C224 C237 1.394 1_545 S
C225 H217 0.949 . S
C225 C224 1.428 . S
C225 C226 1.345 1_455 S
C226 H218 0.950 . S
C226 C225 1.345 1_655 S
C226 C227 1.424 . S
C227 H219 0.951 . S
C227 C226 1.424 . S
C227 C228 1.347 . S
C228 H220 0.951 . S
C228 C223 1.429 . S
C228 C227 1.347 . S
H229 C230 0.951 . S
C230 H229 0.951 . S
C230 C236 1.265 . S
H231 C236 0.950 . S
H232 C240 0.949 . S
H233 C241 0.950 . S
H234 C242 0.951 . S
H235 C243 0.951 . S
C236 C230 1.265 . S
C236 H231 0.950 . S
C236 C237 1.478 . S
C237 C224 1.394 1_565 S
C237 C236 1.478 . S
C237 C238 1.397 1_556 S
C238 C237 1.397 1_554 S
C238 C239 1.438 1_455 S
C238 C243 1.429 . S
C239 C222 1.394 1_565 S
C239 C238 1.438 1_655 S
C239 C240 1.428 . S
C240 H232 0.949 . S
C240 C239 1.428 . S
C240 C241 1.345 1_655 S
C241 H233 0.950 . S
C241 C240 1.345 1_455 S
C241 C242 1.424 . S
C242 H234 0.951 . S
C242 C241 1.424 . S
C242 C243 1.347 . S
C243 H235 0.951 . S
C243 C238 1.429 . S
C243 C242 1.347 . S
H244 C245 0.951 . S
C245 H244 0.951 . S
C245 C251 1.265 . S
H246 C251 0.950 . S
H247 C255 0.949 . S
H248 C256 0.950 . S
H249 C257 0.951 . S
H250 C258 0.951 . S
C251 C245 1.265 . S
C251 H246 0.950 . S
C251 C252 1.478 . S
C252 C251 1.478 . S
C252 C253 1.397 . S
C252 C269 1.394 . S
C253 C252 1.397 . S
C253 C254 1.438 . S
C253 C258 1.429 . S
C254 C253 1.438 . S
C254 C255 1.428 . S
C254 C267 1.394 . S
C255 H247 0.949 . S
C255 C254 1.428 . S
C255 C256 1.345 . S
C256 H248 0.950 . S
C256 C255 1.345 . S
C256 C257 1.424 . S
C257 H249 0.951 . S
C257 C256 1.424 . S
C257 C258 1.347 . S
C258 H250 0.951 . S
C258 C253 1.429 . S
C258 C257 1.347 . S
H259 C260 0.951 . S
C260 H259 0.951 . S
C260 C266 1.265 . S
H261 C266 0.950 . S
H262 C270 0.949 . S
H263 C271 0.950 . S
H264 C272 0.951 . S
H265 C273 0.951 . S
C266 C260 1.265 . S
C266 H261 0.950 . S
C266 C267 1.478 1_554 S
C267 C254 1.394 . S
C267 C266 1.478 1_556 S
C267 C268 1.397 . S
C268 C267 1.397 . S
C268 C269 1.438 . S
C268 C273 1.429 . S
C269 C252 1.394 . S
C269 C268 1.438 . S
C269 C270 1.428 . S
C270 H262 0.949 . S
C270 C269 1.428 . S
C270 C271 1.345 . S
C271 H263 0.950 . S
C271 C270 1.345 . S
C271 C272 1.424 . S
C272 H264 0.951 . S
C272 C271 1.424 . S
C272 C273 1.347 . S
C273 H265 0.951 . S
C273 C268 1.429 . S
C273 C272 1.347 . S
H274 C275 0.951 . S
C275 H274 0.951 . S
C275 C281 1.265 . S
H276 C281 0.950 . S
H277 C285 0.949 . S
H278 C286 0.950 . S
H279 C287 0.951 . S
H280 C288 0.951 . S
C281 C275 1.265 . S
C281 H276 0.950 . S
C281 C282 1.478 . S
C282 C281 1.478 . S
C282 C283 1.397 . S
C282 C299 1.394 . S
C283 C282 1.397 . S
C283 C284 1.438 . S
C283 C288 1.429 . S
C284 C283 1.438 . S
C284 C285 1.428 . S
C284 C297 1.394 . S
C285 H277 0.949 . S
C285 C284 1.428 . S
C285 C286 1.345 . S
C286 H278 0.950 . S
C286 C285 1.345 . S
C286 C287 1.424 . S
C287 H279 0.951 . S
C287 C286 1.424 . S
C287 C288 1.347 . S
C288 H280 0.951 . S
C288 C283 1.429 . S
C288 C287 1.347 . S
H289 C290 0.951 . S
C290 H289 0.951 . S
C290 C296 1.265 . S
H291 C296 0.950 1_455 S
H292 C300 0.949 . S
H293 C301 0.950 . S
H294 C302 0.951 . S
H295 C303 0.951 . S
C296 C290 1.265 . S
C296 H291 0.950 1_655 S
C296 C297 1.478 . S
C297 C284 1.394 . S
C297 C296 1.478 . S
C297 C298 1.397 . S
C298 C297 1.397 . S
C298 C299 1.438 . S
C298 C303 1.429 . S
C299 C282 1.394 . S
C299 C298 1.438 . S
C299 C300 1.428 . S
C300 H292 0.949 . S
C300 C299 1.428 . S
C300 C301 1.345 . S
C301 H293 0.950 . S
C301 C300 1.345 . S
C301 C302 1.424 . S
C302 H294 0.951 . S
C302 C301 1.424 . S
C302 C303 1.347 . S
C303 H295 0.951 . S
C303 C298 1.429 . S
C303 C302 1.347 . S
H304 C305 0.951 . S
C305 H304 0.951 . S
C305 C311 1.265 . S
H306 C311 0.950 . S
H307 C315 0.949 . S
H308 C316 0.950 . S
H309 C317 0.951 . S
H310 C318 0.951 . S
C311 C305 1.265 . S
C311 H306 0.950 . S
C311 C312 1.478 1_556 S
C312 C311 1.478 1_554 S
C312 C313 1.397 . S
C312 C329 1.394 . S
C313 C312 1.397 . S
C313 C314 1.438 . S
C313 C318 1.429 . S
C314 C313 1.438 . S
C314 C315 1.428 . S
C314 C327 1.394 . S
C315 H307 0.949 . S
C315 C314 1.428 . S
C315 C316 1.345 . S
C316 H308 0.950 . S
C316 C315 1.345 . S
C316 C317 1.424 . S
C317 H309 0.951 . S
C317 C316 1.424 . S
C317 C318 1.347 . S
C318 H310 0.951 . S
C318 C313 1.429 . S
C318 C317 1.347 . S
H319 C320 0.951 . S
C320 H319 0.951 . S
C320 C326 1.265 . S
H321 C326 0.950 . S
H322 C330 0.949 1_556 S
H323 C331 0.950 . S
H324 C332 0.951 . S
H325 C333 0.951 . S
C326 C320 1.265 . S
C326 H321 0.950 . S
C326 C327 1.478 . S
C327 C314 1.394 . S
C327 C326 1.478 . S
C327 C328 1.397 . S
C328 C327 1.397 . S
C328 C329 1.438 . S
C328 C333 1.429 . S
C329 C312 1.394 . S
C329 C328 1.438 . S
C329 C330 1.428 . S
C330 H322 0.949 1_554 S
C330 C329 1.428 . S
C330 C331 1.345 . S
C331 H323 0.950 . S
C331 C330 1.345 . S
C331 C332 1.424 . S
C332 H324 0.951 . S
C332 C331 1.424 . S
C332 C333 1.347 . S
C333 H325 0.951 . S
C333 C328 1.429 . S
C333 C332 1.347 . S
H334 C335 0.951 1_655 S
C335 H334 0.951 1_455 S
C335 C341 1.265 . S
H336 C341 0.950 . S
H337 C345 0.949 . S
H338 C346 0.950 . S
H339 C347 0.951 . S
H340 C348 0.951 . S
C341 C335 1.265 . S
C341 H336 0.950 . S
C341 C342 1.478 . S
C342 C341 1.478 . S
C342 C343 1.397 . S
C342 C359 1.394 . S
C343 C342 1.397 . S
C343 C344 1.438 . S
C343 C348 1.429 . S
C344 C343 1.438 . S
C344 C345 1.428 . S
C344 C357 1.394 . S
C345 H337 0.949 . S
C345 C344 1.428 . S
C345 C346 1.345 . S
C346 H338 0.950 . S
C346 C345 1.345 . S
C346 C347 1.424 . S
C347 H339 0.951 . S
C347 C346 1.424 . S
C347 C348 1.347 . S
C348 H340 0.951 . S
C348 C343 1.429 . S
C348 C347 1.347 . S
H349 C350 0.951 . S
C350 H349 0.951 . S
C350 C356 1.265 . S
H351 C356 0.950 . S
H352 C360 0.949 . S
H353 C361 0.950 . S
H354 C362 0.951 . S
H355 C363 0.951 . S
C356 C350 1.265 . S
C356 H351 0.950 . S
C356 C357 1.478 . S
C357 C344 1.394 . S
C357 C356 1.478 . S
C357 C358 1.397 . S
C358 C357 1.397 . S
C358 C359 1.438 . S
C358 C363 1.429 . S
C359 C342 1.394 . S
C359 C358 1.438 . S
C359 C360 1.428 . S
C360 H352 0.949 . S
C360 C359 1.428 . S
C360 C361 1.345 1_455 S
C361 H353 0.950 . S
C361 C360 1.345 1_655 S
C361 C362 1.424 . S
C362 H354 0.951 . S
C362 C361 1.424 . S
C362 C363 1.347 1_655 S
C363 H355 0.951 . S
C363 C358 1.429 . S
C363 C362 1.347 1_455 S
H364 C365 0.951 1_655 S
C365 H364 0.951 1_455 S
C365 C371 1.265 1_455 S
H366 C371 0.950 . S
H367 C375 0.949 . S
H368 C376 0.950 . S
H369 C377 0.951 . S
H370 C378 0.951 . S
C371 C365 1.265 1_655 S
C371 H366 0.950 . S
C371 C372 1.478 . S
C372 C371 1.478 . S
C372 C373 1.397 . S
C372 C389 1.394 . S
C373 C372 1.397 . S
C373 C374 1.438 . S
C373 C378 1.429 . S
C374 C373 1.438 . S
C374 C375 1.428 . S
C374 C387 1.394 . S
C375 H367 0.949 . S
C375 C374 1.428 . S
C375 C376 1.345 . S
C376 H368 0.950 . S
C376 C375 1.345 . S
C376 C377 1.424 . S
C377 H369 0.951 . S
C377 C376 1.424 . S
C377 C378 1.347 . S
C378 H370 0.951 . S
C378 C373 1.429 . S
C378 C377 1.347 . S
H379 C380 0.951 . S
C380 H379 0.951 . S
C380 C386 1.265 . S
H381 C386 0.950 . S
H382 C390 0.949 . S
H383 C391 0.950 . S
H384 C392 0.951 . S
H385 C393 0.951 . S
C386 C380 1.265 . S
C386 H381 0.950 . S
C386 C387 1.478 . S
C387 C374 1.394 . S
C387 C386 1.478 . S
C387 C388 1.397 . S
C388 C387 1.397 . S
C388 C389 1.438 . S
C388 C393 1.429 . S
C389 C372 1.394 . S
C389 C388 1.438 . S
C389 C390 1.428 . S
C390 H382 0.949 . S
C390 C389 1.428 . S
C390 C391 1.345 . S
C391 H383 0.950 . S
C391 C390 1.345 . S
C391 C392 1.424 . S
C392 H384 0.951 . S
C392 C391 1.424 . S
C392 C393 1.347 . S
C393 H385 0.951 . S
C393 C388 1.429 . S
C393 C392 1.347 . S
H394 C395 0.951 . S
C395 H394 0.951 . S
C395 C401 1.265 . S
H396 C401 0.950 . S
H397 C405 0.949 . S
H398 C406 0.950 . S
H399 C407 0.951 . S
H400 C408 0.951 . S
C401 C395 1.265 . S
C401 H396 0.950 . S
C401 C402 1.478 . S
C402 C401 1.478 . S
C402 C403 1.397 . S
C402 C419 1.394 . S
C403 C402 1.397 . S
C403 C404 1.438 . S
C403 C408 1.429 . S
C404 C403 1.438 . S
C404 C405 1.428 . S
C404 C417 1.394 . S
C405 H397 0.949 . S
C405 C404 1.428 . S
C405 C406 1.345 . S
C406 H398 0.950 . S
C406 C405 1.345 . S
C406 C407 1.424 . S
C407 H399 0.951 . S
C407 C406 1.424 . S
C407 C408 1.347 . S
C408 H400 0.951 . S
C408 C403 1.429 . S
C408 C407 1.347 . S
H409 C410 0.951 . S
C410 H409 0.951 . S
C410 C416 1.265 . S
H411 C416 0.950 . S
H412 C420 0.949 . S
H413 C421 0.950 . S
H414 C422 0.951 . S
H415 C423 0.951 . S
C416 C410 1.265 . S
C416 H411 0.950 . S
C416 C417 1.478 . S
C417 C404 1.394 . S
C417 C416 1.478 . S
C417 C418 1.397 . S
C418 C417 1.397 . S
C418 C419 1.438 . S
C418 C423 1.429 . S
C419 C402 1.394 . S
C419 C418 1.438 . S
C419 C420 1.428 . S
C420 H412 0.949 . S
C420 C419 1.428 . S
C420 C421 1.345 . S
C421 H413 0.950 . S
C421 C420 1.345 . S
C421 C422 1.424 . S
C422 H414 0.951 . S
C422 C421 1.424 . S
C422 C423 1.347 . S
C423 H415 0.951 . S
C423 C418 1.429 . S
C423 C422 1.347 . S
H424 C425 0.951 . S
C425 H424 0.951 . S
C425 C431 1.265 1_655 S
H426 C431 0.950 . S
H427 C435 0.949 . S
H428 C436 0.950 . S
H429 C437 0.951 . S
H430 C438 0.951 . S
C431 C425 1.265 1_455 S
C431 H426 0.950 . S
C431 C432 1.478 . S
C432 C431 1.478 . S
C432 C433 1.397 . S
C432 C449 1.394 . S
C433 C432 1.397 . S
C433 C434 1.438 . S
C433 C438 1.429 . S
C434 C433 1.438 . S
C434 C435 1.428 . S
C434 C447 1.394 . S
C435 H427 0.949 . S
C435 C434 1.428 . S
C435 C436 1.345 . S
C436 H428 0.950 . S
C436 C435 1.345 . S
C436 C437 1.424 . S
C437 H429 0.951 . S
C437 C436 1.424 . S
C437 C438 1.347 . S
C438 H430 0.951 . S
C438 C433 1.429 . S
C438 C437 1.347 . S
H439 C440 0.951 . S
C440 H439 0.951 . S
C440 C446 1.265 . S
H441 C446 0.950 . S
H442 C450 0.949 . S
H443 C451 0.950 . S
H444 C452 0.951 . S
H445 C453 0.951 . S
C446 C440 1.265 . S
C446 H441 0.950 . S
C446 C447 1.478 . S
C447 C434 1.394 . S
C447 C446 1.478 . S
C447 C448 1.397 . S
C448 C447 1.397 . S
C448 C449 1.438 . S
C448 C453 1.429 . S
C449 C432 1.394 . S
C449 C448 1.438 . S
C449 C450 1.428 . S
C450 H442 0.949 . S
C450 C449 1.428 . S
C450 C451 1.345 . S
C451 H443 0.950 . S
C451 C450 1.345 . S
C451 C452 1.424 . S
C452 H444 0.951 . S
C452 C451 1.424 . S
C452 C453 1.347 . S
C453 H445 0.951 . S
C453 C448 1.429 . S
C453 C452 1.347 . S
H454 C455 0.951 . S
C455 H454 0.951 . S
C455 C461 1.265 . S
H456 C461 0.950 . S
H457 C465 0.949 . S
H458 C466 0.950 . S
H459 C467 0.951 . S
H460 C468 0.951 . S
C461 C455 1.265 . S
C461 H456 0.950 . S
C461 C462 1.478 . S
C462 C461 1.478 . S
C462 C463 1.397 . S
C462 C479 1.394 . S
C463 C462 1.397 . S
C463 C464 1.438 . S
C463 C468 1.429 . S
C464 C463 1.438 . S
C464 C465 1.428 . S
C464 C477 1.394 . S
C465 H457 0.949 . S
C465 C464 1.428 . S
C465 C466 1.345 . S
C466 H458 0.950 . S
C466 C465 1.345 . S
C466 C467 1.424 . S
C467 H459 0.951 . S
C467 C466 1.424 . S
C467 C468 1.347 . S
C468 H460 0.951 . S
C468 C463 1.429 . S
C468 C467 1.347 . S
H469 C470 0.951 . S
C470 H469 0.951 . S
C470 C476 1.265 . S
H471 C476 0.950 . S
H472 C480 0.949 . S
H473 C481 0.950 . S
H474 C482 0.951 . S
H475 C483 0.951 . S
C476 C470 1.265 . S
C476 H471 0.950 . S
C476 C477 1.478 . S
C477 C464 1.394 . S
C477 C476 1.478 . S
C477 C478 1.397 . S
C478 C477 1.397 . S
C478 C479 1.438 . S
C478 C483 1.429 . S
C479 C462 1.394 . S
C479 C478 1.438 . S
C479 C480 1.428 . S
C480 H472 0.949 . S
C480 C479 1.428 . S
C480 C481 1.345 . S
C481 H473 0.950 . S
C481 C480 1.345 . S
C481 C482 1.424 . S
C482 H474 0.951 . S
C482 C481 1.424 . S
C482 C483 1.347 . S
C483 H475 0.951 . S
C483 C478 1.429 . S
C483 C482 1.347 . S
H484 C485 0.951 . S
C485 H484 0.951 . S
C485 C491 1.265 . S
H486 C491 0.950 . S
H487 C495 0.949 . S
H488 C496 0.950 . S
H489 C497 0.951 . S
H490 C498 0.951 . S
C491 C485 1.265 . S
C491 H486 0.950 . S
C491 C492 1.478 . S
C492 C491 1.478 . S
C492 C493 1.397 . S
C492 C509 1.394 . S
C493 C492 1.397 . S
C493 C494 1.438 . S
C493 C498 1.429 . S
C494 C493 1.438 . S
C494 C495 1.428 . S
C494 C507 1.394 . S
C495 H487 0.949 . S
C495 C494 1.428 . S
C495 C496 1.345 . S
C496 H488 0.950 . S
C496 C495 1.345 . S
C496 C497 1.424 . S
C497 H489 0.951 . S
C497 C496 1.424 . S
C497 C498 1.347 . S
C498 H490 0.951 . S
C498 C493 1.429 . S
C498 C497 1.347 . S
H499 C500 0.951 . S
C500 H499 0.951 . S
C500 C506 1.265 . S
H501 C506 0.950 . S
H502 C510 0.949 . S
H503 C511 0.950 . S
H504 C512 0.951 . S
H505 C513 0.951 1_565 S
C506 C500 1.265 . S
C506 H501 0.950 . S
C506 C507 1.478 1_565 S
C507 C494 1.394 . S
C507 C506 1.478 1_545 S
C507 C508 1.397 . S
C508 C507 1.397 . S
C508 C509 1.438 . S
C508 C513 1.429 . S
C509 C492 1.394 . S
C509 C508 1.438 . S
C509 C510 1.428 . S
C510 H502 0.949 . S
C510 C509 1.428 . S
C510 C511 1.345 . S
C511 H503 0.950 . S
C511 C510 1.345 . S
C511 C512 1.424 . S
C512 H504 0.951 . S
C512 C511 1.424 . S
C512 C513 1.347 . S
C513 H505 0.951 1_545 S
C513 C508 1.429 . S
C513 C512 1.347 . S
H514 C515 0.951 . S
C515 H514 0.951 . S
C515 C521 1.265 . S
H516 C521 0.950 . S
H517 C525 0.949 . S
H518 C526 0.950 . S
H519 C527 0.951 . S
H520 C528 0.951 . S
C521 C515 1.265 . S
C521 H516 0.950 . S
C521 C522 1.478 . S
C522 C521 1.478 . S
C522 C523 1.397 . S
C522 C539 1.394 . S
C523 C522 1.397 . S
C523 C524 1.438 . S
C523 C528 1.429 . S
C524 C523 1.438 . S
C524 C525 1.428 . S
C524 C537 1.394 . S
C525 H517 0.949 . S
C525 C524 1.428 . S
C525 C526 1.345 . S
C526 H518 0.950 . S
C526 C525 1.345 . S
C526 C527 1.424 . S
C527 H519 0.951 . S
C527 C526 1.424 . S
C527 C528 1.347 . S
C528 H520 0.951 . S
C528 C523 1.429 . S
C528 C527 1.347 . S
H529 C530 0.951 . S
C530 H529 0.951 . S
C530 C536 1.265 . S
H531 C536 0.950 . S
H532 C540 0.949 . S
H533 C541 0.950 . S
H534 C542 0.951 . S
H535 C543 0.951 . S
C536 C530 1.265 . S
C536 H531 0.950 . S
C536 C537 1.478 . S
C537 C524 1.394 . S
C537 C536 1.478 . S
C537 C538 1.397 . S
C538 C537 1.397 . S
C538 C539 1.438 . S
C538 C543 1.429 . S
C539 C522 1.394 . S
C539 C538 1.438 . S
C539 C540 1.428 . S
C540 H532 0.949 . S
C540 C539 1.428 . S
C540 C541 1.345 . S
C541 H533 0.950 . S
C541 C540 1.345 . S
C541 C542 1.424 . S
C542 H534 0.951 . S
C542 C541 1.424 . S
C542 C543 1.347 . S
C543 H535 0.951 . S
C543 C538 1.429 . S
C543 C542 1.347 . S
H544 C545 0.951 . S
C545 H544 0.951 . S
C545 C551 1.265 . S
H546 C551 0.950 . S
H547 C555 0.949 . S
H548 C556 0.950 . S
H549 C557 0.951 . S
H550 C558 0.951 . S
C551 C545 1.265 . S
C551 H546 0.950 . S
C551 C552 1.478 . S
C552 C551 1.478 . S
C552 C553 1.397 . S
C552 C569 1.394 . S
C553 C552 1.397 . S
C553 C554 1.438 . S
C553 C558 1.429 . S
C554 C553 1.438 . S
C554 C555 1.428 . S
C554 C567 1.394 . S
C555 H547 0.949 . S
C555 C554 1.428 . S
C555 C556 1.345 . S
C556 H548 0.950 . S
C556 C555 1.345 . S
C556 C557 1.424 . S
C557 H549 0.951 . S
C557 C556 1.424 . S
C557 C558 1.347 . S
C558 H550 0.951 . S
C558 C553 1.429 . S
C558 C557 1.347 . S
H559 C560 0.951 . S
C560 H559 0.951 . S
C560 C566 1.265 . S
H561 C566 0.950 . S
H562 C570 0.949 . S
H563 C571 0.950 . S
H564 C572 0.951 . S
H565 C573 0.951 1_545 S
C566 C560 1.265 . S
C566 H561 0.950 . S
C566 C567 1.478 1_545 S
C567 C554 1.394 . S
C567 C566 1.478 1_565 S
C567 C568 1.397 . S
C568 C567 1.397 . S
C568 C569 1.438 . S
C568 C573 1.429 . S
C569 C552 1.394 . S
C569 C568 1.438 . S
C569 C570 1.428 . S
C570 H562 0.949 . S
C570 C569 1.428 . S
C570 C571 1.345 . S
C571 H563 0.950 . S
C571 C570 1.345 . S
C571 C572 1.424 . S
C572 H564 0.951 . S
C572 C571 1.424 . S
C572 C573 1.347 . S
C573 H565 0.951 1_565 S
C573 C568 1.429 . S
C573 C572 1.347 . S
H574 C575 0.951 . S
C575 H574 0.951 . S
C575 C581 1.265 . S
H576 C581 0.950 . S
H577 C585 0.949 . S
H578 C586 0.950 . S
H579 C587 0.951 . S
H580 C588 0.951 . S
C581 C575 1.265 . S
C581 H576 0.950 . S
C581 C582 1.478 . S
C582 C581 1.478 . S
C582 C583 1.397 . S
C582 C599 1.394 . S
C583 C582 1.397 . S
C583 C584 1.438 . S
C583 C588 1.429 . S
C584 C583 1.438 . S
C584 C585 1.428 . S
C584 C597 1.394 . S
C585 H577 0.949 . S
C585 C584 1.428 . S
C585 C586 1.345 . S
C586 H578 0.950 . S
C586 C585 1.345 . S
C586 C587 1.424 . S
C587 H579 0.951 . S
C587 C586 1.424 . S
C587 C588 1.347 . S
C588 H580 0.951 . S
C588 C583 1.429 . S
C588 C587 1.347 . S
H589 C590 0.951 . S
C590 H589 0.951 . S
C590 C596 1.265 . S
H591 C596 0.950 . S
H592 C600 0.949 . S
H593 C601 0.950 . S
H594 C602 0.951 . S
H595 C603 0.951 . S
C596 C590 1.265 . S
C596 H591 0.950 . S
C596 C597 1.478 . S
C597 C584 1.394 . S
C597 C596 1.478 . S
C597 C598 1.397 . S
C598 C597 1.397 . S
C598 C599 1.438 . S
C598 C603 1.429 . S
C599 C582 1.394 . S
C599 C598 1.438 . S
C599 C600 1.428 . S
C600 H592 0.949 . S
C600 C599 1.428 . S
C600 C601 1.345 . S
C601 H593 0.950 . S
C601 C600 1.345 . S
C601 C602 1.424 . S
C602 H594 0.951 . S
C602 C601 1.424 . S
C602 C603 1.347 . S
C603 H595 0.951 . S
C603 C598 1.429 . S
C603 C602 1.347 . S
C125 C63 0.821 . S
C140 C27 0.821 . S
C155 C93 0.548 . S
C170 C55 0.548 . S
C185 C62 0.558 . S
C200 C24 0.558 . S
C215 C94 0.765 . S
C230 C58 0.765 . S
C245 C1 1.814 . S
C260 C103 1.655 . S
C275 C64 2.003 . S
C290 C31 1.910 1_655 S
C305 C33 1.629 . S
C320 C89 1.735 . S
C335 C117 1.814 1_455 S
C350 C10 1.976 . S
C365 C18 1.730 . S
C380 C11 1.730 . S
C395 C42 1.702 . S
C410 C49 1.702 1_655 S
C425 C73 1.668 . S
C440 C80 1.668 . S
C455 C104 1.713 1_455 S
C470 C111 1.713 . S
C485 C0 1.948 . S
C500 C41 1.960 . S
C515 C2 1.508 . S
C530 C32 1.746 . S
C545 C86 1.855 . S
C560 C95 2.025 . S
C575 C120 1.683 . S
C590 C72 1.522 . S
