# Generated by pormake.
# Topology umb, (4)-cn, num edge types: 1
# Building blocks:
#     Node 0, Type 0, BuildingBlock: MUDLON_clean_sbu_0, # of connection points: 4
#     Node 1, Type 0, BuildingBlock: MUDLON_clean_sbu_0, # of connection points: 4
#     Node 2, Type 0, BuildingBlock: MUDLON_clean_sbu_0, # of connection points: 4
#     Node 3, Type 0, BuildingBlock: MUDLON_clean_sbu_0, # of connection points: 4
#     Node 4, Type 0, BuildingBlock: MUDLON_clean_sbu_0, # of connection points: 4
#     Node 5, Type 0, BuildingBlock: MUDLON_clean_sbu_0, # of connection points: 4
#     Node 6, Type 0, BuildingBlock: MUDLON_clean_sbu_0, # of connection points: 4
#     Node 7, Type 0, BuildingBlock: MUDLON_clean_sbu_0, # of connection points: 4
#     Node 8, Type 0, BuildingBlock: MUDLON_clean_sbu_0, # of connection points: 4
#     Node 9, Type 0, BuildingBlock: MUDLON_clean_sbu_0, # of connection points: 4
#     Node 10, Type 0, BuildingBlock: MUDLON_clean_sbu_0, # of connection points: 4
#     Node 11, Type 0, BuildingBlock: MUDLON_clean_sbu_0, # of connection points: 4
#     Edge 12, Type (0, 0), BuildingBlock: MIFKUJ_clean_linker_0, # of connection points: 2
#     Edge 13, Type (0, 0), BuildingBlock: MIFKUJ_clean_linker_0, # of connection points: 2
#     Edge 14, Type (0, 0), BuildingBlock: MIFKUJ_clean_linker_0, # of connection points: 2
#     Edge 15, Type (0, 0), BuildingBlock: MIFKUJ_clean_linker_0, # of connection points: 2
#     Edge 16, Type (0, 0), BuildingBlock: MIFKUJ_clean_linker_0, # of connection points: 2
#     Edge 17, Type (0, 0), BuildingBlock: MIFKUJ_clean_linker_0, # of connection points: 2
#     Edge 18, Type (0, 0), BuildingBlock: MIFKUJ_clean_linker_0, # of connection points: 2
#     Edge 19, Type (0, 0), BuildingBlock: MIFKUJ_clean_linker_0, # of connection points: 2
#     Edge 20, Type (0, 0), BuildingBlock: MIFKUJ_clean_linker_0, # of connection points: 2
#     Edge 21, Type (0, 0), BuildingBlock: MIFKUJ_clean_linker_0, # of connection points: 2
#     Edge 22, Type (0, 0), BuildingBlock: MIFKUJ_clean_linker_0, # of connection points: 2
#     Edge 23, Type (0, 0), BuildingBlock: MIFKUJ_clean_linker_0, # of connection points: 2
#     Edge 24, Type (0, 0), BuildingBlock: MIFKUJ_clean_linker_0, # of connection points: 2
#     Edge 25, Type (0, 0), BuildingBlock: MIFKUJ_clean_linker_0, # of connection points: 2
#     Edge 26, Type (0, 0), BuildingBlock: MIFKUJ_clean_linker_0, # of connection points: 2
#     Edge 27, Type (0, 0), BuildingBlock: MIFKUJ_clean_linker_0, # of connection points: 2
#     Edge 28, Type (0, 0), BuildingBlock: MIFKUJ_clean_linker_0, # of connection points: 2
#     Edge 29, Type (0, 0), BuildingBlock: MIFKUJ_clean_linker_0, # of connection points: 2
#     Edge 30, Type (0, 0), BuildingBlock: MIFKUJ_clean_linker_0, # of connection points: 2
#     Edge 31, Type (0, 0), BuildingBlock: MIFKUJ_clean_linker_0, # of connection points: 2
#     Edge 32, Type (0, 0), BuildingBlock: MIFKUJ_clean_linker_0, # of connection points: 2
#     Edge 33, Type (0, 0), BuildingBlock: MIFKUJ_clean_linker_0, # of connection points: 2
#     Edge 34, Type (0, 0), BuildingBlock: MIFKUJ_clean_linker_0, # of connection points: 2
#     Edge 35, Type (0, 0), BuildingBlock: MIFKUJ_clean_linker_0, # of connection points: 2
# Relax obj value: 0.250
# Max RMSD: 0.216
# Mean RMSD: 0.216
data_MOF--net-umb--node1-MUDLON_clean_sbu_0--edge1-MIFKUJ_clean_linker_0
_symmetry_space_group_name_H-M    P1
_symmetry_Int_Tables_number       1
_symmetry_cell_setting            triclinic
loop_
_symmetry_equiv_pos_as_xyz
'x, y, z'
_cell_length_a     61.983237
_cell_length_b     62.050597
_cell_length_c     52.225882
_cell_angle_alpha  90.263682
_cell_angle_beta   89.933479
_cell_angle_gamma 119.70177
loop_
_atom_site_label
_atom_site_type_symbol
_atom_site_fract_x
_atom_site_fract_y
_atom_site_fract_z
_atom_type_partial_charge
Mg0 Mg 0.52776 0.16538 0.34574 0.0
C1 C 0.57796 0.18303 0.31848 0.0
O2 O 0.56481 0.17159 0.29808 0.0
C3 C 0.5277 0.118 0.34499 0.0
O4 O 0.54943 0.13341 0.35506 0.0
C5 C 0.50933 0.17413 0.29604 0.0
O6 O 0.50972 0.15357 0.291 0.0
O7 O 0.5144 0.18293 0.3187 0.0
O8 O 0.56709 0.18294 0.33914 0.0
O9 O 0.52526 0.17091 0.38679 0.0
C10 C 0.54313 0.18975 0.39758 0.0
O11 O 0.5604 0.20693 0.38314 0.0
O12 O 0.51328 0.12618 0.33871 0.0
Mg13 Mg 0.34248 0.52844 0.68296 0.0
C14 C 0.33796 0.53872 0.73937 0.0
O15 O 0.32932 0.55239 0.72952 0.0
C16 C 0.30634 0.49975 0.64024 0.0
O17 O 0.32419 0.49494 0.63466 0.0
C18 C 0.36642 0.49707 0.67056 0.0
O19 O 0.34633 0.47945 0.6815 0.0
O20 O 0.36889 0.51852 0.66811 0.0
O21 O 0.34231 0.52491 0.72462 0.0
O22 O 0.35966 0.56779 0.67729 0.0
C23 C 0.34695 0.57787 0.67102 0.0
O24 O 0.32302 0.56382 0.66681 0.0
O25 O 0.30796 0.51166 0.66075 0.0
Mg26 Mg 0.8039 0.37009 1.01262 0.0
C27 C 0.80203 0.41557 1.02589 0.0
O28 O 0.82136 0.41874 0.03923 0.0
C29 C 0.85154 0.40934 0.98917 0.0
O30 O 0.8366 0.41731 0.98136 0.0
C31 C 0.78624 0.34603 0.96206 0.0
O32 O 0.80127 0.36943 0.95641 0.0
O33 O 0.78295 0.33978 0.98555 0.0
O34 O 0.79109 0.39669 1.01128 0.0
O35 O 0.80007 0.36168 0.05346 0.0
C36 C 0.81952 0.37216 0.06732 0.0
O37 O 0.84129 0.38333 0.05601 0.0
O38 O 0.84273 0.38943 1.00205 0.0
Mg39 Mg 0.46572 0.81632 0.35451 0.0
C40 C 0.41377 0.79324 0.32782 0.0
O41 O 0.4251 0.80551 0.30707 0.0
C42 C 0.46113 0.86165 0.34587 0.0
O43 O 0.43775 0.84502 0.3496 0.0
C44 C 0.483 0.80801 0.30446 0.0
O45 O 0.47704 0.82515 0.29952 0.0
O46 O 0.48209 0.80119 0.32761 0.0
O47 O 0.42625 0.79465 0.34767 0.0
O48 O 0.46816 0.81219 0.39613 0.0
C49 C 0.4506 0.81303 0.40805 0.0
O50 O 0.43476 0.81666 0.3947 0.0
O51 O 0.47749 0.85497 0.34662 0.0
Mg52 Mg 0.61162 0.44974 0.67865 0.0
C53 C 0.63218 0.45937 0.73263 0.0
O54 O 0.64657 0.45151 0.72278 0.0
C55 C 0.63639 0.44947 0.63084 0.0
O56 O 0.61366 0.43073 0.62852 0.0
C57 C 0.58395 0.47573 0.65991 0.0
O58 O 0.60517 0.49591 0.6647 0.0
O59 O 0.58212 0.45466 0.66336 0.0
O60 O 0.61846 0.46354 0.71777 0.0
O61 O 0.59498 0.41025 0.68402 0.0
C62 C 0.60809 0.39982 0.68568 0.0
O63 O 0.63224 0.41311 0.68246 0.0
O64 O 0.64216 0.46237 0.65131 0.0
Mg65 Mg 0.16336 0.61071 1.00428 0.0
C66 C 0.20522 0.60282 0.99293 0.0
O67 O 0.21605 0.62707 0.99528 0.0
C68 C 0.11554 0.56584 0.98976 0.0
O69 O 0.13025 0.55625 0.99064 0.0
C70 C 0.18016 0.64026 0.95759 0.0
O71 O 0.16561 0.61734 0.94976 0.0
O72 O 0.18232 0.64456 0.9816 0.0
O73 O 0.18175 0.59021 0.99412 0.0
O74 O 0.16666 0.61234 0.04615 0.0
C75 C 0.1621 0.59151 0.05541 0.0
O76 O 0.15575 0.57281 0.03957 0.0
O77 O 0.12453 0.58889 0.99405 0.0
Mg78 Mg 0.8135 0.46153 0.37439 0.0
C79 C 0.8301 0.4649 0.32126 0.0
O80 O 0.84568 0.4607 0.33441 0.0
C81 C 0.80052 0.47475 0.42442 0.0
O82 O 0.81835 0.46999 0.43024 0.0
C83 C 0.86914 0.49067 0.38676 0.0
O84 O 0.86822 0.50913 0.3756 0.0
O85 O 0.84942 0.46987 0.3889 0.0
O86 O 0.81464 0.46895 0.33345 0.0
O87 O 0.79249 0.42183 0.37294 0.0
C88 C 0.76956 0.41223 0.36788 0.0
O89 O 0.75961 0.42661 0.36669 0.0
O90 O 0.79451 0.4739 0.40097 0.0
Mg91 Mg 0.38615 0.82584 0.72569 0.0
C92 C 0.43299 0.827 0.7516 0.0
O93 O 0.45337 0.83868 0.76535 0.0
C94 C 0.38994 0.87087 0.69904 0.0
O95 O 0.38986 0.85866 0.67841 0.0
C96 C 0.35434 0.80694 0.77208 0.0
O97 O 0.37305 0.82808 0.78003 0.0
O98 O 0.35403 0.80058 0.74881 0.0
O99 O 0.41982 0.83731 0.74839 0.0
O100 O 0.38984 0.8124 0.68789 0.0
C101 C 0.41137 0.82318 0.67778 0.0
O102 O 0.42992 0.84059 0.69095 0.0
O103 O 0.38632 0.86044 0.72072 0.0
Mg104 Mg 0.54693 0.36331 0.03927 0.0
C105 C 0.59532 0.40974 0.05663 0.0
O106 O 0.58312 0.42173 0.05276 0.0
C107 C 0.52173 0.39114 0.06273 0.0
O108 O 0.52428 0.38261 0.0848 0.0
C109 C 0.53772 0.33613 0.08797 0.0
O110 O 0.55277 0.35942 0.0942 0.0
O111 O 0.53097 0.33091 0.06465 0.0
O112 O 0.58467 0.38649 0.05253 0.0
O113 O 0.54864 0.3582 0.99783 0.0
C114 C 0.56986 0.36663 0.98735 0.0
O115 O 0.58946 0.37426 1.00214 0.0
O116 O 0.52855 0.38507 0.04229 0.0
Mg117 Mg 0.15614 0.5237 0.37626 0.0
C118 C 0.15347 0.5363 0.32437 0.0
O119 O 0.14789 0.54988 0.33939 0.0
C120 C 0.16977 0.51438 0.42632 0.0
O121 O 0.16167 0.53017 0.42971 0.0
C122 C 0.1031 0.5003 0.39761 0.0
O123 O 0.1064 0.48166 0.4039 0.0
O124 O 0.12042 0.51904 0.38649 0.0
O125 O 0.15727 0.51986 0.33466 0.0
O126 O 0.18147 0.56272 0.38005 0.0
C127 C 0.20436 0.5699 0.37737 0.0
O128 O 0.21152 0.55324 0.37569 0.0
O129 O 0.16914 0.50618 0.40376 0.0
Mg130 Mg 0.61821 0.16669 0.71026 0.0
C131 C 0.57089 0.16936 0.71857 0.0
O132 O 0.56086 0.14992 0.70334 0.0
C133 C 0.58321 0.11716 0.73277 0.0
O134 O 0.58138 0.13163 0.75004 0.0
C135 C 0.65188 0.17863 0.75575 0.0
O136 O 0.63354 0.15671 0.7621 0.0
O137 O 0.65171 0.18702 0.73358 0.0
O138 O 0.59362 0.17892 0.72486 0.0
O139 O 0.6204 0.17562 0.66947 0.0
C140 C 0.60299 0.15936 0.65558 0.0
O141 O 0.58729 0.13799 0.66594 0.0
O142 O 0.59902 0.12689 0.71488 0.0
Mg143 Mg 0.45205 0.62426 0.04788 0.0
C144 C 0.40207 0.58036 0.06341 0.0
O145 O 0.41369 0.5676 0.06108 0.0
C146 C 0.4826 0.59902 0.04074 0.0
O147 O 0.48796 0.61112 1.01898 0.0
C148 C 0.4777 0.6574 0.09216 0.0
O149 O 0.47837 0.63713 0.09777 0.0
O150 O 0.46875 0.65855 0.07057 0.0
O151 O 0.41397 0.60377 0.06054 0.0
O152 O 0.44814 0.62477 1.00592 0.0
C153 C 0.43607 0.60286 0.99661 0.0
O154 O 0.42946 0.58406 1.01214 0.0
O155 O 0.46886 0.60192 0.05682 0.0
H156 H 0.51608 0.15346 0.43275 0.0
H157 H 0.52637 0.1524 0.47773 0.0
H158 H 0.58934 0.22616 0.47117 0.0
H159 H 0.57941 0.22719 0.4261 0.0
H160 H 0.60312 0.19682 0.49302 0.0
H161 H 0.53728 0.21439 0.50655 0.0
H162 H 0.49534 0.20907 0.50177 0.0
H163 H 0.46342 0.13614 0.53411 0.0
H164 H 0.50516 0.14088 0.53876 0.0
H165 H 0.62948 0.20254 0.62807 0.0
H166 H 0.6197 0.21164 0.5853 0.0
H167 H 0.55629 0.13793 0.58086 0.0
H168 H 0.56575 0.12878 0.6233 0.0
H169 H 0.5442 0.17196 0.56577 0.0
H170 H 0.61002 0.15343 0.54846 0.0
H171 H 0.65206 0.15897 0.55321 0.0
H172 H 0.68401 0.23445 0.52808 0.0
H173 H 0.64213 0.22944 0.5235 0.0
C174 C 0.53185 0.16964 0.44098 0.0
C175 C 0.54693 0.19039 0.42574 0.0
C176 C 0.53771 0.16904 0.46677 0.0
C177 C 0.55862 0.18925 0.47797 0.0
C178 C 0.57317 0.2103 0.46301 0.0
C179 C 0.56738 0.2109 0.43722 0.0
C180 C 0.56621 0.18777 0.50471 0.0
C181 C 0.59034 0.19182 0.50899 0.0
C182 C 0.5495 0.18086 0.52557 0.0
C183 C 0.52436 0.17792 0.52279 0.0
C184 C 0.52131 0.19714 0.51245 0.0
C185 C 0.49757 0.19424 0.5098 0.0
C186 C 0.47673 0.17226 0.51758 0.0
C187 C 0.47959 0.15315 0.52807 0.0
C188 C 0.50328 0.15594 0.53075 0.0
C189 C 0.61361 0.18821 0.61786 0.0
C190 C 0.59851 0.16488 0.6291 0.0
C191 C 0.60803 0.19344 0.59342 0.0
C192 C 0.58728 0.17542 0.57979 0.0
C193 C 0.57231 0.15216 0.59099 0.0
C194 C 0.57788 0.14692 0.61527 0.0
C195 C 0.58088 0.18054 0.55389 0.0
C196 C 0.55701 0.17719 0.54979 0.0
C197 C 0.59782 0.18814 0.53321 0.0
C198 C 0.62297 0.19115 0.53593 0.0
C199 C 0.62602 0.17127 0.54416 0.0
C200 C 0.64982 0.1743 0.54677 0.0
C201 C 0.6707 0.19707 0.54103 0.0
C202 C 0.66782 0.21684 0.53257 0.0
C203 C 0.64407 0.21391 0.52995 0.0
H204 H 0.6891 0.19938 0.54306 0.0
H205 H 0.45837 0.17005 0.51551 0.0
H206 H 0.32191 0.55555 0.77959 0.0
H207 H 0.33974 0.56658 0.82264 0.0
H208 H 0.39406 0.54527 0.80189 0.0
H209 H 0.37513 0.53259 0.75962 0.0
H210 H 0.38366 0.53284 0.84644 0.0
H211 H 0.40553 0.60928 0.80538 0.0
H212 H 0.39905 0.64003 0.78192 0.0
H213 H 0.35424 0.64219 0.84354 0.0
H214 H 0.36019 0.61121 0.86725 0.0
H215 H 0.45376 0.63428 0.95489 0.0
H216 H 0.43993 0.62403 0.91012 0.0
H217 H 0.38531 0.54997 0.93301 0.0
H218 H 0.3998 0.55959 0.97685 0.0
H219 H 0.40062 0.61271 0.8856 0.0
H220 H 0.37031 0.50749 0.8888 0.0
H221 H 0.38354 0.48022 0.90939 0.0
H222 H 0.45755 0.5417 0.91769 0.0
H223 H 0.44488 0.56928 0.89682 0.0
C224 C 0.33741 0.55287 0.78441 0.0
C225 C 0.34703 0.54309 0.76623 0.0
C226 C 0.34786 0.55951 0.80896 0.0
C227 C 0.3688 0.55747 0.81557 0.0
C228 C 0.37799 0.54713 0.79751 0.0
C229 C 0.36709 0.53981 0.77325 0.0
C230 C 0.38112 0.56595 0.84119 0.0
C231 C 0.38741 0.55037 0.85486 0.0
C232 C 0.38681 0.58915 0.8522 0.0
C233 C 0.38316 0.60778 0.838 0.0
C234 C 0.39417 0.6162 0.81386 0.0
C235 C 0.39062 0.6337 0.80054 0.0
C236 C 0.37625 0.64306 0.81124 0.0
C237 C 0.36538 0.63493 0.83528 0.0
C238 C 0.36886 0.61742 0.84869 0.0
C239 C 0.43899 0.61577 0.95021 0.0
C240 C 0.42811 0.59771 0.9694 0.0
C241 C 0.43103 0.60991 0.92463 0.0
C242 C 0.41187 0.58597 0.91786 0.0
C243 C 0.40073 0.56823 0.93727 0.0
C244 C 0.40896 0.57389 0.96254 0.0
C245 C 0.40287 0.57946 0.89083 0.0
C246 C 0.39709 0.59531 0.87699 0.0
C247 C 0.39869 0.55702 0.87913 0.0
C248 C 0.40658 0.54048 0.89139 0.0
C249 C 0.38945 0.51516 0.89488 0.0
C250 C 0.39684 0.49966 0.90663 0.0
C251 C 0.42136 0.50923 0.91486 0.0
C252 C 0.43855 0.53432 0.91134 0.0
C253 C 0.43127 0.54991 0.89958 0.0
H254 H 0.42704 0.49719 0.9239 0.0
H255 H 0.37354 0.65662 0.80091 0.0
H256 H 0.78933 0.45069 0.29029 0.0
H257 H 0.78422 0.43534 0.246 0.0
H258 H 0.86049 0.45182 0.24537 0.0
H259 H 0.86567 0.4671 0.28932 0.0
H260 H 0.84758 0.46396 0.20024 0.0
H261 H 0.81369 0.39416 0.25847 0.0
H262 H 0.78539 0.36696 0.292 0.0
H263 H 0.72245 0.35141 0.24504 0.0
H264 H 0.75041 0.37889 0.21134 0.0
H265 H 0.85719 0.39297 0.10223 0.0
H266 H 0.85593 0.4084 0.1449 0.0
H267 H 0.77694 0.379 0.13744 0.0
H268 H 0.77801 0.3633 0.09468 0.0
H269 H 0.78703 0.37505 0.1848 0.0
H270 H 0.82084 0.44281 0.12526 0.0
H271 H 0.8493 0.46959 0.09152 0.0
H272 H 0.91187 0.48882 0.14045 0.0
H273 H 0.88387 0.46216 0.1745 0.0
C274 C 0.80514 0.45159 0.28046 0.0
C275 C 0.82791 0.46008 0.2933 0.0
C276 C 0.80214 0.44258 0.25525 0.0
C277 C 0.82188 0.44209 0.24248 0.0
C278 C 0.84497 0.45193 0.25482 0.0
C279 C 0.84791 0.46067 0.27997 0.0
C280 C 0.81855 0.43035 0.2168 0.0
C281 C 0.83439 0.4445 0.19689 0.0
C282 C 0.80091 0.4051 0.21218 0.0
C283 C 0.78412 0.38883 0.23254 0.0
C284 C 0.79381 0.38517 0.25541 0.0
C285 C 0.77784 0.36967 0.27442 0.0
C286 C 0.75215 0.35754 0.27067 0.0
C287 C 0.74236 0.36089 0.24792 0.0
C288 C 0.75826 0.37642 0.22887 0.0
C289 C 0.83946 0.38949 0.10975 0.0
C290 C 0.81777 0.3772 0.09484 0.0
C291 C 0.8388 0.39856 0.13411 0.0
C292 C 0.81652 0.39593 0.14398 0.0
C293 C 0.79449 0.38195 0.12998 0.0
C294 C 0.7951 0.37278 0.10558 0.0
C295 C 0.81651 0.40852 0.16838 0.0
C296 C 0.79999 0.39459 0.18799 0.0
C297 C 0.83345 0.43405 0.17273 0.0
C298 C 0.85026 0.45037 0.15238 0.0
C299 C 0.84067 0.45268 0.1288 0.0
C300 C 0.8567 0.46783 0.10962 0.0
C301 C 0.88234 0.48079 0.11379 0.0
C302 C 0.892 0.47875 0.13723 0.0
C303 C 0.87607 0.46369 0.15651 0.0
H304 H 0.8947 0.49244 0.09888 0.0
H305 H 0.73982 0.34546 0.28531 0.0
H306 H 0.40969 0.80413 0.43504 0.0
H307 H 0.40424 0.80279 0.48116 0.0
H308 H 0.47829 0.81453 0.49183 0.0
H309 H 0.48384 0.81554 0.44501 0.0
H310 H 0.44462 0.78053 0.52664 0.0
H311 H 0.46851 0.86247 0.49846 0.0
H312 H 0.46683 0.89408 0.47142 0.0
H313 H 0.39209 0.86931 0.49612 0.0
H314 H 0.39318 0.83727 0.52301 0.0
H315 H 0.45507 0.84405 0.65141 0.0
H316 H 0.46175 0.83803 0.60643 0.0
H317 H 0.38364 0.78634 0.59746 0.0
H318 H 0.37677 0.79164 0.64283 0.0
H319 H 0.42142 0.84038 0.56278 0.0
H320 H 0.39755 0.75543 0.58834 0.0
H321 H 0.40078 0.72424 0.61461 0.0
H322 H 0.47785 0.75638 0.59484 0.0
H323 H 0.47524 0.78826 0.56906 0.0
C324 C 0.42489 0.80633 0.44706 0.0
C325 C 0.44738 0.81029 0.43627 0.0
C326 C 0.4217 0.80556 0.47353 0.0
C327 C 0.441 0.80905 0.49003 0.0
C328 C 0.46317 0.81194 0.47945 0.0
C329 C 0.46635 0.81256 0.45273 0.0
C330 C 0.438 0.81072 0.51816 0.0
C331 C 0.4398 0.79379 0.53456 0.0
C332 C 0.43151 0.82789 0.52856 0.0
C333 C 0.43087 0.84733 0.51261 0.0
C334 C 0.45166 0.86365 0.498 0.0
C335 C 0.45082 0.88165 0.48271 0.0
C336 C 0.42935 0.88367 0.48201 0.0
C337 C 0.4087 0.86771 0.49666 0.0
C338 C 0.40943 0.84964 0.51195 0.0
C339 C 0.43929 0.8311 0.64004 0.0
C340 C 0.41537 0.81819 0.65084 0.0
C341 C 0.4432 0.82766 0.61433 0.0
C342 C 0.4233 0.81138 0.59879 0.0
C343 C 0.39935 0.79854 0.60934 0.0
C344 C 0.39545 0.80168 0.63523 0.0
C345 C 0.42739 0.80981 0.57103 0.0
C346 C 0.42611 0.82706 0.55478 0.0
C347 C 0.43448 0.79307 0.56088 0.0
C348 C 0.4363 0.77453 0.57716 0.0
C349 C 0.41531 0.75619 0.59002 0.0
C350 C 0.41698 0.73826 0.60467 0.0
C351 C 0.43949 0.73829 0.60634 0.0
C352 C 0.46041 0.75634 0.59347 0.0
C353 C 0.45887 0.7744 0.57893 0.0
H354 H 0.44074 0.72439 0.61767 0.0
H355 H 0.42874 0.89763 0.47018 0.0
H356 H 0.61314 0.38652 0.96039 0.0
H357 H 0.62056 0.40267 0.91693 0.0
H358 H 0.54238 0.37668 0.90741 0.0
H359 H 0.53469 0.3604 0.95127 0.0
H360 H 0.56375 0.3715 0.86233 0.0
H361 H 0.57586 0.43343 0.92049 0.0
H362 H 0.58981 0.46059 0.95851 0.0
H363 H 0.66569 0.49116 0.9346 0.0
H364 H 0.65225 0.46361 0.89684 0.0
H365 H 0.59103 0.45457 0.75718 0.0
H366 H 0.57826 0.44064 0.80114 0.0
H367 H 0.64825 0.44371 0.81513 0.0
H368 H 0.66101 0.4571 0.77094 0.0
H369 H 0.62587 0.4613 0.85757 0.0
H370 H 0.60599 0.39444 0.79522 0.0
H371 H 0.58555 0.37442 0.75466 0.0
H372 H 0.51474 0.35713 0.78603 0.0
H373 H 0.53496 0.37825 0.8264 0.0
C374 C 0.59737 0.38381 0.94901 0.0
C375 C 0.57332 0.37236 0.95951 0.0
C376 C 0.60169 0.39313 0.92412 0.0
C377 C 0.5821 0.39125 0.90902 0.0
C378 C 0.5578 0.37841 0.91873 0.0
C379 C 0.55344 0.36912 0.94382 0.0
C380 C 0.58767 0.40449 0.88407 0.0
C381 C 0.57715 0.39115 0.86135 0.0
C382 C 0.60463 0.43031 0.88268 0.0
C383 C 0.61305 0.4462 0.90597 0.0
C384 C 0.59556 0.44562 0.92357 0.0
C385 C 0.60336 0.46114 0.94506 0.0
C386 C 0.6286 0.47757 0.94902 0.0
C387 C 0.64612 0.47839 0.93158 0.0
C388 C 0.63843 0.46277 0.91015 0.0
C389 C 0.60402 0.45295 0.76977 0.0
C390 C 0.62699 0.45675 0.76049 0.0
C391 C 0.59663 0.44492 0.79487 0.0
C392 C 0.61222 0.44091 0.81122 0.0
C393 C 0.63597 0.44668 0.80274 0.0
C394 C 0.6432 0.45428 0.77749 0.0
C395 C 0.60286 0.42813 0.83603 0.0
C396 C 0.61258 0.44162 0.85868 0.0
C397 C 0.58437 0.40276 0.83729 0.0
C398 C 0.57208 0.38832 0.81376 0.0
C399 C 0.58611 0.38671 0.79339 0.0
C400 C 0.57458 0.3753 0.77033 0.0
C401 C 0.54887 0.36469 0.76767 0.0
C402 C 0.53467 0.36547 0.78807 0.0
C403 C 0.54618 0.37726 0.81102 0.0
H404 H 0.53993 0.35563 0.74992 0.0
H405 H 0.63451 0.4897 0.96557 0.0
H406 H 0.15477 0.50752 0.28437 0.0
H407 H 0.15821 0.51734 0.23843 0.0
H408 H 0.1636 0.58784 0.2562 0.0
H409 H 0.15943 0.57791 0.30145 0.0
H410 H 0.13283 0.56792 0.2192 0.0
H411 H 0.21459 0.58117 0.23693 0.0
H412 H 0.24563 0.57013 0.25174 0.0
H413 H 0.21956 0.51142 0.196 0.0
H414 H 0.18812 0.52189 0.18109 0.0
H415 H 0.17028 0.62374 0.09566 0.0
H416 H 0.17123 0.61547 0.14153 0.0
H417 H 0.15807 0.54204 0.12358 0.0
H418 H 0.15754 0.55016 0.07815 0.0
H419 H 0.19338 0.56368 0.16023 0.0
H420 H 0.11111 0.55055 0.14352 0.0
H421 H 0.08077 0.56248 0.12858 0.0
H422 H 0.10924 0.62257 0.18283 0.0
H423 H 0.13998 0.61118 0.19787 0.0
C424 C 0.15677 0.52511 0.27839 0.0
C425 C 0.1566 0.5418 0.29656 0.0
C426 C 0.15885 0.53078 0.25215 0.0
C427 C 0.16127 0.55344 0.24376 0.0
C428 C 0.16156 0.57019 0.26204 0.0
C429 C 0.15918 0.56444 0.28801 0.0
C430 C 0.16272 0.55971 0.21603 0.0
C431 C 0.14635 0.5673 0.20646 0.0
C432 C 0.17998 0.5585 0.19912 0.0
C433 C 0.19881 0.55212 0.20811 0.0
C434 C 0.21533 0.56576 0.22799 0.0
C435 C 0.23302 0.55964 0.23637 0.0
C436 C 0.23451 0.54004 0.22487 0.0
C437 C 0.21835 0.52656 0.20492 0.0
C438 C 0.2006 0.53259 0.19649 0.0
C439 C 0.16775 0.60591 0.10152 0.0
C440 C 0.16366 0.58759 0.08321 0.0
C441 C 0.16823 0.60118 0.12772 0.0
C442 C 0.1646 0.57805 0.13599 0.0
C443 C 0.16106 0.56003 0.11768 0.0
C444 C 0.16057 0.5647 0.09166 0.0
C445 C 0.1637 0.57208 0.16367 0.0
C446 C 0.18003 0.56443 0.17313 0.0
C447 C 0.14654 0.57338 0.18057 0.0
C448 C 0.12801 0.58018 0.17162 0.0
C449 C 0.11102 0.56643 0.15212 0.0
C450 C 0.09373 0.57307 0.14366 0.0
C451 C 0.09312 0.59332 0.1547 0.0
C452 C 0.10976 0.60692 0.17427 0.0
C453 C 0.12711 0.60037 0.18278 0.0
H454 H 0.07972 0.59843 0.14813 0.0
H455 H 0.24823 0.53533 0.23138 0.0
H456 H 0.71936 0.38361 0.36579 0.0
H457 H 0.69533 0.34122 0.3497 0.0
H458 H 0.76311 0.33984 0.33446 0.0
H459 H 0.78727 0.38207 0.35139 0.0
H460 H 0.69322 0.32336 0.3042 0.0
H461 H 0.75019 0.27909 0.33693 0.0
H462 H 0.78058 0.28403 0.37023 0.0
H463 H 0.74894 0.31507 0.42164 0.0
H464 H 0.71824 0.31006 0.38873 0.0
H465 H 0.60756 0.20014 0.27567 0.0
H466 H 0.65071 0.23419 0.27467 0.0
H467 H 0.65202 0.23607 0.35734 0.0
H468 H 0.60982 0.20184 0.35843 0.0
H469 H 0.69681 0.25174 0.34121 0.0
H470 H 0.62789 0.26735 0.31885 0.0
H471 H 0.59382 0.26288 0.29083 0.0
H472 H 0.64396 0.29002 0.22702 0.0
H473 H 0.67825 0.29441 0.25465 0.0
C474 C 0.72912 0.37418 0.35927 0.0
C475 C 0.75512 0.38604 0.36 0.0
C476 C 0.71541 0.35003 0.34991 0.0
C477 C 0.72743 0.33737 0.34083 0.0
C478 C 0.75344 0.34912 0.34167 0.0
C479 C 0.76719 0.37322 0.35138 0.0
C480 C 0.71232 0.31189 0.33053 0.0
C481 C 0.69424 0.30772 0.31205 0.0
C482 C 0.71397 0.29153 0.3403 0.0
C483 C 0.7322 0.29452 0.36027 0.0
C484 C 0.74974 0.28695 0.35536 0.0
C485 C 0.767 0.28976 0.37415 0.0
C486 C 0.76676 0.29996 0.398 0.0
C487 C 0.74919 0.30728 0.40313 0.0
C488 C 0.73187 0.30449 0.3844 0.0
C489 C 0.61743 0.20729 0.29357 0.0
C490 C 0.60515 0.1989 0.31713 0.0
C491 C 0.64204 0.22675 0.29297 0.0
C492 C 0.65435 0.23813 0.31592 0.0
C493 C 0.64293 0.22776 0.33935 0.0
C494 C 0.61861 0.20831 0.33996 0.0
C495 C 0.67661 0.26316 0.31636 0.0
C496 C 0.69639 0.26743 0.33263 0.0
C497 C 0.67607 0.28367 0.30524 0.0
C498 C 0.65547 0.28086 0.28866 0.0
C499 C 0.63157 0.27222 0.2988 0.0
C500 C 0.61225 0.26971 0.28301 0.0
C501 C 0.61673 0.27613 0.25716 0.0
C502 C 0.64052 0.28502 0.24703 0.0
C503 C 0.65989 0.28748 0.26273 0.0
H504 H 0.6018 0.27432 0.24499 0.0
H505 H 0.78014 0.30212 0.41252 0.0
H506 H 0.46337 0.80772 0.74224 0.0
H507 H 0.45177 0.76661 0.72521 0.0
H508 H 0.37587 0.75049 0.71749 0.0
H509 H 0.38699 0.79028 0.73664 0.0
H510 H 0.37683 0.71377 0.73874 0.0
H511 H 0.42125 0.76666 0.66518 0.0
H512 H 0.45847 0.79986 0.644 0.0
H513 H 0.49933 0.76282 0.6617 0.0
H514 H 0.4626 0.72946 0.68323 0.0
H515 H 0.32386 0.60539 0.66604 0.0
H516 H 0.34156 0.64961 0.67527 0.0
H517 H 0.41318 0.65602 0.68859 0.0
H518 H 0.39575 0.61188 0.67923 0.0
H519 H 0.41703 0.69741 0.66476 0.0
H520 H 0.37829 0.647 0.7374 0.0
H521 H 0.34482 0.61272 0.76163 0.0
H522 H 0.29795 0.64474 0.75085 0.0
H523 H 0.33093 0.67889 0.72593 0.0
C524 C 0.44422 0.79541 0.73682 0.0
C525 C 0.42616 0.80264 0.74008 0.0
C526 C 0.43768 0.77202 0.72682 0.0
C527 C 0.41305 0.75565 0.71945 0.0
C528 C 0.39508 0.7629 0.7227 0.0
C529 C 0.40152 0.78596 0.73324 0.0
C530 C 0.40533 0.73033 0.7099 0.0
C531 C 0.38539 0.71031 0.72228 0.0
C532 C 0.41733 0.72563 0.68928 0.0
C533 C 0.43924 0.74569 0.67608 0.0
C534 C 0.43823 0.7657 0.66479 0.0
C535 C 0.45923 0.78456 0.65275 0.0
C536 C 0.48125 0.78359 0.65172 0.0
C537 C 0.48231 0.76363 0.66261 0.0
C538 C 0.46141 0.74472 0.6747 0.0
C539 C 0.34348 0.61629 0.67044 0.0
C540 C 0.35832 0.60509 0.67233 0.0
C541 C 0.35354 0.64152 0.67572 0.0
C542 C 0.37854 0.65587 0.683 0.0
C543 C 0.39382 0.64517 0.68308 0.0
C544 C 0.38378 0.61993 0.67785 0.0
C545 C 0.38802 0.68127 0.69299 0.0
C546 C 0.40837 0.70109 0.68099 0.0
C547 C 0.37688 0.68583 0.71441 0.0
C548 C 0.35699 0.66536 0.7295 0.0
C549 C 0.36075 0.6466 0.73993 0.0
C550 C 0.34187 0.62719 0.7538 0.0
C551 C 0.31926 0.62654 0.75774 0.0
C552 C 0.31547 0.64526 0.74776 0.0
C553 C 0.33424 0.66463 0.73372 0.0
H554 H 0.30469 0.61154 0.76856 0.0
H555 H 0.49741 0.79819 0.64228 0.0
H556 H 0.62671 0.46019 0.06124 0.0
H557 H 0.67191 0.48158 0.06765 0.0
H558 H 0.66875 0.4107 0.07365 0.0
H559 H 0.62415 0.38953 0.06811 0.0
H560 H 0.70362 0.44305 0.10487 0.0
H561 H 0.67725 0.44608 1.01234 0.0
H562 H 0.66042 0.46349 0.98086 0.0
H563 H 0.7114 0.53719 1.0075 0.0
H564 H 0.72835 0.5201 0.03921 0.0
H565 H 0.76245 0.41418 1.00165 0.0
H566 H 0.73934 0.43444 1.01527 0.0
H567 H 0.79327 0.47335 0.0748 0.0
H568 H 0.81636 0.45267 0.06144 0.0
H569 H 0.74583 0.4809 1.02306 0.0
H570 H 0.75995 0.47409 0.12603 0.0
H571 H 0.77721 0.45652 0.15689 0.0
H572 H 0.75178 0.39152 0.10967 0.0
H573 H 0.73438 0.40875 0.07864 0.0
C574 C 0.63568 0.44926 0.06445 0.0
C575 C 0.62192 0.42316 0.0637 0.0
C576 C 0.66149 0.46151 0.06811 0.0
C577 C 0.6738 0.44777 0.07085 0.0
C578 C 0.65975 0.42178 0.07171 0.0
C579 C 0.63417 0.40963 0.06825 0.0
C580 C 0.70122 0.4593 0.06934 0.0
C581 C 0.71322 0.45212 0.08737 0.0
C582 C 0.71426 0.47191 0.04705 0.0
C583 C 0.70383 0.48187 1.02819 0.0
C584 C 0.68475 0.46598 1.01147 0.0
C585 C 0.67521 0.47579 0.99362 0.0
C586 C 0.68482 0.50146 0.99222 0.0
C587 C 0.70395 0.51734 1.00865 0.0
C588 C 0.71351 0.50761 1.02656 0.0
C589 C 0.76972 0.42743 1.01729 0.0
C590 C 0.79096 0.43148 0.0308 0.0
C591 C 0.75659 0.43919 1.02496 0.0
C592 C 0.76443 0.4552 0.04626 0.0
C593 C 0.78678 0.4609 0.05847 0.0
C594 C 0.79994 0.44906 0.05081 0.0
C595 C 0.74691 0.46236 0.05739 0.0
C596 C 0.737 0.47331 0.04132 0.0
C597 C 0.7359 0.4534 0.08159 0.0
C598 C 0.74607 0.44274 0.10005 0.0
C599 C 0.75805 0.45604 0.12232 0.0
C600 C 0.76787 0.44617 0.1398 0.0
C601 C 0.76561 0.42294 0.13526 0.0
C602 C 0.75356 0.40953 0.11319 0.0
C603 C 0.74372 0.41933 0.09564 0.0
H604 H 0.77316 0.41536 0.1489 0.0
H605 H 0.67757 0.50916 0.9784 0.0
H606 H 0.38514 0.77438 0.37001 0.0
H607 H 0.34198 0.74205 0.37166 0.0
H608 H 0.33709 0.74354 0.28931 0.0
H609 H 0.38098 0.7759 0.28744 0.0
H610 H 0.29634 0.7311 0.3581 0.0
H611 H 0.30662 0.68301 0.26988 0.0
H612 H 0.33941 0.68472 0.24158 0.0
H613 H 0.39046 0.70903 0.30487 0.0
H614 H 0.35788 0.70694 0.33347 0.0
H615 H 0.19346 0.6056 0.36267 0.0
H616 H 0.22264 0.64756 0.34809 0.0
H617 H 0.28388 0.63515 0.36444 0.0
H618 H 0.2548 0.593 0.3783 0.0
H619 H 0.28924 0.65488 0.31882 0.0
H620 H 0.26784 0.67051 0.40395 0.0
H621 H 0.23897 0.669 0.43737 0.0
H622 H 0.21539 0.709 0.38862 0.0
H623 H 0.24395 0.71049 0.35479 0.0
C624 C 0.37485 0.76816 0.35221 0.0
C625 C 0.3866 0.77711 0.32852 0.0
C626 C 0.35002 0.74988 0.35323 0.0
C627 C 0.33643 0.74015 0.3306 0.0
C628 C 0.34739 0.75069 0.30698 0.0
C629 C 0.37243 0.76908 0.30593 0.0
C630 C 0.31285 0.71636 0.33208 0.0
C631 C 0.29441 0.71445 0.34907 0.0
C632 C 0.31053 0.69464 0.32054 0.0
C633 C 0.32997 0.69515 0.30365 0.0
C634 C 0.32483 0.68859 0.2777 0.0
C635 C 0.34337 0.6896 0.26162 0.0
C636 C 0.36705 0.69704 0.27137 0.0
C637 C 0.37217 0.70327 0.29727 0.0
C638 C 0.35367 0.70214 0.31343 0.0
C639 C 0.21317 0.61196 0.36347 0.0
C640 C 0.22193 0.59609 0.37165 0.0
C641 C 0.22979 0.6359 0.35506 0.0
C642 C 0.25539 0.64442 0.35513 0.0
C643 C 0.26414 0.62881 0.36398 0.0
C644 C 0.24756 0.60482 0.37207 0.0
C645 C 0.27335 0.66949 0.34582 0.0
C646 C 0.29054 0.67155 0.32714 0.0
C647 C 0.27489 0.69122 0.35644 0.0
C648 C 0.25776 0.69033 0.37675 0.0
C649 C 0.25635 0.67881 0.4003 0.0
C650 C 0.24008 0.67798 0.41932 0.0
C651 C 0.22529 0.68881 0.41509 0.0
C652 C 0.22681 0.70056 0.39185 0.0
C653 C 0.24303 0.70141 0.37275 0.0
H654 H 0.2127 0.68817 0.42984 0.0
H655 H 0.3814 0.69793 0.25886 0.0
H656 H 0.56032 0.36905 0.7014 0.0
H657 H 0.54085 0.32471 0.71119 0.0
H658 H 0.60964 0.32623 0.69382 0.0
H659 H 0.62928 0.37044 0.68425 0.0
H660 H 0.56931 0.28885 0.6685 0.0
H661 H 0.59429 0.31957 0.75526 0.0
H662 H 0.5967 0.34012 0.79659 0.0
H663 H 0.51708 0.30216 0.80094 0.0
H664 H 0.51426 0.2811 0.75979 0.0
H665 H 0.58324 0.20547 0.75427 0.0
H666 H 0.57272 0.23821 0.75255 0.0
H667 H 0.51904 0.19864 0.69299 0.0
H668 H 0.53016 0.1659 0.69407 0.0
H669 H 0.53845 0.251 0.75371 0.0
H670 H 0.52983 0.23993 0.64588 0.0
H671 H 0.53654 0.2169 0.61093 0.0
H672 H 0.59668 0.21825 0.65302 0.0
H673 H 0.59051 0.24156 0.688 0.0
C674 C 0.5713 0.35992 0.69967 0.0
C675 C 0.5963 0.37317 0.69184 0.0
C676 C 0.56018 0.33466 0.70545 0.0
C677 C 0.57382 0.32228 0.70316 0.0
C678 C 0.5988 0.33552 0.6956 0.0
C679 C 0.60999 0.36076 0.69013 0.0
C680 C 0.56202 0.29527 0.70733 0.0
C681 C 0.56212 0.28046 0.68701 0.0
C682 C 0.55257 0.28435 0.73141 0.0
C683 C 0.55406 0.29913 0.75432 0.0
C684 C 0.57731 0.31593 0.76486 0.0
C685 C 0.57875 0.32737 0.78841 0.0
C686 C 0.55705 0.32233 0.80145 0.0
C687 C 0.53386 0.30596 0.79087 0.0
C688 C 0.53233 0.29425 0.76746 0.0
C689 C 0.56861 0.2033 0.74136 0.0
C690 C 0.55819 0.18367 0.72364 0.0
C691 C 0.56242 0.22196 0.74055 0.0
C692 C 0.54567 0.22122 0.72206 0.0
C693 C 0.53241 0.19975 0.70703 0.0
C694 C 0.53876 0.18105 0.70771 0.0
C695 C 0.54672 0.24483 0.71523 0.0
C696 C 0.54444 0.25908 0.73486 0.0
C697 C 0.55517 0.25556 0.69079 0.0
C698 C 0.55949 0.24217 0.66961 0.0
C699 C 0.54452 0.23537 0.64758 0.0
C700 C 0.54824 0.22228 0.62779 0.0
C701 C 0.56696 0.21604 0.6298 0.0
C702 C 0.58216 0.22305 0.6515 0.0
C703 C 0.57858 0.23622 0.67129 0.0
H704 H 0.5697 0.20581 0.61451 0.0
H705 H 0.55821 0.33125 0.81966 0.0
H706 H 0.18909 0.55331 0.9997 0.0
H707 H 0.21497 0.53455 1.00879 0.0
H708 H 0.2808 0.60591 0.99877 0.0
H709 H 0.2553 0.62448 0.98913 0.0
H710 H 0.2879 0.5714 0.97951 0.0
H711 H 0.25255 0.58377 0.05804 0.0
H712 H 0.2183 0.57611 0.08748 0.0
H713 H 0.19572 0.49859 0.0893 0.0
H714 H 0.22961 0.50575 0.05955 0.0
H715 H 0.37146 0.59349 0.08726 0.0
H716 H 0.32902 0.58118 0.07426 0.0
H717 H 0.32981 0.52854 1.02054 0.0
H718 H 0.37211 0.54033 0.03409 0.0
H719 H 0.28202 0.53939 0.06759 0.0
H720 H 0.31265 0.54689 0.96112 0.0
H721 H 0.34937 0.56881 0.93318 0.0
H722 H 0.38744 0.62275 0.99239 0.0
H723 H 0.35081 0.60162 1.02034 0.0
C724 C 0.2091 0.56482 0.99884 0.0
C725 C 0.22023 0.59043 0.99396 0.0
C726 C 0.22381 0.5541 1.0042 0.0
C727 C 0.24976 0.5689 1.0048 0.0
C728 C 0.26079 0.59411 0.9984 0.0
C729 C 0.24619 0.60476 0.99298 0.0
C730 C 0.2659 0.55919 1.01378 0.0
C731 C 0.28627 0.56369 0.9985 0.0
C732 C 0.26388 0.54952 0.03873 0.0
C733 C 0.24335 0.54522 0.05629 0.0
C734 C 0.24011 0.56506 0.06452 0.0
C735 C 0.22081 0.56082 0.08129 0.0
C736 C 0.20482 0.53686 0.09018 0.0
C737 C 0.20808 0.51711 0.08232 0.0
C738 C 0.22731 0.52124 0.0655 0.0
C739 C 0.36212 0.5785 0.07354 0.0
C740 C 0.37491 0.56785 0.06163 0.0
C741 C 0.33791 0.57144 0.06615 0.0
C742 C 0.32647 0.55415 0.04627 0.0
C743 C 0.33839 0.5419 0.03593 0.0
C744 C 0.36246 0.54857 0.04377 0.0
C745 C 0.30448 0.55263 0.03361 0.0
C746 C 0.283 0.54582 0.04811 0.0
C747 C 0.30601 0.56145 1.00835 0.0
C748 C 0.32918 0.57229 0.99304 0.0
C749 C 0.32901 0.56321 0.9683 0.0
C750 C 0.3497 0.57565 0.95237 0.0
C751 C 0.37061 0.59723 0.96099 0.0
C752 C 0.37118 0.60605 0.98576 0.0
C753 C 0.35049 0.59379 1.00168 0.0
H754 H 0.38632 0.60724 0.94842 0.0
H755 H 0.18997 0.5336 0.10326 0.0
H756 H 0.5572 0.09716 0.34877 0.0
H757 H 0.54496 0.05336 0.34509 0.0
H758 H 0.46932 0.03511 0.33031 0.0
H759 H 0.48145 0.07912 0.33386 0.0
H760 H 0.47423 0.00586 0.36831 0.0
H761 H 0.50201 0.03238 0.28245 0.0
H762 H 0.5313 0.0591 0.2493 0.0
H763 H 0.58546 0.04021 0.27547 0.0
H764 H 0.55662 0.01364 0.30904 0.0
H765 H 0.43014 0.88035 0.33823 0.0
H766 H 0.44118 0.92378 0.33476 0.0
H767 H 0.51878 0.94591 0.34205 0.0
H768 H 0.50789 0.90228 0.34504 0.0
H769 H 0.51191 0.97314 0.30644 0.0
H770 H 0.48649 0.9489 0.39312 0.0
H771 H 0.45871 0.92288 0.42761 0.0
H772 H 0.40209 0.93843 0.40185 0.0
H773 H 0.42941 0.96427 0.36695 0.0
C774 C 0.53797 0.08388 0.3446 0.0
C775 C 0.52026 0.09157 0.34165 0.0
C776 C 0.53105 0.05888 0.34239 0.0
C777 C 0.50629 0.04108 0.33727 0.0
C778 C 0.48854 0.04864 0.33421 0.0
C779 C 0.4955 0.07375 0.33617 0.0
C780 C 0.49891 0.01449 0.33617 0.0
C781 C 0.48209 -0.00143 0.35449 0.0
C782 C 0.50987 0.0053 0.31866 0.0
C783 C 0.52722 0.02118 0.29841 0.0
C784 C 0.52024 0.03408 0.28128 0.0
C785 C 0.53675 0.04917 0.26238 0.0
C786 C 0.56025 0.0514 0.26032 0.0
C787 C 0.56726 0.03848 0.27711 0.0
C788 C 0.55083 0.02338 0.29605 0.0
C789 C 0.44959 0.89442 0.33897 0.0
C790 C 0.46815 0.8879 0.34216 0.0
C791 C 0.45585 0.91924 0.33705 0.0
C792 C 0.48075 0.93807 0.33861 0.0
C793 C 0.49942 0.93164 0.3409 0.0
C794 C 0.49318 0.90673 0.34266 0.0
C795 C 0.48718 0.96446 0.33857 0.0
C796 C 0.50389 0.98037 0.32014 0.0
C797 C 0.47634 0.97374 0.35618 0.0
C798 C 0.45991 0.95832 0.37725 0.0
C799 C 0.46805 0.94662 0.39468 0.0
C800 C 0.4524 0.93192 0.41433 0.0
C801 C 0.42863 0.92895 0.41687 0.0
C802 C 0.42049 0.94072 0.39982 0.0
C803 C 0.43606 0.95541 0.38012 0.0
H804 H 0.41653 0.91756 0.43208 0.0
H805 H 0.573 0.06309 0.24568 0.0
H806 H 0.41301 0.53162 0.65554 0.0
H807 H 0.44824 0.52549 0.6473 0.0
H808 H 0.40189 0.44686 0.65996 0.0
H809 H 0.36656 0.45301 0.66913 0.0
H810 H 0.44277 0.4634 0.68587 0.0
H811 H 0.4245 0.47176 0.59909 0.0
H812 H 0.41534 0.49071 0.56231 0.0
H813 H 0.48628 0.55664 0.57099 0.0
H814 H 0.49574 0.53823 0.60806 0.0
H815 H 0.53712 0.43722 0.65172 0.0
H816 H 0.49902 0.43922 0.647 0.0
H817 H 0.54133 0.51914 0.64926 0.0
H818 H 0.57976 0.5174 0.65403 0.0
H819 H 0.50123 0.49917 0.61294 0.0
H820 H 0.517 0.49134 0.70218 0.0
H821 H 0.52598 0.47179 0.73854 0.0
H822 H 0.45854 0.40347 0.724 0.0
H823 H 0.44935 0.42254 0.68729 0.0
C824 C 0.41017 0.51295 0.65627 0.0
C825 C 0.38699 0.49279 0.66309 0.0
C826 C 0.43034 0.50945 0.65136 0.0
C827 C 0.42767 0.48567 0.65268 0.0
C828 C 0.40437 0.46538 0.65879 0.0
C829 C 0.3842 0.46891 0.66399 0.0
C830 C 0.44969 0.48241 0.64974 0.0
C831 C 0.45521 0.47076 0.66961 0.0
C832 C 0.46631 0.49254 0.62885 0.0
C833 C 0.46075 0.50366 0.60649 0.0
C834 C 0.43808 0.49037 0.59328 0.0
C835 C 0.43285 0.50101 0.57235 0.0
C836 C 0.4502 0.52488 0.56435 0.0
C837 C 0.47285 0.53815 0.57722 0.0
C838 C 0.47817 0.52761 0.59816 0.0
C839 C 0.53844 0.45528 0.65086 0.0
C840 C 0.56146 0.47718 0.6536 0.0
C841 C 0.51663 0.45634 0.64815 0.0
C842 C 0.51741 0.4793 0.64811 0.0
C843 C 0.54042 0.50125 0.64929 0.0
C844 C 0.56232 0.50021 0.65211 0.0
C845 C 0.49408 0.48027 0.64903 0.0
C846 C 0.48847 0.49155 0.62892 0.0
C847 C 0.47725 0.46969 0.6696 0.0
C848 C 0.48263 0.45828 0.69182 0.0
C849 C 0.50419 0.47209 0.70661 0.0
C850 C 0.5093 0.46111 0.7273 0.0
C851 C 0.49288 0.43638 0.73353 0.0
C852 C 0.47126 0.42261 0.71913 0.0
C853 C 0.46609 0.4335 0.69838 0.0
H854 H 0.49687 0.42791 0.74956 0.0
H855 H 0.44611 0.53309 0.54815 0.0
H856 H 0.88691 0.39619 0.99779 0.0
H857 H 0.9319 0.42258 0.99446 0.0
H858 H 0.92227 0.48335 0.96898 0.0
H859 H 0.87724 0.45686 0.97154 0.0
H860 H 0.95864 0.48287 0.9432 0.0
H861 H 0.93678 0.47954 0.03125 0.0
H862 H 0.91706 0.45967 0.07206 0.0
H863 H 0.96134 0.42408 0.07487 0.0
H864 H 0.98108 0.44348 0.03387 0.0
H865 H 0.08072 0.5796 0.97988 0.0
H866 H 0.03568 0.55242 0.97631 0.0
H867 H 0.04448 0.48846 0.98809 0.0
H868 H 0.08944 0.51535 0.9914 0.0
H869 H 0.00879 0.49135 1.02051 0.0
H870 H 0.03125 0.49755 0.93103 0.0
H871 H 0.05083 0.52017 0.8913 0.0
H872 H 0.00522 0.55434 0.89322 0.0
H873 H 0.9856 0.53218 0.93318 0.0
C874 C 0.89437 0.4151 0.99124 0.0
C875 C 0.87856 0.42452 0.98513 0.0
C876 C 0.92007 0.43018 0.98945 0.0
C877 C 0.93042 0.45506 0.98196 0.0
C878 C 0.91466 0.46423 0.97489 0.0
C879 C 0.88894 0.44907 0.97641 0.0
C880 C 0.95767 0.47174 0.98242 0.0
C881 C 0.96957 0.48493 0.96018 0.0
C882 C 0.97192 0.47435 1.00457 0.0
C883 C 0.96023 0.46278 1.02935 0.0
C884 C 0.94218 0.46734 0.04047 0.0
C885 C 0.93102 0.45618 0.06365 0.0
C886 C 0.93789 0.44056 0.07601 0.0
C887 C 0.95601 0.43615 0.06525 0.0
C888 C 0.96721 0.44724 0.04205 0.0
C889 C 0.07307 0.55973 0.98149 0.0
C890 C 0.08859 0.5496 0.98595 0.0
C891 C 0.04739 0.54427 0.97939 0.0
C892 C 0.03689 0.51851 0.98192 0.0
C893 C 0.05233 0.50833 0.9861 0.0
C894 C 0.07799 0.52372 0.98788 0.0
C895 C 0.00969 0.50217 0.98124 0.0
C896 C -0.00219 0.48918 1.00352 0.0
C897 C -0.00455 0.50017 0.95933 0.0
C898 C 0.00714 0.5134 0.93523 0.0
C899 C 0.02555 0.51005 0.9231 0.0
C900 C 0.03662 0.52276 0.90052 0.0
C901 C 0.02932 0.53874 0.88978 0.0
C902 C 0.01088 0.54199 0.90157 0.0
C903 C -0.00024 0.52934 0.92417 0.0
H904 H 0.03792 0.54856 0.87229 0.0
H905 H 0.92922 0.43193 0.09395 0.0
H906 H 0.06029 0.46202 0.41751 0.0
H907 H 0.02006 0.46016 0.42227 0.0
H908 H 0.05158 0.53444 0.3925 0.0
H909 H 0.09171 0.53662 0.38804 0.0
H910 H 0.02105 0.52779 0.43195 0.0
H911 H 0.01891 0.48472 0.35402 0.0
H912 H 0.02233 0.45326 0.32802 0.0
H913 H 0.96425 0.39516 0.37205 0.0
H914 H 0.96072 0.42632 0.39855 0.0
H915 H 0.9159 0.53034 0.38011 0.0
H916 H 0.95543 0.53187 0.38879 0.0
H917 H 0.91609 0.45769 0.4193 0.0
H918 H 0.87661 0.45589 0.41055 0.0
H919 H 0.94946 0.4623 0.38371 0.0
H920 H 0.94886 0.50664 0.45867 0.0
H921 H 0.94548 0.53896 0.48306 0.0
H922 H 0.00864 0.59562 0.44315 0.0
H923 H 0.01219 0.56364 0.41826 0.0
C924 C 0.05868 0.47802 0.41221 0.0
C925 C 0.07912 0.49937 0.40218 0.0
C926 C 0.0357 0.47692 0.41489 0.0
C927 C 0.03281 0.49709 0.40748 0.0
C928 C 0.05341 0.51869 0.39835 0.0
C929 C 0.07631 0.51982 0.39568 0.0
C930 C 0.00816 0.49542 0.40788 0.0
C931 C 0.0054 0.51355 0.42132 0.0
C932 C 0.98767 0.47659 0.39435 0.0
C933 C 0.98977 0.45784 0.37846 0.0
C934 C 0.00702 0.46524 0.3583 0.0
C935 C 0.00895 0.44747 0.34345 0.0
C936 C -0.00643 0.42223 0.34844 0.0
C937 C 0.97619 0.41472 0.36825 0.0
C938 C 0.97421 0.43242 0.38318 0.0
C939 C 0.91568 0.5145 0.389 0.0
C940 C 0.89312 0.49294 0.39446 0.0
C941 C 0.93828 0.51543 0.39404 0.0
C942 C 0.93866 0.4949 0.40476 0.0
C943 C 0.91619 0.4737 0.41098 0.0
C944 C 0.89364 0.47274 0.40597 0.0
C945 C 0.96234 0.49478 0.40765 0.0
C946 C 0.96496 0.47634 0.3947 0.0
C947 C 0.9827 0.51344 0.42146 0.0
C948 C 0.98066 0.53273 0.43645 0.0
C949 C 0.96191 0.52599 0.45495 0.0
C950 C 0.95999 0.54426 0.46889 0.0
C951 C 0.9768 0.56933 0.46462 0.0
C952 C -0.00438 0.57619 0.44643 0.0
C953 C -0.00239 0.558 0.43242 0.0
H954 H 0.97529 0.58344 0.47543 0.0
H955 H -0.00492 0.4085 0.33691 0.0
H956 H 0.57557 0.08445 0.69394 0.0
H957 H 0.53955 0.0432 0.68799 0.0
H958 H 0.51076 0.04909 0.76131 0.0
H959 H 0.54676 0.09041 0.76752 0.0
H960 H 0.50538 0.00207 0.75138 0.0
H961 H 0.48938 0.06215 0.71014 0.0
H962 H 0.50002 0.09718 0.681 0.0
H963 H 0.50032 0.05339 0.61725 0.0
H964 H 0.49012 0.01823 0.64609 0.0
H965 H 0.38834 0.90122 0.73603 0.0
H966 H 0.41726 0.94565 0.74046 0.0
H967 H 0.44725 0.9464 0.66569 0.0
H968 H 0.41797 0.90215 0.66081 0.0
H969 H 0.45086 0.99113 0.67705 0.0
H970 H 0.47095 0.9333 0.71634 0.0
H971 H 0.46272 0.89789 0.74395 0.0
H972 H 0.45739 0.93698 0.80955 0.0
H973 H 0.46514 0.97245 0.7822 0.0
C974 C 0.56183 0.07682 0.70904 0.0
C975 C 0.56389 0.09078 0.73112 0.0
C976 C 0.5412 0.05332 0.70551 0.0
C977 C 0.52235 0.04341 0.724 0.0
C978 C 0.52508 0.05658 0.74676 0.0
C979 C 0.54565 0.08016 0.75026 0.0
C980 C 0.49927 0.01979 0.71906 0.0
C981 C 0.49323 -0.00023 0.7354 0.0
C982 C 0.48383 0.01677 0.69782 0.0
C983 C 0.48917 0.03762 0.68032 0.0
C984 C 0.49184 0.06003 0.68992 0.0
C985 C 0.49779 0.07991 0.67346 0.0
C986 C 0.5009 0.07753 0.6473 0.0
C987 C 0.49794 0.05522 0.63752 0.0
C988 C 0.49204 0.0353 0.65392 0.0
C989 C 0.40048 0.91103 0.72016 0.0
C990 C 0.40132 0.89812 0.69834 0.0
C991 C 0.41702 0.93639 0.72274 0.0
C992 C 0.43488 0.94906 0.70374 0.0
C993 C 0.43376 0.93688 0.68067 0.0
C994 C 0.417 0.91154 0.67793 0.0
C995 C 0.45687 0.97342 0.70948 0.0
C996 C 0.46282 -0.00647 0.69323 0.0
C997 C 0.47249 0.97648 0.73062 0.0
C998 C 0.46836 0.95541 0.7472 0.0
C999 C 0.46788 0.93428 0.73663 0.0
C1000 C 0.4633 0.9142 0.75222 0.0
C1001 C 0.45948 0.91516 0.77848 0.0
C1002 C 0.46031 0.93624 0.7892 0.0
C1003 C 0.46479 0.95634 0.77366 0.0
H1004 H 0.45592 0.89959 0.79052 0.0
H1005 H 0.50557 0.09296 0.63459 0.0
H1006 H 0.50134 0.57963 1.00598 0.0
H1007 H 0.50749 0.54396 1.01184 0.0
H1008 H 0.48511 0.53873 0.09082 0.0
H1009 H 0.4788 0.57434 0.08516 0.0
H1010 H 0.52679 0.53176 0.08248 0.0
H1011 H 0.44375 0.50241 0.05053 0.0
H1012 H 0.41308 0.50213 1.02031 0.0
H1013 H 0.4466 0.48313 0.95869 0.0
H1014 H 0.47776 0.48376 0.98847 0.0
H1015 H 0.50824 0.41093 0.10254 0.0
H1016 H 0.49992 0.44557 0.10069 0.0
H1017 H 0.5104 0.44947 1.0188 0.0
H1018 H 0.51811 0.41466 1.02036 0.0
H1019 H 0.47316 0.45673 0.03056 0.0
H1020 H 0.55703 0.48822 0.05941 0.0
H1021 H 0.59012 0.49043 0.08734 0.0
H1022 H 0.5579 0.50703 0.15199 0.0
H1023 H 0.52438 0.50455 0.12449 0.0
C1024 C 0.49809 0.57114 1.02471 0.0
C1025 C 0.4894 0.57966 0.04507 0.0
C1026 C 0.50152 0.55073 1.02798 0.0
C1027 C 0.49643 0.53861 0.05167 0.0
C1028 C 0.48903 0.54784 0.07239 0.0
C1029 C 0.48539 0.56812 0.06909 0.0
C1030 C 0.49756 0.51551 0.05441 0.0
C1031 C 0.51485 0.5152 0.07145 0.0
C1032 C 0.48227 0.49419 0.03955 0.0
C1033 C 0.46324 0.49335 1.0217 0.0
C1034 C 0.44469 0.49835 0.03051 0.0
C1035 C 0.42721 0.49812 1.01345 0.0
C1036 C 0.42793 0.49269 0.98757 0.0
C1037 C 0.44608 0.48739 0.97872 0.0
C1038 C 0.46366 0.48766 0.99569 0.0
C1039 C 0.50845 0.41896 0.08411 0.0
C1040 C 0.51405 0.41018 0.06164 0.0
C1041 C 0.50382 0.43883 0.0831 0.0
C1042 C 0.50498 0.45036 0.05965 0.0
C1043 C 0.50948 0.4409 0.0371 0.0
C1044 C 0.51395 0.42101 0.03806 0.0
C1045 C 0.50257 0.47293 0.05854 0.0
C1046 C 0.48501 0.47317 0.04179 0.0
C1047 C 0.51787 0.49431 0.07339 0.0
C1048 C 0.53804 0.49591 0.08996 0.0
C1049 C 0.55689 0.49215 0.07963 0.0
C1050 C 0.57574 0.49348 0.09537 0.0
C1051 C 0.57607 0.49879 0.12144 0.0
C1052 C 0.55759 0.50286 0.1318 0.0
C1053 C 0.53866 0.5015 0.11615 0.0
H1054 H 0.59069 0.49982 0.1336 0.0
H1055 H 0.41437 0.49253 0.97441 0.0
H1056 H 0.49725 0.15954 0.24623 0.0
H1057 H 0.49725 0.1844 0.21015 0.0
H1058 H 0.51554 0.246 0.26111 0.0
H1059 H 0.51528 0.22108 0.2975 0.0
H1060 H 0.48246 0.24231 0.22515 0.0
H1061 H 0.55991 0.24337 0.22664 0.0
H1062 H 0.58778 0.22563 0.22765 0.0
H1063 H 0.55848 0.18938 0.15552 0.0
H1064 H 0.53016 0.20662 0.15428 0.0
H1065 H 0.54042 0.34326 0.13947 0.0
H1066 H 0.5303 0.31271 0.17316 0.0
H1067 H 0.50721 0.25475 0.11637 0.0
H1068 H 0.5173 0.28549 0.0822 0.0
H1069 H 0.53992 0.25416 0.15349 0.0
H1070 H 0.46411 0.25711 0.15182 0.0
H1071 H 0.43854 0.27742 0.15198 0.0
H1072 H 0.46761 0.30919 0.22584 0.0
H1073 H 0.49363 0.28935 0.22596 0.0
C1074 C 0.50099 0.17828 0.24989 0.0
C1075 C 0.50644 0.18836 0.27479 0.0
C1076 C 0.50107 0.19252 0.22917 0.0
C1077 C 0.5068 0.21723 0.23281 0.0
C1078 C 0.51113 0.227 0.2578 0.0
C1079 C 0.51099 0.21273 0.2786 0.0
C1080 C 0.50939 0.23315 0.21044 0.0
C1081 C 0.49515 0.24504 0.20958 0.0
C1082 C 0.52569 0.23645 0.18987 0.0
C1083 C 0.54273 0.22609 0.1905 0.0
C1084 C 0.55929 0.23147 0.21109 0.0
C1085 C 0.57518 0.22153 0.21169 0.0
C1086 C 0.57486 0.20635 0.19169 0.0
C1087 C 0.55868 0.20112 0.17102 0.0
C1088 C 0.5427 0.21098 0.17035 0.0
C1089 C 0.53301 0.324 0.13403 0.0
C1090 C 0.5297 0.31682 0.10809 0.0
C1091 C 0.52712 0.30652 0.15339 0.0
C1092 C 0.51784 0.28141 0.14734 0.0
C1093 C 0.51429 0.27404 0.12147 0.0
C1094 C 0.51995 0.29158 0.10198 0.0
C1095 C 0.51298 0.26329 0.1682 0.0
C1096 C 0.52694 0.25111 0.16886 0.0
C1097 C 0.49671 0.26003 0.18875 0.0
C1098 C 0.48096 0.27188 0.18881 0.0
C1099 C 0.46519 0.26857 0.16801 0.0
C1100 C 0.45059 0.27998 0.16807 0.0
C1101 C 0.45149 0.29463 0.18888 0.0
C1102 C 0.46694 0.29785 0.20972 0.0
C1103 C 0.4816 0.2865 0.20975 0.0
H1104 H 0.44017 0.30344 0.18889 0.0
H1105 H 0.58718 0.19868 0.19218 0.0
H1106 H 0.17511 0.53169 0.47513 0.0
H1107 H 0.19607 0.52478 0.51081 0.0
H1108 H 0.21112 0.47652 0.46368 0.0
H1109 H 0.19001 0.48346 0.42738 0.0
H1110 H 0.19563 0.45875 0.51491 0.0
H1111 H 0.25636 0.5316 0.47258 0.0
H1112 H 0.27349 0.57263 0.45231 0.0
H1113 H 0.26656 0.60392 0.52325 0.0
H1114 H 0.24897 0.56294 0.54386 0.0
H1115 H 0.29387 0.46982 0.59793 0.0
H1116 H 0.26743 0.4677 0.56214 0.0
H1117 H 0.24998 0.51833 0.60163 0.0
H1118 H 0.27626 0.52042 0.6376 0.0
H1119 H 0.26765 0.53336 0.55231 0.0
H1120 H 0.20616 0.45968 0.59427 0.0
H1121 H 0.18921 0.41844 0.61405 0.0
H1122 H 0.19863 0.38858 0.54329 0.0
H1123 H 0.21599 0.42976 0.52317 0.0
C1124 C 0.18268 0.51944 0.47222 0.0
C1125 C 0.18101 0.50826 0.44824 0.0
C1126 C 0.19472 0.51555 0.49272 0.0
C1127 C 0.20541 0.50037 0.48985 0.0
C1128 C 0.20303 0.48836 0.46628 0.0
C1129 C 0.19103 0.49238 0.44555 0.0
C1130 C 0.21986 0.49816 0.51138 0.0
C1131 C 0.21164 0.47496 0.52285 0.0
C1132 C 0.2405 0.5194 0.52199 0.0
C1133 C 0.25111 0.54413 0.50971 0.0
C1134 C 0.25827 0.54717 0.48381 0.0
C1135 C 0.2681 0.57043 0.47226 0.0
C1136 C 0.27106 0.59086 0.48646 0.0
C1137 C 0.26423 0.58807 0.51226 0.0
C1138 C 0.25434 0.56483 0.5239 0.0
C1139 C 0.28403 0.48014 0.59924 0.0
C1140 C 0.28724 0.49535 0.62062 0.0
C1141 C 0.26888 0.47887 0.57876 0.0
C1142 C 0.25676 0.49289 0.57917 0.0
C1143 C 0.25919 0.50737 0.6009 0.0
C1144 C 0.27411 0.50843 0.62152 0.0
C1145 C 0.24319 0.49402 0.5562 0.0
C1146 C 0.25169 0.51709 0.54437 0.0
C1147 C 0.22297 0.47263 0.54522 0.0
C1148 C 0.21265 0.44788 0.5573 0.0
C1149 C 0.20486 0.44439 0.583 0.0
C1150 C 0.19512 0.421 0.59426 0.0
C1151 C 0.19292 0.40092 0.57996 0.0
C1152 C 0.20039 0.40417 0.55435 0.0
C1153 C 0.21017 0.42752 0.54301 0.0
H1154 H 0.18535 0.38283 0.58871 0.0
H1155 H 0.27869 0.60886 0.47749 0.0
H1156 H 0.79055 0.35476 0.91073 0.0
H1157 H 0.76964 0.32539 0.87599 0.0
H1158 H 0.73219 0.26644 0.93069 0.0
H1159 H 0.75341 0.29587 0.96586 0.0
H1160 H 0.74947 0.25176 0.88947 0.0
H1161 H 0.70138 0.29204 0.90266 0.0
H1162 H 0.69439 0.32764 0.9077 0.0
H1163 H 0.7233 0.35284 0.83227 0.0
H1164 H 0.73079 0.31756 0.82692 0.0
H1165 H 0.65501 0.16663 0.80531 0.0
H1166 H 0.68023 0.19429 0.83969 0.0
H1167 H 0.71469 0.25477 0.78612 0.0
H1168 H 0.689 0.2272 0.75156 0.0
H1169 H 0.69932 0.26848 0.82705 0.0
H1170 H 0.74673 0.22765 0.81344 0.0
H1171 H 0.75366 0.192 0.80847 0.0
H1172 H 0.72598 0.16766 0.88444 0.0
H1173 H 0.71857 0.20299 0.88974 0.0
C1174 C 0.77788 0.33556 0.9155 0.0
C1175 C 0.77354 0.32772 0.94116 0.0
C1176 C 0.76588 0.31878 0.89554 0.0
C1177 C 0.74908 0.29376 0.9007 0.0
C1178 C 0.74503 0.28568 0.92626 0.0
C1179 C 0.75709 0.30253 0.94634 0.0
C1180 C 0.73563 0.27628 0.87931 0.0
C1181 C 0.73821 0.2552 0.87601 0.0
C1182 C 0.72144 0.28109 0.86137 0.0
C1183 C 0.71686 0.30228 0.86449 0.0
C1184 C 0.70643 0.30528 0.88722 0.0
C1185 C 0.70234 0.32538 0.89012 0.0
C1186 C 0.70845 0.34252 0.87034 0.0
C1187 C 0.7186 0.33956 0.84759 0.0
C1188 C 0.72275 0.3195 0.8446 0.0
C1189 C 0.66822 0.18571 0.80067 0.0
C1190 C 0.6699 0.19468 0.77562 0.0
C1191 C 0.68274 0.20153 0.82041 0.0
C1192 C 0.69952 0.22664 0.81555 0.0
C1193 C 0.70187 0.23547 0.79038 0.0
C1194 C 0.68726 0.21965 0.77059 0.0
C1195 C 0.71325 0.24396 0.83701 0.0
C1196 C 0.71064 0.26502 0.84041 0.0
C1197 C 0.72738 0.23909 0.855 0.0
C1198 C 0.73189 0.21785 0.8519 0.0
C1199 C 0.74194 0.21459 0.82901 0.0
C1200 C 0.74599 0.19446 0.82615 0.0
C1201 C 0.74021 0.17755 0.8461 0.0
C1202 C 0.73043 0.18077 0.86899 0.0
C1203 C 0.72632 0.20085 0.87195 0.0
H1204 H 0.74336 0.16197 0.84385 0.0
H1205 H 0.70527 0.35808 0.87262 0.0
H1206 H 0.46862 0.69658 0.09246 0.0
H1207 H 0.47466 0.72473 0.12824 0.0
H1208 H 0.50741 0.69002 0.17299 0.0
H1209 H 0.50106 0.66168 0.13762 0.0
H1210 H 0.47338 0.69305 0.20005 0.0
H1211 H 0.54236 0.74988 0.14908 0.0
H1212 H 0.56352 0.77292 0.11006 0.0
H1213 H 0.51829 0.80753 0.10963 0.0
H1214 H 0.49662 0.78443 0.14847 0.0
H1215 H 0.50125 0.77551 0.30608 0.0
H1216 H 0.50593 0.7526 0.2701 0.0
H1217 H 0.478 0.78717 0.21842 0.0
H1218 H 0.47445 0.81079 0.25383 0.0
H1219 H 0.51297 0.78465 0.19556 0.0
H1220 H 0.44153 0.72494 0.24415 0.0
H1221 H 0.41968 0.70105 0.28253 0.0
H1222 H 0.46904 0.67133 0.28683 0.0
H1223 H 0.49141 0.69525 0.24861 0.0
C1224 C 0.47749 0.69524 0.10976 0.0
C1225 C 0.48426 0.67679 0.11217 0.0
C1226 C 0.48099 0.71138 0.13023 0.0
C1227 C 0.49157 0.70959 0.15339 0.0
C1228 C 0.49911 0.69174 0.15542 0.0
C1229 C 0.49552 0.67557 0.13509 0.0
C1230 C 0.49336 0.72512 0.17606 0.0
C1231 C 0.48241 0.71313 0.19915 0.0
C1232 C 0.50467 0.75128 0.17488 0.0
C1233 C 0.51773 0.76525 0.15157 0.0
C1234 C 0.5368 0.76226 0.14056 0.0
C1235 C 0.54891 0.77535 0.11849 0.0
C1236 C 0.54222 0.79163 0.10734 0.0
C1237 C 0.52344 0.79489 0.11827 0.0
C1238 C 0.51126 0.78183 0.14033 0.0
C1239 C 0.49634 0.77836 0.28699 0.0
C1240 C 0.48743 0.79496 0.28289 0.0
C1241 C 0.49884 0.76511 0.26642 0.0
C1242 C 0.49188 0.76772 0.24144 0.0
C1243 C 0.48354 0.78474 0.23737 0.0
C1244 C 0.48146 0.79825 0.25776 0.0
C1245 C 0.49267 0.75256 0.2195 0.0
C1246 C 0.50409 0.76459 0.19652 0.0
C1247 C 0.48171 0.72639 0.22072 0.0
C1248 C 0.46831 0.7121 0.24372 0.0
C1249 C 0.44783 0.71345 0.25339 0.0
C1250 C 0.43534 0.69988 0.27509 0.0
C1251 C 0.44299 0.68475 0.28716 0.0
C1252 C 0.46315 0.68309 0.2775 0.0
C1253 C 0.47575 0.69664 0.25582 0.0
H1254 H 0.43326 0.67426 0.30395 0.0
H1255 H 0.55161 0.80175 0.09025 0.0
H1256 H 0.68344 0.48974 0.62554 0.0
H1257 H 0.71277 0.49786 0.59027 0.0
H1258 H 0.65957 0.4295 0.5537 0.0
H1259 H 0.63039 0.4213 0.58854 0.0
H1260 H 0.70525 0.43415 0.55497 0.0
H1261 H 0.66859 0.48388 0.53143 0.0
H1262 H 0.65697 0.51621 0.53789 0.0
H1263 H 0.73384 0.57134 0.54631 0.0
H1264 H 0.74591 0.53926 0.54024 0.0
H1265 H 0.75827 0.47868 0.42057 0.0
H1266 H 0.73199 0.47861 0.45583 0.0
H1267 H 0.78371 0.47796 0.51051 0.0
H1268 H 0.80993 0.47799 0.47566 0.0
H1269 H 0.7388 0.5087 0.49969 0.0
H1270 H 0.74959 0.43488 0.55573 0.0
H1271 H 0.7593 0.40138 0.54765 0.0
H1272 H 0.73 0.39206 0.47141 0.0
H1273 H 0.71981 0.42523 0.47917 0.0
C1274 C 0.67803 0.47648 0.60997 0.0
C1275 C 0.65456 0.45488 0.60988 0.0
C1276 C 0.69475 0.48119 0.58978 0.0
C1277 C 0.68831 0.46432 0.56928 0.0
C1278 C 0.66496 0.44275 0.5693 0.0
C1279 C 0.64826 0.43814 0.58927 0.0
C1280 C 0.70586 0.46862 0.54791 0.0
C1281 C 0.71267 0.45053 0.54301 0.0
C1282 C 0.71534 0.48983 0.53205 0.0
C1283 C 0.70813 0.50913 0.53566 0.0
C1284 C 0.683 0.50286 0.53488 0.0
C1285 C 0.67634 0.52115 0.53843 0.0
C1286 C 0.69465 0.5458 0.54258 0.0
C1287 C 0.71968 0.55223 0.54313 0.0
C1288 C 0.72644 0.53401 0.53962 0.0
C1289 C 0.76424 0.47893 0.44011 0.0
C1290 C 0.78607 0.47805 0.44526 0.0
C1291 C 0.74924 0.47896 0.46023 0.0
C1292 C 0.75575 0.47797 0.48578 0.0
C1293 C 0.77819 0.47845 0.49094 0.0
C1294 C 0.79315 0.47845 0.47093 0.0
C1295 C 0.73827 0.47432 0.507 0.0
C1296 C 0.73152 0.49246 0.51185 0.0
C1297 C 0.72856 0.453 0.52271 0.0
C1298 C 0.73419 0.43271 0.51797 0.0
C1299 C 0.74514 0.4256 0.53729 0.0
C1300 C 0.75073 0.40668 0.53275 0.0
C1301 C 0.74535 0.39466 0.509 0.0
C1302 C 0.73425 0.40145 0.48976 0.0
C1303 C 0.72859 0.42033 0.49421 0.0
H1304 H 0.74972 0.38004 0.50552 0.0
H1305 H 0.68945 0.55993 0.54532 0.0
H1306 H 0.1786 0.6358 0.90564 0.0
H1307 H 0.20689 0.6654 0.87443 0.0
H1308 H 0.24584 0.71797 0.93499 0.0
H1309 H 0.21736 0.68829 0.96661 0.0
H1310 H 0.2396 0.74024 0.89164 0.0
H1311 H 0.26952 0.68444 0.91163 0.0
H1312 H 0.26661 0.64367 0.91741 0.0
H1313 H 0.24722 0.62623 0.83813 0.0
H1314 H 0.2496 0.66675 0.83198 0.0
H1315 H 0.35044 0.81609 0.82254 0.0
H1316 H 0.31941 0.78896 0.85341 0.0
H1317 H 0.2826 0.73374 0.79444 0.0
H1318 H 0.31396 0.76076 0.76336 0.0
H1319 H 0.28756 0.71309 0.83729 0.0
H1320 H 0.25793 0.76917 0.81721 0.0
H1321 H 0.26084 0.80996 0.81158 0.0
H1322 H 0.27996 0.82708 0.89095 0.0
H1323 H 0.27749 0.78651 0.89698 0.0
C1324 C 0.19301 0.65372 0.91242 0.0
C1325 C 0.19581 0.65957 0.93871 0.0
C1326 C 0.20925 0.67061 0.89449 0.0
C1327 C 0.22875 0.69374 0.90239 0.0
C1328 C 0.23098 0.70017 0.92848 0.0
C1329 C 0.21469 0.68319 0.94653 0.0
C1330 C 0.24723 0.71067 0.8834 0.0
C1331 C 0.25034 0.73446 0.87999 0.0
C1332 C 0.26086 0.7029 0.86779 0.0
C1333 C 0.25949 0.67854 0.87141 0.0
C1334 C 0.26442 0.67183 0.89548 0.0
C1335 C 0.2629 0.64877 0.89882 0.0
C1336 C 0.25668 0.63234 0.87817 0.0
C1337 C 0.25201 0.63896 0.85412 0.0
C1338 C 0.25345 0.66197 0.85069 0.0
C1339 C 0.33568 0.79824 0.81602 0.0
C1340 C 0.33469 0.79064 0.7904 0.0
C1341 C 0.31784 0.78277 0.83373 0.0
C1342 C 0.29844 0.7594 0.82624 0.0
C1343 C 0.29735 0.75173 0.80067 0.0
C1344 C 0.31525 0.76722 0.78289 0.0
C1345 C 0.27987 0.74269 0.84535 0.0
C1346 C 0.27678 0.71891 0.84886 0.0
C1347 C 0.26631 0.75049 0.86104 0.0
C1348 C 0.26775 0.77488 0.85749 0.0
C1349 C 0.26295 0.78171 0.83342 0.0
C1350 C 0.26448 0.80478 0.83016 0.0
C1351 C 0.27064 0.82113 0.85088 0.0
C1352 C 0.27522 0.81441 0.87491 0.0
C1353 C 0.27373 0.79137 0.87827 0.0
H1354 H 0.27182 0.83898 0.84832 0.0
H1355 H 0.25553 0.61451 0.88079 0.0
loop_
_geom_bond_atom_site_label_1
_geom_bond_atom_site_label_2
_geom_bond_distance
_geom_bond_site_symmetry_2
_ccdc_geom_bond_type
Mg0 O7 2.141 . S
Mg0 O8 2.048 . S
Mg0 O9 2.048 . S
Mg0 O12 2.141 . S
C1 O2 1.313 . S
C1 O8 1.195 . S
O2 C1 1.313 . S
C3 O4 1.245 . S
C3 O12 1.289 . S
O4 C3 1.245 . S
C5 O6 1.245 . S
C5 O7 1.289 . S
O6 C5 1.245 . S
O7 Mg0 2.141 . S
O7 C5 1.289 . S
O8 Mg0 2.048 . S
O8 C1 1.195 . S
O9 Mg0 2.048 . S
O9 C10 1.195 . S
C10 O9 1.195 . S
C10 O11 1.313 . S
O11 C10 1.313 . S
O12 Mg0 2.141 . S
O12 C3 1.289 . S
Mg13 O20 2.141 . S
Mg13 O21 2.048 . S
Mg13 O22 2.048 . S
Mg13 O25 2.141 . S
C14 O15 1.313 . S
C14 O21 1.195 . S
O15 C14 1.313 . S
C16 O17 1.245 . S
C16 O25 1.289 . S
O17 C16 1.245 . S
C18 O19 1.245 . S
C18 O20 1.289 . S
O19 C18 1.245 . S
O20 Mg13 2.141 . S
O20 C18 1.289 . S
O21 Mg13 2.048 . S
O21 C14 1.195 . S
O22 Mg13 2.048 . S
O22 C23 1.195 . S
C23 O22 1.195 . S
C23 O24 1.313 . S
O24 C23 1.313 . S
O25 Mg13 2.141 . S
O25 C16 1.289 . S
Mg26 O33 2.163 . S
Mg26 O34 2.046 1_556 S
Mg26 O35 2.025 1_556 S
Mg26 O38 2.144 . S
C27 O28 1.309 1_554 S
C27 O34 1.197 . S
O28 C27 1.309 1_556 S
C29 O30 1.245 . S
C29 O38 1.289 . S
O30 C29 1.245 . S
C31 O32 1.245 . S
C31 O33 1.289 . S
O32 C31 1.245 . S
O33 Mg26 2.163 . S
O33 C31 1.289 . S
O34 Mg26 2.046 1_554 S
O34 C27 1.197 . S
O35 Mg26 2.025 1_554 S
O35 C36 1.195 . S
C36 O35 1.195 . S
C36 O37 1.313 . S
O37 C36 1.313 . S
O38 Mg26 2.144 . S
O38 C29 1.289 . S
Mg39 O46 2.141 . S
Mg39 O47 2.048 . S
Mg39 O48 2.048 . S
Mg39 O51 2.141 . S
C40 O41 1.313 . S
C40 O47 1.195 . S
O41 C40 1.313 . S
C42 O43 1.245 . S
C42 O51 1.289 . S
O43 C42 1.245 . S
C44 O45 1.245 . S
C44 O46 1.289 . S
O45 C44 1.245 . S
O46 Mg39 2.141 . S
O46 C44 1.289 . S
O47 Mg39 2.048 . S
O47 C40 1.195 . S
O48 Mg39 2.048 . S
O48 C49 1.195 . S
C49 O48 1.195 . S
C49 O50 1.313 . S
O50 C49 1.313 . S
O51 Mg39 2.141 . S
O51 C42 1.289 . S
Mg52 O59 2.141 . S
Mg52 O60 2.048 . S
Mg52 O61 2.048 . S
Mg52 O64 2.141 . S
C53 O54 1.313 . S
C53 O60 1.195 . S
O54 C53 1.313 . S
C55 O56 1.245 . S
C55 O64 1.289 . S
O56 C55 1.245 . S
C57 O58 1.245 . S
C57 O59 1.289 . S
O58 C57 1.245 . S
O59 Mg52 2.141 . S
O59 C57 1.289 . S
O60 Mg52 2.048 . S
O60 C53 1.195 . S
O61 Mg52 2.048 . S
O61 C62 1.195 . S
C62 O61 1.195 . S
C62 O63 1.313 . S
O63 C62 1.313 . S
O64 Mg52 2.141 . S
O64 C55 1.289 . S
Mg65 O72 2.163 . S
Mg65 O73 2.046 1_556 S
Mg65 O74 2.025 1_556 S
Mg65 O77 2.144 . S
C66 O67 1.309 1_554 S
C66 O73 1.197 . S
O67 C66 1.309 1_556 S
C68 O69 1.245 . S
C68 O77 1.289 . S
O69 C68 1.245 . S
C70 O71 1.245 . S
C70 O72 1.289 . S
O71 C70 1.245 . S
O72 Mg65 2.163 . S
O72 C70 1.289 . S
O73 Mg65 2.046 1_554 S
O73 C66 1.197 . S
O74 Mg65 2.025 1_554 S
O74 C75 1.195 . S
C75 O74 1.195 . S
C75 O76 1.313 . S
O76 C75 1.313 . S
O77 Mg65 2.144 . S
O77 C68 1.289 . S
Mg78 O85 2.141 . S
Mg78 O86 2.048 . S
Mg78 O87 2.048 . S
Mg78 O90 2.141 . S
C79 O80 1.313 . S
C79 O86 1.195 . S
O80 C79 1.313 . S
C81 O82 1.245 . S
C81 O90 1.289 . S
O82 C81 1.245 . S
C83 O84 1.245 . S
C83 O85 1.289 . S
O84 C83 1.245 . S
O85 Mg78 2.141 . S
O85 C83 1.289 . S
O86 Mg78 2.048 . S
O86 C79 1.195 . S
O87 Mg78 2.048 . S
O87 C88 1.195 . S
C88 O87 1.195 . S
C88 O89 1.313 . S
O89 C88 1.313 . S
O90 Mg78 2.141 . S
O90 C81 1.289 . S
Mg91 O98 2.141 . S
Mg91 O99 2.048 . S
Mg91 O100 2.048 . S
Mg91 O103 2.141 . S
C92 O93 1.313 . S
C92 O99 1.195 . S
O93 C92 1.313 . S
C94 O95 1.245 . S
C94 O103 1.289 . S
O95 C94 1.245 . S
C96 O97 1.245 . S
C96 O98 1.289 . S
O97 C96 1.245 . S
O98 Mg91 2.141 . S
O98 C96 1.289 . S
O99 Mg91 2.048 . S
O99 C92 1.195 . S
O100 Mg91 2.048 . S
O100 C101 1.195 . S
C101 O100 1.195 . S
C101 O102 1.313 . S
O102 C101 1.313 . S
O103 Mg91 2.141 . S
O103 C94 1.289 . S
Mg104 O111 2.141 1_556 S
Mg104 O112 2.048 . S
Mg104 O113 2.048 . S
Mg104 O116 2.140 1_556 S
C105 O106 1.313 . S
C105 O112 1.195 . S
O106 C105 1.313 . S
C107 O108 1.245 . S
C107 O116 1.292 . S
O108 C107 1.245 . S
C109 O110 1.245 . S
C109 O111 1.289 . S
O110 C109 1.245 . S
O111 Mg104 2.141 1_554 S
O111 C109 1.289 . S
O112 Mg104 2.048 . S
O112 C105 1.195 . S
O113 Mg104 2.048 . S
O113 C114 1.195 . S
C114 O113 1.195 . S
C114 O115 1.313 . S
O115 C114 1.313 . S
O116 Mg104 2.140 1_554 S
O116 C107 1.292 . S
Mg117 O124 2.141 . S
Mg117 O125 2.048 . S
Mg117 O126 2.048 . S
Mg117 O129 2.141 . S
C118 O119 1.313 . S
C118 O125 1.195 . S
O119 C118 1.313 . S
C120 O121 1.245 . S
C120 O129 1.289 . S
O121 C120 1.245 . S
C122 O123 1.245 . S
C122 O124 1.289 . S
O123 C122 1.245 . S
O124 Mg117 2.141 . S
O124 C122 1.289 . S
O125 Mg117 2.048 . S
O125 C118 1.195 . S
O126 Mg117 2.048 . S
O126 C127 1.195 . S
C127 O126 1.195 . S
C127 O128 1.313 . S
O128 C127 1.313 . S
O129 Mg117 2.141 . S
O129 C120 1.289 . S
Mg130 O137 2.141 . S
Mg130 O138 2.048 . S
Mg130 O139 2.048 . S
Mg130 O142 2.141 . S
C131 O132 1.313 . S
C131 O138 1.195 . S
O132 C131 1.313 . S
C133 O134 1.245 . S
C133 O142 1.289 . S
O134 C133 1.245 . S
C135 O136 1.245 . S
C135 O137 1.289 . S
O136 C135 1.245 . S
O137 Mg130 2.141 . S
O137 C135 1.289 . S
O138 Mg130 2.048 . S
O138 C131 1.195 . S
O139 Mg130 2.048 . S
O139 C140 1.195 . S
C140 O139 1.195 . S
C140 O141 1.313 . S
O141 C140 1.313 . S
O142 Mg130 2.141 . S
O142 C133 1.289 . S
Mg143 O150 2.141 1_556 S
Mg143 O151 2.048 . S
Mg143 O152 2.048 . S
Mg143 O155 2.140 1_556 S
C144 O145 1.313 . S
C144 O151 1.195 . S
O145 C144 1.313 . S
C146 O147 1.245 . S
C146 O155 1.292 . S
O147 C146 1.245 . S
C148 O149 1.245 . S
C148 O150 1.289 . S
O149 C148 1.245 . S
O150 Mg143 2.141 1_554 S
O150 C148 1.289 . S
O151 Mg143 2.048 . S
O151 C144 1.195 . S
O152 Mg143 2.048 . S
O152 C153 1.195 . S
C153 O152 1.195 . S
C153 O154 1.313 . S
O154 C153 1.313 . S
O155 Mg143 2.140 1_554 S
O155 C146 1.292 . S
H156 C174 0.951 . S
H157 C176 0.951 . S
H158 C178 0.950 . S
H159 C179 0.950 . S
H160 C181 0.950 . S
H161 C184 0.950 . S
H162 C185 0.950 . S
H163 C187 0.950 . S
H164 C188 0.950 . S
H165 C189 0.951 . S
H166 C191 0.951 . S
H167 C193 0.950 . S
H168 C194 0.950 . S
H169 C196 0.950 . S
H170 C199 0.950 . S
H171 C200 0.950 . S
H172 C202 0.950 . S
H173 C203 0.950 . S
C174 H156 0.951 . S
C174 C175 1.366 . S
C174 C176 1.388 . S
C175 C174 1.366 . S
C175 C179 1.385 . S
C176 H157 0.951 . S
C176 C174 1.388 . S
C176 C177 1.366 . S
C177 C176 1.366 . S
C177 C178 1.414 . S
C177 C180 1.499 . S
C178 H158 0.950 . S
C178 C177 1.414 . S
C178 C179 1.374 . S
C179 H159 0.950 . S
C179 C175 1.385 . S
C179 C178 1.374 . S
C180 C177 1.499 . S
C180 C181 1.373 . S
C180 C182 1.389 . S
C181 H160 0.950 . S
C181 C180 1.373 . S
C181 C197 1.377 . S
C182 C180 1.389 . S
C182 C183 1.524 . S
C182 C196 1.377 . S
C183 C182 1.524 . S
C183 C184 1.397 . S
C183 C188 1.363 . S
C184 H161 0.950 . S
C184 C183 1.397 . S
C184 C185 1.334 . S
C185 H162 0.950 . S
C185 C184 1.334 . S
C185 C186 1.287 . S
C186 C185 1.287 . S
C186 C187 1.524 . S
C186 H205 0.913 . S
C187 H163 0.950 . S
C187 C186 1.524 . S
C187 C188 1.415 . S
C188 H164 0.950 . S
C188 C183 1.363 . S
C188 C187 1.415 . S
C189 H165 0.951 . S
C189 C190 1.366 . S
C189 C191 1.388 . S
C190 C189 1.366 . S
C190 C194 1.385 . S
C191 H166 0.951 . S
C191 C189 1.388 . S
C191 C192 1.366 . S
C192 C191 1.366 . S
C192 C193 1.414 . S
C192 C195 1.499 . S
C193 H167 0.950 . S
C193 C192 1.414 . S
C193 C194 1.374 . S
C194 H168 0.950 . S
C194 C190 1.385 . S
C194 C193 1.374 . S
C195 C192 1.499 . S
C195 C196 1.373 . S
C195 C197 1.389 . S
C196 H169 0.950 . S
C196 C182 1.377 . S
C196 C195 1.373 . S
C197 C181 1.377 . S
C197 C195 1.389 . S
C197 C198 1.524 . S
C198 C197 1.524 . S
C198 C199 1.397 . S
C198 C203 1.363 . S
C199 H170 0.950 . S
C199 C198 1.397 . S
C199 C200 1.334 . S
C200 H171 0.950 . S
C200 C199 1.334 . S
C200 C201 1.287 . S
C201 C200 1.287 . S
C201 C202 1.524 . S
C201 H204 0.999 . S
C202 H172 0.950 . S
C202 C201 1.524 . S
C202 C203 1.415 . S
C203 H173 0.950 . S
C203 C198 1.363 . S
C203 C202 1.415 . S
H204 C201 0.999 . S
H205 C186 0.913 . S
H206 C224 0.951 . S
H207 C226 0.951 . S
H208 C228 0.950 . S
H209 C229 0.950 . S
H210 C231 0.950 . S
H211 C234 0.950 . S
H212 C235 0.950 . S
H213 C237 0.950 . S
H214 C238 0.950 . S
H215 C239 0.951 . S
H216 C241 0.951 . S
H217 C243 0.950 . S
H218 C244 0.950 . S
H219 C246 0.950 . S
H220 C249 0.950 . S
H221 C250 0.950 . S
H222 C252 0.950 . S
H223 C253 0.950 . S
C224 H206 0.951 . S
C224 C225 1.366 . S
C224 C226 1.388 . S
C225 C224 1.366 . S
C225 C229 1.385 . S
C226 H207 0.951 . S
C226 C224 1.388 . S
C226 C227 1.366 . S
C227 C226 1.366 . S
C227 C228 1.414 . S
C227 C230 1.499 . S
C228 H208 0.950 . S
C228 C227 1.414 . S
C228 C229 1.374 . S
C229 H209 0.950 . S
C229 C225 1.385 . S
C229 C228 1.374 . S
C230 C227 1.499 . S
C230 C231 1.373 . S
C230 C232 1.389 . S
C231 H210 0.950 . S
C231 C230 1.373 . S
C231 C247 1.377 . S
C232 C230 1.389 . S
C232 C233 1.524 . S
C232 C246 1.377 . S
C233 C232 1.524 . S
C233 C234 1.397 . S
C233 C238 1.363 . S
C234 H211 0.950 . S
C234 C233 1.397 . S
C234 C235 1.334 . S
C235 H212 0.950 . S
C235 C234 1.334 . S
C235 C236 1.287 . S
C236 C235 1.287 . S
C236 C237 1.524 . S
C236 H255 0.913 . S
C237 H213 0.950 . S
C237 C236 1.524 . S
C237 C238 1.415 . S
C238 H214 0.950 . S
C238 C233 1.363 . S
C238 C237 1.415 . S
C239 H215 0.951 . S
C239 C240 1.366 . S
C239 C241 1.388 . S
C240 C239 1.366 . S
C240 C244 1.385 . S
C241 H216 0.951 . S
C241 C239 1.388 . S
C241 C242 1.366 . S
C242 C241 1.366 . S
C242 C243 1.414 . S
C242 C245 1.499 . S
C243 H217 0.950 . S
C243 C242 1.414 . S
C243 C244 1.374 . S
C244 H218 0.950 . S
C244 C240 1.385 . S
C244 C243 1.374 . S
C245 C242 1.499 . S
C245 C246 1.373 . S
C245 C247 1.389 . S
C246 H219 0.950 . S
C246 C232 1.377 . S
C246 C245 1.373 . S
C247 C231 1.377 . S
C247 C245 1.389 . S
C247 C248 1.524 . S
C248 C247 1.524 . S
C248 C249 1.397 . S
C248 C253 1.363 . S
C249 H220 0.950 . S
C249 C248 1.397 . S
C249 C250 1.334 . S
C250 H221 0.950 . S
C250 C249 1.334 . S
C250 C251 1.287 . S
C251 C250 1.287 . S
C251 C252 1.524 . S
C251 H254 0.999 . S
C252 H222 0.950 . S
C252 C251 1.524 . S
C252 C253 1.415 . S
C253 H223 0.950 . S
C253 C248 1.363 . S
C253 C252 1.415 . S
H254 C251 0.999 . S
H255 C236 0.913 . S
H256 C274 0.951 . S
H257 C276 0.951 . S
H258 C278 0.950 . S
H259 C279 0.950 . S
H260 C281 0.950 . S
H261 C284 0.950 . S
H262 C285 0.950 . S
H263 C287 0.950 . S
H264 C288 0.950 . S
H265 C289 0.951 . S
H266 C291 0.951 . S
H267 C293 0.950 . S
H268 C294 0.950 . S
H269 C296 0.950 . S
H270 C299 0.950 . S
H271 C300 0.950 . S
H272 C302 0.950 . S
H273 C303 0.950 . S
C274 H256 0.951 . S
C274 C275 1.366 . S
C274 C276 1.388 . S
C275 C274 1.366 . S
C275 C279 1.385 . S
C276 H257 0.951 . S
C276 C274 1.388 . S
C276 C277 1.366 . S
C277 C276 1.366 . S
C277 C278 1.414 . S
C277 C280 1.499 . S
C278 H258 0.950 . S
C278 C277 1.414 . S
C278 C279 1.374 . S
C279 H259 0.950 . S
C279 C275 1.385 . S
C279 C278 1.374 . S
C280 C277 1.499 . S
C280 C281 1.373 . S
C280 C282 1.389 . S
C281 H260 0.950 . S
C281 C280 1.373 . S
C281 C297 1.377 . S
C282 C280 1.389 . S
C282 C283 1.524 . S
C282 C296 1.377 . S
C283 C282 1.524 . S
C283 C284 1.397 . S
C283 C288 1.363 . S
C284 H261 0.950 . S
C284 C283 1.397 . S
C284 C285 1.334 . S
C285 H262 0.950 . S
C285 C284 1.334 . S
C285 C286 1.287 . S
C286 C285 1.287 . S
C286 C287 1.524 . S
C286 H305 0.913 . S
C287 H263 0.950 . S
C287 C286 1.524 . S
C287 C288 1.415 . S
C288 H264 0.950 . S
C288 C283 1.363 . S
C288 C287 1.415 . S
C289 H265 0.951 . S
C289 C290 1.366 . S
C289 C291 1.388 . S
C290 C289 1.366 . S
C290 C294 1.385 . S
C291 H266 0.951 . S
C291 C289 1.388 . S
C291 C292 1.366 . S
C292 C291 1.366 . S
C292 C293 1.414 . S
C292 C295 1.499 . S
C293 H267 0.950 . S
C293 C292 1.414 . S
C293 C294 1.374 . S
C294 H268 0.950 . S
C294 C290 1.385 . S
C294 C293 1.374 . S
C295 C292 1.499 . S
C295 C296 1.373 . S
C295 C297 1.389 . S
C296 H269 0.950 . S
C296 C282 1.377 . S
C296 C295 1.373 . S
C297 C281 1.377 . S
C297 C295 1.389 . S
C297 C298 1.524 . S
C298 C297 1.524 . S
C298 C299 1.397 . S
C298 C303 1.363 . S
C299 H270 0.950 . S
C299 C298 1.397 . S
C299 C300 1.334 . S
C300 H271 0.950 . S
C300 C299 1.334 . S
C300 C301 1.287 . S
C301 C300 1.287 . S
C301 C302 1.524 . S
C301 H304 0.999 . S
C302 H272 0.950 . S
C302 C301 1.524 . S
C302 C303 1.415 . S
C303 H273 0.950 . S
C303 C298 1.363 . S
C303 C302 1.415 . S
H304 C301 0.999 . S
H305 C286 0.913 . S
H306 C324 0.951 . S
H307 C326 0.951 . S
H308 C328 0.950 . S
H309 C329 0.950 . S
H310 C331 0.950 . S
H311 C334 0.950 . S
H312 C335 0.950 . S
H313 C337 0.950 . S
H314 C338 0.950 . S
H315 C339 0.951 . S
H316 C341 0.951 . S
H317 C343 0.950 . S
H318 C344 0.950 . S
H319 C346 0.950 . S
H320 C349 0.950 . S
H321 C350 0.950 . S
H322 C352 0.950 . S
H323 C353 0.950 . S
C324 H306 0.951 . S
C324 C325 1.366 . S
C324 C326 1.388 . S
C325 C324 1.366 . S
C325 C329 1.385 . S
C326 H307 0.951 . S
C326 C324 1.388 . S
C326 C327 1.366 . S
C327 C326 1.366 . S
C327 C328 1.414 . S
C327 C330 1.499 . S
C328 H308 0.950 . S
C328 C327 1.414 . S
C328 C329 1.374 . S
C329 H309 0.950 . S
C329 C325 1.385 . S
C329 C328 1.374 . S
C330 C327 1.499 . S
C330 C331 1.373 . S
C330 C332 1.389 . S
C331 H310 0.950 . S
C331 C330 1.373 . S
C331 C347 1.377 . S
C332 C330 1.389 . S
C332 C333 1.524 . S
C332 C346 1.377 . S
C333 C332 1.524 . S
C333 C334 1.397 . S
C333 C338 1.363 . S
C334 H311 0.950 . S
C334 C333 1.397 . S
C334 C335 1.334 . S
C335 H312 0.950 . S
C335 C334 1.334 . S
C335 C336 1.287 . S
C336 C335 1.287 . S
C336 C337 1.524 . S
C336 H355 0.913 . S
C337 H313 0.950 . S
C337 C336 1.524 . S
C337 C338 1.415 . S
C338 H314 0.950 . S
C338 C333 1.363 . S
C338 C337 1.415 . S
C339 H315 0.951 . S
C339 C340 1.366 . S
C339 C341 1.388 . S
C340 C339 1.366 . S
C340 C344 1.385 . S
C341 H316 0.951 . S
C341 C339 1.388 . S
C341 C342 1.366 . S
C342 C341 1.366 . S
C342 C343 1.414 . S
C342 C345 1.499 . S
C343 H317 0.950 . S
C343 C342 1.414 . S
C343 C344 1.374 . S
C344 H318 0.950 . S
C344 C340 1.385 . S
C344 C343 1.374 . S
C345 C342 1.499 . S
C345 C346 1.373 . S
C345 C347 1.389 . S
C346 H319 0.950 . S
C346 C332 1.377 . S
C346 C345 1.373 . S
C347 C331 1.377 . S
C347 C345 1.389 . S
C347 C348 1.524 . S
C348 C347 1.524 . S
C348 C349 1.397 . S
C348 C353 1.363 . S
C349 H320 0.950 . S
C349 C348 1.397 . S
C349 C350 1.334 . S
C350 H321 0.950 . S
C350 C349 1.334 . S
C350 C351 1.287 . S
C351 C350 1.287 . S
C351 C352 1.524 . S
C351 H354 0.999 . S
C352 H322 0.950 . S
C352 C351 1.524 . S
C352 C353 1.415 . S
C353 H323 0.950 . S
C353 C348 1.363 . S
C353 C352 1.415 . S
H354 C351 0.999 . S
H355 C336 0.913 . S
H356 C374 0.951 . S
H357 C376 0.951 . S
H358 C378 0.950 . S
H359 C379 0.950 . S
H360 C381 0.950 . S
H361 C384 0.950 . S
H362 C385 0.950 . S
H363 C387 0.950 . S
H364 C388 0.950 . S
H365 C389 0.951 . S
H366 C391 0.951 . S
H367 C393 0.950 . S
H368 C394 0.950 . S
H369 C396 0.950 . S
H370 C399 0.950 . S
H371 C400 0.950 . S
H372 C402 0.950 . S
H373 C403 0.950 . S
C374 H356 0.951 . S
C374 C375 1.366 . S
C374 C376 1.388 . S
C375 C374 1.366 . S
C375 C379 1.385 . S
C376 H357 0.951 . S
C376 C374 1.388 . S
C376 C377 1.366 . S
C377 C376 1.366 . S
C377 C378 1.414 . S
C377 C380 1.499 . S
C378 H358 0.950 . S
C378 C377 1.414 . S
C378 C379 1.374 . S
C379 H359 0.950 . S
C379 C375 1.385 . S
C379 C378 1.374 . S
C380 C377 1.499 . S
C380 C381 1.373 . S
C380 C382 1.389 . S
C381 H360 0.950 . S
C381 C380 1.373 . S
C381 C397 1.377 . S
C382 C380 1.389 . S
C382 C383 1.524 . S
C382 C396 1.377 . S
C383 C382 1.524 . S
C383 C384 1.397 . S
C383 C388 1.363 . S
C384 H361 0.950 . S
C384 C383 1.397 . S
C384 C385 1.334 . S
C385 H362 0.950 . S
C385 C384 1.334 . S
C385 C386 1.287 . S
C386 C385 1.287 . S
C386 C387 1.524 . S
C386 H405 0.913 . S
C387 H363 0.950 . S
C387 C386 1.524 . S
C387 C388 1.415 . S
C388 H364 0.950 . S
C388 C383 1.363 . S
C388 C387 1.415 . S
C389 H365 0.951 . S
C389 C390 1.366 . S
C389 C391 1.388 . S
C390 C389 1.366 . S
C390 C394 1.385 . S
C391 H366 0.951 . S
C391 C389 1.388 . S
C391 C392 1.366 . S
C392 C391 1.366 . S
C392 C393 1.414 . S
C392 C395 1.499 . S
C393 H367 0.950 . S
C393 C392 1.414 . S
C393 C394 1.374 . S
C394 H368 0.950 . S
C394 C390 1.385 . S
C394 C393 1.374 . S
C395 C392 1.499 . S
C395 C396 1.373 . S
C395 C397 1.389 . S
C396 H369 0.950 . S
C396 C382 1.377 . S
C396 C395 1.373 . S
C397 C381 1.377 . S
C397 C395 1.389 . S
C397 C398 1.524 . S
C398 C397 1.524 . S
C398 C399 1.397 . S
C398 C403 1.363 . S
C399 H370 0.950 . S
C399 C398 1.397 . S
C399 C400 1.334 . S
C400 H371 0.950 . S
C400 C399 1.334 . S
C400 C401 1.287 . S
C401 C400 1.287 . S
C401 C402 1.524 . S
C401 H404 0.999 . S
C402 H372 0.950 . S
C402 C401 1.524 . S
C402 C403 1.415 . S
C403 H373 0.950 . S
C403 C398 1.363 . S
C403 C402 1.415 . S
H404 C401 0.999 . S
H405 C386 0.913 . S
H406 C424 0.951 . S
H407 C426 0.951 . S
H408 C428 0.950 . S
H409 C429 0.950 . S
H410 C431 0.950 . S
H411 C434 0.950 . S
H412 C435 0.950 . S
H413 C437 0.950 . S
H414 C438 0.950 . S
H415 C439 0.951 . S
H416 C441 0.951 . S
H417 C443 0.950 . S
H418 C444 0.950 . S
H419 C446 0.950 . S
H420 C449 0.950 . S
H421 C450 0.950 . S
H422 C452 0.950 . S
H423 C453 0.950 . S
C424 H406 0.951 . S
C424 C425 1.366 . S
C424 C426 1.388 . S
C425 C424 1.366 . S
C425 C429 1.385 . S
C426 H407 0.951 . S
C426 C424 1.388 . S
C426 C427 1.366 . S
C427 C426 1.366 . S
C427 C428 1.414 . S
C427 C430 1.499 . S
C428 H408 0.950 . S
C428 C427 1.414 . S
C428 C429 1.374 . S
C429 H409 0.950 . S
C429 C425 1.385 . S
C429 C428 1.374 . S
C430 C427 1.499 . S
C430 C431 1.373 . S
C430 C432 1.389 . S
C431 H410 0.950 . S
C431 C430 1.373 . S
C431 C447 1.377 . S
C432 C430 1.389 . S
C432 C433 1.524 . S
C432 C446 1.377 . S
C433 C432 1.524 . S
C433 C434 1.397 . S
C433 C438 1.363 . S
C434 H411 0.950 . S
C434 C433 1.397 . S
C434 C435 1.334 . S
C435 H412 0.950 . S
C435 C434 1.334 . S
C435 C436 1.287 . S
C436 C435 1.287 . S
C436 C437 1.524 . S
C436 H455 0.913 . S
C437 H413 0.950 . S
C437 C436 1.524 . S
C437 C438 1.415 . S
C438 H414 0.950 . S
C438 C433 1.363 . S
C438 C437 1.415 . S
C439 H415 0.951 . S
C439 C440 1.366 . S
C439 C441 1.388 . S
C440 C439 1.366 . S
C440 C444 1.385 . S
C441 H416 0.951 . S
C441 C439 1.388 . S
C441 C442 1.366 . S
C442 C441 1.366 . S
C442 C443 1.414 . S
C442 C445 1.499 . S
C443 H417 0.950 . S
C443 C442 1.414 . S
C443 C444 1.374 . S
C444 H418 0.950 . S
C444 C440 1.385 . S
C444 C443 1.374 . S
C445 C442 1.499 . S
C445 C446 1.373 . S
C445 C447 1.389 . S
C446 H419 0.950 . S
C446 C432 1.377 . S
C446 C445 1.373 . S
C447 C431 1.377 . S
C447 C445 1.389 . S
C447 C448 1.524 . S
C448 C447 1.524 . S
C448 C449 1.397 . S
C448 C453 1.363 . S
C449 H420 0.950 . S
C449 C448 1.397 . S
C449 C450 1.334 . S
C450 H421 0.950 . S
C450 C449 1.334 . S
C450 C451 1.287 . S
C451 C450 1.287 . S
C451 C452 1.524 . S
C451 H454 0.999 . S
C452 H422 0.950 . S
C452 C451 1.524 . S
C452 C453 1.415 . S
C453 H423 0.950 . S
C453 C448 1.363 . S
C453 C452 1.415 . S
H454 C451 0.999 . S
H455 C436 0.913 . S
H456 C474 0.951 . S
H457 C476 0.951 . S
H458 C478 0.950 . S
H459 C479 0.950 . S
H460 C481 0.950 . S
H461 C484 0.950 . S
H462 C485 0.950 . S
H463 C487 0.950 . S
H464 C488 0.950 . S
H465 C489 0.951 . S
H466 C491 0.951 . S
H467 C493 0.950 . S
H468 C494 0.950 . S
H469 C496 0.950 . S
H470 C499 0.950 . S
H471 C500 0.950 . S
H472 C502 0.950 . S
H473 C503 0.950 . S
C474 H456 0.951 . S
C474 C475 1.366 . S
C474 C476 1.388 . S
C475 C474 1.366 . S
C475 C479 1.385 . S
C476 H457 0.951 . S
C476 C474 1.388 . S
C476 C477 1.366 . S
C477 C476 1.366 . S
C477 C478 1.414 . S
C477 C480 1.499 . S
C478 H458 0.950 . S
C478 C477 1.414 . S
C478 C479 1.374 . S
C479 H459 0.950 . S
C479 C475 1.385 . S
C479 C478 1.374 . S
C480 C477 1.499 . S
C480 C481 1.373 . S
C480 C482 1.389 . S
C481 H460 0.950 . S
C481 C480 1.373 . S
C481 C497 1.377 . S
C482 C480 1.389 . S
C482 C483 1.524 . S
C482 C496 1.377 . S
C483 C482 1.524 . S
C483 C484 1.397 . S
C483 C488 1.363 . S
C484 H461 0.950 . S
C484 C483 1.397 . S
C484 C485 1.334 . S
C485 H462 0.950 . S
C485 C484 1.334 . S
C485 C486 1.287 . S
C486 C485 1.287 . S
C486 C487 1.524 . S
C486 H505 0.913 . S
C487 H463 0.950 . S
C487 C486 1.524 . S
C487 C488 1.415 . S
C488 H464 0.950 . S
C488 C483 1.363 . S
C488 C487 1.415 . S
C489 H465 0.951 . S
C489 C490 1.366 . S
C489 C491 1.388 . S
C490 C489 1.366 . S
C490 C494 1.385 . S
C491 H466 0.951 . S
C491 C489 1.388 . S
C491 C492 1.366 . S
C492 C491 1.366 . S
C492 C493 1.414 . S
C492 C495 1.499 . S
C493 H467 0.950 . S
C493 C492 1.414 . S
C493 C494 1.374 . S
C494 H468 0.950 . S
C494 C490 1.385 . S
C494 C493 1.374 . S
C495 C492 1.499 . S
C495 C496 1.373 . S
C495 C497 1.389 . S
C496 H469 0.950 . S
C496 C482 1.377 . S
C496 C495 1.373 . S
C497 C481 1.377 . S
C497 C495 1.389 . S
C497 C498 1.524 . S
C498 C497 1.524 . S
C498 C499 1.397 . S
C498 C503 1.363 . S
C499 H470 0.950 . S
C499 C498 1.397 . S
C499 C500 1.334 . S
C500 H471 0.950 . S
C500 C499 1.334 . S
C500 C501 1.287 . S
C501 C500 1.287 . S
C501 C502 1.524 . S
C501 H504 0.999 . S
C502 H472 0.950 . S
C502 C501 1.524 . S
C502 C503 1.415 . S
C503 H473 0.950 . S
C503 C498 1.363 . S
C503 C502 1.415 . S
H504 C501 0.999 . S
H505 C486 0.913 . S
H506 C524 0.951 . S
H507 C526 0.951 . S
H508 C528 0.950 . S
H509 C529 0.950 . S
H510 C531 0.950 . S
H511 C534 0.950 . S
H512 C535 0.950 . S
H513 C537 0.950 . S
H514 C538 0.950 . S
H515 C539 0.951 . S
H516 C541 0.951 . S
H517 C543 0.950 . S
H518 C544 0.950 . S
H519 C546 0.950 . S
H520 C549 0.950 . S
H521 C550 0.950 . S
H522 C552 0.950 . S
H523 C553 0.950 . S
C524 H506 0.951 . S
C524 C525 1.366 . S
C524 C526 1.388 . S
C525 C524 1.366 . S
C525 C529 1.385 . S
C526 H507 0.951 . S
C526 C524 1.388 . S
C526 C527 1.366 . S
C527 C526 1.366 . S
C527 C528 1.414 . S
C527 C530 1.499 . S
C528 H508 0.950 . S
C528 C527 1.414 . S
C528 C529 1.374 . S
C529 H509 0.950 . S
C529 C525 1.385 . S
C529 C528 1.374 . S
C530 C527 1.499 . S
C530 C531 1.373 . S
C530 C532 1.389 . S
C531 H510 0.950 . S
C531 C530 1.373 . S
C531 C547 1.377 . S
C532 C530 1.389 . S
C532 C533 1.524 . S
C532 C546 1.377 . S
C533 C532 1.524 . S
C533 C534 1.397 . S
C533 C538 1.363 . S
C534 H511 0.950 . S
C534 C533 1.397 . S
C534 C535 1.334 . S
C535 H512 0.950 . S
C535 C534 1.334 . S
C535 C536 1.287 . S
C536 C535 1.287 . S
C536 C537 1.524 . S
C536 H555 0.913 . S
C537 H513 0.950 . S
C537 C536 1.524 . S
C537 C538 1.415 . S
C538 H514 0.950 . S
C538 C533 1.363 . S
C538 C537 1.415 . S
C539 H515 0.951 . S
C539 C540 1.366 . S
C539 C541 1.388 . S
C540 C539 1.366 . S
C540 C544 1.385 . S
C541 H516 0.951 . S
C541 C539 1.388 . S
C541 C542 1.366 . S
C542 C541 1.366 . S
C542 C543 1.414 . S
C542 C545 1.499 . S
C543 H517 0.950 . S
C543 C542 1.414 . S
C543 C544 1.374 . S
C544 H518 0.950 . S
C544 C540 1.385 . S
C544 C543 1.374 . S
C545 C542 1.499 . S
C545 C546 1.373 . S
C545 C547 1.389 . S
C546 H519 0.950 . S
C546 C532 1.377 . S
C546 C545 1.373 . S
C547 C531 1.377 . S
C547 C545 1.389 . S
C547 C548 1.524 . S
C548 C547 1.524 . S
C548 C549 1.397 . S
C548 C553 1.363 . S
C549 H520 0.950 . S
C549 C548 1.397 . S
C549 C550 1.334 . S
C550 H521 0.950 . S
C550 C549 1.334 . S
C550 C551 1.287 . S
C551 C550 1.287 . S
C551 C552 1.524 . S
C551 H554 0.999 . S
C552 H522 0.950 . S
C552 C551 1.524 . S
C552 C553 1.415 . S
C553 H523 0.950 . S
C553 C548 1.363 . S
C553 C552 1.415 . S
H554 C551 0.999 . S
H555 C536 0.913 . S
H556 C574 0.951 . S
H557 C576 0.951 . S
H558 C578 0.950 . S
H559 C579 0.950 . S
H560 C581 0.950 . S
H561 C584 0.950 . S
H562 C585 0.950 . S
H563 C587 0.950 . S
H564 C588 0.950 . S
H565 C589 0.951 . S
H566 C591 0.951 . S
H567 C593 0.950 . S
H568 C594 0.950 . S
H569 C596 0.949 1_554 S
H570 C599 0.950 . S
H571 C600 0.950 . S
H572 C602 0.950 . S
H573 C603 0.950 . S
C574 H556 0.951 . S
C574 C575 1.366 1_554 S
C574 C576 1.388 . S
C575 C574 1.366 1_556 S
C575 C579 1.385 . S
C576 H557 0.951 . S
C576 C574 1.388 . S
C576 C577 1.366 1_554 S
C577 C576 1.366 1_556 S
C577 C578 1.414 . S
C577 C580 1.499 . S
C578 H558 0.950 . S
C578 C577 1.414 . S
C578 C579 1.374 . S
C579 H559 0.950 . S
C579 C575 1.385 . S
C579 C578 1.374 . S
C580 C577 1.499 . S
C580 C581 1.373 . S
C580 C582 1.389 . S
C581 H560 0.950 . S
C581 C580 1.373 . S
C581 C597 1.378 . S
C582 C580 1.389 . S
C582 C583 1.524 . S
C582 C596 1.381 . S
C583 C582 1.524 . S
C583 C584 1.397 . S
C583 C588 1.363 1_556 S
C584 H561 0.950 . S
C584 C583 1.397 . S
C584 C585 1.334 . S
C585 H562 0.950 . S
C585 C584 1.334 . S
C585 C586 1.287 . S
C586 C585 1.287 . S
C586 C587 1.524 1_556 S
C586 H605 0.913 . S
C587 H563 0.950 . S
C587 C586 1.524 1_554 S
C587 C588 1.415 . S
C588 H564 0.950 . S
C588 C583 1.363 1_554 S
C588 C587 1.415 . S
C589 H565 0.951 . S
C589 C590 1.366 1_556 S
C589 C591 1.388 . S
C590 C589 1.366 1_554 S
C590 C594 1.385 . S
C591 H566 0.951 . S
C591 C589 1.388 . S
C591 C592 1.366 1_556 S
C592 C591 1.366 1_554 S
C592 C593 1.414 . S
C592 C595 1.499 . S
C593 H567 0.950 . S
C593 C592 1.414 . S
C593 C594 1.374 . S
C594 H568 0.950 . S
C594 C590 1.385 . S
C594 C593 1.374 . S
C595 C592 1.499 . S
C595 C596 1.371 1_554 S
C595 C597 1.388 1_554 S
C596 H569 0.949 1_556 S
C596 C582 1.381 . S
C596 C595 1.371 1_556 S
C597 C581 1.378 . S
C597 C595 1.388 1_556 S
C597 C598 1.522 1_556 S
C598 C597 1.522 1_554 S
C598 C599 1.397 . S
C598 C603 1.363 1_554 S
C599 H570 0.950 . S
C599 C598 1.397 . S
C599 C600 1.334 . S
C600 H571 0.950 . S
C600 C599 1.334 . S
C600 C601 1.287 . S
C601 C600 1.287 . S
C601 C602 1.524 1_554 S
C601 H604 0.999 . S
C602 H572 0.950 . S
C602 C601 1.524 1_556 S
C602 C603 1.415 . S
C603 H573 0.950 . S
C603 C598 1.363 1_556 S
C603 C602 1.415 . S
H604 C601 0.999 . S
H605 C586 0.913 . S
H606 C624 0.951 . S
H607 C626 0.951 . S
H608 C628 0.950 . S
H609 C629 0.950 . S
H610 C631 0.950 . S
H611 C634 0.950 . S
H612 C635 0.950 . S
H613 C637 0.950 . S
H614 C638 0.950 . S
H615 C639 0.951 . S
H616 C641 0.951 . S
H617 C643 0.950 . S
H618 C644 0.950 . S
H619 C646 0.950 . S
H620 C649 0.950 . S
H621 C650 0.950 . S
H622 C652 0.950 . S
H623 C653 0.950 . S
C624 H606 0.951 . S
C624 C625 1.366 . S
C624 C626 1.388 . S
C625 C624 1.366 . S
C625 C629 1.385 . S
C626 H607 0.951 . S
C626 C624 1.388 . S
C626 C627 1.366 . S
C627 C626 1.366 . S
C627 C628 1.414 . S
C627 C630 1.499 . S
C628 H608 0.950 . S
C628 C627 1.414 . S
C628 C629 1.374 . S
C629 H609 0.950 . S
C629 C625 1.385 . S
C629 C628 1.374 . S
C630 C627 1.499 . S
C630 C631 1.373 . S
C630 C632 1.389 . S
C631 H610 0.950 . S
C631 C630 1.373 . S
C631 C647 1.377 . S
C632 C630 1.389 . S
C632 C633 1.524 . S
C632 C646 1.377 . S
C633 C632 1.524 . S
C633 C634 1.397 . S
C633 C638 1.363 . S
C634 H611 0.950 . S
C634 C633 1.397 . S
C634 C635 1.334 . S
C635 H612 0.950 . S
C635 C634 1.334 . S
C635 C636 1.287 . S
C636 C635 1.287 . S
C636 C637 1.524 . S
C636 H655 0.913 . S
C637 H613 0.950 . S
C637 C636 1.524 . S
C637 C638 1.415 . S
C638 H614 0.950 . S
C638 C633 1.363 . S
C638 C637 1.415 . S
C639 H615 0.951 . S
C639 C640 1.366 . S
C639 C641 1.388 . S
C640 C639 1.366 . S
C640 C644 1.385 . S
C641 H616 0.951 . S
C641 C639 1.388 . S
C641 C642 1.366 . S
C642 C641 1.366 . S
C642 C643 1.414 . S
C642 C645 1.499 . S
C643 H617 0.950 . S
C643 C642 1.414 . S
C643 C644 1.374 . S
C644 H618 0.950 . S
C644 C640 1.385 . S
C644 C643 1.374 . S
C645 C642 1.499 . S
C645 C646 1.373 . S
C645 C647 1.389 . S
C646 H619 0.950 . S
C646 C632 1.377 . S
C646 C645 1.373 . S
C647 C631 1.377 . S
C647 C645 1.389 . S
C647 C648 1.524 . S
C648 C647 1.524 . S
C648 C649 1.397 . S
C648 C653 1.363 . S
C649 H620 0.950 . S
C649 C648 1.397 . S
C649 C650 1.334 . S
C650 H621 0.950 . S
C650 C649 1.334 . S
C650 C651 1.287 . S
C651 C650 1.287 . S
C651 C652 1.524 . S
C651 H654 0.999 . S
C652 H622 0.950 . S
C652 C651 1.524 . S
C652 C653 1.415 . S
C653 H623 0.950 . S
C653 C648 1.363 . S
C653 C652 1.415 . S
H654 C651 0.999 . S
H655 C636 0.913 . S
H656 C674 0.951 . S
H657 C676 0.951 . S
H658 C678 0.950 . S
H659 C679 0.950 . S
H660 C681 0.950 . S
H661 C684 0.950 . S
H662 C685 0.950 . S
H663 C687 0.950 . S
H664 C688 0.950 . S
H665 C689 0.951 . S
H666 C691 0.951 . S
H667 C693 0.950 . S
H668 C694 0.950 . S
H669 C696 0.950 . S
H670 C699 0.950 . S
H671 C700 0.950 . S
H672 C702 0.950 . S
H673 C703 0.950 . S
C674 H656 0.951 . S
C674 C675 1.366 . S
C674 C676 1.388 . S
C675 C674 1.366 . S
C675 C679 1.385 . S
C676 H657 0.951 . S
C676 C674 1.388 . S
C676 C677 1.366 . S
C677 C676 1.366 . S
C677 C678 1.414 . S
C677 C680 1.499 . S
C678 H658 0.950 . S
C678 C677 1.414 . S
C678 C679 1.374 . S
C679 H659 0.950 . S
C679 C675 1.385 . S
C679 C678 1.374 . S
C680 C677 1.499 . S
C680 C681 1.373 . S
C680 C682 1.389 . S
C681 H660 0.950 . S
C681 C680 1.373 . S
C681 C697 1.377 . S
C682 C680 1.389 . S
C682 C683 1.524 . S
C682 C696 1.377 . S
C683 C682 1.524 . S
C683 C684 1.397 . S
C683 C688 1.363 . S
C684 H661 0.950 . S
C684 C683 1.397 . S
C684 C685 1.334 . S
C685 H662 0.950 . S
C685 C684 1.334 . S
C685 C686 1.287 . S
C686 C685 1.287 . S
C686 C687 1.524 . S
C686 H705 0.913 . S
C687 H663 0.950 . S
C687 C686 1.524 . S
C687 C688 1.415 . S
C688 H664 0.950 . S
C688 C683 1.363 . S
C688 C687 1.415 . S
C689 H665 0.951 . S
C689 C690 1.366 . S
C689 C691 1.388 . S
C690 C689 1.366 . S
C690 C694 1.385 . S
C691 H666 0.951 . S
C691 C689 1.388 . S
C691 C692 1.366 . S
C692 C691 1.366 . S
C692 C693 1.414 . S
C692 C695 1.499 . S
C693 H667 0.950 . S
C693 C692 1.414 . S
C693 C694 1.374 . S
C694 H668 0.950 . S
C694 C690 1.385 . S
C694 C693 1.374 . S
C695 C692 1.499 . S
C695 C696 1.373 . S
C695 C697 1.389 . S
C696 H669 0.950 . S
C696 C682 1.377 . S
C696 C695 1.373 . S
C697 C681 1.377 . S
C697 C695 1.389 . S
C697 C698 1.524 . S
C698 C697 1.524 . S
C698 C699 1.397 . S
C698 C703 1.363 . S
C699 H670 0.950 . S
C699 C698 1.397 . S
C699 C700 1.334 . S
C700 H671 0.950 . S
C700 C699 1.334 . S
C700 C701 1.287 . S
C701 C700 1.287 . S
C701 C702 1.524 . S
C701 H704 0.999 . S
C702 H672 0.950 . S
C702 C701 1.524 . S
C702 C703 1.415 . S
C703 H673 0.950 . S
C703 C698 1.363 . S
C703 C702 1.415 . S
H704 C701 0.999 . S
H705 C686 0.913 . S
H706 C724 0.951 . S
H707 C726 0.951 . S
H708 C728 0.950 . S
H709 C729 0.950 . S
H710 C731 0.950 . S
H711 C734 0.950 . S
H712 C735 0.950 . S
H713 C737 0.950 . S
H714 C738 0.950 . S
H715 C739 0.950 1_554 S
H716 C741 0.952 . S
H717 C743 0.950 . S
H718 C744 0.950 . S
H719 C746 0.950 . S
H720 C749 0.950 . S
H721 C750 0.950 . S
H722 C752 0.950 . S
H723 C753 0.950 . S
C724 H706 0.951 . S
C724 C725 1.366 1_556 S
C724 C726 1.388 . S
C725 C724 1.366 1_554 S
C725 C729 1.385 . S
C726 H707 0.951 . S
C726 C724 1.388 . S
C726 C727 1.366 1_556 S
C727 C726 1.366 1_554 S
C727 C728 1.414 . S
C727 C730 1.500 . S
C728 H708 0.950 . S
C728 C727 1.414 . S
C728 C729 1.374 . S
C729 H709 0.950 . S
C729 C725 1.385 . S
C729 C728 1.374 . S
C730 C727 1.500 . S
C730 C731 1.357 1_554 S
C730 C732 1.403 . S
C731 H710 0.950 . S
C731 C730 1.357 1_556 S
C731 C747 1.377 . S
C732 C730 1.403 . S
C732 C733 1.524 . S
C732 C746 1.377 . S
C733 C732 1.524 . S
C733 C734 1.397 . S
C733 C738 1.363 . S
C734 H711 0.950 . S
C734 C733 1.397 . S
C734 C735 1.334 . S
C735 H712 0.950 . S
C735 C734 1.334 . S
C735 C736 1.287 . S
C736 C735 1.287 . S
C736 C737 1.524 . S
C736 H755 0.913 . S
C737 H713 0.950 . S
C737 C736 1.524 . S
C737 C738 1.415 . S
C738 H714 0.950 . S
C738 C733 1.363 . S
C738 C737 1.415 . S
C739 H715 0.950 1_556 S
C739 C740 1.367 . S
C739 C741 1.388 1_556 S
C740 C739 1.367 . S
C740 C744 1.385 . S
C741 H716 0.952 . S
C741 C739 1.388 1_554 S
C741 C742 1.365 1_554 S
C742 C741 1.365 1_556 S
C742 C743 1.414 . S
C742 C745 1.499 . S
C743 H717 0.950 . S
C743 C742 1.414 . S
C743 C744 1.374 . S
C744 H718 0.950 . S
C744 C740 1.385 . S
C744 C743 1.374 . S
C745 C742 1.499 . S
C745 C746 1.373 1_556 S
C745 C747 1.389 . S
C746 H719 0.950 . S
C746 C732 1.377 . S
C746 C745 1.373 1_554 S
C747 C731 1.377 . S
C747 C745 1.389 . S
C747 C748 1.524 . S
C748 C747 1.524 . S
C748 C749 1.397 . S
C748 C753 1.363 . S
C749 H720 0.950 . S
C749 C748 1.397 . S
C749 C750 1.334 . S
C750 H721 0.950 . S
C750 C749 1.334 . S
C750 C751 1.287 . S
C751 C750 1.287 . S
C751 C752 1.524 . S
C751 H754 0.999 . S
C752 H722 0.950 . S
C752 C751 1.524 . S
C752 C753 1.415 . S
C753 H723 0.950 . S
C753 C748 1.363 . S
C753 C752 1.415 . S
H754 C751 0.999 . S
H755 C736 0.913 . S
H756 C774 0.951 . S
H757 C776 0.951 . S
H758 C778 0.950 . S
H759 C779 0.950 . S
H760 C781 0.950 . S
H761 C784 0.950 . S
H762 C785 0.950 . S
H763 C787 0.950 . S
H764 C788 0.950 . S
H765 C789 0.951 . S
H766 C791 0.951 . S
H767 C793 0.950 . S
H768 C794 0.950 . S
H769 C796 0.950 . S
H770 C799 0.950 . S
H771 C800 0.950 . S
H772 C802 0.950 . S
H773 C803 0.950 . S
C774 H756 0.951 . S
C774 C775 1.366 . S
C774 C776 1.388 . S
C775 C774 1.366 . S
C775 C779 1.385 . S
C776 H757 0.951 . S
C776 C774 1.388 . S
C776 C777 1.366 . S
C777 C776 1.366 . S
C777 C778 1.414 . S
C777 C780 1.499 . S
C778 H758 0.950 . S
C778 C777 1.414 . S
C778 C779 1.374 . S
C779 H759 0.950 . S
C779 C775 1.385 . S
C779 C778 1.374 . S
C780 C777 1.499 . S
C780 C781 1.373 . S
C780 C782 1.389 . S
C781 H760 0.950 . S
C781 C780 1.373 . S
C781 C797 1.377 1_545 S
C782 C780 1.389 . S
C782 C783 1.524 . S
C782 C796 1.377 1_545 S
C783 C782 1.524 . S
C783 C784 1.397 . S
C783 C788 1.363 . S
C784 H761 0.950 . S
C784 C783 1.397 . S
C784 C785 1.334 . S
C785 H762 0.950 . S
C785 C784 1.334 . S
C785 C786 1.287 . S
C786 C785 1.287 . S
C786 C787 1.524 . S
C786 H805 0.913 . S
C787 H763 0.950 . S
C787 C786 1.524 . S
C787 C788 1.415 . S
C788 H764 0.950 . S
C788 C783 1.363 . S
C788 C787 1.415 . S
C789 H765 0.951 . S
C789 C790 1.366 . S
C789 C791 1.388 . S
C790 C789 1.366 . S
C790 C794 1.385 . S
C791 H766 0.951 . S
C791 C789 1.388 . S
C791 C792 1.366 . S
C792 C791 1.366 . S
C792 C793 1.414 . S
C792 C795 1.499 . S
C793 H767 0.950 . S
C793 C792 1.414 . S
C793 C794 1.374 . S
C794 H768 0.950 . S
C794 C790 1.385 . S
C794 C793 1.374 . S
C795 C792 1.499 . S
C795 C796 1.373 . S
C795 C797 1.389 . S
C796 H769 0.950 . S
C796 C782 1.377 1_565 S
C796 C795 1.373 . S
C797 C781 1.377 1_565 S
C797 C795 1.389 . S
C797 C798 1.524 . S
C798 C797 1.524 . S
C798 C799 1.397 . S
C798 C803 1.363 . S
C799 H770 0.950 . S
C799 C798 1.397 . S
C799 C800 1.334 . S
C800 H771 0.950 . S
C800 C799 1.334 . S
C800 C801 1.287 . S
C801 C800 1.287 . S
C801 C802 1.524 . S
C801 H804 0.999 . S
C802 H772 0.950 . S
C802 C801 1.524 . S
C802 C803 1.415 . S
C803 H773 0.950 . S
C803 C798 1.363 . S
C803 C802 1.415 . S
H804 C801 0.999 . S
H805 C786 0.913 . S
H806 C824 0.951 . S
H807 C826 0.951 . S
H808 C828 0.950 . S
H809 C829 0.950 . S
H810 C831 0.950 . S
H811 C834 0.950 . S
H812 C835 0.950 . S
H813 C837 0.950 . S
H814 C838 0.950 . S
H815 C839 0.951 . S
H816 C841 0.951 . S
H817 C843 0.950 . S
H818 C844 0.950 . S
H819 C846 0.950 . S
H820 C849 0.950 . S
H821 C850 0.950 . S
H822 C852 0.950 . S
H823 C853 0.950 . S
C824 H806 0.951 . S
C824 C825 1.366 . S
C824 C826 1.388 . S
C825 C824 1.366 . S
C825 C829 1.385 . S
C826 H807 0.951 . S
C826 C824 1.388 . S
C826 C827 1.366 . S
C827 C826 1.366 . S
C827 C828 1.414 . S
C827 C830 1.499 . S
C828 H808 0.950 . S
C828 C827 1.414 . S
C828 C829 1.374 . S
C829 H809 0.950 . S
C829 C825 1.385 . S
C829 C828 1.374 . S
C830 C827 1.499 . S
C830 C831 1.373 . S
C830 C832 1.389 . S
C831 H810 0.950 . S
C831 C830 1.373 . S
C831 C847 1.377 . S
C832 C830 1.389 . S
C832 C833 1.524 . S
C832 C846 1.377 . S
C833 C832 1.524 . S
C833 C834 1.397 . S
C833 C838 1.363 . S
C834 H811 0.950 . S
C834 C833 1.397 . S
C834 C835 1.334 . S
C835 H812 0.950 . S
C835 C834 1.334 . S
C835 C836 1.287 . S
C836 C835 1.287 . S
C836 C837 1.524 . S
C836 H855 0.913 . S
C837 H813 0.950 . S
C837 C836 1.524 . S
C837 C838 1.415 . S
C838 H814 0.950 . S
C838 C833 1.363 . S
C838 C837 1.415 . S
C839 H815 0.951 . S
C839 C840 1.366 . S
C839 C841 1.388 . S
C840 C839 1.366 . S
C840 C844 1.385 . S
C841 H816 0.951 . S
C841 C839 1.388 . S
C841 C842 1.366 . S
C842 C841 1.366 . S
C842 C843 1.414 . S
C842 C845 1.499 . S
C843 H817 0.950 . S
C843 C842 1.414 . S
C843 C844 1.374 . S
C844 H818 0.950 . S
C844 C840 1.385 . S
C844 C843 1.374 . S
C845 C842 1.499 . S
C845 C846 1.373 . S
C845 C847 1.389 . S
C846 H819 0.950 . S
C846 C832 1.377 . S
C846 C845 1.373 . S
C847 C831 1.377 . S
C847 C845 1.389 . S
C847 C848 1.524 . S
C848 C847 1.524 . S
C848 C849 1.397 . S
C848 C853 1.363 . S
C849 H820 0.950 . S
C849 C848 1.397 . S
C849 C850 1.334 . S
C850 H821 0.950 . S
C850 C849 1.334 . S
C850 C851 1.287 . S
C851 C850 1.287 . S
C851 C852 1.524 . S
C851 H854 0.999 . S
C852 H822 0.950 . S
C852 C851 1.524 . S
C852 C853 1.415 . S
C853 H823 0.950 . S
C853 C848 1.363 . S
C853 C852 1.415 . S
H854 C851 0.999 . S
H855 C836 0.913 . S
H856 C874 0.951 . S
H857 C876 0.951 . S
H858 C878 0.950 . S
H859 C879 0.950 . S
H860 C881 0.950 . S
H861 C884 0.950 . S
H862 C885 0.950 . S
H863 C887 0.950 . S
H864 C888 0.950 . S
H865 C889 0.951 . S
H866 C891 0.951 . S
H867 C893 0.950 . S
H868 C894 0.950 . S
H869 C896 0.950 . S
H870 C899 0.950 . S
H871 C900 0.950 . S
H872 C902 0.950 . S
H873 C903 0.950 . S
C874 H856 0.951 . S
C874 C875 1.366 . S
C874 C876 1.388 . S
C875 C874 1.366 . S
C875 C879 1.385 . S
C876 H857 0.951 . S
C876 C874 1.388 . S
C876 C877 1.366 . S
C877 C876 1.366 . S
C877 C878 1.414 . S
C877 C880 1.499 . S
C878 H858 0.950 . S
C878 C877 1.414 . S
C878 C879 1.374 . S
C879 H859 0.950 . S
C879 C875 1.385 . S
C879 C878 1.374 . S
C880 C877 1.499 . S
C880 C881 1.373 . S
C880 C882 1.426 1_556 S
C881 H860 0.950 . S
C881 C880 1.373 . S
C881 C897 1.357 1_655 S
C882 C880 1.426 1_554 S
C882 C883 1.522 . S
C882 C896 1.357 1_655 S
C883 C882 1.522 . S
C883 C884 1.423 . S
C883 C888 1.324 1_655 S
C884 H861 0.950 . S
C884 C883 1.423 . S
C884 C885 1.334 . S
C885 H862 0.950 . S
C885 C884 1.334 . S
C885 C886 1.287 . S
C886 C885 1.287 . S
C886 C887 1.524 1_655 S
C886 H905 0.913 . S
C887 H863 0.950 . S
C887 C886 1.524 1_455 S
C887 C888 1.415 . S
C888 H864 0.950 . S
C888 C883 1.324 1_455 S
C888 C887 1.415 . S
C889 H865 0.951 . S
C889 C890 1.366 . S
C889 C891 1.388 . S
C890 C889 1.366 . S
C890 C894 1.385 . S
C891 H866 0.951 . S
C891 C889 1.388 . S
C891 C892 1.366 . S
C892 C891 1.366 . S
C892 C893 1.414 . S
C892 C895 1.499 . S
C893 H867 0.950 . S
C893 C892 1.414 . S
C893 C894 1.374 . S
C894 H868 0.950 . S
C894 C890 1.385 . S
C894 C893 1.374 . S
C895 C892 1.499 . S
C895 C896 1.373 1_556 S
C895 C897 1.426 . S
C896 H869 0.950 . S
C896 C882 1.357 1_455 S
C896 C895 1.373 1_554 S
C897 C881 1.357 1_455 S
C897 C895 1.426 . S
C897 C898 1.522 . S
C898 C897 1.522 . S
C898 C899 1.423 . S
C898 C903 1.324 1_455 S
C899 H870 0.950 . S
C899 C898 1.423 . S
C899 C900 1.334 . S
C900 H871 0.950 . S
C900 C899 1.334 . S
C900 C901 1.287 . S
C901 C900 1.287 . S
C901 C902 1.524 1_455 S
C901 H904 0.999 . S
C902 H872 0.950 . S
C902 C901 1.524 1_655 S
C902 C903 1.415 . S
C903 H873 0.950 . S
C903 C898 1.324 1_655 S
C903 C902 1.415 . S
H904 C901 0.999 . S
H905 C886 0.913 . S
H906 C924 0.951 . S
H907 C926 0.951 . S
H908 C928 0.950 . S
H909 C929 0.950 . S
H910 C931 0.950 . S
H911 C934 0.950 . S
H912 C935 0.950 . S
H913 C937 0.950 . S
H914 C938 0.950 . S
H915 C939 0.951 . S
H916 C941 0.951 . S
H917 C943 0.950 . S
H918 C944 0.950 . S
H919 C946 0.950 . S
H920 C949 0.950 . S
H921 C950 0.950 . S
H922 C952 0.950 . S
H923 C953 0.950 . S
C924 H906 0.951 . S
C924 C925 1.366 . S
C924 C926 1.388 . S
C925 C924 1.366 . S
C925 C929 1.385 . S
C926 H907 0.951 . S
C926 C924 1.388 . S
C926 C927 1.366 . S
C927 C926 1.366 . S
C927 C928 1.414 . S
C927 C930 1.499 . S
C928 H908 0.950 . S
C928 C927 1.414 . S
C928 C929 1.374 . S
C929 H909 0.950 . S
C929 C925 1.385 . S
C929 C928 1.374 . S
C930 C927 1.499 . S
C930 C931 1.373 . S
C930 C932 1.362 1_455 S
C931 H910 0.950 . S
C931 C930 1.373 . S
C931 C947 1.423 . S
C932 C930 1.362 1_655 S
C932 C933 1.509 . S
C932 C946 1.423 . S
C933 C932 1.509 . S
C933 C934 1.397 1_655 S
C933 C938 1.363 . S
C934 H911 0.950 . S
C934 C933 1.397 1_455 S
C934 C935 1.334 . S
C935 H912 0.950 . S
C935 C934 1.334 . S
C935 C936 1.287 1_455 S
C936 C935 1.287 1_655 S
C936 C937 1.524 . S
C936 H955 0.913 . S
C937 H913 0.950 . S
C937 C936 1.524 . S
C937 C938 1.415 . S
C938 H914 0.950 . S
C938 C933 1.363 . S
C938 C937 1.415 . S
C939 H915 0.951 . S
C939 C940 1.366 . S
C939 C941 1.388 . S
C940 C939 1.366 . S
C940 C944 1.385 . S
C941 H916 0.951 . S
C941 C939 1.388 . S
C941 C942 1.366 . S
C942 C941 1.366 . S
C942 C943 1.414 . S
C942 C945 1.499 . S
C943 H917 0.950 . S
C943 C942 1.414 . S
C943 C944 1.374 . S
C944 H918 0.950 . S
C944 C940 1.385 . S
C944 C943 1.374 . S
C945 C942 1.499 . S
C945 C946 1.373 . S
C945 C947 1.362 1_655 S
C946 H919 0.950 . S
C946 C932 1.423 . S
C946 C945 1.373 . S
C947 C931 1.423 . S
C947 C945 1.362 1_455 S
C947 C948 1.509 . S
C948 C947 1.509 . S
C948 C949 1.397 1_455 S
C948 C953 1.363 . S
C949 H920 0.950 . S
C949 C948 1.397 1_655 S
C949 C950 1.334 . S
C950 H921 0.950 . S
C950 C949 1.334 . S
C950 C951 1.287 1_655 S
C951 C950 1.287 1_455 S
C951 C952 1.524 . S
C951 H954 0.999 . S
C952 H922 0.950 . S
C952 C951 1.524 . S
C952 C953 1.415 . S
C953 H923 0.950 . S
C953 C948 1.363 . S
C953 C952 1.415 . S
H954 C951 0.999 . S
H955 C936 0.913 . S
H956 C974 0.951 . S
H957 C976 0.951 . S
H958 C978 0.950 . S
H959 C979 0.950 . S
H960 C981 0.950 . S
H961 C984 0.950 . S
H962 C985 0.950 . S
H963 C987 0.950 . S
H964 C988 0.950 . S
H965 C989 0.951 . S
H966 C991 0.951 . S
H967 C993 0.950 . S
H968 C994 0.950 . S
H969 C996 0.950 . S
H970 C999 0.950 . S
H971 C1000 0.950 . S
H972 C1002 0.950 . S
H973 C1003 0.950 . S
C974 H956 0.951 . S
C974 C975 1.366 . S
C974 C976 1.388 . S
C975 C974 1.366 . S
C975 C979 1.385 . S
C976 H957 0.951 . S
C976 C974 1.388 . S
C976 C977 1.366 . S
C977 C976 1.366 . S
C977 C978 1.414 . S
C977 C980 1.499 . S
C978 H958 0.950 . S
C978 C977 1.414 . S
C978 C979 1.374 . S
C979 H959 0.950 . S
C979 C975 1.385 . S
C979 C978 1.374 . S
C980 C977 1.499 . S
C980 C981 1.373 . S
C980 C982 1.389 . S
C981 H960 0.950 . S
C981 C980 1.373 . S
C981 C997 1.377 1_545 S
C982 C980 1.389 . S
C982 C983 1.524 . S
C982 C996 1.377 1_545 S
C983 C982 1.524 . S
C983 C984 1.397 . S
C983 C988 1.363 1_545 S
C984 H961 0.950 . S
C984 C983 1.397 . S
C984 C985 1.334 . S
C985 H962 0.950 . S
C985 C984 1.334 . S
C985 C986 1.287 . S
C986 C985 1.287 . S
C986 C987 1.524 1_545 S
C986 H1005 0.913 . S
C987 H963 0.950 . S
C987 C986 1.524 1_565 S
C987 C988 1.415 . S
C988 H964 0.950 . S
C988 C983 1.363 1_565 S
C988 C987 1.415 . S
C989 H965 0.951 . S
C989 C990 1.366 . S
C989 C991 1.388 . S
C990 C989 1.366 . S
C990 C994 1.385 . S
C991 H966 0.951 . S
C991 C989 1.388 . S
C991 C992 1.366 . S
C992 C991 1.366 . S
C992 C993 1.414 . S
C992 C995 1.499 . S
C993 H967 0.950 . S
C993 C992 1.414 . S
C993 C994 1.374 . S
C994 H968 0.950 . S
C994 C990 1.385 . S
C994 C993 1.374 . S
C995 C992 1.499 . S
C995 C996 1.373 . S
C995 C997 1.389 . S
C996 H969 0.950 . S
C996 C982 1.377 1_565 S
C996 C995 1.373 . S
C997 C981 1.377 1_565 S
C997 C995 1.389 . S
C997 C998 1.524 . S
C998 C997 1.524 . S
C998 C999 1.397 . S
C998 C1003 1.363 1_565 S
C999 H970 0.950 . S
C999 C998 1.397 . S
C999 C1000 1.334 . S
C1000 H971 0.950 . S
C1000 C999 1.334 . S
C1000 C1001 1.287 . S
C1001 C1000 1.287 . S
C1001 C1002 1.524 1_565 S
C1001 H1004 0.999 . S
C1002 H972 0.950 . S
C1002 C1001 1.524 1_545 S
C1002 C1003 1.415 . S
C1003 H973 0.950 . S
C1003 C998 1.363 1_545 S
C1003 C1002 1.415 . S
H1004 C1001 0.999 . S
H1005 C986 0.913 . S
H1006 C1024 0.951 . S
H1007 C1026 0.951 . S
H1008 C1028 0.950 . S
H1009 C1029 0.950 . S
H1010 C1031 0.950 . S
H1011 C1034 0.950 . S
H1012 C1035 0.952 . S
H1013 C1037 0.950 . S
H1014 C1038 0.950 . S
H1015 C1039 0.951 . S
H1016 C1041 0.951 . S
H1017 C1043 0.950 . S
H1018 C1044 0.950 . S
H1019 C1046 0.950 . S
H1020 C1049 0.950 1_556 S
H1021 C1050 0.950 1_556 S
H1022 C1052 0.950 . S
H1023 C1053 0.950 . S
C1024 H1006 0.951 . S
C1024 C1025 1.366 1_556 S
C1024 C1026 1.388 . S
C1025 C1024 1.366 1_554 S
C1025 C1029 1.385 . S
C1026 H1007 0.951 . S
C1026 C1024 1.388 . S
C1026 C1027 1.366 1_556 S
C1027 C1026 1.366 1_554 S
C1027 C1028 1.414 . S
C1027 C1030 1.499 . S
C1028 H1008 0.950 . S
C1028 C1027 1.414 . S
C1028 C1029 1.374 . S
C1029 H1009 0.950 . S
C1029 C1025 1.385 . S
C1029 C1028 1.374 . S
C1030 C1027 1.499 . S
C1030 C1031 1.373 . S
C1030 C1032 1.389 1_554 S
C1031 H1010 0.950 . S
C1031 C1030 1.373 . S
C1031 C1047 1.377 . S
C1032 C1030 1.389 1_556 S
C1032 C1033 1.524 . S
C1032 C1046 1.377 . S
C1033 C1032 1.524 . S
C1033 C1034 1.397 1_556 S
C1033 C1038 1.363 . S
C1034 H1011 0.950 . S
C1034 C1033 1.397 1_554 S
C1034 C1035 1.335 . S
C1035 H1012 0.952 . S
C1035 C1034 1.335 . S
C1035 C1036 1.284 1_554 S
C1036 C1035 1.284 1_556 S
C1036 C1037 1.524 . S
C1036 H1055 0.913 . S
C1037 H1013 0.950 . S
C1037 C1036 1.524 . S
C1037 C1038 1.415 . S
C1038 H1014 0.950 . S
C1038 C1033 1.363 . S
C1038 C1037 1.415 . S
C1039 H1015 0.951 . S
C1039 C1040 1.366 . S
C1039 C1041 1.388 . S
C1040 C1039 1.366 . S
C1040 C1044 1.385 1_554 S
C1041 H1016 0.951 . S
C1041 C1039 1.388 . S
C1041 C1042 1.366 . S
C1042 C1041 1.366 . S
C1042 C1043 1.414 1_554 S
C1042 C1045 1.499 . S
C1043 H1017 0.950 . S
C1043 C1042 1.414 1_556 S
C1043 C1044 1.374 . S
C1044 H1018 0.950 . S
C1044 C1040 1.385 1_556 S
C1044 C1043 1.374 . S
C1045 C1042 1.499 . S
C1045 C1046 1.373 1_554 S
C1045 C1047 1.389 . S
C1046 H1019 0.950 . S
C1046 C1032 1.377 . S
C1046 C1045 1.373 1_556 S
C1047 C1031 1.377 . S
C1047 C1045 1.389 . S
C1047 C1048 1.524 . S
C1048 C1047 1.524 . S
C1048 C1049 1.397 . S
C1048 C1053 1.363 . S
C1049 H1020 0.950 1_554 S
C1049 C1048 1.397 . S
C1049 C1050 1.334 . S
C1050 H1021 0.950 1_554 S
C1050 C1049 1.334 . S
C1050 C1051 1.287 . S
C1051 C1050 1.287 . S
C1051 C1052 1.524 . S
C1051 H1054 0.999 . S
C1052 H1022 0.950 . S
C1052 C1051 1.524 . S
C1052 C1053 1.415 . S
C1053 H1023 0.950 . S
C1053 C1048 1.363 . S
C1053 C1052 1.415 . S
H1054 C1051 0.999 . S
H1055 C1036 0.913 . S
H1056 C1074 0.951 . S
H1057 C1076 0.951 . S
H1058 C1078 0.950 . S
H1059 C1079 0.950 . S
H1060 C1081 0.950 . S
H1061 C1084 0.950 . S
H1062 C1085 0.950 . S
H1063 C1087 0.950 . S
H1064 C1088 0.950 . S
H1065 C1089 0.951 . S
H1066 C1091 0.951 . S
H1067 C1093 0.950 . S
H1068 C1094 0.950 . S
H1069 C1096 0.950 . S
H1070 C1099 0.950 . S
H1071 C1100 0.950 . S
H1072 C1102 0.950 . S
H1073 C1103 0.950 . S
C1074 H1056 0.951 . S
C1074 C1075 1.366 . S
C1074 C1076 1.388 . S
C1075 C1074 1.366 . S
C1075 C1079 1.385 . S
C1076 H1057 0.951 . S
C1076 C1074 1.388 . S
C1076 C1077 1.366 . S
C1077 C1076 1.366 . S
C1077 C1078 1.414 . S
C1077 C1080 1.499 . S
C1078 H1058 0.950 . S
C1078 C1077 1.414 . S
C1078 C1079 1.374 . S
C1079 H1059 0.950 . S
C1079 C1075 1.385 . S
C1079 C1078 1.374 . S
C1080 C1077 1.499 . S
C1080 C1081 1.373 . S
C1080 C1082 1.389 . S
C1081 H1060 0.950 . S
C1081 C1080 1.373 . S
C1081 C1097 1.377 . S
C1082 C1080 1.389 . S
C1082 C1083 1.524 . S
C1082 C1096 1.377 . S
C1083 C1082 1.524 . S
C1083 C1084 1.397 . S
C1083 C1088 1.363 . S
C1084 H1061 0.950 . S
C1084 C1083 1.397 . S
C1084 C1085 1.334 . S
C1085 H1062 0.950 . S
C1085 C1084 1.334 . S
C1085 C1086 1.287 . S
C1086 C1085 1.287 . S
C1086 C1087 1.524 . S
C1086 H1105 0.913 . S
C1087 H1063 0.950 . S
C1087 C1086 1.524 . S
C1087 C1088 1.415 . S
C1088 H1064 0.950 . S
C1088 C1083 1.363 . S
C1088 C1087 1.415 . S
C1089 H1065 0.951 . S
C1089 C1090 1.366 . S
C1089 C1091 1.388 . S
C1090 C1089 1.366 . S
C1090 C1094 1.385 . S
C1091 H1066 0.951 . S
C1091 C1089 1.388 . S
C1091 C1092 1.366 . S
C1092 C1091 1.366 . S
C1092 C1093 1.414 . S
C1092 C1095 1.499 . S
C1093 H1067 0.950 . S
C1093 C1092 1.414 . S
C1093 C1094 1.374 . S
C1094 H1068 0.950 . S
C1094 C1090 1.385 . S
C1094 C1093 1.374 . S
C1095 C1092 1.499 . S
C1095 C1096 1.373 . S
C1095 C1097 1.389 . S
C1096 H1069 0.950 . S
C1096 C1082 1.377 . S
C1096 C1095 1.373 . S
C1097 C1081 1.377 . S
C1097 C1095 1.389 . S
C1097 C1098 1.524 . S
C1098 C1097 1.524 . S
C1098 C1099 1.397 . S
C1098 C1103 1.363 . S
C1099 H1070 0.950 . S
C1099 C1098 1.397 . S
C1099 C1100 1.334 . S
C1100 H1071 0.950 . S
C1100 C1099 1.334 . S
C1100 C1101 1.287 . S
C1101 C1100 1.287 . S
C1101 C1102 1.524 . S
C1101 H1104 0.999 . S
C1102 H1072 0.950 . S
C1102 C1101 1.524 . S
C1102 C1103 1.415 . S
C1103 H1073 0.950 . S
C1103 C1098 1.363 . S
C1103 C1102 1.415 . S
H1104 C1101 0.999 . S
H1105 C1086 0.913 . S
H1106 C1124 0.951 . S
H1107 C1126 0.951 . S
H1108 C1128 0.950 . S
H1109 C1129 0.950 . S
H1110 C1131 0.950 . S
H1111 C1134 0.950 . S
H1112 C1135 0.950 . S
H1113 C1137 0.950 . S
H1114 C1138 0.950 . S
H1115 C1139 0.951 . S
H1116 C1141 0.951 . S
H1117 C1143 0.950 . S
H1118 C1144 0.950 . S
H1119 C1146 0.950 . S
H1120 C1149 0.950 . S
H1121 C1150 0.950 . S
H1122 C1152 0.950 . S
H1123 C1153 0.950 . S
C1124 H1106 0.951 . S
C1124 C1125 1.366 . S
C1124 C1126 1.388 . S
C1125 C1124 1.366 . S
C1125 C1129 1.385 . S
C1126 H1107 0.951 . S
C1126 C1124 1.388 . S
C1126 C1127 1.366 . S
C1127 C1126 1.366 . S
C1127 C1128 1.414 . S
C1127 C1130 1.499 . S
C1128 H1108 0.950 . S
C1128 C1127 1.414 . S
C1128 C1129 1.374 . S
C1129 H1109 0.950 . S
C1129 C1125 1.385 . S
C1129 C1128 1.374 . S
C1130 C1127 1.499 . S
C1130 C1131 1.373 . S
C1130 C1132 1.389 . S
C1131 H1110 0.950 . S
C1131 C1130 1.373 . S
C1131 C1147 1.377 . S
C1132 C1130 1.389 . S
C1132 C1133 1.524 . S
C1132 C1146 1.377 . S
C1133 C1132 1.524 . S
C1133 C1134 1.397 . S
C1133 C1138 1.363 . S
C1134 H1111 0.950 . S
C1134 C1133 1.397 . S
C1134 C1135 1.334 . S
C1135 H1112 0.950 . S
C1135 C1134 1.334 . S
C1135 C1136 1.287 . S
C1136 C1135 1.287 . S
C1136 C1137 1.524 . S
C1136 H1155 0.913 . S
C1137 H1113 0.950 . S
C1137 C1136 1.524 . S
C1137 C1138 1.415 . S
C1138 H1114 0.950 . S
C1138 C1133 1.363 . S
C1138 C1137 1.415 . S
C1139 H1115 0.951 . S
C1139 C1140 1.366 . S
C1139 C1141 1.388 . S
C1140 C1139 1.366 . S
C1140 C1144 1.385 . S
C1141 H1116 0.951 . S
C1141 C1139 1.388 . S
C1141 C1142 1.366 . S
C1142 C1141 1.366 . S
C1142 C1143 1.414 . S
C1142 C1145 1.499 . S
C1143 H1117 0.950 . S
C1143 C1142 1.414 . S
C1143 C1144 1.374 . S
C1144 H1118 0.950 . S
C1144 C1140 1.385 . S
C1144 C1143 1.374 . S
C1145 C1142 1.499 . S
C1145 C1146 1.373 . S
C1145 C1147 1.389 . S
C1146 H1119 0.950 . S
C1146 C1132 1.377 . S
C1146 C1145 1.373 . S
C1147 C1131 1.377 . S
C1147 C1145 1.389 . S
C1147 C1148 1.524 . S
C1148 C1147 1.524 . S
C1148 C1149 1.397 . S
C1148 C1153 1.363 . S
C1149 H1120 0.950 . S
C1149 C1148 1.397 . S
C1149 C1150 1.334 . S
C1150 H1121 0.950 . S
C1150 C1149 1.334 . S
C1150 C1151 1.287 . S
C1151 C1150 1.287 . S
C1151 C1152 1.524 . S
C1151 H1154 0.999 . S
C1152 H1122 0.950 . S
C1152 C1151 1.524 . S
C1152 C1153 1.415 . S
C1153 H1123 0.950 . S
C1153 C1148 1.363 . S
C1153 C1152 1.415 . S
H1154 C1151 0.999 . S
H1155 C1136 0.913 . S
H1156 C1174 0.951 . S
H1157 C1176 0.951 . S
H1158 C1178 0.950 . S
H1159 C1179 0.950 . S
H1160 C1181 0.950 . S
H1161 C1184 0.950 . S
H1162 C1185 0.950 . S
H1163 C1187 0.950 . S
H1164 C1188 0.950 . S
H1165 C1189 0.951 . S
H1166 C1191 0.951 . S
H1167 C1193 0.950 . S
H1168 C1194 0.950 . S
H1169 C1196 0.950 . S
H1170 C1199 0.950 . S
H1171 C1200 0.950 . S
H1172 C1202 0.950 . S
H1173 C1203 0.950 . S
C1174 H1156 0.951 . S
C1174 C1175 1.366 . S
C1174 C1176 1.388 . S
C1175 C1174 1.366 . S
C1175 C1179 1.385 . S
C1176 H1157 0.951 . S
C1176 C1174 1.388 . S
C1176 C1177 1.366 . S
C1177 C1176 1.366 . S
C1177 C1178 1.414 . S
C1177 C1180 1.499 . S
C1178 H1158 0.950 . S
C1178 C1177 1.414 . S
C1178 C1179 1.374 . S
C1179 H1159 0.950 . S
C1179 C1175 1.385 . S
C1179 C1178 1.374 . S
C1180 C1177 1.499 . S
C1180 C1181 1.373 . S
C1180 C1182 1.389 . S
C1181 H1160 0.950 . S
C1181 C1180 1.373 . S
C1181 C1197 1.377 . S
C1182 C1180 1.389 . S
C1182 C1183 1.524 . S
C1182 C1196 1.377 . S
C1183 C1182 1.524 . S
C1183 C1184 1.397 . S
C1183 C1188 1.363 . S
C1184 H1161 0.950 . S
C1184 C1183 1.397 . S
C1184 C1185 1.334 . S
C1185 H1162 0.950 . S
C1185 C1184 1.334 . S
C1185 C1186 1.287 . S
C1186 C1185 1.287 . S
C1186 C1187 1.524 . S
C1186 H1205 0.913 . S
C1187 H1163 0.950 . S
C1187 C1186 1.524 . S
C1187 C1188 1.415 . S
C1188 H1164 0.950 . S
C1188 C1183 1.363 . S
C1188 C1187 1.415 . S
C1189 H1165 0.951 . S
C1189 C1190 1.366 . S
C1189 C1191 1.388 . S
C1190 C1189 1.366 . S
C1190 C1194 1.385 . S
C1191 H1166 0.951 . S
C1191 C1189 1.388 . S
C1191 C1192 1.366 . S
C1192 C1191 1.366 . S
C1192 C1193 1.414 . S
C1192 C1195 1.499 . S
C1193 H1167 0.950 . S
C1193 C1192 1.414 . S
C1193 C1194 1.374 . S
C1194 H1168 0.950 . S
C1194 C1190 1.385 . S
C1194 C1193 1.374 . S
C1195 C1192 1.499 . S
C1195 C1196 1.373 . S
C1195 C1197 1.389 . S
C1196 H1169 0.950 . S
C1196 C1182 1.377 . S
C1196 C1195 1.373 . S
C1197 C1181 1.377 . S
C1197 C1195 1.389 . S
C1197 C1198 1.524 . S
C1198 C1197 1.524 . S
C1198 C1199 1.397 . S
C1198 C1203 1.363 . S
C1199 H1170 0.950 . S
C1199 C1198 1.397 . S
C1199 C1200 1.334 . S
C1200 H1171 0.950 . S
C1200 C1199 1.334 . S
C1200 C1201 1.287 . S
C1201 C1200 1.287 . S
C1201 C1202 1.524 . S
C1201 H1204 0.999 . S
C1202 H1172 0.950 . S
C1202 C1201 1.524 . S
C1202 C1203 1.415 . S
C1203 H1173 0.950 . S
C1203 C1198 1.363 . S
C1203 C1202 1.415 . S
H1204 C1201 0.999 . S
H1205 C1186 0.913 . S
H1206 C1224 0.951 . S
H1207 C1226 0.951 . S
H1208 C1228 0.950 . S
H1209 C1229 0.950 . S
H1210 C1231 0.950 . S
H1211 C1234 0.950 . S
H1212 C1235 0.950 . S
H1213 C1237 0.950 . S
H1214 C1238 0.950 . S
H1215 C1239 0.951 . S
H1216 C1241 0.951 . S
H1217 C1243 0.950 . S
H1218 C1244 0.950 . S
H1219 C1246 0.950 . S
H1220 C1249 0.950 . S
H1221 C1250 0.950 . S
H1222 C1252 0.950 . S
H1223 C1253 0.950 . S
C1224 H1206 0.951 . S
C1224 C1225 1.366 . S
C1224 C1226 1.388 . S
C1225 C1224 1.366 . S
C1225 C1229 1.385 . S
C1226 H1207 0.951 . S
C1226 C1224 1.388 . S
C1226 C1227 1.366 . S
C1227 C1226 1.366 . S
C1227 C1228 1.414 . S
C1227 C1230 1.499 . S
C1228 H1208 0.950 . S
C1228 C1227 1.414 . S
C1228 C1229 1.374 . S
C1229 H1209 0.950 . S
C1229 C1225 1.385 . S
C1229 C1228 1.374 . S
C1230 C1227 1.499 . S
C1230 C1231 1.373 . S
C1230 C1232 1.389 . S
C1231 H1210 0.950 . S
C1231 C1230 1.373 . S
C1231 C1247 1.377 . S
C1232 C1230 1.389 . S
C1232 C1233 1.524 . S
C1232 C1246 1.377 . S
C1233 C1232 1.524 . S
C1233 C1234 1.397 . S
C1233 C1238 1.363 . S
C1234 H1211 0.950 . S
C1234 C1233 1.397 . S
C1234 C1235 1.334 . S
C1235 H1212 0.950 . S
C1235 C1234 1.334 . S
C1235 C1236 1.287 . S
C1236 C1235 1.287 . S
C1236 C1237 1.524 . S
C1236 H1255 0.913 . S
C1237 H1213 0.950 . S
C1237 C1236 1.524 . S
C1237 C1238 1.415 . S
C1238 H1214 0.950 . S
C1238 C1233 1.363 . S
C1238 C1237 1.415 . S
C1239 H1215 0.951 . S
C1239 C1240 1.366 . S
C1239 C1241 1.388 . S
C1240 C1239 1.366 . S
C1240 C1244 1.385 . S
C1241 H1216 0.951 . S
C1241 C1239 1.388 . S
C1241 C1242 1.366 . S
C1242 C1241 1.366 . S
C1242 C1243 1.414 . S
C1242 C1245 1.499 . S
C1243 H1217 0.950 . S
C1243 C1242 1.414 . S
C1243 C1244 1.374 . S
C1244 H1218 0.950 . S
C1244 C1240 1.385 . S
C1244 C1243 1.374 . S
C1245 C1242 1.499 . S
C1245 C1246 1.373 . S
C1245 C1247 1.389 . S
C1246 H1219 0.950 . S
C1246 C1232 1.377 . S
C1246 C1245 1.373 . S
C1247 C1231 1.377 . S
C1247 C1245 1.389 . S
C1247 C1248 1.524 . S
C1248 C1247 1.524 . S
C1248 C1249 1.397 . S
C1248 C1253 1.363 . S
C1249 H1220 0.950 . S
C1249 C1248 1.397 . S
C1249 C1250 1.334 . S
C1250 H1221 0.950 . S
C1250 C1249 1.334 . S
C1250 C1251 1.287 . S
C1251 C1250 1.287 . S
C1251 C1252 1.524 . S
C1251 H1254 0.999 . S
C1252 H1222 0.950 . S
C1252 C1251 1.524 . S
C1252 C1253 1.415 . S
C1253 H1223 0.950 . S
C1253 C1248 1.363 . S
C1253 C1252 1.415 . S
H1254 C1251 0.999 . S
H1255 C1236 0.913 . S
H1256 C1274 0.951 . S
H1257 C1276 0.951 . S
H1258 C1278 0.950 . S
H1259 C1279 0.950 . S
H1260 C1281 0.950 . S
H1261 C1284 0.950 . S
H1262 C1285 0.950 . S
H1263 C1287 0.950 . S
H1264 C1288 0.950 . S
H1265 C1289 0.951 . S
H1266 C1291 0.951 . S
H1267 C1293 0.950 . S
H1268 C1294 0.950 . S
H1269 C1296 0.950 . S
H1270 C1299 0.950 . S
H1271 C1300 0.950 . S
H1272 C1302 0.950 . S
H1273 C1303 0.950 . S
C1274 H1256 0.951 . S
C1274 C1275 1.366 . S
C1274 C1276 1.388 . S
C1275 C1274 1.366 . S
C1275 C1279 1.385 . S
C1276 H1257 0.951 . S
C1276 C1274 1.388 . S
C1276 C1277 1.366 . S
C1277 C1276 1.366 . S
C1277 C1278 1.414 . S
C1277 C1280 1.499 . S
C1278 H1258 0.950 . S
C1278 C1277 1.414 . S
C1278 C1279 1.374 . S
C1279 H1259 0.950 . S
C1279 C1275 1.385 . S
C1279 C1278 1.374 . S
C1280 C1277 1.499 . S
C1280 C1281 1.373 . S
C1280 C1282 1.389 . S
C1281 H1260 0.950 . S
C1281 C1280 1.373 . S
C1281 C1297 1.377 . S
C1282 C1280 1.389 . S
C1282 C1283 1.524 . S
C1282 C1296 1.377 . S
C1283 C1282 1.524 . S
C1283 C1284 1.397 . S
C1283 C1288 1.363 . S
C1284 H1261 0.950 . S
C1284 C1283 1.397 . S
C1284 C1285 1.334 . S
C1285 H1262 0.950 . S
C1285 C1284 1.334 . S
C1285 C1286 1.287 . S
C1286 C1285 1.287 . S
C1286 C1287 1.524 . S
C1286 H1305 0.913 . S
C1287 H1263 0.950 . S
C1287 C1286 1.524 . S
C1287 C1288 1.415 . S
C1288 H1264 0.950 . S
C1288 C1283 1.363 . S
C1288 C1287 1.415 . S
C1289 H1265 0.951 . S
C1289 C1290 1.366 . S
C1289 C1291 1.388 . S
C1290 C1289 1.366 . S
C1290 C1294 1.385 . S
C1291 H1266 0.951 . S
C1291 C1289 1.388 . S
C1291 C1292 1.366 . S
C1292 C1291 1.366 . S
C1292 C1293 1.414 . S
C1292 C1295 1.499 . S
C1293 H1267 0.950 . S
C1293 C1292 1.414 . S
C1293 C1294 1.374 . S
C1294 H1268 0.950 . S
C1294 C1290 1.385 . S
C1294 C1293 1.374 . S
C1295 C1292 1.499 . S
C1295 C1296 1.373 . S
C1295 C1297 1.389 . S
C1296 H1269 0.950 . S
C1296 C1282 1.377 . S
C1296 C1295 1.373 . S
C1297 C1281 1.377 . S
C1297 C1295 1.389 . S
C1297 C1298 1.524 . S
C1298 C1297 1.524 . S
C1298 C1299 1.397 . S
C1298 C1303 1.363 . S
C1299 H1270 0.950 . S
C1299 C1298 1.397 . S
C1299 C1300 1.334 . S
C1300 H1271 0.950 . S
C1300 C1299 1.334 . S
C1300 C1301 1.287 . S
C1301 C1300 1.287 . S
C1301 C1302 1.524 . S
C1301 H1304 0.999 . S
C1302 H1272 0.950 . S
C1302 C1301 1.524 . S
C1302 C1303 1.415 . S
C1303 H1273 0.950 . S
C1303 C1298 1.363 . S
C1303 C1302 1.415 . S
H1304 C1301 0.999 . S
H1305 C1286 0.913 . S
H1306 C1324 0.951 . S
H1307 C1326 0.951 . S
H1308 C1328 0.950 . S
H1309 C1329 0.950 . S
H1310 C1331 0.950 . S
H1311 C1334 0.950 . S
H1312 C1335 0.950 . S
H1313 C1337 0.950 . S
H1314 C1338 0.950 . S
H1315 C1339 0.951 . S
H1316 C1341 0.951 . S
H1317 C1343 0.950 . S
H1318 C1344 0.950 . S
H1319 C1346 0.950 . S
H1320 C1349 0.950 . S
H1321 C1350 0.950 . S
H1322 C1352 0.950 . S
H1323 C1353 0.950 . S
C1324 H1306 0.951 . S
C1324 C1325 1.366 . S
C1324 C1326 1.388 . S
C1325 C1324 1.366 . S
C1325 C1329 1.385 . S
C1326 H1307 0.951 . S
C1326 C1324 1.388 . S
C1326 C1327 1.366 . S
C1327 C1326 1.366 . S
C1327 C1328 1.414 . S
C1327 C1330 1.499 . S
C1328 H1308 0.950 . S
C1328 C1327 1.414 . S
C1328 C1329 1.374 . S
C1329 H1309 0.950 . S
C1329 C1325 1.385 . S
C1329 C1328 1.374 . S
C1330 C1327 1.499 . S
C1330 C1331 1.373 . S
C1330 C1332 1.389 . S
C1331 H1310 0.950 . S
C1331 C1330 1.373 . S
C1331 C1347 1.377 . S
C1332 C1330 1.389 . S
C1332 C1333 1.524 . S
C1332 C1346 1.377 . S
C1333 C1332 1.524 . S
C1333 C1334 1.397 . S
C1333 C1338 1.363 . S
C1334 H1311 0.950 . S
C1334 C1333 1.397 . S
C1334 C1335 1.334 . S
C1335 H1312 0.950 . S
C1335 C1334 1.334 . S
C1335 C1336 1.287 . S
C1336 C1335 1.287 . S
C1336 C1337 1.524 . S
C1336 H1355 0.913 . S
C1337 H1313 0.950 . S
C1337 C1336 1.524 . S
C1337 C1338 1.415 . S
C1338 H1314 0.950 . S
C1338 C1333 1.363 . S
C1338 C1337 1.415 . S
C1339 H1315 0.951 . S
C1339 C1340 1.366 . S
C1339 C1341 1.388 . S
C1340 C1339 1.366 . S
C1340 C1344 1.385 . S
C1341 H1316 0.951 . S
C1341 C1339 1.388 . S
C1341 C1342 1.366 . S
C1342 C1341 1.366 . S
C1342 C1343 1.414 . S
C1342 C1345 1.499 . S
C1343 H1317 0.950 . S
C1343 C1342 1.414 . S
C1343 C1344 1.374 . S
C1344 H1318 0.950 . S
C1344 C1340 1.385 . S
C1344 C1343 1.374 . S
C1345 C1342 1.499 . S
C1345 C1346 1.373 . S
C1345 C1347 1.389 . S
C1346 H1319 0.950 . S
C1346 C1332 1.377 . S
C1346 C1345 1.373 . S
C1347 C1331 1.377 . S
C1347 C1345 1.389 . S
C1347 C1348 1.524 . S
C1348 C1347 1.524 . S
C1348 C1349 1.397 . S
C1348 C1353 1.363 . S
C1349 H1320 0.950 . S
C1349 C1348 1.397 . S
C1349 C1350 1.334 . S
C1350 H1321 0.950 . S
C1350 C1349 1.334 . S
C1350 C1351 1.287 . S
C1351 C1350 1.287 . S
C1351 C1352 1.524 . S
C1351 H1354 0.999 . S
C1352 H1322 0.950 . S
C1352 C1351 1.524 . S
C1352 C1353 1.415 . S
C1353 H1323 0.950 . S
C1353 C1348 1.363 . S
C1353 C1352 1.415 . S
H1354 C1351 0.999 . S
H1355 C1336 0.913 . S
C175 C10 1.677 . S
C190 C140 1.677 . S
C225 C14 1.694 . S
C240 C153 1.677 . S
C275 C79 1.693 . S
C290 C36 1.678 . S
C325 C49 1.677 . S
C340 C101 1.677 . S
C375 C114 1.677 . S
C390 C53 1.694 . S
C425 C118 1.694 . S
C440 C75 1.677 . S
C475 C88 0.754 . S
C490 C1 0.753 . S
C525 C92 0.754 . S
C540 C23 0.753 . S
C575 C105 0.754 . S
C590 C27 0.757 . S
C625 C40 0.752 . S
C640 C127 0.754 . S
C675 C62 0.754 . S
C690 C131 0.752 . S
C725 C66 0.758 . S
C740 C144 0.752 . S
C775 C3 2.268 . S
C790 C42 2.268 . S
C825 C18 2.422 . S
C840 C57 2.422 . S
C875 C29 2.268 . S
C890 C68 2.268 . S
C925 C122 2.422 . S
C940 C83 2.422 . S
C975 C133 2.268 . S
C990 C94 2.268 . S
C1025 C146 2.268 . S
C1040 C107 2.268 . S
C1075 C5 1.826 . S
C1090 C109 1.826 . S
C1125 C120 1.822 . S
C1140 C16 1.822 . S
C1175 C31 1.826 . S
C1190 C135 1.825 . S
C1225 C148 1.826 . S
C1240 C44 1.826 . S
C1275 C55 1.822 . S
C1290 C81 1.822 . S
C1325 C70 1.826 . S
C1340 C96 1.825 . S
