# Generated by pormake.
# Topology vcr, (7)-cn, num edge types: 1
# Building blocks:
#     Node 0, Type 0, BuildingBlock: HICVOG_clean_sbu_0, # of connection points: 7
#     Node 1, Type 0, BuildingBlock: HICVOG_clean_sbu_0, # of connection points: 7
#     Node 2, Type 0, BuildingBlock: HICVOG_clean_sbu_0, # of connection points: 7
#     Node 3, Type 0, BuildingBlock: HICVOG_clean_sbu_0, # of connection points: 7
#     Node 4, Type 0, BuildingBlock: HICVOG_clean_sbu_0, # of connection points: 7
#     Node 5, Type 0, BuildingBlock: HICVOG_clean_sbu_0, # of connection points: 7
#     Node 6, Type 0, BuildingBlock: HICVOG_clean_sbu_0, # of connection points: 7
#     Node 7, Type 0, BuildingBlock: HICVOG_clean_sbu_0, # of connection points: 7
#     Edge 8, Type (0, 0), BuildingBlock: XIVTED_clean_linker_0, # of connection points: 2
#     Edge 9, Type (0, 0), BuildingBlock: XIVTED_clean_linker_0, # of connection points: 2
#     Edge 10, Type (0, 0), BuildingBlock: XIVTED_clean_linker_0, # of connection points: 2
#     Edge 11, Type (0, 0), BuildingBlock: XIVTED_clean_linker_0, # of connection points: 2
#     Edge 12, Type (0, 0), BuildingBlock: XIVTED_clean_linker_0, # of connection points: 2
#     Edge 13, Type (0, 0), BuildingBlock: XIVTED_clean_linker_0, # of connection points: 2
#     Edge 14, Type (0, 0), BuildingBlock: XIVTED_clean_linker_0, # of connection points: 2
#     Edge 15, Type (0, 0), BuildingBlock: XIVTED_clean_linker_0, # of connection points: 2
#     Edge 16, Type (0, 0), BuildingBlock: XIVTED_clean_linker_0, # of connection points: 2
#     Edge 17, Type (0, 0), BuildingBlock: XIVTED_clean_linker_0, # of connection points: 2
#     Edge 18, Type (0, 0), BuildingBlock: XIVTED_clean_linker_0, # of connection points: 2
#     Edge 19, Type (0, 0), BuildingBlock: XIVTED_clean_linker_0, # of connection points: 2
#     Edge 20, Type (0, 0), BuildingBlock: XIVTED_clean_linker_0, # of connection points: 2
#     Edge 21, Type (0, 0), BuildingBlock: XIVTED_clean_linker_0, # of connection points: 2
#     Edge 22, Type (0, 0), BuildingBlock: XIVTED_clean_linker_0, # of connection points: 2
#     Edge 23, Type (0, 0), BuildingBlock: XIVTED_clean_linker_0, # of connection points: 2
#     Edge 24, Type (0, 0), BuildingBlock: XIVTED_clean_linker_0, # of connection points: 2
#     Edge 25, Type (0, 0), BuildingBlock: XIVTED_clean_linker_0, # of connection points: 2
#     Edge 26, Type (0, 0), BuildingBlock: XIVTED_clean_linker_0, # of connection points: 2
#     Edge 27, Type (0, 0), BuildingBlock: XIVTED_clean_linker_0, # of connection points: 2
#     Edge 28, Type (0, 0), BuildingBlock: XIVTED_clean_linker_0, # of connection points: 2
#     Edge 29, Type (0, 0), BuildingBlock: XIVTED_clean_linker_0, # of connection points: 2
#     Edge 30, Type (0, 0), BuildingBlock: XIVTED_clean_linker_0, # of connection points: 2
#     Edge 31, Type (0, 0), BuildingBlock: XIVTED_clean_linker_0, # of connection points: 2
#     Edge 32, Type (0, 0), BuildingBlock: XIVTED_clean_linker_0, # of connection points: 2
#     Edge 33, Type (0, 0), BuildingBlock: XIVTED_clean_linker_0, # of connection points: 2
#     Edge 34, Type (0, 0), BuildingBlock: XIVTED_clean_linker_0, # of connection points: 2
#     Edge 35, Type (0, 0), BuildingBlock: XIVTED_clean_linker_0, # of connection points: 2
# Relax obj value: 0.300
# Max RMSD: 0.265
# Mean RMSD: 0.265
data_MOF--net-vcr--node1-HICVOG_clean_sbu_0--edge1-XIVTED_clean_linker_0
_symmetry_space_group_name_H-M    P1
_symmetry_Int_Tables_number       1
_symmetry_cell_setting            triclinic
loop_
_symmetry_equiv_pos_as_xyz
'x, y, z'
_cell_length_a     35.188286
_cell_length_b     50.392242
_cell_length_c     19.573586
_cell_angle_alpha  89.933793
_cell_angle_beta   90.013819
_cell_angle_gamma 89.886937
loop_
_atom_site_label
_atom_site_type_symbol
_atom_site_fract_x
_atom_site_fract_y
_atom_site_fract_z
_atom_type_partial_charge
Zn0 Zn 0.15582 0.12477 0.1638 0.0
C1 C 0.10164 0.08644 0.01315 0.0
N2 N 0.13005 0.06897 0.02175 0.0
C3 C 0.15298 0.08108 0.06639 0.0
N4 N 0.13921 0.10497 0.08521 0.0
N5 N 0.10708 0.10847 0.05126 0.0
C6 C 1.00057 0.13281 0.02985 0.0
O7 O 0.0038 0.13029 0.09641 0.0
O8 O 0.21289 0.12855 0.1578 0.0
Zn9 Zn 0.08267 0.14235 0.03527 0.0
N10 N 0.14128 0.10465 0.24436 0.0
C11 C 0.10785 0.06822 0.29292 0.0
C12 C 0.11963 0.08256 0.23605 0.0
C13 C 0.15044 0.11358 0.30787 0.0
N14 N 0.11681 0.07713 0.35618 0.0
C15 C 0.13743 0.09966 0.36587 0.0
O16 O 0.07973 0.16806 0.11523 0.0
C17 C 0.10388 0.17549 0.15982 0.0
O18 O 0.13292 0.16147 0.17469 0.0
H19 H 0.11101 0.07621 0.1858 0.0
H20 H 0.16731 0.13139 0.31255 0.0
C21 C 0.115 0.14951 0.90257 0.0
C22 C 0.13725 0.16211 0.85233 0.0
C23 C 0.15442 0.19502 0.93339 0.0
C24 C 0.13241 0.18243 0.98281 0.0
N25 N 0.11309 0.15998 0.96649 0.0
N26 N 0.15623 0.18466 0.86954 0.0
H27 H 0.09873 0.13187 0.89125 0.0
C28 C 0.22579 0.14613 0.11736 0.0
O29 O 0.20168 0.16166 0.08512 0.0
O30 O 0.03009 0.13756 0.99446 0.0
H31 H 0.1308 0.19059 0.03366 0.0
H32 H 0.09099 0.05044 0.28696 0.0
H33 H 0.16991 0.21292 0.94559 0.0
Zn34 Zn 0.42016 0.89443 0.02546 0.0
C35 C 0.35261 0.95611 0.06588 0.0
N36 N 0.37462 0.96841 0.02006 0.0
C37 C 0.40246 0.95078 0.00842 0.0
N38 N 0.3975 0.92846 0.04581 0.0
N39 N 0.36637 0.93197 0.08259 0.0
C40 C 0.2811 0.88993 0.12041 0.0
O41 O 0.30479 0.87417 0.08808 0.0
O42 O 0.47231 0.89896 0.98305 0.0
Zn43 Zn 0.35156 0.91219 0.16269 0.0
N44 N 0.38763 0.87797 0.95843 0.0
C45 C 0.34318 0.84438 0.92891 0.0
C46 C 0.36704 0.85627 0.97655 0.0
C47 C 0.38527 0.88835 0.89449 0.0
N48 N 0.3409 0.85463 0.86495 0.0
C49 C 0.36118 0.87643 0.84606 0.0
O50 O 0.37609 0.87583 0.1758 0.0
C51 C 0.40318 0.86127 0.15412 0.0
O52 O 0.42312 0.86776 0.10248 0.0
H53 H 0.36902 0.84823 0.02755 0.0
H54 H 0.40257 0.90536 0.88174 0.0
C55 C 0.35532 0.92553 0.30456 0.0
C56 C 0.36802 0.93988 0.36185 0.0
C57 C 0.40044 0.96957 0.28786 0.0
C58 C 0.389 0.9547 0.23171 0.0
N59 N 0.36612 0.93327 0.24095 0.0
N60 N 0.38993 0.96176 0.35139 0.0
H61 H 0.3374 0.90824 0.30984 0.0
C62 C 0.50196 0.90182 0.01943 0.0
O63 O 0.49863 0.90216 0.08629 0.0
O64 O 0.29451 0.9078 0.15931 0.0
H65 H 0.39871 0.96014 0.18132 0.0
H66 H 0.32663 0.82709 0.94254 0.0
H67 H 0.41825 0.98686 0.28122 0.0
Zn68 Zn 0.15503 0.4151 0.32537 0.0
C69 C 0.10046 0.45186 0.47901 0.0
N70 N 0.12959 0.46882 0.47334 0.0
C71 C 0.1523 0.45705 0.4277 0.0
N72 N 0.1377 0.4339 0.40536 0.0
N73 N 0.10521 0.43046 0.43827 0.0
C74 C 1.0004 0.38418 0.47475 0.0
O75 O 0.01457 0.36078 0.45959 0.0
O76 O 0.21219 0.41168 0.33195 0.0
Zn77 Zn 0.07724 0.39756 0.44712 0.0
N78 N 0.14013 0.43558 0.24534 0.0
C79 C 0.10895 0.47338 0.19837 0.0
C80 C 0.121 0.45877 0.25468 0.0
C81 C 0.14639 0.42587 0.1814 0.0
N82 N 0.11506 0.46371 0.13474 0.0
C83 C 0.13306 0.44013 0.12408 0.0
O84 O 0.07877 0.37192 0.36651 0.0
C85 C 0.10438 0.3643 0.32484 0.0
O86 O 0.13373 0.37825 0.31265 0.0
H87 H 0.11447 0.46574 0.30536 0.0
H88 H 0.16124 0.4072 0.17586 0.0
C89 C 0.10243 0.3893 0.58576 0.0
C90 C 0.11985 0.37503 0.63938 0.0
C91 C 0.13196 0.33953 0.56256 0.0
C92 C 0.11489 0.35375 0.50987 0.0
N93 N 0.10044 0.37831 0.52233 0.0
N94 N 0.13399 0.35043 0.62573 0.0
H95 H 0.09003 0.40868 0.59398 0.0
C96 C 0.22495 0.39393 0.37217 0.0
O97 O 0.20069 0.37836 0.40373 0.0
O98 O 0.02216 0.40429 0.47269 0.0
H99 H 0.11316 0.34515 0.45952 0.0
H100 H 0.09407 0.492 0.20515 0.0
H101 H 0.14352 0.31994 0.55341 0.0
Zn102 Zn 0.42367 0.6438 0.47637 0.0
C103 C 0.35164 0.58366 0.44551 0.0
N104 N 0.37418 0.57127 0.49046 0.0
C105 C 0.40287 0.5884 0.49928 0.0
N106 N 0.3979 0.61053 0.46116 0.0
N107 N 0.36589 0.60741 0.42665 0.0
C108 C 0.28076 0.64594 0.40269 0.0
O109 O 0.30582 0.65802 0.44146 0.0
O110 O 0.47806 0.6377 0.50794 0.0
Zn111 Zn 0.34972 0.627 0.34671 0.0
N112 N 0.39588 0.66163 0.54816 0.0
C113 C 0.35664 0.69767 0.58297 0.0
C114 C 0.37767 0.68472 0.53288 0.0
C115 C 0.39366 0.6508 0.61167 0.0
N116 N 0.35447 0.68695 0.64637 0.0
C117 C 0.37223 0.66374 0.66251 0.0
O118 O 0.37367 0.66327 0.33118 0.0
C119 C 0.40198 0.67727 0.34962 0.0
O120 O 0.42366 0.67025 0.39851 0.0
H121 H 0.37919 0.69305 0.48219 0.0
H122 H 0.40884 0.63256 0.62207 0.0
C123 C 0.35387 0.6142 0.2044 0.0
C124 C 0.36678 0.59997 0.14698 0.0
C125 C 0.39668 0.56891 0.22089 0.0
C126 C 0.38529 0.58372 0.27721 0.0
N127 N 0.36343 0.60573 0.26809 0.0
N128 N 0.38745 0.57745 0.15733 0.0
H129 H 0.33699 0.63204 0.19916 0.0
C130 C 0.505 0.63893 0.46472 0.0
O131 O 0.49671 0.64333 0.40024 0.0
O132 O 0.29268 0.63159 0.35371 0.0
H133 H 0.39444 0.57784 0.32758 0.0
H134 H 0.34206 0.71607 0.57159 0.0
H135 H 0.41364 0.55116 0.22747 0.0
Zn136 Zn 0.84969 0.91561 0.85148 0.0
C137 C 0.91016 0.94893 0.00241 0.0
N138 N 0.87848 0.96321 0.01247 0.0
C139 C 0.85363 0.95249 0.96864 0.0
N140 N 0.86936 0.93248 0.93256 0.0
N141 N 0.90448 0.92976 0.9555 0.0
C142 C 0.00535 0.88004 0.98978 0.0
O143 O 0.98985 0.85695 0.97592 0.0
O144 O 0.79253 0.91738 0.86135 0.0
Zn145 Zn 0.92896 0.89595 0.96579 0.0
N146 N 0.86817 0.93524 0.77158 0.0
C147 C 0.90276 0.97225 0.72875 0.0
C148 C 0.8879 0.95797 0.78334 0.0
C149 C 0.86384 0.92573 0.70674 0.0
N150 N 0.89837 0.96288 0.66437 0.0
C151 C 0.87962 0.93984 0.65107 0.0
O152 O 0.92317 0.87056 0.88556 0.0
C153 C 0.89577 0.86313 0.84743 0.0
O154 O 0.86607 0.87731 0.83877 0.0
H155 H 0.89203 0.9651 0.83482 0.0
H156 H 0.84839 0.90744 0.69911 0.0
C157 C 0.90624 0.88904 0.10856 0.0
C158 C 0.88916 0.87514 0.16334 0.0
C159 C 0.87215 0.84071 0.08625 0.0
C160 C 0.88898 0.85448 0.03268 0.0
N161 N 0.90571 0.87833 0.04447 0.0
N162 N 0.87269 0.85128 0.14984 0.0
H163 H 0.92038 0.90781 0.11653 0.0
C164 C 0.76653 0.90548 0.82847 0.0
O165 O 0.77571 0.8898 0.77749 0.0
O166 O 0.9847 0.90075 0.98753 0.0
H167 H 0.88882 0.84602 0.98211 0.0
H168 H 0.9181 0.99052 0.73748 0.0
H169 H 0.85882 0.82169 0.07746 0.0
Zn170 Zn 0.57666 0.14118 0.95365 0.0
C171 C 0.6525 0.08556 0.95675 0.0
N172 N 0.62761 0.07396 0.99897 0.0
C173 C 0.59549 0.08772 0.98815 0.0
N174 N 0.60101 0.10738 0.9423 0.0
N175 N 0.63649 0.10547 0.92084 0.0
C176 C 0.73883 0.13551 0.82558 0.0
O177 O 0.7286 0.15488 0.78449 0.0
O178 O 0.52106 0.13631 0.9763 0.0
Zn179 Zn 0.65638 0.12241 0.84015 0.0
N180 N 0.60045 0.15855 0.03221 0.0
C181 C 0.63477 0.19592 0.07337 0.0
C182 C 0.61756 0.18226 0.02009 0.0
C183 C 0.59991 0.14788 0.09642 0.0
N184 N 0.63419 0.18541 0.13708 0.0
C185 C 0.61733 0.1617 0.15095 0.0
O186 O 0.63978 0.16074 0.82768 0.0
C187 C 0.6098 0.17467 0.83601 0.0
O188 O 0.58228 0.16689 0.8735 0.0
H189 H 0.61773 0.19072 0.96949 0.0
H190 H 0.58551 0.12922 0.10468 0.0
C191 C 0.64249 0.11213 0.69534 0.0
C192 C 0.62677 0.09792 0.63983 0.0
C193 C 0.60345 0.06568 0.71794 0.0
C194 C 0.61826 0.08004 0.77235 0.0
N195 N 0.63803 0.10274 0.76034 0.0
N196 N 0.60796 0.07493 0.65343 0.0
H197 H 0.65799 0.13039 0.68749 0.0
C198 C 0.50032 0.15697 0.97925 0.0
O199 O 0.51561 0.18013 0.96539 0.0
O200 O 0.71361 0.12022 0.85018 0.0
H201 H 0.61395 0.07301 0.82389 0.0
H202 H 0.64841 0.21482 0.0643 0.0
H203 H 0.58804 0.04745 0.7269 0.0
Zn204 Zn 0.84856 0.62391 0.67474 0.0
C205 C 0.90657 0.58656 0.52689 0.0
N206 N 0.87607 0.5706 0.52758 0.0
C207 C 0.8525 0.58299 0.5706 0.0
N208 N 0.86773 0.60532 0.59619 0.0
N209 N 0.90163 0.60787 0.56786 0.0
C210 C 0.00983 0.64405 0.56698 0.0
O211 O 1.00161 0.65509 0.6259 0.0
O212 O 0.79112 0.62479 0.66581 0.0
Zn213 Zn 0.92754 0.64128 0.55663 0.0
N214 N 0.86504 0.6043 0.7555 0.0
C215 C 0.90026 0.56804 0.80142 0.0
C216 C 0.88667 0.58224 0.74557 0.0
C217 C 0.85778 0.61338 0.81978 0.0
N218 N 0.89307 0.57704 0.86531 0.0
C219 C 0.87257 0.59955 0.87673 0.0
O220 O 0.92409 0.66709 0.63687 0.0
C221 C 0.89738 0.67512 0.67583 0.0
O222 O 0.86747 0.66146 0.68596 0.0
H223 H 0.8938 0.57574 0.69467 0.0
H224 H 0.84104 0.63124 0.82594 0.0
C225 C 0.9009 0.64838 0.41748 0.0
C226 C 0.88209 0.66205 0.36422 0.0
C227 C 0.86753 0.69691 0.44163 0.0
C228 C 0.88613 0.68337 0.49379 0.0
N229 N 0.90245 0.6594 0.48101 0.0
N230 N 0.86603 0.68602 0.37845 0.0
H231 H 0.91472 0.6295 0.40885 0.0
C232 C 0.779 0.63567 0.61126 0.0
O233 O 0.80387 0.64598 0.5688 0.0
O234 O 0.98285 0.63575 0.52939 0.0
H235 H 0.88752 0.69207 0.54398 0.0
H236 H 0.91709 0.55029 0.79409 0.0
H237 H 0.85445 0.71599 0.45116 0.0
Zn238 Zn 0.65421 0.41456 0.65885 0.0
C239 C 0.59357 0.44966 0.5105 0.0
N240 N 0.62512 0.46396 0.50068 0.0
C241 C 0.6504 0.45288 0.5433 0.0
N242 N 0.63501 0.4324 0.57826 0.0
N243 N 0.59966 0.43002 0.5561 0.0
C244 C 0.49867 0.38129 0.5156 0.0
O245 O 0.5135 0.35801 0.53026 0.0
O246 O 0.71165 0.41281 0.65056 0.0
Zn247 Zn 0.57489 0.39636 0.54443 0.0
N248 N 0.63734 0.43467 0.73894 0.0
C249 C 0.60573 0.47278 0.78307 0.0
C250 C 0.61947 0.45826 0.72797 0.0
C251 C 0.64101 0.42463 0.80339 0.0
N252 N 0.60938 0.46284 0.84711 0.0
C253 C 0.62635 0.43901 0.85954 0.0
O254 O 0.57865 0.37046 0.62409 0.0
C255 C 0.6056 0.36286 0.6631 0.0
O256 O 0.63521 0.37692 0.67253 0.0
H257 H 0.61595 0.46587 0.67676 0.0
H258 H 0.65511 0.40574 0.81024 0.0
C259 C 0.59854 0.38961 0.40314 0.0
C260 C 0.61687 0.37631 0.34881 0.0
C261 C 0.6361 0.34251 0.42632 0.0
C262 C 0.61807 0.35573 0.47957 0.0
N263 N 0.59958 0.37896 0.46724 0.0
N264 N 0.63503 0.35302 0.3626 0.0
H265 H 0.58311 0.40792 0.39488 0.0
C266 C 0.72444 0.39768 0.60394 0.0
O267 O 0.70026 0.38366 0.56778 0.0
O268 O 0.51965 0.40175 0.51911 0.0
H269 H 0.61879 0.34739 0.5303 0.0
H270 H 0.59183 0.4917 0.77502 0.0
H271 H 0.65084 0.32399 0.43548 0.0
H272 H 0.44668 0.19612 0.97379 0.0
H273 H 0.28276 0.11142 0.15407 0.0
H274 H 0.46187 0.11417 0.03244 0.0
H275 H 0.26262 0.18464 0.04511 0.0
H276 H 0.34992 0.11364 0.12116 0.0
H277 H 0.38051 0.19369 0.01027 0.0
C278 C 0.43611 0.17758 0.99431 0.0
C279 C 0.45989 0.1553 0.99993 0.0
C280 C 0.33076 0.12922 0.10464 0.0
C281 C 0.38398 0.15245 0.04238 0.0
C282 C 0.29246 0.12804 0.12365 0.0
C283 C 0.26696 0.14785 0.10214 0.0
C284 C 0.34371 0.15053 0.0646 0.0
C285 C 0.28117 0.16889 0.0627 0.0
C286 C 0.39825 0.1762 0.01508 0.0
C287 C 0.44451 0.13181 0.02695 0.0
N288 N 0.31852 0.16968 0.04535 0.0
N289 N 0.40754 0.13102 0.04743 0.0
H290 H 0.22467 0.92477 0.15862 0.0
H291 H 0.05871 0.84076 0.98251 0.0
H292 H 0.24335 0.85142 0.04982 0.0
H293 H 0.04445 0.92257 0.04261 0.0
H294 H 0.12518 0.8429 0.01735 0.0
H295 H 0.15722 0.92274 0.12767 0.0
C296 C 0.21459 0.90815 0.12866 0.0
C297 C 0.23977 0.88826 0.10661 0.0
C298 C 0.10758 0.86042 0.02285 0.0
C299 C 0.16267 0.88581 0.07127 0.0
C300 C 0.06955 0.85921 0.00302 0.0
C301 C 0.04594 0.88153 0.00951 0.0
C302 C 0.1222 0.88405 0.05008 0.0
C303 C 0.06167 0.9049 0.03645 0.0
C304 C 0.17612 0.90708 0.11077 0.0
C305 C 0.22506 0.86723 0.06783 0.0
N306 N 0.09881 0.90553 0.056 0.0
N307 N 0.18755 0.86656 0.05151 0.0
H308 H 0.44457 0.3426 0.51995 0.0
H309 H 0.28227 0.42846 0.33681 0.0
H310 H 0.46104 0.42437 0.46123 0.0
H311 H 0.26131 0.35516 0.44458 0.0
H312 H 0.34927 0.42589 0.37101 0.0
H313 H 0.37868 0.34554 0.48215 0.0
C314 C 0.43434 0.36121 0.4991 0.0
C315 C 0.45841 0.38328 0.49387 0.0
C316 C 0.32995 0.41038 0.38698 0.0
C317 C 0.38277 0.38673 0.44992 0.0
C318 C 0.29176 0.41176 0.36725 0.0
C319 C 0.26606 0.39204 0.38808 0.0
C320 C 0.34261 0.38894 0.42699 0.0
C321 C 0.27999 0.37087 0.42751 0.0
C322 C 0.39663 0.36288 0.47758 0.0
C323 C 0.44345 0.40688 0.46643 0.0
N324 N 0.31724 0.36987 0.44554 0.0
N325 N 0.4066 0.40796 0.44522 0.0
H326 H 0.07244 0.66459 0.62991 0.0
H327 H 0.22091 0.61988 0.34158 0.0
H328 H 0.03852 0.62177 0.44907 0.0
H329 H 0.2476 0.67252 0.50859 0.0
H330 H 0.15466 0.61863 0.38062 0.0
H331 H 0.13755 0.66529 0.58797 0.0
C332 C 0.07867 0.65521 0.58142 0.0
C333 C 0.04982 0.64318 0.54291 0.0
C334 C 0.17502 0.63056 0.40839 0.0
C335 C 0.12477 0.64401 0.49416 0.0
C336 C 0.21281 0.63137 0.386 0.0
C337 C 0.23992 0.64639 0.42173 0.0
C338 C 0.1643 0.64477 0.4671 0.0
C339 C 0.22781 0.66069 0.47928 0.0
C340 C 0.11595 0.65572 0.5573 0.0
C341 C 0.05981 0.63135 0.48039 0.0
N342 N 0.19105 0.65944 0.5002 0.0
N343 N 0.09646 0.63207 0.45792 0.0
H344 H 0.73956 0.93278 0.93915 0.0
H345 H 0.52215 0.89108 0.88682 0.0
H346 H 0.70226 0.88343 0.77196 0.0
H347 H 0.56809 0.91873 0.07832 0.0
H348 H 0.58579 0.89396 0.8363 0.0
H349 H 0.6746 0.93386 0.98246 0.0
C350 C 0.7177 0.92227 0.91121 0.0
C351 C 0.72655 0.90777 0.85199 0.0
C352 C 0.58186 0.89944 0.88931 0.0
C353 C 0.65184 0.90902 0.90162 0.0
C354 C 0.54556 0.89788 0.91814 0.0
C355 C 0.53984 0.90448 0.98709 0.0
C356 C 0.61257 0.90801 0.92943 0.0
C357 C 0.57121 0.9132 0.02518 0.0
C358 C 0.68058 0.92285 0.9362 0.0
C359 C 0.69683 0.89471 0.81797 0.0
N360 N 0.60616 0.91474 0.99586 0.0
N361 N 0.66081 0.8956 0.84334 0.0
H362 H 0.80182 0.16247 0.77993 0.0
H363 H 0.93527 0.11153 0.08222 0.0
H364 H 0.76703 0.10291 0.92562 0.0
H365 H 0.9798 0.14975 0.90191 0.0
H366 H 0.87251 0.11021 0.02849 0.0
H367 H 0.86651 0.16006 0.82609 0.0
C368 C 0.80778 0.14877 0.82126 0.0
C369 C 0.77881 0.13296 0.84905 0.0
C370 C 0.89605 0.11877 1.00052 0.0
C371 C 0.85269 0.13033 0.9026 0.0
C372 C 0.93186 0.11962 0.03128 0.0
C373 C 0.96281 0.13088 0.99665 0.0
C374 C 0.89092 0.12963 0.93498 0.0
C375 C 0.95674 0.14088 0.93048 0.0
C376 C 0.84473 0.14738 0.84752 0.0
C377 C 0.78832 0.11553 0.90258 0.0
N378 N 0.92144 0.14025 0.90205 0.0
N379 N 0.82427 0.11488 0.92795 0.0
H380 H 0.71811 0.61767 0.68708 0.0
H381 H 0.56847 0.64574 0.38661 0.0
H382 H 0.74673 0.65241 0.49215 0.0
H383 H 0.5335 0.62675 0.59227 0.0
H384 H 0.63458 0.64387 0.42303 0.0
H385 H 0.65098 0.61696 0.6523 0.0
C386 C 0.71032 0.6252 0.63715 0.0
C387 C 0.73812 0.63528 0.59268 0.0
C388 C 0.61252 0.64009 0.46034 0.0
C389 C 0.66159 0.63427 0.5524 0.0
C390 C 0.57466 0.64108 0.43948 0.0
C391 C 0.54527 0.63657 0.4865 0.0
C392 C 0.62138 0.63441 0.5288 0.0
C393 C 0.55522 0.63053 0.55435 0.0
C394 C 0.67203 0.62478 0.61735 0.0
C395 C 0.72638 0.64461 0.52841 0.0
N396 N 0.59246 0.62965 0.57353 0.0
N397 N 0.68916 0.64383 0.51029 0.0
H398 H 0.78118 0.43209 0.64293 0.0
H399 H 0.94537 0.34639 0.46552 0.0
H400 H 0.76137 0.36031 0.52838 0.0
H401 H 0.96289 0.4275 0.5287 0.0
H402 H 0.87888 0.34998 0.49872 0.0
H403 H 0.84884 0.42959 0.61208 0.0
C404 C 0.79108 0.41573 0.61174 0.0
C405 C 0.76561 0.39632 0.58836 0.0
C406 C 0.89717 0.36705 0.50528 0.0
C407 C 0.84273 0.39337 0.55303 0.0
C408 C 0.93525 0.365 0.48643 0.0
C409 C 0.95982 0.38668 0.49424 0.0
C410 C 0.88333 0.39089 0.53288 0.0
C411 C 0.94492 0.4103 0.5216 0.0
C412 C 0.82961 0.41441 0.59386 0.0
C413 C 0.77991 0.37573 0.54753 0.0
N414 N 0.90764 0.41176 0.54022 0.0
N415 N 0.81742 0.37475 0.53146 0.0
H416 H 0.16186 0.33543 0.2675 0.0
H417 H 0.04116 0.20839 0.16544 0.0
H418 H 0.04249 0.33082 0.31707 0.0
H419 H 0.16012 0.20487 0.21873 0.0
H420 H 0.03942 0.25478 0.20456 0.0
H421 H 0.16006 0.28935 0.2297 0.0
C422 C 0.1351 0.32487 0.26969 0.0
C423 C 0.10225 0.33713 0.29561 0.0
C424 C 0.06574 0.24368 0.20804 0.0
C425 C 0.10014 0.28411 0.25223 0.0
C426 C 0.06679 0.21725 0.18581 0.0
C427 C 0.10082 0.20262 0.18899 0.0
C428 C 0.09915 0.25572 0.23197 0.0
C429 C 0.13317 0.21521 0.21569 0.0
C430 C 0.13422 0.29845 0.2486 0.0
C431 C 0.06851 0.32219 0.29758 0.0
N432 N 0.13163 0.24104 0.23534 0.0
N433 N 0.06826 0.29648 0.27593 0.0
H434 H 0.42999 0.72159 0.41167 0.0
H435 H 0.42541 0.81614 0.08836 0.0
H436 H 0.38483 0.69409 0.21947 0.0
H437 H 0.39141 0.84502 0.28659 0.0
H438 H 0.42767 0.77089 0.13473 0.0
H439 H 0.43296 0.76674 0.36494 0.0
C440 C 0.42125 0.72496 0.35929 0.0
C441 C 0.40715 0.70402 0.31931 0.0
C442 C 0.42006 0.78721 0.16804 0.0
C443 C 0.41103 0.75553 0.26563 0.0
C444 C 0.41907 0.81303 0.14194 0.0
C445 C 0.40832 0.8344 0.18382 0.0
C446 C 0.41128 0.78278 0.23696 0.0
C447 C 0.39983 0.82912 0.2526 0.0
C448 C 0.42271 0.75074 0.333 0.0
C449 C 0.39581 0.70965 0.25203 0.0
N450 N 0.40178 0.80384 0.27723 0.0
N451 N 0.39827 0.73485 0.22706 0.0
H452 H 0.83689 0.8346 0.79313 0.0
H453 H 0.95961 0.70792 0.68719 0.0
H454 H 0.95725 0.82967 0.83442 0.0
H455 H 0.83914 0.70481 0.72818 0.0
H456 H 0.96031 0.7541 0.72712 0.0
H457 H 0.83825 0.78878 0.75261 0.0
C458 C 0.86371 0.82401 0.7931 0.0
C459 C 0.89701 0.83608 0.81744 0.0
C460 C 0.93383 0.74318 0.72764 0.0
C461 C 0.89866 0.78346 0.77098 0.0
C462 C 0.93338 0.71685 0.70491 0.0
C463 C 0.89928 0.70237 0.70449 0.0
C464 C 0.89982 0.75529 0.74881 0.0
C465 C 0.86616 0.71505 0.72793 0.0
C466 C 0.86438 0.79776 0.77039 0.0
C467 C 0.93086 0.82118 0.81636 0.0
N468 N 0.86721 0.74078 0.74851 0.0
N469 N 0.93085 0.79568 0.79337 0.0
H470 H 0.66863 0.20394 0.78386 0.0
H471 H 0.54401 0.32956 0.67549 0.0
H472 H 0.54791 0.20777 0.82219 0.0
H473 H 0.6644 0.33381 0.71652 0.0
H474 H 0.54409 0.2835 0.71637 0.0
H475 H 0.6668 0.24987 0.74382 0.0
C476 C 0.64164 0.21431 0.78329 0.0
C477 C 0.60836 0.20188 0.80657 0.0
C478 C 0.57039 0.29463 0.71674 0.0
C479 C 0.60617 0.25465 0.76066 0.0
C480 C 0.57039 0.32091 0.69347 0.0
C481 C 0.60423 0.33569 0.69271 0.0
C482 C 0.60459 0.28284 0.73818 0.0
C483 C 0.63757 0.32334 0.7165 0.0
C484 C 0.6407 0.24063 0.76087 0.0
C485 C 0.57429 0.21652 0.80491 0.0
N486 N 0.63695 0.29762 0.73763 0.0
N487 N 0.57404 0.24209 0.78217 0.0
H488 H 0.36336 1.00174 0.13415 0.0
H489 H 0.1427 0.03535 0.1347 0.0
H490 H 0.27652 0.94626 0.07491 0.0
H491 H 0.22939 0.09041 0.07197 0.0
H492 H 0.19205 1.00309 0.16477 0.0
H493 H 0.31407 0.03408 0.16377 0.0
C494 C 0.33378 0.99595 0.13051 0.0
C495 C 0.32374 0.97113 0.10365 0.0
C496 C 0.20025 0.02263 0.14701 0.0
C497 C 0.26764 1.00801 0.13618 0.0
C498 C 0.17228 0.04107 0.13027 0.0
C499 C 0.18225 0.0658 0.10259 0.0
C500 C 0.23842 0.02898 0.13569 0.0
C501 C 0.22074 0.07204 0.09583 0.0
C502 C 0.30583 1.01444 0.14694 0.0
C503 C 0.28524 0.96476 0.098 0.0
N504 N 0.24759 0.05358 0.1117 0.0
N505 N 0.25842 0.98326 0.11346 0.0
H506 H 0.2284 0.44671 0.42859 0.0
H507 H 0.27534 0.59322 0.44152 0.0
H508 H 0.14479 0.50367 0.3623 0.0
H509 H 0.36152 0.53804 0.37657 0.0
H510 H 0.22646 0.5616 0.40615 0.0
H511 H 0.27853 0.47893 0.40311 0.0
C512 C 0.22085 0.46541 0.40495 0.0
C513 C 0.18276 0.47224 0.39495 0.0
C514 C 0.25606 0.55684 0.39705 0.0
C515 C 0.23914 0.5098 0.37089 0.0
C516 C 0.28384 0.57515 0.41606 0.0
C517 C 0.32225 0.56867 0.40912 0.0
C518 C 0.2671 0.53152 0.3741 0.0
C519 C 0.33202 0.54392 0.38123 0.0
C520 C 0.2493 0.48399 0.39147 0.0
C521 C 0.17406 0.49753 0.36913 0.0
N522 N 0.30463 0.52599 0.36595 0.0
N523 N 0.20197 0.51563 0.35926 0.0
H524 H 0.70572 0.07773 0.0518 0.0
H525 H 0.82155 0.96849 0.846 0.0
H526 H 0.68169 0.06353 0.83928 0.0
H527 H 0.80484 0.96902 0.06397 0.0
H528 H 0.77568 1.00502 0.83516 0.0
H529 H 0.75354 0.04276 0.0489 0.0
C530 C 0.71157 0.06783 0.00377 0.0
C531 C 0.68984 0.07345 0.94574 0.0
C532 C 0.78166 0.99674 0.8851 0.0
C533 C 0.74286 0.03244 0.94275 0.0
C534 C 0.80745 0.97567 0.89122 0.0
C535 C 0.8172 0.9659 0.95605 0.0
C536 C 0.76631 1.00811 0.94447 0.0
C537 C 0.79812 0.97605 0.01305 0.0
C538 C 0.73823 0.04751 0.00244 0.0
C539 C 0.69795 0.05982 0.88499 0.0
N540 N 0.7741 0.99687 0.00609 0.0
N541 N 0.72358 0.03953 0.88516 0.0
H542 H 0.6884 0.46042 0.66669 0.0
H543 H 0.78397 0.58877 0.51215 0.0
H544 H 0.69238 0.47917 0.45186 0.0
H545 H 0.84343 0.54586 0.66988 0.0
H546 H 0.73405 0.55503 0.51435 0.0
H547 H 0.7349 0.49565 0.68835 0.0
C548 C 0.69964 0.47132 0.62397 0.0
C549 C 0.68625 0.4669 0.55743 0.0
C550 C 0.75747 0.55353 0.55009 0.0
C551 C 0.73732 0.50795 0.58228 0.0
C552 C 0.78543 0.573 0.54978 0.0
C553 C 0.81716 0.57039 0.59218 0.0
C554 C 0.76168 0.53125 0.59259 0.0
C555 C 0.81873 0.54899 0.63807 0.0
C556 C 0.72572 0.49169 0.63655 0.0
C557 C 0.70171 0.48202 0.50409 0.0
N558 N 0.79149 0.52993 0.63665 0.0
N559 N 0.72581 0.5022 0.51777 0.0
H560 H 0.08166 0.06097 0.89685 0.0
H561 H 0.93289 0.97615 0.11409 0.0
H562 H 0.04066 0.08335 0.09581 0.0
H563 H 0.96746 0.95502 0.91003 0.0
H564 H 0.97544 1.01431 0.11005 0.0
H565 H 0.0375 0.0235 0.89664 0.0
C566 C 0.06177 0.05885 0.93876 0.0
C567 C 0.06432 0.0755 0.99593 0.0
C568 C 0.97431 1.0011 0.06652 0.0
C569 C 0.01562 0.03186 0.99822 0.0
C570 C 0.95075 0.97893 0.06955 0.0
C571 C 0.9467 0.96245 0.0124 0.0
C572 C 0.99392 1.00681 0.00578 0.0
C573 C 0.97 0.96712 0.95548 0.0
C574 C 0.03733 0.03705 0.93952 0.0
C575 C 0.03884 0.07145 0.04993 0.0
N576 N 0.99215 0.9892 0.95308 0.0
N577 N 0.0161 0.04971 0.05042 0.0
H578 H 0.53706 0.08323 0.89684 0.0
H579 H 0.46685 0.95087 0.08315 0.0
H580 H 0.5743 0.0578 0.0963 0.0
H581 H 0.4189 0.97864 0.8937 0.0
H582 H 0.51259 0.98704 0.0798 0.0
H583 H 0.49391 0.04519 0.89231 0.0
C584 C 0.53493 0.07032 0.94096 0.0
C585 C 0.55923 0.07364 0.99715 0.0
C586 C 0.49276 0.9849 0.03787 0.0
C587 C 0.51161 0.02941 0.99076 0.0
C588 C 0.46749 0.96362 0.03857 0.0
C589 C 0.43949 0.96149 0.988 0.0
C590 C 0.4897 1.00432 0.98651 0.0
C591 C 0.44043 0.97946 0.93319 0.0
C592 C 0.51101 0.04822 0.93762 0.0
C593 C 0.55593 0.05594 0.05216 0.0
N594 N 0.46458 1.00048 0.93453 0.0
N595 N 0.53311 0.03436 0.04714 0.0
H596 H 0.03515 0.45321 0.40556 0.0
H597 H 0.97041 0.58417 0.60497 0.0
H598 H 0.08496 0.47841 0.5957 0.0
H599 H 0.92355 0.55947 0.41196 0.0
H600 H 0.01482 0.54679 0.6006 0.0
H601 H 0.99031 0.49015 0.41218 0.0
C602 C 0.03528 0.46567 0.45064 0.0
C603 C 0.06365 0.46274 0.50035 0.0
C604 C 0.99539 0.54986 0.55842 0.0
C605 C 0.01423 0.50604 0.5061 0.0
C606 C 0.9708 0.57167 0.55997 0.0
C607 C 0.94338 0.57486 0.50864 0.0
C608 C 0.99233 0.53125 0.50518 0.0
C609 C 0.94444 0.55767 0.45238 0.0
C610 C 0.01046 0.48729 0.45337 0.0
C611 C 0.06329 0.47998 0.55658 0.0
N612 N 0.96794 0.53628 0.45273 0.0
N613 N 0.03954 0.50126 0.55729 0.0
H614 H 0.46709 0.58829 0.42331 0.0
H615 H 0.53567 0.45385 0.60284 0.0
H616 H 0.41978 0.55974 0.61244 0.0
H617 H 0.57112 0.47931 0.40249 0.0
H618 H 0.49316 0.49227 0.60934 0.0
H619 H 0.51165 0.55115 0.42347 0.0
C620 C 0.46756 0.57506 0.46699 0.0
C621 C 0.43992 0.57717 0.51823 0.0
C622 C 0.50968 0.48917 0.56337 0.0
C623 C 0.48894 0.53356 0.51641 0.0
C624 C 0.53321 0.46683 0.55889 0.0
C625 C 0.55695 0.46344 0.50197 0.0
C626 C 0.5101 0.50814 0.51061 0.0
C627 C 0.55319 0.48123 0.4472 0.0
C628 C 0.49217 0.55331 0.46593 0.0
C629 C 0.44092 0.55886 0.57229 0.0
N630 N 0.53084 0.50308 0.45336 0.0
N631 N 0.46444 0.53746 0.5693 0.0
H632 H 0.13145 0.11038 0.80576 0.0
H633 H 0.14899 0.15108 0.41213 0.0
H634 H 0.15046 0.1907 0.73649 0.0
H635 H 0.13827 0.07013 0.48258 0.0
H636 H 0.15239 0.16575 0.53046 0.0
H637 H 0.13528 0.09522 0.68776 0.0
C638 C 0.13602 0.12492 0.76587 0.0
C639 C 0.13993 0.15201 0.78124 0.0
C640 C 0.14969 0.14474 0.51996 0.0
C641 C 0.14514 0.13457 0.6457 0.0
C642 C 0.14814 0.13626 0.4521 0.0
C643 C 0.14359 0.10919 0.43685 0.0
C644 C 0.1464 0.12612 0.57312 0.0
C645 C 0.14158 0.09119 0.49163 0.0
C646 C 0.13861 0.11617 0.69838 0.0
C647 C 0.14714 0.16966 0.72718 0.0
N648 N 0.1428 0.09997 0.55715 0.0
N649 N 0.14928 0.16067 0.66188 0.0
H650 H 0.36577 0.97066 0.47621 0.0
H651 H 0.34466 0.84778 0.73209 0.0
H652 H 0.35427 0.8892 0.41067 0.0
H653 H 0.36954 0.92772 0.79767 0.0
H654 H 0.34096 0.86351 0.61443 0.0
H655 H 0.36023 0.95601 0.59463 0.0
C656 C 0.36165 0.94973 0.48652 0.0
C657 C 0.36027 0.93123 0.43297 0.0
C658 C 0.34727 0.8776 0.65457 0.0
C659 C 0.35414 0.91431 0.56873 0.0
C660 C 0.34931 0.86866 0.72185 0.0
C661 C 0.35816 0.88631 0.77492 0.0
C662 C 0.35386 0.90447 0.64006 0.0
C663 C 0.36374 0.91317 0.75846 0.0
C664 C 0.35852 0.9414 0.55422 0.0
C665 C 0.35477 0.90437 0.44965 0.0
N666 N 0.36161 0.9214 0.69243 0.0
N667 N 0.35212 0.89674 0.51605 0.0
H668 H 0.13743 0.38802 0.079 0.0
H669 H 0.12178 0.42744 0.68353 0.0
H670 H 0.13399 0.46897 0.00613 0.0
H671 H 0.12624 0.34663 0.75736 0.0
H672 H 0.12772 0.44307 0.80091 0.0
H673 H 0.13642 0.37264 0.96113 0.0
C674 C 0.13724 0.40265 0.0385 0.0
C675 C 0.13615 0.42995 0.05299 0.0
C676 C 0.12731 0.42191 0.79135 0.0
C677 C 0.13389 0.41226 0.91725 0.0
C678 C 0.12351 0.41291 0.72417 0.0
C679 C 0.1229 0.38556 0.71015 0.0
C680 C 0.13061 0.4035 0.84505 0.0
C681 C 0.12653 0.36788 0.7654 0.0
C682 C 0.13622 0.39378 0.97093 0.0
C683 C 0.13475 0.44775 0.99765 0.0
N684 N 0.1301 0.37713 0.83021 0.0
N685 N 0.13354 0.43862 0.93241 0.0
H686 H 0.37534 0.61158 0.70733 0.0
H687 H 0.35665 0.65146 0.10073 0.0
H688 H 0.36013 0.69201 0.77877 0.0
H689 H 0.36561 0.57041 0.03043 0.0
H690 H 0.3543 0.6663 0.9827 0.0
H691 H 0.36987 0.5959 0.82485 0.0
C692 C 0.37129 0.62602 0.74759 0.0
C693 C 0.3689 0.65328 0.73306 0.0
C694 C 0.35634 0.64523 0.99307 0.0
C695 C 0.36175 0.6353 0.86773 0.0
C696 C 0.35724 0.63665 0.0608 0.0
C697 C 0.36098 0.60951 0.07599 0.0
C698 C 0.35955 0.62664 0.93997 0.0
C699 C 0.36286 0.59152 0.02129 0.0
C700 C 0.36774 0.61698 0.81473 0.0
C701 C 0.36228 0.67084 0.78744 0.0
N702 N 0.36233 0.6004 0.95578 0.0
N703 N 0.35915 0.66157 0.85229 0.0
H704 H 0.88208 0.84583 0.27975 0.0
H705 H 0.88393 0.96979 0.53504 0.0
H706 H 0.89384 0.92705 0.21215 0.0
H707 H 0.87245 0.88839 0.60117 0.0
H708 H 0.88641 0.95467 0.41682 0.0
H709 H 0.87776 0.86129 0.39718 0.0
C710 C 0.88389 0.86695 0.28935 0.0
C711 C 0.88863 0.88505 0.23523 0.0
C712 C 0.88309 0.94013 0.45713 0.0
C713 C 0.88354 0.90298 0.37097 0.0
C714 C 0.88164 0.94873 0.52491 0.0
C715 C 0.87769 0.93044 0.57883 0.0
C716 C 0.8808 0.91293 0.44254 0.0
C717 C 0.8748 0.9034 0.5619 0.0
C718 C 0.88142 0.87575 0.35677 0.0
C719 C 0.89091 0.91218 0.25166 0.0
N720 N 0.87655 0.89552 0.49541 0.0
N721 N 0.88828 0.92027 0.31794 0.0
H722 H 0.62244 0.06775 0.52438 0.0
H723 H 0.62476 0.19119 0.26677 0.0
H724 H 0.63417 0.14926 0.58894 0.0
H725 H 0.61215 0.10991 0.20067 0.0
H726 H 0.62909 0.17594 0.38445 0.0
H727 H 0.61994 0.08263 0.40588 0.0
C728 C 0.62478 0.08879 0.51384 0.0
C729 C 0.62879 0.10718 0.56741 0.0
C730 C 0.62524 0.16141 0.34432 0.0
C731 C 0.62567 0.12441 0.43079 0.0
C732 C 0.62276 0.17009 0.27676 0.0
C733 C 0.6178 0.15191 0.22299 0.0
C734 C 0.62291 0.13423 0.35904 0.0
C735 C 0.61527 0.12483 0.23992 0.0
C736 C 0.62332 0.09725 0.44591 0.0
C737 C 0.63177 0.13418 0.54996 0.0
N738 N 0.61792 0.11685 0.30635 0.0
N739 N 0.63 0.14193 0.48332 0.0
H740 H 0.86261 0.65098 0.9243 0.0
H741 H 0.88507 0.60985 0.3179 0.0
H742 H 0.87481 0.56993 0.99336 0.0
H743 H 0.8722 0.69069 0.24746 0.0
H744 H 0.87971 0.59468 0.19991 0.0
H745 H 0.86271 0.66556 0.04295 0.0
C746 C 0.86454 0.63613 0.96413 0.0
C747 C 0.86844 0.60906 0.94832 0.0
C748 C 0.87813 0.61574 0.21038 0.0
C749 C 0.86963 0.62587 0.08494 0.0
C750 C 0.88159 0.6245 0.27791 0.0
C751 C 0.87963 0.65173 0.29309 0.0
C752 C 0.87261 0.63428 0.15752 0.0
C753 C 0.87389 0.66952 0.2386 0.0
C754 C 0.86503 0.64455 0.03214 0.0
C755 C 0.87191 0.591 0.00283 0.0
N756 N 0.8707 0.66052 0.1735 0.0
N757 N 0.87257 0.59971 0.06849 0.0
H758 H 0.6106 0.42823 0.30141 0.0
H759 H 0.63148 0.38706 0.90741 0.0
H760 H 0.62474 0.34746 0.23199 0.0
H761 H 0.62277 0.46824 0.9767 0.0
H762 H 0.62941 0.37229 0.02597 0.0
H763 H 0.61383 0.44324 0.18283 0.0
C764 C 0.61386 0.41356 0.2615 0.0
C765 C 0.61702 0.38641 0.27719 0.0
C766 C 0.6282 0.39336 0.0152 0.0
C767 C 0.62153 0.40366 0.14085 0.0
C768 C 0.62978 0.40189 0.9472 0.0
C769 C 0.62771 0.42908 0.93137 0.0
C770 C 0.62431 0.41205 0.06805 0.0
C771 C 0.62438 0.44709 0.98599 0.0
C772 C 0.61608 0.42221 0.19362 0.0
C773 C 0.62225 0.36857 0.22273 0.0
N774 N 0.62273 0.43828 0.0516 0.0
N775 N 0.62429 0.37748 0.15729 0.0
loop_
_geom_bond_atom_site_label_1
_geom_bond_atom_site_label_2
_geom_bond_distance
_geom_bond_site_symmetry_2
_ccdc_geom_bond_type
Zn0 N4 2.020 . S
Zn0 O8 2.019 . S
Zn0 N10 2.119 . S
Zn0 O18 1.975 . S
C1 N2 1.334 . S
C1 N5 1.336 . S
N2 C1 1.334 . S
N2 C3 1.334 . S
C3 N2 1.334 . S
C3 N4 1.336 . S
N4 Zn0 2.020 . S
N4 C3 1.336 . S
N4 N5 1.354 . S
N5 C1 1.336 . S
N5 N4 1.354 . S
N5 Zn9 2.020 . S
C6 O7 1.244 . S
C6 O30 1.257 . S
O7 C6 1.244 . S
O8 Zn0 2.019 . S
O8 C28 1.257 . S
Zn9 N5 2.020 . S
Zn9 O16 1.975 . S
Zn9 N25 2.119 1_554 S
Zn9 O30 2.019 . S
N10 Zn0 2.119 . S
N10 C12 1.334 . S
N10 C13 1.328 . S
C11 C12 1.391 . S
C11 N14 1.329 . S
C11 H32 0.930 . S
C12 N10 1.334 . S
C12 C11 1.391 . S
C12 H19 0.930 . S
C13 N10 1.328 . S
C13 C15 1.392 . S
C13 H20 0.930 . S
N14 C11 1.329 . S
N14 C15 1.331 . S
C15 C13 1.392 . S
C15 N14 1.331 . S
O16 Zn9 1.975 . S
O16 C17 1.252 . S
C17 O16 1.252 . S
C17 O18 1.252 . S
O18 Zn0 1.975 . S
O18 C17 1.252 . S
H19 C12 0.930 . S
H20 C13 0.930 . S
C21 C22 1.392 . S
C21 N25 1.328 . S
C21 H27 0.930 . S
C22 C21 1.392 . S
C22 N26 1.331 . S
C23 C24 1.391 . S
C23 N26 1.329 . S
C23 H33 0.930 . S
C24 C23 1.391 . S
C24 N25 1.334 . S
C24 H31 0.930 . S
N25 Zn9 2.119 1_556 S
N25 C21 1.328 . S
N25 C24 1.334 . S
N26 C22 1.331 . S
N26 C23 1.329 . S
H27 C21 0.930 . S
C28 O8 1.257 . S
C28 O29 1.244 . S
O29 C28 1.244 . S
O30 C6 1.257 . S
O30 Zn9 2.019 . S
H31 C24 0.930 . S
H32 C11 0.930 . S
H33 C23 0.930 . S
Zn34 N38 2.020 . S
Zn34 O42 2.019 . S
Zn34 N44 2.119 1_554 S
Zn34 O52 1.975 . S
C35 N36 1.334 . S
C35 N39 1.336 . S
N36 C35 1.334 . S
N36 C37 1.334 . S
C37 N36 1.334 . S
C37 N38 1.336 . S
N38 Zn34 2.020 . S
N38 C37 1.336 . S
N38 N39 1.354 . S
N39 C35 1.336 . S
N39 N38 1.354 . S
N39 Zn43 2.020 . S
C40 O41 1.244 . S
C40 O64 1.257 . S
O41 C40 1.244 . S
O42 Zn34 2.019 . S
O42 C62 1.257 . S
Zn43 N39 2.020 . S
Zn43 O50 1.975 . S
Zn43 N59 2.119 . S
Zn43 O64 2.019 . S
N44 Zn34 2.119 1_556 S
N44 C46 1.334 . S
N44 C47 1.328 . S
C45 C46 1.391 . S
C45 N48 1.329 . S
C45 H66 0.930 . S
C46 N44 1.334 . S
C46 C45 1.391 . S
C46 H53 0.930 . S
C47 N44 1.328 . S
C47 C49 1.392 . S
C47 H54 0.930 . S
N48 C45 1.329 . S
N48 C49 1.331 . S
C49 C47 1.392 . S
C49 N48 1.331 . S
O50 Zn43 1.975 . S
O50 C51 1.252 . S
C51 O50 1.252 . S
C51 O52 1.252 . S
O52 Zn34 1.975 . S
O52 C51 1.252 . S
H53 C46 0.930 . S
H54 C47 0.930 . S
C55 C56 1.392 . S
C55 N59 1.328 . S
C55 H61 0.930 . S
C56 C55 1.392 . S
C56 N60 1.331 . S
C57 C58 1.391 . S
C57 N60 1.329 . S
C57 H67 0.930 . S
C58 C57 1.391 . S
C58 N59 1.334 . S
C58 H65 0.930 . S
N59 Zn43 2.119 . S
N59 C55 1.328 . S
N59 C58 1.334 . S
N60 C56 1.331 . S
N60 C57 1.329 . S
H61 C55 0.930 . S
C62 O42 1.257 . S
C62 O63 1.244 . S
O63 C62 1.244 . S
O64 C40 1.257 . S
O64 Zn43 2.019 . S
H65 C58 0.930 . S
H66 C45 0.930 . S
H67 C57 0.930 . S
Zn68 N72 2.020 . S
Zn68 O76 2.019 . S
Zn68 N78 2.119 . S
Zn68 O86 1.975 . S
C69 N70 1.334 . S
C69 N73 1.336 . S
N70 C69 1.334 . S
N70 C71 1.334 . S
C71 N70 1.334 . S
C71 N72 1.336 . S
N72 Zn68 2.020 . S
N72 C71 1.336 . S
N72 N73 1.354 . S
N73 C69 1.336 . S
N73 N72 1.354 . S
N73 Zn77 2.020 . S
C74 O75 1.244 . S
C74 O98 1.257 . S
O75 C74 1.244 . S
O76 Zn68 2.019 . S
O76 C96 1.257 . S
Zn77 N73 2.020 . S
Zn77 O84 1.975 . S
Zn77 N93 2.119 . S
Zn77 O98 2.019 . S
N78 Zn68 2.119 . S
N78 C80 1.334 . S
N78 C81 1.328 . S
C79 C80 1.391 . S
C79 N82 1.329 . S
C79 H100 0.930 . S
C80 N78 1.334 . S
C80 C79 1.391 . S
C80 H87 0.930 . S
C81 N78 1.328 . S
C81 C83 1.392 . S
C81 H88 0.930 . S
N82 C79 1.329 . S
N82 C83 1.331 . S
C83 C81 1.392 . S
C83 N82 1.331 . S
O84 Zn77 1.975 . S
O84 C85 1.252 . S
C85 O84 1.252 . S
C85 O86 1.252 . S
O86 Zn68 1.975 . S
O86 C85 1.252 . S
H87 C80 0.930 . S
H88 C81 0.930 . S
C89 C90 1.392 . S
C89 N93 1.328 . S
C89 H95 0.930 . S
C90 C89 1.392 . S
C90 N94 1.331 . S
C91 C92 1.391 . S
C91 N94 1.329 . S
C91 H101 0.930 . S
C92 C91 1.391 . S
C92 N93 1.334 . S
C92 H99 0.930 . S
N93 Zn77 2.119 . S
N93 C89 1.328 . S
N93 C92 1.334 . S
N94 C90 1.331 . S
N94 C91 1.329 . S
H95 C89 0.930 . S
C96 O76 1.257 . S
C96 O97 1.244 . S
O97 C96 1.244 . S
O98 C74 1.257 . S
O98 Zn77 2.019 . S
H99 C92 0.930 . S
H100 C79 0.930 . S
H101 C91 0.930 . S
Zn102 N106 2.020 . S
Zn102 O110 2.019 . S
Zn102 N112 2.119 . S
Zn102 O120 1.975 . S
C103 N104 1.334 . S
C103 N107 1.336 . S
N104 C103 1.334 . S
N104 C105 1.334 . S
C105 N104 1.334 . S
C105 N106 1.336 . S
N106 Zn102 2.020 . S
N106 C105 1.336 . S
N106 N107 1.354 . S
N107 C103 1.336 . S
N107 N106 1.354 . S
N107 Zn111 2.020 . S
C108 O109 1.244 . S
C108 O132 1.257 . S
O109 C108 1.244 . S
O110 Zn102 2.019 . S
O110 C130 1.257 . S
Zn111 N107 2.020 . S
Zn111 O118 1.975 . S
Zn111 N127 2.119 . S
Zn111 O132 2.019 . S
N112 Zn102 2.119 . S
N112 C114 1.334 . S
N112 C115 1.328 . S
C113 C114 1.391 . S
C113 N116 1.329 . S
C113 H134 0.930 . S
C114 N112 1.334 . S
C114 C113 1.391 . S
C114 H121 0.930 . S
C115 N112 1.328 . S
C115 C117 1.392 . S
C115 H122 0.930 . S
N116 C113 1.329 . S
N116 C117 1.331 . S
C117 C115 1.392 . S
C117 N116 1.331 . S
O118 Zn111 1.975 . S
O118 C119 1.252 . S
C119 O118 1.252 . S
C119 O120 1.252 . S
O120 Zn102 1.975 . S
O120 C119 1.252 . S
H121 C114 0.930 . S
H122 C115 0.930 . S
C123 C124 1.392 . S
C123 N127 1.328 . S
C123 H129 0.930 . S
C124 C123 1.392 . S
C124 N128 1.331 . S
C125 C126 1.391 . S
C125 N128 1.329 . S
C125 H135 0.930 . S
C126 C125 1.391 . S
C126 N127 1.334 . S
C126 H133 0.930 . S
N127 Zn111 2.119 . S
N127 C123 1.328 . S
N127 C126 1.334 . S
N128 C124 1.331 . S
N128 C125 1.329 . S
H129 C123 0.930 . S
C130 O110 1.257 . S
C130 O131 1.244 . S
O131 C130 1.244 . S
O132 C108 1.257 . S
O132 Zn111 2.019 . S
H133 C126 0.930 . S
H134 C113 0.930 . S
H135 C125 0.930 . S
Zn136 N140 2.020 . S
Zn136 O144 2.019 . S
Zn136 N146 2.119 . S
Zn136 O154 1.975 . S
C137 N138 1.334 . S
C137 N141 1.336 . S
N138 C137 1.334 . S
N138 C139 1.334 . S
C139 N138 1.334 . S
C139 N140 1.336 . S
N140 Zn136 2.020 . S
N140 C139 1.336 . S
N140 N141 1.354 . S
N141 C137 1.336 . S
N141 N140 1.354 . S
N141 Zn145 2.020 . S
C142 O143 1.244 . S
C142 O166 1.257 . S
O143 C142 1.244 . S
O144 Zn136 2.019 . S
O144 C164 1.257 . S
Zn145 N141 2.020 . S
Zn145 O152 1.975 . S
Zn145 N161 2.119 1_556 S
Zn145 O166 2.019 . S
N146 Zn136 2.119 . S
N146 C148 1.334 . S
N146 C149 1.328 . S
C147 C148 1.391 . S
C147 N150 1.329 . S
C147 H168 0.930 . S
C148 N146 1.334 . S
C148 C147 1.391 . S
C148 H155 0.930 . S
C149 N146 1.328 . S
C149 C151 1.392 . S
C149 H156 0.930 . S
N150 C147 1.329 . S
N150 C151 1.331 . S
C151 C149 1.392 . S
C151 N150 1.331 . S
O152 Zn145 1.975 . S
O152 C153 1.252 . S
C153 O152 1.252 . S
C153 O154 1.252 . S
O154 Zn136 1.975 . S
O154 C153 1.252 . S
H155 C148 0.930 . S
H156 C149 0.930 . S
C157 C158 1.392 . S
C157 N161 1.328 . S
C157 H163 0.930 . S
C158 C157 1.392 . S
C158 N162 1.331 . S
C159 C160 1.391 . S
C159 N162 1.329 . S
C159 H169 0.930 . S
C160 C159 1.391 . S
C160 N161 1.334 . S
C160 H167 0.930 . S
N161 Zn145 2.119 1_554 S
N161 C157 1.328 . S
N161 C160 1.334 . S
N162 C158 1.331 . S
N162 C159 1.329 . S
H163 C157 0.930 . S
C164 O144 1.257 . S
C164 O165 1.244 . S
O165 C164 1.244 . S
O166 C142 1.257 . S
O166 Zn145 2.019 . S
H167 C160 0.930 . S
H168 C147 0.930 . S
H169 C159 0.930 . S
Zn170 N174 2.020 . S
Zn170 O178 2.019 . S
Zn170 N180 2.119 1_556 S
Zn170 O188 1.975 . S
C171 N172 1.334 . S
C171 N175 1.336 . S
N172 C171 1.334 . S
N172 C173 1.334 . S
C173 N172 1.334 . S
C173 N174 1.336 . S
N174 Zn170 2.020 . S
N174 C173 1.336 . S
N174 N175 1.354 . S
N175 C171 1.336 . S
N175 N174 1.354 . S
N175 Zn179 2.020 . S
C176 O177 1.244 . S
C176 O200 1.257 . S
O177 C176 1.244 . S
O178 Zn170 2.019 . S
O178 C198 1.257 . S
Zn179 N175 2.020 . S
Zn179 O186 1.975 . S
Zn179 N195 2.119 . S
Zn179 O200 2.019 . S
N180 Zn170 2.119 1_554 S
N180 C182 1.334 . S
N180 C183 1.328 . S
C181 C182 1.391 . S
C181 N184 1.329 . S
C181 H202 0.930 . S
C182 N180 1.334 . S
C182 C181 1.391 . S
C182 H189 0.930 . S
C183 N180 1.328 . S
C183 C185 1.392 . S
C183 H190 0.930 . S
N184 C181 1.329 . S
N184 C185 1.331 . S
C185 C183 1.392 . S
C185 N184 1.331 . S
O186 Zn179 1.975 . S
O186 C187 1.252 . S
C187 O186 1.252 . S
C187 O188 1.252 . S
O188 Zn170 1.975 . S
O188 C187 1.252 . S
H189 C182 0.930 . S
H190 C183 0.930 . S
C191 C192 1.392 . S
C191 N195 1.328 . S
C191 H197 0.930 . S
C192 C191 1.392 . S
C192 N196 1.331 . S
C193 C194 1.391 . S
C193 N196 1.329 . S
C193 H203 0.930 . S
C194 C193 1.391 . S
C194 N195 1.334 . S
C194 H201 0.930 . S
N195 Zn179 2.119 . S
N195 C191 1.328 . S
N195 C194 1.334 . S
N196 C192 1.331 . S
N196 C193 1.329 . S
H197 C191 0.930 . S
C198 O178 1.257 . S
C198 O199 1.244 . S
O199 C198 1.244 . S
O200 C176 1.257 . S
O200 Zn179 2.019 . S
H201 C194 0.930 . S
H202 C181 0.930 . S
H203 C193 0.930 . S
Zn204 N208 2.020 . S
Zn204 O212 2.019 . S
Zn204 N214 2.119 . S
Zn204 O222 1.975 . S
C205 N206 1.334 . S
C205 N209 1.336 . S
N206 C205 1.334 . S
N206 C207 1.334 . S
C207 N206 1.334 . S
C207 N208 1.336 . S
N208 Zn204 2.020 . S
N208 C207 1.336 . S
N208 N209 1.354 . S
N209 C205 1.336 . S
N209 N208 1.354 . S
N209 Zn213 2.020 . S
C210 O211 1.244 . S
C210 O234 1.257 . S
O211 C210 1.244 . S
O212 Zn204 2.019 . S
O212 C232 1.257 . S
Zn213 N209 2.020 . S
Zn213 O220 1.975 . S
Zn213 N229 2.119 . S
Zn213 O234 2.019 . S
N214 Zn204 2.119 . S
N214 C216 1.334 . S
N214 C217 1.328 . S
C215 C216 1.391 . S
C215 N218 1.329 . S
C215 H236 0.930 . S
C216 N214 1.334 . S
C216 C215 1.391 . S
C216 H223 0.930 . S
C217 N214 1.328 . S
C217 C219 1.392 . S
C217 H224 0.930 . S
N218 C215 1.329 . S
N218 C219 1.331 . S
C219 C217 1.392 . S
C219 N218 1.331 . S
O220 Zn213 1.975 . S
O220 C221 1.252 . S
C221 O220 1.252 . S
C221 O222 1.252 . S
O222 Zn204 1.975 . S
O222 C221 1.252 . S
H223 C216 0.930 . S
H224 C217 0.930 . S
C225 C226 1.392 . S
C225 N229 1.328 . S
C225 H231 0.930 . S
C226 C225 1.392 . S
C226 N230 1.331 . S
C227 C228 1.391 . S
C227 N230 1.329 . S
C227 H237 0.930 . S
C228 C227 1.391 . S
C228 N229 1.334 . S
C228 H235 0.930 . S
N229 Zn213 2.119 . S
N229 C225 1.328 . S
N229 C228 1.334 . S
N230 C226 1.331 . S
N230 C227 1.329 . S
H231 C225 0.930 . S
C232 O212 1.257 . S
C232 O233 1.244 . S
O233 C232 1.244 . S
O234 C210 1.257 . S
O234 Zn213 2.019 . S
H235 C228 0.930 . S
H236 C215 0.930 . S
H237 C227 0.930 . S
Zn238 N242 2.020 . S
Zn238 O246 2.019 . S
Zn238 N248 2.119 . S
Zn238 O256 1.975 . S
C239 N240 1.334 . S
C239 N243 1.336 . S
N240 C239 1.334 . S
N240 C241 1.334 . S
C241 N240 1.334 . S
C241 N242 1.336 . S
N242 Zn238 2.020 . S
N242 C241 1.336 . S
N242 N243 1.354 . S
N243 C239 1.336 . S
N243 N242 1.354 . S
N243 Zn247 2.020 . S
C244 O245 1.244 . S
C244 O268 1.257 . S
O245 C244 1.244 . S
O246 Zn238 2.019 . S
O246 C266 1.257 . S
Zn247 N243 2.020 . S
Zn247 O254 1.975 . S
Zn247 N263 2.119 . S
Zn247 O268 2.019 . S
N248 Zn238 2.119 . S
N248 C250 1.334 . S
N248 C251 1.328 . S
C249 C250 1.391 . S
C249 N252 1.329 . S
C249 H270 0.930 . S
C250 N248 1.334 . S
C250 C249 1.391 . S
C250 H257 0.930 . S
C251 N248 1.328 . S
C251 C253 1.392 . S
C251 H258 0.930 . S
N252 C249 1.329 . S
N252 C253 1.331 . S
C253 C251 1.392 . S
C253 N252 1.331 . S
O254 Zn247 1.975 . S
O254 C255 1.252 . S
C255 O254 1.252 . S
C255 O256 1.252 . S
O256 Zn238 1.975 . S
O256 C255 1.252 . S
H257 C250 0.930 . S
H258 C251 0.930 . S
C259 C260 1.392 . S
C259 N263 1.328 . S
C259 H265 0.930 . S
C260 C259 1.392 . S
C260 N264 1.331 . S
C261 C262 1.391 . S
C261 N264 1.329 . S
C261 H271 0.930 . S
C262 C261 1.391 . S
C262 N263 1.334 . S
C262 H269 0.930 . S
N263 Zn247 2.119 . S
N263 C259 1.328 . S
N263 C262 1.334 . S
N264 C260 1.331 . S
N264 C261 1.329 . S
H265 C259 0.930 . S
C266 O246 1.257 . S
C266 O267 1.244 . S
O267 C266 1.244 . S
O268 C244 1.257 . S
O268 Zn247 2.019 . S
H269 C262 0.930 . S
H270 C249 0.930 . S
H271 C261 0.930 . S
H272 C278 0.930 . S
H273 C282 0.930 . S
H274 C287 0.929 . S
H275 C285 0.929 . S
H276 C280 0.929 . S
H277 C286 0.929 . S
C278 H272 0.930 . S
C278 C279 1.367 . S
C278 C286 1.378 1_556 S
C279 C278 1.367 . S
C279 C287 1.433 . S
C280 H276 0.929 . S
C280 C282 1.378 . S
C280 C284 1.350 . S
C281 C284 1.463 . S
C281 C286 1.350 . S
C281 N289 1.427 . S
C282 H273 0.930 . S
C282 C280 1.378 . S
C282 C283 1.367 . S
C283 C282 1.367 . S
C283 C285 1.433 . S
C284 C280 1.350 . S
C284 C281 1.463 . S
C284 N288 1.427 . S
C285 H275 0.929 . S
C285 C283 1.433 . S
C285 N288 1.384 . S
C286 H277 0.929 . S
C286 C278 1.378 1_554 S
C286 C281 1.350 . S
C287 H274 0.929 . S
C287 C279 1.433 . S
C287 N289 1.384 1_556 S
N288 C284 1.427 . S
N288 C285 1.384 . S
N289 C281 1.427 . S
N289 C287 1.384 1_554 S
H290 C296 0.930 . S
H291 C300 0.930 . S
H292 C305 0.929 . S
H293 C303 0.929 . S
H294 C298 0.929 . S
H295 C304 0.929 . S
C296 H290 0.930 . S
C296 C297 1.367 . S
C296 C304 1.378 . S
C297 C296 1.367 . S
C297 C305 1.433 . S
C298 H294 0.929 . S
C298 C300 1.378 . S
C298 C302 1.350 1_556 S
C299 C302 1.463 . S
C299 C304 1.350 . S
C299 N307 1.427 . S
C300 H291 0.930 . S
C300 C298 1.378 . S
C300 C301 1.367 . S
C301 C300 1.367 . S
C301 C303 1.433 . S
C302 C298 1.350 1_554 S
C302 C299 1.463 . S
C302 N306 1.427 . S
C303 H293 0.929 . S
C303 C301 1.433 . S
C303 N306 1.384 1_556 S
C304 H295 0.929 . S
C304 C296 1.378 . S
C304 C299 1.350 . S
C305 H292 0.929 . S
C305 C297 1.433 . S
C305 N307 1.384 . S
N306 C302 1.427 . S
N306 C303 1.384 1_554 S
N307 C299 1.427 . S
N307 C305 1.384 . S
H308 C314 0.930 . S
H309 C318 0.930 . S
H310 C323 0.929 . S
H311 C321 0.929 . S
H312 C316 0.929 . S
H313 C322 0.929 . S
C314 H308 0.930 . S
C314 C315 1.367 . S
C314 C322 1.378 . S
C315 C314 1.367 . S
C315 C323 1.433 . S
C316 H312 0.929 . S
C316 C318 1.378 . S
C316 C320 1.350 . S
C317 C320 1.463 . S
C317 C322 1.350 . S
C317 N325 1.427 . S
C318 H309 0.930 . S
C318 C316 1.378 . S
C318 C319 1.367 . S
C319 C318 1.367 . S
C319 C321 1.433 . S
C320 C316 1.350 . S
C320 C317 1.463 . S
C320 N324 1.427 . S
C321 H311 0.929 . S
C321 C319 1.433 . S
C321 N324 1.384 . S
C322 H313 0.929 . S
C322 C314 1.378 . S
C322 C317 1.350 . S
C323 H310 0.929 . S
C323 C315 1.433 . S
C323 N325 1.384 . S
N324 C320 1.427 . S
N324 C321 1.384 . S
N325 C317 1.427 . S
N325 C323 1.384 . S
H326 C332 0.930 . S
H327 C336 0.930 . S
H328 C341 0.929 . S
H329 C339 0.929 . S
H330 C334 0.929 . S
H331 C340 0.929 . S
C332 H326 0.930 . S
C332 C333 1.367 . S
C332 C340 1.378 . S
C333 C332 1.367 . S
C333 C341 1.433 . S
C334 H330 0.929 . S
C334 C336 1.378 . S
C334 C338 1.350 . S
C335 C338 1.463 . S
C335 C340 1.350 . S
C335 N343 1.427 . S
C336 H327 0.930 . S
C336 C334 1.378 . S
C336 C337 1.367 . S
C337 C336 1.367 . S
C337 C339 1.433 . S
C338 C334 1.350 . S
C338 C335 1.463 . S
C338 N342 1.427 . S
C339 H329 0.929 . S
C339 C337 1.433 . S
C339 N342 1.384 . S
C340 H331 0.929 . S
C340 C332 1.378 . S
C340 C335 1.350 . S
C341 H328 0.929 . S
C341 C333 1.433 . S
C341 N343 1.384 . S
N342 C338 1.427 . S
N342 C339 1.384 . S
N343 C335 1.427 . S
N343 C341 1.384 . S
H344 C350 0.930 . S
H345 C354 0.930 . S
H346 C359 0.929 . S
H347 C357 0.929 . S
H348 C352 0.929 . S
H349 C358 0.929 . S
C350 H344 0.930 . S
C350 C351 1.367 . S
C350 C358 1.378 . S
C351 C350 1.367 . S
C351 C359 1.433 . S
C352 H348 0.929 . S
C352 C354 1.378 . S
C352 C356 1.350 . S
C353 C356 1.463 . S
C353 C358 1.350 . S
C353 N361 1.427 . S
C354 H345 0.930 . S
C354 C352 1.378 . S
C354 C355 1.367 1_556 S
C355 C354 1.367 1_554 S
C355 C357 1.433 . S
C356 C352 1.350 . S
C356 C353 1.463 . S
C356 N360 1.427 1_556 S
C357 H347 0.929 . S
C357 C355 1.433 . S
C357 N360 1.384 . S
C358 H349 0.929 . S
C358 C350 1.378 . S
C358 C353 1.350 . S
C359 H346 0.929 . S
C359 C351 1.433 . S
C359 N361 1.384 . S
N360 C356 1.427 1_554 S
N360 C357 1.384 . S
N361 C353 1.427 . S
N361 C359 1.384 . S
H362 C368 0.930 . S
H363 C372 0.930 . S
H364 C377 0.929 . S
H365 C375 0.929 . S
H366 C370 0.929 . S
H367 C376 0.929 . S
C368 H362 0.930 . S
C368 C369 1.367 . S
C368 C376 1.378 . S
C369 C368 1.367 . S
C369 C377 1.433 . S
C370 H366 0.929 . S
C370 C372 1.378 . S
C370 C374 1.350 1_554 S
C371 C374 1.463 . S
C371 C376 1.350 . S
C371 N379 1.427 . S
C372 H363 0.930 . S
C372 C370 1.378 . S
C372 C373 1.367 . S
C373 C372 1.367 . S
C373 C375 1.433 1_554 S
C374 C370 1.350 1_556 S
C374 C371 1.463 . S
C374 N378 1.427 . S
C375 H365 0.929 . S
C375 C373 1.433 1_556 S
C375 N378 1.384 . S
C376 H367 0.929 . S
C376 C368 1.378 . S
C376 C371 1.350 . S
C377 H364 0.929 . S
C377 C369 1.433 . S
C377 N379 1.384 . S
N378 C374 1.427 . S
N378 C375 1.384 . S
N379 C371 1.427 . S
N379 C377 1.384 . S
H380 C386 0.930 . S
H381 C390 0.930 . S
H382 C395 0.929 . S
H383 C393 0.929 . S
H384 C388 0.929 . S
H385 C394 0.929 . S
C386 H380 0.930 . S
C386 C387 1.367 . S
C386 C394 1.378 . S
C387 C386 1.367 . S
C387 C395 1.433 . S
C388 H384 0.929 . S
C388 C390 1.378 . S
C388 C392 1.350 . S
C389 C392 1.463 . S
C389 C394 1.350 . S
C389 N397 1.427 . S
C390 H381 0.930 . S
C390 C388 1.378 . S
C390 C391 1.367 . S
C391 C390 1.367 . S
C391 C393 1.433 . S
C392 C388 1.350 . S
C392 C389 1.463 . S
C392 N396 1.427 . S
C393 H383 0.929 . S
C393 C391 1.433 . S
C393 N396 1.384 . S
C394 H385 0.929 . S
C394 C386 1.378 . S
C394 C389 1.350 . S
C395 H382 0.929 . S
C395 C387 1.433 . S
C395 N397 1.384 . S
N396 C392 1.427 . S
N396 C393 1.384 . S
N397 C389 1.427 . S
N397 C395 1.384 . S
H398 C404 0.930 . S
H399 C408 0.930 . S
H400 C413 0.929 . S
H401 C411 0.929 . S
H402 C406 0.929 . S
H403 C412 0.929 . S
C404 H398 0.930 . S
C404 C405 1.367 . S
C404 C412 1.378 . S
C405 C404 1.367 . S
C405 C413 1.433 . S
C406 H402 0.929 . S
C406 C408 1.378 . S
C406 C410 1.350 . S
C407 C410 1.463 . S
C407 C412 1.350 . S
C407 N415 1.427 . S
C408 H399 0.930 . S
C408 C406 1.378 . S
C408 C409 1.367 . S
C409 C408 1.367 . S
C409 C411 1.433 . S
C410 C406 1.350 . S
C410 C407 1.463 . S
C410 N414 1.427 . S
C411 H401 0.929 . S
C411 C409 1.433 . S
C411 N414 1.384 . S
C412 H403 0.929 . S
C412 C404 1.378 . S
C412 C407 1.350 . S
C413 H400 0.929 . S
C413 C405 1.433 . S
C413 N415 1.384 . S
N414 C410 1.427 . S
N414 C411 1.384 . S
N415 C407 1.427 . S
N415 C413 1.384 . S
H416 C422 0.930 . S
H417 C426 0.930 . S
H418 C431 0.929 . S
H419 C429 0.929 . S
H420 C424 0.929 . S
H421 C430 0.929 . S
C422 H416 0.930 . S
C422 C423 1.367 . S
C422 C430 1.378 . S
C423 C422 1.367 . S
C423 C431 1.433 . S
C424 H420 0.929 . S
C424 C426 1.378 . S
C424 C428 1.350 . S
C425 C428 1.463 . S
C425 C430 1.350 . S
C425 N433 1.427 . S
C426 H417 0.930 . S
C426 C424 1.378 . S
C426 C427 1.367 . S
C427 C426 1.367 . S
C427 C429 1.433 . S
C428 C424 1.350 . S
C428 C425 1.463 . S
C428 N432 1.427 . S
C429 H419 0.929 . S
C429 C427 1.433 . S
C429 N432 1.384 . S
C430 H421 0.929 . S
C430 C422 1.378 . S
C430 C425 1.350 . S
C431 H418 0.929 . S
C431 C423 1.433 . S
C431 N433 1.384 . S
N432 C428 1.427 . S
N432 C429 1.384 . S
N433 C425 1.427 . S
N433 C431 1.384 . S
H434 C440 0.930 . S
H435 C444 0.930 . S
H436 C449 0.929 . S
H437 C447 0.929 . S
H438 C442 0.929 . S
H439 C448 0.929 . S
C440 H434 0.930 . S
C440 C441 1.367 . S
C440 C448 1.378 . S
C441 C440 1.367 . S
C441 C449 1.433 . S
C442 H438 0.929 . S
C442 C444 1.378 . S
C442 C446 1.350 . S
C443 C446 1.463 . S
C443 C448 1.350 . S
C443 N451 1.427 . S
C444 H435 0.930 . S
C444 C442 1.378 . S
C444 C445 1.367 . S
C445 C444 1.367 . S
C445 C447 1.433 . S
C446 C442 1.350 . S
C446 C443 1.463 . S
C446 N450 1.427 . S
C447 H437 0.929 . S
C447 C445 1.433 . S
C447 N450 1.384 . S
C448 H439 0.929 . S
C448 C440 1.378 . S
C448 C443 1.350 . S
C449 H436 0.929 . S
C449 C441 1.433 . S
C449 N451 1.384 . S
N450 C446 1.427 . S
N450 C447 1.384 . S
N451 C443 1.427 . S
N451 C449 1.384 . S
H452 C458 0.930 . S
H453 C462 0.930 . S
H454 C467 0.929 . S
H455 C465 0.929 . S
H456 C460 0.929 . S
H457 C466 0.929 . S
C458 H452 0.930 . S
C458 C459 1.367 . S
C458 C466 1.378 . S
C459 C458 1.367 . S
C459 C467 1.433 . S
C460 H456 0.929 . S
C460 C462 1.378 . S
C460 C464 1.350 . S
C461 C464 1.463 . S
C461 C466 1.350 . S
C461 N469 1.427 . S
C462 H453 0.930 . S
C462 C460 1.378 . S
C462 C463 1.367 . S
C463 C462 1.367 . S
C463 C465 1.433 . S
C464 C460 1.350 . S
C464 C461 1.463 . S
C464 N468 1.427 . S
C465 H455 0.929 . S
C465 C463 1.433 . S
C465 N468 1.384 . S
C466 H457 0.929 . S
C466 C458 1.378 . S
C466 C461 1.350 . S
C467 H454 0.929 . S
C467 C459 1.433 . S
C467 N469 1.384 . S
N468 C464 1.427 . S
N468 C465 1.384 . S
N469 C461 1.427 . S
N469 C467 1.384 . S
H470 C476 0.930 . S
H471 C480 0.930 . S
H472 C485 0.929 . S
H473 C483 0.929 . S
H474 C478 0.929 . S
H475 C484 0.929 . S
C476 H470 0.930 . S
C476 C477 1.367 . S
C476 C484 1.378 . S
C477 C476 1.367 . S
C477 C485 1.433 . S
C478 H474 0.929 . S
C478 C480 1.378 . S
C478 C482 1.350 . S
C479 C482 1.463 . S
C479 C484 1.350 . S
C479 N487 1.427 . S
C480 H471 0.930 . S
C480 C478 1.378 . S
C480 C481 1.367 . S
C481 C480 1.367 . S
C481 C483 1.433 . S
C482 C478 1.350 . S
C482 C479 1.463 . S
C482 N486 1.427 . S
C483 H473 0.929 . S
C483 C481 1.433 . S
C483 N486 1.384 . S
C484 H475 0.929 . S
C484 C476 1.378 . S
C484 C479 1.350 . S
C485 H472 0.929 . S
C485 C477 1.433 . S
C485 N487 1.384 . S
N486 C482 1.427 . S
N486 C483 1.384 . S
N487 C479 1.427 . S
N487 C485 1.384 . S
H488 C494 0.930 . S
H489 C498 0.930 . S
H490 C503 0.929 . S
H491 C501 0.929 . S
H492 C496 0.929 1_565 S
H493 C502 0.929 1_545 S
C494 H488 0.930 . S
C494 C495 1.367 . S
C494 C502 1.378 . S
C495 C494 1.367 . S
C495 C503 1.433 . S
C496 H492 0.929 1_545 S
C496 C498 1.378 . S
C496 C500 1.350 . S
C497 C500 1.463 1_565 S
C497 C502 1.350 . S
C497 N505 1.427 . S
C498 H489 0.930 . S
C498 C496 1.378 . S
C498 C499 1.367 . S
C499 C498 1.367 . S
C499 C501 1.433 . S
C500 C496 1.350 . S
C500 C497 1.463 1_545 S
C500 N504 1.427 . S
C501 H491 0.929 . S
C501 C499 1.433 . S
C501 N504 1.384 . S
C502 H493 0.929 1_565 S
C502 C494 1.378 . S
C502 C497 1.350 . S
C503 H490 0.929 . S
C503 C495 1.433 . S
C503 N505 1.384 . S
N504 C500 1.427 . S
N504 C501 1.384 . S
N505 C497 1.427 . S
N505 C503 1.384 . S
H506 C512 0.930 . S
H507 C516 0.930 . S
H508 C521 0.929 . S
H509 C519 0.929 . S
H510 C514 0.929 . S
H511 C520 0.929 . S
C512 H506 0.930 . S
C512 C513 1.367 . S
C512 C520 1.378 . S
C513 C512 1.367 . S
C513 C521 1.433 . S
C514 H510 0.929 . S
C514 C516 1.378 . S
C514 C518 1.350 . S
C515 C518 1.463 . S
C515 C520 1.350 . S
C515 N523 1.427 . S
C516 H507 0.930 . S
C516 C514 1.378 . S
C516 C517 1.367 . S
C517 C516 1.367 . S
C517 C519 1.433 . S
C518 C514 1.350 . S
C518 C515 1.463 . S
C518 N522 1.427 . S
C519 H509 0.929 . S
C519 C517 1.433 . S
C519 N522 1.384 . S
C520 H511 0.929 . S
C520 C512 1.378 . S
C520 C515 1.350 . S
C521 H508 0.929 . S
C521 C513 1.433 . S
C521 N523 1.384 . S
N522 C518 1.427 . S
N522 C519 1.384 . S
N523 C515 1.427 . S
N523 C521 1.384 . S
H524 C530 0.930 . S
H525 C534 0.930 . S
H526 C539 0.929 . S
H527 C537 0.929 . S
H528 C532 0.929 . S
H529 C538 0.929 . S
C530 H524 0.930 . S
C530 C531 1.367 . S
C530 C538 1.378 . S
C531 C530 1.367 . S
C531 C539 1.433 . S
C532 H528 0.929 . S
C532 C534 1.378 . S
C532 C536 1.350 . S
C533 C536 1.463 1_545 S
C533 C538 1.350 . S
C533 N541 1.427 . S
C534 H525 0.930 . S
C534 C532 1.378 . S
C534 C535 1.367 . S
C535 C534 1.367 . S
C535 C537 1.433 . S
C536 C532 1.350 . S
C536 C533 1.463 1_565 S
C536 N540 1.427 . S
C537 H527 0.929 . S
C537 C535 1.433 . S
C537 N540 1.384 . S
C538 H529 0.929 . S
C538 C530 1.378 . S
C538 C533 1.350 . S
C539 H526 0.929 . S
C539 C531 1.433 . S
C539 N541 1.384 . S
N540 C536 1.427 . S
N540 C537 1.384 . S
N541 C533 1.427 . S
N541 C539 1.384 . S
H542 C548 0.930 . S
H543 C552 0.930 . S
H544 C557 0.929 . S
H545 C555 0.929 . S
H546 C550 0.929 . S
H547 C556 0.929 . S
C548 H542 0.930 . S
C548 C549 1.367 . S
C548 C556 1.378 . S
C549 C548 1.367 . S
C549 C557 1.433 . S
C550 H546 0.929 . S
C550 C552 1.378 . S
C550 C554 1.350 . S
C551 C554 1.463 . S
C551 C556 1.350 . S
C551 N559 1.427 . S
C552 H543 0.930 . S
C552 C550 1.378 . S
C552 C553 1.367 . S
C553 C552 1.367 . S
C553 C555 1.433 . S
C554 C550 1.350 . S
C554 C551 1.463 . S
C554 N558 1.427 . S
C555 H545 0.929 . S
C555 C553 1.433 . S
C555 N558 1.384 . S
C556 H547 0.929 . S
C556 C548 1.378 . S
C556 C551 1.350 . S
C557 H544 0.929 . S
C557 C549 1.433 . S
C557 N559 1.384 . S
N558 C554 1.427 . S
N558 C555 1.384 . S
N559 C551 1.427 . S
N559 C557 1.384 . S
H560 C566 0.930 . S
H561 C570 0.930 . S
H562 C575 0.929 . S
H563 C573 0.929 . S
H564 C568 0.929 1_455 S
H565 C574 0.929 1_655 S
C566 H560 0.930 . S
C566 C567 1.367 1_556 S
C566 C574 1.378 . S
C567 C566 1.367 1_554 S
C567 C575 1.433 . S
C568 H564 0.929 1_655 S
C568 C570 1.378 . S
C568 C572 1.350 1_554 S
C569 C572 1.463 1_444 S
C569 C574 1.350 1_554 S
C569 N577 1.427 . S
C570 H561 0.930 . S
C570 C568 1.378 . S
C570 C571 1.367 1_554 S
C571 C570 1.367 1_556 S
C571 C573 1.433 . S
C572 C568 1.350 1_556 S
C572 C569 1.463 1_666 S
C572 N576 1.427 . S
C573 H563 0.929 . S
C573 C571 1.433 . S
C573 N576 1.384 . S
C574 H565 0.929 1_455 S
C574 C566 1.378 . S
C574 C569 1.350 1_556 S
C575 H562 0.929 . S
C575 C567 1.433 . S
C575 N577 1.384 . S
N576 C572 1.427 . S
N576 C573 1.384 . S
N577 C569 1.427 . S
N577 C575 1.384 . S
H578 C584 0.930 . S
H579 C588 0.930 . S
H580 C593 0.929 . S
H581 C591 0.929 . S
H582 C586 0.929 . S
H583 C592 0.929 . S
C584 H578 0.930 . S
C584 C585 1.367 . S
C584 C592 1.378 . S
C585 C584 1.367 . S
C585 C593 1.433 1_556 S
C586 H582 0.929 . S
C586 C588 1.378 . S
C586 C590 1.350 . S
C587 C590 1.463 1_546 S
C587 C592 1.350 . S
C587 N595 1.427 1_556 S
C588 H579 0.930 . S
C588 C586 1.378 . S
C588 C589 1.367 . S
C589 C588 1.367 . S
C589 C591 1.433 1_554 S
C590 C586 1.350 . S
C590 C587 1.463 1_564 S
C590 N594 1.427 1_554 S
C591 H581 0.929 . S
C591 C589 1.433 1_556 S
C591 N594 1.384 . S
C592 H583 0.929 . S
C592 C584 1.378 . S
C592 C587 1.350 . S
C593 H580 0.929 . S
C593 C585 1.433 1_554 S
C593 N595 1.384 . S
N594 C590 1.427 1_556 S
N594 C591 1.384 . S
N595 C587 1.427 1_554 S
N595 C593 1.384 . S
H596 C602 0.930 . S
H597 C606 0.930 . S
H598 C611 0.929 . S
H599 C609 0.929 . S
H600 C604 0.929 . S
H601 C610 0.929 . S
C602 H596 0.930 . S
C602 C603 1.367 . S
C602 C610 1.378 . S
C603 C602 1.367 . S
C603 C611 1.433 . S
C604 H600 0.929 . S
C604 C606 1.378 . S
C604 C608 1.350 . S
C605 C608 1.463 1_455 S
C605 C610 1.350 . S
C605 N613 1.427 . S
C606 H597 0.930 . S
C606 C604 1.378 . S
C606 C607 1.367 . S
C607 C606 1.367 . S
C607 C609 1.433 . S
C608 C604 1.350 . S
C608 C605 1.463 1_655 S
C608 N612 1.427 . S
C609 H599 0.929 . S
C609 C607 1.433 . S
C609 N612 1.384 . S
C610 H601 0.929 . S
C610 C602 1.378 . S
C610 C605 1.350 . S
C611 H598 0.929 . S
C611 C603 1.433 . S
C611 N613 1.384 . S
N612 C608 1.427 . S
N612 C609 1.384 . S
N613 C605 1.427 . S
N613 C611 1.384 . S
H614 C620 0.930 . S
H615 C624 0.930 . S
H616 C629 0.929 . S
H617 C627 0.929 . S
H618 C622 0.929 . S
H619 C628 0.929 . S
C620 H614 0.930 . S
C620 C621 1.367 . S
C620 C628 1.378 . S
C621 C620 1.367 . S
C621 C629 1.433 . S
C622 H618 0.929 . S
C622 C624 1.378 . S
C622 C626 1.350 . S
C623 C626 1.463 . S
C623 C628 1.350 . S
C623 N631 1.427 . S
C624 H615 0.930 . S
C624 C622 1.378 . S
C624 C625 1.367 . S
C625 C624 1.367 . S
C625 C627 1.433 . S
C626 C622 1.350 . S
C626 C623 1.463 . S
C626 N630 1.427 . S
C627 H617 0.929 . S
C627 C625 1.433 . S
C627 N630 1.384 . S
C628 H619 0.929 . S
C628 C620 1.378 . S
C628 C623 1.350 . S
C629 H616 0.929 . S
C629 C621 1.433 . S
C629 N631 1.384 . S
N630 C626 1.427 . S
N630 C627 1.384 . S
N631 C623 1.427 . S
N631 C629 1.384 . S
H632 C638 0.930 . S
H633 C642 0.930 . S
H634 C647 0.929 . S
H635 C645 0.929 . S
H636 C640 0.929 . S
H637 C646 0.929 . S
C638 H632 0.930 . S
C638 C639 1.367 . S
C638 C646 1.378 . S
C639 C638 1.367 . S
C639 C647 1.433 . S
C640 H636 0.929 . S
C640 C642 1.378 . S
C640 C644 1.350 . S
C641 C644 1.463 . S
C641 C646 1.350 . S
C641 N649 1.427 . S
C642 H633 0.930 . S
C642 C640 1.378 . S
C642 C643 1.367 . S
C643 C642 1.367 . S
C643 C645 1.433 . S
C644 C640 1.350 . S
C644 C641 1.463 . S
C644 N648 1.427 . S
C645 H635 0.929 . S
C645 C643 1.433 . S
C645 N648 1.384 . S
C646 H637 0.929 . S
C646 C638 1.378 . S
C646 C641 1.350 . S
C647 H634 0.929 . S
C647 C639 1.433 . S
C647 N649 1.384 . S
N648 C644 1.427 . S
N648 C645 1.384 . S
N649 C641 1.427 . S
N649 C647 1.384 . S
H650 C656 0.930 . S
H651 C660 0.930 . S
H652 C665 0.929 . S
H653 C663 0.929 . S
H654 C658 0.929 . S
H655 C664 0.929 . S
C656 H650 0.930 . S
C656 C657 1.367 . S
C656 C664 1.378 . S
C657 C656 1.367 . S
C657 C665 1.433 . S
C658 H654 0.929 . S
C658 C660 1.378 . S
C658 C662 1.350 . S
C659 C662 1.463 . S
C659 C664 1.350 . S
C659 N667 1.427 . S
C660 H651 0.930 . S
C660 C658 1.378 . S
C660 C661 1.367 . S
C661 C660 1.367 . S
C661 C663 1.433 . S
C662 C658 1.350 . S
C662 C659 1.463 . S
C662 N666 1.427 . S
C663 H653 0.929 . S
C663 C661 1.433 . S
C663 N666 1.384 . S
C664 H655 0.929 . S
C664 C656 1.378 . S
C664 C659 1.350 . S
C665 H652 0.929 . S
C665 C657 1.433 . S
C665 N667 1.384 . S
N666 C662 1.427 . S
N666 C663 1.384 . S
N667 C659 1.427 . S
N667 C665 1.384 . S
H668 C674 0.930 . S
H669 C678 0.930 . S
H670 C683 0.929 . S
H671 C681 0.929 . S
H672 C676 0.929 . S
H673 C682 0.929 . S
C674 H668 0.930 . S
C674 C675 1.367 . S
C674 C682 1.378 1_554 S
C675 C674 1.367 . S
C675 C683 1.433 . S
C676 H672 0.929 . S
C676 C678 1.378 . S
C676 C680 1.350 . S
C677 C680 1.463 . S
C677 C682 1.350 . S
C677 N685 1.427 . S
C678 H669 0.930 . S
C678 C676 1.378 . S
C678 C679 1.367 . S
C679 C678 1.367 . S
C679 C681 1.433 . S
C680 C676 1.350 . S
C680 C677 1.463 . S
C680 N684 1.427 . S
C681 H671 0.929 . S
C681 C679 1.433 . S
C681 N684 1.384 . S
C682 H673 0.929 . S
C682 C674 1.378 1_556 S
C682 C677 1.350 . S
C683 H670 0.929 . S
C683 C675 1.433 . S
C683 N685 1.384 1_554 S
N684 C680 1.427 . S
N684 C681 1.384 . S
N685 C677 1.427 . S
N685 C683 1.384 1_556 S
H686 C692 0.930 . S
H687 C696 0.930 . S
H688 C701 0.929 . S
H689 C699 0.929 . S
H690 C694 0.929 . S
H691 C700 0.929 . S
C692 H686 0.930 . S
C692 C693 1.367 . S
C692 C700 1.378 . S
C693 C692 1.367 . S
C693 C701 1.433 . S
C694 H690 0.929 . S
C694 C696 1.378 1_556 S
C694 C698 1.350 . S
C695 C698 1.463 . S
C695 C700 1.350 . S
C695 N703 1.427 . S
C696 H687 0.930 . S
C696 C694 1.378 1_554 S
C696 C697 1.367 . S
C697 C696 1.367 . S
C697 C699 1.433 . S
C698 C694 1.350 . S
C698 C695 1.463 . S
C698 N702 1.427 . S
C699 H689 0.929 . S
C699 C697 1.433 . S
C699 N702 1.384 1_554 S
C700 H691 0.929 . S
C700 C692 1.378 . S
C700 C695 1.350 . S
C701 H688 0.929 . S
C701 C693 1.433 . S
C701 N703 1.384 . S
N702 C698 1.427 . S
N702 C699 1.384 1_556 S
N703 C695 1.427 . S
N703 C701 1.384 . S
H704 C710 0.930 . S
H705 C714 0.930 . S
H706 C719 0.929 . S
H707 C717 0.929 . S
H708 C712 0.929 . S
H709 C718 0.929 . S
C710 H704 0.930 . S
C710 C711 1.367 . S
C710 C718 1.378 . S
C711 C710 1.367 . S
C711 C719 1.433 . S
C712 H708 0.929 . S
C712 C714 1.378 . S
C712 C716 1.350 . S
C713 C716 1.463 . S
C713 C718 1.350 . S
C713 N721 1.427 . S
C714 H705 0.930 . S
C714 C712 1.378 . S
C714 C715 1.367 . S
C715 C714 1.367 . S
C715 C717 1.433 . S
C716 C712 1.350 . S
C716 C713 1.463 . S
C716 N720 1.427 . S
C717 H707 0.929 . S
C717 C715 1.433 . S
C717 N720 1.384 . S
C718 H709 0.929 . S
C718 C710 1.378 . S
C718 C713 1.350 . S
C719 H706 0.929 . S
C719 C711 1.433 . S
C719 N721 1.384 . S
N720 C716 1.427 . S
N720 C717 1.384 . S
N721 C713 1.427 . S
N721 C719 1.384 . S
H722 C728 0.930 . S
H723 C732 0.930 . S
H724 C737 0.929 . S
H725 C735 0.929 . S
H726 C730 0.929 . S
H727 C736 0.929 . S
C728 H722 0.930 . S
C728 C729 1.367 . S
C728 C736 1.378 . S
C729 C728 1.367 . S
C729 C737 1.433 . S
C730 H726 0.929 . S
C730 C732 1.378 . S
C730 C734 1.350 . S
C731 C734 1.463 . S
C731 C736 1.350 . S
C731 N739 1.427 . S
C732 H723 0.930 . S
C732 C730 1.378 . S
C732 C733 1.367 . S
C733 C732 1.367 . S
C733 C735 1.433 . S
C734 C730 1.350 . S
C734 C731 1.463 . S
C734 N738 1.427 . S
C735 H725 0.929 . S
C735 C733 1.433 . S
C735 N738 1.384 . S
C736 H727 0.929 . S
C736 C728 1.378 . S
C736 C731 1.350 . S
C737 H724 0.929 . S
C737 C729 1.433 . S
C737 N739 1.384 . S
N738 C734 1.427 . S
N738 C735 1.384 . S
N739 C731 1.427 . S
N739 C737 1.384 . S
H740 C746 0.930 . S
H741 C750 0.930 . S
H742 C755 0.929 . S
H743 C753 0.929 . S
H744 C748 0.929 . S
H745 C754 0.929 . S
C746 H740 0.930 . S
C746 C747 1.367 . S
C746 C754 1.378 1_556 S
C747 C746 1.367 . S
C747 C755 1.433 . S
C748 H744 0.929 . S
C748 C750 1.378 . S
C748 C752 1.350 . S
C749 C752 1.463 . S
C749 C754 1.350 . S
C749 N757 1.427 . S
C750 H741 0.930 . S
C750 C748 1.378 . S
C750 C751 1.367 . S
C751 C750 1.367 . S
C751 C753 1.433 . S
C752 C748 1.350 . S
C752 C749 1.463 . S
C752 N756 1.427 . S
C753 H743 0.929 . S
C753 C751 1.433 . S
C753 N756 1.384 . S
C754 H745 0.929 . S
C754 C746 1.378 1_554 S
C754 C749 1.350 . S
C755 H742 0.929 . S
C755 C747 1.433 . S
C755 N757 1.384 1_556 S
N756 C752 1.427 . S
N756 C753 1.384 . S
N757 C749 1.427 . S
N757 C755 1.384 1_554 S
H758 C764 0.930 . S
H759 C768 0.930 . S
H760 C773 0.929 . S
H761 C771 0.929 . S
H762 C766 0.929 . S
H763 C772 0.929 . S
C764 H758 0.930 . S
C764 C765 1.367 . S
C764 C772 1.378 . S
C765 C764 1.367 . S
C765 C773 1.433 . S
C766 H762 0.929 . S
C766 C768 1.378 1_554 S
C766 C770 1.350 . S
C767 C770 1.463 . S
C767 C772 1.350 . S
C767 N775 1.427 . S
C768 H759 0.930 . S
C768 C766 1.378 1_556 S
C768 C769 1.367 . S
C769 C768 1.367 . S
C769 C771 1.433 . S
C770 C766 1.350 . S
C770 C767 1.463 . S
C770 N774 1.427 . S
C771 H761 0.929 . S
C771 C769 1.433 . S
C771 N774 1.384 1_556 S
C772 H763 0.929 . S
C772 C764 1.378 . S
C772 C767 1.350 . S
C773 H760 0.929 . S
C773 C765 1.433 . S
C773 N775 1.384 . S
N774 C770 1.427 . S
N774 C771 1.384 1_554 S
N775 C767 1.427 . S
N775 C773 1.384 . S
C279 C198 1.618 . S
C283 C28 1.592 . S
C297 C40 1.594 . S
C301 C142 1.619 1_455 S
C315 C244 1.620 . S
C319 C96 1.595 . S
C333 C210 1.621 1_455 S
C337 C108 1.600 . S
C351 C164 1.588 . S
C355 C62 1.614 . S
C369 C176 1.598 . S
C373 C6 1.618 1_655 S
C387 C232 1.600 . S
C391 C130 1.621 . S
C405 C266 1.594 . S
C409 C74 1.619 1_655 S
C423 C85 1.786 . S
C427 C17 1.786 . S
C441 C119 1.797 . S
C445 C51 1.797 . S
C459 C153 1.796 . S
C463 C221 1.796 . S
C477 C187 1.796 . S
C481 C255 1.796 . S
C495 C35 1.671 . S
C499 C3 1.674 . S
C513 C71 1.683 . S
C517 C103 1.682 . S
C531 C171 1.671 . S
C535 C139 1.682 . S
C549 C241 1.685 . S
C553 C207 1.676 . S
C567 C1 1.820 . S
C571 C137 1.820 . S
C585 C173 1.806 . S
C589 C37 1.806 . S
C603 C69 1.806 . S
C607 C205 1.806 . S
C621 C105 1.809 . S
C625 C239 1.809 . S
C639 C22 1.396 . S
C643 C15 1.405 . S
C657 C56 1.404 . S
C661 C49 1.396 . S
C675 C83 1.388 . S
C679 C90 1.379 . S
C693 C117 1.397 . S
C697 C124 1.406 . S
C711 C158 1.404 . S
C715 C151 1.412 . S
C729 C192 1.390 . S
C733 C185 1.382 . S
C747 C219 1.385 . S
C751 C226 1.377 . S
C765 C260 1.377 . S
C769 C253 1.386 . S
