# Generated by pormake.
# Topology uns, (4)-cn, num edge types: 1
# Building blocks:
#     Node 0, Type 0, BuildingBlock: CEKHIL_clean_sbu_0, # of connection points: 4
#     Node 1, Type 0, BuildingBlock: CEKHIL_clean_sbu_0, # of connection points: 4
#     Node 2, Type 0, BuildingBlock: CEKHIL_clean_sbu_0, # of connection points: 4
#     Node 3, Type 0, BuildingBlock: CEKHIL_clean_sbu_0, # of connection points: 4
#     Node 4, Type 0, BuildingBlock: CEKHIL_clean_sbu_0, # of connection points: 4
#     Node 5, Type 0, BuildingBlock: CEKHIL_clean_sbu_0, # of connection points: 4
#     Node 6, Type 0, BuildingBlock: CEKHIL_clean_sbu_0, # of connection points: 4
#     Node 7, Type 0, BuildingBlock: CEKHIL_clean_sbu_0, # of connection points: 4
#     Node 8, Type 0, BuildingBlock: CEKHIL_clean_sbu_0, # of connection points: 4
#     Node 9, Type 0, BuildingBlock: CEKHIL_clean_sbu_0, # of connection points: 4
#     Node 10, Type 0, BuildingBlock: CEKHIL_clean_sbu_0, # of connection points: 4
#     Node 11, Type 0, BuildingBlock: CEKHIL_clean_sbu_0, # of connection points: 4
#     Node 12, Type 0, BuildingBlock: CEKHIL_clean_sbu_0, # of connection points: 4
#     Node 13, Type 0, BuildingBlock: CEKHIL_clean_sbu_0, # of connection points: 4
#     Node 14, Type 0, BuildingBlock: CEKHIL_clean_sbu_0, # of connection points: 4
#     Node 15, Type 0, BuildingBlock: CEKHIL_clean_sbu_0, # of connection points: 4
#     Node 16, Type 0, BuildingBlock: CEKHIL_clean_sbu_0, # of connection points: 4
#     Node 17, Type 0, BuildingBlock: CEKHIL_clean_sbu_0, # of connection points: 4
#     Node 18, Type 0, BuildingBlock: CEKHIL_clean_sbu_0, # of connection points: 4
#     Node 19, Type 0, BuildingBlock: CEKHIL_clean_sbu_0, # of connection points: 4
#     Node 20, Type 0, BuildingBlock: CEKHIL_clean_sbu_0, # of connection points: 4
#     Node 21, Type 0, BuildingBlock: CEKHIL_clean_sbu_0, # of connection points: 4
#     Node 22, Type 0, BuildingBlock: CEKHIL_clean_sbu_0, # of connection points: 4
#     Node 23, Type 0, BuildingBlock: CEKHIL_clean_sbu_0, # of connection points: 4
#     Node 24, Type 0, BuildingBlock: CEKHIL_clean_sbu_0, # of connection points: 4
#     Node 25, Type 0, BuildingBlock: CEKHIL_clean_sbu_0, # of connection points: 4
#     Node 26, Type 0, BuildingBlock: CEKHIL_clean_sbu_0, # of connection points: 4
#     Node 27, Type 0, BuildingBlock: CEKHIL_clean_sbu_0, # of connection points: 4
#     Node 28, Type 0, BuildingBlock: CEKHIL_clean_sbu_0, # of connection points: 4
#     Node 29, Type 0, BuildingBlock: CEKHIL_clean_sbu_0, # of connection points: 4
#     Node 30, Type 0, BuildingBlock: CEKHIL_clean_sbu_0, # of connection points: 4
#     Node 31, Type 0, BuildingBlock: CEKHIL_clean_sbu_0, # of connection points: 4
#     Node 32, Type 0, BuildingBlock: CEKHIL_clean_sbu_0, # of connection points: 4
#     Node 33, Type 0, BuildingBlock: CEKHIL_clean_sbu_0, # of connection points: 4
#     Node 34, Type 0, BuildingBlock: CEKHIL_clean_sbu_0, # of connection points: 4
#     Node 35, Type 0, BuildingBlock: CEKHIL_clean_sbu_0, # of connection points: 4
#     Edge 36, Type (0, 0), BuildingBlock: ZUJKAS_clean_linker_0, # of connection points: 2
#     Edge 37, Type (0, 0), BuildingBlock: ZUJKAS_clean_linker_0, # of connection points: 2
#     Edge 38, Type (0, 0), BuildingBlock: ZUJKAS_clean_linker_0, # of connection points: 2
#     Edge 39, Type (0, 0), BuildingBlock: ZUJKAS_clean_linker_0, # of connection points: 2
#     Edge 40, Type (0, 0), BuildingBlock: ZUJKAS_clean_linker_0, # of connection points: 2
#     Edge 41, Type (0, 0), BuildingBlock: ZUJKAS_clean_linker_0, # of connection points: 2
#     Edge 42, Type (0, 0), BuildingBlock: ZUJKAS_clean_linker_0, # of connection points: 2
#     Edge 43, Type (0, 0), BuildingBlock: ZUJKAS_clean_linker_0, # of connection points: 2
#     Edge 44, Type (0, 0), BuildingBlock: ZUJKAS_clean_linker_0, # of connection points: 2
#     Edge 45, Type (0, 0), BuildingBlock: ZUJKAS_clean_linker_0, # of connection points: 2
#     Edge 46, Type (0, 0), BuildingBlock: ZUJKAS_clean_linker_0, # of connection points: 2
#     Edge 47, Type (0, 0), BuildingBlock: ZUJKAS_clean_linker_0, # of connection points: 2
#     Edge 48, Type (0, 0), BuildingBlock: ZUJKAS_clean_linker_0, # of connection points: 2
#     Edge 49, Type (0, 0), BuildingBlock: ZUJKAS_clean_linker_0, # of connection points: 2
#     Edge 50, Type (0, 0), BuildingBlock: ZUJKAS_clean_linker_0, # of connection points: 2
#     Edge 51, Type (0, 0), BuildingBlock: ZUJKAS_clean_linker_0, # of connection points: 2
#     Edge 52, Type (0, 0), BuildingBlock: ZUJKAS_clean_linker_0, # of connection points: 2
#     Edge 53, Type (0, 0), BuildingBlock: ZUJKAS_clean_linker_0, # of connection points: 2
#     Edge 54, Type (0, 0), BuildingBlock: ZUJKAS_clean_linker_0, # of connection points: 2
#     Edge 55, Type (0, 0), BuildingBlock: ZUJKAS_clean_linker_0, # of connection points: 2
#     Edge 56, Type (0, 0), BuildingBlock: ZUJKAS_clean_linker_0, # of connection points: 2
#     Edge 57, Type (0, 0), BuildingBlock: ZUJKAS_clean_linker_0, # of connection points: 2
#     Edge 58, Type (0, 0), BuildingBlock: ZUJKAS_clean_linker_0, # of connection points: 2
#     Edge 59, Type (0, 0), BuildingBlock: ZUJKAS_clean_linker_0, # of connection points: 2
#     Edge 60, Type (0, 0), BuildingBlock: ZUJKAS_clean_linker_0, # of connection points: 2
#     Edge 61, Type (0, 0), BuildingBlock: ZUJKAS_clean_linker_0, # of connection points: 2
#     Edge 62, Type (0, 0), BuildingBlock: ZUJKAS_clean_linker_0, # of connection points: 2
#     Edge 63, Type (0, 0), BuildingBlock: ZUJKAS_clean_linker_0, # of connection points: 2
#     Edge 64, Type (0, 0), BuildingBlock: ZUJKAS_clean_linker_0, # of connection points: 2
#     Edge 65, Type (0, 0), BuildingBlock: ZUJKAS_clean_linker_0, # of connection points: 2
#     Edge 66, Type (0, 0), BuildingBlock: ZUJKAS_clean_linker_0, # of connection points: 2
#     Edge 67, Type (0, 0), BuildingBlock: ZUJKAS_clean_linker_0, # of connection points: 2
#     Edge 68, Type (0, 0), BuildingBlock: ZUJKAS_clean_linker_0, # of connection points: 2
#     Edge 69, Type (0, 0), BuildingBlock: ZUJKAS_clean_linker_0, # of connection points: 2
#     Edge 70, Type (0, 0), BuildingBlock: ZUJKAS_clean_linker_0, # of connection points: 2
#     Edge 71, Type (0, 0), BuildingBlock: ZUJKAS_clean_linker_0, # of connection points: 2
#     Edge 72, Type (0, 0), BuildingBlock: ZUJKAS_clean_linker_0, # of connection points: 2
#     Edge 73, Type (0, 0), BuildingBlock: ZUJKAS_clean_linker_0, # of connection points: 2
#     Edge 74, Type (0, 0), BuildingBlock: ZUJKAS_clean_linker_0, # of connection points: 2
#     Edge 75, Type (0, 0), BuildingBlock: ZUJKAS_clean_linker_0, # of connection points: 2
#     Edge 76, Type (0, 0), BuildingBlock: ZUJKAS_clean_linker_0, # of connection points: 2
#     Edge 77, Type (0, 0), BuildingBlock: ZUJKAS_clean_linker_0, # of connection points: 2
#     Edge 78, Type (0, 0), BuildingBlock: ZUJKAS_clean_linker_0, # of connection points: 2
#     Edge 79, Type (0, 0), BuildingBlock: ZUJKAS_clean_linker_0, # of connection points: 2
#     Edge 80, Type (0, 0), BuildingBlock: ZUJKAS_clean_linker_0, # of connection points: 2
#     Edge 81, Type (0, 0), BuildingBlock: ZUJKAS_clean_linker_0, # of connection points: 2
#     Edge 82, Type (0, 0), BuildingBlock: ZUJKAS_clean_linker_0, # of connection points: 2
#     Edge 83, Type (0, 0), BuildingBlock: ZUJKAS_clean_linker_0, # of connection points: 2
#     Edge 84, Type (0, 0), BuildingBlock: ZUJKAS_clean_linker_0, # of connection points: 2
#     Edge 85, Type (0, 0), BuildingBlock: ZUJKAS_clean_linker_0, # of connection points: 2
#     Edge 86, Type (0, 0), BuildingBlock: ZUJKAS_clean_linker_0, # of connection points: 2
#     Edge 87, Type (0, 0), BuildingBlock: ZUJKAS_clean_linker_0, # of connection points: 2
#     Edge 88, Type (0, 0), BuildingBlock: ZUJKAS_clean_linker_0, # of connection points: 2
#     Edge 89, Type (0, 0), BuildingBlock: ZUJKAS_clean_linker_0, # of connection points: 2
#     Edge 90, Type (0, 0), BuildingBlock: ZUJKAS_clean_linker_0, # of connection points: 2
#     Edge 91, Type (0, 0), BuildingBlock: ZUJKAS_clean_linker_0, # of connection points: 2
#     Edge 92, Type (0, 0), BuildingBlock: ZUJKAS_clean_linker_0, # of connection points: 2
#     Edge 93, Type (0, 0), BuildingBlock: ZUJKAS_clean_linker_0, # of connection points: 2
#     Edge 94, Type (0, 0), BuildingBlock: ZUJKAS_clean_linker_0, # of connection points: 2
#     Edge 95, Type (0, 0), BuildingBlock: ZUJKAS_clean_linker_0, # of connection points: 2
#     Edge 96, Type (0, 0), BuildingBlock: ZUJKAS_clean_linker_0, # of connection points: 2
#     Edge 97, Type (0, 0), BuildingBlock: ZUJKAS_clean_linker_0, # of connection points: 2
#     Edge 98, Type (0, 0), BuildingBlock: ZUJKAS_clean_linker_0, # of connection points: 2
#     Edge 99, Type (0, 0), BuildingBlock: ZUJKAS_clean_linker_0, # of connection points: 2
#     Edge 100, Type (0, 0), BuildingBlock: ZUJKAS_clean_linker_0, # of connection points: 2
#     Edge 101, Type (0, 0), BuildingBlock: ZUJKAS_clean_linker_0, # of connection points: 2
#     Edge 102, Type (0, 0), BuildingBlock: ZUJKAS_clean_linker_0, # of connection points: 2
#     Edge 103, Type (0, 0), BuildingBlock: ZUJKAS_clean_linker_0, # of connection points: 2
#     Edge 104, Type (0, 0), BuildingBlock: ZUJKAS_clean_linker_0, # of connection points: 2
#     Edge 105, Type (0, 0), BuildingBlock: ZUJKAS_clean_linker_0, # of connection points: 2
#     Edge 106, Type (0, 0), BuildingBlock: ZUJKAS_clean_linker_0, # of connection points: 2
#     Edge 107, Type (0, 0), BuildingBlock: ZUJKAS_clean_linker_0, # of connection points: 2
# Relax obj value: 0.114
# Max RMSD: 0.260
# Mean RMSD: 0.246
data_MOF--net-uns--node1-CEKHIL_clean_sbu_0--edge1-ZUJKAS_clean_linker_0
_symmetry_space_group_name_H-M    P1
_symmetry_Int_Tables_number       1
_symmetry_cell_setting            triclinic
loop_
_symmetry_equiv_pos_as_xyz
'x, y, z'
_cell_length_a     71.123923
_cell_length_b     70.287032
_cell_length_c     72.100634
_cell_angle_alpha  90.967904
_cell_angle_beta   89.999136
_cell_angle_gamma 120.39481
loop_
_atom_site_label
_atom_site_type_symbol
_atom_site_fract_x
_atom_site_fract_y
_atom_site_fract_z
_atom_type_partial_charge
Co0 Co 0.28331 0.19682 0.05363 0.0
O1 O 0.2942 0.18263 0.06917 0.0
O2 O 0.28087 0.20322 0.07955 0.0
C3 C 0.26404 0.16816 0.0341 0.0
O4 O 0.26982 0.21319 0.04131 0.0
Co5 Co 0.29866 0.20523 0.01298 0.0
O6 O 0.27698 0.21492 0.01075 0.0
C7 C 0.32927 0.23191 0.04233 0.0
C8 C 0.29019 0.19178 0.08318 0.0
C9 C 0.26769 0.21814 0.0246 0.0
O10 O 0.31317 0.22363 0.05353 0.0
O11 O 0.32753 0.22573 0.02532 0.0
O12 O 0.25577 0.16943 0.04986 0.0
O13 O 0.2843 0.18282 0.03169 0.0
Co14 Co 0.82044 0.08778 0.05777 0.0
O15 O 0.84845 0.09722 0.04731 0.0
O16 O 0.81971 0.09279 0.03144 0.0
C17 C 0.83161 0.11036 0.0828 0.0
O18 O 0.78913 0.07871 0.06467 0.0
Co19 Co 0.81002 0.06458 0.09584 0.0
O20 O 0.78578 0.07082 0.09507 0.0
C21 C 0.80912 0.03989 0.06228 0.0
C22 C 0.84011 0.09812 0.0316 0.0
C23 C 0.77873 0.07458 0.08013 0.0
O24 O 0.81191 0.05623 0.05251 0.0
O25 O 0.80924 0.04034 0.08005 0.0
O26 O 0.82981 0.11747 0.06677 0.0
O27 O 0.82962 0.091 0.08255 0.0
Co28 Co 0.91074 0.73572 0.06112 0.0
O29 O 0.90155 0.75574 0.05329 0.0
O30 O 0.90559 0.73297 0.03441 0.0
C31 C 0.8885 0.72203 0.08564 0.0
O32 O 0.91914 0.71213 0.06496 0.0
Co33 Co 0.93372 0.74411 0.09961 0.0
O34 O 0.92685 0.71332 0.09541 0.0
C35 C 0.95938 0.76923 0.06759 0.0
C36 C 0.90013 0.74799 0.03659 0.0
C37 C 0.92317 0.70407 0.0794 0.0
O38 O 0.94228 0.75868 0.05722 0.0
O39 O 0.9592 0.76668 0.08515 0.0
O40 O 0.88128 0.71475 0.06895 0.0
O41 O 0.90783 0.73928 0.08663 0.0
Co42 Co 0.17374 0.26146 0.43799 0.0
O43 O 0.14454 0.24148 0.4459 0.0
O44 O 0.1716 0.26386 0.46475 0.0
C45 C 0.16512 0.27553 0.41377 0.0
O46 O 0.20575 0.28492 0.4342 0.0
Co47 Co 0.18827 0.25364 0.39931 0.0
O48 O 0.21218 0.28443 0.40366 0.0
C49 C 0.1887 0.22791 0.4309 0.0
C50 C 0.1511 0.24894 0.46264 0.0
C51 C 0.21779 0.29328 0.4198 0.0
O52 O 0.18214 0.23831 0.44145 0.0
O53 O 0.19118 0.2308 0.41339 0.0
O54 O 0.16537 0.28266 0.43055 0.0
O55 O 0.16716 0.25827 0.41249 0.0
Co56 Co 0.73111 0.90686 0.43916 0.0
O57 O 0.74774 0.89451 0.44843 0.0
O58 O 0.7266 0.90226 0.46566 0.0
C59 C 0.71674 0.88471 0.41411 0.0
O60 O 0.711 0.91902 0.43364 0.0
Co61 Co 0.7441 0.9302 0.40116 0.0
O62 O 0.71507 0.92753 0.40337 0.0
C63 C 0.77044 0.95327 0.43418 0.0
C64 C 0.73997 0.89473 0.46465 0.0
C65 C 0.70505 0.92448 0.41869 0.0
O66 O 0.75645 0.93741 0.44412 0.0
O67 O 0.76936 0.95301 0.41645 0.0
O68 O 0.70826 0.87804 0.43035 0.0
O69 O 0.73523 0.90303 0.41405 0.0
Co70 Co 0.08744 0.80208 0.4453 0.0
O71 O 0.11422 0.81283 0.43215 0.0
O72 O 0.08169 0.79733 0.41872 0.0
C73 C 0.09871 0.83106 0.46486 0.0
O74 O 0.05643 0.78973 0.45517 0.0
Co75 Co 0.08803 0.79165 0.4869 0.0
O76 O 0.05914 0.78955 0.4863 0.0
C77 C 0.08959 0.76224 0.4587 0.0
C78 C 0.10268 0.80579 0.41703 0.0
C79 C 0.04825 0.78738 0.47155 0.0
O80 O 0.08505 0.7725 0.44657 0.0
O81 O 0.09319 0.76823 0.47581 0.0
O82 O 0.09213 0.83181 0.44819 0.0
O83 O 0.10062 0.81412 0.46818 0.0
Co84 Co 0.73748 0.81597 0.92234 0.0
O85 O 0.71922 0.82553 0.91145 0.0
O86 O 0.75382 0.83877 0.90417 0.0
C87 C 0.71362 0.77975 0.91891 0.0
O88 O 0.7606 0.80862 0.93109 0.0
Co89 Co 0.72121 0.78969 0.95883 0.0
O90 O 0.74403 0.78248 0.95262 0.0
C91 C 0.7405 0.8379 0.96008 0.0
C92 C 0.73565 0.83871 0.90146 0.0
C93 C 0.75995 0.79373 0.94183 0.0
O94 O 0.74568 0.83872 0.94288 0.0
O95 O 0.72935 0.81977 0.96867 0.0
O96 O 0.72612 0.79076 0.9053 0.0
O97 O 0.71424 0.79131 0.93326 0.0
Co98 Co 0.17107 0.92316 0.94202 0.0
O99 O 0.14158 0.90776 0.95035 0.0
O100 O 0.16576 0.89748 0.95599 0.0
C101 C 0.1783 0.957 0.95092 0.0
O102 O 0.20324 0.93586 0.93567 0.0
Co103 Co 0.18272 0.9566 0.91039 0.0
O104 O 0.21293 0.96515 0.91756 0.0
C105 C 0.16018 0.90911 0.90126 0.0
C106 C 0.14605 0.89397 0.95801 0.0
C107 C 0.2177 0.95299 0.92706 0.0
O108 O 0.16195 0.90519 0.91832 0.0
O109 O 0.16607 0.92843 0.89543 0.0
O110 O 0.17972 0.94401 0.9627 0.0
O111 O 0.17027 0.94831 0.9348 0.0
Co112 Co 0.07354 0.24926 0.93319 0.0
O113 O 0.08582 0.23272 0.94306 0.0
O114 O 0.10007 0.26871 0.94719 0.0
C115 C 0.03887 0.22604 0.94147 0.0
O116 O 0.06439 0.27128 0.92551 0.0
Co117 Co 0.04019 0.22783 0.90061 0.0
O118 O 0.03788 0.25464 0.90369 0.0
C119 C 0.08692 0.24897 0.89274 0.0
C120 C 0.10113 0.25106 0.95031 0.0
C121 C 0.05016 0.27103 0.91428 0.0
O122 O 0.09115 0.25518 0.90986 0.0
O123 O 0.06754 0.23631 0.88652 0.0
O124 O 0.05281 0.24026 0.95337 0.0
O125 O 0.04693 0.22436 0.92588 0.0
Co126 Co 0.82257 0.74952 0.56201 0.0
O127 O 0.85172 0.76609 0.55281 0.0
O128 O 0.82891 0.73091 0.54598 0.0
C129 C 0.8127 0.77469 0.55617 0.0
O130 O 0.79093 0.72768 0.56873 0.0
Co131 Co 0.81124 0.76873 0.5967 0.0
O132 O 0.7817 0.74306 0.59215 0.0
C133 C 0.83526 0.74531 0.60179 0.0
C134 C 0.84806 0.74837 0.54389 0.0
C135 C 0.77709 0.72749 0.58041 0.0
O136 O 0.83316 0.74051 0.58433 0.0
O137 O 0.82924 0.75802 0.60923 0.0
O138 O 0.81217 0.76148 0.5431 0.0
O139 O 0.82178 0.77418 0.57153 0.0
Co140 Co 0.24445 0.07311 0.55722 0.0
O141 O 0.23069 0.08872 0.54865 0.0
O142 O 0.26495 0.09835 0.54288 0.0
C143 C 0.21743 0.03921 0.54886 0.0
O144 O 0.2635 0.05998 0.56389 0.0
Co145 Co 0.22214 0.04036 0.58944 0.0
O146 O 0.24343 0.03123 0.58243 0.0
C147 C 0.24783 0.08804 0.59775 0.0
C148 C 0.24894 0.10214 0.54079 0.0
C149 C 0.26044 0.0429 0.57285 0.0
O150 O 0.25376 0.09152 0.58071 0.0
O151 O 0.23393 0.06897 0.60376 0.0
O152 O 0.23168 0.05183 0.53682 0.0
O153 O 0.21849 0.04839 0.56481 0.0
Co154 Co 0.92065 0.17587 0.57525 0.0
O155 O 0.89203 0.16604 0.5846 0.0
O156 O 0.91326 0.15339 0.59387 0.0
C157 C 0.93261 0.21212 0.578 0.0
O158 O 0.95179 0.18353 0.56845 0.0
Co159 Co 0.93334 0.20211 0.53848 0.0
O160 O 0.9629 0.21 0.54701 0.0
C161 C 0.90497 0.15374 0.53706 0.0
C162 C 0.89493 0.15327 0.59545 0.0
C163 C 0.96681 0.19875 0.55845 0.0
O164 O 0.9078 0.15294 0.55461 0.0
O165 O 0.91254 0.17184 0.52832 0.0
O166 O 0.93295 0.20122 0.59221 0.0
O167 O 0.9228 0.20034 0.56339 0.0
Co168 Co 0.94762 0.52656 0.38674 0.0
O169 O 0.95944 0.51321 0.40234 0.0
O170 O 0.94487 0.53276 0.41259 0.0
C171 C 0.92942 0.49786 0.36703 0.0
O172 O 0.93298 0.5419 0.37449 0.0
Co173 Co 0.96275 0.53596 0.34599 0.0
O174 O 0.93808 0.54143 0.34373 0.0
C175 C 0.99291 0.56297 0.37548 0.0
C176 C 0.95499 0.52212 0.41627 0.0
C177 C 0.92904 0.54488 0.35763 0.0
O178 O 0.97691 0.55404 0.38673 0.0
O179 O 0.99135 0.55744 0.35831 0.0
O180 O 0.92084 0.49837 0.38286 0.0
O181 O 0.94938 0.51334 0.36468 0.0
Co182 Co 0.48895 0.42076 0.39458 0.0
O183 O 0.51778 0.43246 0.38512 0.0
O184 O 0.48891 0.42503 0.36801 0.0
C185 C 0.49749 0.44349 0.41935 0.0
O186 O 0.45681 0.40922 0.40037 0.0
Co187 Co 0.47879 0.39819 0.43295 0.0
O188 O 0.45303 0.4019 0.4309 0.0
C189 C 0.48098 0.3741 0.40017 0.0
C190 C 0.50976 0.43227 0.36893 0.0
C191 C 0.44585 0.40463 0.41556 0.0
O192 O 0.4831 0.38991 0.39001 0.0
O193 O 0.48039 0.37474 0.41791 0.0
O194 O 0.4956 0.44994 0.40304 0.0
O195 O 0.4972 0.42495 0.41962 0.0
Co196 Co 0.57603 0.06651 0.39303 0.0
O197 O 0.56674 0.08597 0.3839 0.0
O198 O 0.5712 0.06242 0.36636 0.0
C199 C 0.55354 0.05358 0.41735 0.0
O200 O 0.58488 0.04353 0.39819 0.0
Co201 Co 0.59854 0.07667 0.43176 0.0
O202 O 0.59189 0.04578 0.42887 0.0
C203 C 0.62442 0.10071 0.39947 0.0
C204 C 0.56583 0.07759 0.36755 0.0
C205 C 0.58862 0.03604 0.41311 0.0
O206 O 0.60743 0.08962 0.3891 0.0
O207 O 0.62417 0.0988 0.41712 0.0
O208 O 0.54667 0.04542 0.4008 0.0
O209 O 0.57265 0.07114 0.41829 0.0
Co210 Co 0.83835 0.59319 0.76817 0.0
O211 O 0.80949 0.57294 0.77673 0.0
O212 O 0.8365 0.59733 0.79467 0.0
C213 C 0.82904 0.60532 0.74309 0.0
O214 O 0.86999 0.6171 0.76368 0.0
Co215 Co 0.85286 0.58352 0.73017 0.0
O216 O 0.8766 0.61461 0.73345 0.0
C217 C 0.85359 0.55961 0.76297 0.0
C218 C 0.81619 0.58169 0.79313 0.0
C219 C 0.882 0.62464 0.74915 0.0
O220 O 0.84774 0.57103 0.77297 0.0
O221 O 0.85524 0.56105 0.7453 0.0
O222 O 0.82901 0.61316 0.75952 0.0
O223 O 0.83152 0.5883 0.74274 0.0
Co224 Co 0.39737 0.23776 0.77265 0.0
O225 O 0.41335 0.22494 0.78238 0.0
O226 O 0.39232 0.23331 0.79913 0.0
C227 C 0.3832 0.21562 0.74757 0.0
O228 O 0.37798 0.25063 0.76647 0.0
Co229 Co 0.41207 0.26111 0.73475 0.0
O230 O 0.38329 0.25911 0.73619 0.0
C231 C 0.43764 0.28371 0.76814 0.0
C232 C 0.40551 0.22553 0.79847 0.0
C233 C 0.3728 0.25631 0.75121 0.0
O234 O 0.42304 0.26802 0.77782 0.0
O235 O 0.43717 0.28359 0.75038 0.0
O236 O 0.3743 0.20912 0.7637 0.0
O237 O 0.4019 0.23372 0.7477 0.0
Co238 Co 0.75338 0.12738 0.78203 0.0
O239 O 0.77998 0.13953 0.76835 0.0
O240 O 0.7471 0.12329 0.75551 0.0
C241 C 0.76408 0.15565 0.80233 0.0
O242 O 0.72242 0.11366 0.79234 0.0
Co243 Co 0.75508 0.11568 0.82299 0.0
O244 O 0.72469 0.10974 0.82309 0.0
C245 C 0.75829 0.08858 0.79358 0.0
C246 C 0.76812 0.13257 0.75339 0.0
C247 C 0.71384 0.10863 0.80861 0.0
O248 O 0.75237 0.09838 0.78213 0.0
O249 O 0.76212 0.09412 0.81076 0.0
O250 O 0.7569 0.15649 0.78594 0.0
O251 O 0.76684 0.13908 0.80497 0.0
Co252 Co 0.4069 0.15335 0.25802 0.0
O253 O 0.38608 0.16108 0.24979 0.0
O254 O 0.42013 0.1769 0.24003 0.0
C255 C 0.38483 0.1168 0.2544 0.0
O256 O 0.43242 0.14845 0.26358 0.0
Co257 Co 0.39666 0.1257 0.29373 0.0
O258 O 0.41977 0.12059 0.28385 0.0
C259 C 0.41275 0.17343 0.29698 0.0
C260 C 0.40104 0.17525 0.2391 0.0
C261 C 0.43406 0.13355 0.27248 0.0
O262 O 0.41561 0.1752 0.27932 0.0
O263 O 0.4041 0.15493 0.30524 0.0
O264 O 0.39548 0.1287 0.24038 0.0
O265 O 0.38611 0.12751 0.26953 0.0
Co266 Co 0.83779 0.25475 0.27518 0.0
O267 O 0.80757 0.23883 0.28147 0.0
O268 O 0.83151 0.22894 0.28931 0.0
C269 C 0.84377 0.28829 0.28377 0.0
O270 O 0.8705 0.26786 0.27131 0.0
Co271 Co 0.85295 0.28943 0.24404 0.0
O272 O 0.88216 0.29852 0.25452 0.0
C273 C 0.83144 0.24208 0.23401 0.0
C274 C 0.81161 0.22519 0.28999 0.0
C275 C 0.88583 0.28578 0.2643 0.0
O276 O 0.83128 0.23746 0.25121 0.0
O277 O 0.83797 0.26164 0.2284 0.0
O278 O 0.84403 0.27507 0.29599 0.0
O279 O 0.83764 0.27997 0.26724 0.0
Co280 Co 0.73675 0.57937 0.26766 0.0
O281 O 0.74984 0.56291 0.27602 0.0
O282 O 0.76245 0.59815 0.28282 0.0
C283 C 0.70201 0.55423 0.27458 0.0
O284 O 0.72667 0.6012 0.26175 0.0
Co285 Co 0.70464 0.56011 0.23399 0.0
O286 O 0.70125 0.58601 0.23892 0.0
C287 C 0.75176 0.58326 0.22727 0.0
C288 C 0.76437 0.58078 0.28449 0.0
C289 C 0.71269 0.60151 0.25056 0.0
O290 O 0.75524 0.58818 0.24468 0.0
O291 O 0.73271 0.57059 0.2204 0.0
O292 O 0.7153 0.56753 0.28732 0.0
O293 O 0.71086 0.55465 0.25881 0.0
Co294 Co 0.4903 0.0841 0.89712 0.0
O295 O 0.51911 0.10011 0.88719 0.0
O296 O 0.49611 0.06464 0.88163 0.0
C297 C 0.48052 0.1092 0.8907 0.0
O298 O 0.45874 0.0629 0.90472 0.0
Co299 Co 0.4803 0.10501 0.93136 0.0
O300 O 0.45001 0.08185 0.92504 0.0
C301 C 0.50363 0.08098 0.93699 0.0
C302 C 0.51515 0.082 0.87883 0.0
C303 C 0.44477 0.06491 0.91476 0.0
O304 O 0.50142 0.07592 0.91958 0.0
O305 O 0.49771 0.09384 0.94428 0.0
O306 O 0.47946 0.09539 0.87796 0.0
O307 O 0.49007 0.10926 0.90598 0.0
Co308 Co 0.90735 0.4016 0.89182 0.0
O309 O 0.89039 0.41405 0.88357 0.0
O310 O 0.92506 0.42707 0.87661 0.0
C311 C 0.88251 0.36631 0.88465 0.0
O312 O 0.9295 0.3921 0.89761 0.0
Co313 Co 0.88995 0.36974 0.9251 0.0
O314 O 0.91526 0.36613 0.91957 0.0
C315 C 0.91164 0.41759 0.93215 0.0
C316 C 0.90753 0.42842 0.87484 0.0
C317 C 0.93032 0.37796 0.90824 0.0
O318 O 0.91641 0.42089 0.91486 0.0
O319 O 0.89954 0.39836 0.93876 0.0
O320 O 0.89531 0.37943 0.87204 0.0
O321 O 0.88341 0.37554 0.90054 0.0
Co322 Co 0.58416 0.50703 0.9096 0.0
O323 O 0.55586 0.49799 0.9193 0.0
O324 O 0.57675 0.48498 0.92861 0.0
C325 C 0.59647 0.54333 0.91181 0.0
O326 O 0.61489 0.51375 0.90259 0.0
Co327 Co 0.59746 0.53257 0.87265 0.0
O328 O 0.627 0.54095 0.88176 0.0
C329 C 0.56836 0.48419 0.87173 0.0
C330 C 0.5587 0.48537 0.93039 0.0
C331 C 0.63028 0.52917 0.89308 0.0
O332 O 0.57069 0.48369 0.8894 0.0
O333 O 0.57661 0.50213 0.86267 0.0
O334 O 0.59721 0.53275 0.92609 0.0
O335 O 0.58644 0.5314 0.89732 0.0
Co336 Co 0.6193 0.862 0.71562 0.0
O337 O 0.63023 0.84746 0.73073 0.0
O338 O 0.61797 0.86877 0.74165 0.0
C339 C 0.59897 0.83349 0.69634 0.0
O340 O 0.60584 0.87877 0.70384 0.0
Co341 Co 0.63316 0.8701 0.67458 0.0
O342 O 0.60951 0.87715 0.67296 0.0
C343 C 0.66498 0.8965 0.70321 0.0
C344 C 0.62708 0.85705 0.74491 0.0
C345 C 0.6015 0.88161 0.68707 0.0
O346 O 0.64944 0.88824 0.71494 0.0
O347 O 0.66252 0.89088 0.68603 0.0
O348 O 0.59134 0.83495 0.71239 0.0
O349 O 0.61924 0.8478 0.69348 0.0
Co350 Co 0.15213 0.75151 0.72894 0.0
O351 O 0.18115 0.76167 0.72056 0.0
O352 O 0.15377 0.75661 0.70243 0.0
C353 C 0.16079 0.77389 0.75395 0.0
O354 O 0.12015 0.74185 0.73352 0.0
Co355 Co 0.13861 0.72804 0.76685 0.0
O356 O 0.11462 0.73442 0.76397 0.0
C357 C 0.14052 0.70358 0.73418 0.0
C358 C 0.17428 0.76256 0.70412 0.0
C359 C 0.10866 0.73793 0.74833 0.0
O360 O 0.14447 0.72011 0.72414 0.0
O361 O 0.13892 0.70381 0.75187 0.0
O362 O 0.16024 0.78102 0.73758 0.0
O363 O 0.1591 0.75468 0.75426 0.0
Co364 Co 0.24671 0.40326 0.72728 0.0
O365 O 0.23804 0.42346 0.71873 0.0
O366 O 0.24293 0.40075 0.70046 0.0
C367 C 0.2232 0.38917 0.75089 0.0
O368 O 0.25505 0.37974 0.73172 0.0
Co369 Co 0.2677 0.41103 0.76657 0.0
O370 O 0.26134 0.3804 0.76241 0.0
C371 C 0.29482 0.43707 0.73553 0.0
C372 C 0.23762 0.41592 0.70211 0.0
C373 C 0.25855 0.37152 0.74631 0.0
O374 O 0.27834 0.42642 0.72454 0.0
O375 O 0.29382 0.43419 0.75307 0.0
O376 O 0.2169 0.38213 0.73399 0.0
O377 O 0.24246 0.40643 0.75259 0.0
Co378 Co 0.5081 0.92717 0.10183 0.0
O379 O 0.47904 0.9068 0.10982 0.0
O380 O 0.5057 0.93044 0.12842 0.0
C381 C 0.49923 0.94004 0.07694 0.0
O382 O 0.53987 0.95114 0.09791 0.0
Co383 Co 0.52317 0.91838 0.06377 0.0
O384 O 0.5469 0.94933 0.06768 0.0
C385 C 0.52367 0.89389 0.09622 0.0
C386 C 0.48538 0.91494 0.12644 0.0
C387 C 0.55212 0.95897 0.08355 0.0
O388 O 0.51726 0.90478 0.10628 0.0
O389 O 0.52593 0.89595 0.07862 0.0
O390 O 0.49902 0.94749 0.0935 0.0
O391 O 0.5017 0.92301 0.0763 0.0
Co392 Co 0.0615 0.57148 0.10457 0.0
O393 O 0.07939 0.56071 0.11416 0.0
O394 O 0.05702 0.56697 0.13111 0.0
C395 C 0.04814 0.54885 0.07964 0.0
O396 O 0.04014 0.58205 0.09858 0.0
Co397 Co 0.07385 0.59438 0.06632 0.0
O398 O 0.04397 0.58968 0.06811 0.0
C399 C 0.09905 0.6189 0.0994 0.0
C400 C 0.07131 0.56059 0.1303 0.0
C401 C 0.03378 0.58655 0.08334 0.0
O402 O 0.08571 0.60268 0.10939 0.0
O403 O 0.09805 0.61843 0.08166 0.0
O404 O 0.03976 0.54207 0.0959 0.0
O405 O 0.06609 0.5677 0.07955 0.0
Co406 Co 0.42186 0.46608 0.11912 0.0
O407 O 0.44861 0.47916 0.10561 0.0
O408 O 0.41579 0.46222 0.0926 0.0
C409 C 0.43157 0.49376 0.13979 0.0
O410 O 0.39073 0.45139 0.12922 0.0
Co411 Co 0.42309 0.45374 0.15998 0.0
O412 O 0.39369 0.4504 0.16023 0.0
C413 C 0.4269 0.42719 0.1304 0.0
C414 C 0.43686 0.47202 0.09059 0.0
C415 C 0.38254 0.44818 0.14565 0.0
O416 O 0.42193 0.43764 0.11884 0.0
O417 O 0.42941 0.43161 0.14781 0.0
O418 O 0.42446 0.49474 0.1234 0.0
O419 O 0.43486 0.47749 0.14224 0.0
Co420 Co 0.07448 0.48463 0.59093 0.0
O421 O 0.05155 0.48908 0.58243 0.0
O422 O 0.08557 0.50822 0.57286 0.0
C423 C 0.05534 0.44771 0.58748 0.0
O424 O 0.10198 0.48316 0.59672 0.0
Co425 Co 0.06647 0.45787 0.62699 0.0
O426 O 0.09239 0.45692 0.61828 0.0
C427 C 0.07769 0.50435 0.62971 0.0
C428 C 0.06554 0.50409 0.57166 0.0
C429 C 0.10576 0.47023 0.60654 0.0
O430 O 0.08102 0.50627 0.61211 0.0
O431 O 0.07032 0.48602 0.63807 0.0
O432 O 0.06524 0.46003 0.57344 0.0
O433 O 0.0556 0.4581 0.60252 0.0
Co434 Co 0.50279 0.5907 0.60568 0.0
O435 O 0.47374 0.57607 0.61498 0.0
O436 O 0.49793 0.56581 0.6206 0.0
C437 C 0.51063 0.62507 0.6134 0.0
O438 O 0.53458 0.60278 0.59843 0.0
Co439 Co 0.51288 0.62214 0.57271 0.0
O440 O 0.5432 0.62908 0.57722 0.0
C441 C 0.4894 0.57426 0.56567 0.0
C442 C 0.47841 0.56265 0.62307 0.0
C443 C 0.54837 0.61802 0.58777 0.0
O444 O 0.49249 0.57139 0.58271 0.0
O445 O 0.4947 0.59317 0.55922 0.0
O446 O 0.51249 0.61267 0.62553 0.0
O447 O 0.50182 0.61555 0.5977 0.0
Co448 Co 0.40457 0.91384 0.60344 0.0
O449 O 0.41981 0.89844 0.60871 0.0
O450 O 0.43146 0.93309 0.61704 0.0
C451 C 0.37139 0.8869 0.6124 0.0
O452 O 0.39251 0.93471 0.60081 0.0
Co453 Co 0.36768 0.89487 0.57338 0.0
O454 O 0.36027 0.91557 0.58576 0.0
C455 C 0.41377 0.92067 0.56196 0.0
C456 C 0.43448 0.9163 0.61711 0.0
C457 C 0.37425 0.93238 0.59511 0.0
O458 O 0.42011 0.92393 0.57903 0.0
O459 O 0.39378 0.90882 0.55687 0.0
O460 O 0.38557 0.90031 0.62457 0.0
O461 O 0.3785 0.88868 0.59566 0.0
Co462 Co 0.15743 0.41883 0.23069 0.0
O463 O 0.18705 0.43423 0.22244 0.0
O464 O 0.16356 0.39912 0.21601 0.0
C465 C 0.14919 0.44476 0.22298 0.0
O466 O 0.12522 0.39811 0.23655 0.0
Co467 Co 0.14488 0.43957 0.26343 0.0
O468 O 0.11506 0.41785 0.25454 0.0
C469 C 0.16692 0.41466 0.27149 0.0
C470 C 0.1831 0.41607 0.21414 0.0
C471 C 0.11052 0.40075 0.24472 0.0
O472 O 0.16628 0.40991 0.2541 0.0
O473 O 0.16056 0.42754 0.27793 0.0
O474 O 0.14874 0.43095 0.21055 0.0
O475 O 0.15724 0.44425 0.23893 0.0
Co476 Co 0.57359 0.73667 0.22753 0.0
O477 O 0.5584 0.75068 0.21848 0.0
O478 O 0.59267 0.76117 0.21189 0.0
C479 C 0.54719 0.70181 0.22105 0.0
O480 O 0.59398 0.72521 0.23422 0.0
Co481 Co 0.55418 0.70619 0.26153 0.0
O482 O 0.57759 0.69951 0.25614 0.0
C483 C 0.57861 0.7543 0.26738 0.0
C484 C 0.57604 0.76398 0.20974 0.0
C485 C 0.59324 0.71038 0.245 0.0
O486 O 0.5836 0.75671 0.25011 0.0
O487 O 0.56548 0.73557 0.2744 0.0
O488 O 0.56047 0.71396 0.20825 0.0
O489 O 0.54861 0.7119 0.23661 0.0
Co490 Co 0.25139 0.84411 0.23784 0.0
O491 O 0.22459 0.8357 0.25019 0.0
O492 O 0.24525 0.82114 0.25573 0.0
C493 C 0.26558 0.88063 0.24138 0.0
O494 O 0.28074 0.85013 0.22735 0.0
Co495 Co 0.25916 0.87013 0.20138 0.0
O496 O 0.28878 0.87465 0.20457 0.0
C497 C 0.22949 0.82211 0.20078 0.0
C498 C 0.22777 0.82203 0.25951 0.0
C499 C 0.29385 0.86346 0.21507 0.0
O500 O 0.23489 0.82136 0.21767 0.0
O501 O 0.23612 0.84018 0.1922 0.0
O502 O 0.26724 0.8693 0.25464 0.0
O503 O 0.25323 0.86926 0.22754 0.0
H504 H 0.29818 0.21992 0.11295 0.0
H505 H 0.31799 0.22228 0.14167 0.0
H506 H 0.3221 0.16572 0.12353 0.0
H507 H 0.30233 0.16318 0.09511 0.0
H508 H 0.31065 0.16449 0.16072 0.0
H509 H 0.38432 0.24429 0.1434 0.0
H510 H 0.35878 0.2438 0.14332 0.0
H511 H 0.36347 0.22766 0.12642 0.0
C512 C 0.30296 0.20776 0.1153 0.0
C513 C 0.29872 0.19137 0.10178 0.0
C514 C 0.31451 0.2093 0.13157 0.0
C515 C 0.32189 0.19443 0.13455 0.0
C516 C 0.31672 0.17747 0.12145 0.0
H517 H 0.41655 0.18692 0.2038 0.0
H518 H 0.39861 0.19539 0.17874 0.0
C519 C 0.30535 0.17601 0.10523 0.0
C520 C 0.33515 0.1963 0.15112 0.0
H521 H 0.38535 0.22798 0.17149 0.0
C522 C 0.32689 0.17847 0.16318 0.0
C523 C 0.3565 0.2144 0.15409 0.0
C524 C 0.36647 0.2336 0.14109 0.0
C525 C 0.33942 0.17808 0.17803 0.0
C526 C 0.3607 0.19625 0.18115 0.0
C527 C 0.36898 0.21419 0.16916 0.0
C528 C 0.37455 0.19627 0.19655 0.0
C529 C 0.32999 0.15785 0.18991 0.0
C530 C 0.36775 0.19525 0.21494 0.0
C531 C 0.37781 0.19028 0.22913 0.0
C532 C 0.3951 0.1866 0.22526 0.0
C533 C 0.40336 0.18983 0.20717 0.0
C534 C 0.39306 0.19456 0.19286 0.0
H535 H 0.3157 0.1435 0.18315 0.0
H536 H 0.34242 0.1532 0.193 0.0
H537 H 0.32454 0.16143 0.20327 0.0
H538 H 0.35375 0.1969 0.21813 0.0
H539 H 0.37121 0.18802 0.24299 0.0
H540 H 0.82984 0.09699 0.1186 0.0
H541 H 0.82563 0.11451 0.14682 0.0
H542 H 0.82852 0.16669 0.11407 0.0
H543 H 0.83256 0.14936 0.08597 0.0
H544 H 0.85336 0.15827 0.16139 0.0
H545 H 0.77115 0.14313 0.14319 0.0
H546 H 0.783 0.12848 0.13206 0.0
H547 H 0.7906 0.15585 0.12498 0.0
C548 C 0.82971 0.11226 0.11747 0.0
C549 C 0.83136 0.12173 0.10009 0.0
C550 C 0.82723 0.12218 0.13355 0.0
C551 C 0.82625 0.14157 0.1324 0.0
C552 C 0.8287 0.15142 0.11516 0.0
H553 H 0.82912 0.2445 0.19627 0.0
H554 H 0.82498 0.21689 0.17308 0.0
C555 C 0.83119 0.14159 0.09914 0.0
C556 C 0.82311 0.15198 0.14915 0.0
H557 H 0.7908 0.17073 0.16684 0.0
C558 C 0.83951 0.16067 0.16282 0.0
C559 C 0.80495 0.15495 0.15091 0.0
C560 C 0.7863 0.14492 0.13709 0.0
C561 C 0.83886 0.17342 0.17771 0.0
C562 C 0.82119 0.17726 0.17899 0.0
C563 C 0.80433 0.16778 0.16574 0.0
C564 C 0.82095 0.19258 0.19311 0.0
C565 C 0.8576 0.18364 0.19143 0.0
C566 C 0.81926 0.18765 0.212 0.0
C567 C 0.82159 0.20338 0.22533 0.0
C568 C 0.82569 0.22431 0.21995 0.0
C569 C 0.82615 0.22865 0.20093 0.0
C570 C 0.82375 0.21289 0.18764 0.0
H571 H 0.87156 0.18189 0.18681 0.0
H572 H 0.86336 0.20145 0.19363 0.0
H573 H 0.85201 0.17545 0.20498 0.0
H574 H 0.81678 0.1719 0.21643 0.0
H575 H 0.82099 0.19938 0.23984 0.0
H576 H 0.79417 0.61446 0.23574 0.0
H577 H 0.82258 0.63814 0.21408 0.0
H578 H 0.77967 0.60282 0.16798 0.0
H579 H 0.75123 0.57889 0.1894 0.0
H580 H 0.82398 0.61423 0.16267 0.0
H581 H 0.81623 0.68573 0.18655 0.0
H582 H 0.82229 0.67172 0.2041 0.0
H583 H 0.79642 0.65769 0.19224 0.0
C584 C 0.79085 0.61142 0.22099 0.0
C585 C 0.77024 0.59491 0.21434 0.0
C586 C 0.8071 0.62509 0.20864 0.0
C587 C 0.80302 0.62252 0.18947 0.0
C588 C 0.78306 0.60516 0.18275 0.0
H589 H 0.84959 0.68366 0.08599 0.0
H590 H 0.8315 0.66037 0.11243 0.0
C591 C 0.76681 0.59149 0.19505 0.0
C592 C 0.81883 0.63866 0.17634 0.0
H593 H 0.84019 0.6917 0.16201 0.0
C594 C 0.82772 0.63123 0.16263 0.0
C595 C 0.82371 0.66085 0.17638 0.0
C596 C 0.81409 0.66955 0.19049 0.0
C597 C 0.84099 0.64528 0.14867 0.0
C598 C 0.84509 0.66718 0.14825 0.0
C599 C 0.83696 0.67489 0.16239 0.0
C600 C 0.85623 0.6817 0.13244 0.0
C601 C 0.8503 0.63651 0.13436 0.0
C602 C 0.87576 0.70185 0.13505 0.0
C603 C 0.88613 0.71535 0.11991 0.0
C604 C 0.87699 0.70893 0.102 0.0
C605 C 0.85712 0.68904 0.09959 0.0
C606 C 0.84684 0.67559 0.11466 0.0
H607 H 0.85121 0.62222 0.13961 0.0
H608 H 0.83959 0.63085 0.12186 0.0
H609 H 0.86685 0.64949 0.13014 0.0
H610 H 0.88312 0.70695 0.14873 0.0
H611 H 0.90142 0.7306 0.12218 0.0
H612 H 0.16268 0.3129 0.41379 0.0
H613 H 0.16654 0.33597 0.38749 0.0
H614 H 0.17433 0.29137 0.35083 0.0
H615 H 0.17018 0.26792 0.37715 0.0
H616 H 0.20257 0.35705 0.36374 0.0
H617 H 0.12661 0.29846 0.32515 0.0
H618 H 0.13105 0.29466 0.34912 0.0
H619 H 0.14444 0.28827 0.33104 0.0
C620 C 0.16501 0.30784 0.40011 0.0
C621 C 0.16605 0.28853 0.39753 0.0
C622 C 0.1673 0.32111 0.38511 0.0
C623 C 0.17059 0.31533 0.3672 0.0
C624 C 0.17149 0.29597 0.3645 0.0
H625 H 0.17649 0.38206 0.26407 0.0
H626 H 0.18088 0.35881 0.28643 0.0
C627 C 0.16915 0.28261 0.37955 0.0
C628 C 0.17345 0.32995 0.35156 0.0
H629 H 0.14915 0.33302 0.3118 0.0
C630 C 0.19097 0.35177 0.3523 0.0
C631 C 0.15838 0.32297 0.33663 0.0
C632 C 0.13895 0.29988 0.3354 0.0
C633 C 0.19362 0.36694 0.33867 0.0
C634 C 0.17812 0.36018 0.3241 0.0
C635 C 0.16102 0.33816 0.323 0.0
C636 C 0.17833 0.37598 0.3106 0.0
C637 C 0.21292 0.39009 0.34005 0.0
C638 C 0.1758 0.39358 0.31678 0.0
C639 C 0.17329 0.40694 0.30406 0.0
C640 C 0.17311 0.40286 0.28486 0.0
C641 C 0.17657 0.38575 0.27873 0.0
C642 C 0.17903 0.37237 0.29148 0.0
H643 H 0.22648 0.39071 0.34821 0.0
H644 H 0.21901 0.39683 0.32609 0.0
H645 H 0.20792 0.40091 0.34722 0.0
H646 H 0.17481 0.39643 0.33146 0.0
H647 H 0.17062 0.4199 0.30933 0.0
H648 H 0.61239 0.79544 0.25908 0.0
H649 H 0.63681 0.82428 0.28109 0.0
H650 H 0.59715 0.78565 0.32646 0.0
H651 H 0.57254 0.75674 0.30467 0.0
H652 H 0.61484 0.83369 0.32956 0.0
H653 H 0.67655 0.80932 0.31333 0.0
H654 H 0.66536 0.8166 0.29419 0.0
H655 H 0.64818 0.79216 0.30695 0.0
C656 C 0.60854 0.79323 0.2737 0.0
C657 C 0.59068 0.77355 0.28013 0.0
C658 C 0.62258 0.80973 0.28624 0.0
C659 C 0.61894 0.80683 0.30535 0.0
C660 C 0.60025 0.78807 0.31173 0.0
H661 H 0.67533 0.84995 0.41156 0.0
H662 H 0.65299 0.8343 0.38363 0.0
C663 C 0.58623 0.77154 0.29923 0.0
C664 C 0.63557 0.82206 0.31887 0.0
H665 H 0.68499 0.83531 0.33741 0.0
C666 C 0.63032 0.83432 0.33114 0.0
C667 C 0.65573 0.8228 0.32082 0.0
C668 C 0.66188 0.80946 0.30824 0.0
C669 C 0.64451 0.84687 0.34571 0.0
C670 C 0.66416 0.84673 0.34819 0.0
C671 C 0.66987 0.83531 0.33541 0.0
C672 C 0.67795 0.85654 0.36491 0.0
C673 C 0.6382 0.85986 0.35854 0.0
C674 C 0.69964 0.87374 0.36352 0.0
C675 C 0.71255 0.88269 0.3795 0.0
C676 C 0.70396 0.87436 0.39702 0.0
C677 C 0.68241 0.85675 0.39826 0.0
C678 C 0.66954 0.84792 0.38235 0.0
H679 H 0.62637 0.86353 0.3518 0.0
H680 H 0.63039 0.85004 0.37105 0.0
H681 H 0.65274 0.87564 0.36309 0.0
H682 H 0.70646 0.88038 0.35011 0.0
H683 H 0.72911 0.89625 0.37815 0.0
H684 H 0.08357 0.78925 0.38272 0.0
H685 H 0.10155 0.78597 0.35464 0.0
H686 H 0.16325 0.81757 0.38375 0.0
H687 H 0.14572 0.82113 0.41152 0.0
H688 H 0.1407 0.82291 0.33583 0.0
H689 H 0.15475 0.75733 0.36231 0.0
H690 H 0.13404 0.76242 0.37156 0.0
H691 H 0.16213 0.7803 0.37796 0.0
C692 C 0.10098 0.79567 0.38304 0.0
C693 C 0.11318 0.80542 0.39937 0.0
C694 C 0.1112 0.79368 0.36706 0.0
C695 C 0.13364 0.80113 0.3673 0.0
C696 C 0.14585 0.81133 0.3834 0.0
H697 H 0.23779 0.81954 0.29562 0.0
H698 H 0.2128 0.81081 0.32185 0.0
C699 C 0.13577 0.81349 0.39923 0.0
C700 C 0.14475 0.79896 0.35069 0.0
H701 H 0.17401 0.77557 0.33511 0.0
C702 C 0.1477 0.81231 0.3355 0.0
C703 C 0.15409 0.78533 0.35048 0.0
C704 C 0.15101 0.77037 0.36637 0.0
C705 C 0.16045 0.81306 0.32035 0.0
C706 C 0.16997 0.79953 0.32014 0.0
C707 C 0.16665 0.78584 0.33523 0.0
C708 C 0.18409 0.80019 0.30465 0.0
C709 C 0.16444 0.82915 0.30512 0.0
C710 C 0.17601 0.79572 0.28638 0.0
C711 C 0.19024 0.80088 0.2715 0.0
C712 C 0.2127 0.80998 0.27462 0.0
C713 C 0.22049 0.81222 0.29288 0.0
C714 C 0.20624 0.80741 0.30784 0.0
H715 H 0.16085 0.84215 0.30969 0.0
H716 H 0.18159 0.83727 0.30039 0.0
H717 H 0.15362 0.82014 0.29311 0.0
H718 H 0.1589 0.78958 0.28359 0.0
H719 H 0.18389 0.79908 0.25751 0.0
H720 H 0.63872 0.88712 0.7737 0.0
H721 H 0.65974 0.88961 0.80167 0.0
H722 H 0.65834 0.82976 0.78483 0.0
H723 H 0.63756 0.82721 0.75699 0.0
H724 H 0.6481 0.83295 0.82365 0.0
H725 H 0.72569 0.90502 0.8 0.0
H726 H 0.70138 0.90692 0.79896 0.0
H727 H 0.70377 0.88755 0.78411 0.0
C728 C 0.64254 0.87428 0.77618 0.0
C729 C 0.63642 0.85691 0.76321 0.0
C730 C 0.65477 0.87588 0.79202 0.0
C731 C 0.66086 0.86004 0.79513 0.0
C732 C 0.65394 0.84223 0.7826 0.0
H733 H 0.74994 0.8443 0.86559 0.0
H734 H 0.73378 0.85345 0.83951 0.0
C735 C 0.64198 0.84075 0.76675 0.0
C736 C 0.67448 0.86176 0.81137 0.0
H737 H 0.72649 0.89009 0.82892 0.0
C738 C 0.66517 0.84556 0.82491 0.0
C739 C 0.69684 0.87804 0.81277 0.0
C740 C 0.70769 0.89536 0.79818 0.0
C741 C 0.67762 0.84509 0.8398 0.0
C742 C 0.69997 0.86145 0.84133 0.0
C743 C 0.70934 0.8777 0.82778 0.0
C744 C 0.71365 0.86129 0.85682 0.0
C745 C 0.66683 0.82668 0.85353 0.0
C746 C 0.70868 0.86397 0.87514 0.0
C747 C 0.71773 0.85864 0.88992 0.0
C748 C 0.73223 0.85092 0.88667 0.0
C749 C 0.73901 0.85047 0.86846 0.0
C750 C 0.72969 0.85556 0.85357 0.0
H751 H 0.65109 0.81286 0.84814 0.0
H752 H 0.67764 0.82011 0.85707 0.0
H753 H 0.66349 0.83316 0.86649 0.0
H754 H 0.6966 0.86868 0.87796 0.0
H755 H 0.71224 0.85912 0.90385 0.0
H756 H 0.14724 0.86591 0.90786 0.0
H757 H 0.14177 0.83749 0.88498 0.0
H758 H 0.15202 0.8822 0.84078 0.0
H759 H 0.1574 0.91076 0.86346 0.0
H760 H 0.1174 0.83644 0.83444 0.0
H761 H 0.19658 0.84557 0.85698 0.0
H762 H 0.17659 0.83957 0.87465 0.0
H763 H 0.18876 0.86558 0.86321 0.0
C764 C 0.14799 0.86965 0.89327 0.0
C765 C 0.15313 0.89079 0.88752 0.0
C766 C 0.14491 0.85338 0.88024 0.0
C767 C 0.14692 0.85796 0.86128 0.0
C768 C 0.15054 0.87845 0.85541 0.0
H769 H 0.16086 0.81253 0.75582 0.0
H770 H 0.15547 0.8301 0.78311 0.0
C771 C 0.15363 0.89476 0.86841 0.0
C772 C 0.14707 0.84221 0.84755 0.0
H773 H 0.17862 0.82167 0.83169 0.0
C774 C 0.13063 0.83298 0.83392 0.0
C775 C 0.16435 0.83773 0.84703 0.0
C776 C 0.1827 0.84769 0.86114 0.0
C777 C 0.13129 0.81974 0.81947 0.0
C778 C 0.14909 0.8161 0.81848 0.0
C779 C 0.16504 0.82456 0.83253 0.0
C780 C 0.15246 0.80525 0.80214 0.0
C781 C 0.11308 0.80998 0.80524 0.0
C782 C 0.15342 0.78591 0.80397 0.0
C783 C 0.15671 0.77588 0.78836 0.0
C784 C 0.15921 0.78518 0.77078 0.0
C785 C 0.15887 0.80489 0.76916 0.0
C786 C 0.15558 0.81485 0.7847 0.0
H787 H 0.09788 0.80853 0.81089 0.0
H788 H 0.11794 0.82091 0.79309 0.0
H789 H 0.10959 0.79341 0.80038 0.0
H790 H 0.15133 0.77845 0.8174 0.0
H791 H 0.15693 0.76071 0.79001 0.0
H792 H 0.0848 0.24171 0.85514 0.0
H793 H 0.11154 0.26515 0.83237 0.0
H794 H 0.156 0.30446 0.87641 0.0
H795 H 0.12948 0.28105 0.89938 0.0
H796 H 0.12481 0.31086 0.83274 0.0
H797 H 0.19575 0.29813 0.83764 0.0
H798 H 0.16891 0.27802 0.84559 0.0
H799 H 0.18566 0.30257 0.85919 0.0
C800 C 0.10048 0.25494 0.86005 0.0
C801 C 0.10483 0.25962 0.87915 0.0
C802 C 0.11574 0.26835 0.84698 0.0
C803 C 0.1357 0.28654 0.85272 0.0
C804 C 0.14078 0.29035 0.8717 0.0
H805 H 0.23452 0.3963 0.78784 0.0
H806 H 0.21392 0.37264 0.81375 0.0
C807 C 0.12553 0.27693 0.88482 0.0
C808 C 0.14973 0.30305 0.83898 0.0
H809 H 0.19959 0.32685 0.81839 0.0
C810 C 0.14115 0.31433 0.82958 0.0
C811 C 0.17115 0.3078 0.83517 0.0
C812 C 0.18096 0.29593 0.8448 0.0
C813 C 0.15331 0.33008 0.81626 0.0
C814 C 0.17448 0.33434 0.81198 0.0
C815 C 0.18333 0.3235 0.82172 0.0
C816 C 0.18699 0.3489 0.79657 0.0
C817 C 0.14341 0.34207 0.80694 0.0
C818 C 0.17869 0.34329 0.77842 0.0
C819 C 0.1903 0.35673 0.76371 0.0
C820 C 0.21055 0.37599 0.76683 0.0
C821 C 0.21889 0.38164 0.78504 0.0
C822 C 0.20722 0.36811 0.79981 0.0
H823 H 0.13027 0.34184 0.81544 0.0
H824 H 0.15594 0.35949 0.8043 0.0
H825 H 0.13614 0.33381 0.79343 0.0
H826 H 0.16329 0.32834 0.77558 0.0
H827 H 0.18349 0.35182 0.74984 0.0
H828 H 0.84518 0.71339 0.59232 0.0
H829 H 0.84963 0.68899 0.61338 0.0
H830 H 0.84486 0.72504 0.66034 0.0
H831 H 0.84072 0.74969 0.63954 0.0
H832 H 0.87619 0.71189 0.66493 0.0
H833 H 0.79563 0.64238 0.64106 0.0
H834 H 0.8158 0.65595 0.62348 0.0
H835 H 0.8048 0.67067 0.63552 0.0
C836 C 0.84551 0.71644 0.60712 0.0
C837 C 0.84224 0.73334 0.61421 0.0
C838 C 0.84791 0.70236 0.61913 0.0
C839 C 0.84704 0.70491 0.63839 0.0
C840 C 0.84539 0.7227 0.6455 0.0
H841 H 0.82882 0.64379 0.74159 0.0
H842 H 0.83509 0.66675 0.7147 0.0
C843 C 0.84302 0.73678 0.63355 0.0
C844 C 0.84621 0.68829 0.65125 0.0
H845 H 0.81289 0.63553 0.66563 0.0
C846 C 0.8625 0.69511 0.66494 0.0
C847 C 0.82833 0.66638 0.65121 0.0
C848 C 0.81002 0.65834 0.63714 0.0
C849 C 0.86106 0.6808 0.67893 0.0
C850 C 0.84268 0.65927 0.67937 0.0
C851 C 0.82693 0.65208 0.6652 0.0
C852 C 0.8385 0.64482 0.6954 0.0
C853 C 0.87899 0.68897 0.69335 0.0
C854 C 0.83754 0.62445 0.6933 0.0
C855 C 0.83384 0.61115 0.70871 0.0
C856 C 0.83087 0.618 0.72636 0.0
C857 C 0.83113 0.63807 0.72821 0.0
C858 C 0.8349 0.65132 0.71289 0.0
H859 H 0.89448 0.70297 0.6882 0.0
H860 H 0.87413 0.69483 0.70583 0.0
H861 H 0.88195 0.67557 0.69756 0.0
H862 H 0.84004 0.61906 0.67984 0.0
H863 H 0.83371 0.59576 0.70687 0.0
H864 H 0.34349 0.17842 0.7445 0.0
H865 H 0.32149 0.16227 0.71646 0.0
H866 H 0.37229 0.21315 0.68378 0.0
H867 H 0.39468 0.22929 0.71185 0.0
H868 H 0.30665 0.1828 0.69189 0.0
H869 H 0.35913 0.15567 0.65676 0.0
H870 H 0.36217 0.16327 0.68107 0.0
H871 H 0.37221 0.18423 0.66383 0.0
C872 C 0.35011 0.18607 0.73133 0.0
C873 C 0.37084 0.20508 0.73035 0.0
C874 C 0.33746 0.17689 0.71535 0.0
C875 C 0.34531 0.18648 0.69808 0.0
C876 C 0.36608 0.20536 0.69697 0.0
H877 H 0.28174 0.12972 0.59137 0.0
H878 H 0.30481 0.15758 0.61457 0.0
C879 C 0.37882 0.21455 0.713 0.0
C880 C 0.33144 0.17659 0.68138 0.0
H881 H 0.32678 0.14781 0.64144 0.0
C882 C 0.31111 0.17532 0.68075 0.0
C883 C 0.33742 0.167 0.66686 0.0
C884 C 0.35883 0.1674 0.66711 0.0
C885 C 0.29627 0.16412 0.66619 0.0
C886 C 0.30188 0.15375 0.65209 0.0
C887 C 0.32259 0.15585 0.65229 0.0
C888 C 0.28591 0.13883 0.63798 0.0
C889 C 0.27463 0.16322 0.66616 0.0
C890 C 0.26737 0.1193 0.64348 0.0
C891 C 0.25416 0.10328 0.63029 0.0
C892 C 0.25936 0.10647 0.61135 0.0
C893 C 0.27726 0.12665 0.60583 0.0
C894 C 0.2905 0.14262 0.61905 0.0
H895 H 0.27546 0.1772 0.6743 0.0
H896 H 0.26915 0.16353 0.6518 0.0
H897 H 0.2622 0.14767 0.67261 0.0
H898 H 0.26376 0.1159 0.65806 0.0
H899 H 0.2405 0.08799 0.63506 0.0
H900 H 0.90271 0.14699 0.63133 0.0
H901 H 0.8772 0.13747 0.65712 0.0
H902 H 0.82554 0.12442 0.61844 0.0
H903 H 0.85119 0.13482 0.59284 0.0
H904 H 0.82874 0.15281 0.6437 0.0
H905 H 0.82831 0.08386 0.67985 0.0
H906 H 0.85548 0.10665 0.67725 0.0
H907 H 0.83955 0.09207 0.65697 0.0
C908 C 0.88572 0.14127 0.62833 0.0
C909 C 0.87888 0.14158 0.61013 0.0
C910 C 0.87111 0.13583 0.64308 0.0
C911 C 0.84933 0.13011 0.63978 0.0
C912 C 0.84222 0.12882 0.6214 0.0
H913 H 0.74827 0.11542 0.71946 0.0
H914 H 0.76598 0.11345 0.69071 0.0
C915 C 0.85686 0.13463 0.60676 0.0
C916 C 0.8348 0.12833 0.65538 0.0
H917 H 0.81562 0.10463 0.6974 0.0
C918 C 0.82556 0.14194 0.65526 0.0
C919 C 0.83061 0.11421 0.67053 0.0
C920 C 0.83883 0.09821 0.67108 0.0
C921 C 0.81301 0.14241 0.67011 0.0
C922 C 0.80959 0.12896 0.68552 0.0
C923 C 0.81831 0.11495 0.68552 0.0
C924 C 0.79859 0.1306 0.70242 0.0
C925 C 0.8042 0.15792 0.66964 0.0
C926 C 0.8111 0.14113 0.71832 0.0
C927 C 0.80114 0.14248 0.73456 0.0
C928 C 0.77837 0.13314 0.73534 0.0
C929 C 0.76583 0.12291 0.71926 0.0
C930 C 0.7759 0.12168 0.70289 0.0
H931 H 0.80974 0.16857 0.65727 0.0
H932 H 0.78611 0.14822 0.66944 0.0
H933 H 0.80938 0.16859 0.68233 0.0
H934 H 0.82863 0.14821 0.71819 0.0
H935 H 0.81134 0.15045 0.74666 0.0
H936 H 0.9713 0.55601 0.44176 0.0
H937 H 0.99412 0.56045 0.46889 0.0
H938 H 0.98269 0.49462 0.4594 0.0
H939 H 0.96096 0.49067 0.4318 0.0
H940 H 0.98989 0.54197 0.50065 0.0
H941 H 0.04737 0.5278 0.46 0.0
H942 H 0.02638 0.53109 0.44913 0.0
H943 H 0.02043 0.50449 0.4573 0.0
C944 C 0.97337 0.54237 0.44571 0.0
C945 C 0.96442 0.523 0.43471 0.0
C946 C 0.98656 0.54498 0.46112 0.0
C947 C 0.9908 0.52817 0.46585 0.0
C948 C 0.98045 0.5082 0.45562 0.0
H949 H 0.02435 0.49599 0.56711 0.0
H950 H 0.00964 0.50702 0.54201 0.0
C951 C 0.96773 0.50579 0.44003 0.0
C952 C 0.00602 0.53133 0.48136 0.0
H953 H 0.04741 0.52238 0.49307 0.0
C954 C 0.00268 0.53801 0.49891 0.0
C955 C 0.02341 0.52712 0.47908 0.0
C956 C 0.02977 0.52251 0.4603 0.0
C957 C 0.01512 0.53896 0.51443 0.0
C958 C 0.03073 0.5322 0.51253 0.0
C959 C 0.03518 0.52714 0.49473 0.0
C960 C 0.04069 0.52774 0.52886 0.0
C961 C 0.01119 0.54708 0.53271 0.0
C962 C 0.06318 0.53523 0.52983 0.0
C963 C 0.07172 0.52842 0.54415 0.0
C964 C 0.05788 0.51401 0.55772 0.0
C965 C 0.03558 0.50721 0.557 0.0
C966 C 0.02709 0.51375 0.54268 0.0
H967 H 0.00673 0.55992 0.5305 0.0
H968 H 0.99729 0.53316 0.53977 0.0
H969 H 0.02575 0.55407 0.54196 0.0
H970 H 0.07402 0.54589 0.51924 0.0
H971 H 0.08894 0.53385 0.54427 0.0
H972 H 0.49575 0.48118 0.42162 0.0
H973 H 0.48943 0.49774 0.44917 0.0
H974 H 0.48765 0.4467 0.48282 0.0
H975 H 0.49438 0.43017 0.45527 0.0
H976 H 0.4532 0.47752 0.47304 0.0
H977 H 0.53163 0.50415 0.5101 0.0
H978 H 0.52774 0.49645 0.4858 0.0
H979 H 0.51612 0.47557 0.50308 0.0
C980 C 0.49427 0.4736 0.43491 0.0
C981 C 0.49561 0.45441 0.43631 0.0
C982 C 0.49053 0.48301 0.45061 0.0
C983 C 0.48814 0.47346 0.468 0.0
C984 C 0.48972 0.45444 0.46953 0.0
H985 H 0.4804 0.53239 0.57312 0.0
H986 H 0.4751 0.50373 0.5506 0.0
C987 C 0.49355 0.44503 0.4538 0.0
C988 C 0.48381 0.48354 0.48437 0.0
H989 H 0.50698 0.51248 0.52446 0.0
C990 C 0.46483 0.48499 0.4844 0.0
C991 C 0.49896 0.49308 0.49918 0.0
C992 C 0.51985 0.49244 0.49959 0.0
C993 C 0.46093 0.49638 0.49862 0.0
C994 C 0.47654 0.50676 0.51299 0.0
C995 C 0.49502 0.50443 0.5134 0.0
C996 C 0.47538 0.52201 0.52668 0.0
C997 C 0.4403 0.49748 0.498 0.0
C998 C 0.47669 0.54152 0.52068 0.0
C999 C 0.47978 0.558 0.53348 0.0
C1000 C 0.4818 0.55531 0.55253 0.0
C1001 C 0.47905 0.5351 0.55856 0.0
C1002 C 0.47601 0.51866 0.54572 0.0
H1003 H 0.42725 0.48337 0.48991 0.0
H1004 H 0.43425 0.49757 0.51219 0.0
H1005 H 0.44369 0.5129 0.49114 0.0
H1006 H 0.47662 0.54458 0.50601 0.0
H1007 H 0.48176 0.57328 0.52833 0.0
H1008 H 0.54267 0.06679 0.4494 0.0
H1009 H 0.5219 0.04336 0.4753 0.0
H1010 H 0.5213 0.98771 0.44826 0.0
H1011 H 0.54016 0.01062 0.42181 0.0
H1012 H 0.48401 0.97469 0.459 0.0
H1013 H 0.53683 0.02088 0.51876 0.0
H1014 H 0.52947 0.03809 0.50643 0.0
H1015 H 0.54566 0.02818 0.49519 0.0
C1016 C 0.53813 0.04957 0.44917 0.0
C1017 C 0.54277 0.04037 0.4337 0.0
C1018 C 0.52652 0.03623 0.46405 0.0
C1019 C 0.52028 0.01374 0.46399 0.0
C1020 C 0.52577 0.00491 0.4487 0.0
H1021 H 0.45736 0.93419 0.56231 0.0
H1022 H 0.48418 0.95514 0.53836 0.0
C1023 C 0.53657 0.018 0.43359 0.0
C1024 C 0.50638 -0.00114 0.47891 0.0
H1025 H 0.49938 0.99433 0.52582 0.0
C1026 C 0.48767 0.97892 0.47361 0.0
C1027 C 0.51117 0.00394 0.49805 0.0
C1028 C 0.53202 0.02382 0.50491 0.0
C1029 C 0.4734 0.96432 0.48675 0.0
C1030 C 0.47715 0.97033 0.50581 0.0
C1031 C 0.49623 0.98986 0.51121 0.0
C1032 C 0.46099 0.95709 0.52017 0.0
C1033 C 0.45463 0.94246 0.47996 0.0
C1034 C 0.43913 0.9514 0.51803 0.0
C1035 C 0.42378 0.93896 0.53136 0.0
C1036 C 0.43006 0.93258 0.54748 0.0
C1037 C 0.45205 0.93875 0.54993 0.0
C1038 C 0.46737 0.95077 0.5363 0.0
H1039 H 0.45882 0.93694 0.46687 0.0
H1040 H 0.44994 0.92939 0.49038 0.0
H1041 H 0.44035 0.94432 0.47697 0.0
H1042 H 0.43391 0.95681 0.50614 0.0
H1043 H 0.40706 0.93494 0.52929 0.0
H1044 H 0.5098 0.08614 0.97467 0.0
H1045 H 0.5146 0.06212 0.99569 0.0
H1046 H 0.51801 0.0248 0.94906 0.0
H1047 H 0.51295 0.0486 0.92782 0.0
H1048 H 0.48706 -0.00107 0.97436 0.0
H1049 H 0.56516 0.05408 0.01058 0.0
H1050 H 0.54734 0.06518 0.01077 0.0
H1051 H 0.55761 0.06134 0.98905 0.0
C1052 C 0.51208 0.07318 0.9688 0.0
C1053 C 0.51082 0.06927 0.94951 0.0
C1054 C 0.51495 0.0595 0.98088 0.0
C1055 C 0.51682 0.04176 0.97395 0.0
C1056 C 0.51667 0.03845 0.95469 0.0
H1057 H 0.50541 0.93198 0.04069 0.0
H1058 H 0.51089 0.95544 0.01399 0.0
C1059 C 0.51383 0.05214 0.94257 0.0
C1060 C 0.51641 0.02536 0.98686 0.0
H1061 H 0.54017 0.02069 0.02631 0.0
C1062 C 0.49891 0.00354 0.98551 0.0
C1063 C 0.53189 0.03142 0.00137 0.0
C1064 C 0.55168 0.05424 0.00294 0.0
C1065 C 0.49576 0.98797 0.99894 0.0
C1066 C 0.51066 0.99437 0.01394 0.0
C1067 C 0.5287 0.01589 0.01482 0.0
C1068 C 0.50686 0.97963 0.02969 0.0
C1069 C 0.47593 0.96515 0.99753 0.0
C1070 C 0.50281 0.9855 0.04729 0.0
C1071 C 0.49969 0.97221 0.06246 0.0
C1072 C 0.50067 0.95281 0.06039 0.0
C1073 C 0.50443 0.94676 0.04269 0.0
C1074 C 0.50756 0.96012 0.02744 0.0
H1075 H 0.46422 0.96394 0.98671 0.0
H1076 H 0.48109 0.95307 0.99395 0.0
H1077 H 0.46741 0.96042 0.01104 0.0
H1078 H 0.50216 0.00047 0.04929 0.0
H1079 H 0.49686 0.97737 0.0759 0.0
H1080 H 0.94299 0.46017 0.92458 0.0
H1081 H 0.96656 0.48893 0.94703 0.0
H1082 H 0.92996 0.4467 0.99194 0.0
H1083 H 0.90618 0.4179 0.96974 0.0
H1084 H 0.94407 0.49325 0.99731 0.0
H1085 H 0.01065 0.47779 0.9761 0.0
H1086 H 0.99781 0.48483 0.95814 0.0
H1087 H 0.98251 0.45911 0.96981 0.0
C1088 C 0.93961 0.45712 0.93922 0.0
C1089 C 0.9229 0.43652 0.94535 0.0
C1090 C 0.95318 0.47358 0.95201 0.0
C1091 C 0.95023 0.4697 0.97108 0.0
C1092 C 0.93255 0.4499 0.97724 0.0
H1093 H 0.00821 0.51178 0.07714 0.0
H1094 H 0.9856 0.49561 0.04942 0.0
C1095 C 0.919 0.43344 0.9645 0.0
C1096 C 0.96661 0.48512 0.98469 0.0
H1097 H 0.01767 0.50189 0.00142 0.0
C1098 C 0.96027 0.49541 0.99809 0.0
C1099 C 0.98774 0.4879 0.98559 0.0
C1100 C 0.99516 0.47676 0.97175 0.0
C1101 C 0.97434 0.50794 0.01273 0.0
C1102 C 0.99503 0.50976 0.01415 0.0
C1103 C 0.00176 0.50036 0.00027 0.0
C1104 C 0.0091 0.51965 0.03073 0.0
C1105 C 0.96682 0.51883 0.02672 0.0
C1106 C 0.03017 0.53798 0.02925 0.0
C1107 C 0.04327 0.54719 0.0451 0.0
C1108 C 0.03548 0.53806 0.06259 0.0
C1109 C 0.01464 0.51926 0.06387 0.0
C1110 C 0.0016 0.51013 0.04808 0.0
H1111 H 0.95403 0.52163 0.02078 0.0
H1112 H 0.95976 0.50792 0.0388 0.0
H1113 H 0.98063 0.53488 0.03176 0.0
H1114 H 0.03632 0.54535 0.0159 0.0
H1115 H 0.05929 0.56165 0.0437 0.0
H1116 H 0.5157 0.4719 0.93017 0.0
H1117 H 0.49241 0.46437 0.95721 0.0
H1118 H 0.54347 0.46884 0.99246 0.0
H1119 H 0.56696 0.47624 0.96529 0.0
H1120 H 0.48556 0.43166 0.99553 0.0
H1121 H 0.52557 0.52341 0.99938 0.0
H1122 H 0.52058 0.50923 0.97723 0.0
H1123 H 0.54086 0.51034 0.99266 0.0
C1124 C 0.52171 0.47052 0.94359 0.0
C1125 C 0.54317 0.47474 0.94566 0.0
C1126 C 0.50837 0.4662 0.95901 0.0
C1127 C 0.51628 0.46617 0.97678 0.0
C1128 C 0.53707 0.46868 0.97879 0.0
H1129 H 0.48022 0.49258 0.08364 0.0
H1130 H 0.49808 0.49006 0.0557 0.0
C1131 C 0.55043 0.4728 0.96327 0.0
C1132 C 0.50414 0.46694 0.99317 0.0
H1133 H 0.49822 0.50333 0.02094 0.0
C1134 C 0.4883 0.44727 0.00118 0.0
C1135 C 0.50775 0.48736 0.00035 0.0
C1136 C 0.52459 0.50889 0.99206 0.0
C1137 C 0.47611 0.44755 0.01648 0.0
C1138 C 0.47961 0.46803 0.0236 0.0
C1139 C 0.49544 0.48764 0.01543 0.0
C1140 C 0.46816 0.46974 0.04024 0.0
C1141 C 0.46005 0.42598 0.02519 0.0
C1142 C 0.44531 0.45964 0.04075 0.0
C1143 C 0.43495 0.46104 0.05686 0.0
C1144 C 0.4473 0.4727 0.07263 0.0
C1145 C 0.47017 0.48345 0.07176 0.0
C1146 C 0.48045 0.48198 0.05578 0.0
H1147 H 0.46305 0.41247 0.02099 0.0
H1148 H 0.46083 0.42754 0.04056 0.0
H1149 H 0.4433 0.42122 0.02065 0.0
H1150 H 0.4355 0.45055 0.02876 0.0
H1151 H 0.41731 0.45255 0.05711 0.0
H1152 H 0.1667 0.9846 0.93472 0.0
H1153 H 0.17716 0.02218 0.9451 0.0
H1154 H 0.2177 0.01907 0.9881 0.0
H1155 H 0.20663 0.98146 0.97834 0.0
H1156 H 0.19213 0.03296 0.00166 0.0
H1157 H 0.23269 0.08017 0.93849 0.0
H1158 H 0.20503 0.05823 0.9351 0.0
H1159 H 0.22571 0.05188 0.94127 0.0
C1160 C 0.178 0.99211 0.94627 0.0
C1161 C 0.18579 0.98017 0.95582 0.0
C1162 C 0.18405 0.01358 0.95212 0.0
C1163 C 0.19835 0.02351 0.96729 0.0
C1164 C 0.20657 0.01172 0.97642 0.0
H1165 H 0.28106 0.15344 0.00759 0.0
H1166 H 0.26187 0.119 0.98959 0.0
C1167 C 0.20025 0.99024 0.97082 0.0
C1168 C 0.20412 0.04568 0.97456 0.0
H1169 H 0.23051 0.10033 0.96405 0.0
C1170 C 0.20042 0.0477 0.99341 0.0
C1171 C 0.21489 0.06484 0.96374 0.0
C1172 C 0.22001 0.0638 0.94357 0.0
C1173 C 0.20818 0.06837 0.00204 0.0
C1174 C 0.21915 0.08761 0.99129 0.0
C1175 C 0.22198 0.08555 0.97222 0.0
C1176 C 0.22991 0.10996 3e-05 0.0
C1177 C 0.20572 0.06931 0.0228 0.0
C1178 C 0.21823 0.1168 0.01129 0.0
C1179 C 0.22926 0.13623 0.02197 0.0
C1180 C 0.25205 0.14941 0.02107 0.0
C1181 C 0.26349 0.14351 0.00861 0.0
C1182 C 0.25252 0.12386 0.99828 0.0
H1183 H 0.20176 0.05356 0.02942 0.0
H1184 H 0.22087 0.08278 0.02935 0.0
H1185 H 0.19221 0.07244 0.02582 0.0
H1186 H 0.20069 0.1067 0.0124 0.0
H1187 H 0.22004 0.14064 0.03126 0.0
H1188 H 0.00787 0.18685 0.92561 0.0
H1189 H 0.96998 0.16372 0.93555 0.0
H1190 H 0.97919 0.21363 0.97614 0.0
H1191 H 0.0171 0.23621 0.96683 0.0
H1192 H 0.96409 0.17545 0.99166 0.0
H1193 H 0.91369 0.16371 0.92916 0.0
H1194 H 0.93403 0.15616 0.92538 0.0
H1195 H 0.94225 0.18443 0.9307 0.0
C1196 C 0.00163 0.19296 0.93645 0.0
C1197 C 0.01542 0.21315 0.94563 0.0
C1198 C 0.97994 0.17983 0.942 0.0
C1199 C 0.97165 0.187 0.95649 0.0
C1200 C 0.98521 0.20772 0.96495 0.0
H1201 H 0.8437 0.12865 0.00673 0.0
H1202 H 0.87425 0.14873 0.98536 0.0
C1203 C 0.00689 0.22059 0.95967 0.0
C1204 C 0.94991 0.17207 0.96452 0.0
H1205 H 0.8954 0.14027 0.95476 0.0
C1206 C 0.94909 0.16791 0.98355 0.0
C1207 C 0.9303 0.1623 0.954 0.0
C1208 C 0.93002 0.16702 0.93372 0.0
C1209 C 0.92934 0.1543 0.99238 0.0
C1210 C 0.90981 0.1438 0.98178 0.0
C1211 C 0.91045 0.14808 0.96277 0.0
C1212 C 0.88874 0.12866 0.99063 0.0
C1213 C 0.9296 0.15166 0.01312 0.0
C1214 C 0.88616 0.11002 -0.00025 0.0
C1215 C 0.86913 0.09896 0.01216 0.0
C1216 C 0.85403 0.10591 0.01517 0.0
C1217 C 0.85514 0.12297 0.00451 0.0
C1218 C 0.87256 0.13442 0.99235 0.0
H1219 H 0.94465 0.16526 0.01972 0.0
H1220 H 0.91529 0.15124 0.01973 0.0
H1221 H 0.92904 0.13593 0.01603 0.0
H1222 H 0.89825 0.10506 0.99832 0.0
H1223 H 0.86846 0.08573 0.02018 0.0
H1224 H 0.90044 0.74056 0.99888 0.0
H1225 H 0.88488 0.75235 0.97421 0.0
H1226 H 0.86374 0.78251 0.01548 0.0
H1227 H 0.87994 0.77182 0.03975 0.0
H1228 H 0.84557 0.74161 0.96664 0.0
H1229 H 0.88804 0.83087 0.97992 0.0
H1230 H 0.89691 0.81364 0.99054 0.0
H1231 H 0.87624 0.81772 0.0013 0.0
C1232 C 0.89278 0.75003 0.00258 0.0
C1233 C 0.89161 0.75541 0.02126 0.0
C1234 C 0.8839 0.75678 0.98849 0.0
C1235 C 0.87362 0.76893 0.99284 0.0
C1236 C 0.87234 0.77404 0.01154 0.0
H1237 H 0.75966 0.75861 0.95716 0.0
H1238 H 0.79021 0.75389 0.96405 0.0
C1239 C 0.88144 0.76764 0.0255 0.0
C1240 C 0.86236 0.77461 0.97836 0.0
H1241 H 0.85042 0.81454 0.96776 0.0
C1242 C 0.84707 0.75775 0.96656 0.0
C1243 C 0.86471 0.79586 0.9775 0.0
C1244 C 0.8826 0.81556 0.98786 0.0
C1245 C 0.83266 0.76093 0.95549 0.0
C1246 C 0.83289 0.7812 0.95681 0.0
C1247 C 0.84969 0.79875 0.96705 0.0
C1248 C 0.81418 0.78339 0.95024 0.0
C1249 C 0.8169 0.74221 0.94292 0.0
C1250 C 0.81724 0.80189 0.9404 0.0
C1251 C 0.79954 0.80498 0.93671 0.0
C1252 C 0.77855 0.7897 0.94297 0.0
C1253 C 0.77555 0.77085 0.95216 0.0
C1254 C 0.79309 0.7679 0.95591 0.0
H1255 H 0.82467 0.73315 0.93708 0.0
H1256 H 0.80267 0.7303 0.95109 0.0
H1257 H 0.81108 0.74812 0.93129 0.0
H1258 H 0.8334 0.81423 0.93602 0.0
H1259 H 0.80245 0.81971 0.92967 0.0
H1260 H 0.98194 0.17104 0.56876 0.0
H1261 H 0.01852 0.1767 0.56293 0.0
H1262 H 0.03856 0.24111 0.54146 0.0
H1263 H 0.00308 0.23608 0.54806 0.0
H1264 H 0.03565 0.17951 0.53146 0.0
H1265 H 0.09296 0.25672 0.56717 0.0
H1266 H 0.06431 0.24226 0.57265 0.0
H1267 H 0.0748 0.26228 0.55438 0.0
C1268 C 0.99446 0.18669 0.56345 0.0
C1269 C 0.9895 0.203 0.55873 0.0
C1270 C 0.01534 0.18989 0.56001 0.0
C1271 C 0.03158 0.20951 0.55195 0.0
C1272 C 0.02679 0.22613 0.54821 0.0
H1273 H 0.10706 0.22709 0.45992 0.0
H1274 H 0.08063 0.21524 0.48469 0.0
C1275 C 0.00621 0.22305 0.55175 0.0
C1276 C 0.05226 0.21171 0.54473 0.0
H1277 H 0.10486 0.25126 0.53591 0.0
C1278 C 0.05095 0.19499 0.5329 0.0
C1279 C 0.07262 0.23149 0.54695 0.0
C1280 C 0.07623 0.24902 0.56119 0.0
C1281 C 0.06861 0.19845 0.52181 0.0
C1282 C 0.0878 0.21952 0.52192 0.0
C1283 C 0.08996 0.23534 0.53524 0.0
C1284 C 0.10445 0.22623 0.50703 0.0
C1285 C 0.06619 0.17957 0.50975 0.0
C1286 C 0.12694 0.23746 0.51114 0.0
C1287 C 0.1423 0.24493 0.49681 0.0
C1288 C 0.13541 0.24115 0.47814 0.0
C1289 C 0.11296 0.22997 0.47414 0.0
C1290 C 0.09773 0.22291 0.48836 0.0
H1291 H 0.05616 0.16359 0.51677 0.0
H1292 H 0.05757 0.17884 0.4967 0.0
H1293 H 0.08223 0.18138 0.50631 0.0
H1294 H 0.13261 0.24053 0.52541 0.0
H1295 H 0.15951 0.25356 0.50031 0.0
H1296 H 0.792 0.77664 0.52535 0.0
H1297 H 0.77664 0.80013 0.51998 0.0
H1298 H 0.79506 0.82743 0.57548 0.0
H1299 H 0.81088 0.80391 0.58094 0.0
H1300 H 0.74368 0.80365 0.53923 0.0
H1301 H 0.8241 0.88187 0.54179 0.0
H1302 H 0.8222 0.85532 0.53979 0.0
H1303 H 0.81612 0.86398 0.56139 0.0
C1304 C 0.79279 0.78758 0.53647 0.0
C1305 C 0.80283 0.78858 0.55352 0.0
C1306 C 0.78388 0.80092 0.53341 0.0
C1307 C 0.78481 0.81561 0.54728 0.0
C1308 C 0.79438 0.81636 0.56452 0.0
H1309 H 0.72252 0.88648 0.4998 0.0
H1310 H 0.73209 0.87022 0.52555 0.0
C1311 C 0.80337 0.80292 0.56762 0.0
C1312 C 0.77657 0.83061 0.54286 0.0
H1313 H 0.79468 0.88313 0.52875 0.0
C1314 C 0.75463 0.82119 0.53743 0.0
C1315 C 0.79094 0.85346 0.5406 0.0
C1316 C 0.81469 0.86439 0.5461 0.0
C1317 C 0.74714 0.83359 0.52824 0.0
C1318 C 0.76198 0.85603 0.52462 0.0
C1319 C 0.78338 0.86592 0.5316 0.0
C1320 C 0.75712 0.86789 0.51035 0.0
C1321 C 0.724 0.82213 0.52098 0.0
C1322 C 0.76837 0.87243 0.49355 0.0
C1323 C 0.76298 0.88158 0.47899 0.0
C1324 C 0.74624 0.88651 0.48088 0.0
C1325 C 0.73543 0.88274 0.49794 0.0
C1326 C 0.74083 0.87343 0.51261 0.0
H1327 H 0.71502 0.80421 0.5239 0.0
H1328 H 0.71513 0.82967 0.52753 0.0
H1329 H 0.72387 0.82424 0.50576 0.0
H1330 H 0.78095 0.86824 0.49148 0.0
H1331 H 0.77177 0.88443 0.46611 0.0
H1332 H 0.18502 0.00889 0.57092 0.0
H1333 H 0.16021 0.96952 0.5637 0.0
H1334 H 0.1909 0.97733 0.51058 0.0
H1335 H 0.21553 0.01635 0.51757 0.0
H1336 H 0.13088 0.95033 0.5312 0.0
H1337 H 0.19304 0.92524 0.53553 0.0
H1338 H 0.19673 0.95034 0.54626 0.0
H1339 H 0.2016 0.94935 0.52187 0.0
C1340 C 0.18644 0.00215 0.55772 0.0
C1341 C 0.20222 0.01563 0.54481 0.0
C1342 C 0.1723 0.97973 0.55365 0.0
C1343 C 0.174 0.97058 0.53674 0.0
C1344 C 0.1896 0.98408 0.52383 0.0
H1345 H 0.10078 0.87039 0.45983 0.0
H1346 H 0.1152 0.90177 0.48149 0.0
C1347 C 0.20359 0.00638 0.52782 0.0
C1348 C 0.15936 0.94702 0.53205 0.0
H1349 H 0.16101 0.90165 0.51723 0.0
C1350 C 0.13727 0.93944 0.52853 0.0
C1351 C 0.16769 0.93279 0.52894 0.0
C1352 C 0.19103 0.93975 0.53352 0.0
C1353 C 0.12364 0.91845 0.52054 0.0
C1354 C 0.13255 0.90503 0.51576 0.0
C1355 C 0.15421 0.91201 0.5207 0.0
C1356 C 0.12069 0.88494 0.50389 0.0
C1357 C 0.10005 0.91113 0.51686 0.0
C1358 C 0.11909 0.86506 0.50922 0.0
C1359 C 0.11118 0.8472 0.49672 0.0
C1360 C 0.10481 0.84897 0.47869 0.0
C1361 C 0.10555 0.86854 0.47365 0.0
C1362 C 0.11357 0.88642 0.4861 0.0
H1363 H 0.09403 0.91881 0.52706 0.0
H1364 H 0.09844 0.9165 0.50286 0.0
H1365 H 0.08954 0.89292 0.51743 0.0
H1366 H 0.12464 0.86363 0.52284 0.0
H1367 H 0.11068 0.83225 0.50101 0.0
H1368 H 0.73658 0.8435 0.99729 0.0
H1369 H 0.74961 0.87815 0.01461 0.0
H1370 H 0.77511 0.9145 0.96433 0.0
H1371 H 0.76206 0.87996 0.94676 0.0
H1372 H 0.79386 0.91508 0.01711 0.0
H1373 H 0.7357 0.93699 0.98647 0.0
H1374 H 0.73144 0.90941 0.98508 0.0
H1375 H 0.75071 0.93038 0.97011 0.0
C1376 C 0.74487 0.85883 0.98984 0.0
C1377 C 0.74817 0.8589 0.97058 0.0
C1378 C 0.75236 0.87861 -0.0002 0.0
C1379 C 0.76311 0.89879 0.9907 0.0
C1380 C 0.76657 0.89902 0.97154 0.0
H1381 H 0.81361 0.03448 0.02526 0.0
H1382 H 0.80399 0.00033 0.00841 0.0
C1383 C 0.75916 0.87925 0.96155 0.0
C1384 C 0.7708 0.91965 0.00131 0.0
H1385 H 0.76318 0.9636 0.00634 0.0
C1386 C 0.78716 0.92571 0.01483 0.0
C1387 C 0.76198 0.93338 0.99823 0.0
C1388 C 0.74386 0.92721 0.9843 0.0
C1389 C 0.79524 0.94546 0.02517 0.0
C1390 C 0.78637 0.95919 0.02212 0.0
C1391 C 0.76998 0.95305 0.00861 0.0
C1392 C 0.79375 0.98002 0.03274 0.0
C1393 C 0.8135 0.95168 0.03896 0.0
C1394 C 0.79131 0.97994 0.05206 0.0
C1395 C 0.79689 -0.0005 0.06181 0.0
C1396 C 0.80475 0.01942 0.05234 0.0
C1397 C 0.80749 0.01944 0.033 0.0
C1398 C 0.80202 -6e-05 0.02332 0.0
H1399 H 0.82232 0.94267 0.03607 0.0
H1400 H 0.82538 0.96968 0.03883 0.0
H1401 H 0.80662 0.94738 0.0531 0.0
H1402 H 0.78454 0.96467 0.05955 0.0
H1403 H 0.79445 -0.00114 0.07666 0.0
H1404 H 0.15156 0.87552 0.98931 0.0
H1405 H 0.12255 0.85054 0.01043 0.0
H1406 H 0.07403 0.84757 0.97271 0.0
H1407 H 0.10267 0.87253 0.95192 0.0
H1408 H 0.09083 0.86273 0.02527 0.0
H1409 H 0.05094 0.78211 0.98764 0.0
H1410 H 0.0789 0.80329 0.98368 0.0
H1411 H 0.05691 0.8052 0.97338 0.0
C1412 C 0.13466 0.869 0.98537 0.0
C1413 C 0.12928 0.8759 0.96905 0.0
C1414 C 0.11817 0.85488 0.99744 0.0
C1415 C 0.09618 0.84714 0.99303 0.0
C1416 C 0.09087 0.85314 0.97625 0.0
H1417 H 0.9664 0.78344 0.0318 0.0
H1418 H 0.00114 0.80261 0.01568 0.0
C1419 C 0.10724 0.86745 0.96442 0.0
C1420 C 0.07866 0.83477 0.00652 0.0
H1421 H 0.02958 0.7874 0.01059 0.0
C1422 C 0.07762 0.84607 0.02236 0.0
C1423 C 0.06144 0.81316 0.00251 0.0
C1424 C 0.06211 0.80011 0.98596 0.0
C1425 C 0.05912 0.8368 0.03371 0.0
C1426 C 0.04146 0.8155 0.02925 0.0
C1427 C 0.04304 0.80381 0.0139 0.0
C1428 C 0.02073 0.80538 0.03966 0.0
C1429 C 0.05815 0.85038 0.04971 0.0
C1430 C 0.02021 0.8009 0.0586 0.0
C1431 C 0.00035 0.79013 0.06795 0.0
C1432 C 0.98058 0.78336 0.05845 0.0
C1433 C 0.98126 0.78837 0.03957 0.0
C1434 C 0.00111 0.79926 0.0303 0.0
H1435 H 0.07068 0.86813 0.0486 0.0
H1436 H 0.04184 0.84883 0.05049 0.0
H1437 H 0.06115 0.84435 0.06287 0.0
H1438 H 0.03509 0.80511 0.06604 0.0
H1439 H 0.00045 0.78634 0.08244 0.0
H1440 H 0.14029 0.28681 0.96186 0.0
H1441 H 0.17062 0.28582 0.97741 0.0
H1442 H 0.132 0.21487 0.97908 0.0
H1443 H 0.10205 0.21566 0.96349 0.0
H1444 H 0.17366 0.26588 0.01215 0.0
H1445 H 0.18679 0.22787 0.94913 0.0
H1446 H 0.17072 0.24115 0.94884 0.0
H1447 H 0.1592 0.21353 0.95721 0.0
C1448 C 0.13825 0.27106 0.96572 0.0
C1449 C 0.11891 0.25131 0.96121 0.0
C1450 C 0.15554 0.27051 0.97462 0.0
C1451 C 0.15364 0.25023 0.97911 0.0
C1452 C 0.13394 0.23066 0.97545 0.0
H1453 H 0.2318 0.21206 0.04393 0.0
H1454 H 0.20538 0.22274 0.03429 0.0
C1455 C 0.11682 0.23117 0.96652 0.0
C1456 C 0.17247 0.24906 0.98656 0.0
H1457 H 0.20473 0.2273 0.97668 0.0
C1458 C 0.18066 0.25766 0.00438 0.0
C1459 C 0.18169 0.23853 0.9763 0.0
C1460 C 0.17432 0.22991 0.95674 0.0
C1461 C 0.19749 0.25542 0.0124 0.0
C1462 C 0.20606 0.24403 0.0024 0.0
C1463 C 0.19813 0.23594 0.98442 0.0
C1464 C 0.22331 0.24022 0.00999 0.0
C1465 C 0.20605 0.26543 0.03138 0.0
C1466 C 0.24221 0.24651 -0.00036 0.0
C1467 C 0.25703 0.24008 0.00491 0.0
C1468 C 0.25342 0.22734 0.02077 0.0
C1469 C 0.2351 0.22201 0.03173 0.0
C1470 C 0.22005 0.22822 0.02628 0.0
H1471 H 0.20251 0.27878 0.03475 0.0
H1472 H 0.19799 0.25247 0.04193 0.0
H1473 H 0.22392 0.27224 0.03246 0.0
H1474 H 0.24513 0.25577 0.98705 0.0
H1475 H 0.27107 0.24463 0.99625 0.0
H1476 H 0.84585 0.71503 0.52146 0.0
H1477 H 0.87506 0.71656 0.50209 0.0
H1478 H 0.91802 0.78386 0.52031 0.0
H1479 H 0.88914 0.78263 0.5392 0.0
H1480 H 0.92067 0.77801 0.48257 0.0
H1481 H 0.92758 0.71476 0.52277 0.0
H1482 H 0.90138 0.70659 0.51272 0.0
H1483 H 0.91212 0.72704 0.53106 0.0
C1484 C 0.86153 0.73012 0.52128 0.0
C1485 C 0.8652 0.74864 0.53198 0.0
C1486 C 0.87821 0.73097 0.51025 0.0
C1487 C 0.89881 0.75029 0.50986 0.0
C1488 C 0.90227 0.76881 0.52031 0.0
H1489 H 0.02872 0.78842 0.50365 0.0
H1490 H 0.9908 0.77702 0.50876 0.0
C1491 C 0.88571 0.76801 0.53121 0.0
C1492 C 0.91736 0.75146 0.49936 0.0
H1493 H 0.9543 0.73407 0.50064 0.0
C1494 C 0.92781 0.76809 0.4862 0.0
C1495 C 0.92667 0.73854 0.50418 0.0
C1496 C 0.91653 0.7208 0.51852 0.0
C1497 C 0.94797 0.77304 0.47859 0.0
C1498 C 0.95778 0.76086 0.48415 0.0
C1499 C 0.94666 0.74332 0.49637 0.0
C1500 C 0.98092 0.76825 0.48006 0.0
C1501 C 0.95937 0.79223 0.4657 0.0
C1502 C 0.98815 0.76741 0.46208 0.0
C1503 C 0.01015 0.77405 0.45901 0.0
C1504 C 0.02514 0.78149 0.47393 0.0
C1505 C 0.01772 0.7826 0.4918 0.0
C1506 C 0.99596 0.77606 0.4948 0.0
H1507 H 0.95037 0.80121 0.46402 0.0
H1508 H 0.97604 0.80399 0.47102 0.0
H1509 H 0.96101 0.78613 0.45185 0.0
H1510 H 0.97675 0.76131 0.45051 0.0
H1511 H 0.01528 0.77294 0.44509 0.0
H1512 H 0.21252 0.21075 0.41578 0.0
H1513 H 0.2282 0.19162 0.43196 0.0
H1514 H 0.19669 0.19373 0.48241 0.0
H1515 H 0.1813 0.21319 0.46652 0.0
H1516 H 0.2406 0.20904 0.48731 0.0
H1517 H 0.2004 0.1283 0.44927 0.0
H1518 H 0.21457 0.1522 0.4351 0.0
H1519 H 0.19085 0.14761 0.44763 0.0
C1520 C 0.20858 0.20679 0.43024 0.0
C1521 C 0.19563 0.21354 0.43984 0.0
C1522 C 0.21756 0.19582 0.43946 0.0
C1523 C 0.21354 0.19115 0.45837 0.0
C1524 C 0.20006 0.19723 0.46782 0.0
H1525 H 0.22745 0.12411 0.54647 0.0
H1526 H 0.22412 0.14901 0.52537 0.0
C1527 C 0.1912 0.20829 0.45868 0.0
C1528 C 0.2241 0.18092 0.46871 0.0
H1529 H 0.22556 0.13334 0.47282 0.0
C1530 C 0.23746 0.19256 0.48403 0.0
C1531 C 0.22021 0.15953 0.46429 0.0
C1532 C 0.20561 0.14605 0.44827 0.0
C1533 C 0.24632 0.18305 0.49545 0.0
C1534 C 0.24162 0.16132 0.49153 0.0
C1535 C 0.22923 0.15008 0.47569 0.0
C1536 C 0.24647 0.14882 0.50513 0.0
C1537 C 0.26014 0.19607 0.51197 0.0
C1538 C 0.26045 0.14071 0.50086 0.0
C1539 C 0.26263 0.12661 0.51311 0.0
C1540 C 0.25041 0.12011 0.52948 0.0
C1541 C 0.23706 0.12889 0.53394 0.0
C1542 C 0.23519 0.14317 0.52193 0.0
H1543 H 0.26728 0.2141 0.51018 0.0
H1544 H 0.24983 0.19125 0.52453 0.0
H1545 H 0.27353 0.19258 0.51435 0.0
H1546 H 0.26915 0.14478 0.48786 0.0
H1547 H 0.27282 0.11984 0.50929 0.0
H1548 H 0.77999 0.95898 0.47133 0.0
H1549 H 0.80558 0.99305 0.48781 0.0
H1550 H 0.82576 0.02693 0.4359 0.0
H1551 H 0.80003 0.99295 0.41917 0.0
H1552 H 0.85204 0.02246 0.48417 0.0
H1553 H 0.80307 0.06145 0.46694 0.0
H1554 H 0.79245 0.03216 0.46433 0.0
H1555 H 0.81102 0.05078 0.44756 0.0
C1556 C 0.78996 0.9736 0.46334 0.0
C1557 C 0.78772 0.97327 0.44391 0.0
C1558 C 0.80462 0.99304 0.47281 0.0
C1559 C 0.81725 0.01251 0.46308 0.0
C1560 C 0.81587 0.01208 0.44365 0.0
H1561 H 0.89925 0.14839 0.49942 0.0
H1562 H 0.87925 0.11399 0.48158 0.0
C1563 C 0.80122 0.99262 0.43413 0.0
C1564 C 0.831 0.03347 0.47339 0.0
H1565 H 0.83574 0.08326 0.48374 0.0
C1566 C 0.84855 0.03581 0.48408 0.0
C1567 C 0.82628 0.05073 0.47325 0.0
C1568 C 0.80709 0.04871 0.46254 0.0
C1569 C 0.86175 0.05517 0.49451 0.0
C1570 C 0.8569 0.07238 0.49448 0.0
C1571 C 0.8394 0.07003 0.48371 0.0
C1572 C 0.86974 0.09303 0.50549 0.0
C1573 C 0.88094 0.0572 0.50519 0.0
C1574 C 0.87087 0.09265 0.5249 0.0
C1575 C 0.88235 0.11234 0.53521 0.0
C1576 C 0.89273 0.13277 0.52628 0.0
C1577 C 0.89143 0.13301 0.50681 0.0
C1578 C 0.88004 0.11335 0.49655 0.0
H1579 H 0.88582 0.04542 0.49987 0.0
H1580 H 0.89519 0.07419 0.5045 0.0
H1581 H 0.87643 0.05349 0.51997 0.0
H1582 H 0.8626 0.07715 0.53211 0.0
H1583 H 0.8829 0.11152 0.55018 0.0
H1584 H 0.9426 0.49475 0.33218 0.0
H1585 H 0.92603 0.46258 0.31119 0.0
H1586 H 0.87439 0.4275 0.35037 0.0
H1587 H 0.89057 0.45976 0.37118 0.0
H1588 H 0.92244 0.42437 0.31997 0.0
H1589 H 0.84041 0.40937 0.30226 0.0
H1590 H 0.86149 0.43531 0.31209 0.0
H1591 H 0.84505 0.4124 0.32686 0.0
C1592 C 0.92746 0.48034 0.33613 0.0
C1593 C 0.91795 0.47966 0.35337 0.0
C1594 C 0.91799 0.46201 0.3241 0.0
C1595 C 0.89885 0.44271 0.3291 0.0
C1596 C 0.88885 0.44237 0.34598 0.0
H1597 H 0.85988 0.30927 0.31688 0.0
H1598 H 0.8736 0.348 0.32472 0.0
C1599 C 0.89822 0.46076 0.35796 0.0
C1600 C 0.89108 0.42207 0.31807 0.0
H1601 H 0.84519 0.37749 0.30012 0.0
C1602 C 0.90565 0.41437 0.31527 0.0
C1603 C 0.86926 0.40909 0.31174 0.0
C1604 C 0.85324 0.4171 0.31322 0.0
C1605 C 0.89865 0.39346 0.30742 0.0
C1606 C 0.87646 0.3798 0.30252 0.0
C1607 C 0.86216 0.38797 0.30414 0.0
C1608 C 0.86755 0.35633 0.29748 0.0
C1609 C 0.91491 0.38585 0.30501 0.0
C1610 C 0.85919 0.34815 0.27964 0.0
C1611 C 0.85131 0.32592 0.27508 0.0
C1612 C 0.85154 0.31164 0.28838 0.0
C1613 C 0.85956 0.31988 0.30631 0.0
C1614 C 0.86747 0.34201 0.31081 0.0
H1615 H 0.93188 0.40002 0.30445 0.0
H1616 H 0.91383 0.37563 0.31698 0.0
H1617 H 0.91143 0.37563 0.29215 0.0
H1618 H 0.85905 0.35902 0.26923 0.0
H1619 H 0.84516 0.31997 0.26117 0.0
H1620 H 0.55151 0.44144 0.36716 0.0
H1621 H 0.57713 0.45822 0.34201 0.0
H1622 H 0.527 0.45851 0.30855 0.0
H1623 H 0.50095 0.44169 0.33408 0.0
H1624 H 0.5765 0.44509 0.30454 0.0
H1625 H 0.5762 0.52409 0.31176 0.0
H1626 H 0.56453 0.50321 0.32922 0.0
H1627 H 0.55075 0.49899 0.30738 0.0
C1628 C 0.54577 0.44489 0.35444 0.0
C1629 C 0.52425 0.44047 0.35268 0.0
C1630 C 0.56045 0.45439 0.34001 0.0
C1631 C 0.55404 0.45979 0.32348 0.0
C1632 C 0.53232 0.45466 0.3213 0.0
H1633 H 0.66991 0.52467 0.25072 0.0
H1634 H 0.63093 0.50096 0.25749 0.0
C1635 C 0.51747 0.44501 0.33583 0.0
C1636 C 0.57094 0.47212 0.30943 0.0
H1637 H 0.60488 0.5248 0.29536 0.0
C1638 C 0.58241 0.46238 0.30202 0.0
C1639 C 0.57858 0.49467 0.30628 0.0
C1640 C 0.56703 0.50602 0.31408 0.0
C1641 C 0.6023 0.475 0.29288 0.0
C1642 C 0.61072 0.49789 0.2909 0.0
C1643 C 0.59833 0.50723 0.29693 0.0
C1644 C 0.63375 0.51294 0.2858 0.0
C1645 C 0.61502 0.46416 0.28681 0.0
C1646 C 0.64809 0.52779 0.29931 0.0
C1647 C 0.67016 0.54126 0.2955 0.0
C1648 C 0.67842 0.54022 0.27805 0.0
C1649 C 0.664 0.5257 0.26433 0.0
C1650 C 0.64178 0.51214 0.26818 0.0
H1651 H 0.60723 0.44673 0.29121 0.0
H1652 H 0.61623 0.46443 0.27147 0.0
H1653 H 0.63184 0.47336 0.29263 0.0
H1654 H 0.64225 0.52864 0.31301 0.0
H1655 H 0.68079 0.55233 0.30635 0.0
H1656 H 0.54906 0.05564 0.33431 0.0
H1657 H 0.53208 0.06593 0.30969 0.0
H1658 H 0.54821 0.12569 0.34012 0.0
H1659 H 0.56487 0.11551 0.36466 0.0
H1660 H 0.49631 0.07316 0.318 0.0
H1661 H 0.56501 0.14637 0.28582 0.0
H1662 H 0.56858 0.12638 0.29845 0.0
H1663 H 0.5656 0.14714 0.31075 0.0
C1664 C 0.54937 0.07118 0.33551 0.0
C1665 C 0.55819 0.08472 0.35143 0.0
C1666 C 0.53968 0.07703 0.32147 0.0
C1667 C 0.53915 0.09672 0.32296 0.0
C1668 C 0.5488 0.11065 0.33849 0.0
H1669 H 0.47308 0.16151 0.28853 0.0
H1670 H 0.50079 0.15211 0.29679 0.0
C1671 C 0.55816 0.10469 0.35259 0.0
C1672 C 0.52623 0.1016 0.30973 0.0
H1673 H 0.52942 0.14165 0.28146 0.0
C1674 C 0.50352 0.08785 0.30965 0.0
C1675 C 0.53573 0.12094 0.29909 0.0
C1676 C 0.5601 0.13599 0.29836 0.0
C1677 C 0.48991 0.09355 0.30012 0.0
C1678 C 0.49935 0.11324 0.28979 0.0
C1679 C 0.52217 0.12653 0.28926 0.0
C1680 C 0.48568 0.12125 0.28113 0.0
C1681 C 0.46555 0.07915 0.30232 0.0
C1682 C 0.46879 0.10782 0.26859 0.0
C1683 C 0.45284 0.11307 0.26408 0.0
C1684 C 0.454 0.13224 0.27148 0.0
C1685 C 0.47213 0.14687 0.28236 0.0
C1686 C 0.48786 0.14141 0.28718 0.0
H1687 H 0.4613 0.06781 0.31417 0.0
H1688 H 0.4578 0.08931 0.30453 0.0
H1689 H 0.45845 0.0689 0.28956 0.0
H1690 H 0.46708 0.0925 0.26334 0.0
H1691 H 0.4388 0.10141 0.25587 0.0
H1692 H 0.64267 0.499 0.8855 0.0
H1693 H 0.6791 0.5077 0.87561 0.0
H1694 H 0.70424 0.57616 0.89051 0.0
H1695 H 0.66769 0.56757 0.8996 0.0
H1696 H 0.71124 0.57203 0.85556 0.0
H1697 H 0.738 0.52323 0.89541 0.0
H1698 H 0.71121 0.50631 0.88568 0.0
H1699 H 0.71593 0.52713 0.90294 0.0
C1700 C 0.65621 0.51569 0.88743 0.0
C1701 C 0.6525 0.53261 0.89339 0.0
C1702 C 0.67707 0.52069 0.88178 0.0
C1703 C 0.69454 0.54263 0.88234 0.0
C1704 C 0.69109 0.55914 0.88992 0.0
H1705 H 0.82218 0.60173 0.82744 0.0
H1706 H 0.79455 0.5923 0.8516 0.0
C1707 C 0.67024 0.55422 0.89523 0.0
C1708 C 0.71509 0.54899 0.87219 0.0
H1709 H 0.75563 0.53686 0.86594 0.0
C1710 C 0.72114 0.56463 0.85815 0.0
C1711 C 0.72802 0.53926 0.87539 0.0
C1712 C 0.72309 0.52322 0.89081 0.0
C1713 C 0.73923 0.57026 0.84691 0.0
C1714 C 0.75162 0.55996 0.84965 0.0
C1715 C 0.74603 0.54472 0.86391 0.0
C1716 C 0.7693 0.56381 0.83671 0.0
C1717 C 0.74464 0.58667 0.83167 0.0
C1718 C 0.76426 0.5507 0.82057 0.0
C1719 C 0.77984 0.55611 0.80676 0.0
C1720 C 0.80082 0.57474 0.80885 0.0
C1721 C 0.80618 0.58728 0.82545 0.0
C1722 C 0.79047 0.5819 0.83926 0.0
H1723 H 0.73386 0.59385 0.83177 0.0
H1724 H 0.76181 0.60026 0.83317 0.0
H1725 H 0.74299 0.57844 0.81799 0.0
H1726 H 0.74796 0.53678 0.81832 0.0
H1727 H 0.7752 0.54604 0.79419 0.0
H1728 H 0.38645 0.21556 0.83299 0.0
H1729 H 0.39656 0.20032 0.85921 0.0
H1730 H 0.44886 0.20298 0.82692 0.0
H1731 H 0.43905 0.21799 0.80109 0.0
H1732 H 0.39698 0.16066 0.85816 0.0
H1733 H 0.4789 0.22928 0.87659 0.0
H1734 H 0.45941 0.2333 0.86372 0.0
H1735 H 0.4764 0.22482 0.85195 0.0
C1736 C 0.40029 0.21316 0.83168 0.0
C1737 C 0.41191 0.21788 0.81498 0.0
C1738 C 0.40605 0.20451 0.84663 0.0
C1739 C 0.42375 0.20095 0.84514 0.0
C1740 C 0.43553 0.20612 0.82859 0.0
H1741 H 0.45598 0.10764 0.8613 0.0
H1742 H 0.4394 0.13007 0.85611 0.0
C1743 C 0.42971 0.2145 0.81373 0.0
C1744 C 0.42894 0.1897 0.85974 0.0
H1745 H 0.47324 0.19204 0.88036 0.0
C1746 C 0.41346 0.16772 0.86356 0.0
C1747 C 0.45028 0.199 0.86717 0.0
C1748 C 0.4671 0.223 0.8648 0.0
C1749 C 0.41948 0.15413 0.87276 0.0
C1750 C 0.44156 0.1627 0.87792 0.0
C1751 C 0.45639 0.18532 0.87606 0.0
C1752 C 0.45023 0.14804 0.88229 0.0
C1753 C 0.40239 0.1304 0.87594 0.0
C1754 C 0.46233 0.15102 0.89859 0.0
C1755 C 0.47203 0.13821 0.90156 0.0
C1756 C 0.47002 0.12251 0.88813 0.0
C1757 C 0.45783 0.11957 0.87192 0.0
C1758 C 0.44811 0.13222 0.86902 0.0
H1759 H 0.3861 0.12865 0.87796 0.0
H1760 H 0.40128 0.12028 0.86356 0.0
H1761 H 0.40644 0.12377 0.88822 0.0
H1762 H 0.46443 0.16336 0.90888 0.0
H1763 H 0.48134 0.14082 0.91419 0.0
H1764 H 0.87905 0.34437 0.85241 0.0
H1765 H 0.85545 0.30521 0.84542 0.0
H1766 H 0.83033 0.29487 0.90108 0.0
H1767 H 0.85398 0.33446 0.90822 0.0
H1768 H 0.85458 0.26932 0.86405 0.0
H1769 H 0.77523 0.26724 0.86653 0.0
H1770 H 0.80087 0.29273 0.86447 0.0
H1771 H 0.79341 0.27886 0.8862 0.0
C1772 C 0.86852 0.33384 0.8632 0.0
C1773 C 0.86829 0.34248 0.88085 0.0
C1774 C 0.85507 0.31145 0.85919 0.0
C1775 C 0.84107 0.29723 0.87269 0.0
C1776 C 0.84086 0.30568 0.89042 0.0
H1777 H 0.77852 0.15747 0.83782 0.0
H1778 H 0.79437 0.18945 0.85915 0.0
C1779 C 0.8544 0.32822 0.89448 0.0
C1780 C 0.82695 0.2736 0.8678 0.0
H1781 H 0.77462 0.23522 0.85574 0.0
C1782 C 0.83703 0.26163 0.86256 0.0
C1783 C 0.80412 0.26383 0.86581 0.0
C1784 C 0.79264 0.27625 0.87094 0.0
C1785 C 0.82507 0.24054 0.85438 0.0
C1786 C 0.80231 0.23101 0.85177 0.0
C1787 C 0.79205 0.24255 0.85789 0.0
C1788 C 0.78956 0.21051 0.84057 0.0
C1789 C 0.83715 0.22931 0.84749 0.0
C1790 C 0.78058 0.21144 0.82351 0.0
C1791 C 0.77136 0.19319 0.81142 0.0
C1792 C 0.77103 0.17373 0.81616 0.0
C1793 C 0.77882 0.17237 0.83371 0.0
C1794 C 0.78792 0.19061 0.84588 0.0
H1795 H 0.8551 0.24065 0.84758 0.0
H1796 H 0.83351 0.21529 0.85657 0.0
H1797 H 0.83188 0.22269 0.83315 0.0
H1798 H 0.78164 0.22663 0.81918 0.0
H1799 H 0.76534 0.19468 0.79804 0.0
H1800 H 0.41308 0.17733 0.33487 0.0
H1801 H 0.42664 0.21104 0.35364 0.0
H1802 H 0.44334 0.24944 0.30399 0.0
H1803 H 0.4301 0.21585 0.28501 0.0
H1804 H 0.47649 0.26671 0.33126 0.0
H1805 H 0.39662 0.24724 0.36074 0.0
H1806 H 0.40369 0.22633 0.3639 0.0
H1807 H 0.39887 0.23252 0.34091 0.0
C1808 C 0.4195 0.19289 0.32788 0.0
C1809 C 0.42038 0.19382 0.30839 0.0
C1810 C 0.42719 0.21214 0.33866 0.0
C1811 C 0.43571 0.23266 0.33019 0.0
C1812 C 0.43674 0.23372 0.31078 0.0
H1813 H 0.48453 0.36758 0.36314 0.0
H1814 H 0.47555 0.33313 0.34716 0.0
C1815 C 0.42911 0.21448 0.29996 0.0
C1816 C 0.44382 0.25309 0.34155 0.0
H1817 H 0.4278 0.27921 0.37255 0.0
C1818 C 0.46587 0.26948 0.34029 0.0
C1819 C 0.42991 0.25655 0.35337 0.0
C1820 C 0.40591 0.23984 0.35475 0.0
C1821 C 0.47441 0.2893 0.35059 0.0
C1822 C 0.46044 0.29287 0.3622 0.0
C1823 C 0.43848 0.27634 0.36368 0.0
C1824 C 0.46787 0.3141 0.37216 0.0
C1825 C 0.49833 0.30618 0.34904 0.0
C1826 C 0.46644 0.31479 0.39154 0.0
C1827 C 0.47148 0.33448 0.40078 0.0
C1828 C 0.47779 0.35376 0.39074 0.0
C1829 C 0.47971 0.35307 0.37134 0.0
C1830 C 0.47473 0.33341 0.36215 0.0
H1831 H 0.50783 0.2986 0.34392 0.0
H1832 H 0.50039 0.31892 0.33905 0.0
H1833 H 0.50522 0.3145 0.36264 0.0
H1834 H 0.46104 0.29998 0.39948 0.0
H1835 H 0.46978 0.33439 0.41571 0.0
H1836 H 0.63119 0.11408 0.36349 0.0
H1837 H 0.66576 0.13259 0.34712 0.0
H1838 H 0.70017 0.13678 0.39767 0.0
H1839 H 0.66561 0.11855 0.41434 0.0
H1840 H 0.7209 0.17483 0.37765 0.0
H1841 H 0.69961 0.10258 0.33193 0.0
H1842 H 0.67949 0.11076 0.3309 0.0
H1843 H 0.6841 0.10084 0.35231 0.0
C1844 C 0.6461 0.11907 0.37122 0.0
C1845 C 0.64557 0.11462 0.39022 0.0
C1846 C 0.66584 0.12948 0.36178 0.0
C1847 C 0.68545 0.13542 0.37106 0.0
C1848 C 0.68517 0.13204 0.3902 0.0
H1849 H 0.81633 0.20448 0.32008 0.0
H1850 H 0.78728 0.17991 0.3413 0.0
C1851 C 0.6654 0.12172 0.39972 0.0
C1852 C 0.70615 0.14524 0.36065 0.0
H1853 H 0.72935 0.13743 0.32195 0.0
C1854 C 0.72296 0.1665 0.36569 0.0
C1855 C 0.70891 0.13421 0.34519 0.0
C1856 C 0.69215 0.11074 0.33988 0.0
C1857 C 0.74183 0.1776 0.35494 0.0
C1858 C 0.7439 0.16707 0.33884 0.0
C1859 C 0.72764 0.14542 0.33432 0.0
C1860 C 0.7613 0.17939 0.32528 0.0
C1861 C 0.7589 0.20096 0.3602 0.0
C1862 C 0.75609 0.1865 0.30907 0.0
C1863 C 0.7725 0.2005 0.29711 0.0
C1864 C 0.79441 0.20745 0.30103 0.0
C1865 C 0.79954 0.19925 0.3167 0.0
C1866 C 0.78304 0.18538 0.32885 0.0
H1867 H 0.75426 0.20721 0.3726 0.0
H1868 H 0.77458 0.20173 0.3632 0.0
H1869 H 0.76162 0.21205 0.34844 0.0
H1870 H 0.73939 0.18198 0.30608 0.0
H1871 H 0.76807 0.20648 0.28508 0.0
H1872 H 0.90693 0.55658 0.38262 0.0
H1873 H 0.88038 0.56806 0.3755 0.0
H1874 H 0.88869 0.56113 0.31701 0.0
H1875 H 0.91528 0.55023 0.32384 0.0
H1876 H 0.88833 0.59903 0.32514 0.0
H1877 H 0.818 0.52685 0.35769 0.0
H1878 H 0.84111 0.54354 0.37252 0.0
H1879 H 0.84356 0.52799 0.35362 0.0
C1880 C 0.90314 0.55758 0.36825 0.0
C1881 C 0.91326 0.55238 0.35384 0.0
C1882 C 0.88788 0.56404 0.3642 0.0
C1883 C 0.88235 0.56524 0.3457 0.0
C1884 C 0.89269 0.56039 0.33138 0.0
H1885 H 0.77269 0.54727 0.28718 0.0
H1886 H 0.80164 0.54658 0.30453 0.0
C1887 C 0.90791 0.55407 0.33536 0.0
C1888 C 0.86554 0.57101 0.34083 0.0
H1889 H 0.81068 0.55115 0.34165 0.0
C1890 C 0.87138 0.58878 0.32896 0.0
C1891 C 0.84342 0.55754 0.34577 0.0
C1892 C 0.836 0.53781 0.35799 0.0
C1893 C 0.85561 0.59276 0.32114 0.0
C1894 C 0.83341 0.57887 0.32564 0.0
C1895 C 0.82772 0.56182 0.33827 0.0
C1896 C 0.81563 0.57984 0.31564 0.0
C1897 C 0.86272 0.61092 0.30725 0.0
C1898 C 0.81371 0.59881 0.31611 0.0
C1899 C 0.79713 0.59935 0.30596 0.0
C1900 C 0.78211 0.58084 0.29535 0.0
C1901 C 0.78396 0.56185 0.29518 0.0
C1902 C 0.8005 0.56137 0.30517 0.0
H1903 H 0.8798 0.61737 0.30276 0.0
H1904 H 0.85194 0.60496 0.29479 0.0
H1905 H 0.86162 0.6248 0.31362 0.0
H1906 H 0.82498 0.61315 0.32433 0.0
H1907 H 0.79603 0.61416 0.30647 0.0
H1908 H 0.54843 0.11707 0.86227 0.0
H1909 H 0.57879 0.11868 0.84535 0.0
H1910 H 0.55128 0.04866 0.85195 0.0
H1911 H 0.5202 0.04685 0.86856 0.0
H1912 H 0.60746 0.11003 0.8604 0.0
H1913 H 0.57073 0.05581 0.79828 0.0
H1914 H 0.55607 0.06546 0.81231 0.0
H1915 H 0.55879 0.04268 0.81975 0.0
C1916 C 0.54861 0.1019 0.85989 0.0
C1917 C 0.53199 0.08184 0.86686 0.0
C1918 C 0.56599 0.10286 0.85016 0.0
C1919 C 0.56736 0.08381 0.84726 0.0
C1920 C 0.55041 0.06352 0.85367 0.0
H1921 H 0.68784 0.08493 0.837 0.0
H1922 H 0.65139 0.07769 0.84421 0.0
C1923 C 0.53272 0.06251 0.86326 0.0
C1924 C 0.58769 0.08598 0.83937 0.0
H1925 H 0.60813 0.06778 0.80484 0.0
C1926 C 0.60753 0.10087 0.84816 0.0
C1927 C 0.5879 0.0742 0.8233 0.0
C1928 C 0.56726 0.05879 0.81273 0.0
C1929 C 0.62745 0.10408 0.84159 0.0
C1930 C 0.62763 0.09173 0.82598 0.0
C1931 C 0.60791 0.07712 0.81688 0.0
C1932 C 0.64823 0.09325 0.81975 0.0
C1933 C 0.64824 0.12073 0.85144 0.0
C1934 C 0.65823 0.10364 0.80315 0.0
C1935 C 0.67925 0.10779 0.79888 0.0
C1936 C 0.69053 0.10169 0.81124 0.0
C1937 C 0.67982 0.09018 0.82729 0.0
C1938 C 0.65892 0.08595 0.83145 0.0
H1939 H 0.64587 0.13256 0.86012 0.0
H1940 H 0.65372 0.11195 0.86066 0.0
H1941 H 0.66139 0.13016 0.84134 0.0
H1942 H 0.6502 0.10938 0.79393 0.0
H1943 H 0.68703 0.11666 0.78641 0.0
H1944 H 0.87412 0.43635 0.87234 0.0
H1945 H 0.86944 0.45953 0.85035 0.0
H1946 H 0.93272 0.47987 0.82749 0.0
H1947 H 0.93767 0.45648 0.84973 0.0
H1948 H 0.9221 0.51492 0.83411 0.0
H1949 H 0.85814 0.44342 0.79393 0.0
H1950 H 0.85349 0.44157 0.81849 0.0
H1951 H 0.8769 0.44124 0.80944 0.0
C1952 C 0.88717 0.44581 0.86274 0.0
C1953 C 0.9062 0.44442 0.86266 0.0
C1954 C 0.88439 0.45898 0.85011 0.0
C1955 C 0.90051 0.47099 0.83707 0.0
C1956 C 0.92 0.47049 0.83738 0.0
H1957 H 0.8672 0.53262 0.7475 0.0
H1958 H 0.88099 0.51175 0.76375 0.0
C1959 C 0.92282 0.45721 0.85009 0.0
C1960 C 0.89651 0.48381 0.82316 0.0
H1961 H 0.85979 0.47804 0.78982 0.0
C1962 C 0.90874 0.50691 0.82419 0.0
C1963 C 0.87926 0.47328 0.81006 0.0
C1964 C 0.86631 0.4485 0.80774 0.0
C1965 C 0.90327 0.51976 0.81322 0.0
C1966 C 0.88498 0.50917 0.80113 0.0
C1967 C 0.87363 0.48611 0.79927 0.0
C1968 C 0.87653 0.52163 0.79121 0.0
C1969 C 0.91686 0.54456 0.81488 0.0
C1970 C 0.86886 0.53351 0.80129 0.0
C1971 C 0.86083 0.54529 0.79211 0.0
C1972 C 0.86026 0.54542 0.77259 0.0
C1973 C 0.86743 0.53296 0.76252 0.0
C1974 C 0.87539 0.52108 0.77177 0.0
H1975 H 0.93348 0.55 0.82032 0.0
H1976 H 0.9183 0.55233 0.80127 0.0
H1977 H 0.90894 0.55062 0.82469 0.0
H1978 H 0.8691 0.53369 0.81632 0.0
H1979 H 0.85539 0.55459 0.80037 0.0
H1980 H 0.56137 0.47794 0.83419 0.0
H1981 H 0.54129 0.44301 0.81696 0.0
H1982 H 0.52771 0.40747 0.868 0.0
H1983 H 0.5476 0.4423 0.88548 0.0
H1984 H 0.54868 0.40643 0.81594 0.0
H1985 H 0.46717 0.38416 0.84351 0.0
H1986 H 0.4904 0.41176 0.84547 0.0
H1987 H 0.48794 0.3907 0.86074 0.0
C1988 C 0.55407 0.46273 0.84182 0.0
C1989 C 0.55599 0.46299 0.86128 0.0
C1990 C 0.54268 0.44279 0.83191 0.0
C1991 C 0.53288 0.42273 0.84124 0.0
C1992 C 0.53493 0.42283 0.8606 0.0
H1993 H 0.44781 0.28749 0.80503 0.0
H1994 H 0.47313 0.32081 0.82248 0.0
C1995 C 0.54634 0.44277 0.87054 0.0
C1996 C 0.52034 0.40172 0.83068 0.0
H1997 H 0.46906 0.35769 0.82431 0.0
C1998 C 0.53127 0.39573 0.81773 0.0
C1999 C 0.49766 0.38789 0.8331 0.0
C2000 C 0.485 0.39395 0.84633 0.0
C2001 C 0.52008 0.37603 0.80724 0.0
C2002 C 0.49737 0.36227 0.80958 0.0
C2003 C 0.48651 0.36826 0.8226 0.0
C2004 C 0.48428 0.34171 0.79853 0.0
C2005 C 0.5327 0.36996 0.79398 0.0
C2006 C 0.48244 0.34236 0.77919 0.0
C2007 C 0.46798 0.32328 0.76911 0.0
C2008 C 0.45494 0.30331 0.77825 0.0
C2009 C 0.45746 0.30261 0.79754 0.0
C2010 C 0.47195 0.32163 0.80757 0.0
H2011 H 0.55039 0.37893 0.79743 0.0
H2012 H 0.52653 0.35195 0.79406 0.0
H2013 H 0.53073 0.37441 0.77971 0.0
H2014 H 0.49152 0.35779 0.77199 0.0
H2015 H 0.46639 0.32441 0.75429 0.0
H2016 H 0.53755 0.65025 0.64133 0.0
H2017 H 0.54691 0.68747 0.65074 0.0
H2018 H 0.50826 0.68941 0.60548 0.0
H2019 H 0.49928 0.65204 0.59557 0.0
H2020 H 0.54658 0.72861 0.61024 0.0
H2021 H 0.50538 0.70155 0.67749 0.0
H2022 H 0.52456 0.69235 0.67453 0.0
H2023 H 0.50151 0.68231 0.65893 0.0
C2024 C 0.53109 0.6586 0.63331 0.0
C2025 C 0.51747 0.6482 0.61787 0.0
C2026 C 0.53633 0.67981 0.63878 0.0
C2027 C 0.5277 0.6909 0.62916 0.0
C2028 C 0.51482 0.68097 0.61323 0.0
H2029 H 0.5547 0.80774 0.69443 0.0
H2030 H 0.5334 0.77517 0.67444 0.0
C2031 C 0.50975 0.65971 0.60758 0.0
C2032 C 0.53239 0.71284 0.63603 0.0
H2033 H 0.53414 0.73985 0.6762 0.0
C2034 C 0.54348 0.73111 0.62455 0.0
C2035 C 0.52766 0.71603 0.65448 0.0
C2036 C 0.51388 0.69695 0.66697 0.0
C2037 C 0.55162 0.75267 0.63156 0.0
C2038 C 0.54916 0.75593 0.65065 0.0
C2039 C 0.53644 0.73752 0.66165 0.0
C2040 C 0.56139 0.77787 0.66008 0.0
C2041 C 0.56302 0.77164 0.61847 0.0
C2042 C 0.58416 0.79056 0.65842 0.0
C2043 C 0.59626 0.80938 0.66955 0.0
C2044 C 0.58589 0.81548 0.68296 0.0
C2045 C 0.56309 0.80327 0.68427 0.0
C2046 C 0.55092 0.7847 0.67283 0.0
H2047 H 0.55569 0.76679 0.60434 0.0
H2048 H 0.56222 0.78629 0.62332 0.0
H2049 H 0.58038 0.77626 0.61735 0.0
H2050 H 0.59277 0.78532 0.64921 0.0
H2051 H 0.61385 0.81843 0.66835 0.0
H2052 H 0.21446 0.76737 0.70316 0.0
H2053 H 0.24223 0.78528 0.67967 0.0
H2054 H 0.19733 0.79457 0.64622 0.0
H2055 H 0.16916 0.77661 0.67003 0.0
H2056 H 0.24384 0.77706 0.64117 0.0
H2057 H 0.24931 0.85778 0.65647 0.0
H2058 H 0.23501 0.83455 0.6715 0.0
H2059 H 0.22326 0.83478 0.64954 0.0
C2060 C 0.21033 0.77299 0.69074 0.0
C2061 C 0.18971 0.77085 0.68854 0.0
C2062 C 0.22622 0.78313 0.67727 0.0
C2063 C 0.22193 0.79147 0.66133 0.0
C2064 C 0.20101 0.78844 0.65856 0.0
H2065 H 0.33772 0.85901 0.58921 0.0
H2066 H 0.29921 0.83543 0.5973 0.0
C2067 C 0.18494 0.77812 0.6721 0.0
C2068 C 0.24021 0.80478 0.64869 0.0
H2069 H 0.27725 0.85833 0.63898 0.0
C2070 C 0.25092 0.79477 0.64025 0.0
C2071 C 0.24943 0.82789 0.6477 0.0
C2072 C 0.23882 0.83954 0.65682 0.0
C2073 C 0.27129 0.80743 0.63185 0.0
C2074 C 0.28103 0.83064 0.63175 0.0
C2075 C 0.26968 0.84051 0.63913 0.0
C2076 C 0.30403 0.84512 0.62634 0.0
C2077 C 0.28294 0.79604 0.62432 0.0
C2078 C 0.31937 0.85856 0.63992 0.0
C2079 C 0.34125 0.87201 0.63537 0.0
C2080 C 0.34823 0.87234 0.6171 0.0
C2081 C 0.33283 0.85899 0.60343 0.0
C2082 C 0.31086 0.84549 0.60802 0.0
H2083 H 0.27441 0.77825 0.62772 0.0
H2084 H 0.28396 0.79745 0.609 0.0
H2085 H 0.29983 0.80407 0.62996 0.0
H2086 H 0.31441 0.85848 0.65415 0.0
H2087 H 0.35269 0.88215 0.64619 0.0
H2088 H 0.22445 0.39699 0.66731 0.0
H2089 H 0.2086 0.40841 0.64261 0.0
H2090 H 0.21845 0.46385 0.67659 0.0
H2091 H 0.23414 0.45262 0.70113 0.0
H2092 H 0.17101 0.41161 0.64796 0.0
H2093 H 0.23964 0.49164 0.62563 0.0
H2094 H 0.24362 0.4717 0.63787 0.0
H2095 H 0.23688 0.48979 0.65038 0.0
C2096 C 0.22362 0.41185 0.66932 0.0
C2097 C 0.23048 0.42386 0.68618 0.0
C2098 C 0.21457 0.41836 0.65522 0.0
C2099 C 0.21264 0.43719 0.65764 0.0
C2100 C 0.2202 0.44957 0.67422 0.0
H2101 H 0.14137 0.49688 0.62725 0.0
H2102 H 0.17029 0.4892 0.6353 0.0
C2103 C 0.229 0.44299 0.68832 0.0
C2104 C 0.20045 0.44262 0.64403 0.0
H2105 H 0.20352 0.48531 0.61954 0.0
C2106 C 0.17818 0.4275 0.64134 0.0
C2107 C 0.20985 0.46344 0.63554 0.0
C2108 C 0.23387 0.48 0.63734 0.0
C2109 C 0.16471 0.43315 0.6315 0.0
C2110 C 0.17393 0.45435 0.6236 0.0
C2111 C 0.19645 0.46907 0.62551 0.0
C2112 C 0.15998 0.46228 0.61537 0.0
C2113 C 0.14049 0.41689 0.63081 0.0
C2114 C 0.14546 0.4507 0.60065 0.0
C2115 C 0.12886 0.45506 0.59611 0.0
C2116 C 0.12698 0.47145 0.60587 0.0
C2117 C 0.14284 0.48451 0.61925 0.0
C2118 C 0.15925 0.47999 0.62394 0.0
H2119 H 0.13561 0.40339 0.64085 0.0
H2120 H 0.13111 0.42526 0.63386 0.0
H2121 H 0.13583 0.4093 0.61671 0.0
H2122 H 0.14599 0.43727 0.59356 0.0
H2123 H 0.11653 0.4445 0.586 0.0
H2124 H 0.31916 0.88029 0.18483 0.0
H2125 H 0.35554 0.88702 0.17949 0.0
H2126 H 0.35548 0.85968 0.23259 0.0
H2127 H 0.31822 0.8526 0.23819 0.0
H2128 H 0.3929 0.91411 0.20276 0.0
H2129 H 0.37512 0.8276 0.19386 0.0
H2130 H 0.35377 0.8342 0.19168 0.0
H2131 H 0.36536 0.83536 0.21404 0.0
C2132 C 0.32668 0.87563 0.19551 0.0
C2133 C 0.31571 0.86604 0.21207 0.0
C2134 C 0.3476 0.87952 0.19238 0.0
C2135 C 0.3583 0.87399 0.20564 0.0
C2136 C 0.34744 0.864 0.22212 0.0
H2137 H 0.49259 0.92865 0.16315 0.0
H2138 H 0.46512 0.91784 0.1876 0.0
C2139 C 0.32619 0.85997 0.2253 0.0
C2140 C 0.38088 0.87923 0.2016 0.0
H2141 H 0.40863 0.85578 0.1829 0.0
C2142 C 0.39668 0.90144 0.1989 0.0
C2143 C 0.38564 0.86263 0.19656 0.0
C2144 C 0.36917 0.83855 0.19909 0.0
C2145 C 0.41628 0.90741 0.18973 0.0
C2146 C 0.42043 0.89068 0.1835 0.0
C2147 C 0.40544 0.86858 0.18767 0.0
C2148 C 0.43797 0.89534 0.16994 0.0
C2149 C 0.43137 0.93139 0.18535 0.0
C2150 C 0.43207 0.8856 0.15216 0.0
C2151 C 0.44767 0.89152 0.13834 0.0
C2152 C 0.46962 0.90742 0.1419 0.0
C2153 C 0.47578 0.91651 0.15993 0.0
C2154 C 0.46008 0.91041 0.17388 0.0
H2155 H 0.42399 0.94171 0.18861 0.0
H2156 H 0.44658 0.93789 0.19367 0.0
H2157 H 0.43578 0.93326 0.17045 0.0
H2158 H 0.41516 0.87395 0.14873 0.0
H2159 H 0.44233 0.88406 0.12466 0.0
H2160 H 0.14708 0.47492 0.24635 0.0
H2161 H 0.12995 0.49702 0.23986 0.0
H2162 H 0.11155 0.46705 0.18522 0.0
H2163 H 0.12835 0.44504 0.19157 0.0
H2164 H 0.14034 0.52744 0.21196 0.0
H2165 H 0.0547 0.46083 0.20403 0.0
H2166 H 0.07504 0.45682 0.21541 0.0
H2167 H 0.07225 0.45477 0.19051 0.0
C2168 C 0.13925 0.473 0.23301 0.0
C2169 C 0.13905 0.45825 0.21946 0.0
C2170 C 0.12943 0.48556 0.22935 0.0
C2171 C 0.11905 0.4833 0.21221 0.0
C2172 C 0.11893 0.46862 0.19873 0.0
H2173 H 0.10734 0.55713 0.13322 0.0
H2174 H 0.11775 0.54168 0.15836 0.0
C2175 C 0.12875 0.4562 0.20232 0.0
C2176 C 0.10971 0.49731 0.20751 0.0
H2177 H 0.06526 0.49403 0.18629 0.0
C2178 C 0.12373 0.52022 0.20683 0.0
C2179 C 0.08789 0.48802 0.20126 0.0
C2180 C 0.07155 0.46377 0.20304 0.0
C2181 C 0.11717 0.53374 0.19827 0.0
C2182 C 0.09622 0.524 0.18995 0.0
C2183 C 0.08145 0.50147 0.1924 0.0
C2184 C 0.09079 0.53583 0.17602 0.0
C2185 C 0.13313 0.55818 0.19737 0.0
C2186 C 0.07197 0.53752 0.17745 0.0
C2187 C 0.06589 0.54642 0.16292 0.0
C2188 C 0.07834 0.55328 0.14666 0.0
C2189 C 0.09736 0.55195 0.14553 0.0
C2190 C 0.10349 0.54332 0.16001 0.0
H2191 H 0.1442 0.56404 0.20966 0.0
H2192 H 0.14335 0.56156 0.18485 0.0
H2193 H 0.12462 0.56774 0.19659 0.0
H2194 H 0.06179 0.53155 0.18961 0.0
H2195 H 0.0511 0.54717 0.16412 0.0
H2196 H 0.51621 0.67224 0.24459 0.0
H2197 H 0.49201 0.63236 0.23899 0.0
H2198 H 0.52098 0.63804 0.18532 0.0
H2199 H 0.54498 0.67748 0.19072 0.0
H2200 H 0.46161 0.61101 0.20789 0.0
H2201 H 0.52512 0.5878 0.2111 0.0
H2202 H 0.52887 0.61324 0.22115 0.0
H2203 H 0.53282 0.61117 0.19671 0.0
C2204 C 0.51741 0.66489 0.23165 0.0
C2205 C 0.53249 0.67791 0.21811 0.0
C2206 C 0.50362 0.6422 0.22849 0.0
C2207 C 0.50501 0.63231 0.21188 0.0
C2208 C 0.51996 0.64534 0.19837 0.0
H2209 H 0.43158 0.53225 0.13625 0.0
H2210 H 0.44541 0.56296 0.1585 0.0
C2211 C 0.53358 0.6679 0.20144 0.0
C2212 C 0.49057 0.6085 0.208 0.0
H2213 H 0.4929 0.56357 0.193 0.0
C2214 C 0.46826 0.60037 0.20507 0.0
C2215 C 0.49922 0.59458 0.20472 0.0
C2216 C 0.52279 0.60206 0.20877 0.0
C2217 C 0.45474 0.57921 0.19736 0.0
C2218 C 0.46396 0.56618 0.19219 0.0
C2219 C 0.48584 0.57363 0.19671 0.0
C2220 C 0.45228 0.54622 0.18012 0.0
C2221 C 0.43092 0.57135 0.19428 0.0
C2222 C 0.45164 0.52659 0.18476 0.0
C2223 C 0.4441 0.50911 0.17188 0.0
C2224 C 0.43711 0.51103 0.15415 0.0
C2225 C 0.43682 0.53028 0.14983 0.0
C2226 C 0.4445 0.54778 0.16264 0.0
H2227 H 0.4249 0.5785 0.20497 0.0
H2228 H 0.42874 0.57692 0.18056 0.0
H2229 H 0.42081 0.55308 0.1946 0.0
H2230 H 0.45771 0.52509 0.19812 0.0
H2231 H 0.44439 0.4944 0.17562 0.0
H2232 H 0.12625 0.66287 0.74916 0.0
H2233 H 0.11716 0.62853 0.73259 0.0
H2234 H 0.13617 0.66328 0.68101 0.0
H2235 H 0.14553 0.69762 0.69733 0.0
H2236 H 0.08588 0.60888 0.70394 0.0
H2237 H 0.16758 0.6279 0.67993 0.0
H2238 H 0.16387 0.64349 0.69828 0.0
H2239 H 0.16097 0.64867 0.67441 0.0
C2240 C 0.12881 0.66329 0.73433 0.0
C2241 C 0.13661 0.68304 0.7246 0.0
C2242 C 0.12356 0.64364 0.72489 0.0
C2243 C 0.12623 0.64345 0.70562 0.0
C2244 C 0.13438 0.66316 0.69593 0.0
H2245 H 0.09448 0.54674 0.61779 0.0
H2246 H 0.10557 0.57997 0.63676 0.0
C2247 C 0.13958 0.68277 0.70531 0.0
C2248 C 0.11919 0.62245 0.69539 0.0
H2249 H 0.137 0.59666 0.66575 0.0
C2250 C 0.09707 0.60608 0.69574 0.0
C2251 C 0.13384 0.61894 0.68465 0.0
C2252 C 0.15793 0.63559 0.68439 0.0
C2253 C 0.08906 0.58651 0.68517 0.0
C2254 C 0.10366 0.58314 0.67423 0.0
C2255 C 0.12584 0.59938 0.67408 0.0
C2256 C 0.09627 0.56286 0.6628 0.0
C2257 C 0.06495 0.56991 0.68536 0.0
C2258 C 0.08741 0.54227 0.67119 0.0
C2259 C 0.081 0.52323 0.66041 0.0
C2260 C 0.08347 0.52444 0.64102 0.0
C2261 C 0.09229 0.54515 0.63266 0.0
C2262 C 0.09869 0.56418 0.64347 0.0
H2263 H 0.05537 0.57728 0.69075 0.0
H2264 H 0.05887 0.56297 0.67123 0.0
H2265 H 0.06198 0.55612 0.69449 0.0
H2266 H 0.08577 0.54097 0.68612 0.0
H2267 H 0.0744 0.50762 0.66736 0.0
H2268 H 0.33555 0.45299 0.7508 0.0
H2269 H 0.37077 0.47476 0.73543 0.0
H2270 H 0.33771 0.47652 0.68596 0.0
H2271 H 0.30255 0.45476 0.70104 0.0
H2272 H 0.38218 0.46141 0.69851 0.0
H2273 H 0.38644 0.54251 0.69922 0.0
H2274 H 0.37022 0.52109 0.71545 0.0
H2275 H 0.36055 0.51941 0.69213 0.0
C2276 C 0.33579 0.45829 0.73674 0.0
C2277 C 0.31622 0.45217 0.72715 0.0
C2278 C 0.35591 0.47058 0.72797 0.0
C2279 C 0.35675 0.47723 0.70962 0.0
C2280 C 0.33734 0.47162 0.70019 0.0
H2281 H 0.43479 0.54237 0.6193 0.0
H2282 H 0.40746 0.52012 0.64207 0.0
C2283 C 0.31727 0.45917 0.70883 0.0
C2284 C 0.37775 0.48951 0.69988 0.0
H2285 H 0.40972 0.53802 0.67808 0.0
C2286 C 0.38853 0.4783 0.69429 0.0
C2287 C 0.38592 0.51152 0.69454 0.0
C2288 C 0.37533 0.52447 0.70075 0.0
C2289 C 0.40656 0.48817 0.6824 0.0
C2290 C 0.41397 0.50979 0.67624 0.0
C2291 C 0.40389 0.52136 0.68274 0.0
C2292 C 0.43054 0.52009 0.66158 0.0
C2293 C 0.41677 0.47506 0.67567 0.0
C2294 C 0.45256 0.52674 0.6647 0.0
C2295 C 0.46832 0.53934 0.65148 0.0
C2296 C 0.46216 0.54562 0.63522 0.0
C2297 C 0.43999 0.53787 0.63177 0.0
C2298 C 0.42436 0.52519 0.64478 0.0
H2299 H 0.40733 0.45756 0.6799 0.0
H2300 H 0.41805 0.4756 0.66031 0.0
H2301 H 0.43351 0.48249 0.6815 0.0
H2302 H 0.45768 0.52316 0.67768 0.0
H2303 H 0.48534 0.54532 0.65451 0.0
H2304 H 0.57811 0.89129 0.71238 0.0
H2305 H 0.55136 0.9026 0.70557 0.0
H2306 H 0.56321 0.90115 0.64706 0.0
H2307 H 0.59001 0.89046 0.65361 0.0
H2308 H 0.56048 0.93733 0.65708 0.0
H2309 H 0.49045 0.86079 0.68481 0.0
H2310 H 0.51252 0.87697 0.70075 0.0
H2311 H 0.51679 0.86355 0.68114 0.0
C2312 C 0.57514 0.89356 0.69808 0.0
C2313 C 0.58619 0.88979 0.68357 0.0
C2314 C 0.55973 0.8999 0.69421 0.0
C2315 C 0.55504 0.90244 0.67577 0.0
C2316 C 0.56651 0.8993 0.66139 0.0
H2317 H 0.44552 0.88454 0.61609 0.0
H2318 H 0.47511 0.88395 0.63254 0.0
C2319 C 0.58185 0.89308 0.66521 0.0
C2320 C 0.53778 0.90761 0.67097 0.0
H2321 H 0.48252 0.88536 0.66999 0.0
C2322 C 0.54344 0.92616 0.66013 0.0
C2323 C 0.51554 0.89293 0.67486 0.0
C2324 C 0.50832 0.87234 0.68591 0.0
C2325 C 0.52747 0.92987 0.65235 0.0
C2326 C 0.5052 0.91484 0.65581 0.0
C2327 C 0.4996 0.89689 0.66738 0.0
C2328 C 0.4874 0.91591 0.64592 0.0
C2329 C 0.5345 0.9491 0.63961 0.0
C2330 C 0.48443 0.93417 0.64787 0.0
C2331 C 0.4675 0.93465 0.63827 0.0
C2332 C 0.45316 0.91678 0.62672 0.0
C2333 C 0.45624 0.89859 0.62486 0.0
C2334 C 0.47313 0.89818 0.63433 0.0
H2335 H 0.55188 0.95657 0.63561 0.0
H2336 H 0.52431 0.94386 0.6268 0.0
H2337 H 0.53243 0.96201 0.64676 0.0
H2338 H 0.49502 0.9479 0.65697 0.0
H2339 H 0.46543 0.9488 0.64012 0.0
H2340 H 0.22401 0.44999 0.20802 0.0
H2341 H 0.25277 0.44977 0.19002 0.0
H2342 H 0.21031 0.3808 0.1765 0.0
H2343 H 0.18116 0.3808 0.19491 0.0
H2344 H 0.25048 0.3897 0.18793 0.0
H2345 H 0.26084 0.44945 0.1346 0.0
H2346 H 0.26177 0.46065 0.15732 0.0
H2347 H 0.23712 0.43652 0.14921 0.0
C2348 C 0.22062 0.43473 0.20115 0.0
C2349 C 0.20022 0.41539 0.2029 0.0
C2350 C 0.23708 0.43472 0.19066 0.0
C2351 C 0.23358 0.41544 0.18148 0.0
C2352 C 0.21328 0.39597 0.18325 0.0
H2353 H 0.34987 0.43559 0.11918 0.0
H2354 H 0.31137 0.42393 0.1247 0.0
C2355 C 0.19667 0.39597 0.1938 0.0
C2356 C 0.25189 0.41561 0.17137 0.0
H2357 H 0.29291 0.44653 0.14128 0.0
C2358 C 0.25945 0.40177 0.1774 0.0
C2359 C 0.26343 0.431 0.15731 0.0
C2360 C 0.2552 0.44506 0.1491 0.0
C2361 C 0.27917 0.4042 0.17094 0.0
C2362 C 0.29188 0.42121 0.15839 0.0
C2363 C 0.2834 0.43376 0.15114 0.0
C2364 C 0.31494 0.42791 0.15456 0.0
C2365 C 0.28654 0.38897 0.17811 0.0
C2366 C 0.32978 0.43457 0.1694 0.0
C2367 C 0.35156 0.44115 0.16634 0.0
C2368 C 0.35925 0.44151 0.14827 0.0
C2369 C 0.3445 0.43539 0.13327 0.0
C2370 C 0.3225 0.42869 0.1364 0.0
H2371 H 0.27239 0.37273 0.18178 0.0
H2372 H 0.29656 0.38628 0.16774 0.0
H2373 H 0.29651 0.39636 0.19088 0.0
H2374 H 0.32455 0.43483 0.18347 0.0
H2375 H 0.36238 0.44606 0.17827 0.0
H2376 H 0.51821 0.88243 0.13272 0.0
H2377 H 0.53275 0.86261 0.14922 0.0
H2378 H 0.55957 0.85389 0.09833 0.0
H2379 H 0.54483 0.87354 0.08152 0.0
H2380 H 0.53939 0.81609 0.11934 0.0
H2381 H 0.5968 0.88784 0.16296 0.0
H2382 H 0.5694 0.8826 0.16435 0.0
H2383 H 0.58357 0.89055 0.14262 0.0
C2384 C 0.5271 0.87624 0.12495 0.0
C2385 C 0.53048 0.87977 0.10578 0.0
C2386 C 0.53557 0.86507 0.13446 0.0
C2387 C 0.54777 0.85735 0.1251 0.0
C2388 C 0.55045 0.85999 0.10585 0.0
H2389 H 0.60585 0.78806 0.18285 0.0
H2390 H 0.60305 0.81263 0.16041 0.0
C2391 C 0.54191 0.87114 0.09627 0.0
C2392 C 0.5573 0.84616 0.13549 0.0
H2393 H 0.58823 0.85203 0.17379 0.0
C2394 C 0.55045 0.82408 0.13099 0.0
C2395 C 0.57196 0.8567 0.15056 0.0
C2396 C 0.58105 0.8808 0.1553 0.0
C2397 C 0.55669 0.81185 0.14196 0.0
C2398 C 0.57005 0.82198 0.15775 0.0
C2399 C 0.57795 0.84436 0.16165 0.0
C2400 C 0.57315 0.8087 0.17174 0.0
C2401 C 0.54807 0.78783 0.13728 0.0
C2402 C 0.55752 0.79888 0.18559 0.0
C2403 C 0.55903 0.78497 0.19826 0.0
C2404 C 0.57628 0.78065 0.19738 0.0
C2405 C 0.59243 0.79116 0.18388 0.0
C2406 C 0.59083 0.8051 0.17106 0.0
H2407 H 0.53979 0.78299 0.12351 0.0
H2408 H 0.56161 0.78427 0.13736 0.0
H2409 H 0.53625 0.7775 0.148 0.0
H2410 H 0.54383 0.80158 0.18632 0.0
H2411 H 0.54638 0.77725 0.20855 0.0
H2412 H 0.20989 0.78005 0.2141 0.0
H2413 H 0.18906 0.74542 0.19652 0.0
H2414 H 0.19777 0.78168 0.1465 0.0
H2415 H 0.21828 0.81637 0.16393 0.0
H2416 H 0.15569 0.7478 0.15084 0.0
H2417 H 0.214 0.71825 0.16098 0.0
H2418 H 0.20506 0.72479 0.18219 0.0
H2419 H 0.22098 0.74631 0.16615 0.0
C2420 C 0.20737 0.7807 0.19936 0.0
C2421 C 0.21588 0.80105 0.19043 0.0
C2422 C 0.1956 0.76087 0.18932 0.0
C2423 C 0.19229 0.76101 0.17014 0.0
C2424 C 0.20031 0.78123 0.16127 0.0
H2425 H 0.12519 0.65963 0.08447 0.0
H2426 H 0.14908 0.69429 0.1012 0.0
C2427 C 0.212 0.80105 0.17129 0.0
C2428 C 0.18006 0.74009 0.15934 0.0
H2429 H 0.17978 0.69279 0.14709 0.0
C2430 C 0.16102 0.73583 0.14991 0.0
C2431 C 0.18712 0.72455 0.15815 0.0
C2432 C 0.20802 0.72873 0.16725 0.0
C2433 C 0.14858 0.71622 0.13962 0.0
C2434 C 0.15553 0.70063 0.13857 0.0
C2435 C 0.17458 0.70486 0.14793 0.0
C2436 C 0.14276 0.67951 0.12823 0.0
C2437 C 0.12781 0.71207 0.13027 0.0
C2438 C 0.13197 0.65971 0.13788 0.0
C2439 C 0.11832 0.63989 0.12841 0.0
C2440 C 0.11535 0.63951 0.10907 0.0
C2441 C 0.12704 0.65931 0.09935 0.0
C2442 C 0.14061 0.67915 0.10888 0.0
H2443 H 0.12263 0.72372 0.13532 0.0
H2444 H 0.13043 0.71413 0.11509 0.0
H2445 H 0.11441 0.69494 0.13264 0.0
H2446 H 0.13356 0.65969 0.15283 0.0
H2447 H 0.10974 0.62494 0.13633 0.0
H2448 H 0.36358 0.26379 0.0227 0.0
H2449 H 0.3944 0.29791 0.03549 0.0
H2450 H 0.37222 0.27571 0.09094 0.0
H2451 H 0.34197 0.24171 0.07841 0.0
H2452 H 0.38524 0.32504 0.05424 0.0
H2453 H 0.43686 0.30752 0.09943 0.0
H2454 H 0.4188 0.28797 0.08203 0.0
H2455 H 0.40868 0.28945 0.10463 0.0
C2456 C 0.36575 0.2659 0.03761 0.0
C2457 C 0.35015 0.25029 0.04954 0.0
C2458 C 0.38338 0.28535 0.0449 0.0
C2459 C 0.38574 0.28929 0.06418 0.0
C2460 C 0.3711 0.27289 0.07606 0.0
H2461 H 0.41093 0.38593 0.14425 0.0
H2462 H 0.40724 0.35371 0.12708 0.0
C2463 C 0.35355 0.25356 0.06883 0.0
C2464 C 0.40014 0.31181 0.07184 0.0
H2465 H 0.4336 0.33955 0.10871 0.0
C2466 C 0.39637 0.32846 0.06578 0.0
C2467 C 0.41447 0.31615 0.087 0.0
C2468 C 0.42008 0.29932 0.0935 0.0
C2469 C 0.40504 0.34866 0.07538 0.0
C2470 C 0.41837 0.35255 0.09122 0.0
C2471 C 0.42331 0.33646 0.09661 0.0
C2472 C 0.42531 0.37229 0.10323 0.0
C2473 C 0.39843 0.36494 0.06925 0.0
C2474 C 0.43769 0.39342 0.09591 0.0
C2475 C 0.43934 0.41161 0.10546 0.0
C2476 C 0.42921 0.40901 0.12271 0.0
C2477 C 0.41887 0.38826 0.13097 0.0
C2478 C 0.4168 0.36992 0.12119 0.0
H2479 H 0.38455 0.35743 0.05923 0.0
H2480 H 0.39373 0.37159 0.08132 0.0
H2481 H 0.4124 0.37895 0.06234 0.0
H2482 H 0.44477 0.39563 0.08225 0.0
H2483 H 0.44763 0.42757 0.09894 0.0
H2484 H 0.5794 0.98262 0.05567 0.0
H2485 H 0.61786 0.01017 0.05813 0.0
H2486 H 0.61362 0.00875 0.11781 0.0
H2487 H 0.57493 0.98028 0.1155 0.0
H2488 H 0.64352 0.05093 0.07331 0.0
H2489 H 0.65734 0.98906 0.10844 0.0
H2490 H 0.63142 0.98199 0.09824 0.0
H2491 H 0.63949 0.99611 0.12039 0.0
C2492 C 0.58649 0.98824 0.06938 0.0
C2493 C 0.57416 0.97878 0.08542 0.0
C2494 C 0.60852 0.00416 0.07074 0.0
C2495 C 0.61876 0.0111 0.08813 0.0
C2496 C 0.60614 0.00317 0.10423 0.0
H2497 H 0.75786 0.07772 0.11059 0.0
H2498 H 0.71951 0.06671 0.11307 0.0
C2499 C 0.584 0.98703 0.10289 0.0
C2500 C 0.64288 0.02482 0.08907 0.0
H2501 H 0.68816 0.02299 0.10177 0.0
C2502 C 0.65331 0.04496 0.07972 0.0
C2503 C 0.65562 0.01685 0.09722 0.0
C2504 C 0.64547 0.99475 0.1065 0.0
C2505 C 0.67612 0.05718 0.0781 0.0
C2506 C 0.68872 0.04898 0.086 0.0
C2507 C 0.67837 0.02923 0.0958 0.0
C2508 C 0.71262 0.05989 0.08373 0.0
C2509 C 0.68659 0.07861 0.06786 0.0
C2510 C 0.72162 0.06033 0.06628 0.0
C2511 C 0.74364 0.06657 0.06478 0.0
C2512 C 0.75684 0.07221 0.08077 0.0
C2513 C 0.74805 0.07314 0.09803 0.0
C2514 C 0.72615 0.06696 0.09949 0.0
H2515 H 0.67535 0.08514 0.06636 0.0
H2516 H 0.70168 0.09122 0.07513 0.0
H2517 H 0.69115 0.07585 0.05377 0.0
H2518 H 0.71134 0.0546 0.05398 0.0
H2519 H 0.74992 0.06565 0.05132 0.0
H2520 H 0.92447 0.67913 0.10728 0.0
H2521 H 0.93639 0.65232 0.1055 0.0
H2522 H 0.93936 0.65699 0.04589 0.0
H2523 H 0.92815 0.68476 0.04758 0.0
H2524 H 0.92363 0.61268 0.08949 0.0
H2525 H 0.00183 0.67689 0.0594 0.0
H2526 H 0.9818 0.68308 0.06827 0.0
H2527 H 0.9781 0.67019 0.04574 0.0
C2528 C 0.92744 0.67438 0.09371 0.0
C2529 C 0.9259 0.68456 0.07758 0.0
C2530 C 0.93414 0.65888 0.09274 0.0
C2531 C 0.93935 0.65309 0.07563 0.0
C2532 C 0.93599 0.66171 0.05931 0.0
H2533 H 0.00946 0.58432 0.05344 0.0
H2534 H 0.98326 0.59688 0.0516 0.0
C2535 C 0.9294 0.67743 0.06027 0.0
C2536 C 0.95015 0.63971 0.07534 0.0
H2537 H 0.99825 0.6424 0.06485 0.0
C2538 C 0.93988 0.61909 0.08397 0.0
C2539 C 0.97152 0.64826 0.06841 0.0
C2540 C 0.98409 0.67089 0.06009 0.0
C2541 C 0.95044 0.60688 0.08588 0.0
C2542 C 0.97174 0.61551 0.07898 0.0
C2543 C 0.98184 0.63585 0.07006 0.0
C2544 C 0.98424 0.60405 0.08096 0.0
C2545 C 0.9389 0.58489 0.09527 0.0
C2546 C 0.993 0.60335 0.09823 0.0
C2547 C 0.00818 0.59625 0.09937 0.0
C2548 C 0.01488 0.58998 0.08319 0.0
C2549 C 0.00491 0.58937 0.06614 0.0
C2550 C 0.98985 0.59644 0.06504 0.0
H2551 H 0.92128 0.57889 0.09719 0.0
H2552 H 0.94067 0.57238 0.08705 0.0
H2553 H 0.94647 0.5865 0.1091 0.0
H2554 H 0.98902 0.60942 0.11065 0.0
H2555 H 0.01558 0.59694 0.11267 0.0
H2556 H 0.24332 0.30906 0.45129 0.0
H2557 H 0.28252 0.33594 0.45266 0.0
H2558 H 0.28191 0.34692 0.39404 0.0
H2559 H 0.24298 0.32073 0.39265 0.0
H2560 H 0.31095 0.32848 0.43382 0.0
H2561 H 0.32243 0.40887 0.41257 0.0
H2562 H 0.2964 0.38653 0.41995 0.0
H2563 H 0.30537 0.38715 0.39648 0.0
C2564 C 0.25142 0.31777 0.43885 0.0
C2565 C 0.24009 0.31259 0.42184 0.0
C2566 C 0.27383 0.33307 0.43963 0.0
C2567 C 0.28515 0.34357 0.42347 0.0
C2568 C 0.27353 0.33943 0.40676 0.0
H2569 H 0.4171 0.39299 0.3862 0.0
H2570 H 0.37808 0.38082 0.38805 0.0
C2571 C 0.25124 0.32422 0.40597 0.0
C2572 C 0.30934 0.35613 0.42331 0.0
H2573 H 0.35358 0.40404 0.40899 0.0
C2574 C 0.32026 0.34513 0.42868 0.0
C2575 C 0.32149 0.37779 0.41639 0.0
C2576 C 0.31081 0.39084 0.41119 0.0
C2577 C 0.34288 0.35491 0.42682 0.0
C2578 C 0.35492 0.37628 0.41949 0.0
C2579 C 0.34418 0.38754 0.41441 0.0
C2580 C 0.37881 0.38713 0.41759 0.0
C2581 C 0.3538 0.34218 0.43237 0.0
C2582 C 0.39206 0.39531 0.43345 0.0
C2583 C 0.41414 0.40214 0.43246 0.0
C2584 C 0.42343 0.40092 0.41556 0.0
C2585 C 0.41042 0.39411 0.3994 0.0
C2586 C 0.38817 0.38716 0.40043 0.0
H2587 H 0.34183 0.32473 0.43555 0.0
H2588 H 0.36461 0.34248 0.42112 0.0
H2589 H 0.36411 0.3501 0.44489 0.0
H2590 H 0.38508 0.39546 0.44678 0.0
H2591 H 0.42379 0.40762 0.44513 0.0
H2592 H 0.58157 0.00745 0.44072 0.0
H2593 H 0.59411 0.98094 0.44205 0.0
H2594 H 0.61513 0.99442 0.38529 0.0
H2595 H 0.60251 0.02107 0.38378 0.0
H2596 H 0.5947 0.94646 0.3989 0.0
H2597 H 0.66316 0.01125 0.44165 0.0
H2598 H 0.63602 0.00364 0.44869 0.0
H2599 H 0.64627 0.01728 0.42708 0.0
C2600 C 0.58842 0.00443 0.42836 0.0
C2601 C 0.59141 0.0166 0.41222 0.0
C2602 C 0.59552 0.98925 0.42916 0.0
C2603 C 0.60582 0.98604 0.41388 0.0
C2604 C 0.60722 0.99676 0.39723 0.0
H2605 H 0.68465 0.93003 0.38906 0.0
H2606 H 0.65758 0.94135 0.38927 0.0
C2607 C 0.59998 0.01192 0.39637 0.0
C2608 C 0.61751 0.97381 0.4161 0.0
H2609 H 0.66294 0.97815 0.43627 0.0
C2610 C 0.60956 0.95327 0.40711 0.0
C2611 C 0.63679 0.98274 0.42696 0.0
C2612 C 0.64624 0.005 0.43659 0.0
C2613 C 0.62056 0.94144 0.40864 0.0
C2614 C 0.64022 0.95069 0.41908 0.0
C2615 C 0.64781 0.971 0.42839 0.0
C2616 C 0.65439 0.94085 0.41913 0.0
C2617 C 0.61098 0.91915 0.3991 0.0
C2618 C 0.66183 0.93692 0.4359 0.0
C2619 C 0.6777 0.93069 0.43588 0.0
C2620 C 0.68652 0.92853 0.41906 0.0
C2621 C 0.67837 0.93168 0.4023 0.0
C2622 C 0.66261 0.93789 0.40236 0.0
H2623 H 0.593 0.91119 0.39759 0.0
H2624 H 0.61788 0.92125 0.38497 0.0
H2625 H 0.61481 0.90797 0.40683 0.0
H2626 H 0.65582 0.93929 0.44903 0.0
H2627 H 0.68359 0.92839 0.44901 0.0
H2628 H 0.08758 0.74793 0.42305 0.0
H2629 H 0.08242 0.71267 0.41237 0.0
H2630 H 0.08743 0.69584 0.4687 0.0
H2631 H 0.09202 0.73117 0.47975 0.0
H2632 H 0.10436 0.68922 0.41507 0.0
H2633 H 0.02557 0.6493 0.45308 0.0
H2634 H 0.0414 0.67873 0.45025 0.0
H2635 H 0.04989 0.66557 0.46669 0.0
C2636 C 0.08776 0.73688 0.43326 0.0
C2637 C 0.08961 0.74214 0.45234 0.0
C2638 C 0.08504 0.71679 0.42706 0.0
C2639 C 0.08418 0.70153 0.43976 0.0
C2640 C 0.08768 0.70731 0.45871 0.0
H2641 H 0.01062 0.56345 0.40865 0.0
H2642 H 0.03954 0.59559 0.42512 0.0
C2643 C 0.09031 0.72748 0.46499 0.0
C2644 C 0.07679 0.67881 0.43308 0.0
H2645 H 0.03155 0.62759 0.4321 0.0
C2646 C 0.08866 0.67555 0.41905 0.0
C2647 C 0.05627 0.66107 0.43828 0.0
C2648 C 0.0424 0.66373 0.45279 0.0
C2649 C 0.08002 0.65525 0.40944 0.0
C2650 C 0.05894 0.63799 0.41389 0.0
C2651 C 0.04776 0.64085 0.42873 0.0
C2652 C 0.04678 0.61775 0.40225 0.0
C2653 C 0.09327 0.6527 0.39433 0.0
C2654 C 0.042 0.61928 0.38359 0.0
C2655 C 0.02563 0.60078 0.37403 0.0
C2656 C 0.01363 0.58075 0.38321 0.0
C2657 C 0.01962 0.57883 0.40135 0.0
C2658 C 0.03617 0.59714 0.41074 0.0
H2659 H 0.11102 0.66351 0.39711 0.0
H2660 H 0.08948 0.63536 0.39287 0.0
H2661 H 0.08952 0.6577 0.38095 0.0
H2662 H 0.0496 0.6351 0.37688 0.0
H2663 H 0.02113 0.60263 0.3601 0.0
H2664 H 0.58579 0.56952 0.89253 0.0
H2665 H 0.60448 0.60991 0.89367 0.0
H2666 H 0.65262 0.61162 0.93127 0.0
H2667 H 0.63314 0.57134 0.93107 0.0
H2668 H 0.64136 0.6389 0.943 0.0
H2669 H 0.65793 0.65299 0.86795 0.0
H2670 H 0.62935 0.63643 0.87242 0.0
H2671 H 0.64729 0.62615 0.87788 0.0
C2672 C 0.60041 0.57863 0.90096 0.0
C2673 C 0.60808 0.5675 0.91174 0.0
C2674 C 0.61118 0.60166 0.90149 0.0
C2675 C 0.63022 0.61385 0.91227 0.0
C2676 C 0.63796 0.60261 0.92286 0.0
H2677 H 0.72318 0.75224 0.89987 0.0
H2678 H 0.70259 0.71196 0.89912 0.0
C2679 C 0.62687 0.57963 0.92274 0.0
C2680 C 0.64178 0.63828 0.91311 0.0
H2681 H 0.66459 0.68415 0.88649 0.0
C2682 C 0.64657 0.6488 0.93063 0.0
C2683 C 0.6488 0.65121 0.89699 0.0
C2684 C 0.64579 0.64111 0.87778 0.0
C2685 C 0.65835 0.67185 0.93252 0.0
C2686 C 0.66458 0.68476 0.91639 0.0
C2687 C 0.65963 0.67424 0.89886 0.0
C2688 C 0.67708 0.7092 0.91728 0.0
C2689 C 0.66465 0.68196 0.95179 0.0
C2690 C 0.6696 0.7211 0.9277 0.0
C2691 C 0.68172 0.74412 0.92857 0.0
C2692 C 0.70103 0.75556 0.91847 0.0
C2693 C 0.70825 0.74373 0.90771 0.0
C2694 C 0.69648 0.72075 0.90726 0.0
H2695 H 0.66479 0.6702 0.96182 0.0
H2696 H 0.68101 0.69709 0.95199 0.0
H2697 H 0.65253 0.68638 0.95668 0.0
H2698 H 0.65433 0.71261 0.93506 0.0
H2699 H 0.67575 0.75299 0.93678 0.0
H2700 H 0.23491 0.92689 0.93637 0.0
H2701 H 0.27309 0.93616 0.93346 0.0
H2702 H 0.29062 0.00105 0.91492 0.0
H2703 H 0.25296 0.99201 0.91756 0.0
H2704 H 0.30654 0.97926 0.8922 0.0
H2705 H 0.32541 0.9783 0.96712 0.0
H2706 H 0.30221 0.95423 0.95712 0.0
H2707 H 0.30179 0.97944 0.95963 0.0
C2708 C 0.24698 0.9432 0.93188 0.0
C2709 C 0.24084 0.95867 0.92715 0.0
C2710 C 0.26876 0.94845 0.9302 0.0
C2711 C 0.28467 0.96928 0.92392 0.0
C2712 C 0.27859 0.98481 0.91961 0.0
H2713 H 0.41166 0.06531 0.93328 0.0
H2714 H 0.37369 0.03679 0.93439 0.0
C2715 C 0.257 0.9796 0.9212 0.0
C2716 C 0.30782 0.97551 0.92166 0.0
H2717 H 0.35471 0.99296 0.94657 0.0
C2718 C 0.31708 0.98178 0.904 0.0
C2719 C 0.32143 0.97869 0.93708 0.0
C2720 C 0.31236 0.97245 0.95636 0.0
C2721 C 0.33975 0.99276 0.90157 0.0
C2722 C 0.35347 0.99728 0.9172 0.0
C2723 C 0.3441 0.9894 0.93461 0.0
C2724 C 0.37712 0.01373 0.91654 0.0
C2725 C 0.34893 0.00104 0.8826 0.0
C2726 C 0.39184 0.0103 0.90603 0.0
C2727 C 0.41393 0.02686 0.90524 0.0
C2728 C 0.42154 0.047 0.91501 0.0
C2729 C 0.40659 0.0501 0.92556 0.0
C2730 C 0.38476 0.03371 0.92631 0.0
H2731 H 0.33604 -0.0021 0.87227 0.0
H2732 H 0.3608 0.01905 0.88331 0.0
H2733 H 0.35772 0.99267 0.87761 0.0
H2734 H 0.38628 0.99489 0.89848 0.0
H2735 H 0.42499 0.02387 0.89707 0.0
H2736 H 0.04265 0.29239 0.94272 0.0
H2737 H 0.02945 0.31848 0.93965 0.0
H2738 H 0.03847 0.31919 0.88043 0.0
H2739 H 0.05055 0.29238 0.8834 0.0
H2740 H 0.04314 0.35947 0.92538 0.0
H2741 H 0.97383 0.29485 0.88365 0.0
H2742 H 0.9928 0.2895 0.89572 0.0
H2743 H 0.99997 0.30321 0.8738 0.0
C2744 C 0.04226 0.29857 0.92915 0.0
C2745 C 0.04736 0.29033 0.91327 0.0
C2746 C 0.03469 0.3134 0.92738 0.0
C2747 C 0.03239 0.32028 0.90974 0.0
C2748 C 0.03948 0.31359 0.8941 0.0
H2749 H 0.95695 0.38307 0.8788 0.0
H2750 H 0.98576 0.37343 0.87777 0.0
C2751 C 0.04654 0.29845 0.89582 0.0
C2752 C 0.0207 0.33263 0.9075 0.0
H2753 H 0.97516 0.32874 0.88778 0.0
C2754 C 0.02837 0.35284 0.91705 0.0
C2755 C 0.00132 0.32389 0.89669 0.0
C2756 C 0.99135 0.30159 0.88703 0.0
C2757 C 0.01703 0.36438 0.91626 0.0
C2758 C 0.99757 0.35546 0.90566 0.0
C2759 C 0.99028 0.33566 0.89566 0.0
C2760 C 0.98289 0.36462 0.90667 0.0
C2761 C 0.02567 0.38583 0.92698 0.0
C2762 C 0.97191 0.36292 0.92324 0.0
C2763 C 0.95535 0.368 0.92377 0.0
C2764 C 0.9495 0.37505 0.90776 0.0
C2765 C 0.96119 0.37776 0.89134 0.0
C2766 C 0.97761 0.37229 0.89075 0.0
H2767 H 0.0433 0.39334 0.93031 0.0
H2768 H 0.02316 0.39781 0.91908 0.0
H2769 H 0.01673 0.3827 0.94024 0.0
H2770 H 0.97546 0.35666 0.93558 0.0
H2771 H 0.94675 0.36591 0.93666 0.0
H2772 H 0.75403 0.70746 0.61087 0.0
H2773 H 0.71507 0.681 0.6127 0.0
H2774 H 0.71005 0.67952 0.55298 0.0
H2775 H 0.74947 0.70551 0.55112 0.0
H2776 H 0.6862 0.69143 0.60214 0.0
H2777 H 0.66944 0.61537 0.56388 0.0
H2778 H 0.6966 0.63622 0.57114 0.0
H2779 H 0.68459 0.63973 0.55045 0.0
C2780 C 0.7447 0.70099 0.59811 0.0
C2781 C 0.75466 0.70852 0.58085 0.0
C2782 C 0.72245 0.68588 0.59917 0.0
C2783 C 0.70956 0.67819 0.583 0.0
C2784 C 0.71968 0.68483 0.56564 0.0
H2785 H 0.57809 0.63968 0.56082 0.0
H2786 H 0.61658 0.65085 0.56062 0.0
C2787 C 0.74217 0.69973 0.56456 0.0
C2788 C 0.68543 0.66586 0.58462 0.0
H2789 H 0.63856 0.61992 0.56965 0.0
C2790 C 0.67585 0.67559 0.5953 0.0
C2791 C 0.67187 0.64523 0.57565 0.0
C2792 C 0.68115 0.63341 0.56479 0.0
C2793 C 0.65318 0.66562 0.5968 0.0
C2794 C 0.63967 0.64543 0.58736 0.0
C2795 C 0.64908 0.63539 0.57695 0.0
C2796 C 0.61581 0.63594 0.58676 0.0
C2797 C 0.64368 0.6771 0.60791 0.0
C2798 C 0.6026 0.62358 0.6015 0.0
C2799 C 0.58043 0.61707 0.6017 0.0
C2800 C 0.57131 0.62313 0.58727 0.0
C2801 C 0.58459 0.63495 0.57229 0.0
C2802 C 0.60657 0.64121 0.57204 0.0
H2803 H 0.65647 0.6928 0.61445 0.0
H2804 H 0.63333 0.68069 0.59878 0.0
H2805 H 0.63311 0.66609 0.61897 0.0
H2806 H 0.60959 0.61953 0.61306 0.0
H2807 H 0.57064 0.60798 0.61341 0.0
H2808 H 0.25578 0.00378 0.58323 0.0
H2809 H 0.28414 0.99485 0.58847 0.0
H2810 H 0.33267 0.0589 0.56932 0.0
H2811 H 0.30406 0.06824 0.56402 0.0
H2812 H 0.33538 0.01957 0.55573 0.0
H2813 H 0.32974 0.02405 0.63208 0.0
H2814 H 0.3036 0.00845 0.62082 0.0
H2815 H 0.32036 0.03746 0.61649 0.0
C2816 C 0.27243 0.01605 0.58001 0.0
C2817 C 0.27765 0.03688 0.57342 0.0
C2818 C 0.28865 0.01089 0.58309 0.0
C2819 C 0.31052 0.0264 0.57972 0.0
C2820 C 0.31586 0.04683 0.57222 0.0
H2821 H 0.40268 0.97708 0.59403 0.0
H2822 H 0.39274 0.00589 0.59192 0.0
C2823 C 0.2995 0.05207 0.56911 0.0
C2824 C 0.32737 0.02072 0.58434 0.0
H2825 H 0.34341 0.00098 0.62026 0.0
C2826 C 0.3378 0.01618 0.56988 0.0
C2827 C 0.33054 0.01642 0.60283 0.0
C2828 C 0.32064 0.02205 0.61898 0.0
C2829 C 0.34968 0.00555 0.5733 0.0
C2830 C 0.35117 -0.00052 0.59162 0.0
C2831 C 0.34222 0.00564 0.60623 0.0
C2832 C 0.3582 0.98334 0.59531 0.0
C2833 C 0.35906 -0.00077 0.55719 0.0
C2834 C 0.34217 0.96143 0.59858 0.0
C2835 C 0.34773 0.94511 0.59969 0.0
C2836 C 0.3695 0.95041 0.59778 0.0
C2837 C 0.38581 0.97261 0.59572 0.0
C2838 C 0.38015 0.989 0.59436 0.0
H2839 H 0.35617 0.00484 0.54373 0.0
H2840 H 0.37689 0.0066 0.55928 0.0
H2841 H 0.3517 0.98102 0.55648 0.0
H2842 H 0.32515 0.95676 0.59941 0.0
H2843 H 0.33485 0.92814 0.60133 0.0
H2844 H 0.05469 0.42255 0.55809 0.0
H2845 H 0.03401 0.38226 0.55509 0.0
H2846 H 0.0097 0.37798 0.61057 0.0
H2847 H 0.03033 0.41827 0.61372 0.0
H2848 H 0.0356 0.34989 0.57945 0.0
H2849 H 0.95455 0.34367 0.57569 0.0
H2850 H 0.97972 0.36896 0.57129 0.0
H2851 H 0.97192 0.3601 0.59467 0.0
C2852 C 0.04501 0.41302 0.56967 0.0
C2853 C 0.04396 0.42349 0.5861 0.0
C2854 C 0.03325 0.39006 0.56793 0.0
C2855 C 0.02018 0.37731 0.58252 0.0
C2856 C 0.01951 0.38767 0.59909 0.0
H2857 H 0.9587 0.23973 0.60556 0.0
H2858 H 0.98034 0.27998 0.60529 0.0
C2859 C 0.03135 0.41062 0.60089 0.0
C2860 C 0.00709 0.35314 0.58037 0.0
H2861 H 0.95469 0.31013 0.57828 0.0
C2862 C 0.01792 0.34116 0.57909 0.0
C2863 C 0.98407 0.34197 0.57966 0.0
C2864 C 0.9718 0.35428 0.58024 0.0
C2865 C 0.00621 0.31807 0.5777 0.0
C2866 C 0.98319 0.30687 0.5777 0.0
C2867 C 0.97237 0.31888 0.5784 0.0
C2868 C 0.97006 0.28262 0.57769 0.0
C2869 C 0.01848 0.30578 0.57631 0.0
C2870 C 0.95685 0.27095 0.56237 0.0
C2871 C 0.94446 0.24794 0.56246 0.0
C2872 C 0.94499 0.23638 0.57798 0.0
C2873 C 0.95799 0.2482 0.59341 0.0
C2874 C 0.97044 0.27115 0.59325 0.0
H2875 H 0.03575 0.3168 0.57236 0.0
H2876 H 0.01827 0.29864 0.58997 0.0
H2877 H 0.01061 0.292 0.56597 0.0
H2878 H 0.95632 0.27965 0.5503 0.0
H2879 H 0.93456 0.23921 0.5504 0.0
H2880 H 0.9063 0.64467 0.78067 0.0
H2881 H 0.94505 0.67296 0.78211 0.0
H2882 H 0.94622 0.67696 0.72245 0.0
H2883 H 0.90768 0.6494 0.72092 0.0
H2884 H 0.97507 0.66532 0.76726 0.0
H2885 H 0.98434 0.74092 0.73625 0.0
H2886 H 0.95835 0.71882 0.74396 0.0
H2887 H 0.96859 0.71724 0.72148 0.0
C2888 C 0.91466 0.6521 0.76792 0.0
C2889 C 0.90396 0.64457 0.75068 0.0
C2890 C 0.93681 0.66824 0.76876 0.0
C2891 C 0.94854 0.67723 0.75239 0.0
C2892 C 0.9375 0.67069 0.73529 0.0
H2893 H 0.08058 0.72538 0.71849 0.0
H2894 H 0.04175 0.71407 0.7195 0.0
C2895 C 0.91544 0.65467 0.73444 0.0
C2896 C 0.9727 0.69062 0.75281 0.0
H2897 H 0.01639 0.73714 0.73581 0.0
C2898 C 0.98408 0.68122 0.76069 0.0
C2899 C 0.98448 0.71127 0.74405 0.0
C2900 C 0.97328 0.72273 0.73613 0.0
C2901 C 0.0068 0.69146 0.75948 0.0
C2902 C 0.01849 0.71175 0.75028 0.0
C2903 C 0.00728 0.72149 0.74273 0.0
C2904 C 0.04242 0.72276 0.74852 0.0
C2905 C 0.01815 0.68022 0.7676 0.0
C2906 C 0.05564 0.73217 0.76428 0.0
C2907 C 0.07763 0.73849 0.76377 0.0
C2908 C 0.08681 0.73556 0.74745 0.0
C2909 C 0.07394 0.72781 0.73124 0.0
C2910 C 0.05181 0.72135 0.7318 0.0
H2911 H 0.00646 0.66302 0.7717 0.0
H2912 H 0.02978 0.67993 0.75748 0.0
H2913 H 0.02761 0.6896 0.78011 0.0
H2914 H 0.04866 0.73348 0.77727 0.0
H2915 H 0.08722 0.74473 0.77643 0.0
H2916 H 0.25852 0.34576 0.77411 0.0
H2917 H 0.272 0.32014 0.77287 0.0
H2918 H 0.27949 0.32772 0.71363 0.0
H2919 H 0.26661 0.35417 0.71481 0.0
H2920 H 0.26198 0.28137 0.75536 0.0
H2921 H 0.34151 0.35009 0.73148 0.0
H2922 H 0.31987 0.35439 0.73935 0.0
H2923 H 0.31887 0.34351 0.71638 0.0
C2924 C 0.26276 0.34183 0.76073 0.0
C2925 C 0.26199 0.35245 0.7446 0.0
C2926 C 0.27037 0.32704 0.76006 0.0
C2927 C 0.2773 0.32248 0.74326 0.0
C2928 C 0.27473 0.33148 0.72683 0.0
H2929 H 0.35203 0.25921 0.72068 0.0
H2930 H 0.32633 0.27234 0.71906 0.0
C2931 C 0.26719 0.34644 0.7275 0.0
C2932 C 0.28908 0.31007 0.74345 0.0
H2933 H 0.33894 0.31571 0.7354 0.0
C2934 C 0.27877 0.28881 0.7509 0.0
C2935 C 0.31112 0.31998 0.73794 0.0
C2936 C 0.32361 0.34331 0.731 0.0
C2937 C 0.2899 0.27715 0.75281 0.0
C2938 C 0.31183 0.28706 0.7472 0.0
C2939 C 0.32206 0.30819 0.73964 0.0
C2940 C 0.32466 0.2759 0.74874 0.0
C2941 C 0.27821 0.25431 0.7607 0.0
C2942 C 0.33189 0.27311 0.76607 0.0
C2943 C 0.3468 0.26566 0.7671 0.0
C2944 C 0.35475 0.26109 0.75078 0.0
C2945 C 0.34651 0.26287 0.73354 0.0
C2946 C 0.33172 0.27028 0.73254 0.0
H2947 H 0.26037 0.24762 0.7617 0.0
H2948 H 0.28111 0.24287 0.75199 0.0
H2949 H 0.28473 0.25485 0.77481 0.0
H2950 H 0.32677 0.27763 0.77872 0.0
H2951 H 0.35283 0.26448 0.78057 0.0
H2952 H 0.68625 0.89403 0.73317 0.0
H2953 H 0.71538 0.92521 0.75059 0.0
H2954 H 0.7191 0.96929 0.70793 0.0
H2955 H 0.69062 0.93788 0.69004 0.0
H2956 H 0.75952 0.9837 0.72663 0.0
H2957 H 0.69077 0.96008 0.77562 0.0
H2958 H 0.69857 0.93979 0.77138 0.0
H2959 H 0.68671 0.94734 0.75296 0.0
C2960 C 0.69398 0.91029 0.72719 0.0
C2961 C 0.68623 0.91376 0.71041 0.0
C2962 C 0.7105 0.92806 0.73717 0.0
C2963 C 0.7189 0.94957 0.73078 0.0
C2964 C 0.71273 0.95278 0.71311 0.0
H2965 H 0.76011 0.07813 0.75743 0.0
H2966 H 0.75716 0.0445 0.7449 0.0
C2967 C 0.6965 0.93489 0.70289 0.0
C2968 C 0.73083 0.96869 0.7436 0.0
H2969 H 0.72238 0.99371 0.78097 0.0
C2970 C 0.75162 0.98577 0.73873 0.0
C2971 C 0.72052 0.97126 0.75948 0.0
C2972 C 0.69787 0.95376 0.76517 0.0
C2973 C 0.76189 0.00584 0.74878 0.0
C2974 C 0.75085 0.00894 0.7638 0.0
C2975 C 0.73084 0.99128 0.76948 0.0
C2976 C 0.75744 0.03106 0.77164 0.0
C2977 C 0.78411 0.02376 0.74281 0.0
C2978 C 0.75859 0.03482 0.79093 0.0
C2979 C 0.75992 0.05405 0.79824 0.0
C2980 C 0.75985 0.06964 0.78632 0.0
C2981 C 0.75992 0.06634 0.76703 0.0
C2982 C 0.75862 0.04723 0.75979 0.0
H2983 H 0.79369 0.01658 0.73703 0.0
H2984 H 0.7822 0.0334 0.7317 0.0
H2985 H 0.79342 0.03515 0.75452 0.0
H2986 H 0.75744 0.0224 0.80032 0.0
H2987 H 0.75993 0.05616 0.81315 0.0
H2988 H 0.25544 0.90898 0.22502 0.0
H2989 H 0.27625 0.94936 0.22698 0.0
H2990 H 0.326 0.94677 0.25932 0.0
H2991 H 0.30454 0.90652 0.25839 0.0
H2992 H 0.31805 0.97492 0.27432 0.0
H2993 H 0.32812 0.99194 0.19927 0.0
H2994 H 0.29989 0.97617 0.20522 0.0
H2995 H 0.31717 0.96449 0.20803 0.0
C2996 C 0.27088 0.91713 0.23245 0.0
C2997 C 0.27844 0.90481 0.24159 0.0
C2998 C 0.28286 0.94017 0.23343 0.0
C2999 C 0.30293 0.95115 0.24299 0.0
C3000 C 0.31058 0.93871 0.25187 0.0
H3001 H 0.39428 0.0913 0.23218 0.0
H3002 H 0.37517 0.05101 0.2303 0.0
C3003 C 0.29834 0.91574 0.25133 0.0
C3004 C 0.31557 0.97556 0.24455 0.0
H3005 H 0.33652 0.02258 0.21949 0.0
C3006 C 0.32226 0.98533 0.26229 0.0
C3007 C 0.3214 0.98918 0.22886 0.0
C3008 C 0.31647 0.97989 0.20928 0.0
C3009 C 0.33447 0.00828 0.26481 0.0
C3010 C 0.33918 0.02191 0.24923 0.0
C3011 C 0.33267 0.01215 0.23147 0.0
C3012 C 0.35111 0.0463 0.25094 0.0
C3013 C 0.34266 0.01755 0.28408 0.0
C3014 C 0.34395 0.05709 0.26314 0.0
C3015 C 0.35524 0.08008 0.26459 0.0
C3016 C 0.37334 0.09262 0.25336 0.0
C3017 C 0.38026 0.08191 0.24091 0.0
C3018 C 0.36935 0.05893 0.23982 0.0
H3019 H 0.34417 0.00549 0.2928 0.0
H3020 H 0.35879 0.03295 0.28372 0.0
H3021 H 0.33086 0.02125 0.29091 0.0
H3022 H 0.3295 0.04776 0.27139 0.0
H3023 H 0.34949 0.08806 0.27413 0.0
H3024 H 0.90219 0.25785 0.26576 0.0
H3025 H 0.94087 0.26831 0.26413 0.0
H3026 H 0.95954 0.33702 0.26541 0.0
H3027 H 0.92126 0.32679 0.26672 0.0
H3028 H 0.97091 0.30013 0.23314 0.0
H3029 H 0.9986 0.32755 0.30571 0.0
H3030 H 0.97076 0.30711 0.29969 0.0
H3031 H 0.98038 0.3359 0.29658 0.0
C3032 C 0.91462 0.27516 0.26609 0.0
C3033 C 0.90879 0.29153 0.26636 0.0
C3034 C 0.93662 0.28108 0.26504 0.0
C3035 C 0.95295 0.30341 0.26469 0.0
C3036 C 0.94714 0.3197 0.26577 0.0
H3037 H 0.07537 0.40567 0.24857 0.0
H3038 H 0.03754 0.37697 0.2526 0.0
C3039 C 0.92529 0.31384 0.26651 0.0
C3040 C 0.97612 0.3103 0.26191 0.0
H3041 H 0.02592 0.34303 0.28216 0.0
C3042 C 0.98302 0.3089 0.24396 0.0
C3043 C 0.99176 0.32172 0.27606 0.0
C3044 C 0.98507 0.32306 0.29566 0.0
C3045 C 0.00528 0.32033 0.23944 0.0
C3046 C 0.02079 0.33325 0.25328 0.0
C3047 C 0.01393 0.33312 0.27156 0.0
C3048 C 0.04349 0.34991 0.24865 0.0
C3049 C 0.012 0.32006 0.21966 0.0
C3050 C 0.05929 0.34414 0.24451 0.0
C3051 C 0.08114 0.36066 0.24209 0.0
C3052 C 0.08734 0.38306 0.24397 0.0
C3053 C 0.07118 0.38859 0.24724 0.0
C3054 C 0.04954 0.37221 0.24955 0.0
H3055 H 0.99789 0.30922 0.21048 0.0
H3056 H 0.02025 0.33706 0.2142 0.0
H3057 H 0.02385 0.3142 0.21913 0.0
H3058 H 0.05488 0.32696 0.24382 0.0
H3059 H 0.09326 0.35592 0.23968 0.0
H3060 H 0.71316 0.62433 0.22076 0.0
H3061 H 0.70104 0.65115 0.21907 0.0
H3062 H 0.69081 0.64699 0.27823 0.0
H3063 H 0.70402 0.62084 0.28 0.0
H3064 H 0.66133 0.64068 0.22614 0.0
H3065 H 0.71508 0.71163 0.27198 0.0
H3066 H 0.72216 0.69139 0.26461 0.0
H3067 H 0.70409 0.68601 0.28385 0.0
C3068 C 0.70898 0.62973 0.23348 0.0
C3069 C 0.70954 0.62065 0.25052 0.0
C3070 C 0.70202 0.645 0.2325 0.0
C3071 C 0.69507 0.65123 0.24851 0.0
C3072 C 0.69658 0.64292 0.26574 0.0
H3073 H 0.60354 0.69076 0.27218 0.0
H3074 H 0.63116 0.68002 0.27169 0.0
C3075 C 0.70403 0.62791 0.26676 0.0
C3076 C 0.68354 0.66382 0.24667 0.0
H3077 H 0.67994 0.70721 0.26452 0.0
C3078 C 0.66573 0.6555 0.23427 0.0
C3079 C 0.68917 0.68313 0.25729 0.0
C3080 C 0.70882 0.69369 0.27003 0.0
C3081 C 0.65294 0.66538 0.23274 0.0
C3082 C 0.65807 0.68413 0.24388 0.0
C3083 C 0.67615 0.69286 0.25594 0.0
C3084 C 0.64329 0.69318 0.2446 0.0
C3085 C 0.63339 0.65512 0.21986 0.0
C3086 C 0.64124 0.70452 0.22959 0.0
C3087 C 0.62539 0.71079 0.22981 0.0
C3088 C 0.61125 0.70555 0.24496 0.0
C3089 C 0.61394 0.69481 0.26017 0.0
C3090 C 0.62984 0.68879 0.26001 0.0
H3091 H 0.63041 0.63931 0.21353 0.0
H3092 H 0.61856 0.65206 0.22748 0.0
H3093 H 0.63598 0.66669 0.20855 0.0
H3094 H 0.65155 0.70805 0.21757 0.0
H3095 H 0.62376 0.71908 0.21792 0.0
loop_
_geom_bond_atom_site_label_1
_geom_bond_atom_site_label_2
_geom_bond_distance
_geom_bond_site_symmetry_2
_ccdc_geom_bond_type
Co0 O1 2.216 . S
Co0 O2 2.091 . S
Co0 O4 2.004 . S
Co0 O10 2.021 . S
Co0 O12 2.137 . S
Co0 O13 2.244 . S
O1 Co0 2.216 . S
O1 C8 1.247 . S
O2 Co0 2.091 . S
O2 C8 1.261 . S
C3 O12 1.247 . S
C3 O13 1.272 . S
O4 Co0 2.004 . S
O4 C9 1.259 . S
Co5 O6 2.061 . S
Co5 O11 2.052 . S
Co5 O13 2.135 . S
O6 Co5 2.061 . S
O6 C9 1.235 . S
C7 O10 1.238 . S
C7 O11 1.241 . S
C8 O1 1.247 . S
C8 O2 1.261 . S
C9 O4 1.259 . S
C9 O6 1.235 . S
O10 Co0 2.021 . S
O10 C7 1.238 . S
O11 Co5 2.052 . S
O11 C7 1.241 . S
O12 Co0 2.137 . S
O12 C3 1.247 . S
O13 Co0 2.244 . S
O13 C3 1.272 . S
O13 Co5 2.135 . S
Co14 O15 2.216 . S
Co14 O16 2.091 . S
Co14 O18 2.004 . S
Co14 O24 2.021 . S
Co14 O26 2.137 . S
Co14 O27 2.244 . S
O15 Co14 2.216 . S
O15 C22 1.247 . S
O16 Co14 2.091 . S
O16 C22 1.261 . S
C17 O26 1.247 . S
C17 O27 1.272 . S
O18 Co14 2.004 . S
O18 C23 1.259 . S
Co19 O20 2.061 . S
Co19 O25 2.052 . S
Co19 O27 2.135 . S
O20 Co19 2.061 . S
O20 C23 1.235 . S
C21 O24 1.238 . S
C21 O25 1.241 . S
C22 O15 1.247 . S
C22 O16 1.261 . S
C23 O18 1.259 . S
C23 O20 1.235 . S
O24 Co14 2.021 . S
O24 C21 1.238 . S
O25 Co19 2.052 . S
O25 C21 1.241 . S
O26 Co14 2.137 . S
O26 C17 1.247 . S
O27 Co14 2.244 . S
O27 C17 1.272 . S
O27 Co19 2.135 . S
Co28 O29 2.216 . S
Co28 O30 2.091 . S
Co28 O32 2.004 . S
Co28 O38 2.021 . S
Co28 O40 2.137 . S
Co28 O41 2.244 . S
O29 Co28 2.216 . S
O29 C36 1.247 . S
O30 Co28 2.091 . S
O30 C36 1.261 . S
C31 O40 1.247 . S
C31 O41 1.272 . S
O32 Co28 2.004 . S
O32 C37 1.259 . S
Co33 O34 2.061 . S
Co33 O39 2.052 . S
Co33 O41 2.135 . S
O34 Co33 2.061 . S
O34 C37 1.235 . S
C35 O38 1.238 . S
C35 O39 1.241 . S
C36 O29 1.247 . S
C36 O30 1.261 . S
C37 O32 1.259 . S
C37 O34 1.235 . S
O38 Co28 2.021 . S
O38 C35 1.238 . S
O39 Co33 2.052 . S
O39 C35 1.241 . S
O40 Co28 2.137 . S
O40 C31 1.247 . S
O41 Co28 2.244 . S
O41 C31 1.272 . S
O41 Co33 2.135 . S
Co42 O43 2.216 . S
Co42 O44 2.091 . S
Co42 O46 2.004 . S
Co42 O52 2.021 . S
Co42 O54 2.137 . S
Co42 O55 2.244 . S
O43 Co42 2.216 . S
O43 C50 1.247 . S
O44 Co42 2.091 . S
O44 C50 1.261 . S
C45 O54 1.247 . S
C45 O55 1.272 . S
O46 Co42 2.004 . S
O46 C51 1.259 . S
Co47 O48 2.061 . S
Co47 O53 2.052 . S
Co47 O55 2.135 . S
O48 Co47 2.061 . S
O48 C51 1.235 . S
C49 O52 1.238 . S
C49 O53 1.241 . S
C50 O43 1.247 . S
C50 O44 1.261 . S
C51 O46 1.259 . S
C51 O48 1.235 . S
O52 Co42 2.021 . S
O52 C49 1.238 . S
O53 Co47 2.052 . S
O53 C49 1.241 . S
O54 Co42 2.137 . S
O54 C45 1.247 . S
O55 Co42 2.244 . S
O55 C45 1.272 . S
O55 Co47 2.135 . S
Co56 O57 2.216 . S
Co56 O58 2.091 . S
Co56 O60 2.004 . S
Co56 O66 2.021 . S
Co56 O68 2.137 . S
Co56 O69 2.244 . S
O57 Co56 2.216 . S
O57 C64 1.247 . S
O58 Co56 2.091 . S
O58 C64 1.261 . S
C59 O68 1.247 . S
C59 O69 1.272 . S
O60 Co56 2.004 . S
O60 C65 1.259 . S
Co61 O62 2.061 . S
Co61 O67 2.052 . S
Co61 O69 2.135 . S
O62 Co61 2.061 . S
O62 C65 1.235 . S
C63 O66 1.238 . S
C63 O67 1.241 . S
C64 O57 1.247 . S
C64 O58 1.261 . S
C65 O60 1.259 . S
C65 O62 1.235 . S
O66 Co56 2.021 . S
O66 C63 1.238 . S
O67 Co61 2.052 . S
O67 C63 1.241 . S
O68 Co56 2.137 . S
O68 C59 1.247 . S
O69 Co56 2.244 . S
O69 C59 1.272 . S
O69 Co61 2.135 . S
Co70 O71 2.216 . S
Co70 O72 2.091 . S
Co70 O74 2.004 . S
Co70 O80 2.021 . S
Co70 O82 2.137 . S
Co70 O83 2.244 . S
O71 Co70 2.216 . S
O71 C78 1.247 . S
O72 Co70 2.091 . S
O72 C78 1.261 . S
C73 O82 1.247 . S
C73 O83 1.272 . S
O74 Co70 2.004 . S
O74 C79 1.259 . S
Co75 O76 2.061 . S
Co75 O81 2.052 . S
Co75 O83 2.135 . S
O76 Co75 2.061 . S
O76 C79 1.235 . S
C77 O80 1.238 . S
C77 O81 1.241 . S
C78 O71 1.247 . S
C78 O72 1.261 . S
C79 O74 1.259 . S
C79 O76 1.235 . S
O80 Co70 2.021 . S
O80 C77 1.238 . S
O81 Co75 2.052 . S
O81 C77 1.241 . S
O82 Co70 2.137 . S
O82 C73 1.247 . S
O83 Co70 2.244 . S
O83 C73 1.272 . S
O83 Co75 2.135 . S
Co84 O85 2.216 . S
Co84 O86 2.091 . S
Co84 O88 2.004 . S
Co84 O94 2.021 . S
Co84 O96 2.137 . S
Co84 O97 2.244 . S
O85 Co84 2.216 . S
O85 C92 1.247 . S
O86 Co84 2.091 . S
O86 C92 1.261 . S
C87 O96 1.247 . S
C87 O97 1.272 . S
O88 Co84 2.004 . S
O88 C93 1.259 . S
Co89 O90 2.061 . S
Co89 O95 2.052 . S
Co89 O97 2.135 . S
O90 Co89 2.061 . S
O90 C93 1.235 . S
C91 O94 1.238 . S
C91 O95 1.241 . S
C92 O85 1.247 . S
C92 O86 1.261 . S
C93 O88 1.259 . S
C93 O90 1.235 . S
O94 Co84 2.021 . S
O94 C91 1.238 . S
O95 Co89 2.052 . S
O95 C91 1.241 . S
O96 Co84 2.137 . S
O96 C87 1.247 . S
O97 Co84 2.244 . S
O97 C87 1.272 . S
O97 Co89 2.135 . S
Co98 O99 2.216 . S
Co98 O100 2.091 . S
Co98 O102 2.004 . S
Co98 O108 2.021 . S
Co98 O110 2.137 . S
Co98 O111 2.244 . S
O99 Co98 2.216 . S
O99 C106 1.247 . S
O100 Co98 2.091 . S
O100 C106 1.261 . S
C101 O110 1.247 . S
C101 O111 1.272 . S
O102 Co98 2.004 . S
O102 C107 1.259 . S
Co103 O104 2.061 . S
Co103 O109 2.052 . S
Co103 O111 2.135 . S
O104 Co103 2.061 . S
O104 C107 1.235 . S
C105 O108 1.238 . S
C105 O109 1.241 . S
C106 O99 1.247 . S
C106 O100 1.261 . S
C107 O102 1.259 . S
C107 O104 1.235 . S
O108 Co98 2.021 . S
O108 C105 1.238 . S
O109 Co103 2.052 . S
O109 C105 1.241 . S
O110 Co98 2.137 . S
O110 C101 1.247 . S
O111 Co98 2.244 . S
O111 C101 1.272 . S
O111 Co103 2.135 . S
Co112 O113 2.216 . S
Co112 O114 2.091 . S
Co112 O116 2.004 . S
Co112 O122 2.021 . S
Co112 O124 2.137 . S
Co112 O125 2.244 . S
O113 Co112 2.216 . S
O113 C120 1.247 . S
O114 Co112 2.091 . S
O114 C120 1.261 . S
C115 O124 1.247 . S
C115 O125 1.272 . S
O116 Co112 2.004 . S
O116 C121 1.259 . S
Co117 O118 2.061 . S
Co117 O123 2.052 . S
Co117 O125 2.135 . S
O118 Co117 2.061 . S
O118 C121 1.235 . S
C119 O122 1.238 . S
C119 O123 1.241 . S
C120 O113 1.247 . S
C120 O114 1.261 . S
C121 O116 1.259 . S
C121 O118 1.235 . S
O122 Co112 2.021 . S
O122 C119 1.238 . S
O123 Co117 2.052 . S
O123 C119 1.241 . S
O124 Co112 2.137 . S
O124 C115 1.247 . S
O125 Co112 2.244 . S
O125 C115 1.272 . S
O125 Co117 2.135 . S
Co126 O127 2.216 . S
Co126 O128 2.091 . S
Co126 O130 2.004 . S
Co126 O136 2.021 . S
Co126 O138 2.137 . S
Co126 O139 2.244 . S
O127 Co126 2.216 . S
O127 C134 1.247 . S
O128 Co126 2.091 . S
O128 C134 1.261 . S
C129 O138 1.247 . S
C129 O139 1.272 . S
O130 Co126 2.004 . S
O130 C135 1.259 . S
Co131 O132 2.061 . S
Co131 O137 2.052 . S
Co131 O139 2.135 . S
O132 Co131 2.061 . S
O132 C135 1.235 . S
C133 O136 1.238 . S
C133 O137 1.241 . S
C134 O127 1.247 . S
C134 O128 1.261 . S
C135 O130 1.259 . S
C135 O132 1.235 . S
O136 Co126 2.021 . S
O136 C133 1.238 . S
O137 Co131 2.052 . S
O137 C133 1.241 . S
O138 Co126 2.137 . S
O138 C129 1.247 . S
O139 Co126 2.244 . S
O139 C129 1.272 . S
O139 Co131 2.135 . S
Co140 O141 2.216 . S
Co140 O142 2.091 . S
Co140 O144 2.004 . S
Co140 O150 2.021 . S
Co140 O152 2.137 . S
Co140 O153 2.244 . S
O141 Co140 2.216 . S
O141 C148 1.247 . S
O142 Co140 2.091 . S
O142 C148 1.261 . S
C143 O152 1.247 . S
C143 O153 1.272 . S
O144 Co140 2.004 . S
O144 C149 1.259 . S
Co145 O146 2.061 . S
Co145 O151 2.052 . S
Co145 O153 2.135 . S
O146 Co145 2.061 . S
O146 C149 1.235 . S
C147 O150 1.238 . S
C147 O151 1.241 . S
C148 O141 1.247 . S
C148 O142 1.261 . S
C149 O144 1.259 . S
C149 O146 1.235 . S
O150 Co140 2.021 . S
O150 C147 1.238 . S
O151 Co145 2.052 . S
O151 C147 1.241 . S
O152 Co140 2.137 . S
O152 C143 1.247 . S
O153 Co140 2.244 . S
O153 C143 1.272 . S
O153 Co145 2.135 . S
Co154 O155 2.216 . S
Co154 O156 2.091 . S
Co154 O158 2.004 . S
Co154 O164 2.021 . S
Co154 O166 2.137 . S
Co154 O167 2.244 . S
O155 Co154 2.216 . S
O155 C162 1.247 . S
O156 Co154 2.091 . S
O156 C162 1.261 . S
C157 O166 1.247 . S
C157 O167 1.272 . S
O158 Co154 2.004 . S
O158 C163 1.259 . S
Co159 O160 2.061 . S
Co159 O165 2.052 . S
Co159 O167 2.135 . S
O160 Co159 2.061 . S
O160 C163 1.235 . S
C161 O164 1.238 . S
C161 O165 1.241 . S
C162 O155 1.247 . S
C162 O156 1.261 . S
C163 O158 1.259 . S
C163 O160 1.235 . S
O164 Co154 2.021 . S
O164 C161 1.238 . S
O165 Co159 2.052 . S
O165 C161 1.241 . S
O166 Co154 2.137 . S
O166 C157 1.247 . S
O167 Co154 2.244 . S
O167 C157 1.272 . S
O167 Co159 2.135 . S
Co168 O169 2.216 . S
Co168 O170 2.091 . S
Co168 O172 2.004 . S
Co168 O178 2.021 . S
Co168 O180 2.137 . S
Co168 O181 2.244 . S
O169 Co168 2.216 . S
O169 C176 1.247 . S
O170 Co168 2.091 . S
O170 C176 1.261 . S
C171 O180 1.247 . S
C171 O181 1.272 . S
O172 Co168 2.004 . S
O172 C177 1.259 . S
Co173 O174 2.061 . S
Co173 O179 2.052 . S
Co173 O181 2.135 . S
O174 Co173 2.061 . S
O174 C177 1.235 . S
C175 O178 1.238 . S
C175 O179 1.241 . S
C176 O169 1.247 . S
C176 O170 1.261 . S
C177 O172 1.259 . S
C177 O174 1.235 . S
O178 Co168 2.021 . S
O178 C175 1.238 . S
O179 Co173 2.052 . S
O179 C175 1.241 . S
O180 Co168 2.137 . S
O180 C171 1.247 . S
O181 Co168 2.244 . S
O181 C171 1.272 . S
O181 Co173 2.135 . S
Co182 O183 2.216 . S
Co182 O184 2.091 . S
Co182 O186 2.004 . S
Co182 O192 2.021 . S
Co182 O194 2.137 . S
Co182 O195 2.244 . S
O183 Co182 2.216 . S
O183 C190 1.247 . S
O184 Co182 2.091 . S
O184 C190 1.261 . S
C185 O194 1.247 . S
C185 O195 1.272 . S
O186 Co182 2.004 . S
O186 C191 1.259 . S
Co187 O188 2.061 . S
Co187 O193 2.052 . S
Co187 O195 2.135 . S
O188 Co187 2.061 . S
O188 C191 1.235 . S
C189 O192 1.238 . S
C189 O193 1.241 . S
C190 O183 1.247 . S
C190 O184 1.261 . S
C191 O186 1.259 . S
C191 O188 1.235 . S
O192 Co182 2.021 . S
O192 C189 1.238 . S
O193 Co187 2.052 . S
O193 C189 1.241 . S
O194 Co182 2.137 . S
O194 C185 1.247 . S
O195 Co182 2.244 . S
O195 C185 1.272 . S
O195 Co187 2.135 . S
Co196 O197 2.216 . S
Co196 O198 2.091 . S
Co196 O200 2.004 . S
Co196 O206 2.021 . S
Co196 O208 2.137 . S
Co196 O209 2.244 . S
O197 Co196 2.216 . S
O197 C204 1.247 . S
O198 Co196 2.091 . S
O198 C204 1.261 . S
C199 O208 1.247 . S
C199 O209 1.272 . S
O200 Co196 2.004 . S
O200 C205 1.259 . S
Co201 O202 2.061 . S
Co201 O207 2.052 . S
Co201 O209 2.135 . S
O202 Co201 2.061 . S
O202 C205 1.235 . S
C203 O206 1.238 . S
C203 O207 1.241 . S
C204 O197 1.247 . S
C204 O198 1.261 . S
C205 O200 1.259 . S
C205 O202 1.235 . S
O206 Co196 2.021 . S
O206 C203 1.238 . S
O207 Co201 2.052 . S
O207 C203 1.241 . S
O208 Co196 2.137 . S
O208 C199 1.247 . S
O209 Co196 2.244 . S
O209 C199 1.272 . S
O209 Co201 2.135 . S
Co210 O211 2.216 . S
Co210 O212 2.091 . S
Co210 O214 2.004 . S
Co210 O220 2.021 . S
Co210 O222 2.137 . S
Co210 O223 2.244 . S
O211 Co210 2.216 . S
O211 C218 1.247 . S
O212 Co210 2.091 . S
O212 C218 1.261 . S
C213 O222 1.247 . S
C213 O223 1.272 . S
O214 Co210 2.004 . S
O214 C219 1.259 . S
Co215 O216 2.061 . S
Co215 O221 2.052 . S
Co215 O223 2.135 . S
O216 Co215 2.061 . S
O216 C219 1.235 . S
C217 O220 1.238 . S
C217 O221 1.241 . S
C218 O211 1.247 . S
C218 O212 1.261 . S
C219 O214 1.259 . S
C219 O216 1.235 . S
O220 Co210 2.021 . S
O220 C217 1.238 . S
O221 Co215 2.052 . S
O221 C217 1.241 . S
O222 Co210 2.137 . S
O222 C213 1.247 . S
O223 Co210 2.244 . S
O223 C213 1.272 . S
O223 Co215 2.135 . S
Co224 O225 2.216 . S
Co224 O226 2.091 . S
Co224 O228 2.004 . S
Co224 O234 2.021 . S
Co224 O236 2.137 . S
Co224 O237 2.244 . S
O225 Co224 2.216 . S
O225 C232 1.247 . S
O226 Co224 2.091 . S
O226 C232 1.261 . S
C227 O236 1.247 . S
C227 O237 1.272 . S
O228 Co224 2.004 . S
O228 C233 1.259 . S
Co229 O230 2.061 . S
Co229 O235 2.052 . S
Co229 O237 2.135 . S
O230 Co229 2.061 . S
O230 C233 1.235 . S
C231 O234 1.238 . S
C231 O235 1.241 . S
C232 O225 1.247 . S
C232 O226 1.261 . S
C233 O228 1.259 . S
C233 O230 1.235 . S
O234 Co224 2.021 . S
O234 C231 1.238 . S
O235 Co229 2.052 . S
O235 C231 1.241 . S
O236 Co224 2.137 . S
O236 C227 1.247 . S
O237 Co224 2.244 . S
O237 C227 1.272 . S
O237 Co229 2.135 . S
Co238 O239 2.216 . S
Co238 O240 2.091 . S
Co238 O242 2.004 . S
Co238 O248 2.021 . S
Co238 O250 2.137 . S
Co238 O251 2.244 . S
O239 Co238 2.216 . S
O239 C246 1.247 . S
O240 Co238 2.091 . S
O240 C246 1.261 . S
C241 O250 1.247 . S
C241 O251 1.272 . S
O242 Co238 2.004 . S
O242 C247 1.259 . S
Co243 O244 2.061 . S
Co243 O249 2.052 . S
Co243 O251 2.135 . S
O244 Co243 2.061 . S
O244 C247 1.235 . S
C245 O248 1.238 . S
C245 O249 1.241 . S
C246 O239 1.247 . S
C246 O240 1.261 . S
C247 O242 1.259 . S
C247 O244 1.235 . S
O248 Co238 2.021 . S
O248 C245 1.238 . S
O249 Co243 2.052 . S
O249 C245 1.241 . S
O250 Co238 2.137 . S
O250 C241 1.247 . S
O251 Co238 2.244 . S
O251 C241 1.272 . S
O251 Co243 2.135 . S
Co252 O253 2.216 . S
Co252 O254 2.091 . S
Co252 O256 2.004 . S
Co252 O262 2.021 . S
Co252 O264 2.137 . S
Co252 O265 2.244 . S
O253 Co252 2.216 . S
O253 C260 1.247 . S
O254 Co252 2.091 . S
O254 C260 1.261 . S
C255 O264 1.247 . S
C255 O265 1.272 . S
O256 Co252 2.004 . S
O256 C261 1.259 . S
Co257 O258 2.061 . S
Co257 O263 2.052 . S
Co257 O265 2.135 . S
O258 Co257 2.061 . S
O258 C261 1.235 . S
C259 O262 1.238 . S
C259 O263 1.241 . S
C260 O253 1.247 . S
C260 O254 1.261 . S
C261 O256 1.259 . S
C261 O258 1.235 . S
O262 Co252 2.021 . S
O262 C259 1.238 . S
O263 Co257 2.052 . S
O263 C259 1.241 . S
O264 Co252 2.137 . S
O264 C255 1.247 . S
O265 Co252 2.244 . S
O265 C255 1.272 . S
O265 Co257 2.135 . S
Co266 O267 2.216 . S
Co266 O268 2.091 . S
Co266 O270 2.004 . S
Co266 O276 2.021 . S
Co266 O278 2.137 . S
Co266 O279 2.244 . S
O267 Co266 2.216 . S
O267 C274 1.247 . S
O268 Co266 2.091 . S
O268 C274 1.261 . S
C269 O278 1.247 . S
C269 O279 1.272 . S
O270 Co266 2.004 . S
O270 C275 1.259 . S
Co271 O272 2.061 . S
Co271 O277 2.052 . S
Co271 O279 2.135 . S
O272 Co271 2.061 . S
O272 C275 1.235 . S
C273 O276 1.238 . S
C273 O277 1.241 . S
C274 O267 1.247 . S
C274 O268 1.261 . S
C275 O270 1.259 . S
C275 O272 1.235 . S
O276 Co266 2.021 . S
O276 C273 1.238 . S
O277 Co271 2.052 . S
O277 C273 1.241 . S
O278 Co266 2.137 . S
O278 C269 1.247 . S
O279 Co266 2.244 . S
O279 C269 1.272 . S
O279 Co271 2.135 . S
Co280 O281 2.216 . S
Co280 O282 2.091 . S
Co280 O284 2.004 . S
Co280 O290 2.021 . S
Co280 O292 2.137 . S
Co280 O293 2.244 . S
O281 Co280 2.216 . S
O281 C288 1.247 . S
O282 Co280 2.091 . S
O282 C288 1.261 . S
C283 O292 1.247 . S
C283 O293 1.272 . S
O284 Co280 2.004 . S
O284 C289 1.259 . S
Co285 O286 2.061 . S
Co285 O291 2.052 . S
Co285 O293 2.135 . S
O286 Co285 2.061 . S
O286 C289 1.235 . S
C287 O290 1.238 . S
C287 O291 1.241 . S
C288 O281 1.247 . S
C288 O282 1.261 . S
C289 O284 1.259 . S
C289 O286 1.235 . S
O290 Co280 2.021 . S
O290 C287 1.238 . S
O291 Co285 2.052 . S
O291 C287 1.241 . S
O292 Co280 2.137 . S
O292 C283 1.247 . S
O293 Co280 2.244 . S
O293 C283 1.272 . S
O293 Co285 2.135 . S
Co294 O295 2.216 . S
Co294 O296 2.091 . S
Co294 O298 2.004 . S
Co294 O304 2.021 . S
Co294 O306 2.137 . S
Co294 O307 2.244 . S
O295 Co294 2.216 . S
O295 C302 1.247 . S
O296 Co294 2.091 . S
O296 C302 1.261 . S
C297 O306 1.247 . S
C297 O307 1.272 . S
O298 Co294 2.004 . S
O298 C303 1.259 . S
Co299 O300 2.061 . S
Co299 O305 2.052 . S
Co299 O307 2.135 . S
O300 Co299 2.061 . S
O300 C303 1.235 . S
C301 O304 1.238 . S
C301 O305 1.241 . S
C302 O295 1.247 . S
C302 O296 1.261 . S
C303 O298 1.259 . S
C303 O300 1.235 . S
O304 Co294 2.021 . S
O304 C301 1.238 . S
O305 Co299 2.052 . S
O305 C301 1.241 . S
O306 Co294 2.137 . S
O306 C297 1.247 . S
O307 Co294 2.244 . S
O307 C297 1.272 . S
O307 Co299 2.135 . S
Co308 O309 2.216 . S
Co308 O310 2.091 . S
Co308 O312 2.004 . S
Co308 O318 2.021 . S
Co308 O320 2.137 . S
Co308 O321 2.244 . S
O309 Co308 2.216 . S
O309 C316 1.247 . S
O310 Co308 2.091 . S
O310 C316 1.261 . S
C311 O320 1.247 . S
C311 O321 1.272 . S
O312 Co308 2.004 . S
O312 C317 1.259 . S
Co313 O314 2.061 . S
Co313 O319 2.052 . S
Co313 O321 2.135 . S
O314 Co313 2.061 . S
O314 C317 1.235 . S
C315 O318 1.238 . S
C315 O319 1.241 . S
C316 O309 1.247 . S
C316 O310 1.261 . S
C317 O312 1.259 . S
C317 O314 1.235 . S
O318 Co308 2.021 . S
O318 C315 1.238 . S
O319 Co313 2.052 . S
O319 C315 1.241 . S
O320 Co308 2.137 . S
O320 C311 1.247 . S
O321 Co308 2.244 . S
O321 C311 1.272 . S
O321 Co313 2.135 . S
Co322 O323 2.216 . S
Co322 O324 2.091 . S
Co322 O326 2.004 . S
Co322 O332 2.021 . S
Co322 O334 2.137 . S
Co322 O335 2.244 . S
O323 Co322 2.216 . S
O323 C330 1.247 . S
O324 Co322 2.091 . S
O324 C330 1.261 . S
C325 O334 1.247 . S
C325 O335 1.272 . S
O326 Co322 2.004 . S
O326 C331 1.259 . S
Co327 O328 2.061 . S
Co327 O333 2.052 . S
Co327 O335 2.135 . S
O328 Co327 2.061 . S
O328 C331 1.235 . S
C329 O332 1.238 . S
C329 O333 1.241 . S
C330 O323 1.247 . S
C330 O324 1.261 . S
C331 O326 1.259 . S
C331 O328 1.235 . S
O332 Co322 2.021 . S
O332 C329 1.238 . S
O333 Co327 2.052 . S
O333 C329 1.241 . S
O334 Co322 2.137 . S
O334 C325 1.247 . S
O335 Co322 2.244 . S
O335 C325 1.272 . S
O335 Co327 2.135 . S
Co336 O337 2.216 . S
Co336 O338 2.091 . S
Co336 O340 2.004 . S
Co336 O346 2.021 . S
Co336 O348 2.137 . S
Co336 O349 2.244 . S
O337 Co336 2.216 . S
O337 C344 1.247 . S
O338 Co336 2.091 . S
O338 C344 1.261 . S
C339 O348 1.247 . S
C339 O349 1.272 . S
O340 Co336 2.004 . S
O340 C345 1.259 . S
Co341 O342 2.061 . S
Co341 O347 2.052 . S
Co341 O349 2.135 . S
O342 Co341 2.061 . S
O342 C345 1.235 . S
C343 O346 1.238 . S
C343 O347 1.241 . S
C344 O337 1.247 . S
C344 O338 1.261 . S
C345 O340 1.259 . S
C345 O342 1.235 . S
O346 Co336 2.021 . S
O346 C343 1.238 . S
O347 Co341 2.052 . S
O347 C343 1.241 . S
O348 Co336 2.137 . S
O348 C339 1.247 . S
O349 Co336 2.244 . S
O349 C339 1.272 . S
O349 Co341 2.135 . S
Co350 O351 2.216 . S
Co350 O352 2.091 . S
Co350 O354 2.004 . S
Co350 O360 2.021 . S
Co350 O362 2.137 . S
Co350 O363 2.244 . S
O351 Co350 2.216 . S
O351 C358 1.247 . S
O352 Co350 2.091 . S
O352 C358 1.261 . S
C353 O362 1.247 . S
C353 O363 1.272 . S
O354 Co350 2.004 . S
O354 C359 1.259 . S
Co355 O356 2.061 . S
Co355 O361 2.052 . S
Co355 O363 2.135 . S
O356 Co355 2.061 . S
O356 C359 1.235 . S
C357 O360 1.238 . S
C357 O361 1.241 . S
C358 O351 1.247 . S
C358 O352 1.261 . S
C359 O354 1.259 . S
C359 O356 1.235 . S
O360 Co350 2.021 . S
O360 C357 1.238 . S
O361 Co355 2.052 . S
O361 C357 1.241 . S
O362 Co350 2.137 . S
O362 C353 1.247 . S
O363 Co350 2.244 . S
O363 C353 1.272 . S
O363 Co355 2.135 . S
Co364 O365 2.216 . S
Co364 O366 2.091 . S
Co364 O368 2.004 . S
Co364 O374 2.021 . S
Co364 O376 2.137 . S
Co364 O377 2.244 . S
O365 Co364 2.216 . S
O365 C372 1.247 . S
O366 Co364 2.091 . S
O366 C372 1.261 . S
C367 O376 1.247 . S
C367 O377 1.272 . S
O368 Co364 2.004 . S
O368 C373 1.259 . S
Co369 O370 2.061 . S
Co369 O375 2.052 . S
Co369 O377 2.135 . S
O370 Co369 2.061 . S
O370 C373 1.235 . S
C371 O374 1.238 . S
C371 O375 1.241 . S
C372 O365 1.247 . S
C372 O366 1.261 . S
C373 O368 1.259 . S
C373 O370 1.235 . S
O374 Co364 2.021 . S
O374 C371 1.238 . S
O375 Co369 2.052 . S
O375 C371 1.241 . S
O376 Co364 2.137 . S
O376 C367 1.247 . S
O377 Co364 2.244 . S
O377 C367 1.272 . S
O377 Co369 2.135 . S
Co378 O379 2.216 . S
Co378 O380 2.091 . S
Co378 O382 2.004 . S
Co378 O388 2.021 . S
Co378 O390 2.137 . S
Co378 O391 2.244 . S
O379 Co378 2.216 . S
O379 C386 1.247 . S
O380 Co378 2.091 . S
O380 C386 1.261 . S
C381 O390 1.247 . S
C381 O391 1.272 . S
O382 Co378 2.004 . S
O382 C387 1.259 . S
Co383 O384 2.061 . S
Co383 O389 2.052 . S
Co383 O391 2.135 . S
O384 Co383 2.061 . S
O384 C387 1.235 . S
C385 O388 1.238 . S
C385 O389 1.241 . S
C386 O379 1.247 . S
C386 O380 1.261 . S
C387 O382 1.259 . S
C387 O384 1.235 . S
O388 Co378 2.021 . S
O388 C385 1.238 . S
O389 Co383 2.052 . S
O389 C385 1.241 . S
O390 Co378 2.137 . S
O390 C381 1.247 . S
O391 Co378 2.244 . S
O391 C381 1.272 . S
O391 Co383 2.135 . S
Co392 O393 2.216 . S
Co392 O394 2.091 . S
Co392 O396 2.004 . S
Co392 O402 2.021 . S
Co392 O404 2.137 . S
Co392 O405 2.244 . S
O393 Co392 2.216 . S
O393 C400 1.247 . S
O394 Co392 2.091 . S
O394 C400 1.261 . S
C395 O404 1.247 . S
C395 O405 1.272 . S
O396 Co392 2.004 . S
O396 C401 1.259 . S
Co397 O398 2.061 . S
Co397 O403 2.052 . S
Co397 O405 2.135 . S
O398 Co397 2.061 . S
O398 C401 1.235 . S
C399 O402 1.238 . S
C399 O403 1.241 . S
C400 O393 1.247 . S
C400 O394 1.261 . S
C401 O396 1.259 . S
C401 O398 1.235 . S
O402 Co392 2.021 . S
O402 C399 1.238 . S
O403 Co397 2.052 . S
O403 C399 1.241 . S
O404 Co392 2.137 . S
O404 C395 1.247 . S
O405 Co392 2.244 . S
O405 C395 1.272 . S
O405 Co397 2.135 . S
Co406 O407 2.216 . S
Co406 O408 2.091 . S
Co406 O410 2.004 . S
Co406 O416 2.021 . S
Co406 O418 2.137 . S
Co406 O419 2.244 . S
O407 Co406 2.216 . S
O407 C414 1.247 . S
O408 Co406 2.091 . S
O408 C414 1.261 . S
C409 O418 1.247 . S
C409 O419 1.272 . S
O410 Co406 2.004 . S
O410 C415 1.259 . S
Co411 O412 2.061 . S
Co411 O417 2.052 . S
Co411 O419 2.135 . S
O412 Co411 2.061 . S
O412 C415 1.235 . S
C413 O416 1.238 . S
C413 O417 1.241 . S
C414 O407 1.247 . S
C414 O408 1.261 . S
C415 O410 1.259 . S
C415 O412 1.235 . S
O416 Co406 2.021 . S
O416 C413 1.238 . S
O417 Co411 2.052 . S
O417 C413 1.241 . S
O418 Co406 2.137 . S
O418 C409 1.247 . S
O419 Co406 2.244 . S
O419 C409 1.272 . S
O419 Co411 2.135 . S
Co420 O421 2.216 . S
Co420 O422 2.091 . S
Co420 O424 2.004 . S
Co420 O430 2.021 . S
Co420 O432 2.137 . S
Co420 O433 2.244 . S
O421 Co420 2.216 . S
O421 C428 1.247 . S
O422 Co420 2.091 . S
O422 C428 1.261 . S
C423 O432 1.247 . S
C423 O433 1.272 . S
O424 Co420 2.004 . S
O424 C429 1.259 . S
Co425 O426 2.061 . S
Co425 O431 2.052 . S
Co425 O433 2.135 . S
O426 Co425 2.061 . S
O426 C429 1.235 . S
C427 O430 1.238 . S
C427 O431 1.241 . S
C428 O421 1.247 . S
C428 O422 1.261 . S
C429 O424 1.259 . S
C429 O426 1.235 . S
O430 Co420 2.021 . S
O430 C427 1.238 . S
O431 Co425 2.052 . S
O431 C427 1.241 . S
O432 Co420 2.137 . S
O432 C423 1.247 . S
O433 Co420 2.244 . S
O433 C423 1.272 . S
O433 Co425 2.135 . S
Co434 O435 2.216 . S
Co434 O436 2.091 . S
Co434 O438 2.004 . S
Co434 O444 2.021 . S
Co434 O446 2.137 . S
Co434 O447 2.244 . S
O435 Co434 2.216 . S
O435 C442 1.247 . S
O436 Co434 2.091 . S
O436 C442 1.261 . S
C437 O446 1.247 . S
C437 O447 1.272 . S
O438 Co434 2.004 . S
O438 C443 1.259 . S
Co439 O440 2.061 . S
Co439 O445 2.052 . S
Co439 O447 2.135 . S
O440 Co439 2.061 . S
O440 C443 1.235 . S
C441 O444 1.238 . S
C441 O445 1.241 . S
C442 O435 1.247 . S
C442 O436 1.261 . S
C443 O438 1.259 . S
C443 O440 1.235 . S
O444 Co434 2.021 . S
O444 C441 1.238 . S
O445 Co439 2.052 . S
O445 C441 1.241 . S
O446 Co434 2.137 . S
O446 C437 1.247 . S
O447 Co434 2.244 . S
O447 C437 1.272 . S
O447 Co439 2.135 . S
Co448 O449 2.216 . S
Co448 O450 2.091 . S
Co448 O452 2.004 . S
Co448 O458 2.021 . S
Co448 O460 2.137 . S
Co448 O461 2.244 . S
O449 Co448 2.216 . S
O449 C456 1.247 . S
O450 Co448 2.091 . S
O450 C456 1.261 . S
C451 O460 1.247 . S
C451 O461 1.272 . S
O452 Co448 2.004 . S
O452 C457 1.259 . S
Co453 O454 2.061 . S
Co453 O459 2.052 . S
Co453 O461 2.135 . S
O454 Co453 2.061 . S
O454 C457 1.235 . S
C455 O458 1.238 . S
C455 O459 1.241 . S
C456 O449 1.247 . S
C456 O450 1.261 . S
C457 O452 1.259 . S
C457 O454 1.235 . S
O458 Co448 2.021 . S
O458 C455 1.238 . S
O459 Co453 2.052 . S
O459 C455 1.241 . S
O460 Co448 2.137 . S
O460 C451 1.247 . S
O461 Co448 2.244 . S
O461 C451 1.272 . S
O461 Co453 2.135 . S
Co462 O463 2.216 . S
Co462 O464 2.091 . S
Co462 O466 2.004 . S
Co462 O472 2.021 . S
Co462 O474 2.137 . S
Co462 O475 2.244 . S
O463 Co462 2.216 . S
O463 C470 1.247 . S
O464 Co462 2.091 . S
O464 C470 1.261 . S
C465 O474 1.247 . S
C465 O475 1.272 . S
O466 Co462 2.004 . S
O466 C471 1.259 . S
Co467 O468 2.061 . S
Co467 O473 2.052 . S
Co467 O475 2.135 . S
O468 Co467 2.061 . S
O468 C471 1.235 . S
C469 O472 1.238 . S
C469 O473 1.241 . S
C470 O463 1.247 . S
C470 O464 1.261 . S
C471 O466 1.259 . S
C471 O468 1.235 . S
O472 Co462 2.021 . S
O472 C469 1.238 . S
O473 Co467 2.052 . S
O473 C469 1.241 . S
O474 Co462 2.137 . S
O474 C465 1.247 . S
O475 Co462 2.244 . S
O475 C465 1.272 . S
O475 Co467 2.135 . S
Co476 O477 2.216 . S
Co476 O478 2.091 . S
Co476 O480 2.004 . S
Co476 O486 2.021 . S
Co476 O488 2.137 . S
Co476 O489 2.244 . S
O477 Co476 2.216 . S
O477 C484 1.247 . S
O478 Co476 2.091 . S
O478 C484 1.261 . S
C479 O488 1.247 . S
C479 O489 1.272 . S
O480 Co476 2.004 . S
O480 C485 1.259 . S
Co481 O482 2.061 . S
Co481 O487 2.052 . S
Co481 O489 2.135 . S
O482 Co481 2.061 . S
O482 C485 1.235 . S
C483 O486 1.238 . S
C483 O487 1.241 . S
C484 O477 1.247 . S
C484 O478 1.261 . S
C485 O480 1.259 . S
C485 O482 1.235 . S
O486 Co476 2.021 . S
O486 C483 1.238 . S
O487 Co481 2.052 . S
O487 C483 1.241 . S
O488 Co476 2.137 . S
O488 C479 1.247 . S
O489 Co476 2.244 . S
O489 C479 1.272 . S
O489 Co481 2.135 . S
Co490 O491 2.216 . S
Co490 O492 2.091 . S
Co490 O494 2.004 . S
Co490 O500 2.021 . S
Co490 O502 2.137 . S
Co490 O503 2.244 . S
O491 Co490 2.216 . S
O491 C498 1.247 . S
O492 Co490 2.091 . S
O492 C498 1.261 . S
C493 O502 1.247 . S
C493 O503 1.272 . S
O494 Co490 2.004 . S
O494 C499 1.259 . S
Co495 O496 2.061 . S
Co495 O501 2.052 . S
Co495 O503 2.135 . S
O496 Co495 2.061 . S
O496 C499 1.235 . S
C497 O500 1.238 . S
C497 O501 1.241 . S
C498 O491 1.247 . S
C498 O492 1.261 . S
C499 O494 1.259 . S
C499 O496 1.235 . S
O500 Co490 2.021 . S
O500 C497 1.238 . S
O501 Co495 2.052 . S
O501 C497 1.241 . S
O502 Co490 2.137 . S
O502 C493 1.247 . S
O503 Co490 2.244 . S
O503 C493 1.272 . S
O503 Co495 2.135 . S
H504 C512 0.929 . S
H505 C514 0.930 . S
H506 C516 0.930 . S
H507 C519 0.929 . S
H508 C522 0.930 . S
H509 C524 0.960 . S
H510 C524 0.960 . S
H511 C524 0.960 . S
C512 H504 0.929 . S
C512 C513 1.377 . S
C512 C514 1.384 . S
C513 C512 1.377 . S
C513 C519 1.390 . S
C514 H505 0.930 . S
C514 C512 1.384 . S
C514 C515 1.372 . S
C515 C514 1.372 . S
C515 C516 1.400 . S
C515 C520 1.490 . S
C516 H506 0.930 . S
C516 C515 1.400 . S
C516 C519 1.386 . S
H517 C533 0.930 . S
H518 C534 0.931 . S
C519 H507 0.929 . S
C519 C513 1.390 . S
C519 C516 1.386 . S
C520 C515 1.490 . S
C520 C522 1.395 . S
C520 C523 1.403 . S
H521 C527 0.930 . S
C522 H508 0.930 . S
C522 C520 1.395 . S
C522 C525 1.403 . S
C523 C520 1.403 . S
C523 C524 1.524 . S
C523 C527 1.400 . S
C524 H509 0.960 . S
C524 H510 0.960 . S
C524 H511 0.960 . S
C524 C523 1.524 . S
C525 C522 1.403 . S
C525 C526 1.392 . S
C525 C529 1.495 . S
C526 C525 1.392 . S
C526 C527 1.385 . S
C526 C528 1.478 . S
C527 H521 0.930 . S
C527 C523 1.400 . S
C527 C526 1.385 . S
C528 C526 1.478 . S
C528 C530 1.381 . S
C528 C534 1.383 . S
C529 C525 1.495 . S
C529 H535 0.959 . S
C529 H536 0.961 . S
C529 H537 0.960 . S
C530 C528 1.381 . S
C530 C531 1.394 . S
C530 H538 0.930 . S
C531 C530 1.394 . S
C531 C532 1.383 . S
C531 H539 0.929 . S
C532 C531 1.383 . S
C532 C533 1.377 . S
C533 H517 0.930 . S
C533 C532 1.377 . S
C533 C534 1.379 . S
C534 H518 0.931 . S
C534 C528 1.383 . S
C534 C533 1.379 . S
H535 C529 0.959 . S
H536 C529 0.961 . S
H537 C529 0.960 . S
H538 C530 0.930 . S
H539 C531 0.929 . S
H540 C548 0.929 . S
H541 C550 0.930 . S
H542 C552 0.930 . S
H543 C555 0.929 . S
H544 C558 0.930 . S
H545 C560 0.960 . S
H546 C560 0.960 . S
H547 C560 0.960 . S
C548 H540 0.929 . S
C548 C549 1.377 . S
C548 C550 1.384 . S
C549 C548 1.377 . S
C549 C555 1.390 . S
C550 H541 0.930 . S
C550 C548 1.384 . S
C550 C551 1.372 . S
C551 C550 1.372 . S
C551 C552 1.400 . S
C551 C556 1.490 . S
C552 H542 0.930 . S
C552 C551 1.400 . S
C552 C555 1.386 . S
H553 C569 0.930 . S
H554 C570 0.931 . S
C555 H543 0.929 . S
C555 C549 1.390 . S
C555 C552 1.386 . S
C556 C551 1.490 . S
C556 C558 1.395 . S
C556 C559 1.403 . S
H557 C563 0.930 . S
C558 H544 0.930 . S
C558 C556 1.395 . S
C558 C561 1.403 . S
C559 C556 1.403 . S
C559 C560 1.524 . S
C559 C563 1.400 . S
C560 H545 0.960 . S
C560 H546 0.960 . S
C560 H547 0.960 . S
C560 C559 1.524 . S
C561 C558 1.403 . S
C561 C562 1.392 . S
C561 C565 1.495 . S
C562 C561 1.392 . S
C562 C563 1.385 . S
C562 C564 1.478 . S
C563 H557 0.930 . S
C563 C559 1.400 . S
C563 C562 1.385 . S
C564 C562 1.478 . S
C564 C566 1.381 . S
C564 C570 1.383 . S
C565 C561 1.495 . S
C565 H571 0.959 . S
C565 H572 0.961 . S
C565 H573 0.960 . S
C566 C564 1.381 . S
C566 C567 1.394 . S
C566 H574 0.930 . S
C567 C566 1.394 . S
C567 C568 1.383 . S
C567 H575 0.929 . S
C568 C567 1.383 . S
C568 C569 1.377 . S
C569 H553 0.930 . S
C569 C568 1.377 . S
C569 C570 1.379 . S
C570 H554 0.931 . S
C570 C564 1.383 . S
C570 C569 1.379 . S
H571 C565 0.959 . S
H572 C565 0.961 . S
H573 C565 0.960 . S
H574 C566 0.930 . S
H575 C567 0.929 . S
H576 C584 0.929 . S
H577 C586 0.930 . S
H578 C588 0.930 . S
H579 C591 0.929 . S
H580 C594 0.930 . S
H581 C596 0.960 . S
H582 C596 0.960 . S
H583 C596 0.960 . S
C584 H576 0.929 . S
C584 C585 1.377 . S
C584 C586 1.384 . S
C585 C584 1.377 . S
C585 C591 1.390 . S
C586 H577 0.930 . S
C586 C584 1.384 . S
C586 C587 1.372 . S
C587 C586 1.372 . S
C587 C588 1.400 . S
C587 C592 1.490 . S
C588 H578 0.930 . S
C588 C587 1.400 . S
C588 C591 1.386 . S
H589 C605 0.930 . S
H590 C606 0.931 . S
C591 H579 0.929 . S
C591 C585 1.390 . S
C591 C588 1.386 . S
C592 C587 1.490 . S
C592 C594 1.395 . S
C592 C595 1.403 . S
H593 C599 0.930 . S
C594 H580 0.930 . S
C594 C592 1.395 . S
C594 C597 1.403 . S
C595 C592 1.403 . S
C595 C596 1.524 . S
C595 C599 1.400 . S
C596 H581 0.960 . S
C596 H582 0.960 . S
C596 H583 0.960 . S
C596 C595 1.524 . S
C597 C594 1.403 . S
C597 C598 1.392 . S
C597 C601 1.495 . S
C598 C597 1.392 . S
C598 C599 1.385 . S
C598 C600 1.478 . S
C599 H593 0.930 . S
C599 C595 1.400 . S
C599 C598 1.385 . S
C600 C598 1.478 . S
C600 C602 1.381 . S
C600 C606 1.383 . S
C601 C597 1.495 . S
C601 H607 0.959 . S
C601 H608 0.961 . S
C601 H609 0.960 . S
C602 C600 1.381 . S
C602 C603 1.394 . S
C602 H610 0.930 . S
C603 C602 1.394 . S
C603 C604 1.383 . S
C603 H611 0.929 . S
C604 C603 1.383 . S
C604 C605 1.377 . S
C605 H589 0.930 . S
C605 C604 1.377 . S
C605 C606 1.379 . S
C606 H590 0.931 . S
C606 C600 1.383 . S
C606 C605 1.379 . S
H607 C601 0.959 . S
H608 C601 0.961 . S
H609 C601 0.960 . S
H610 C602 0.930 . S
H611 C603 0.929 . S
H612 C620 0.929 . S
H613 C622 0.930 . S
H614 C624 0.930 . S
H615 C627 0.929 . S
H616 C630 0.930 . S
H617 C632 0.960 . S
H618 C632 0.960 . S
H619 C632 0.960 . S
C620 H612 0.929 . S
C620 C621 1.377 . S
C620 C622 1.384 . S
C621 C620 1.377 . S
C621 C627 1.390 . S
C622 H613 0.930 . S
C622 C620 1.384 . S
C622 C623 1.372 . S
C623 C622 1.372 . S
C623 C624 1.400 . S
C623 C628 1.490 . S
C624 H614 0.930 . S
C624 C623 1.400 . S
C624 C627 1.386 . S
H625 C641 0.930 . S
H626 C642 0.931 . S
C627 H615 0.929 . S
C627 C621 1.390 . S
C627 C624 1.386 . S
C628 C623 1.490 . S
C628 C630 1.395 . S
C628 C631 1.403 . S
H629 C635 0.930 . S
C630 H616 0.930 . S
C630 C628 1.395 . S
C630 C633 1.403 . S
C631 C628 1.403 . S
C631 C632 1.524 . S
C631 C635 1.400 . S
C632 H617 0.960 . S
C632 H618 0.960 . S
C632 H619 0.960 . S
C632 C631 1.524 . S
C633 C630 1.403 . S
C633 C634 1.392 . S
C633 C637 1.495 . S
C634 C633 1.392 . S
C634 C635 1.385 . S
C634 C636 1.478 . S
C635 H629 0.930 . S
C635 C631 1.400 . S
C635 C634 1.385 . S
C636 C634 1.478 . S
C636 C638 1.381 . S
C636 C642 1.383 . S
C637 C633 1.495 . S
C637 H643 0.959 . S
C637 H644 0.961 . S
C637 H645 0.960 . S
C638 C636 1.381 . S
C638 C639 1.394 . S
C638 H646 0.930 . S
C639 C638 1.394 . S
C639 C640 1.383 . S
C639 H647 0.929 . S
C640 C639 1.383 . S
C640 C641 1.377 . S
C641 H625 0.930 . S
C641 C640 1.377 . S
C641 C642 1.379 . S
C642 H626 0.931 . S
C642 C636 1.383 . S
C642 C641 1.379 . S
H643 C637 0.959 . S
H644 C637 0.961 . S
H645 C637 0.960 . S
H646 C638 0.930 . S
H647 C639 0.929 . S
H648 C656 0.929 . S
H649 C658 0.930 . S
H650 C660 0.930 . S
H651 C663 0.929 . S
H652 C666 0.930 . S
H653 C668 0.960 . S
H654 C668 0.960 . S
H655 C668 0.960 . S
C656 H648 0.929 . S
C656 C657 1.377 . S
C656 C658 1.384 . S
C657 C656 1.377 . S
C657 C663 1.390 . S
C658 H649 0.930 . S
C658 C656 1.384 . S
C658 C659 1.372 . S
C659 C658 1.372 . S
C659 C660 1.400 . S
C659 C664 1.490 . S
C660 H650 0.930 . S
C660 C659 1.400 . S
C660 C663 1.386 . S
H661 C677 0.930 . S
H662 C678 0.931 . S
C663 H651 0.929 . S
C663 C657 1.390 . S
C663 C660 1.386 . S
C664 C659 1.490 . S
C664 C666 1.395 . S
C664 C667 1.403 . S
H665 C671 0.930 . S
C666 H652 0.930 . S
C666 C664 1.395 . S
C666 C669 1.403 . S
C667 C664 1.403 . S
C667 C668 1.524 . S
C667 C671 1.400 . S
C668 H653 0.960 . S
C668 H654 0.960 . S
C668 H655 0.960 . S
C668 C667 1.524 . S
C669 C666 1.403 . S
C669 C670 1.392 . S
C669 C673 1.495 . S
C670 C669 1.392 . S
C670 C671 1.385 . S
C670 C672 1.478 . S
C671 H665 0.930 . S
C671 C667 1.400 . S
C671 C670 1.385 . S
C672 C670 1.478 . S
C672 C674 1.381 . S
C672 C678 1.383 . S
C673 C669 1.495 . S
C673 H679 0.959 . S
C673 H680 0.961 . S
C673 H681 0.960 . S
C674 C672 1.381 . S
C674 C675 1.394 . S
C674 H682 0.930 . S
C675 C674 1.394 . S
C675 C676 1.383 . S
C675 H683 0.929 . S
C676 C675 1.383 . S
C676 C677 1.377 . S
C677 H661 0.930 . S
C677 C676 1.377 . S
C677 C678 1.379 . S
C678 H662 0.931 . S
C678 C672 1.383 . S
C678 C677 1.379 . S
H679 C673 0.959 . S
H680 C673 0.961 . S
H681 C673 0.960 . S
H682 C674 0.930 . S
H683 C675 0.929 . S
H684 C692 0.929 . S
H685 C694 0.930 . S
H686 C696 0.930 . S
H687 C699 0.929 . S
H688 C702 0.930 . S
H689 C704 0.960 . S
H690 C704 0.960 . S
H691 C704 0.960 . S
C692 H684 0.929 . S
C692 C693 1.377 . S
C692 C694 1.384 . S
C693 C692 1.377 . S
C693 C699 1.390 . S
C694 H685 0.930 . S
C694 C692 1.384 . S
C694 C695 1.372 . S
C695 C694 1.372 . S
C695 C696 1.400 . S
C695 C700 1.490 . S
C696 H686 0.930 . S
C696 C695 1.400 . S
C696 C699 1.386 . S
H697 C713 0.930 . S
H698 C714 0.931 . S
C699 H687 0.929 . S
C699 C693 1.390 . S
C699 C696 1.386 . S
C700 C695 1.490 . S
C700 C702 1.395 . S
C700 C703 1.403 . S
H701 C707 0.930 . S
C702 H688 0.930 . S
C702 C700 1.395 . S
C702 C705 1.403 . S
C703 C700 1.403 . S
C703 C704 1.524 . S
C703 C707 1.400 . S
C704 H689 0.960 . S
C704 H690 0.960 . S
C704 H691 0.960 . S
C704 C703 1.524 . S
C705 C702 1.403 . S
C705 C706 1.392 . S
C705 C709 1.495 . S
C706 C705 1.392 . S
C706 C707 1.385 . S
C706 C708 1.478 . S
C707 H701 0.930 . S
C707 C703 1.400 . S
C707 C706 1.385 . S
C708 C706 1.478 . S
C708 C710 1.381 . S
C708 C714 1.383 . S
C709 C705 1.495 . S
C709 H715 0.959 . S
C709 H716 0.961 . S
C709 H717 0.960 . S
C710 C708 1.381 . S
C710 C711 1.394 . S
C710 H718 0.930 . S
C711 C710 1.394 . S
C711 C712 1.383 . S
C711 H719 0.929 . S
C712 C711 1.383 . S
C712 C713 1.377 . S
C713 H697 0.930 . S
C713 C712 1.377 . S
C713 C714 1.379 . S
C714 H698 0.931 . S
C714 C708 1.383 . S
C714 C713 1.379 . S
H715 C709 0.959 . S
H716 C709 0.961 . S
H717 C709 0.960 . S
H718 C710 0.930 . S
H719 C711 0.929 . S
H720 C728 0.929 . S
H721 C730 0.930 . S
H722 C732 0.930 . S
H723 C735 0.929 . S
H724 C738 0.930 . S
H725 C740 0.960 . S
H726 C740 0.960 . S
H727 C740 0.960 . S
C728 H720 0.929 . S
C728 C729 1.377 . S
C728 C730 1.384 . S
C729 C728 1.377 . S
C729 C735 1.390 . S
C730 H721 0.930 . S
C730 C728 1.384 . S
C730 C731 1.372 . S
C731 C730 1.372 . S
C731 C732 1.400 . S
C731 C736 1.490 . S
C732 H722 0.930 . S
C732 C731 1.400 . S
C732 C735 1.386 . S
H733 C749 0.930 . S
H734 C750 0.931 . S
C735 H723 0.929 . S
C735 C729 1.390 . S
C735 C732 1.386 . S
C736 C731 1.490 . S
C736 C738 1.395 . S
C736 C739 1.403 . S
H737 C743 0.930 . S
C738 H724 0.930 . S
C738 C736 1.395 . S
C738 C741 1.403 . S
C739 C736 1.403 . S
C739 C740 1.524 . S
C739 C743 1.400 . S
C740 H725 0.960 . S
C740 H726 0.960 . S
C740 H727 0.960 . S
C740 C739 1.524 . S
C741 C738 1.403 . S
C741 C742 1.392 . S
C741 C745 1.495 . S
C742 C741 1.392 . S
C742 C743 1.385 . S
C742 C744 1.478 . S
C743 H737 0.930 . S
C743 C739 1.400 . S
C743 C742 1.385 . S
C744 C742 1.478 . S
C744 C746 1.381 . S
C744 C750 1.383 . S
C745 C741 1.495 . S
C745 H751 0.959 . S
C745 H752 0.961 . S
C745 H753 0.960 . S
C746 C744 1.381 . S
C746 C747 1.394 . S
C746 H754 0.930 . S
C747 C746 1.394 . S
C747 C748 1.383 . S
C747 H755 0.929 . S
C748 C747 1.383 . S
C748 C749 1.377 . S
C749 H733 0.930 . S
C749 C748 1.377 . S
C749 C750 1.379 . S
C750 H734 0.931 . S
C750 C744 1.383 . S
C750 C749 1.379 . S
H751 C745 0.959 . S
H752 C745 0.961 . S
H753 C745 0.960 . S
H754 C746 0.930 . S
H755 C747 0.929 . S
H756 C764 0.929 . S
H757 C766 0.930 . S
H758 C768 0.930 . S
H759 C771 0.929 . S
H760 C774 0.930 . S
H761 C776 0.960 . S
H762 C776 0.960 . S
H763 C776 0.960 . S
C764 H756 0.929 . S
C764 C765 1.377 . S
C764 C766 1.384 . S
C765 C764 1.377 . S
C765 C771 1.390 . S
C766 H757 0.930 . S
C766 C764 1.384 . S
C766 C767 1.372 . S
C767 C766 1.372 . S
C767 C768 1.400 . S
C767 C772 1.490 . S
C768 H758 0.930 . S
C768 C767 1.400 . S
C768 C771 1.386 . S
H769 C785 0.930 . S
H770 C786 0.931 . S
C771 H759 0.929 . S
C771 C765 1.390 . S
C771 C768 1.386 . S
C772 C767 1.490 . S
C772 C774 1.395 . S
C772 C775 1.403 . S
H773 C779 0.930 . S
C774 H760 0.930 . S
C774 C772 1.395 . S
C774 C777 1.403 . S
C775 C772 1.403 . S
C775 C776 1.524 . S
C775 C779 1.400 . S
C776 H761 0.960 . S
C776 H762 0.960 . S
C776 H763 0.960 . S
C776 C775 1.524 . S
C777 C774 1.403 . S
C777 C778 1.392 . S
C777 C781 1.495 . S
C778 C777 1.392 . S
C778 C779 1.385 . S
C778 C780 1.478 . S
C779 H773 0.930 . S
C779 C775 1.400 . S
C779 C778 1.385 . S
C780 C778 1.478 . S
C780 C782 1.381 . S
C780 C786 1.383 . S
C781 C777 1.495 . S
C781 H787 0.959 . S
C781 H788 0.961 . S
C781 H789 0.960 . S
C782 C780 1.381 . S
C782 C783 1.394 . S
C782 H790 0.930 . S
C783 C782 1.394 . S
C783 C784 1.383 . S
C783 H791 0.929 . S
C784 C783 1.383 . S
C784 C785 1.377 . S
C785 H769 0.930 . S
C785 C784 1.377 . S
C785 C786 1.379 . S
C786 H770 0.931 . S
C786 C780 1.383 . S
C786 C785 1.379 . S
H787 C781 0.959 . S
H788 C781 0.961 . S
H789 C781 0.960 . S
H790 C782 0.930 . S
H791 C783 0.929 . S
H792 C800 0.929 . S
H793 C802 0.930 . S
H794 C804 0.930 . S
H795 C807 0.929 . S
H796 C810 0.930 . S
H797 C812 0.960 . S
H798 C812 0.960 . S
H799 C812 0.960 . S
C800 H792 0.929 . S
C800 C801 1.377 . S
C800 C802 1.384 . S
C801 C800 1.377 . S
C801 C807 1.390 . S
C802 H793 0.930 . S
C802 C800 1.384 . S
C802 C803 1.372 . S
C803 C802 1.372 . S
C803 C804 1.400 . S
C803 C808 1.490 . S
C804 H794 0.930 . S
C804 C803 1.400 . S
C804 C807 1.386 . S
H805 C821 0.930 . S
H806 C822 0.931 . S
C807 H795 0.929 . S
C807 C801 1.390 . S
C807 C804 1.386 . S
C808 C803 1.490 . S
C808 C810 1.395 . S
C808 C811 1.403 . S
H809 C815 0.930 . S
C810 H796 0.930 . S
C810 C808 1.395 . S
C810 C813 1.403 . S
C811 C808 1.403 . S
C811 C812 1.524 . S
C811 C815 1.400 . S
C812 H797 0.960 . S
C812 H798 0.960 . S
C812 H799 0.960 . S
C812 C811 1.524 . S
C813 C810 1.403 . S
C813 C814 1.392 . S
C813 C817 1.495 . S
C814 C813 1.392 . S
C814 C815 1.385 . S
C814 C816 1.478 . S
C815 H809 0.930 . S
C815 C811 1.400 . S
C815 C814 1.385 . S
C816 C814 1.478 . S
C816 C818 1.381 . S
C816 C822 1.383 . S
C817 C813 1.495 . S
C817 H823 0.959 . S
C817 H824 0.961 . S
C817 H825 0.960 . S
C818 C816 1.381 . S
C818 C819 1.394 . S
C818 H826 0.930 . S
C819 C818 1.394 . S
C819 C820 1.383 . S
C819 H827 0.929 . S
C820 C819 1.383 . S
C820 C821 1.377 . S
C821 H805 0.930 . S
C821 C820 1.377 . S
C821 C822 1.379 . S
C822 H806 0.931 . S
C822 C816 1.383 . S
C822 C821 1.379 . S
H823 C817 0.959 . S
H824 C817 0.961 . S
H825 C817 0.960 . S
H826 C818 0.930 . S
H827 C819 0.929 . S
H828 C836 0.929 . S
H829 C838 0.930 . S
H830 C840 0.930 . S
H831 C843 0.929 . S
H832 C846 0.930 . S
H833 C848 0.960 . S
H834 C848 0.960 . S
H835 C848 0.960 . S
C836 H828 0.929 . S
C836 C837 1.377 . S
C836 C838 1.384 . S
C837 C836 1.377 . S
C837 C843 1.390 . S
C838 H829 0.930 . S
C838 C836 1.384 . S
C838 C839 1.372 . S
C839 C838 1.372 . S
C839 C840 1.400 . S
C839 C844 1.490 . S
C840 H830 0.930 . S
C840 C839 1.400 . S
C840 C843 1.386 . S
H841 C857 0.930 . S
H842 C858 0.931 . S
C843 H831 0.929 . S
C843 C837 1.390 . S
C843 C840 1.386 . S
C844 C839 1.490 . S
C844 C846 1.395 . S
C844 C847 1.403 . S
H845 C851 0.930 . S
C846 H832 0.930 . S
C846 C844 1.395 . S
C846 C849 1.403 . S
C847 C844 1.403 . S
C847 C848 1.524 . S
C847 C851 1.400 . S
C848 H833 0.960 . S
C848 H834 0.960 . S
C848 H835 0.960 . S
C848 C847 1.524 . S
C849 C846 1.403 . S
C849 C850 1.392 . S
C849 C853 1.495 . S
C850 C849 1.392 . S
C850 C851 1.385 . S
C850 C852 1.478 . S
C851 H845 0.930 . S
C851 C847 1.400 . S
C851 C850 1.385 . S
C852 C850 1.478 . S
C852 C854 1.381 . S
C852 C858 1.383 . S
C853 C849 1.495 . S
C853 H859 0.959 . S
C853 H860 0.961 . S
C853 H861 0.960 . S
C854 C852 1.381 . S
C854 C855 1.394 . S
C854 H862 0.930 . S
C855 C854 1.394 . S
C855 C856 1.383 . S
C855 H863 0.929 . S
C856 C855 1.383 . S
C856 C857 1.377 . S
C857 H841 0.930 . S
C857 C856 1.377 . S
C857 C858 1.379 . S
C858 H842 0.931 . S
C858 C852 1.383 . S
C858 C857 1.379 . S
H859 C853 0.959 . S
H860 C853 0.961 . S
H861 C853 0.960 . S
H862 C854 0.930 . S
H863 C855 0.929 . S
H864 C872 0.929 . S
H865 C874 0.930 . S
H866 C876 0.930 . S
H867 C879 0.929 . S
H868 C882 0.930 . S
H869 C884 0.960 . S
H870 C884 0.960 . S
H871 C884 0.960 . S
C872 H864 0.929 . S
C872 C873 1.377 . S
C872 C874 1.384 . S
C873 C872 1.377 . S
C873 C879 1.390 . S
C874 H865 0.930 . S
C874 C872 1.384 . S
C874 C875 1.372 . S
C875 C874 1.372 . S
C875 C876 1.400 . S
C875 C880 1.490 . S
C876 H866 0.930 . S
C876 C875 1.400 . S
C876 C879 1.386 . S
H877 C893 0.930 . S
H878 C894 0.931 . S
C879 H867 0.929 . S
C879 C873 1.390 . S
C879 C876 1.386 . S
C880 C875 1.490 . S
C880 C882 1.395 . S
C880 C883 1.403 . S
H881 C887 0.930 . S
C882 H868 0.930 . S
C882 C880 1.395 . S
C882 C885 1.403 . S
C883 C880 1.403 . S
C883 C884 1.524 . S
C883 C887 1.400 . S
C884 H869 0.960 . S
C884 H870 0.960 . S
C884 H871 0.960 . S
C884 C883 1.524 . S
C885 C882 1.403 . S
C885 C886 1.392 . S
C885 C889 1.495 . S
C886 C885 1.392 . S
C886 C887 1.385 . S
C886 C888 1.478 . S
C887 H881 0.930 . S
C887 C883 1.400 . S
C887 C886 1.385 . S
C888 C886 1.478 . S
C888 C890 1.381 . S
C888 C894 1.383 . S
C889 C885 1.495 . S
C889 H895 0.959 . S
C889 H896 0.961 . S
C889 H897 0.960 . S
C890 C888 1.381 . S
C890 C891 1.394 . S
C890 H898 0.930 . S
C891 C890 1.394 . S
C891 C892 1.383 . S
C891 H899 0.929 . S
C892 C891 1.383 . S
C892 C893 1.377 . S
C893 H877 0.930 . S
C893 C892 1.377 . S
C893 C894 1.379 . S
C894 H878 0.931 . S
C894 C888 1.383 . S
C894 C893 1.379 . S
H895 C889 0.959 . S
H896 C889 0.961 . S
H897 C889 0.960 . S
H898 C890 0.930 . S
H899 C891 0.929 . S
H900 C908 0.929 . S
H901 C910 0.930 . S
H902 C912 0.930 . S
H903 C915 0.929 . S
H904 C918 0.930 . S
H905 C920 0.960 . S
H906 C920 0.960 . S
H907 C920 0.960 . S
C908 H900 0.929 . S
C908 C909 1.377 . S
C908 C910 1.384 . S
C909 C908 1.377 . S
C909 C915 1.390 . S
C910 H901 0.930 . S
C910 C908 1.384 . S
C910 C911 1.372 . S
C911 C910 1.372 . S
C911 C912 1.400 . S
C911 C916 1.490 . S
C912 H902 0.930 . S
C912 C911 1.400 . S
C912 C915 1.386 . S
H913 C929 0.930 . S
H914 C930 0.931 . S
C915 H903 0.929 . S
C915 C909 1.390 . S
C915 C912 1.386 . S
C916 C911 1.490 . S
C916 C918 1.395 . S
C916 C919 1.403 . S
H917 C923 0.930 . S
C918 H904 0.930 . S
C918 C916 1.395 . S
C918 C921 1.403 . S
C919 C916 1.403 . S
C919 C920 1.524 . S
C919 C923 1.400 . S
C920 H905 0.960 . S
C920 H906 0.960 . S
C920 H907 0.960 . S
C920 C919 1.524 . S
C921 C918 1.403 . S
C921 C922 1.392 . S
C921 C925 1.495 . S
C922 C921 1.392 . S
C922 C923 1.385 . S
C922 C924 1.478 . S
C923 H917 0.930 . S
C923 C919 1.400 . S
C923 C922 1.385 . S
C924 C922 1.478 . S
C924 C926 1.381 . S
C924 C930 1.383 . S
C925 C921 1.495 . S
C925 H931 0.959 . S
C925 H932 0.961 . S
C925 H933 0.960 . S
C926 C924 1.381 . S
C926 C927 1.394 . S
C926 H934 0.930 . S
C927 C926 1.394 . S
C927 C928 1.383 . S
C927 H935 0.929 . S
C928 C927 1.383 . S
C928 C929 1.377 . S
C929 H913 0.930 . S
C929 C928 1.377 . S
C929 C930 1.379 . S
C930 H914 0.931 . S
C930 C924 1.383 . S
C930 C929 1.379 . S
H931 C925 0.959 . S
H932 C925 0.961 . S
H933 C925 0.960 . S
H934 C926 0.930 . S
H935 C927 0.929 . S
H936 C944 0.929 . S
H937 C946 0.918 1_455 S
H938 C948 0.930 . S
H939 C951 0.929 . S
H940 C954 0.931 1_655 S
H941 C956 0.960 . S
H942 C956 0.960 . S
H943 C956 0.960 . S
C944 H936 0.929 . S
C944 C945 1.377 . S
C944 C946 1.384 . S
C945 C944 1.377 . S
C945 C951 1.390 . S
C946 H937 0.918 1_655 S
C946 C944 1.384 . S
C946 C947 1.372 . S
C947 C946 1.372 . S
C947 C948 1.400 . S
C947 C952 1.490 . S
C948 H938 0.930 . S
C948 C947 1.400 . S
C948 C951 1.386 . S
H949 C965 0.930 . S
H950 C966 0.931 . S
C951 H939 0.929 . S
C951 C945 1.390 . S
C951 C948 1.386 . S
C952 C947 1.490 . S
C952 C954 1.395 1_655 S
C952 C955 1.403 . S
H953 C959 0.930 . S
C954 H940 0.931 1_455 S
C954 C952 1.395 1_455 S
C954 C957 1.403 . S
C955 C952 1.403 . S
C955 C956 1.524 . S
C955 C959 1.400 1_655 S
C956 H941 0.960 . S
C956 H942 0.960 . S
C956 H943 0.960 . S
C956 C955 1.524 . S
C957 C954 1.403 . S
C957 C958 1.392 . S
C957 C961 1.495 . S
C958 C957 1.392 . S
C958 C959 1.385 . S
C958 C960 1.478 . S
C959 H953 0.930 . S
C959 C955 1.400 1_455 S
C959 C958 1.385 . S
C960 C958 1.478 . S
C960 C962 1.381 . S
C960 C966 1.383 . S
C961 C957 1.495 . S
C961 H967 0.959 . S
C961 H968 0.961 . S
C961 H969 0.960 . S
C962 C960 1.381 . S
C962 C963 1.394 . S
C962 H970 0.930 . S
C963 C962 1.394 . S
C963 C964 1.383 . S
C963 H971 0.929 . S
C964 C963 1.383 . S
C964 C965 1.377 . S
C965 H949 0.930 . S
C965 C964 1.377 . S
C965 C966 1.379 . S
C966 H950 0.931 . S
C966 C960 1.383 . S
C966 C965 1.379 . S
H967 C961 0.959 . S
H968 C961 0.961 . S
H969 C961 0.960 . S
H970 C962 0.930 . S
H971 C963 0.929 . S
H972 C980 0.929 . S
H973 C982 0.930 . S
H974 C984 0.930 . S
H975 C987 0.929 . S
H976 C990 0.930 . S
H977 C992 0.960 . S
H978 C992 0.960 . S
H979 C992 0.960 . S
C980 H972 0.929 . S
C980 C981 1.377 . S
C980 C982 1.384 . S
C981 C980 1.377 . S
C981 C987 1.390 . S
C982 H973 0.930 . S
C982 C980 1.384 . S
C982 C983 1.372 . S
C983 C982 1.372 . S
C983 C984 1.400 . S
C983 C988 1.490 . S
C984 H974 0.930 . S
C984 C983 1.400 . S
C984 C987 1.386 . S
H985 C1001 0.930 . S
H986 C1002 0.931 . S
C987 H975 0.929 . S
C987 C981 1.390 . S
C987 C984 1.386 . S
C988 C983 1.490 . S
C988 C990 1.395 . S
C988 C991 1.403 . S
H989 C995 0.930 . S
C990 H976 0.930 . S
C990 C988 1.395 . S
C990 C993 1.403 . S
C991 C988 1.403 . S
C991 C992 1.524 . S
C991 C995 1.400 . S
C992 H977 0.960 . S
C992 H978 0.960 . S
C992 H979 0.960 . S
C992 C991 1.524 . S
C993 C990 1.403 . S
C993 C994 1.392 . S
C993 C997 1.495 . S
C994 C993 1.392 . S
C994 C995 1.385 . S
C994 C996 1.478 . S
C995 H989 0.930 . S
C995 C991 1.400 . S
C995 C994 1.385 . S
C996 C994 1.478 . S
C996 C998 1.381 . S
C996 C1002 1.383 . S
C997 C993 1.495 . S
C997 H1003 0.959 . S
C997 H1004 0.961 . S
C997 H1005 0.960 . S
C998 C996 1.381 . S
C998 C999 1.394 . S
C998 H1006 0.930 . S
C999 C998 1.394 . S
C999 C1000 1.383 . S
C999 H1007 0.929 . S
C1000 C999 1.383 . S
C1000 C1001 1.377 . S
C1001 H985 0.930 . S
C1001 C1000 1.377 . S
C1001 C1002 1.379 . S
C1002 H986 0.931 . S
C1002 C996 1.383 . S
C1002 C1001 1.379 . S
H1003 C997 0.959 . S
H1004 C997 0.961 . S
H1005 C997 0.960 . S
H1006 C998 0.930 . S
H1007 C999 0.929 . S
H1008 C1016 0.929 . S
H1009 C1018 0.930 . S
H1010 C1020 0.930 . S
H1011 C1023 0.929 . S
H1012 C1026 0.930 . S
H1013 C1028 0.960 . S
H1014 C1028 0.960 . S
H1015 C1028 0.960 . S
C1016 H1008 0.929 . S
C1016 C1017 1.377 . S
C1016 C1018 1.384 . S
C1017 C1016 1.377 . S
C1017 C1023 1.390 . S
C1018 H1009 0.930 . S
C1018 C1016 1.384 . S
C1018 C1019 1.372 . S
C1019 C1018 1.372 . S
C1019 C1020 1.400 . S
C1019 C1024 1.490 . S
C1020 H1010 0.930 . S
C1020 C1019 1.400 . S
C1020 C1023 1.386 . S
H1021 C1037 0.930 . S
H1022 C1038 0.931 . S
C1023 H1011 0.929 . S
C1023 C1017 1.390 . S
C1023 C1020 1.386 . S
C1024 C1019 1.490 . S
C1024 C1026 1.395 . S
C1024 C1027 1.403 . S
H1025 C1031 0.930 . S
C1026 H1012 0.930 . S
C1026 C1024 1.395 . S
C1026 C1029 1.403 1_545 S
C1027 C1024 1.403 . S
C1027 C1028 1.524 . S
C1027 C1031 1.400 1_545 S
C1028 H1013 0.960 . S
C1028 H1014 0.960 . S
C1028 H1015 0.960 . S
C1028 C1027 1.524 . S
C1029 C1026 1.403 1_565 S
C1029 C1030 1.392 . S
C1029 C1033 1.495 . S
C1030 C1029 1.392 . S
C1030 C1031 1.385 . S
C1030 C1032 1.478 . S
C1031 H1025 0.930 . S
C1031 C1027 1.400 1_565 S
C1031 C1030 1.385 . S
C1032 C1030 1.478 . S
C1032 C1034 1.381 . S
C1032 C1038 1.383 . S
C1033 C1029 1.495 . S
C1033 H1039 0.959 . S
C1033 H1040 0.961 . S
C1033 H1041 0.960 . S
C1034 C1032 1.381 . S
C1034 C1035 1.394 . S
C1034 H1042 0.930 . S
C1035 C1034 1.394 . S
C1035 C1036 1.383 . S
C1035 H1043 0.929 . S
C1036 C1035 1.383 . S
C1036 C1037 1.377 . S
C1037 H1021 0.930 . S
C1037 C1036 1.377 . S
C1037 C1038 1.379 . S
C1038 H1022 0.931 . S
C1038 C1032 1.383 . S
C1038 C1037 1.379 . S
H1039 C1033 0.959 . S
H1040 C1033 0.961 . S
H1041 C1033 0.960 . S
H1042 C1034 0.930 . S
H1043 C1035 0.929 . S
H1044 C1052 0.929 . S
H1045 C1054 0.930 . S
H1046 C1056 0.930 . S
H1047 C1059 0.929 . S
H1048 C1062 0.930 . S
H1049 C1064 0.960 . S
H1050 C1064 0.960 . S
H1051 C1064 0.973 . S
C1052 H1044 0.929 . S
C1052 C1053 1.377 . S
C1052 C1054 1.384 . S
C1053 C1052 1.377 . S
C1053 C1059 1.390 . S
C1054 H1045 0.930 . S
C1054 C1052 1.384 . S
C1054 C1055 1.372 . S
C1055 C1054 1.372 . S
C1055 C1056 1.400 . S
C1055 C1060 1.490 . S
C1056 H1046 0.930 . S
C1056 C1055 1.400 . S
C1056 C1059 1.386 . S
H1057 C1073 0.930 . S
H1058 C1074 0.931 . S
C1059 H1047 0.929 . S
C1059 C1053 1.390 . S
C1059 C1056 1.386 . S
C1060 C1055 1.490 . S
C1060 C1062 1.395 1_545 S
C1060 C1063 1.403 1_556 S
H1061 C1067 0.930 . S
C1062 H1048 0.930 . S
C1062 C1060 1.395 1_565 S
C1062 C1065 1.403 1_556 S
C1063 C1060 1.403 1_554 S
C1063 C1064 1.524 . S
C1063 C1067 1.400 . S
C1064 H1049 0.960 . S
C1064 H1050 0.960 . S
C1064 H1051 0.973 . S
C1064 C1063 1.524 . S
C1065 C1062 1.403 1_554 S
C1065 C1066 1.392 . S
C1065 C1069 1.495 1_554 S
C1066 C1065 1.392 . S
C1066 C1067 1.385 1_565 S
C1066 C1068 1.478 . S
C1067 H1061 0.930 . S
C1067 C1063 1.400 . S
C1067 C1066 1.385 1_545 S
C1068 C1066 1.478 . S
C1068 C1070 1.381 . S
C1068 C1074 1.383 . S
C1069 C1065 1.495 1_556 S
C1069 H1075 0.959 . S
C1069 H1076 0.961 . S
C1069 H1077 0.960 1_556 S
C1070 C1068 1.381 . S
C1070 C1071 1.394 . S
C1070 H1078 0.930 . S
C1071 C1070 1.394 . S
C1071 C1072 1.383 . S
C1071 H1079 0.929 . S
C1072 C1071 1.383 . S
C1072 C1073 1.377 . S
C1073 H1057 0.930 . S
C1073 C1072 1.377 . S
C1073 C1074 1.379 . S
C1074 H1058 0.931 . S
C1074 C1068 1.383 . S
C1074 C1073 1.379 . S
H1075 C1069 0.959 . S
H1076 C1069 0.961 . S
H1077 C1069 0.960 1_554 S
H1078 C1070 0.930 . S
H1079 C1071 0.929 . S
H1080 C1088 0.929 . S
H1081 C1090 0.930 . S
H1082 C1092 0.930 . S
H1083 C1095 0.929 . S
H1084 C1098 0.930 . S
H1085 C1100 0.960 1_455 S
H1086 C1100 0.960 1_456 S
H1087 C1100 0.960 . S
C1088 H1080 0.929 . S
C1088 C1089 1.377 . S
C1088 C1090 1.384 . S
C1089 C1088 1.377 . S
C1089 C1095 1.390 . S
C1090 H1081 0.930 . S
C1090 C1088 1.384 . S
C1090 C1091 1.372 . S
C1091 C1090 1.372 . S
C1091 C1092 1.400 . S
C1091 C1096 1.490 . S
C1092 H1082 0.930 . S
C1092 C1091 1.400 . S
C1092 C1095 1.386 . S
H1093 C1109 0.930 . S
H1094 C1110 0.931 . S
C1095 H1083 0.929 . S
C1095 C1089 1.390 . S
C1095 C1092 1.386 . S
C1096 C1091 1.490 . S
C1096 C1098 1.395 . S
C1096 C1099 1.403 1_556 S
H1097 C1103 0.930 . S
C1098 H1084 0.930 . S
C1098 C1096 1.395 . S
C1098 C1101 1.412 1_556 S
C1099 C1096 1.403 1_554 S
C1099 C1100 1.524 . S
C1099 C1103 1.400 1_655 S
C1100 H1085 0.960 1_655 S
C1100 H1086 0.960 1_654 S
C1100 H1087 0.960 . S
C1100 C1099 1.524 . S
C1101 C1098 1.412 1_554 S
C1101 C1102 1.370 1_655 S
C1101 C1105 1.524 1_655 S
C1102 C1101 1.370 1_455 S
C1102 C1103 1.385 . S
C1102 C1104 1.478 . S
C1103 H1097 0.930 . S
C1103 C1099 1.400 1_455 S
C1103 C1102 1.385 . S
C1104 C1102 1.478 . S
C1104 C1106 1.381 . S
C1104 C1110 1.383 . S
C1105 C1101 1.524 1_455 S
C1105 H1111 0.943 1_454 S
C1105 H1112 0.949 1_455 S
C1105 H1113 0.977 . S
C1106 C1104 1.381 . S
C1106 C1107 1.394 . S
C1106 H1114 0.930 . S
C1107 C1106 1.394 . S
C1107 C1108 1.383 . S
C1107 H1115 0.929 . S
C1108 C1107 1.383 . S
C1108 C1109 1.377 . S
C1109 H1093 0.930 . S
C1109 C1108 1.377 . S
C1109 C1110 1.379 . S
C1110 H1094 0.931 . S
C1110 C1104 1.383 . S
C1110 C1109 1.379 . S
H1111 C1105 0.943 1_656 S
H1112 C1105 0.949 1_655 S
H1113 C1105 0.977 . S
H1114 C1106 0.930 . S
H1115 C1107 0.929 . S
H1116 C1124 0.929 . S
H1117 C1126 0.930 . S
H1118 C1128 0.930 . S
H1119 C1131 0.929 . S
H1120 C1134 0.930 . S
H1121 C1136 0.982 . S
H1122 C1136 0.960 . S
H1123 C1136 0.960 . S
C1124 H1116 0.929 . S
C1124 C1125 1.377 . S
C1124 C1126 1.384 . S
C1125 C1124 1.377 . S
C1125 C1131 1.390 . S
C1126 H1117 0.930 . S
C1126 C1124 1.384 . S
C1126 C1127 1.372 . S
C1127 C1126 1.372 . S
C1127 C1128 1.400 . S
C1127 C1132 1.490 . S
C1128 H1118 0.930 . S
C1128 C1127 1.400 . S
C1128 C1131 1.386 . S
H1129 C1145 0.930 . S
H1130 C1146 0.931 . S
C1131 H1119 0.929 . S
C1131 C1125 1.390 . S
C1131 C1128 1.386 . S
C1132 C1127 1.490 . S
C1132 C1134 1.395 . S
C1132 C1135 1.403 . S
H1133 C1139 0.930 . S
C1134 H1120 0.930 . S
C1134 C1132 1.395 . S
C1134 C1137 1.403 1_556 S
C1135 C1132 1.403 . S
C1135 C1136 1.524 . S
C1135 C1139 1.400 1_556 S
C1136 H1121 0.982 . S
C1136 H1122 0.960 . S
C1136 H1123 0.960 . S
C1136 C1135 1.524 . S
C1137 C1134 1.403 1_554 S
C1137 C1138 1.392 . S
C1137 C1141 1.495 . S
C1138 C1137 1.392 . S
C1138 C1139 1.385 . S
C1138 C1140 1.478 . S
C1139 H1133 0.930 . S
C1139 C1135 1.400 1_554 S
C1139 C1138 1.385 . S
C1140 C1138 1.478 . S
C1140 C1142 1.381 . S
C1140 C1146 1.383 . S
C1141 C1137 1.495 . S
C1141 H1147 0.959 . S
C1141 H1148 0.961 . S
C1141 H1149 0.960 . S
C1142 C1140 1.381 . S
C1142 C1143 1.394 . S
C1142 H1150 0.930 . S
C1143 C1142 1.394 . S
C1143 C1144 1.383 . S
C1143 H1151 0.929 . S
C1144 C1143 1.383 . S
C1144 C1145 1.377 . S
C1145 H1129 0.930 . S
C1145 C1144 1.377 . S
C1145 C1146 1.379 . S
C1146 H1130 0.931 . S
C1146 C1140 1.383 . S
C1146 C1145 1.379 . S
H1147 C1141 0.959 . S
H1148 C1141 0.961 . S
H1149 C1141 0.960 . S
H1150 C1142 0.930 . S
H1151 C1143 0.929 . S
H1152 C1160 0.929 . S
H1153 C1162 0.930 . S
H1154 C1164 0.930 . S
H1155 C1167 0.929 . S
H1156 C1170 0.930 . S
H1157 C1172 0.960 . S
H1158 C1172 0.960 . S
H1159 C1172 0.960 . S
C1160 H1152 0.929 . S
C1160 C1161 1.377 . S
C1160 C1162 1.384 1_565 S
C1161 C1160 1.377 . S
C1161 C1167 1.390 . S
C1162 H1153 0.930 . S
C1162 C1160 1.384 1_545 S
C1162 C1163 1.372 . S
C1163 C1162 1.372 . S
C1163 C1164 1.400 . S
C1163 C1168 1.490 . S
C1164 H1154 0.930 . S
C1164 C1163 1.400 . S
C1164 C1167 1.386 1_545 S
H1165 C1181 0.930 . S
H1166 C1182 0.931 . S
C1167 H1155 0.929 . S
C1167 C1161 1.390 . S
C1167 C1164 1.386 1_565 S
C1168 C1163 1.490 . S
C1168 C1170 1.395 . S
C1168 C1171 1.403 . S
H1169 C1175 0.930 . S
C1170 H1156 0.930 . S
C1170 C1168 1.395 . S
C1170 C1173 1.403 1_556 S
C1171 C1168 1.403 . S
C1171 C1172 1.524 . S
C1171 C1175 1.400 . S
C1172 H1157 0.960 . S
C1172 H1158 0.960 . S
C1172 H1159 0.960 . S
C1172 C1171 1.524 . S
C1173 C1170 1.403 1_554 S
C1173 C1174 1.380 1_554 S
C1173 C1177 1.495 . S
C1174 C1173 1.380 1_556 S
C1174 C1175 1.418 . S
C1174 C1176 1.460 1_556 S
C1175 H1169 0.930 . S
C1175 C1171 1.400 . S
C1175 C1174 1.418 . S
C1176 C1174 1.460 1_554 S
C1176 C1178 1.381 . S
C1176 C1182 1.383 . S
C1177 C1173 1.495 . S
C1177 H1183 0.959 . S
C1177 H1184 0.961 . S
C1177 H1185 0.960 . S
C1178 C1176 1.381 . S
C1178 C1179 1.394 . S
C1178 H1186 0.930 . S
C1179 C1178 1.394 . S
C1179 C1180 1.383 . S
C1179 H1187 0.929 . S
C1180 C1179 1.383 . S
C1180 C1181 1.377 . S
C1181 H1165 0.930 . S
C1181 C1180 1.377 . S
C1181 C1182 1.379 . S
C1182 H1166 0.931 . S
C1182 C1176 1.383 . S
C1182 C1181 1.379 . S
H1183 C1177 0.959 . S
H1184 C1177 0.961 . S
H1185 C1177 0.960 . S
H1186 C1178 0.930 . S
H1187 C1179 0.929 . S
H1188 C1196 0.929 . S
H1189 C1198 0.930 . S
H1190 C1200 0.930 . S
H1191 C1203 0.929 . S
H1192 C1206 0.930 . S
H1193 C1208 0.960 . S
H1194 C1208 0.960 . S
H1195 C1208 0.960 . S
C1196 H1188 0.929 . S
C1196 C1197 1.377 . S
C1196 C1198 1.384 1_455 S
C1197 C1196 1.377 . S
C1197 C1203 1.390 . S
C1198 H1189 0.930 . S
C1198 C1196 1.384 1_655 S
C1198 C1199 1.372 . S
C1199 C1198 1.372 . S
C1199 C1200 1.400 . S
C1199 C1204 1.490 . S
C1200 H1190 0.930 . S
C1200 C1199 1.400 . S
C1200 C1203 1.386 1_655 S
H1201 C1217 0.930 . S
H1202 C1218 0.931 . S
C1203 H1191 0.929 . S
C1203 C1197 1.390 . S
C1203 C1200 1.386 1_455 S
C1204 C1199 1.490 . S
C1204 C1206 1.395 . S
C1204 C1207 1.403 . S
H1205 C1211 0.930 . S
C1206 H1192 0.930 . S
C1206 C1204 1.395 . S
C1206 C1209 1.403 1_556 S
C1207 C1204 1.403 . S
C1207 C1208 1.524 . S
C1207 C1211 1.400 . S
C1208 H1193 0.960 . S
C1208 H1194 0.960 . S
C1208 H1195 0.960 . S
C1208 C1207 1.524 . S
C1209 C1206 1.403 1_554 S
C1209 C1210 1.392 1_554 S
C1209 C1213 1.495 . S
C1210 C1209 1.392 1_556 S
C1210 C1211 1.385 . S
C1210 C1212 1.478 1_556 S
C1211 H1205 0.930 . S
C1211 C1207 1.400 . S
C1211 C1210 1.385 . S
C1212 C1210 1.478 1_554 S
C1212 C1214 1.381 . S
C1212 C1218 1.383 . S
C1213 C1209 1.495 . S
C1213 H1219 0.959 . S
C1213 H1220 0.961 . S
C1213 H1221 0.960 . S
C1214 C1212 1.381 . S
C1214 C1215 1.394 . S
C1214 H1222 0.930 . S
C1215 C1214 1.394 . S
C1215 C1216 1.383 . S
C1215 H1223 0.929 . S
C1216 C1215 1.383 . S
C1216 C1217 1.377 . S
C1217 H1201 0.930 . S
C1217 C1216 1.377 . S
C1217 C1218 1.379 . S
C1218 H1202 0.931 . S
C1218 C1212 1.383 . S
C1218 C1217 1.379 . S
H1219 C1213 0.959 . S
H1220 C1213 0.961 . S
H1221 C1213 0.960 . S
H1222 C1214 0.930 . S
H1223 C1215 0.929 . S
H1224 C1232 0.929 . S
H1225 C1234 0.888 1_556 S
H1226 C1236 0.930 . S
H1227 C1239 0.929 . S
H1228 C1242 0.930 . S
H1229 C1244 0.960 . S
H1230 C1244 0.960 . S
H1231 C1244 0.960 . S
C1232 H1224 0.929 . S
C1232 C1233 1.377 . S
C1232 C1234 1.406 . S
C1233 C1232 1.377 . S
C1233 C1239 1.390 . S
C1234 H1225 0.888 1_554 S
C1234 C1232 1.406 . S
C1234 C1235 1.392 . S
C1235 C1234 1.392 . S
C1235 C1236 1.400 . S
C1235 C1240 1.490 1_554 S
C1236 H1226 0.930 . S
C1236 C1235 1.400 . S
C1236 C1239 1.386 . S
H1237 C1253 0.930 . S
H1238 C1254 0.931 . S
C1239 H1227 0.929 . S
C1239 C1233 1.390 . S
C1239 C1236 1.386 . S
C1240 C1235 1.490 1_556 S
C1240 C1242 1.395 . S
C1240 C1243 1.403 1_556 S
H1241 C1247 0.930 . S
C1242 H1228 0.930 . S
C1242 C1240 1.395 . S
C1242 C1245 1.403 . S
C1243 C1240 1.403 1_554 S
C1243 C1244 1.524 . S
C1243 C1247 1.400 1_554 S
C1244 H1229 0.960 . S
C1244 H1230 0.960 . S
C1244 H1231 0.960 . S
C1244 C1243 1.524 . S
C1245 C1242 1.403 . S
C1245 C1246 1.392 . S
C1245 C1249 1.495 . S
C1246 C1245 1.392 . S
C1246 C1247 1.385 . S
C1246 C1248 1.478 . S
C1247 H1241 0.930 . S
C1247 C1243 1.400 1_556 S
C1247 C1246 1.385 . S
C1248 C1246 1.478 . S
C1248 C1250 1.381 . S
C1248 C1254 1.383 . S
C1249 C1245 1.495 . S
C1249 H1255 0.959 . S
C1249 H1256 0.961 . S
C1249 H1257 0.960 . S
C1250 C1248 1.381 . S
C1250 C1251 1.394 . S
C1250 H1258 0.930 . S
C1251 C1250 1.394 . S
C1251 C1252 1.383 . S
C1251 H1259 0.929 . S
C1252 C1251 1.383 . S
C1252 C1253 1.377 . S
C1253 H1237 0.930 . S
C1253 C1252 1.377 . S
C1253 C1254 1.379 . S
C1254 H1238 0.931 . S
C1254 C1248 1.383 . S
C1254 C1253 1.379 . S
H1255 C1249 0.959 . S
H1256 C1249 0.961 . S
H1257 C1249 0.960 . S
H1258 C1250 0.930 . S
H1259 C1251 0.929 . S
H1260 C1268 0.929 . S
H1261 C1270 0.930 . S
H1262 C1272 0.930 . S
H1263 C1275 0.929 . S
H1264 C1278 0.930 . S
H1265 C1280 0.960 . S
H1266 C1280 0.960 . S
H1267 C1280 0.960 . S
C1268 H1260 0.929 . S
C1268 C1269 1.377 . S
C1268 C1270 1.384 1_655 S
C1269 C1268 1.377 . S
C1269 C1275 1.390 . S
C1270 H1261 0.930 . S
C1270 C1268 1.384 1_455 S
C1270 C1271 1.372 . S
C1271 C1270 1.372 . S
C1271 C1272 1.400 . S
C1271 C1276 1.490 . S
C1272 H1262 0.930 . S
C1272 C1271 1.400 . S
C1272 C1275 1.386 1_455 S
H1273 C1289 0.930 . S
H1274 C1290 0.931 . S
C1275 H1263 0.929 . S
C1275 C1269 1.390 . S
C1275 C1272 1.386 1_655 S
C1276 C1271 1.490 . S
C1276 C1278 1.395 . S
C1276 C1279 1.403 . S
H1277 C1283 0.930 . S
C1278 H1264 0.930 . S
C1278 C1276 1.395 . S
C1278 C1281 1.403 . S
C1279 C1276 1.403 . S
C1279 C1280 1.524 . S
C1279 C1283 1.400 . S
C1280 H1265 0.960 . S
C1280 H1266 0.960 . S
C1280 H1267 0.960 . S
C1280 C1279 1.524 . S
C1281 C1278 1.403 . S
C1281 C1282 1.392 . S
C1281 C1285 1.495 . S
C1282 C1281 1.392 . S
C1282 C1283 1.385 . S
C1282 C1284 1.478 . S
C1283 H1277 0.930 . S
C1283 C1279 1.400 . S
C1283 C1282 1.385 . S
C1284 C1282 1.478 . S
C1284 C1286 1.381 . S
C1284 C1290 1.383 . S
C1285 C1281 1.495 . S
C1285 H1291 0.959 . S
C1285 H1292 0.961 . S
C1285 H1293 0.960 . S
C1286 C1284 1.381 . S
C1286 C1287 1.394 . S
C1286 H1294 0.930 . S
C1287 C1286 1.394 . S
C1287 C1288 1.383 . S
C1287 H1295 0.929 . S
C1288 C1287 1.383 . S
C1288 C1289 1.377 . S
C1289 H1273 0.930 . S
C1289 C1288 1.377 . S
C1289 C1290 1.379 . S
C1290 H1274 0.931 . S
C1290 C1284 1.383 . S
C1290 C1289 1.379 . S
H1291 C1285 0.959 . S
H1292 C1285 0.961 . S
H1293 C1285 0.960 . S
H1294 C1286 0.930 . S
H1295 C1287 0.929 . S
H1296 C1304 0.929 . S
H1297 C1306 0.930 . S
H1298 C1308 0.930 . S
H1299 C1311 0.929 . S
H1300 C1314 0.930 . S
H1301 C1316 0.960 . S
H1302 C1316 0.960 . S
H1303 C1316 0.960 . S
C1304 H1296 0.929 . S
C1304 C1305 1.377 . S
C1304 C1306 1.384 . S
C1305 C1304 1.377 . S
C1305 C1311 1.390 . S
C1306 H1297 0.930 . S
C1306 C1304 1.384 . S
C1306 C1307 1.372 . S
C1307 C1306 1.372 . S
C1307 C1308 1.400 . S
C1307 C1312 1.490 . S
C1308 H1298 0.930 . S
C1308 C1307 1.400 . S
C1308 C1311 1.386 . S
H1309 C1325 0.930 . S
H1310 C1326 0.931 . S
C1311 H1299 0.929 . S
C1311 C1305 1.390 . S
C1311 C1308 1.386 . S
C1312 C1307 1.490 . S
C1312 C1314 1.395 . S
C1312 C1315 1.403 . S
H1313 C1319 0.930 . S
C1314 H1300 0.930 . S
C1314 C1312 1.395 . S
C1314 C1317 1.403 . S
C1315 C1312 1.403 . S
C1315 C1316 1.524 . S
C1315 C1319 1.400 . S
C1316 H1301 0.960 . S
C1316 H1302 0.960 . S
C1316 H1303 0.960 . S
C1316 C1315 1.524 . S
C1317 C1314 1.403 . S
C1317 C1318 1.392 . S
C1317 C1321 1.495 . S
C1318 C1317 1.392 . S
C1318 C1319 1.385 . S
C1318 C1320 1.478 . S
C1319 H1313 0.930 . S
C1319 C1315 1.400 . S
C1319 C1318 1.385 . S
C1320 C1318 1.478 . S
C1320 C1322 1.381 . S
C1320 C1326 1.383 . S
C1321 C1317 1.495 . S
C1321 H1327 0.959 . S
C1321 H1328 0.961 . S
C1321 H1329 0.960 . S
C1322 C1320 1.381 . S
C1322 C1323 1.394 . S
C1322 H1330 0.930 . S
C1323 C1322 1.394 . S
C1323 C1324 1.383 . S
C1323 H1331 0.929 . S
C1324 C1323 1.383 . S
C1324 C1325 1.377 . S
C1325 H1309 0.930 . S
C1325 C1324 1.377 . S
C1325 C1326 1.379 . S
C1326 H1310 0.931 . S
C1326 C1320 1.383 . S
C1326 C1325 1.379 . S
H1327 C1321 0.959 . S
H1328 C1321 0.961 . S
H1329 C1321 0.960 . S
H1330 C1322 0.930 . S
H1331 C1323 0.929 . S
H1332 C1340 0.929 . S
H1333 C1342 0.930 . S
H1334 C1344 0.930 . S
H1335 C1347 0.929 . S
H1336 C1350 0.930 . S
H1337 C1352 0.960 . S
H1338 C1352 0.960 . S
H1339 C1352 0.960 . S
C1340 H1332 0.929 . S
C1340 C1341 1.377 . S
C1340 C1342 1.384 1_545 S
C1341 C1340 1.377 . S
C1341 C1347 1.390 . S
C1342 H1333 0.930 . S
C1342 C1340 1.384 1_565 S
C1342 C1343 1.372 . S
C1343 C1342 1.372 . S
C1343 C1344 1.400 . S
C1343 C1348 1.490 . S
C1344 H1334 0.930 . S
C1344 C1343 1.400 . S
C1344 C1347 1.386 1_565 S
H1345 C1361 0.930 . S
H1346 C1362 0.931 . S
C1347 H1335 0.929 . S
C1347 C1341 1.390 . S
C1347 C1344 1.386 1_545 S
C1348 C1343 1.490 . S
C1348 C1350 1.395 . S
C1348 C1351 1.403 . S
H1349 C1355 0.930 . S
C1350 H1336 0.930 . S
C1350 C1348 1.395 . S
C1350 C1353 1.403 . S
C1351 C1348 1.403 . S
C1351 C1352 1.524 . S
C1351 C1355 1.400 . S
C1352 H1337 0.960 . S
C1352 H1338 0.960 . S
C1352 H1339 0.960 . S
C1352 C1351 1.524 . S
C1353 C1350 1.403 . S
C1353 C1354 1.392 . S
C1353 C1357 1.495 . S
C1354 C1353 1.392 . S
C1354 C1355 1.385 . S
C1354 C1356 1.478 . S
C1355 H1349 0.930 . S
C1355 C1351 1.400 . S
C1355 C1354 1.385 . S
C1356 C1354 1.478 . S
C1356 C1358 1.381 . S
C1356 C1362 1.383 . S
C1357 C1353 1.495 . S
C1357 H1363 0.959 . S
C1357 H1364 0.961 . S
C1357 H1365 0.960 . S
C1358 C1356 1.381 . S
C1358 C1359 1.394 . S
C1358 H1366 0.930 . S
C1359 C1358 1.394 . S
C1359 C1360 1.383 . S
C1359 H1367 0.929 . S
C1360 C1359 1.383 . S
C1360 C1361 1.377 . S
C1361 H1345 0.930 . S
C1361 C1360 1.377 . S
C1361 C1362 1.379 . S
C1362 H1346 0.931 . S
C1362 C1356 1.383 . S
C1362 C1361 1.379 . S
H1363 C1357 0.959 . S
H1364 C1357 0.961 . S
H1365 C1357 0.960 . S
H1366 C1358 0.930 . S
H1367 C1359 0.929 . S
H1368 C1376 0.929 . S
H1369 C1378 0.930 1_554 S
H1370 C1380 0.930 . S
H1371 C1383 0.929 . S
H1372 C1386 0.930 . S
H1373 C1388 0.960 . S
H1374 C1388 0.960 . S
H1375 C1388 0.960 . S
C1376 H1368 0.929 . S
C1376 C1377 1.377 . S
C1376 C1378 1.384 . S
C1377 C1376 1.377 . S
C1377 C1383 1.390 . S
C1378 H1369 0.930 1_556 S
C1378 C1376 1.384 . S
C1378 C1379 1.372 . S
C1379 C1378 1.372 . S
C1379 C1380 1.400 . S
C1379 C1384 1.490 . S
C1380 H1370 0.930 . S
C1380 C1379 1.400 . S
C1380 C1383 1.386 . S
H1381 C1397 0.930 . S
H1382 C1398 0.931 . S
C1383 H1371 0.929 . S
C1383 C1377 1.390 . S
C1383 C1380 1.386 . S
C1384 C1379 1.490 . S
C1384 C1386 1.395 1_556 S
C1384 C1387 1.403 . S
H1385 C1391 0.929 1_556 S
C1386 H1372 0.930 . S
C1386 C1384 1.395 1_554 S
C1386 C1389 1.403 . S
C1387 C1384 1.403 . S
C1387 C1388 1.524 . S
C1387 C1391 1.397 1_556 S
C1388 H1373 0.960 . S
C1388 H1374 0.960 . S
C1388 H1375 0.960 . S
C1388 C1387 1.524 . S
C1389 C1386 1.403 . S
C1389 C1390 1.392 . S
C1389 C1393 1.495 . S
C1390 C1389 1.392 . S
C1390 C1391 1.390 . S
C1390 C1392 1.478 . S
C1391 H1385 0.929 1_554 S
C1391 C1387 1.397 1_554 S
C1391 C1390 1.390 . S
C1392 C1390 1.478 . S
C1392 C1394 1.381 . S
C1392 C1398 1.383 1_565 S
C1393 C1389 1.495 . S
C1393 H1399 0.959 . S
C1393 H1400 0.961 . S
C1393 H1401 0.960 . S
C1394 C1392 1.381 . S
C1394 C1395 1.394 1_565 S
C1394 H1402 0.930 . S
C1395 C1394 1.394 1_545 S
C1395 C1396 1.383 . S
C1395 H1403 0.929 . S
C1396 C1395 1.383 . S
C1396 C1397 1.377 . S
C1397 H1381 0.930 . S
C1397 C1396 1.377 . S
C1397 C1398 1.379 . S
C1398 H1382 0.931 . S
C1398 C1392 1.383 1_545 S
C1398 C1397 1.379 . S
H1399 C1393 0.959 . S
H1400 C1393 0.961 . S
H1401 C1393 0.960 . S
H1402 C1394 0.930 . S
H1403 C1395 0.929 . S
H1404 C1412 0.929 . S
H1405 C1414 0.930 . S
H1406 C1416 0.930 . S
H1407 C1419 0.929 . S
H1408 C1422 0.930 . S
H1409 C1424 0.960 . S
H1410 C1424 0.960 . S
H1411 C1424 0.960 . S
C1412 H1404 0.929 . S
C1412 C1413 1.377 . S
C1412 C1414 1.384 . S
C1413 C1412 1.377 . S
C1413 C1419 1.390 . S
C1414 H1405 0.930 . S
C1414 C1412 1.384 . S
C1414 C1415 1.372 . S
C1415 C1414 1.372 . S
C1415 C1416 1.400 . S
C1415 C1420 1.490 . S
C1416 H1406 0.930 . S
C1416 C1415 1.400 . S
C1416 C1419 1.386 . S
H1417 C1433 0.930 . S
H1418 C1434 0.935 1_455 S
C1419 H1407 0.929 . S
C1419 C1413 1.390 . S
C1419 C1416 1.386 . S
C1420 C1415 1.490 . S
C1420 C1422 1.395 1_556 S
C1420 C1423 1.403 . S
H1421 C1427 0.939 . S
C1422 H1408 0.930 . S
C1422 C1420 1.395 1_554 S
C1422 C1425 1.403 . S
C1423 C1420 1.403 . S
C1423 C1424 1.524 . S
C1423 C1427 1.413 . S
C1424 H1409 0.960 . S
C1424 H1410 0.960 . S
C1424 H1411 0.960 . S
C1424 C1423 1.524 . S
C1425 C1422 1.403 . S
C1425 C1426 1.392 . S
C1425 C1429 1.495 . S
C1426 C1425 1.392 . S
C1426 C1427 1.364 1_554 S
C1426 C1428 1.478 . S
C1427 H1421 0.939 . S
C1427 C1423 1.413 . S
C1427 C1426 1.364 1_556 S
C1428 C1426 1.478 . S
C1428 C1430 1.381 . S
C1428 C1434 1.369 1_455 S
C1429 C1425 1.495 . S
C1429 H1435 0.959 . S
C1429 H1436 0.961 . S
C1429 H1437 0.960 . S
C1430 C1428 1.381 . S
C1430 C1431 1.394 1_455 S
C1430 H1438 0.930 . S
C1431 C1430 1.394 1_655 S
C1431 C1432 1.383 . S
C1431 H1439 0.929 . S
C1432 C1431 1.383 . S
C1432 C1433 1.377 . S
C1433 H1417 0.930 . S
C1433 C1432 1.377 . S
C1433 C1434 1.389 . S
C1434 H1418 0.935 1_655 S
C1434 C1428 1.369 1_655 S
C1434 C1433 1.389 . S
H1435 C1429 0.959 . S
H1436 C1429 0.961 . S
H1437 C1429 0.960 . S
H1438 C1430 0.930 . S
H1439 C1431 0.929 . S
H1440 C1448 0.929 . S
H1441 C1450 0.930 . S
H1442 C1452 0.930 . S
H1443 C1455 0.929 . S
H1444 C1458 0.930 . S
H1445 C1460 0.960 . S
H1446 C1460 0.960 . S
H1447 C1460 0.960 . S
C1448 H1440 0.929 . S
C1448 C1449 1.377 . S
C1448 C1450 1.384 . S
C1449 C1448 1.377 . S
C1449 C1455 1.390 . S
C1450 H1441 0.930 . S
C1450 C1448 1.384 . S
C1450 C1451 1.372 . S
C1451 C1450 1.372 . S
C1451 C1452 1.400 . S
C1451 C1456 1.490 . S
C1452 H1442 0.930 . S
C1452 C1451 1.400 . S
C1452 C1455 1.386 . S
H1453 C1469 0.930 . S
H1454 C1470 0.931 . S
C1455 H1443 0.929 . S
C1455 C1449 1.390 . S
C1455 C1452 1.386 . S
C1456 C1451 1.490 . S
C1456 C1458 1.395 1_556 S
C1456 C1459 1.403 . S
H1457 C1463 0.930 . S
C1458 H1444 0.930 . S
C1458 C1456 1.395 1_554 S
C1458 C1461 1.403 . S
C1459 C1456 1.403 . S
C1459 C1460 1.524 . S
C1459 C1463 1.400 . S
C1460 H1445 0.960 . S
C1460 H1446 0.960 . S
C1460 H1447 0.960 . S
C1460 C1459 1.524 . S
C1461 C1458 1.403 . S
C1461 C1462 1.392 . S
C1461 C1465 1.495 . S
C1462 C1461 1.392 . S
C1462 C1463 1.385 1_554 S
C1462 C1464 1.478 . S
C1463 H1457 0.930 . S
C1463 C1459 1.400 . S
C1463 C1462 1.385 1_556 S
C1464 C1462 1.478 . S
C1464 C1466 1.381 . S
C1464 C1470 1.383 . S
C1465 C1461 1.495 . S
C1465 H1471 0.959 . S
C1465 H1472 0.961 . S
C1465 H1473 0.960 . S
C1466 C1464 1.381 . S
C1466 C1467 1.394 . S
C1466 H1474 0.930 . S
C1467 C1466 1.394 . S
C1467 C1468 1.383 . S
C1467 H1475 0.929 . S
C1468 C1467 1.383 . S
C1468 C1469 1.377 . S
C1469 H1453 0.930 . S
C1469 C1468 1.377 . S
C1469 C1470 1.379 . S
C1470 H1454 0.931 . S
C1470 C1464 1.383 . S
C1470 C1469 1.379 . S
H1471 C1465 0.959 . S
H1472 C1465 0.961 . S
H1473 C1465 0.960 . S
H1474 C1466 0.930 . S
H1475 C1467 0.929 . S
H1476 C1484 0.929 . S
H1477 C1486 0.930 . S
H1478 C1488 0.930 . S
H1479 C1491 0.929 . S
H1480 C1494 0.930 . S
H1481 C1496 0.960 . S
H1482 C1496 0.960 . S
H1483 C1496 0.960 . S
C1484 H1476 0.929 . S
C1484 C1485 1.377 . S
C1484 C1486 1.384 . S
C1485 C1484 1.377 . S
C1485 C1491 1.390 . S
C1486 H1477 0.930 . S
C1486 C1484 1.384 . S
C1486 C1487 1.372 . S
C1487 C1486 1.372 . S
C1487 C1488 1.400 . S
C1487 C1492 1.490 . S
C1488 H1478 0.930 . S
C1488 C1487 1.400 . S
C1488 C1491 1.386 . S
H1489 C1505 0.930 . S
H1490 C1506 0.931 . S
C1491 H1479 0.929 . S
C1491 C1485 1.390 . S
C1491 C1488 1.386 . S
C1492 C1487 1.490 . S
C1492 C1494 1.395 . S
C1492 C1495 1.403 . S
H1493 C1499 0.930 . S
C1494 H1480 0.930 . S
C1494 C1492 1.395 . S
C1494 C1497 1.403 . S
C1495 C1492 1.403 . S
C1495 C1496 1.524 . S
C1495 C1499 1.400 . S
C1496 H1481 0.960 . S
C1496 H1482 0.960 . S
C1496 H1483 0.960 . S
C1496 C1495 1.524 . S
C1497 C1494 1.403 . S
C1497 C1498 1.392 . S
C1497 C1501 1.495 . S
C1498 C1497 1.392 . S
C1498 C1499 1.385 . S
C1498 C1500 1.478 . S
C1499 H1493 0.930 . S
C1499 C1495 1.400 . S
C1499 C1498 1.385 . S
C1500 C1498 1.478 . S
C1500 C1502 1.381 . S
C1500 C1506 1.383 1_655 S
C1501 C1497 1.495 . S
C1501 H1507 0.959 . S
C1501 H1508 0.961 . S
C1501 H1509 0.960 . S
C1502 C1500 1.381 . S
C1502 C1503 1.394 1_655 S
C1502 H1510 0.930 . S
C1503 C1502 1.394 1_455 S
C1503 C1504 1.383 . S
C1503 H1511 0.929 . S
C1504 C1503 1.383 . S
C1504 C1505 1.377 . S
C1505 H1489 0.930 . S
C1505 C1504 1.377 . S
C1505 C1506 1.379 . S
C1506 H1490 0.931 . S
C1506 C1500 1.383 1_455 S
C1506 C1505 1.379 . S
H1507 C1501 0.959 . S
H1508 C1501 0.961 . S
H1509 C1501 0.960 . S
H1510 C1502 0.930 . S
H1511 C1503 0.929 . S
H1512 C1520 0.929 . S
H1513 C1522 0.930 . S
H1514 C1524 0.930 . S
H1515 C1527 0.929 . S
H1516 C1530 0.930 . S
H1517 C1532 0.960 . S
H1518 C1532 0.960 . S
H1519 C1532 0.960 . S
C1520 H1512 0.929 . S
C1520 C1521 1.377 . S
C1520 C1522 1.384 . S
C1521 C1520 1.377 . S
C1521 C1527 1.390 . S
C1522 H1513 0.930 . S
C1522 C1520 1.384 . S
C1522 C1523 1.372 . S
C1523 C1522 1.372 . S
C1523 C1524 1.400 . S
C1523 C1528 1.490 . S
C1524 H1514 0.930 . S
C1524 C1523 1.400 . S
C1524 C1527 1.386 . S
H1525 C1541 0.930 . S
H1526 C1542 0.931 . S
C1527 H1515 0.929 . S
C1527 C1521 1.390 . S
C1527 C1524 1.386 . S
C1528 C1523 1.490 . S
C1528 C1530 1.395 . S
C1528 C1531 1.403 . S
H1529 C1535 0.930 . S
C1530 H1516 0.930 . S
C1530 C1528 1.395 . S
C1530 C1533 1.403 . S
C1531 C1528 1.403 . S
C1531 C1532 1.524 . S
C1531 C1535 1.400 . S
C1532 H1517 0.960 . S
C1532 H1518 0.960 . S
C1532 H1519 0.960 . S
C1532 C1531 1.524 . S
C1533 C1530 1.403 . S
C1533 C1534 1.392 . S
C1533 C1537 1.495 . S
C1534 C1533 1.392 . S
C1534 C1535 1.385 . S
C1534 C1536 1.478 . S
C1535 H1529 0.930 . S
C1535 C1531 1.400 . S
C1535 C1534 1.385 . S
C1536 C1534 1.478 . S
C1536 C1538 1.381 . S
C1536 C1542 1.383 . S
C1537 C1533 1.495 . S
C1537 H1543 0.959 . S
C1537 H1544 0.961 . S
C1537 H1545 0.960 . S
C1538 C1536 1.381 . S
C1538 C1539 1.394 . S
C1538 H1546 0.930 . S
C1539 C1538 1.394 . S
C1539 C1540 1.383 . S
C1539 H1547 0.929 . S
C1540 C1539 1.383 . S
C1540 C1541 1.377 . S
C1541 H1525 0.930 . S
C1541 C1540 1.377 . S
C1541 C1542 1.379 . S
C1542 H1526 0.931 . S
C1542 C1536 1.383 . S
C1542 C1541 1.379 . S
H1543 C1537 0.959 . S
H1544 C1537 0.961 . S
H1545 C1537 0.960 . S
H1546 C1538 0.930 . S
H1547 C1539 0.929 . S
H1548 C1556 0.929 . S
H1549 C1558 0.930 . S
H1550 C1560 0.930 . S
H1551 C1563 0.929 . S
H1552 C1566 0.930 . S
H1553 C1568 0.960 . S
H1554 C1568 0.960 . S
H1555 C1568 0.960 . S
C1556 H1548 0.929 . S
C1556 C1557 1.377 . S
C1556 C1558 1.384 1_565 S
C1557 C1556 1.377 . S
C1557 C1563 1.390 . S
C1558 H1549 0.930 . S
C1558 C1556 1.384 1_545 S
C1558 C1559 1.372 . S
C1559 C1558 1.372 . S
C1559 C1560 1.400 . S
C1559 C1564 1.490 . S
C1560 H1550 0.930 . S
C1560 C1559 1.400 . S
C1560 C1563 1.386 1_545 S
H1561 C1577 0.930 . S
H1562 C1578 0.931 . S
C1563 H1551 0.929 . S
C1563 C1557 1.390 . S
C1563 C1560 1.386 1_565 S
C1564 C1559 1.490 . S
C1564 C1566 1.395 . S
C1564 C1567 1.403 . S
H1565 C1571 0.930 . S
C1566 H1552 0.930 . S
C1566 C1564 1.395 . S
C1566 C1569 1.403 . S
C1567 C1564 1.403 . S
C1567 C1568 1.524 . S
C1567 C1571 1.400 . S
C1568 H1553 0.960 . S
C1568 H1554 0.960 . S
C1568 H1555 0.960 . S
C1568 C1567 1.524 . S
C1569 C1566 1.403 . S
C1569 C1570 1.392 . S
C1569 C1573 1.495 . S
C1570 C1569 1.392 . S
C1570 C1571 1.385 . S
C1570 C1572 1.478 . S
C1571 H1565 0.930 . S
C1571 C1567 1.400 . S
C1571 C1570 1.385 . S
C1572 C1570 1.478 . S
C1572 C1574 1.381 . S
C1572 C1578 1.383 . S
C1573 C1569 1.495 . S
C1573 H1579 0.959 . S
C1573 H1580 0.961 . S
C1573 H1581 0.960 . S
C1574 C1572 1.381 . S
C1574 C1575 1.394 . S
C1574 H1582 0.930 . S
C1575 C1574 1.394 . S
C1575 C1576 1.383 . S
C1575 H1583 0.929 . S
C1576 C1575 1.383 . S
C1576 C1577 1.377 . S
C1577 H1561 0.930 . S
C1577 C1576 1.377 . S
C1577 C1578 1.379 . S
C1578 H1562 0.931 . S
C1578 C1572 1.383 . S
C1578 C1577 1.379 . S
H1579 C1573 0.959 . S
H1580 C1573 0.961 . S
H1581 C1573 0.960 . S
H1582 C1574 0.930 . S
H1583 C1575 0.929 . S
H1584 C1592 0.929 . S
H1585 C1594 0.930 . S
H1586 C1596 0.930 . S
H1587 C1599 0.929 . S
H1588 C1602 0.930 . S
H1589 C1604 0.960 . S
H1590 C1604 0.960 . S
H1591 C1604 0.960 . S
C1592 H1584 0.929 . S
C1592 C1593 1.377 . S
C1592 C1594 1.384 . S
C1593 C1592 1.377 . S
C1593 C1599 1.390 . S
C1594 H1585 0.930 . S
C1594 C1592 1.384 . S
C1594 C1595 1.372 . S
C1595 C1594 1.372 . S
C1595 C1596 1.400 . S
C1595 C1600 1.490 . S
C1596 H1586 0.930 . S
C1596 C1595 1.400 . S
C1596 C1599 1.386 . S
H1597 C1613 0.930 . S
H1598 C1614 0.931 . S
C1599 H1587 0.929 . S
C1599 C1593 1.390 . S
C1599 C1596 1.386 . S
C1600 C1595 1.490 . S
C1600 C1602 1.395 . S
C1600 C1603 1.403 . S
H1601 C1607 0.930 . S
C1602 H1588 0.930 . S
C1602 C1600 1.395 . S
C1602 C1605 1.403 . S
C1603 C1600 1.403 . S
C1603 C1604 1.524 . S
C1603 C1607 1.400 . S
C1604 H1589 0.960 . S
C1604 H1590 0.960 . S
C1604 H1591 0.960 . S
C1604 C1603 1.524 . S
C1605 C1602 1.403 . S
C1605 C1606 1.392 . S
C1605 C1609 1.495 . S
C1606 C1605 1.392 . S
C1606 C1607 1.385 . S
C1606 C1608 1.478 . S
C1607 H1601 0.930 . S
C1607 C1603 1.400 . S
C1607 C1606 1.385 . S
C1608 C1606 1.478 . S
C1608 C1610 1.381 . S
C1608 C1614 1.383 . S
C1609 C1605 1.495 . S
C1609 H1615 0.959 . S
C1609 H1616 0.961 . S
C1609 H1617 0.960 . S
C1610 C1608 1.381 . S
C1610 C1611 1.394 . S
C1610 H1618 0.930 . S
C1611 C1610 1.394 . S
C1611 C1612 1.383 . S
C1611 H1619 0.929 . S
C1612 C1611 1.383 . S
C1612 C1613 1.377 . S
C1613 H1597 0.930 . S
C1613 C1612 1.377 . S
C1613 C1614 1.379 . S
C1614 H1598 0.931 . S
C1614 C1608 1.383 . S
C1614 C1613 1.379 . S
H1615 C1609 0.959 . S
H1616 C1609 0.961 . S
H1617 C1609 0.960 . S
H1618 C1610 0.930 . S
H1619 C1611 0.929 . S
H1620 C1628 0.929 . S
H1621 C1630 0.930 . S
H1622 C1632 0.930 . S
H1623 C1635 0.929 . S
H1624 C1638 0.930 . S
H1625 C1640 0.960 . S
H1626 C1640 0.960 . S
H1627 C1640 0.960 . S
C1628 H1620 0.929 . S
C1628 C1629 1.377 . S
C1628 C1630 1.384 . S
C1629 C1628 1.377 . S
C1629 C1635 1.390 . S
C1630 H1621 0.930 . S
C1630 C1628 1.384 . S
C1630 C1631 1.372 . S
C1631 C1630 1.372 . S
C1631 C1632 1.400 . S
C1631 C1636 1.490 . S
C1632 H1622 0.930 . S
C1632 C1631 1.400 . S
C1632 C1635 1.386 . S
H1633 C1649 0.930 . S
H1634 C1650 0.931 . S
C1635 H1623 0.929 . S
C1635 C1629 1.390 . S
C1635 C1632 1.386 . S
C1636 C1631 1.490 . S
C1636 C1638 1.395 . S
C1636 C1639 1.403 . S
H1637 C1643 0.930 . S
C1638 H1624 0.930 . S
C1638 C1636 1.395 . S
C1638 C1641 1.403 . S
C1639 C1636 1.403 . S
C1639 C1640 1.524 . S
C1639 C1643 1.400 . S
C1640 H1625 0.960 . S
C1640 H1626 0.960 . S
C1640 H1627 0.960 . S
C1640 C1639 1.524 . S
C1641 C1638 1.403 . S
C1641 C1642 1.392 . S
C1641 C1645 1.495 . S
C1642 C1641 1.392 . S
C1642 C1643 1.385 . S
C1642 C1644 1.478 . S
C1643 H1637 0.930 . S
C1643 C1639 1.400 . S
C1643 C1642 1.385 . S
C1644 C1642 1.478 . S
C1644 C1646 1.381 . S
C1644 C1650 1.383 . S
C1645 C1641 1.495 . S
C1645 H1651 0.959 . S
C1645 H1652 0.961 . S
C1645 H1653 0.960 . S
C1646 C1644 1.381 . S
C1646 C1647 1.394 . S
C1646 H1654 0.930 . S
C1647 C1646 1.394 . S
C1647 C1648 1.383 . S
C1647 H1655 0.929 . S
C1648 C1647 1.383 . S
C1648 C1649 1.377 . S
C1649 H1633 0.930 . S
C1649 C1648 1.377 . S
C1649 C1650 1.379 . S
C1650 H1634 0.931 . S
C1650 C1644 1.383 . S
C1650 C1649 1.379 . S
H1651 C1645 0.959 . S
H1652 C1645 0.961 . S
H1653 C1645 0.960 . S
H1654 C1646 0.930 . S
H1655 C1647 0.929 . S
H1656 C1664 0.929 . S
H1657 C1666 0.930 . S
H1658 C1668 0.930 . S
H1659 C1671 0.929 . S
H1660 C1674 0.930 . S
H1661 C1676 0.960 . S
H1662 C1676 0.960 . S
H1663 C1676 0.960 . S
C1664 H1656 0.929 . S
C1664 C1665 1.377 . S
C1664 C1666 1.384 . S
C1665 C1664 1.377 . S
C1665 C1671 1.390 . S
C1666 H1657 0.930 . S
C1666 C1664 1.384 . S
C1666 C1667 1.372 . S
C1667 C1666 1.372 . S
C1667 C1668 1.400 . S
C1667 C1672 1.490 . S
C1668 H1658 0.930 . S
C1668 C1667 1.400 . S
C1668 C1671 1.386 . S
H1669 C1685 0.930 . S
H1670 C1686 0.931 . S
C1671 H1659 0.929 . S
C1671 C1665 1.390 . S
C1671 C1668 1.386 . S
C1672 C1667 1.490 . S
C1672 C1674 1.395 . S
C1672 C1675 1.403 . S
H1673 C1679 0.930 . S
C1674 H1660 0.930 . S
C1674 C1672 1.395 . S
C1674 C1677 1.403 . S
C1675 C1672 1.403 . S
C1675 C1676 1.524 . S
C1675 C1679 1.400 . S
C1676 H1661 0.960 . S
C1676 H1662 0.960 . S
C1676 H1663 0.960 . S
C1676 C1675 1.524 . S
C1677 C1674 1.403 . S
C1677 C1678 1.392 . S
C1677 C1681 1.495 . S
C1678 C1677 1.392 . S
C1678 C1679 1.385 . S
C1678 C1680 1.478 . S
C1679 H1673 0.930 . S
C1679 C1675 1.400 . S
C1679 C1678 1.385 . S
C1680 C1678 1.478 . S
C1680 C1682 1.381 . S
C1680 C1686 1.383 . S
C1681 C1677 1.495 . S
C1681 H1687 0.959 . S
C1681 H1688 0.961 . S
C1681 H1689 0.960 . S
C1682 C1680 1.381 . S
C1682 C1683 1.394 . S
C1682 H1690 0.930 . S
C1683 C1682 1.394 . S
C1683 C1684 1.383 . S
C1683 H1691 0.929 . S
C1684 C1683 1.383 . S
C1684 C1685 1.377 . S
C1685 H1669 0.930 . S
C1685 C1684 1.377 . S
C1685 C1686 1.379 . S
C1686 H1670 0.931 . S
C1686 C1680 1.383 . S
C1686 C1685 1.379 . S
H1687 C1681 0.959 . S
H1688 C1681 0.961 . S
H1689 C1681 0.960 . S
H1690 C1682 0.930 . S
H1691 C1683 0.929 . S
H1692 C1700 0.929 . S
H1693 C1702 0.930 . S
H1694 C1704 0.930 . S
H1695 C1707 0.929 . S
H1696 C1710 0.930 . S
H1697 C1712 0.960 . S
H1698 C1712 0.960 . S
H1699 C1712 0.960 . S
C1700 H1692 0.929 . S
C1700 C1701 1.377 . S
C1700 C1702 1.384 . S
C1701 C1700 1.377 . S
C1701 C1707 1.390 . S
C1702 H1693 0.930 . S
C1702 C1700 1.384 . S
C1702 C1703 1.372 . S
C1703 C1702 1.372 . S
C1703 C1704 1.400 . S
C1703 C1708 1.490 . S
C1704 H1694 0.930 . S
C1704 C1703 1.400 . S
C1704 C1707 1.386 . S
H1705 C1721 0.930 . S
H1706 C1722 0.931 . S
C1707 H1695 0.929 . S
C1707 C1701 1.390 . S
C1707 C1704 1.386 . S
C1708 C1703 1.490 . S
C1708 C1710 1.395 . S
C1708 C1711 1.403 . S
H1709 C1715 0.930 . S
C1710 H1696 0.930 . S
C1710 C1708 1.395 . S
C1710 C1713 1.403 . S
C1711 C1708 1.403 . S
C1711 C1712 1.524 . S
C1711 C1715 1.400 . S
C1712 H1697 0.960 . S
C1712 H1698 0.960 . S
C1712 H1699 0.960 . S
C1712 C1711 1.524 . S
C1713 C1710 1.403 . S
C1713 C1714 1.392 . S
C1713 C1717 1.495 . S
C1714 C1713 1.392 . S
C1714 C1715 1.385 . S
C1714 C1716 1.478 . S
C1715 H1709 0.930 . S
C1715 C1711 1.400 . S
C1715 C1714 1.385 . S
C1716 C1714 1.478 . S
C1716 C1718 1.381 . S
C1716 C1722 1.383 . S
C1717 C1713 1.495 . S
C1717 H1723 0.959 . S
C1717 H1724 0.961 . S
C1717 H1725 0.960 . S
C1718 C1716 1.381 . S
C1718 C1719 1.394 . S
C1718 H1726 0.930 . S
C1719 C1718 1.394 . S
C1719 C1720 1.383 . S
C1719 H1727 0.929 . S
C1720 C1719 1.383 . S
C1720 C1721 1.377 . S
C1721 H1705 0.930 . S
C1721 C1720 1.377 . S
C1721 C1722 1.379 . S
C1722 H1706 0.931 . S
C1722 C1716 1.383 . S
C1722 C1721 1.379 . S
H1723 C1717 0.959 . S
H1724 C1717 0.961 . S
H1725 C1717 0.960 . S
H1726 C1718 0.930 . S
H1727 C1719 0.929 . S
H1728 C1736 0.929 . S
H1729 C1738 0.930 . S
H1730 C1740 0.930 . S
H1731 C1743 0.929 . S
H1732 C1746 0.930 . S
H1733 C1748 0.960 . S
H1734 C1748 0.960 . S
H1735 C1748 0.960 . S
C1736 H1728 0.929 . S
C1736 C1737 1.377 . S
C1736 C1738 1.384 . S
C1737 C1736 1.377 . S
C1737 C1743 1.390 . S
C1738 H1729 0.930 . S
C1738 C1736 1.384 . S
C1738 C1739 1.372 . S
C1739 C1738 1.372 . S
C1739 C1740 1.400 . S
C1739 C1744 1.490 . S
C1740 H1730 0.930 . S
C1740 C1739 1.400 . S
C1740 C1743 1.386 . S
H1741 C1757 0.930 . S
H1742 C1758 0.931 . S
C1743 H1731 0.929 . S
C1743 C1737 1.390 . S
C1743 C1740 1.386 . S
C1744 C1739 1.490 . S
C1744 C1746 1.395 . S
C1744 C1747 1.403 . S
H1745 C1751 0.930 . S
C1746 H1732 0.930 . S
C1746 C1744 1.395 . S
C1746 C1749 1.403 . S
C1747 C1744 1.403 . S
C1747 C1748 1.524 . S
C1747 C1751 1.400 . S
C1748 H1733 0.960 . S
C1748 H1734 0.960 . S
C1748 H1735 0.960 . S
C1748 C1747 1.524 . S
C1749 C1746 1.403 . S
C1749 C1750 1.392 . S
C1749 C1753 1.495 . S
C1750 C1749 1.392 . S
C1750 C1751 1.385 . S
C1750 C1752 1.478 . S
C1751 H1745 0.930 . S
C1751 C1747 1.400 . S
C1751 C1750 1.385 . S
C1752 C1750 1.478 . S
C1752 C1754 1.381 . S
C1752 C1758 1.383 . S
C1753 C1749 1.495 . S
C1753 H1759 0.959 . S
C1753 H1760 0.961 . S
C1753 H1761 0.960 . S
C1754 C1752 1.381 . S
C1754 C1755 1.394 . S
C1754 H1762 0.930 . S
C1755 C1754 1.394 . S
C1755 C1756 1.383 . S
C1755 H1763 0.929 . S
C1756 C1755 1.383 . S
C1756 C1757 1.377 . S
C1757 H1741 0.930 . S
C1757 C1756 1.377 . S
C1757 C1758 1.379 . S
C1758 H1742 0.931 . S
C1758 C1752 1.383 . S
C1758 C1757 1.379 . S
H1759 C1753 0.959 . S
H1760 C1753 0.961 . S
H1761 C1753 0.960 . S
H1762 C1754 0.930 . S
H1763 C1755 0.929 . S
H1764 C1772 0.929 . S
H1765 C1774 0.930 . S
H1766 C1776 0.930 . S
H1767 C1779 0.929 . S
H1768 C1782 0.930 . S
H1769 C1784 0.960 . S
H1770 C1784 0.960 . S
H1771 C1784 0.960 . S
C1772 H1764 0.929 . S
C1772 C1773 1.377 . S
C1772 C1774 1.384 . S
C1773 C1772 1.377 . S
C1773 C1779 1.390 . S
C1774 H1765 0.930 . S
C1774 C1772 1.384 . S
C1774 C1775 1.372 . S
C1775 C1774 1.372 . S
C1775 C1776 1.400 . S
C1775 C1780 1.490 . S
C1776 H1766 0.930 . S
C1776 C1775 1.400 . S
C1776 C1779 1.386 . S
H1777 C1793 0.930 . S
H1778 C1794 0.931 . S
C1779 H1767 0.929 . S
C1779 C1773 1.390 . S
C1779 C1776 1.386 . S
C1780 C1775 1.490 . S
C1780 C1782 1.395 . S
C1780 C1783 1.403 . S
H1781 C1787 0.930 . S
C1782 H1768 0.930 . S
C1782 C1780 1.395 . S
C1782 C1785 1.403 . S
C1783 C1780 1.403 . S
C1783 C1784 1.524 . S
C1783 C1787 1.400 . S
C1784 H1769 0.960 . S
C1784 H1770 0.960 . S
C1784 H1771 0.960 . S
C1784 C1783 1.524 . S
C1785 C1782 1.403 . S
C1785 C1786 1.392 . S
C1785 C1789 1.495 . S
C1786 C1785 1.392 . S
C1786 C1787 1.385 . S
C1786 C1788 1.478 . S
C1787 H1781 0.930 . S
C1787 C1783 1.400 . S
C1787 C1786 1.385 . S
C1788 C1786 1.478 . S
C1788 C1790 1.381 . S
C1788 C1794 1.383 . S
C1789 C1785 1.495 . S
C1789 H1795 0.959 . S
C1789 H1796 0.961 . S
C1789 H1797 0.960 . S
C1790 C1788 1.381 . S
C1790 C1791 1.394 . S
C1790 H1798 0.930 . S
C1791 C1790 1.394 . S
C1791 C1792 1.383 . S
C1791 H1799 0.929 . S
C1792 C1791 1.383 . S
C1792 C1793 1.377 . S
C1793 H1777 0.930 . S
C1793 C1792 1.377 . S
C1793 C1794 1.379 . S
C1794 H1778 0.931 . S
C1794 C1788 1.383 . S
C1794 C1793 1.379 . S
H1795 C1789 0.959 . S
H1796 C1789 0.961 . S
H1797 C1789 0.960 . S
H1798 C1790 0.930 . S
H1799 C1791 0.929 . S
H1800 C1808 0.929 . S
H1801 C1810 0.930 . S
H1802 C1812 0.930 . S
H1803 C1815 0.929 . S
H1804 C1818 0.930 . S
H1805 C1820 0.960 . S
H1806 C1820 0.960 . S
H1807 C1820 0.960 . S
C1808 H1800 0.929 . S
C1808 C1809 1.377 . S
C1808 C1810 1.384 . S
C1809 C1808 1.377 . S
C1809 C1815 1.390 . S
C1810 H1801 0.930 . S
C1810 C1808 1.384 . S
C1810 C1811 1.372 . S
C1811 C1810 1.372 . S
C1811 C1812 1.400 . S
C1811 C1816 1.490 . S
C1812 H1802 0.930 . S
C1812 C1811 1.400 . S
C1812 C1815 1.386 . S
H1813 C1829 0.930 . S
H1814 C1830 0.931 . S
C1815 H1803 0.929 . S
C1815 C1809 1.390 . S
C1815 C1812 1.386 . S
C1816 C1811 1.490 . S
C1816 C1818 1.395 . S
C1816 C1819 1.403 . S
H1817 C1823 0.930 . S
C1818 H1804 0.930 . S
C1818 C1816 1.395 . S
C1818 C1821 1.403 . S
C1819 C1816 1.403 . S
C1819 C1820 1.524 . S
C1819 C1823 1.400 . S
C1820 H1805 0.960 . S
C1820 H1806 0.960 . S
C1820 H1807 0.960 . S
C1820 C1819 1.524 . S
C1821 C1818 1.403 . S
C1821 C1822 1.392 . S
C1821 C1825 1.495 . S
C1822 C1821 1.392 . S
C1822 C1823 1.385 . S
C1822 C1824 1.478 . S
C1823 H1817 0.930 . S
C1823 C1819 1.400 . S
C1823 C1822 1.385 . S
C1824 C1822 1.478 . S
C1824 C1826 1.381 . S
C1824 C1830 1.383 . S
C1825 C1821 1.495 . S
C1825 H1831 0.959 . S
C1825 H1832 0.961 . S
C1825 H1833 0.960 . S
C1826 C1824 1.381 . S
C1826 C1827 1.394 . S
C1826 H1834 0.930 . S
C1827 C1826 1.394 . S
C1827 C1828 1.383 . S
C1827 H1835 0.929 . S
C1828 C1827 1.383 . S
C1828 C1829 1.377 . S
C1829 H1813 0.930 . S
C1829 C1828 1.377 . S
C1829 C1830 1.379 . S
C1830 H1814 0.931 . S
C1830 C1824 1.383 . S
C1830 C1829 1.379 . S
H1831 C1825 0.959 . S
H1832 C1825 0.961 . S
H1833 C1825 0.960 . S
H1834 C1826 0.930 . S
H1835 C1827 0.929 . S
H1836 C1844 0.929 . S
H1837 C1846 0.930 . S
H1838 C1848 0.930 . S
H1839 C1851 0.929 . S
H1840 C1854 0.930 . S
H1841 C1856 0.960 . S
H1842 C1856 0.960 . S
H1843 C1856 0.960 . S
C1844 H1836 0.929 . S
C1844 C1845 1.377 . S
C1844 C1846 1.384 . S
C1845 C1844 1.377 . S
C1845 C1851 1.390 . S
C1846 H1837 0.930 . S
C1846 C1844 1.384 . S
C1846 C1847 1.372 . S
C1847 C1846 1.372 . S
C1847 C1848 1.400 . S
C1847 C1852 1.490 . S
C1848 H1838 0.930 . S
C1848 C1847 1.400 . S
C1848 C1851 1.386 . S
H1849 C1865 0.930 . S
H1850 C1866 0.931 . S
C1851 H1839 0.929 . S
C1851 C1845 1.390 . S
C1851 C1848 1.386 . S
C1852 C1847 1.490 . S
C1852 C1854 1.395 . S
C1852 C1855 1.403 . S
H1853 C1859 0.930 . S
C1854 H1840 0.930 . S
C1854 C1852 1.395 . S
C1854 C1857 1.403 . S
C1855 C1852 1.403 . S
C1855 C1856 1.524 . S
C1855 C1859 1.400 . S
C1856 H1841 0.960 . S
C1856 H1842 0.960 . S
C1856 H1843 0.960 . S
C1856 C1855 1.524 . S
C1857 C1854 1.403 . S
C1857 C1858 1.392 . S
C1857 C1861 1.495 . S
C1858 C1857 1.392 . S
C1858 C1859 1.385 . S
C1858 C1860 1.478 . S
C1859 H1853 0.930 . S
C1859 C1855 1.400 . S
C1859 C1858 1.385 . S
C1860 C1858 1.478 . S
C1860 C1862 1.381 . S
C1860 C1866 1.383 . S
C1861 C1857 1.495 . S
C1861 H1867 0.959 . S
C1861 H1868 0.961 . S
C1861 H1869 0.960 . S
C1862 C1860 1.381 . S
C1862 C1863 1.394 . S
C1862 H1870 0.930 . S
C1863 C1862 1.394 . S
C1863 C1864 1.383 . S
C1863 H1871 0.929 . S
C1864 C1863 1.383 . S
C1864 C1865 1.377 . S
C1865 H1849 0.930 . S
C1865 C1864 1.377 . S
C1865 C1866 1.379 . S
C1866 H1850 0.931 . S
C1866 C1860 1.383 . S
C1866 C1865 1.379 . S
H1867 C1861 0.959 . S
H1868 C1861 0.961 . S
H1869 C1861 0.960 . S
H1870 C1862 0.930 . S
H1871 C1863 0.929 . S
H1872 C1880 0.929 . S
H1873 C1882 0.930 . S
H1874 C1884 0.930 . S
H1875 C1887 0.929 . S
H1876 C1890 0.930 . S
H1877 C1892 0.960 . S
H1878 C1892 0.960 . S
H1879 C1892 0.960 . S
C1880 H1872 0.929 . S
C1880 C1881 1.377 . S
C1880 C1882 1.384 . S
C1881 C1880 1.377 . S
C1881 C1887 1.390 . S
C1882 H1873 0.930 . S
C1882 C1880 1.384 . S
C1882 C1883 1.372 . S
C1883 C1882 1.372 . S
C1883 C1884 1.400 . S
C1883 C1888 1.490 . S
C1884 H1874 0.930 . S
C1884 C1883 1.400 . S
C1884 C1887 1.386 . S
H1885 C1901 0.930 . S
H1886 C1902 0.931 . S
C1887 H1875 0.929 . S
C1887 C1881 1.390 . S
C1887 C1884 1.386 . S
C1888 C1883 1.490 . S
C1888 C1890 1.395 . S
C1888 C1891 1.403 . S
H1889 C1895 0.930 . S
C1890 H1876 0.930 . S
C1890 C1888 1.395 . S
C1890 C1893 1.403 . S
C1891 C1888 1.403 . S
C1891 C1892 1.524 . S
C1891 C1895 1.400 . S
C1892 H1877 0.960 . S
C1892 H1878 0.960 . S
C1892 H1879 0.960 . S
C1892 C1891 1.524 . S
C1893 C1890 1.403 . S
C1893 C1894 1.392 . S
C1893 C1897 1.495 . S
C1894 C1893 1.392 . S
C1894 C1895 1.385 . S
C1894 C1896 1.478 . S
C1895 H1889 0.930 . S
C1895 C1891 1.400 . S
C1895 C1894 1.385 . S
C1896 C1894 1.478 . S
C1896 C1898 1.381 . S
C1896 C1902 1.383 . S
C1897 C1893 1.495 . S
C1897 H1903 0.959 . S
C1897 H1904 0.961 . S
C1897 H1905 0.960 . S
C1898 C1896 1.381 . S
C1898 C1899 1.394 . S
C1898 H1906 0.930 . S
C1899 C1898 1.394 . S
C1899 C1900 1.383 . S
C1899 H1907 0.929 . S
C1900 C1899 1.383 . S
C1900 C1901 1.377 . S
C1901 H1885 0.930 . S
C1901 C1900 1.377 . S
C1901 C1902 1.379 . S
C1902 H1886 0.931 . S
C1902 C1896 1.383 . S
C1902 C1901 1.379 . S
H1903 C1897 0.959 . S
H1904 C1897 0.961 . S
H1905 C1897 0.960 . S
H1906 C1898 0.930 . S
H1907 C1899 0.929 . S
H1908 C1916 0.929 . S
H1909 C1918 0.930 . S
H1910 C1920 0.930 . S
H1911 C1923 0.929 . S
H1912 C1926 0.930 . S
H1913 C1928 0.960 . S
H1914 C1928 0.960 . S
H1915 C1928 0.960 . S
C1916 H1908 0.929 . S
C1916 C1917 1.377 . S
C1916 C1918 1.384 . S
C1917 C1916 1.377 . S
C1917 C1923 1.390 . S
C1918 H1909 0.930 . S
C1918 C1916 1.384 . S
C1918 C1919 1.372 . S
C1919 C1918 1.372 . S
C1919 C1920 1.400 . S
C1919 C1924 1.490 . S
C1920 H1910 0.930 . S
C1920 C1919 1.400 . S
C1920 C1923 1.386 . S
H1921 C1937 0.930 . S
H1922 C1938 0.931 . S
C1923 H1911 0.929 . S
C1923 C1917 1.390 . S
C1923 C1920 1.386 . S
C1924 C1919 1.490 . S
C1924 C1926 1.395 . S
C1924 C1927 1.403 . S
H1925 C1931 0.930 . S
C1926 H1912 0.930 . S
C1926 C1924 1.395 . S
C1926 C1929 1.403 . S
C1927 C1924 1.403 . S
C1927 C1928 1.524 . S
C1927 C1931 1.400 . S
C1928 H1913 0.960 . S
C1928 H1914 0.960 . S
C1928 H1915 0.960 . S
C1928 C1927 1.524 . S
C1929 C1926 1.403 . S
C1929 C1930 1.392 . S
C1929 C1933 1.495 . S
C1930 C1929 1.392 . S
C1930 C1931 1.385 . S
C1930 C1932 1.478 . S
C1931 H1925 0.930 . S
C1931 C1927 1.400 . S
C1931 C1930 1.385 . S
C1932 C1930 1.478 . S
C1932 C1934 1.381 . S
C1932 C1938 1.383 . S
C1933 C1929 1.495 . S
C1933 H1939 0.959 . S
C1933 H1940 0.961 . S
C1933 H1941 0.960 . S
C1934 C1932 1.381 . S
C1934 C1935 1.394 . S
C1934 H1942 0.930 . S
C1935 C1934 1.394 . S
C1935 C1936 1.383 . S
C1935 H1943 0.929 . S
C1936 C1935 1.383 . S
C1936 C1937 1.377 . S
C1937 H1921 0.930 . S
C1937 C1936 1.377 . S
C1937 C1938 1.379 . S
C1938 H1922 0.931 . S
C1938 C1932 1.383 . S
C1938 C1937 1.379 . S
H1939 C1933 0.959 . S
H1940 C1933 0.961 . S
H1941 C1933 0.960 . S
H1942 C1934 0.930 . S
H1943 C1935 0.929 . S
H1944 C1952 0.929 . S
H1945 C1954 0.930 . S
H1946 C1956 0.930 . S
H1947 C1959 0.929 . S
H1948 C1962 0.930 . S
H1949 C1964 0.960 . S
H1950 C1964 0.960 . S
H1951 C1964 0.960 . S
C1952 H1944 0.929 . S
C1952 C1953 1.377 . S
C1952 C1954 1.384 . S
C1953 C1952 1.377 . S
C1953 C1959 1.390 . S
C1954 H1945 0.930 . S
C1954 C1952 1.384 . S
C1954 C1955 1.372 . S
C1955 C1954 1.372 . S
C1955 C1956 1.400 . S
C1955 C1960 1.490 . S
C1956 H1946 0.930 . S
C1956 C1955 1.400 . S
C1956 C1959 1.386 . S
H1957 C1973 0.930 . S
H1958 C1974 0.931 . S
C1959 H1947 0.929 . S
C1959 C1953 1.390 . S
C1959 C1956 1.386 . S
C1960 C1955 1.490 . S
C1960 C1962 1.395 . S
C1960 C1963 1.403 . S
H1961 C1967 0.930 . S
C1962 H1948 0.930 . S
C1962 C1960 1.395 . S
C1962 C1965 1.403 . S
C1963 C1960 1.403 . S
C1963 C1964 1.524 . S
C1963 C1967 1.400 . S
C1964 H1949 0.960 . S
C1964 H1950 0.960 . S
C1964 H1951 0.960 . S
C1964 C1963 1.524 . S
C1965 C1962 1.403 . S
C1965 C1966 1.392 . S
C1965 C1969 1.495 . S
C1966 C1965 1.392 . S
C1966 C1967 1.385 . S
C1966 C1968 1.478 . S
C1967 H1961 0.930 . S
C1967 C1963 1.400 . S
C1967 C1966 1.385 . S
C1968 C1966 1.478 . S
C1968 C1970 1.381 . S
C1968 C1974 1.383 . S
C1969 C1965 1.495 . S
C1969 H1975 0.959 . S
C1969 H1976 0.961 . S
C1969 H1977 0.960 . S
C1970 C1968 1.381 . S
C1970 C1971 1.394 . S
C1970 H1978 0.930 . S
C1971 C1970 1.394 . S
C1971 C1972 1.383 . S
C1971 H1979 0.929 . S
C1972 C1971 1.383 . S
C1972 C1973 1.377 . S
C1973 H1957 0.930 . S
C1973 C1972 1.377 . S
C1973 C1974 1.379 . S
C1974 H1958 0.931 . S
C1974 C1968 1.383 . S
C1974 C1973 1.379 . S
H1975 C1969 0.959 . S
H1976 C1969 0.961 . S
H1977 C1969 0.960 . S
H1978 C1970 0.930 . S
H1979 C1971 0.929 . S
H1980 C1988 0.929 . S
H1981 C1990 0.930 . S
H1982 C1992 0.930 . S
H1983 C1995 0.929 . S
H1984 C1998 0.930 . S
H1985 C2000 0.960 . S
H1986 C2000 0.960 . S
H1987 C2000 0.960 . S
C1988 H1980 0.929 . S
C1988 C1989 1.377 . S
C1988 C1990 1.384 . S
C1989 C1988 1.377 . S
C1989 C1995 1.390 . S
C1990 H1981 0.930 . S
C1990 C1988 1.384 . S
C1990 C1991 1.372 . S
C1991 C1990 1.372 . S
C1991 C1992 1.400 . S
C1991 C1996 1.490 . S
C1992 H1982 0.930 . S
C1992 C1991 1.400 . S
C1992 C1995 1.386 . S
H1993 C2009 0.930 . S
H1994 C2010 0.931 . S
C1995 H1983 0.929 . S
C1995 C1989 1.390 . S
C1995 C1992 1.386 . S
C1996 C1991 1.490 . S
C1996 C1998 1.395 . S
C1996 C1999 1.403 . S
H1997 C2003 0.930 . S
C1998 H1984 0.930 . S
C1998 C1996 1.395 . S
C1998 C2001 1.403 . S
C1999 C1996 1.403 . S
C1999 C2000 1.524 . S
C1999 C2003 1.400 . S
C2000 H1985 0.960 . S
C2000 H1986 0.960 . S
C2000 H1987 0.960 . S
C2000 C1999 1.524 . S
C2001 C1998 1.403 . S
C2001 C2002 1.392 . S
C2001 C2005 1.495 . S
C2002 C2001 1.392 . S
C2002 C2003 1.385 . S
C2002 C2004 1.478 . S
C2003 H1997 0.930 . S
C2003 C1999 1.400 . S
C2003 C2002 1.385 . S
C2004 C2002 1.478 . S
C2004 C2006 1.381 . S
C2004 C2010 1.383 . S
C2005 C2001 1.495 . S
C2005 H2011 0.959 . S
C2005 H2012 0.961 . S
C2005 H2013 0.960 . S
C2006 C2004 1.381 . S
C2006 C2007 1.394 . S
C2006 H2014 0.930 . S
C2007 C2006 1.394 . S
C2007 C2008 1.383 . S
C2007 H2015 0.929 . S
C2008 C2007 1.383 . S
C2008 C2009 1.377 . S
C2009 H1993 0.930 . S
C2009 C2008 1.377 . S
C2009 C2010 1.379 . S
C2010 H1994 0.931 . S
C2010 C2004 1.383 . S
C2010 C2009 1.379 . S
H2011 C2005 0.959 . S
H2012 C2005 0.961 . S
H2013 C2005 0.960 . S
H2014 C2006 0.930 . S
H2015 C2007 0.929 . S
H2016 C2024 0.929 . S
H2017 C2026 0.930 . S
H2018 C2028 0.930 . S
H2019 C2031 0.929 . S
H2020 C2034 0.930 . S
H2021 C2036 0.960 . S
H2022 C2036 0.960 . S
H2023 C2036 0.960 . S
C2024 H2016 0.929 . S
C2024 C2025 1.377 . S
C2024 C2026 1.384 . S
C2025 C2024 1.377 . S
C2025 C2031 1.390 . S
C2026 H2017 0.930 . S
C2026 C2024 1.384 . S
C2026 C2027 1.372 . S
C2027 C2026 1.372 . S
C2027 C2028 1.400 . S
C2027 C2032 1.490 . S
C2028 H2018 0.930 . S
C2028 C2027 1.400 . S
C2028 C2031 1.386 . S
H2029 C2045 0.930 . S
H2030 C2046 0.931 . S
C2031 H2019 0.929 . S
C2031 C2025 1.390 . S
C2031 C2028 1.386 . S
C2032 C2027 1.490 . S
C2032 C2034 1.395 . S
C2032 C2035 1.403 . S
H2033 C2039 0.930 . S
C2034 H2020 0.930 . S
C2034 C2032 1.395 . S
C2034 C2037 1.403 . S
C2035 C2032 1.403 . S
C2035 C2036 1.524 . S
C2035 C2039 1.400 . S
C2036 H2021 0.960 . S
C2036 H2022 0.960 . S
C2036 H2023 0.960 . S
C2036 C2035 1.524 . S
C2037 C2034 1.403 . S
C2037 C2038 1.392 . S
C2037 C2041 1.495 . S
C2038 C2037 1.392 . S
C2038 C2039 1.385 . S
C2038 C2040 1.478 . S
C2039 H2033 0.930 . S
C2039 C2035 1.400 . S
C2039 C2038 1.385 . S
C2040 C2038 1.478 . S
C2040 C2042 1.381 . S
C2040 C2046 1.383 . S
C2041 C2037 1.495 . S
C2041 H2047 0.959 . S
C2041 H2048 0.961 . S
C2041 H2049 0.960 . S
C2042 C2040 1.381 . S
C2042 C2043 1.394 . S
C2042 H2050 0.930 . S
C2043 C2042 1.394 . S
C2043 C2044 1.383 . S
C2043 H2051 0.929 . S
C2044 C2043 1.383 . S
C2044 C2045 1.377 . S
C2045 H2029 0.930 . S
C2045 C2044 1.377 . S
C2045 C2046 1.379 . S
C2046 H2030 0.931 . S
C2046 C2040 1.383 . S
C2046 C2045 1.379 . S
H2047 C2041 0.959 . S
H2048 C2041 0.961 . S
H2049 C2041 0.960 . S
H2050 C2042 0.930 . S
H2051 C2043 0.929 . S
H2052 C2060 0.929 . S
H2053 C2062 0.930 . S
H2054 C2064 0.930 . S
H2055 C2067 0.929 . S
H2056 C2070 0.930 . S
H2057 C2072 0.960 . S
H2058 C2072 0.960 . S
H2059 C2072 0.960 . S
C2060 H2052 0.929 . S
C2060 C2061 1.377 . S
C2060 C2062 1.384 . S
C2061 C2060 1.377 . S
C2061 C2067 1.390 . S
C2062 H2053 0.930 . S
C2062 C2060 1.384 . S
C2062 C2063 1.372 . S
C2063 C2062 1.372 . S
C2063 C2064 1.400 . S
C2063 C2068 1.490 . S
C2064 H2054 0.930 . S
C2064 C2063 1.400 . S
C2064 C2067 1.386 . S
H2065 C2081 0.930 . S
H2066 C2082 0.931 . S
C2067 H2055 0.929 . S
C2067 C2061 1.390 . S
C2067 C2064 1.386 . S
C2068 C2063 1.490 . S
C2068 C2070 1.395 . S
C2068 C2071 1.403 . S
H2069 C2075 0.930 . S
C2070 H2056 0.930 . S
C2070 C2068 1.395 . S
C2070 C2073 1.403 . S
C2071 C2068 1.403 . S
C2071 C2072 1.524 . S
C2071 C2075 1.400 . S
C2072 H2057 0.960 . S
C2072 H2058 0.960 . S
C2072 H2059 0.960 . S
C2072 C2071 1.524 . S
C2073 C2070 1.403 . S
C2073 C2074 1.392 . S
C2073 C2077 1.495 . S
C2074 C2073 1.392 . S
C2074 C2075 1.385 . S
C2074 C2076 1.478 . S
C2075 H2069 0.930 . S
C2075 C2071 1.400 . S
C2075 C2074 1.385 . S
C2076 C2074 1.478 . S
C2076 C2078 1.381 . S
C2076 C2082 1.383 . S
C2077 C2073 1.495 . S
C2077 H2083 0.959 . S
C2077 H2084 0.961 . S
C2077 H2085 0.960 . S
C2078 C2076 1.381 . S
C2078 C2079 1.394 . S
C2078 H2086 0.930 . S
C2079 C2078 1.394 . S
C2079 C2080 1.383 . S
C2079 H2087 0.929 . S
C2080 C2079 1.383 . S
C2080 C2081 1.377 . S
C2081 H2065 0.930 . S
C2081 C2080 1.377 . S
C2081 C2082 1.379 . S
C2082 H2066 0.931 . S
C2082 C2076 1.383 . S
C2082 C2081 1.379 . S
H2083 C2077 0.959 . S
H2084 C2077 0.961 . S
H2085 C2077 0.960 . S
H2086 C2078 0.930 . S
H2087 C2079 0.929 . S
H2088 C2096 0.929 . S
H2089 C2098 0.930 . S
H2090 C2100 0.930 . S
H2091 C2103 0.929 . S
H2092 C2106 0.930 . S
H2093 C2108 0.960 . S
H2094 C2108 0.960 . S
H2095 C2108 0.960 . S
C2096 H2088 0.929 . S
C2096 C2097 1.377 . S
C2096 C2098 1.384 . S
C2097 C2096 1.377 . S
C2097 C2103 1.390 . S
C2098 H2089 0.930 . S
C2098 C2096 1.384 . S
C2098 C2099 1.372 . S
C2099 C2098 1.372 . S
C2099 C2100 1.400 . S
C2099 C2104 1.490 . S
C2100 H2090 0.930 . S
C2100 C2099 1.400 . S
C2100 C2103 1.386 . S
H2101 C2117 0.930 . S
H2102 C2118 0.931 . S
C2103 H2091 0.929 . S
C2103 C2097 1.390 . S
C2103 C2100 1.386 . S
C2104 C2099 1.490 . S
C2104 C2106 1.395 . S
C2104 C2107 1.403 . S
H2105 C2111 0.930 . S
C2106 H2092 0.930 . S
C2106 C2104 1.395 . S
C2106 C2109 1.403 . S
C2107 C2104 1.403 . S
C2107 C2108 1.524 . S
C2107 C2111 1.400 . S
C2108 H2093 0.960 . S
C2108 H2094 0.960 . S
C2108 H2095 0.960 . S
C2108 C2107 1.524 . S
C2109 C2106 1.403 . S
C2109 C2110 1.392 . S
C2109 C2113 1.495 . S
C2110 C2109 1.392 . S
C2110 C2111 1.385 . S
C2110 C2112 1.478 . S
C2111 H2105 0.930 . S
C2111 C2107 1.400 . S
C2111 C2110 1.385 . S
C2112 C2110 1.478 . S
C2112 C2114 1.381 . S
C2112 C2118 1.383 . S
C2113 C2109 1.495 . S
C2113 H2119 0.959 . S
C2113 H2120 0.961 . S
C2113 H2121 0.960 . S
C2114 C2112 1.381 . S
C2114 C2115 1.394 . S
C2114 H2122 0.930 . S
C2115 C2114 1.394 . S
C2115 C2116 1.383 . S
C2115 H2123 0.929 . S
C2116 C2115 1.383 . S
C2116 C2117 1.377 . S
C2117 H2101 0.930 . S
C2117 C2116 1.377 . S
C2117 C2118 1.379 . S
C2118 H2102 0.931 . S
C2118 C2112 1.383 . S
C2118 C2117 1.379 . S
H2119 C2113 0.959 . S
H2120 C2113 0.961 . S
H2121 C2113 0.960 . S
H2122 C2114 0.930 . S
H2123 C2115 0.929 . S
H2124 C2132 0.929 . S
H2125 C2134 0.930 . S
H2126 C2136 0.930 . S
H2127 C2139 0.929 . S
H2128 C2142 0.930 . S
H2129 C2144 0.960 . S
H2130 C2144 0.960 . S
H2131 C2144 0.960 . S
C2132 H2124 0.929 . S
C2132 C2133 1.377 . S
C2132 C2134 1.384 . S
C2133 C2132 1.377 . S
C2133 C2139 1.390 . S
C2134 H2125 0.930 . S
C2134 C2132 1.384 . S
C2134 C2135 1.372 . S
C2135 C2134 1.372 . S
C2135 C2136 1.400 . S
C2135 C2140 1.490 . S
C2136 H2126 0.930 . S
C2136 C2135 1.400 . S
C2136 C2139 1.386 . S
H2137 C2153 0.930 . S
H2138 C2154 0.931 . S
C2139 H2127 0.929 . S
C2139 C2133 1.390 . S
C2139 C2136 1.386 . S
C2140 C2135 1.490 . S
C2140 C2142 1.395 . S
C2140 C2143 1.403 . S
H2141 C2147 0.930 . S
C2142 H2128 0.930 . S
C2142 C2140 1.395 . S
C2142 C2145 1.403 . S
C2143 C2140 1.403 . S
C2143 C2144 1.524 . S
C2143 C2147 1.400 . S
C2144 H2129 0.960 . S
C2144 H2130 0.960 . S
C2144 H2131 0.960 . S
C2144 C2143 1.524 . S
C2145 C2142 1.403 . S
C2145 C2146 1.392 . S
C2145 C2149 1.495 . S
C2146 C2145 1.392 . S
C2146 C2147 1.385 . S
C2146 C2148 1.478 . S
C2147 H2141 0.930 . S
C2147 C2143 1.400 . S
C2147 C2146 1.385 . S
C2148 C2146 1.478 . S
C2148 C2150 1.381 . S
C2148 C2154 1.383 . S
C2149 C2145 1.495 . S
C2149 H2155 0.959 . S
C2149 H2156 0.961 . S
C2149 H2157 0.960 . S
C2150 C2148 1.381 . S
C2150 C2151 1.394 . S
C2150 H2158 0.930 . S
C2151 C2150 1.394 . S
C2151 C2152 1.383 . S
C2151 H2159 0.929 . S
C2152 C2151 1.383 . S
C2152 C2153 1.377 . S
C2153 H2137 0.930 . S
C2153 C2152 1.377 . S
C2153 C2154 1.379 . S
C2154 H2138 0.931 . S
C2154 C2148 1.383 . S
C2154 C2153 1.379 . S
H2155 C2149 0.959 . S
H2156 C2149 0.961 . S
H2157 C2149 0.960 . S
H2158 C2150 0.930 . S
H2159 C2151 0.929 . S
H2160 C2168 0.929 . S
H2161 C2170 0.930 . S
H2162 C2172 0.930 . S
H2163 C2175 0.929 . S
H2164 C2178 0.930 . S
H2165 C2180 0.960 . S
H2166 C2180 0.960 . S
H2167 C2180 0.960 . S
C2168 H2160 0.929 . S
C2168 C2169 1.377 . S
C2168 C2170 1.384 . S
C2169 C2168 1.377 . S
C2169 C2175 1.390 . S
C2170 H2161 0.930 . S
C2170 C2168 1.384 . S
C2170 C2171 1.372 . S
C2171 C2170 1.372 . S
C2171 C2172 1.400 . S
C2171 C2176 1.490 . S
C2172 H2162 0.930 . S
C2172 C2171 1.400 . S
C2172 C2175 1.386 . S
H2173 C2189 0.930 . S
H2174 C2190 0.931 . S
C2175 H2163 0.929 . S
C2175 C2169 1.390 . S
C2175 C2172 1.386 . S
C2176 C2171 1.490 . S
C2176 C2178 1.395 . S
C2176 C2179 1.403 . S
H2177 C2183 0.930 . S
C2178 H2164 0.930 . S
C2178 C2176 1.395 . S
C2178 C2181 1.403 . S
C2179 C2176 1.403 . S
C2179 C2180 1.524 . S
C2179 C2183 1.400 . S
C2180 H2165 0.960 . S
C2180 H2166 0.960 . S
C2180 H2167 0.960 . S
C2180 C2179 1.524 . S
C2181 C2178 1.403 . S
C2181 C2182 1.392 . S
C2181 C2185 1.495 . S
C2182 C2181 1.392 . S
C2182 C2183 1.385 . S
C2182 C2184 1.478 . S
C2183 H2177 0.930 . S
C2183 C2179 1.400 . S
C2183 C2182 1.385 . S
C2184 C2182 1.478 . S
C2184 C2186 1.381 . S
C2184 C2190 1.383 . S
C2185 C2181 1.495 . S
C2185 H2191 0.959 . S
C2185 H2192 0.961 . S
C2185 H2193 0.960 . S
C2186 C2184 1.381 . S
C2186 C2187 1.394 . S
C2186 H2194 0.930 . S
C2187 C2186 1.394 . S
C2187 C2188 1.383 . S
C2187 H2195 0.929 . S
C2188 C2187 1.383 . S
C2188 C2189 1.377 . S
C2189 H2173 0.930 . S
C2189 C2188 1.377 . S
C2189 C2190 1.379 . S
C2190 H2174 0.931 . S
C2190 C2184 1.383 . S
C2190 C2189 1.379 . S
H2191 C2185 0.959 . S
H2192 C2185 0.961 . S
H2193 C2185 0.960 . S
H2194 C2186 0.930 . S
H2195 C2187 0.929 . S
H2196 C2204 0.929 . S
H2197 C2206 0.930 . S
H2198 C2208 0.930 . S
H2199 C2211 0.929 . S
H2200 C2214 0.930 . S
H2201 C2216 0.960 . S
H2202 C2216 0.960 . S
H2203 C2216 0.960 . S
C2204 H2196 0.929 . S
C2204 C2205 1.377 . S
C2204 C2206 1.384 . S
C2205 C2204 1.377 . S
C2205 C2211 1.390 . S
C2206 H2197 0.930 . S
C2206 C2204 1.384 . S
C2206 C2207 1.372 . S
C2207 C2206 1.372 . S
C2207 C2208 1.400 . S
C2207 C2212 1.490 . S
C2208 H2198 0.930 . S
C2208 C2207 1.400 . S
C2208 C2211 1.386 . S
H2209 C2225 0.930 . S
H2210 C2226 0.931 . S
C2211 H2199 0.929 . S
C2211 C2205 1.390 . S
C2211 C2208 1.386 . S
C2212 C2207 1.490 . S
C2212 C2214 1.395 . S
C2212 C2215 1.403 . S
H2213 C2219 0.930 . S
C2214 H2200 0.930 . S
C2214 C2212 1.395 . S
C2214 C2217 1.403 . S
C2215 C2212 1.403 . S
C2215 C2216 1.524 . S
C2215 C2219 1.400 . S
C2216 H2201 0.960 . S
C2216 H2202 0.960 . S
C2216 H2203 0.960 . S
C2216 C2215 1.524 . S
C2217 C2214 1.403 . S
C2217 C2218 1.392 . S
C2217 C2221 1.495 . S
C2218 C2217 1.392 . S
C2218 C2219 1.385 . S
C2218 C2220 1.478 . S
C2219 H2213 0.930 . S
C2219 C2215 1.400 . S
C2219 C2218 1.385 . S
C2220 C2218 1.478 . S
C2220 C2222 1.381 . S
C2220 C2226 1.383 . S
C2221 C2217 1.495 . S
C2221 H2227 0.959 . S
C2221 H2228 0.961 . S
C2221 H2229 0.960 . S
C2222 C2220 1.381 . S
C2222 C2223 1.394 . S
C2222 H2230 0.930 . S
C2223 C2222 1.394 . S
C2223 C2224 1.383 . S
C2223 H2231 0.929 . S
C2224 C2223 1.383 . S
C2224 C2225 1.377 . S
C2225 H2209 0.930 . S
C2225 C2224 1.377 . S
C2225 C2226 1.379 . S
C2226 H2210 0.931 . S
C2226 C2220 1.383 . S
C2226 C2225 1.379 . S
H2227 C2221 0.959 . S
H2228 C2221 0.961 . S
H2229 C2221 0.960 . S
H2230 C2222 0.930 . S
H2231 C2223 0.929 . S
H2232 C2240 0.929 . S
H2233 C2242 0.930 . S
H2234 C2244 0.930 . S
H2235 C2247 0.929 . S
H2236 C2250 0.930 . S
H2237 C2252 0.960 . S
H2238 C2252 0.960 . S
H2239 C2252 0.960 . S
C2240 H2232 0.929 . S
C2240 C2241 1.377 . S
C2240 C2242 1.384 . S
C2241 C2240 1.377 . S
C2241 C2247 1.390 . S
C2242 H2233 0.930 . S
C2242 C2240 1.384 . S
C2242 C2243 1.372 . S
C2243 C2242 1.372 . S
C2243 C2244 1.400 . S
C2243 C2248 1.490 . S
C2244 H2234 0.930 . S
C2244 C2243 1.400 . S
C2244 C2247 1.386 . S
H2245 C2261 0.930 . S
H2246 C2262 0.931 . S
C2247 H2235 0.929 . S
C2247 C2241 1.390 . S
C2247 C2244 1.386 . S
C2248 C2243 1.490 . S
C2248 C2250 1.395 . S
C2248 C2251 1.403 . S
H2249 C2255 0.930 . S
C2250 H2236 0.930 . S
C2250 C2248 1.395 . S
C2250 C2253 1.403 . S
C2251 C2248 1.403 . S
C2251 C2252 1.524 . S
C2251 C2255 1.400 . S
C2252 H2237 0.960 . S
C2252 H2238 0.960 . S
C2252 H2239 0.960 . S
C2252 C2251 1.524 . S
C2253 C2250 1.403 . S
C2253 C2254 1.392 . S
C2253 C2257 1.495 . S
C2254 C2253 1.392 . S
C2254 C2255 1.385 . S
C2254 C2256 1.478 . S
C2255 H2249 0.930 . S
C2255 C2251 1.400 . S
C2255 C2254 1.385 . S
C2256 C2254 1.478 . S
C2256 C2258 1.381 . S
C2256 C2262 1.383 . S
C2257 C2253 1.495 . S
C2257 H2263 0.959 . S
C2257 H2264 0.961 . S
C2257 H2265 0.960 . S
C2258 C2256 1.381 . S
C2258 C2259 1.394 . S
C2258 H2266 0.930 . S
C2259 C2258 1.394 . S
C2259 C2260 1.383 . S
C2259 H2267 0.929 . S
C2260 C2259 1.383 . S
C2260 C2261 1.377 . S
C2261 H2245 0.930 . S
C2261 C2260 1.377 . S
C2261 C2262 1.379 . S
C2262 H2246 0.931 . S
C2262 C2256 1.383 . S
C2262 C2261 1.379 . S
H2263 C2257 0.959 . S
H2264 C2257 0.961 . S
H2265 C2257 0.960 . S
H2266 C2258 0.930 . S
H2267 C2259 0.929 . S
H2268 C2276 0.929 . S
H2269 C2278 0.930 . S
H2270 C2280 0.930 . S
H2271 C2283 0.929 . S
H2272 C2286 0.930 . S
H2273 C2288 0.960 . S
H2274 C2288 0.960 . S
H2275 C2288 0.960 . S
C2276 H2268 0.929 . S
C2276 C2277 1.377 . S
C2276 C2278 1.384 . S
C2277 C2276 1.377 . S
C2277 C2283 1.390 . S
C2278 H2269 0.930 . S
C2278 C2276 1.384 . S
C2278 C2279 1.372 . S
C2279 C2278 1.372 . S
C2279 C2280 1.400 . S
C2279 C2284 1.490 . S
C2280 H2270 0.930 . S
C2280 C2279 1.400 . S
C2280 C2283 1.386 . S
H2281 C2297 0.930 . S
H2282 C2298 0.931 . S
C2283 H2271 0.929 . S
C2283 C2277 1.390 . S
C2283 C2280 1.386 . S
C2284 C2279 1.490 . S
C2284 C2286 1.395 . S
C2284 C2287 1.403 . S
H2285 C2291 0.930 . S
C2286 H2272 0.930 . S
C2286 C2284 1.395 . S
C2286 C2289 1.403 . S
C2287 C2284 1.403 . S
C2287 C2288 1.524 . S
C2287 C2291 1.400 . S
C2288 H2273 0.960 . S
C2288 H2274 0.960 . S
C2288 H2275 0.960 . S
C2288 C2287 1.524 . S
C2289 C2286 1.403 . S
C2289 C2290 1.392 . S
C2289 C2293 1.495 . S
C2290 C2289 1.392 . S
C2290 C2291 1.385 . S
C2290 C2292 1.478 . S
C2291 H2285 0.930 . S
C2291 C2287 1.400 . S
C2291 C2290 1.385 . S
C2292 C2290 1.478 . S
C2292 C2294 1.381 . S
C2292 C2298 1.383 . S
C2293 C2289 1.495 . S
C2293 H2299 0.959 . S
C2293 H2300 0.961 . S
C2293 H2301 0.960 . S
C2294 C2292 1.381 . S
C2294 C2295 1.394 . S
C2294 H2302 0.930 . S
C2295 C2294 1.394 . S
C2295 C2296 1.383 . S
C2295 H2303 0.929 . S
C2296 C2295 1.383 . S
C2296 C2297 1.377 . S
C2297 H2281 0.930 . S
C2297 C2296 1.377 . S
C2297 C2298 1.379 . S
C2298 H2282 0.931 . S
C2298 C2292 1.383 . S
C2298 C2297 1.379 . S
H2299 C2293 0.959 . S
H2300 C2293 0.961 . S
H2301 C2293 0.960 . S
H2302 C2294 0.930 . S
H2303 C2295 0.929 . S
H2304 C2312 0.929 . S
H2305 C2314 0.930 . S
H2306 C2316 0.930 . S
H2307 C2319 0.929 . S
H2308 C2322 0.930 . S
H2309 C2324 0.960 . S
H2310 C2324 0.960 . S
H2311 C2324 0.960 . S
C2312 H2304 0.929 . S
C2312 C2313 1.377 . S
C2312 C2314 1.384 . S
C2313 C2312 1.377 . S
C2313 C2319 1.390 . S
C2314 H2305 0.930 . S
C2314 C2312 1.384 . S
C2314 C2315 1.372 . S
C2315 C2314 1.372 . S
C2315 C2316 1.400 . S
C2315 C2320 1.490 . S
C2316 H2306 0.930 . S
C2316 C2315 1.400 . S
C2316 C2319 1.386 . S
H2317 C2333 0.930 . S
H2318 C2334 0.931 . S
C2319 H2307 0.929 . S
C2319 C2313 1.390 . S
C2319 C2316 1.386 . S
C2320 C2315 1.490 . S
C2320 C2322 1.395 . S
C2320 C2323 1.403 . S
H2321 C2327 0.930 . S
C2322 H2308 0.930 . S
C2322 C2320 1.395 . S
C2322 C2325 1.403 . S
C2323 C2320 1.403 . S
C2323 C2324 1.524 . S
C2323 C2327 1.400 . S
C2324 H2309 0.960 . S
C2324 H2310 0.960 . S
C2324 H2311 0.960 . S
C2324 C2323 1.524 . S
C2325 C2322 1.403 . S
C2325 C2326 1.392 . S
C2325 C2329 1.495 . S
C2326 C2325 1.392 . S
C2326 C2327 1.385 . S
C2326 C2328 1.478 . S
C2327 H2321 0.930 . S
C2327 C2323 1.400 . S
C2327 C2326 1.385 . S
C2328 C2326 1.478 . S
C2328 C2330 1.381 . S
C2328 C2334 1.383 . S
C2329 C2325 1.495 . S
C2329 H2335 0.959 . S
C2329 H2336 0.961 . S
C2329 H2337 0.960 . S
C2330 C2328 1.381 . S
C2330 C2331 1.394 . S
C2330 H2338 0.930 . S
C2331 C2330 1.394 . S
C2331 C2332 1.383 . S
C2331 H2339 0.929 . S
C2332 C2331 1.383 . S
C2332 C2333 1.377 . S
C2333 H2317 0.930 . S
C2333 C2332 1.377 . S
C2333 C2334 1.379 . S
C2334 H2318 0.931 . S
C2334 C2328 1.383 . S
C2334 C2333 1.379 . S
H2335 C2329 0.959 . S
H2336 C2329 0.961 . S
H2337 C2329 0.960 . S
H2338 C2330 0.930 . S
H2339 C2331 0.929 . S
H2340 C2348 0.929 . S
H2341 C2350 0.930 . S
H2342 C2352 0.930 . S
H2343 C2355 0.929 . S
H2344 C2358 0.930 . S
H2345 C2360 0.960 . S
H2346 C2360 0.960 . S
H2347 C2360 0.960 . S
C2348 H2340 0.929 . S
C2348 C2349 1.377 . S
C2348 C2350 1.384 . S
C2349 C2348 1.377 . S
C2349 C2355 1.390 . S
C2350 H2341 0.930 . S
C2350 C2348 1.384 . S
C2350 C2351 1.372 . S
C2351 C2350 1.372 . S
C2351 C2352 1.400 . S
C2351 C2356 1.490 . S
C2352 H2342 0.930 . S
C2352 C2351 1.400 . S
C2352 C2355 1.386 . S
H2353 C2369 0.930 . S
H2354 C2370 0.931 . S
C2355 H2343 0.929 . S
C2355 C2349 1.390 . S
C2355 C2352 1.386 . S
C2356 C2351 1.490 . S
C2356 C2358 1.395 . S
C2356 C2359 1.403 . S
H2357 C2363 0.930 . S
C2358 H2344 0.930 . S
C2358 C2356 1.395 . S
C2358 C2361 1.403 . S
C2359 C2356 1.403 . S
C2359 C2360 1.524 . S
C2359 C2363 1.400 . S
C2360 H2345 0.960 . S
C2360 H2346 0.960 . S
C2360 H2347 0.960 . S
C2360 C2359 1.524 . S
C2361 C2358 1.403 . S
C2361 C2362 1.392 . S
C2361 C2365 1.495 . S
C2362 C2361 1.392 . S
C2362 C2363 1.385 . S
C2362 C2364 1.478 . S
C2363 H2357 0.930 . S
C2363 C2359 1.400 . S
C2363 C2362 1.385 . S
C2364 C2362 1.478 . S
C2364 C2366 1.381 . S
C2364 C2370 1.383 . S
C2365 C2361 1.495 . S
C2365 H2371 0.959 . S
C2365 H2372 0.961 . S
C2365 H2373 0.960 . S
C2366 C2364 1.381 . S
C2366 C2367 1.394 . S
C2366 H2374 0.930 . S
C2367 C2366 1.394 . S
C2367 C2368 1.383 . S
C2367 H2375 0.929 . S
C2368 C2367 1.383 . S
C2368 C2369 1.377 . S
C2369 H2353 0.930 . S
C2369 C2368 1.377 . S
C2369 C2370 1.379 . S
C2370 H2354 0.931 . S
C2370 C2364 1.383 . S
C2370 C2369 1.379 . S
H2371 C2365 0.959 . S
H2372 C2365 0.961 . S
H2373 C2365 0.960 . S
H2374 C2366 0.930 . S
H2375 C2367 0.929 . S
H2376 C2384 0.929 . S
H2377 C2386 0.930 . S
H2378 C2388 0.930 . S
H2379 C2391 0.929 . S
H2380 C2394 0.930 . S
H2381 C2396 0.960 . S
H2382 C2396 0.960 . S
H2383 C2396 0.960 . S
C2384 H2376 0.929 . S
C2384 C2385 1.377 . S
C2384 C2386 1.384 . S
C2385 C2384 1.377 . S
C2385 C2391 1.390 . S
C2386 H2377 0.930 . S
C2386 C2384 1.384 . S
C2386 C2387 1.372 . S
C2387 C2386 1.372 . S
C2387 C2388 1.400 . S
C2387 C2392 1.490 . S
C2388 H2378 0.930 . S
C2388 C2387 1.400 . S
C2388 C2391 1.386 . S
H2389 C2405 0.930 . S
H2390 C2406 0.931 . S
C2391 H2379 0.929 . S
C2391 C2385 1.390 . S
C2391 C2388 1.386 . S
C2392 C2387 1.490 . S
C2392 C2394 1.395 . S
C2392 C2395 1.403 . S
H2393 C2399 0.930 . S
C2394 H2380 0.930 . S
C2394 C2392 1.395 . S
C2394 C2397 1.403 . S
C2395 C2392 1.403 . S
C2395 C2396 1.524 . S
C2395 C2399 1.400 . S
C2396 H2381 0.960 . S
C2396 H2382 0.960 . S
C2396 H2383 0.960 . S
C2396 C2395 1.524 . S
C2397 C2394 1.403 . S
C2397 C2398 1.392 . S
C2397 C2401 1.495 . S
C2398 C2397 1.392 . S
C2398 C2399 1.385 . S
C2398 C2400 1.478 . S
C2399 H2393 0.930 . S
C2399 C2395 1.400 . S
C2399 C2398 1.385 . S
C2400 C2398 1.478 . S
C2400 C2402 1.381 . S
C2400 C2406 1.383 . S
C2401 C2397 1.495 . S
C2401 H2407 0.959 . S
C2401 H2408 0.961 . S
C2401 H2409 0.960 . S
C2402 C2400 1.381 . S
C2402 C2403 1.394 . S
C2402 H2410 0.930 . S
C2403 C2402 1.394 . S
C2403 C2404 1.383 . S
C2403 H2411 0.929 . S
C2404 C2403 1.383 . S
C2404 C2405 1.377 . S
C2405 H2389 0.930 . S
C2405 C2404 1.377 . S
C2405 C2406 1.379 . S
C2406 H2390 0.931 . S
C2406 C2400 1.383 . S
C2406 C2405 1.379 . S
H2407 C2401 0.959 . S
H2408 C2401 0.961 . S
H2409 C2401 0.960 . S
H2410 C2402 0.930 . S
H2411 C2403 0.929 . S
H2412 C2420 0.929 . S
H2413 C2422 0.930 . S
H2414 C2424 0.930 . S
H2415 C2427 0.929 . S
H2416 C2430 0.930 . S
H2417 C2432 0.960 . S
H2418 C2432 0.960 . S
H2419 C2432 0.960 . S
C2420 H2412 0.929 . S
C2420 C2421 1.377 . S
C2420 C2422 1.384 . S
C2421 C2420 1.377 . S
C2421 C2427 1.390 . S
C2422 H2413 0.930 . S
C2422 C2420 1.384 . S
C2422 C2423 1.372 . S
C2423 C2422 1.372 . S
C2423 C2424 1.400 . S
C2423 C2428 1.490 . S
C2424 H2414 0.930 . S
C2424 C2423 1.400 . S
C2424 C2427 1.386 . S
H2425 C2441 0.930 . S
H2426 C2442 0.931 . S
C2427 H2415 0.929 . S
C2427 C2421 1.390 . S
C2427 C2424 1.386 . S
C2428 C2423 1.490 . S
C2428 C2430 1.395 . S
C2428 C2431 1.403 . S
H2429 C2435 0.930 . S
C2430 H2416 0.930 . S
C2430 C2428 1.395 . S
C2430 C2433 1.403 . S
C2431 C2428 1.403 . S
C2431 C2432 1.524 . S
C2431 C2435 1.400 . S
C2432 H2417 0.960 . S
C2432 H2418 0.960 . S
C2432 H2419 0.960 . S
C2432 C2431 1.524 . S
C2433 C2430 1.403 . S
C2433 C2434 1.392 . S
C2433 C2437 1.495 . S
C2434 C2433 1.392 . S
C2434 C2435 1.385 . S
C2434 C2436 1.478 . S
C2435 H2429 0.930 . S
C2435 C2431 1.400 . S
C2435 C2434 1.385 . S
C2436 C2434 1.478 . S
C2436 C2438 1.381 . S
C2436 C2442 1.383 . S
C2437 C2433 1.495 . S
C2437 H2443 0.959 . S
C2437 H2444 0.961 . S
C2437 H2445 0.960 . S
C2438 C2436 1.381 . S
C2438 C2439 1.394 . S
C2438 H2446 0.930 . S
C2439 C2438 1.394 . S
C2439 C2440 1.383 . S
C2439 H2447 0.929 . S
C2440 C2439 1.383 . S
C2440 C2441 1.377 . S
C2441 H2425 0.930 . S
C2441 C2440 1.377 . S
C2441 C2442 1.379 . S
C2442 H2426 0.931 . S
C2442 C2436 1.383 . S
C2442 C2441 1.379 . S
H2443 C2437 0.959 . S
H2444 C2437 0.961 . S
H2445 C2437 0.960 . S
H2446 C2438 0.930 . S
H2447 C2439 0.929 . S
H2448 C2456 0.929 . S
H2449 C2458 0.930 . S
H2450 C2460 0.930 . S
H2451 C2463 0.929 . S
H2452 C2466 0.930 . S
H2453 C2468 0.960 . S
H2454 C2468 0.960 . S
H2455 C2468 0.960 . S
C2456 H2448 0.929 . S
C2456 C2457 1.377 . S
C2456 C2458 1.384 . S
C2457 C2456 1.377 . S
C2457 C2463 1.390 . S
C2458 H2449 0.930 . S
C2458 C2456 1.384 . S
C2458 C2459 1.372 . S
C2459 C2458 1.372 . S
C2459 C2460 1.400 . S
C2459 C2464 1.490 . S
C2460 H2450 0.930 . S
C2460 C2459 1.400 . S
C2460 C2463 1.386 . S
H2461 C2477 0.930 . S
H2462 C2478 0.931 . S
C2463 H2451 0.929 . S
C2463 C2457 1.390 . S
C2463 C2460 1.386 . S
C2464 C2459 1.490 . S
C2464 C2466 1.395 . S
C2464 C2467 1.403 . S
H2465 C2471 0.930 . S
C2466 H2452 0.930 . S
C2466 C2464 1.395 . S
C2466 C2469 1.403 . S
C2467 C2464 1.403 . S
C2467 C2468 1.524 . S
C2467 C2471 1.400 . S
C2468 H2453 0.960 . S
C2468 H2454 0.960 . S
C2468 H2455 0.960 . S
C2468 C2467 1.524 . S
C2469 C2466 1.403 . S
C2469 C2470 1.392 . S
C2469 C2473 1.495 . S
C2470 C2469 1.392 . S
C2470 C2471 1.385 . S
C2470 C2472 1.478 . S
C2471 H2465 0.930 . S
C2471 C2467 1.400 . S
C2471 C2470 1.385 . S
C2472 C2470 1.478 . S
C2472 C2474 1.381 . S
C2472 C2478 1.383 . S
C2473 C2469 1.495 . S
C2473 H2479 0.959 . S
C2473 H2480 0.961 . S
C2473 H2481 0.960 . S
C2474 C2472 1.381 . S
C2474 C2475 1.394 . S
C2474 H2482 0.930 . S
C2475 C2474 1.394 . S
C2475 C2476 1.383 . S
C2475 H2483 0.929 . S
C2476 C2475 1.383 . S
C2476 C2477 1.377 . S
C2477 H2461 0.930 . S
C2477 C2476 1.377 . S
C2477 C2478 1.379 . S
C2478 H2462 0.931 . S
C2478 C2472 1.383 . S
C2478 C2477 1.379 . S
H2479 C2473 0.959 . S
H2480 C2473 0.961 . S
H2481 C2473 0.960 . S
H2482 C2474 0.930 . S
H2483 C2475 0.929 . S
H2484 C2492 0.929 . S
H2485 C2494 0.930 . S
H2486 C2496 0.930 . S
H2487 C2499 0.929 . S
H2488 C2502 0.930 . S
H2489 C2504 0.960 . S
H2490 C2504 0.960 . S
H2491 C2504 0.960 . S
C2492 H2484 0.929 . S
C2492 C2493 1.377 . S
C2492 C2494 1.384 . S
C2493 C2492 1.377 . S
C2493 C2499 1.390 . S
C2494 H2485 0.930 . S
C2494 C2492 1.384 . S
C2494 C2495 1.372 . S
C2495 C2494 1.372 . S
C2495 C2496 1.400 . S
C2495 C2500 1.490 1_565 S
C2496 H2486 0.930 . S
C2496 C2495 1.400 . S
C2496 C2499 1.386 . S
H2497 C2513 0.930 . S
H2498 C2514 0.931 . S
C2499 H2487 0.929 . S
C2499 C2493 1.390 . S
C2499 C2496 1.386 . S
C2500 C2495 1.490 1_545 S
C2500 C2502 1.395 . S
C2500 C2503 1.403 1_545 S
H2501 C2507 0.930 . S
C2502 H2488 0.930 . S
C2502 C2500 1.395 . S
C2502 C2505 1.403 . S
C2503 C2500 1.403 1_565 S
C2503 C2504 1.524 . S
C2503 C2507 1.400 1_565 S
C2504 H2489 0.960 . S
C2504 H2490 0.960 . S
C2504 H2491 0.960 . S
C2504 C2503 1.524 . S
C2505 C2502 1.403 . S
C2505 C2506 1.392 . S
C2505 C2509 1.495 . S
C2506 C2505 1.392 . S
C2506 C2507 1.385 . S
C2506 C2508 1.478 . S
C2507 H2501 0.930 . S
C2507 C2503 1.400 1_545 S
C2507 C2506 1.385 . S
C2508 C2506 1.478 . S
C2508 C2510 1.381 . S
C2508 C2514 1.383 . S
C2509 C2505 1.495 . S
C2509 H2515 0.959 . S
C2509 H2516 0.961 . S
C2509 H2517 0.960 . S
C2510 C2508 1.381 . S
C2510 C2511 1.394 . S
C2510 H2518 0.930 . S
C2511 C2510 1.394 . S
C2511 C2512 1.383 . S
C2511 H2519 0.929 . S
C2512 C2511 1.383 . S
C2512 C2513 1.377 . S
C2513 H2497 0.930 . S
C2513 C2512 1.377 . S
C2513 C2514 1.379 . S
C2514 H2498 0.931 . S
C2514 C2508 1.383 . S
C2514 C2513 1.379 . S
H2515 C2509 0.959 . S
H2516 C2509 0.961 . S
H2517 C2509 0.960 . S
H2518 C2510 0.930 . S
H2519 C2511 0.929 . S
H2520 C2528 0.929 . S
H2521 C2530 0.930 . S
H2522 C2532 0.930 . S
H2523 C2535 0.929 . S
H2524 C2538 0.930 . S
H2525 C2540 0.960 . S
H2526 C2540 0.960 . S
H2527 C2540 0.960 . S
C2528 H2520 0.929 . S
C2528 C2529 1.377 . S
C2528 C2530 1.384 . S
C2529 C2528 1.377 . S
C2529 C2535 1.390 . S
C2530 H2521 0.930 . S
C2530 C2528 1.384 . S
C2530 C2531 1.372 . S
C2531 C2530 1.372 . S
C2531 C2532 1.400 . S
C2531 C2536 1.490 . S
C2532 H2522 0.930 . S
C2532 C2531 1.400 . S
C2532 C2535 1.386 . S
H2533 C2549 0.930 . S
H2534 C2550 0.931 . S
C2535 H2523 0.929 . S
C2535 C2529 1.390 . S
C2535 C2532 1.386 . S
C2536 C2531 1.490 . S
C2536 C2538 1.395 . S
C2536 C2539 1.403 . S
H2537 C2543 0.930 . S
C2538 H2524 0.930 . S
C2538 C2536 1.395 . S
C2538 C2541 1.403 . S
C2539 C2536 1.403 . S
C2539 C2540 1.524 1_655 S
C2539 C2543 1.400 1_655 S
C2540 H2525 0.960 . S
C2540 H2526 0.960 . S
C2540 H2527 0.960 . S
C2540 C2539 1.524 1_455 S
C2541 C2538 1.403 . S
C2541 C2542 1.392 . S
C2541 C2545 1.495 . S
C2542 C2541 1.392 . S
C2542 C2543 1.385 1_655 S
C2542 C2544 1.478 1_655 S
C2543 H2537 0.930 . S
C2543 C2539 1.400 1_455 S
C2543 C2542 1.385 1_455 S
C2544 C2542 1.478 1_455 S
C2544 C2546 1.381 . S
C2544 C2550 1.383 . S
C2545 C2541 1.495 . S
C2545 H2551 0.959 . S
C2545 H2552 0.961 . S
C2545 H2553 0.960 . S
C2546 C2544 1.381 . S
C2546 C2547 1.394 . S
C2546 H2554 0.930 . S
C2547 C2546 1.394 . S
C2547 C2548 1.383 . S
C2547 H2555 0.929 . S
C2548 C2547 1.383 . S
C2548 C2549 1.377 . S
C2549 H2533 0.930 . S
C2549 C2548 1.377 . S
C2549 C2550 1.379 . S
C2550 H2534 0.931 . S
C2550 C2544 1.383 . S
C2550 C2549 1.379 . S
H2551 C2545 0.959 . S
H2552 C2545 0.961 . S
H2553 C2545 0.960 . S
H2554 C2546 0.930 . S
H2555 C2547 0.929 . S
H2556 C2564 0.929 . S
H2557 C2566 0.930 . S
H2558 C2568 0.930 . S
H2559 C2571 0.929 . S
H2560 C2574 0.930 . S
H2561 C2576 0.960 . S
H2562 C2576 0.960 . S
H2563 C2576 0.960 . S
C2564 H2556 0.929 . S
C2564 C2565 1.377 . S
C2564 C2566 1.384 . S
C2565 C2564 1.377 . S
C2565 C2571 1.390 . S
C2566 H2557 0.930 . S
C2566 C2564 1.384 . S
C2566 C2567 1.372 . S
C2567 C2566 1.372 . S
C2567 C2568 1.400 . S
C2567 C2572 1.490 . S
C2568 H2558 0.930 . S
C2568 C2567 1.400 . S
C2568 C2571 1.386 . S
H2569 C2585 0.930 . S
H2570 C2586 0.931 . S
C2571 H2559 0.929 . S
C2571 C2565 1.390 . S
C2571 C2568 1.386 . S
C2572 C2567 1.490 . S
C2572 C2574 1.395 . S
C2572 C2575 1.403 . S
H2573 C2579 0.930 . S
C2574 H2560 0.930 . S
C2574 C2572 1.395 . S
C2574 C2577 1.403 . S
C2575 C2572 1.403 . S
C2575 C2576 1.524 . S
C2575 C2579 1.400 . S
C2576 H2561 0.960 . S
C2576 H2562 0.960 . S
C2576 H2563 0.960 . S
C2576 C2575 1.524 . S
C2577 C2574 1.403 . S
C2577 C2578 1.392 . S
C2577 C2581 1.495 . S
C2578 C2577 1.392 . S
C2578 C2579 1.385 . S
C2578 C2580 1.478 . S
C2579 H2573 0.930 . S
C2579 C2575 1.400 . S
C2579 C2578 1.385 . S
C2580 C2578 1.478 . S
C2580 C2582 1.381 . S
C2580 C2586 1.383 . S
C2581 C2577 1.495 . S
C2581 H2587 0.959 . S
C2581 H2588 0.961 . S
C2581 H2589 0.960 . S
C2582 C2580 1.381 . S
C2582 C2583 1.394 . S
C2582 H2590 0.930 . S
C2583 C2582 1.394 . S
C2583 C2584 1.383 . S
C2583 H2591 0.929 . S
C2584 C2583 1.383 . S
C2584 C2585 1.377 . S
C2585 H2569 0.930 . S
C2585 C2584 1.377 . S
C2585 C2586 1.379 . S
C2586 H2570 0.931 . S
C2586 C2580 1.383 . S
C2586 C2585 1.379 . S
H2587 C2581 0.959 . S
H2588 C2581 0.961 . S
H2589 C2581 0.960 . S
H2590 C2582 0.930 . S
H2591 C2583 0.929 . S
H2592 C2600 0.929 . S
H2593 C2602 0.930 1_565 S
H2594 C2604 0.930 . S
H2595 C2607 0.929 . S
H2596 C2610 0.930 . S
H2597 C2612 0.960 . S
H2598 C2612 0.960 . S
H2599 C2612 0.960 . S
C2600 H2592 0.929 . S
C2600 C2601 1.377 . S
C2600 C2602 1.384 . S
C2601 C2600 1.377 . S
C2601 C2607 1.390 . S
C2602 H2593 0.930 1_545 S
C2602 C2600 1.384 . S
C2602 C2603 1.372 . S
C2603 C2602 1.372 . S
C2603 C2604 1.400 . S
C2603 C2608 1.490 1_545 S
C2604 H2594 0.930 . S
C2604 C2603 1.400 . S
C2604 C2607 1.386 . S
H2605 C2621 0.930 . S
H2606 C2622 0.931 . S
C2607 H2595 0.929 . S
C2607 C2601 1.390 . S
C2607 C2604 1.386 . S
C2608 C2603 1.490 1_565 S
C2608 C2610 1.395 . S
C2608 C2611 1.403 1_565 S
H2609 C2615 0.931 1_545 S
C2610 H2596 0.930 . S
C2610 C2608 1.395 . S
C2610 C2613 1.403 . S
C2611 C2608 1.403 1_545 S
C2611 C2612 1.524 . S
C2611 C2615 1.400 1_545 S
C2612 H2597 0.960 . S
C2612 H2598 0.960 . S
C2612 H2599 0.960 . S
C2612 C2611 1.524 . S
C2613 C2610 1.403 . S
C2613 C2614 1.392 . S
C2613 C2617 1.495 . S
C2614 C2613 1.392 . S
C2614 C2615 1.385 . S
C2614 C2616 1.478 . S
C2615 H2609 0.931 1_565 S
C2615 C2611 1.400 1_565 S
C2615 C2614 1.385 . S
C2616 C2614 1.478 . S
C2616 C2618 1.381 . S
C2616 C2622 1.383 . S
C2617 C2613 1.495 . S
C2617 H2623 0.959 . S
C2617 H2624 0.961 . S
C2617 H2625 0.960 . S
C2618 C2616 1.381 . S
C2618 C2619 1.394 . S
C2618 H2626 0.930 . S
C2619 C2618 1.394 . S
C2619 C2620 1.383 . S
C2619 H2627 0.929 . S
C2620 C2619 1.383 . S
C2620 C2621 1.377 . S
C2621 H2605 0.930 . S
C2621 C2620 1.377 . S
C2621 C2622 1.379 . S
C2622 H2606 0.931 . S
C2622 C2616 1.383 . S
C2622 C2621 1.379 . S
H2623 C2617 0.959 . S
H2624 C2617 0.961 . S
H2625 C2617 0.960 . S
H2626 C2618 0.930 . S
H2627 C2619 0.929 . S
H2628 C2636 0.929 . S
H2629 C2638 0.930 . S
H2630 C2640 0.930 . S
H2631 C2643 0.929 . S
H2632 C2646 0.930 . S
H2633 C2648 0.960 . S
H2634 C2648 0.960 . S
H2635 C2648 0.960 . S
C2636 H2628 0.929 . S
C2636 C2637 1.377 . S
C2636 C2638 1.384 . S
C2637 C2636 1.377 . S
C2637 C2643 1.390 . S
C2638 H2629 0.930 . S
C2638 C2636 1.384 . S
C2638 C2639 1.372 . S
C2639 C2638 1.372 . S
C2639 C2640 1.400 . S
C2639 C2644 1.490 . S
C2640 H2630 0.930 . S
C2640 C2639 1.400 . S
C2640 C2643 1.386 . S
H2641 C2657 0.930 . S
H2642 C2658 0.931 . S
C2643 H2631 0.929 . S
C2643 C2637 1.390 . S
C2643 C2640 1.386 . S
C2644 C2639 1.490 . S
C2644 C2646 1.395 . S
C2644 C2647 1.403 . S
H2645 C2651 0.930 . S
C2646 H2632 0.930 . S
C2646 C2644 1.395 . S
C2646 C2649 1.403 . S
C2647 C2644 1.403 . S
C2647 C2648 1.524 1_455 S
C2647 C2651 1.400 1_455 S
C2648 H2633 0.960 . S
C2648 H2634 0.960 . S
C2648 H2635 0.960 . S
C2648 C2647 1.524 1_655 S
C2649 C2646 1.403 . S
C2649 C2650 1.392 . S
C2649 C2653 1.495 . S
C2650 C2649 1.392 . S
C2650 C2651 1.385 1_455 S
C2650 C2652 1.478 1_455 S
C2651 H2645 0.930 . S
C2651 C2647 1.400 1_655 S
C2651 C2650 1.385 1_655 S
C2652 C2650 1.478 1_655 S
C2652 C2654 1.381 . S
C2652 C2658 1.383 . S
C2653 C2649 1.495 . S
C2653 H2659 0.959 . S
C2653 H2660 0.961 . S
C2653 H2661 0.960 . S
C2654 C2652 1.381 . S
C2654 C2655 1.394 . S
C2654 H2662 0.930 . S
C2655 C2654 1.394 . S
C2655 C2656 1.383 . S
C2655 H2663 0.929 . S
C2656 C2655 1.383 . S
C2656 C2657 1.377 . S
C2657 H2641 0.930 . S
C2657 C2656 1.377 . S
C2657 C2658 1.379 . S
C2658 H2642 0.931 . S
C2658 C2652 1.383 . S
C2658 C2657 1.379 . S
H2659 C2653 0.959 . S
H2660 C2653 0.961 . S
H2661 C2653 0.960 . S
H2662 C2654 0.930 . S
H2663 C2655 0.929 . S
H2664 C2672 0.929 . S
H2665 C2674 0.930 . S
H2666 C2676 0.930 . S
H2667 C2679 0.929 . S
H2668 C2682 0.930 . S
H2669 C2684 0.960 . S
H2670 C2684 0.960 . S
H2671 C2684 0.960 . S
C2672 H2664 0.929 . S
C2672 C2673 1.377 . S
C2672 C2674 1.384 . S
C2673 C2672 1.377 . S
C2673 C2679 1.390 . S
C2674 H2665 0.930 . S
C2674 C2672 1.384 . S
C2674 C2675 1.372 . S
C2675 C2674 1.372 . S
C2675 C2676 1.400 . S
C2675 C2680 1.490 . S
C2676 H2666 0.930 . S
C2676 C2675 1.400 . S
C2676 C2679 1.386 . S
H2677 C2693 0.930 . S
H2678 C2694 0.931 . S
C2679 H2667 0.929 . S
C2679 C2673 1.390 . S
C2679 C2676 1.386 . S
C2680 C2675 1.490 . S
C2680 C2682 1.395 . S
C2680 C2683 1.403 . S
H2681 C2687 0.930 . S
C2682 H2668 0.930 . S
C2682 C2680 1.395 . S
C2682 C2685 1.403 . S
C2683 C2680 1.403 . S
C2683 C2684 1.524 . S
C2683 C2687 1.400 . S
C2684 H2669 0.960 . S
C2684 H2670 0.960 . S
C2684 H2671 0.960 . S
C2684 C2683 1.524 . S
C2685 C2682 1.403 . S
C2685 C2686 1.392 . S
C2685 C2689 1.495 . S
C2686 C2685 1.392 . S
C2686 C2687 1.385 . S
C2686 C2688 1.478 . S
C2687 H2681 0.930 . S
C2687 C2683 1.400 . S
C2687 C2686 1.385 . S
C2688 C2686 1.478 . S
C2688 C2690 1.381 . S
C2688 C2694 1.383 . S
C2689 C2685 1.495 . S
C2689 H2695 0.959 . S
C2689 H2696 0.961 . S
C2689 H2697 0.960 . S
C2690 C2688 1.381 . S
C2690 C2691 1.394 . S
C2690 H2698 0.930 . S
C2691 C2690 1.394 . S
C2691 C2692 1.383 . S
C2691 H2699 0.929 . S
C2692 C2691 1.383 . S
C2692 C2693 1.377 . S
C2693 H2677 0.930 . S
C2693 C2692 1.377 . S
C2693 C2694 1.379 . S
C2694 H2678 0.931 . S
C2694 C2688 1.383 . S
C2694 C2693 1.379 . S
H2695 C2689 0.959 . S
H2696 C2689 0.961 . S
H2697 C2689 0.960 . S
H2698 C2690 0.930 . S
H2699 C2691 0.929 . S
H2700 C2708 0.929 . S
H2701 C2710 0.930 . S
H2702 C2712 0.930 . S
H2703 C2715 0.929 . S
H2704 C2718 0.930 . S
H2705 C2720 0.960 . S
H2706 C2720 0.960 . S
H2707 C2720 0.960 . S
C2708 H2700 0.929 . S
C2708 C2709 1.377 . S
C2708 C2710 1.384 . S
C2709 C2708 1.377 . S
C2709 C2715 1.390 . S
C2710 H2701 0.930 . S
C2710 C2708 1.384 . S
C2710 C2711 1.372 . S
C2711 C2710 1.372 . S
C2711 C2712 1.400 . S
C2711 C2716 1.490 . S
C2712 H2702 0.930 . S
C2712 C2711 1.400 . S
C2712 C2715 1.386 . S
H2713 C2729 0.930 . S
H2714 C2730 0.931 . S
C2715 H2703 0.929 . S
C2715 C2709 1.390 . S
C2715 C2712 1.386 . S
C2716 C2711 1.490 . S
C2716 C2718 1.395 . S
C2716 C2719 1.403 . S
H2717 C2723 0.930 . S
C2718 H2704 0.930 . S
C2718 C2716 1.395 . S
C2718 C2721 1.403 1_565 S
C2719 C2716 1.403 . S
C2719 C2720 1.524 . S
C2719 C2723 1.400 . S
C2720 H2705 0.960 . S
C2720 H2706 0.960 . S
C2720 H2707 0.960 . S
C2720 C2719 1.524 . S
C2721 C2718 1.403 1_545 S
C2721 C2722 1.392 . S
C2721 C2725 1.495 . S
C2722 C2721 1.392 . S
C2722 C2723 1.385 1_545 S
C2722 C2724 1.478 . S
C2723 H2717 0.930 . S
C2723 C2719 1.400 . S
C2723 C2722 1.385 1_565 S
C2724 C2722 1.478 . S
C2724 C2726 1.381 . S
C2724 C2730 1.383 . S
C2725 C2721 1.495 . S
C2725 H2731 0.959 . S
C2725 H2732 0.961 . S
C2725 H2733 0.960 . S
C2726 C2724 1.381 . S
C2726 C2727 1.394 . S
C2726 H2734 0.930 1_545 S
C2727 C2726 1.394 . S
C2727 C2728 1.383 . S
C2727 H2735 0.929 . S
C2728 C2727 1.383 . S
C2728 C2729 1.377 . S
C2729 H2713 0.930 . S
C2729 C2728 1.377 . S
C2729 C2730 1.379 . S
C2730 H2714 0.931 . S
C2730 C2724 1.383 . S
C2730 C2729 1.379 . S
H2731 C2725 0.959 . S
H2732 C2725 0.961 . S
H2733 C2725 0.960 . S
H2734 C2726 0.930 1_565 S
H2735 C2727 0.929 . S
H2736 C2744 0.929 . S
H2737 C2746 0.930 . S
H2738 C2748 0.930 . S
H2739 C2751 0.929 . S
H2740 C2754 0.930 . S
H2741 C2756 0.960 . S
H2742 C2756 0.960 . S
H2743 C2756 0.960 . S
C2744 H2736 0.929 . S
C2744 C2745 1.377 . S
C2744 C2746 1.384 . S
C2745 C2744 1.377 . S
C2745 C2751 1.390 . S
C2746 H2737 0.930 . S
C2746 C2744 1.384 . S
C2746 C2747 1.372 . S
C2747 C2746 1.372 . S
C2747 C2748 1.400 . S
C2747 C2752 1.490 . S
C2748 H2738 0.930 . S
C2748 C2747 1.400 . S
C2748 C2751 1.386 . S
H2749 C2765 0.930 . S
H2750 C2766 0.931 . S
C2751 H2739 0.929 . S
C2751 C2745 1.390 . S
C2751 C2748 1.386 . S
C2752 C2747 1.490 . S
C2752 C2754 1.395 . S
C2752 C2755 1.434 . S
H2753 C2759 0.930 . S
C2754 H2740 0.930 . S
C2754 C2752 1.395 . S
C2754 C2757 1.403 . S
C2755 C2752 1.434 . S
C2755 C2756 1.524 1_455 S
C2755 C2759 1.368 1_455 S
C2756 H2741 0.960 . S
C2756 H2742 0.960 . S
C2756 H2743 0.960 . S
C2756 C2755 1.524 1_655 S
C2757 C2754 1.403 . S
C2757 C2758 1.392 . S
C2757 C2761 1.495 . S
C2758 C2757 1.392 . S
C2758 C2759 1.385 1_455 S
C2758 C2760 1.478 1_455 S
C2759 H2753 0.930 . S
C2759 C2755 1.368 1_655 S
C2759 C2758 1.385 1_655 S
C2760 C2758 1.478 1_655 S
C2760 C2762 1.381 . S
C2760 C2766 1.383 . S
C2761 C2757 1.495 . S
C2761 H2767 0.959 . S
C2761 H2768 0.961 . S
C2761 H2769 0.960 . S
C2762 C2760 1.381 . S
C2762 C2763 1.394 . S
C2762 H2770 0.930 . S
C2763 C2762 1.394 . S
C2763 C2764 1.383 . S
C2763 H2771 0.929 . S
C2764 C2763 1.383 . S
C2764 C2765 1.377 . S
C2765 H2749 0.930 . S
C2765 C2764 1.377 . S
C2765 C2766 1.379 . S
C2766 H2750 0.931 . S
C2766 C2760 1.383 . S
C2766 C2765 1.379 . S
H2767 C2761 0.959 . S
H2768 C2761 0.961 . S
H2769 C2761 0.960 . S
H2770 C2762 0.930 . S
H2771 C2763 0.929 . S
H2772 C2780 0.929 . S
H2773 C2782 0.930 . S
H2774 C2784 0.930 . S
H2775 C2787 0.929 . S
H2776 C2790 0.930 . S
H2777 C2792 0.960 . S
H2778 C2792 0.960 . S
H2779 C2792 0.960 . S
C2780 H2772 0.929 . S
C2780 C2781 1.377 . S
C2780 C2782 1.384 . S
C2781 C2780 1.377 . S
C2781 C2787 1.390 . S
C2782 H2773 0.930 . S
C2782 C2780 1.384 . S
C2782 C2783 1.372 . S
C2783 C2782 1.372 . S
C2783 C2784 1.400 . S
C2783 C2788 1.490 . S
C2784 H2774 0.930 . S
C2784 C2783 1.400 . S
C2784 C2787 1.386 . S
H2785 C2801 0.930 . S
H2786 C2802 0.931 . S
C2787 H2775 0.929 . S
C2787 C2781 1.390 . S
C2787 C2784 1.386 . S
C2788 C2783 1.490 . S
C2788 C2790 1.395 . S
C2788 C2791 1.403 . S
H2789 C2795 0.930 . S
C2790 H2776 0.930 . S
C2790 C2788 1.395 . S
C2790 C2793 1.403 . S
C2791 C2788 1.403 . S
C2791 C2792 1.524 . S
C2791 C2795 1.400 . S
C2792 H2777 0.960 . S
C2792 H2778 0.960 . S
C2792 H2779 0.960 . S
C2792 C2791 1.524 . S
C2793 C2790 1.403 . S
C2793 C2794 1.392 . S
C2793 C2797 1.495 . S
C2794 C2793 1.392 . S
C2794 C2795 1.385 . S
C2794 C2796 1.478 . S
C2795 H2789 0.930 . S
C2795 C2791 1.400 . S
C2795 C2794 1.385 . S
C2796 C2794 1.478 . S
C2796 C2798 1.381 . S
C2796 C2802 1.383 . S
C2797 C2793 1.495 . S
C2797 H2803 0.959 . S
C2797 H2804 0.961 . S
C2797 H2805 0.960 . S
C2798 C2796 1.381 . S
C2798 C2799 1.394 . S
C2798 H2806 0.930 . S
C2799 C2798 1.394 . S
C2799 C2800 1.383 . S
C2799 H2807 0.929 . S
C2800 C2799 1.383 . S
C2800 C2801 1.377 . S
C2801 H2785 0.930 . S
C2801 C2800 1.377 . S
C2801 C2802 1.379 . S
C2802 H2786 0.931 . S
C2802 C2796 1.383 . S
C2802 C2801 1.379 . S
H2803 C2797 0.959 . S
H2804 C2797 0.961 . S
H2805 C2797 0.960 . S
H2806 C2798 0.930 . S
H2807 C2799 0.929 . S
H2808 C2816 0.929 . S
H2809 C2818 0.930 . S
H2810 C2820 0.930 . S
H2811 C2823 0.929 . S
H2812 C2826 0.930 . S
H2813 C2828 0.960 . S
H2814 C2828 0.960 . S
H2815 C2828 0.960 . S
C2816 H2808 0.929 . S
C2816 C2817 1.377 . S
C2816 C2818 1.384 . S
C2817 C2816 1.377 . S
C2817 C2823 1.390 . S
C2818 H2809 0.930 . S
C2818 C2816 1.384 . S
C2818 C2819 1.372 . S
C2819 C2818 1.372 . S
C2819 C2820 1.400 . S
C2819 C2824 1.490 . S
C2820 H2810 0.930 . S
C2820 C2819 1.400 . S
C2820 C2823 1.386 . S
H2821 C2837 0.930 . S
H2822 C2838 0.931 1_545 S
C2823 H2811 0.929 . S
C2823 C2817 1.390 . S
C2823 C2820 1.386 . S
C2824 C2819 1.490 . S
C2824 C2826 1.395 . S
C2824 C2827 1.403 . S
H2825 C2831 0.930 1_565 S
C2826 H2812 0.930 . S
C2826 C2824 1.395 . S
C2826 C2829 1.403 . S
C2827 C2824 1.403 . S
C2827 C2828 1.524 . S
C2827 C2831 1.400 . S
C2828 H2813 0.960 . S
C2828 H2814 0.960 . S
C2828 H2815 0.960 . S
C2828 C2827 1.524 . S
C2829 C2826 1.403 . S
C2829 C2830 1.383 1_545 S
C2829 C2833 1.495 . S
C2830 C2829 1.383 1_565 S
C2830 C2831 1.378 1_565 S
C2830 C2832 1.494 . S
C2831 H2825 0.930 1_545 S
C2831 C2827 1.400 . S
C2831 C2830 1.378 1_545 S
C2832 C2830 1.494 . S
C2832 C2834 1.381 . S
C2832 C2838 1.383 . S
C2833 C2829 1.495 . S
C2833 H2839 0.959 . S
C2833 H2840 0.961 . S
C2833 H2841 0.960 1_545 S
C2834 C2832 1.381 . S
C2834 C2835 1.394 . S
C2834 H2842 0.930 . S
C2835 C2834 1.394 . S
C2835 C2836 1.383 . S
C2835 H2843 0.929 . S
C2836 C2835 1.383 . S
C2836 C2837 1.377 . S
C2837 H2821 0.930 . S
C2837 C2836 1.377 . S
C2837 C2838 1.379 . S
C2838 H2822 0.931 1_565 S
C2838 C2832 1.383 . S
C2838 C2837 1.379 . S
H2839 C2833 0.959 . S
H2840 C2833 0.961 . S
H2841 C2833 0.960 1_565 S
H2842 C2834 0.930 . S
H2843 C2835 0.929 . S
H2844 C2852 0.929 . S
H2845 C2854 0.930 . S
H2846 C2856 0.930 . S
H2847 C2859 0.929 . S
H2848 C2862 0.930 . S
H2849 C2864 0.960 . S
H2850 C2864 0.960 . S
H2851 C2864 0.960 . S
C2852 H2844 0.929 . S
C2852 C2853 1.377 . S
C2852 C2854 1.384 . S
C2853 C2852 1.377 . S
C2853 C2859 1.390 . S
C2854 H2845 0.930 . S
C2854 C2852 1.384 . S
C2854 C2855 1.372 . S
C2855 C2854 1.372 . S
C2855 C2856 1.400 . S
C2855 C2860 1.490 . S
C2856 H2846 0.930 . S
C2856 C2855 1.400 . S
C2856 C2859 1.386 . S
H2857 C2873 0.930 . S
H2858 C2874 0.931 . S
C2859 H2847 0.929 . S
C2859 C2853 1.390 . S
C2859 C2856 1.386 . S
C2860 C2855 1.490 . S
C2860 C2862 1.395 . S
C2860 C2863 1.403 1_455 S
H2861 C2867 0.930 . S
C2862 H2848 0.930 . S
C2862 C2860 1.395 . S
C2862 C2865 1.403 . S
C2863 C2860 1.403 1_655 S
C2863 C2864 1.524 . S
C2863 C2867 1.400 . S
C2864 H2849 0.960 . S
C2864 H2850 0.960 . S
C2864 H2851 0.960 . S
C2864 C2863 1.524 . S
C2865 C2862 1.403 . S
C2865 C2866 1.392 1_455 S
C2865 C2869 1.495 . S
C2866 C2865 1.392 1_655 S
C2866 C2867 1.385 . S
C2866 C2868 1.478 . S
C2867 H2861 0.930 . S
C2867 C2863 1.400 . S
C2867 C2866 1.385 . S
C2868 C2866 1.478 . S
C2868 C2870 1.381 . S
C2868 C2874 1.383 . S
C2869 C2865 1.495 . S
C2869 H2875 0.959 . S
C2869 H2876 0.961 . S
C2869 H2877 0.960 . S
C2870 C2868 1.381 . S
C2870 C2871 1.394 . S
C2870 H2878 0.930 . S
C2871 C2870 1.394 . S
C2871 C2872 1.383 . S
C2871 H2879 0.929 . S
C2872 C2871 1.383 . S
C2872 C2873 1.377 . S
C2873 H2857 0.930 . S
C2873 C2872 1.377 . S
C2873 C2874 1.379 . S
C2874 H2858 0.931 . S
C2874 C2868 1.383 . S
C2874 C2873 1.379 . S
H2875 C2869 0.959 . S
H2876 C2869 0.961 . S
H2877 C2869 0.960 . S
H2878 C2870 0.930 . S
H2879 C2871 0.929 . S
H2880 C2888 0.929 . S
H2881 C2890 0.930 . S
H2882 C2892 0.930 . S
H2883 C2895 0.929 . S
H2884 C2898 0.930 . S
H2885 C2900 0.960 . S
H2886 C2900 0.960 . S
H2887 C2900 0.960 . S
C2888 H2880 0.929 . S
C2888 C2889 1.377 . S
C2888 C2890 1.384 . S
C2889 C2888 1.377 . S
C2889 C2895 1.390 . S
C2890 H2881 0.930 . S
C2890 C2888 1.384 . S
C2890 C2891 1.372 . S
C2891 C2890 1.372 . S
C2891 C2892 1.400 . S
C2891 C2896 1.490 . S
C2892 H2882 0.930 . S
C2892 C2891 1.400 . S
C2892 C2895 1.386 . S
H2893 C2909 0.930 . S
H2894 C2910 0.931 . S
C2895 H2883 0.929 . S
C2895 C2889 1.390 . S
C2895 C2892 1.386 . S
C2896 C2891 1.490 . S
C2896 C2898 1.395 . S
C2896 C2899 1.403 . S
H2897 C2903 0.930 . S
C2898 H2884 0.930 . S
C2898 C2896 1.395 . S
C2898 C2901 1.403 1_655 S
C2899 C2896 1.403 . S
C2899 C2900 1.524 . S
C2899 C2903 1.400 1_655 S
C2900 H2885 0.960 . S
C2900 H2886 0.960 . S
C2900 H2887 0.960 . S
C2900 C2899 1.524 . S
C2901 C2898 1.403 1_455 S
C2901 C2902 1.392 . S
C2901 C2905 1.495 . S
C2902 C2901 1.392 . S
C2902 C2903 1.385 . S
C2902 C2904 1.478 . S
C2903 H2897 0.930 . S
C2903 C2899 1.400 1_455 S
C2903 C2902 1.385 . S
C2904 C2902 1.478 . S
C2904 C2906 1.381 . S
C2904 C2910 1.383 . S
C2905 C2901 1.495 . S
C2905 H2911 0.959 . S
C2905 H2912 0.961 . S
C2905 H2913 0.960 . S
C2906 C2904 1.381 . S
C2906 C2907 1.394 . S
C2906 H2914 0.930 . S
C2907 C2906 1.394 . S
C2907 C2908 1.383 . S
C2907 H2915 0.929 . S
C2908 C2907 1.383 . S
C2908 C2909 1.377 . S
C2909 H2893 0.930 . S
C2909 C2908 1.377 . S
C2909 C2910 1.379 . S
C2910 H2894 0.931 . S
C2910 C2904 1.383 . S
C2910 C2909 1.379 . S
H2911 C2905 0.959 . S
H2912 C2905 0.961 . S
H2913 C2905 0.960 . S
H2914 C2906 0.930 . S
H2915 C2907 0.929 . S
H2916 C2924 0.929 . S
H2917 C2926 0.930 . S
H2918 C2928 0.930 . S
H2919 C2931 0.929 . S
H2920 C2934 0.930 . S
H2921 C2936 0.960 . S
H2922 C2936 0.960 . S
H2923 C2936 0.960 . S
C2924 H2916 0.929 . S
C2924 C2925 1.377 . S
C2924 C2926 1.384 . S
C2925 C2924 1.377 . S
C2925 C2931 1.390 . S
C2926 H2917 0.930 . S
C2926 C2924 1.384 . S
C2926 C2927 1.372 . S
C2927 C2926 1.372 . S
C2927 C2928 1.400 . S
C2927 C2932 1.490 . S
C2928 H2918 0.930 . S
C2928 C2927 1.400 . S
C2928 C2931 1.386 . S
H2929 C2945 0.930 . S
H2930 C2946 0.931 . S
C2931 H2919 0.929 . S
C2931 C2925 1.390 . S
C2931 C2928 1.386 . S
C2932 C2927 1.490 . S
C2932 C2934 1.395 . S
C2932 C2935 1.403 . S
H2933 C2939 0.930 . S
C2934 H2920 0.930 . S
C2934 C2932 1.395 . S
C2934 C2937 1.403 . S
C2935 C2932 1.403 . S
C2935 C2936 1.524 . S
C2935 C2939 1.400 . S
C2936 H2921 0.960 . S
C2936 H2922 0.960 . S
C2936 H2923 0.960 . S
C2936 C2935 1.524 . S
C2937 C2934 1.403 . S
C2937 C2938 1.392 . S
C2937 C2941 1.495 . S
C2938 C2937 1.392 . S
C2938 C2939 1.385 . S
C2938 C2940 1.478 . S
C2939 H2933 0.930 . S
C2939 C2935 1.400 . S
C2939 C2938 1.385 . S
C2940 C2938 1.478 . S
C2940 C2942 1.381 . S
C2940 C2946 1.383 . S
C2941 C2937 1.495 . S
C2941 H2947 0.959 . S
C2941 H2948 0.961 . S
C2941 H2949 0.960 . S
C2942 C2940 1.381 . S
C2942 C2943 1.394 . S
C2942 H2950 0.930 . S
C2943 C2942 1.394 . S
C2943 C2944 1.383 . S
C2943 H2951 0.929 . S
C2944 C2943 1.383 . S
C2944 C2945 1.377 . S
C2945 H2929 0.930 . S
C2945 C2944 1.377 . S
C2945 C2946 1.379 . S
C2946 H2930 0.931 . S
C2946 C2940 1.383 . S
C2946 C2945 1.379 . S
H2947 C2941 0.959 . S
H2948 C2941 0.961 . S
H2949 C2941 0.960 . S
H2950 C2942 0.930 . S
H2951 C2943 0.929 . S
H2952 C2960 0.929 . S
H2953 C2962 0.930 . S
H2954 C2964 0.930 . S
H2955 C2967 0.929 . S
H2956 C2970 0.930 . S
H2957 C2972 0.960 . S
H2958 C2972 0.960 . S
H2959 C2972 0.960 . S
C2960 H2952 0.929 . S
C2960 C2961 1.377 . S
C2960 C2962 1.384 . S
C2961 C2960 1.377 . S
C2961 C2967 1.390 . S
C2962 H2953 0.930 . S
C2962 C2960 1.384 . S
C2962 C2963 1.372 . S
C2963 C2962 1.372 . S
C2963 C2964 1.400 . S
C2963 C2968 1.490 . S
C2964 H2954 0.930 . S
C2964 C2963 1.400 . S
C2964 C2967 1.386 . S
H2965 C2981 0.930 . S
H2966 C2982 0.931 . S
C2967 H2955 0.929 . S
C2967 C2961 1.390 . S
C2967 C2964 1.386 . S
C2968 C2963 1.490 . S
C2968 C2970 1.395 . S
C2968 C2971 1.403 . S
H2969 C2975 0.930 . S
C2970 H2956 0.930 . S
C2970 C2968 1.395 . S
C2970 C2973 1.403 1_565 S
C2971 C2968 1.403 . S
C2971 C2972 1.524 . S
C2971 C2975 1.400 1_565 S
C2972 H2957 0.960 . S
C2972 H2958 0.960 . S
C2972 H2959 0.960 . S
C2972 C2971 1.524 . S
C2973 C2970 1.403 1_545 S
C2973 C2974 1.392 . S
C2973 C2977 1.495 . S
C2974 C2973 1.392 . S
C2974 C2975 1.385 . S
C2974 C2976 1.478 . S
C2975 H2969 0.930 . S
C2975 C2971 1.400 1_545 S
C2975 C2974 1.385 . S
C2976 C2974 1.478 . S
C2976 C2978 1.381 . S
C2976 C2982 1.383 . S
C2977 C2973 1.495 . S
C2977 H2983 0.959 . S
C2977 H2984 0.961 . S
C2977 H2985 0.960 . S
C2978 C2976 1.381 . S
C2978 C2979 1.394 . S
C2978 H2986 0.930 . S
C2979 C2978 1.394 . S
C2979 C2980 1.383 . S
C2979 H2987 0.929 . S
C2980 C2979 1.383 . S
C2980 C2981 1.377 . S
C2981 H2965 0.930 . S
C2981 C2980 1.377 . S
C2981 C2982 1.379 . S
C2982 H2966 0.931 . S
C2982 C2976 1.383 . S
C2982 C2981 1.379 . S
H2983 C2977 0.959 . S
H2984 C2977 0.961 . S
H2985 C2977 0.960 . S
H2986 C2978 0.930 . S
H2987 C2979 0.929 . S
H2988 C2996 0.929 . S
H2989 C2998 0.930 . S
H2990 C3000 0.930 . S
H2991 C3003 0.929 . S
H2992 C3006 0.930 . S
H2993 C3008 0.927 1_545 S
H2994 C3008 0.960 . S
H2995 C3008 0.960 . S
C2996 H2988 0.929 . S
C2996 C2997 1.377 . S
C2996 C2998 1.384 . S
C2997 C2996 1.377 . S
C2997 C3003 1.390 . S
C2998 H2989 0.930 . S
C2998 C2996 1.384 . S
C2998 C2999 1.372 . S
C2999 C2998 1.372 . S
C2999 C3000 1.400 . S
C2999 C3004 1.490 . S
C3000 H2990 0.930 . S
C3000 C2999 1.400 . S
C3000 C3003 1.386 . S
H3001 C3017 0.930 . S
H3002 C3018 0.931 . S
C3003 H2991 0.929 . S
C3003 C2997 1.390 . S
C3003 C3000 1.386 . S
C3004 C2999 1.490 . S
C3004 C3006 1.395 . S
C3004 C3007 1.403 . S
H3005 C3011 0.930 . S
C3006 H2992 0.930 . S
C3006 C3004 1.395 . S
C3006 C3009 1.403 1_565 S
C3007 C3004 1.403 . S
C3007 C3008 1.524 . S
C3007 C3011 1.400 1_565 S
C3008 H2993 0.927 1_565 S
C3008 H2994 0.960 . S
C3008 H2995 0.960 . S
C3008 C3007 1.524 . S
C3009 C3006 1.403 1_545 S
C3009 C3010 1.392 . S
C3009 C3013 1.495 . S
C3010 C3009 1.392 . S
C3010 C3011 1.385 . S
C3010 C3012 1.478 . S
C3011 H3005 0.930 . S
C3011 C3007 1.400 1_545 S
C3011 C3010 1.385 . S
C3012 C3010 1.478 . S
C3012 C3014 1.381 . S
C3012 C3018 1.383 . S
C3013 C3009 1.495 . S
C3013 H3019 0.938 1_545 S
C3013 H3020 0.961 . S
C3013 H3021 0.960 . S
C3014 C3012 1.381 . S
C3014 C3015 1.394 . S
C3014 H3022 0.930 . S
C3015 C3014 1.394 . S
C3015 C3016 1.383 . S
C3015 H3023 0.929 . S
C3016 C3015 1.383 . S
C3016 C3017 1.377 . S
C3017 H3001 0.930 . S
C3017 C3016 1.377 . S
C3017 C3018 1.379 . S
C3018 H3002 0.931 . S
C3018 C3012 1.383 . S
C3018 C3017 1.379 . S
H3019 C3013 0.938 1_565 S
H3020 C3013 0.961 . S
H3021 C3013 0.960 . S
H3022 C3014 0.930 . S
H3023 C3015 0.929 . S
H3024 C3032 0.929 . S
H3025 C3034 0.930 . S
H3026 C3036 0.930 . S
H3027 C3039 0.929 . S
H3028 C3042 0.930 . S
H3029 C3044 0.968 . S
H3030 C3044 0.960 . S
H3031 C3044 0.960 . S
C3032 H3024 0.929 . S
C3032 C3033 1.377 . S
C3032 C3034 1.384 . S
C3033 C3032 1.377 . S
C3033 C3039 1.390 . S
C3034 H3025 0.930 . S
C3034 C3032 1.384 . S
C3034 C3035 1.372 . S
C3035 C3034 1.372 . S
C3035 C3036 1.400 . S
C3035 C3040 1.490 . S
C3036 H3026 0.930 . S
C3036 C3035 1.400 . S
C3036 C3039 1.386 . S
H3037 C3053 0.930 . S
H3038 C3054 0.931 . S
C3039 H3027 0.929 . S
C3039 C3033 1.390 . S
C3039 C3036 1.386 . S
C3040 C3035 1.490 . S
C3040 C3042 1.395 . S
C3040 C3043 1.403 . S
H3041 C3047 0.930 . S
C3042 H3028 0.930 . S
C3042 C3040 1.395 . S
C3042 C3045 1.403 1_655 S
C3043 C3040 1.403 . S
C3043 C3044 1.524 . S
C3043 C3047 1.400 1_655 S
C3044 H3029 0.968 . S
C3044 H3030 0.960 . S
C3044 H3031 0.960 . S
C3044 C3043 1.524 . S
C3045 C3042 1.403 1_455 S
C3045 C3046 1.392 . S
C3045 C3049 1.495 . S
C3046 C3045 1.392 . S
C3046 C3047 1.385 . S
C3046 C3048 1.478 . S
C3047 H3041 0.930 . S
C3047 C3043 1.400 1_455 S
C3047 C3046 1.385 . S
C3048 C3046 1.478 . S
C3048 C3050 1.381 . S
C3048 C3054 1.383 . S
C3049 C3045 1.495 . S
C3049 H3055 0.959 1_455 S
C3049 H3056 0.961 . S
C3049 H3057 0.960 . S
C3050 C3048 1.381 . S
C3050 C3051 1.394 . S
C3050 H3058 0.930 . S
C3051 C3050 1.394 . S
C3051 C3052 1.383 . S
C3051 H3059 0.929 . S
C3052 C3051 1.383 . S
C3052 C3053 1.377 . S
C3053 H3037 0.930 . S
C3053 C3052 1.377 . S
C3053 C3054 1.379 . S
C3054 H3038 0.931 . S
C3054 C3048 1.383 . S
C3054 C3053 1.379 . S
H3055 C3049 0.959 1_655 S
H3056 C3049 0.961 . S
H3057 C3049 0.960 . S
H3058 C3050 0.930 . S
H3059 C3051 0.929 . S
H3060 C3068 0.929 . S
H3061 C3070 0.930 . S
H3062 C3072 0.930 . S
H3063 C3075 0.929 . S
H3064 C3078 0.930 . S
H3065 C3080 0.960 . S
H3066 C3080 0.960 . S
H3067 C3080 0.960 . S
C3068 H3060 0.929 . S
C3068 C3069 1.377 . S
C3068 C3070 1.384 . S
C3069 C3068 1.377 . S
C3069 C3075 1.390 . S
C3070 H3061 0.930 . S
C3070 C3068 1.384 . S
C3070 C3071 1.372 . S
C3071 C3070 1.372 . S
C3071 C3072 1.400 . S
C3071 C3076 1.490 . S
C3072 H3062 0.930 . S
C3072 C3071 1.400 . S
C3072 C3075 1.386 . S
H3073 C3089 0.930 . S
H3074 C3090 0.931 . S
C3075 H3063 0.929 . S
C3075 C3069 1.390 . S
C3075 C3072 1.386 . S
C3076 C3071 1.490 . S
C3076 C3078 1.395 . S
C3076 C3079 1.403 . S
H3077 C3083 0.930 . S
C3078 H3064 0.930 . S
C3078 C3076 1.395 . S
C3078 C3081 1.403 . S
C3079 C3076 1.403 . S
C3079 C3080 1.524 . S
C3079 C3083 1.400 . S
C3080 H3065 0.960 . S
C3080 H3066 0.960 . S
C3080 H3067 0.960 . S
C3080 C3079 1.524 . S
C3081 C3078 1.403 . S
C3081 C3082 1.392 . S
C3081 C3085 1.495 . S
C3082 C3081 1.392 . S
C3082 C3083 1.385 . S
C3082 C3084 1.478 . S
C3083 H3077 0.930 . S
C3083 C3079 1.400 . S
C3083 C3082 1.385 . S
C3084 C3082 1.478 . S
C3084 C3086 1.381 . S
C3084 C3090 1.383 . S
C3085 C3081 1.495 . S
C3085 H3091 0.959 . S
C3085 H3092 0.961 . S
C3085 H3093 0.960 . S
C3086 C3084 1.381 . S
C3086 C3087 1.394 . S
C3086 H3094 0.930 . S
C3087 C3086 1.394 . S
C3087 C3088 1.383 . S
C3087 H3095 0.929 . S
C3088 C3087 1.383 . S
C3088 C3089 1.377 . S
C3089 H3073 0.930 . S
C3089 C3088 1.377 . S
C3089 C3090 1.379 . S
C3090 H3074 0.931 . S
C3090 C3084 1.383 . S
C3090 C3089 1.379 . S
H3091 C3085 0.959 . S
H3092 C3085 0.961 . S
H3093 C3085 0.960 . S
H3094 C3086 0.930 . S
H3095 C3087 0.929 . S
C513 C8 1.263 . S
C532 C260 1.237 . S
C549 C17 1.383 . S
C568 C273 1.361 . S
C585 C287 1.374 . S
C604 C31 1.325 . S
C621 C45 1.356 . S
C640 C469 1.388 . S
C657 C483 1.380 . S
C676 C59 1.388 . S
C693 C78 1.263 . S
C712 C498 1.237 . S
C729 C344 1.261 . S
C748 C92 1.242 . S
C765 C105 1.383 . S
C784 C353 1.362 . S
C801 C119 1.376 . S
C820 C367 1.329 . S
C837 C133 1.373 . S
C856 C213 1.326 . S
C873 C227 1.378 . S
C892 C147 1.403 . S
C909 C162 1.257 . S
C928 C246 1.275 . S
C945 C176 1.261 . S
C964 C428 1.259 . S
C981 C185 1.377 . S
C1000 C441 1.404 . S
C1017 C199 1.361 . S
C1036 C455 1.361 . S
C1053 C301 1.371 . S
C1072 C381 1.380 . S
C1089 C315 1.381 . S
C1108 C395 1.373 . S
C1125 C330 1.256 . S
C1144 C414 1.252 . S
C1161 C101 1.213 . S
C1180 C3 1.187 . S
C1197 C115 1.281 . S
C1216 C22 1.299 . S
C1233 C36 1.228 . S
C1252 C93 1.161 . S
C1269 C163 1.181 . S
C1288 C50 1.214 . S
C1305 C129 1.279 . S
C1324 C64 1.309 . S
C1341 C143 1.205 . S
C1360 C73 1.207 . S
C1377 C91 1.255 . S
C1396 C21 1.253 . S
C1413 C106 1.339 . S
C1432 C35 1.301 . S
C1449 C120 1.261 . S
C1468 C9 1.219 . S
C1485 C134 1.262 . S
C1504 C79 1.242 . S
C1521 C49 1.299 . S
C1540 C148 1.341 . S
C1557 C63 1.231 . S
C1576 C161 1.262 . S
C1593 C171 1.215 . S
C1612 C269 1.187 . S
C1629 C190 1.310 . S
C1648 C283 1.301 . S
C1665 C204 1.231 . S
C1684 C261 1.134 . S
C1701 C331 1.181 . S
C1720 C218 1.223 . S
C1737 C232 1.309 . S
C1756 C297 1.284 . S
C1773 C311 1.212 . S
C1792 C241 1.204 . S
C1809 C259 1.251 . S
C1828 C189 1.264 . S
C1845 C203 1.307 . S
C1864 C274 1.324 . S
C1881 C177 1.222 . S
C1900 C288 1.269 . S
C1917 C302 1.259 . S
C1936 C247 1.213 . S
C1953 C316 1.336 . S
C1972 C217 1.273 . S
C1989 C329 1.253 . S
C2008 C231 1.261 . S
C2025 C437 1.202 . S
C2044 C339 1.237 . S
C2061 C358 1.310 . S
C2080 C451 1.300 . S
C2097 C372 1.230 . S
C2116 C429 1.136 . S
C2133 C499 1.178 . S
C2152 C386 1.230 . S
C2169 C465 1.280 . S
C2188 C400 1.298 . S
C2205 C479 1.212 . S
C2224 C409 1.186 . S
C2241 C357 1.240 . S
C2260 C427 1.264 . S
C2277 C371 1.309 . S
C2296 C442 1.339 . S
C2313 C345 1.214 . S
C2332 C456 1.260 . S
C2349 C470 1.259 . S
C2368 C415 1.202 . S
C2385 C385 1.307 . S
C2404 C484 1.324 . S
C2421 C497 1.255 . S
C2440 C399 1.207 . S
C2457 C7 0.762 . S
C2476 C413 0.731 . S
C2493 C387 0.794 . S
C2512 C23 0.849 . S
C2529 C37 0.794 . S
C2548 C401 0.846 . S
C2565 C51 0.816 . S
C2584 C191 0.763 . S
C2601 C205 0.796 . S
C2620 C65 0.814 . S
C2637 C77 0.756 . S
C2656 C175 0.782 . S
C2673 C325 0.792 . S
C2692 C87 0.820 . S
C2709 C107 0.831 . S
C2728 C303 0.830 . S
C2745 C121 0.823 . S
C2764 C317 0.847 . S
C2781 C135 0.822 . S
C2800 C443 0.788 . S
C2817 C149 0.817 . S
C2836 C457 0.814 . S
C2853 C423 0.783 . S
C2872 C157 0.771 . S
C2889 C219 0.809 . S
C2908 C359 0.757 . S
C2925 C373 0.795 . S
C2944 C233 0.836 . S
C2961 C343 0.763 . S
C2980 C245 0.786 . S
C2997 C493 0.792 . S
C3016 C255 0.821 . S
C3033 C275 0.834 . S
C3052 C471 0.869 . S
C3069 C289 0.825 . S
C3088 C485 0.799 . S
