# Generated by pormake.
# Topology uox, (4)-cn, num edge types: 1
# Building blocks:
#     Node 0, Type 0, BuildingBlock: CEKHIL_clean_sbu_0, # of connection points: 4
#     Node 1, Type 0, BuildingBlock: CEKHIL_clean_sbu_0, # of connection points: 4
#     Node 2, Type 0, BuildingBlock: CEKHIL_clean_sbu_0, # of connection points: 4
#     Node 3, Type 0, BuildingBlock: CEKHIL_clean_sbu_0, # of connection points: 4
#     Node 4, Type 0, BuildingBlock: CEKHIL_clean_sbu_0, # of connection points: 4
#     Node 5, Type 0, BuildingBlock: CEKHIL_clean_sbu_0, # of connection points: 4
#     Node 6, Type 0, BuildingBlock: CEKHIL_clean_sbu_0, # of connection points: 4
#     Node 7, Type 0, BuildingBlock: CEKHIL_clean_sbu_0, # of connection points: 4
#     Node 8, Type 0, BuildingBlock: CEKHIL_clean_sbu_0, # of connection points: 4
#     Node 9, Type 0, BuildingBlock: CEKHIL_clean_sbu_0, # of connection points: 4
#     Node 10, Type 0, BuildingBlock: CEKHIL_clean_sbu_0, # of connection points: 4
#     Node 11, Type 0, BuildingBlock: CEKHIL_clean_sbu_0, # of connection points: 4
#     Node 12, Type 0, BuildingBlock: CEKHIL_clean_sbu_0, # of connection points: 4
#     Node 13, Type 0, BuildingBlock: CEKHIL_clean_sbu_0, # of connection points: 4
#     Node 14, Type 0, BuildingBlock: CEKHIL_clean_sbu_0, # of connection points: 4
#     Node 15, Type 0, BuildingBlock: CEKHIL_clean_sbu_0, # of connection points: 4
#     Node 16, Type 0, BuildingBlock: CEKHIL_clean_sbu_0, # of connection points: 4
#     Node 17, Type 0, BuildingBlock: CEKHIL_clean_sbu_0, # of connection points: 4
#     Node 18, Type 0, BuildingBlock: CEKHIL_clean_sbu_0, # of connection points: 4
#     Node 19, Type 0, BuildingBlock: CEKHIL_clean_sbu_0, # of connection points: 4
#     Node 20, Type 0, BuildingBlock: CEKHIL_clean_sbu_0, # of connection points: 4
#     Node 21, Type 0, BuildingBlock: CEKHIL_clean_sbu_0, # of connection points: 4
#     Node 22, Type 0, BuildingBlock: CEKHIL_clean_sbu_0, # of connection points: 4
#     Node 23, Type 0, BuildingBlock: CEKHIL_clean_sbu_0, # of connection points: 4
#     Node 24, Type 0, BuildingBlock: CEKHIL_clean_sbu_0, # of connection points: 4
#     Node 25, Type 0, BuildingBlock: CEKHIL_clean_sbu_0, # of connection points: 4
#     Node 26, Type 0, BuildingBlock: CEKHIL_clean_sbu_0, # of connection points: 4
#     Node 27, Type 0, BuildingBlock: CEKHIL_clean_sbu_0, # of connection points: 4
#     Node 28, Type 0, BuildingBlock: CEKHIL_clean_sbu_0, # of connection points: 4
#     Node 29, Type 0, BuildingBlock: CEKHIL_clean_sbu_0, # of connection points: 4
#     Node 30, Type 0, BuildingBlock: CEKHIL_clean_sbu_0, # of connection points: 4
#     Node 31, Type 0, BuildingBlock: CEKHIL_clean_sbu_0, # of connection points: 4
#     Edge 32, Type (0, 0), BuildingBlock: AJUNOK_clean_linker_0, # of connection points: 2
#     Edge 33, Type (0, 0), BuildingBlock: AJUNOK_clean_linker_0, # of connection points: 2
#     Edge 34, Type (0, 0), BuildingBlock: AJUNOK_clean_linker_0, # of connection points: 2
#     Edge 35, Type (0, 0), BuildingBlock: AJUNOK_clean_linker_0, # of connection points: 2
#     Edge 36, Type (0, 0), BuildingBlock: AJUNOK_clean_linker_0, # of connection points: 2
#     Edge 37, Type (0, 0), BuildingBlock: AJUNOK_clean_linker_0, # of connection points: 2
#     Edge 38, Type (0, 0), BuildingBlock: AJUNOK_clean_linker_0, # of connection points: 2
#     Edge 39, Type (0, 0), BuildingBlock: AJUNOK_clean_linker_0, # of connection points: 2
#     Edge 40, Type (0, 0), BuildingBlock: AJUNOK_clean_linker_0, # of connection points: 2
#     Edge 41, Type (0, 0), BuildingBlock: AJUNOK_clean_linker_0, # of connection points: 2
#     Edge 42, Type (0, 0), BuildingBlock: AJUNOK_clean_linker_0, # of connection points: 2
#     Edge 43, Type (0, 0), BuildingBlock: AJUNOK_clean_linker_0, # of connection points: 2
#     Edge 44, Type (0, 0), BuildingBlock: AJUNOK_clean_linker_0, # of connection points: 2
#     Edge 45, Type (0, 0), BuildingBlock: AJUNOK_clean_linker_0, # of connection points: 2
#     Edge 46, Type (0, 0), BuildingBlock: AJUNOK_clean_linker_0, # of connection points: 2
#     Edge 47, Type (0, 0), BuildingBlock: AJUNOK_clean_linker_0, # of connection points: 2
#     Edge 48, Type (0, 0), BuildingBlock: AJUNOK_clean_linker_0, # of connection points: 2
#     Edge 49, Type (0, 0), BuildingBlock: AJUNOK_clean_linker_0, # of connection points: 2
#     Edge 50, Type (0, 0), BuildingBlock: AJUNOK_clean_linker_0, # of connection points: 2
#     Edge 51, Type (0, 0), BuildingBlock: AJUNOK_clean_linker_0, # of connection points: 2
#     Edge 52, Type (0, 0), BuildingBlock: AJUNOK_clean_linker_0, # of connection points: 2
#     Edge 53, Type (0, 0), BuildingBlock: AJUNOK_clean_linker_0, # of connection points: 2
#     Edge 54, Type (0, 0), BuildingBlock: AJUNOK_clean_linker_0, # of connection points: 2
#     Edge 55, Type (0, 0), BuildingBlock: AJUNOK_clean_linker_0, # of connection points: 2
#     Edge 56, Type (0, 0), BuildingBlock: AJUNOK_clean_linker_0, # of connection points: 2
#     Edge 57, Type (0, 0), BuildingBlock: AJUNOK_clean_linker_0, # of connection points: 2
#     Edge 58, Type (0, 0), BuildingBlock: AJUNOK_clean_linker_0, # of connection points: 2
#     Edge 59, Type (0, 0), BuildingBlock: AJUNOK_clean_linker_0, # of connection points: 2
#     Edge 60, Type (0, 0), BuildingBlock: AJUNOK_clean_linker_0, # of connection points: 2
#     Edge 61, Type (0, 0), BuildingBlock: AJUNOK_clean_linker_0, # of connection points: 2
#     Edge 62, Type (0, 0), BuildingBlock: AJUNOK_clean_linker_0, # of connection points: 2
#     Edge 63, Type (0, 0), BuildingBlock: AJUNOK_clean_linker_0, # of connection points: 2
#     Edge 64, Type (0, 0), BuildingBlock: AJUNOK_clean_linker_0, # of connection points: 2
#     Edge 65, Type (0, 0), BuildingBlock: AJUNOK_clean_linker_0, # of connection points: 2
#     Edge 66, Type (0, 0), BuildingBlock: AJUNOK_clean_linker_0, # of connection points: 2
#     Edge 67, Type (0, 0), BuildingBlock: AJUNOK_clean_linker_0, # of connection points: 2
#     Edge 68, Type (0, 0), BuildingBlock: AJUNOK_clean_linker_0, # of connection points: 2
#     Edge 69, Type (0, 0), BuildingBlock: AJUNOK_clean_linker_0, # of connection points: 2
#     Edge 70, Type (0, 0), BuildingBlock: AJUNOK_clean_linker_0, # of connection points: 2
#     Edge 71, Type (0, 0), BuildingBlock: AJUNOK_clean_linker_0, # of connection points: 2
#     Edge 72, Type (0, 0), BuildingBlock: AJUNOK_clean_linker_0, # of connection points: 2
#     Edge 73, Type (0, 0), BuildingBlock: AJUNOK_clean_linker_0, # of connection points: 2
#     Edge 74, Type (0, 0), BuildingBlock: AJUNOK_clean_linker_0, # of connection points: 2
#     Edge 75, Type (0, 0), BuildingBlock: AJUNOK_clean_linker_0, # of connection points: 2
#     Edge 76, Type (0, 0), BuildingBlock: AJUNOK_clean_linker_0, # of connection points: 2
#     Edge 77, Type (0, 0), BuildingBlock: AJUNOK_clean_linker_0, # of connection points: 2
#     Edge 78, Type (0, 0), BuildingBlock: AJUNOK_clean_linker_0, # of connection points: 2
#     Edge 79, Type (0, 0), BuildingBlock: AJUNOK_clean_linker_0, # of connection points: 2
#     Edge 80, Type (0, 0), BuildingBlock: AJUNOK_clean_linker_0, # of connection points: 2
#     Edge 81, Type (0, 0), BuildingBlock: AJUNOK_clean_linker_0, # of connection points: 2
#     Edge 82, Type (0, 0), BuildingBlock: AJUNOK_clean_linker_0, # of connection points: 2
#     Edge 83, Type (0, 0), BuildingBlock: AJUNOK_clean_linker_0, # of connection points: 2
#     Edge 84, Type (0, 0), BuildingBlock: AJUNOK_clean_linker_0, # of connection points: 2
#     Edge 85, Type (0, 0), BuildingBlock: AJUNOK_clean_linker_0, # of connection points: 2
#     Edge 86, Type (0, 0), BuildingBlock: AJUNOK_clean_linker_0, # of connection points: 2
#     Edge 87, Type (0, 0), BuildingBlock: AJUNOK_clean_linker_0, # of connection points: 2
#     Edge 88, Type (0, 0), BuildingBlock: AJUNOK_clean_linker_0, # of connection points: 2
#     Edge 89, Type (0, 0), BuildingBlock: AJUNOK_clean_linker_0, # of connection points: 2
#     Edge 90, Type (0, 0), BuildingBlock: AJUNOK_clean_linker_0, # of connection points: 2
#     Edge 91, Type (0, 0), BuildingBlock: AJUNOK_clean_linker_0, # of connection points: 2
#     Edge 92, Type (0, 0), BuildingBlock: AJUNOK_clean_linker_0, # of connection points: 2
#     Edge 93, Type (0, 0), BuildingBlock: AJUNOK_clean_linker_0, # of connection points: 2
#     Edge 94, Type (0, 0), BuildingBlock: AJUNOK_clean_linker_0, # of connection points: 2
#     Edge 95, Type (0, 0), BuildingBlock: AJUNOK_clean_linker_0, # of connection points: 2
# Relax obj value: 0.060
# Max RMSD: 0.090
# Mean RMSD: 0.090
data_MOF--net-uox--node1-CEKHIL_clean_sbu_0--edge1-AJUNOK_clean_linker_0
_symmetry_space_group_name_H-M    P1
_symmetry_Int_Tables_number       1
_symmetry_cell_setting            triclinic
loop_
_symmetry_equiv_pos_as_xyz
'x, y, z'
_cell_length_a     33.596372
_cell_length_b     33.586394
_cell_length_c     56.62862
_cell_angle_alpha  90.000748
_cell_angle_beta   90.002616
_cell_angle_gamma 90.001232
loop_
_atom_site_label
_atom_site_type_symbol
_atom_site_fract_x
_atom_site_fract_y
_atom_site_fract_z
_atom_type_partial_charge
Co0 Co 0.42235 0.05951 0.17087 0.0
O1 O 0.43798 0.01847 0.19322 0.0
O2 O 0.39188 0.06377 0.20012 0.0
C3 C 0.4847 0.07999 0.16078 0.0
O4 O 0.39944 0.10779 0.15279 0.0
Co5 Co 0.44415 0.05254 0.11791 0.0
O6 O 0.4296 0.10968 0.11737 0.0
C7 C 0.37895 1.00307 0.13668 0.0
C8 C 0.4122 0.03344 0.20778 0.0
C9 C 0.40809 0.12579 0.13325 0.0
O10 O 0.38146 0.02169 0.15659 0.0
O11 O 0.4031 0.00923 0.11959 0.0
O12 O 0.4677 0.09243 0.18002 0.0
O13 O 0.46543 0.05237 0.1497 0.0
Co14 Co 0.19966 0.17219 0.42074 0.0
O15 O 0.23884 0.19199 0.44286 0.0
O16 O 0.19763 0.14267 0.4506 0.0
C17 C 0.17602 0.23282 0.40949 0.0
O18 O 0.15336 0.14563 0.40266 0.0
Co19 Co 0.20787 0.19154 0.3676 0.0
O20 O 0.15174 0.1737 0.36664 0.0
C21 C 0.2584 0.1287 0.38781 0.0
C22 C 0.22594 0.16606 0.45798 0.0
C23 C 0.13606 0.15196 0.38258 0.0
O24 O 0.23964 0.13266 0.40754 0.0
O25 O 0.25171 0.15106 0.36993 0.0
O26 O 0.16392 0.21594 0.42884 0.0
O27 O 0.20493 0.21459 0.39894 0.0
Co28 Co 0.08556 0.9502 0.67071 0.0
O29 O 0.06851 0.99017 0.69342 0.0
O30 O 0.1159 0.94617 0.70001 0.0
C31 C 0.02413 0.928 0.66009 0.0
O32 O 0.11017 0.90305 0.6524 0.0
Co33 Co 0.06395 0.95724 0.6177 0.0
O34 O 0.07983 0.90041 0.61705 0.0
C35 C 0.12801 0.00791 0.63684 0.0
C36 C 0.09457 0.97558 0.70795 0.0
C37 C 0.1019 0.88488 0.63287 0.0
O38 O 0.12547 0.98947 0.65682 0.0
O39 O 0.10432 1.00111 0.61961 0.0
O40 O 0.04116 0.9155 0.67931 0.0
O41 O 0.0425 0.95664 0.64942 0.0
Co42 Co 0.3077 0.83747 0.92116 0.0
O43 O 0.26789 0.81893 0.94338 0.0
O44 O 0.30967 0.86804 0.95057 0.0
C45 C 0.33081 0.77609 0.91074 0.0
O46 O 0.35495 0.86277 0.90328 0.0
Co47 Co 0.30163 0.81637 0.8681 0.0
O48 O 0.35859 0.83159 0.86822 0.0
C49 C 0.2509 0.8806 0.88683 0.0
C50 C 0.28094 0.84538 0.95815 0.0
C51 C 0.37374 0.85388 0.88404 0.0
O52 O 0.26835 0.87713 0.90705 0.0
O53 O 0.2583 0.85742 0.86943 0.0
O54 O 0.34266 0.79337 0.93003 0.0
O55 O 0.3025 0.79448 0.89975 0.0
Co56 Co 0.42243 0.94771 0.34173 0.0
O57 O 0.43809 0.98821 0.31902 0.0
O58 O 0.39179 0.94297 0.31259 0.0
C59 C 0.48485 0.9274 0.35188 0.0
O60 O 0.39934 0.89991 0.36016 0.0
Co61 Co 0.44479 0.95527 0.39466 0.0
O62 O 0.42972 0.89829 0.39554 0.0
C63 C 0.37948 1.00459 0.37577 0.0
C64 C 0.41229 0.97293 0.30458 0.0
C65 C 0.4079 0.88218 0.3798 0.0
O66 O 0.38178 0.98587 0.35589 0.0
O67 O 0.40379 0.99854 0.39281 0.0
O68 O 0.46775 0.91448 0.33278 0.0
O69 O 0.46557 0.95518 0.36279 0.0
Co70 Co 0.31051 0.17363 0.59282 0.0
O71 O 0.27319 0.1937 0.56971 0.0
O72 O 0.31334 0.14291 0.5634 0.0
C73 C 0.3355 0.23379 0.6039 0.0
O74 O 0.35503 0.1466 0.61225 0.0
Co75 Co 0.29886 0.19558 0.6454 0.0
O76 O 0.35443 0.17642 0.64774 0.0
C77 C 0.24886 0.13248 0.62512 0.0
C78 C 0.28608 0.16679 0.55522 0.0
C79 C 0.37075 0.15331 0.63275 0.0
O80 O 0.26874 0.13556 0.60571 0.0
O81 O 0.25481 0.15541 0.64283 0.0
O82 O 0.34806 0.21599 0.58495 0.0
O83 O 0.30517 0.21707 0.61389 0.0
Co84 Co 0.08463 0.06222 0.84186 0.0
O85 O 0.06823 0.02173 0.81935 0.0
O86 O 0.11438 0.06692 0.81235 0.0
C87 C 0.02268 0.08287 0.85274 0.0
O88 O 0.1083 0.1099 0.86016 0.0
Co89 Co 0.06475 0.05331 0.89488 0.0
O90 O 0.07961 0.11037 0.89603 0.0
C91 C 0.12904 1.00432 0.87482 0.0
C92 C 0.09383 0.03674 0.80469 0.0
C93 C 0.10052 0.12708 0.88009 0.0
O94 O 0.12578 0.02399 0.85533 0.0
O95 O 0.10573 0.00992 0.8924 0.0
O96 O 0.0393 0.09559 0.83345 0.0
O97 O 0.042 0.05476 0.86341 0.0
Co98 Co 0.19573 0.83794 0.09272 0.0
O99 O 0.23308 0.8177 0.06955 0.0
O100 O 0.19297 0.86862 0.06339 0.0
C101 C 0.17066 0.77794 0.10405 0.0
O102 O 0.1511 0.86538 0.11174 0.0
Co103 Co 0.20562 0.81753 0.14553 0.0
O104 O 0.14995 0.83669 0.14755 0.0
C105 C 0.25679 0.87965 0.12511 0.0
C106 C 0.22034 0.84493 0.05519 0.0
C107 C 0.13429 0.85912 0.13196 0.0
O108 O 0.23746 0.87612 0.10553 0.0
O109 O 0.25006 0.85735 0.143 0.0
O110 O 0.15823 0.7955 0.08498 0.0
O111 O 0.20082 0.79484 0.11414 0.0
Co112 Co 0.58408 0.95098 0.84334 0.0
O113 O 0.56374 0.98813 0.8202 0.0
O114 O 0.61466 0.94817 0.81388 0.0
C115 C 0.52413 0.92576 0.85456 0.0
O116 O 0.61145 0.9066 0.86272 0.0
Co117 Co 0.56253 0.96254 0.89594 0.0
O118 O 0.58193 0.90702 0.89828 0.0
C119 C 0.6248 0.01323 0.87539 0.0
C120 C 0.59065 0.97531 0.80569 0.0
C121 C 0.60494 0.89079 0.88321 0.0
O122 O 0.62193 0.99308 0.85607 0.0
O123 O 0.60203 0.00716 0.89316 0.0
O124 O 0.54189 0.91317 0.8356 0.0
O125 O 0.54073 0.95622 0.86449 0.0
Co126 Co 0.80911 0.83725 0.59288 0.0
O127 O 0.76987 0.81725 0.57084 0.0
O128 O 0.81052 0.86708 0.56316 0.0
C129 C 0.83359 0.77689 0.60383 0.0
O130 O 0.85569 0.86404 0.61065 0.0
Co131 Co 0.80372 0.81697 0.64611 0.0
O132 O 0.86062 0.83257 0.64559 0.0
C133 C 0.75105 0.87924 0.62677 0.0
C134 C 0.7825 0.84338 0.55576 0.0
C135 C 0.87505 0.85524 0.6297 0.0
O136 O 0.76876 0.87612 0.60661 0.0
O137 O 0.75908 0.85654 0.64429 0.0
O138 O 0.84523 0.79395 0.58443 0.0
O139 O 0.80469 0.79465 0.6146 0.0
Co140 Co 0.92214 0.06012 0.34333 0.0
O141 O 0.93715 0.0205 0.31995 0.0
O142 O 0.8907 0.06593 0.3145 0.0
C143 C 0.9848 0.08014 0.35312 0.0
O144 O 0.89973 0.10715 0.36281 0.0
Co145 Co 0.94631 0.04928 0.3958 0.0
O146 O 0.92953 0.10558 0.39833 0.0
C147 C 0.88007 1.00159 0.37682 0.0
C148 C 0.91095 0.03621 0.30595 0.0
C149 C 0.9078 0.12308 0.38309 0.0
O150 O 0.88182 0.02143 0.3573 0.0
O151 O 0.90506 0.00635 0.39363 0.0
O152 O 0.96714 0.09377 0.33438 0.0
O153 O 0.96597 0.05175 0.36374 0.0
Co154 Co 0.69722 0.17576 0.09251 0.0
O155 O 0.73531 0.19612 0.06986 0.0
O156 O 0.69505 0.14567 0.06288 0.0
C157 C 0.67228 0.23583 0.10374 0.0
O158 O 0.6519 0.14835 0.11102 0.0
Co159 Co 0.70583 0.19586 0.14547 0.0
O160 O 0.6501 0.17679 0.14691 0.0
C161 C 0.75716 0.13358 0.12534 0.0
C162 C 0.72257 0.16957 0.05506 0.0
C163 C 0.6347 0.1545 0.13114 0.0
O164 O 0.73837 0.13727 0.10559 0.0
O165 O 0.75009 0.15584 0.14321 0.0
O166 O 0.66021 0.21845 0.08454 0.0
O167 O 0.70203 0.21867 0.11409 0.0
Co168 Co 0.58544 0.06083 0.6711 0.0
O169 O 0.56591 0.02173 0.69333 0.0
O170 O 0.61553 0.06274 0.70076 0.0
C171 C 0.52441 0.08439 0.66065 0.0
O172 O 0.61183 0.1072 0.65292 0.0
Co173 Co 0.56538 0.05303 0.61826 0.0
O174 O 0.58339 0.1091 0.61704 0.0
C175 C 0.62766 1.00146 0.63807 0.0
C176 C 0.59208 0.03461 0.70829 0.0
C177 C 0.60535 0.12466 0.6329 0.0
O178 O 0.62441 0.02065 0.65768 0.0
O179 O 0.60509 0.00832 0.62031 0.0
O180 O 0.54227 0.09657 0.67966 0.0
O181 O 0.54225 0.05567 0.64964 0.0
Co182 Co 0.69844 0.83552 0.42088 0.0
O183 O 0.737 0.81624 0.44355 0.0
O184 O 0.69525 0.8655 0.45049 0.0
C185 C 0.67572 0.77454 0.40971 0.0
O186 O 0.6525 0.86163 0.40225 0.0
Co187 Co 0.70773 0.81561 0.36789 0.0
O188 O 0.65158 0.8333 0.36631 0.0
C189 C 0.75781 0.87867 0.38829 0.0
C190 C 0.72343 0.84238 0.45832 0.0
C191 C 0.63558 0.85516 0.38207 0.0
O192 O 0.7386 0.87501 0.40789 0.0
O193 O 0.7515 0.85612 0.37045 0.0
O194 O 0.66279 0.79164 0.42881 0.0
O195 O 0.70468 0.79291 0.39932 0.0
Co196 Co 0.92134 0.95265 0.17165 0.0
O197 O 0.93634 0.99321 0.19444 0.0
O198 O 0.89024 0.94766 0.20065 0.0
C199 C 0.98402 0.93263 0.16191 0.0
O200 O 0.89906 0.90471 0.15288 0.0
Co201 Co 0.94481 0.96164 0.11897 0.0
O202 O 0.92891 0.90496 0.11736 0.0
C203 C 0.87897 0.0102 0.13765 0.0
C204 C 0.91031 0.97789 0.20869 0.0
C205 C 0.90745 0.88789 0.13291 0.0
O206 O 0.8807 0.99075 0.15732 0.0
O207 O 0.90388 1.00491 0.12085 0.0
O208 O 0.96662 0.9196 0.18088 0.0
O209 O 0.96491 0.9605 0.15097 0.0
Co210 Co 0.80769 0.17615 0.92026 0.0
O211 O 0.76878 0.19593 0.94259 0.0
O212 O 0.80937 0.14593 0.94987 0.0
C213 C 0.83188 0.23704 0.90964 0.0
O214 O 0.85392 0.14938 0.90209 0.0
Co215 Co 0.80104 0.19745 0.86724 0.0
O216 O 0.85685 0.17862 0.86644 0.0
C217 C 0.74867 0.13502 0.88651 0.0
C218 C 0.78151 0.16959 0.95751 0.0
C219 C 0.87182 0.15606 0.88222 0.0
O220 O 0.76699 0.13758 0.90651 0.0
O221 O 0.75616 0.15819 0.86913 0.0
O222 O 0.84393 0.21943 0.92879 0.0
O223 O 0.80304 0.2192 0.89886 0.0
Co224 Co 0.92256 0.56236 0.67175 0.0
O225 O 0.9419 0.52327 0.69407 0.0
O226 O 0.89298 0.56521 0.70149 0.0
C227 C 0.98334 0.58526 0.66045 0.0
O228 O 0.8967 0.60893 0.6536 0.0
Co229 Co 0.94159 0.55405 0.6186 0.0
O230 O 0.92699 0.6112 0.61822 0.0
C231 C 0.8786 0.50377 0.63891 0.0
C232 C 0.9161 0.53684 0.70906 0.0
C233 C 0.90526 0.62704 0.63409 0.0
O234 O 0.88266 0.52259 0.65863 0.0
O235 O 0.90087 0.51044 0.62099 0.0
O236 O 0.96662 0.59767 0.67978 0.0
O237 O 0.96482 0.55648 0.64994 0.0
Co238 Co 0.69861 0.67615 0.92099 0.0
O239 O 0.73734 0.69604 0.94333 0.0
O240 O 0.69681 0.6459 0.95056 0.0
C241 C 0.67445 0.73698 0.91055 0.0
O242 O 0.65266 0.64925 0.90276 0.0
Co243 Co 0.7064 0.69613 0.86822 0.0
O244 O 0.65055 0.6775 0.86685 0.0
C245 C 0.75857 0.63446 0.8881 0.0
C246 C 0.72467 0.66959 0.95819 0.0
C247 C 0.6352 0.65542 0.88272 0.0
O248 O 0.73928 0.63761 0.90768 0.0
O249 O 0.75152 0.65686 0.87029 0.0
O250 O 0.66236 0.71891 0.92951 0.0
O251 O 0.70342 0.71948 0.89956 0.0
Co252 Co 0.58609 0.45282 0.17038 0.0
O253 O 0.56781 0.492 0.19295 0.0
O254 O 0.61731 0.45035 0.19953 0.0
C255 C 0.52439 0.42978 0.16085 0.0
O256 O 0.61114 0.40595 0.15203 0.0
Co257 Co 0.56366 0.45953 0.11774 0.0
O258 O 0.57903 0.40264 0.11728 0.0
C259 C 0.62736 0.51114 0.13624 0.0
C260 C 0.59428 0.47844 0.20753 0.0
C261 C 0.60174 0.38729 0.13283 0.0
O262 O 0.62492 0.49283 0.15623 0.0
O263 O 0.60379 0.50383 0.11901 0.0
O264 O 0.54284 0.41755 0.17964 0.0
O265 O 0.54213 0.45817 0.1495 0.0
Co266 Co 0.81196 0.33575 0.42278 0.0
O267 O 0.7719 0.31916 0.44549 0.0
O268 O 0.81509 0.36755 0.45159 0.0
C269 C 0.83531 0.27397 0.41347 0.0
O270 O 0.85878 0.36023 0.40411 0.0
Co271 Co 0.80498 0.31153 0.37022 0.0
O272 O 0.86068 0.33064 0.36854 0.0
C273 C 0.75391 0.37612 0.38821 0.0
C274 C 0.78573 0.34623 0.45961 0.0
C275 C 0.87607 0.35335 0.3841 0.0
O276 O 0.77245 0.3745 0.40816 0.0
O277 O 0.76072 0.3517 0.37133 0.0
O278 O 0.847 0.2924 0.43239 0.0
O279 O 0.80659 0.29136 0.40225 0.0
Co280 Co 0.924 0.45337 0.84397 0.0
O281 O 0.94339 0.49233 0.82157 0.0
O282 O 0.89385 0.45102 0.81441 0.0
C283 C 0.98496 0.42989 0.85478 0.0
O284 O 0.89771 0.40701 0.86214 0.0
Co285 Co 0.94464 0.46022 0.89703 0.0
O286 O 0.92678 0.40404 0.89783 0.0
C287 C 0.88199 0.51208 0.87744 0.0
C288 C 0.91718 0.47911 0.80671 0.0
C289 C 0.90453 0.38897 0.88194 0.0
O290 O 0.88488 0.49368 0.85749 0.0
O291 O 0.90507 0.50483 0.8949 0.0
O292 O 0.96766 0.41759 0.83559 0.0
O293 O 0.96678 0.45862 0.86549 0.0
Co294 Co 0.81101 0.67573 0.09255 0.0
O295 O 0.77292 0.69644 0.07008 0.0
O296 O 0.81261 0.64559 0.06294 0.0
C297 C 0.83679 0.73571 0.10357 0.0
O298 O 0.85625 0.64798 0.11097 0.0
Co299 Co 0.80227 0.6957 0.14536 0.0
O300 O 0.85794 0.67648 0.14683 0.0
C301 C 0.75009 0.63433 0.12516 0.0
C302 C 0.78521 0.66975 0.05525 0.0
C303 C 0.87342 0.6542 0.1311 0.0
O304 O 0.76946 0.63765 0.10561 0.0
O305 O 0.75715 0.65653 0.14306 0.0
O306 O 0.84833 0.71793 0.0844 0.0
O307 O 0.80692 0.71893 0.11408 0.0
Co308 Co 0.58765 0.55773 0.34327 0.0
O309 O 0.56807 0.51921 0.32068 0.0
O310 O 0.61742 0.56082 0.31363 0.0
C311 C 0.527 0.58106 0.35461 0.0
O312 O 0.61398 0.60372 0.36164 0.0
Co313 Co 0.56823 0.54903 0.39634 0.0
O314 O 0.58517 0.60548 0.39742 0.0
C315 C 0.63064 0.49813 0.37589 0.0
C316 C 0.59408 0.53283 0.30582 0.0
C317 C 0.60701 0.62123 0.38156 0.0
O318 O 0.62707 0.51731 0.35625 0.0
O319 O 0.60823 0.50481 0.39374 0.0
O320 O 0.54396 0.59362 0.33537 0.0
O321 O 0.5452 0.55196 0.36499 0.0
Co322 Co 0.69844 0.33829 0.59329 0.0
O323 O 0.73882 0.32191 0.5707 0.0
O324 O 0.69415 0.36863 0.56399 0.0
C325 C 0.67744 0.27611 0.60363 0.0
O326 O 0.65093 0.3622 0.61163 0.0
Co327 Co 0.70587 0.31646 0.64624 0.0
O328 O 0.6496 0.33384 0.64755 0.0
C329 C 0.7555 0.38141 0.6272 0.0
C330 C 0.72394 0.34774 0.55613 0.0
C331 C 0.63368 0.35554 0.63168 0.0
O332 O 0.73692 0.3788 0.60728 0.0
O333 O 0.74928 0.35736 0.64434 0.0
O334 O 0.66472 0.29324 0.58449 0.0
O335 O 0.70542 0.29517 0.6145 0.0
Co336 Co 0.08716 0.44988 0.34304 0.0
O337 O 0.07087 0.4904 0.32049 0.0
O338 O 0.11747 0.44556 0.31379 0.0
C339 C 0.0251 0.42873 0.35342 0.0
O340 O 0.11093 0.4022 0.36117 0.0
Co341 Co 0.06564 0.45672 0.39606 0.0
O342 O 0.08235 0.40019 0.39701 0.0
C343 C 0.13073 0.50635 0.37716 0.0
C344 C 0.09662 0.47537 0.30592 0.0
C345 C 0.104 0.38451 0.38104 0.0
O346 O 0.12783 0.48817 0.35712 0.0
O347 O 0.10681 0.4999 0.39433 0.0
O348 O 0.04208 0.41628 0.33418 0.0
O349 O 0.04416 0.45668 0.36434 0.0
Co350 Co 0.3108 0.33737 0.09395 0.0
O351 O 0.27317 0.3175 0.07088 0.0
O352 O 0.31277 0.36875 0.06477 0.0
C353 C 0.33644 0.27698 0.10428 0.0
O354 O 0.35555 0.36444 0.11321 0.0
Co355 Co 0.30136 0.31376 0.14647 0.0
O356 O 0.3566 0.33396 0.14851 0.0
C357 C 0.25057 0.37769 0.1275 0.0
C358 C 0.28552 0.3449 0.05655 0.0
C359 C 0.37193 0.35774 0.13353 0.0
O360 O 0.26901 0.37496 0.10755 0.0
O361 O 0.25747 0.35418 0.14481 0.0
O362 O 0.3485 0.2954 0.08543 0.0
O363 O 0.30634 0.29333 0.11469 0.0
Co364 Co 0.42229 0.5602 0.84382 0.0
O365 O 0.43871 0.51973 0.82133 0.0
O366 O 0.39164 0.56411 0.81463 0.0
C367 C 0.48432 0.58172 0.85394 0.0
O368 O 0.39824 0.60771 0.86206 0.0
Co369 Co 0.4443 0.55348 0.89674 0.0
O370 O 0.42669 0.60973 0.89794 0.0
C371 C 0.38008 0.50275 0.87788 0.0
C372 C 0.41251 0.53424 0.80686 0.0
C373 C 0.40488 0.62531 0.88201 0.0
O374 O 0.38221 0.52146 0.85799 0.0
O375 O 0.40415 0.50932 0.89496 0.0
O376 O 0.46699 0.59415 0.8348 0.0
O377 O 0.46555 0.5537 0.86495 0.0
Co378 Co 0.19917 0.67419 0.59296 0.0
O379 O 0.23939 0.69074 0.57034 0.0
O380 O 0.19547 0.64313 0.56395 0.0
C381 C 0.1764 0.73576 0.60295 0.0
O382 O 0.15198 0.65005 0.6113 0.0
Co383 Co 0.20624 0.69684 0.64574 0.0
O384 O 0.14979 0.67983 0.64679 0.0
C385 C 0.25596 0.63144 0.62741 0.0
C386 C 0.22495 0.66433 0.55597 0.0
C387 C 0.13425 0.65754 0.63107 0.0
O388 O 0.23805 0.63433 0.60729 0.0
O389 O 0.24927 0.65541 0.64453 0.0
O390 O 0.16458 0.71821 0.58376 0.0
O391 O 0.20512 0.71791 0.61391 0.0
Co392 Co 0.08607 0.56106 0.17193 0.0
O393 O 0.0699 0.5205 0.19443 0.0
O394 O 0.11586 0.56593 0.20138 0.0
C395 C 0.02407 0.58136 0.16108 0.0
O396 O 0.10943 0.60894 0.1537 0.0
Co397 Co 0.06633 0.55243 0.11889 0.0
O398 O 0.08016 0.60978 0.118 0.0
C399 C 0.13021 0.50298 0.13902 0.0
C400 C 0.09545 0.53567 0.20906 0.0
C401 C 0.10107 0.62645 0.13396 0.0
O402 O 0.12727 0.52291 0.15843 0.0
O403 O 0.10687 0.50863 0.12145 0.0
O404 O 0.0406 0.59417 0.18038 0.0
O405 O 0.04355 0.55341 0.15037 0.0
Co406 Co 0.19859 0.33643 0.92235 0.0
O407 O 0.23664 0.31641 0.94519 0.0
O408 O 0.19641 0.3671 0.95171 0.0
C409 C 0.17339 0.27645 0.91112 0.0
O410 O 0.15336 0.36361 0.90373 0.0
Co411 Co 0.2075 0.3163 0.86943 0.0
O412 O 0.15154 0.3348 0.86796 0.0
C413 C 0.25884 0.37847 0.88959 0.0
C414 C 0.22418 0.34362 0.95965 0.0
C415 C 0.13605 0.35708 0.88369 0.0
O416 O 0.23979 0.37483 0.90925 0.0
O417 O 0.25193 0.3562 0.87171 0.0
O418 O 0.16149 0.29381 0.93038 0.0
O419 O 0.2033 0.29346 0.90082 0.0
Co420 Co 0.42126 0.44907 0.67275 0.0
O421 O 0.43749 0.48918 0.69556 0.0
O422 O 0.39124 0.4439 0.70208 0.0
C423 C 0.48322 0.42847 0.66193 0.0
O424 O 0.39778 0.40164 0.65423 0.0
Co425 Co 0.44158 0.45836 0.6198 0.0
O426 O 0.42728 0.40116 0.6186 0.0
C427 C 0.37713 0.50722 0.63982 0.0
C428 C 0.41187 0.47378 0.71007 0.0
C429 C 0.40613 0.38441 0.63441 0.0
O430 O 0.38027 0.48753 0.65932 0.0
O431 O 0.4005 0.50163 0.62227 0.0
O432 O 0.46652 0.41554 0.68114 0.0
O433 O 0.464 0.45674 0.65135 0.0
Co434 Co 0.31233 0.67232 0.42239 0.0
O435 O 0.27239 0.68993 0.44488 0.0
O436 O 0.3163 0.6425 0.45187 0.0
C437 C 0.33505 0.73325 0.41126 0.0
O438 O 0.35913 0.64724 0.40414 0.0
Co439 Co 0.30375 0.69218 0.36934 0.0
O440 O 0.36011 0.67489 0.36802 0.0
C441 C 0.25383 0.62864 0.38941 0.0
C442 C 0.2867 0.66389 0.45951 0.0
C443 C 0.37619 0.65357 0.38401 0.0
O444 O 0.27312 0.63206 0.40902 0.0
O445 O 0.25998 0.6516 0.37173 0.0
O446 O 0.34713 0.7166 0.43068 0.0
O447 O 0.30606 0.71502 0.40077 0.0
C448 C 0.4111 0.02905 0.27509 0.0
C449 C 0.40824 0.98796 0.27989 0.0
C450 C 0.4103 0.04373 0.25176 0.0
C451 C 0.40808 0.01779 0.23228 0.0
H452 H 0.41423 0.05003 0.28951 0.0
H453 H 0.41309 0.07551 0.24892 0.0
S454 S 0.39962 0.90782 0.2351 0.0
N455 N 0.40164 0.92176 0.26306 0.0
N456 N 0.40227 0.94915 0.21935 0.0
C457 C 0.40492 0.97674 0.23682 0.0
C458 C 0.40441 0.9619 0.26057 0.0
C459 C 0.26233 0.12999 0.51866 0.0
C460 C 0.27184 0.16592 0.53025 0.0
C461 C 0.24674 0.12992 0.49542 0.0
C462 C 0.24133 0.16568 0.48274 0.0
H463 H 0.2661 0.1019 0.52777 0.0
H464 H 0.23945 0.10171 0.48721 0.0
S465 S 0.26261 0.26746 0.505 0.0
N466 N 0.27466 0.23796 0.52719 0.0
N467 N 0.24709 0.23776 0.48367 0.0
C468 C 0.2514 0.20156 0.4941 0.0
C469 C 0.26616 0.20169 0.51779 0.0
C470 C 0.0955 0.04677 0.76065 0.0
C471 C 0.09785 0.02098 0.7802 0.0
C472 C 0.0949 0.03192 0.73734 0.0
C473 C 0.09814 0.99082 0.73264 0.0
H474 H 0.09252 0.07855 0.76342 0.0
H475 H 0.0917 0.05278 0.72287 0.0
S476 S 0.10713 0.91104 0.77763 0.0
N477 N 0.10399 0.95244 0.79328 0.0
N478 N 0.1052 0.9248 0.74963 0.0
C479 C 0.10207 0.96493 0.75203 0.0
C480 C 0.10127 0.97992 0.77575 0.0
C481 C 0.25487 0.81137 0.99433 0.0
C482 C 0.26541 0.84704 0.98284 0.0
C483 C 0.24073 0.8112 0.0177 0.0
C484 C 0.2351 0.8468 0.03038 0.0
H485 H 0.2583 0.78312 0.98532 0.0
H486 H 0.23362 0.78287 0.02583 0.0
S487 S 0.25732 0.94842 0.00841 0.0
N488 N 0.2695 0.91905 0.98612 0.0
N489 N 0.24096 0.91885 0.02964 0.0
C490 C 0.24483 0.8828 0.01904 0.0
C491 C 0.26052 0.88288 0.99542 0.0
C492 C 0.6277 0.99723 0.76882 0.0
C493 C 0.59161 0.98967 0.78074 0.0
C494 C 0.62805 0.0126 0.74553 0.0
C495 C 0.59233 0.01971 0.73313 0.0
H496 H 0.65577 0.99201 0.7777 0.0
H497 H 0.65638 0.01829 0.73705 0.0
S498 S 0.49013 1.00412 0.75626 0.0
N499 N 0.51945 0.99067 0.77825 0.0
N500 N 0.52011 0.01786 0.73466 0.0
C501 C 0.55626 0.01171 0.74482 0.0
C502 C 0.5559 0.99717 0.76855 0.0
C503 C 0.7463 0.87917 0.49503 0.0
C504 C 0.73776 0.84318 0.48326 0.0
C505 C 0.76152 0.87935 0.51834 0.0
C506 C 0.76739 0.8436 0.53095 0.0
H507 H 0.74202 0.90728 0.486 0.0
H508 H 0.76812 0.90763 0.52666 0.0
S509 S 0.74885 0.74161 0.50818 0.0
N510 N 0.73654 0.77106 0.48601 0.0
N511 N 0.76329 0.77141 0.52973 0.0
C512 C 0.75836 0.80762 0.51939 0.0
C513 C 0.74405 0.80741 0.4956 0.0
C514 C 0.90867 0.98078 0.27604 0.0
C515 C 0.90624 0.02179 0.28116 0.0
C516 C 0.90773 0.96661 0.25259 0.0
C517 C 0.90581 0.99299 0.23331 0.0
H518 H 0.91168 0.95946 0.29028 0.0
H519 H 0.91031 0.93488 0.24951 0.0
S520 S 0.89835 0.10298 0.237 0.0
N521 N 0.90023 0.0884 0.26485 0.0
N522 N 0.90061 0.06198 0.22093 0.0
C523 C 0.90296 0.03397 0.23818 0.0
C524 C 0.90258 0.0483 0.26205 0.0
C525 C 0.76086 0.13324 0.9949 0.0
C526 C 0.76663 0.16911 0.98239 0.0
C527 C 0.7457 0.13319 0.01824 0.0
C528 C 0.73709 0.16906 0.03014 0.0
H529 H 0.76746 0.10506 0.98648 0.0
H530 H 0.74146 0.10499 0.02717 0.0
S531 S 0.74793 0.27086 1.0055 0.0
N532 N 0.76239 0.24128 0.98386 0.0
N533 N 0.73573 0.2412 0.02758 0.0
C534 C 0.74332 0.20495 0.01789 0.0
C535 C 0.75758 0.20497 0.99408 0.0
C536 C 0.88012 0.51449 0.74612 0.0
C537 C 0.91586 0.52253 0.73399 0.0
C538 C 0.88043 0.49964 0.76951 0.0
C539 C 0.91644 0.49367 0.78181 0.0
H540 H 0.85182 0.51896 0.73735 0.0
H541 H 0.85233 0.49345 0.77814 0.0
S542 S 0.01795 0.51093 0.75803 0.0
N543 N 0.98804 0.52314 0.73607 0.0
N544 N 0.9886 0.49709 0.77993 0.0
C545 C 0.95219 0.50216 0.76989 0.0
C546 C 0.9519 0.51608 0.74602 0.0
C547 C 0.76292 0.63325 0.01831 0.0
C548 C 0.77013 0.66919 0.03047 0.0
C549 C 0.74732 0.63319 0.99509 0.0
C550 C 0.73963 0.66907 0.98299 0.0
H551 H 0.76869 0.60506 0.02694 0.0
H552 H 0.74197 0.60496 0.98641 0.0
S553 S 0.75407 0.77101 1.00681 0.0
N554 N 0.76812 0.74142 0.02854 0.0
N555 N 0.7405 0.74129 0.98503 0.0
C556 C 0.74721 0.70502 0.99492 0.0
C557 C 0.76198 0.70508 0.0186 0.0
C558 C 0.63047 0.51421 0.26817 0.0
C559 C 0.5946 0.51883 0.28081 0.0
C560 C 0.63062 0.50026 0.24459 0.0
C561 C 0.59482 0.49183 0.23262 0.0
H562 H 0.6586 0.5208 0.27666 0.0
H563 H 0.65882 0.49681 0.23555 0.0
S564 S 0.49304 0.49938 0.25767 0.0
N565 N 0.52252 0.51332 0.27949 0.0
N566 N 0.52275 0.48891 0.2353 0.0
C567 C 0.55891 0.49672 0.24504 0.0
C568 C 0.55881 0.50973 0.26908 0.0
C569 C 0.78044 0.3481 0.52689 0.0
C570 C 0.73933 0.35145 0.53149 0.0
C571 C 0.79546 0.34851 0.50363 0.0
C572 C 0.76982 0.35084 0.48402 0.0
H573 H 0.80118 0.34487 0.54142 0.0
H574 H 0.82723 0.34534 0.50095 0.0
S575 S 0.65995 0.36047 0.48626 0.0
N576 N 0.67347 0.35859 0.5143 0.0
N577 N 0.70146 0.35722 0.47073 0.0
C578 C 0.72876 0.35448 0.48834 0.0
C579 C 0.71359 0.35539 0.51202 0.0
C580 C 0.09771 0.53146 0.2764 0.0
C581 C 0.10015 0.49036 0.2812 0.0
C582 C 0.09818 0.54608 0.25304 0.0
C583 C 0.09956 0.52004 0.23357 0.0
H584 H 0.09523 0.55251 0.29082 0.0
H585 H 0.09583 0.57788 0.25019 0.0
S586 S 0.10648 0.40996 0.23644 0.0
N587 N 0.10542 0.42403 0.26439 0.0
N588 N 0.10394 0.45127 0.22067 0.0
C589 C 0.10218 0.47897 0.23813 0.0
C590 C 0.10313 0.46419 0.26188 0.0
C591 C 0.26173 0.31055 0.01997 0.0
C592 C 0.27057 0.34643 0.03173 0.0
C593 C 0.24729 0.31019 0.99667 0.0
C594 C 0.23969 0.34573 0.98431 0.0
H595 H 0.26652 0.2823 0.02876 0.0
H596 H 0.24138 0.28171 0.98839 0.0
S597 S 0.25733 0.44783 1.00698 0.0
N598 N 0.27117 0.41862 0.029 0.0
N599 N 0.24218 0.41797 0.98558 0.0
C600 C 0.24793 0.38192 0.99588 0.0
C601 C 0.26389 0.38226 0.01944 0.0
C602 C 0.40886 0.54449 0.7629 0.0
C603 C 0.40832 0.51847 0.78239 0.0
C604 C 0.40946 0.52985 0.73955 0.0
C605 C 0.40807 0.48868 0.73478 0.0
H606 H 0.41047 0.57636 0.76572 0.0
H607 H 0.41125 0.55092 0.7251 0.0
S608 S 0.40392 0.40825 0.7796 0.0
N609 N 0.40552 0.44965 0.79534 0.0
N610 N 0.40453 0.42228 0.75163 0.0
C611 C 0.40586 0.46249 0.75412 0.0
C612 C 0.40658 0.47733 0.77786 0.0
C613 C 0.28146 0.6633 0.52679 0.0
C614 C 0.24033 0.66034 0.53138 0.0
C615 C 0.29646 0.66245 0.50352 0.0
C616 C 0.27077 0.66015 0.48394 0.0
H617 H 0.30223 0.66649 0.5413 0.0
H618 H 0.32826 0.66523 0.50083 0.0
S619 S 0.16081 0.65157 0.48623 0.0
N620 N 0.17438 0.65359 0.51426 0.0
N621 N 0.20233 0.65434 0.47068 0.0
C622 C 0.22968 0.65699 0.48828 0.0
C623 C 0.21453 0.65644 0.51194 0.0
C624 C 0.32994 0.95329 0.15287 0.0
C625 C 0.34701 0.97262 0.13328 0.0
C626 C 0.30114 0.92329 0.15001 0.0
C627 C 0.28764 0.91155 0.12744 0.0
H628 H 0.33938 0.96087 0.1706 0.0
H629 H 0.28922 0.90934 0.16574 0.0
S630 S 0.32175 0.95383 0.07029 0.0
N631 N 0.34749 0.97839 0.0904 0.0
N632 N 0.29341 0.92243 0.08511 0.0
C633 C 0.30405 0.93107 0.1077 0.0
C634 C 0.33366 0.96138 0.11059 0.0
C635 C 0.30167 0.0844 0.36269 0.0
C636 C 0.28873 0.09639 0.38532 0.0
C637 C 0.33026 0.05424 0.35973 0.0
C638 C 0.34762 0.03503 0.37926 0.0
H639 H 0.28955 0.09832 0.34701 0.0
H640 H 0.33934 0.04648 0.34196 0.0
S641 S 0.32356 0.0543 0.44236 0.0
N642 N 0.29515 0.08576 0.42765 0.0
N643 N 0.34879 0.02947 0.42215 0.0
C644 C 0.33471 0.04643 0.40201 0.0
C645 C 0.30534 0.0769 0.40501 0.0
C646 C 0.1762 0.05853 0.65299 0.0
C647 C 0.15956 0.03875 0.63344 0.0
C648 C 0.2047 0.08881 0.65009 0.0
C649 C 0.21831 0.10035 0.62751 0.0
H650 H 0.16668 0.05107 0.67073 0.0
H651 H 0.21631 0.10311 0.66579 0.0
S652 S 0.18536 0.05687 0.57045 0.0
N653 N 0.15966 0.03234 0.59058 0.0
N654 N 0.21316 0.08881 0.58522 0.0
C655 C 0.20235 0.08037 0.60781 0.0
C656 C 0.17304 0.0498 0.61074 0.0
C657 C 0.17236 0.95992 0.89989 0.0
C658 C 0.16112 0.97369 0.87729 0.0
C659 C 0.20169 0.93045 0.90284 0.0
C660 C 0.2208 0.91291 0.88331 0.0
H661 H 0.15842 0.97203 0.91557 0.0
H662 H 0.20892 0.9209 0.9206 0.0
S663 S 0.20319 0.93879 0.82027 0.0
N664 N 0.17232 0.96781 0.83501 0.0
N665 N 0.22697 0.91247 0.84044 0.0
C666 C 0.21013 0.92663 0.86059 0.0
C667 C 0.18054 0.95695 0.85762 0.0
C668 C 0.6982 0.08685 0.90286 0.0
C669 C 0.71752 0.10372 0.8832 0.0
C670 C 0.6682 0.05802 0.90012 0.0
C671 C 0.65648 0.04428 0.87761 0.0
H672 H 0.70594 0.09632 0.92056 0.0
H673 H 0.65434 0.04618 0.91589 0.0
S674 S 0.69842 0.07796 0.8203 0.0
N675 N 0.72305 0.10387 0.8403 0.0
N676 N 0.6671 0.04974 0.83525 0.0
C677 C 0.67585 0.06058 0.85779 0.0
C678 C 0.70614 0.09024 0.86056 0.0
C679 C 0.67091 0.95666 0.61319 0.0
C680 C 0.6593 0.9704 0.63572 0.0
C681 C 0.70076 0.92767 0.61043 0.0
C682 C 0.72002 0.91066 0.63008 0.0
H683 H 0.65705 0.9686 0.59744 0.0
H684 H 0.70842 0.9182 0.59272 0.0
S685 S 0.70111 0.93632 0.69301 0.0
N686 N 0.66993 0.96471 0.67809 0.0
N687 N 0.72561 0.91038 0.67298 0.0
C688 C 0.70875 0.92415 0.65273 0.0
C689 C 0.67861 0.95392 0.65552 0.0
C690 C 0.80118 0.92311 0.36336 0.0
C691 C 0.78834 0.91076 0.38594 0.0
C692 C 0.83009 0.95298 0.36053 0.0
C693 C 0.84791 0.97147 0.38016 0.0
H694 H 0.78872 0.90967 0.34762 0.0
H695 H 0.83909 0.96106 0.3428 0.0
S696 S 0.82428 0.95106 0.44319 0.0
N697 N 0.79531 0.92031 0.42832 0.0
N698 N 0.84962 0.97604 0.42308 0.0
C699 C 0.8351 0.95973 0.40286 0.0
C700 C 0.80537 0.92959 0.40573 0.0
C701 C 0.80052 0.0895 0.15057 0.0
C702 C 0.78783 0.1016 0.1279 0.0
C703 C 0.82924 0.05947 0.1536 0.0
C704 C 0.847 0.04052 0.13411 0.0
H705 H 0.78806 0.1032 0.16622 0.0
H706 H 0.83811 0.0516 0.1714 0.0
S707 S 0.82386 0.06027 0.07094 0.0
N708 N 0.79502 0.09142 0.08559 0.0
N709 N 0.84892 0.03541 0.09121 0.0
C710 C 0.8344 0.05209 0.11133 0.0
C711 C 0.80489 0.0824 0.10825 0.0
C712 C 0.80471 0.43102 0.61105 0.0
C713 C 0.78579 0.41349 0.63063 0.0
C714 C 0.83453 0.46 0.61393 0.0
C715 C 0.84645 0.47322 0.63652 0.0
H716 H 0.79698 0.42179 0.5933 0.0
H717 H 0.84826 0.4722 0.59821 0.0
S718 S 0.80501 0.43811 0.69367 0.0
N719 N 0.78043 0.41247 0.67353 0.0
N720 N 0.83606 0.46685 0.67886 0.0
C721 C 0.82723 0.45645 0.65626 0.0
C722 C 0.79712 0.42666 0.65334 0.0
C723 C 0.83297 0.56156 0.86083 0.0
C724 C 0.85034 0.54293 0.88058 0.0
C725 C 0.80368 0.59118 0.86343 0.0
C726 C 0.79 0.60315 0.88589 0.0
H727 H 0.84237 0.55357 0.84315 0.0
H728 H 0.79146 0.60455 0.84761 0.0
S729 S 0.82502 0.56306 0.94342 0.0
N730 N 0.85105 0.53837 0.92351 0.0
N731 N 0.79618 0.59359 0.92833 0.0
C732 C 0.80687 0.58449 0.90581 0.0
C733 C 0.83693 0.5546 0.90317 0.0
C734 C 0.70552 0.59059 0.14989 0.0
C735 C 0.71876 0.60287 0.12738 0.0
C736 C 0.67647 0.56077 0.15258 0.0
C737 C 0.65883 0.54217 0.1329 0.0
H738 H 0.71794 0.60387 0.16568 0.0
H739 H 0.66745 0.5526 0.1703 0.0
S740 S 0.68289 0.56307 0.06997 0.0
N741 N 0.71188 0.59362 0.08497 0.0
N742 N 0.65733 0.53805 0.08996 0.0
C743 C 0.67176 0.55416 0.11026 0.0
C744 C 0.70164 0.58426 0.10753 0.0
C745 C 0.70419 0.42545 0.40402 0.0
C746 C 0.72312 0.40763 0.38453 0.0
C747 C 0.67441 0.4544 0.401 0.0
C748 C 0.6625 0.46732 0.37835 0.0
H749 H 0.71199 0.41658 0.42182 0.0
H750 H 0.66078 0.46689 0.41667 0.0
S751 S 0.70355 0.43103 0.32138 0.0
N752 N 0.7282 0.4057 0.34163 0.0
N753 N 0.67263 0.46012 0.33604 0.0
C754 C 0.68155 0.45012 0.35869 0.0
C755 C 0.71163 0.42031 0.36175 0.0
C756 C 0.18072 0.55543 0.36122 0.0
C757 C 0.16303 0.53639 0.38071 0.0
C758 C 0.20992 0.58501 0.36423 0.0
C759 C 0.22322 0.59657 0.38687 0.0
H760 H 0.17145 0.54799 0.34343 0.0
H761 H 0.2222 0.59887 0.34858 0.0
S762 S 0.18775 0.55474 0.44384 0.0
N763 N 0.16194 0.53058 0.4236 0.0
N764 N 0.21677 0.5857 0.42916 0.0
C765 C 0.20632 0.57721 0.40652 0.0
C766 C 0.17629 0.54737 0.40347 0.0
C767 C 0.20194 0.42793 0.11128 0.0
C768 C 0.22041 0.40997 0.13089 0.0
C769 C 0.17309 0.45791 0.11411 0.0
C770 C 0.16179 0.47182 0.13666 0.0
H771 H 0.20938 0.41839 0.09355 0.0
H772 H 0.15963 0.47036 0.09838 0.0
S773 S 0.20222 0.43587 0.19387 0.0
N774 N 0.22584 0.40919 0.1738 0.0
N775 N 0.17214 0.46552 0.179 0.0
C776 C 0.18052 0.4546 0.15642 0.0
C777 C 0.20957 0.42373 0.15358 0.0
C778 C 0.33153 0.45247 0.86173 0.0
C779 C 0.34856 0.47188 0.88131 0.0
C780 C 0.30291 0.42229 0.86462 0.0
C781 C 0.28959 0.41046 0.8872 0.0
H782 H 0.34081 0.46017 0.84399 0.0
H783 H 0.29099 0.4083 0.8489 0.0
S784 S 0.32374 0.45283 0.94433 0.0
N785 N 0.34922 0.47757 0.92419 0.0
N786 N 0.29553 0.42128 0.92954 0.0
C787 C 0.30601 0.43002 0.90693 0.0
C788 C 0.33542 0.46051 0.90401 0.0
C789 C 0.3334 0.55095 0.61463 0.0
C790 C 0.34515 0.53791 0.63728 0.0
C791 C 0.30424 0.58055 0.6116 0.0
C792 C 0.28582 0.59896 0.63108 0.0
H793 H 0.34682 0.53816 0.59898 0.0
H794 H 0.29662 0.58954 0.59379 0.0
S795 S 0.30512 0.57529 0.69425 0.0
N796 N 0.33531 0.54545 0.67958 0.0
N797 N 0.28091 0.60104 0.67399 0.0
C798 C 0.29702 0.58597 0.65386 0.0
C799 C 0.32645 0.55551 0.65693 0.0
C800 C 0.35486 0.17892 0.13709 0.0
C801 C 0.39178 0.16625 0.12797 0.0
C802 C 0.33748 0.21522 0.12985 0.0
C803 C 0.35635 0.2402 0.11323 0.0
H804 H 0.33861 0.16006 0.14925 0.0
H805 H 0.30854 0.22318 0.13683 0.0
S806 S 0.4561 0.22359 0.08676 0.0
N807 N 0.44848 0.18397 0.10337 0.0
N808 N 0.41593 0.25138 0.08981 0.0
C809 C 0.39412 0.22875 0.10494 0.0
C810 C 0.41178 0.19206 0.1123 0.0
C811 C 0.07587 0.14687 0.35662 0.0
C812 C 0.09671 0.13339 0.37675 0.0
C813 C 0.03994 0.12958 0.34945 0.0
C814 C 0.02274 0.09783 0.36198 0.0
H815 H 0.08742 0.17112 0.34604 0.0
H816 H 0.02568 0.14126 0.33375 0.0
S817 S 0.06392 0.0516 0.41635 0.0
N818 N 0.09655 0.08655 0.4095 0.0
N819 N 0.0288 0.05394 0.39597 0.0
C820 C 0.04264 0.08425 0.38239 0.0
C821 C 0.07953 0.10205 0.38979 0.0
C822 C 0.15724 0.83374 0.63572 0.0
C823 C 0.1192 0.84488 0.62756 0.0
C824 C 0.17534 0.79792 0.62823 0.0
C825 C 0.1561 0.77203 0.61227 0.0
H826 H 0.17374 0.85346 0.64726 0.0
H827 H 0.20508 0.79109 0.6344 0.0
S828 S 0.05356 0.78425 0.58888 0.0
N829 N 0.06113 0.82454 0.60493 0.0
N830 N 0.095 0.75808 0.59082 0.0
C831 C 0.11725 0.7819 0.60506 0.0
C832 C 0.09887 0.81803 0.61271 0.0
C833 C 0.46161 0.92614 0.87947 0.0
C834 C 0.48774 0.90598 0.86405 0.0
C835 C 0.4254 0.90872 0.88684 0.0
C836 C 0.4141 0.8705 0.87907 0.0
H837 H 0.46852 0.95609 0.88526 0.0
H838 H 0.40551 0.92589 0.89792 0.0
S839 S 0.4751 0.80273 0.84187 0.0
N840 N 0.50167 0.84395 0.84356 0.0
N841 N 0.43446 0.81134 0.8574 0.0
C842 C 0.44117 0.84929 0.86479 0.0
C843 C 0.47772 0.86697 0.85728 0.0
C844 C 0.33552 0.79448 0.38518 0.0
C845 C 0.35502 0.7693 0.40142 0.0
C846 C 0.35324 0.83026 0.37731 0.0
C847 C 0.39114 0.84207 0.38538 0.0
H848 H 0.30585 0.78716 0.37909 0.0
H849 H 0.33653 0.84947 0.36558 0.0
S850 S 0.45736 0.78336 0.42479 0.0
N851 N 0.41623 0.75667 0.42306 0.0
N852 N 0.44937 0.82307 0.40831 0.0
C853 C 0.41174 0.81589 0.40053 0.0
C854 C 0.39375 0.77979 0.40854 0.0
C855 C 0.43361 0.11394 0.62346 0.0
C856 C 0.40918 0.13391 0.63993 0.0
C857 C 0.47065 0.09742 0.63016 0.0
C858 C 0.48482 0.10053 0.65353 0.0
H859 H 0.4244 0.11153 0.60519 0.0
H860 H 0.48861 0.0828 0.61686 0.0
S861 S 0.43126 0.14632 0.70404 0.0
N862 N 0.40142 0.15299 0.68128 0.0
N863 N 0.4704 0.12282 0.69341 0.0
C864 C 0.46036 0.11952 0.67021 0.0
C865 C 0.42278 0.13593 0.66355 0.0
C866 C 0.1543 0.17981 0.87694 0.0
C867 C 0.11713 0.16726 0.88575 0.0
C868 C 0.17201 0.21566 0.8847 0.0
C869 C 0.15322 0.24025 0.90155 0.0
H870 H 0.1705 0.16115 0.86465 0.0
H871 H 0.20115 0.22352 0.87797 0.0
S872 S 0.05282 0.22398 0.92725 0.0
N873 N 0.06026 0.18481 0.91023 0.0
N874 N 0.09338 0.25137 0.92476 0.0
C875 C 0.11517 0.22898 0.90949 0.0
C876 C 0.0972 0.19277 0.90161 0.0
C877 C 0.07555 0.86637 0.15894 0.0
C878 C 0.0955 0.8785 0.13821 0.0
C879 C 0.0398 0.88399 0.16618 0.0
C880 C 0.02193 0.91476 0.15312 0.0
H881 H 0.08759 0.84287 0.16992 0.0
H882 H 0.02617 0.87331 0.18231 0.0
S883 S 0.06087 0.95756 0.09721 0.0
N884 N 0.09389 0.92321 0.10442 0.0
N885 N 0.02658 0.95647 0.1181 0.0
C886 C 0.04107 0.92714 0.1322 0.0
C887 C 0.07773 0.90899 0.12473 0.0
C888 C 0.66129 0.79111 0.88028 0.0
C889 C 0.65811 0.77659 0.90357 0.0
C890 C 0.64463 0.82817 0.87372 0.0
C891 C 0.62445 0.85231 0.89025 0.0
H892 H 0.6761 0.7734 0.86693 0.0
H893 H 0.64714 0.83766 0.8555 0.0
S894 S 0.61165 0.82924 0.95422 0.0
N895 N 0.63544 0.79036 0.94345 0.0
N896 N 0.605 0.85937 0.93159 0.0
C897 C 0.62232 0.83835 0.9138 0.0
C898 C 0.63887 0.80074 0.92032 0.0
C899 C 0.96049 0.9297 0.63633 0.0
C900 C 0.98806 0.90832 0.65021 0.0
C901 C 0.92459 0.91206 0.62862 0.0
C902 C 0.91521 0.87238 0.63444 0.0
H903 H 0.96598 0.96068 0.63215 0.0
H904 H 0.9034 0.93007 0.61895 0.0
S905 S 0.981 0.80143 0.66621 0.0
N906 N 0.00575 0.84389 0.66661 0.0
N907 N 0.93908 0.81082 0.65206 0.0
C908 C 0.94385 0.85008 0.64692 0.0
C909 C 0.98003 0.86801 0.65483 0.0
C910 C 0.84057 0.21565 0.38519 0.0
C911 C 0.85481 0.23646 0.40512 0.0
C912 C 0.85819 0.17957 0.37771 0.0
C913 C 0.89076 0.1628 0.38988 0.0
H914 H 0.81527 0.22701 0.37544 0.0
H915 H 0.84565 0.16437 0.36258 0.0
S916 S 0.9414 0.20733 0.44212 0.0
N917 N 0.90487 0.23847 0.4361 0.0
N918 N 0.93797 0.17176 0.42217 0.0
C919 C 0.90591 0.18413 0.40945 0.0
C920 C 0.88798 0.22057 0.41702 0.0
C921 C 0.57597 0.14661 0.15806 0.0
C922 C 0.59583 0.13503 0.13719 0.0
C923 C 0.54032 0.12873 0.16522 0.0
C924 C 0.52242 0.09824 0.15196 0.0
H925 H 0.58802 0.16983 0.16924 0.0
H926 H 0.52682 0.13897 0.1815 0.0
S927 S 0.56092 0.0571 0.09551 0.0
N928 N 0.59399 0.09128 0.10296 0.0
N929 N 0.5268 0.05756 0.11651 0.0
C930 C 0.54139 0.08649 0.13085 0.0
C931 C 0.57799 0.1049 0.12345 0.0
C932 C 0.62834 0.22065 0.59964 0.0
C933 C 0.65959 0.23817 0.61245 0.0
C934 C 0.61105 0.18464 0.60673 0.0
C935 C 0.62403 0.16402 0.62706 0.0
H936 H 0.61706 0.23471 0.58378 0.0
H937 H 0.5872 0.17286 0.59593 0.0
S938 S 0.70444 0.19766 0.6674 0.0
N939 N 0.70249 0.23261 0.64691 0.0
N940 N 0.66991 0.16475 0.66029 0.0
C941 C 0.65489 0.18151 0.64037 0.0
C942 C 0.67268 0.21848 0.63305 0.0
C943 C 0.54057 0.87859 0.34799 0.0
C944 C 0.52265 0.90956 0.36085 0.0
C945 C 0.5764 0.86123 0.35531 0.0
C946 C 0.59639 0.87385 0.37594 0.0
H947 H 0.52697 0.8676 0.33192 0.0
H948 H 0.58854 0.83761 0.34446 0.0
S949 S 0.56148 0.95337 0.41652 0.0
N950 N 0.52715 0.95179 0.39566 0.0
N951 N 0.59464 0.91905 0.40948 0.0
C952 C 0.57849 0.90442 0.38928 0.0
C953 C 0.54173 0.92229 0.38172 0.0
C954 C 0.84041 0.79517 0.13114 0.0
C955 C 0.85631 0.77305 0.11217 0.0
C956 C 0.85752 0.83168 0.13834 0.0
C957 C 0.89119 0.84755 0.12681 0.0
H958 H 0.81406 0.78465 0.14022 0.0
H959 H 0.84361 0.84802 0.15261 0.0
S960 S 0.9468 0.79909 0.07771 0.0
N961 N 0.90951 0.76855 0.08317 0.0
N962 N 0.94157 0.8361 0.09658 0.0
C963 C 0.90818 0.82477 0.10841 0.0
C964 C 0.89081 0.78789 0.10113 0.0
C965 C 0.96746 0.13215 0.84892 0.0
C966 C 0.98493 0.10088 0.86175 0.0
C967 C 0.93162 0.14968 0.85603 0.0
C968 C 0.91104 0.13699 0.87643 0.0
H969 H 0.98142 0.14326 0.83298 0.0
H970 H 0.91996 0.17351 0.84516 0.0
S971 S 0.94469 0.05685 0.91698 0.0
N972 N 0.97949 0.0584 0.89638 0.0
N973 N 0.91185 0.09143 0.90983 0.0
C974 C 0.92849 0.10615 0.88979 0.0
C975 C 0.96535 0.0881 0.88245 0.0
C976 C 0.83341 0.71499 0.62912 0.0
C977 C 0.8534 0.74062 0.61335 0.0
C978 C 0.85078 0.67893 0.63671 0.0
C979 C 0.88881 0.66732 0.62883 0.0
H980 H 0.80359 0.72216 0.63502 0.0
H981 H 0.83371 0.65937 0.64806 0.0
S982 S 0.95628 0.72726 0.59088 0.0
N983 N 0.91516 0.75399 0.59249 0.0
N984 N 0.94777 0.68697 0.60677 0.0
C985 C 0.90993 0.69396 0.61423 0.0
C986 C 0.89226 0.73037 0.60648 0.0
C987 C 0.57544 0.64864 0.85649 0.0
C988 C 0.59607 0.63626 0.87693 0.0
C989 C 0.53954 0.63098 0.84953 0.0
C990 C 0.52219 0.59992 0.86258 0.0
H991 H 0.58708 0.67232 0.8455 0.0
H992 H 0.52543 0.64182 0.83357 0.0
S993 S 0.56289 0.55653 0.91789 0.0
N994 N 0.59559 0.59109 0.91052 0.0
N995 N 0.52796 0.5578 0.89737 0.0
C996 C 0.54194 0.58739 0.88328 0.0
C997 C 0.57877 0.60556 0.89047 0.0
C998 C 0.65573 0.33473 0.13597 0.0
C999 C 0.6181 0.34685 0.12764 0.0
C1000 C 0.67277 0.29825 0.12877 0.0
C1001 C 0.65283 0.27261 0.11296 0.0
H1002 H 0.67272 0.35415 0.14744 0.0
H1003 H 0.70228 0.2907 0.13504 0.0
S1004 S 0.55101 0.28746 0.08907 0.0
N1005 N 0.55963 0.32778 0.1049 0.0
N1006 N 0.5916 0.26009 0.09137 0.0
C1007 C 0.6144 0.28348 0.10556 0.0
C1008 C 0.59708 0.32031 0.1129 0.0
C1009 C 0.93511 0.36041 0.35728 0.0
C1010 C 0.9149 0.37277 0.37787 0.0
C1011 C 0.97048 0.37857 0.34982 0.0
C1012 C 0.98772 0.41012 0.36252 0.0
H1013 H 0.92349 0.3364 0.34653 0.0
H1014 H 0.98427 0.36772 0.33377 0.0
S1015 S 0.94804 0.45369 0.41804 0.0
N1016 N 0.9157 0.41848 0.41121 0.0
N1017 N 0.98234 0.45266 0.39715 0.0
C1018 C 0.96842 0.42262 0.38337 0.0
C1019 C 0.93212 0.40396 0.39105 0.0
C1020 C 0.89883 0.3282 0.90749 0.0
C1021 C 0.88586 0.34947 0.8874 0.0
C1022 C 0.88151 0.29196 0.91416 0.0
C1023 C 0.85024 0.27491 0.90114 0.0
H1024 H 0.92265 0.33965 0.91844 0.0
H1025 H 0.89269 0.27739 0.92989 0.0
S1026 S 0.80558 0.31714 0.84659 0.0
N1027 N 0.84009 0.34979 0.85411 0.0
N1028 N 0.80746 0.28156 0.8667 0.0
C1029 C 0.83724 0.29524 0.88074 0.0
C1030 C 0.85505 0.33241 0.87386 0.0
C1031 C 0.96808 0.62965 0.16519 0.0
C1032 C 0.98627 0.59916 0.15206 0.0
C1033 C 0.93226 0.64708 0.15797 0.0
C1034 C 0.91246 0.63505 0.13717 0.0
H1035 H 0.98146 0.64024 0.18142 0.0
H1036 H 0.92002 0.67032 0.16906 0.0
S1037 S 0.94814 0.55703 0.09579 0.0
N1038 N 0.98229 0.55806 0.11677 0.0
N1039 N 0.91472 0.59094 0.10311 0.0
C1040 C 0.9306 0.60495 0.12354 0.0
C1041 C 0.96741 0.58699 0.131 0.0
C1042 C 0.61094 0.68201 0.40712 0.0
C1043 C 0.62478 0.66104 0.38714 0.0
C1044 C 0.62728 0.71862 0.41386 0.0
C1045 C 0.65841 0.73633 0.40104 0.0
H1046 H 0.58715 0.67006 0.41791 0.0
H1047 H 0.61547 0.73294 0.4295 0.0
S1048 S 0.70504 0.6951 0.34682 0.0
N1049 N 0.67113 0.66168 0.35413 0.0
N1050 N 0.70199 0.73066 0.36689 0.0
C1051 C 0.67227 0.71631 0.38074 0.0
C1052 C 0.65543 0.67876 0.37378 0.0
C1053 C 0.57399 0.36125 0.65805 0.0
C1054 C 0.5943 0.3741 0.6376 0.0
C1055 C 0.53828 0.37884 0.66539 0.0
C1056 C 0.52076 0.41029 0.65273 0.0
H1057 H 0.58584 0.33735 0.6688 0.0
H1058 H 0.52451 0.36768 0.68137 0.0
S1059 S 0.56028 0.45459 0.5974 0.0
N1060 N 0.59312 0.41987 0.60431 0.0
N1061 N 0.52579 0.45298 0.61817 0.0
C1062 C 0.54003 0.42312 0.63195 0.0
C1063 C 0.5767 0.40503 0.62438 0.0
C1064 C 0.10896 0.32378 0.40662 0.0
C1065 C 0.12217 0.34482 0.38652 0.0
C1066 C 0.12622 0.28763 0.41348 0.0
C1067 C 0.15767 0.27046 0.40066 0.0
H1068 H 0.08507 0.33539 0.41746 0.0
H1069 H 0.1149 0.27327 0.42924 0.0
S1070 S 0.20277 0.31197 0.34606 0.0
N1071 N 0.16821 0.34473 0.35335 0.0
N1072 N 0.2007 0.27662 0.36631 0.0
C1073 C 0.1708 0.29048 0.3802 0.0
C1074 C 0.15306 0.32756 0.37312 0.0
C1075 C 0.43431 0.39759 0.12383 0.0
C1076 C 0.40992 0.37814 0.14054 0.0
C1077 C 0.47105 0.41489 0.13041 0.0
C1078 C 0.48494 0.41314 0.15389 0.0
H1079 H 0.42534 0.39889 0.10548 0.0
H1080 H 0.48906 0.42897 0.11692 0.0
S1081 S 0.43111 0.36957 0.20496 0.0
N1082 N 0.40168 0.36129 0.18219 0.0
N1083 N 0.47018 0.3929 0.19409 0.0
C1084 C 0.46045 0.3948 0.1708 0.0
C1085 C 0.42316 0.37759 0.16426 0.0
C1086 C 0.38057 0.7212 0.91511 0.0
C1087 C 0.34955 0.73853 0.902 0.0
C1088 C 0.39835 0.68533 0.90815 0.0
C1089 C 0.38613 0.66471 0.88766 0.0
H1090 H 0.39118 0.73526 0.93113 0.0
H1091 H 0.42189 0.67359 0.91922 0.0
S1092 S 0.30694 0.69813 0.8464 0.0
N1093 N 0.30794 0.73293 0.867 0.0
N1094 N 0.34141 0.66541 0.85387 0.0
C1095 C 0.35563 0.68212 0.87402 0.0
C1096 C 0.33736 0.71891 0.88119 0.0
C1097 C 0.03782 0.63547 0.66392 0.0
C1098 C 0.02075 0.60366 0.65137 0.0
C1099 C 0.07377 0.65282 0.65683 0.0
C1100 C 0.09471 0.63931 0.63676 0.0
H1101 H 0.02354 0.64702 0.67964 0.0
H1102 H 0.08532 0.677 0.66746 0.0
S1103 S 0.06185 0.55791 0.59686 0.0
N1104 N 0.02673 0.5601 0.61723 0.0
N1105 N 0.0945 0.59275 0.60384 0.0
C1106 C 0.07748 0.60812 0.62359 0.0
C1107 C 0.04059 0.5903 0.63091 0.0
C1108 C 0.15416 0.67981 0.13713 0.0
C1109 C 0.11688 0.66704 0.1286 0.0
C1110 C 0.17103 0.71622 0.12967 0.0
C1111 C 0.15126 0.74119 0.11342 0.0
H1112 H 0.17108 0.66091 0.14893 0.0
H1113 H 0.20031 0.72423 0.13612 0.0
S1114 S 0.05012 0.72451 0.08886 0.0
N1115 N 0.05882 0.68472 0.10516 0.0
N1116 N 0.09036 0.7524 0.09121 0.0
C1117 C 0.11308 0.72969 0.10582 0.0
C1118 C 0.09597 0.69288 0.11339 0.0
C1119 C 0.07633 0.36337 0.85739 0.0
C1120 C 0.09687 0.37597 0.87782 0.0
C1121 C 0.04028 0.38073 0.85044 0.0
C1122 C 0.02273 0.41167 0.86349 0.0
H1123 H 0.08818 0.33978 0.8464 0.0
H1124 H 0.02626 0.36982 0.83447 0.0
S1125 S 0.06304 0.45535 0.91883 0.0
N1126 N 0.09601 0.42107 0.91143 0.0
N1127 N 0.02814 0.4538 0.8983 0.0
C1128 C 0.04236 0.42435 0.88419 0.0
C1129 C 0.07932 0.40649 0.89137 0.0
C1130 C 0.33571 0.29507 0.62987 0.0
C1131 C 0.3551 0.27036 0.61333 0.0
C1132 C 0.35285 0.33126 0.63748 0.0
C1133 C 0.39002 0.34405 0.6288 0.0
H1134 H 0.30655 0.287 0.63648 0.0
H1135 H 0.33623 0.34995 0.64955 0.0
S1136 S 0.45573 0.28731 0.58811 0.0
N1137 N 0.41547 0.25948 0.59055 0.0
N1138 N 0.44752 0.32673 0.60479 0.0
C1139 C 0.41053 0.3185 0.61324 0.0
C1140 C 0.39314 0.28191 0.60552 0.0
C1141 C 0.47239 0.63112 0.35101 0.0
C1142 C 0.48955 0.59946 0.36365 0.0
C1143 C 0.43646 0.64852 0.35811 0.0
C1144 C 0.41566 0.63524 0.37828 0.0
H1145 H 0.48657 0.64252 0.33522 0.0
H1146 H 0.42482 0.6726 0.34743 0.0
S1147 S 0.44863 0.5541 0.41832 0.0
N1148 N 0.48368 0.55614 0.3979 0.0
N1149 N 0.41597 0.58892 0.41132 0.0
C1150 C 0.43293 0.60414 0.3915 0.0
C1151 C 0.46978 0.58624 0.38417 0.0
loop_
_geom_bond_atom_site_label_1
_geom_bond_atom_site_label_2
_geom_bond_distance
_geom_bond_site_symmetry_2
_ccdc_geom_bond_type
Co0 O1 2.216 . S
Co0 O2 2.091 . S
Co0 O4 2.004 . S
Co0 O10 2.021 . S
Co0 O12 2.137 . S
Co0 O13 2.244 . S
O1 Co0 2.216 . S
O1 C8 1.247 . S
O2 Co0 2.091 . S
O2 C8 1.261 . S
C3 O12 1.247 . S
C3 O13 1.272 . S
O4 Co0 2.004 . S
O4 C9 1.259 . S
Co5 O6 2.061 . S
Co5 O11 2.052 . S
Co5 O13 2.135 . S
O6 Co5 2.061 . S
O6 C9 1.235 . S
C7 O10 1.238 . S
C7 O11 1.241 . S
C8 O1 1.247 . S
C8 O2 1.261 . S
C9 O4 1.259 . S
C9 O6 1.235 . S
O10 Co0 2.021 . S
O10 C7 1.238 . S
O11 Co5 2.052 . S
O11 C7 1.241 . S
O12 Co0 2.137 . S
O12 C3 1.247 . S
O13 Co0 2.244 . S
O13 C3 1.272 . S
O13 Co5 2.135 . S
Co14 O15 2.216 . S
Co14 O16 2.091 . S
Co14 O18 2.004 . S
Co14 O24 2.021 . S
Co14 O26 2.137 . S
Co14 O27 2.244 . S
O15 Co14 2.216 . S
O15 C22 1.247 . S
O16 Co14 2.091 . S
O16 C22 1.261 . S
C17 O26 1.247 . S
C17 O27 1.272 . S
O18 Co14 2.004 . S
O18 C23 1.259 . S
Co19 O20 2.061 . S
Co19 O25 2.052 . S
Co19 O27 2.135 . S
O20 Co19 2.061 . S
O20 C23 1.235 . S
C21 O24 1.238 . S
C21 O25 1.241 . S
C22 O15 1.247 . S
C22 O16 1.261 . S
C23 O18 1.259 . S
C23 O20 1.235 . S
O24 Co14 2.021 . S
O24 C21 1.238 . S
O25 Co19 2.052 . S
O25 C21 1.241 . S
O26 Co14 2.137 . S
O26 C17 1.247 . S
O27 Co14 2.244 . S
O27 C17 1.272 . S
O27 Co19 2.135 . S
Co28 O29 2.216 . S
Co28 O30 2.091 . S
Co28 O32 2.004 . S
Co28 O38 2.021 . S
Co28 O40 2.137 . S
Co28 O41 2.244 . S
O29 Co28 2.216 . S
O29 C36 1.247 . S
O30 Co28 2.091 . S
O30 C36 1.261 . S
C31 O40 1.247 . S
C31 O41 1.272 . S
O32 Co28 2.004 . S
O32 C37 1.259 . S
Co33 O34 2.061 . S
Co33 O39 2.052 . S
Co33 O41 2.135 . S
O34 Co33 2.061 . S
O34 C37 1.235 . S
C35 O38 1.238 . S
C35 O39 1.241 . S
C36 O29 1.247 . S
C36 O30 1.261 . S
C37 O32 1.259 . S
C37 O34 1.235 . S
O38 Co28 2.021 . S
O38 C35 1.238 . S
O39 Co33 2.052 . S
O39 C35 1.241 . S
O40 Co28 2.137 . S
O40 C31 1.247 . S
O41 Co28 2.244 . S
O41 C31 1.272 . S
O41 Co33 2.135 . S
Co42 O43 2.216 . S
Co42 O44 2.091 . S
Co42 O46 2.004 . S
Co42 O52 2.021 . S
Co42 O54 2.137 . S
Co42 O55 2.244 . S
O43 Co42 2.216 . S
O43 C50 1.247 . S
O44 Co42 2.091 . S
O44 C50 1.261 . S
C45 O54 1.247 . S
C45 O55 1.272 . S
O46 Co42 2.004 . S
O46 C51 1.259 . S
Co47 O48 2.061 . S
Co47 O53 2.052 . S
Co47 O55 2.135 . S
O48 Co47 2.061 . S
O48 C51 1.235 . S
C49 O52 1.238 . S
C49 O53 1.241 . S
C50 O43 1.247 . S
C50 O44 1.261 . S
C51 O46 1.259 . S
C51 O48 1.235 . S
O52 Co42 2.021 . S
O52 C49 1.238 . S
O53 Co47 2.052 . S
O53 C49 1.241 . S
O54 Co42 2.137 . S
O54 C45 1.247 . S
O55 Co42 2.244 . S
O55 C45 1.272 . S
O55 Co47 2.135 . S
Co56 O57 2.216 . S
Co56 O58 2.091 . S
Co56 O60 2.004 . S
Co56 O66 2.021 . S
Co56 O68 2.137 . S
Co56 O69 2.244 . S
O57 Co56 2.216 . S
O57 C64 1.247 . S
O58 Co56 2.091 . S
O58 C64 1.261 . S
C59 O68 1.247 . S
C59 O69 1.272 . S
O60 Co56 2.004 . S
O60 C65 1.259 . S
Co61 O62 2.061 . S
Co61 O67 2.052 . S
Co61 O69 2.135 . S
O62 Co61 2.061 . S
O62 C65 1.235 . S
C63 O66 1.238 . S
C63 O67 1.241 . S
C64 O57 1.247 . S
C64 O58 1.261 . S
C65 O60 1.259 . S
C65 O62 1.235 . S
O66 Co56 2.021 . S
O66 C63 1.238 . S
O67 Co61 2.052 . S
O67 C63 1.241 . S
O68 Co56 2.137 . S
O68 C59 1.247 . S
O69 Co56 2.244 . S
O69 C59 1.272 . S
O69 Co61 2.135 . S
Co70 O71 2.216 . S
Co70 O72 2.091 . S
Co70 O74 2.004 . S
Co70 O80 2.021 . S
Co70 O82 2.137 . S
Co70 O83 2.244 . S
O71 Co70 2.216 . S
O71 C78 1.247 . S
O72 Co70 2.091 . S
O72 C78 1.261 . S
C73 O82 1.247 . S
C73 O83 1.272 . S
O74 Co70 2.004 . S
O74 C79 1.259 . S
Co75 O76 2.061 . S
Co75 O81 2.052 . S
Co75 O83 2.135 . S
O76 Co75 2.061 . S
O76 C79 1.235 . S
C77 O80 1.238 . S
C77 O81 1.241 . S
C78 O71 1.247 . S
C78 O72 1.261 . S
C79 O74 1.259 . S
C79 O76 1.235 . S
O80 Co70 2.021 . S
O80 C77 1.238 . S
O81 Co75 2.052 . S
O81 C77 1.241 . S
O82 Co70 2.137 . S
O82 C73 1.247 . S
O83 Co70 2.244 . S
O83 C73 1.272 . S
O83 Co75 2.135 . S
Co84 O85 2.216 . S
Co84 O86 2.091 . S
Co84 O88 2.004 . S
Co84 O94 2.021 . S
Co84 O96 2.137 . S
Co84 O97 2.244 . S
O85 Co84 2.216 . S
O85 C92 1.247 . S
O86 Co84 2.091 . S
O86 C92 1.261 . S
C87 O96 1.247 . S
C87 O97 1.272 . S
O88 Co84 2.004 . S
O88 C93 1.259 . S
Co89 O90 2.061 . S
Co89 O95 2.052 . S
Co89 O97 2.135 . S
O90 Co89 2.061 . S
O90 C93 1.235 . S
C91 O94 1.238 . S
C91 O95 1.241 . S
C92 O85 1.247 . S
C92 O86 1.261 . S
C93 O88 1.259 . S
C93 O90 1.235 . S
O94 Co84 2.021 . S
O94 C91 1.238 . S
O95 Co89 2.052 . S
O95 C91 1.241 . S
O96 Co84 2.137 . S
O96 C87 1.247 . S
O97 Co84 2.244 . S
O97 C87 1.272 . S
O97 Co89 2.135 . S
Co98 O99 2.216 . S
Co98 O100 2.091 . S
Co98 O102 2.004 . S
Co98 O108 2.021 . S
Co98 O110 2.137 . S
Co98 O111 2.244 . S
O99 Co98 2.216 . S
O99 C106 1.247 . S
O100 Co98 2.091 . S
O100 C106 1.261 . S
C101 O110 1.247 . S
C101 O111 1.272 . S
O102 Co98 2.004 . S
O102 C107 1.259 . S
Co103 O104 2.061 . S
Co103 O109 2.052 . S
Co103 O111 2.135 . S
O104 Co103 2.061 . S
O104 C107 1.235 . S
C105 O108 1.238 . S
C105 O109 1.241 . S
C106 O99 1.247 . S
C106 O100 1.261 . S
C107 O102 1.259 . S
C107 O104 1.235 . S
O108 Co98 2.021 . S
O108 C105 1.238 . S
O109 Co103 2.052 . S
O109 C105 1.241 . S
O110 Co98 2.137 . S
O110 C101 1.247 . S
O111 Co98 2.244 . S
O111 C101 1.272 . S
O111 Co103 2.135 . S
Co112 O113 2.216 . S
Co112 O114 2.091 . S
Co112 O116 2.004 . S
Co112 O122 2.021 . S
Co112 O124 2.137 . S
Co112 O125 2.244 . S
O113 Co112 2.216 . S
O113 C120 1.247 . S
O114 Co112 2.091 . S
O114 C120 1.261 . S
C115 O124 1.247 . S
C115 O125 1.272 . S
O116 Co112 2.004 . S
O116 C121 1.259 . S
Co117 O118 2.061 . S
Co117 O123 2.052 . S
Co117 O125 2.135 . S
O118 Co117 2.061 . S
O118 C121 1.235 . S
C119 O122 1.238 . S
C119 O123 1.241 . S
C120 O113 1.247 . S
C120 O114 1.261 . S
C121 O116 1.259 . S
C121 O118 1.235 . S
O122 Co112 2.021 . S
O122 C119 1.238 . S
O123 Co117 2.052 . S
O123 C119 1.241 . S
O124 Co112 2.137 . S
O124 C115 1.247 . S
O125 Co112 2.244 . S
O125 C115 1.272 . S
O125 Co117 2.135 . S
Co126 O127 2.216 . S
Co126 O128 2.091 . S
Co126 O130 2.004 . S
Co126 O136 2.021 . S
Co126 O138 2.137 . S
Co126 O139 2.244 . S
O127 Co126 2.216 . S
O127 C134 1.247 . S
O128 Co126 2.091 . S
O128 C134 1.261 . S
C129 O138 1.247 . S
C129 O139 1.272 . S
O130 Co126 2.004 . S
O130 C135 1.259 . S
Co131 O132 2.061 . S
Co131 O137 2.052 . S
Co131 O139 2.135 . S
O132 Co131 2.061 . S
O132 C135 1.235 . S
C133 O136 1.238 . S
C133 O137 1.241 . S
C134 O127 1.247 . S
C134 O128 1.261 . S
C135 O130 1.259 . S
C135 O132 1.235 . S
O136 Co126 2.021 . S
O136 C133 1.238 . S
O137 Co131 2.052 . S
O137 C133 1.241 . S
O138 Co126 2.137 . S
O138 C129 1.247 . S
O139 Co126 2.244 . S
O139 C129 1.272 . S
O139 Co131 2.135 . S
Co140 O141 2.216 . S
Co140 O142 2.091 . S
Co140 O144 2.004 . S
Co140 O150 2.021 . S
Co140 O152 2.137 . S
Co140 O153 2.244 . S
O141 Co140 2.216 . S
O141 C148 1.247 . S
O142 Co140 2.091 . S
O142 C148 1.261 . S
C143 O152 1.247 . S
C143 O153 1.272 . S
O144 Co140 2.004 . S
O144 C149 1.259 . S
Co145 O146 2.061 . S
Co145 O151 2.052 . S
Co145 O153 2.135 . S
O146 Co145 2.061 . S
O146 C149 1.235 . S
C147 O150 1.238 . S
C147 O151 1.241 . S
C148 O141 1.247 . S
C148 O142 1.261 . S
C149 O144 1.259 . S
C149 O146 1.235 . S
O150 Co140 2.021 . S
O150 C147 1.238 . S
O151 Co145 2.052 . S
O151 C147 1.241 . S
O152 Co140 2.137 . S
O152 C143 1.247 . S
O153 Co140 2.244 . S
O153 C143 1.272 . S
O153 Co145 2.135 . S
Co154 O155 2.216 . S
Co154 O156 2.091 . S
Co154 O158 2.004 . S
Co154 O164 2.021 . S
Co154 O166 2.137 . S
Co154 O167 2.244 . S
O155 Co154 2.216 . S
O155 C162 1.247 . S
O156 Co154 2.091 . S
O156 C162 1.261 . S
C157 O166 1.247 . S
C157 O167 1.272 . S
O158 Co154 2.004 . S
O158 C163 1.259 . S
Co159 O160 2.061 . S
Co159 O165 2.052 . S
Co159 O167 2.135 . S
O160 Co159 2.061 . S
O160 C163 1.235 . S
C161 O164 1.238 . S
C161 O165 1.241 . S
C162 O155 1.247 . S
C162 O156 1.261 . S
C163 O158 1.259 . S
C163 O160 1.235 . S
O164 Co154 2.021 . S
O164 C161 1.238 . S
O165 Co159 2.052 . S
O165 C161 1.241 . S
O166 Co154 2.137 . S
O166 C157 1.247 . S
O167 Co154 2.244 . S
O167 C157 1.272 . S
O167 Co159 2.135 . S
Co168 O169 2.216 . S
Co168 O170 2.091 . S
Co168 O172 2.004 . S
Co168 O178 2.021 . S
Co168 O180 2.137 . S
Co168 O181 2.244 . S
O169 Co168 2.216 . S
O169 C176 1.247 . S
O170 Co168 2.091 . S
O170 C176 1.261 . S
C171 O180 1.247 . S
C171 O181 1.272 . S
O172 Co168 2.004 . S
O172 C177 1.259 . S
Co173 O174 2.061 . S
Co173 O179 2.052 . S
Co173 O181 2.135 . S
O174 Co173 2.061 . S
O174 C177 1.235 . S
C175 O178 1.238 . S
C175 O179 1.241 . S
C176 O169 1.247 . S
C176 O170 1.261 . S
C177 O172 1.259 . S
C177 O174 1.235 . S
O178 Co168 2.021 . S
O178 C175 1.238 . S
O179 Co173 2.052 . S
O179 C175 1.241 . S
O180 Co168 2.137 . S
O180 C171 1.247 . S
O181 Co168 2.244 . S
O181 C171 1.272 . S
O181 Co173 2.135 . S
Co182 O183 2.216 . S
Co182 O184 2.091 . S
Co182 O186 2.004 . S
Co182 O192 2.021 . S
Co182 O194 2.137 . S
Co182 O195 2.244 . S
O183 Co182 2.216 . S
O183 C190 1.247 . S
O184 Co182 2.091 . S
O184 C190 1.261 . S
C185 O194 1.247 . S
C185 O195 1.272 . S
O186 Co182 2.004 . S
O186 C191 1.259 . S
Co187 O188 2.061 . S
Co187 O193 2.052 . S
Co187 O195 2.135 . S
O188 Co187 2.061 . S
O188 C191 1.235 . S
C189 O192 1.238 . S
C189 O193 1.241 . S
C190 O183 1.247 . S
C190 O184 1.261 . S
C191 O186 1.259 . S
C191 O188 1.235 . S
O192 Co182 2.021 . S
O192 C189 1.238 . S
O193 Co187 2.052 . S
O193 C189 1.241 . S
O194 Co182 2.137 . S
O194 C185 1.247 . S
O195 Co182 2.244 . S
O195 C185 1.272 . S
O195 Co187 2.135 . S
Co196 O197 2.216 . S
Co196 O198 2.091 . S
Co196 O200 2.004 . S
Co196 O206 2.021 . S
Co196 O208 2.137 . S
Co196 O209 2.244 . S
O197 Co196 2.216 . S
O197 C204 1.247 . S
O198 Co196 2.091 . S
O198 C204 1.261 . S
C199 O208 1.247 . S
C199 O209 1.272 . S
O200 Co196 2.004 . S
O200 C205 1.259 . S
Co201 O202 2.061 . S
Co201 O207 2.052 . S
Co201 O209 2.135 . S
O202 Co201 2.061 . S
O202 C205 1.235 . S
C203 O206 1.238 . S
C203 O207 1.241 . S
C204 O197 1.247 . S
C204 O198 1.261 . S
C205 O200 1.259 . S
C205 O202 1.235 . S
O206 Co196 2.021 . S
O206 C203 1.238 . S
O207 Co201 2.052 . S
O207 C203 1.241 . S
O208 Co196 2.137 . S
O208 C199 1.247 . S
O209 Co196 2.244 . S
O209 C199 1.272 . S
O209 Co201 2.135 . S
Co210 O211 2.216 . S
Co210 O212 2.091 . S
Co210 O214 2.004 . S
Co210 O220 2.021 . S
Co210 O222 2.137 . S
Co210 O223 2.244 . S
O211 Co210 2.216 . S
O211 C218 1.247 . S
O212 Co210 2.091 . S
O212 C218 1.261 . S
C213 O222 1.247 . S
C213 O223 1.272 . S
O214 Co210 2.004 . S
O214 C219 1.259 . S
Co215 O216 2.061 . S
Co215 O221 2.052 . S
Co215 O223 2.135 . S
O216 Co215 2.061 . S
O216 C219 1.235 . S
C217 O220 1.238 . S
C217 O221 1.241 . S
C218 O211 1.247 . S
C218 O212 1.261 . S
C219 O214 1.259 . S
C219 O216 1.235 . S
O220 Co210 2.021 . S
O220 C217 1.238 . S
O221 Co215 2.052 . S
O221 C217 1.241 . S
O222 Co210 2.137 . S
O222 C213 1.247 . S
O223 Co210 2.244 . S
O223 C213 1.272 . S
O223 Co215 2.135 . S
Co224 O225 2.216 . S
Co224 O226 2.091 . S
Co224 O228 2.004 . S
Co224 O234 2.021 . S
Co224 O236 2.137 . S
Co224 O237 2.244 . S
O225 Co224 2.216 . S
O225 C232 1.247 . S
O226 Co224 2.091 . S
O226 C232 1.261 . S
C227 O236 1.247 . S
C227 O237 1.272 . S
O228 Co224 2.004 . S
O228 C233 1.259 . S
Co229 O230 2.061 . S
Co229 O235 2.052 . S
Co229 O237 2.135 . S
O230 Co229 2.061 . S
O230 C233 1.235 . S
C231 O234 1.238 . S
C231 O235 1.241 . S
C232 O225 1.247 . S
C232 O226 1.261 . S
C233 O228 1.259 . S
C233 O230 1.235 . S
O234 Co224 2.021 . S
O234 C231 1.238 . S
O235 Co229 2.052 . S
O235 C231 1.241 . S
O236 Co224 2.137 . S
O236 C227 1.247 . S
O237 Co224 2.244 . S
O237 C227 1.272 . S
O237 Co229 2.135 . S
Co238 O239 2.216 . S
Co238 O240 2.091 . S
Co238 O242 2.004 . S
Co238 O248 2.021 . S
Co238 O250 2.137 . S
Co238 O251 2.244 . S
O239 Co238 2.216 . S
O239 C246 1.247 . S
O240 Co238 2.091 . S
O240 C246 1.261 . S
C241 O250 1.247 . S
C241 O251 1.272 . S
O242 Co238 2.004 . S
O242 C247 1.259 . S
Co243 O244 2.061 . S
Co243 O249 2.052 . S
Co243 O251 2.135 . S
O244 Co243 2.061 . S
O244 C247 1.235 . S
C245 O248 1.238 . S
C245 O249 1.241 . S
C246 O239 1.247 . S
C246 O240 1.261 . S
C247 O242 1.259 . S
C247 O244 1.235 . S
O248 Co238 2.021 . S
O248 C245 1.238 . S
O249 Co243 2.052 . S
O249 C245 1.241 . S
O250 Co238 2.137 . S
O250 C241 1.247 . S
O251 Co238 2.244 . S
O251 C241 1.272 . S
O251 Co243 2.135 . S
Co252 O253 2.216 . S
Co252 O254 2.091 . S
Co252 O256 2.004 . S
Co252 O262 2.021 . S
Co252 O264 2.137 . S
Co252 O265 2.244 . S
O253 Co252 2.216 . S
O253 C260 1.247 . S
O254 Co252 2.091 . S
O254 C260 1.261 . S
C255 O264 1.247 . S
C255 O265 1.272 . S
O256 Co252 2.004 . S
O256 C261 1.259 . S
Co257 O258 2.061 . S
Co257 O263 2.052 . S
Co257 O265 2.135 . S
O258 Co257 2.061 . S
O258 C261 1.235 . S
C259 O262 1.238 . S
C259 O263 1.241 . S
C260 O253 1.247 . S
C260 O254 1.261 . S
C261 O256 1.259 . S
C261 O258 1.235 . S
O262 Co252 2.021 . S
O262 C259 1.238 . S
O263 Co257 2.052 . S
O263 C259 1.241 . S
O264 Co252 2.137 . S
O264 C255 1.247 . S
O265 Co252 2.244 . S
O265 C255 1.272 . S
O265 Co257 2.135 . S
Co266 O267 2.216 . S
Co266 O268 2.091 . S
Co266 O270 2.004 . S
Co266 O276 2.021 . S
Co266 O278 2.137 . S
Co266 O279 2.244 . S
O267 Co266 2.216 . S
O267 C274 1.247 . S
O268 Co266 2.091 . S
O268 C274 1.261 . S
C269 O278 1.247 . S
C269 O279 1.272 . S
O270 Co266 2.004 . S
O270 C275 1.259 . S
Co271 O272 2.061 . S
Co271 O277 2.052 . S
Co271 O279 2.135 . S
O272 Co271 2.061 . S
O272 C275 1.235 . S
C273 O276 1.238 . S
C273 O277 1.241 . S
C274 O267 1.247 . S
C274 O268 1.261 . S
C275 O270 1.259 . S
C275 O272 1.235 . S
O276 Co266 2.021 . S
O276 C273 1.238 . S
O277 Co271 2.052 . S
O277 C273 1.241 . S
O278 Co266 2.137 . S
O278 C269 1.247 . S
O279 Co266 2.244 . S
O279 C269 1.272 . S
O279 Co271 2.135 . S
Co280 O281 2.216 . S
Co280 O282 2.091 . S
Co280 O284 2.004 . S
Co280 O290 2.021 . S
Co280 O292 2.137 . S
Co280 O293 2.244 . S
O281 Co280 2.216 . S
O281 C288 1.247 . S
O282 Co280 2.091 . S
O282 C288 1.261 . S
C283 O292 1.247 . S
C283 O293 1.272 . S
O284 Co280 2.004 . S
O284 C289 1.259 . S
Co285 O286 2.061 . S
Co285 O291 2.052 . S
Co285 O293 2.135 . S
O286 Co285 2.061 . S
O286 C289 1.235 . S
C287 O290 1.238 . S
C287 O291 1.241 . S
C288 O281 1.247 . S
C288 O282 1.261 . S
C289 O284 1.259 . S
C289 O286 1.235 . S
O290 Co280 2.021 . S
O290 C287 1.238 . S
O291 Co285 2.052 . S
O291 C287 1.241 . S
O292 Co280 2.137 . S
O292 C283 1.247 . S
O293 Co280 2.244 . S
O293 C283 1.272 . S
O293 Co285 2.135 . S
Co294 O295 2.216 . S
Co294 O296 2.091 . S
Co294 O298 2.004 . S
Co294 O304 2.021 . S
Co294 O306 2.137 . S
Co294 O307 2.244 . S
O295 Co294 2.216 . S
O295 C302 1.247 . S
O296 Co294 2.091 . S
O296 C302 1.261 . S
C297 O306 1.247 . S
C297 O307 1.272 . S
O298 Co294 2.004 . S
O298 C303 1.259 . S
Co299 O300 2.061 . S
Co299 O305 2.052 . S
Co299 O307 2.135 . S
O300 Co299 2.061 . S
O300 C303 1.235 . S
C301 O304 1.238 . S
C301 O305 1.241 . S
C302 O295 1.247 . S
C302 O296 1.261 . S
C303 O298 1.259 . S
C303 O300 1.235 . S
O304 Co294 2.021 . S
O304 C301 1.238 . S
O305 Co299 2.052 . S
O305 C301 1.241 . S
O306 Co294 2.137 . S
O306 C297 1.247 . S
O307 Co294 2.244 . S
O307 C297 1.272 . S
O307 Co299 2.135 . S
Co308 O309 2.216 . S
Co308 O310 2.091 . S
Co308 O312 2.004 . S
Co308 O318 2.021 . S
Co308 O320 2.137 . S
Co308 O321 2.244 . S
O309 Co308 2.216 . S
O309 C316 1.247 . S
O310 Co308 2.091 . S
O310 C316 1.261 . S
C311 O320 1.247 . S
C311 O321 1.272 . S
O312 Co308 2.004 . S
O312 C317 1.259 . S
Co313 O314 2.061 . S
Co313 O319 2.052 . S
Co313 O321 2.135 . S
O314 Co313 2.061 . S
O314 C317 1.235 . S
C315 O318 1.238 . S
C315 O319 1.241 . S
C316 O309 1.247 . S
C316 O310 1.261 . S
C317 O312 1.259 . S
C317 O314 1.235 . S
O318 Co308 2.021 . S
O318 C315 1.238 . S
O319 Co313 2.052 . S
O319 C315 1.241 . S
O320 Co308 2.137 . S
O320 C311 1.247 . S
O321 Co308 2.244 . S
O321 C311 1.272 . S
O321 Co313 2.135 . S
Co322 O323 2.216 . S
Co322 O324 2.091 . S
Co322 O326 2.004 . S
Co322 O332 2.021 . S
Co322 O334 2.137 . S
Co322 O335 2.244 . S
O323 Co322 2.216 . S
O323 C330 1.247 . S
O324 Co322 2.091 . S
O324 C330 1.261 . S
C325 O334 1.247 . S
C325 O335 1.272 . S
O326 Co322 2.004 . S
O326 C331 1.259 . S
Co327 O328 2.061 . S
Co327 O333 2.052 . S
Co327 O335 2.135 . S
O328 Co327 2.061 . S
O328 C331 1.235 . S
C329 O332 1.238 . S
C329 O333 1.241 . S
C330 O323 1.247 . S
C330 O324 1.261 . S
C331 O326 1.259 . S
C331 O328 1.235 . S
O332 Co322 2.021 . S
O332 C329 1.238 . S
O333 Co327 2.052 . S
O333 C329 1.241 . S
O334 Co322 2.137 . S
O334 C325 1.247 . S
O335 Co322 2.244 . S
O335 C325 1.272 . S
O335 Co327 2.135 . S
Co336 O337 2.216 . S
Co336 O338 2.091 . S
Co336 O340 2.004 . S
Co336 O346 2.021 . S
Co336 O348 2.137 . S
Co336 O349 2.244 . S
O337 Co336 2.216 . S
O337 C344 1.247 . S
O338 Co336 2.091 . S
O338 C344 1.261 . S
C339 O348 1.247 . S
C339 O349 1.272 . S
O340 Co336 2.004 . S
O340 C345 1.259 . S
Co341 O342 2.061 . S
Co341 O347 2.052 . S
Co341 O349 2.135 . S
O342 Co341 2.061 . S
O342 C345 1.235 . S
C343 O346 1.238 . S
C343 O347 1.241 . S
C344 O337 1.247 . S
C344 O338 1.261 . S
C345 O340 1.259 . S
C345 O342 1.235 . S
O346 Co336 2.021 . S
O346 C343 1.238 . S
O347 Co341 2.052 . S
O347 C343 1.241 . S
O348 Co336 2.137 . S
O348 C339 1.247 . S
O349 Co336 2.244 . S
O349 C339 1.272 . S
O349 Co341 2.135 . S
Co350 O351 2.216 . S
Co350 O352 2.091 . S
Co350 O354 2.004 . S
Co350 O360 2.021 . S
Co350 O362 2.137 . S
Co350 O363 2.244 . S
O351 Co350 2.216 . S
O351 C358 1.247 . S
O352 Co350 2.091 . S
O352 C358 1.261 . S
C353 O362 1.247 . S
C353 O363 1.272 . S
O354 Co350 2.004 . S
O354 C359 1.259 . S
Co355 O356 2.061 . S
Co355 O361 2.052 . S
Co355 O363 2.135 . S
O356 Co355 2.061 . S
O356 C359 1.235 . S
C357 O360 1.238 . S
C357 O361 1.241 . S
C358 O351 1.247 . S
C358 O352 1.261 . S
C359 O354 1.259 . S
C359 O356 1.235 . S
O360 Co350 2.021 . S
O360 C357 1.238 . S
O361 Co355 2.052 . S
O361 C357 1.241 . S
O362 Co350 2.137 . S
O362 C353 1.247 . S
O363 Co350 2.244 . S
O363 C353 1.272 . S
O363 Co355 2.135 . S
Co364 O365 2.216 . S
Co364 O366 2.091 . S
Co364 O368 2.004 . S
Co364 O374 2.021 . S
Co364 O376 2.137 . S
Co364 O377 2.244 . S
O365 Co364 2.216 . S
O365 C372 1.247 . S
O366 Co364 2.091 . S
O366 C372 1.261 . S
C367 O376 1.247 . S
C367 O377 1.272 . S
O368 Co364 2.004 . S
O368 C373 1.259 . S
Co369 O370 2.061 . S
Co369 O375 2.052 . S
Co369 O377 2.135 . S
O370 Co369 2.061 . S
O370 C373 1.235 . S
C371 O374 1.238 . S
C371 O375 1.241 . S
C372 O365 1.247 . S
C372 O366 1.261 . S
C373 O368 1.259 . S
C373 O370 1.235 . S
O374 Co364 2.021 . S
O374 C371 1.238 . S
O375 Co369 2.052 . S
O375 C371 1.241 . S
O376 Co364 2.137 . S
O376 C367 1.247 . S
O377 Co364 2.244 . S
O377 C367 1.272 . S
O377 Co369 2.135 . S
Co378 O379 2.216 . S
Co378 O380 2.091 . S
Co378 O382 2.004 . S
Co378 O388 2.021 . S
Co378 O390 2.137 . S
Co378 O391 2.244 . S
O379 Co378 2.216 . S
O379 C386 1.247 . S
O380 Co378 2.091 . S
O380 C386 1.261 . S
C381 O390 1.247 . S
C381 O391 1.272 . S
O382 Co378 2.004 . S
O382 C387 1.259 . S
Co383 O384 2.061 . S
Co383 O389 2.052 . S
Co383 O391 2.135 . S
O384 Co383 2.061 . S
O384 C387 1.235 . S
C385 O388 1.238 . S
C385 O389 1.241 . S
C386 O379 1.247 . S
C386 O380 1.261 . S
C387 O382 1.259 . S
C387 O384 1.235 . S
O388 Co378 2.021 . S
O388 C385 1.238 . S
O389 Co383 2.052 . S
O389 C385 1.241 . S
O390 Co378 2.137 . S
O390 C381 1.247 . S
O391 Co378 2.244 . S
O391 C381 1.272 . S
O391 Co383 2.135 . S
Co392 O393 2.216 . S
Co392 O394 2.091 . S
Co392 O396 2.004 . S
Co392 O402 2.021 . S
Co392 O404 2.137 . S
Co392 O405 2.244 . S
O393 Co392 2.216 . S
O393 C400 1.247 . S
O394 Co392 2.091 . S
O394 C400 1.261 . S
C395 O404 1.247 . S
C395 O405 1.272 . S
O396 Co392 2.004 . S
O396 C401 1.259 . S
Co397 O398 2.061 . S
Co397 O403 2.052 . S
Co397 O405 2.135 . S
O398 Co397 2.061 . S
O398 C401 1.235 . S
C399 O402 1.238 . S
C399 O403 1.241 . S
C400 O393 1.247 . S
C400 O394 1.261 . S
C401 O396 1.259 . S
C401 O398 1.235 . S
O402 Co392 2.021 . S
O402 C399 1.238 . S
O403 Co397 2.052 . S
O403 C399 1.241 . S
O404 Co392 2.137 . S
O404 C395 1.247 . S
O405 Co392 2.244 . S
O405 C395 1.272 . S
O405 Co397 2.135 . S
Co406 O407 2.216 . S
Co406 O408 2.091 . S
Co406 O410 2.004 . S
Co406 O416 2.021 . S
Co406 O418 2.137 . S
Co406 O419 2.244 . S
O407 Co406 2.216 . S
O407 C414 1.247 . S
O408 Co406 2.091 . S
O408 C414 1.261 . S
C409 O418 1.247 . S
C409 O419 1.272 . S
O410 Co406 2.004 . S
O410 C415 1.259 . S
Co411 O412 2.061 . S
Co411 O417 2.052 . S
Co411 O419 2.135 . S
O412 Co411 2.061 . S
O412 C415 1.235 . S
C413 O416 1.238 . S
C413 O417 1.241 . S
C414 O407 1.247 . S
C414 O408 1.261 . S
C415 O410 1.259 . S
C415 O412 1.235 . S
O416 Co406 2.021 . S
O416 C413 1.238 . S
O417 Co411 2.052 . S
O417 C413 1.241 . S
O418 Co406 2.137 . S
O418 C409 1.247 . S
O419 Co406 2.244 . S
O419 C409 1.272 . S
O419 Co411 2.135 . S
Co420 O421 2.216 . S
Co420 O422 2.091 . S
Co420 O424 2.004 . S
Co420 O430 2.021 . S
Co420 O432 2.137 . S
Co420 O433 2.244 . S
O421 Co420 2.216 . S
O421 C428 1.247 . S
O422 Co420 2.091 . S
O422 C428 1.261 . S
C423 O432 1.247 . S
C423 O433 1.272 . S
O424 Co420 2.004 . S
O424 C429 1.259 . S
Co425 O426 2.061 . S
Co425 O431 2.052 . S
Co425 O433 2.135 . S
O426 Co425 2.061 . S
O426 C429 1.235 . S
C427 O430 1.238 . S
C427 O431 1.241 . S
C428 O421 1.247 . S
C428 O422 1.261 . S
C429 O424 1.259 . S
C429 O426 1.235 . S
O430 Co420 2.021 . S
O430 C427 1.238 . S
O431 Co425 2.052 . S
O431 C427 1.241 . S
O432 Co420 2.137 . S
O432 C423 1.247 . S
O433 Co420 2.244 . S
O433 C423 1.272 . S
O433 Co425 2.135 . S
Co434 O435 2.216 . S
Co434 O436 2.091 . S
Co434 O438 2.004 . S
Co434 O444 2.021 . S
Co434 O446 2.137 . S
Co434 O447 2.244 . S
O435 Co434 2.216 . S
O435 C442 1.247 . S
O436 Co434 2.091 . S
O436 C442 1.261 . S
C437 O446 1.247 . S
C437 O447 1.272 . S
O438 Co434 2.004 . S
O438 C443 1.259 . S
Co439 O440 2.061 . S
Co439 O445 2.052 . S
Co439 O447 2.135 . S
O440 Co439 2.061 . S
O440 C443 1.235 . S
C441 O444 1.238 . S
C441 O445 1.241 . S
C442 O435 1.247 . S
C442 O436 1.261 . S
C443 O438 1.259 . S
C443 O440 1.235 . S
O444 Co434 2.021 . S
O444 C441 1.238 . S
O445 Co439 2.052 . S
O445 C441 1.241 . S
O446 Co434 2.137 . S
O446 C437 1.247 . S
O447 Co434 2.244 . S
O447 C437 1.272 . S
O447 Co439 2.135 . S
C448 C449 1.369 1_545 S
C448 C450 1.419 . S
C448 H452 0.930 . S
C449 C448 1.369 1_565 S
C449 C458 1.429 . S
C450 C448 1.419 . S
C450 C451 1.363 . S
C450 H453 0.929 . S
C451 C450 1.363 . S
C451 C457 1.428 1_545 S
H452 C448 0.930 . S
H453 C450 0.929 . S
S454 N455 1.613 . S
S454 N456 1.610 . S
N455 S454 1.613 . S
N455 C458 1.350 . S
N456 S454 1.610 . S
N456 C457 1.351 . S
C457 C451 1.428 1_565 S
C457 N456 1.351 . S
C457 C458 1.434 . S
C458 C449 1.429 . S
C458 N455 1.350 . S
C458 C457 1.434 . S
C459 C460 1.369 . S
C459 C461 1.419 . S
C459 H463 0.930 . S
C460 C459 1.369 . S
C460 C469 1.429 . S
C461 C459 1.419 . S
C461 C462 1.363 . S
C461 H464 0.929 . S
C462 C461 1.363 . S
C462 C468 1.428 . S
H463 C459 0.930 . S
H464 C461 0.929 . S
S465 N466 1.613 . S
S465 N467 1.610 . S
N466 S465 1.613 . S
N466 C469 1.350 . S
N467 S465 1.610 . S
N467 C468 1.351 . S
C468 C462 1.428 . S
C468 N467 1.351 . S
C468 C469 1.434 . S
C469 C460 1.429 . S
C469 N466 1.350 . S
C469 C468 1.434 . S
C470 C471 1.369 . S
C470 C472 1.419 . S
C470 H474 0.930 . S
C471 C470 1.369 . S
C471 C480 1.429 1_545 S
C472 C470 1.419 . S
C472 C473 1.363 1_545 S
C472 H475 0.929 . S
C473 C472 1.363 1_565 S
C473 C479 1.428 . S
H474 C470 0.930 . S
H475 C472 0.929 . S
S476 N477 1.613 . S
S476 N478 1.610 . S
N477 S476 1.613 . S
N477 C480 1.350 . S
N478 S476 1.610 . S
N478 C479 1.351 . S
C479 C473 1.428 . S
C479 N478 1.351 . S
C479 C480 1.434 . S
C480 C471 1.429 1_565 S
C480 N477 1.350 . S
C480 C479 1.434 . S
C481 C482 1.369 . S
C481 C483 1.419 1_556 S
C481 H485 0.930 . S
C482 C481 1.369 . S
C482 C491 1.429 . S
C483 C481 1.419 1_554 S
C483 C484 1.363 . S
C483 H486 0.929 . S
C484 C483 1.363 . S
C484 C490 1.428 . S
H485 C481 0.930 . S
H486 C483 0.929 . S
S487 N488 1.613 . S
S487 N489 1.610 1_556 S
N488 S487 1.613 . S
N488 C491 1.350 . S
N489 S487 1.610 1_554 S
N489 C490 1.351 . S
C490 C484 1.428 . S
C490 N489 1.351 . S
C490 C491 1.434 1_554 S
C491 C482 1.429 . S
C491 N488 1.350 . S
C491 C490 1.434 1_556 S
C492 C493 1.369 . S
C492 C494 1.419 1_565 S
C492 H496 0.930 . S
C493 C492 1.369 . S
C493 C502 1.429 . S
C494 C492 1.419 1_545 S
C494 C495 1.363 . S
C494 H497 0.929 . S
C495 C494 1.363 . S
C495 C501 1.428 . S
H496 C492 0.930 . S
H497 C494 0.929 . S
S498 N499 1.613 . S
S498 N500 1.610 1_565 S
N499 S498 1.613 . S
N499 C502 1.350 . S
N500 S498 1.610 1_545 S
N500 C501 1.351 . S
C501 C495 1.428 . S
C501 N500 1.351 . S
C501 C502 1.434 1_545 S
C502 C493 1.429 . S
C502 N499 1.350 . S
C502 C501 1.434 1_565 S
C503 C504 1.369 . S
C503 C505 1.419 . S
C503 H507 0.930 . S
C504 C503 1.369 . S
C504 C513 1.429 . S
C505 C503 1.419 . S
C505 C506 1.363 . S
C505 H508 0.929 . S
C506 C505 1.363 . S
C506 C512 1.428 . S
H507 C503 0.930 . S
H508 C505 0.929 . S
S509 N510 1.613 . S
S509 N511 1.610 . S
N510 S509 1.613 . S
N510 C513 1.350 . S
N511 S509 1.610 . S
N511 C512 1.351 . S
C512 C506 1.428 . S
C512 N511 1.351 . S
C512 C513 1.434 . S
C513 C504 1.429 . S
C513 N510 1.350 . S
C513 C512 1.434 . S
C514 C515 1.369 1_565 S
C514 C516 1.419 . S
C514 H518 0.930 . S
C515 C514 1.369 1_545 S
C515 C524 1.429 . S
C516 C514 1.419 . S
C516 C517 1.363 . S
C516 H519 0.929 . S
C517 C516 1.363 . S
C517 C523 1.428 1_565 S
H518 C514 0.930 . S
H519 C516 0.929 . S
S520 N521 1.613 . S
S520 N522 1.610 . S
N521 S520 1.613 . S
N521 C524 1.350 . S
N522 S520 1.610 . S
N522 C523 1.351 . S
C523 C517 1.428 1_545 S
C523 N522 1.351 . S
C523 C524 1.434 . S
C524 C515 1.429 . S
C524 N521 1.350 . S
C524 C523 1.434 . S
C525 C526 1.369 . S
C525 C527 1.419 1_556 S
C525 H529 0.930 . S
C526 C525 1.369 . S
C526 C535 1.429 . S
C527 C525 1.419 1_554 S
C527 C528 1.363 . S
C527 H530 0.929 . S
C528 C527 1.363 . S
C528 C534 1.428 . S
H529 C525 0.930 . S
H530 C527 0.929 . S
S531 N532 1.613 . S
S531 N533 1.610 1_556 S
N532 S531 1.613 . S
N532 C535 1.350 . S
N533 S531 1.610 1_554 S
N533 C534 1.351 . S
C534 C528 1.428 . S
C534 N533 1.351 . S
C534 C535 1.434 1_554 S
C535 C526 1.429 . S
C535 N532 1.350 . S
C535 C534 1.434 1_556 S
C536 C537 1.369 . S
C536 C538 1.419 . S
C536 H540 0.930 . S
C537 C536 1.369 . S
C537 C546 1.429 . S
C538 C536 1.419 . S
C538 C539 1.363 . S
C538 H541 0.929 . S
C539 C538 1.363 . S
C539 C545 1.428 . S
H540 C536 0.930 . S
H541 C538 0.929 . S
S542 N543 1.613 1_455 S
S542 N544 1.610 1_455 S
N543 S542 1.613 1_655 S
N543 C546 1.350 . S
N544 S542 1.610 1_655 S
N544 C545 1.351 . S
C545 C539 1.428 . S
C545 N544 1.351 . S
C545 C546 1.434 . S
C546 C537 1.429 . S
C546 N543 1.350 . S
C546 C545 1.434 . S
C547 C548 1.369 . S
C547 C549 1.419 1_554 S
C547 H551 0.930 . S
C548 C547 1.369 . S
C548 C557 1.429 . S
C549 C547 1.419 1_556 S
C549 C550 1.363 . S
C549 H552 0.929 . S
C550 C549 1.363 . S
C550 C556 1.428 . S
H551 C547 0.930 . S
H552 C549 0.929 . S
S553 N554 1.613 1_556 S
S553 N555 1.610 . S
N554 S553 1.613 1_554 S
N554 C557 1.350 . S
N555 S553 1.610 . S
N555 C556 1.351 . S
C556 C550 1.428 . S
C556 N555 1.351 . S
C556 C557 1.434 1_556 S
C557 C548 1.429 . S
C557 N554 1.350 . S
C557 C556 1.434 1_554 S
C558 C559 1.369 . S
C558 C560 1.419 . S
C558 H562 0.930 . S
C559 C558 1.369 . S
C559 C568 1.429 . S
C560 C558 1.419 . S
C560 C561 1.363 . S
C560 H563 0.929 . S
C561 C560 1.363 . S
C561 C567 1.428 . S
H562 C558 0.930 . S
H563 C560 0.929 . S
S564 N565 1.613 . S
S564 N566 1.610 . S
N565 S564 1.613 . S
N565 C568 1.350 . S
N566 S564 1.610 . S
N566 C567 1.351 . S
C567 C561 1.428 . S
C567 N566 1.351 . S
C567 C568 1.434 . S
C568 C559 1.429 . S
C568 N565 1.350 . S
C568 C567 1.434 . S
C569 C570 1.369 . S
C569 C571 1.419 . S
C569 H573 0.930 . S
C570 C569 1.369 . S
C570 C579 1.429 . S
C571 C569 1.419 . S
C571 C572 1.363 . S
C571 H574 0.929 . S
C572 C571 1.363 . S
C572 C578 1.428 . S
H573 C569 0.930 . S
H574 C571 0.929 . S
S575 N576 1.613 . S
S575 N577 1.610 . S
N576 S575 1.613 . S
N576 C579 1.350 . S
N577 S575 1.610 . S
N577 C578 1.351 . S
C578 C572 1.428 . S
C578 N577 1.351 . S
C578 C579 1.434 . S
C579 C570 1.429 . S
C579 N576 1.350 . S
C579 C578 1.434 . S
C580 C581 1.369 . S
C580 C582 1.419 . S
C580 H584 0.930 . S
C581 C580 1.369 . S
C581 C590 1.429 . S
C582 C580 1.419 . S
C582 C583 1.363 . S
C582 H585 0.929 . S
C583 C582 1.363 . S
C583 C589 1.428 . S
H584 C580 0.930 . S
H585 C582 0.929 . S
S586 N587 1.613 . S
S586 N588 1.610 . S
N587 S586 1.613 . S
N587 C590 1.350 . S
N588 S586 1.610 . S
N588 C589 1.351 . S
C589 C583 1.428 . S
C589 N588 1.351 . S
C589 C590 1.434 . S
C590 C581 1.429 . S
C590 N587 1.350 . S
C590 C589 1.434 . S
C591 C592 1.369 . S
C591 C593 1.419 1_554 S
C591 H595 0.930 . S
C592 C591 1.369 . S
C592 C601 1.429 . S
C593 C591 1.419 1_556 S
C593 C594 1.363 . S
C593 H596 0.929 . S
C594 C593 1.363 . S
C594 C600 1.428 . S
H595 C591 0.930 . S
H596 C593 0.929 . S
S597 N598 1.613 1_556 S
S597 N599 1.610 . S
N598 S597 1.613 1_554 S
N598 C601 1.350 . S
N599 S597 1.610 . S
N599 C600 1.351 . S
C600 C594 1.428 . S
C600 N599 1.351 . S
C600 C601 1.434 1_556 S
C601 C592 1.429 . S
C601 N598 1.350 . S
C601 C600 1.434 1_554 S
C602 C603 1.369 . S
C602 C604 1.419 . S
C602 H606 0.930 . S
C603 C602 1.369 . S
C603 C612 1.429 . S
C604 C602 1.419 . S
C604 C605 1.363 . S
C604 H607 0.929 . S
C605 C604 1.363 . S
C605 C611 1.428 . S
H606 C602 0.930 . S
H607 C604 0.929 . S
S608 N609 1.613 . S
S608 N610 1.610 . S
N609 S608 1.613 . S
N609 C612 1.350 . S
N610 S608 1.610 . S
N610 C611 1.351 . S
C611 C605 1.428 . S
C611 N610 1.351 . S
C611 C612 1.434 . S
C612 C603 1.429 . S
C612 N609 1.350 . S
C612 C611 1.434 . S
C613 C614 1.369 . S
C613 C615 1.419 . S
C613 H617 0.930 . S
C614 C613 1.369 . S
C614 C623 1.429 . S
C615 C613 1.419 . S
C615 C616 1.363 . S
C615 H618 0.929 . S
C616 C615 1.363 . S
C616 C622 1.428 . S
H617 C613 0.930 . S
H618 C615 0.929 . S
S619 N620 1.613 . S
S619 N621 1.610 . S
N620 S619 1.613 . S
N620 C623 1.350 . S
N621 S619 1.610 . S
N621 C622 1.351 . S
C622 C616 1.428 . S
C622 N621 1.351 . S
C622 C623 1.434 . S
C623 C614 1.429 . S
C623 N620 1.350 . S
C623 C622 1.434 . S
C624 C625 1.369 . S
C624 C626 1.419 . S
C624 H628 0.930 . S
C625 C624 1.369 . S
C625 C634 1.429 . S
C626 C624 1.419 . S
C626 C627 1.363 . S
C626 H629 0.929 . S
C627 C626 1.363 . S
C627 C633 1.428 . S
H628 C624 0.930 . S
H629 C626 0.929 . S
S630 N631 1.613 1_565 S
S630 N632 1.610 . S
N631 S630 1.613 1_545 S
N631 C634 1.350 1_545 S
N632 S630 1.610 . S
N632 C633 1.351 . S
C633 C627 1.428 . S
C633 N632 1.351 . S
C633 C634 1.434 . S
C634 C625 1.429 . S
C634 N631 1.350 1_565 S
C634 C633 1.434 . S
C635 C636 1.369 . S
C635 C637 1.419 . S
C635 H639 0.930 . S
C636 C635 1.369 . S
C636 C645 1.429 . S
C637 C635 1.419 . S
C637 C638 1.363 . S
C637 H640 0.929 . S
C638 C637 1.363 . S
C638 C644 1.428 . S
H639 C635 0.930 . S
H640 C637 0.929 . S
S641 N642 1.613 1_565 S
S641 N643 1.610 . S
N642 S641 1.613 1_545 S
N642 C645 1.350 . S
N643 S641 1.610 . S
N643 C644 1.351 1_565 S
C644 C638 1.428 . S
C644 N643 1.351 1_545 S
C644 C645 1.434 . S
C645 C636 1.429 . S
C645 N642 1.350 . S
C645 C644 1.434 . S
C646 C647 1.369 . S
C646 C648 1.419 . S
C646 H650 0.930 . S
C647 C646 1.369 . S
C647 C656 1.429 . S
C648 C646 1.419 . S
C648 C649 1.363 . S
C648 H651 0.929 . S
C649 C648 1.363 . S
C649 C655 1.428 . S
H650 C646 0.930 . S
H651 C648 0.929 . S
S652 N653 1.613 . S
S652 N654 1.610 1_565 S
N653 S652 1.613 . S
N653 C656 1.350 1_565 S
N654 S652 1.610 1_545 S
N654 C655 1.351 . S
C655 C649 1.428 . S
C655 N654 1.351 . S
C655 C656 1.434 . S
C656 C647 1.429 . S
C656 N653 1.350 1_545 S
C656 C655 1.434 . S
C657 C658 1.369 . S
C657 C659 1.419 . S
C657 H661 0.930 . S
C658 C657 1.369 . S
C658 C667 1.429 . S
C659 C657 1.419 . S
C659 C660 1.363 . S
C659 H662 0.929 . S
C660 C659 1.363 . S
C660 C666 1.428 . S
H661 C657 0.930 . S
H662 C659 0.929 . S
S663 N664 1.613 1_565 S
S663 N665 1.610 . S
N664 S663 1.613 1_545 S
N664 C667 1.350 1_545 S
N665 S663 1.610 . S
N665 C666 1.351 . S
C666 C660 1.428 . S
C666 N665 1.351 . S
C666 C667 1.434 . S
C667 C658 1.429 . S
C667 N664 1.350 1_565 S
C667 C666 1.434 . S
C668 C669 1.369 . S
C668 C670 1.419 . S
C668 H672 0.930 . S
C669 C668 1.369 . S
C669 C678 1.429 . S
C670 C668 1.419 . S
C670 C671 1.363 . S
C670 H673 0.929 . S
C671 C670 1.363 . S
C671 C677 1.428 . S
H672 C668 0.930 . S
H673 C670 0.929 . S
S674 N675 1.613 . S
S674 N676 1.610 . S
N675 S674 1.613 . S
N675 C678 1.350 . S
N676 S674 1.610 . S
N676 C677 1.351 . S
C677 C671 1.428 . S
C677 N676 1.351 . S
C677 C678 1.434 . S
C678 C669 1.429 . S
C678 N675 1.350 . S
C678 C677 1.434 . S
C679 C680 1.369 . S
C679 C681 1.419 . S
C679 H683 0.930 1_565 S
C680 C679 1.369 . S
C680 C689 1.429 . S
C681 C679 1.419 . S
C681 C682 1.363 . S
C681 H684 0.929 . S
C682 C681 1.363 . S
C682 C688 1.428 . S
H683 C679 0.930 1_545 S
H684 C681 0.929 . S
S685 N686 1.613 . S
S685 N687 1.610 . S
N686 S685 1.613 . S
N686 C689 1.350 . S
N687 S685 1.610 . S
N687 C688 1.351 . S
C688 C682 1.428 . S
C688 N687 1.351 . S
C688 C689 1.434 . S
C689 C680 1.429 . S
C689 N686 1.350 . S
C689 C688 1.434 . S
C690 C691 1.369 . S
C690 C692 1.419 . S
C690 H694 0.930 . S
C691 C690 1.369 . S
C691 C700 1.429 . S
C692 C690 1.419 . S
C692 C693 1.363 . S
C692 H695 0.929 . S
C693 C692 1.363 . S
C693 C699 1.428 . S
H694 C690 0.930 . S
H695 C692 0.929 . S
S696 N697 1.613 1_545 S
S696 N698 1.610 . S
N697 S696 1.613 1_565 S
N697 C700 1.350 . S
N698 S696 1.610 . S
N698 C699 1.351 1_545 S
C699 C693 1.428 . S
C699 N698 1.351 1_565 S
C699 C700 1.434 . S
C700 C691 1.429 . S
C700 N697 1.350 . S
C700 C699 1.434 . S
C701 C702 1.369 . S
C701 C703 1.419 . S
C701 H705 0.930 . S
C702 C701 1.369 . S
C702 C711 1.429 . S
C703 C701 1.419 . S
C703 C704 1.363 . S
C703 H706 0.929 . S
C704 C703 1.363 . S
C704 C710 1.428 . S
H705 C701 0.930 . S
H706 C703 0.929 . S
S707 N708 1.613 . S
S707 N709 1.610 . S
N708 S707 1.613 . S
N708 C711 1.350 . S
N709 S707 1.610 . S
N709 C710 1.351 . S
C710 C704 1.428 . S
C710 N709 1.351 . S
C710 C711 1.434 . S
C711 C702 1.429 . S
C711 N708 1.350 . S
C711 C710 1.434 . S
C712 C713 1.369 . S
C712 C714 1.419 . S
C712 H716 0.930 . S
C713 C712 1.369 . S
C713 C722 1.429 . S
C714 C712 1.419 . S
C714 C715 1.363 . S
C714 H717 0.929 . S
C715 C714 1.363 . S
C715 C721 1.428 . S
H716 C712 0.930 . S
H717 C714 0.929 . S
S718 N719 1.613 . S
S718 N720 1.610 . S
N719 S718 1.613 . S
N719 C722 1.350 . S
N720 S718 1.610 . S
N720 C721 1.351 . S
C721 C715 1.428 . S
C721 N720 1.351 . S
C721 C722 1.434 . S
C722 C713 1.429 . S
C722 N719 1.350 . S
C722 C721 1.434 . S
C723 C724 1.369 . S
C723 C725 1.419 . S
C723 H727 0.930 . S
C724 C723 1.369 . S
C724 C733 1.429 . S
C725 C723 1.419 . S
C725 C726 1.363 . S
C725 H728 0.929 . S
C726 C725 1.363 . S
C726 C732 1.428 . S
H727 C723 0.930 . S
H728 C725 0.929 . S
S729 N730 1.613 . S
S729 N731 1.610 . S
N730 S729 1.613 . S
N730 C733 1.350 . S
N731 S729 1.610 . S
N731 C732 1.351 . S
C732 C726 1.428 . S
C732 N731 1.351 . S
C732 C733 1.434 . S
C733 C724 1.429 . S
C733 N730 1.350 . S
C733 C732 1.434 . S
C734 C735 1.369 . S
C734 C736 1.419 . S
C734 H738 0.930 . S
C735 C734 1.369 . S
C735 C744 1.429 . S
C736 C734 1.419 . S
C736 C737 1.363 . S
C736 H739 0.929 . S
C737 C736 1.363 . S
C737 C743 1.428 . S
H738 C734 0.930 . S
H739 C736 0.929 . S
S740 N741 1.613 . S
S740 N742 1.610 . S
N741 S740 1.613 . S
N741 C744 1.350 . S
N742 S740 1.610 . S
N742 C743 1.351 . S
C743 C737 1.428 . S
C743 N742 1.351 . S
C743 C744 1.434 . S
C744 C735 1.429 . S
C744 N741 1.350 . S
C744 C743 1.434 . S
C745 C746 1.369 . S
C745 C747 1.419 . S
C745 H749 0.930 . S
C746 C745 1.369 . S
C746 C755 1.429 . S
C747 C745 1.419 . S
C747 C748 1.363 . S
C747 H750 0.929 . S
C748 C747 1.363 . S
C748 C754 1.428 . S
H749 C745 0.930 . S
H750 C747 0.929 . S
S751 N752 1.613 . S
S751 N753 1.610 . S
N752 S751 1.613 . S
N752 C755 1.350 . S
N753 S751 1.610 . S
N753 C754 1.351 . S
C754 C748 1.428 . S
C754 N753 1.351 . S
C754 C755 1.434 . S
C755 C746 1.429 . S
C755 N752 1.350 . S
C755 C754 1.434 . S
C756 C757 1.369 . S
C756 C758 1.419 . S
C756 H760 0.930 . S
C757 C756 1.369 . S
C757 C766 1.429 . S
C758 C756 1.419 . S
C758 C759 1.363 . S
C758 H761 0.929 . S
C759 C758 1.363 . S
C759 C765 1.428 . S
H760 C756 0.930 . S
H761 C758 0.929 . S
S762 N763 1.613 . S
S762 N764 1.610 . S
N763 S762 1.613 . S
N763 C766 1.350 . S
N764 S762 1.610 . S
N764 C765 1.351 . S
C765 C759 1.428 . S
C765 N764 1.351 . S
C765 C766 1.434 . S
C766 C757 1.429 . S
C766 N763 1.350 . S
C766 C765 1.434 . S
C767 C768 1.369 . S
C767 C769 1.419 . S
C767 H771 0.930 . S
C768 C767 1.369 . S
C768 C777 1.429 . S
C769 C767 1.419 . S
C769 C770 1.363 . S
C769 H772 0.929 . S
C770 C769 1.363 . S
C770 C776 1.428 . S
H771 C767 0.930 . S
H772 C769 0.929 . S
S773 N774 1.613 . S
S773 N775 1.610 . S
N774 S773 1.613 . S
N774 C777 1.350 . S
N775 S773 1.610 . S
N775 C776 1.351 . S
C776 C770 1.428 . S
C776 N775 1.351 . S
C776 C777 1.434 . S
C777 C768 1.429 . S
C777 N774 1.350 . S
C777 C776 1.434 . S
C778 C779 1.369 . S
C778 C780 1.419 . S
C778 H782 0.930 . S
C779 C778 1.369 . S
C779 C788 1.429 . S
C780 C778 1.419 . S
C780 C781 1.363 . S
C780 H783 0.929 . S
C781 C780 1.363 . S
C781 C787 1.428 . S
H782 C778 0.930 . S
H783 C780 0.929 . S
S784 N785 1.613 . S
S784 N786 1.610 . S
N785 S784 1.613 . S
N785 C788 1.350 . S
N786 S784 1.610 . S
N786 C787 1.351 . S
C787 C781 1.428 . S
C787 N786 1.351 . S
C787 C788 1.434 . S
C788 C779 1.429 . S
C788 N785 1.350 . S
C788 C787 1.434 . S
C789 C790 1.369 . S
C789 C791 1.419 . S
C789 H793 0.930 . S
C790 C789 1.369 . S
C790 C799 1.429 . S
C791 C789 1.419 . S
C791 C792 1.363 . S
C791 H794 0.929 . S
C792 C791 1.363 . S
C792 C798 1.428 . S
H793 C789 0.930 . S
H794 C791 0.929 . S
S795 N796 1.613 . S
S795 N797 1.610 . S
N796 S795 1.613 . S
N796 C799 1.350 . S
N797 S795 1.610 . S
N797 C798 1.351 . S
C798 C792 1.428 . S
C798 N797 1.351 . S
C798 C799 1.434 . S
C799 C790 1.429 . S
C799 N796 1.350 . S
C799 C798 1.434 . S
C800 C801 1.369 . S
C800 C802 1.419 . S
C800 H804 0.930 . S
C801 C800 1.369 . S
C801 C810 1.429 . S
C802 C800 1.419 . S
C802 C803 1.363 . S
C802 H805 0.929 . S
C803 C802 1.363 . S
C803 C809 1.428 . S
H804 C800 0.930 . S
H805 C802 0.929 . S
S806 N807 1.613 . S
S806 N808 1.610 . S
N807 S806 1.613 . S
N807 C810 1.350 . S
N808 S806 1.610 . S
N808 C809 1.351 . S
C809 C803 1.428 . S
C809 N808 1.351 . S
C809 C810 1.434 . S
C810 C801 1.429 . S
C810 N807 1.350 . S
C810 C809 1.434 . S
C811 C812 1.369 . S
C811 C813 1.419 . S
C811 H815 0.930 . S
C812 C811 1.369 . S
C812 C821 1.429 . S
C813 C811 1.419 . S
C813 C814 1.363 . S
C813 H816 0.929 . S
C814 C813 1.363 . S
C814 C820 1.428 . S
H815 C811 0.930 . S
H816 C813 0.929 . S
S817 N818 1.613 . S
S817 N819 1.610 1_455 S
N818 S817 1.613 . S
N818 C821 1.350 . S
N819 S817 1.610 1_655 S
N819 C820 1.351 1_655 S
C820 C814 1.428 . S
C820 N819 1.351 1_455 S
C820 C821 1.434 . S
C821 C812 1.429 . S
C821 N818 1.350 . S
C821 C820 1.434 . S
C822 C823 1.369 . S
C822 C824 1.419 . S
C822 H826 0.930 . S
C823 C822 1.369 . S
C823 C832 1.429 . S
C824 C822 1.419 . S
C824 C825 1.363 . S
C824 H827 0.929 . S
C825 C824 1.363 . S
C825 C831 1.428 . S
H826 C822 0.930 . S
H827 C824 0.929 . S
S828 N829 1.613 . S
S828 N830 1.610 . S
N829 S828 1.613 . S
N829 C832 1.350 . S
N830 S828 1.610 . S
N830 C831 1.351 . S
C831 C825 1.428 . S
C831 N830 1.351 . S
C831 C832 1.434 . S
C832 C823 1.429 . S
C832 N829 1.350 . S
C832 C831 1.434 . S
C833 C834 1.369 . S
C833 C835 1.419 . S
C833 H837 0.930 . S
C834 C833 1.369 . S
C834 C843 1.429 . S
C835 C833 1.419 . S
C835 C836 1.363 . S
C835 H838 0.929 . S
C836 C835 1.363 . S
C836 C842 1.428 . S
H837 C833 0.930 . S
H838 C835 0.929 . S
S839 N840 1.613 . S
S839 N841 1.610 . S
N840 S839 1.613 . S
N840 C843 1.350 . S
N841 S839 1.610 . S
N841 C842 1.351 . S
C842 C836 1.428 . S
C842 N841 1.351 . S
C842 C843 1.434 . S
C843 C834 1.429 . S
C843 N840 1.350 . S
C843 C842 1.434 . S
C844 C845 1.369 . S
C844 C846 1.419 . S
C844 H848 0.930 . S
C845 C844 1.369 . S
C845 C854 1.429 . S
C846 C844 1.419 . S
C846 C847 1.363 . S
C846 H849 0.929 . S
C847 C846 1.363 . S
C847 C853 1.428 . S
H848 C844 0.930 . S
H849 C846 0.929 . S
S850 N851 1.613 . S
S850 N852 1.610 . S
N851 S850 1.613 . S
N851 C854 1.350 . S
N852 S850 1.610 . S
N852 C853 1.351 . S
C853 C847 1.428 . S
C853 N852 1.351 . S
C853 C854 1.434 . S
C854 C845 1.429 . S
C854 N851 1.350 . S
C854 C853 1.434 . S
C855 C856 1.369 . S
C855 C857 1.419 . S
C855 H859 0.930 . S
C856 C855 1.369 . S
C856 C865 1.429 . S
C857 C855 1.419 . S
C857 C858 1.363 . S
C857 H860 0.929 . S
C858 C857 1.363 . S
C858 C864 1.428 . S
H859 C855 0.930 . S
H860 C857 0.929 . S
S861 N862 1.613 . S
S861 N863 1.610 . S
N862 S861 1.613 . S
N862 C865 1.350 . S
N863 S861 1.610 . S
N863 C864 1.351 . S
C864 C858 1.428 . S
C864 N863 1.351 . S
C864 C865 1.434 . S
C865 C856 1.429 . S
C865 N862 1.350 . S
C865 C864 1.434 . S
C866 C867 1.369 . S
C866 C868 1.419 . S
C866 H870 0.930 . S
C867 C866 1.369 . S
C867 C876 1.429 . S
C868 C866 1.419 . S
C868 C869 1.363 . S
C868 H871 0.929 . S
C869 C868 1.363 . S
C869 C875 1.428 . S
H870 C866 0.930 . S
H871 C868 0.929 . S
S872 N873 1.613 . S
S872 N874 1.610 . S
N873 S872 1.613 . S
N873 C876 1.350 . S
N874 S872 1.610 . S
N874 C875 1.351 . S
C875 C869 1.428 . S
C875 N874 1.351 . S
C875 C876 1.434 . S
C876 C867 1.429 . S
C876 N873 1.350 . S
C876 C875 1.434 . S
C877 C878 1.369 . S
C877 C879 1.419 . S
C877 H881 0.930 . S
C878 C877 1.369 . S
C878 C887 1.429 . S
C879 C877 1.419 . S
C879 C880 1.363 . S
C879 H882 0.929 . S
C880 C879 1.363 . S
C880 C886 1.428 . S
H881 C877 0.930 . S
H882 C879 0.929 . S
S883 N884 1.613 . S
S883 N885 1.610 1_455 S
N884 S883 1.613 . S
N884 C887 1.350 . S
N885 S883 1.610 1_655 S
N885 C886 1.351 1_655 S
C886 C880 1.428 . S
C886 N885 1.351 1_455 S
C886 C887 1.434 . S
C887 C878 1.429 . S
C887 N884 1.350 . S
C887 C886 1.434 . S
C888 C889 1.369 . S
C888 C890 1.419 . S
C888 H892 0.930 . S
C889 C888 1.369 . S
C889 C898 1.429 . S
C890 C888 1.419 . S
C890 C891 1.363 . S
C890 H893 0.929 . S
C891 C890 1.363 . S
C891 C897 1.428 . S
H892 C888 0.930 . S
H893 C890 0.929 . S
S894 N895 1.613 . S
S894 N896 1.610 . S
N895 S894 1.613 . S
N895 C898 1.350 . S
N896 S894 1.610 . S
N896 C897 1.351 . S
C897 C891 1.428 . S
C897 N896 1.351 . S
C897 C898 1.434 . S
C898 C889 1.429 . S
C898 N895 1.350 . S
C898 C897 1.434 . S
C899 C900 1.369 . S
C899 C901 1.419 . S
C899 H903 0.930 . S
C900 C899 1.369 . S
C900 C909 1.429 . S
C901 C899 1.419 . S
C901 C902 1.363 . S
C901 H904 0.929 . S
C902 C901 1.363 . S
C902 C908 1.428 . S
H903 C899 0.930 . S
H904 C901 0.929 . S
S905 N906 1.613 1_655 S
S905 N907 1.610 . S
N906 S905 1.613 1_455 S
N906 C909 1.350 1_455 S
N907 S905 1.610 . S
N907 C908 1.351 . S
C908 C902 1.428 . S
C908 N907 1.351 . S
C908 C909 1.434 . S
C909 C900 1.429 . S
C909 N906 1.350 1_655 S
C909 C908 1.434 . S
C910 C911 1.369 . S
C910 C912 1.419 . S
C910 H914 0.930 . S
C911 C910 1.369 . S
C911 C920 1.429 . S
C912 C910 1.419 . S
C912 C913 1.363 . S
C912 H915 0.929 . S
C913 C912 1.363 . S
C913 C919 1.428 . S
H914 C910 0.930 . S
H915 C912 0.929 . S
S916 N917 1.613 . S
S916 N918 1.610 . S
N917 S916 1.613 . S
N917 C920 1.350 . S
N918 S916 1.610 . S
N918 C919 1.351 . S
C919 C913 1.428 . S
C919 N918 1.351 . S
C919 C920 1.434 . S
C920 C911 1.429 . S
C920 N917 1.350 . S
C920 C919 1.434 . S
C921 C922 1.369 . S
C921 C923 1.419 . S
C921 H925 0.930 . S
C922 C921 1.369 . S
C922 C931 1.429 . S
C923 C921 1.419 . S
C923 C924 1.363 . S
C923 H926 0.929 . S
C924 C923 1.363 . S
C924 C930 1.428 . S
H925 C921 0.930 . S
H926 C923 0.929 . S
S927 N928 1.613 . S
S927 N929 1.610 . S
N928 S927 1.613 . S
N928 C931 1.350 . S
N929 S927 1.610 . S
N929 C930 1.351 . S
C930 C924 1.428 . S
C930 N929 1.351 . S
C930 C931 1.434 . S
C931 C922 1.429 . S
C931 N928 1.350 . S
C931 C930 1.434 . S
C932 C933 1.369 . S
C932 C934 1.419 . S
C932 H936 0.930 . S
C933 C932 1.369 . S
C933 C942 1.429 . S
C934 C932 1.419 . S
C934 C935 1.363 . S
C934 H937 0.929 . S
C935 C934 1.363 . S
C935 C941 1.428 . S
H936 C932 0.930 . S
H937 C934 0.929 . S
S938 N939 1.613 . S
S938 N940 1.610 . S
N939 S938 1.613 . S
N939 C942 1.350 . S
N940 S938 1.610 . S
N940 C941 1.351 . S
C941 C935 1.428 . S
C941 N940 1.351 . S
C941 C942 1.434 . S
C942 C933 1.429 . S
C942 N939 1.350 . S
C942 C941 1.434 . S
C943 C944 1.369 . S
C943 C945 1.419 . S
C943 H947 0.930 . S
C944 C943 1.369 . S
C944 C953 1.429 . S
C945 C943 1.419 . S
C945 C946 1.363 . S
C945 H948 0.929 . S
C946 C945 1.363 . S
C946 C952 1.428 . S
H947 C943 0.930 . S
H948 C945 0.929 . S
S949 N950 1.613 . S
S949 N951 1.610 . S
N950 S949 1.613 . S
N950 C953 1.350 . S
N951 S949 1.610 . S
N951 C952 1.351 . S
C952 C946 1.428 . S
C952 N951 1.351 . S
C952 C953 1.434 . S
C953 C944 1.429 . S
C953 N950 1.350 . S
C953 C952 1.434 . S
C954 C955 1.369 . S
C954 C956 1.419 . S
C954 H958 0.930 . S
C955 C954 1.369 . S
C955 C964 1.429 . S
C956 C954 1.419 . S
C956 C957 1.363 . S
C956 H959 0.929 . S
C957 C956 1.363 . S
C957 C963 1.428 . S
H958 C954 0.930 . S
H959 C956 0.929 . S
S960 N961 1.613 . S
S960 N962 1.610 . S
N961 S960 1.613 . S
N961 C964 1.350 . S
N962 S960 1.610 . S
N962 C963 1.351 . S
C963 C957 1.428 . S
C963 N962 1.351 . S
C963 C964 1.434 . S
C964 C955 1.429 . S
C964 N961 1.350 . S
C964 C963 1.434 . S
C965 C966 1.369 . S
C965 C967 1.419 . S
C965 H969 0.930 . S
C966 C965 1.369 . S
C966 C975 1.429 . S
C967 C965 1.419 . S
C967 C968 1.363 . S
C967 H970 0.929 . S
C968 C967 1.363 . S
C968 C974 1.428 . S
H969 C965 0.930 . S
H970 C967 0.929 . S
S971 N972 1.613 1_655 S
S971 N973 1.610 . S
N972 S971 1.613 1_455 S
N972 C975 1.350 1_455 S
N973 S971 1.610 . S
N973 C974 1.351 . S
C974 C968 1.428 . S
C974 N973 1.351 . S
C974 C975 1.434 . S
C975 C966 1.429 . S
C975 N972 1.350 1_655 S
C975 C974 1.434 . S
C976 C977 1.369 . S
C976 C978 1.419 . S
C976 H980 0.930 . S
C977 C976 1.369 . S
C977 C986 1.429 . S
C978 C976 1.419 . S
C978 C979 1.363 . S
C978 H981 0.929 . S
C979 C978 1.363 . S
C979 C985 1.428 . S
H980 C976 0.930 . S
H981 C978 0.929 . S
S982 N983 1.613 . S
S982 N984 1.610 . S
N983 S982 1.613 . S
N983 C986 1.350 . S
N984 S982 1.610 . S
N984 C985 1.351 . S
C985 C979 1.428 . S
C985 N984 1.351 . S
C985 C986 1.434 . S
C986 C977 1.429 . S
C986 N983 1.350 . S
C986 C985 1.434 . S
C987 C988 1.369 . S
C987 C989 1.419 . S
C987 H991 0.930 . S
C988 C987 1.369 . S
C988 C997 1.429 . S
C989 C987 1.419 . S
C989 C990 1.363 . S
C989 H992 0.929 . S
C990 C989 1.363 . S
C990 C996 1.428 . S
H991 C987 0.930 . S
H992 C989 0.929 . S
S993 N994 1.613 . S
S993 N995 1.610 . S
N994 S993 1.613 . S
N994 C997 1.350 . S
N995 S993 1.610 . S
N995 C996 1.351 . S
C996 C990 1.428 . S
C996 N995 1.351 . S
C996 C997 1.434 . S
C997 C988 1.429 . S
C997 N994 1.350 . S
C997 C996 1.434 . S
C998 C999 1.369 . S
C998 C1000 1.419 . S
C998 H1002 0.930 . S
C999 C998 1.369 . S
C999 C1008 1.429 . S
C1000 C998 1.419 . S
C1000 C1001 1.363 . S
C1000 H1003 0.929 . S
C1001 C1000 1.363 . S
C1001 C1007 1.428 . S
H1002 C998 0.930 . S
H1003 C1000 0.929 . S
S1004 N1005 1.613 . S
S1004 N1006 1.610 . S
N1005 S1004 1.613 . S
N1005 C1008 1.350 . S
N1006 S1004 1.610 . S
N1006 C1007 1.351 . S
C1007 C1001 1.428 . S
C1007 N1006 1.351 . S
C1007 C1008 1.434 . S
C1008 C999 1.429 . S
C1008 N1005 1.350 . S
C1008 C1007 1.434 . S
C1009 C1010 1.369 . S
C1009 C1011 1.419 . S
C1009 H1013 0.930 . S
C1010 C1009 1.369 . S
C1010 C1019 1.429 . S
C1011 C1009 1.419 . S
C1011 C1012 1.363 . S
C1011 H1014 0.929 . S
C1012 C1011 1.363 . S
C1012 C1018 1.428 . S
H1013 C1009 0.930 . S
H1014 C1011 0.929 . S
S1015 N1016 1.613 . S
S1015 N1017 1.610 . S
N1016 S1015 1.613 . S
N1016 C1019 1.350 . S
N1017 S1015 1.610 . S
N1017 C1018 1.351 . S
C1018 C1012 1.428 . S
C1018 N1017 1.351 . S
C1018 C1019 1.434 . S
C1019 C1010 1.429 . S
C1019 N1016 1.350 . S
C1019 C1018 1.434 . S
C1020 C1021 1.369 . S
C1020 C1022 1.419 . S
C1020 H1024 0.930 . S
C1021 C1020 1.369 . S
C1021 C1030 1.429 . S
C1022 C1020 1.419 . S
C1022 C1023 1.363 . S
C1022 H1025 0.929 . S
C1023 C1022 1.363 . S
C1023 C1029 1.428 . S
H1024 C1020 0.930 . S
H1025 C1022 0.929 . S
S1026 N1027 1.613 . S
S1026 N1028 1.610 . S
N1027 S1026 1.613 . S
N1027 C1030 1.350 . S
N1028 S1026 1.610 . S
N1028 C1029 1.351 . S
C1029 C1023 1.428 . S
C1029 N1028 1.351 . S
C1029 C1030 1.434 . S
C1030 C1021 1.429 . S
C1030 N1027 1.350 . S
C1030 C1029 1.434 . S
C1031 C1032 1.369 . S
C1031 C1033 1.419 . S
C1031 H1035 0.930 . S
C1032 C1031 1.369 . S
C1032 C1041 1.429 . S
C1033 C1031 1.419 . S
C1033 C1034 1.363 . S
C1033 H1036 0.929 . S
C1034 C1033 1.363 . S
C1034 C1040 1.428 . S
H1035 C1031 0.930 . S
H1036 C1033 0.929 . S
S1037 N1038 1.613 1_655 S
S1037 N1039 1.610 . S
N1038 S1037 1.613 1_455 S
N1038 C1041 1.350 1_455 S
N1039 S1037 1.610 . S
N1039 C1040 1.351 . S
C1040 C1034 1.428 . S
C1040 N1039 1.351 . S
C1040 C1041 1.434 . S
C1041 C1032 1.429 . S
C1041 N1038 1.350 1_655 S
C1041 C1040 1.434 . S
C1042 C1043 1.369 . S
C1042 C1044 1.419 . S
C1042 H1046 0.930 . S
C1043 C1042 1.369 . S
C1043 C1052 1.429 . S
C1044 C1042 1.419 . S
C1044 C1045 1.363 . S
C1044 H1047 0.929 . S
C1045 C1044 1.363 . S
C1045 C1051 1.428 . S
H1046 C1042 0.930 . S
H1047 C1044 0.929 . S
S1048 N1049 1.613 . S
S1048 N1050 1.610 . S
N1049 S1048 1.613 . S
N1049 C1052 1.350 . S
N1050 S1048 1.610 . S
N1050 C1051 1.351 . S
C1051 C1045 1.428 . S
C1051 N1050 1.351 . S
C1051 C1052 1.434 . S
C1052 C1043 1.429 . S
C1052 N1049 1.350 . S
C1052 C1051 1.434 . S
C1053 C1054 1.369 . S
C1053 C1055 1.419 . S
C1053 H1057 0.930 . S
C1054 C1053 1.369 . S
C1054 C1063 1.429 . S
C1055 C1053 1.419 . S
C1055 C1056 1.363 . S
C1055 H1058 0.929 . S
C1056 C1055 1.363 . S
C1056 C1062 1.428 . S
H1057 C1053 0.930 . S
H1058 C1055 0.929 . S
S1059 N1060 1.613 . S
S1059 N1061 1.610 . S
N1060 S1059 1.613 . S
N1060 C1063 1.350 . S
N1061 S1059 1.610 . S
N1061 C1062 1.351 . S
C1062 C1056 1.428 . S
C1062 N1061 1.351 . S
C1062 C1063 1.434 . S
C1063 C1054 1.429 . S
C1063 N1060 1.350 . S
C1063 C1062 1.434 . S
C1064 C1065 1.369 . S
C1064 C1066 1.419 . S
C1064 H1068 0.930 . S
C1065 C1064 1.369 . S
C1065 C1074 1.429 . S
C1066 C1064 1.419 . S
C1066 C1067 1.363 . S
C1066 H1069 0.929 . S
C1067 C1066 1.363 . S
C1067 C1073 1.428 . S
H1068 C1064 0.930 . S
H1069 C1066 0.929 . S
S1070 N1071 1.613 . S
S1070 N1072 1.610 . S
N1071 S1070 1.613 . S
N1071 C1074 1.350 . S
N1072 S1070 1.610 . S
N1072 C1073 1.351 . S
C1073 C1067 1.428 . S
C1073 N1072 1.351 . S
C1073 C1074 1.434 . S
C1074 C1065 1.429 . S
C1074 N1071 1.350 . S
C1074 C1073 1.434 . S
C1075 C1076 1.369 . S
C1075 C1077 1.419 . S
C1075 H1079 0.930 . S
C1076 C1075 1.369 . S
C1076 C1085 1.429 . S
C1077 C1075 1.419 . S
C1077 C1078 1.363 . S
C1077 H1080 0.929 . S
C1078 C1077 1.363 . S
C1078 C1084 1.428 . S
H1079 C1075 0.930 . S
H1080 C1077 0.929 . S
S1081 N1082 1.613 . S
S1081 N1083 1.610 . S
N1082 S1081 1.613 . S
N1082 C1085 1.350 . S
N1083 S1081 1.610 . S
N1083 C1084 1.351 . S
C1084 C1078 1.428 . S
C1084 N1083 1.351 . S
C1084 C1085 1.434 . S
C1085 C1076 1.429 . S
C1085 N1082 1.350 . S
C1085 C1084 1.434 . S
C1086 C1087 1.369 . S
C1086 C1088 1.419 . S
C1086 H1090 0.930 . S
C1087 C1086 1.369 . S
C1087 C1096 1.429 . S
C1088 C1086 1.419 . S
C1088 C1089 1.363 . S
C1088 H1091 0.929 . S
C1089 C1088 1.363 . S
C1089 C1095 1.428 . S
H1090 C1086 0.930 . S
H1091 C1088 0.929 . S
S1092 N1093 1.613 . S
S1092 N1094 1.610 . S
N1093 S1092 1.613 . S
N1093 C1096 1.350 . S
N1094 S1092 1.610 . S
N1094 C1095 1.351 . S
C1095 C1089 1.428 . S
C1095 N1094 1.351 . S
C1095 C1096 1.434 . S
C1096 C1087 1.429 . S
C1096 N1093 1.350 . S
C1096 C1095 1.434 . S
C1097 C1098 1.369 . S
C1097 C1099 1.419 . S
C1097 H1101 0.930 . S
C1098 C1097 1.369 . S
C1098 C1107 1.429 . S
C1099 C1097 1.419 . S
C1099 C1100 1.363 . S
C1099 H1102 0.929 . S
C1100 C1099 1.363 . S
C1100 C1106 1.428 . S
H1101 C1097 0.930 . S
H1102 C1099 0.929 . S
S1103 N1104 1.613 . S
S1103 N1105 1.610 . S
N1104 S1103 1.613 . S
N1104 C1107 1.350 . S
N1105 S1103 1.610 . S
N1105 C1106 1.351 . S
C1106 C1100 1.428 . S
C1106 N1105 1.351 . S
C1106 C1107 1.434 . S
C1107 C1098 1.429 . S
C1107 N1104 1.350 . S
C1107 C1106 1.434 . S
C1108 C1109 1.369 . S
C1108 C1110 1.419 . S
C1108 H1112 0.930 . S
C1109 C1108 1.369 . S
C1109 C1118 1.429 . S
C1110 C1108 1.419 . S
C1110 C1111 1.363 . S
C1110 H1113 0.929 . S
C1111 C1110 1.363 . S
C1111 C1117 1.428 . S
H1112 C1108 0.930 . S
H1113 C1110 0.929 . S
S1114 N1115 1.613 . S
S1114 N1116 1.610 . S
N1115 S1114 1.613 . S
N1115 C1118 1.350 . S
N1116 S1114 1.610 . S
N1116 C1117 1.351 . S
C1117 C1111 1.428 . S
C1117 N1116 1.351 . S
C1117 C1118 1.434 . S
C1118 C1109 1.429 . S
C1118 N1115 1.350 . S
C1118 C1117 1.434 . S
C1119 C1120 1.369 . S
C1119 C1121 1.419 . S
C1119 H1123 0.930 . S
C1120 C1119 1.369 . S
C1120 C1129 1.429 . S
C1121 C1119 1.419 . S
C1121 C1122 1.363 . S
C1121 H1124 0.929 . S
C1122 C1121 1.363 . S
C1122 C1128 1.428 . S
H1123 C1119 0.930 . S
H1124 C1121 0.929 . S
S1125 N1126 1.613 . S
S1125 N1127 1.610 1_455 S
N1126 S1125 1.613 . S
N1126 C1129 1.350 . S
N1127 S1125 1.610 1_655 S
N1127 C1128 1.351 1_655 S
C1128 C1122 1.428 . S
C1128 N1127 1.351 1_455 S
C1128 C1129 1.434 . S
C1129 C1120 1.429 . S
C1129 N1126 1.350 . S
C1129 C1128 1.434 . S
C1130 C1131 1.369 . S
C1130 C1132 1.419 . S
C1130 H1134 0.930 . S
C1131 C1130 1.369 . S
C1131 C1140 1.429 . S
C1132 C1130 1.419 . S
C1132 C1133 1.363 . S
C1132 H1135 0.929 . S
C1133 C1132 1.363 . S
C1133 C1139 1.428 . S
H1134 C1130 0.930 . S
H1135 C1132 0.929 . S
S1136 N1137 1.613 . S
S1136 N1138 1.610 . S
N1137 S1136 1.613 . S
N1137 C1140 1.350 . S
N1138 S1136 1.610 . S
N1138 C1139 1.351 . S
C1139 C1133 1.428 . S
C1139 N1138 1.351 . S
C1139 C1140 1.434 . S
C1140 C1131 1.429 . S
C1140 N1137 1.350 . S
C1140 C1139 1.434 . S
C1141 C1142 1.369 . S
C1141 C1143 1.419 . S
C1141 H1145 0.930 . S
C1142 C1141 1.369 . S
C1142 C1151 1.429 . S
C1143 C1141 1.419 . S
C1143 C1144 1.363 . S
C1143 H1146 0.929 . S
C1144 C1143 1.363 . S
C1144 C1150 1.428 . S
H1145 C1141 0.930 . S
H1146 C1143 0.929 . S
S1147 N1148 1.613 . S
S1147 N1149 1.610 . S
N1148 S1147 1.613 . S
N1148 C1151 1.350 . S
N1149 S1147 1.610 . S
N1149 C1150 1.351 . S
C1150 C1144 1.428 . S
C1150 N1149 1.351 . S
C1150 C1151 1.434 . S
C1151 C1142 1.429 . S
C1151 N1148 1.350 . S
C1151 C1150 1.434 . S
C449 C64 1.514 . S
C451 C8 1.517 . S
C460 C78 1.516 . S
C462 C22 1.517 . S
C471 C92 1.517 . S
C473 C36 1.514 . S
C482 C50 1.515 . S
C484 C106 1.515 . S
C493 C120 1.516 . S
C495 C176 1.517 . S
C504 C190 1.515 . S
C506 C134 1.517 . S
C515 C148 1.514 . S
C517 C204 1.517 . S
C526 C218 1.517 . S
C528 C162 1.516 . S
C537 C232 1.517 . S
C539 C288 1.515 . S
C548 C302 1.516 . S
C550 C246 1.516 . S
C559 C316 1.518 . S
C561 C260 1.515 . S
C570 C330 1.515 . S
C572 C274 1.517 . S
C581 C344 1.514 . S
C583 C400 1.517 . S
C592 C358 1.515 . S
C594 C414 1.515 . S
C603 C372 1.518 . S
C605 C428 1.514 . S
C614 C386 1.514 . S
C616 C442 1.517 . S
C625 C7 1.333 1_565 S
C627 C105 1.337 . S
C636 C21 1.337 . S
C638 C63 1.334 1_545 S
C647 C35 1.334 1_545 S
C649 C77 1.337 . S
C658 C91 1.337 1_565 S
C660 C49 1.334 . S
C669 C217 1.333 . S
C671 C119 1.337 1_545 S
C680 C175 1.338 1_565 S
C682 C133 1.334 . S
C691 C189 1.334 . S
C693 C147 1.336 1_565 S
C702 C161 1.338 . S
C704 C203 1.334 1_545 S
C713 C329 1.335 . S
C715 C231 1.335 . S
C724 C287 1.335 . S
C726 C245 1.336 . S
C735 C301 1.337 . S
C737 C259 1.334 . S
C746 C273 1.333 . S
C748 C315 1.337 . S
C757 C343 1.334 . S
C759 C441 1.336 . S
C768 C357 1.333 . S
C770 C399 1.337 . S
C779 C371 1.334 . S
C781 C413 1.337 . S
C790 C427 1.337 . S
C792 C385 1.335 . S
C801 C9 1.470 . S
C803 C353 1.473 . S
C812 C23 1.473 . S
C814 C143 1.474 1_455 S
C823 C37 1.470 . S
C825 C381 1.473 . S
C834 C115 1.474 . S
C836 C51 1.470 . S
C845 C437 1.473 . S
C847 C65 1.470 . S
C856 C79 1.470 . S
C858 C171 1.473 . S
C867 C93 1.470 . S
C869 C409 1.474 . S
C878 C107 1.473 . S
C880 C199 1.474 1_455 S
C889 C241 1.473 . S
C891 C121 1.470 . S
C900 C31 1.473 1_655 S
C902 C135 1.472 . S
C911 C269 1.475 . S
C913 C149 1.471 . S
C922 C163 1.474 . S
C924 C3 1.476 . S
C933 C325 1.476 . S
C935 C177 1.474 . S
C944 C59 1.476 . S
C946 C191 1.473 . S
C955 C297 1.474 . S
C957 C205 1.471 . S
C966 C87 1.474 1_655 S
C968 C219 1.473 . S
C977 C129 1.473 . S
C979 C233 1.470 . S
C988 C247 1.473 . S
C990 C367 1.474 . S
C999 C261 1.470 . S
C1001 C157 1.473 . S
C1010 C275 1.472 . S
C1012 C339 1.476 1_655 S
C1021 C289 1.473 . S
C1023 C213 1.476 . S
C1032 C395 1.473 1_655 S
C1034 C303 1.472 . S
C1043 C317 1.473 . S
C1045 C185 1.474 . S
C1054 C331 1.471 . S
C1056 C423 1.475 . S
C1065 C345 1.471 . S
C1067 C17 1.473 . S
C1076 C359 1.472 . S
C1078 C255 1.475 . S
C1087 C45 1.476 . S
C1089 C373 1.472 . S
C1098 C227 1.476 1_455 S
C1100 C387 1.473 . S
C1109 C401 1.470 . S
C1111 C101 1.473 . S
C1120 C415 1.471 . S
C1122 C283 1.473 1_455 S
C1131 C73 1.472 . S
C1133 C429 1.470 . S
C1142 C311 1.475 . S
C1144 C443 1.472 . S
