# Generated by pormake.
# Topology fnt, (5)-cn, num edge types: 1
# Building blocks:
#     Node 0, Type 0, BuildingBlock: XOMCOT_clean_sbu_0, # of connection points: 5
#     Node 1, Type 0, BuildingBlock: XOMCOT_clean_sbu_0, # of connection points: 5
#     Node 2, Type 0, BuildingBlock: XOMCOT_clean_sbu_0, # of connection points: 5
#     Node 3, Type 0, BuildingBlock: XOMCOT_clean_sbu_0, # of connection points: 5
#     Node 4, Type 0, BuildingBlock: XOMCOT_clean_sbu_0, # of connection points: 5
#     Node 5, Type 0, BuildingBlock: XOMCOT_clean_sbu_0, # of connection points: 5
#     Edge 6, Type (0, 0), BuildingBlock: MIFKUJ_clean_linker_0, # of connection points: 2
#     Edge 7, Type (0, 0), BuildingBlock: MIFKUJ_clean_linker_0, # of connection points: 2
#     Edge 8, Type (0, 0), BuildingBlock: MIFKUJ_clean_linker_0, # of connection points: 2
#     Edge 9, Type (0, 0), BuildingBlock: MIFKUJ_clean_linker_0, # of connection points: 2
#     Edge 10, Type (0, 0), BuildingBlock: MIFKUJ_clean_linker_0, # of connection points: 2
#     Edge 11, Type (0, 0), BuildingBlock: MIFKUJ_clean_linker_0, # of connection points: 2
#     Edge 12, Type (0, 0), BuildingBlock: MIFKUJ_clean_linker_0, # of connection points: 2
#     Edge 13, Type (0, 0), BuildingBlock: MIFKUJ_clean_linker_0, # of connection points: 2
#     Edge 14, Type (0, 0), BuildingBlock: MIFKUJ_clean_linker_0, # of connection points: 2
#     Edge 15, Type (0, 0), BuildingBlock: MIFKUJ_clean_linker_0, # of connection points: 2
#     Edge 16, Type (0, 0), BuildingBlock: MIFKUJ_clean_linker_0, # of connection points: 2
#     Edge 17, Type (0, 0), BuildingBlock: MIFKUJ_clean_linker_0, # of connection points: 2
#     Edge 18, Type (0, 0), BuildingBlock: MIFKUJ_clean_linker_0, # of connection points: 2
#     Edge 19, Type (0, 0), BuildingBlock: MIFKUJ_clean_linker_0, # of connection points: 2
#     Edge 20, Type (0, 0), BuildingBlock: MIFKUJ_clean_linker_0, # of connection points: 2
# Relax obj value: 0.136
# Max RMSD: 0.164
# Mean RMSD: 0.164
data_MOF--net-fnt--node1-XOMCOT_clean_sbu_0--edge1-MIFKUJ_clean_linker_0
_symmetry_space_group_name_H-M    P1
_symmetry_Int_Tables_number       1
_symmetry_cell_setting            triclinic
loop_
_symmetry_equiv_pos_as_xyz
'x, y, z'
_cell_length_a     35.284712
_cell_length_b     35.232755
_cell_length_c     60.180511
_cell_angle_alpha  89.759642
_cell_angle_beta   90.112494
_cell_angle_gamma 120.05606
loop_
_atom_site_label
_atom_site_type_symbol
_atom_site_fract_x
_atom_site_fract_y
_atom_site_fract_z
_atom_type_partial_charge
Co0 Co 0.17642 0.30972 0.03085 0.0
C1 C 0.14842 0.28533 0.07809 0.0
C2 C 0.21325 0.3408 0.07572 0.0
C3 C 0.20187 0.33263 0.09784 0.0
N4 N 0.17986 0.31096 0.06325 0.0
N5 N 0.16099 0.29786 0.0993 0.0
H6 H 0.11648 0.25865 0.07357 0.0
H7 H 0.24319 0.36789 0.06926 0.0
C8 C 0.2702 0.36208 1.01364 0.0
O9 O 0.2563 0.36311 0.99355 0.0
N10 N 0.17156 0.30694 0.99864 0.0
C11 C 0.15068 0.32167 0.98546 0.0
C12 C 0.15194 0.30938 0.96387 0.0
C13 C 0.18331 0.28414 0.98502 0.0
N14 N 0.17266 0.28593 0.96361 0.0
C15 C 0.13597 0.35771 0.04306 0.0
C16 C 0.18718 0.43353 1.01903 0.0
C17 C 0.14894 0.42735 0.02933 0.0
C18 C 0.12406 0.38966 0.04201 0.0
C19 C 0.19807 0.40035 1.0205 0.0
N20 N 0.17152 0.36227 0.03177 0.0
H21 H 0.11516 0.32811 0.05227 0.0
H22 H 0.22624 0.40462 1.01159 0.0
H23 H 0.13468 0.33921 0.9911 0.0
H24 H 0.20066 0.26782 0.99066 0.0
O25 O 0.11506 0.26805 0.03183 0.0
O26 O 0.16735 0.25059 0.03098 0.0
O27 O 0.24317 0.34429 0.02977 0.0
C28 C 0.12563 0.23772 0.03136 0.0
H29 H 0.22141 0.35209 0.11171 0.0
H30 H 0.13784 0.31643 0.94956 0.0
H31 H 0.20711 0.46254 1.00909 0.0
H32 H 0.0945 0.38414 0.05034 0.0
Co33 Co 0.86143 0.15976 0.36085 0.0
C34 C 0.85439 0.1356 0.40908 0.0
C35 C 0.85056 0.19373 0.40367 0.0
C36 C 0.84416 0.18322 0.42595 0.0
N37 N 0.85716 0.16398 0.39301 0.0
N38 N 0.84641 0.14649 0.4294 0.0
H39 H 0.85699 0.10685 0.40597 0.0
H40 H 0.84848 0.22018 0.3957 0.0
C41 C 0.89959 0.25285 0.3428 0.0
O42 O 0.88948 0.23862 0.32234 0.0
N43 N 0.86517 0.15389 0.32888 0.0
C44 C 0.83161 0.12845 0.31527 0.0
C45 C 0.84767 0.13031 0.29426 0.0
C46 C 0.90153 0.16902 0.31611 0.0
N47 N 0.89163 0.15622 0.29467 0.0
C48 C 0.77076 0.11342 0.36862 0.0
C49 C 0.74672 0.16006 0.34053 0.0
C50 C 0.71438 0.12052 0.3498 0.0
C51 C 0.72669 0.09803 0.36463 0.0
C52 C 0.79085 0.17435 0.34492 0.0
N53 N 0.80234 0.15002 0.35812 0.0
H54 H 0.77959 0.0946 0.37946 0.0
H55 H 0.81514 0.20335 0.33664 0.0
H56 H 0.79773 0.10902 0.32027 0.0
H57 H 0.93433 0.19035 0.32228 0.0
O58 O 0.84618 0.09962 0.36334 0.0
O59 O 0.91407 0.15621 0.3647 0.0
O60 O 0.88922 0.22601 0.35912 0.0
C61 C 0.88782 0.11383 0.36517 0.0
H62 H 0.83642 0.20035 0.4384 0.0
H63 H 0.82829 0.11327 0.27985 0.0
H64 H 0.73812 0.17839 0.32911 0.0
H65 H 0.7024 0.06784 0.37252 0.0
Co66 Co 0.69693 0.8723 0.69888 0.0
C67 C 0.71537 0.86813 0.74743 0.0
C68 C 0.65808 0.87331 0.74192 0.0
C69 C 0.66216 0.86875 0.76435 0.0
N70 N 0.69148 0.87315 0.73117 0.0
N71 N 0.69801 0.86519 0.76789 0.0
H72 H 0.74352 0.86442 0.74434 0.0
H73 H 0.63127 0.87463 0.73403 0.0
C74 C 0.64509 0.9128 0.67959 0.0
O75 O 0.64664 0.89907 0.65959 0.0
N76 N 0.7033 0.87129 0.66673 0.0
C77 C 0.68977 0.83573 0.65375 0.0
C78 C 0.70286 0.8493 0.63222 0.0
C79 C 0.7263 0.90601 0.65301 0.0
N80 N 0.72565 0.89359 0.63166 0.0
C81 C 0.64951 0.78314 0.71035 0.0
C82 C 0.57497 0.75824 0.68536 0.0
C83 C 0.58095 0.72611 0.69593 0.0
C84 C 0.61803 0.73911 0.70907 0.0
C85 C 0.60777 0.80247 0.68699 0.0
N86 N 0.6452 0.81416 0.69879 0.0
H87 H 0.67844 0.79215 0.72014 0.0
H88 H 0.60369 0.82644 0.67789 0.0
H89 H 0.67192 0.80209 0.65943 0.0
H90 H 0.74241 0.93969 0.65857 0.0
O91 O 0.73938 0.85382 0.70135 0.0
O92 O 0.75532 0.92332 0.70041 0.0
O93 O 0.66141 0.90328 0.6963 0.0
C94 C 0.76892 0.89504 0.70115 0.0
H95 H 0.63977 0.86735 0.77701 0.0
H96 H 0.69534 0.8279 0.61806 0.0
H97 H 0.54641 0.74911 0.67512 0.0
H98 H 0.6233 0.71516 0.71779 0.0
Co99 Co 0.813 0.71104 0.03989 0.0
C100 C 0.83865 0.71514 0.08706 0.0
C101 C 0.76912 0.68708 0.08352 0.0
C102 C 0.77882 0.68805 0.10579 0.0
N103 N 0.8066 0.70373 0.07182 0.0
N104 N 0.82254 0.70579 0.10799 0.0
H105 H 0.873 0.72983 0.0829 0.0
H106 H 0.73705 0.6757 0.07644 0.0
C107 C 0.73639 0.62913 1.02094 0.0
O108 O 0.75984 0.63032 1.00378 0.0
N109 N 0.81977 0.71924 1.0075 0.0
C110 C 0.84286 0.70826 0.99363 0.0
C111 C 0.84149 0.72239 0.97251 0.0
C112 C 0.80409 0.73946 0.99416 0.0
N113 N 0.8173 0.74215 0.9728 0.0
C114 C 0.88778 0.7008 0.03754 0.0
C115 C 0.84677 0.6121 0.04677 0.0
C116 C 0.89217 0.63531 0.04314 0.0
C117 C 0.91257 0.68024 0.03864 0.0
C118 C 0.823 0.63416 0.04566 0.0
N119 N 0.84338 0.67773 0.0403 0.0
H120 H 0.90442 0.73531 0.03361 0.0
H121 H 0.78855 0.61627 0.04957 0.0
H122 H 0.85876 0.68995 0.99794 0.0
H123 H 0.78403 0.75266 0.99993 0.0
O124 O 0.86286 0.76816 0.04416 0.0
O125 O 0.79431 0.75422 0.04133 0.0
O126 O 0.75336 0.65756 0.03636 0.0
C127 C 0.83559 0.78268 0.04418 0.0
H128 H 0.75557 0.67757 0.11935 0.0
H129 H 0.85644 0.71759 0.9579 0.0
H130 H 0.82996 0.57748 0.05083 0.0
H131 H 0.94745 0.69938 0.03549 0.0
Co132 Co 0.10122 0.80256 0.37606 0.0
C133 C 0.11492 0.82168 0.42443 0.0
C134 C 0.10816 0.75908 0.41734 0.0
C135 C 0.11508 0.76677 0.43988 0.0
N136 N 0.10773 0.79346 0.4076 0.0
N137 N 0.1196 0.80631 0.4442 0.0
H138 H 0.11726 0.85328 0.4224 0.0
H139 H 0.10494 0.73077 0.40878 0.0
C140 C 0.0774 0.71676 0.35268 0.0
O141 O 0.08366 0.73505 0.333 0.0
N142 N 0.09494 0.8137 0.34483 0.0
C143 C 0.12638 0.84537 0.33213 0.0
C144 C 0.10886 0.84646 0.31192 0.0
C145 C 0.05801 0.7973 0.33234 0.0
N146 N 0.06581 0.81619 0.3119 0.0
C147 C 0.1912 0.86164 0.38324 0.0
C148 C 0.22451 0.82868 0.35214 0.0
C149 C 0.2529 0.86853 0.3626 0.0
C150 C 0.23588 0.88408 0.37889 0.0
C151 C 0.1798 0.8069 0.35717 0.0
N152 N 0.16344 0.82429 0.37201 0.0
H153 H 0.17872 0.87553 0.39509 0.0
H154 H 0.15861 0.77771 0.3481 0.0
H155 H 0.15977 0.86716 0.33726 0.0
H156 H 0.02623 0.77204 0.33814 0.0
O157 O 0.1048 0.85738 0.38253 0.0
O158 O 0.04324 0.79285 0.38196 0.0
O159 O 0.08481 0.73947 0.37037 0.0
C160 C 0.0626 0.83505 0.38516 0.0
H161 H 0.11812 0.74566 0.452 0.0
H162 H 0.12695 0.86784 0.29822 0.0
H163 H 0.2363 0.81545 0.33944 0.0
H164 H 0.25674 0.91404 0.38787 0.0
Co165 Co 0.29397 0.10549 0.70603 0.0
C166 C 0.28683 0.13098 0.75172 0.0
C167 C 0.3152 0.08947 0.75129 0.0
C168 C 0.31117 0.09898 0.77306 0.0
N169 N 0.30001 0.10965 0.73799 0.0
N170 N 0.29318 0.12501 0.77333 0.0
H171 H 0.27162 0.1493 0.74595 0.0
H172 H 0.32755 0.06862 0.74562 0.0
C173 C 0.37863 0.11416 0.69017 0.0
O174 O 0.38124 0.14173 0.67472 0.0
N175 N 0.28708 0.10049 0.67357 0.0
C176 C 0.30156 0.13288 0.6582 0.0
C177 C 0.28869 0.11487 0.63746 0.0
C178 C 0.26571 0.06299 0.66157 0.0
N179 N 0.26611 0.07088 0.63949 0.0
C180 C 0.30493 0.18988 0.69853 0.0
C181 C 0.39011 0.23877 0.71353 0.0
C182 C 0.36772 0.26037 0.70671 0.0
C183 C 0.32463 0.23526 0.69915 0.0
C184 C 0.36893 0.19289 0.71274 0.0
N185 N 0.32729 0.16914 0.70461 0.0
H186 H 0.27166 0.17132 0.69259 0.0
H187 H 0.38557 0.17656 0.71928 0.0
H188 H 0.3216 0.16751 0.66127 0.0
H189 H 0.25069 0.03048 0.66873 0.0
O190 O 0.23713 0.09924 0.70888 0.0
O191 O 0.25038 0.0439 0.70911 0.0
O192 O 0.34718 0.09861 0.70413 0.0
C193 C 0.22223 0.05743 0.71053 0.0
H194 H 0.32067 0.0874 0.78753 0.0
H195 H 0.29545 0.13311 0.62207 0.0
H196 H 0.42315 0.25704 0.71998 0.0
H197 H 0.30623 0.25054 0.69353 0.0
H198 H 0.33316 0.38177 0.98257 0.0
H199 H 0.4123 0.42013 0.98774 0.0
H200 H 0.39536 0.42982 0.05803 0.0
H201 H 0.31554 0.39078 0.05302 0.0
H202 H 0.45628 0.51001 0.0374 0.0
H203 H 0.42833 0.36301 0.04259 0.0
H204 H 0.39712 0.28592 0.03119 0.0
H205 H 0.46923 0.32737 0.97 0.0
H206 H 0.5004 0.40479 0.98088 0.0
H207 H 0.68305 0.60715 0.05725 0.0
H208 H 0.60454 0.55565 0.05918 0.0
H209 H 0.60444 0.52311 0.99015 0.0
H210 H 0.68346 0.57416 0.98819 0.0
H211 H 0.55153 0.45109 1.0139 0.0
H212 H 0.57299 0.59639 1.00618 0.0
H213 H 0.60337 0.67419 1.01602 0.0
H214 H 0.54227 0.63662 0.08018 0.0
H215 H 0.51202 0.55855 0.07082 0.0
C216 C 0.34613 0.3918 0.99918 0.0
C217 C 0.31802 0.38341 1.01738 0.0
C218 C 0.39141 0.4135 1.00211 0.0
C219 C 0.40967 0.42757 1.02327 0.0
C220 C 0.38183 0.41906 0.04157 0.0
C221 C 0.33628 0.39669 0.03869 0.0
C222 C 0.45793 0.45315 1.02582 0.0
C223 C 0.47714 0.49688 0.03274 0.0
C224 C 0.48503 0.43629 1.01909 0.0
C225 C 0.46645 0.38975 1.01249 0.0
C226 C 0.43726 0.35572 1.02662 0.0
C227 C 0.41963 0.31195 1.02027 0.0
C228 C 0.43111 0.30176 0.99987 0.0
C229 C 0.46034 0.33532 0.9858 0.0
C230 C 0.47805 0.37916 0.99206 0.0
C231 C 0.66646 0.58893 0.04248 0.0
C232 C 0.68947 0.59521 1.02247 0.0
C233 C 0.62149 0.55949 0.04362 0.0
C234 C 0.5984 0.53611 1.02471 0.0
C235 C 0.62155 0.54092 1.00494 0.0
C236 C 0.6667 0.57018 1.00383 0.0
C237 C 0.54993 0.50814 1.0253 0.0
C238 C 0.53069 0.46406 1.01887 0.0
C239 C 0.52271 0.52477 0.03227 0.0
C240 C 0.54066 0.57166 0.0379 0.0
C241 C 0.56631 0.60473 1.02245 0.0
C242 C 0.58347 0.64887 0.02793 0.0
C243 C 0.57486 0.66034 0.04874 0.0
C244 C 0.54897 0.62768 0.06409 0.0
C245 C 0.5318 0.58349 0.0587 0.0
H246 H 0.58817 0.69453 0.05295 0.0
H247 H 0.41743 0.26785 0.99498 0.0
H248 H 0.93362 0.31827 0.3119 0.0
H249 H 0.96889 0.39696 0.31807 0.0
H250 H 0.95113 0.37506 0.3888 0.0
H251 H 0.9154 0.29566 0.38279 0.0
H252 H 0.92676 0.43396 0.37328 0.0
H253 H 0.05086 0.41472 0.36819 0.0
H254 H 0.09722 0.38782 0.35211 0.0
H255 H 0.11248 0.46129 0.2924 0.0
H256 H 0.06569 0.48816 0.308 0.0
H257 H 0.05339 0.66505 0.39008 0.0
H258 H 0.02864 0.5868 0.39241 0.0
H259 H 0.04281 0.58294 0.3214 0.0
H260 H 0.06865 0.66129 0.31898 0.0
H261 H 0.07377 0.53681 0.34247 0.0
H262 H 0.94289 0.54814 0.34541 0.0
H263 H 0.89503 0.57412 0.36056 0.0
H264 H 0.89163 0.51481 0.42356 0.0
H265 H 0.93998 0.48896 0.40885 0.0
C266 C 0.93719 0.33 0.32881 0.0
C267 C 0.9216 0.30061 0.34686 0.0
C268 C 0.95763 0.37509 0.3323 0.0
C269 C 0.96305 0.39183 0.3539 0.0
C270 C 0.94739 0.36271 0.37201 0.0
C271 C 0.92708 0.31742 0.36854 0.0
C272 C 0.98395 0.43978 0.35723 0.0
C273 C 0.9593 0.4565 0.367 0.0
C274 C 0.02605 0.46907 0.34864 0.0
C275 C 0.0545 0.45323 0.33923 0.0
C276 C 0.06384 0.42491 0.35157 0.0
C277 C 0.09025 0.4097 0.34255 0.0
C278 C 0.10773 0.42278 0.32123 0.0
C279 C 0.09891 0.45118 0.30891 0.0
C280 C 0.0725 0.46646 0.31785 0.0
C281 C 0.05176 0.64773 0.37499 0.0
C282 C 0.06316 0.66955 0.35435 0.0
C283 C 0.0373 0.60289 0.37634 0.0
C284 C 0.03354 0.57897 0.35705 0.0
C285 C 0.04553 0.60079 0.3365 0.0
C286 C 0.0601 0.64558 0.33514 0.0
C287 C 0.01618 0.531 0.35805 0.0
C288 C 0.04153 0.5143 0.34909 0.0
C289 C 0.97465 0.50173 0.36729 0.0
C290 C 0.94545 0.51708 0.37612 0.0
C291 C 0.93221 0.54094 0.36255 0.0
C292 C 0.90495 0.55559 0.37104 0.0
C293 C 0.89041 0.54624 0.39303 0.0
C294 C 0.90299 0.5221 0.40655 0.0
C295 C 0.9303 0.50743 0.39814 0.0
H296 H 0.8693 0.5576 0.39958 0.0
H297 H 0.12815 0.41096 0.31427 0.0
H298 H 0.44409 0.1319 0.6604 0.0
H299 H 0.49421 0.10288 0.66052 0.0
H300 H 0.43769 0.03473 0.72201 0.0
H301 H 0.38758 0.06368 0.72212 0.0
H302 H 0.52942 0.07356 0.7207 0.0
H303 H 0.40368 0.98064 0.67498 0.0
H304 H 0.35187 0.96755 0.64447 0.0
H305 H 0.45753 0.01824 0.5974 0.0
H306 H 0.51011 0.03244 0.62773 0.0
H307 H 0.6032 0.9185 0.71676 0.0
H308 H 0.56166 0.95677 0.72019 0.0
H309 H 0.59614 0.00407 0.65278 0.0
H310 H 0.63566 0.96416 0.649 0.0
H311 H 0.51571 0.97712 0.6577 0.0
H312 H 0.64212 0.07076 0.70136 0.0
H313 H 0.69702 0.08935 0.73097 0.0
H314 H 0.59574 0.04324 0.78038 0.0
H315 H 0.54013 0.02385 0.75104 0.0
C316 C 0.44261 0.11114 0.67409 0.0
C317 C 0.41153 0.0998 0.69114 0.0
C318 C 0.47124 0.09454 0.67411 0.0
C319 C 0.46931 0.06629 0.69116 0.0
C320 C 0.43967 0.05644 0.7087 0.0
C321 C 0.41091 0.07287 0.70865 0.0
C322 C 0.49623 0.04482 0.69 0.0
C323 C 0.52626 0.05213 0.70706 0.0
C324 C 0.49266 0.01767 0.67194 0.0
C325 C 0.46087 0.00798 0.65365 0.0
C326 C 0.41589 0.98922 0.65814 0.0
C327 C 0.38638 0.98159 0.64087 0.0
C328 C 0.40142 0.99215 0.619 0.0
C329 C 0.44595 0.01014 0.61435 0.0
C330 C 0.47561 0.01798 0.63157 0.0
C331 C 0.60215 0.93735 0.70277 0.0
C332 C 0.62253 0.93822 0.6826 0.0
C333 C 0.57857 0.95944 0.70476 0.0
C334 C 0.57603 0.98382 0.68682 0.0
C335 C 0.59731 0.98538 0.66685 0.0
C336 C 0.61999 0.9626 0.66471 0.0
C337 C 0.5497 0.00612 0.68832 0.0
C338 C 0.51936 -0.00128 0.67135 0.0
C339 C 0.55355 0.0337 0.7063 0.0
C340 C 0.58692 0.04546 0.72398 0.0
C341 C 0.63152 0.0643 0.71853 0.0
C342 C 0.66277 0.07502 0.73527 0.0
C343 C 0.64987 0.06737 0.75753 0.0
C344 C 0.60568 0.04909 0.76312 0.0
C345 C 0.57429 0.03826 0.74645 0.0
H346 H 0.67411 0.07569 0.77047 0.0
H347 H 0.3786 0.9864 0.60564 0.0
H348 H 0.60217 0.66865 0.67891 0.0
H349 H 0.55775 0.58886 0.6787 0.0
H350 H 0.44851 0.59674 0.70549 0.0
H351 H 0.49355 0.67739 0.70583 0.0
H352 H 0.46636 0.5415 0.72939 0.0
H353 H 0.44288 0.55994 0.65326 0.0
H354 H 0.46286 0.58899 0.61513 0.0
H355 H 0.54233 0.52898 0.60858 0.0
H356 H 0.52336 0.50009 0.64681 0.0
H357 H 0.33204 0.30875 0.72143 0.0
H358 H 0.3628 0.38796 0.71834 0.0
H359 H 0.48116 0.40083 0.6903 0.0
H360 H 0.44999 0.32119 0.69282 0.0
H361 H 0.45015 0.44479 0.66604 0.0
H362 H 0.47907 0.43257 0.74317 0.0
H363 H 0.45995 0.40405 0.78145 0.0
H364 H 0.37047 0.45283 0.786 0.0
H365 H 0.38862 0.48112 0.74761 0.0
C366 C 0.56836 0.65332 0.68431 0.0
C367 C 0.55109 0.67884 0.69238 0.0
C368 C 0.54298 0.6078 0.68411 0.0
C369 C 0.49974 0.58686 0.69195 0.0
C370 C 0.48179 0.61235 0.6993 0.0
C371 C 0.50728 0.65822 0.69935 0.0
C372 C 0.47526 0.53846 0.69416 0.0
C373 C 0.46185 0.5202 0.71545 0.0
C374 C 0.47049 0.5109 0.67606 0.0
C375 C 0.48188 0.52806 0.65299 0.0
C376 C 0.46488 0.55319 0.64376 0.0
C377 C 0.47598 0.56959 0.62211 0.0
C378 C 0.5039 0.56089 0.60945 0.0
C379 C 0.5207 0.5357 0.61841 0.0
C380 C 0.50973 0.51924 0.64006 0.0
C381 C 0.3647 0.32848 0.71467 0.0
C382 C 0.38856 0.30879 0.70723 0.0
C383 C 0.38231 0.37375 0.71305 0.0
C384 C 0.42427 0.40026 0.70413 0.0
C385 C 0.44865 0.38087 0.6972 0.0
C386 C 0.43103 0.3355 0.69884 0.0
C387 C 0.44208 0.44803 0.70132 0.0
C388 C 0.45417 0.46607 0.67992 0.0
C389 C 0.44565 0.47537 0.71931 0.0
C390 C 0.43485 0.45854 0.74243 0.0
C391 C 0.45504 0.43689 0.75227 0.0
C392 C 0.44443 0.42083 0.774 0.0
C393 C 0.41392 0.4265 0.78613 0.0
C394 C 0.39405 0.44839 0.77657 0.0
C395 C 0.40451 0.46448 0.75484 0.0
H396 H 0.40575 0.41404 0.80295 0.0
H397 H 0.51246 0.57363 0.59269 0.0
H398 H 0.87246 0.55718 1.02416 0.0
H399 H 0.91979 0.52508 1.0214 0.0
H400 H 0.01922 0.63212 0.05965 0.0
H401 H 0.97206 0.6643 0.0625 0.0
H402 H 0.05391 0.61728 1.02323 0.0
H403 H 0.95969 0.53157 0.08267 0.0
H404 H 0.88927 0.48451 0.10152 0.0
H405 H 0.85414 0.38604 0.05139 0.0
H406 H 0.92413 0.43281 0.03205 0.0
H407 H 0.18023 0.51015 0.04552 0.0
H408 H 0.1403 0.55082 0.04632 0.0
H409 H 0.03753 0.45008 1.00651 0.0
H410 H 0.07708 0.4096 1.00591 0.0
H411 H 0.00682 0.46401 0.04496 0.0
H412 H 0.10187 0.55098 0.98543 0.0
H413 H 0.17288 0.59841 0.96718 0.0
H414 H 0.2075 0.69471 1.01843 0.0
H415 H 0.13689 0.64755 0.03717 0.0
C416 C 0.90407 0.57341 0.03232 0.0
C417 C 0.91861 0.61328 0.04349 0.0
C418 C 0.93116 0.55517 0.03066 0.0
C419 C 0.97304 0.57624 0.04034 0.0
C420 C 0.98719 0.61551 0.05193 0.0
C421 C 0.96019 0.63379 0.05355 0.0
C422 C 0.00245 0.55781 0.03793 0.0
C423 C 0.0439 0.58395 0.02826 0.0
C424 C 0.98908 0.51417 0.04418 0.0
C425 C 0.94699 0.48589 0.0558 0.0
C426 C 0.9368 0.50004 0.07556 0.0
C427 C 0.89699 0.47338 0.08635 0.0
C428 C 0.8672 0.43236 0.07763 0.0
C429 C 0.87722 0.41785 0.05812 0.0
C430 C 0.91698 0.4444 0.04724 0.0
C431 C 0.14983 0.49769 0.03638 0.0
C432 C 0.13157 0.45708 1.02559 0.0
C433 C 0.127 0.52071 0.03689 0.0
C434 C 0.08584 0.50326 1.02657 0.0
C435 C 0.06909 0.46397 1.01466 0.0
C436 C 0.09176 0.44107 1.01419 0.0
C437 C 0.058 0.5232 0.02994 0.0
C438 C 0.01687 0.49735 0.03992 0.0
C439 C 0.07181 0.56711 1.02407 0.0
C440 C 0.11428 0.5955 1.01284 0.0
C441 C 0.12478 0.58208 0.99293 0.0
C442 C 0.16493 0.60896 0.98247 0.0
C443 C 0.19474 0.64949 0.99167 0.0
C444 C 0.1844 0.66327 1.01133 0.0
C445 C 0.14431 0.6365 1.02187 0.0
H446 H 0.22579 0.67026 0.98354 0.0
H447 H 0.83639 0.41177 0.08601 0.0
H448 H 0.30111 0.95733 0.35738 0.0
H449 H 0.37903 0.00176 0.34944 0.0
H450 H 0.3881 0.88448 0.34387 0.0
H451 H 0.31023 0.83971 0.35293 0.0
H452 H 0.45004 0.94163 0.3698 0.0
H453 H 0.3957 0.9482 0.29789 0.0
H454 H 0.35058 0.96061 0.27073 0.0
H455 H 0.41121 0.09564 0.29026 0.0
H456 H 0.45628 0.08391 0.31778 0.0
H457 H 0.66386 0.03946 0.33307 0.0
H458 H 0.58438 -4e-05 0.3287 0.0
H459 H 0.58066 0.11597 0.34772 0.0
H460 H 0.66089 0.156 0.352 0.0
H461 H 0.51665 0.06069 0.31345 0.0
H462 H 0.56743 0.05178 0.38683 0.0
H463 H 0.61394 0.03931 0.41303 0.0
H464 H 0.55918 0.90705 0.38973 0.0
H465 H 0.51291 0.91904 0.36307 0.0
C466 C 0.31968 0.94092 0.35459 0.0
C467 C 0.29961 0.89498 0.3561 0.0
C468 C 0.36413 0.96639 0.34969 0.0
C469 C 0.3893 0.94644 0.34582 0.0
C470 C 0.36917 0.90051 0.34673 0.0
C471 C 0.32467 0.87496 0.35179 0.0
C472 C 0.43723 0.97369 0.34262 0.0
C473 C 0.46446 0.9671 0.3572 0.0
C474 C 0.45611 0.00786 0.32661 0.0
C475 C 0.42911 0.01506 0.31004 0.0
C476 C 0.39917 0.98046 0.29652 0.0
C477 C 0.37364 0.98739 0.28104 0.0
C478 C 0.37795 0.02886 0.27881 0.0
C479 C 0.40788 0.06352 0.29202 0.0
C480 C 0.43346 0.05676 0.30755 0.0
C481 C 0.64613 0.05677 0.33587 0.0
C482 C 0.66804 0.10038 0.34324 0.0
C483 C 0.6009 0.03429 0.33328 0.0
C484 C 0.57683 0.05495 0.33823 0.0
C485 C 0.59889 0.09961 0.34385 0.0
C486 C 0.64448 0.12233 0.34634 0.0
C487 C 0.52884 0.0281 0.34047 0.0
C488 C 0.50185 0.03496 0.32589 0.0
C489 C 0.50996 -0.00597 0.35644 0.0
C490 C 0.53702 0.98644 0.37282 0.0
C491 C 0.56553 0.02014 0.38718 0.0
C492 C 0.59183 0.01316 0.40213 0.0
C493 C 0.58959 0.97245 0.40301 0.0
C494 C 0.56092 0.93859 0.38901 0.0
C495 C 0.53464 0.94545 0.37398 0.0
H496 H 0.60999 0.9671 0.41459 0.0
H497 H 0.35816 0.03416 0.26681 0.0
H498 H 0.03861 0.20561 0.03679 0.0
H499 H 0.98069 0.12914 0.03846 0.0
H500 H 0.07578 0.08804 0.02842 0.0
H501 H 0.13452 0.16513 1.02666 0.0
H502 H -0.00503 0.04058 1.00277 0.0
H503 H 0.04532 0.08991 0.07867 0.0
H504 H 0.06122 0.14097 0.10989 0.0
H505 H 0.92707 0.11007 0.11064 0.0
H506 H 0.91055 0.05944 0.07919 0.0
H507 H 0.90264 0.83831 0.06999 0.0
H508 H 0.94043 0.91824 0.06892 0.0
H509 H 0.84497 0.91311 1.02224 0.0
H510 H 0.80638 0.83242 1.02356 0.0
H511 H 0.91859 0.98533 0.07502 0.0
H512 H 0.91152 0.98948 0.98106 0.0
H513 H 0.89215 0.93937 0.9491 0.0
H514 H 0.93708 0.86327 0.98448 0.0
H515 H 0.95773 0.91355 1.01639 0.0
C516 C 0.04734 0.1804 0.0348 0.0
C517 C 0.09116 0.19126 0.03174 0.0
C518 C 0.01413 0.13676 0.03573 0.0
C519 C 0.02412 0.10321 0.03365 0.0
C520 C 0.06762 0.11374 0.03 0.0
C521 C 0.10107 0.15761 0.02916 0.0
C522 C 0.98938 0.05718 0.03657 0.0
C523 C 0.97812 0.02849 1.01852 0.0
C524 C 0.967 0.04185 0.05703 0.0
C525 C 0.97679 0.07119 0.07644 0.0
C526 C 0.01928 0.09418 0.08542 0.0
C527 C 0.0284 0.12304 0.10316 0.0
C528 C -0.00481 0.12883 0.11218 0.0
C529 C 0.95276 0.10559 0.1036 0.0
C530 C 0.9435 0.0768 0.08584 0.0
C531 C 0.88908 0.85429 0.05997 0.0
C532 C 0.85202 0.82966 0.04671 0.0
C533 C 0.91048 0.89982 0.05948 0.0
C534 C 0.89561 0.92134 0.04539 0.0
C535 C 0.85679 0.89684 0.03322 0.0
C536 C 0.83483 0.851 0.034 0.0
C537 C 0.92456 0.9686 0.04133 0.0
C538 C 0.93487 -0.0024 0.05916 0.0
C539 C 0.94586 0.98427 1.02064 0.0
C540 C 0.93568 0.955 1.00118 0.0
C541 C 0.91754 0.96223 0.98193 0.0
C542 C 0.90631 0.93379 0.96384 0.0
C543 C 0.91314 0.89803 0.96481 0.0
C544 C 0.93167 0.8909 0.98378 0.0
C545 C 0.94322 0.91941 1.00186 0.0
H546 H 0.90423 0.87595 0.95083 0.0
H547 H 0.00225 0.15129 0.12582 0.0
H548 H 0.97388 0.80041 0.38714 0.0
H549 H 0.9352 0.84137 0.39191 0.0
H550 H 0.05852 0.96052 0.40166 0.0
H551 H 0.09719 0.91995 0.39742 0.0
H552 H 0.98823 0.95772 0.42616 0.0
H553 H 0.0258 0.94058 0.34864 0.0
H554 H 0.02591 0.89015 0.32024 0.0
H555 H 0.88654 0.80871 0.3269 0.0
H556 H 0.88563 0.85912 0.35494 0.0
H557 H 0.96963 0.13171 0.37795 0.0
H558 H -0.00743 0.07811 0.38674 0.0
H559 H 0.86336 0.97249 0.37039 0.0
H560 H 0.84037 0.02548 0.36151 0.0
H561 H 0.92752 0.96128 0.35212 0.0
H562 H 0.89053 -0.0059 0.42305 0.0
H563 H 0.89253 0.04149 0.45358 0.0
H564 H 0.03003 0.09012 0.4624 0.0
H565 H 0.02906 0.04349 0.43168 0.0
C566 C -0.00743 0.83511 0.39083 0.0
C567 C 0.03848 0.85732 0.39131 0.0
C568 C 0.97049 0.85835 0.39367 0.0
C569 C -0.00577 0.90395 0.39679 0.0
C570 C 0.03975 0.92534 0.39926 0.0
C571 C 0.06176 0.90219 0.39652 0.0
C572 C 0.97334 0.93061 0.3932 0.0
C573 C 0.97479 0.95859 0.41006 0.0
C574 C 0.95572 0.93125 0.3722 0.0
C575 C 0.9556 0.90363 0.3537 0.0
C576 C -0.00486 0.91225 0.34372 0.0
C577 C -0.00464 0.88367 0.32773 0.0
C578 C 0.95621 0.84638 0.32164 0.0
C579 C 0.91676 0.83784 0.3314 0.0
C580 C 0.91632 0.86655 0.34723 0.0
C581 C 0.94633 0.09708 0.37609 0.0
C582 C 0.90329 0.08269 0.36911 0.0
C583 C 0.9593 0.06657 0.38126 0.0
C584 C 0.92938 0.02146 0.37944 0.0
C585 C 0.88678 0.00718 0.37196 0.0
C586 C 0.87377 0.03752 0.36692 0.0
C587 C 0.94254 0.98896 0.38508 0.0
C588 C 0.94004 0.96006 0.36843 0.0
C589 C 0.95909 0.98759 0.40633 0.0
C590 C 0.9598 0.01558 0.42489 0.0
C591 C 0.92129 0.01517 0.43136 0.0
C592 C 0.92221 0.04186 0.44872 0.0
C593 C 0.96139 0.06889 0.45986 0.0
C594 C -0.00028 0.0692 0.45372 0.0
C595 C -0.00101 0.04262 0.43634 0.0
H596 H 0.96206 0.08952 0.47329 0.0
H597 H 0.95648 0.82403 0.30943 0.0
H598 H 0.17183 0.97495 0.69367 0.0
H599 H 0.09121 0.93256 0.69339 0.0
H600 H 0.08757 0.03166 0.73376 0.0
H601 H 0.16733 0.07386 0.73389 0.0
H602 H 0.02203 0.94565 0.74468 0.0
H603 H 0.08704 0.04159 0.67965 0.0
H604 H 0.13634 0.06481 0.64717 0.0
H605 H 0.06334 0.93521 0.61992 0.0
H606 H 0.01396 0.91108 0.65245 0.0
H607 H 0.83785 0.9677 0.71963 0.0
H608 H 0.91425 0.98396 0.72167 0.0
H609 H 0.8803 0.86767 0.68367 0.0
H610 H 0.80409 0.85067 0.68214 0.0
H611 H 0.96141 0.94751 0.6704 0.0
H612 H 0.88862 0.85454 0.73194 0.0
H613 H 0.84289 0.82744 0.76556 0.0
H614 H 0.9312 0.94588 0.79995 0.0
H615 H 0.97689 0.97434 0.76627 0.0
C616 C 0.15359 0.98682 0.70296 0.0
C617 C 0.17528 0.02763 0.71361 0.0
C618 C 0.1078 0.96278 0.70275 0.0
C619 C 0.08371 0.97933 0.71341 0.0
C620 C 0.10564 0.0184 0.72548 0.0
C621 C 0.15109 0.04257 0.72541 0.0
C622 C 0.03623 0.95977 0.70988 0.0
C623 C 0.00864 0.94593 0.72847 0.0
C624 C 0.01893 0.95938 0.6886 0.0
C625 C 0.04707 0.97446 0.66852 0.0
C626 C 0.08155 0.01805 0.66673 0.0
C627 C 0.10952 0.03136 0.64834 0.0
C628 C 0.10303 0.00147 0.63152 0.0
C629 C 0.06834 0.9583 0.63298 0.0
C630 C 0.04033 0.9448 0.65138 0.0
C631 C 0.84697 0.946 0.71157 0.0
C632 C 0.81539 0.90789 0.70089 0.0
C633 C 0.89033 0.95514 0.71278 0.0
C634 C 0.90252 0.92676 0.70289 0.0
C635 C 0.87135 0.8898 0.69139 0.0
C636 C 0.82796 0.88012 0.69064 0.0
C637 C 0.94748 0.93474 0.70537 0.0
C638 C 0.97451 0.94645 0.68656 0.0
C639 C 0.96423 0.9329 0.72645 0.0
C640 C 0.93595 0.91677 0.74648 0.0
C641 C 0.89792 0.87516 0.74653 0.0
C642 C 0.87209 0.85948 0.76563 0.0
C643 C 0.88424 0.88488 0.78489 0.0
C644 C 0.9219 0.92626 0.78501 0.0
C645 C 0.94774 0.94221 0.7659 0.0
H646 H 0.86474 0.87237 0.79977 0.0
H647 H 0.12485 0.01177 0.61734 0.0
H648 H 0.18333 0.31531 0.92106 0.0
H649 H 0.20243 0.28641 0.88886 0.0
H650 H 0.20479 0.18735 0.93022 0.0
H651 H 0.18562 0.21613 0.96255 0.0
H652 H 0.27423 0.22354 0.90354 0.0
H653 H 0.11988 0.16206 0.89406 0.0
H654 H 0.05041 0.16254 0.89111 0.0
H655 H 0.09915 0.24679 0.83392 0.0
H656 H 0.16919 0.24731 0.83671 0.0
H657 H 0.27748 0.09132 0.81526 0.0
H658 H 0.25703 0.11849 0.84764 0.0
H659 H 0.26046 0.22224 0.80787 0.0
H660 H 0.28157 0.19568 0.7754 0.0
H661 H 0.18745 0.18249 0.83386 0.0
H662 H 0.34239 0.24364 0.8439 0.0
H663 H 0.41112 0.24177 0.84705 0.0
H664 H 0.35989 0.15593 0.90355 0.0
H665 H 0.29058 0.1568 0.90055 0.0
C666 C 0.18732 0.28702 0.9233 0.0
C667 C 0.18277 0.26801 0.94445 0.0
C668 C 0.19833 0.27054 0.90484 0.0
C669 C 0.20463 0.23436 0.90702 0.0
C670 C 0.20018 0.21532 0.92811 0.0
C671 C 0.1893 0.23189 0.94661 0.0
C672 C 0.21673 0.21703 0.88741 0.0
C673 C 0.25487 0.21395 0.88843 0.0
C674 C 0.19204 0.20535 0.86748 0.0
C675 C 0.14994 0.20507 0.86573 0.0
C676 C 0.11592 0.18098 0.88096 0.0
C677 C 0.07642 0.18102 0.8793 0.0
C678 C 0.07041 0.20477 0.86238 0.0
C679 C 0.10387 0.22845 0.84704 0.0
C680 C 0.14346 0.22856 0.84864 0.0
C681 C 0.27449 0.12024 0.81337 0.0
C682 C 0.2814 0.1413 0.7926 0.0
C683 C 0.26262 0.13568 0.83195 0.0
C684 C 0.25754 0.17264 0.83026 0.0
C685 C 0.26409 0.1936 0.80957 0.0
C686 C 0.27605 0.17824 0.79098 0.0
C687 C 0.24497 0.18915 0.85001 0.0
C688 C 0.20674 0.19204 0.849 0.0
C689 C 0.26944 0.20044 0.86999 0.0
C690 C 0.31113 0.19994 0.87185 0.0
C691 C 0.34564 0.22408 0.85688 0.0
C692 C 0.38473 0.22325 0.85867 0.0
C693 C 0.38982 0.19865 0.87546 0.0
C694 C 0.35587 0.17492 0.89054 0.0
C695 C 0.31669 0.17559 0.88881 0.0
H696 H 0.42012 0.19806 0.87681 0.0
H697 H 0.0398 0.20475 0.86112 0.0
H698 H 0.19014 0.29722 0.14095 0.0
H699 H 0.14643 0.27175 0.17503 0.0
H700 H 0.02916 0.23406 0.13706 0.0
H701 H 0.07264 0.25967 0.10299 0.0
H702 H 0.03518 0.28263 0.17406 0.0
H703 H 0.04911 0.15695 0.1569 0.0
H704 H 0.08897 0.11802 0.1482 0.0
H705 H 0.15698 0.15884 0.21051 0.0
H706 H 0.11788 0.19855 0.21941 0.0
H707 H 0.8708 0.15819 0.25142 0.0
H708 H 0.91956 0.18132 0.21952 0.0
H709 H 0.02849 0.2096 0.26245 0.0
H710 H 0.97926 0.18497 0.29468 0.0
H711 H 0.03089 0.16864 0.22442 0.0
H712 H 0.01632 0.29217 0.24256 0.0
H713 H 0.97737 0.33185 0.25166 0.0
H714 H 0.91306 0.29748 0.18823 0.0
H715 H 0.95113 0.25698 0.17887 0.0
C716 C 0.15504 0.28345 0.13986 0.0
C717 C 0.13495 0.28056 0.11922 0.0
C718 C 0.13006 0.26862 0.15933 0.0
C719 C 0.08446 0.25079 0.15861 0.0
C720 C 0.06428 0.2476 0.13803 0.0
C721 C 0.08917 0.26198 0.11852 0.0
C722 C 0.05794 0.2369 0.17937 0.0
C723 C 0.03381 0.25731 0.18492 0.0
C724 C 0.05737 0.20497 0.19397 0.0
C725 C 0.08092 0.18114 0.18868 0.0
C726 C 0.07286 0.15797 0.16863 0.0
C727 C 0.09525 0.13569 0.16369 0.0
C728 C 0.12561 0.13607 0.17876 0.0
C729 C 0.13352 0.15864 0.19883 0.0
C730 C 0.11122 0.18101 0.20384 0.0
C731 C 0.90494 0.16868 0.2542 0.0
C732 C 0.92091 0.16954 0.27576 0.0
C733 C 0.93297 0.18241 0.23587 0.0
C734 C 0.97786 0.19779 0.23856 0.0
C735 C -0.00601 0.19804 0.25996 0.0
C736 C 0.96585 0.18427 0.27841 0.0
C737 C 0.00759 0.21392 0.21893 0.0
C738 C 0.03241 0.19409 0.21362 0.0
C739 C 0.00912 0.24667 0.20459 0.0
C740 C 0.98632 0.27121 0.21009 0.0
C741 C -0.00638 0.29278 0.23061 0.0
C742 C 0.97174 0.31547 0.23581 0.0
C743 C 0.94269 0.31711 0.22055 0.0
C744 C 0.93555 0.29614 0.20004 0.0
C745 C 0.9573 0.27335 0.19477 0.0
H746 H 0.92578 0.33469 0.22461 0.0
H747 H 0.14291 0.11879 0.17492 0.0
H748 H 0.84983 0.17658 0.47144 0.0
H749 H 0.83251 0.13494 0.50599 0.0
H750 H 0.80924 0.02004 0.46961 0.0
H751 H 0.82445 0.06076 0.43487 0.0
H752 H 0.74704 -0.00209 0.49876 0.0
H753 H 0.90344 0.08217 0.50202 0.0
H754 H 0.97618 0.14913 0.5011 0.0
H755 H 0.94139 0.20013 0.55724 0.0
H756 H 0.86824 0.13378 0.55832 0.0
H757 H 0.74357 0.87127 0.59134 0.0
H758 H 0.76687 0.91576 0.55763 0.0
H759 H 0.7716 0.02389 0.59325 0.0
H760 H 0.74712 0.97925 0.62705 0.0
H761 H 0.84379 0.04965 0.56495 0.0
H762 H 0.68685 0.96474 0.56103 0.0
H763 H 0.61486 0.89699 0.56195 0.0
H764 H 0.65219 0.84621 0.50664 0.0
H765 H 0.7247 0.91344 0.50561 0.0
C766 C 0.84081 0.14242 0.47064 0.0
C767 C 0.83851 0.12232 0.45009 0.0
C768 C 0.83139 0.11867 0.49056 0.0
C769 C 0.82001 0.07432 0.49056 0.0
C770 C 0.81799 0.05421 0.47014 0.0
C771 C 0.82715 0.07784 0.45019 0.0
C772 C 0.80874 0.04852 0.51172 0.0
C773 C 0.76862 0.009 0.51308 0.0
C774 C 0.83622 0.06327 0.53071 0.0
C775 C 0.88021 0.10318 0.53011 0.0
C776 C 0.91119 0.10782 0.51406 0.0
C777 C 0.9525 0.14562 0.51352 0.0
C778 C 0.96334 0.17888 0.52906 0.0
C779 C 0.93293 0.17436 0.5452 0.0
C780 C 0.89155 0.13665 0.54579 0.0
C781 C 0.74922 0.90436 0.59213 0.0
C782 C 0.74286 0.92124 0.61209 0.0
C783 C 0.76279 0.92989 0.57276 0.0
C784 C 0.77054 0.97304 0.57281 0.0
C785 C 0.76582 0.99067 0.5928 0.0
C786 C 0.75192 0.96502 0.6122 0.0
C787 C 0.78236 -0.00083 0.55183 0.0
C788 C 0.82243 0.03867 0.55055 0.0
C789 C 0.755 0.98433 0.53285 0.0
C790 C 0.71137 0.94394 0.53339 0.0
C791 C 0.67985 0.93897 0.54918 0.0
C792 C 0.63893 0.90069 0.5497 0.0
C793 C 0.629 0.86727 0.5344 0.0
C794 C 0.65995 0.87211 0.51851 0.0
C795 C 0.70096 0.9103 0.51794 0.0
H796 H 0.59729 0.83766 0.53483 0.0
H797 H -0.00466 0.20811 0.52862 0.0
H798 H 0.78038 0.88433 0.77964 0.0
H799 H 0.80345 0.86931 0.81553 0.0
H800 H 0.6713 0.81129 0.83989 0.0
H801 H 0.6479 0.82616 0.8044 0.0
H802 H 0.73149 0.8647 0.87115 0.0
H803 H 0.71093 0.74787 0.82192 0.0
H804 H 0.7237 0.71701 0.78794 0.0
H805 H 0.86042 0.77721 0.80383 0.0
H806 H 0.8486 0.80908 0.83772 0.0
H807 H 0.74235 0.74351 0.96426 0.0
H808 H 0.7245 0.7698 0.93018 0.0
H809 H 0.85361 0.81119 0.90451 0.0
H810 H 0.87095 0.78413 0.93822 0.0
H811 H 0.79749 0.76926 0.87371 0.0
H812 H 0.82055 0.88462 0.92291 0.0
H813 H 0.81066 0.91761 0.95688 0.0
H814 H 0.67461 0.86468 0.9413 0.0
H815 H 0.68347 0.83073 0.90741 0.0
C816 C 0.75615 0.86816 0.79256 0.0
C817 C 0.71221 0.85653 0.78898 0.0
C818 C 0.76944 0.85961 0.81307 0.0
C819 C 0.7391 0.83873 0.83034 0.0
C820 C 0.69542 0.8276 0.82691 0.0
C821 C 0.68211 0.83626 0.80651 0.0
C822 C 0.75241 0.82727 0.85177 0.0
C823 C 0.74556 0.8435 0.87175 0.0
C824 C 0.77188 0.80058 0.85257 0.0
C825 C 0.77894 0.78124 0.83224 0.0
C826 C 0.74378 0.75483 0.81807 0.0
C827 C 0.75084 0.7371 0.79884 0.0
C828 C 0.79285 0.74517 0.79372 0.0
C829 C 0.82788 0.77092 0.80784 0.0
C830 C 0.82102 0.78885 0.82705 0.0
C831 C 0.76703 0.7588 0.95146 0.0
C832 C 0.80791 0.76143 0.95386 0.0
C833 C 0.75688 0.77388 0.93196 0.0
C834 C 0.78773 0.7927 0.91464 0.0
C835 C 0.82902 0.7965 0.91742 0.0
C836 C 0.83893 0.78099 0.93672 0.0
C837 C 0.77658 0.80661 0.89325 0.0
C838 C 0.78373 0.79074 0.87321 0.0
C839 C 0.75795 0.8341 0.89241 0.0
C840 C 0.75259 0.85478 0.9127 0.0
C841 C 0.78844 0.87974 0.9268 0.0
C842 C 0.78304 0.89864 0.94603 0.0
C843 C 0.74203 0.89316 0.95126 0.0
C844 C 0.70635 0.86885 0.93724 0.0
C845 C 0.71155 0.84979 0.918 0.0
H846 H 0.73792 0.90783 0.96616 0.0
H847 H 0.79826 0.73147 0.77881 0.0
H848 H 0.90433 0.77275 0.11672 0.0
H849 H 0.94351 0.78886 0.15212 0.0
H850 H 0.83482 0.67367 0.18123 0.0
H851 H 0.79521 0.65822 0.146 0.0
H852 H 0.86039 0.73694 0.20903 0.0
H853 H 0.93555 0.68041 0.16696 0.0
H854 H 0.97564 0.67422 0.13495 0.0
H855 H 0.07888 0.80694 0.14475 0.0
H856 H 0.03911 0.81416 0.17663 0.0
H857 H 0.98822 0.74038 0.30505 0.0
H858 H 0.94292 0.71988 0.27143 0.0
H859 H 0.03093 0.84585 0.24234 0.0
H860 H 0.07514 0.86735 0.27595 0.0
H861 H 0.01494 0.77264 0.2153 0.0
H862 H 0.93371 0.83044 0.25379 0.0
H863 H 0.89032 0.83735 0.28394 0.0
H864 H 0.79902 0.699 0.28103 0.0
H865 H 0.84147 0.69151 0.25049 0.0
C866 C 0.88904 0.75061 0.1306 0.0
C867 C 0.84666 0.71419 0.12854 0.0
C868 C 0.9115 0.75977 0.15087 0.0
C869 C 0.89249 0.73219 0.16942 0.0
C870 C 0.85029 0.69557 0.16728 0.0
C871 C 0.82761 0.68675 0.14711 0.0
C872 C 0.91587 0.74231 0.19123 0.0
C873 C 0.89394 0.7439 0.21037 0.0
C874 C 0.95996 0.75223 0.19315 0.0
C875 C 0.98414 0.74794 0.17407 0.0
C876 C 0.96666 0.70838 0.1622 0.0
C877 C 0.98934 0.70467 0.14409 0.0
C878 C 0.02973 0.74019 0.13779 0.0
C879 C 0.04757 0.77946 0.14963 0.0
C880 C 0.02499 0.78337 0.16774 0.0
C881 C -0.00247 0.76413 0.29173 0.0
C882 C 0.03606 0.80533 0.29324 0.0
C883 C 0.97162 0.75225 0.27245 0.0
C884 C 0.98383 0.78118 0.25426 0.0
C885 C 0.02116 0.8228 0.25605 0.0
C886 C 0.04664 0.8349 0.27533 0.0
C887 C 0.95944 0.76748 0.23286 0.0
C888 C 0.98124 0.76517 0.21385 0.0
C889 C 0.91517 0.75645 0.23106 0.0
C890 C 0.89096 0.76036 0.25011 0.0
C891 C 0.90461 0.80146 0.25975 0.0
C892 C 0.88003 0.80551 0.27679 0.0
C893 C 0.84207 0.76859 0.28449 0.0
C894 C 0.82848 0.72755 0.27508 0.0
C895 C 0.85264 0.72342 0.25784 0.0
H896 H 0.8231 0.7718 0.2977 0.0
H897 H 0.04723 0.73726 0.12377 0.0
H898 H 0.19791 0.98662 0.64171 0.0
H899 H 0.16517 0.93511 0.61069 0.0
H900 H 0.25746 0.03296 0.56556 0.0
H901 H 0.29098 0.08377 0.59622 0.0
H902 H 0.17005 0.99242 0.5506 0.0
H903 H 0.27302 0.95188 0.58192 0.0
H904 H 0.30178 0.92572 0.61204 0.0
H905 H 0.1769 0.80819 0.61819 0.0
H906 H 0.14722 0.83379 0.5882 0.0
H907 H 0.17169 0.89323 0.45082 0.0
H908 H 0.18906 0.93219 0.48611 0.0
H909 H 0.10786 0.81005 0.5206 0.0
H910 H 0.09168 0.77071 0.48511 0.0
H911 H 0.17694 0.8557 0.54402 0.0
H912 H 0.07475 0.88832 0.51094 0.0
H913 H 0.04154 0.91126 0.48156 0.0
H914 H 0.15572 0.0396 0.48043 0.0
H915 H 0.18995 0.01725 0.50955 0.0
C916 C 0.21161 -0.00302 0.62525 0.0
C917 C 0.2471 0.0396 0.62155 0.0
C918 C 0.19268 0.96755 0.60751 0.0
C919 C 0.20883 0.98026 0.58579 0.0
C920 C 0.24421 0.02258 0.58213 0.0
C921 C 0.26326 0.05173 0.59976 0.0
C922 C 0.18939 0.95005 0.56661 0.0
C923 C 0.17168 0.9626 0.54907 0.0
C924 C 0.18985 0.91024 0.56503 0.0
C925 C 0.20777 0.89497 0.58302 0.0
C926 C 0.25159 0.92064 0.58982 0.0
C927 C 0.26809 0.90589 0.60684 0.0
C928 C 0.24118 0.86545 0.61709 0.0
C929 C 0.1977 0.83956 0.61028 0.0
C930 C 0.18103 0.85414 0.59326 0.0
C931 C 0.15728 0.87473 0.46591 0.0
C932 C 0.12995 0.82898 0.46519 0.0
C933 C 0.1671 0.89704 0.48612 0.0
C934 C 0.14892 0.87434 0.50609 0.0
C935 C 0.12213 0.82845 0.50546 0.0
C936 C 0.11289 0.80596 0.48521 0.0
C937 C 0.15877 0.89873 0.52752 0.0
C938 C 0.17456 0.8851 0.54554 0.0
C939 C 0.15567 0.93715 0.52974 0.0
C940 C 0.13505 0.95098 0.51235 0.0
C941 C 0.09291 0.92136 0.50434 0.0
C942 C 0.07389 0.93426 0.48773 0.0
C943 C 0.09653 0.97683 0.4791 0.0
C944 C 0.13822 0.00662 0.48712 0.0
C945 C 0.15743 0.99387 0.5037 0.0
H946 H 0.08176 0.98674 0.46624 0.0
H947 H 0.25405 0.85412 0.63026 0.0
loop_
_geom_bond_atom_site_label_1
_geom_bond_atom_site_label_2
_geom_bond_distance
_geom_bond_site_symmetry_2
_ccdc_geom_bond_type
Co0 N4 2.148 . S
Co0 N10 2.128 1_554 S
Co0 N20 2.194 . S
Co0 O25 2.351 . S
Co0 O26 2.155 . S
Co0 O27 2.096 . S
C1 N4 1.301 . S
C1 N5 1.328 . S
C1 H6 0.930 . S
C2 C3 1.333 . S
C2 N4 1.317 . S
C2 H7 0.930 . S
C3 C2 1.333 . S
C3 N5 1.350 . S
C3 H29 0.931 . S
N4 Co0 2.148 . S
N4 C1 1.301 . S
N4 C2 1.317 . S
N5 C1 1.328 . S
N5 C3 1.350 . S
H6 C1 0.930 . S
H7 C2 0.930 . S
C8 O9 1.224 . S
C8 O27 1.247 . S
O9 C8 1.224 . S
N10 Co0 2.128 1_556 S
N10 C11 1.355 . S
N10 C13 1.311 . S
C11 N10 1.355 . S
C11 C12 1.363 . S
C11 H23 0.929 . S
C12 C11 1.363 . S
C12 N14 1.375 . S
C12 H30 0.931 . S
C13 N10 1.311 . S
C13 N14 1.347 . S
C13 H24 0.929 . S
N14 C12 1.375 . S
N14 C13 1.347 . S
C15 C18 1.365 . S
C15 N20 1.328 . S
C15 H21 0.929 . S
C16 C17 1.362 . S
C16 C19 1.378 1_556 S
C16 H31 0.929 . S
C17 C16 1.362 . S
C17 C18 1.366 1_556 S
C18 C15 1.365 . S
C18 C17 1.366 1_554 S
C18 H32 0.930 . S
C19 C16 1.378 1_554 S
C19 N20 1.315 . S
C19 H22 0.930 . S
N20 Co0 2.194 . S
N20 C15 1.328 . S
N20 C19 1.315 . S
H21 C15 0.929 . S
H22 C19 0.930 . S
H23 C11 0.929 . S
H24 C13 0.929 . S
O25 Co0 2.351 . S
O25 C28 1.244 . S
O26 Co0 2.155 . S
O26 C28 1.240 . S
O27 Co0 2.096 . S
O27 C8 1.247 . S
C28 O25 1.244 . S
C28 O26 1.240 . S
H29 C3 0.931 . S
H30 C12 0.931 . S
H31 C16 0.929 . S
H32 C18 0.930 . S
Co33 N37 2.148 . S
Co33 N43 2.128 . S
Co33 N53 2.194 . S
Co33 O58 2.351 . S
Co33 O59 2.155 . S
Co33 O60 2.096 . S
C34 N37 1.301 . S
C34 N38 1.328 . S
C34 H39 0.930 . S
C35 C36 1.333 . S
C35 N37 1.317 . S
C35 H40 0.930 . S
C36 C35 1.333 . S
C36 N38 1.350 . S
C36 H62 0.931 . S
N37 Co33 2.148 . S
N37 C34 1.301 . S
N37 C35 1.317 . S
N38 C34 1.328 . S
N38 C36 1.350 . S
H39 C34 0.930 . S
H40 C35 0.930 . S
C41 O42 1.224 . S
C41 O60 1.247 . S
O42 C41 1.224 . S
N43 Co33 2.128 . S
N43 C44 1.355 . S
N43 C46 1.311 . S
C44 N43 1.355 . S
C44 C45 1.363 . S
C44 H56 0.929 . S
C45 C44 1.363 . S
C45 N47 1.375 . S
C45 H63 0.931 . S
C46 N43 1.311 . S
C46 N47 1.347 . S
C46 H57 0.929 . S
N47 C45 1.375 . S
N47 C46 1.347 . S
C48 C51 1.365 . S
C48 N53 1.328 . S
C48 H54 0.929 . S
C49 C50 1.362 . S
C49 C52 1.378 . S
C49 H64 0.929 . S
C50 C49 1.362 . S
C50 C51 1.366 . S
C51 C48 1.365 . S
C51 C50 1.366 . S
C51 H65 0.930 . S
C52 C49 1.378 . S
C52 N53 1.315 . S
C52 H55 0.930 . S
N53 Co33 2.194 . S
N53 C48 1.328 . S
N53 C52 1.315 . S
H54 C48 0.929 . S
H55 C52 0.930 . S
H56 C44 0.929 . S
H57 C46 0.929 . S
O58 Co33 2.351 . S
O58 C61 1.244 . S
O59 Co33 2.155 . S
O59 C61 1.240 . S
O60 Co33 2.096 . S
O60 C41 1.247 . S
C61 O58 1.244 . S
C61 O59 1.240 . S
H62 C36 0.931 . S
H63 C45 0.931 . S
H64 C49 0.929 . S
H65 C51 0.930 . S
Co66 N70 2.148 . S
Co66 N76 2.128 . S
Co66 N86 2.194 . S
Co66 O91 2.351 . S
Co66 O92 2.155 . S
Co66 O93 2.096 . S
C67 N70 1.301 . S
C67 N71 1.328 . S
C67 H72 0.930 . S
C68 C69 1.333 . S
C68 N70 1.317 . S
C68 H73 0.930 . S
C69 C68 1.333 . S
C69 N71 1.350 . S
C69 H95 0.931 . S
N70 Co66 2.148 . S
N70 C67 1.301 . S
N70 C68 1.317 . S
N71 C67 1.328 . S
N71 C69 1.350 . S
H72 C67 0.930 . S
H73 C68 0.930 . S
C74 O75 1.224 . S
C74 O93 1.247 . S
O75 C74 1.224 . S
N76 Co66 2.128 . S
N76 C77 1.355 . S
N76 C79 1.311 . S
C77 N76 1.355 . S
C77 C78 1.363 . S
C77 H89 0.929 . S
C78 C77 1.363 . S
C78 N80 1.375 . S
C78 H96 0.931 . S
C79 N76 1.311 . S
C79 N80 1.347 . S
C79 H90 0.929 . S
N80 C78 1.375 . S
N80 C79 1.347 . S
C81 C84 1.365 . S
C81 N86 1.328 . S
C81 H87 0.929 . S
C82 C83 1.362 . S
C82 C85 1.378 . S
C82 H97 0.929 . S
C83 C82 1.362 . S
C83 C84 1.366 . S
C84 C81 1.365 . S
C84 C83 1.366 . S
C84 H98 0.930 . S
C85 C82 1.378 . S
C85 N86 1.315 . S
C85 H88 0.930 . S
N86 Co66 2.194 . S
N86 C81 1.328 . S
N86 C85 1.315 . S
H87 C81 0.929 . S
H88 C85 0.930 . S
H89 C77 0.929 . S
H90 C79 0.929 . S
O91 Co66 2.351 . S
O91 C94 1.244 . S
O92 Co66 2.155 . S
O92 C94 1.240 . S
O93 Co66 2.096 . S
O93 C74 1.247 . S
C94 O91 1.244 . S
C94 O92 1.240 . S
H95 C69 0.931 . S
H96 C78 0.931 . S
H97 C82 0.929 . S
H98 C84 0.930 . S
Co99 N103 2.148 . S
Co99 N109 2.128 1_554 S
Co99 N119 2.194 . S
Co99 O124 2.351 . S
Co99 O125 2.155 . S
Co99 O126 2.096 . S
C100 N103 1.301 . S
C100 N104 1.328 . S
C100 H105 0.930 . S
C101 C102 1.333 . S
C101 N103 1.317 . S
C101 H106 0.930 . S
C102 C101 1.333 . S
C102 N104 1.350 . S
C102 H128 0.931 . S
N103 Co99 2.148 . S
N103 C100 1.301 . S
N103 C101 1.317 . S
N104 C100 1.328 . S
N104 C102 1.350 . S
H105 C100 0.930 . S
H106 C101 0.930 . S
C107 O108 1.224 . S
C107 O126 1.247 . S
O108 C107 1.224 . S
N109 Co99 2.128 1_556 S
N109 C110 1.355 . S
N109 C112 1.311 . S
C110 N109 1.355 . S
C110 C111 1.363 . S
C110 H122 0.929 . S
C111 C110 1.363 . S
C111 N113 1.375 . S
C111 H129 0.931 . S
C112 N109 1.311 . S
C112 N113 1.347 . S
C112 H123 0.929 . S
N113 C111 1.375 . S
N113 C112 1.347 . S
C114 C117 1.365 . S
C114 N119 1.328 . S
C114 H120 0.929 . S
C115 C116 1.362 . S
C115 C118 1.378 1_556 S
C115 H130 0.929 . S
C116 C115 1.362 . S
C116 C117 1.366 1_556 S
C117 C114 1.365 . S
C117 C116 1.366 1_554 S
C117 H131 0.930 . S
C118 C115 1.378 1_554 S
C118 N119 1.315 . S
C118 H121 0.930 . S
N119 Co99 2.194 . S
N119 C114 1.328 . S
N119 C118 1.315 . S
H120 C114 0.929 . S
H121 C118 0.930 . S
H122 C110 0.929 . S
H123 C112 0.929 . S
O124 Co99 2.351 . S
O124 C127 1.244 . S
O125 Co99 2.155 . S
O125 C127 1.240 . S
O126 Co99 2.096 . S
O126 C107 1.247 . S
C127 O124 1.244 . S
C127 O125 1.240 . S
H128 C102 0.931 . S
H129 C111 0.931 . S
H130 C115 0.929 . S
H131 C117 0.930 . S
Co132 N136 2.148 . S
Co132 N142 2.128 . S
Co132 N152 2.194 . S
Co132 O157 2.351 . S
Co132 O158 2.155 . S
Co132 O159 2.096 . S
C133 N136 1.301 . S
C133 N137 1.328 . S
C133 H138 0.930 . S
C134 C135 1.333 . S
C134 N136 1.317 . S
C134 H139 0.930 . S
C135 C134 1.333 . S
C135 N137 1.350 . S
C135 H161 0.931 . S
N136 Co132 2.148 . S
N136 C133 1.301 . S
N136 C134 1.317 . S
N137 C133 1.328 . S
N137 C135 1.350 . S
H138 C133 0.930 . S
H139 C134 0.930 . S
C140 O141 1.224 . S
C140 O159 1.247 . S
O141 C140 1.224 . S
N142 Co132 2.128 . S
N142 C143 1.355 . S
N142 C145 1.311 . S
C143 N142 1.355 . S
C143 C144 1.363 . S
C143 H155 0.929 . S
C144 C143 1.363 . S
C144 N146 1.375 . S
C144 H162 0.931 . S
C145 N142 1.311 . S
C145 N146 1.347 . S
C145 H156 0.929 . S
N146 C144 1.375 . S
N146 C145 1.347 . S
C147 C150 1.365 . S
C147 N152 1.328 . S
C147 H153 0.929 . S
C148 C149 1.362 . S
C148 C151 1.378 . S
C148 H163 0.929 . S
C149 C148 1.362 . S
C149 C150 1.366 . S
C150 C147 1.365 . S
C150 C149 1.366 . S
C150 H164 0.930 . S
C151 C148 1.378 . S
C151 N152 1.315 . S
C151 H154 0.930 . S
N152 Co132 2.194 . S
N152 C147 1.328 . S
N152 C151 1.315 . S
H153 C147 0.929 . S
H154 C151 0.930 . S
H155 C143 0.929 . S
H156 C145 0.929 . S
O157 Co132 2.351 . S
O157 C160 1.244 . S
O158 Co132 2.155 . S
O158 C160 1.240 . S
O159 Co132 2.096 . S
O159 C140 1.247 . S
C160 O157 1.244 . S
C160 O158 1.240 . S
H161 C135 0.931 . S
H162 C144 0.931 . S
H163 C148 0.929 . S
H164 C150 0.930 . S
Co165 N169 2.148 . S
Co165 N175 2.128 . S
Co165 N185 2.194 . S
Co165 O190 2.351 . S
Co165 O191 2.155 . S
Co165 O192 2.096 . S
C166 N169 1.301 . S
C166 N170 1.328 . S
C166 H171 0.930 . S
C167 C168 1.333 . S
C167 N169 1.317 . S
C167 H172 0.930 . S
C168 C167 1.333 . S
C168 N170 1.350 . S
C168 H194 0.931 . S
N169 Co165 2.148 . S
N169 C166 1.301 . S
N169 C167 1.317 . S
N170 C166 1.328 . S
N170 C168 1.350 . S
H171 C166 0.930 . S
H172 C167 0.930 . S
C173 O174 1.224 . S
C173 O192 1.247 . S
O174 C173 1.224 . S
N175 Co165 2.128 . S
N175 C176 1.355 . S
N175 C178 1.311 . S
C176 N175 1.355 . S
C176 C177 1.363 . S
C176 H188 0.929 . S
C177 C176 1.363 . S
C177 N179 1.375 . S
C177 H195 0.931 . S
C178 N175 1.311 . S
C178 N179 1.347 . S
C178 H189 0.929 . S
N179 C177 1.375 . S
N179 C178 1.347 . S
C180 C183 1.365 . S
C180 N185 1.328 . S
C180 H186 0.929 . S
C181 C182 1.362 . S
C181 C184 1.378 . S
C181 H196 0.929 . S
C182 C181 1.362 . S
C182 C183 1.366 . S
C183 C180 1.365 . S
C183 C182 1.366 . S
C183 H197 0.930 . S
C184 C181 1.378 . S
C184 N185 1.315 . S
C184 H187 0.930 . S
N185 Co165 2.194 . S
N185 C180 1.328 . S
N185 C184 1.315 . S
H186 C180 0.929 . S
H187 C184 0.930 . S
H188 C176 0.929 . S
H189 C178 0.929 . S
O190 Co165 2.351 . S
O190 C193 1.244 . S
O191 Co165 2.155 . S
O191 C193 1.240 . S
O192 Co165 2.096 . S
O192 C173 1.247 . S
C193 O190 1.244 . S
C193 O191 1.240 . S
H194 C168 0.931 . S
H195 C177 0.931 . S
H196 C181 0.929 . S
H197 C183 0.930 . S
H198 C216 0.951 . S
H199 C218 0.951 . S
H200 C220 0.950 . S
H201 C221 0.950 . S
H202 C223 0.947 1_556 S
H203 C226 0.950 . S
H204 C227 0.950 . S
H205 C229 0.950 . S
H206 C230 0.950 . S
H207 C231 0.951 . S
H208 C233 0.951 . S
H209 C235 0.950 . S
H210 C236 0.950 . S
H211 C238 0.950 . S
H212 C241 0.950 . S
H213 C242 0.950 . S
H214 C244 0.950 . S
H215 C245 0.950 . S
C216 H198 0.951 . S
C216 C217 1.366 . S
C216 C218 1.388 . S
C217 C216 1.366 . S
C217 C221 1.385 . S
C218 H199 0.951 . S
C218 C216 1.388 . S
C218 C219 1.366 . S
C219 C218 1.366 . S
C219 C220 1.414 . S
C219 C222 1.499 . S
C220 H200 0.950 . S
C220 C219 1.414 . S
C220 C221 1.374 . S
C221 H201 0.950 . S
C221 C217 1.385 . S
C221 C220 1.374 . S
C222 C219 1.499 . S
C222 C223 1.377 . S
C222 C224 1.389 . S
C223 H202 0.947 1_554 S
C223 C222 1.377 . S
C223 C239 1.376 1_554 S
C224 C222 1.389 . S
C224 C225 1.524 . S
C224 C238 1.377 . S
C225 C224 1.524 . S
C225 C226 1.397 . S
C225 C230 1.363 . S
C226 H203 0.950 . S
C226 C225 1.397 . S
C226 C227 1.334 . S
C227 H204 0.950 . S
C227 C226 1.334 . S
C227 C228 1.287 . S
C228 C227 1.287 . S
C228 C229 1.524 . S
C228 H247 0.913 . S
C229 H205 0.950 . S
C229 C228 1.524 . S
C229 C230 1.415 . S
C230 H206 0.950 . S
C230 C225 1.363 . S
C230 C229 1.415 . S
C231 H207 0.951 . S
C231 C232 1.366 . S
C231 C233 1.388 . S
C232 C231 1.366 . S
C232 C236 1.385 . S
C233 H208 0.951 . S
C233 C231 1.388 . S
C233 C234 1.366 . S
C234 C233 1.366 . S
C234 C235 1.414 . S
C234 C237 1.499 . S
C235 H209 0.950 . S
C235 C234 1.414 . S
C235 C236 1.374 . S
C236 H210 0.950 . S
C236 C232 1.385 . S
C236 C235 1.374 . S
C237 C234 1.499 . S
C237 C238 1.373 . S
C237 C239 1.389 1_554 S
C238 H211 0.950 . S
C238 C224 1.377 . S
C238 C237 1.373 . S
C239 C223 1.376 1_556 S
C239 C237 1.389 1_556 S
C239 C240 1.524 . S
C240 C239 1.524 . S
C240 C241 1.397 . S
C240 C245 1.363 . S
C241 H212 0.950 . S
C241 C240 1.397 . S
C241 C242 1.334 . S
C242 H213 0.950 . S
C242 C241 1.334 . S
C242 C243 1.287 . S
C243 C242 1.287 . S
C243 C244 1.524 . S
C243 H246 0.999 . S
C244 H214 0.950 . S
C244 C243 1.524 . S
C244 C245 1.415 . S
C245 H215 0.950 . S
C245 C240 1.363 . S
C245 C244 1.415 . S
H246 C243 0.999 . S
H247 C228 0.913 . S
H248 C266 0.951 . S
H249 C268 0.951 . S
H250 C270 0.950 . S
H251 C271 0.950 . S
H252 C273 0.950 . S
H253 C276 0.950 . S
H254 C277 0.950 . S
H255 C279 0.950 . S
H256 C280 0.950 . S
H257 C281 0.951 . S
H258 C283 0.951 . S
H259 C285 0.950 . S
H260 C286 0.950 . S
H261 C288 0.950 . S
H262 C291 0.950 . S
H263 C292 0.950 . S
H264 C294 0.950 . S
H265 C295 0.950 . S
C266 H248 0.951 . S
C266 C267 1.366 . S
C266 C268 1.388 . S
C267 C266 1.366 . S
C267 C271 1.385 . S
C268 H249 0.951 . S
C268 C266 1.388 . S
C268 C269 1.366 . S
C269 C268 1.366 . S
C269 C270 1.414 . S
C269 C272 1.499 . S
C270 H250 0.950 . S
C270 C269 1.414 . S
C270 C271 1.374 . S
C271 H251 0.950 . S
C271 C267 1.385 . S
C271 C270 1.374 . S
C272 C269 1.499 . S
C272 C273 1.373 . S
C272 C274 1.389 1_655 S
C273 H252 0.950 . S
C273 C272 1.373 . S
C273 C289 1.377 . S
C274 C272 1.389 1_455 S
C274 C275 1.524 . S
C274 C288 1.377 . S
C275 C274 1.524 . S
C275 C276 1.397 . S
C275 C280 1.363 . S
C276 H253 0.950 . S
C276 C275 1.397 . S
C276 C277 1.334 . S
C277 H254 0.950 . S
C277 C276 1.334 . S
C277 C278 1.287 . S
C278 C277 1.287 . S
C278 C279 1.524 . S
C278 H297 0.913 . S
C279 H255 0.950 . S
C279 C278 1.524 . S
C279 C280 1.415 . S
C280 H256 0.950 . S
C280 C275 1.363 . S
C280 C279 1.415 . S
C281 H257 0.951 . S
C281 C282 1.366 . S
C281 C283 1.388 . S
C282 C281 1.366 . S
C282 C286 1.385 . S
C283 H258 0.951 . S
C283 C281 1.388 . S
C283 C284 1.366 . S
C284 C283 1.366 . S
C284 C285 1.414 . S
C284 C287 1.499 . S
C285 H259 0.950 . S
C285 C284 1.414 . S
C285 C286 1.374 . S
C286 H260 0.950 . S
C286 C282 1.385 . S
C286 C285 1.374 . S
C287 C284 1.499 . S
C287 C288 1.373 . S
C287 C289 1.389 1_455 S
C288 H261 0.950 . S
C288 C274 1.377 . S
C288 C287 1.373 . S
C289 C273 1.377 . S
C289 C287 1.389 1_655 S
C289 C290 1.524 . S
C290 C289 1.524 . S
C290 C291 1.397 . S
C290 C295 1.363 . S
C291 H262 0.950 . S
C291 C290 1.397 . S
C291 C292 1.334 . S
C292 H263 0.950 . S
C292 C291 1.334 . S
C292 C293 1.287 . S
C293 C292 1.287 . S
C293 C294 1.524 . S
C293 H296 0.999 . S
C294 H264 0.950 . S
C294 C293 1.524 . S
C294 C295 1.415 . S
C295 H265 0.950 . S
C295 C290 1.363 . S
C295 C294 1.415 . S
H296 C293 0.999 . S
H297 C278 0.913 . S
H298 C316 0.951 . S
H299 C318 0.951 . S
H300 C320 0.950 1_565 S
H301 C321 0.950 . S
H302 C323 0.955 . S
H303 C326 0.950 1_565 S
H304 C327 0.950 1_565 S
H305 C329 0.950 . S
H306 C330 0.950 . S
H307 C331 0.951 . S
H308 C333 0.951 . S
H309 C335 0.950 1_545 S
H310 C336 0.950 . S
H311 C338 0.955 . S
H312 C341 0.950 1_545 S
H313 C342 0.950 1_545 S
H314 C344 0.950 . S
H315 C345 0.950 . S
C316 H298 0.951 . S
C316 C317 1.366 . S
C316 C318 1.388 . S
C317 C316 1.366 . S
C317 C321 1.385 . S
C318 H299 0.951 . S
C318 C316 1.388 . S
C318 C319 1.366 . S
C319 C318 1.366 . S
C319 C320 1.414 . S
C319 C322 1.499 . S
C320 H300 0.950 1_545 S
C320 C319 1.414 . S
C320 C321 1.374 . S
C321 H301 0.950 . S
C321 C317 1.385 . S
C321 C320 1.374 . S
C322 C319 1.499 . S
C322 C323 1.372 1_545 S
C322 C324 1.389 . S
C323 H302 0.955 . S
C323 C322 1.372 1_565 S
C323 C339 1.378 . S
C324 C322 1.389 . S
C324 C325 1.524 . S
C324 C338 1.378 . S
C325 C324 1.524 . S
C325 C326 1.397 . S
C325 C330 1.363 . S
C326 H303 0.950 1_545 S
C326 C325 1.397 . S
C326 C327 1.334 . S
C327 H304 0.950 1_545 S
C327 C326 1.334 . S
C327 C328 1.287 . S
C328 C327 1.287 . S
C328 C329 1.524 . S
C328 H347 0.913 . S
C329 H305 0.950 . S
C329 C328 1.524 . S
C329 C330 1.415 . S
C330 H306 0.950 . S
C330 C325 1.363 . S
C330 C329 1.415 . S
C331 H307 0.951 . S
C331 C332 1.366 . S
C331 C333 1.388 . S
C332 C331 1.366 . S
C332 C336 1.385 . S
C333 H308 0.951 . S
C333 C331 1.388 . S
C333 C334 1.366 . S
C334 C333 1.366 . S
C334 C335 1.414 . S
C334 C337 1.499 . S
C335 H309 0.950 1_565 S
C335 C334 1.414 . S
C335 C336 1.374 . S
C336 H310 0.950 . S
C336 C332 1.385 . S
C336 C335 1.374 . S
C337 C334 1.499 . S
C337 C338 1.372 1_565 S
C337 C339 1.389 . S
C338 H311 0.955 . S
C338 C324 1.378 . S
C338 C337 1.372 1_545 S
C339 C323 1.378 . S
C339 C337 1.389 . S
C339 C340 1.524 . S
C340 C339 1.524 . S
C340 C341 1.397 . S
C340 C345 1.363 . S
C341 H312 0.950 1_565 S
C341 C340 1.397 . S
C341 C342 1.334 . S
C342 H313 0.950 1_565 S
C342 C341 1.334 . S
C342 C343 1.287 . S
C343 C342 1.287 . S
C343 C344 1.524 . S
C343 H346 0.999 . S
C344 H314 0.950 . S
C344 C343 1.524 . S
C344 C345 1.415 . S
C345 H315 0.950 . S
C345 C340 1.363 . S
C345 C344 1.415 . S
H346 C343 0.999 . S
H347 C328 0.913 . S
H348 C366 0.951 . S
H349 C368 0.951 . S
H350 C370 0.950 . S
H351 C371 0.950 . S
H352 C373 0.950 . S
H353 C376 0.950 . S
H354 C377 0.950 . S
H355 C379 0.950 . S
H356 C380 0.950 . S
H357 C381 0.951 . S
H358 C383 0.951 . S
H359 C385 0.950 . S
H360 C386 0.950 . S
H361 C388 0.950 . S
H362 C391 0.950 . S
H363 C392 0.950 . S
H364 C394 0.950 . S
H365 C395 0.950 . S
C366 H348 0.951 . S
C366 C367 1.366 . S
C366 C368 1.388 . S
C367 C366 1.366 . S
C367 C371 1.385 . S
C368 H349 0.951 . S
C368 C366 1.388 . S
C368 C369 1.366 . S
C369 C368 1.366 . S
C369 C370 1.414 . S
C369 C372 1.499 . S
C370 H350 0.950 . S
C370 C369 1.414 . S
C370 C371 1.374 . S
C371 H351 0.950 . S
C371 C367 1.385 . S
C371 C370 1.374 . S
C372 C369 1.499 . S
C372 C373 1.373 . S
C372 C374 1.389 . S
C373 H352 0.950 . S
C373 C372 1.373 . S
C373 C389 1.377 . S
C374 C372 1.389 . S
C374 C375 1.524 . S
C374 C388 1.377 . S
C375 C374 1.524 . S
C375 C376 1.397 . S
C375 C380 1.363 . S
C376 H353 0.950 . S
C376 C375 1.397 . S
C376 C377 1.334 . S
C377 H354 0.950 . S
C377 C376 1.334 . S
C377 C378 1.287 . S
C378 C377 1.287 . S
C378 C379 1.524 . S
C378 H397 0.913 . S
C379 H355 0.950 . S
C379 C378 1.524 . S
C379 C380 1.415 . S
C380 H356 0.950 . S
C380 C375 1.363 . S
C380 C379 1.415 . S
C381 H357 0.951 . S
C381 C382 1.366 . S
C381 C383 1.388 . S
C382 C381 1.366 . S
C382 C386 1.385 . S
C383 H358 0.951 . S
C383 C381 1.388 . S
C383 C384 1.366 . S
C384 C383 1.366 . S
C384 C385 1.414 . S
C384 C387 1.499 . S
C385 H359 0.950 . S
C385 C384 1.414 . S
C385 C386 1.374 . S
C386 H360 0.950 . S
C386 C382 1.385 . S
C386 C385 1.374 . S
C387 C384 1.499 . S
C387 C388 1.373 . S
C387 C389 1.389 . S
C388 H361 0.950 . S
C388 C374 1.377 . S
C388 C387 1.373 . S
C389 C373 1.377 . S
C389 C387 1.389 . S
C389 C390 1.524 . S
C390 C389 1.524 . S
C390 C391 1.397 . S
C390 C395 1.363 . S
C391 H362 0.950 . S
C391 C390 1.397 . S
C391 C392 1.334 . S
C392 H363 0.950 . S
C392 C391 1.334 . S
C392 C393 1.287 . S
C393 C392 1.287 . S
C393 C394 1.524 . S
C393 H396 0.999 . S
C394 H364 0.950 . S
C394 C393 1.524 . S
C394 C395 1.415 . S
C395 H365 0.950 . S
C395 C390 1.363 . S
C395 C394 1.415 . S
H396 C393 0.999 . S
H397 C378 0.913 . S
H398 C416 0.951 . S
H399 C418 0.951 . S
H400 C420 0.944 1_454 S
H401 C421 0.950 1_554 S
H402 C423 0.950 . S
H403 C426 0.950 . S
H404 C427 0.950 . S
H405 C429 0.950 . S
H406 C430 0.950 . S
H407 C431 0.951 1_554 S
H408 C433 0.951 1_554 S
H409 C435 0.950 1_655 S
H410 C436 0.950 . S
H411 C438 0.950 . S
H412 C441 0.950 . S
H413 C442 0.950 . S
H414 C444 0.950 . S
H415 C445 0.950 . S
C416 H398 0.951 . S
C416 C417 1.366 . S
C416 C418 1.388 . S
C417 C416 1.366 . S
C417 C421 1.385 . S
C418 H399 0.951 . S
C418 C416 1.388 . S
C418 C419 1.366 . S
C419 C418 1.366 . S
C419 C420 1.421 . S
C419 C422 1.499 . S
C420 H400 0.944 1_656 S
C420 C419 1.421 . S
C420 C421 1.375 . S
C421 H401 0.950 1_556 S
C421 C417 1.385 . S
C421 C420 1.375 . S
C422 C419 1.499 . S
C422 C423 1.373 1_655 S
C422 C424 1.389 1_556 S
C423 H402 0.950 . S
C423 C422 1.373 1_455 S
C423 C439 1.377 . S
C424 C422 1.389 1_554 S
C424 C425 1.524 . S
C424 C438 1.377 . S
C425 C424 1.524 . S
C425 C426 1.397 . S
C425 C430 1.363 . S
C426 H403 0.950 . S
C426 C425 1.397 . S
C426 C427 1.334 . S
C427 H404 0.950 . S
C427 C426 1.334 . S
C427 C428 1.287 . S
C428 C427 1.287 . S
C428 C429 1.524 . S
C428 H447 0.913 . S
C429 H405 0.950 . S
C429 C428 1.524 . S
C429 C430 1.415 . S
C430 H406 0.950 . S
C430 C425 1.363 . S
C430 C429 1.415 . S
C431 H407 0.951 1_556 S
C431 C432 1.366 . S
C431 C433 1.388 . S
C432 C431 1.366 . S
C432 C436 1.385 . S
C433 H408 0.951 1_556 S
C433 C431 1.388 . S
C433 C434 1.366 . S
C434 C433 1.366 . S
C434 C435 1.414 . S
C434 C437 1.499 . S
C435 H409 0.950 1_455 S
C435 C434 1.414 . S
C435 C436 1.374 . S
C436 H410 0.950 . S
C436 C432 1.385 . S
C436 C435 1.374 . S
C437 C434 1.499 . S
C437 C438 1.373 1_456 S
C437 C439 1.389 . S
C438 H411 0.950 . S
C438 C424 1.377 . S
C438 C437 1.373 1_654 S
C439 C423 1.377 . S
C439 C437 1.389 . S
C439 C440 1.524 . S
C440 C439 1.524 . S
C440 C441 1.397 . S
C440 C445 1.363 . S
C441 H412 0.950 . S
C441 C440 1.397 . S
C441 C442 1.334 . S
C442 H413 0.950 . S
C442 C441 1.334 . S
C442 C443 1.287 . S
C443 C442 1.287 . S
C443 C444 1.524 . S
C443 H446 0.999 . S
C444 H414 0.950 . S
C444 C443 1.524 . S
C444 C445 1.415 . S
C445 H415 0.950 . S
C445 C440 1.363 . S
C445 C444 1.415 . S
H446 C443 0.999 . S
H447 C428 0.913 . S
H448 C466 0.951 . S
H449 C468 0.951 1_545 S
H450 C470 0.950 . S
H451 C471 0.950 . S
H452 C473 0.950 . S
H453 C476 0.950 1_565 S
H454 C477 0.950 1_565 S
H455 C479 0.950 . S
H456 C480 0.950 . S
H457 C481 0.951 . S
H458 C483 0.951 1_565 S
H459 C485 0.950 . S
H460 C486 0.950 . S
H461 C488 0.950 . S
H462 C491 0.950 1_545 S
H463 C492 0.950 1_545 S
H464 C494 0.950 . S
H465 C495 0.950 . S
C466 H448 0.951 . S
C466 C467 1.366 . S
C466 C468 1.388 . S
C467 C466 1.366 . S
C467 C471 1.385 . S
C468 H449 0.951 1_565 S
C468 C466 1.388 . S
C468 C469 1.366 . S
C469 C468 1.366 . S
C469 C470 1.414 . S
C469 C472 1.499 . S
C470 H450 0.950 . S
C470 C469 1.414 . S
C470 C471 1.374 . S
C471 H451 0.950 . S
C471 C467 1.385 . S
C471 C470 1.374 . S
C472 C469 1.499 . S
C472 C473 1.373 . S
C472 C474 1.389 1_565 S
C473 H452 0.950 . S
C473 C472 1.373 . S
C473 C489 1.377 . S
C474 C472 1.389 1_545 S
C474 C475 1.524 . S
C474 C488 1.377 . S
C475 C474 1.524 . S
C475 C476 1.397 . S
C475 C480 1.363 . S
C476 H453 0.950 1_545 S
C476 C475 1.397 . S
C476 C477 1.334 . S
C477 H454 0.950 1_545 S
C477 C476 1.334 . S
C477 C478 1.287 . S
C478 C477 1.287 . S
C478 C479 1.524 . S
C478 H497 0.913 . S
C479 H455 0.950 . S
C479 C478 1.524 . S
C479 C480 1.415 . S
C480 H456 0.950 . S
C480 C475 1.363 . S
C480 C479 1.415 . S
C481 H457 0.951 . S
C481 C482 1.366 . S
C481 C483 1.388 . S
C482 C481 1.366 . S
C482 C486 1.385 . S
C483 H458 0.951 1_545 S
C483 C481 1.388 . S
C483 C484 1.366 . S
C484 C483 1.366 . S
C484 C485 1.414 . S
C484 C487 1.499 . S
C485 H459 0.950 . S
C485 C484 1.414 . S
C485 C486 1.374 . S
C486 H460 0.950 . S
C486 C482 1.385 . S
C486 C485 1.374 . S
C487 C484 1.499 . S
C487 C488 1.373 . S
C487 C489 1.389 1_545 S
C488 H461 0.950 . S
C488 C474 1.377 . S
C488 C487 1.373 . S
C489 C473 1.377 . S
C489 C487 1.389 1_565 S
C489 C490 1.524 . S
C490 C489 1.524 . S
C490 C491 1.397 . S
C490 C495 1.363 . S
C491 H462 0.950 1_565 S
C491 C490 1.397 . S
C491 C492 1.334 . S
C492 H463 0.950 1_565 S
C492 C491 1.334 . S
C492 C493 1.287 . S
C493 C492 1.287 . S
C493 C494 1.524 . S
C493 H496 0.999 . S
C494 H464 0.950 . S
C494 C493 1.524 . S
C494 C495 1.415 . S
C495 H465 0.950 . S
C495 C490 1.363 . S
C495 C494 1.415 . S
H496 C493 0.999 . S
H497 C478 0.913 . S
H498 C516 0.951 . S
H499 C518 0.951 1_655 S
H500 C520 0.950 . S
H501 C521 0.950 . S
H502 C523 0.950 1_556 S
H503 C526 0.950 1_455 S
H504 C527 0.955 . S
H505 C529 0.950 . S
H506 C530 0.950 . S
H507 C531 0.951 . S
H508 C533 0.951 1_455 S
H509 C535 0.950 . S
H510 C536 0.950 . S
H511 C538 0.950 . S
H512 C541 0.950 1_655 S
H513 C542 0.955 . S
H514 C544 0.950 . S
H515 C545 0.950 . S
C516 H498 0.951 . S
C516 C517 1.366 . S
C516 C518 1.388 . S
C517 C516 1.366 . S
C517 C521 1.385 . S
C518 H499 0.951 1_455 S
C518 C516 1.388 . S
C518 C519 1.366 . S
C519 C518 1.366 . S
C519 C520 1.414 . S
C519 C522 1.499 . S
C520 H500 0.950 . S
C520 C519 1.414 . S
C520 C521 1.374 . S
C521 H501 0.950 . S
C521 C517 1.385 . S
C521 C520 1.374 . S
C522 C519 1.499 . S
C522 C523 1.373 . S
C522 C524 1.389 1_455 S
C523 H502 0.950 1_554 S
C523 C522 1.373 . S
C523 C539 1.376 1_544 S
C524 C522 1.389 1_655 S
C524 C525 1.524 . S
C524 C538 1.377 1_545 S
C525 C524 1.524 . S
C525 C526 1.397 . S
C525 C530 1.363 . S
C526 H503 0.950 1_655 S
C526 C525 1.397 . S
C526 C527 1.334 . S
C527 H504 0.955 . S
C527 C526 1.334 . S
C527 C528 1.287 . S
C528 C527 1.287 . S
C528 C529 1.524 . S
C528 H547 0.913 . S
C529 H505 0.950 . S
C529 C528 1.524 . S
C529 C530 1.415 . S
C530 H506 0.950 . S
C530 C525 1.363 . S
C530 C529 1.415 . S
C531 H507 0.951 . S
C531 C532 1.366 . S
C531 C533 1.388 . S
C532 C531 1.366 . S
C532 C536 1.385 . S
C533 H508 0.951 1_655 S
C533 C531 1.388 . S
C533 C534 1.366 . S
C534 C533 1.366 . S
C534 C535 1.414 . S
C534 C537 1.499 . S
C535 H509 0.950 . S
C535 C534 1.414 . S
C535 C536 1.374 . S
C536 H510 0.950 . S
C536 C532 1.385 . S
C536 C535 1.374 . S
C537 C534 1.499 . S
C537 C538 1.373 . S
C537 C539 1.385 1_654 S
C538 H511 0.950 . S
C538 C524 1.377 1_565 S
C538 C537 1.373 . S
C539 C523 1.376 1_566 S
C539 C537 1.385 1_456 S
C539 C540 1.530 . S
C540 C539 1.530 . S
C540 C541 1.397 . S
C540 C545 1.363 . S
C541 H512 0.950 1_455 S
C541 C540 1.397 . S
C541 C542 1.334 . S
C542 H513 0.955 . S
C542 C541 1.334 . S
C542 C543 1.287 . S
C543 C542 1.287 . S
C543 C544 1.524 . S
C543 H546 0.999 . S
C544 H514 0.950 . S
C544 C543 1.524 . S
C544 C545 1.415 . S
C545 H515 0.950 . S
C545 C540 1.363 . S
C545 C544 1.415 . S
H546 C543 0.999 . S
H547 C528 0.913 . S
H548 C566 0.951 . S
H549 C568 0.929 1_655 S
H550 C570 0.950 1_545 S
H551 C571 0.950 . S
H552 C573 0.947 . S
H553 C576 0.950 . S
H554 C577 0.950 . S
H555 C579 0.950 . S
H556 C580 0.950 . S
H557 C581 0.951 . S
H558 C583 0.929 1_455 S
H559 C585 0.950 1_565 S
H560 C586 0.950 . S
H561 C588 0.947 . S
H562 C591 0.950 . S
H563 C592 0.950 . S
H564 C594 0.950 . S
H565 C595 0.950 . S
C566 H548 0.951 . S
C566 C567 1.366 . S
C566 C568 1.388 . S
C567 C566 1.366 . S
C567 C571 1.385 . S
C568 H549 0.929 1_455 S
C568 C566 1.388 . S
C568 C569 1.366 . S
C569 C568 1.366 . S
C569 C570 1.414 . S
C569 C572 1.499 . S
C570 H550 0.950 1_565 S
C570 C569 1.414 . S
C570 C571 1.374 . S
C571 H551 0.950 . S
C571 C567 1.385 . S
C571 C570 1.374 . S
C572 C569 1.499 . S
C572 C573 1.367 1_565 S
C572 C574 1.399 . S
C573 H552 0.947 . S
C573 C572 1.367 1_545 S
C573 C589 1.371 1_455 S
C574 C572 1.399 . S
C574 C575 1.529 . S
C574 C588 1.371 1_455 S
C575 C574 1.529 . S
C575 C576 1.397 . S
C575 C580 1.363 1_455 S
C576 H553 0.950 . S
C576 C575 1.397 . S
C576 C577 1.334 . S
C577 H554 0.950 . S
C577 C576 1.334 . S
C577 C578 1.287 . S
C578 C577 1.287 . S
C578 C579 1.524 1_455 S
C578 H597 0.913 . S
C579 H555 0.950 . S
C579 C578 1.524 1_655 S
C579 C580 1.415 . S
C580 H556 0.950 . S
C580 C575 1.363 1_655 S
C580 C579 1.415 . S
C581 H557 0.951 . S
C581 C582 1.366 . S
C581 C583 1.388 . S
C582 C581 1.366 . S
C582 C586 1.385 . S
C583 H558 0.929 1_655 S
C583 C581 1.388 . S
C583 C584 1.366 . S
C584 C583 1.366 . S
C584 C585 1.414 . S
C584 C587 1.499 . S
C585 H559 0.950 1_545 S
C585 C584 1.414 . S
C585 C586 1.374 . S
C586 H560 0.950 . S
C586 C582 1.385 . S
C586 C585 1.374 . S
C587 C584 1.499 . S
C587 C588 1.367 1_545 S
C587 C589 1.399 . S
C588 H561 0.947 . S
C588 C574 1.371 1_655 S
C588 C587 1.367 1_565 S
C589 C573 1.371 1_655 S
C589 C587 1.399 . S
C589 C590 1.529 . S
C590 C589 1.529 . S
C590 C591 1.397 . S
C590 C595 1.363 1_655 S
C591 H562 0.950 . S
C591 C590 1.397 . S
C591 C592 1.334 . S
C592 H563 0.950 . S
C592 C591 1.334 . S
C592 C593 1.287 . S
C593 C592 1.287 . S
C593 C594 1.524 1_655 S
C593 H596 0.999 . S
C594 H564 0.950 . S
C594 C593 1.524 1_455 S
C594 C595 1.415 . S
C595 H565 0.950 . S
C595 C590 1.363 1_455 S
C595 C594 1.415 . S
H596 C593 0.999 . S
H597 C578 0.913 . S
H598 C616 0.951 . S
H599 C618 0.951 . S
H600 C620 0.950 . S
H601 C621 0.950 . S
H602 C623 0.950 . S
H603 C626 0.950 . S
H604 C627 0.950 . S
H605 C629 0.950 . S
H606 C630 0.950 . S
H607 C631 0.951 . S
H608 C633 0.951 . S
H609 C635 0.950 . S
H610 C636 0.950 . S
H611 C638 0.950 . S
H612 C641 0.950 . S
H613 C642 0.950 . S
H614 C644 0.950 . S
H615 C645 0.950 . S
C616 H598 0.951 . S
C616 C617 1.366 . S
C616 C618 1.388 . S
C617 C616 1.366 . S
C617 C621 1.385 . S
C618 H599 0.951 . S
C618 C616 1.388 . S
C618 C619 1.366 . S
C619 C618 1.366 . S
C619 C620 1.414 . S
C619 C622 1.499 . S
C620 H600 0.950 . S
C620 C619 1.414 . S
C620 C621 1.374 . S
C621 H601 0.950 . S
C621 C617 1.385 . S
C621 C620 1.374 . S
C622 C619 1.499 . S
C622 C623 1.373 1_545 S
C622 C624 1.389 . S
C623 H602 0.950 . S
C623 C622 1.373 1_565 S
C623 C639 1.377 1_455 S
C624 C622 1.389 . S
C624 C625 1.524 . S
C624 C638 1.377 1_455 S
C625 C624 1.524 . S
C625 C626 1.397 . S
C625 C630 1.363 . S
C626 H603 0.950 . S
C626 C625 1.397 . S
C626 C627 1.334 . S
C627 H604 0.950 . S
C627 C626 1.334 . S
C627 C628 1.287 . S
C628 C627 1.287 . S
C628 C629 1.524 . S
C628 H647 0.913 . S
C629 H605 0.950 . S
C629 C628 1.524 . S
C629 C630 1.415 . S
C630 H606 0.950 . S
C630 C625 1.363 . S
C630 C629 1.415 . S
C631 H607 0.951 . S
C631 C632 1.366 . S
C631 C633 1.388 . S
C632 C631 1.366 . S
C632 C636 1.385 . S
C633 H608 0.951 . S
C633 C631 1.388 . S
C633 C634 1.366 . S
C634 C633 1.366 . S
C634 C635 1.414 . S
C634 C637 1.499 . S
C635 H609 0.950 . S
C635 C634 1.414 . S
C635 C636 1.374 . S
C636 H610 0.950 . S
C636 C632 1.385 . S
C636 C635 1.374 . S
C637 C634 1.499 . S
C637 C638 1.373 1_565 S
C637 C639 1.389 . S
C638 H611 0.950 . S
C638 C624 1.377 1_655 S
C638 C637 1.373 1_545 S
C639 C623 1.377 1_655 S
C639 C637 1.389 . S
C639 C640 1.524 . S
C640 C639 1.524 . S
C640 C641 1.397 . S
C640 C645 1.363 . S
C641 H612 0.950 . S
C641 C640 1.397 . S
C641 C642 1.334 . S
C642 H613 0.950 . S
C642 C641 1.334 . S
C642 C643 1.287 . S
C643 C642 1.287 . S
C643 C644 1.524 . S
C643 H646 0.999 . S
C644 H614 0.950 . S
C644 C643 1.524 . S
C644 C645 1.415 . S
C645 H615 0.950 . S
C645 C640 1.363 . S
C645 C644 1.415 . S
H646 C643 0.999 . S
H647 C628 0.913 . S
H648 C666 0.951 . S
H649 C668 0.951 . S
H650 C670 0.950 . S
H651 C671 0.950 . S
H652 C673 0.950 . S
H653 C676 0.950 . S
H654 C677 0.950 . S
H655 C679 0.950 . S
H656 C680 0.950 . S
H657 C681 0.951 . S
H658 C683 0.951 . S
H659 C685 0.950 . S
H660 C686 0.950 . S
H661 C688 0.950 . S
H662 C691 0.950 . S
H663 C692 0.950 . S
H664 C694 0.950 . S
H665 C695 0.950 . S
C666 H648 0.951 . S
C666 C667 1.366 . S
C666 C668 1.388 . S
C667 C666 1.366 . S
C667 C671 1.385 . S
C668 H649 0.951 . S
C668 C666 1.388 . S
C668 C669 1.366 . S
C669 C668 1.366 . S
C669 C670 1.414 . S
C669 C672 1.499 . S
C670 H650 0.950 . S
C670 C669 1.414 . S
C670 C671 1.374 . S
C671 H651 0.950 . S
C671 C667 1.385 . S
C671 C670 1.374 . S
C672 C669 1.499 . S
C672 C673 1.373 . S
C672 C674 1.389 . S
C673 H652 0.950 . S
C673 C672 1.373 . S
C673 C689 1.377 . S
C674 C672 1.389 . S
C674 C675 1.524 . S
C674 C688 1.377 . S
C675 C674 1.524 . S
C675 C676 1.397 . S
C675 C680 1.363 . S
C676 H653 0.950 . S
C676 C675 1.397 . S
C676 C677 1.334 . S
C677 H654 0.950 . S
C677 C676 1.334 . S
C677 C678 1.287 . S
C678 C677 1.287 . S
C678 C679 1.524 . S
C678 H697 0.913 . S
C679 H655 0.950 . S
C679 C678 1.524 . S
C679 C680 1.415 . S
C680 H656 0.950 . S
C680 C675 1.363 . S
C680 C679 1.415 . S
C681 H657 0.951 . S
C681 C682 1.366 . S
C681 C683 1.388 . S
C682 C681 1.366 . S
C682 C686 1.385 . S
C683 H658 0.951 . S
C683 C681 1.388 . S
C683 C684 1.366 . S
C684 C683 1.366 . S
C684 C685 1.414 . S
C684 C687 1.499 . S
C685 H659 0.950 . S
C685 C684 1.414 . S
C685 C686 1.374 . S
C686 H660 0.950 . S
C686 C682 1.385 . S
C686 C685 1.374 . S
C687 C684 1.499 . S
C687 C688 1.373 . S
C687 C689 1.389 . S
C688 H661 0.950 . S
C688 C674 1.377 . S
C688 C687 1.373 . S
C689 C673 1.377 . S
C689 C687 1.389 . S
C689 C690 1.524 . S
C690 C689 1.524 . S
C690 C691 1.397 . S
C690 C695 1.363 . S
C691 H662 0.950 . S
C691 C690 1.397 . S
C691 C692 1.334 . S
C692 H663 0.950 . S
C692 C691 1.334 . S
C692 C693 1.287 . S
C693 C692 1.287 . S
C693 C694 1.524 . S
C693 H696 0.999 . S
C694 H664 0.950 . S
C694 C693 1.524 . S
C694 C695 1.415 . S
C695 H665 0.950 . S
C695 C690 1.363 . S
C695 C694 1.415 . S
H696 C693 0.999 . S
H697 C678 0.913 . S
H698 C716 0.951 . S
H699 C718 0.951 . S
H700 C720 0.934 1_655 S
H701 C721 0.950 . S
H702 C723 0.952 . S
H703 C726 0.950 . S
H704 C727 0.950 . S
H705 C729 0.950 . S
H706 C730 0.950 . S
H707 C731 0.951 . S
H708 C733 0.951 . S
H709 C735 0.950 1_455 S
H710 C736 0.950 . S
H711 C738 0.950 . S
H712 C741 0.950 . S
H713 C742 0.950 . S
H714 C744 0.950 . S
H715 C745 0.950 . S
C716 H698 0.951 . S
C716 C717 1.366 . S
C716 C718 1.388 . S
C717 C716 1.366 . S
C717 C721 1.385 . S
C718 H699 0.951 . S
C718 C716 1.388 . S
C718 C719 1.366 . S
C719 C718 1.366 . S
C719 C720 1.414 . S
C719 C722 1.499 . S
C720 H700 0.934 1_455 S
C720 C719 1.414 . S
C720 C721 1.374 . S
C721 H701 0.950 . S
C721 C717 1.385 . S
C721 C720 1.374 . S
C722 C719 1.499 . S
C722 C723 1.370 1_455 S
C722 C724 1.389 . S
C723 H702 0.952 . S
C723 C722 1.370 1_655 S
C723 C739 1.378 . S
C724 C722 1.389 . S
C724 C725 1.524 . S
C724 C738 1.377 . S
C725 C724 1.524 . S
C725 C726 1.397 . S
C725 C730 1.363 . S
C726 H703 0.950 . S
C726 C725 1.397 . S
C726 C727 1.334 . S
C727 H704 0.950 . S
C727 C726 1.334 . S
C727 C728 1.287 . S
C728 C727 1.287 . S
C728 C729 1.524 . S
C728 H747 0.913 . S
C729 H705 0.950 . S
C729 C728 1.524 . S
C729 C730 1.415 . S
C730 H706 0.950 . S
C730 C725 1.363 . S
C730 C729 1.415 . S
C731 H707 0.951 . S
C731 C732 1.366 . S
C731 C733 1.388 . S
C732 C731 1.366 . S
C732 C736 1.385 . S
C733 H708 0.951 . S
C733 C731 1.388 . S
C733 C734 1.366 . S
C734 C733 1.366 . S
C734 C735 1.414 . S
C734 C737 1.499 . S
C735 H709 0.950 1_655 S
C735 C734 1.414 . S
C735 C736 1.374 . S
C736 H710 0.950 . S
C736 C732 1.385 . S
C736 C735 1.374 . S
C737 C734 1.499 . S
C737 C738 1.373 1_655 S
C737 C739 1.389 . S
C738 H711 0.950 . S
C738 C724 1.377 . S
C738 C737 1.373 1_455 S
C739 C723 1.378 . S
C739 C737 1.389 . S
C739 C740 1.524 . S
C740 C739 1.524 . S
C740 C741 1.397 . S
C740 C745 1.363 . S
C741 H712 0.950 . S
C741 C740 1.397 . S
C741 C742 1.334 . S
C742 H713 0.950 . S
C742 C741 1.334 . S
C742 C743 1.287 . S
C743 C742 1.287 . S
C743 C744 1.524 . S
C743 H746 0.999 . S
C744 H714 0.950 . S
C744 C743 1.524 . S
C744 C745 1.415 . S
C745 H715 0.950 . S
C745 C740 1.363 . S
C745 C744 1.415 . S
H746 C743 0.999 . S
H747 C728 0.913 . S
H748 C766 0.951 . S
H749 C768 0.951 . S
H750 C770 0.950 . S
H751 C771 0.950 . S
H752 C773 0.950 . S
H753 C776 0.950 . S
H754 C777 0.950 . S
H755 C779 0.950 . S
H756 C780 0.950 . S
H757 C781 0.951 . S
H758 C783 0.951 . S
H759 C785 0.950 1_545 S
H760 C786 0.950 . S
H761 C788 0.950 . S
H762 C791 0.950 . S
H763 C792 0.950 . S
H764 C794 0.950 . S
H765 C795 0.950 . S
C766 H748 0.951 . S
C766 C767 1.366 . S
C766 C768 1.388 . S
C767 C766 1.366 . S
C767 C771 1.385 . S
C768 H749 0.951 . S
C768 C766 1.388 . S
C768 C769 1.366 . S
C769 C768 1.366 . S
C769 C770 1.414 . S
C769 C772 1.499 . S
C770 H750 0.950 . S
C770 C769 1.414 . S
C770 C771 1.374 . S
C771 H751 0.950 . S
C771 C767 1.385 . S
C771 C770 1.374 . S
C772 C769 1.499 . S
C772 C773 1.373 1_545 S
C772 C774 1.389 . S
C773 H752 0.950 . S
C773 C772 1.373 1_565 S
C773 C789 1.377 . S
C774 C772 1.389 . S
C774 C775 1.524 . S
C774 C788 1.377 . S
C775 C774 1.524 . S
C775 C776 1.397 . S
C775 C780 1.363 . S
C776 H753 0.950 . S
C776 C775 1.397 . S
C776 C777 1.334 . S
C777 H754 0.950 . S
C777 C776 1.334 . S
C777 C778 1.287 . S
C778 C777 1.287 . S
C778 C779 1.524 . S
C778 H797 0.913 . S
C779 H755 0.950 . S
C779 C778 1.524 . S
C779 C780 1.415 . S
C780 H756 0.950 . S
C780 C775 1.363 . S
C780 C779 1.415 . S
C781 H757 0.951 . S
C781 C782 1.366 . S
C781 C783 1.388 . S
C782 C781 1.366 . S
C782 C786 1.385 . S
C783 H758 0.951 . S
C783 C781 1.388 . S
C783 C784 1.366 . S
C784 C783 1.366 . S
C784 C785 1.414 . S
C784 C787 1.499 . S
C785 H759 0.950 1_565 S
C785 C784 1.414 . S
C785 C786 1.374 . S
C786 H760 0.950 . S
C786 C782 1.385 . S
C786 C785 1.374 . S
C787 C784 1.499 . S
C787 C788 1.373 1_565 S
C787 C789 1.389 . S
C788 H761 0.950 . S
C788 C774 1.377 . S
C788 C787 1.373 1_545 S
C789 C773 1.377 . S
C789 C787 1.389 . S
C789 C790 1.524 . S
C790 C789 1.524 . S
C790 C791 1.397 . S
C790 C795 1.363 . S
C791 H762 0.950 . S
C791 C790 1.397 . S
C791 C792 1.334 . S
C792 H763 0.950 . S
C792 C791 1.334 . S
C792 C793 1.287 . S
C793 C792 1.287 . S
C793 C794 1.524 . S
C793 H796 0.999 . S
C794 H764 0.950 . S
C794 C793 1.524 . S
C794 C795 1.415 . S
C795 H765 0.950 . S
C795 C790 1.363 . S
C795 C794 1.415 . S
H796 C793 0.999 . S
H797 C778 0.913 . S
H798 C816 0.951 . S
H799 C818 0.951 . S
H800 C820 0.950 . S
H801 C821 0.950 . S
H802 C823 0.950 . S
H803 C826 0.950 . S
H804 C827 0.950 . S
H805 C829 0.950 . S
H806 C830 0.950 . S
H807 C831 0.951 . S
H808 C833 0.951 . S
H809 C835 0.950 . S
H810 C836 0.950 . S
H811 C838 0.950 . S
H812 C841 0.950 . S
H813 C842 0.950 . S
H814 C844 0.950 . S
H815 C845 0.950 . S
C816 H798 0.951 . S
C816 C817 1.366 . S
C816 C818 1.388 . S
C817 C816 1.366 . S
C817 C821 1.385 . S
C818 H799 0.951 . S
C818 C816 1.388 . S
C818 C819 1.366 . S
C819 C818 1.366 . S
C819 C820 1.414 . S
C819 C822 1.499 . S
C820 H800 0.950 . S
C820 C819 1.414 . S
C820 C821 1.374 . S
C821 H801 0.950 . S
C821 C817 1.385 . S
C821 C820 1.374 . S
C822 C819 1.499 . S
C822 C823 1.373 . S
C822 C824 1.389 . S
C823 H802 0.950 . S
C823 C822 1.373 . S
C823 C839 1.377 . S
C824 C822 1.389 . S
C824 C825 1.524 . S
C824 C838 1.377 . S
C825 C824 1.524 . S
C825 C826 1.397 . S
C825 C830 1.363 . S
C826 H803 0.950 . S
C826 C825 1.397 . S
C826 C827 1.334 . S
C827 H804 0.950 . S
C827 C826 1.334 . S
C827 C828 1.287 . S
C828 C827 1.287 . S
C828 C829 1.524 . S
C828 H847 0.913 . S
C829 H805 0.950 . S
C829 C828 1.524 . S
C829 C830 1.415 . S
C830 H806 0.950 . S
C830 C825 1.363 . S
C830 C829 1.415 . S
C831 H807 0.951 . S
C831 C832 1.366 . S
C831 C833 1.388 . S
C832 C831 1.366 . S
C832 C836 1.385 . S
C833 H808 0.951 . S
C833 C831 1.388 . S
C833 C834 1.366 . S
C834 C833 1.366 . S
C834 C835 1.414 . S
C834 C837 1.499 . S
C835 H809 0.950 . S
C835 C834 1.414 . S
C835 C836 1.374 . S
C836 H810 0.950 . S
C836 C832 1.385 . S
C836 C835 1.374 . S
C837 C834 1.499 . S
C837 C838 1.373 . S
C837 C839 1.389 . S
C838 H811 0.950 . S
C838 C824 1.377 . S
C838 C837 1.373 . S
C839 C823 1.377 . S
C839 C837 1.389 . S
C839 C840 1.524 . S
C840 C839 1.524 . S
C840 C841 1.397 . S
C840 C845 1.363 . S
C841 H812 0.950 . S
C841 C840 1.397 . S
C841 C842 1.334 . S
C842 H813 0.950 . S
C842 C841 1.334 . S
C842 C843 1.287 . S
C843 C842 1.287 . S
C843 C844 1.524 . S
C843 H846 0.999 . S
C844 H814 0.950 . S
C844 C843 1.524 . S
C844 C845 1.415 . S
C845 H815 0.950 . S
C845 C840 1.363 . S
C845 C844 1.415 . S
H846 C843 0.999 . S
H847 C828 0.913 . S
H848 C866 0.951 . S
H849 C868 0.951 . S
H850 C870 0.950 . S
H851 C871 0.950 . S
H852 C873 0.950 . S
H853 C876 0.950 1_655 S
H854 C877 0.950 . S
H855 C879 0.950 . S
H856 C880 0.950 . S
H857 C881 0.951 . S
H858 C883 0.951 1_655 S
H859 C885 0.950 . S
H860 C886 0.950 . S
H861 C888 0.950 . S
H862 C891 0.950 . S
H863 C892 0.950 . S
H864 C894 0.950 . S
H865 C895 0.950 . S
C866 H848 0.951 . S
C866 C867 1.366 . S
C866 C868 1.388 . S
C867 C866 1.366 . S
C867 C871 1.385 . S
C868 H849 0.951 . S
C868 C866 1.388 . S
C868 C869 1.366 . S
C869 C868 1.366 . S
C869 C870 1.414 . S
C869 C872 1.499 . S
C870 H850 0.950 . S
C870 C869 1.414 . S
C870 C871 1.374 . S
C871 H851 0.950 . S
C871 C867 1.385 . S
C871 C870 1.374 . S
C872 C869 1.499 . S
C872 C873 1.373 . S
C872 C874 1.389 1_655 S
C873 H852 0.950 . S
C873 C872 1.373 . S
C873 C889 1.377 . S
C874 C872 1.389 1_455 S
C874 C875 1.524 . S
C874 C888 1.377 . S
C875 C874 1.524 . S
C875 C876 1.397 . S
C875 C880 1.363 . S
C876 H853 0.950 1_455 S
C876 C875 1.397 . S
C876 C877 1.334 . S
C877 H854 0.950 . S
C877 C876 1.334 . S
C877 C878 1.287 . S
C878 C877 1.287 . S
C878 C879 1.524 . S
C878 H897 0.913 . S
C879 H855 0.950 . S
C879 C878 1.524 . S
C879 C880 1.415 . S
C880 H856 0.950 . S
C880 C875 1.363 . S
C880 C879 1.415 . S
C881 H857 0.951 . S
C881 C882 1.366 . S
C881 C883 1.388 . S
C882 C881 1.366 . S
C882 C886 1.385 . S
C883 H858 0.951 1_455 S
C883 C881 1.388 . S
C883 C884 1.366 . S
C884 C883 1.366 . S
C884 C885 1.414 . S
C884 C887 1.499 . S
C885 H859 0.950 . S
C885 C884 1.414 . S
C885 C886 1.374 . S
C886 H860 0.950 . S
C886 C882 1.385 . S
C886 C885 1.374 . S
C887 C884 1.499 . S
C887 C888 1.373 . S
C887 C889 1.389 1_455 S
C888 H861 0.950 . S
C888 C874 1.377 . S
C888 C887 1.373 . S
C889 C873 1.377 . S
C889 C887 1.389 1_655 S
C889 C890 1.524 . S
C890 C889 1.524 . S
C890 C891 1.397 . S
C890 C895 1.363 . S
C891 H862 0.950 . S
C891 C890 1.397 . S
C891 C892 1.334 . S
C892 H863 0.950 . S
C892 C891 1.334 . S
C892 C893 1.287 . S
C893 C892 1.287 . S
C893 C894 1.524 . S
C893 H896 0.999 . S
C894 H864 0.950 . S
C894 C893 1.524 . S
C894 C895 1.415 . S
C895 H865 0.950 . S
C895 C890 1.363 . S
C895 C894 1.415 . S
H896 C893 0.999 . S
H897 C878 0.913 . S
H898 C916 0.951 . S
H899 C918 0.951 1_565 S
H900 C920 0.950 . S
H901 C921 0.950 . S
H902 C923 0.950 . S
H903 C926 0.950 . S
H904 C927 0.950 . S
H905 C929 0.950 . S
H906 C930 0.950 . S
H907 C931 0.951 . S
H908 C933 0.951 . S
H909 C935 0.950 . S
H910 C936 0.950 . S
H911 C938 0.950 . S
H912 C941 0.950 . S
H913 C942 0.950 . S
H914 C944 0.950 . S
H915 C945 0.950 . S
C916 H898 0.951 . S
C916 C917 1.366 . S
C916 C918 1.388 . S
C917 C916 1.366 . S
C917 C921 1.385 . S
C918 H899 0.951 1_545 S
C918 C916 1.388 . S
C918 C919 1.366 . S
C919 C918 1.366 . S
C919 C920 1.414 . S
C919 C922 1.499 . S
C920 H900 0.950 . S
C920 C919 1.414 . S
C920 C921 1.374 . S
C921 H901 0.950 . S
C921 C917 1.385 . S
C921 C920 1.374 . S
C922 C919 1.499 . S
C922 C923 1.373 . S
C922 C924 1.389 1_545 S
C923 H902 0.950 . S
C923 C922 1.373 . S
C923 C939 1.377 1_545 S
C924 C922 1.389 1_565 S
C924 C925 1.524 . S
C924 C938 1.377 . S
C925 C924 1.524 . S
C925 C926 1.397 1_565 S
C925 C930 1.363 . S
C926 H903 0.950 . S
C926 C925 1.397 1_545 S
C926 C927 1.334 . S
C927 H904 0.950 . S
C927 C926 1.334 . S
C927 C928 1.287 1_545 S
C928 C927 1.287 1_565 S
C928 C929 1.524 . S
C928 H947 0.913 . S
C929 H905 0.950 . S
C929 C928 1.524 . S
C929 C930 1.415 . S
C930 H906 0.950 . S
C930 C925 1.363 . S
C930 C929 1.415 . S
C931 H907 0.951 . S
C931 C932 1.366 . S
C931 C933 1.388 . S
C932 C931 1.366 . S
C932 C936 1.385 . S
C933 H908 0.951 . S
C933 C931 1.388 . S
C933 C934 1.366 . S
C934 C933 1.366 . S
C934 C935 1.414 . S
C934 C937 1.499 . S
C935 H909 0.950 . S
C935 C934 1.414 . S
C935 C936 1.374 . S
C936 H910 0.950 . S
C936 C932 1.385 . S
C936 C935 1.374 . S
C937 C934 1.499 . S
C937 C938 1.373 . S
C937 C939 1.389 . S
C938 H911 0.950 . S
C938 C924 1.377 . S
C938 C937 1.373 . S
C939 C923 1.377 1_565 S
C939 C937 1.389 . S
C939 C940 1.525 1_565 S
C940 C939 1.525 1_545 S
C940 C941 1.397 1_545 S
C940 C945 1.362 . S
C941 H912 0.950 . S
C941 C940 1.397 1_565 S
C941 C942 1.334 . S
C942 H913 0.950 . S
C942 C941 1.334 . S
C942 C943 1.287 . S
C943 C942 1.287 . S
C943 C944 1.524 1_565 S
C943 H946 0.999 . S
C944 H914 0.950 . S
C944 C943 1.524 1_545 S
C944 C945 1.415 . S
C945 H915 0.950 . S
C945 C940 1.362 . S
C945 C944 1.415 . S
H946 C943 0.999 . S
H947 C928 0.913 . S
C217 C8 1.927 . S
C232 C107 1.927 . S
C267 C41 1.927 . S
C282 C140 1.927 . S
C317 C173 1.927 . S
C332 C74 1.927 . S
C367 C83 0.588 . S
C382 C182 0.589 . S
C417 C116 0.589 . S
C432 C17 0.588 . S
C467 C149 0.587 . S
C482 C50 0.589 . S
C517 C28 0.508 . S
C532 C127 0.508 . S
C567 C160 0.508 . S
C582 C61 0.508 . S
C617 C193 0.508 . S
C632 C94 0.507 . S
C667 N14 1.693 . S
C682 N170 1.776 . S
C717 N5 1.775 . S
C732 N47 1.693 . S
C767 N38 1.776 . S
C782 N80 1.693 . S
C817 N71 1.775 . S
C832 N113 1.694 . S
C867 N104 1.775 . S
C882 N146 1.694 . S
C917 N179 1.693 . S
C932 N137 1.775 . S
