# Generated by pormake.
# Topology mok, (4)-cn, num edge types: 1
# Building blocks:
#     Node 0, Type 0, BuildingBlock: AZAVOO_clean_sbu_0, # of connection points: 4
#     Node 1, Type 0, BuildingBlock: AZAVOO_clean_sbu_0, # of connection points: 4
#     Node 2, Type 0, BuildingBlock: AZAVOO_clean_sbu_0, # of connection points: 4
#     Node 3, Type 0, BuildingBlock: AZAVOO_clean_sbu_0, # of connection points: 4
#     Node 4, Type 0, BuildingBlock: AZAVOO_clean_sbu_0, # of connection points: 4
#     Node 5, Type 0, BuildingBlock: AZAVOO_clean_sbu_0, # of connection points: 4
#     Node 6, Type 0, BuildingBlock: AZAVOO_clean_sbu_0, # of connection points: 4
#     Node 7, Type 0, BuildingBlock: AZAVOO_clean_sbu_0, # of connection points: 4
#     Edge 8, Type (0, 0), BuildingBlock: MIFKUJ_clean_linker_0, # of connection points: 2
#     Edge 9, Type (0, 0), BuildingBlock: MIFKUJ_clean_linker_0, # of connection points: 2
#     Edge 10, Type (0, 0), BuildingBlock: MIFKUJ_clean_linker_0, # of connection points: 2
#     Edge 11, Type (0, 0), BuildingBlock: MIFKUJ_clean_linker_0, # of connection points: 2
#     Edge 12, Type (0, 0), BuildingBlock: MIFKUJ_clean_linker_0, # of connection points: 2
#     Edge 13, Type (0, 0), BuildingBlock: MIFKUJ_clean_linker_0, # of connection points: 2
#     Edge 14, Type (0, 0), BuildingBlock: MIFKUJ_clean_linker_0, # of connection points: 2
#     Edge 15, Type (0, 0), BuildingBlock: MIFKUJ_clean_linker_0, # of connection points: 2
#     Edge 16, Type (0, 0), BuildingBlock: MIFKUJ_clean_linker_0, # of connection points: 2
#     Edge 17, Type (0, 0), BuildingBlock: MIFKUJ_clean_linker_0, # of connection points: 2
#     Edge 18, Type (0, 0), BuildingBlock: MIFKUJ_clean_linker_0, # of connection points: 2
#     Edge 19, Type (0, 0), BuildingBlock: MIFKUJ_clean_linker_0, # of connection points: 2
#     Edge 20, Type (0, 0), BuildingBlock: MIFKUJ_clean_linker_0, # of connection points: 2
#     Edge 21, Type (0, 0), BuildingBlock: MIFKUJ_clean_linker_0, # of connection points: 2
#     Edge 22, Type (0, 0), BuildingBlock: MIFKUJ_clean_linker_0, # of connection points: 2
#     Edge 23, Type (0, 0), BuildingBlock: MIFKUJ_clean_linker_0, # of connection points: 2
# Relax obj value: 0.033
# Max RMSD: 0.042
# Mean RMSD: 0.042
data_MOF--net-mok--node1-AZAVOO_clean_sbu_0--edge1-MIFKUJ_clean_linker_0
_symmetry_space_group_name_H-M    P1
_symmetry_Int_Tables_number       1
_symmetry_cell_setting            triclinic
loop_
_symmetry_equiv_pos_as_xyz
'x, y, z'
_cell_length_a     56.242771
_cell_length_b     27.661207
_cell_length_c     34.588827
_cell_angle_alpha  90.016201
_cell_angle_beta   89.872365
_cell_angle_gamma 89.962342
loop_
_atom_site_label
_atom_site_type_symbol
_atom_site_fract_x
_atom_site_fract_y
_atom_site_fract_z
_atom_type_partial_charge
Mg0 Mg 0.57605 0.32435 -0.00345 0.0
O1 O 0.61601 0.30631 0.00174 0.0
O2 O 0.62079 0.26823 0.0582 0.0
Mg3 Mg 0.58495 0.26096 0.08823 0.0
C4 C 0.62919 0.28544 0.02678 0.0
C5 C 0.57512 0.38898 0.92664 0.0
O6 O 0.56708 0.41575 0.95517 0.0
O7 O 0.56753 0.24614 0.98174 0.0
O8 O 0.57305 0.21036 0.03909 0.0
O9 O 0.58211 0.39331 0.02747 0.0
O10 O 0.57251 0.32511 0.05677 0.0
C11 C 0.56763 0.20867 0.00325 0.0
C12 C 0.57834 0.37006 0.0593 0.0
O13 O 0.58071 0.34525 0.93336 0.0
Mg14 Mg 0.42017 0.67095 0.00684 0.0
O15 O 0.38126 0.69677 0.00825 0.0
O16 O 0.37667 0.73985 0.06251 0.0
Mg17 Mg 0.4115 0.73896 0.09628 0.0
C18 C 0.36853 0.72243 0.03103 0.0
C19 C 0.42893 0.61032 0.93745 0.0
O20 O 0.44121 0.59115 0.96588 0.0
O21 O 0.43298 0.74658 0.99135 0.0
O22 O 0.42853 0.78455 0.04803 0.0
O23 O 0.4101 0.60427 0.03827 0.0
O24 O 0.42177 0.67166 0.06689 0.0
C25 C 0.43494 0.78416 0.01254 0.0
C26 C 0.41409 0.62794 0.06988 0.0
O27 O 0.41703 0.6485 0.94406 0.0
Mg28 Mg 0.57606 0.67183 0.482 0.0
O29 O 0.61505 0.69616 0.47487 0.0
O30 O 0.61684 0.73786 0.41951 0.0
Mg31 Mg 0.58045 0.73728 0.39052 0.0
C32 C 0.6266 0.72104 0.44998 0.0
C33 C 0.57544 0.60837 0.552 0.0
O34 O 0.56567 0.58284 0.52423 0.0
O35 O 0.56514 0.74851 0.49775 0.0
O36 O 0.56652 0.7851 0.44017 0.0
O37 O 0.58355 0.60357 0.45099 0.0
O38 O 0.57174 0.67062 0.42211 0.0
C39 C 0.56225 0.78574 0.47649 0.0
C40 C 0.57853 0.62621 0.41935 0.0
O41 O 0.58222 0.65123 0.54468 0.0
Mg42 Mg 0.42541 0.32745 0.49183 0.0
O43 O 0.38653 0.30148 0.48734 0.0
O44 O 0.3836 0.26238 0.43092 0.0
Mg45 Mg 0.41931 0.2646 0.3995 0.0
C46 C 0.3745 0.27746 0.46257 0.0
C47 C 0.43221 0.38486 0.56355 0.0
O48 O 0.44417 0.40684 0.53602 0.0
O49 O 0.43759 0.25082 0.50534 0.0
O50 O 0.43472 0.21593 0.44723 0.0
O51 O 0.41589 0.39592 0.46211 0.0
O52 O 0.42834 0.33012 0.43197 0.0
C53 C 0.44006 0.21429 0.48312 0.0
C54 C 0.42048 0.37379 0.42997 0.0
O55 O 0.42108 0.34626 0.55529 0.0
Mg56 Mg 0.06407 0.82308 0.00148 0.0
O57 O 0.10403 0.80691 0.00731 0.0
O58 O 0.10893 0.76327 0.0613 0.0
Mg59 Mg 0.07298 0.75643 0.09155 0.0
C60 C 0.11712 0.78354 0.03094 0.0
C61 C 0.08388 0.87836 0.93136 0.0
O62 O 0.09625 0.89752 0.95967 0.0
O63 O 0.05727 0.745 0.98478 0.0
O64 O 0.06121 0.70725 0.04153 0.0
O65 O 0.06841 0.89168 0.03344 0.0
O66 O 0.06039 0.82164 0.06134 0.0
C67 C 0.05669 0.70674 0.00532 0.0
C68 C 0.06532 0.86696 0.06482 0.0
O69 O 0.06927 0.84467 0.93894 0.0
Mg70 Mg 0.92872 0.16086 -0.00448 0.0
O71 O 0.89131 0.19255 0.00224 0.0
O72 O 0.89104 0.23537 0.05714 0.0
Mg73 Mg 0.92689 0.22543 0.08752 0.0
C74 C 0.88083 0.22009 0.02653 0.0
C75 C 0.90613 0.11524 0.92244 0.0
O76 O 0.89207 0.09696 0.94906 0.0
O77 O 0.94331 0.23514 0.98103 0.0
O78 O 0.94508 0.26953 0.0395 0.0
O79 O 0.91752 0.09392 0.02588 0.0
O80 O 0.93246 0.15807 0.05511 0.0
C81 C 0.94917 0.27003 0.00313 0.0
C82 C 0.92323 0.1156 0.05771 0.0
O83 O 0.92225 0.14482 0.93239 0.0
Mg84 Mg 0.07054 0.16251 0.48938 0.0
O85 O 0.10992 0.18451 0.48354 0.0
O86 O 0.113 0.22533 0.42789 0.0
Mg87 Mg 0.07711 0.22539 0.39728 0.0
C88 C 0.12209 0.20855 0.45891 0.0
C89 C 0.06218 0.1093 0.56316 0.0
O90 O 0.04728 0.09053 0.5381 0.0
O91 O 0.06043 0.23988 0.50336 0.0
O92 O 0.06287 0.27526 0.4454 0.0
O93 O 0.07763 0.09302 0.4601 0.0
O94 O 0.06715 0.15999 0.42964 0.0
C95 C 0.05817 0.27677 0.48156 0.0
C96 C 0.07352 0.11523 0.42786 0.0
O97 O 0.07544 0.14394 0.5524 0.0
Mg98 Mg 0.93183 0.82488 0.48427 0.0
O99 O 0.89212 0.80564 0.47724 0.0
O100 O 0.88918 0.76411 0.42191 0.0
Mg101 Mg 0.92555 0.75995 0.3928 0.0
C102 C 0.87988 0.78222 0.45237 0.0
C103 C 0.94035 0.87736 0.55936 0.0
O104 O 0.95677 0.89418 0.53588 0.0
O105 O 0.94022 0.74704 0.49976 0.0
O106 O 0.93801 0.71053 0.44224 0.0
O107 O 0.92669 0.89433 0.45355 0.0
O108 O 0.93582 0.82548 0.42453 0.0
C109 C 0.94212 0.70949 0.47856 0.0
C110 C 0.93033 0.87062 0.42182 0.0
O111 O 0.92625 0.84502 0.54703 0.0
H112 H 0.847 0.16851 0.98809 0.0
H113 H 0.80488 0.18814 0.98136 0.0
H114 H 0.81638 0.32334 0.04096 0.0
H115 H 0.85821 0.30228 0.04979 0.0
H116 H 0.77998 0.28767 0.06872 0.0
H117 H 0.8037 0.31345 0.93895 0.0
H118 H 0.82298 0.2956 0.87647 0.0
H119 H 0.77715 0.17311 0.86078 0.0
H120 H 0.75778 0.18983 0.92343 0.0
H121 H 0.65643 0.33285 0.97252 0.0
H122 H 0.69987 0.33023 0.96562 0.0
H123 H 0.70379 0.22604 0.05815 0.0
H124 H 0.66082 0.22906 0.06573 0.0
H125 H 0.73263 0.26174 0.94964 0.0
H126 H 0.74857 0.2499 0.11601 0.0
H127 H 0.72983 0.2798 0.17601 0.0
H128 H 0.69824 0.39732 0.11329 0.0
H129 H 0.71692 0.36839 0.0531 0.0
C130 C 0.84054 0.2026 -0.00057 0.0
C131 C 0.85582 0.23379 0.01961 0.0
C132 C 0.81647 0.21403 -0.0047 0.0
C133 C 0.80736 0.25763 0.01016 0.0
C134 C 0.82286 0.28942 0.02934 0.0
C135 C 0.84678 0.27741 0.03435 0.0
C136 C 0.78143 0.26837 0.0083 0.0
C137 C 0.76977 0.2823 0.0425 0.0
C138 C 0.76796 0.26275 0.97396 0.0
C139 C 0.77939 0.25274 0.93605 0.0
C140 C 0.79782 0.28254 0.92229 0.0
C141 C 0.80875 0.27264 0.88682 0.0
C142 C 0.80132 0.23319 0.8647 0.0
C143 C 0.78289 0.20365 0.87795 0.0
C144 C 0.7719 0.21337 0.91342 0.0
C145 C 0.66657 0.30919 0.99122 0.0
C146 C 0.65517 0.28167 0.02003 0.0
C147 C 0.69136 0.30767 0.98718 0.0
C148 C 0.70509 0.27862 0.01185 0.0
C149 C 0.69361 0.24954 0.03936 0.0
C150 C 0.66898 0.25129 0.04361 0.0
C151 C 0.73145 0.27943 0.01022 0.0
C152 C 0.74307 0.26764 0.97553 0.0
C153 C 0.74509 0.2889 0.04368 0.0
C154 C 0.73401 0.30673 0.08 0.0
C155 C 0.7377 0.28222 0.11508 0.0
C156 C 0.72705 0.29896 0.14912 0.0
C157 C 0.71278 0.34034 0.14847 0.0
C158 C 0.70918 0.36514 0.11379 0.0
C159 C 0.71977 0.34854 0.07969 0.0
H160 H 0.70455 0.35324 0.17485 0.0
H161 H 0.80983 0.22556 0.83727 0.0
H162 H 0.15032 0.85458 0.02608 0.0
H163 H 0.19331 0.84437 0.01779 0.0
H164 H 0.1835 0.69007 0.00614 0.0
H165 H 0.14084 0.70032 0.01759 0.0
H166 H 0.21786 0.70094 0.04876 0.0
H167 H 0.19941 0.7725 0.92747 0.0
H168 H 0.18222 0.83195 0.88236 0.0
H169 H 0.2259 0.94354 0.93114 0.0
H170 H 0.24313 0.8849 0.97693 0.0
H171 H 0.3387 0.66525 0.98861 0.0
H172 H 0.29579 0.67636 0.97913 0.0
H173 H 0.29866 0.81082 0.04197 0.0
H174 H 0.34134 0.79944 0.05247 0.0
H175 H 0.26871 0.80638 0.96726 0.0
H176 H 0.28309 0.72865 0.09288 0.0
H177 H 0.30058 0.66423 0.13312 0.0
H178 H 0.26385 0.55672 0.06652 0.0
H179 H 0.24643 0.62057 0.02552 0.0
C180 C 0.15749 0.81866 0.02144 0.0
C181 C 0.14254 0.77818 0.02242 0.0
C182 C 0.182 0.81277 0.01634 0.0
C183 C 0.19181 0.76643 0.01064 0.0
C184 C 0.17654 0.72618 0.01059 0.0
C185 C 0.15218 0.73197 0.01695 0.0
C186 C 0.21803 0.75944 0.00735 0.0
C187 C 0.22876 0.72354 0.03023 0.0
C188 C 0.2326 0.78898 0.98355 0.0
C189 C 0.22243 0.82434 0.95586 0.0
C190 C 0.20525 0.80978 0.92875 0.0
C191 C 0.19551 0.84333 0.90303 0.0
C192 C 0.20292 0.89151 0.90394 0.0
C193 C 0.22016 0.90621 0.93049 0.0
C194 C 0.22994 0.87282 0.9563 0.0
C195 C 0.33023 0.6975 -0.0001 0.0
C196 C 0.34329 0.7313 0.02154 0.0
C197 C 0.30578 0.70378 -0.00556 0.0
C198 C 0.29419 0.74441 0.00984 0.0
C199 C 0.30739 0.77938 0.02973 0.0
C200 C 0.33169 0.77263 0.03592 0.0
C201 C 0.26799 0.74833 0.00855 0.0
C202 C 0.25746 0.78363 0.9851 0.0
C203 C 0.25348 0.7175 0.03093 0.0
C204 C 0.2637 0.67928 0.0559 0.0
C205 C 0.27892 0.69124 0.08662 0.0
C206 C 0.28878 0.65485 0.1096 0.0
C207 C 0.28339 0.60639 0.10231 0.0
C208 C 0.26805 0.59425 0.0721 0.0
C209 C 0.25817 0.63052 0.049 0.0
H210 H 0.29104 0.57827 0.12012 0.0
H211 H 0.19535 0.91743 0.88402 0.0
H212 H 0.85107 0.71512 0.41902 0.0
H213 H 0.8081 0.70737 0.42512 0.0
H214 H 0.80669 0.82765 0.50453 0.0
H215 H 0.85007 0.83472 0.49947 0.0
H216 H 0.7754 0.76086 0.52668 0.0
H217 H 0.79271 0.84394 0.40931 0.0
H218 H 0.81239 0.85786 0.34652 0.0
H219 H 0.78197 0.72691 0.302 0.0
H220 H 0.76237 0.71184 0.36474 0.0
H221 H 0.65263 0.79488 0.4198 0.0
H222 H 0.69503 0.81007 0.42724 0.0
H223 H 0.70118 0.68406 0.50017 0.0
H224 H 0.65836 0.66988 0.4941 0.0
H225 H 0.73007 0.7617 0.4038 0.0
H226 H 0.74889 0.69327 0.55971 0.0
H227 H 0.72875 0.68981 0.62308 0.0
H228 H 0.6853 0.81127 0.59173 0.0
H229 H 0.70538 0.81586 0.5284 0.0
C230 C 0.84169 0.73985 0.43796 0.0
C231 C 0.85397 0.77599 0.45836 0.0
C232 C 0.81708 0.73538 0.44139 0.0
C233 C 0.80409 0.76759 0.46462 0.0
C234 C 0.81635 0.80253 0.48629 0.0
C235 C 0.84112 0.80662 0.48328 0.0
C236 C 0.77768 0.76589 0.46465 0.0
C237 C 0.76544 0.76112 0.49987 0.0
C238 C 0.76461 0.7675 0.42973 0.0
C239 C 0.77623 0.77658 0.39183 0.0
C240 C 0.79034 0.81796 0.38621 0.0
C241 C 0.80147 0.82607 0.35062 0.0
C242 C 0.79847 0.79324 0.32032 0.0
C243 C 0.78429 0.75228 0.32552 0.0
C244 C 0.77315 0.74396 0.36107 0.0
C245 C 0.66296 0.77059 0.43771 0.0
C246 C 0.65216 0.73104 0.45624 0.0
C247 C 0.68724 0.77932 0.44193 0.0
C248 C 0.7014 0.74839 0.46438 0.0
C249 C 0.69062 0.70906 0.48329 0.0
C250 C 0.66616 0.70079 0.47963 0.0
C251 C 0.7276 0.75589 0.46585 0.0
C252 C 0.73989 0.76162 0.43077 0.0
C253 C 0.74052 0.75673 0.50098 0.0
C254 C 0.7285 0.75457 0.53916 0.0
C255 C 0.7351 0.71935 0.5664 0.0
C256 C 0.72368 0.71717 0.60231 0.0
C257 C 0.7057 0.75019 0.61138 0.0
C258 C 0.69916 0.78558 0.58461 0.0
C259 C 0.71054 0.78795 0.54869 0.0
H260 H 0.69688 0.74842 0.63918 0.0
H261 H 0.8071 0.79958 0.29279 0.0
H262 H 0.15335 0.15352 0.50083 0.0
H263 H 0.1962 0.16645 0.50814 0.0
H264 H 0.19078 0.2985 0.44217 0.0
H265 H 0.14839 0.28439 0.43324 0.0
H266 H 0.22557 0.25253 0.41647 0.0
H267 H 0.20084 0.29418 0.54428 0.0
H268 H 0.18074 0.28309 0.60709 0.0
H269 H 0.22414 0.15872 0.63032 0.0
H270 H 0.2443 0.1687 0.5674 0.0
H271 H 0.34445 0.32278 0.51383 0.0
H272 H 0.30138 0.3113 0.52019 0.0
H273 H 0.30412 0.19733 0.43515 0.0
H274 H 0.3468 0.20935 0.4279 0.0
H275 H 0.27082 0.23995 0.53902 0.0
H276 H 0.25804 0.20793 0.37402 0.0
H277 H 0.27771 0.23026 0.31273 0.0
H278 H 0.30778 0.35574 0.36695 0.0
H279 H 0.28783 0.33494 0.42804 0.0
C280 C 0.16133 0.18545 0.48818 0.0
C281 C 0.14759 0.21774 0.46621 0.0
C282 C 0.18581 0.19301 0.49256 0.0
C283 C 0.19681 0.23368 0.47593 0.0
C284 C 0.18284 0.26665 0.45505 0.0
C285 C 0.15857 0.25858 0.44998 0.0
C286 C 0.22304 0.24064 0.47796 0.0
C287 C 0.23535 0.24982 0.44338 0.0
C288 C 0.23595 0.23798 0.51306 0.0
C289 C 0.22392 0.23194 0.55096 0.0
C290 C 0.20598 0.26426 0.56266 0.0
C291 C 0.1946 0.25821 0.5983 0.0
C292 C 0.20112 0.22016 0.62264 0.0
C293 C 0.21909 0.18815 0.61142 0.0
C294 C 0.23052 0.19402 0.57579 0.0
C295 C 0.33589 0.29496 0.49679 0.0
C296 C 0.34899 0.26756 0.46987 0.0
C297 C 0.3113 0.28832 0.50057 0.0
C298 C 0.29947 0.25404 0.47765 0.0
C299 C 0.31278 0.22467 0.45256 0.0
C300 C 0.33721 0.23165 0.44843 0.0
C301 C 0.27309 0.2512 0.47754 0.0
C302 C 0.26086 0.24268 0.51229 0.0
C303 C 0.26005 0.25611 0.44281 0.0
C304 C 0.27164 0.26953 0.40573 0.0
C305 C 0.26872 0.24046 0.37274 0.0
C306 C 0.27991 0.2529 0.338 0.0
C307 C 0.29401 0.29439 0.33589 0.0
C308 C 0.29686 0.32366 0.36848 0.0
C309 C 0.28561 0.31156 0.40318 0.0
H310 H 0.3027 0.30388 0.309 0.0
H311 H 0.19228 0.21553 0.65022 0.0
H312 H 0.59048 0.46392 0.07203 0.0
H313 H 0.59153 0.50672 0.13357 0.0
H314 H 0.57243 0.3754 0.19332 0.0
H315 H 0.57073 0.33242 0.13154 0.0
H316 H 0.54644 0.44928 0.21845 0.0
H317 H 0.629 0.41952 0.19856 0.0
H318 H 0.66697 0.41818 0.16297 0.0
H319 H 0.6653 0.57293 0.15331 0.0
H320 H 0.62713 0.57513 0.18863 0.0
H321 H 0.57953 0.52931 0.40745 0.0
H322 H 0.57961 0.48639 0.34571 0.0
H323 H 0.581 0.62238 0.28487 0.0
H324 H 0.58032 0.66585 0.34665 0.0
H325 H 0.6157 0.54688 0.2606 0.0
H326 H 0.53302 0.57209 0.28924 0.0
H327 H 0.49591 0.5673 0.32685 0.0
H328 H 0.49882 0.41233 0.32312 0.0
H329 H 0.53641 0.41607 0.28645 0.0
C330 C 0.58668 0.44395 0.09826 0.0
C331 C 0.58062 0.39469 0.09695 0.0
C332 C 0.58738 0.46848 0.13344 0.0
C333 C 0.58229 0.44413 0.16804 0.0
C334 C 0.57644 0.39482 0.16691 0.0
C335 C 0.57563 0.37025 0.13163 0.0
C336 C 0.58236 0.47068 0.2052 0.0
C337 C 0.56171 0.46996 0.22804 0.0
C338 C 0.60214 0.49847 0.21714 0.0
C339 C 0.62509 0.49744 0.19591 0.0
C340 C 0.63663 0.45324 0.18858 0.0
C341 C 0.65822 0.45233 0.16851 0.0
C342 C 0.66852 0.49543 0.15574 0.0
C343 C 0.65728 0.53956 0.16317 0.0
C344 C 0.63569 0.54067 0.18328 0.0
C345 C 0.57996 0.55017 0.38096 0.0
C346 C 0.57993 0.601 0.38186 0.0
C347 C 0.5799 0.52556 0.34579 0.0
C348 C 0.58014 0.55135 0.31097 0.0
C349 C 0.58073 0.60204 0.31163 0.0
C350 C 0.58032 0.62676 0.34687 0.0
C351 C 0.57987 0.5251 0.27389 0.0
C352 C 0.60047 0.52603 0.25103 0.0
C353 C 0.56021 0.49663 0.26246 0.0
C354 C 0.53783 0.49441 0.28545 0.0
C355 C 0.52607 0.53694 0.29704 0.0
C356 C 0.50487 0.53441 0.31813 0.0
C357 C 0.49505 0.48955 0.3275 0.0
C358 C 0.50647 0.44708 0.31591 0.0
C359 C 0.52775 0.4494 0.29501 0.0
H360 H 0.47855 0.48767 0.34359 0.0
H361 H 0.68523 0.49464 0.14018 0.0
H362 H 0.42916 0.66087 0.1401 0.0
H363 H 0.42797 0.61761 0.2018 0.0
H364 H 0.39116 0.49919 0.14722 0.0
H365 H 0.39231 0.54206 0.08541 0.0
H366 H 0.37264 0.52274 0.21965 0.0
H367 H 0.44879 0.4831 0.16175 0.0
H368 H 0.48737 0.50198 0.13112 0.0
H369 H 0.50677 0.58875 0.22899 0.0
H370 H 0.46834 0.57 0.26034 0.0
H371 H 0.43646 0.3444 0.35926 0.0
H372 H 0.43287 0.38735 0.29773 0.0
H373 H 0.39329 0.50085 0.3543 0.0
H374 H 0.39688 0.45823 0.41601 0.0
H375 H 0.44964 0.47776 0.27966 0.0
H376 H 0.35191 0.54296 0.28797 0.0
H377 H 0.31324 0.51638 0.31421 0.0
H378 H 0.33635 0.36848 0.3096 0.0
H379 H 0.37499 0.39412 0.28302 0.0
C380 C 0.42051 0.62593 0.14135 0.0
C381 C 0.41092 0.60471 0.10792 0.0
C382 C 0.41997 0.60119 0.17653 0.0
C383 C 0.40972 0.55506 0.17883 0.0
C384 C 0.3992 0.53474 0.14592 0.0
C385 C 0.39991 0.55924 0.11067 0.0
C386 C 0.41077 0.52711 0.21517 0.0
C387 C 0.38944 0.5131 0.23296 0.0
C388 C 0.4327 0.51386 0.23199 0.0
C389 C 0.45574 0.52531 0.21328 0.0
C390 C 0.46129 0.50628 0.17668 0.0
C391 C 0.48315 0.51679 0.15928 0.0
C392 C 0.49956 0.54636 0.17821 0.0
C393 C 0.49412 0.56553 0.21454 0.0
C394 C 0.47235 0.55485 0.23219 0.0
C395 C 0.42677 0.37823 0.35853 0.0
C396 C 0.4169 0.39793 0.39241 0.0
C397 C 0.42485 0.40282 0.32343 0.0
C398 C 0.41275 0.44711 0.32153 0.0
C399 C 0.40253 0.46648 0.35516 0.0
C400 C 0.40464 0.44215 0.39036 0.0
C401 C 0.41147 0.47378 0.28455 0.0
C402 C 0.43279 0.4877 0.26665 0.0
C403 C 0.3895 0.4863 0.26738 0.0
C404 C 0.36643 0.47055 0.28392 0.0
C405 C 0.34872 0.50477 0.29258 0.0
C406 C 0.3268 0.48987 0.30751 0.0
C407 C 0.32234 0.44079 0.31368 0.0
C408 C 0.33982 0.40651 0.30501 0.0
C409 C 0.36177 0.42122 0.2901 0.0
H410 H 0.3053 0.42937 0.32504 0.0
H411 H 0.51647 0.55448 0.1647 0.0
H412 H 0.4054 0.63916 0.87192 0.0
H413 H 0.4052 0.59859 0.80886 0.0
H414 H 0.45132 0.48748 0.85383 0.0
H415 H 0.45191 0.5278 0.91643 0.0
H416 H 0.46642 0.52057 0.78416 0.0
H417 H 0.39353 0.46479 0.84221 0.0
H418 H 0.35435 0.47451 0.87339 0.0
H419 H 0.32867 0.55125 0.77398 0.0
H420 H 0.36783 0.54256 0.74241 0.0
H421 H 0.4124 0.34606 0.62918 0.0
H422 H 0.41193 0.38155 0.69417 0.0
H423 H 0.44951 0.50645 0.65115 0.0
H424 H 0.45058 0.47098 0.58679 0.0
H425 H 0.39248 0.4631 0.72122 0.0
H426 H 0.48399 0.55078 0.71078 0.0
H427 H 0.52323 0.53534 0.6812 0.0
H428 H 0.51263 0.38241 0.69334 0.0
H429 H 0.47284 0.39697 0.72142 0.0
C430 C 0.41552 0.60613 0.86831 0.0
C431 C 0.42869 0.58672 0.89914 0.0
C432 C 0.41531 0.58293 0.83237 0.0
C433 C 0.42818 0.53997 0.82683 0.0
C434 C 0.44134 0.52068 0.85752 0.0
C435 C 0.44159 0.54377 0.89332 0.0
C436 C 0.42834 0.51514 0.78897 0.0
C437 C 0.45027 0.50781 0.77054 0.0
C438 C 0.40726 0.49835 0.77127 0.0
C439 C 0.38368 0.50343 0.79012 0.0
C440 C 0.37959 0.48408 0.82713 0.0
C441 C 0.35737 0.48934 0.84485 0.0
C442 C 0.33905 0.51359 0.82572 0.0
C443 C 0.34289 0.53253 0.78878 0.0
C444 C 0.36508 0.52741 0.77095 0.0
C445 C 0.42066 0.38096 0.63369 0.0
C446 C 0.43165 0.40558 0.60292 0.0
C447 C 0.42035 0.40121 0.67076 0.0
C448 C 0.43102 0.44629 0.6776 0.0
C449 C 0.44168 0.47112 0.64677 0.0
C450 C 0.44214 0.45085 0.6099 0.0
C451 C 0.43063 0.46817 0.71668 0.0
C452 C 0.40866 0.4754 0.73513 0.0
C453 C 0.45171 0.484 0.73494 0.0
C454 C 0.47551 0.47496 0.71807 0.0
C455 C 0.49007 0.51389 0.70714 0.0
C456 C 0.51236 0.50529 0.69056 0.0
C457 C 0.52056 0.45795 0.68584 0.0
C458 C 0.50628 0.41906 0.69708 0.0
C459 C 0.48376 0.42744 0.71295 0.0
H460 H 0.53792 0.45139 0.67337 0.0
H461 H 0.32186 0.51762 0.83948 0.0
H462 H 0.57826 0.48412 0.90895 0.0
H463 H 0.58089 0.52082 0.84516 0.0
H464 H 0.57942 0.37932 0.79252 0.0
H465 H 0.57778 0.34209 0.85688 0.0
H466 H 0.60981 0.43363 0.75583 0.0
H467 H 0.52933 0.45339 0.79432 0.0
H468 H 0.49616 0.47511 0.83766 0.0
H469 H 0.51825 0.62365 0.83592 0.0
H470 H 0.55194 0.6026 0.79331 0.0
H471 H 0.57128 0.5136 0.57139 0.0
H472 H 0.5748 0.47748 0.63536 0.0
H473 H 0.58941 0.61774 0.68434 0.0
H474 H 0.58613 0.65443 0.61996 0.0
H475 H 0.55383 0.56603 0.72299 0.0
H476 H 0.63337 0.54014 0.67787 0.0
H477 H 0.66419 0.51325 0.63184 0.0
H478 H 0.63859 0.3674 0.64 0.0
H479 H 0.60738 0.39354 0.68567 0.0
C480 C 0.57853 0.46075 0.88381 0.0
C481 C 0.57759 0.41027 0.8878 0.0
C482 C 0.57993 0.4818 0.84734 0.0
C483 C 0.57977 0.4529 0.81401 0.0
C484 C 0.57943 0.40233 0.81788 0.0
C485 C 0.57846 0.38111 0.85457 0.0
C486 C 0.57987 0.47586 0.7753 0.0
C487 C 0.59724 0.46185 0.74834 0.0
C488 C 0.56373 0.51332 0.76573 0.0
C489 C 0.54337 0.52628 0.79108 0.0
C490 C 0.52727 0.4906 0.80352 0.0
C491 C 0.50839 0.50279 0.82798 0.0
C492 C 0.50518 0.5507 0.8397 0.0
C493 C 0.52081 0.58653 0.8269 0.0
C494 C 0.53982 0.57448 0.80264 0.0
C495 C 0.57537 0.53684 0.59569 0.0
C496 C 0.57839 0.58689 0.59071 0.0
C497 C 0.57749 0.51605 0.63218 0.0
C498 C 0.58254 0.54493 0.66441 0.0
C499 C 0.58562 0.59492 0.65966 0.0
C500 C 0.58377 0.61575 0.62296 0.0
C501 C 0.58329 0.5229 0.70326 0.0
C502 C 0.56619 0.53737 0.73036 0.0
C503 C 0.59907 0.48475 0.71228 0.0
C504 C 0.61791 0.46889 0.68497 0.0
C505 C 0.63419 0.5024 0.66962 0.0
C506 C 0.65175 0.48728 0.64363 0.0
C507 C 0.65332 0.43866 0.63294 0.0
C508 C 0.63735 0.40505 0.64829 0.0
C509 C 0.61973 0.41999 0.67426 0.0
H510 H 0.66693 0.42703 0.61282 0.0
H511 H 0.49055 0.56014 0.85861 0.0
H512 H 0.07383 0.96194 0.07975 0.0
H513 H 0.07707 0.00114 0.14255 0.0
H514 H 0.06642 0.86388 0.19928 0.0
H515 H 0.06224 0.82457 0.13635 0.0
H516 H 0.04122 0.9304 0.2341 0.0
H517 H 0.12193 0.91745 0.19428 0.0
H518 H 0.15645 0.92493 0.15064 0.0
H519 H 0.14832 0.07928 0.14964 0.0
H520 H 0.11351 0.07269 0.19283 0.0
H521 H 0.08023 0.01878 0.41693 0.0
H522 H 0.08064 0.97473 0.3557 0.0
H523 H 0.0719 0.10859 0.29352 0.0
H524 H 0.07105 0.15308 0.35471 0.0
H525 H 0.10855 0.04016 0.26403 0.0
H526 H 0.02391 0.04763 0.29822 0.0
H527 H 0.9909 0.03736 0.3447 0.0
H528 H 0.01005 0.88837 0.36032 0.0
H529 H 0.04312 0.89779 0.31381 0.0
C530 C 0.07228 0.93996 0.10555 0.0
C531 C 0.06802 0.89002 0.10305 0.0
C532 C 0.07426 0.96243 0.14147 0.0
C533 C 0.07243 0.93531 0.17563 0.0
C534 C 0.06803 0.88545 0.17327 0.0
C535 C 0.06579 0.86298 0.13727 0.0
C536 C 0.07459 0.95945 0.2137 0.0
C537 C 0.05615 0.95377 0.24076 0.0
C538 C 0.09396 0.99033 0.22241 0.0
C539 C 0.11497 0.99453 0.19655 0.0
C540 C 0.12739 0.95297 0.18453 0.0
C541 C 0.14703 0.95705 0.15991 0.0
C542 C 0.15454 0.00254 0.14731 0.0
C543 C 0.14246 0.04406 0.1594 0.0
C544 C 0.12279 0.04018 0.18398 0.0
C545 C 0.0786 0.03899 0.39025 0.0
C546 C 0.07561 0.08947 0.39065 0.0
C547 C 0.07877 0.01372 0.35537 0.0
C548 C 0.07618 0.03853 0.32034 0.0
C549 C 0.07393 0.08899 0.32043 0.0
C550 C 0.07345 0.1143 0.35538 0.0
C551 C 0.07511 0.01148 0.28366 0.0
C552 C 0.09375 0.01657 0.2571 0.0
C553 C 0.05619 0.97952 0.27563 0.0
C554 C 0.036 0.97347 0.30278 0.0
C555 C 0.02108 0.01272 0.31165 0.0
C556 C 0.00236 0.00705 0.33794 0.0
C557 C 0.99847 0.9623 0.35559 0.0
C558 C 0.01316 0.92305 0.34675 0.0
C559 C 0.03181 0.92848 0.3203 0.0
H560 H 0.98407 0.95801 0.37608 0.0
H561 H 0.16975 0.00563 0.12825 0.0
H562 H 0.91775 0.83028 0.35256 0.0
H563 H 0.91369 0.87118 0.29042 0.0
H564 H 0.93432 0.00602 0.3436 0.0
H565 H 0.9371 0.96558 0.40617 0.0
H566 H 0.89968 0.02256 0.29821 0.0
H567 H 0.97344 0.93393 0.28271 0.0
H568 H 0.99927 0.86156 0.28192 0.0
H569 H 0.95442 0.79556 0.19681 0.0
H570 H 0.92823 0.86716 0.19729 0.0
H571 H 0.93494 0.1506 0.12907 0.0
H572 H 0.9323 0.1084 0.19087 0.0
H573 H 0.90136 0.98487 0.13387 0.0
H574 H 0.90394 0.02684 0.0718 0.0
H575 H 0.93899 0.96074 0.1796 0.0
H576 H 0.86755 0.0543 0.19135 0.0
H577 H 0.84341 0.12873 0.19053 0.0
H578 H 0.88561 0.18808 0.28228 0.0
H579 H 0.91024 0.11427 0.28328 0.0
C580 C 0.9215 0.86853 0.35094 0.0
C581 C 0.92787 0.89471 0.38409 0.0
C582 C 0.9193 0.89191 0.31535 0.0
C583 C 0.92414 0.94158 0.31209 0.0
C584 C 0.93044 0.96771 0.34532 0.0
C585 C 0.93206 0.94459 0.38105 0.0
C586 C 0.92213 0.96671 0.27434 0.0
C587 C 0.90855 0.00931 0.27242 0.0
C588 C 0.93313 0.94884 0.24034 0.0
C589 C 0.94875 0.90563 0.24039 0.0
C590 C 0.969 0.90378 0.26411 0.0
C591 C 0.98372 0.86301 0.26365 0.0
C592 C 0.97844 0.82403 0.23947 0.0
C593 C 0.95846 0.82575 0.21559 0.0
C594 C 0.94369 0.86641 0.2159 0.0
C595 C 0.9272 0.1148 0.12971 0.0
C596 C 0.91962 0.09207 0.09554 0.0
C597 C 0.92567 0.09076 0.16508 0.0
C598 C 0.91651 0.04366 0.1669 0.0
C599 C 0.90846 0.02126 0.133 0.0
C600 C 0.90991 0.04533 0.09761 0.0
C601 C 0.91684 0.01666 0.20376 0.0
C602 C 0.93009 0.97377 0.20545 0.0
C603 C 0.90575 0.03453 0.23756 0.0
C604 C 0.89087 0.07888 0.23716 0.0
C605 C 0.8718 0.08337 0.21115 0.0
C606 C 0.85801 0.12542 0.21069 0.0
C607 C 0.863 0.16315 0.23628 0.0
C608 C 0.88177 0.15884 0.26245 0.0
C609 C 0.89564 0.11688 0.26301 0.0
H610 H 0.8523 0.19568 0.23587 0.0
H611 H 0.98987 0.79254 0.23917 0.0
H612 H 0.96556 0.95125 0.59153 0.0
H613 H 0.95878 0.99013 0.65383 0.0
H614 H 0.9018 0.89008 0.67794 0.0
H615 H 0.90817 0.85148 0.61512 0.0
H616 H 0.8882 0.97946 0.69291 0.0
H617 H 0.95591 0.88289 0.72389 0.0
H618 H 0.99651 0.84967 0.71924 0.0
H619 H 0.02568 0.99155 0.73482 0.0
H620 H 0.98533 0.026 0.7386 0.0
H621 H 0.87848 0.0424 0.89354 0.0
H622 H 0.88263 0.00274 0.83071 0.0
H623 H 0.93739 0.10437 0.79873 0.0
H624 H 0.93357 0.14393 0.86149 0.0
H625 H 0.95152 0.01181 0.78901 0.0
H626 H 0.88334 0.10816 0.7563 0.0
H627 H 0.84268 0.13981 0.76497 0.0
H628 H 0.81448 0.99608 0.75565 0.0
H629 H 0.85502 0.96345 0.74749 0.0
C630 C 0.95171 0.93718 0.61019 0.0
C631 C 0.93735 0.89835 0.59834 0.0
C632 C 0.94794 0.95933 0.64591 0.0
C633 C 0.92991 0.94275 0.67068 0.0
C634 C 0.91581 0.90344 0.65924 0.0
C635 C 0.91951 0.88135 0.6234 0.0
C636 C 0.92503 0.96808 0.70758 0.0
C637 C 0.90197 0.98588 0.71421 0.0
C638 C 0.94315 0.97742 0.73492 0.0
C639 C 0.96751 0.9571 0.73111 0.0
C640 C 0.97097 0.90717 0.72573 0.0
C641 C 0.99396 0.88812 0.72332 0.0
C642 C 0.01366 0.91857 0.72658 0.0
C643 C 0.01042 0.96813 0.7321 0.0
C644 C 0.98749 0.98743 0.73436 0.0
C645 C 0.89111 0.05686 0.87288 0.0
C646 C 0.90586 0.09602 0.88261 0.0
C647 C 0.89342 0.03419 0.83697 0.0
C648 C 0.91036 0.0506 0.81017 0.0
C649 C 0.92431 0.09105 0.81914 0.0
C650 C 0.92204 0.11367 0.85498 0.0
C651 C 0.91484 0.02354 0.77401 0.0
C652 C 0.9378 0.00535 0.76762 0.0
C653 C 0.89666 0.01372 0.74701 0.0
C654 C 0.87225 0.03331 0.75166 0.0
C655 C 0.86849 0.08325 0.75641 0.0
C656 C 0.84545 0.10137 0.76118 0.0
C657 C 0.82601 0.06996 0.76096 0.0
C658 C 0.82956 0.02036 0.75586 0.0
C659 C 0.85256 0.00204 0.75113 0.0
H660 H 0.8082 0.08407 0.76467 0.0
H661 H 0.03143 0.90377 0.72504 0.0
H662 H 0.05991 0.84872 0.86691 0.0
H663 H 0.05901 0.88815 0.80374 0.0
H664 H 0.10936 0.99446 0.84378 0.0
H665 H 0.11027 0.95551 0.90718 0.0
H666 H 0.07101 0.03567 0.80947 0.0
H667 H 0.12628 0.91022 0.78186 0.0
H668 H 0.14177 0.82698 0.77878 0.0
H669 H 0.08528 0.787 0.70188 0.0
H670 H 0.06926 0.86982 0.70483 0.0
H671 H 0.09087 0.13941 0.62229 0.0
H672 H 0.09618 0.10065 0.68532 0.0
H673 H 0.04429 0.99247 0.65481 0.0
H674 H 0.03888 0.03074 0.59186 0.0
H675 H 0.08578 0.95351 0.68419 0.0
H676 H 0.02944 0.07841 0.71569 0.0
H677 H 0.01408 0.16166 0.7197 0.0
H678 H 0.07399 0.2031 0.78889 0.0
H679 H 0.08989 0.12008 0.78494 0.0
C680 C 0.07101 0.88016 0.86217 0.0
C681 C 0.08509 0.89913 0.89209 0.0
C682 C 0.07051 0.90254 0.82603 0.0
C683 C 0.08417 0.94409 0.81915 0.0
C684 C 0.09866 0.96246 0.84863 0.0
C685 C 0.09921 0.94004 0.88476 0.0
C686 C 0.08237 0.96974 0.7818 0.0
C687 C 0.07467 0.018 0.78208 0.0
C688 C 0.08664 0.94617 0.74616 0.0
C689 C 0.09628 0.89619 0.74415 0.0
C690 C 0.11697 0.88358 0.76465 0.0
C691 C 0.1259 0.83646 0.76283 0.0
C692 C 0.11445 0.80165 0.74031 0.0
C693 C 0.09408 0.81395 0.71944 0.0
C694 C 0.08506 0.86101 0.72119 0.0
C695 C 0.08048 0.10756 0.62911 0.0
C696 C 0.06451 0.08804 0.60209 0.0
C697 C 0.08352 0.08555 0.6651 0.0
C698 C 0.07063 0.04377 0.67455 0.0
C699 C 0.05447 0.02459 0.64787 0.0
C700 C 0.05135 0.04664 0.612 0.0
C701 C 0.07434 0.01924 0.71194 0.0
C702 C 0.08234 0.97119 0.71164 0.0
C703 C 0.07046 0.04305 0.74756 0.0
C704 C 0.061 0.09308 0.74967 0.0
C705 C 0.03947 0.1053 0.73149 0.0
C706 C 0.03063 0.15246 0.73381 0.0
C707 C 0.04309 0.18769 0.75444 0.0
C708 C 0.06439 0.17579 0.77286 0.0
C709 C 0.07331 0.12868 0.77062 0.0
H710 H 0.03621 0.22418 0.75622 0.0
H711 H 0.1214 0.7652 0.73892 0.0
H712 H 0.4668 0.7901 0.95257 0.0
H713 H 0.49203 0.85965 0.93649 0.0
H714 H 0.45475 0.94584 0.02109 0.0
H715 H 0.42999 0.87663 0.03788 0.0
H716 H 0.48791 0.95661 0.91395 0.0
H717 H 0.49441 -0.00141 0.07801 0.0
H718 H 0.49139 0.95507 0.14009 0.0
H719 H 0.51198 0.82288 0.08411 0.0
H720 H 0.51548 0.86574 0.02187 0.0
H721 H 0.53015 0.19296 0.95525 0.0
H722 H 0.51121 0.11524 0.9419 0.0
H723 H 0.56808 0.04187 0.00177 0.0
H724 H 0.58608 0.11984 0.01729 0.0
H725 H 0.53041 0.01421 0.03075 0.0
H726 H 0.55525 0.02689 0.90034 0.0
H727 H 0.56158 0.06453 0.83655 0.0
H728 H 0.48613 0.07793 0.82126 0.0
H729 H 0.47932 0.04098 0.88521 0.0
C730 C 0.46364 0.82423 0.96707 0.0
C731 C 0.44676 0.82774 -0.00297 0.0
C732 C 0.47802 0.8639 0.95778 0.0
C733 C 0.47554 0.90748 0.97818 0.0
C734 C 0.45722 0.9122 0.00551 0.0
C735 C 0.44311 0.8726 0.01512 0.0
C736 C 0.49366 0.94606 0.97485 0.0
C737 C 0.49735 0.96933 0.9393 0.0
C738 C 0.5066 0.9612 0.00768 0.0
C739 C 0.50501 0.93534 0.04522 0.0
C740 C 0.49842 0.9603 0.079 0.0
C741 C 0.4966 0.93573 0.11421 0.0
C742 C 0.50142 0.88622 0.11602 0.0
C743 C 0.50817 0.8612 0.08265 0.0
C744 C 0.51006 0.88561 0.0474 0.0
C745 C 0.53887 0.16007 0.96462 0.0
C746 C 0.55938 0.16216 0.98758 0.0
C747 C 0.52812 0.11555 0.95678 0.0
C748 C 0.53816 0.07241 0.97081 0.0
C749 C 0.55983 0.07455 0.99094 0.0
C750 C 0.57015 0.11904 -0.00027 0.0
C751 C 0.52443 0.02646 0.96989 0.0
C752 C 0.52143 0.00157 0.00494 0.0
C753 C 0.51282 0.00917 0.93626 0.0
C754 C 0.51679 0.03141 0.89774 0.0
C755 C 0.54 0.03818 0.88351 0.0
C756 C 0.54368 0.05934 0.84729 0.0
C757 C 0.52427 0.07369 0.8249 0.0
C758 C 0.50114 0.0668 0.83865 0.0
C759 C 0.49737 0.04567 0.87486 0.0
H760 H 0.52716 0.09007 0.79687 0.0
H761 H 0.49997 0.86726 0.14329 0.0
H762 H 0.56382 0.87648 0.44609 0.0
H763 H 0.54429 0.94894 0.47039 0.0
H764 H 0.51908 0.86986 0.56981 0.0
H765 H 0.53871 0.79662 0.54555 0.0
H766 H 0.48347 0.91722 0.53341 0.0
H767 H 0.55796 0.95896 0.58468 0.0
H768 H 0.60147 0.96928 0.58678 0.0
H769 H 0.59763 0.07419 0.49555 0.0
H770 H 0.55415 0.06401 0.49245 0.0
H771 H 0.4637 0.20041 0.5517 0.0
H772 H 0.48362 0.12635 0.57351 0.0
H773 H 0.45952 0.05231 0.47106 0.0
H774 H 0.43961 0.1254 0.4493 0.0
H775 H 0.51962 0.08073 0.53712 0.0
H776 H 0.44988 0.93659 0.48777 0.0
H777 H 0.40635 0.9263 0.48842 0.0
H778 H 0.40061 0.02558 0.58342 0.0
H779 H 0.44413 0.03595 0.58378 0.0
C780 C 0.55442 0.87452 0.47341 0.0
C781 C 0.55267 0.83068 0.49374 0.0
C782 C 0.54342 0.91614 0.48745 0.0
C783 C 0.5304 0.91489 0.52208 0.0
C784 C 0.52917 0.87159 0.54314 0.0
C785 C 0.54041 0.82987 0.52926 0.0
C786 C 0.51617 0.95768 0.53347 0.0
C787 C 0.49135 0.95295 0.53488 0.0
C788 C 0.52653 0.00409 0.5366 0.0
C789 C 0.55273 0.01061 0.5383 0.0
C790 C 0.56639 0.98403 0.56489 0.0
C791 C 0.59106 0.98988 0.56628 0.0
C792 C 0.60231 0.02236 0.54131 0.0
C793 C 0.5889 0.04909 0.51492 0.0
C794 C 0.56422 0.04336 0.51339 0.0
C795 C 0.46233 0.16808 0.53417 0.0
C796 C 0.45019 0.16888 0.49863 0.0
C797 C 0.47374 0.12589 0.54665 0.0
C798 C 0.47285 0.08373 0.52411 0.0
C799 C 0.46011 0.08414 0.48929 0.0
C800 C 0.44889 0.12618 0.47671 0.0
C801 C 0.48694 0.04035 0.5344 0.0
C802 C 0.51173 0.04496 0.53696 0.0
C803 C 0.47654 0.9938 0.53542 0.0
C804 C 0.45033 0.98714 0.53572 0.0
C805 C 0.43937 0.95595 0.50902 0.0
C806 C 0.41468 0.95018 0.50915 0.0
C807 C 0.40072 0.97531 0.53591 0.0
C808 C 0.41143 0.00621 0.56265 0.0
C809 C 0.43612 0.0121 0.56266 0.0
H810 H 0.38161 0.97081 0.53594 0.0
H811 H 0.62141 0.02683 0.54243 0.0
H812 H 0.03626 0.69177 0.9342 0.0
H813 H 0.02131 0.61509 0.90821 0.0
H814 H 0.0467 0.54086 0.00977 0.0
H815 H 0.06174 0.61657 0.03563 0.0
H816 H 0.05351 0.48697 0.94447 0.0
H817 H 0.98983 0.58384 0.00512 0.0
H818 H 0.96437 0.65635 0.00941 0.0
H819 H 0.94107 0.63397 0.89261 0.0
H820 H 0.96663 0.56156 0.88757 0.0
H821 H 0.98002 0.32896 0.04028 0.0
H822 H 0.0011 0.39873 0.01428 0.0
H823 H 0.9681 0.37665 0.90327 0.0
H824 H 0.94719 0.30526 0.92899 0.0
H825 H 0.96544 0.47681 0.94211 0.0
H826 H 0.01976 0.361 0.8945 0.0
H827 H 0.04416 0.28697 0.89544 0.0
H828 H 0.08472 0.34329 0.9903 0.0
H829 H 0.06034 0.41736 0.99039 0.0
C830 C 0.03898 0.65894 0.95066 0.0
C831 C 0.04988 0.66034 0.98726 0.0
C832 C 0.03045 0.61523 0.93575 0.0
C833 C 0.03278 0.57243 0.95719 0.0
C834 C 0.04479 0.57346 0.99266 0.0
C835 C 0.05319 0.61692 0.0076 0.0
C836 C 0.02073 0.52721 0.94556 0.0
C837 C 0.03427 0.48467 0.94333 0.0
C838 C 0.99567 0.52448 0.94272 0.0
C839 C 0.98033 0.56782 0.9458 0.0
C840 C 0.97939 0.59463 0.98029 0.0
C841 C 0.96494 0.63564 0.98287 0.0
C842 C 0.95118 0.64986 0.95125 0.0
C843 C 0.95179 0.62299 0.91703 0.0
C844 C 0.96625 0.58199 0.9143 0.0
C845 C 0.97727 0.33873 0.0103 0.0
C846 C 0.9619 0.31186 0.98669 0.0
C847 C 0.98944 0.37836 -0.00457 0.0
C848 C 0.98624 0.39236 0.95686 0.0
C849 C 0.97086 0.36594 0.93304 0.0
C850 C 0.95898 0.32538 0.94775 0.0
C851 C 0.99821 0.43661 0.94326 0.0
C852 C 0.9847 0.47906 0.94103 0.0
C853 C 0.02328 0.43921 0.94228 0.0
C854 C 0.03815 0.39479 0.94246 0.0
C855 C 0.03377 0.35749 0.91575 0.0
C856 C 0.04763 0.31552 0.91607 0.0
C857 C 0.06598 0.31042 0.94292 0.0
C858 C 0.07052 0.34732 0.96949 0.0
C859 C 0.05671 0.38937 0.9693 0.0
H860 H 0.07669 0.2779 0.94312 0.0
H861 H 0.93999 0.68162 0.95331 0.0
H862 H 0.06023 0.36677 0.44979 0.0
H863 H 0.04117 0.44024 0.47319 0.0
H864 H 0.01552 0.36384 0.57366 0.0
H865 H 0.03465 0.28965 0.55035 0.0
H866 H 0.98019 0.41148 0.53635 0.0
H867 H 0.05492 0.45169 0.58767 0.0
H868 H 0.0985 0.46053 0.58982 0.0
H869 H 0.09568 0.56386 0.49734 0.0
H870 H 0.05211 0.55513 0.49418 0.0
H871 H 0.96377 0.69617 0.54879 0.0
H872 H 0.98186 0.62155 0.57319 0.0
H873 H 0.95796 0.54553 0.47153 0.0
H874 H 0.93985 0.61932 0.44715 0.0
H875 H 0.01766 0.5738 0.53837 0.0
H876 H 0.94698 0.43079 0.4902 0.0
H877 H 0.90337 0.42208 0.49034 0.0
H878 H 0.89795 0.5241 0.58352 0.0
H879 H 0.94156 0.53292 0.58438 0.0
C880 C 0.05083 0.36562 0.47713 0.0
C881 C 0.04881 0.32229 0.49806 0.0
C882 C 0.0401 0.40779 0.49066 0.0
C883 C 0.02711 0.40755 0.52533 0.0
C884 C 0.02559 0.36476 0.54694 0.0
C885 C 0.03655 0.3225 0.53359 0.0
C886 C 0.0132 0.4509 0.53623 0.0
C887 C 0.98835 0.44698 0.53747 0.0
C888 C 0.02394 0.49698 0.53892 0.0
C889 C 0.05019 0.50265 0.54067 0.0
C890 C 0.06359 0.47609 0.56762 0.0
C891 C 0.0883 0.48112 0.56904 0.0
C892 C 0.09985 0.51273 0.54373 0.0
C893 C 0.0867 0.53943 0.51697 0.0
C894 C 0.06198 0.53453 0.51541 0.0
C895 C 0.96198 0.6633 0.53202 0.0
C896 C 0.95054 0.66372 0.49587 0.0
C897 C 0.97235 0.62078 0.546 0.0
C898 C 0.97107 0.57797 0.52434 0.0
C899 C 0.95881 0.57795 0.48906 0.0
C900 C 0.94863 0.62033 0.47498 0.0
C901 C 0.98467 0.53444 0.53577 0.0
C902 C 0.00947 0.53831 0.53862 0.0
C903 C 0.97387 0.48831 0.5373 0.0
C904 C 0.9476 0.48259 0.53728 0.0
C905 C 0.93653 0.45109 0.51095 0.0
C906 C 0.91178 0.44621 0.51079 0.0
C907 C 0.8979 0.47256 0.53689 0.0
C908 C 0.90873 0.50379 0.56326 0.0
C909 C 0.93346 0.50879 0.56355 0.0
H910 H 0.87875 0.46875 0.5367 0.0
H911 H 0.11899 0.51656 0.54487 0.0
loop_
_geom_bond_atom_site_label_1
_geom_bond_atom_site_label_2
_geom_bond_distance
_geom_bond_site_symmetry_2
_ccdc_geom_bond_type
Mg0 O1 2.028 1_554 S
Mg0 O7 1.986 1_554 S
Mg0 O9 2.114 . S
Mg0 O10 2.251 . S
Mg0 O13 2.010 1_554 S
O1 Mg0 2.028 1_556 S
O1 C4 1.250 1_556 S
O2 Mg3 2.028 . S
O2 C4 1.248 . S
Mg3 O2 2.028 . S
Mg3 O8 2.032 . S
Mg3 O10 2.079 . S
C4 O1 1.250 1_554 S
C4 O2 1.248 . S
C5 O6 1.264 . S
C5 O13 1.249 . S
O6 C5 1.264 . S
O7 Mg0 1.986 1_556 S
O7 C11 1.246 1_556 S
O8 Mg3 2.032 . S
O8 C11 1.259 . S
O9 Mg0 2.114 . S
O9 C12 1.252 . S
O10 Mg0 2.251 . S
O10 Mg3 2.079 . S
O10 C12 1.273 . S
C11 O7 1.246 1_554 S
C11 O8 1.259 . S
C12 O9 1.252 . S
C12 O10 1.273 . S
O13 Mg0 2.010 1_556 S
O13 C5 1.249 . S
Mg14 O15 2.028 1_554 S
Mg14 O21 1.986 1_554 S
Mg14 O23 2.114 . S
Mg14 O24 2.251 . S
Mg14 O27 2.010 1_554 S
O15 Mg14 2.028 1_556 S
O15 C18 1.250 1_556 S
O16 Mg17 2.028 . S
O16 C18 1.248 . S
Mg17 O16 2.028 . S
Mg17 O22 2.032 . S
Mg17 O24 2.079 . S
C18 O15 1.250 1_554 S
C18 O16 1.248 . S
C19 O20 1.264 . S
C19 O27 1.249 . S
O20 C19 1.264 . S
O21 Mg14 1.986 1_556 S
O21 C25 1.246 1_556 S
O22 Mg17 2.032 . S
O22 C25 1.259 . S
O23 Mg14 2.114 . S
O23 C26 1.252 . S
O24 Mg14 2.251 . S
O24 Mg17 2.079 . S
O24 C26 1.273 . S
C25 O21 1.246 1_554 S
C25 O22 1.259 . S
C26 O23 1.252 . S
C26 O24 1.273 . S
O27 Mg14 2.010 1_556 S
O27 C19 1.249 . S
Mg28 O29 2.028 . S
Mg28 O35 1.986 . S
Mg28 O37 2.114 . S
Mg28 O38 2.251 . S
Mg28 O41 2.010 . S
O29 Mg28 2.028 . S
O29 C32 1.250 . S
O30 Mg31 2.028 . S
O30 C32 1.248 . S
Mg31 O30 2.028 . S
Mg31 O36 2.032 . S
Mg31 O38 2.079 . S
C32 O29 1.250 . S
C32 O30 1.248 . S
C33 O34 1.264 . S
C33 O41 1.249 . S
O34 C33 1.264 . S
O35 Mg28 1.986 . S
O35 C39 1.246 . S
O36 Mg31 2.032 . S
O36 C39 1.259 . S
O37 Mg28 2.114 . S
O37 C40 1.252 . S
O38 Mg28 2.251 . S
O38 Mg31 2.079 . S
O38 C40 1.273 . S
C39 O35 1.246 . S
C39 O36 1.259 . S
C40 O37 1.252 . S
C40 O38 1.273 . S
O41 Mg28 2.010 . S
O41 C33 1.249 . S
Mg42 O43 2.028 . S
Mg42 O49 1.986 . S
Mg42 O51 2.114 . S
Mg42 O52 2.251 . S
Mg42 O55 2.010 . S
O43 Mg42 2.028 . S
O43 C46 1.250 . S
O44 Mg45 2.028 . S
O44 C46 1.248 . S
Mg45 O44 2.028 . S
Mg45 O50 2.032 . S
Mg45 O52 2.079 . S
C46 O43 1.250 . S
C46 O44 1.248 . S
C47 O48 1.264 . S
C47 O55 1.249 . S
O48 C47 1.264 . S
O49 Mg42 1.986 . S
O49 C53 1.246 . S
O50 Mg45 2.032 . S
O50 C53 1.259 . S
O51 Mg42 2.114 . S
O51 C54 1.252 . S
O52 Mg42 2.251 . S
O52 Mg45 2.079 . S
O52 C54 1.273 . S
C53 O49 1.246 . S
C53 O50 1.259 . S
C54 O51 1.252 . S
C54 O52 1.273 . S
O55 Mg42 2.010 . S
O55 C47 1.249 . S
Mg56 O57 2.028 1_554 S
Mg56 O63 1.986 1_554 S
Mg56 O65 2.114 . S
Mg56 O66 2.251 . S
Mg56 O69 2.010 1_554 S
O57 Mg56 2.028 1_556 S
O57 C60 1.250 1_556 S
O58 Mg59 2.028 . S
O58 C60 1.248 . S
Mg59 O58 2.028 . S
Mg59 O64 2.032 . S
Mg59 O66 2.079 . S
C60 O57 1.250 1_554 S
C60 O58 1.248 . S
C61 O62 1.264 . S
C61 O69 1.249 . S
O62 C61 1.264 . S
O63 Mg56 1.986 1_556 S
O63 C67 1.246 1_556 S
O64 Mg59 2.032 . S
O64 C67 1.259 . S
O65 Mg56 2.114 . S
O65 C68 1.252 . S
O66 Mg56 2.251 . S
O66 Mg59 2.079 . S
O66 C68 1.273 . S
C67 O63 1.246 1_554 S
C67 O64 1.259 . S
C68 O65 1.252 . S
C68 O66 1.273 . S
O69 Mg56 2.010 1_556 S
O69 C61 1.249 . S
Mg70 O71 2.028 1_554 S
Mg70 O77 1.986 1_554 S
Mg70 O79 2.114 . S
Mg70 O80 2.251 . S
Mg70 O83 2.010 1_554 S
O71 Mg70 2.028 1_556 S
O71 C74 1.250 1_556 S
O72 Mg73 2.028 . S
O72 C74 1.248 . S
Mg73 O72 2.028 . S
Mg73 O78 2.032 . S
Mg73 O80 2.079 . S
C74 O71 1.250 1_554 S
C74 O72 1.248 . S
C75 O76 1.264 . S
C75 O83 1.249 . S
O76 C75 1.264 . S
O77 Mg70 1.986 1_556 S
O77 C81 1.246 1_556 S
O78 Mg73 2.032 . S
O78 C81 1.259 . S
O79 Mg70 2.114 . S
O79 C82 1.252 . S
O80 Mg70 2.251 . S
O80 Mg73 2.079 . S
O80 C82 1.273 . S
C81 O77 1.246 1_554 S
C81 O78 1.259 . S
C82 O79 1.252 . S
C82 O80 1.273 . S
O83 Mg70 2.010 1_556 S
O83 C75 1.249 . S
Mg84 O85 2.028 . S
Mg84 O91 1.986 . S
Mg84 O93 2.114 . S
Mg84 O94 2.251 . S
Mg84 O97 2.010 . S
O85 Mg84 2.028 . S
O85 C88 1.250 . S
O86 Mg87 2.028 . S
O86 C88 1.248 . S
Mg87 O86 2.028 . S
Mg87 O92 2.032 . S
Mg87 O94 2.079 . S
C88 O85 1.250 . S
C88 O86 1.248 . S
C89 O90 1.264 . S
C89 O97 1.249 . S
O90 C89 1.264 . S
O91 Mg84 1.986 . S
O91 C95 1.246 . S
O92 Mg87 2.032 . S
O92 C95 1.259 . S
O93 Mg84 2.114 . S
O93 C96 1.252 . S
O94 Mg84 2.251 . S
O94 Mg87 2.079 . S
O94 C96 1.273 . S
C95 O91 1.246 . S
C95 O92 1.259 . S
C96 O93 1.252 . S
C96 O94 1.273 . S
O97 Mg84 2.010 . S
O97 C89 1.249 . S
Mg98 O99 2.028 . S
Mg98 O105 1.986 . S
Mg98 O107 2.114 . S
Mg98 O108 2.251 . S
Mg98 O111 2.010 . S
O99 Mg98 2.028 . S
O99 C102 1.250 . S
O100 Mg101 2.028 . S
O100 C102 1.248 . S
Mg101 O100 2.028 . S
Mg101 O106 2.032 . S
Mg101 O108 2.079 . S
C102 O99 1.250 . S
C102 O100 1.248 . S
C103 O104 1.264 . S
C103 O111 1.249 . S
O104 C103 1.264 . S
O105 Mg98 1.986 . S
O105 C109 1.246 . S
O106 Mg101 2.032 . S
O106 C109 1.259 . S
O107 Mg98 2.114 . S
O107 C110 1.252 . S
O108 Mg98 2.251 . S
O108 Mg101 2.079 . S
O108 C110 1.273 . S
C109 O105 1.246 . S
C109 O106 1.259 . S
C110 O107 1.252 . S
C110 O108 1.273 . S
O111 Mg98 2.010 . S
O111 C103 1.249 . S
H112 C130 0.951 . S
H113 C132 0.951 . S
H114 C134 0.950 . S
H115 C135 0.950 . S
H116 C137 0.950 . S
H117 C140 0.950 . S
H118 C141 0.950 . S
H119 C143 0.950 . S
H120 C144 0.950 . S
H121 C145 0.951 . S
H122 C147 0.951 . S
H123 C149 0.958 . S
H124 C150 0.950 . S
H125 C152 0.950 . S
H126 C155 0.950 . S
H127 C156 0.950 . S
H128 C158 0.950 . S
H129 C159 0.950 . S
C130 H112 0.951 . S
C130 C131 1.366 1_556 S
C130 C132 1.388 . S
C131 C130 1.366 1_554 S
C131 C135 1.385 . S
C132 H113 0.951 . S
C132 C130 1.388 . S
C132 C133 1.366 1_556 S
C133 C132 1.366 1_554 S
C133 C134 1.414 . S
C133 C136 1.499 . S
C134 H114 0.950 . S
C134 C133 1.414 . S
C134 C135 1.374 . S
C135 H115 0.950 . S
C135 C131 1.385 . S
C135 C134 1.374 . S
C136 C133 1.499 . S
C136 C137 1.373 . S
C136 C138 1.389 1_554 S
C137 H116 0.950 . S
C137 C136 1.373 . S
C137 C153 1.377 . S
C138 C136 1.389 1_556 S
C138 C139 1.524 . S
C138 C152 1.377 . S
C139 C138 1.524 . S
C139 C140 1.397 . S
C139 C144 1.363 . S
C140 H117 0.950 . S
C140 C139 1.397 . S
C140 C141 1.334 . S
C141 H118 0.950 . S
C141 C140 1.334 . S
C141 C142 1.287 . S
C142 C141 1.287 . S
C142 C143 1.524 . S
C142 H161 0.913 . S
C143 H119 0.950 . S
C143 C142 1.524 . S
C143 C144 1.415 . S
C144 H120 0.950 . S
C144 C139 1.363 . S
C144 C143 1.415 . S
C145 H121 0.951 . S
C145 C146 1.366 . S
C145 C147 1.388 . S
C146 C145 1.366 . S
C146 C150 1.385 1_554 S
C147 H122 0.951 . S
C147 C145 1.388 . S
C147 C148 1.366 . S
C148 C147 1.366 . S
C148 C149 1.407 1_554 S
C148 C151 1.499 . S
C149 H123 0.958 . S
C149 C148 1.407 1_556 S
C149 C150 1.374 . S
C150 H124 0.950 . S
C150 C146 1.385 1_556 S
C150 C149 1.374 . S
C151 C148 1.499 . S
C151 C152 1.373 1_554 S
C151 C153 1.389 . S
C152 H125 0.950 . S
C152 C138 1.377 . S
C152 C151 1.373 1_556 S
C153 C137 1.377 . S
C153 C151 1.389 . S
C153 C154 1.524 . S
C154 C153 1.524 . S
C154 C155 1.397 . S
C154 C159 1.363 . S
C155 H126 0.950 . S
C155 C154 1.397 . S
C155 C156 1.334 . S
C156 H127 0.950 . S
C156 C155 1.334 . S
C156 C157 1.287 . S
C157 C156 1.287 . S
C157 C158 1.524 . S
C157 H160 0.999 . S
C158 H128 0.950 . S
C158 C157 1.524 . S
C158 C159 1.415 . S
C159 H129 0.950 . S
C159 C154 1.363 . S
C159 C158 1.415 . S
H160 C157 0.999 . S
H161 C142 0.913 . S
H162 C180 0.951 . S
H163 C182 0.951 . S
H164 C184 0.950 . S
H165 C185 0.950 . S
H166 C187 0.950 . S
H167 C190 0.950 . S
H168 C191 0.950 . S
H169 C193 0.950 . S
H170 C194 0.950 . S
H171 C195 0.951 . S
H172 C197 0.951 . S
H173 C199 0.950 . S
H174 C200 0.950 . S
H175 C202 0.950 . S
H176 C205 0.950 . S
H177 C206 0.950 . S
H178 C208 0.950 . S
H179 C209 0.950 . S
C180 H162 0.951 . S
C180 C181 1.366 . S
C180 C182 1.388 . S
C181 C180 1.366 . S
C181 C185 1.385 1_554 S
C182 H163 0.951 . S
C182 C180 1.388 . S
C182 C183 1.366 . S
C183 C182 1.366 . S
C183 C184 1.414 1_554 S
C183 C186 1.499 . S
C184 H164 0.950 . S
C184 C183 1.414 1_556 S
C184 C185 1.374 . S
C185 H165 0.950 . S
C185 C181 1.385 1_556 S
C185 C184 1.374 . S
C186 C183 1.499 . S
C186 C187 1.373 . S
C186 C188 1.389 1_554 S
C187 H166 0.950 . S
C187 C186 1.373 . S
C187 C203 1.377 . S
C188 C186 1.389 1_556 S
C188 C189 1.524 . S
C188 C202 1.377 . S
C189 C188 1.524 . S
C189 C190 1.397 . S
C189 C194 1.363 . S
C190 H167 0.950 . S
C190 C189 1.397 . S
C190 C191 1.334 . S
C191 H168 0.950 . S
C191 C190 1.334 . S
C191 C192 1.287 . S
C192 C191 1.287 . S
C192 C193 1.524 . S
C192 H211 0.913 . S
C193 H169 0.950 . S
C193 C192 1.524 . S
C193 C194 1.415 . S
C194 H170 0.950 . S
C194 C189 1.363 . S
C194 C193 1.415 . S
C195 H171 0.951 . S
C195 C196 1.366 1_556 S
C195 C197 1.388 . S
C196 C195 1.366 1_554 S
C196 C200 1.385 . S
C197 H172 0.951 . S
C197 C195 1.388 . S
C197 C198 1.366 1_556 S
C198 C197 1.366 1_554 S
C198 C199 1.414 . S
C198 C201 1.499 . S
C199 H173 0.950 . S
C199 C198 1.414 . S
C199 C200 1.374 . S
C200 H174 0.950 . S
C200 C196 1.385 . S
C200 C199 1.374 . S
C201 C198 1.499 . S
C201 C202 1.373 1_554 S
C201 C203 1.389 . S
C202 H175 0.950 . S
C202 C188 1.377 . S
C202 C201 1.373 1_556 S
C203 C187 1.377 . S
C203 C201 1.389 . S
C203 C204 1.524 . S
C204 C203 1.524 . S
C204 C205 1.397 . S
C204 C209 1.363 . S
C205 H176 0.950 . S
C205 C204 1.397 . S
C205 C206 1.334 . S
C206 H177 0.950 . S
C206 C205 1.334 . S
C206 C207 1.287 . S
C207 C206 1.287 . S
C207 C208 1.524 . S
C207 H210 0.999 . S
C208 H178 0.950 . S
C208 C207 1.524 . S
C208 C209 1.415 . S
C209 H179 0.950 . S
C209 C204 1.363 . S
C209 C208 1.415 . S
H210 C207 0.999 . S
H211 C192 0.913 . S
H212 C230 0.951 . S
H213 C232 0.951 . S
H214 C234 0.950 . S
H215 C235 0.950 . S
H216 C237 0.950 . S
H217 C240 0.950 . S
H218 C241 0.950 . S
H219 C243 0.950 . S
H220 C244 0.950 . S
H221 C245 0.951 . S
H222 C247 0.951 . S
H223 C249 0.950 . S
H224 C250 0.950 . S
H225 C252 0.950 . S
H226 C255 0.950 . S
H227 C256 0.950 . S
H228 C258 0.950 . S
H229 C259 0.950 . S
C230 H212 0.951 . S
C230 C231 1.366 . S
C230 C232 1.388 . S
C231 C230 1.366 . S
C231 C235 1.385 . S
C232 H213 0.951 . S
C232 C230 1.388 . S
C232 C233 1.366 . S
C233 C232 1.366 . S
C233 C234 1.414 . S
C233 C236 1.499 . S
C234 H214 0.950 . S
C234 C233 1.414 . S
C234 C235 1.374 . S
C235 H215 0.950 . S
C235 C231 1.385 . S
C235 C234 1.374 . S
C236 C233 1.499 . S
C236 C237 1.373 . S
C236 C238 1.389 . S
C237 H216 0.950 . S
C237 C236 1.373 . S
C237 C253 1.377 . S
C238 C236 1.389 . S
C238 C239 1.524 . S
C238 C252 1.377 . S
C239 C238 1.524 . S
C239 C240 1.397 . S
C239 C244 1.363 . S
C240 H217 0.950 . S
C240 C239 1.397 . S
C240 C241 1.334 . S
C241 H218 0.950 . S
C241 C240 1.334 . S
C241 C242 1.287 . S
C242 C241 1.287 . S
C242 C243 1.524 . S
C242 H261 0.913 . S
C243 H219 0.950 . S
C243 C242 1.524 . S
C243 C244 1.415 . S
C244 H220 0.950 . S
C244 C239 1.363 . S
C244 C243 1.415 . S
C245 H221 0.951 . S
C245 C246 1.366 . S
C245 C247 1.388 . S
C246 C245 1.366 . S
C246 C250 1.385 . S
C247 H222 0.951 . S
C247 C245 1.388 . S
C247 C248 1.366 . S
C248 C247 1.366 . S
C248 C249 1.414 . S
C248 C251 1.499 . S
C249 H223 0.950 . S
C249 C248 1.414 . S
C249 C250 1.374 . S
C250 H224 0.950 . S
C250 C246 1.385 . S
C250 C249 1.374 . S
C251 C248 1.499 . S
C251 C252 1.373 . S
C251 C253 1.389 . S
C252 H225 0.950 . S
C252 C238 1.377 . S
C252 C251 1.373 . S
C253 C237 1.377 . S
C253 C251 1.389 . S
C253 C254 1.524 . S
C254 C253 1.524 . S
C254 C255 1.397 . S
C254 C259 1.363 . S
C255 H226 0.950 . S
C255 C254 1.397 . S
C255 C256 1.334 . S
C256 H227 0.950 . S
C256 C255 1.334 . S
C256 C257 1.287 . S
C257 C256 1.287 . S
C257 C258 1.524 . S
C257 H260 0.999 . S
C258 H228 0.950 . S
C258 C257 1.524 . S
C258 C259 1.415 . S
C259 H229 0.950 . S
C259 C254 1.363 . S
C259 C258 1.415 . S
H260 C257 0.999 . S
H261 C242 0.913 . S
H262 C280 0.951 . S
H263 C282 0.951 . S
H264 C284 0.950 . S
H265 C285 0.950 . S
H266 C287 0.950 . S
H267 C290 0.950 . S
H268 C291 0.950 . S
H269 C293 0.950 . S
H270 C294 0.950 . S
H271 C295 0.951 . S
H272 C297 0.951 . S
H273 C299 0.950 . S
H274 C300 0.950 . S
H275 C302 0.950 . S
H276 C305 0.950 . S
H277 C306 0.950 . S
H278 C308 0.950 . S
H279 C309 0.950 . S
C280 H262 0.951 . S
C280 C281 1.366 . S
C280 C282 1.388 . S
C281 C280 1.366 . S
C281 C285 1.385 . S
C282 H263 0.951 . S
C282 C280 1.388 . S
C282 C283 1.366 . S
C283 C282 1.366 . S
C283 C284 1.414 . S
C283 C286 1.499 . S
C284 H264 0.950 . S
C284 C283 1.414 . S
C284 C285 1.374 . S
C285 H265 0.950 . S
C285 C281 1.385 . S
C285 C284 1.374 . S
C286 C283 1.499 . S
C286 C287 1.373 . S
C286 C288 1.389 . S
C287 H266 0.950 . S
C287 C286 1.373 . S
C287 C303 1.377 . S
C288 C286 1.389 . S
C288 C289 1.524 . S
C288 C302 1.377 . S
C289 C288 1.524 . S
C289 C290 1.397 . S
C289 C294 1.363 . S
C290 H267 0.950 . S
C290 C289 1.397 . S
C290 C291 1.334 . S
C291 H268 0.950 . S
C291 C290 1.334 . S
C291 C292 1.287 . S
C292 C291 1.287 . S
C292 C293 1.524 . S
C292 H311 0.913 . S
C293 H269 0.950 . S
C293 C292 1.524 . S
C293 C294 1.415 . S
C294 H270 0.950 . S
C294 C289 1.363 . S
C294 C293 1.415 . S
C295 H271 0.951 . S
C295 C296 1.366 . S
C295 C297 1.388 . S
C296 C295 1.366 . S
C296 C300 1.385 . S
C297 H272 0.951 . S
C297 C295 1.388 . S
C297 C298 1.366 . S
C298 C297 1.366 . S
C298 C299 1.414 . S
C298 C301 1.499 . S
C299 H273 0.950 . S
C299 C298 1.414 . S
C299 C300 1.374 . S
C300 H274 0.950 . S
C300 C296 1.385 . S
C300 C299 1.374 . S
C301 C298 1.499 . S
C301 C302 1.373 . S
C301 C303 1.389 . S
C302 H275 0.950 . S
C302 C288 1.377 . S
C302 C301 1.373 . S
C303 C287 1.377 . S
C303 C301 1.389 . S
C303 C304 1.524 . S
C304 C303 1.524 . S
C304 C305 1.397 . S
C304 C309 1.363 . S
C305 H276 0.950 . S
C305 C304 1.397 . S
C305 C306 1.334 . S
C306 H277 0.950 . S
C306 C305 1.334 . S
C306 C307 1.287 . S
C307 C306 1.287 . S
C307 C308 1.524 . S
C307 H310 0.999 . S
C308 H278 0.950 . S
C308 C307 1.524 . S
C308 C309 1.415 . S
C309 H279 0.950 . S
C309 C304 1.363 . S
C309 C308 1.415 . S
H310 C307 0.999 . S
H311 C292 0.913 . S
H312 C330 0.951 . S
H313 C332 0.951 . S
H314 C334 0.950 . S
H315 C335 0.950 . S
H316 C337 0.950 . S
H317 C340 0.950 . S
H318 C341 0.950 . S
H319 C343 0.950 . S
H320 C344 0.950 . S
H321 C345 0.951 . S
H322 C347 0.951 . S
H323 C349 0.950 . S
H324 C350 0.950 . S
H325 C352 0.950 . S
H326 C355 0.950 . S
H327 C356 0.950 . S
H328 C358 0.950 . S
H329 C359 0.950 . S
C330 H312 0.951 . S
C330 C331 1.366 . S
C330 C332 1.388 . S
C331 C330 1.366 . S
C331 C335 1.385 . S
C332 H313 0.951 . S
C332 C330 1.388 . S
C332 C333 1.366 . S
C333 C332 1.366 . S
C333 C334 1.414 . S
C333 C336 1.499 . S
C334 H314 0.950 . S
C334 C333 1.414 . S
C334 C335 1.374 . S
C335 H315 0.950 . S
C335 C331 1.385 . S
C335 C334 1.374 . S
C336 C333 1.499 . S
C336 C337 1.373 . S
C336 C338 1.389 . S
C337 H316 0.950 . S
C337 C336 1.373 . S
C337 C353 1.377 . S
C338 C336 1.389 . S
C338 C339 1.524 . S
C338 C352 1.377 . S
C339 C338 1.524 . S
C339 C340 1.397 . S
C339 C344 1.363 . S
C340 H317 0.950 . S
C340 C339 1.397 . S
C340 C341 1.334 . S
C341 H318 0.950 . S
C341 C340 1.334 . S
C341 C342 1.287 . S
C342 C341 1.287 . S
C342 C343 1.524 . S
C342 H361 0.913 . S
C343 H319 0.950 . S
C343 C342 1.524 . S
C343 C344 1.415 . S
C344 H320 0.950 . S
C344 C339 1.363 . S
C344 C343 1.415 . S
C345 H321 0.951 . S
C345 C346 1.366 . S
C345 C347 1.388 . S
C346 C345 1.366 . S
C346 C350 1.385 . S
C347 H322 0.951 . S
C347 C345 1.388 . S
C347 C348 1.366 . S
C348 C347 1.366 . S
C348 C349 1.414 . S
C348 C351 1.499 . S
C349 H323 0.950 . S
C349 C348 1.414 . S
C349 C350 1.374 . S
C350 H324 0.950 . S
C350 C346 1.385 . S
C350 C349 1.374 . S
C351 C348 1.499 . S
C351 C352 1.373 . S
C351 C353 1.389 . S
C352 H325 0.950 . S
C352 C338 1.377 . S
C352 C351 1.373 . S
C353 C337 1.377 . S
C353 C351 1.389 . S
C353 C354 1.524 . S
C354 C353 1.524 . S
C354 C355 1.397 . S
C354 C359 1.363 . S
C355 H326 0.950 . S
C355 C354 1.397 . S
C355 C356 1.334 . S
C356 H327 0.950 . S
C356 C355 1.334 . S
C356 C357 1.287 . S
C357 C356 1.287 . S
C357 C358 1.524 . S
C357 H360 0.999 . S
C358 H328 0.950 . S
C358 C357 1.524 . S
C358 C359 1.415 . S
C359 H329 0.950 . S
C359 C354 1.363 . S
C359 C358 1.415 . S
H360 C357 0.999 . S
H361 C342 0.913 . S
H362 C380 0.951 . S
H363 C382 0.951 . S
H364 C384 0.950 . S
H365 C385 0.950 . S
H366 C387 0.950 . S
H367 C390 0.950 . S
H368 C391 0.950 . S
H369 C393 0.950 . S
H370 C394 0.950 . S
H371 C395 0.951 . S
H372 C397 0.951 . S
H373 C399 0.950 . S
H374 C400 0.950 . S
H375 C402 0.950 . S
H376 C405 0.950 . S
H377 C406 0.950 . S
H378 C408 0.950 . S
H379 C409 0.950 . S
C380 H362 0.951 . S
C380 C381 1.366 . S
C380 C382 1.388 . S
C381 C380 1.366 . S
C381 C385 1.385 . S
C382 H363 0.951 . S
C382 C380 1.388 . S
C382 C383 1.366 . S
C383 C382 1.366 . S
C383 C384 1.414 . S
C383 C386 1.499 . S
C384 H364 0.950 . S
C384 C383 1.414 . S
C384 C385 1.374 . S
C385 H365 0.950 . S
C385 C381 1.385 . S
C385 C384 1.374 . S
C386 C383 1.499 . S
C386 C387 1.373 . S
C386 C388 1.389 . S
C387 H366 0.950 . S
C387 C386 1.373 . S
C387 C403 1.377 . S
C388 C386 1.389 . S
C388 C389 1.524 . S
C388 C402 1.377 . S
C389 C388 1.524 . S
C389 C390 1.397 . S
C389 C394 1.363 . S
C390 H367 0.950 . S
C390 C389 1.397 . S
C390 C391 1.334 . S
C391 H368 0.950 . S
C391 C390 1.334 . S
C391 C392 1.287 . S
C392 C391 1.287 . S
C392 C393 1.524 . S
C392 H411 0.913 . S
C393 H369 0.950 . S
C393 C392 1.524 . S
C393 C394 1.415 . S
C394 H370 0.950 . S
C394 C389 1.363 . S
C394 C393 1.415 . S
C395 H371 0.951 . S
C395 C396 1.366 . S
C395 C397 1.388 . S
C396 C395 1.366 . S
C396 C400 1.385 . S
C397 H372 0.951 . S
C397 C395 1.388 . S
C397 C398 1.366 . S
C398 C397 1.366 . S
C398 C399 1.414 . S
C398 C401 1.499 . S
C399 H373 0.950 . S
C399 C398 1.414 . S
C399 C400 1.374 . S
C400 H374 0.950 . S
C400 C396 1.385 . S
C400 C399 1.374 . S
C401 C398 1.499 . S
C401 C402 1.373 . S
C401 C403 1.389 . S
C402 H375 0.950 . S
C402 C388 1.377 . S
C402 C401 1.373 . S
C403 C387 1.377 . S
C403 C401 1.389 . S
C403 C404 1.524 . S
C404 C403 1.524 . S
C404 C405 1.397 . S
C404 C409 1.363 . S
C405 H376 0.950 . S
C405 C404 1.397 . S
C405 C406 1.334 . S
C406 H377 0.950 . S
C406 C405 1.334 . S
C406 C407 1.287 . S
C407 C406 1.287 . S
C407 C408 1.524 . S
C407 H410 0.999 . S
C408 H378 0.950 . S
C408 C407 1.524 . S
C408 C409 1.415 . S
C409 H379 0.950 . S
C409 C404 1.363 . S
C409 C408 1.415 . S
H410 C407 0.999 . S
H411 C392 0.913 . S
H412 C430 0.951 . S
H413 C432 0.951 . S
H414 C434 0.950 . S
H415 C435 0.950 . S
H416 C437 0.950 . S
H417 C440 0.950 . S
H418 C441 0.950 . S
H419 C443 0.950 . S
H420 C444 0.950 . S
H421 C445 0.951 . S
H422 C447 0.951 . S
H423 C449 0.950 . S
H424 C450 0.950 . S
H425 C452 0.950 . S
H426 C455 0.950 . S
H427 C456 0.950 . S
H428 C458 0.950 . S
H429 C459 0.950 . S
C430 H412 0.951 . S
C430 C431 1.366 . S
C430 C432 1.388 . S
C431 C430 1.366 . S
C431 C435 1.385 . S
C432 H413 0.951 . S
C432 C430 1.388 . S
C432 C433 1.366 . S
C433 C432 1.366 . S
C433 C434 1.414 . S
C433 C436 1.499 . S
C434 H414 0.950 . S
C434 C433 1.414 . S
C434 C435 1.374 . S
C435 H415 0.950 . S
C435 C431 1.385 . S
C435 C434 1.374 . S
C436 C433 1.499 . S
C436 C437 1.373 . S
C436 C438 1.389 . S
C437 H416 0.950 . S
C437 C436 1.373 . S
C437 C453 1.377 . S
C438 C436 1.389 . S
C438 C439 1.524 . S
C438 C452 1.377 . S
C439 C438 1.524 . S
C439 C440 1.397 . S
C439 C444 1.363 . S
C440 H417 0.950 . S
C440 C439 1.397 . S
C440 C441 1.334 . S
C441 H418 0.950 . S
C441 C440 1.334 . S
C441 C442 1.287 . S
C442 C441 1.287 . S
C442 C443 1.524 . S
C442 H461 0.913 . S
C443 H419 0.950 . S
C443 C442 1.524 . S
C443 C444 1.415 . S
C444 H420 0.950 . S
C444 C439 1.363 . S
C444 C443 1.415 . S
C445 H421 0.951 . S
C445 C446 1.366 . S
C445 C447 1.388 . S
C446 C445 1.366 . S
C446 C450 1.385 . S
C447 H422 0.951 . S
C447 C445 1.388 . S
C447 C448 1.366 . S
C448 C447 1.366 . S
C448 C449 1.414 . S
C448 C451 1.499 . S
C449 H423 0.950 . S
C449 C448 1.414 . S
C449 C450 1.374 . S
C450 H424 0.950 . S
C450 C446 1.385 . S
C450 C449 1.374 . S
C451 C448 1.499 . S
C451 C452 1.373 . S
C451 C453 1.389 . S
C452 H425 0.950 . S
C452 C438 1.377 . S
C452 C451 1.373 . S
C453 C437 1.377 . S
C453 C451 1.389 . S
C453 C454 1.524 . S
C454 C453 1.524 . S
C454 C455 1.397 . S
C454 C459 1.363 . S
C455 H426 0.950 . S
C455 C454 1.397 . S
C455 C456 1.334 . S
C456 H427 0.950 . S
C456 C455 1.334 . S
C456 C457 1.287 . S
C457 C456 1.287 . S
C457 C458 1.524 . S
C457 H460 0.999 . S
C458 H428 0.950 . S
C458 C457 1.524 . S
C458 C459 1.415 . S
C459 H429 0.950 . S
C459 C454 1.363 . S
C459 C458 1.415 . S
H460 C457 0.999 . S
H461 C442 0.913 . S
H462 C480 0.951 . S
H463 C482 0.951 . S
H464 C484 0.950 . S
H465 C485 0.950 . S
H466 C487 0.950 . S
H467 C490 0.950 . S
H468 C491 0.950 . S
H469 C493 0.950 . S
H470 C494 0.950 . S
H471 C495 0.951 . S
H472 C497 0.951 . S
H473 C499 0.950 . S
H474 C500 0.950 . S
H475 C502 0.950 . S
H476 C505 0.950 . S
H477 C506 0.950 . S
H478 C508 0.950 . S
H479 C509 0.950 . S
C480 H462 0.951 . S
C480 C481 1.366 . S
C480 C482 1.388 . S
C481 C480 1.366 . S
C481 C485 1.385 . S
C482 H463 0.951 . S
C482 C480 1.388 . S
C482 C483 1.366 . S
C483 C482 1.366 . S
C483 C484 1.414 . S
C483 C486 1.499 . S
C484 H464 0.950 . S
C484 C483 1.414 . S
C484 C485 1.374 . S
C485 H465 0.950 . S
C485 C481 1.385 . S
C485 C484 1.374 . S
C486 C483 1.499 . S
C486 C487 1.373 . S
C486 C488 1.389 . S
C487 H466 0.950 . S
C487 C486 1.373 . S
C487 C503 1.377 . S
C488 C486 1.389 . S
C488 C489 1.524 . S
C488 C502 1.377 . S
C489 C488 1.524 . S
C489 C490 1.397 . S
C489 C494 1.363 . S
C490 H467 0.950 . S
C490 C489 1.397 . S
C490 C491 1.334 . S
C491 H468 0.950 . S
C491 C490 1.334 . S
C491 C492 1.287 . S
C492 C491 1.287 . S
C492 C493 1.524 . S
C492 H511 0.913 . S
C493 H469 0.950 . S
C493 C492 1.524 . S
C493 C494 1.415 . S
C494 H470 0.950 . S
C494 C489 1.363 . S
C494 C493 1.415 . S
C495 H471 0.951 . S
C495 C496 1.366 . S
C495 C497 1.388 . S
C496 C495 1.366 . S
C496 C500 1.385 . S
C497 H472 0.951 . S
C497 C495 1.388 . S
C497 C498 1.366 . S
C498 C497 1.366 . S
C498 C499 1.414 . S
C498 C501 1.499 . S
C499 H473 0.950 . S
C499 C498 1.414 . S
C499 C500 1.374 . S
C500 H474 0.950 . S
C500 C496 1.385 . S
C500 C499 1.374 . S
C501 C498 1.499 . S
C501 C502 1.373 . S
C501 C503 1.389 . S
C502 H475 0.950 . S
C502 C488 1.377 . S
C502 C501 1.373 . S
C503 C487 1.377 . S
C503 C501 1.389 . S
C503 C504 1.524 . S
C504 C503 1.524 . S
C504 C505 1.397 . S
C504 C509 1.363 . S
C505 H476 0.950 . S
C505 C504 1.397 . S
C505 C506 1.334 . S
C506 H477 0.950 . S
C506 C505 1.334 . S
C506 C507 1.287 . S
C507 C506 1.287 . S
C507 C508 1.524 . S
C507 H510 0.999 . S
C508 H478 0.950 . S
C508 C507 1.524 . S
C508 C509 1.415 . S
C509 H479 0.950 . S
C509 C504 1.363 . S
C509 C508 1.415 . S
H510 C507 0.999 . S
H511 C492 0.913 . S
H512 C530 0.951 . S
H513 C532 0.951 1_545 S
H514 C534 0.950 . S
H515 C535 0.950 . S
H516 C537 0.950 . S
H517 C540 0.950 . S
H518 C541 0.950 1_565 S
H519 C543 0.950 . S
H520 C544 0.950 . S
H521 C545 0.951 . S
H522 C547 0.951 1_565 S
H523 C549 0.950 . S
H524 C550 0.950 . S
H525 C552 0.950 . S
H526 C555 0.950 . S
H527 C556 0.941 1_645 S
H528 C558 0.950 . S
H529 C559 0.950 . S
C530 H512 0.951 . S
C530 C531 1.366 . S
C530 C532 1.388 . S
C531 C530 1.366 . S
C531 C535 1.385 . S
C532 H513 0.951 1_565 S
C532 C530 1.388 . S
C532 C533 1.366 . S
C533 C532 1.366 . S
C533 C534 1.414 . S
C533 C536 1.499 . S
C534 H514 0.950 . S
C534 C533 1.414 . S
C534 C535 1.374 . S
C535 H515 0.950 . S
C535 C531 1.385 . S
C535 C534 1.374 . S
C536 C533 1.499 . S
C536 C537 1.373 . S
C536 C538 1.389 1_565 S
C537 H516 0.950 . S
C537 C536 1.373 . S
C537 C553 1.377 . S
C538 C536 1.389 1_545 S
C538 C539 1.524 . S
C538 C552 1.377 . S
C539 C538 1.524 . S
C539 C540 1.397 1_545 S
C539 C544 1.363 . S
C540 H517 0.950 . S
C540 C539 1.397 1_565 S
C540 C541 1.334 1_565 S
C541 H518 0.950 1_545 S
C541 C540 1.334 1_545 S
C541 C542 1.287 . S
C542 C541 1.287 . S
C542 C543 1.524 . S
C542 H561 0.913 . S
C543 H519 0.950 . S
C543 C542 1.524 . S
C543 C544 1.415 . S
C544 H520 0.950 . S
C544 C539 1.363 . S
C544 C543 1.415 . S
C545 H521 0.951 . S
C545 C546 1.366 . S
C545 C547 1.388 . S
C546 C545 1.366 . S
C546 C550 1.385 . S
C547 H522 0.951 1_545 S
C547 C545 1.388 . S
C547 C548 1.366 . S
C548 C547 1.366 . S
C548 C549 1.414 . S
C548 C551 1.499 . S
C549 H523 0.950 . S
C549 C548 1.414 . S
C549 C550 1.374 . S
C550 H524 0.950 . S
C550 C546 1.385 . S
C550 C549 1.374 . S
C551 C548 1.499 . S
C551 C552 1.373 . S
C551 C553 1.389 1_545 S
C552 H525 0.950 . S
C552 C538 1.377 . S
C552 C551 1.373 . S
C553 C537 1.377 . S
C553 C551 1.389 1_565 S
C553 C554 1.524 . S
C554 C553 1.524 . S
C554 C555 1.397 1_565 S
C554 C559 1.363 . S
C555 H526 0.950 . S
C555 C554 1.397 1_545 S
C555 C556 1.334 1_545 S
C556 H527 0.941 1_465 S
C556 C555 1.334 1_565 S
C556 C557 1.287 . S
C557 C556 1.287 . S
C557 C558 1.524 . S
C557 H560 0.999 1_455 S
C558 H528 0.950 . S
C558 C557 1.524 . S
C558 C559 1.415 . S
C559 H529 0.950 . S
C559 C554 1.363 . S
C559 C558 1.415 . S
H560 C557 0.999 1_655 S
H561 C542 0.913 . S
H562 C580 0.951 . S
H563 C582 0.951 . S
H564 C584 0.950 . S
H565 C585 0.950 . S
H566 C587 0.950 . S
H567 C590 0.950 . S
H568 C591 0.950 . S
H569 C593 0.950 . S
H570 C594 0.950 . S
H571 C595 0.951 . S
H572 C597 0.951 . S
H573 C599 0.950 . S
H574 C600 0.950 . S
H575 C602 0.950 . S
H576 C605 0.950 . S
H577 C606 0.950 . S
H578 C608 0.950 . S
H579 C609 0.950 . S
C580 H562 0.951 . S
C580 C581 1.366 . S
C580 C582 1.388 . S
C581 C580 1.366 . S
C581 C585 1.385 . S
C582 H563 0.951 . S
C582 C580 1.388 . S
C582 C583 1.366 . S
C583 C582 1.366 . S
C583 C584 1.414 . S
C583 C586 1.499 . S
C584 H564 0.950 . S
C584 C583 1.414 . S
C584 C585 1.374 . S
C585 H565 0.950 . S
C585 C581 1.385 . S
C585 C584 1.374 . S
C586 C583 1.499 . S
C586 C587 1.373 1_565 S
C586 C588 1.389 . S
C587 H566 0.950 . S
C587 C586 1.373 1_545 S
C587 C603 1.377 . S
C588 C586 1.389 . S
C588 C589 1.524 . S
C588 C602 1.377 . S
C589 C588 1.524 . S
C589 C590 1.397 . S
C589 C594 1.363 . S
C590 H567 0.950 . S
C590 C589 1.397 . S
C590 C591 1.334 . S
C591 H568 0.950 . S
C591 C590 1.334 . S
C591 C592 1.287 . S
C592 C591 1.287 . S
C592 C593 1.524 . S
C592 H611 0.913 . S
C593 H569 0.950 . S
C593 C592 1.524 . S
C593 C594 1.415 . S
C594 H570 0.950 . S
C594 C589 1.363 . S
C594 C593 1.415 . S
C595 H571 0.951 . S
C595 C596 1.366 . S
C595 C597 1.388 . S
C596 C595 1.366 . S
C596 C600 1.385 . S
C597 H572 0.951 . S
C597 C595 1.388 . S
C597 C598 1.366 . S
C598 C597 1.366 . S
C598 C599 1.414 . S
C598 C601 1.499 . S
C599 H573 0.950 . S
C599 C598 1.414 . S
C599 C600 1.374 . S
C600 H574 0.950 . S
C600 C596 1.385 . S
C600 C599 1.374 . S
C601 C598 1.499 . S
C601 C602 1.373 1_545 S
C601 C603 1.389 . S
C602 H575 0.950 . S
C602 C588 1.377 . S
C602 C601 1.373 1_565 S
C603 C587 1.377 . S
C603 C601 1.389 . S
C603 C604 1.524 . S
C604 C603 1.524 . S
C604 C605 1.397 . S
C604 C609 1.363 . S
C605 H576 0.950 . S
C605 C604 1.397 . S
C605 C606 1.334 . S
C606 H577 0.950 . S
C606 C605 1.334 . S
C606 C607 1.287 . S
C607 C606 1.287 . S
C607 C608 1.524 . S
C607 H610 0.999 . S
C608 H578 0.950 . S
C608 C607 1.524 . S
C608 C609 1.415 . S
C609 H579 0.950 . S
C609 C604 1.363 . S
C609 C608 1.415 . S
H610 C607 0.999 . S
H611 C592 0.913 . S
H612 C630 0.951 . S
H613 C632 0.951 . S
H614 C634 0.950 . S
H615 C635 0.950 . S
H616 C637 0.950 . S
H617 C640 0.950 . S
H618 C641 0.950 . S
H619 C643 0.950 . S
H620 C644 0.950 1_545 S
H621 C645 0.951 . S
H622 C647 0.951 . S
H623 C649 0.950 . S
H624 C650 0.950 . S
H625 C652 0.950 . S
H626 C655 0.950 . S
H627 C656 0.950 . S
H628 C658 0.950 . S
H629 C659 0.950 1_565 S
C630 H612 0.951 . S
C630 C631 1.366 . S
C630 C632 1.388 . S
C631 C630 1.366 . S
C631 C635 1.385 . S
C632 H613 0.951 . S
C632 C630 1.388 . S
C632 C633 1.366 . S
C633 C632 1.366 . S
C633 C634 1.414 . S
C633 C636 1.499 . S
C634 H614 0.950 . S
C634 C633 1.414 . S
C634 C635 1.374 . S
C635 H615 0.950 . S
C635 C631 1.385 . S
C635 C634 1.374 . S
C636 C633 1.499 . S
C636 C637 1.373 . S
C636 C638 1.389 . S
C637 H616 0.950 . S
C637 C636 1.373 . S
C637 C653 1.377 1_565 S
C638 C636 1.389 . S
C638 C639 1.524 . S
C638 C652 1.377 1_565 S
C639 C638 1.524 . S
C639 C640 1.397 . S
C639 C644 1.363 . S
C640 H617 0.950 . S
C640 C639 1.397 . S
C640 C641 1.334 . S
C641 H618 0.950 . S
C641 C640 1.334 . S
C641 C642 1.287 1_655 S
C642 C641 1.287 1_455 S
C642 C643 1.524 . S
C642 H661 0.913 . S
C643 H619 0.950 . S
C643 C642 1.524 . S
C643 C644 1.415 1_455 S
C644 H620 0.950 1_565 S
C644 C639 1.363 . S
C644 C643 1.415 1_655 S
C645 H621 0.951 . S
C645 C646 1.366 . S
C645 C647 1.388 . S
C646 C645 1.366 . S
C646 C650 1.385 . S
C647 H622 0.951 . S
C647 C645 1.388 . S
C647 C648 1.366 . S
C648 C647 1.366 . S
C648 C649 1.414 . S
C648 C651 1.499 . S
C649 H623 0.950 . S
C649 C648 1.414 . S
C649 C650 1.374 . S
C650 H624 0.950 . S
C650 C646 1.385 . S
C650 C649 1.374 . S
C651 C648 1.499 . S
C651 C652 1.373 . S
C651 C653 1.389 . S
C652 H625 0.950 . S
C652 C638 1.377 1_545 S
C652 C651 1.373 . S
C653 C637 1.377 1_545 S
C653 C651 1.389 . S
C653 C654 1.524 . S
C654 C653 1.524 . S
C654 C655 1.397 . S
C654 C659 1.363 . S
C655 H626 0.950 . S
C655 C654 1.397 . S
C655 C656 1.334 . S
C656 H627 0.950 . S
C656 C655 1.334 . S
C656 C657 1.287 . S
C657 C656 1.287 . S
C657 C658 1.524 . S
C657 H660 0.999 . S
C658 H628 0.950 . S
C658 C657 1.524 . S
C658 C659 1.415 . S
C659 H629 0.950 1_545 S
C659 C654 1.363 . S
C659 C658 1.415 . S
H660 C657 0.999 . S
H661 C642 0.913 . S
H662 C680 0.951 . S
H663 C682 0.951 . S
H664 C684 0.940 1_545 S
H665 C685 0.950 . S
H666 C687 0.950 . S
H667 C690 0.950 . S
H668 C691 0.950 . S
H669 C693 0.950 . S
H670 C694 0.950 . S
H671 C695 0.951 . S
H672 C697 0.951 . S
H673 C699 0.940 1_565 S
H674 C700 0.950 . S
H675 C702 0.950 . S
H676 C705 0.950 . S
H677 C706 0.950 . S
H678 C708 0.950 . S
H679 C709 0.950 . S
C680 H662 0.951 . S
C680 C681 1.366 . S
C680 C682 1.388 . S
C681 C680 1.366 . S
C681 C685 1.385 . S
C682 H663 0.951 . S
C682 C680 1.388 . S
C682 C683 1.366 . S
C683 C682 1.366 . S
C683 C684 1.414 . S
C683 C686 1.499 . S
C684 H664 0.940 1_565 S
C684 C683 1.414 . S
C684 C685 1.374 . S
C685 H665 0.950 . S
C685 C681 1.385 . S
C685 C684 1.374 . S
C686 C683 1.499 . S
C686 C687 1.373 1_565 S
C686 C688 1.389 . S
C687 H666 0.950 . S
C687 C686 1.373 1_545 S
C687 C703 1.377 . S
C688 C686 1.389 . S
C688 C689 1.524 . S
C688 C702 1.377 . S
C689 C688 1.524 . S
C689 C690 1.397 . S
C689 C694 1.363 . S
C690 H667 0.950 . S
C690 C689 1.397 . S
C690 C691 1.334 . S
C691 H668 0.950 . S
C691 C690 1.334 . S
C691 C692 1.287 . S
C692 C691 1.287 . S
C692 C693 1.524 . S
C692 H711 0.913 . S
C693 H669 0.950 . S
C693 C692 1.524 . S
C693 C694 1.415 . S
C694 H670 0.950 . S
C694 C689 1.363 . S
C694 C693 1.415 . S
C695 H671 0.951 . S
C695 C696 1.366 . S
C695 C697 1.388 . S
C696 C695 1.366 . S
C696 C700 1.385 . S
C697 H672 0.951 . S
C697 C695 1.388 . S
C697 C698 1.366 . S
C698 C697 1.366 . S
C698 C699 1.414 . S
C698 C701 1.499 . S
C699 H673 0.940 1_545 S
C699 C698 1.414 . S
C699 C700 1.374 . S
C700 H674 0.950 . S
C700 C696 1.385 . S
C700 C699 1.374 . S
C701 C698 1.499 . S
C701 C702 1.373 1_545 S
C701 C703 1.389 . S
C702 H675 0.950 . S
C702 C688 1.377 . S
C702 C701 1.373 1_565 S
C703 C687 1.377 . S
C703 C701 1.389 . S
C703 C704 1.524 . S
C704 C703 1.524 . S
C704 C705 1.397 . S
C704 C709 1.363 . S
C705 H676 0.950 . S
C705 C704 1.397 . S
C705 C706 1.334 . S
C706 H677 0.950 . S
C706 C705 1.334 . S
C706 C707 1.287 . S
C707 C706 1.287 . S
C707 C708 1.524 . S
C707 H710 0.999 . S
C708 H678 0.950 . S
C708 C707 1.524 . S
C708 C709 1.415 . S
C709 H679 0.950 . S
C709 C704 1.363 . S
C709 C708 1.415 . S
H710 C707 0.999 . S
H711 C692 0.913 . S
H712 C730 0.951 . S
H713 C732 0.951 . S
H714 C734 0.950 . S
H715 C735 0.950 . S
H716 C737 0.950 . S
H717 C740 0.950 . S
H718 C741 0.950 . S
H719 C743 0.950 . S
H720 C744 0.950 . S
H721 C745 0.951 . S
H722 C747 0.951 . S
H723 C749 0.950 . S
H724 C750 0.950 . S
H725 C752 0.950 . S
H726 C755 0.950 . S
H727 C756 0.950 . S
H728 C758 0.950 . S
H729 C759 0.950 . S
C730 H712 0.951 . S
C730 C731 1.366 . S
C730 C732 1.388 . S
C731 C730 1.366 . S
C731 C735 1.385 . S
C732 H713 0.951 . S
C732 C730 1.388 . S
C732 C733 1.366 . S
C733 C732 1.366 . S
C733 C734 1.414 . S
C733 C736 1.499 . S
C734 H714 0.950 . S
C734 C733 1.414 . S
C734 C735 1.374 . S
C735 H715 0.950 . S
C735 C731 1.385 . S
C735 C734 1.374 . S
C736 C733 1.499 . S
C736 C737 1.373 1_554 S
C736 C738 1.389 . S
C737 H716 0.950 . S
C737 C736 1.373 1_556 S
C737 C753 1.377 1_565 S
C738 C736 1.389 . S
C738 C739 1.524 . S
C738 C752 1.377 1_565 S
C739 C738 1.524 . S
C739 C740 1.397 . S
C739 C744 1.363 . S
C740 H717 0.950 . S
C740 C739 1.397 . S
C740 C741 1.334 . S
C741 H718 0.950 . S
C741 C740 1.334 . S
C741 C742 1.287 . S
C742 C741 1.287 . S
C742 C743 1.524 . S
C742 H761 0.913 . S
C743 H719 0.950 . S
C743 C742 1.524 . S
C743 C744 1.415 . S
C744 H720 0.950 . S
C744 C739 1.363 . S
C744 C743 1.415 . S
C745 H721 0.951 . S
C745 C746 1.366 . S
C745 C747 1.388 . S
C746 C745 1.366 . S
C746 C750 1.385 . S
C747 H722 0.951 . S
C747 C745 1.388 . S
C747 C748 1.366 . S
C748 C747 1.366 . S
C748 C749 1.414 . S
C748 C751 1.499 . S
C749 H723 0.950 . S
C749 C748 1.414 . S
C749 C750 1.374 . S
C750 H724 0.950 . S
C750 C746 1.385 . S
C750 C749 1.374 . S
C751 C748 1.499 . S
C751 C752 1.373 . S
C751 C753 1.389 1_554 S
C752 H725 0.950 . S
C752 C738 1.377 1_545 S
C752 C751 1.373 . S
C753 C737 1.377 1_545 S
C753 C751 1.389 1_556 S
C753 C754 1.524 . S
C754 C753 1.524 . S
C754 C755 1.397 . S
C754 C759 1.363 . S
C755 H726 0.950 . S
C755 C754 1.397 . S
C755 C756 1.334 . S
C756 H727 0.950 . S
C756 C755 1.334 . S
C756 C757 1.287 . S
C757 C756 1.287 . S
C757 C758 1.524 . S
C757 H760 0.999 . S
C758 H728 0.950 . S
C758 C757 1.524 . S
C758 C759 1.415 . S
C759 H729 0.950 . S
C759 C754 1.363 . S
C759 C758 1.415 . S
H760 C757 0.999 . S
H761 C742 0.913 . S
H762 C780 0.951 . S
H763 C782 0.951 . S
H764 C784 0.950 . S
H765 C785 0.950 . S
H766 C787 0.950 . S
H767 C790 0.950 . S
H768 C791 0.950 . S
H769 C793 0.950 . S
H770 C794 0.950 . S
H771 C795 0.951 . S
H772 C797 0.951 . S
H773 C799 0.950 . S
H774 C800 0.950 . S
H775 C802 0.950 . S
H776 C805 0.950 . S
H777 C806 0.950 . S
H778 C808 0.950 . S
H779 C809 0.950 . S
C780 H762 0.951 . S
C780 C781 1.366 . S
C780 C782 1.388 . S
C781 C780 1.366 . S
C781 C785 1.385 . S
C782 H763 0.951 . S
C782 C780 1.388 . S
C782 C783 1.366 . S
C783 C782 1.366 . S
C783 C784 1.414 . S
C783 C786 1.499 . S
C784 H764 0.950 . S
C784 C783 1.414 . S
C784 C785 1.374 . S
C785 H765 0.950 . S
C785 C781 1.385 . S
C785 C784 1.374 . S
C786 C783 1.499 . S
C786 C787 1.373 . S
C786 C788 1.389 . S
C787 H766 0.950 . S
C787 C786 1.373 . S
C787 C803 1.377 1_565 S
C788 C786 1.389 . S
C788 C789 1.524 . S
C788 C802 1.377 1_565 S
C789 C788 1.524 . S
C789 C790 1.397 . S
C789 C794 1.363 1_565 S
C790 H767 0.950 . S
C790 C789 1.397 . S
C790 C791 1.334 . S
C791 H768 0.950 . S
C791 C790 1.334 . S
C791 C792 1.287 . S
C792 C791 1.287 . S
C792 C793 1.524 1_565 S
C792 H811 0.913 . S
C793 H769 0.950 . S
C793 C792 1.524 1_545 S
C793 C794 1.415 . S
C794 H770 0.950 . S
C794 C789 1.363 1_545 S
C794 C793 1.415 . S
C795 H771 0.951 . S
C795 C796 1.366 . S
C795 C797 1.388 . S
C796 C795 1.366 . S
C796 C800 1.385 . S
C797 H772 0.951 . S
C797 C795 1.388 . S
C797 C798 1.366 . S
C798 C797 1.366 . S
C798 C799 1.414 . S
C798 C801 1.499 . S
C799 H773 0.950 . S
C799 C798 1.414 . S
C799 C800 1.374 . S
C800 H774 0.950 . S
C800 C796 1.385 . S
C800 C799 1.374 . S
C801 C798 1.499 . S
C801 C802 1.373 . S
C801 C803 1.389 . S
C802 H775 0.950 . S
C802 C788 1.377 1_545 S
C802 C801 1.373 . S
C803 C787 1.377 1_545 S
C803 C801 1.389 . S
C803 C804 1.524 . S
C804 C803 1.524 . S
C804 C805 1.397 . S
C804 C809 1.363 1_545 S
C805 H776 0.950 . S
C805 C804 1.397 . S
C805 C806 1.334 . S
C806 H777 0.950 . S
C806 C805 1.334 . S
C806 C807 1.287 . S
C807 C806 1.287 . S
C807 C808 1.524 1_545 S
C807 H810 0.999 . S
C808 H778 0.950 . S
C808 C807 1.524 1_565 S
C808 C809 1.415 . S
C809 H779 0.950 . S
C809 C804 1.363 1_565 S
C809 C808 1.415 . S
H810 C807 0.999 . S
H811 C792 0.913 . S
H812 C830 0.951 1_556 S
H813 C832 0.951 1_656 S
H814 C834 0.950 . S
H815 C835 0.950 . S
H816 C837 0.950 . S
H817 C840 0.950 1_455 S
H818 C841 0.950 . S
H819 C843 0.950 . S
H820 C844 0.950 . S
H821 C845 0.951 . S
H822 C847 0.951 1_455 S
H823 C849 0.950 1_556 S
H824 C850 0.950 1_556 S
H825 C852 0.950 . S
H826 C855 0.950 1_655 S
H827 C856 0.950 . S
H828 C858 0.950 . S
H829 C859 0.950 . S
C830 H812 0.951 1_554 S
C830 C831 1.366 . S
C830 C832 1.388 . S
C831 C830 1.366 . S
C831 C835 1.385 . S
C832 H813 0.951 1_454 S
C832 C830 1.388 . S
C832 C833 1.366 . S
C833 C832 1.366 . S
C833 C834 1.414 . S
C833 C836 1.499 . S
C834 H814 0.950 . S
C834 C833 1.414 . S
C834 C835 1.374 . S
C835 H815 0.950 . S
C835 C831 1.385 . S
C835 C834 1.374 . S
C836 C833 1.499 . S
C836 C837 1.373 1_554 S
C836 C838 1.389 1_455 S
C837 H816 0.950 . S
C837 C836 1.373 1_556 S
C837 C853 1.377 . S
C838 C836 1.389 1_655 S
C838 C839 1.524 . S
C838 C852 1.377 . S
C839 C838 1.524 . S
C839 C840 1.397 . S
C839 C844 1.363 . S
C840 H817 0.950 1_655 S
C840 C839 1.397 . S
C840 C841 1.334 . S
C841 H818 0.950 . S
C841 C840 1.334 . S
C841 C842 1.287 . S
C842 C841 1.287 . S
C842 C843 1.524 . S
C842 H861 0.913 . S
C843 H819 0.950 . S
C843 C842 1.524 . S
C843 C844 1.415 . S
C844 H820 0.950 . S
C844 C839 1.363 . S
C844 C843 1.415 . S
C845 H821 0.951 . S
C845 C846 1.366 . S
C845 C847 1.388 . S
C846 C845 1.366 . S
C846 C850 1.385 . S
C847 H822 0.951 1_655 S
C847 C845 1.388 . S
C847 C848 1.366 . S
C848 C847 1.366 . S
C848 C849 1.414 . S
C848 C851 1.499 . S
C849 H823 0.950 1_554 S
C849 C848 1.414 . S
C849 C850 1.374 . S
C850 H824 0.950 1_554 S
C850 C846 1.385 . S
C850 C849 1.374 . S
C851 C848 1.499 . S
C851 C852 1.373 . S
C851 C853 1.389 1_654 S
C852 H825 0.950 . S
C852 C838 1.377 . S
C852 C851 1.373 . S
C853 C837 1.377 . S
C853 C851 1.389 1_456 S
C853 C854 1.524 . S
C854 C853 1.524 . S
C854 C855 1.397 . S
C854 C859 1.363 . S
C855 H826 0.950 1_455 S
C855 C854 1.397 . S
C855 C856 1.334 . S
C856 H827 0.950 . S
C856 C855 1.334 . S
C856 C857 1.287 . S
C857 C856 1.287 . S
C857 C858 1.524 . S
C857 H860 0.999 . S
C858 H828 0.950 . S
C858 C857 1.524 . S
C858 C859 1.415 . S
C859 H829 0.950 . S
C859 C854 1.363 . S
C859 C858 1.415 . S
H860 C857 0.999 . S
H861 C842 0.913 . S
H862 C880 0.951 . S
H863 C882 0.951 . S
H864 C884 0.950 1_655 S
H865 C885 0.950 . S
H866 C887 0.950 . S
H867 C890 0.950 . S
H868 C891 0.950 . S
H869 C893 0.950 . S
H870 C894 0.950 . S
H871 C895 0.951 . S
H872 C897 0.951 . S
H873 C899 0.950 1_455 S
H874 C900 0.950 . S
H875 C902 0.950 . S
H876 C905 0.950 . S
H877 C906 0.950 . S
H878 C908 0.950 . S
H879 C909 0.950 . S
C880 H862 0.951 . S
C880 C881 1.366 . S
C880 C882 1.388 . S
C881 C880 1.366 . S
C881 C885 1.385 . S
C882 H863 0.951 . S
C882 C880 1.388 . S
C882 C883 1.366 . S
C883 C882 1.366 . S
C883 C884 1.414 . S
C883 C886 1.499 . S
C884 H864 0.950 1_455 S
C884 C883 1.414 . S
C884 C885 1.374 . S
C885 H865 0.950 . S
C885 C881 1.385 . S
C885 C884 1.374 . S
C886 C883 1.499 . S
C886 C887 1.373 1_455 S
C886 C888 1.389 . S
C887 H866 0.950 . S
C887 C886 1.373 1_655 S
C887 C903 1.377 . S
C888 C886 1.389 . S
C888 C889 1.524 . S
C888 C902 1.377 . S
C889 C888 1.524 . S
C889 C890 1.397 . S
C889 C894 1.363 . S
C890 H867 0.950 . S
C890 C889 1.397 . S
C890 C891 1.334 . S
C891 H868 0.950 . S
C891 C890 1.334 . S
C891 C892 1.287 . S
C892 C891 1.287 . S
C892 C893 1.524 . S
C892 H911 0.913 . S
C893 H869 0.950 . S
C893 C892 1.524 . S
C893 C894 1.415 . S
C894 H870 0.950 . S
C894 C889 1.363 . S
C894 C893 1.415 . S
C895 H871 0.951 . S
C895 C896 1.366 . S
C895 C897 1.388 . S
C896 C895 1.366 . S
C896 C900 1.385 . S
C897 H872 0.951 . S
C897 C895 1.388 . S
C897 C898 1.366 . S
C898 C897 1.366 . S
C898 C899 1.414 . S
C898 C901 1.499 . S
C899 H873 0.950 1_655 S
C899 C898 1.414 . S
C899 C900 1.374 . S
C900 H874 0.950 . S
C900 C896 1.385 . S
C900 C899 1.374 . S
C901 C898 1.499 . S
C901 C902 1.373 1_655 S
C901 C903 1.389 . S
C902 H875 0.950 . S
C902 C888 1.377 . S
C902 C901 1.373 1_455 S
C903 C887 1.377 . S
C903 C901 1.389 . S
C903 C904 1.524 . S
C904 C903 1.524 . S
C904 C905 1.397 . S
C904 C909 1.363 . S
C905 H876 0.950 . S
C905 C904 1.397 . S
C905 C906 1.334 . S
C906 H877 0.950 . S
C906 C905 1.334 . S
C906 C907 1.287 . S
C907 C906 1.287 . S
C907 C908 1.524 . S
C907 H910 0.999 . S
C908 H878 0.950 . S
C908 C907 1.524 . S
C908 C909 1.415 . S
C909 H879 0.950 . S
C909 C904 1.363 . S
C909 C908 1.415 . S
H910 C907 0.999 . S
H911 C892 0.913 . S
C131 C74 1.483 . S
C146 C4 1.483 . S
C181 C60 1.483 . S
C196 C18 1.483 . S
C231 C102 1.483 . S
C246 C32 1.483 . S
C281 C88 1.483 . S
C296 C46 1.483 . S
C331 C12 1.367 . S
C346 C40 1.367 . S
C381 C26 1.367 . S
C396 C54 1.367 . S
C431 C19 1.217 . S
C446 C47 1.219 . S
C481 C5 1.219 . S
C496 C33 1.217 . S
C531 C68 1.367 . S
C546 C96 1.367 . S
C581 C110 1.367 . S
C596 C82 1.367 . S
C631 C103 1.219 . S
C646 C75 1.217 . S
C681 C61 1.217 . S
C696 C89 1.219 . S
C731 C25 1.511 . S
C746 C11 1.510 . S
C781 C39 1.510 . S
C796 C53 1.511 . S
C831 C67 1.511 . S
C846 C81 1.510 . S
C881 C95 1.510 . S
C896 C109 1.511 . S
