# Generated by pormake.
# Topology wlk, (5)-cn, num edge types: 1
# Building blocks:
#     Node 0, Type 0, BuildingBlock: XOMCOT_clean_sbu_0, # of connection points: 5
#     Node 1, Type 0, BuildingBlock: XOMCOT_clean_sbu_0, # of connection points: 5
#     Node 2, Type 0, BuildingBlock: XOMCOT_clean_sbu_0, # of connection points: 5
#     Node 3, Type 0, BuildingBlock: XOMCOT_clean_sbu_0, # of connection points: 5
#     Node 4, Type 0, BuildingBlock: XOMCOT_clean_sbu_0, # of connection points: 5
#     Node 5, Type 0, BuildingBlock: XOMCOT_clean_sbu_0, # of connection points: 5
#     Node 6, Type 0, BuildingBlock: XOMCOT_clean_sbu_0, # of connection points: 5
#     Node 7, Type 0, BuildingBlock: XOMCOT_clean_sbu_0, # of connection points: 5
#     Node 8, Type 0, BuildingBlock: XOMCOT_clean_sbu_0, # of connection points: 5
#     Node 9, Type 0, BuildingBlock: XOMCOT_clean_sbu_0, # of connection points: 5
#     Node 10, Type 0, BuildingBlock: XOMCOT_clean_sbu_0, # of connection points: 5
#     Node 11, Type 0, BuildingBlock: XOMCOT_clean_sbu_0, # of connection points: 5
#     Node 12, Type 0, BuildingBlock: XOMCOT_clean_sbu_0, # of connection points: 5
#     Node 13, Type 0, BuildingBlock: XOMCOT_clean_sbu_0, # of connection points: 5
#     Node 14, Type 0, BuildingBlock: XOMCOT_clean_sbu_0, # of connection points: 5
#     Node 15, Type 0, BuildingBlock: XOMCOT_clean_sbu_0, # of connection points: 5
#     Node 16, Type 0, BuildingBlock: XOMCOT_clean_sbu_0, # of connection points: 5
#     Node 17, Type 0, BuildingBlock: XOMCOT_clean_sbu_0, # of connection points: 5
#     Edge 18, Type (0, 0), BuildingBlock: XIVTED_clean_linker_0, # of connection points: 2
#     Edge 19, Type (0, 0), BuildingBlock: XIVTED_clean_linker_0, # of connection points: 2
#     Edge 20, Type (0, 0), BuildingBlock: XIVTED_clean_linker_0, # of connection points: 2
#     Edge 21, Type (0, 0), BuildingBlock: XIVTED_clean_linker_0, # of connection points: 2
#     Edge 22, Type (0, 0), BuildingBlock: XIVTED_clean_linker_0, # of connection points: 2
#     Edge 23, Type (0, 0), BuildingBlock: XIVTED_clean_linker_0, # of connection points: 2
#     Edge 24, Type (0, 0), BuildingBlock: XIVTED_clean_linker_0, # of connection points: 2
#     Edge 25, Type (0, 0), BuildingBlock: XIVTED_clean_linker_0, # of connection points: 2
#     Edge 26, Type (0, 0), BuildingBlock: XIVTED_clean_linker_0, # of connection points: 2
#     Edge 27, Type (0, 0), BuildingBlock: XIVTED_clean_linker_0, # of connection points: 2
#     Edge 28, Type (0, 0), BuildingBlock: XIVTED_clean_linker_0, # of connection points: 2
#     Edge 29, Type (0, 0), BuildingBlock: XIVTED_clean_linker_0, # of connection points: 2
#     Edge 30, Type (0, 0), BuildingBlock: XIVTED_clean_linker_0, # of connection points: 2
#     Edge 31, Type (0, 0), BuildingBlock: XIVTED_clean_linker_0, # of connection points: 2
#     Edge 32, Type (0, 0), BuildingBlock: XIVTED_clean_linker_0, # of connection points: 2
#     Edge 33, Type (0, 0), BuildingBlock: XIVTED_clean_linker_0, # of connection points: 2
#     Edge 34, Type (0, 0), BuildingBlock: XIVTED_clean_linker_0, # of connection points: 2
#     Edge 35, Type (0, 0), BuildingBlock: XIVTED_clean_linker_0, # of connection points: 2
#     Edge 36, Type (0, 0), BuildingBlock: XIVTED_clean_linker_0, # of connection points: 2
#     Edge 37, Type (0, 0), BuildingBlock: XIVTED_clean_linker_0, # of connection points: 2
#     Edge 38, Type (0, 0), BuildingBlock: XIVTED_clean_linker_0, # of connection points: 2
#     Edge 39, Type (0, 0), BuildingBlock: XIVTED_clean_linker_0, # of connection points: 2
#     Edge 40, Type (0, 0), BuildingBlock: XIVTED_clean_linker_0, # of connection points: 2
#     Edge 41, Type (0, 0), BuildingBlock: XIVTED_clean_linker_0, # of connection points: 2
#     Edge 42, Type (0, 0), BuildingBlock: XIVTED_clean_linker_0, # of connection points: 2
#     Edge 43, Type (0, 0), BuildingBlock: XIVTED_clean_linker_0, # of connection points: 2
#     Edge 44, Type (0, 0), BuildingBlock: XIVTED_clean_linker_0, # of connection points: 2
#     Edge 45, Type (0, 0), BuildingBlock: XIVTED_clean_linker_0, # of connection points: 2
#     Edge 46, Type (0, 0), BuildingBlock: XIVTED_clean_linker_0, # of connection points: 2
#     Edge 47, Type (0, 0), BuildingBlock: XIVTED_clean_linker_0, # of connection points: 2
#     Edge 48, Type (0, 0), BuildingBlock: XIVTED_clean_linker_0, # of connection points: 2
#     Edge 49, Type (0, 0), BuildingBlock: XIVTED_clean_linker_0, # of connection points: 2
#     Edge 50, Type (0, 0), BuildingBlock: XIVTED_clean_linker_0, # of connection points: 2
#     Edge 51, Type (0, 0), BuildingBlock: XIVTED_clean_linker_0, # of connection points: 2
#     Edge 52, Type (0, 0), BuildingBlock: XIVTED_clean_linker_0, # of connection points: 2
#     Edge 53, Type (0, 0), BuildingBlock: XIVTED_clean_linker_0, # of connection points: 2
#     Edge 54, Type (0, 0), BuildingBlock: XIVTED_clean_linker_0, # of connection points: 2
#     Edge 55, Type (0, 0), BuildingBlock: XIVTED_clean_linker_0, # of connection points: 2
#     Edge 56, Type (0, 0), BuildingBlock: XIVTED_clean_linker_0, # of connection points: 2
#     Edge 57, Type (0, 0), BuildingBlock: XIVTED_clean_linker_0, # of connection points: 2
#     Edge 58, Type (0, 0), BuildingBlock: XIVTED_clean_linker_0, # of connection points: 2
#     Edge 59, Type (0, 0), BuildingBlock: XIVTED_clean_linker_0, # of connection points: 2
#     Edge 60, Type (0, 0), BuildingBlock: XIVTED_clean_linker_0, # of connection points: 2
#     Edge 61, Type (0, 0), BuildingBlock: XIVTED_clean_linker_0, # of connection points: 2
#     Edge 62, Type (0, 0), BuildingBlock: XIVTED_clean_linker_0, # of connection points: 2
# Relax obj value: 0.215
# Max RMSD: 0.254
# Mean RMSD: 0.254
data_MOF--net-wlk--node1-XOMCOT_clean_sbu_0--edge1-XIVTED_clean_linker_0
_symmetry_space_group_name_H-M    P1
_symmetry_Int_Tables_number       1
_symmetry_cell_setting            triclinic
loop_
_symmetry_equiv_pos_as_xyz
'x, y, z'
_cell_length_a     65.408303
_cell_length_b     65.388784
_cell_length_c     28.511847
_cell_angle_alpha  90.018568
_cell_angle_beta   90.008042
_cell_angle_gamma 120.01934
loop_
_atom_site_label
_atom_site_type_symbol
_atom_site_fract_x
_atom_site_fract_y
_atom_site_fract_z
_atom_type_partial_charge
Co0 Co 0.20989 0.27651 0.09713 0.0
C1 C 0.21549 0.23888 0.04918 0.0
C2 C 0.19392 0.24887 0.00986 0.0
C3 C 0.19669 0.23258 0.98412 0.0
N4 N 0.20565 0.25282 0.05079 0.0
N5 N 0.2102 0.2263 0.009 0.0
H6 H 0.22734 0.23879 0.07533 0.0
H7 H 0.1847 0.25787 0.99858 0.0
C8 C 0.16406 0.27868 0.09272 0.0
O9 O 0.17257 0.29761 0.11907 0.0
N10 N 0.21498 0.30044 0.14352 0.0
C11 C 0.23391 0.32238 0.14502 0.0
C12 C 0.23254 0.33369 0.1844 0.0
C13 C 0.20307 0.29828 0.18375 0.0
N14 N 0.21293 0.31872 0.20855 0.0
C15 C 0.24531 0.30362 0.03094 0.0
C16 C 0.23212 0.33691 0.01234 0.0
C17 C 0.25425 0.34104 0.99714 0.0
C18 C 0.2604 0.3237 0.00528 0.0
C19 C 0.21758 0.31659 0.03858 0.0
N20 N 0.22474 0.30074 0.04913 0.0
H21 H 0.25083 0.29092 0.03854 0.0
H22 H 0.20148 0.31461 0.0528 0.0
H23 H 0.24809 0.32965 0.11967 0.0
H24 H 0.18702 0.28235 0.1935 0.0
O25 O 0.238 0.27779 0.1208 0.0
O26 O 0.20179 0.25353 0.14733 0.0
O27 O 0.17681 0.2698 0.08043 0.0
C28 C 0.22443 0.26148 0.15022 0.0
H29 H 0.18964 0.22616 0.94945 0.0
H30 H 0.24526 0.35158 0.19449 0.0
H31 H 0.22673 0.3499 0.00641 0.0
H32 H 0.27712 0.32601 0.99315 0.0
Co33 Co 0.74535 0.9406 0.09006 0.0
C34 C 0.77455 0.98163 0.02747 0.0
C35 C 0.78876 0.95857 0.03244 0.0
C36 C 0.80463 0.97857 0.00859 0.0
N37 N 0.76941 0.96002 0.04345 0.0
N38 N 0.79578 0.99319 0.00592 0.0
H39 H 0.76397 0.9897 0.03468 0.0
H40 H 0.79247 0.94517 0.0448 0.0
C41 C 0.75286 0.90427 0.04302 0.0
O42 O 0.748 0.91139 0.00364 0.0
N43 N 0.72234 0.9221 0.13759 0.0
C44 C 0.70217 0.92221 0.14648 0.0
C45 C 0.69006 0.90605 0.18127 0.0
C46 C 0.72242 0.90611 0.16743 0.0
N47 N 0.70275 0.89589 0.19438 0.0
C48 C 0.71595 0.94206 0.01783 0.0
C49 C 0.68243 0.89451 0.01944 0.0
C50 C 0.67762 0.91024 0.99529 0.0
C51 C 0.69485 0.9341 0.99356 0.0
C52 C 0.70383 0.90327 0.04371 0.0
N53 N 0.7202 0.92692 0.04331 0.0
H54 H 0.72793 0.96075 0.019 0.0
H55 H 0.70657 0.89127 0.06532 0.0
H56 H 0.6965 0.93305 0.12834 0.0
H57 H 0.7363 0.9017 0.16866 0.0
O58 O 0.74164 0.96694 0.10581 0.0
O59 O 0.76782 0.95948 0.13925 0.0
O60 O 0.75313 0.91435 0.08175 0.0
C61 C 0.75877 0.97327 0.13545 0.0
H62 H 0.8223 0.98299 0.99826 0.0
H63 H 0.67325 0.90221 0.19598 0.0
H64 H 0.66928 0.87595 0.02175 0.0
H65 H 0.69153 0.94672 0.97542 0.0
Co66 Co 0.08198 0.81044 0.08432 0.0
C67 C 0.04206 0.79996 0.01953 0.0
C68 C 0.06564 0.83708 0.0259 0.0
C69 C 0.046 0.83355 0.00142 0.0
N70 N 0.06364 0.81599 0.03648 0.0
N71 N 0.03103 0.81016 0.99788 0.0
H72 H 0.03362 0.78121 0.02615 0.0
H73 H 0.07908 0.85398 0.03911 0.0
C74 C 0.11931 0.85405 0.03931 0.0
O75 O 0.11252 0.84195 1e-05 0.0
N76 N 0.09923 0.80493 0.13329 0.0
C77 C 0.09789 0.78409 0.14254 0.0
C78 C 0.11326 0.78722 0.17836 0.0
C79 C 0.1152 0.82045 0.16401 0.0
N80 N 0.1242 0.81007 0.19182 0.0
C81 C 0.08206 0.78161 0.0085 0.0
C82 C 0.12873 0.79318 0.01839 0.0
C83 C 0.1139 0.77462 0.98869 0.0
C84 C 0.09056 0.76933 0.98272 0.0
C85 C 0.11968 0.80554 0.0426 0.0
N86 N 0.09639 0.7993 0.03848 0.0
H87 H 0.06354 0.77566 0.0065 0.0
H88 H 0.13109 0.81924 0.06687 0.0
H89 H 0.08676 0.7678 0.12392 0.0
H90 H 0.12046 0.83898 0.16526 0.0
O91 O 0.05507 0.78039 0.09778 0.0
O92 O 0.06248 0.81387 0.13212 0.0
O93 O 0.1087 0.84441 0.07779 0.0
C94 C 0.04851 0.79111 0.12719 0.0
H95 H 0.04201 0.84714 0.99138 0.0
H96 H 0.116 0.77361 0.19353 0.0
H97 H 0.14687 0.79759 0.02391 0.0
H98 H 0.07855 0.75478 0.96052 0.0
Co99 Co 0.8147 0.7419 0.90834 0.0
C100 C 0.80361 0.77175 0.97063 0.0
C101 C 0.84081 0.78586 0.96453 0.0
C102 C 0.83692 0.80203 0.98782 0.0
N103 N 0.81991 0.76637 0.95457 0.0
N104 N 0.81348 0.79325 0.99117 0.0
H105 H 0.78486 0.76101 0.96436 0.0
H106 H 0.85782 0.78946 0.9517 0.0
C107 C 0.85934 0.75009 0.95189 0.0
O108 O 0.84792 0.7455 0.99192 0.0
N109 N 0.80956 0.7186 0.86085 0.0
C110 C 0.7892 0.69834 0.85287 0.0
C111 C 0.79278 0.6862 0.81742 0.0
C112 C 0.8252 0.7187 0.82978 0.0
N113 N 0.81542 0.69896 0.80294 0.0
C114 C 0.78777 0.71422 0.98704 0.0
C115 C 0.80054 0.67989 0.97937 0.0
C116 C 0.78257 0.67645 0.01041 0.0
C117 C 0.77667 0.69414 0.01512 0.0
C118 C 0.81176 0.70064 0.9528 0.0
N119 N 0.80495 0.71731 0.95598 0.0
H120 H 0.78138 0.72646 0.9884 0.0
H121 H 0.82508 0.70272 0.92778 0.0
H122 H 0.77296 0.69264 0.87203 0.0
H123 H 0.84342 0.73268 0.82753 0.0
O124 O 0.78402 0.73725 0.89558 0.0
O125 O 0.81661 0.76358 0.85905 0.0
O126 O 0.84906 0.75033 0.91377 0.0
C127 C 0.79381 0.75404 0.86489 0.0
H128 H 0.85027 0.81984 0.99722 0.0
H129 H 0.77962 0.66935 0.80316 0.0
H130 H 0.80541 0.66643 0.97481 0.0
H131 H 0.76253 0.6918 0.03832 0.0
Co132 Co 0.28079 0.08088 0.90654 0.0
C133 C 0.24347 0.03564 0.94852 0.0
C134 C 0.24931 0.06565 0.98911 0.0
C135 C 0.233 0.04543 0.01205 0.0
N136 N 0.25586 0.05953 0.9491 0.0
N137 N 0.22938 0.0265 0.98655 0.0
H138 H 0.24508 0.02506 0.9214 0.0
H139 H 0.25659 0.08353 0.00184 0.0
C140 C 0.27982 0.12733 0.91043 0.0
O141 O 0.29951 0.13873 0.88662 0.0
N142 N 0.30587 0.10145 0.86369 0.0
C143 C 0.32834 0.1059 0.86536 0.0
C144 C 0.34044 0.11938 0.8273 0.0
C145 C 0.30427 0.11102 0.82276 0.0
N146 N 0.32541 0.12291 0.80074 0.0
C147 C 0.30501 0.07382 0.98118 0.0
C148 C 0.33773 0.12072 0.99826 0.0
C149 C 0.34033 0.10303 0.02016 0.0
C150 C 0.32335 0.07939 0.01259 0.0
C151 C 0.31864 0.11436 0.96792 0.0
N152 N 0.3031 0.09112 0.95836 0.0
H153 H 0.29291 0.05545 0.97339 0.0
H154 H 0.31756 0.12816 0.94975 0.0
H155 H 0.33543 0.09939 0.89193 0.0
H156 H 0.28815 0.11002 0.81044 0.0
O157 O 0.28539 0.05576 0.88425 0.0
O158 O 0.26026 0.06552 0.85305 0.0
O159 O 0.27127 0.10553 0.92132 0.0
C160 C 0.26998 0.0523 0.85197 0.0
H161 H 0.22515 0.04483 0.04579 0.0
H162 H 0.35885 0.1258 0.81955 0.0
H163 H 0.35064 0.13919 0.00355 0.0
H164 H 0.32493 0.0653 0.02901 0.0
Co165 Co 0.9451 0.20723 0.90615 0.0
C166 C 0.9863 0.21623 0.96553 0.0
C167 C 0.9602 0.1796 0.96607 0.0
C168 C 0.97979 0.18249 0.99003 0.0
N169 N 0.96385 0.20092 0.95174 0.0
N170 N 0.99616 0.20552 0.98922 0.0
H171 H 0.99593 0.23475 0.95649 0.0
H172 H 0.94535 0.16271 0.9566 0.0
C173 C 0.90654 0.16444 0.95249 0.0
O174 O 0.91365 0.17623 0.99209 0.0
N175 N 0.92735 0.21337 0.85948 0.0
C176 C 0.92887 0.23433 0.85094 0.0
C177 C 0.91338 0.23147 0.81552 0.0
C178 C 0.91116 0.19806 0.82888 0.0
N179 N 0.90222 0.20866 0.80152 0.0
C180 C 0.94904 0.23678 0.98374 0.0
C181 C 0.90293 0.22766 0.98247 0.0
C182 C 0.91922 0.24494 0.01288 0.0
C183 C 0.94237 0.24914 0.01384 0.0
C184 C 0.91022 0.21512 0.95362 0.0
N185 N 0.93314 0.21986 0.95425 0.0
H186 H 0.96737 0.24188 0.98264 0.0
H187 H 0.89762 0.20216 0.92956 0.0
H188 H 0.94022 0.2505 0.86973 0.0
H189 H 0.90625 0.17965 0.82652 0.0
O190 O 0.97249 0.23646 0.89017 0.0
O191 O 0.96246 0.20216 0.85612 0.0
O192 O 0.91749 0.17393 0.91426 0.0
C193 C 0.97746 0.22476 0.85998 0.0
H194 H 0.98252 0.16857 0.00356 0.0
H195 H 0.91034 0.24515 0.80188 0.0
H196 H 0.8849 0.22409 0.98064 0.0
H197 H 0.95558 0.26279 0.03614 0.0
Co198 Co 0.87892 0.61191 0.42531 0.0
C199 C 0.88132 0.57184 0.37944 0.0
C200 C 0.85946 0.58188 0.34137 0.0
C201 C 0.8608 0.56451 0.31644 0.0
N202 N 0.87246 0.58664 0.38084 0.0
N203 N 0.87451 0.55822 0.34055 0.0
H204 H 0.8934 0.5716 0.40491 0.0
H205 H 0.85031 0.59104 0.33052 0.0
C206 C 0.83226 0.61305 0.42688 0.0
O207 O 0.84144 0.63318 0.44953 0.0
N208 N 0.88572 0.63692 0.47013 0.0
C209 C 0.90477 0.65878 0.46959 0.0
C210 C 0.90419 0.67088 0.50853 0.0
C211 C 0.87455 0.63561 0.51088 0.0
N212 N 0.88499 0.65644 0.53434 0.0
C213 C 0.90702 0.63483 0.34579 0.0
C214 C 0.89608 0.67039 0.33744 0.0
C215 C 0.91416 0.67123 0.30978 0.0
C216 C 0.91912 0.65281 0.31329 0.0
C217 C 0.88389 0.65163 0.36879 0.0
N218 N 0.88989 0.63449 0.37368 0.0
H219 H 0.91223 0.62166 0.35013 0.0
H220 H 0.87096 0.65204 0.39119 0.0
H221 H 0.91833 0.66545 0.44289 0.0
H222 H 0.85862 0.61991 0.52205 0.0
O223 O 0.90888 0.61508 0.44067 0.0
O224 O 0.87534 0.59114 0.47752 0.0
O225 O 0.84474 0.60359 0.41644 0.0
C226 C 0.89808 0.59964 0.47353 0.0
H227 H 0.8526 0.55732 0.28288 0.0
H228 H 0.91712 0.68894 0.51712 0.0
H229 H 0.89182 0.6844 0.33569 0.0
H230 H 0.93318 0.65298 0.29288 0.0
Co231 Co 0.41472 0.27289 0.41957 0.0
C232 C 0.45194 0.31806 0.37772 0.0
C233 C 0.44785 0.28811 0.33924 0.0
C234 C 0.46457 0.30838 0.31701 0.0
N235 N 0.44003 0.29417 0.37763 0.0
N236 N 0.46714 0.32722 0.34136 0.0
H237 H 0.44884 0.32866 0.40252 0.0
H238 H 0.44143 0.27023 0.32729 0.0
C239 C 0.41242 0.22503 0.41158 0.0
O240 O 0.39194 0.21407 0.43291 0.0
N241 N 0.38932 0.25242 0.46187 0.0
C242 C 0.36708 0.24863 0.46106 0.0
C243 C 0.35485 0.23475 0.49866 0.0
C244 C 0.39068 0.24196 0.50174 0.0
N245 N 0.36962 0.23032 0.52401 0.0
C246 C 0.3905 0.28345 0.35087 0.0
C247 C 0.35593 0.23771 0.3302 0.0
C248 C 0.35254 0.25647 0.31709 0.0
C249 C 0.3708 0.27959 0.32528 0.0
C250 C 0.37615 0.24239 0.35572 0.0
N251 N 0.39235 0.26502 0.36828 0.0
H252 H 0.40344 0.30139 0.35996 0.0
H253 H 0.37747 0.2277 0.36861 0.0
H254 H 0.36023 0.25588 0.4355 0.0
H255 H 0.40657 0.24217 0.5131 0.0
O256 O 0.41211 0.29869 0.44516 0.0
O257 O 0.43569 0.28625 0.4733 0.0
O258 O 0.42234 0.24714 0.40225 0.0
C259 C 0.42738 0.30063 0.47646 0.0
H260 H 0.47401 0.30912 0.2853 0.0
H261 H 0.33657 0.22873 0.50702 0.0
H262 H 0.34232 0.21957 0.32401 0.0
H263 H 0.36922 0.29462 0.31444 0.0
Co264 Co 0.74555 0.1428 0.43059 0.0
C265 C 0.70315 0.13893 0.38153 0.0
C266 C 0.73531 0.16069 0.34407 0.0
C267 C 0.71667 0.15844 0.31751 0.0
N268 N 0.72686 0.14829 0.38416 0.0
N269 N 0.69651 0.14478 0.34123 0.0
H270 H 0.69073 0.12712 0.40713 0.0
H271 H 0.7537 0.16993 0.33389 0.0
C272 C 0.79314 0.18967 0.43096 0.0
O273 O 0.80415 0.18064 0.45386 0.0
N274 N 0.7637 0.1371 0.47742 0.0
C275 C 0.76699 0.11835 0.47938 0.0
C276 C 0.77972 0.12012 0.51914 0.0
C277 C 0.77334 0.1493 0.51736 0.0
N278 N 0.78394 0.13973 0.54277 0.0
C279 C 0.74106 0.11369 0.35323 0.0
C280 C 0.78762 0.12465 0.34689 0.0
C281 C 0.77058 0.10632 0.31935 0.0
C282 C 0.74717 0.1013 0.3219 0.0
C283 C 0.78083 0.13713 0.37701 0.0
N284 N 0.75766 0.13121 0.38082 0.0
H285 H 0.72263 0.10845 0.3568 0.0
H286 H 0.79403 0.15027 0.39927 0.0
H287 H 0.76065 0.10437 0.45358 0.0
H288 H 0.77304 0.16516 0.52697 0.0
O289 O 0.71888 0.11288 0.44678 0.0
O290 O 0.72783 0.14683 0.48121 0.0
O291 O 0.77118 0.17709 0.42066 0.0
C292 C 0.71387 0.12399 0.47835 0.0
H293 H 0.71782 0.16589 0.28307 0.0
H294 H 0.786 0.10824 0.52906 0.0
H295 H 0.8059 0.12894 0.34589 0.0
H296 H 0.73343 0.08705 0.30154 0.0
Co297 Co 0.48095 0.07343 0.23882 0.0
C298 C 0.47813 0.11317 0.28496 0.0
C299 C 0.49651 0.10045 0.32726 0.0
C300 C 0.49469 0.11759 0.35213 0.0
N301 N 0.48589 0.09746 0.28522 0.0
N302 N 0.4832 0.12556 0.32528 0.0
H303 H 0.46808 0.11504 0.25705 0.0
H304 H 0.50433 0.09028 0.33968 0.0
C305 C 0.52847 0.0743 0.23716 0.0
O306 O 0.52007 0.05489 0.21228 0.0
N307 N 0.47558 0.04958 0.19204 0.0
C308 C 0.45707 0.02735 0.19099 0.0
C309 C 0.45824 0.01639 0.15075 0.0
C310 C 0.48702 0.05221 0.15101 0.0
N311 N 0.47721 0.03195 0.12577 0.0
C312 C 0.45054 0.04743 0.31254 0.0
C313 C 0.46186 0.01205 0.31797 0.0
C314 C 0.44083 1.00853 0.33835 0.0
C315 C 0.43592 0.027 0.33752 0.0
C316 C 0.47614 0.03298 0.293 0.0
N317 N 0.46958 0.04973 0.28835 0.0
H318 H 0.44534 0.06067 0.30935 0.0
H319 H 0.49102 0.03448 0.27403 0.0
H320 H 0.44346 0.01962 0.21749 0.0
H321 H 0.50241 0.06854 0.14026 0.0
O322 O 0.45084 0.06935 0.2226 0.0
O323 O 0.48432 0.09515 0.18815 0.0
O324 O 0.51529 0.08269 0.24946 0.0
C325 C 0.46141 0.08574 0.19144 0.0
H326 H 0.501 0.12346 0.38743 0.0
H327 H 0.44632 0.99818 0.14122 0.0
H328 H 0.46622 0.99811 0.31819 0.0
H329 H 0.42003 0.02505 0.35359 0.0
Co330 Co 0.9431 0.4106 0.24497 0.0
C331 C 0.90706 0.36629 0.29234 0.0
C332 C 0.90689 0.39665 0.31995 0.0
C333 C 0.88988 0.37686 0.34302 0.0
N334 N 0.91756 0.39006 0.28767 0.0
N335 N 0.89014 0.35783 0.32565 0.0
H336 H 0.9117 0.35521 0.27228 0.0
H337 H 0.91142 0.41462 0.32726 0.0
C338 C 0.94142 0.45694 0.24109 0.0
O339 O 0.96153 0.46828 0.21857 0.0
N340 N 0.96834 0.43014 0.20154 0.0
C341 C 0.99096 0.4351 0.20403 0.0
C342 C 1.00301 0.44827 0.16546 0.0
C343 C 0.96663 0.43902 0.15987 0.0
N344 N 0.98776 0.451 0.13795 0.0
C345 C 0.96603 0.40645 0.32538 0.0
C346 C 1.00005 0.45352 0.33463 0.0
C347 C 1.00202 0.43656 0.36112 0.0
C348 C 0.98427 0.41291 0.35749 0.0
C349 C 0.98095 0.44634 0.30378 0.0
N350 N 0.96479 0.42291 0.29799 0.0
H351 H 0.9537 0.38789 0.32044 0.0
H352 H 0.98046 0.45948 0.28204 0.0
H353 H 0.99829 0.42958 0.232 0.0
H354 H 0.95034 0.43735 0.14667 0.0
O355 O 0.9486 0.3853 0.22961 0.0
O356 O 0.92345 0.39276 0.19167 0.0
O357 O 0.93286 0.43528 0.25327 0.0
C358 C 0.93313 0.37958 0.19634 0.0
H359 H 0.87871 0.37656 0.37133 0.0
H360 H 0.02173 0.45585 0.15903 0.0
H361 H 0.01352 0.47199 0.33663 0.0
H362 H 0.9853 0.39926 0.37711 0.0
Co363 Co 0.61558 0.53956 0.22397 0.0
C364 C 0.65512 0.5483 0.28914 0.0
C365 C 0.63133 0.51153 0.27757 0.0
C366 C 0.65047 0.5139 0.30205 0.0
N367 N 0.63375 0.53305 0.27026 0.0
N368 N 0.66558 0.53706 0.30901 0.0
H369 H 0.66416 0.56717 0.28416 0.0
H370 H 0.61763 0.49519 0.26267 0.0
C371 C 0.57878 0.49841 0.27602 0.0
O372 O 0.58833 0.5113 0.31371 0.0
N373 N 0.5982 0.54576 0.17654 0.0
C374 C 0.60058 0.56699 0.16689 0.0
C375 C 0.58535 0.56439 0.13113 0.0
C376 C 0.58172 0.53051 0.14626 0.0
N377 N 0.57344 0.54146 0.11812 0.0
C378 C 0.62152 0.57444 0.29154 0.0
C379 C 0.5745 0.56201 0.29766 0.0
C380 C 0.59166 0.58304 0.31845 0.0
C381 C 0.61532 0.58899 0.3159 0.0
C382 C 0.58153 0.54806 0.27279 0.0
N383 N 0.60486 0.55428 0.27006 0.0
H384 H 0.63997 0.58054 0.28713 0.0
H385 H 0.56832 0.53299 0.2535 0.0
H386 H 0.61256 0.58326 0.18475 0.0
H387 H 0.57579 0.51182 0.14524 0.0
O388 O 0.64378 0.56759 0.2057 0.0
O389 O 0.63174 0.53217 0.17494 0.0
O390 O 0.58721 0.507 0.23552 0.0
C391 C 0.64767 0.55455 0.17703 0.0
H392 H 0.65359 0.49967 0.31154 0.0
H393 H 0.58352 0.57846 0.11546 0.0
H394 H 0.55605 0.55711 0.2984 0.0
H395 H 0.62906 0.60528 0.33122 0.0
Co396 Co 0.54206 0.93612 0.76403 0.0
C397 C 0.55165 0.90393 0.70457 0.0
C398 C 0.51524 0.88877 0.72327 0.0
C399 C 0.51825 0.87172 0.70158 0.0
N400 N 0.53603 0.90929 0.72429 0.0
N401 N 0.54119 0.8812 0.69007 0.0
H402 H 0.57053 0.91538 0.705 0.0
H403 H 0.4992 0.88584 0.74014 0.0
C404 C 0.49957 0.92583 0.70918 0.0
O405 O 0.51169 0.92591 0.67237 0.0
N406 N 0.5479 0.96199 0.80523 0.0
C407 C 0.56856 0.9823 0.80983 0.0
C408 C 0.56608 0.99589 0.84363 0.0
C409 C 0.53314 0.96334 0.83657 0.0
N410 N 0.54384 0.98398 0.8607 0.0
C411 C 0.57737 0.96346 0.69594 0.0
C412 C 0.56128 0.99432 0.67542 0.0
C413 C 0.58353 0.99937 0.65939 0.0
C414 C 0.59133 0.98348 0.66908 0.0
C415 C 0.54795 0.97421 0.703 0.0
N416 N 0.55599 0.95894 0.71298 0.0
H417 H 0.58492 0.95289 0.70634 0.0
H418 H 0.53204 0.97198 0.71915 0.0
H419 H 0.58439 0.98688 0.79006 0.0
H420 H 0.51519 0.94927 0.84225 0.0
O421 O 0.57044 0.93754 0.78592 0.0
O422 O 0.53514 0.91551 0.81824 0.0
O423 O 0.50914 0.9304 0.74991 0.0
C424 C 0.55756 0.92215 0.81737 0.0
H425 H 0.50477 0.85343 0.69676 0.0
H426 H 0.57969 0.01329 0.85451 0.0
H427 H 0.55496 1.00656 0.66926 0.0
H428 H 0.60862 0.98705 0.6577 0.0
Co429 Co 0.08176 0.60964 0.76976 0.0
C430 C 0.11211 0.65055 0.70868 0.0
C431 C 0.12547 0.62672 0.71573 0.0
C432 C 0.14176 0.64634 0.6916 0.0
N433 N 0.1068 0.62924 0.72631 0.0
N434 N 0.13354 0.66153 0.68764 0.0
H435 H 0.10134 0.6586 0.71426 0.0
H436 H 0.128 0.61248 0.72762 0.0
C437 C 0.0743 0.55974 0.75806 0.0
O438 O 0.05248 0.54984 0.77345 0.0
N439 N 0.05696 0.59049 0.81417 0.0
C440 C 0.03477 0.58685 0.81504 0.0
C441 C 0.02284 0.5723 0.85206 0.0
C442 C 0.05838 0.57858 0.85166 0.0
N443 N 0.0376 0.56695 0.87499 0.0
C444 C 0.05004 0.61785 0.71517 0.0
C445 C 0.02957 0.57668 0.66338 0.0
C446 C 0.01945 0.59116 0.66246 0.0
C447 C 0.03048 0.61237 0.68741 0.0
C448 C 0.04918 0.58275 0.69224 0.0
N449 N 0.05833 0.60246 0.72006 0.0
H450 H 0.05762 0.63416 0.73443 0.0
H451 H 0.05655 0.57135 0.69181 0.0
H452 H 0.02745 0.59404 0.79058 0.0
H453 H 0.07417 0.57809 0.86093 0.0
O454 O 0.08255 0.63731 0.79459 0.0
O455 O 0.10454 0.62288 0.82124 0.0
O456 O 0.08669 0.5822 0.75314 0.0
C457 C 0.09883 0.63929 0.82306 0.0
H458 H 0.15882 0.64952 0.67976 0.0
H459 H 1.00445 0.56565 0.8605 0.0
H460 H 0.02203 0.56052 0.64307 0.0
H461 H 0.02384 0.62458 0.686 0.0
Co462 Co 0.41187 0.47631 0.75664 0.0
C463 C 0.3703 0.46912 0.69902 0.0
C464 C 0.39617 0.50557 0.70781 0.0
C465 C 0.37661 0.50422 0.6871 0.0
N466 N 0.39272 0.48358 0.71437 0.0
N467 N 0.36028 0.4813 0.6818 0.0
H468 H 0.36038 0.45032 0.7053 0.0
H469 H 0.41092 0.52163 0.72126 0.0
C470 C 0.44753 0.51626 0.70024 0.0
O471 O 0.43613 0.50319 0.6638 0.0
N472 N 0.43032 0.46955 0.80048 0.0
C473 C 0.42794 0.44822 0.80905 0.0
C474 C 0.44343 0.45054 0.8441 0.0
C475 C 0.44698 0.48453 0.83075 0.0
N476 N 0.45541 0.47337 0.85784 0.0
C477 C 0.40184 0.44107 0.68683 0.0
C478 C 0.44764 0.44995 0.67727 0.0
C479 C 0.42913 0.42927 0.65781 0.0
C480 C 0.40612 0.42541 0.66141 0.0
C481 C 0.44258 0.46526 0.70251 0.0
N482 N 0.4198 0.46053 0.70777 0.0
H483 H 0.3838 0.43633 0.69267 0.0
H484 H 0.45683 0.48001 0.72072 0.0
H485 H 0.41559 0.43205 0.79135 0.0
H486 H 0.4527 0.50315 0.83288 0.0
O487 O 0.38377 0.44906 0.77861 0.0
O488 O 0.39867 0.485 0.80914 0.0
O489 O 0.44068 0.50814 0.74173 0.0
C490 C 0.38213 0.46282 0.80923 0.0
H491 H 0.37394 0.51897 0.67982 0.0
H492 H 0.44521 0.43632 0.85913 0.0
H493 H 0.46567 0.45347 0.67575 0.0
H494 H 0.3913 0.40975 0.6466 0.0
Co495 Co 0.14397 0.40775 0.57761 0.0
C496 C 0.1341 0.43908 0.63903 0.0
C497 C 0.17094 0.45334 0.62628 0.0
C498 C 0.16788 0.47025 0.64826 0.0
N499 N 0.14987 0.43331 0.62144 0.0
N500 N 0.14465 0.46143 0.65579 0.0
H501 H 0.11519 0.42826 0.63512 0.0
H502 H 0.18736 0.45659 0.61078 0.0
C503 C 0.1882 0.41737 0.62425 0.0
O504 O 0.17622 0.4141 0.66323 0.0
N505 N 0.13841 0.38355 0.53211 0.0
C506 C 0.11806 0.36313 0.52521 0.0
C507 C 0.12152 0.35063 0.49026 0.0
C508 C 0.15387 0.38338 0.50106 0.0
N509 N 0.14404 0.36336 0.47509 0.0
C510 C 0.11634 0.38121 0.65666 0.0
C511 C 0.12996 0.34737 0.65467 0.0
C512 C 0.11178 0.34436 0.6847 0.0
C513 C 0.10538 0.36178 0.68641 0.0
C514 C 0.14099 0.3675 0.6263 0.0
N515 N 0.13386 0.38396 0.62689 0.0
H516 H 0.10964 0.39319 0.65576 0.0
H517 H 0.15448 0.36925 0.60204 0.0
H518 H 0.10191 0.35764 0.54456 0.0
H519 H 0.17201 0.39747 0.49807 0.0
O520 O 0.11358 0.40368 0.56398 0.0
O521 O 0.14639 0.42889 0.52665 0.0
O522 O 0.17815 0.41556 0.58458 0.0
C523 C 0.1237 0.42013 0.53272 0.0
H524 H 0.18164 0.48821 0.65518 0.0
H525 H 0.10833 0.33362 0.47667 0.0
H526 H 0.13517 0.33407 0.65236 0.0
H527 H 0.09105 0.3597 0.70872 0.0
Co528 Co 0.61208 0.74073 0.56228 0.0
C529 C 0.57769 0.69811 0.61666 0.0
C530 C 0.56686 0.72398 0.61167 0.0
C531 C 0.54884 0.70392 0.63168 0.0
N532 N 0.58521 0.72059 0.60252 0.0
N533 N 0.55567 0.68768 0.63476 0.0
H534 H 0.58701 0.68865 0.60989 0.0
H535 H 0.5655 0.73901 0.60069 0.0
C536 C 0.61456 0.78941 0.56506 0.0
O537 O 0.63394 0.80023 0.54006 0.0
N538 N 0.63827 0.75994 0.52059 0.0
C539 C 0.66037 0.76347 0.52334 0.0
C540 C 0.67314 0.77674 0.48547 0.0
C541 C 0.63758 0.77001 0.47967 0.0
N542 N 0.6589 0.78113 0.45815 0.0
C543 C 0.6357 0.73255 0.63781 0.0
C544 C 0.66774 0.77927 0.65769 0.0
C545 C 0.67012 0.76151 0.6799 0.0
C546 C 0.6535 0.73792 0.67054 0.0
C547 C 0.6492 0.7731 0.62598 0.0
N548 N 0.6337 0.74993 0.61551 0.0
H549 H 0.62442 0.71433 0.62851 0.0
H550 H 0.64856 0.78708 0.60767 0.0
H551 H 0.66676 0.75662 0.55065 0.0
H552 H 0.62192 0.76986 0.46702 0.0
O553 O 0.61403 0.71371 0.54253 0.0
O554 O 0.5919 0.72624 0.50784 0.0
O555 O 0.60536 0.76747 0.57545 0.0
C556 C 0.59893 0.71078 0.51002 0.0
H557 H 0.53146 0.70096 0.64047 0.0
H558 H 0.69149 0.78249 0.47859 0.0
H559 H 0.68039 0.79772 0.66394 0.0
H560 H 0.65501 0.72369 0.68649 0.0
Co561 Co 0.27825 0.87307 0.56585 0.0
C562 C 0.32171 0.88054 0.61544 0.0
C563 C 0.29109 0.84899 0.63907 0.0
C564 C 0.3106 0.85091 0.66163 0.0
N565 N 0.29801 0.86741 0.60941 0.0
N566 N 0.32976 0.8708 0.64682 0.0
H567 H 0.33303 0.89678 0.59697 0.0
H568 H 0.27316 0.835 0.64444 0.0
C569 C 0.22849 0.82911 0.57539 0.0
O570 O 0.21788 0.83888 0.55353 0.0
N571 N 0.2593 0.8793 0.52189 0.0
C572 C 0.25784 0.89912 0.52035 0.0
C573 C 0.24437 0.89796 0.48237 0.0
C574 C 0.24763 0.86687 0.48331 0.0
N575 N 0.23768 0.87755 0.45921 0.0
C576 C 0.29025 0.90868 0.63397 0.0
C577 C 0.24527 0.90007 0.65371 0.0
C578 C 0.26475 0.92129 0.66895 0.0
C579 C 0.2874 0.92485 0.66077 0.0
C580 C 0.24894 0.88409 0.62722 0.0
N581 N 0.27127 0.88908 0.61577 0.0
H582 H 0.30796 0.91289 0.62519 0.0
H583 H 0.23378 0.86884 0.61324 0.0
H584 H 0.26638 0.91372 0.54464 0.0
H585 H 0.24599 0.85007 0.474 0.0
O586 O 0.30563 0.90034 0.54087 0.0
O587 O 0.29112 0.8638 0.51379 0.0
O588 O 0.2508 0.84066 0.58293 0.0
C589 C 0.3071 0.88609 0.51117 0.0
H590 H 0.31072 0.8387 0.68712 0.0
H591 H 0.24021 0.91141 0.47231 0.0
H592 H 0.22743 0.89654 0.65949 0.0
H593 H 0.30297 0.94065 0.67302 0.0
H594 H 0.22961 0.22251 0.14789 0.0
H595 H 0.32852 0.27787 0.34717 0.0
H596 H 0.24504 0.28372 0.23057 0.0
H597 H 0.32362 0.22546 0.2488 0.0
H598 H 0.29217 0.27391 0.31553 0.0
H599 H 0.25775 0.21691 0.19552 0.0
C600 C 0.2384 0.23431 0.17703 0.0
C601 C 0.23507 0.25353 0.18575 0.0
C602 C 0.29891 0.26316 0.30087 0.0
C603 C 0.26736 0.24757 0.23948 0.0
C604 C 0.31978 0.26554 0.31871 0.0
C605 C 0.32944 0.25243 0.29969 0.0
C606 C 0.28751 0.24761 0.26348 0.0
C607 C 0.3169 0.2361 0.26403 0.0
C608 C 0.25455 0.23123 0.20392 0.0
C609 C 0.24702 0.26854 0.22331 0.0
N610 N 0.29668 0.23436 0.24656 0.0
N611 N 0.2628 0.26536 0.24858 0.0
H612 H 0.7585 0.01159 0.10267 0.0
H613 H 0.7923 0.08152 0.34578 0.0
H614 H 0.77932 0.98679 0.22367 0.0
H615 H 0.76133 0.09645 0.22668 0.0
H616 H 0.79541 0.0515 0.299 0.0
H617 H 0.7679 0.0475 0.14428 0.0
C618 C 0.76531 0.01384 0.13808 0.0
C619 C 0.76787 0.99606 0.15998 0.0
C620 C 0.78831 0.06164 0.28298 0.0
C621 C 0.77816 0.03722 0.20873 0.0
C622 C 0.78668 0.07883 0.30946 0.0
C623 C 0.77644 0.09131 0.28993 0.0
C624 C 0.77981 0.05718 0.23668 0.0
C625 C 0.76917 0.08707 0.24305 0.0
C626 C 0.77063 0.0344 0.16195 0.0
C627 C 0.77701 1.00008 0.2057 0.0
N628 N 0.77088 0.07031 0.2182 0.0
N629 N 0.78148 0.02016 0.22903 0.0
H630 H 1.01057 0.75215 0.09389 0.0
H631 H 0.93857 0.718 0.33441 0.0
H632 H 0.03403 0.79863 0.21377 0.0
H633 H 0.92445 0.67096 0.21749 0.0
H634 H 0.9688 0.75071 0.28729 0.0
H635 H 0.97424 0.72584 0.13459 0.0
C636 C 1.00796 0.75692 0.12886 0.0
C637 C 0.02548 0.77743 0.1508 0.0
C638 C 0.95879 0.73331 0.27177 0.0
C639 C 0.98382 0.74691 0.19838 0.0
C640 C 0.94147 0.71473 0.29845 0.0
C641 C 0.92916 0.6918 0.27971 0.0
C642 C 0.9636 0.72884 0.22608 0.0
C643 C 0.93369 0.68835 0.23328 0.0
C644 C 0.98715 0.74182 0.15217 0.0
C645 C 0.02096 0.78289 0.19582 0.0
N646 N 0.95061 0.70661 0.20823 0.0
N647 N 1.00065 0.76745 0.2186 0.0
H648 H 0.71722 0.78823 0.65917 0.0
H649 H 0.75369 0.75067 0.89767 0.0
H650 H 0.66917 0.74663 0.76919 0.0
H651 H 0.80009 0.77532 0.77775 0.0
H652 H 0.72579 0.75816 0.8561 0.0
H653 H 0.75037 0.79189 0.70666 0.0
C654 C 0.71376 0.78033 0.69375 0.0
C655 C 0.69052 0.76707 0.71047 0.0
C656 C 0.74209 0.7621 0.83873 0.0
C657 C 0.72804 0.77111 0.76448 0.0
C658 C 0.75809 0.75784 0.86249 0.0
C659 C 0.77906 0.76199 0.84076 0.0
C660 C 0.74679 0.77034 0.79242 0.0
C661 C 0.78401 0.77174 0.79554 0.0
C662 C 0.7326 0.78227 0.72057 0.0
C663 C 0.68683 0.75691 0.75506 0.0
N664 N 0.76776 0.77528 0.7724 0.0
N665 N 0.70537 0.75908 0.7804 0.0
H666 H 0.2292 0.01006 0.83928 0.0
H667 H 0.29051 0.9682 0.64888 0.0
H668 H 0.29955 0.05362 0.78525 0.0
H669 H 0.23237 0.91865 0.73472 0.0
H670 H 0.28846 1.00055 0.68624 0.0
H671 H 0.22469 0.97739 0.78881 0.0
C672 C 0.24338 0.01288 0.81577 0.0
C673 C 0.26469 0.03444 0.81576 0.0
C674 C 0.27609 0.98261 0.69691 0.0
C675 C 0.25984 0.99752 0.75887 0.0
C676 C 0.27734 0.9641 0.67583 0.0
C677 C 0.26201 0.94067 0.68961 0.0
C678 C 0.2593 0.97783 0.73208 0.0
C679 C 0.24469 0.93646 0.72338 0.0
C680 C 0.24091 0.99426 0.78744 0.0
C681 C 0.2828 0.03724 0.78572 0.0
N682 N 0.24394 0.95492 0.7439 0.0
N683 N 0.27998 0.01899 0.75853 0.0
H684 H 0.98896 0.21626 0.77137 0.0
H685 H 0.10978 0.33956 0.77918 0.0
H686 H 0.01776 0.2614 0.89242 0.0
H687 H 0.08157 0.30021 0.65138 0.0
H688 H 0.08035 0.30578 0.82387 0.0
H689 H 0.02618 0.24176 0.72906 0.0
C690 C 1.00323 0.23121 0.78921 0.0
C691 C 1.00022 0.23702 0.83504 0.0
C692 C 0.08073 0.30425 0.7861 0.0
C693 C 0.04249 0.26589 0.78764 0.0
C694 C 0.09765 0.3235 0.76077 0.0
C695 C 0.09793 0.32251 0.71185 0.0
C696 C 0.06356 0.28409 0.76218 0.0
C697 C 0.08182 0.30145 0.68927 0.0
C698 C 0.02439 0.24575 0.76518 0.0
C699 C 0.01917 0.2565 0.85681 0.0
N700 N 0.06492 0.28313 0.71459 0.0
N701 N 0.03935 0.27026 0.83289 0.0
H702 H 0.89076 0.5844 0.56528 0.0
H703 H 1.00945 0.57684 0.57085 0.0
H704 H 0.93576 0.59634 0.44573 0.0
H705 H 0.9801 0.59127 0.69339 0.0
H706 H 0.97575 0.5724 0.5248 0.0
H707 H 0.9171 0.57585 0.61286 0.0
C708 C 0.9059 0.58479 0.54897 0.0
C709 C 0.91136 0.59137 0.50187 0.0
C710 C 0.97655 0.57621 0.56194 0.0
C711 C 0.94113 0.58143 0.5553 0.0
C712 C 0.99567 0.57861 0.58817 0.0
C713 C 0.99767 0.58479 0.63568 0.0
C714 C 0.95926 0.57981 0.58355 0.0
C715 C 0.97936 0.58692 0.65655 0.0
C716 C 0.92092 0.58001 0.57601 0.0
C717 C 0.93117 0.59168 0.4822 0.0
N718 N 0.961 0.58464 0.63028 0.0
N719 N 0.94537 0.58688 0.509 0.0
H720 H 0.46406 0.4343 0.59683 0.0
H721 H 0.40378 0.29505 0.55713 0.0
H722 H 0.40367 0.38188 0.67366 0.0
H723 H 0.46428 0.34586 0.47887 0.0
H724 H 0.40782 0.32667 0.60901 0.0
H725 H 0.46836 0.40251 0.56079 0.0
C726 C 0.45185 0.41614 0.60636 0.0
C727 C 0.43318 0.41068 0.63748 0.0
C728 C 0.42055 0.33094 0.58111 0.0
C729 C 0.43801 0.37434 0.59676 0.0
C730 C 0.41836 0.31284 0.5519 0.0
C731 C 0.43384 0.31799 0.5142 0.0
C732 C 0.43806 0.35442 0.57178 0.0
C733 C 0.45211 0.3413 0.50787 0.0
C734 C 0.45428 0.39802 0.58582 0.0
C735 C 0.41792 0.38687 0.64883 0.0
N736 N 0.45356 0.35878 0.53604 0.0
N737 N 0.42057 0.36963 0.62827 0.0
H738 H 0.5776 0.01524 0.5747 0.0
H739 H 0.70714 0.12955 0.57168 0.0
H740 H 0.62597 0.03424 0.69076 0.0
H741 H 0.67197 0.08806 0.44921 0.0
H742 H 0.67248 0.10249 0.61926 0.0
H743 H 0.60737 0.0502 0.53185 0.0
C744 C 0.59432 0.02707 0.59137 0.0
C745 C 0.5996 0.0219 0.63584 0.0
C746 C 0.67229 0.0997 0.58178 0.0
C747 C 0.63338 0.0617 0.58777 0.0
C748 C 0.69192 0.11513 0.55475 0.0
C749 C 0.69234 0.11083 0.50673 0.0
C750 C 0.65295 0.08035 0.56013 0.0
C751 C 0.67235 0.09183 0.48629 0.0
C752 C 0.61126 0.04689 0.56703 0.0
C753 C 0.62147 0.03765 0.6562 0.0
N754 N 0.65348 0.07727 0.51307 0.0
N755 N 0.63767 0.05682 0.63189 0.0
H756 H 0.46923 0.10771 0.10453 0.0
H757 H 0.3417 0.09625 0.11344 0.0
H758 H 0.42231 0.08453 0.2237 0.0
H759 H 0.38581 0.12106 0.9906 0.0
H760 H 0.37451 0.09803 0.15748 0.0
H761 H 0.44229 0.11828 0.0643 0.0
C762 C 0.45349 0.10513 0.12231 0.0
C763 C 0.44769 0.0948 0.16696 0.0
C764 C 0.37729 0.10345 0.12107 0.0
C765 C 0.4172 0.1069 0.122 0.0
C766 C 0.35856 0.10255 0.09616 0.0
C767 C 0.36124 0.10859 0.04869 0.0
C768 C 0.39871 0.10988 0.098 0.0
C769 C 0.38329 0.11644 0.02744 0.0
C770 C 0.43815 0.11112 0.09949 0.0
C771 C 0.42719 0.09192 0.18877 0.0
N772 N 0.40117 0.11652 0.05209 0.0
N773 N 0.41272 0.09779 0.16606 0.0
H774 H 0.90982 0.36561 0.1108 0.0
H775 H 0.92297 0.25011 0.10725 0.0
H776 H 0.93966 0.34348 0.22111 0.0
H777 H 0.90283 0.27418 0.9844 0.0
H778 H 0.92115 0.28051 0.15352 0.0
H779 H 0.9004 0.3293 0.06702 0.0
C780 C 0.91421 0.35309 0.12587 0.0
C781 C 0.92584 0.35771 0.16926 0.0
C782 C 0.91681 0.27907 0.11656 0.0
C783 C 0.9149 0.31633 0.12024 0.0
C784 C 0.91771 0.2616 0.09031 0.0
C785 C 0.91313 0.25979 0.04212 0.0
C786 C 0.91172 0.29521 0.09435 0.0
C787 C 0.90639 0.27506 0.02165 0.0
C788 C 0.90884 0.33243 0.101 0.0
C789 C 0.93105 0.34091 0.18743 0.0
N790 N 0.90624 0.29246 0.04776 0.0
N791 N 0.92561 0.32111 0.16288 0.0
H792 H 0.65643 0.55016 0.0839 0.0
H793 H 0.77963 0.66884 0.10428 0.0
H794 H 0.69026 0.58379 0.21379 0.0
H795 H 0.7523 0.63347 0.97238 0.0
H796 H 0.74995 0.63371 0.14536 0.0
H797 H 0.69371 0.57597 0.04225 0.0
C798 C 0.67189 0.56248 0.10368 0.0
C799 C 0.67035 0.56518 0.15205 0.0
C800 C 0.7506 0.63332 0.10744 0.0
C801 C 0.71259 0.59467 0.10528 0.0
C802 C 0.76764 0.65336 0.08415 0.0
C803 C 0.76829 0.65387 0.03516 0.0
C804 C 0.73365 0.61388 0.08146 0.0
C805 C 0.75231 0.63355 0.01035 0.0
C806 C 0.69308 0.57727 0.08002 0.0
C807 C 0.69069 0.58145 0.17628 0.0
N808 N 0.73528 0.61445 0.03376 0.0
N809 N 0.71083 0.59571 0.15263 0.0
H810 H 0.5538 0.9154 0.91287 0.0
H811 H 0.65862 0.88543 0.91464 0.0
H812 H 0.58607 0.90595 0.78923 0.0
H813 H 0.64427 0.9192 0.02949 0.0
H814 H 0.6233 0.88069 0.8742 0.0
H815 H 0.5784 0.90493 0.96156 0.0
C816 C 0.5656 0.91052 0.8961 0.0
C817 C 0.56823 0.91173 0.84729 0.0
C818 C 0.6276 0.88868 0.90871 0.0
C819 C 0.59606 0.89974 0.90199 0.0
C820 C 0.64761 0.89124 0.93174 0.0
C821 C 0.65419 0.90276 0.9751 0.0
C822 C 0.61421 0.89772 0.92938 0.0
C823 C 0.63962 0.91025 0.99591 0.0
C824 C 0.57968 0.90469 0.92372 0.0
C825 C 0.58383 0.90546 0.82693 0.0
N826 N 0.6204 0.90781 0.97265 0.0
N827 N 0.59726 0.89987 0.85436 0.0
H828 H 0.12314 0.68325 0.7888 0.0
H829 H 0.12321 0.74322 0.03254 0.0
H830 H 0.10243 0.64464 0.91891 0.0
H831 H 0.12047 0.76999 0.8961 0.0
H832 H 0.12763 0.71177 0.9948 0.0
H833 H 0.13523 0.71982 0.83163 0.0
C834 C 0.12178 0.68264 0.8267 0.0
C835 C 0.11179 0.66105 0.85054 0.0
C836 C 0.12661 0.72486 0.97323 0.0
C837 C 0.12485 0.70267 0.89966 0.0
C838 C 0.12426 0.74282 0.99465 0.0
C839 C 0.12156 0.75909 0.96713 0.0
C840 C 0.12646 0.72344 0.92408 0.0
C841 C 0.12259 0.75775 0.91832 0.0
C842 C 0.12852 0.70347 0.85109 0.0
C843 C 0.11024 0.66107 0.89952 0.0
N844 N 0.12484 0.74014 0.89832 0.0
N845 N 0.11633 0.68162 0.92259 0.0
H846 H 0.29989 0.36996 0.02321 0.0
H847 H 0.33609 0.43966 0.78541 0.0
H848 H 0.24814 0.36364 0.92183 0.0
H849 H 0.38252 0.46193 0.90502 0.0
H850 H 0.30294 0.41412 0.83634 0.0
H851 H 0.32982 0.40529 0.98278 0.0
C852 C 0.29484 0.37617 0.99252 0.0
C853 C 0.27164 0.36373 0.97532 0.0
C854 C 0.32021 0.425 0.85181 0.0
C855 C 0.3058 0.40409 0.92876 0.0
C856 C 0.33909 0.43963 0.82279 0.0
C857 C 0.36189 0.45291 0.84134 0.0
C858 C 0.32436 0.4231 0.89949 0.0
C859 C 0.36507 0.45211 0.8897 0.0
C860 C 0.31187 0.39643 0.96967 0.0
C861 C 0.26588 0.37269 0.93598 0.0
N862 N 0.34655 0.43703 0.91709 0.0
N863 N 0.28296 0.39213 0.91349 0.0
H864 H 0.04803 0.45773 0.33213 0.0
H865 H 0.0859 0.42037 0.56889 0.0
H866 H 1.00377 0.42769 0.45365 0.0
H867 H 0.12946 0.44077 0.44486 0.0
H868 H 0.05946 0.43095 0.53062 0.0
H869 H 0.08131 0.45938 0.37588 0.0
C870 C 0.04556 0.45213 0.36845 0.0
C871 C 0.02322 0.44254 0.3895 0.0
C872 C 0.0748 0.43328 0.51155 0.0
C873 C 0.06084 0.44409 0.43924 0.0
C874 C 0.08996 0.4272 0.53342 0.0
C875 C 0.10969 0.4293 0.50967 0.0
C876 C 0.07903 0.44125 0.46501 0.0
C877 C 0.1143 0.43872 0.46417 0.0
C878 C 0.06444 0.45287 0.39319 0.0
C879 C 0.02072 0.43515 0.43623 0.0
N880 N 0.09881 0.44404 0.44288 0.0
N881 N 0.03922 0.43594 0.45935 0.0
H882 H 0.58364 0.66579 0.53599 0.0
H883 H 0.6056 0.6278 0.29054 0.0
H884 H 0.59465 0.70906 0.41415 0.0
H885 H 0.56458 0.57642 0.39623 0.0
H886 H 0.6007 0.65759 0.33335 0.0
H887 H 0.57517 0.63245 0.48501 0.0
C888 C 0.58385 0.66808 0.49833 0.0
C889 C 0.58988 0.69009 0.47903 0.0
C890 C 0.59236 0.6397 0.34674 0.0
C891 C 0.58087 0.65228 0.42049 0.0
C892 C 0.59522 0.62277 0.32245 0.0
C893 C 0.58557 0.59979 0.34024 0.0
C894 C 0.58027 0.6337 0.38969 0.0
C895 C 0.57227 0.59401 0.38155 0.0
C896 C 0.57896 0.64906 0.46926 0.0
C897 C 0.58994 0.69226 0.43017 0.0
N898 N 0.57036 0.611 0.40543 0.0
N899 N 0.58601 0.67367 0.4024 0.0
H900 H 0.35229 0.89634 0.52569 0.0
H901 H 0.39612 0.9829 0.30627 0.0
H902 H 0.30605 0.89878 0.42117 0.0
H903 H 0.4436 0.98123 0.40895 0.0
H904 H 0.36373 0.94716 0.34043 0.0
H905 H 0.38635 0.92192 0.47651 0.0
C906 C 0.34933 0.90176 0.49169 0.0
C907 C 0.32647 0.89545 0.4771 0.0
C908 C 0.38123 0.95434 0.35532 0.0
C909 C 0.36521 0.92513 0.4213 0.0
C910 C 0.3997 0.97476 0.33585 0.0
C911 C 0.4224 0.98511 0.35536 0.0
C912 C 0.38535 0.9443 0.39514 0.0
C913 C 0.42627 0.97379 0.39317 0.0
C914 C 0.36876 0.91644 0.46373 0.0
C915 C 0.32347 0.90309 0.43318 0.0
N916 N 0.4078 0.95413 0.41239 0.0
N917 N 0.34266 0.91778 0.40703 0.0
H918 H 0.1814 0.39283 0.42057 0.0
H919 H 0.18002 0.28821 0.27101 0.0
H920 H 0.13195 0.31909 0.44569 0.0
H921 H 0.22418 0.36245 0.24003 0.0
H922 H 0.16362 0.29873 0.33788 0.0
H923 H 0.1991 0.3816 0.35764 0.0
C924 C 0.17435 0.37427 0.41315 0.0
C925 C 0.15506 0.35692 0.4385 0.0
C926 C 0.177 0.31267 0.31645 0.0
C927 C 0.17516 0.34385 0.36586 0.0
C928 C 0.18634 0.30667 0.27809 0.0
C929 C 0.20365 0.3244 0.24953 0.0
C930 C 0.18501 0.33657 0.3264 0.0
C931 C 0.21123 0.34806 0.26109 0.0
C932 C 0.18438 0.36784 0.37693 0.0
C933 C 0.14653 0.33311 0.4267 0.0
N934 N 0.20186 0.35339 0.2984 0.0
N935 N 0.15662 0.32728 0.39126 0.0
H936 H 0.70337 0.81404 0.43042 0.0
H937 H 0.65851 0.86276 0.2209 0.0
H938 H 0.62998 0.78319 0.39137 0.0
H939 H 0.73209 0.88749 0.24837 0.0
H940 H 0.64776 0.83349 0.28308 0.0
H941 H 0.71419 0.84057 0.36364 0.0
C942 C 0.68946 0.81255 0.40771 0.0
C943 C 0.66561 0.79617 0.41708 0.0
C944 C 0.66627 0.84524 0.27545 0.0
C945 C 0.67807 0.82712 0.34036 0.0
C946 C 0.67244 0.86209 0.24009 0.0
C947 C 0.69627 0.87779 0.22958 0.0
C948 C 0.68404 0.84408 0.30089 0.0
C949 C 0.71352 0.87571 0.25507 0.0
C950 C 0.69572 0.82791 0.36954 0.0
C951 C 0.64853 0.79562 0.38631 0.0
N952 N 0.70707 0.8593 0.28973 0.0
N953 N 0.65508 0.81091 0.34957 0.0
H954 H 0.15488 0.79622 0.22146 0.0
H955 H 0.20687 0.89126 0.42866 0.0
H956 H 0.13417 0.84848 0.2453 0.0
H957 H 0.23247 0.8434 0.39707 0.0
H958 H 0.18047 0.87599 0.36162 0.0
H959 H 0.18333 0.81319 0.28545 0.0
C960 C 0.15624 0.81123 0.24024 0.0
C961 C 0.1419 0.82079 0.22812 0.0
C962 C 0.19193 0.86888 0.36919 0.0
C963 C 0.17472 0.8405 0.30154 0.0
C964 C 0.20721 0.87772 0.4075 0.0
C965 C 0.22219 0.86876 0.41884 0.0
C966 C 0.19136 0.85078 0.34178 0.0
C967 C 0.2212 0.85077 0.39024 0.0
C968 C 0.17262 0.82101 0.27666 0.0
C969 C 0.14489 0.84059 0.25317 0.0
N970 N 0.20605 0.84237 0.35317 0.0
N971 N 0.16084 0.84969 0.28883 0.0
H972 H 0.80355 0.65472 0.77438 0.0
H973 H 0.89741 0.70068 0.56513 0.0
H974 H 0.85285 0.72837 0.7483 0.0
H975 H 0.85273 0.62682 0.59868 0.0
H976 H 0.88178 0.71099 0.63266 0.0
H977 H 0.82144 0.64413 0.71067 0.0
C978 C 0.81809 0.6687 0.75519 0.0
C979 C 0.82656 0.69252 0.76661 0.0
C980 C 0.87547 0.69251 0.62542 0.0
C981 C 0.84732 0.68044 0.69356 0.0
C982 C 0.88452 0.68654 0.5868 0.0
C983 C 0.8765 0.66273 0.57573 0.0
C984 C 0.85807 0.67463 0.6534 0.0
C985 C 0.85934 0.64537 0.60518 0.0
C986 C 0.82841 0.66261 0.71894 0.0
C987 C 0.84581 0.70981 0.74101 0.0
N988 N 0.85068 0.65166 0.64247 0.0
N989 N 0.85543 0.70344 0.70557 0.0
H990 H 0.29599 0.121 0.73093 0.0
H991 H 0.39901 0.23146 0.59292 0.0
H992 H 0.36858 0.15938 0.77693 0.0
H993 H 0.32629 0.19405 0.54763 0.0
H994 H 0.38823 0.20483 0.66014 0.0
H995 H 0.30667 0.14738 0.66323 0.0
C996 C 0.31414 0.13493 0.72692 0.0
C997 C 0.33138 0.13781 0.75977 0.0
C998 C 0.37462 0.20248 0.63551 0.0
C999 C 0.3438 0.16807 0.68213 0.0
C1000 C 0.3808 0.21765 0.59698 0.0
C1001 C 0.36355 0.21512 0.56451 0.0
C1002 C 0.35102 0.18456 0.64164 0.0
C1003 C 0.34015 0.19699 0.57202 0.0
C1004 C 0.32026 0.14996 0.68813 0.0
C1005 C 0.35471 0.15612 0.7523 0.0
N1006 N 0.3346 0.18242 0.60968 0.0
N1007 N 0.36019 0.17051 0.71443 0.0
H1008 H 0.80997 0.18609 0.56665 0.0
H1009 H 0.86985 0.16193 0.78918 0.0
H1010 H 0.79294 0.11625 0.611 0.0
H1011 H 0.89344 0.23108 0.73044 0.0
H1012 H 0.83972 0.14479 0.72796 0.0
H1013 H 0.83803 0.20279 0.63142 0.0
C1014 C 0.81187 0.17422 0.59036 0.0
C1015 C 0.79906 0.14969 0.58321 0.0
C1016 C 0.8515 0.16373 0.7286 0.0
C1017 C 0.83153 0.16877 0.65728 0.0
C1018 C 0.86886 0.17355 0.76346 0.0
C1019 C 0.88437 0.19809 0.76533 0.0
C1020 C 0.84951 0.1785 0.69534 0.0
C1021 C 0.88181 0.21217 0.73115 0.0
C1022 C 0.82809 0.1838 0.62714 0.0
C1023 C 0.80262 0.13525 0.61478 0.0
N1024 N 0.86477 0.20219 0.69774 0.0
N1025 N 0.81853 0.14499 0.65034 0.0
H1026 H 0.45215 0.99934 0.05875 0.0
H1027 H 0.56803 0.01731 0.92747 0.0
H1028 H 0.52291 0.05253 0.09709 0.0
H1029 H 0.49739 0.96841 0.87965 0.0
H1030 H 0.55163 0.03055 0.98898 0.0
H1031 H 0.46811 0.98809 0.99238 0.0
C1032 C 0.47104 0.00873 0.05312 0.0
C1033 C 0.48621 0.02685 0.08379 0.0
C1034 C 0.53968 0.01698 0.96496 0.0
C1035 C 0.50465 0.01401 0.00771 0.0
C1036 C 0.54906 0.00942 0.92948 0.0
C1037 C 0.53414 0.9917 0.8978 0.0
C1038 C 0.51512 1.00673 0.96933 0.0
C1039 C 0.50963 0.98192 0.90332 0.0
C1040 C 0.48014 1.00233 0.01511 0.0
C1041 C 0.51052 0.03862 0.07425 0.0
N1042 N 0.50091 0.98954 0.93837 0.0
N1043 N 0.51898 0.03187 0.03733 0.0
H1044 H 0.05834 0.54131 0.90014 0.0
H1045 H 0.96522 0.47375 0.10647 0.0
H1046 H 1.0026 0.55516 0.93881 0.0
H1047 H 0.02426 0.46358 0.07733 0.0
H1048 H 0.97757 0.50205 0.04209 0.0
H1049 H 0.04585 0.51215 0.96334 0.0
C1050 C 0.04364 0.53843 0.9221 0.0
C1051 C 0.03148 0.55073 0.91386 0.0
C1052 C 0.9878 0.49358 0.04963 0.0
C1053 C 0.01681 0.51702 0.98587 0.0
C1054 C 0.9806 0.4772 0.08617 0.0
C1055 C 0.99371 0.46621 0.09747 0.0
C1056 C 1.00826 0.49906 0.02395 0.0
C1057 C 0.01377 0.47179 0.07028 0.0
C1058 C 0.03639 0.52162 0.95798 0.0
C1059 C 1.01231 0.54591 0.94319 0.0
N1060 N 0.02044 0.48783 0.03488 0.0
N1061 N 1.00556 0.52945 0.97768 0.0
H1062 H 0.48303 0.45639 0.89123 0.0
H1063 H 0.54551 0.55803 0.08488 0.0
H1064 H 0.46795 0.51304 0.9095 0.0
H1065 H 0.56079 0.50147 0.06739 0.0
H1066 H 0.51704 0.54169 0.02097 0.0
H1067 H 0.51139 0.47246 0.95553 0.0
C1068 C 0.48556 0.47215 0.90881 0.0
C1069 C 0.47288 0.48327 0.89482 0.0
C1070 C 0.5266 0.53282 0.03105 0.0
C1071 C 0.50568 0.50196 0.96863 0.0
C1072 C 0.543 0.54223 0.06751 0.0
C1073 C 0.55581 0.53125 0.08153 0.0
C1074 C 0.52283 0.51222 0.00812 0.0
C1075 C 0.55128 0.51048 0.05814 0.0
C1076 C 0.50189 0.48139 0.94549 0.0
C1077 C 0.47738 0.50394 0.91858 0.0
N1078 N 0.53525 0.5017 0.02254 0.0
N1079 N 0.49332 0.51255 0.9543 0.0
H1080 H 0.22218 0.22083 0.92094 0.0
H1081 H 0.24955 0.11812 0.98491 0.0
H1082 H 0.21802 0.19678 0.06323 0.0
H1083 H 0.28279 0.16634 0.86965 0.0
H1084 H 0.23138 0.1415 0.00951 0.0
H1085 H 0.23781 0.19539 0.89658 0.0
C1086 C 0.22437 0.21002 0.94696 0.0
C1087 C 0.21884 0.21092 0.99417 0.0
C1088 C 0.24264 0.14686 0.97883 0.0
C1089 C 0.2366 0.1817 0.96654 0.0
C1090 C 0.2529 0.13349 0.96465 0.0
C1091 C 0.26779 0.14036 0.92531 0.0
C1092 C 0.2469 0.16686 0.9528 0.0
C1093 C 0.27159 0.16049 0.90041 0.0
C1094 C 0.23342 0.19563 0.93312 0.0
C1095 C 0.22227 0.19672 0.02657 0.0
N1096 N 0.26112 0.17293 0.9144 0.0
N1097 N 0.23083 0.18258 0.01215 0.0
H1098 H 0.89656 0.12919 0.8882 0.0
H1099 H 0.79257 0.02953 0.04437 0.0
H1100 H 0.87334 0.1426 0.02041 0.0
H1101 H 0.82888 0.01319 0.93755 0.0
H1102 H 0.81713 0.0714 0.0261 0.0
H1103 H 0.86715 0.08704 0.8964 0.0
C1104 C 0.88511 0.12333 0.91862 0.0
C1105 C 0.88753 0.13938 0.95388 0.0
C1106 C 0.81961 0.05866 0.00634 0.0
C1107 C 0.8539 0.09138 0.96332 0.0
C1108 C 0.80541 0.03468 0.01648 0.0
C1109 C 0.80865 0.01777 0.99246 0.0
C1110 C 0.83715 0.06589 0.9717 0.0
C1111 C 0.82596 0.02567 0.95719 0.0
C1112 C 0.86844 0.09929 0.92338 0.0
C1113 C 0.87226 0.13082 0.9926 0.0
N1114 N 0.83961 0.04916 0.94792 0.0
N1115 N 0.85617 0.10746 0.9963 0.0
H1116 H 1.01179 0.8247 0.93049 0.0
H1117 H 0.88085 0.73733 0.01749 0.0
H1118 H 0.99406 0.77049 0.0345 0.0
H1119 H 0.89483 0.77661 0.88855 0.0
H1120 H 0.92257 0.74969 0.02352 0.0
H1121 H 0.96957 0.80792 0.91354 0.0
C1122 C 0.99905 0.80915 0.94942 0.0
C1123 C 1.00653 0.79903 0.98401 0.0
C1124 C 0.91659 0.75549 0.99363 0.0
C1125 C 0.95825 0.77986 0.96507 0.0
C1126 C 0.89273 0.7485 0.99024 0.0
C1127 C 0.88437 0.75608 0.95261 0.0
C1128 C 0.93246 0.77056 0.95955 0.0
C1129 C 0.90056 0.77036 0.91812 0.0
C1130 C 0.97498 0.79955 0.93961 0.0
C1131 C 0.98925 0.77878 0.00724 0.0
N1132 N 0.92394 0.77741 0.92271 0.0
N1133 N 0.96599 0.77006 0.99771 0.0
H1134 H 0.77781 0.89408 0.1078 0.0
H1135 H 0.77419 0.79022 0.95197 0.0
H1136 H 0.74299 0.87206 0.97358 0.0
H1137 H 0.82678 0.82671 0.05886 0.0
H1138 H 0.75721 0.81522 0.96925 0.0
H1139 H 0.79081 0.86485 0.09957 0.0
C1140 C 0.77271 0.88296 0.07689 0.0
C1141 C 0.75945 0.88564 0.04115 0.0
C1142 C 0.77235 0.81764 0.98924 0.0
C1143 C 0.77406 0.85217 0.03172 0.0
C1144 C 0.78192 0.8032 0.97968 0.0
C1145 C 0.80195 0.80636 0.00406 0.0
C1146 C 0.78271 0.83531 0.0237 0.0
C1147 C 0.81145 0.82384 0.03903 0.0
C1148 C 0.78021 0.86639 0.07213 0.0
C1149 C 0.75338 0.87079 0.0018 0.0
N1150 N 0.80178 0.83768 0.0478 0.0
N1151 N 0.76071 0.85475 0.99817 0.0
H1152 H 0.19351 1.00697 0.05077 0.0
H1153 H 0.15334 0.87515 0.97315 0.0
H1154 H 0.23109 0.98878 0.94977 0.0
H1155 H 0.12701 0.89046 0.09918 0.0
H1156 H 0.18123 0.91711 0.96352 0.0
H1157 H 0.16835 0.965 0.06859 0.0
C1158 C 0.19667 0.99433 0.03246 0.0
C1159 C 0.21453 1.00175 0.99828 0.0
C1160 C 0.16954 0.91138 0.99356 0.0
C1161 C 0.18543 0.95346 0.01837 0.0
C1162 C 0.15355 0.88738 -0.00095 0.0
C1163 C 0.13776 0.87929 0.03694 0.0
C1164 C 0.16962 0.92766 0.02578 0.0
C1165 C 0.13895 0.89596 0.06955 0.0
C1166 C 0.1822 0.9703 0.0427 0.0
C1167 C 0.21741 0.98424 0.97561 0.0
N1168 N 0.15444 0.91943 0.06294 0.0
N1169 N 0.20298 0.96104 0.98587 0.0
H1170 H 0.12673 0.27477 0.14217 0.0
H1171 H 0.03471 0.2319 0.93604 0.0
H1172 H 0.14487 0.25716 0.00863 0.0
H1173 H 1.01258 0.20249 0.0742 0.0
H1174 H 0.07623 0.24918 0.96071 0.0
H1175 H 0.08533 0.25604 0.11688 0.0
C1176 C 0.12199 0.26705 0.10745 0.0
C1177 C 0.13917 0.26745 0.0774 0.0
C1178 C 0.06225 0.23892 0.98551 0.0
C1179 C 0.09215 0.24655 0.04814 0.0
C1180 C 0.0387 0.22926 0.97162 0.0
C1181 C 0.02042 0.21589 0.00334 0.0
C1182 C 0.06743 0.23575 0.03178 0.0
C1183 C 0.02631 0.21269 0.04894 0.0
C1184 C 0.09842 0.2563 0.09323 0.0
C1185 C 0.1321 0.25708 0.03288 0.0
N1186 N 0.04936 0.22283 0.06209 0.0
N1187 N 0.10912 0.24729 0.01928 0.0
H1188 H 0.88303 0.52966 0.39619 0.0
H1189 H 0.94208 0.4934 0.19364 0.0
H1190 H 0.88355 0.54973 0.25203 0.0
H1191 H 0.91347 0.45094 0.31799 0.0
H1192 H 0.92403 0.51683 0.21694 0.0
H1193 H 0.89751 0.50322 0.37111 0.0
C1194 C 0.88617 0.52846 0.35928 0.0
C1195 C 0.88208 0.54188 0.32612 0.0
C1196 C 0.92153 0.50225 0.23894 0.0
C1197 C 0.89881 0.51192 0.29726 0.0
C1198 C 0.93188 0.48892 0.22576 0.0
C1199 C 0.92919 0.47008 0.25382 0.0
C1200 C 0.9088 0.49711 0.28108 0.0
C1201 C 0.91576 0.46507 0.29504 0.0
C1202 C 0.89428 0.5133 0.34497 0.0
C1203 C 0.88626 0.53954 0.27866 0.0
N1204 N 0.90629 0.47867 0.30773 0.0
N1205 N 0.89463 0.52506 0.26571 0.0
H1206 H 0.56013 0.46266 0.20994 0.0
H1207 H 0.48378 0.36414 0.40206 0.0
H1208 H 0.55517 0.47689 0.35608 0.0
H1209 H 0.48577 0.34724 0.25639 0.0
H1210 H 0.50904 0.40572 0.38406 0.0
H1211 H 0.53188 0.42065 0.22416 0.0
C1212 C 0.55296 0.45703 0.24484 0.0
C1213 C 0.56016 0.47334 0.28192 0.0
C1214 C 0.50395 0.39298 0.35587 0.0
C1215 C 0.52804 0.42539 0.29847 0.0
C1216 C 0.48934 0.36911 0.36615 0.0
C1217 C 0.48242 0.35198 0.33074 0.0
C1218 C 0.51193 0.40002 0.30975 0.0
C1219 C 0.49077 0.35972 0.28497 0.0
C1220 C 0.53692 0.43304 0.25297 0.0
C1221 C 0.55032 0.46501 0.32644 0.0
N1222 N 0.50508 0.38315 0.27579 0.0
N1223 N 0.53492 0.4417 0.33342 0.0
H1224 H 0.54912 0.10429 0.31187 0.0
H1225 H 0.68008 0.13306 0.25231 0.0
H1226 H 0.56487 0.07143 0.19698 0.0
H1227 H 0.65852 0.13671 0.39345 0.0
H1228 H 0.63913 0.11691 0.22616 0.0
H1229 H 0.59049 0.12264 0.33727 0.0
C1230 C 0.56129 0.10105 0.29184 0.0
C1231 C 0.55351 0.08622 0.25234 0.0
C1232 C 0.6434 0.12133 0.26282 0.0
C1233 C 0.6008 0.10737 0.28085 0.0
C1234 C 0.66676 0.13069 0.27768 0.0
C1235 C 0.67267 0.13621 0.32511 0.0
C1236 C 0.62586 0.11786 0.29545 0.0
C1237 C 0.65464 0.13251 0.35665 0.0
C1238 C 0.58483 0.11143 0.30648 0.0
C1239 C 0.57005 0.08259 0.22781 0.0
N1240 N 0.63205 0.12368 0.34124 0.0
N1241 N 0.59291 0.09319 0.24229 0.0
H1242 H 0.48005 0.15728 0.26901 0.0
H1243 H 0.40585 0.18456 0.45238 0.0
H1244 H 0.46843 0.13096 0.41078 0.0
H1245 H 0.44584 0.23439 0.34326 0.0
H1246 H 0.42494 0.16178 0.43249 0.0
H1247 H 0.46425 0.1831 0.29048 0.0
C1248 C 0.47426 0.15704 0.30468 0.0
C1249 C 0.47554 0.14199 0.33821 0.0
C1250 C 0.4296 0.17773 0.41299 0.0
C1251 C 0.45721 0.17113 0.36275 0.0
C1252 C 0.4186 0.19069 0.42407 0.0
C1253 C 0.42419 0.21139 0.39931 0.0
C1254 C 0.44602 0.18521 0.3762 0.0
C1255 C 0.44104 0.21856 0.36328 0.0
C1256 C 0.46537 0.17182 0.31692 0.0
C1257 C 0.46794 0.14244 0.38402 0.0
N1258 N 0.4512 0.20534 0.35243 0.0
N1259 N 0.45883 0.15655 0.3948 0.0
H1260 H 0.77636 0.21841 0.39987 0.0
H1261 H 0.90348 0.32476 0.32921 0.0
H1262 H 0.84108 0.21783 0.42592 0.0
H1263 H 0.84472 0.33557 0.35628 0.0
H1264 H 0.87942 0.28366 0.35443 0.0
H1265 H 0.79975 0.2597 0.37415 0.0
C1266 C 0.79544 0.22692 0.40016 0.0
C1267 C 0.80676 0.21463 0.41526 0.0
C1268 C 0.87178 0.29502 0.35491 0.0
C1269 C 0.83353 0.26168 0.38537 0.0
C1270 C 0.88545 0.31843 0.34022 0.0
C1271 C 0.87607 0.3336 0.34065 0.0
C1272 C 0.84839 0.28652 0.36951 0.0
C1273 C 0.85267 0.3245 0.35584 0.0
C1274 C 0.80876 0.25049 0.38563 0.0
C1275 C 0.83156 0.22659 0.41487 0.0
N1276 N 0.83955 0.3015 0.36939 0.0
N1277 N 0.84407 0.24934 0.39993 0.0
H1278 H 0.69442 0.5182 0.30898 0.0
H1279 H 0.80127 0.62954 0.43644 0.0
H1280 H 0.69148 0.58022 0.3498 0.0
H1281 H 0.80621 0.57068 0.38112 0.0
H1282 H 0.76053 0.61104 0.40859 0.0
H1283 H 0.73462 0.53635 0.33898 0.0
C1284 C 0.70211 0.53556 0.32464 0.0
C1285 C 0.68938 0.54762 0.32705 0.0
C1286 C 0.77052 0.60217 0.40257 0.0
C1287 C 0.73581 0.56873 0.36116 0.0
C1288 C 0.79381 0.61269 0.41856 0.0
C1289 C 0.80729 0.60168 0.41114 0.0
C1290 C 0.76049 0.58038 0.3791 0.0
C1291 C 0.79657 0.57986 0.38766 0.0
C1292 C 0.72521 0.54602 0.34149 0.0
C1293 C 0.70063 0.57034 0.3469 0.0
N1294 N 0.77385 0.56996 0.37253 0.0
N1295 N 0.72316 0.58013 0.36328 0.0
H1296 H 0.58045 0.77617 0.63289 0.0
H1297 H 0.58093 0.89888 0.63683 0.0
H1298 H 0.62518 0.83455 0.5424 0.0
H1299 H 0.52759 0.83497 0.70289 0.0
H1300 H 0.59964 0.87702 0.60649 0.0
H1301 H 0.56295 0.79874 0.66313 0.0
C1302 C 0.58642 0.79361 0.61886 0.0
C1303 C 0.60403 0.80321 0.58427 0.0
C1304 C 0.5838 0.86781 0.62755 0.0
C1305 C 0.58436 0.82957 0.61985 0.0
C1306 C 0.57321 0.8803 0.64504 0.0
C1307 C 0.55256 0.86873 0.67215 0.0
C1308 C 0.57382 0.84364 0.63771 0.0
C1309 C 0.54321 0.84457 0.6815 0.0
C1310 C 0.57651 0.80661 0.63648 0.0
C1311 C 0.61156 0.82633 0.56884 0.0
N1312 N 0.55392 0.8329 0.66444 0.0
N1313 N 0.60169 0.83872 0.5867 0.0
H1314 H 0.24446 0.79992 0.60644 0.0
H1315 H 0.1158 0.68899 0.65632 0.0
H1316 H 0.18017 0.80148 0.58157 0.0
H1317 H 0.18124 0.68963 0.68088 0.0
H1318 H 0.13852 0.73001 0.62909 0.0
H1319 H 0.22112 0.75936 0.63395 0.0
C1320 C 0.22544 0.79185 0.60718 0.0
C1321 C 0.21435 0.80434 0.59216 0.0
C1322 C 0.14784 0.72108 0.64034 0.0
C1323 C 0.18728 0.75745 0.62308 0.0
C1324 C 0.13488 0.69767 0.65606 0.0
C1325 C 0.14651 0.68561 0.67069 0.0
C1326 C 0.17265 0.73258 0.63938 0.0
C1327 C 0.17133 0.69784 0.6692 0.0
C1328 C 0.21205 0.76855 0.62264 0.0
C1329 C 0.18952 0.7926 0.5929 0.0
N1330 N 0.18348 0.72053 0.65392 0.0
N1331 N 0.17684 0.76984 0.60816 0.0
H1332 H 0.21807 0.41184 0.56324 0.0
H1333 H 0.3333 0.5 0.70684 0.0
H1334 H 0.21684 0.44422 0.69428 0.0
H1335 H 0.33127 0.44183 0.63161 0.0
H1336 H 0.2917 0.48456 0.68863 0.0
H1337 H 0.26084 0.42713 0.57463 0.0
C1338 C 0.22679 0.42222 0.59411 0.0
C1339 C 0.21393 0.42668 0.62799 0.0
C1340 C 0.30033 0.47519 0.67589 0.0
C1341 C 0.26238 0.44434 0.64071 0.0
C1342 C 0.32412 0.48407 0.68603 0.0
C1343 C 0.33574 0.4722 0.67055 0.0
C1344 C 0.28799 0.45439 0.64949 0.0
C1345 C 0.32282 0.45138 0.64431 0.0
C1346 C 0.25105 0.43077 0.6007 0.0
C1347 C 0.22599 0.44015 0.66747 0.0
N1348 N 0.29958 0.44313 0.63429 0.0
N1349 N 0.24947 0.4486 0.67252 0.0
H1350 H 0.11517 0.5733 0.70942 0.0
H1351 H 0.10172 0.44461 0.69767 0.0
H1352 H 0.05567 0.5118 0.76974 0.0
H1353 H 0.16177 0.50858 0.64653 0.0
H1354 H 0.08344 0.46787 0.72225 0.0
H1355 H 0.1315 0.54895 0.68444 0.0
C1356 C 0.10554 0.55468 0.71771 0.0
C1357 C 0.08407 0.54472 0.74216 0.0
C1358 C 0.10065 0.47675 0.70574 0.0
C1359 C 0.10273 0.51638 0.71304 0.0
C1360 C 0.11104 0.46348 0.69157 0.0
C1361 C 0.13346 0.47464 0.67046 0.0
C1362 C 0.11272 0.50131 0.69841 0.0
C1363 C 0.14476 0.49918 0.66356 0.0
C1364 C 0.11488 0.54068 0.70321 0.0
C1365 C 0.0723 0.52028 0.75103 0.0
N1366 N 0.13429 0.51159 0.67744 0.0
N1367 N 0.0818 0.50694 0.73656 0.0
H1368 H 0.48282 0.54753 0.75976 0.0
H1369 H 0.51056 0.65964 0.60746 0.0
H1370 H 0.4525 0.54246 0.62281 0.0
H1371 H 0.56676 0.65961 0.68619 0.0
H1372 H 0.48519 0.61766 0.62499 0.0
H1373 H 0.51069 0.58982 0.74488 0.0
C1374 C 0.48207 0.55525 0.72665 0.0
C1375 C 0.46536 0.54143 0.69243 0.0
C1376 C 0.50306 0.62683 0.63855 0.0
C1377 C 0.49658 0.5895 0.67583 0.0
C1378 C 0.51745 0.65077 0.62881 0.0
C1379 C 0.54071 0.66303 0.64556 0.0
C1380 C 0.51176 0.61506 0.66607 0.0
C1381 C 0.54892 0.65064 0.67259 0.0
C1382 C 0.49797 0.57926 0.71818 0.0
C1383 C 0.46514 0.55231 0.65012 0.0
N1384 N 0.53436 0.62729 0.68246 0.0
N1385 N 0.48028 0.57568 0.64329 0.0
H1386 H 0.36368 0.91588 0.66532 0.0
H1387 H 0.46889 0.89082 0.65221 0.0
H1388 H 0.35087 0.84464 0.65684 0.0
H1389 H 0.47266 0.94196 0.75255 0.0
H1390 H 0.42694 0.8772 0.64035 0.0
H1391 H 0.40532 0.92964 0.68505 0.0
C1392 C 0.36969 0.9032 0.66768 0.0
C1393 C 0.35395 0.87913 0.6596 0.0
C1394 C 0.43694 0.89137 0.66503 0.0
C1395 C 0.40121 0.89465 0.68109 0.0
C1396 C 0.46085 0.89922 0.67165 0.0
C1397 C 0.47417 0.91753 0.70337 0.0
C1398 C 0.42639 0.90233 0.68926 0.0
C1399 C 0.46289 0.92771 0.72794 0.0
C1400 C 0.39328 0.911 0.67918 0.0
C1401 C 0.36246 0.86331 0.66321 0.0
N1402 N 0.43961 0.92019 0.71988 0.0
N1403 N 0.3856 0.87138 0.67302 0.0
loop_
_geom_bond_atom_site_label_1
_geom_bond_atom_site_label_2
_geom_bond_distance
_geom_bond_site_symmetry_2
_ccdc_geom_bond_type
Co0 N4 2.148 . S
Co0 N10 2.128 . S
Co0 N20 2.194 . S
Co0 O25 2.351 . S
Co0 O26 2.155 . S
Co0 O27 2.096 . S
C1 N4 1.301 . S
C1 N5 1.328 . S
C1 H6 0.930 . S
C2 C3 1.333 . S
C2 N4 1.317 . S
C2 H7 0.930 . S
C3 C2 1.333 . S
C3 N5 1.350 . S
C3 H29 0.931 . S
N4 Co0 2.148 . S
N4 C1 1.301 . S
N4 C2 1.317 . S
N5 C1 1.328 . S
N5 C3 1.350 . S
H6 C1 0.930 . S
H7 C2 0.930 . S
C8 O9 1.224 . S
C8 O27 1.247 . S
O9 C8 1.224 . S
N10 Co0 2.128 . S
N10 C11 1.355 . S
N10 C13 1.311 . S
C11 N10 1.355 . S
C11 C12 1.363 . S
C11 H23 0.929 . S
C12 C11 1.363 . S
C12 N14 1.375 . S
C12 H30 0.931 . S
C13 N10 1.311 . S
C13 N14 1.347 . S
C13 H24 0.929 . S
N14 C12 1.375 . S
N14 C13 1.347 . S
C15 C18 1.365 . S
C15 N20 1.328 . S
C15 H21 0.929 . S
C16 C17 1.362 . S
C16 C19 1.378 1_556 S
C16 H31 0.929 . S
C17 C16 1.362 . S
C17 C18 1.366 1_556 S
C18 C15 1.365 . S
C18 C17 1.366 1_554 S
C18 H32 0.930 . S
C19 C16 1.378 1_554 S
C19 N20 1.315 . S
C19 H22 0.930 . S
N20 Co0 2.194 . S
N20 C15 1.328 . S
N20 C19 1.315 . S
H21 C15 0.929 . S
H22 C19 0.930 . S
H23 C11 0.929 . S
H24 C13 0.929 . S
O25 Co0 2.351 . S
O25 C28 1.244 . S
O26 Co0 2.155 . S
O26 C28 1.240 . S
O27 Co0 2.096 . S
O27 C8 1.247 . S
C28 O25 1.244 . S
C28 O26 1.240 . S
H29 C3 0.931 . S
H30 C12 0.931 . S
H31 C16 0.929 . S
H32 C18 0.930 . S
Co33 N37 2.148 . S
Co33 N43 2.128 . S
Co33 N53 2.194 . S
Co33 O58 2.351 . S
Co33 O59 2.155 . S
Co33 O60 2.096 . S
C34 N37 1.301 . S
C34 N38 1.328 1_565 S
C34 H39 0.930 . S
C35 C36 1.333 . S
C35 N37 1.317 . S
C35 H40 0.930 . S
C36 C35 1.333 . S
C36 N38 1.350 1_565 S
C36 H62 0.931 . S
N37 Co33 2.148 . S
N37 C34 1.301 . S
N37 C35 1.317 . S
N38 C34 1.328 1_545 S
N38 C36 1.350 1_545 S
H39 C34 0.930 . S
H40 C35 0.930 . S
C41 O42 1.224 . S
C41 O60 1.247 . S
O42 C41 1.224 . S
N43 Co33 2.128 . S
N43 C44 1.355 . S
N43 C46 1.311 . S
C44 N43 1.355 . S
C44 C45 1.363 . S
C44 H56 0.929 . S
C45 C44 1.363 . S
C45 N47 1.375 . S
C45 H63 0.931 . S
C46 N43 1.311 . S
C46 N47 1.347 . S
C46 H57 0.929 . S
N47 C45 1.375 . S
N47 C46 1.347 . S
C48 C51 1.365 . S
C48 N53 1.328 . S
C48 H54 0.929 . S
C49 C50 1.362 . S
C49 C52 1.378 1_556 S
C49 H64 0.929 . S
C50 C49 1.362 . S
C50 C51 1.366 1_556 S
C51 C48 1.365 . S
C51 C50 1.366 1_554 S
C51 H65 0.930 . S
C52 C49 1.378 1_554 S
C52 N53 1.315 . S
C52 H55 0.930 . S
N53 Co33 2.194 . S
N53 C48 1.328 . S
N53 C52 1.315 . S
H54 C48 0.929 . S
H55 C52 0.930 . S
H56 C44 0.929 . S
H57 C46 0.929 . S
O58 Co33 2.351 . S
O58 C61 1.244 . S
O59 Co33 2.155 . S
O59 C61 1.240 . S
O60 Co33 2.096 . S
O60 C41 1.247 . S
C61 O58 1.244 . S
C61 O59 1.240 . S
H62 C36 0.931 . S
H63 C45 0.931 . S
H64 C49 0.929 . S
H65 C51 0.930 . S
Co66 N70 2.148 . S
Co66 N76 2.128 . S
Co66 N86 2.194 . S
Co66 O91 2.351 . S
Co66 O92 2.155 . S
Co66 O93 2.096 . S
C67 N70 1.301 . S
C67 N71 1.328 1_455 S
C67 H72 0.930 . S
C68 C69 1.333 . S
C68 N70 1.317 . S
C68 H73 0.930 . S
C69 C68 1.333 . S
C69 N71 1.350 1_455 S
C69 H95 0.931 . S
N70 Co66 2.148 . S
N70 C67 1.301 . S
N70 C68 1.317 . S
N71 C67 1.328 1_655 S
N71 C69 1.350 1_655 S
H72 C67 0.930 . S
H73 C68 0.930 . S
C74 O75 1.224 . S
C74 O93 1.247 . S
O75 C74 1.224 . S
N76 Co66 2.128 . S
N76 C77 1.355 . S
N76 C79 1.311 . S
C77 N76 1.355 . S
C77 C78 1.363 . S
C77 H89 0.929 . S
C78 C77 1.363 . S
C78 N80 1.375 . S
C78 H96 0.931 . S
C79 N76 1.311 . S
C79 N80 1.347 . S
C79 H90 0.929 . S
N80 C78 1.375 . S
N80 C79 1.347 . S
C81 C84 1.365 . S
C81 N86 1.328 . S
C81 H87 0.929 . S
C82 C83 1.362 . S
C82 C85 1.378 1_556 S
C82 H97 0.929 . S
C83 C82 1.362 . S
C83 C84 1.366 1_556 S
C84 C81 1.365 . S
C84 C83 1.366 1_554 S
C84 H98 0.930 . S
C85 C82 1.378 1_554 S
C85 N86 1.315 . S
C85 H88 0.930 . S
N86 Co66 2.194 . S
N86 C81 1.328 . S
N86 C85 1.315 . S
H87 C81 0.929 . S
H88 C85 0.930 . S
H89 C77 0.929 . S
H90 C79 0.929 . S
O91 Co66 2.351 . S
O91 C94 1.244 . S
O92 Co66 2.155 . S
O92 C94 1.240 . S
O93 Co66 2.096 . S
O93 C74 1.247 . S
C94 O91 1.244 . S
C94 O92 1.240 . S
H95 C69 0.931 . S
H96 C78 0.931 . S
H97 C82 0.929 . S
H98 C84 0.930 . S
Co99 N103 2.148 . S
Co99 N109 2.128 . S
Co99 N119 2.194 . S
Co99 O124 2.351 . S
Co99 O125 2.155 . S
Co99 O126 2.096 . S
C100 N103 1.301 . S
C100 N104 1.328 . S
C100 H105 0.930 . S
C101 C102 1.333 . S
C101 N103 1.317 . S
C101 H106 0.930 . S
C102 C101 1.333 . S
C102 N104 1.350 . S
C102 H128 0.931 . S
N103 Co99 2.148 . S
N103 C100 1.301 . S
N103 C101 1.317 . S
N104 C100 1.328 . S
N104 C102 1.350 . S
H105 C100 0.930 . S
H106 C101 0.930 . S
C107 O108 1.224 . S
C107 O126 1.247 . S
O108 C107 1.224 . S
N109 Co99 2.128 . S
N109 C110 1.355 . S
N109 C112 1.311 . S
C110 N109 1.355 . S
C110 C111 1.363 . S
C110 H122 0.929 . S
C111 C110 1.363 . S
C111 N113 1.375 . S
C111 H129 0.931 . S
C112 N109 1.311 . S
C112 N113 1.347 . S
C112 H123 0.929 . S
N113 C111 1.375 . S
N113 C112 1.347 . S
C114 C117 1.365 . S
C114 N119 1.328 . S
C114 H120 0.929 . S
C115 C116 1.362 . S
C115 C118 1.378 1_554 S
C115 H130 0.929 . S
C116 C115 1.362 . S
C116 C117 1.366 1_554 S
C117 C114 1.365 . S
C117 C116 1.366 1_556 S
C117 H131 0.930 . S
C118 C115 1.378 1_556 S
C118 N119 1.315 . S
C118 H121 0.930 . S
N119 Co99 2.194 . S
N119 C114 1.328 . S
N119 C118 1.315 . S
H120 C114 0.929 . S
H121 C118 0.930 . S
H122 C110 0.929 . S
H123 C112 0.929 . S
O124 Co99 2.351 . S
O124 C127 1.244 . S
O125 Co99 2.155 . S
O125 C127 1.240 . S
O126 Co99 2.096 . S
O126 C107 1.247 . S
C127 O124 1.244 . S
C127 O125 1.240 . S
H128 C102 0.931 . S
H129 C111 0.931 . S
H130 C115 0.929 . S
H131 C117 0.930 . S
Co132 N136 2.148 . S
Co132 N142 2.128 . S
Co132 N152 2.194 . S
Co132 O157 2.351 . S
Co132 O158 2.155 . S
Co132 O159 2.096 . S
C133 N136 1.301 . S
C133 N137 1.328 1_545 S
C133 H138 0.930 . S
C134 C135 1.333 . S
C134 N136 1.317 . S
C134 H139 0.930 . S
C135 C134 1.333 . S
C135 N137 1.350 1_545 S
C135 H161 0.931 . S
N136 Co132 2.148 . S
N136 C133 1.301 . S
N136 C134 1.317 . S
N137 C133 1.328 1_565 S
N137 C135 1.350 1_565 S
H138 C133 0.930 . S
H139 C134 0.930 . S
C140 O141 1.224 . S
C140 O159 1.247 . S
O141 C140 1.224 . S
N142 Co132 2.128 . S
N142 C143 1.355 . S
N142 C145 1.311 . S
C143 N142 1.355 . S
C143 C144 1.363 . S
C143 H155 0.929 . S
C144 C143 1.363 . S
C144 N146 1.375 . S
C144 H162 0.931 . S
C145 N142 1.311 . S
C145 N146 1.347 . S
C145 H156 0.929 . S
N146 C144 1.375 . S
N146 C145 1.347 . S
C147 C150 1.365 . S
C147 N152 1.328 . S
C147 H153 0.929 . S
C148 C149 1.362 . S
C148 C151 1.378 1_554 S
C148 H163 0.929 . S
C149 C148 1.362 . S
C149 C150 1.366 1_554 S
C150 C147 1.365 . S
C150 C149 1.366 1_556 S
C150 H164 0.930 . S
C151 C148 1.378 1_556 S
C151 N152 1.315 . S
C151 H154 0.930 . S
N152 Co132 2.194 . S
N152 C147 1.328 . S
N152 C151 1.315 . S
H153 C147 0.929 . S
H154 C151 0.930 . S
H155 C143 0.929 . S
H156 C145 0.929 . S
O157 Co132 2.351 . S
O157 C160 1.244 . S
O158 Co132 2.155 . S
O158 C160 1.240 . S
O159 Co132 2.096 . S
O159 C140 1.247 . S
C160 O157 1.244 . S
C160 O158 1.240 . S
H161 C135 0.931 . S
H162 C144 0.931 . S
H163 C148 0.929 . S
H164 C150 0.930 . S
Co165 N169 2.148 . S
Co165 N175 2.128 . S
Co165 N185 2.194 . S
Co165 O190 2.351 . S
Co165 O191 2.155 . S
Co165 O192 2.096 . S
C166 N169 1.301 . S
C166 N170 1.328 1_655 S
C166 H171 0.930 . S
C167 C168 1.333 . S
C167 N169 1.317 . S
C167 H172 0.930 . S
C168 C167 1.333 . S
C168 N170 1.350 1_655 S
C168 H194 0.931 . S
N169 Co165 2.148 . S
N169 C166 1.301 . S
N169 C167 1.317 . S
N170 C166 1.328 1_455 S
N170 C168 1.350 1_455 S
H171 C166 0.930 . S
H172 C167 0.930 . S
C173 O174 1.224 . S
C173 O192 1.247 . S
O174 C173 1.224 . S
N175 Co165 2.128 . S
N175 C176 1.355 . S
N175 C178 1.311 . S
C176 N175 1.355 . S
C176 C177 1.363 . S
C176 H188 0.929 . S
C177 C176 1.363 . S
C177 N179 1.375 . S
C177 H195 0.931 . S
C178 N175 1.311 . S
C178 N179 1.347 . S
C178 H189 0.929 . S
N179 C177 1.375 . S
N179 C178 1.347 . S
C180 C183 1.365 . S
C180 N185 1.328 . S
C180 H186 0.929 . S
C181 C182 1.362 . S
C181 C184 1.378 1_554 S
C181 H196 0.929 . S
C182 C181 1.362 . S
C182 C183 1.366 1_554 S
C183 C180 1.365 . S
C183 C182 1.366 1_556 S
C183 H197 0.930 . S
C184 C181 1.378 1_556 S
C184 N185 1.315 . S
C184 H187 0.930 . S
N185 Co165 2.194 . S
N185 C180 1.328 . S
N185 C184 1.315 . S
H186 C180 0.929 . S
H187 C184 0.930 . S
H188 C176 0.929 . S
H189 C178 0.929 . S
O190 Co165 2.351 . S
O190 C193 1.244 . S
O191 Co165 2.155 . S
O191 C193 1.240 . S
O192 Co165 2.096 . S
O192 C173 1.247 . S
C193 O190 1.244 . S
C193 O191 1.240 . S
H194 C168 0.931 . S
H195 C177 0.931 . S
H196 C181 0.929 . S
H197 C183 0.930 . S
Co198 N202 2.148 . S
Co198 N208 2.128 . S
Co198 N218 2.194 . S
Co198 O223 2.351 . S
Co198 O224 2.155 . S
Co198 O225 2.096 . S
C199 N202 1.301 . S
C199 N203 1.328 . S
C199 H204 0.930 . S
C200 C201 1.333 . S
C200 N202 1.317 . S
C200 H205 0.930 . S
C201 C200 1.333 . S
C201 N203 1.350 . S
C201 H227 0.931 . S
N202 Co198 2.148 . S
N202 C199 1.301 . S
N202 C200 1.317 . S
N203 C199 1.328 . S
N203 C201 1.350 . S
H204 C199 0.930 . S
H205 C200 0.930 . S
C206 O207 1.224 . S
C206 O225 1.247 . S
O207 C206 1.224 . S
N208 Co198 2.128 . S
N208 C209 1.355 . S
N208 C211 1.311 . S
C209 N208 1.355 . S
C209 C210 1.363 . S
C209 H221 0.929 . S
C210 C209 1.363 . S
C210 N212 1.375 . S
C210 H228 0.931 . S
C211 N208 1.311 . S
C211 N212 1.347 . S
C211 H222 0.929 . S
N212 C210 1.375 . S
N212 C211 1.347 . S
C213 C216 1.365 . S
C213 N218 1.328 . S
C213 H219 0.929 . S
C214 C215 1.362 . S
C214 C217 1.378 . S
C214 H229 0.929 . S
C215 C214 1.362 . S
C215 C216 1.366 . S
C216 C213 1.365 . S
C216 C215 1.366 . S
C216 H230 0.930 . S
C217 C214 1.378 . S
C217 N218 1.315 . S
C217 H220 0.930 . S
N218 Co198 2.194 . S
N218 C213 1.328 . S
N218 C217 1.315 . S
H219 C213 0.929 . S
H220 C217 0.930 . S
H221 C209 0.929 . S
H222 C211 0.929 . S
O223 Co198 2.351 . S
O223 C226 1.244 . S
O224 Co198 2.155 . S
O224 C226 1.240 . S
O225 Co198 2.096 . S
O225 C206 1.247 . S
C226 O223 1.244 . S
C226 O224 1.240 . S
H227 C201 0.931 . S
H228 C210 0.931 . S
H229 C214 0.929 . S
H230 C216 0.930 . S
Co231 N235 2.148 . S
Co231 N241 2.128 . S
Co231 N251 2.194 . S
Co231 O256 2.351 . S
Co231 O257 2.155 . S
Co231 O258 2.096 . S
C232 N235 1.301 . S
C232 N236 1.328 . S
C232 H237 0.930 . S
C233 C234 1.333 . S
C233 N235 1.317 . S
C233 H238 0.930 . S
C234 C233 1.333 . S
C234 N236 1.350 . S
C234 H260 0.931 . S
N235 Co231 2.148 . S
N235 C232 1.301 . S
N235 C233 1.317 . S
N236 C232 1.328 . S
N236 C234 1.350 . S
H237 C232 0.930 . S
H238 C233 0.930 . S
C239 O240 1.224 . S
C239 O258 1.247 . S
O240 C239 1.224 . S
N241 Co231 2.128 . S
N241 C242 1.355 . S
N241 C244 1.311 . S
C242 N241 1.355 . S
C242 C243 1.363 . S
C242 H254 0.929 . S
C243 C242 1.363 . S
C243 N245 1.375 . S
C243 H261 0.931 . S
C244 N241 1.311 . S
C244 N245 1.347 . S
C244 H255 0.929 . S
N245 C243 1.375 . S
N245 C244 1.347 . S
C246 C249 1.365 . S
C246 N251 1.328 . S
C246 H252 0.929 . S
C247 C248 1.362 . S
C247 C250 1.378 . S
C247 H262 0.929 . S
C248 C247 1.362 . S
C248 C249 1.366 . S
C249 C246 1.365 . S
C249 C248 1.366 . S
C249 H263 0.930 . S
C250 C247 1.378 . S
C250 N251 1.315 . S
C250 H253 0.930 . S
N251 Co231 2.194 . S
N251 C246 1.328 . S
N251 C250 1.315 . S
H252 C246 0.929 . S
H253 C250 0.930 . S
H254 C242 0.929 . S
H255 C244 0.929 . S
O256 Co231 2.351 . S
O256 C259 1.244 . S
O257 Co231 2.155 . S
O257 C259 1.240 . S
O258 Co231 2.096 . S
O258 C239 1.247 . S
C259 O256 1.244 . S
C259 O257 1.240 . S
H260 C234 0.931 . S
H261 C243 0.931 . S
H262 C247 0.929 . S
H263 C249 0.930 . S
Co264 N268 2.148 . S
Co264 N274 2.128 . S
Co264 N284 2.194 . S
Co264 O289 2.351 . S
Co264 O290 2.155 . S
Co264 O291 2.096 . S
C265 N268 1.301 . S
C265 N269 1.328 . S
C265 H270 0.930 . S
C266 C267 1.333 . S
C266 N268 1.317 . S
C266 H271 0.930 . S
C267 C266 1.333 . S
C267 N269 1.350 . S
C267 H293 0.931 . S
N268 Co264 2.148 . S
N268 C265 1.301 . S
N268 C266 1.317 . S
N269 C265 1.328 . S
N269 C267 1.350 . S
H270 C265 0.930 . S
H271 C266 0.930 . S
C272 O273 1.224 . S
C272 O291 1.247 . S
O273 C272 1.224 . S
N274 Co264 2.128 . S
N274 C275 1.355 . S
N274 C277 1.311 . S
C275 N274 1.355 . S
C275 C276 1.363 . S
C275 H287 0.929 . S
C276 C275 1.363 . S
C276 N278 1.375 . S
C276 H294 0.931 . S
C277 N274 1.311 . S
C277 N278 1.347 . S
C277 H288 0.929 . S
N278 C276 1.375 . S
N278 C277 1.347 . S
C279 C282 1.365 . S
C279 N284 1.328 . S
C279 H285 0.929 . S
C280 C281 1.362 . S
C280 C283 1.378 . S
C280 H295 0.929 . S
C281 C280 1.362 . S
C281 C282 1.366 . S
C282 C279 1.365 . S
C282 C281 1.366 . S
C282 H296 0.930 . S
C283 C280 1.378 . S
C283 N284 1.315 . S
C283 H286 0.930 . S
N284 Co264 2.194 . S
N284 C279 1.328 . S
N284 C283 1.315 . S
H285 C279 0.929 . S
H286 C283 0.930 . S
H287 C275 0.929 . S
H288 C277 0.929 . S
O289 Co264 2.351 . S
O289 C292 1.244 . S
O290 Co264 2.155 . S
O290 C292 1.240 . S
O291 Co264 2.096 . S
O291 C272 1.247 . S
C292 O289 1.244 . S
C292 O290 1.240 . S
H293 C267 0.931 . S
H294 C276 0.931 . S
H295 C280 0.929 . S
H296 C282 0.930 . S
Co297 N301 2.148 . S
Co297 N307 2.128 . S
Co297 N317 2.194 . S
Co297 O322 2.351 . S
Co297 O323 2.155 . S
Co297 O324 2.096 . S
C298 N301 1.301 . S
C298 N302 1.328 . S
C298 H303 0.930 . S
C299 C300 1.333 . S
C299 N301 1.317 . S
C299 H304 0.930 . S
C300 C299 1.333 . S
C300 N302 1.350 . S
C300 H326 0.931 . S
N301 Co297 2.148 . S
N301 C298 1.301 . S
N301 C299 1.317 . S
N302 C298 1.328 . S
N302 C300 1.350 . S
H303 C298 0.930 . S
H304 C299 0.930 . S
C305 O306 1.224 . S
C305 O324 1.247 . S
O306 C305 1.224 . S
N307 Co297 2.128 . S
N307 C308 1.355 . S
N307 C310 1.311 . S
C308 N307 1.355 . S
C308 C309 1.363 . S
C308 H320 0.929 . S
C309 C308 1.363 . S
C309 N311 1.375 . S
C309 H327 0.931 1_545 S
C310 N307 1.311 . S
C310 N311 1.347 . S
C310 H321 0.929 . S
N311 C309 1.375 . S
N311 C310 1.347 . S
C312 C315 1.365 . S
C312 N317 1.328 . S
C312 H318 0.929 . S
C313 C314 1.362 . S
C313 C316 1.378 . S
C313 H328 0.929 . S
C314 C313 1.362 . S
C314 C315 1.366 . S
C315 C312 1.365 . S
C315 C314 1.366 . S
C315 H329 0.930 . S
C316 C313 1.378 . S
C316 N317 1.315 . S
C316 H319 0.930 . S
N317 Co297 2.194 . S
N317 C312 1.328 . S
N317 C316 1.315 . S
H318 C312 0.929 . S
H319 C316 0.930 . S
H320 C308 0.929 . S
H321 C310 0.929 . S
O322 Co297 2.351 . S
O322 C325 1.244 . S
O323 Co297 2.155 . S
O323 C325 1.240 . S
O324 Co297 2.096 . S
O324 C305 1.247 . S
C325 O322 1.244 . S
C325 O323 1.240 . S
H326 C300 0.931 . S
H327 C309 0.931 1_565 S
H328 C313 0.929 . S
H329 C315 0.930 . S
Co330 N334 2.148 . S
Co330 N340 2.128 . S
Co330 N350 2.194 . S
Co330 O355 2.351 . S
Co330 O356 2.155 . S
Co330 O357 2.096 . S
C331 N334 1.301 . S
C331 N335 1.328 . S
C331 H336 0.930 . S
C332 C333 1.333 . S
C332 N334 1.317 . S
C332 H337 0.930 . S
C333 C332 1.333 . S
C333 N335 1.350 . S
C333 H359 0.931 . S
N334 Co330 2.148 . S
N334 C331 1.301 . S
N334 C332 1.317 . S
N335 C331 1.328 . S
N335 C333 1.350 . S
H336 C331 0.930 . S
H337 C332 0.930 . S
C338 O339 1.224 . S
C338 O357 1.247 . S
O339 C338 1.224 . S
N340 Co330 2.128 . S
N340 C341 1.355 . S
N340 C343 1.311 . S
C341 N340 1.355 . S
C341 C342 1.363 . S
C341 H353 0.929 . S
C342 C341 1.363 . S
C342 N344 1.375 . S
C342 H360 0.931 1_655 S
C343 N340 1.311 . S
C343 N344 1.347 . S
C343 H354 0.929 . S
N344 C342 1.375 . S
N344 C343 1.347 . S
C345 C348 1.365 . S
C345 N350 1.328 . S
C345 H351 0.929 . S
C346 C347 1.362 . S
C346 C349 1.378 . S
C346 H361 0.929 . S
C347 C346 1.362 . S
C347 C348 1.366 . S
C348 C345 1.365 . S
C348 C347 1.366 . S
C348 H362 0.930 . S
C349 C346 1.378 . S
C349 N350 1.315 . S
C349 H352 0.930 . S
N350 Co330 2.194 . S
N350 C345 1.328 . S
N350 C349 1.315 . S
H351 C345 0.929 . S
H352 C349 0.930 . S
H353 C341 0.929 . S
H354 C343 0.929 . S
O355 Co330 2.351 . S
O355 C358 1.244 . S
O356 Co330 2.155 . S
O356 C358 1.240 . S
O357 Co330 2.096 . S
O357 C338 1.247 . S
C358 O355 1.244 . S
C358 O356 1.240 . S
H359 C333 0.931 . S
H360 C342 0.931 1_455 S
H361 C346 0.929 . S
H362 C348 0.930 . S
Co363 N367 2.148 . S
Co363 N373 2.128 . S
Co363 N383 2.194 . S
Co363 O388 2.351 . S
Co363 O389 2.155 . S
Co363 O390 2.096 . S
C364 N367 1.301 . S
C364 N368 1.328 . S
C364 H369 0.930 . S
C365 C366 1.333 . S
C365 N367 1.317 . S
C365 H370 0.930 . S
C366 C365 1.333 . S
C366 N368 1.350 . S
C366 H392 0.931 . S
N367 Co363 2.148 . S
N367 C364 1.301 . S
N367 C365 1.317 . S
N368 C364 1.328 . S
N368 C366 1.350 . S
H369 C364 0.930 . S
H370 C365 0.930 . S
C371 O372 1.224 . S
C371 O390 1.247 . S
O372 C371 1.224 . S
N373 Co363 2.128 . S
N373 C374 1.355 . S
N373 C376 1.311 . S
C374 N373 1.355 . S
C374 C375 1.363 . S
C374 H386 0.929 . S
C375 C374 1.363 . S
C375 N377 1.375 . S
C375 H393 0.931 . S
C376 N373 1.311 . S
C376 N377 1.347 . S
C376 H387 0.929 . S
N377 C375 1.375 . S
N377 C376 1.347 . S
C378 C381 1.365 . S
C378 N383 1.328 . S
C378 H384 0.929 . S
C379 C380 1.362 . S
C379 C382 1.378 . S
C379 H394 0.929 . S
C380 C379 1.362 . S
C380 C381 1.366 . S
C381 C378 1.365 . S
C381 C380 1.366 . S
C381 H395 0.930 . S
C382 C379 1.378 . S
C382 N383 1.315 . S
C382 H385 0.930 . S
N383 Co363 2.194 . S
N383 C378 1.328 . S
N383 C382 1.315 . S
H384 C378 0.929 . S
H385 C382 0.930 . S
H386 C374 0.929 . S
H387 C376 0.929 . S
O388 Co363 2.351 . S
O388 C391 1.244 . S
O389 Co363 2.155 . S
O389 C391 1.240 . S
O390 Co363 2.096 . S
O390 C371 1.247 . S
C391 O388 1.244 . S
C391 O389 1.240 . S
H392 C366 0.931 . S
H393 C375 0.931 . S
H394 C379 0.929 . S
H395 C381 0.930 . S
Co396 N400 2.148 . S
Co396 N406 2.128 . S
Co396 N416 2.194 . S
Co396 O421 2.351 . S
Co396 O422 2.155 . S
Co396 O423 2.096 . S
C397 N400 1.301 . S
C397 N401 1.328 . S
C397 H402 0.930 . S
C398 C399 1.333 . S
C398 N400 1.317 . S
C398 H403 0.930 . S
C399 C398 1.333 . S
C399 N401 1.350 . S
C399 H425 0.931 . S
N400 Co396 2.148 . S
N400 C397 1.301 . S
N400 C398 1.317 . S
N401 C397 1.328 . S
N401 C399 1.350 . S
H402 C397 0.930 . S
H403 C398 0.930 . S
C404 O405 1.224 . S
C404 O423 1.247 . S
O405 C404 1.224 . S
N406 Co396 2.128 . S
N406 C407 1.355 . S
N406 C409 1.311 . S
C407 N406 1.355 . S
C407 C408 1.363 . S
C407 H419 0.929 . S
C408 C407 1.363 . S
C408 N410 1.375 . S
C408 H426 0.931 1_565 S
C409 N406 1.311 . S
C409 N410 1.347 . S
C409 H420 0.929 . S
N410 C408 1.375 . S
N410 C409 1.347 . S
C411 C414 1.365 . S
C411 N416 1.328 . S
C411 H417 0.929 . S
C412 C413 1.362 . S
C412 C415 1.378 . S
C412 H427 0.929 . S
C413 C412 1.362 . S
C413 C414 1.366 . S
C414 C411 1.365 . S
C414 C413 1.366 . S
C414 H428 0.930 . S
C415 C412 1.378 . S
C415 N416 1.315 . S
C415 H418 0.930 . S
N416 Co396 2.194 . S
N416 C411 1.328 . S
N416 C415 1.315 . S
H417 C411 0.929 . S
H418 C415 0.930 . S
H419 C407 0.929 . S
H420 C409 0.929 . S
O421 Co396 2.351 . S
O421 C424 1.244 . S
O422 Co396 2.155 . S
O422 C424 1.240 . S
O423 Co396 2.096 . S
O423 C404 1.247 . S
C424 O421 1.244 . S
C424 O422 1.240 . S
H425 C399 0.931 . S
H426 C408 0.931 1_545 S
H427 C412 0.929 . S
H428 C414 0.930 . S
Co429 N433 2.148 . S
Co429 N439 2.128 . S
Co429 N449 2.194 . S
Co429 O454 2.351 . S
Co429 O455 2.155 . S
Co429 O456 2.096 . S
C430 N433 1.301 . S
C430 N434 1.328 . S
C430 H435 0.930 . S
C431 C432 1.333 . S
C431 N433 1.317 . S
C431 H436 0.930 . S
C432 C431 1.333 . S
C432 N434 1.350 . S
C432 H458 0.931 . S
N433 Co429 2.148 . S
N433 C430 1.301 . S
N433 C431 1.317 . S
N434 C430 1.328 . S
N434 C432 1.350 . S
H435 C430 0.930 . S
H436 C431 0.930 . S
C437 O438 1.224 . S
C437 O456 1.247 . S
O438 C437 1.224 . S
N439 Co429 2.128 . S
N439 C440 1.355 . S
N439 C442 1.311 . S
C440 N439 1.355 . S
C440 C441 1.363 . S
C440 H452 0.929 . S
C441 C440 1.363 . S
C441 N443 1.375 . S
C441 H459 0.931 1_455 S
C442 N439 1.311 . S
C442 N443 1.347 . S
C442 H453 0.929 . S
N443 C441 1.375 . S
N443 C442 1.347 . S
C444 C447 1.365 . S
C444 N449 1.328 . S
C444 H450 0.929 . S
C445 C446 1.362 . S
C445 C448 1.378 . S
C445 H460 0.929 . S
C446 C445 1.362 . S
C446 C447 1.366 . S
C447 C444 1.365 . S
C447 C446 1.366 . S
C447 H461 0.930 . S
C448 C445 1.378 . S
C448 N449 1.315 . S
C448 H451 0.930 . S
N449 Co429 2.194 . S
N449 C444 1.328 . S
N449 C448 1.315 . S
H450 C444 0.929 . S
H451 C448 0.930 . S
H452 C440 0.929 . S
H453 C442 0.929 . S
O454 Co429 2.351 . S
O454 C457 1.244 . S
O455 Co429 2.155 . S
O455 C457 1.240 . S
O456 Co429 2.096 . S
O456 C437 1.247 . S
C457 O454 1.244 . S
C457 O455 1.240 . S
H458 C432 0.931 . S
H459 C441 0.931 1_655 S
H460 C445 0.929 . S
H461 C447 0.930 . S
Co462 N466 2.148 . S
Co462 N472 2.128 . S
Co462 N482 2.194 . S
Co462 O487 2.351 . S
Co462 O488 2.155 . S
Co462 O489 2.096 . S
C463 N466 1.301 . S
C463 N467 1.328 . S
C463 H468 0.930 . S
C464 C465 1.333 . S
C464 N466 1.317 . S
C464 H469 0.930 . S
C465 C464 1.333 . S
C465 N467 1.350 . S
C465 H491 0.931 . S
N466 Co462 2.148 . S
N466 C463 1.301 . S
N466 C464 1.317 . S
N467 C463 1.328 . S
N467 C465 1.350 . S
H468 C463 0.930 . S
H469 C464 0.930 . S
C470 O471 1.224 . S
C470 O489 1.247 . S
O471 C470 1.224 . S
N472 Co462 2.128 . S
N472 C473 1.355 . S
N472 C475 1.311 . S
C473 N472 1.355 . S
C473 C474 1.363 . S
C473 H485 0.929 . S
C474 C473 1.363 . S
C474 N476 1.375 . S
C474 H492 0.931 . S
C475 N472 1.311 . S
C475 N476 1.347 . S
C475 H486 0.929 . S
N476 C474 1.375 . S
N476 C475 1.347 . S
C477 C480 1.365 . S
C477 N482 1.328 . S
C477 H483 0.929 . S
C478 C479 1.362 . S
C478 C481 1.378 . S
C478 H493 0.929 . S
C479 C478 1.362 . S
C479 C480 1.366 . S
C480 C477 1.365 . S
C480 C479 1.366 . S
C480 H494 0.930 . S
C481 C478 1.378 . S
C481 N482 1.315 . S
C481 H484 0.930 . S
N482 Co462 2.194 . S
N482 C477 1.328 . S
N482 C481 1.315 . S
H483 C477 0.929 . S
H484 C481 0.930 . S
H485 C473 0.929 . S
H486 C475 0.929 . S
O487 Co462 2.351 . S
O487 C490 1.244 . S
O488 Co462 2.155 . S
O488 C490 1.240 . S
O489 Co462 2.096 . S
O489 C470 1.247 . S
C490 O487 1.244 . S
C490 O488 1.240 . S
H491 C465 0.931 . S
H492 C474 0.931 . S
H493 C478 0.929 . S
H494 C480 0.930 . S
Co495 N499 2.148 . S
Co495 N505 2.128 . S
Co495 N515 2.194 . S
Co495 O520 2.351 . S
Co495 O521 2.155 . S
Co495 O522 2.096 . S
C496 N499 1.301 . S
C496 N500 1.328 . S
C496 H501 0.930 . S
C497 C498 1.333 . S
C497 N499 1.317 . S
C497 H502 0.930 . S
C498 C497 1.333 . S
C498 N500 1.350 . S
C498 H524 0.931 . S
N499 Co495 2.148 . S
N499 C496 1.301 . S
N499 C497 1.317 . S
N500 C496 1.328 . S
N500 C498 1.350 . S
H501 C496 0.930 . S
H502 C497 0.930 . S
C503 O504 1.224 . S
C503 O522 1.247 . S
O504 C503 1.224 . S
N505 Co495 2.128 . S
N505 C506 1.355 . S
N505 C508 1.311 . S
C506 N505 1.355 . S
C506 C507 1.363 . S
C506 H518 0.929 . S
C507 C506 1.363 . S
C507 N509 1.375 . S
C507 H525 0.931 . S
C508 N505 1.311 . S
C508 N509 1.347 . S
C508 H519 0.929 . S
N509 C507 1.375 . S
N509 C508 1.347 . S
C510 C513 1.365 . S
C510 N515 1.328 . S
C510 H516 0.929 . S
C511 C512 1.362 . S
C511 C514 1.378 . S
C511 H526 0.929 . S
C512 C511 1.362 . S
C512 C513 1.366 . S
C513 C510 1.365 . S
C513 C512 1.366 . S
C513 H527 0.930 . S
C514 C511 1.378 . S
C514 N515 1.315 . S
C514 H517 0.930 . S
N515 Co495 2.194 . S
N515 C510 1.328 . S
N515 C514 1.315 . S
H516 C510 0.929 . S
H517 C514 0.930 . S
H518 C506 0.929 . S
H519 C508 0.929 . S
O520 Co495 2.351 . S
O520 C523 1.244 . S
O521 Co495 2.155 . S
O521 C523 1.240 . S
O522 Co495 2.096 . S
O522 C503 1.247 . S
C523 O520 1.244 . S
C523 O521 1.240 . S
H524 C498 0.931 . S
H525 C507 0.931 . S
H526 C511 0.929 . S
H527 C513 0.930 . S
Co528 N532 2.148 . S
Co528 N538 2.128 . S
Co528 N548 2.194 . S
Co528 O553 2.351 . S
Co528 O554 2.155 . S
Co528 O555 2.096 . S
C529 N532 1.301 . S
C529 N533 1.328 . S
C529 H534 0.930 . S
C530 C531 1.333 . S
C530 N532 1.317 . S
C530 H535 0.930 . S
C531 C530 1.333 . S
C531 N533 1.350 . S
C531 H557 0.931 . S
N532 Co528 2.148 . S
N532 C529 1.301 . S
N532 C530 1.317 . S
N533 C529 1.328 . S
N533 C531 1.350 . S
H534 C529 0.930 . S
H535 C530 0.930 . S
C536 O537 1.224 . S
C536 O555 1.247 . S
O537 C536 1.224 . S
N538 Co528 2.128 . S
N538 C539 1.355 . S
N538 C541 1.311 . S
C539 N538 1.355 . S
C539 C540 1.363 . S
C539 H551 0.929 . S
C540 C539 1.363 . S
C540 N542 1.375 . S
C540 H558 0.931 . S
C541 N538 1.311 . S
C541 N542 1.347 . S
C541 H552 0.929 . S
N542 C540 1.375 . S
N542 C541 1.347 . S
C543 C546 1.365 . S
C543 N548 1.328 . S
C543 H549 0.929 . S
C544 C545 1.362 . S
C544 C547 1.378 . S
C544 H559 0.929 . S
C545 C544 1.362 . S
C545 C546 1.366 . S
C546 C543 1.365 . S
C546 C545 1.366 . S
C546 H560 0.930 . S
C547 C544 1.378 . S
C547 N548 1.315 . S
C547 H550 0.930 . S
N548 Co528 2.194 . S
N548 C543 1.328 . S
N548 C547 1.315 . S
H549 C543 0.929 . S
H550 C547 0.930 . S
H551 C539 0.929 . S
H552 C541 0.929 . S
O553 Co528 2.351 . S
O553 C556 1.244 . S
O554 Co528 2.155 . S
O554 C556 1.240 . S
O555 Co528 2.096 . S
O555 C536 1.247 . S
C556 O553 1.244 . S
C556 O554 1.240 . S
H557 C531 0.931 . S
H558 C540 0.931 . S
H559 C544 0.929 . S
H560 C546 0.930 . S
Co561 N565 2.148 . S
Co561 N571 2.128 . S
Co561 N581 2.194 . S
Co561 O586 2.351 . S
Co561 O587 2.155 . S
Co561 O588 2.096 . S
C562 N565 1.301 . S
C562 N566 1.328 . S
C562 H567 0.930 . S
C563 C564 1.333 . S
C563 N565 1.317 . S
C563 H568 0.930 . S
C564 C563 1.333 . S
C564 N566 1.350 . S
C564 H590 0.931 . S
N565 Co561 2.148 . S
N565 C562 1.301 . S
N565 C563 1.317 . S
N566 C562 1.328 . S
N566 C564 1.350 . S
H567 C562 0.930 . S
H568 C563 0.930 . S
C569 O570 1.224 . S
C569 O588 1.247 . S
O570 C569 1.224 . S
N571 Co561 2.128 . S
N571 C572 1.355 . S
N571 C574 1.311 . S
C572 N571 1.355 . S
C572 C573 1.363 . S
C572 H584 0.929 . S
C573 C572 1.363 . S
C573 N575 1.375 . S
C573 H591 0.931 . S
C574 N571 1.311 . S
C574 N575 1.347 . S
C574 H585 0.929 . S
N575 C573 1.375 . S
N575 C574 1.347 . S
C576 C579 1.365 . S
C576 N581 1.328 . S
C576 H582 0.929 . S
C577 C578 1.362 . S
C577 C580 1.378 . S
C577 H592 0.929 . S
C578 C577 1.362 . S
C578 C579 1.366 . S
C579 C576 1.365 . S
C579 C578 1.366 . S
C579 H593 0.930 . S
C580 C577 1.378 . S
C580 N581 1.315 . S
C580 H583 0.930 . S
N581 Co561 2.194 . S
N581 C576 1.328 . S
N581 C580 1.315 . S
H582 C576 0.929 . S
H583 C580 0.930 . S
H584 C572 0.929 . S
H585 C574 0.929 . S
O586 Co561 2.351 . S
O586 C589 1.244 . S
O587 Co561 2.155 . S
O587 C589 1.240 . S
O588 Co561 2.096 . S
O588 C569 1.247 . S
C589 O586 1.244 . S
C589 O587 1.240 . S
H590 C564 0.931 . S
H591 C573 0.931 . S
H592 C577 0.929 . S
H593 C579 0.930 . S
H594 C600 0.930 . S
H595 C604 0.930 . S
H596 C609 0.929 . S
H597 C607 0.929 . S
H598 C602 0.929 . S
H599 C608 0.929 . S
C600 H594 0.930 . S
C600 C601 1.367 . S
C600 C608 1.378 . S
C601 C600 1.367 . S
C601 C609 1.433 . S
C602 H598 0.929 . S
C602 C604 1.378 . S
C602 C606 1.350 . S
C603 C606 1.463 . S
C603 C608 1.350 . S
C603 N611 1.427 . S
C604 H595 0.930 . S
C604 C602 1.378 . S
C604 C605 1.367 . S
C605 C604 1.367 . S
C605 C607 1.433 . S
C606 C602 1.350 . S
C606 C603 1.463 . S
C606 N610 1.427 . S
C607 H597 0.929 . S
C607 C605 1.433 . S
C607 N610 1.384 . S
C608 H599 0.929 . S
C608 C600 1.378 . S
C608 C603 1.350 . S
C609 H596 0.929 . S
C609 C601 1.433 . S
C609 N611 1.384 . S
N610 C606 1.427 . S
N610 C607 1.384 . S
N611 C603 1.427 . S
N611 C609 1.384 . S
H612 C618 0.930 . S
H613 C622 0.930 . S
H614 C627 0.915 1_565 S
H615 C625 0.929 . S
H616 C620 0.929 . S
H617 C626 0.929 . S
C618 H612 0.930 . S
C618 C619 1.367 . S
C618 C626 1.378 1_565 S
C619 C618 1.367 . S
C619 C627 1.430 1_565 S
C620 H616 0.929 . S
C620 C622 1.378 . S
C620 C624 1.350 . S
C621 C624 1.463 . S
C621 C626 1.350 . S
C621 N629 1.427 . S
C622 H613 0.930 . S
C622 C620 1.378 . S
C622 C623 1.367 . S
C623 C622 1.367 . S
C623 C625 1.433 . S
C624 C620 1.350 . S
C624 C621 1.463 . S
C624 N628 1.427 . S
C625 H615 0.929 . S
C625 C623 1.433 . S
C625 N628 1.384 . S
C626 H617 0.929 . S
C626 C618 1.378 1_545 S
C626 C621 1.350 . S
C627 H614 0.915 1_545 S
C627 C619 1.430 1_545 S
C627 N629 1.402 . S
N628 C624 1.427 . S
N628 C625 1.384 . S
N629 C621 1.427 . S
N629 C627 1.402 . S
H630 C636 0.930 . S
H631 C640 0.930 . S
H632 C645 0.927 . S
H633 C643 0.929 . S
H634 C638 0.929 . S
H635 C644 0.929 . S
C636 H630 0.930 . S
C636 C637 1.367 . S
C636 C644 1.378 1_455 S
C637 C636 1.367 . S
C637 C645 1.441 . S
C638 H634 0.929 . S
C638 C640 1.378 . S
C638 C642 1.350 . S
C639 C642 1.463 . S
C639 C644 1.350 . S
C639 N647 1.427 . S
C640 H631 0.930 . S
C640 C638 1.378 . S
C640 C641 1.367 . S
C641 C640 1.367 . S
C641 C643 1.433 . S
C642 C638 1.350 . S
C642 C639 1.463 . S
C642 N646 1.427 . S
C643 H633 0.929 . S
C643 C641 1.433 . S
C643 N646 1.384 . S
C644 H635 0.929 . S
C644 C636 1.378 1_655 S
C644 C639 1.350 . S
C645 H632 0.927 . S
C645 C637 1.441 . S
C645 N647 1.379 1_455 S
N646 C642 1.427 . S
N646 C643 1.384 . S
N647 C639 1.427 . S
N647 C645 1.379 1_655 S
H648 C654 0.930 . S
H649 C658 0.930 . S
H650 C663 0.929 . S
H651 C661 0.929 . S
H652 C656 0.929 . S
H653 C662 0.929 . S
C654 H648 0.930 . S
C654 C655 1.367 . S
C654 C662 1.378 . S
C655 C654 1.367 . S
C655 C663 1.433 . S
C656 H652 0.929 . S
C656 C658 1.378 . S
C656 C660 1.350 . S
C657 C660 1.463 . S
C657 C662 1.350 . S
C657 N665 1.427 . S
C658 H649 0.930 . S
C658 C656 1.378 . S
C658 C659 1.367 . S
C659 C658 1.367 . S
C659 C661 1.433 . S
C660 C656 1.350 . S
C660 C657 1.463 . S
C660 N664 1.427 . S
C661 H651 0.929 . S
C661 C659 1.433 . S
C661 N664 1.384 . S
C662 H653 0.929 . S
C662 C654 1.378 . S
C662 C657 1.350 . S
C663 H650 0.929 . S
C663 C655 1.433 . S
C663 N665 1.384 . S
N664 C660 1.427 . S
N664 C661 1.384 . S
N665 C657 1.427 . S
N665 C663 1.384 . S
H666 C672 0.930 . S
H667 C676 0.930 . S
H668 C681 0.929 . S
H669 C679 0.929 . S
H670 C674 0.929 . S
H671 C680 0.929 . S
C672 H666 0.930 . S
C672 C673 1.367 1_565 S
C672 C680 1.378 . S
C673 C672 1.367 1_545 S
C673 C681 1.433 . S
C674 H670 0.929 . S
C674 C676 1.378 . S
C674 C678 1.350 . S
C675 C678 1.463 . S
C675 C680 1.350 . S
C675 N683 1.421 1_565 S
C676 H667 0.930 . S
C676 C674 1.378 . S
C676 C677 1.367 . S
C677 C676 1.367 . S
C677 C679 1.433 . S
C678 C674 1.350 . S
C678 C675 1.463 . S
C678 N682 1.427 . S
C679 H669 0.929 . S
C679 C677 1.433 . S
C679 N682 1.384 . S
C680 H671 0.929 . S
C680 C672 1.378 . S
C680 C675 1.350 . S
C681 H668 0.929 . S
C681 C673 1.433 . S
C681 N683 1.391 . S
N682 C678 1.427 . S
N682 C679 1.384 . S
N683 C675 1.421 1_545 S
N683 C681 1.391 . S
H684 C690 0.930 . S
H685 C694 0.930 . S
H686 C699 0.929 . S
H687 C697 0.929 . S
H688 C692 0.929 . S
H689 C698 0.929 . S
C690 H684 0.930 . S
C690 C691 1.367 . S
C690 C698 1.378 1_655 S
C691 C690 1.367 . S
C691 C699 1.433 1_655 S
C692 H688 0.929 . S
C692 C694 1.378 . S
C692 C696 1.350 . S
C693 C696 1.463 . S
C693 C698 1.350 . S
C693 N701 1.427 . S
C694 H685 0.930 . S
C694 C692 1.378 . S
C694 C695 1.367 . S
C695 C694 1.367 . S
C695 C697 1.433 . S
C696 C692 1.350 . S
C696 C693 1.463 . S
C696 N700 1.427 . S
C697 H687 0.929 . S
C697 C695 1.433 . S
C697 N700 1.384 . S
C698 H689 0.929 . S
C698 C690 1.378 1_455 S
C698 C693 1.350 . S
C699 H686 0.929 . S
C699 C691 1.433 1_455 S
C699 N701 1.384 . S
N700 C696 1.427 . S
N700 C697 1.384 . S
N701 C693 1.427 . S
N701 C699 1.384 . S
H702 C708 0.930 . S
H703 C712 0.930 1_455 S
H704 C717 0.929 . S
H705 C715 0.929 . S
H706 C710 0.929 . S
H707 C716 0.929 . S
C708 H702 0.930 . S
C708 C709 1.367 . S
C708 C716 1.378 . S
C709 C708 1.367 . S
C709 C717 1.433 . S
C710 H706 0.929 . S
C710 C712 1.378 . S
C710 C714 1.350 . S
C711 C714 1.463 . S
C711 C716 1.350 . S
C711 N719 1.427 . S
C712 H703 0.930 1_655 S
C712 C710 1.378 . S
C712 C713 1.367 1_655 S
C713 C712 1.367 1_455 S
C713 C715 1.433 1_455 S
C714 C710 1.350 . S
C714 C711 1.463 . S
C714 N718 1.427 . S
C715 H705 0.929 . S
C715 C713 1.433 1_655 S
C715 N718 1.384 . S
C716 H707 0.929 . S
C716 C708 1.378 . S
C716 C711 1.350 . S
C717 H704 0.929 . S
C717 C709 1.433 . S
C717 N719 1.384 . S
N718 C714 1.427 . S
N718 C715 1.384 . S
N719 C711 1.427 . S
N719 C717 1.384 . S
H720 C726 0.930 . S
H721 C730 0.930 . S
H722 C735 0.929 . S
H723 C733 0.929 . S
H724 C728 0.929 . S
H725 C734 0.929 . S
C726 H720 0.930 . S
C726 C727 1.367 . S
C726 C734 1.378 . S
C727 C726 1.367 . S
C727 C735 1.433 . S
C728 H724 0.929 . S
C728 C730 1.378 . S
C728 C732 1.350 . S
C729 C732 1.463 . S
C729 C734 1.350 . S
C729 N737 1.427 . S
C730 H721 0.930 . S
C730 C728 1.378 . S
C730 C731 1.367 . S
C731 C730 1.367 . S
C731 C733 1.433 . S
C732 C728 1.350 . S
C732 C729 1.463 . S
C732 N736 1.427 . S
C733 H723 0.929 . S
C733 C731 1.433 . S
C733 N736 1.384 . S
C734 H725 0.929 . S
C734 C726 1.378 . S
C734 C729 1.350 . S
C735 H722 0.929 . S
C735 C727 1.433 . S
C735 N737 1.384 . S
N736 C732 1.427 . S
N736 C733 1.384 . S
N737 C729 1.427 . S
N737 C735 1.384 . S
H738 C744 0.930 . S
H739 C748 0.930 . S
H740 C753 0.929 1_565 S
H741 C751 0.929 . S
H742 C746 0.929 . S
H743 C752 0.929 . S
C744 H738 0.930 . S
C744 C745 1.367 1_545 S
C744 C752 1.378 . S
C745 C744 1.367 1_565 S
C745 C753 1.433 1_565 S
C746 H742 0.929 . S
C746 C748 1.378 . S
C746 C750 1.350 . S
C747 C750 1.463 . S
C747 C752 1.350 . S
C747 N755 1.427 . S
C748 H739 0.930 . S
C748 C746 1.378 . S
C748 C749 1.367 . S
C749 C748 1.367 . S
C749 C751 1.433 . S
C750 C746 1.350 . S
C750 C747 1.463 . S
C750 N754 1.427 . S
C751 H741 0.929 . S
C751 C749 1.433 . S
C751 N754 1.384 . S
C752 H743 0.929 . S
C752 C744 1.378 . S
C752 C747 1.350 . S
C753 H740 0.929 1_545 S
C753 C745 1.433 1_545 S
C753 N755 1.384 . S
N754 C750 1.427 . S
N754 C751 1.384 . S
N755 C747 1.427 . S
N755 C753 1.384 . S
H756 C762 0.930 . S
H757 C766 0.930 . S
H758 C771 0.929 . S
H759 C769 0.929 . S
H760 C764 0.929 . S
H761 C770 0.929 . S
C762 H756 0.930 . S
C762 C763 1.367 . S
C762 C770 1.378 . S
C763 C762 1.367 . S
C763 C771 1.433 . S
C764 H760 0.929 . S
C764 C766 1.378 . S
C764 C768 1.350 . S
C765 C768 1.463 . S
C765 C770 1.350 . S
C765 N773 1.427 . S
C766 H757 0.930 . S
C766 C764 1.378 . S
C766 C767 1.367 . S
C767 C766 1.367 . S
C767 C769 1.433 1_554 S
C768 C764 1.350 . S
C768 C765 1.463 . S
C768 N772 1.427 . S
C769 H759 0.929 . S
C769 C767 1.433 1_556 S
C769 N772 1.384 1_556 S
C770 H761 0.929 . S
C770 C762 1.378 . S
C770 C765 1.350 . S
C771 H758 0.929 . S
C771 C763 1.433 . S
C771 N773 1.384 . S
N772 C768 1.427 . S
N772 C769 1.384 1_554 S
N773 C765 1.427 . S
N773 C771 1.384 . S
H774 C780 0.930 . S
H775 C784 0.930 . S
H776 C789 0.929 . S
H777 C787 0.929 1_556 S
H778 C782 0.929 . S
H779 C788 0.929 . S
C780 H774 0.930 . S
C780 C781 1.367 . S
C780 C788 1.378 . S
C781 C780 1.367 . S
C781 C789 1.433 . S
C782 H778 0.929 . S
C782 C784 1.378 . S
C782 C786 1.350 . S
C783 C786 1.463 . S
C783 C788 1.350 . S
C783 N791 1.427 . S
C784 H775 0.930 . S
C784 C782 1.378 . S
C784 C785 1.367 . S
C785 C784 1.367 . S
C785 C787 1.433 . S
C786 C782 1.350 . S
C786 C783 1.463 . S
C786 N790 1.427 . S
C787 H777 0.929 1_554 S
C787 C785 1.433 . S
C787 N790 1.384 . S
C788 H779 0.929 . S
C788 C780 1.378 . S
C788 C783 1.350 . S
C789 H776 0.929 . S
C789 C781 1.433 . S
C789 N791 1.384 . S
N790 C786 1.427 . S
N790 C787 1.384 . S
N791 C783 1.427 . S
N791 C789 1.384 . S
H792 C798 0.930 . S
H793 C802 0.930 . S
H794 C807 0.929 . S
H795 C805 0.929 . S
H796 C800 0.929 . S
H797 C806 0.929 . S
C798 H792 0.930 . S
C798 C799 1.367 . S
C798 C806 1.378 . S
C799 C798 1.367 . S
C799 C807 1.433 . S
C800 H796 0.929 . S
C800 C802 1.378 . S
C800 C804 1.350 . S
C801 C804 1.463 . S
C801 C806 1.350 . S
C801 N809 1.427 . S
C802 H793 0.930 . S
C802 C800 1.378 . S
C802 C803 1.367 . S
C803 C802 1.367 . S
C803 C805 1.433 1_554 S
C804 C800 1.350 . S
C804 C801 1.463 . S
C804 N808 1.427 . S
C805 H795 0.929 . S
C805 C803 1.433 1_556 S
C805 N808 1.384 1_556 S
C806 H797 0.929 . S
C806 C798 1.378 . S
C806 C801 1.350 . S
C807 H794 0.929 . S
C807 C799 1.433 . S
C807 N809 1.384 . S
N808 C804 1.427 . S
N808 C805 1.384 1_554 S
N809 C801 1.427 . S
N809 C807 1.384 . S
H810 C816 0.930 . S
H811 C820 0.930 . S
H812 C825 0.929 . S
H813 C823 0.929 1_554 S
H814 C818 0.929 . S
H815 C824 0.929 . S
C816 H810 0.930 . S
C816 C817 1.367 . S
C816 C824 1.378 . S
C817 C816 1.367 . S
C817 C825 1.433 . S
C818 H814 0.929 . S
C818 C820 1.378 . S
C818 C822 1.350 . S
C819 C822 1.463 . S
C819 C824 1.350 . S
C819 N827 1.427 . S
C820 H811 0.930 . S
C820 C818 1.378 . S
C820 C821 1.367 . S
C821 C820 1.367 . S
C821 C823 1.433 . S
C822 C818 1.350 . S
C822 C819 1.463 . S
C822 N826 1.427 . S
C823 H813 0.929 1_556 S
C823 C821 1.433 . S
C823 N826 1.384 . S
C824 H815 0.929 . S
C824 C816 1.378 . S
C824 C819 1.350 . S
C825 H812 0.929 . S
C825 C817 1.433 . S
C825 N827 1.384 . S
N826 C822 1.427 . S
N826 C823 1.384 . S
N827 C819 1.427 . S
N827 C825 1.384 . S
H828 C834 0.930 . S
H829 C838 0.930 . S
H830 C843 0.929 . S
H831 C841 0.929 . S
H832 C836 0.929 . S
H833 C842 0.929 . S
C834 H828 0.930 . S
C834 C835 1.367 . S
C834 C842 1.378 . S
C835 C834 1.367 . S
C835 C843 1.433 . S
C836 H832 0.929 . S
C836 C838 1.378 1_556 S
C836 C840 1.350 . S
C837 C840 1.463 . S
C837 C842 1.350 . S
C837 N845 1.427 . S
C838 H829 0.930 . S
C838 C836 1.378 1_554 S
C838 C839 1.367 1_554 S
C839 C838 1.367 1_556 S
C839 C841 1.433 . S
C840 C836 1.350 . S
C840 C837 1.463 . S
C840 N844 1.427 . S
C841 H831 0.929 . S
C841 C839 1.433 . S
C841 N844 1.384 . S
C842 H833 0.929 . S
C842 C834 1.378 . S
C842 C837 1.350 . S
C843 H830 0.929 . S
C843 C835 1.433 . S
C843 N845 1.384 . S
N844 C840 1.427 . S
N844 C841 1.384 . S
N845 C837 1.427 . S
N845 C843 1.384 . S
H846 C852 0.930 . S
H847 C856 0.930 . S
H848 C861 0.929 . S
H849 C859 0.929 . S
H850 C854 0.929 . S
H851 C860 0.929 . S
C852 H846 0.930 . S
C852 C853 1.367 1_554 S
C852 C860 1.378 1_554 S
C853 C852 1.367 1_556 S
C853 C861 1.433 . S
C854 H850 0.929 . S
C854 C856 1.378 . S
C854 C858 1.350 . S
C855 C858 1.463 . S
C855 C860 1.350 . S
C855 N863 1.427 . S
C856 H847 0.930 . S
C856 C854 1.378 . S
C856 C857 1.367 . S
C857 C856 1.367 . S
C857 C859 1.433 . S
C858 C854 1.350 . S
C858 C855 1.463 . S
C858 N862 1.427 . S
C859 H849 0.929 . S
C859 C857 1.433 . S
C859 N862 1.384 . S
C860 H851 0.929 . S
C860 C852 1.378 1_556 S
C860 C855 1.350 . S
C861 H848 0.929 . S
C861 C853 1.433 . S
C861 N863 1.384 . S
N862 C858 1.427 . S
N862 C859 1.384 . S
N863 C855 1.427 . S
N863 C861 1.384 . S
H864 C870 0.930 . S
H865 C874 0.930 . S
H866 C879 0.925 1_655 S
H867 C877 0.929 . S
H868 C872 0.929 . S
H869 C878 0.929 . S
C870 H864 0.930 . S
C870 C871 1.367 1_455 S
C870 C878 1.378 . S
C871 C870 1.367 1_655 S
C871 C879 1.425 1_655 S
C872 H868 0.929 . S
C872 C874 1.378 . S
C872 C876 1.350 . S
C873 C876 1.463 . S
C873 C878 1.350 . S
C873 N881 1.427 . S
C874 H865 0.930 . S
C874 C872 1.378 . S
C874 C875 1.367 . S
C875 C874 1.367 . S
C875 C877 1.433 . S
C876 C872 1.350 . S
C876 C873 1.463 . S
C876 N880 1.427 . S
C877 H867 0.929 . S
C877 C875 1.433 . S
C877 N880 1.384 . S
C878 H869 0.929 . S
C878 C870 1.378 . S
C878 C873 1.350 . S
C879 H866 0.925 1_455 S
C879 C871 1.425 1_455 S
C879 N881 1.396 . S
N880 C876 1.427 . S
N880 C877 1.384 . S
N881 C873 1.427 . S
N881 C879 1.396 . S
H882 C888 0.930 . S
H883 C892 0.930 . S
H884 C897 0.929 . S
H885 C895 0.929 . S
H886 C890 0.929 . S
H887 C896 0.929 . S
C888 H882 0.930 . S
C888 C889 1.367 . S
C888 C896 1.378 . S
C889 C888 1.367 . S
C889 C897 1.433 . S
C890 H886 0.929 . S
C890 C892 1.378 . S
C890 C894 1.350 . S
C891 C894 1.463 . S
C891 C896 1.350 . S
C891 N899 1.427 . S
C892 H883 0.930 . S
C892 C890 1.378 . S
C892 C893 1.367 . S
C893 C892 1.367 . S
C893 C895 1.433 . S
C894 C890 1.350 . S
C894 C891 1.463 . S
C894 N898 1.427 . S
C895 H885 0.929 . S
C895 C893 1.433 . S
C895 N898 1.384 . S
C896 H887 0.929 . S
C896 C888 1.378 . S
C896 C891 1.350 . S
C897 H884 0.929 . S
C897 C889 1.433 . S
C897 N899 1.384 . S
N898 C894 1.427 . S
N898 C895 1.384 . S
N899 C891 1.427 . S
N899 C897 1.384 . S
H900 C906 0.930 . S
H901 C910 0.930 . S
H902 C915 0.929 . S
H903 C913 0.929 . S
H904 C908 0.929 . S
H905 C914 0.929 . S
C906 H900 0.930 . S
C906 C907 1.367 . S
C906 C914 1.378 . S
C907 C906 1.367 . S
C907 C915 1.433 . S
C908 H904 0.929 . S
C908 C910 1.378 . S
C908 C912 1.350 . S
C909 C912 1.463 . S
C909 C914 1.350 . S
C909 N917 1.427 . S
C910 H901 0.930 . S
C910 C908 1.378 . S
C910 C911 1.367 1_565 S
C911 C910 1.367 1_545 S
C911 C913 1.433 . S
C912 C908 1.350 . S
C912 C909 1.463 . S
C912 N916 1.427 . S
C913 H903 0.929 . S
C913 C911 1.433 . S
C913 N916 1.384 1_545 S
C914 H905 0.929 . S
C914 C906 1.378 . S
C914 C909 1.350 . S
C915 H902 0.929 . S
C915 C907 1.433 . S
C915 N917 1.384 . S
N916 C912 1.427 . S
N916 C913 1.384 1_565 S
N917 C909 1.427 . S
N917 C915 1.384 . S
H918 C924 0.930 . S
H919 C928 0.930 . S
H920 C933 0.929 . S
H921 C931 0.929 . S
H922 C926 0.929 . S
H923 C932 0.929 . S
C924 H918 0.930 . S
C924 C925 1.367 . S
C924 C932 1.378 . S
C925 C924 1.367 . S
C925 C933 1.433 . S
C926 H922 0.929 . S
C926 C928 1.378 . S
C926 C930 1.350 . S
C927 C930 1.463 . S
C927 C932 1.350 . S
C927 N935 1.427 . S
C928 H919 0.930 . S
C928 C926 1.378 . S
C928 C929 1.367 . S
C929 C928 1.367 . S
C929 C931 1.433 . S
C930 C926 1.350 . S
C930 C927 1.463 . S
C930 N934 1.427 . S
C931 H921 0.929 . S
C931 C929 1.433 . S
C931 N934 1.384 . S
C932 H923 0.929 . S
C932 C924 1.378 . S
C932 C927 1.350 . S
C933 H920 0.929 . S
C933 C925 1.433 . S
C933 N935 1.384 . S
N934 C930 1.427 . S
N934 C931 1.384 . S
N935 C927 1.427 . S
N935 C933 1.384 . S
H936 C942 0.930 . S
H937 C946 0.930 . S
H938 C951 0.929 . S
H939 C949 0.929 . S
H940 C944 0.929 . S
H941 C950 0.929 . S
C942 H936 0.930 . S
C942 C943 1.367 . S
C942 C950 1.378 . S
C943 C942 1.367 . S
C943 C951 1.433 . S
C944 H940 0.929 . S
C944 C946 1.378 . S
C944 C948 1.350 . S
C945 C948 1.463 . S
C945 C950 1.350 . S
C945 N953 1.427 . S
C946 H937 0.930 . S
C946 C944 1.378 . S
C946 C947 1.367 . S
C947 C946 1.367 . S
C947 C949 1.433 . S
C948 C944 1.350 . S
C948 C945 1.463 . S
C948 N952 1.427 . S
C949 H939 0.929 . S
C949 C947 1.433 . S
C949 N952 1.384 . S
C950 H941 0.929 . S
C950 C942 1.378 . S
C950 C945 1.350 . S
C951 H938 0.929 . S
C951 C943 1.433 . S
C951 N953 1.384 . S
N952 C948 1.427 . S
N952 C949 1.384 . S
N953 C945 1.427 . S
N953 C951 1.384 . S
H954 C960 0.930 . S
H955 C964 0.930 . S
H956 C969 0.929 . S
H957 C967 0.929 . S
H958 C962 0.929 . S
H959 C968 0.929 . S
C960 H954 0.930 . S
C960 C961 1.367 . S
C960 C968 1.378 . S
C961 C960 1.367 . S
C961 C969 1.433 . S
C962 H958 0.929 . S
C962 C964 1.378 . S
C962 C966 1.350 . S
C963 C966 1.463 . S
C963 C968 1.350 . S
C963 N971 1.427 . S
C964 H955 0.930 . S
C964 C962 1.378 . S
C964 C965 1.367 . S
C965 C964 1.367 . S
C965 C967 1.433 . S
C966 C962 1.350 . S
C966 C963 1.463 . S
C966 N970 1.427 . S
C967 H957 0.929 . S
C967 C965 1.433 . S
C967 N970 1.384 . S
C968 H959 0.929 . S
C968 C960 1.378 . S
C968 C963 1.350 . S
C969 H956 0.929 . S
C969 C961 1.433 . S
C969 N971 1.384 . S
N970 C966 1.427 . S
N970 C967 1.384 . S
N971 C963 1.427 . S
N971 C969 1.384 . S
H972 C978 0.930 . S
H973 C982 0.930 . S
H974 C987 0.929 . S
H975 C985 0.929 . S
H976 C980 0.929 . S
H977 C986 0.929 . S
C978 H972 0.930 . S
C978 C979 1.367 . S
C978 C986 1.378 . S
C979 C978 1.367 . S
C979 C987 1.433 . S
C980 H976 0.929 . S
C980 C982 1.378 . S
C980 C984 1.350 . S
C981 C984 1.463 . S
C981 C986 1.350 . S
C981 N989 1.427 . S
C982 H973 0.930 . S
C982 C980 1.378 . S
C982 C983 1.367 . S
C983 C982 1.367 . S
C983 C985 1.433 . S
C984 C980 1.350 . S
C984 C981 1.463 . S
C984 N988 1.427 . S
C985 H975 0.929 . S
C985 C983 1.433 . S
C985 N988 1.384 . S
C986 H977 0.929 . S
C986 C978 1.378 . S
C986 C981 1.350 . S
C987 H974 0.929 . S
C987 C979 1.433 . S
C987 N989 1.384 . S
N988 C984 1.427 . S
N988 C985 1.384 . S
N989 C981 1.427 . S
N989 C987 1.384 . S
H990 C996 0.930 . S
H991 C1000 0.930 . S
H992 C1005 0.929 . S
H993 C1003 0.929 . S
H994 C998 0.929 . S
H995 C1004 0.929 . S
C996 H990 0.930 . S
C996 C997 1.367 . S
C996 C1004 1.378 . S
C997 C996 1.367 . S
C997 C1005 1.433 . S
C998 H994 0.929 . S
C998 C1000 1.378 . S
C998 C1002 1.350 . S
C999 C1002 1.463 . S
C999 C1004 1.350 . S
C999 N1007 1.427 . S
C1000 H991 0.930 . S
C1000 C998 1.378 . S
C1000 C1001 1.367 . S
C1001 C1000 1.367 . S
C1001 C1003 1.433 . S
C1002 C998 1.350 . S
C1002 C999 1.463 . S
C1002 N1006 1.427 . S
C1003 H993 0.929 . S
C1003 C1001 1.433 . S
C1003 N1006 1.384 . S
C1004 H995 0.929 . S
C1004 C996 1.378 . S
C1004 C999 1.350 . S
C1005 H992 0.929 . S
C1005 C997 1.433 . S
C1005 N1007 1.384 . S
N1006 C1002 1.427 . S
N1006 C1003 1.384 . S
N1007 C999 1.427 . S
N1007 C1005 1.384 . S
H1008 C1014 0.930 . S
H1009 C1018 0.930 . S
H1010 C1023 0.929 . S
H1011 C1021 0.929 . S
H1012 C1016 0.929 . S
H1013 C1022 0.929 . S
C1014 H1008 0.930 . S
C1014 C1015 1.367 . S
C1014 C1022 1.378 . S
C1015 C1014 1.367 . S
C1015 C1023 1.433 . S
C1016 H1012 0.929 . S
C1016 C1018 1.378 . S
C1016 C1020 1.350 . S
C1017 C1020 1.463 . S
C1017 C1022 1.350 . S
C1017 N1025 1.427 . S
C1018 H1009 0.930 . S
C1018 C1016 1.378 . S
C1018 C1019 1.367 . S
C1019 C1018 1.367 . S
C1019 C1021 1.433 . S
C1020 C1016 1.350 . S
C1020 C1017 1.463 . S
C1020 N1024 1.427 . S
C1021 H1011 0.929 . S
C1021 C1019 1.433 . S
C1021 N1024 1.384 . S
C1022 H1013 0.929 . S
C1022 C1014 1.378 . S
C1022 C1017 1.350 . S
C1023 H1010 0.929 . S
C1023 C1015 1.433 . S
C1023 N1025 1.384 . S
N1024 C1020 1.427 . S
N1024 C1021 1.384 . S
N1025 C1017 1.427 . S
N1025 C1023 1.384 . S
H1026 C1032 0.930 . S
H1027 C1036 0.930 . S
H1028 C1041 0.929 . S
H1029 C1039 0.929 . S
H1030 C1034 0.929 1_554 S
H1031 C1040 0.929 1_556 S
C1032 H1026 0.930 . S
C1032 C1033 1.367 . S
C1032 C1040 1.378 . S
C1033 C1032 1.367 . S
C1033 C1041 1.433 . S
C1034 H1030 0.929 1_556 S
C1034 C1036 1.378 . S
C1034 C1038 1.350 . S
C1035 C1038 1.463 1_544 S
C1035 C1040 1.350 . S
C1035 N1043 1.427 . S
C1036 H1027 0.930 . S
C1036 C1034 1.378 . S
C1036 C1037 1.367 . S
C1037 C1036 1.367 . S
C1037 C1039 1.433 . S
C1038 C1034 1.350 . S
C1038 C1035 1.463 1_566 S
C1038 N1042 1.427 . S
C1039 H1029 0.929 . S
C1039 C1037 1.433 . S
C1039 N1042 1.384 . S
C1040 H1031 0.929 1_554 S
C1040 C1032 1.378 . S
C1040 C1035 1.350 . S
C1041 H1028 0.929 . S
C1041 C1033 1.433 . S
C1041 N1043 1.384 . S
N1042 C1038 1.427 . S
N1042 C1039 1.384 . S
N1043 C1035 1.427 . S
N1043 C1041 1.384 . S
H1044 C1050 0.930 . S
H1045 C1054 0.930 . S
H1046 C1059 0.929 . S
H1047 C1057 0.929 . S
H1048 C1052 0.929 . S
H1049 C1058 0.929 . S
C1050 H1044 0.930 . S
C1050 C1051 1.367 . S
C1050 C1058 1.378 . S
C1051 C1050 1.367 . S
C1051 C1059 1.433 . S
C1052 H1048 0.929 . S
C1052 C1054 1.378 . S
C1052 C1056 1.350 . S
C1053 C1056 1.463 1_456 S
C1053 C1058 1.350 . S
C1053 N1061 1.427 . S
C1054 H1045 0.930 . S
C1054 C1052 1.378 . S
C1054 C1055 1.367 . S
C1055 C1054 1.367 . S
C1055 C1057 1.433 . S
C1056 C1052 1.350 . S
C1056 C1053 1.463 1_654 S
C1056 N1060 1.427 . S
C1057 H1047 0.929 . S
C1057 C1055 1.433 . S
C1057 N1060 1.384 . S
C1058 H1049 0.929 . S
C1058 C1050 1.378 . S
C1058 C1053 1.350 . S
C1059 H1046 0.929 . S
C1059 C1051 1.433 . S
C1059 N1061 1.384 . S
N1060 C1056 1.427 . S
N1060 C1057 1.384 . S
N1061 C1053 1.427 . S
N1061 C1059 1.384 . S
H1062 C1068 0.930 . S
H1063 C1072 0.930 . S
H1064 C1077 0.929 . S
H1065 C1075 0.929 . S
H1066 C1070 0.929 . S
H1067 C1076 0.929 . S
C1068 H1062 0.930 . S
C1068 C1069 1.367 . S
C1068 C1076 1.378 . S
C1069 C1068 1.367 . S
C1069 C1077 1.433 . S
C1070 H1066 0.929 . S
C1070 C1072 1.378 . S
C1070 C1074 1.350 . S
C1071 C1074 1.463 1_556 S
C1071 C1076 1.350 . S
C1071 N1079 1.427 . S
C1072 H1063 0.930 . S
C1072 C1070 1.378 . S
C1072 C1073 1.367 . S
C1073 C1072 1.367 . S
C1073 C1075 1.433 . S
C1074 C1070 1.350 . S
C1074 C1071 1.463 1_554 S
C1074 N1078 1.427 . S
C1075 H1065 0.929 . S
C1075 C1073 1.433 . S
C1075 N1078 1.384 . S
C1076 H1067 0.929 . S
C1076 C1068 1.378 . S
C1076 C1071 1.350 . S
C1077 H1064 0.929 . S
C1077 C1069 1.433 . S
C1077 N1079 1.384 . S
N1078 C1074 1.427 . S
N1078 C1075 1.384 . S
N1079 C1071 1.427 . S
N1079 C1077 1.384 . S
H1080 C1086 0.930 . S
H1081 C1090 0.930 . S
H1082 C1095 0.929 . S
H1083 C1093 0.929 . S
H1084 C1088 0.929 1_554 S
H1085 C1094 0.929 . S
C1086 H1080 0.930 . S
C1086 C1087 1.367 1_556 S
C1086 C1094 1.378 . S
C1087 C1086 1.367 1_554 S
C1087 C1095 1.433 . S
C1088 H1084 0.929 1_556 S
C1088 C1090 1.378 . S
C1088 C1092 1.350 . S
C1089 C1092 1.463 . S
C1089 C1094 1.350 . S
C1089 N1097 1.427 1_556 S
C1090 H1081 0.930 . S
C1090 C1088 1.378 . S
C1090 C1091 1.367 . S
C1091 C1090 1.367 . S
C1091 C1093 1.433 . S
C1092 C1088 1.350 . S
C1092 C1089 1.463 . S
C1092 N1096 1.427 . S
C1093 H1083 0.929 . S
C1093 C1091 1.433 . S
C1093 N1096 1.384 . S
C1094 H1085 0.929 . S
C1094 C1086 1.378 . S
C1094 C1089 1.350 . S
C1095 H1082 0.929 . S
C1095 C1087 1.433 . S
C1095 N1097 1.384 . S
N1096 C1092 1.427 . S
N1096 C1093 1.384 . S
N1097 C1089 1.427 1_554 S
N1097 C1095 1.384 . S
H1098 C1104 0.930 . S
H1099 C1108 0.930 . S
H1100 C1113 0.929 . S
H1101 C1111 0.929 . S
H1102 C1106 0.929 . S
H1103 C1112 0.929 . S
C1104 H1098 0.930 . S
C1104 C1105 1.367 . S
C1104 C1112 1.378 . S
C1105 C1104 1.367 . S
C1105 C1113 1.433 . S
C1106 H1102 0.929 . S
C1106 C1108 1.378 . S
C1106 C1110 1.350 1_554 S
C1107 C1110 1.463 . S
C1107 C1112 1.350 . S
C1107 N1115 1.427 . S
C1108 H1099 0.930 . S
C1108 C1106 1.378 . S
C1108 C1109 1.367 . S
C1109 C1108 1.367 . S
C1109 C1111 1.433 1_554 S
C1110 C1106 1.350 1_556 S
C1110 C1107 1.463 . S
C1110 N1114 1.427 . S
C1111 H1101 0.929 . S
C1111 C1109 1.433 1_556 S
C1111 N1114 1.384 . S
C1112 H1103 0.929 . S
C1112 C1104 1.378 . S
C1112 C1107 1.350 . S
C1113 H1100 0.929 . S
C1113 C1105 1.433 . S
C1113 N1115 1.384 . S
N1114 C1110 1.427 . S
N1114 C1111 1.384 . S
N1115 C1107 1.427 . S
N1115 C1113 1.384 . S
H1116 C1122 0.930 . S
H1117 C1126 0.930 . S
H1118 C1131 0.929 . S
H1119 C1129 0.929 . S
H1120 C1124 0.929 . S
H1121 C1130 0.929 . S
C1122 H1116 0.930 . S
C1122 C1123 1.367 1_556 S
C1122 C1130 1.378 . S
C1123 C1122 1.367 1_554 S
C1123 C1131 1.433 . S
C1124 H1120 0.929 . S
C1124 C1126 1.378 . S
C1124 C1128 1.350 . S
C1125 C1128 1.463 . S
C1125 C1130 1.350 . S
C1125 N1133 1.427 1_556 S
C1126 H1117 0.930 . S
C1126 C1124 1.378 . S
C1126 C1127 1.367 . S
C1127 C1126 1.367 . S
C1127 C1129 1.433 . S
C1128 C1124 1.350 . S
C1128 C1125 1.463 . S
C1128 N1132 1.427 . S
C1129 H1119 0.929 . S
C1129 C1127 1.433 . S
C1129 N1132 1.384 . S
C1130 H1121 0.929 . S
C1130 C1122 1.378 . S
C1130 C1125 1.350 . S
C1131 H1118 0.929 . S
C1131 C1123 1.433 . S
C1131 N1133 1.384 . S
N1132 C1128 1.427 . S
N1132 C1129 1.384 . S
N1133 C1125 1.427 1_554 S
N1133 C1131 1.384 . S
H1134 C1140 0.930 . S
H1135 C1144 0.930 . S
H1136 C1149 0.929 . S
H1137 C1147 0.929 . S
H1138 C1142 0.929 . S
H1139 C1148 0.929 . S
C1140 H1134 0.930 . S
C1140 C1141 1.367 . S
C1140 C1148 1.378 . S
C1141 C1140 1.367 . S
C1141 C1149 1.433 . S
C1142 H1138 0.929 . S
C1142 C1144 1.378 . S
C1142 C1146 1.350 1_556 S
C1143 C1146 1.463 . S
C1143 C1148 1.350 . S
C1143 N1151 1.427 . S
C1144 H1135 0.930 . S
C1144 C1142 1.378 . S
C1144 C1145 1.367 . S
C1145 C1144 1.367 . S
C1145 C1147 1.433 1_556 S
C1146 C1142 1.350 1_554 S
C1146 C1143 1.463 . S
C1146 N1150 1.427 . S
C1147 H1137 0.929 . S
C1147 C1145 1.433 1_554 S
C1147 N1150 1.384 . S
C1148 H1139 0.929 . S
C1148 C1140 1.378 . S
C1148 C1143 1.350 . S
C1149 H1136 0.929 . S
C1149 C1141 1.433 . S
C1149 N1151 1.384 . S
N1150 C1146 1.427 . S
N1150 C1147 1.384 . S
N1151 C1143 1.427 . S
N1151 C1149 1.384 . S
H1152 C1158 0.930 . S
H1153 C1162 0.930 . S
H1154 C1167 0.929 . S
H1155 C1165 0.929 . S
H1156 C1160 0.929 . S
H1157 C1166 0.929 . S
C1158 H1152 0.930 . S
C1158 C1159 1.367 1_554 S
C1158 C1166 1.378 . S
C1159 C1158 1.367 1_556 S
C1159 C1167 1.433 . S
C1160 H1156 0.929 . S
C1160 C1162 1.378 . S
C1160 C1164 1.350 . S
C1161 C1164 1.463 . S
C1161 C1166 1.350 . S
C1161 N1169 1.427 . S
C1162 H1153 0.930 . S
C1162 C1160 1.378 . S
C1162 C1163 1.367 . S
C1163 C1162 1.367 . S
C1163 C1165 1.433 . S
C1164 C1160 1.350 . S
C1164 C1161 1.463 . S
C1164 N1168 1.427 . S
C1165 H1155 0.929 . S
C1165 C1163 1.433 . S
C1165 N1168 1.384 . S
C1166 H1157 0.929 . S
C1166 C1158 1.378 . S
C1166 C1161 1.350 . S
C1167 H1154 0.929 . S
C1167 C1159 1.433 . S
C1167 N1169 1.384 1_556 S
N1168 C1164 1.427 . S
N1168 C1165 1.384 . S
N1169 C1161 1.427 . S
N1169 C1167 1.384 1_554 S
H1170 C1176 0.930 . S
H1171 C1180 0.930 . S
H1172 C1185 0.929 . S
H1173 C1183 0.929 . S
H1174 C1178 0.929 . S
H1175 C1184 0.929 . S
C1176 H1170 0.930 . S
C1176 C1177 1.367 . S
C1176 C1184 1.378 . S
C1177 C1176 1.367 . S
C1177 C1185 1.433 . S
C1178 H1174 0.929 . S
C1178 C1180 1.378 . S
C1178 C1182 1.350 1_556 S
C1179 C1182 1.463 . S
C1179 C1184 1.350 . S
C1179 N1187 1.427 . S
C1180 H1171 0.930 . S
C1180 C1178 1.378 . S
C1180 C1181 1.367 . S
C1181 C1180 1.367 . S
C1181 C1183 1.433 1_556 S
C1182 C1178 1.350 1_554 S
C1182 C1179 1.463 . S
C1182 N1186 1.427 . S
C1183 H1173 0.929 . S
C1183 C1181 1.433 1_554 S
C1183 N1186 1.384 . S
C1184 H1175 0.929 . S
C1184 C1176 1.378 . S
C1184 C1179 1.350 . S
C1185 H1172 0.929 . S
C1185 C1177 1.433 . S
C1185 N1187 1.384 . S
N1186 C1182 1.427 . S
N1186 C1183 1.384 . S
N1187 C1179 1.427 . S
N1187 C1185 1.384 . S
H1188 C1194 0.930 . S
H1189 C1198 0.930 . S
H1190 C1203 0.929 . S
H1191 C1201 0.929 . S
H1192 C1196 0.929 . S
H1193 C1202 0.929 . S
C1194 H1188 0.930 . S
C1194 C1195 1.367 . S
C1194 C1202 1.378 . S
C1195 C1194 1.367 . S
C1195 C1203 1.433 . S
C1196 H1192 0.929 . S
C1196 C1198 1.378 . S
C1196 C1200 1.350 . S
C1197 C1200 1.463 . S
C1197 C1202 1.350 . S
C1197 N1205 1.427 . S
C1198 H1189 0.930 . S
C1198 C1196 1.378 . S
C1198 C1199 1.367 . S
C1199 C1198 1.367 . S
C1199 C1201 1.433 . S
C1200 C1196 1.350 . S
C1200 C1197 1.463 . S
C1200 N1204 1.427 . S
C1201 H1191 0.929 . S
C1201 C1199 1.433 . S
C1201 N1204 1.384 . S
C1202 H1193 0.929 . S
C1202 C1194 1.378 . S
C1202 C1197 1.350 . S
C1203 H1190 0.929 . S
C1203 C1195 1.433 . S
C1203 N1205 1.384 . S
N1204 C1200 1.427 . S
N1204 C1201 1.384 . S
N1205 C1197 1.427 . S
N1205 C1203 1.384 . S
H1206 C1212 0.930 . S
H1207 C1216 0.930 . S
H1208 C1221 0.929 . S
H1209 C1219 0.929 . S
H1210 C1214 0.929 . S
H1211 C1220 0.929 . S
C1212 H1206 0.930 . S
C1212 C1213 1.367 . S
C1212 C1220 1.378 . S
C1213 C1212 1.367 . S
C1213 C1221 1.433 . S
C1214 H1210 0.929 . S
C1214 C1216 1.378 . S
C1214 C1218 1.350 . S
C1215 C1218 1.463 . S
C1215 C1220 1.350 . S
C1215 N1223 1.427 . S
C1216 H1207 0.930 . S
C1216 C1214 1.378 . S
C1216 C1217 1.367 . S
C1217 C1216 1.367 . S
C1217 C1219 1.433 . S
C1218 C1214 1.350 . S
C1218 C1215 1.463 . S
C1218 N1222 1.427 . S
C1219 H1209 0.929 . S
C1219 C1217 1.433 . S
C1219 N1222 1.384 . S
C1220 H1211 0.929 . S
C1220 C1212 1.378 . S
C1220 C1215 1.350 . S
C1221 H1208 0.929 . S
C1221 C1213 1.433 . S
C1221 N1223 1.384 . S
N1222 C1218 1.427 . S
N1222 C1219 1.384 . S
N1223 C1215 1.427 . S
N1223 C1221 1.384 . S
H1224 C1230 0.930 . S
H1225 C1234 0.930 . S
H1226 C1239 0.929 . S
H1227 C1237 0.929 . S
H1228 C1232 0.929 . S
H1229 C1238 0.929 . S
C1230 H1224 0.930 . S
C1230 C1231 1.367 . S
C1230 C1238 1.378 . S
C1231 C1230 1.367 . S
C1231 C1239 1.433 . S
C1232 H1228 0.929 . S
C1232 C1234 1.378 . S
C1232 C1236 1.350 . S
C1233 C1236 1.463 . S
C1233 C1238 1.350 . S
C1233 N1241 1.427 . S
C1234 H1225 0.930 . S
C1234 C1232 1.378 . S
C1234 C1235 1.367 . S
C1235 C1234 1.367 . S
C1235 C1237 1.433 . S
C1236 C1232 1.350 . S
C1236 C1233 1.463 . S
C1236 N1240 1.427 . S
C1237 H1227 0.929 . S
C1237 C1235 1.433 . S
C1237 N1240 1.384 . S
C1238 H1229 0.929 . S
C1238 C1230 1.378 . S
C1238 C1233 1.350 . S
C1239 H1226 0.929 . S
C1239 C1231 1.433 . S
C1239 N1241 1.384 . S
N1240 C1236 1.427 . S
N1240 C1237 1.384 . S
N1241 C1233 1.427 . S
N1241 C1239 1.384 . S
H1242 C1248 0.930 . S
H1243 C1252 0.930 . S
H1244 C1257 0.929 . S
H1245 C1255 0.929 . S
H1246 C1250 0.929 . S
H1247 C1256 0.929 . S
C1248 H1242 0.930 . S
C1248 C1249 1.367 . S
C1248 C1256 1.378 . S
C1249 C1248 1.367 . S
C1249 C1257 1.433 . S
C1250 H1246 0.929 . S
C1250 C1252 1.378 . S
C1250 C1254 1.350 . S
C1251 C1254 1.463 . S
C1251 C1256 1.350 . S
C1251 N1259 1.427 . S
C1252 H1243 0.930 . S
C1252 C1250 1.378 . S
C1252 C1253 1.367 . S
C1253 C1252 1.367 . S
C1253 C1255 1.433 . S
C1254 C1250 1.350 . S
C1254 C1251 1.463 . S
C1254 N1258 1.427 . S
C1255 H1245 0.929 . S
C1255 C1253 1.433 . S
C1255 N1258 1.384 . S
C1256 H1247 0.929 . S
C1256 C1248 1.378 . S
C1256 C1251 1.350 . S
C1257 H1244 0.929 . S
C1257 C1249 1.433 . S
C1257 N1259 1.384 . S
N1258 C1254 1.427 . S
N1258 C1255 1.384 . S
N1259 C1251 1.427 . S
N1259 C1257 1.384 . S
H1260 C1266 0.930 . S
H1261 C1270 0.930 . S
H1262 C1275 0.929 . S
H1263 C1273 0.929 . S
H1264 C1268 0.929 . S
H1265 C1274 0.929 . S
C1266 H1260 0.930 . S
C1266 C1267 1.367 . S
C1266 C1274 1.378 . S
C1267 C1266 1.367 . S
C1267 C1275 1.433 . S
C1268 H1264 0.929 . S
C1268 C1270 1.378 . S
C1268 C1272 1.350 . S
C1269 C1272 1.463 . S
C1269 C1274 1.350 . S
C1269 N1277 1.427 . S
C1270 H1261 0.930 . S
C1270 C1268 1.378 . S
C1270 C1271 1.367 . S
C1271 C1270 1.367 . S
C1271 C1273 1.433 . S
C1272 C1268 1.350 . S
C1272 C1269 1.463 . S
C1272 N1276 1.427 . S
C1273 H1263 0.929 . S
C1273 C1271 1.433 . S
C1273 N1276 1.384 . S
C1274 H1265 0.929 . S
C1274 C1266 1.378 . S
C1274 C1269 1.350 . S
C1275 H1262 0.929 . S
C1275 C1267 1.433 . S
C1275 N1277 1.384 . S
N1276 C1272 1.427 . S
N1276 C1273 1.384 . S
N1277 C1269 1.427 . S
N1277 C1275 1.384 . S
H1278 C1284 0.930 . S
H1279 C1288 0.930 . S
H1280 C1293 0.929 . S
H1281 C1291 0.929 . S
H1282 C1286 0.929 . S
H1283 C1292 0.929 . S
C1284 H1278 0.930 . S
C1284 C1285 1.367 . S
C1284 C1292 1.378 . S
C1285 C1284 1.367 . S
C1285 C1293 1.433 . S
C1286 H1282 0.929 . S
C1286 C1288 1.378 . S
C1286 C1290 1.350 . S
C1287 C1290 1.463 . S
C1287 C1292 1.350 . S
C1287 N1295 1.427 . S
C1288 H1279 0.930 . S
C1288 C1286 1.378 . S
C1288 C1289 1.367 . S
C1289 C1288 1.367 . S
C1289 C1291 1.433 . S
C1290 C1286 1.350 . S
C1290 C1287 1.463 . S
C1290 N1294 1.427 . S
C1291 H1281 0.929 . S
C1291 C1289 1.433 . S
C1291 N1294 1.384 . S
C1292 H1283 0.929 . S
C1292 C1284 1.378 . S
C1292 C1287 1.350 . S
C1293 H1280 0.929 . S
C1293 C1285 1.433 . S
C1293 N1295 1.384 . S
N1294 C1290 1.427 . S
N1294 C1291 1.384 . S
N1295 C1287 1.427 . S
N1295 C1293 1.384 . S
H1296 C1302 0.930 . S
H1297 C1306 0.930 . S
H1298 C1311 0.929 . S
H1299 C1309 0.929 . S
H1300 C1304 0.929 . S
H1301 C1310 0.929 . S
C1302 H1296 0.930 . S
C1302 C1303 1.367 . S
C1302 C1310 1.378 . S
C1303 C1302 1.367 . S
C1303 C1311 1.433 . S
C1304 H1300 0.929 . S
C1304 C1306 1.378 . S
C1304 C1308 1.350 . S
C1305 C1308 1.463 . S
C1305 C1310 1.350 . S
C1305 N1313 1.427 . S
C1306 H1297 0.930 . S
C1306 C1304 1.378 . S
C1306 C1307 1.367 . S
C1307 C1306 1.367 . S
C1307 C1309 1.433 . S
C1308 C1304 1.350 . S
C1308 C1305 1.463 . S
C1308 N1312 1.427 . S
C1309 H1299 0.929 . S
C1309 C1307 1.433 . S
C1309 N1312 1.384 . S
C1310 H1301 0.929 . S
C1310 C1302 1.378 . S
C1310 C1305 1.350 . S
C1311 H1298 0.929 . S
C1311 C1303 1.433 . S
C1311 N1313 1.384 . S
N1312 C1308 1.427 . S
N1312 C1309 1.384 . S
N1313 C1305 1.427 . S
N1313 C1311 1.384 . S
H1314 C1320 0.930 . S
H1315 C1324 0.930 . S
H1316 C1329 0.929 . S
H1317 C1327 0.929 . S
H1318 C1322 0.929 . S
H1319 C1328 0.929 . S
C1320 H1314 0.930 . S
C1320 C1321 1.367 . S
C1320 C1328 1.378 . S
C1321 C1320 1.367 . S
C1321 C1329 1.433 . S
C1322 H1318 0.929 . S
C1322 C1324 1.378 . S
C1322 C1326 1.350 . S
C1323 C1326 1.463 . S
C1323 C1328 1.350 . S
C1323 N1331 1.427 . S
C1324 H1315 0.930 . S
C1324 C1322 1.378 . S
C1324 C1325 1.367 . S
C1325 C1324 1.367 . S
C1325 C1327 1.433 . S
C1326 C1322 1.350 . S
C1326 C1323 1.463 . S
C1326 N1330 1.427 . S
C1327 H1317 0.929 . S
C1327 C1325 1.433 . S
C1327 N1330 1.384 . S
C1328 H1319 0.929 . S
C1328 C1320 1.378 . S
C1328 C1323 1.350 . S
C1329 H1316 0.929 . S
C1329 C1321 1.433 . S
C1329 N1331 1.384 . S
N1330 C1326 1.427 . S
N1330 C1327 1.384 . S
N1331 C1323 1.427 . S
N1331 C1329 1.384 . S
H1332 C1338 0.930 . S
H1333 C1342 0.930 . S
H1334 C1347 0.929 . S
H1335 C1345 0.929 . S
H1336 C1340 0.929 . S
H1337 C1346 0.929 . S
C1338 H1332 0.930 . S
C1338 C1339 1.367 . S
C1338 C1346 1.378 . S
C1339 C1338 1.367 . S
C1339 C1347 1.433 . S
C1340 H1336 0.929 . S
C1340 C1342 1.378 . S
C1340 C1344 1.350 . S
C1341 C1344 1.463 . S
C1341 C1346 1.350 . S
C1341 N1349 1.427 . S
C1342 H1333 0.930 . S
C1342 C1340 1.378 . S
C1342 C1343 1.367 . S
C1343 C1342 1.367 . S
C1343 C1345 1.433 . S
C1344 C1340 1.350 . S
C1344 C1341 1.463 . S
C1344 N1348 1.427 . S
C1345 H1335 0.929 . S
C1345 C1343 1.433 . S
C1345 N1348 1.384 . S
C1346 H1337 0.929 . S
C1346 C1338 1.378 . S
C1346 C1341 1.350 . S
C1347 H1334 0.929 . S
C1347 C1339 1.433 . S
C1347 N1349 1.384 . S
N1348 C1344 1.427 . S
N1348 C1345 1.384 . S
N1349 C1341 1.427 . S
N1349 C1347 1.384 . S
H1350 C1356 0.930 . S
H1351 C1360 0.930 . S
H1352 C1365 0.929 . S
H1353 C1363 0.929 . S
H1354 C1358 0.929 . S
H1355 C1364 0.929 . S
C1356 H1350 0.930 . S
C1356 C1357 1.367 . S
C1356 C1364 1.378 . S
C1357 C1356 1.367 . S
C1357 C1365 1.433 . S
C1358 H1354 0.929 . S
C1358 C1360 1.378 . S
C1358 C1362 1.350 . S
C1359 C1362 1.463 . S
C1359 C1364 1.350 . S
C1359 N1367 1.427 . S
C1360 H1351 0.930 . S
C1360 C1358 1.378 . S
C1360 C1361 1.367 . S
C1361 C1360 1.367 . S
C1361 C1363 1.433 . S
C1362 C1358 1.350 . S
C1362 C1359 1.463 . S
C1362 N1366 1.427 . S
C1363 H1353 0.929 . S
C1363 C1361 1.433 . S
C1363 N1366 1.384 . S
C1364 H1355 0.929 . S
C1364 C1356 1.378 . S
C1364 C1359 1.350 . S
C1365 H1352 0.929 . S
C1365 C1357 1.433 . S
C1365 N1367 1.384 . S
N1366 C1362 1.427 . S
N1366 C1363 1.384 . S
N1367 C1359 1.427 . S
N1367 C1365 1.384 . S
H1368 C1374 0.930 . S
H1369 C1378 0.930 . S
H1370 C1383 0.929 . S
H1371 C1381 0.929 . S
H1372 C1376 0.929 . S
H1373 C1382 0.929 . S
C1374 H1368 0.930 . S
C1374 C1375 1.367 . S
C1374 C1382 1.378 . S
C1375 C1374 1.367 . S
C1375 C1383 1.433 . S
C1376 H1372 0.929 . S
C1376 C1378 1.378 . S
C1376 C1380 1.350 . S
C1377 C1380 1.463 . S
C1377 C1382 1.350 . S
C1377 N1385 1.427 . S
C1378 H1369 0.930 . S
C1378 C1376 1.378 . S
C1378 C1379 1.367 . S
C1379 C1378 1.367 . S
C1379 C1381 1.433 . S
C1380 C1376 1.350 . S
C1380 C1377 1.463 . S
C1380 N1384 1.427 . S
C1381 H1371 0.929 . S
C1381 C1379 1.433 . S
C1381 N1384 1.384 . S
C1382 H1373 0.929 . S
C1382 C1374 1.378 . S
C1382 C1377 1.350 . S
C1383 H1370 0.929 . S
C1383 C1375 1.433 . S
C1383 N1385 1.384 . S
N1384 C1380 1.427 . S
N1384 C1381 1.384 . S
N1385 C1377 1.427 . S
N1385 C1383 1.384 . S
H1386 C1392 0.930 . S
H1387 C1396 0.930 . S
H1388 C1401 0.929 . S
H1389 C1399 0.929 . S
H1390 C1394 0.929 . S
H1391 C1400 0.929 . S
C1392 H1386 0.930 . S
C1392 C1393 1.367 . S
C1392 C1400 1.378 . S
C1393 C1392 1.367 . S
C1393 C1401 1.433 . S
C1394 H1390 0.929 . S
C1394 C1396 1.378 . S
C1394 C1398 1.350 . S
C1395 C1398 1.463 . S
C1395 C1400 1.350 . S
C1395 N1403 1.427 . S
C1396 H1387 0.930 . S
C1396 C1394 1.378 . S
C1396 C1397 1.367 . S
C1397 C1396 1.367 . S
C1397 C1399 1.433 . S
C1398 C1394 1.350 . S
C1398 C1395 1.463 . S
C1398 N1402 1.427 . S
C1399 H1389 0.929 . S
C1399 C1397 1.433 . S
C1399 N1402 1.384 . S
C1400 H1391 0.929 . S
C1400 C1392 1.378 . S
C1400 C1395 1.350 . S
C1401 H1388 0.929 . S
C1401 C1393 1.433 . S
C1401 N1403 1.384 . S
N1402 C1398 1.427 . S
N1402 C1399 1.384 . S
N1403 C1395 1.427 . S
N1403 C1401 1.384 . S
C601 C28 1.013 . S
C605 C248 1.037 . S
C619 C61 1.006 . S
C623 C281 1.039 . S
C637 C94 1.006 . S
C641 C215 1.039 . S
C655 C545 1.041 . S
C659 C127 1.007 . S
C673 C160 1.019 . S
C677 C578 1.037 . S
C691 C193 1.021 . S
C695 C512 1.044 . S
C709 C226 1.019 . S
C713 C446 1.044 . S
C727 C479 1.044 . S
C731 C259 1.021 . S
C745 C413 1.043 . S
C749 C292 1.012 . S
C763 C325 1.025 . S
C767 C149 1.042 . S
C781 C358 1.026 . S
C785 C182 1.040 . S
C799 C391 1.024 . S
C803 C116 1.043 . S
C817 C424 1.014 . S
C821 C50 1.044 . S
C835 C457 1.008 . S
C839 C83 1.038 . S
C853 C17 1.037 . S
C857 C490 1.013 . S
C871 C347 1.042 . S
C875 C523 1.008 . S
C889 C556 1.018 . S
C893 C380 1.037 . S
C907 C589 1.009 . S
C911 C314 1.037 . S
C925 N509 1.756 . S
C929 N14 1.756 . S
C943 N542 1.763 . S
C947 N47 1.763 . S
C961 N80 1.760 . S
C965 N575 1.760 . S
C979 N113 1.761 . S
C983 N212 1.761 . S
C997 N146 1.758 . S
C1001 N245 1.758 . S
C1015 N278 1.768 . S
C1019 N179 1.768 . S
C1033 N311 1.753 . S
C1037 N410 1.753 . S
C1051 N443 1.768 . S
C1055 N344 1.768 . S
C1069 N476 1.761 . S
C1073 N377 1.761 . S
C1087 N5 1.516 . S
C1091 C140 1.511 . S
C1105 C173 1.521 . S
C1109 N38 1.519 . S
C1123 N71 1.509 . S
C1127 C107 1.508 . S
C1141 C41 1.513 . S
C1145 N104 1.509 . S
C1159 N137 1.508 . S
C1163 C74 1.508 . S
C1177 C8 1.520 . S
C1181 N170 1.515 . S
C1195 N203 1.514 . S
C1199 C338 1.519 . S
C1213 C371 1.521 . S
C1217 N236 1.520 . S
C1231 C305 1.512 . S
C1235 N269 1.516 . S
C1249 N302 1.513 . S
C1253 C239 1.518 . S
C1267 C272 1.515 . S
C1271 N335 1.519 . S
C1285 N368 1.511 . S
C1289 C206 1.516 . S
C1303 C536 1.510 . S
C1307 N401 1.513 . S
C1321 C569 1.520 . S
C1325 N434 1.517 . S
C1339 C503 1.510 . S
C1343 N467 1.508 . S
C1357 C437 1.510 . S
C1361 N500 1.514 . S
C1375 C470 1.513 . S
C1379 N533 1.509 . S
C1393 N566 1.521 . S
C1397 C404 1.518 . S
