# Generated by pormake.
# Topology uoq, (4)-cn, num edge types: 1
# Building blocks:
#     Node 0, Type 0, BuildingBlock: QUQFOY_clean_sbu_1, # of connection points: 4
#     Node 1, Type 0, BuildingBlock: QUQFOY_clean_sbu_1, # of connection points: 4
#     Node 2, Type 0, BuildingBlock: QUQFOY_clean_sbu_1, # of connection points: 4
#     Node 3, Type 0, BuildingBlock: QUQFOY_clean_sbu_1, # of connection points: 4
#     Node 4, Type 0, BuildingBlock: QUQFOY_clean_sbu_1, # of connection points: 4
#     Node 5, Type 0, BuildingBlock: QUQFOY_clean_sbu_1, # of connection points: 4
#     Node 6, Type 0, BuildingBlock: QUQFOY_clean_sbu_1, # of connection points: 4
#     Node 7, Type 0, BuildingBlock: QUQFOY_clean_sbu_1, # of connection points: 4
#     Node 8, Type 0, BuildingBlock: QUQFOY_clean_sbu_1, # of connection points: 4
#     Node 9, Type 0, BuildingBlock: QUQFOY_clean_sbu_1, # of connection points: 4
#     Node 10, Type 0, BuildingBlock: QUQFOY_clean_sbu_1, # of connection points: 4
#     Node 11, Type 0, BuildingBlock: QUQFOY_clean_sbu_1, # of connection points: 4
#     Edge 12, Type (0, 0), BuildingBlock: UVAHIK_clean_linker_0, # of connection points: 2
#     Edge 13, Type (0, 0), BuildingBlock: UVAHIK_clean_linker_0, # of connection points: 2
#     Edge 14, Type (0, 0), BuildingBlock: UVAHIK_clean_linker_0, # of connection points: 2
#     Edge 15, Type (0, 0), BuildingBlock: UVAHIK_clean_linker_0, # of connection points: 2
#     Edge 16, Type (0, 0), BuildingBlock: UVAHIK_clean_linker_0, # of connection points: 2
#     Edge 17, Type (0, 0), BuildingBlock: UVAHIK_clean_linker_0, # of connection points: 2
#     Edge 18, Type (0, 0), BuildingBlock: UVAHIK_clean_linker_0, # of connection points: 2
#     Edge 19, Type (0, 0), BuildingBlock: UVAHIK_clean_linker_0, # of connection points: 2
#     Edge 20, Type (0, 0), BuildingBlock: UVAHIK_clean_linker_0, # of connection points: 2
#     Edge 21, Type (0, 0), BuildingBlock: UVAHIK_clean_linker_0, # of connection points: 2
#     Edge 22, Type (0, 0), BuildingBlock: UVAHIK_clean_linker_0, # of connection points: 2
#     Edge 23, Type (0, 0), BuildingBlock: UVAHIK_clean_linker_0, # of connection points: 2
#     Edge 24, Type (0, 0), BuildingBlock: UVAHIK_clean_linker_0, # of connection points: 2
#     Edge 25, Type (0, 0), BuildingBlock: UVAHIK_clean_linker_0, # of connection points: 2
#     Edge 26, Type (0, 0), BuildingBlock: UVAHIK_clean_linker_0, # of connection points: 2
#     Edge 27, Type (0, 0), BuildingBlock: UVAHIK_clean_linker_0, # of connection points: 2
#     Edge 28, Type (0, 0), BuildingBlock: UVAHIK_clean_linker_0, # of connection points: 2
#     Edge 29, Type (0, 0), BuildingBlock: UVAHIK_clean_linker_0, # of connection points: 2
#     Edge 30, Type (0, 0), BuildingBlock: UVAHIK_clean_linker_0, # of connection points: 2
#     Edge 31, Type (0, 0), BuildingBlock: UVAHIK_clean_linker_0, # of connection points: 2
#     Edge 32, Type (0, 0), BuildingBlock: UVAHIK_clean_linker_0, # of connection points: 2
#     Edge 33, Type (0, 0), BuildingBlock: UVAHIK_clean_linker_0, # of connection points: 2
#     Edge 34, Type (0, 0), BuildingBlock: UVAHIK_clean_linker_0, # of connection points: 2
#     Edge 35, Type (0, 0), BuildingBlock: UVAHIK_clean_linker_0, # of connection points: 2
# Relax obj value: 0.150
# Max RMSD: 0.207
# Mean RMSD: 0.207
data_MOF--net-uoq--node1-QUQFOY_clean_sbu_1--edge1-UVAHIK_clean_linker_0
_symmetry_space_group_name_H-M    P1
_symmetry_Int_Tables_number       1
_symmetry_cell_setting            triclinic
loop_
_symmetry_equiv_pos_as_xyz
'x, y, z'
_cell_length_a     81.780611
_cell_length_b     81.761701
_cell_length_c     29.621875
_cell_angle_alpha  89.982006
_cell_angle_beta   89.990107
_cell_angle_gamma 120.03716
loop_
_atom_site_label
_atom_site_type_symbol
_atom_site_fract_x
_atom_site_fract_y
_atom_site_fract_z
_atom_type_partial_charge
O0 O 0.29487 0.46803 0.29121 0.0
Cd1 Cd 0.3106 0.46777 0.2371 0.0
Cd2 Cd 0.314 0.44277 0.29247 0.0
O3 O 0.29018 0.44115 0.31968 0.0
O4 O 0.30425 0.48029 0.18826 0.0
O5 O 0.29642 0.45019 0.18568 0.0
C6 C 0.29574 0.46425 0.16774 0.0
C7 C 0.31549 0.41497 0.29506 0.0
C8 C 0.28631 0.45434 0.31848 0.0
C9 C 0.34811 0.48127 0.27682 0.0
O10 O 0.33967 0.46711 0.30294 0.0
O11 O 0.33955 0.48308 0.24312 0.0
O12 O 0.31679 0.42441 0.33091 0.0
O13 O 0.31306 0.42118 0.25704 0.0
O14 O 0.82812 0.29381 0.62677 0.0
Cd15 Cd 0.84002 0.30847 0.56822 0.0
Cd16 Cd 0.8742 0.32109 0.62367 0.0
O17 O 0.85391 0.30187 0.66645 0.0
O18 O 0.81782 0.29839 0.5272 0.0
O19 O 0.84198 0.29398 0.51513 0.0
C20 C 0.82551 0.29095 0.50315 0.0
C21 C 0.90406 0.32434 0.63482 0.0
C22 C 0.83607 0.29262 0.66243 0.0
C23 C 0.86397 0.35004 0.58875 0.0
O24 O 0.87476 0.34618 0.61155 0.0
O25 O 0.84977 0.33713 0.56797 0.0
O26 O 0.89667 0.33057 0.66342 0.0
O27 O 0.89446 0.31609 0.59905 0.0
O28 O 0.52971 0.82457 0.9614 0.0
Cd29 Cd 0.52816 0.83934 0.90669 0.0
Cd30 Cd 0.55146 0.8703 0.96465 0.0
O31 O 0.55216 0.84882 0.99839 0.0
O32 O 0.51594 0.81935 0.85996 0.0
O33 O 0.54527 0.84301 0.85376 0.0
C34 C 0.53159 0.82746 0.83778 0.0
C35 C 0.57871 0.89988 0.97336 0.0
C36 C 0.54131 0.83115 0.994 0.0
C37 C 0.51209 0.86271 0.94116 0.0
O38 O 0.52661 0.87094 0.96623 0.0
O39 O 0.51065 0.85071 0.91181 0.0
O40 O 0.56736 0.8914 0.00631 0.0
O41 O 0.57468 0.89156 0.93459 0.0
O42 O 0.69923 0.52863 0.29523 0.0
Cd43 Cd 0.68482 0.52896 0.23849 0.0
Cd44 Cd 0.68066 0.55438 0.29148 0.0
O45 O 0.70386 0.55576 0.32175 0.0
O46 O 0.69212 0.51601 0.19278 0.0
O47 O 0.70029 0.54614 0.18756 0.0
C48 C 0.70132 0.53193 0.17193 0.0
C49 C 0.6793 0.58226 0.29442 0.0
C50 C 0.70744 0.54237 0.32246 0.0
C51 C 0.64671 0.51579 0.27365 0.0
O52 O 0.65477 0.53003 0.29961 0.0
O53 O 0.65578 0.51381 0.24132 0.0
O54 O 0.67723 0.57234 0.32988 0.0
O55 O 0.68237 0.57646 0.25655 0.0
O56 O 0.16481 0.70377 0.6408 0.0
Cd57 Cd 0.1545 0.68875 0.58203 0.0
Cd58 Cd 0.11921 0.6778 0.63104 0.0
O59 O 0.13831 0.69817 0.67368 0.0
O60 O 0.17837 0.69885 0.54703 0.0
O61 O 0.1547 0.70275 0.52546 0.0
C62 C 0.17176 0.70618 0.51919 0.0
C63 C 0.08922 0.67482 0.63449 0.0
C64 C 0.1562 0.70643 0.67303 0.0
C65 C 0.12978 0.64784 0.60635 0.0
O66 O 0.11901 0.65252 0.62649 0.0
O67 O 0.1442 0.66001 0.58468 0.0
O68 O 0.09602 0.66984 0.66736 0.0
O69 O 0.09942 0.68145 0.59862 0.0
O70 O 0.46546 0.17224 0.96573 0.0
Cd71 Cd 0.46703 0.15817 0.90955 0.0
Cd72 Cd 0.44413 0.12685 0.9653 0.0
O73 O 0.44356 0.14757 0.00274 0.0
O74 O 0.47923 0.17875 0.86413 0.0
O75 O 0.44994 0.1551 0.85702 0.0
C76 C 0.46363 0.17084 0.84182 0.0
C77 C 0.41647 0.09739 0.96707 0.0
C78 C 0.45422 0.16529 -0.00104 0.0
C79 C 0.4832 0.13437 0.94048 0.0
O80 O 0.46876 0.12583 0.96567 0.0
O81 O 0.48458 0.14677 0.91242 0.0
O82 O 0.4272 0.10425 0.00184 0.0
O83 O 0.42135 0.10737 0.93059 0.0
O84 O 0.53308 0.70475 0.3735 0.0
Cd85 Cd 0.53247 0.68927 0.42904 0.0
Cd86 Cd 0.55726 0.68337 0.37148 0.0
O87 O 0.55707 0.70525 0.33831 0.0
O88 O 0.51901 0.69625 0.47416 0.0
O89 O 0.54885 0.70387 0.48207 0.0
C90 C 0.53452 0.70492 0.49667 0.0
C91 C 0.58492 0.68196 0.36093 0.0
C92 C 0.54512 0.71074 0.34173 0.0
C93 C 0.51842 0.65022 0.39472 0.0
O94 O 0.53296 0.65733 0.36956 0.0
O95 O 0.51632 0.6602 0.42455 0.0
O96 O 0.57336 0.67905 0.3285 0.0
O97 O 0.58092 0.68582 0.40021 0.0
O98 O 0.82068 0.53046 0.70802 0.0
Cd99 Cd 0.83661 0.52992 0.76096 0.0
Cd100 Cd 0.86589 0.55554 0.70536 0.0
O101 O 0.8434 0.55664 0.67776 0.0
O102 O 0.81776 0.51722 0.80981 0.0
O103 O 0.8406 0.54706 0.81381 0.0
C104 C 0.8257 0.53304 0.83133 0.0
C105 C 0.89504 0.58335 0.69758 0.0
C106 C 0.82615 0.54388 0.67984 0.0
C107 C 0.86057 0.51631 0.72018 0.0
O108 O 0.86753 0.53128 0.69648 0.0
O109 O 0.84916 0.51379 0.75208 0.0
O110 O 0.88603 0.57311 0.66344 0.0
O111 O 0.88742 0.57796 0.73693 0.0
O112 O 0.28423 0.8268 0.04441 0.0
Cd113 Cd 0.30341 0.84196 0.09439 0.0
Cd114 Cd 0.30965 0.87149 0.02967 0.0
O115 O 0.28503 0.84988 0.00418 0.0
O116 O 0.29764 0.82096 0.13694 0.0
O117 O 0.29279 0.84441 0.15424 0.0
C118 C 0.29127 0.82841 0.16503 0.0
C119 C 0.31356 0.90165 0.02071 0.0
C120 C 0.27779 0.83242 0.01274 0.0
C121 C 0.34112 0.86296 0.04826 0.0
O122 O 0.33407 0.87021 0.02234 0.0
O123 O 0.33185 0.85282 0.08175 0.0
O124 O 0.31408 0.89205 0.98694 0.0
O125 O 0.31068 0.89409 0.0603 0.0
O126 O 0.46171 0.29202 0.37668 0.0
Cd127 Cd 0.46256 0.30816 0.43102 0.0
Cd128 Cd 0.43771 0.31344 0.37258 0.0
O129 O 0.43735 0.29085 0.3418 0.0
O130 O 0.47611 0.30164 0.47692 0.0
O131 O 0.44629 0.29415 0.48473 0.0
C132 C 0.46063 0.29321 0.4997 0.0
C133 C 0.41026 0.31522 0.3617 0.0
C134 C 0.44937 0.28545 0.34563 0.0
C135 C 0.47674 0.34671 0.39349 0.0
O136 O 0.4622 0.33927 0.36837 0.0
O137 O 0.47876 0.33716 0.42463 0.0
O138 O 0.42153 0.31742 0.32909 0.0
O139 O 0.41442 0.31181 0.40132 0.0
O140 O 0.17262 0.46627 0.70204 0.0
Cd141 Cd 0.15856 0.4669 0.75894 0.0
Cd142 Cd 0.12726 0.44113 0.70558 0.0
O143 O 0.14898 0.44075 0.67166 0.0
O144 O 0.17932 0.47994 0.80345 0.0
O145 O 0.15672 0.45017 0.81115 0.0
C146 C 0.1723 0.46431 0.82565 0.0
C147 C 0.0978 0.41365 0.69685 0.0
C148 C 0.16632 0.45334 0.6724 0.0
C149 C 0.13318 0.48041 0.72697 0.0
O150 O 0.12539 0.46544 0.70332 0.0
O151 O 0.14583 0.48308 0.75562 0.0
O152 O 0.1061 0.42521 0.66414 0.0
O153 O 0.10639 0.41744 0.73523 0.0
O154 O 0.70894 0.1708 0.03551 0.0
Cd155 Cd 0.69111 0.15484 0.08714 0.0
Cd156 Cd 0.6861 0.1262 0.02778 0.0
O157 O 0.71018 0.14777 6e-05 0.0
O158 O 0.69692 0.17422 0.13444 0.0
O159 O 0.70348 0.15124 0.14241 0.0
C160 C 0.70439 0.16643 0.15802 0.0
C161 C 0.68292 0.09618 0.02644 0.0
C162 C 0.71609 0.16524 0.00535 0.0
C163 C 0.6535 0.13292 0.04353 0.0
O164 O 0.66122 0.12632 0.01777 0.0
O165 O 0.66238 0.14305 0.07735 0.0
O166 O 0.68209 0.10439 0.99018 0.0
O167 O 0.68597 0.10522 0.06408 0.0
C168 C 0.31973 0.38958 0.25881 0.0
C169 C 0.31791 0.39826 0.2979 0.0
C170 C 0.32444 0.37536 0.26218 0.0
C171 C 0.32971 0.3434 0.34358 0.0
H172 H 0.37181 0.35274 0.26654 0.0
C173 C 0.38525 0.32207 0.3889 0.0
C174 C 0.39383 0.3177 0.3535 0.0
C175 C 0.37174 0.32734 0.37956 0.0
C176 C 0.3598 0.34959 0.28776 0.0
H177 H 0.31838 0.39801 0.37117 0.0
H178 H 0.32682 0.37357 0.37695 0.0
H179 H 0.35522 0.36992 0.25351 0.0
H180 H 0.39387 0.31378 0.28107 0.0
H181 H 0.37009 0.32252 0.26497 0.0
H182 H 0.33489 0.32355 0.37892 0.0
C183 C 0.32448 0.37753 0.34371 0.0
C184 C 0.35024 0.35946 0.2802 0.0
C185 C 0.31981 0.3917 0.34035 0.0
C186 C 0.38772 0.31738 0.30903 0.0
C187 C 0.37414 0.32246 0.29976 0.0
C188 C 0.3393 0.3335 0.35119 0.0
C189 C 0.32737 0.36954 0.30469 0.0
C190 C 0.33537 0.35682 0.30863 0.0
C191 C 0.3665 0.32817 0.3347 0.0
C192 C 0.35472 0.33679 0.32392 0.0
H193 H 0.31823 0.39425 0.22564 0.0
H194 H 0.32633 0.36929 0.23149 0.0
H195 H 0.31813 0.34087 0.36573 0.0
H196 H 0.3897 0.32242 0.4235 0.0
H197 H 0.3662 0.33176 0.40726 0.0
C198 C 0.93428 0.33946 0.6775 0.0
C199 C 0.92309 0.3271 0.64315 0.0
C200 C 0.95248 0.3428 0.68533 0.0
C201 C 0.98839 0.34371 0.70908 0.0
H202 H 0.01949 0.35078 0.60415 0.0
C203 C 0.0693 0.38399 0.72475 0.0
C204 C 0.07858 0.39736 0.69044 0.0
C205 C 0.05043 0.36976 0.71934 0.0
C206 C 0.01104 0.34893 0.63389 0.0
H207 H 0.92196 0.30804 0.59086 0.0
H208 H 0.95379 0.31349 0.6053 0.0
H209 H 0.98562 0.33688 0.59514 0.0
H210 H 0.07561 0.40582 0.62287 0.0
H211 H 0.04291 0.38187 0.61425 0.0
H212 H 0.01391 0.35741 0.74719 0.0
C213 C 0.94859 0.32093 0.62561 0.0
C214 C 0.99149 0.34064 0.6288 0.0
C215 C 0.93034 0.31776 0.61736 0.0
C216 C 0.0689 0.39576 0.65005 0.0
C217 C 0.05009 0.38178 0.64488 0.0
C218 C 0.00795 0.35237 0.71402 0.0
C219 C 0.95995 0.33365 0.6595 0.0
C220 C 0.98001 0.33869 0.66605 0.0
C221 C 0.04042 0.36878 0.67973 0.0
C222 C 0.01962 0.35586 0.67616 0.0
H223 H 0.92917 0.34699 0.69783 0.0
H224 H 0.96087 0.35309 0.71083 0.0
H225 H 0.97993 0.34184 0.73883 0.0
H226 H 0.07647 0.38477 0.75611 0.0
H227 H 0.04358 0.35982 0.74663 0.0
C228 C 0.60418 0.9311 0.94375 0.0
C229 C 0.59525 0.91886 0.98024 0.0
C230 C 0.61813 0.94989 0.95149 0.0
C231 C 0.63175 0.98598 0.0397 0.0
H232 H 0.67418 0.01609 0.96068 0.0
C233 C 0.67668 0.06612 0.06426 0.0
C234 C 0.67919 0.07654 0.0246 0.0
C235 C 0.6706 0.04681 0.06192 0.0
C236 C 0.6624 0.00784 0.98309 0.0
H237 H 0.59494 0.91617 0.05315 0.0
H238 H 0.61947 0.94867 0.06652 0.0
H239 H 0.65562 0.98187 0.95006 0.0
H240 H 0.67853 0.07522 0.95138 0.0
H241 H 0.66774 0.04168 0.94738 0.0
H242 H 0.63802 0.01185 0.07179 0.0
C243 C 0.61537 0.94402 0.03203 0.0
C244 C 0.65175 0.98827 0.97693 0.0
C245 C 0.60135 0.92537 0.02434 0.0
C246 C 0.6766 0.06756 0.98262 0.0
C247 C 0.67057 0.04833 0.98028 0.0
C248 C 0.64237 0.00548 0.04586 0.0
C249 C 0.62348 0.95669 0.99585 0.0
C250 C 0.63609 0.97717 0.00469 0.0
C251 C 0.66697 0.03761 0.01989 0.0
C252 C 0.65758 0.0167 0.01709 0.0
H253 H 0.59975 0.92643 0.90941 0.0
H254 H 0.62402 0.95931 0.92285 0.0
H255 H 0.61958 0.97794 0.06121 0.0
H256 H 0.67868 0.07268 0.0971 0.0
H257 H 0.6682 0.03897 0.09304 0.0
C258 C 0.67581 0.60817 0.25848 0.0
C259 C 0.6771 0.5991 0.29746 0.0
C260 C 0.67131 0.62254 0.26193 0.0
C261 C 0.66574 0.65418 0.34365 0.0
H262 H 0.62421 0.64554 0.26537 0.0
C263 C 0.6101 0.67541 0.38838 0.0
C264 C 0.60154 0.67978 0.35293 0.0
C265 C 0.62373 0.6703 0.37913 0.0
C266 C 0.63608 0.64851 0.28693 0.0
H267 H 0.67592 0.59879 0.37069 0.0
H268 H 0.66785 0.6235 0.3766 0.0
H269 H 0.64076 0.62831 0.25237 0.0
H270 H 0.60169 0.68393 0.28058 0.0
H271 H 0.62574 0.67554 0.26462 0.0
H272 H 0.66047 0.67391 0.37927 0.0
C273 C 0.67044 0.61973 0.34339 0.0
C274 C 0.6456 0.63861 0.27939 0.0
C275 C 0.67489 0.6054 0.33994 0.0
C276 C 0.60783 0.68032 0.30854 0.0
C277 C 0.62155 0.67543 0.29936 0.0
C278 C 0.65619 0.66413 0.35122 0.0
C279 C 0.66808 0.62811 0.30442 0.0
C280 C 0.66023 0.64097 0.30829 0.0
C281 C 0.62914 0.66965 0.3343 0.0
C282 C 0.64097 0.66108 0.32351 0.0
H283 H 0.67756 0.6037 0.22529 0.0
H284 H 0.66981 0.62891 0.2313 0.0
H285 H 0.67713 0.65648 0.36618 0.0
H286 H 0.6055 0.6749 0.42292 0.0
H287 H 0.62921 0.66582 0.40683 0.0
C288 C 0.92704 0.607 0.7269 0.0
C289 C 0.91402 0.59995 0.69123 0.0
C290 C 0.94592 0.62055 0.71861 0.0
C291 C 0.97992 0.63536 0.62525 0.0
H292 H 0.0138 0.67222 0.71204 0.0
C293 C 0.06053 0.67367 0.60032 0.0
C294 C 0.07014 0.67245 0.6383 0.0
C295 C 0.04178 0.66958 0.60414 0.0
C296 C 0.00448 0.66204 0.68738 0.0
H297 H 0.91003 0.60272 0.61983 0.0
H298 H 0.94273 0.62665 0.60564 0.0
H299 H 0.9797 0.65643 0.72442 0.0
H300 H 0.06807 0.66706 0.71043 0.0
H301 H 0.03557 0.65986 0.71694 0.0
H302 H 0.00463 0.6404 0.58907 0.0
C303 C 0.93861 0.62134 0.6397 0.0
C304 C 0.98498 0.65297 0.69453 0.0
C305 C 0.91985 0.60768 0.64788 0.0
C306 C 0.06101 0.66798 0.68042 0.0
C307 C 0.04241 0.66405 0.68428 0.0
C308 C -0.00062 0.64445 0.61806 0.0
C309 C 0.95203 0.62741 0.67457 0.0
C310 C 0.9725 0.63914 0.66416 0.0
C311 C 0.03244 0.6644 0.64608 0.0
C312 C 0.0119 0.65747 0.6497 0.0
H313 H 0.92292 0.60127 0.76064 0.0
H314 H 0.9559 0.6248 0.74623 0.0
H315 H 0.97078 0.62458 0.60146 0.0
H316 H 0.06725 0.67715 0.56747 0.0
H317 H 0.03447 0.67008 0.57416 0.0
C318 C 0.31685 0.92741 0.96984 0.0
C319 C 0.31711 0.92105 0.01375 0.0
C320 C 0.3224 0.94631 0.96192 0.0
C321 C 0.33443 0.99177 0.0176 0.0
H322 H 0.3699 0.01325 0.9183 0.0
C323 C 0.39377 0.06902 0.01099 0.0
C324 C 0.39969 0.07828 0.96916 0.0
C325 C 0.3794 0.05021 0.01325 0.0
C326 C 0.35971 0.00748 0.94551 0.0
H327 H 0.32243 0.92922 0.08415 0.0
H328 H 0.33261 0.96241 0.07028 0.0
H329 H 0.35245 0.97926 0.92885 0.0
H330 H 0.39447 0.07541 0.89706 0.0
H331 H 0.36925 0.04233 0.901 0.0
H332 H 0.34242 0.02022 0.03524 0.0
C333 C 0.32783 0.95274 0.04197 0.0
C334 C 0.34968 0.98794 0.95164 0.0
C335 C 0.3221 0.93374 0.04995 0.0
C336 C 0.39027 0.06861 0.92975 0.0
C337 C 0.3759 0.04967 0.932 0.0
C338 C 0.34451 0.01136 0.0115 0.0
C339 C 0.32853 0.95932 0.99768 0.0
C340 C 0.33725 0.97987 0.98836 0.0
C341 C 0.37063 0.04016 0.97372 0.0
C342 C 0.35761 0.01944 0.97604 0.0
H343 H 0.3128 0.91789 0.94128 0.0
H344 H 0.32237 0.95082 0.92755 0.0
H345 H 0.32473 0.98598 0.04576 0.0
H346 H 0.40066 0.07612 0.04203 0.0
H347 H 0.37587 0.04327 0.04586 0.0
C348 C 0.17823 0.4447 0.88154 0.0
C349 C 0.18287 0.46249 0.86403 0.0
C350 C 0.18998 0.44303 0.91345 0.0
C351 C 0.23958 0.46876 0.95187 0.0
H352 H 0.22124 0.43616 0.0569 0.0
C353 C 0.28646 0.47807 0.10455 0.0
C354 C 0.28442 0.46199 0.12686 0.0
C355 C 0.27435 0.4763 0.06937 0.0
C356 C 0.22656 0.44509 0.0273 0.0
H357 H 0.20282 0.49257 0.86819 0.0
H358 H 0.22297 0.48971 0.92408 0.0
H359 H 0.19866 0.43663 0.00344 0.0
H360 H 0.2684 0.43138 0.12895 0.0
H361 H 0.24709 0.42829 0.06716 0.0
H362 H 0.26742 0.4775 0.97598 0.0
C363 C 0.21059 0.47697 0.91242 0.0
C364 C 0.21363 0.44539 0.99676 0.0
C365 C 0.19893 0.47862 0.88063 0.0
C366 C 0.27036 0.44403 0.11225 0.0
C367 C 0.25807 0.44226 0.07718 0.0
C368 C 0.25245 0.46847 0.98231 0.0
C369 C 0.20655 0.45914 0.92835 0.0
C370 C 0.22003 0.45756 0.95924 0.0
C371 C 0.25981 0.45841 0.05578 0.0
C372 C 0.2461 0.45694 0.02085 0.0
H373 H 0.16597 0.432 0.86931 0.0
H374 H 0.18648 0.42909 0.92508 0.0
H375 H 0.24498 0.47792 0.92265 0.0
H376 H 0.29714 0.49211 0.11502 0.0
H377 H 0.27595 0.48903 0.05394 0.0
C378 C 0.79894 0.27848 0.44805 0.0
C379 C 0.81511 0.27863 0.46458 0.0
C380 C 0.78804 0.26591 0.41415 0.0
C381 C 0.77509 0.22003 0.36486 0.0
H382 H 0.75575 0.23737 0.26775 0.0
C383 C 0.72936 0.1725 0.21551 0.0
C384 C 0.71521 0.17592 0.19918 0.0
C385 C 0.74181 0.18402 0.24929 0.0
C386 C 0.76081 0.23222 0.29495 0.0
H387 H 0.83266 0.26581 0.45819 0.0
H388 H 0.81341 0.24362 0.39866 0.0
H389 H 0.77796 0.26004 0.32159 0.0
H390 H 0.70205 0.19307 0.20771 0.0
H391 H 0.72326 0.21269 0.26722 0.0
H392 H 0.75761 0.19209 0.33847 0.0
C393 C 0.80924 0.2533 0.41218 0.0
C394 C 0.77363 0.24525 0.32565 0.0
C395 C 0.82033 0.26609 0.44593 0.0
C396 C 0.71296 0.19023 0.21921 0.0
C397 C 0.72524 0.20159 0.25306 0.0
C398 C 0.76213 0.20691 0.33413 0.0
C399 C 0.79294 0.25305 0.39612 0.0
C400 C 0.78069 0.23929 0.36134 0.0
C401 C 0.74022 0.19908 0.26742 0.0
C402 C 0.7546 0.21284 0.29928 0.0
H403 H 0.79451 0.28794 0.46173 0.0
H404 H 0.77545 0.26593 0.40285 0.0
H405 H 0.7802 0.21502 0.39226 0.0
H406 H 0.73148 0.16161 0.20055 0.0
H407 H 0.7532 0.18171 0.25958 0.0
C408 C 0.55191 0.82294 0.78126 0.0
C409 C 0.53389 0.81827 0.7972 0.0
C410 C 0.55386 0.81242 0.74646 0.0
C411 C 0.52756 0.77913 0.65409 0.0
H412 H 0.56162 0.75969 0.67351 0.0
C413 C 0.51962 0.71623 0.55264 0.0
C414 C 0.53601 0.71704 0.53539 0.0
C415 C 0.52087 0.72936 0.58451 0.0
C416 C 0.55223 0.76519 0.66729 0.0
H417 H 0.50381 0.79944 0.78802 0.0
H418 H 0.50719 0.78135 0.72731 0.0
H419 H 0.5615 0.78256 0.72662 0.0
H420 H 0.56658 0.73178 0.53956 0.0
H421 H 0.56878 0.7549 0.59536 0.0
H422 H 0.51813 0.76175 0.59519 0.0
C423 C 0.51983 0.79308 0.74155 0.0
C424 C 0.55219 0.77832 0.69763 0.0
C425 C 0.5179 0.80341 0.7765 0.0
C426 C 0.55369 0.73076 0.55234 0.0
C427 C 0.55495 0.744 0.58427 0.0
C428 C 0.52763 0.7661 0.62381 0.0
C429 C 0.53782 0.79724 0.72661 0.0
C430 C 0.53956 0.78511 0.69182 0.0
C431 C 0.53855 0.74373 0.59979 0.0
C432 C 0.53965 0.75863 0.63057 0.0
H433 H 0.5645 0.83426 0.79673 0.0
H434 H 0.5679 0.81604 0.73538 0.0
H435 H 0.51791 0.78436 0.64825 0.0
H436 H 0.50577 0.70573 0.54063 0.0
H437 H 0.50793 0.72841 0.59666 0.0
C438 C 0.72755 0.55186 0.11781 0.0
C439 C 0.71397 0.53395 0.13395 0.0
C440 C 0.7412 0.55365 0.08645 0.0
C441 C 0.76474 0.52771 0.04741 0.0
H442 H 0.78033 0.5614 0.94425 0.0
C443 C 0.80263 0.51901 0.89455 0.0
C444 C 0.81686 0.53515 0.8728 0.0
C445 C 0.79236 0.5207 0.93004 0.0
C446 C 0.77636 0.55217 0.97337 0.0
H447 H 0.70339 0.50385 0.12793 0.0
H448 H 0.72683 0.50694 0.07299 0.0
H449 H 0.75706 0.5608 0.99719 0.0
H450 H 0.83192 0.56578 0.87217 0.0
H451 H 0.81385 0.56874 0.9345 0.0
H452 H 0.78369 0.51878 0.02329 0.0
C453 C 0.72731 0.51965 0.0853 0.0
C454 C 0.763 0.55179 0.00359 0.0
C455 C 0.71376 0.51787 0.11653 0.0
C456 C 0.82108 0.55308 0.88842 0.0
C457 C 0.81064 0.55478 0.92379 0.0
C458 C 0.77804 0.52807 0.01728 0.0
C459 C 0.74149 0.53756 0.07075 0.0
C460 C 0.75673 0.53923 0.04037 0.0
C461 C 0.79598 0.53857 0.94451 0.0
C462 C 0.7837 0.54 0.97939 0.0
H463 H 0.72812 0.56453 0.13071 0.0
H464 H 0.75193 0.56765 0.07586 0.0
H465 H 0.76059 0.51823 0.07608 0.0
H466 H 0.79903 0.50499 0.88332 0.0
H467 H 0.78104 0.50793 0.94492 0.0
C468 C 0.17658 0.72456 0.44741 0.0
C469 C 0.18402 0.71911 0.48335 0.0
C470 C 0.18861 0.73728 0.41464 0.0
C471 C 0.23767 0.75794 0.37 0.0
H472 H 0.22634 0.79377 0.31289 0.0
C473 C 0.27346 0.82533 0.23688 0.0
C474 C 0.28114 0.81791 0.20611 0.0
C475 C 0.26236 0.81435 0.27314 0.0
C476 C 0.22988 0.78405 0.32898 0.0
H477 H 0.20989 0.72313 0.51387 0.0
H478 H 0.23072 0.74563 0.45827 0.0
H479 H 0.20536 0.77268 0.37126 0.0
H480 H 0.28335 0.79322 0.18963 0.0
H481 H 0.26383 0.77412 0.25142 0.0
H482 H 0.26251 0.7697 0.3293 0.0
C483 C 0.21565 0.73967 0.45404 0.0
C484 C 0.21764 0.7717 0.36195 0.0
C485 C 0.20366 0.72678 0.48618 0.0
C486 C 0.2778 0.79948 0.21285 0.0
C487 C 0.26663 0.7885 0.24862 0.0
C488 C 0.24998 0.77041 0.33763 0.0
C489 C 0.20833 0.74501 0.41757 0.0
C490 C 0.22131 0.75838 0.38269 0.0
C491 C 0.25864 0.7957 0.27915 0.0
C492 C 0.24615 0.78347 0.31617 0.0
H493 H 0.16149 0.71889 0.44443 0.0
H494 H 0.18241 0.74084 0.38676 0.0
H495 H 0.2409 0.74773 0.38455 0.0
H496 H 0.27575 0.83949 0.23254 0.0
H497 H 0.25665 0.82046 0.29633 0.0
C498 C 0.47743 0.19554 0.78192 0.0
C499 C 0.4614 0.1804 0.80183 0.0
C500 C 0.47556 0.20603 0.74726 0.0
C501 C 0.4431 0.2205 0.70241 0.0
H502 H 0.47767 0.23756 0.60088 0.0
C503 C 0.44153 0.26763 0.556 0.0
C504 C 0.45919 0.28142 0.5391 0.0
C505 C 0.44034 0.25457 0.58841 0.0
C506 C 0.46803 0.23309 0.62926 0.0
H507 H 0.4308 0.16414 0.80038 0.0
H508 H 0.42752 0.18266 0.73954 0.0
H509 H 0.47791 0.21502 0.65413 0.0
H510 H 0.48947 0.29312 0.54504 0.0
H511 H 0.48743 0.27077 0.60196 0.0
H512 H 0.43348 0.23892 0.67781 0.0
C513 C 0.44153 0.18635 0.75101 0.0
C514 C 0.46812 0.22009 0.65964 0.0
C515 C 0.44342 0.17567 0.78552 0.0
C516 C 0.47563 0.28255 0.55699 0.0
C517 C 0.47445 0.26961 0.58936 0.0
C518 C 0.44304 0.23359 0.67196 0.0
C519 C 0.4576 0.20176 0.73183 0.0
C520 C 0.45592 0.21392 0.69703 0.0
C521 C 0.4568 0.25512 0.60451 0.0
C522 C 0.4558 0.24033 0.63555 0.0
H523 H 0.49148 0.19956 0.79373 0.0
H524 H 0.48821 0.21793 0.73356 0.0
H525 H 0.43363 0.2161 0.73112 0.0
H526 H 0.42861 0.26637 0.54273 0.0
H527 H 0.42653 0.24358 0.59939 0.0
C528 C 0.19576 0.47004 0.62625 0.0
C529 C 0.17905 0.4533 0.63728 0.0
C530 C 0.20721 0.47024 0.59106 0.0
C531 C 0.22072 0.44095 0.52855 0.0
H532 H 0.23268 0.47655 0.43027 0.0
C533 C 0.25894 0.43705 0.37038 0.0
C534 C 0.27255 0.45414 0.35082 0.0
C535 C 0.24683 0.43692 0.40369 0.0
C536 C 0.22973 0.46671 0.45772 0.0
H537 H 0.16146 0.42356 0.62119 0.0
H538 H 0.18184 0.42385 0.56042 0.0
H539 H 0.21375 0.47675 0.49378 0.0
H540 H 0.28403 0.48446 0.35003 0.0
H541 H 0.26343 0.48437 0.40951 0.0
H542 H 0.23714 0.43127 0.49388 0.0
C543 C 0.18588 0.4368 0.57871 0.0
C544 C 0.21884 0.4668 0.49391 0.0
C545 C 0.17424 0.43667 0.61329 0.0
C546 C 0.27357 0.47106 0.36439 0.0
C547 C 0.26169 0.47098 0.39836 0.0
C548 C 0.23188 0.44107 0.49283 0.0
C549 C 0.20231 0.45363 0.56703 0.0
C550 C 0.21419 0.45386 0.5294 0.0
C551 C 0.24833 0.45392 0.41883 0.0
C552 C 0.23643 0.45386 0.45678 0.0
H553 H 0.19976 0.48308 0.64407 0.0
H554 H 0.21991 0.48334 0.58267 0.0
H555 H 0.21742 0.43096 0.55589 0.0
H556 H 0.25772 0.42376 0.36013 0.0
H557 H 0.23639 0.42346 0.41776 0.0
C558 C 0.83295 0.27909 0.73987 0.0
C559 C 0.82443 0.28024 0.69967 0.0
C560 C 0.82198 0.26716 0.77476 0.0
C561 C 0.77624 0.22466 0.79576 0.0
H562 H 0.78564 0.24096 0.92074 0.0
C563 C 0.73848 0.17292 0.94087 0.0
C564 C 0.73068 0.17906 0.97456 0.0
C565 C 0.75111 0.18566 0.90941 0.0
C566 C 0.78283 0.23626 0.88597 0.0
H567 H 0.79769 0.26995 0.66485 0.0
H568 H 0.77857 0.24921 0.72586 0.0
H569 H 0.8049 0.26278 0.86103 0.0
H570 H 0.73057 0.20352 0.00267 0.0
H571 H 0.75255 0.22575 0.94734 0.0
H572 H 0.75397 0.1983 0.8204 0.0
C573 C 0.79376 0.25738 0.73012 0.0
C574 C 0.79394 0.24867 0.85188 0.0
C575 C 0.80471 0.26934 0.69528 0.0
C576 C 0.7363 0.19834 0.97707 0.0
C577 C 0.74896 0.21109 0.94554 0.0
C578 C 0.76519 0.21226 0.82977 0.0
C579 C 0.80229 0.2561 0.77009 0.0
C580 C 0.79068 0.243 0.80643 0.0
C581 C 0.75622 0.2048 0.91093 0.0
C582 C 0.76835 0.21793 0.87521 0.0
H583 H 0.84811 0.28731 0.74436 0.0
H584 H 0.82894 0.26631 0.80504 0.0
H585 H 0.77355 0.21983 0.76107 0.0
H586 H 0.73457 0.15819 0.9382 0.0
H587 H 0.75674 0.18048 0.88356 0.0
C588 C 0.5302 0.79861 0.02435 0.0
C589 C 0.54177 0.8183 0.02839 0.0
C590 C 0.53016 0.78664 0.05807 0.0
C591 C 0.5408 0.78619 0.17831 0.0
H592 H 0.54291 0.74117 0.14774 0.0
C593 C 0.53199 0.73028 0.3104 0.0
C594 C 0.54477 0.72358 0.30714 0.0
C595 C 0.53119 0.74173 0.27649 0.0
C596 C 0.54238 0.75374 0.15673 0.0
H597 H 0.56257 0.84083 0.07069 0.0
H598 H 0.56251 0.81993 0.12917 0.0
H599 H 0.54249 0.76138 0.08756 0.0
H600 H 0.56692 0.72386 0.26602 0.0
H601 H 0.56554 0.74389 0.20717 0.0
H602 H 0.54099 0.77872 0.24748 0.0
C603 C 0.55333 0.81378 0.10023 0.0
C604 C 0.54196 0.76518 0.12234 0.0
C605 C 0.55345 0.82573 0.06652 0.0
C606 C 0.55687 0.72875 0.26957 0.0
C607 C 0.55601 0.7401 0.23566 0.0
C608 C 0.54112 0.7747 0.2127 0.0
C609 C 0.5416 0.79414 0.0965 0.0
C610 C 0.54133 0.7816 0.13282 0.0
C611 C 0.54309 0.74661 0.23864 0.0
C612 C 0.54208 0.75845 0.20223 0.0
H613 H 0.52104 0.79244 0.99541 0.0
H614 H 0.5209 0.77153 0.0545 0.0
H615 H 0.54011 0.79867 0.18732 0.0
H616 H 0.52247 0.72654 0.33888 0.0
H617 H 0.52102 0.74648 0.27947 0.0
C618 C 0.73363 0.55945 0.37758 0.0
C619 C 0.72053 0.54245 0.35668 0.0
C620 C 0.74527 0.55946 0.41197 0.0
C621 C 0.74675 0.53067 0.50201 0.0
H622 H 0.80104 0.564 0.4989 0.0
C623 C 0.79626 0.52718 0.63549 0.0
C624 C 0.81272 0.54403 0.64698 0.0
C625 C 0.78461 0.52697 0.60081 0.0
C626 C 0.78587 0.55485 0.50076 0.0
H627 H 0.70941 0.51217 0.35493 0.0
H628 H 0.72958 0.51219 0.41603 0.0
H629 H 0.78185 0.56361 0.43553 0.0
H630 H 0.82942 0.57405 0.63313 0.0
H631 H 0.80866 0.57389 0.57408 0.0
H632 H 0.75053 0.52232 0.56774 0.0
C633 C 0.73086 0.52546 0.40538 0.0
C634 C 0.77495 0.55454 0.46428 0.0
C635 C 0.71944 0.52548 0.37037 0.0
C636 C 0.8169 0.56081 0.62459 0.0
C637 C 0.80509 0.56067 0.59048 0.0
C638 C 0.75762 0.5312 0.53888 0.0
C639 C 0.74377 0.54244 0.42654 0.0
C640 C 0.75534 0.54243 0.46461 0.0
C641 C 0.78903 0.54367 0.57745 0.0
C642 C 0.77733 0.54329 0.53869 0.0
H643 H 0.7348 0.57275 0.36758 0.0
H644 H 0.7551 0.57271 0.42802 0.0
H645 H 0.73158 0.52139 0.5031 0.0
H646 H 0.79277 0.51401 0.65201 0.0
H647 H 0.7725 0.51358 0.59137 0.0
C648 C 0.15792 0.72232 0.74658 0.0
C649 C 0.16712 0.71891 0.71081 0.0
C650 C 0.16826 0.73373 0.78282 0.0
C651 C 0.2137 0.75183 0.84125 0.0
H652 H 0.2038 0.79062 0.88609 0.0
C653 C 0.25485 0.79899 0.99125 0.0
C654 C 0.26225 0.81845 0.98423 0.0
C655 C 0.24121 0.78584 0.96209 0.0
C656 C 0.20669 0.77982 0.87391 0.0
H657 H 0.19442 0.72493 0.68486 0.0
H658 H 0.21242 0.74489 0.74792 0.0
H659 H 0.18427 0.76965 0.82553 0.0
H660 H 0.26059 0.83933 0.94217 0.0
H661 H 0.23693 0.81637 0.89112 0.0
H662 H 0.23647 0.76233 0.8885 0.0
C663 C 0.19719 0.73856 0.74817 0.0
C664 C 0.19543 0.76774 0.83957 0.0
C665 C 0.18688 0.72723 0.7119 0.0
C666 C 0.25522 0.82444 0.94845 0.0
C667 C 0.24157 0.81129 0.91937 0.0
C668 C 0.2249 0.76385 0.87563 0.0
C669 C 0.18798 0.74185 0.78406 0.0
C670 C 0.19903 0.75384 0.82245 0.0
C671 C 0.23468 0.79188 0.92544 0.0
C672 C 0.22168 0.77814 0.89186 0.0
H673 H 0.1427 0.7161 0.74678 0.0
H674 H 0.16081 0.73595 0.8102 0.0
H675 H 0.21662 0.74107 0.82906 0.0
H676 H 0.25986 0.7939 0.01869 0.0
H677 H 0.23595 0.77094 0.96787 0.0
C678 C 0.44272 0.17006 0.07321 0.0
C679 C 0.45385 0.17782 0.03435 0.0
C680 C 0.44267 0.18177 0.10734 0.0
C681 C 0.45201 0.22974 0.12895 0.0
H682 H 0.45454 0.21722 0.25418 0.0
C683 C 0.43684 0.2661 0.27557 0.0
C684 C 0.44948 0.27212 0.31215 0.0
C685 C 0.43761 0.25446 0.24231 0.0
C686 C 0.45394 0.22094 0.21936 0.0
H687 H 0.47356 0.20397 0.00072 0.0
H688 H 0.47343 0.22445 0.06051 0.0
H689 H 0.45595 0.19748 0.19417 0.0
H690 H 0.47256 0.27027 0.34303 0.0
H691 H 0.47387 0.24985 0.28473 0.0
H692 H 0.45011 0.25326 0.15409 0.0
C693 C 0.4647 0.20928 0.06432 0.0
C694 C 0.45458 0.20957 0.18508 0.0
C695 C 0.46482 0.19756 0.0302 0.0
C696 C 0.46263 0.26588 0.31528 0.0
C697 C 0.46335 0.25415 0.28202 0.0
C698 C 0.45128 0.24105 0.16322 0.0
C699 C 0.45369 0.20148 0.10328 0.0
C700 C 0.45354 0.21383 0.13957 0.0
C701 C 0.45099 0.24853 0.24496 0.0
C702 C 0.45215 0.23671 0.20874 0.0
H703 H 0.43408 0.15491 0.07749 0.0
H704 H 0.43385 0.17539 0.13673 0.0
H705 H 0.45104 0.23327 0.09417 0.0
H706 H 0.42647 0.27059 0.27218 0.0
H707 H 0.42772 0.25009 0.21447 0.0
C708 C 0.37376 0.49926 0.33285 0.0
C709 C 0.36743 0.49645 0.28794 0.0
C710 C 0.39126 0.51469 0.34444 0.0
C711 C 0.42755 0.56171 0.30013 0.0
H712 H 0.45619 0.5605 0.4032 0.0
C713 C 0.50207 0.62225 0.34384 0.0
C714 C 0.50302 0.63071 0.38585 0.0
C715 C 0.48649 0.60481 0.33278 0.0
C716 C 0.44827 0.56095 0.37439 0.0
H717 H 0.37481 0.50697 0.21954 0.0
H718 H 0.4058 0.53329 0.23912 0.0
H719 H 0.42767 0.53165 0.37996 0.0
H720 H 0.48883 0.62704 0.45006 0.0
H721 H 0.46173 0.59608 0.43095 0.0
H722 H 0.44865 0.59092 0.29393 0.0
C723 C 0.39698 0.52411 0.26592 0.0
C724 C 0.43186 0.5445 0.36114 0.0
C725 C 0.37927 0.50891 0.25451 0.0
C726 C 0.48847 0.6209 0.41742 0.0
C727 C 0.47303 0.60321 0.40661 0.0
C728 C 0.44414 0.57799 0.31278 0.0
C729 C 0.40305 0.52748 0.31122 0.0
C730 C 0.42115 0.54468 0.32404 0.0
C731 C 0.47175 0.59529 0.36382 0.0
C732 C 0.45453 0.57778 0.35019 0.0
H733 H 0.36485 0.48996 0.35944 0.0
H734 H 0.39517 0.51688 0.37975 0.0
H735 H 0.41955 0.56267 0.27217 0.0
H736 H 0.513 0.62944 0.31868 0.0
H737 H 0.48578 0.59889 0.29963 0.0
C738 C 0.85518 0.48353 0.73021 0.0
C739 C 0.86437 0.50099 0.7076 0.0
C740 C 0.8569 0.46832 0.71478 0.0
C741 C 0.88525 0.4551 0.64238 0.0
H742 H 0.83872 0.40684 0.63732 0.0
C743 C 0.88216 0.3836 0.61525 0.0
C744 C 0.86684 0.36941 0.59093 0.0
C745 C 0.88327 0.40092 0.62385 0.0
C746 C 0.8518 0.42025 0.63793 0.0
H747 H 0.88329 0.51637 0.65223 0.0
H748 H 0.88622 0.48978 0.62535 0.0
H749 H 0.83821 0.43445 0.66597 0.0
H750 H 0.84138 0.36285 0.55388 0.0
H751 H 0.84344 0.39317 0.56858 0.0
H752 H 0.89881 0.44081 0.61407 0.0
C753 C 0.87773 0.48789 0.65506 0.0
C754 C 0.85156 0.43602 0.65503 0.0
C755 C 0.87599 0.50311 0.67043 0.0
C756 C 0.8533 0.3734 0.573 0.0
C757 C 0.8544 0.39072 0.58168 0.0
C758 C 0.88551 0.43927 0.62537 0.0
C759 C 0.86786 0.47022 0.67647 0.0
C760 C 0.86829 0.45358 0.65783 0.0
C761 C 0.86909 0.40445 0.60835 0.0
C762 C 0.86879 0.42164 0.62321 0.0
H763 H 0.8462 0.48142 0.75907 0.0
H764 H 0.84941 0.45497 0.73253 0.0
H765 H 0.89838 0.46844 0.64422 0.0
H766 H 0.8929 0.38106 0.6294 0.0
H767 H 0.89471 0.41115 0.64468 0.0
C768 C 0.49425 0.87283 0.99131 0.0
C769 C 0.49608 0.86593 0.94924 0.0
C770 C 0.47825 0.87412 0.00119 0.0
C771 C 0.4408 0.87997 0.9563 0.0
H772 H 0.41024 0.84862 0.05553 0.0
C773 C 0.36664 0.86897 0.99312 0.0
C774 C 0.35992 0.86554 0.03773 0.0
C775 C 0.38383 0.87016 0.98234 0.0
C776 C 0.41874 0.8578 0.02836 0.0
H777 H 0.48296 0.85574 0.88386 0.0
H778 H 0.45513 0.85864 0.90086 0.0
H779 H 0.43952 0.84935 0.03613 0.0
H780 H 0.36624 0.86142 0.10638 0.0
H781 H 0.39672 0.86454 0.08822 0.0
H782 H 0.4206 0.88909 0.94934 0.0
C783 C 0.46606 0.86276 0.92618 0.0
C784 C 0.43543 0.85804 0.01706 0.0
C785 C 0.48191 0.86107 0.91657 0.0
C786 C 0.371 0.8639 0.07162 0.0
C787 C 0.38841 0.86552 0.06103 0.0
C788 C 0.42431 0.88008 0.96822 0.0
C789 C 0.46397 0.86893 0.96888 0.0
C790 C 0.4465 0.86902 0.98081 0.0
C791 C 0.39495 0.86836 0.01608 0.0
C792 C 0.41294 0.86888 0.00426 0.0
H793 H 0.50487 0.8766 0.0173 0.0
H794 H 0.47691 0.87896 0.03429 0.0
H795 H 0.44927 0.88866 0.9284 0.0
H796 H 0.35831 0.87012 0.96619 0.0
H797 H 0.38808 0.87197 0.94725 0.0
C798 C 0.62035 0.49816 0.32824 0.0
C799 C 0.62729 0.5006 0.28391 0.0
C800 C 0.60284 0.48267 0.33944 0.0
C801 C 0.56774 0.43491 0.29666 0.0
H802 H 0.53769 0.43656 0.39606 0.0
C803 C 0.49332 0.37383 0.34025 0.0
C804 C 0.49215 0.36607 0.38333 0.0
C805 C 0.50883 0.39121 0.32841 0.0
C806 C 0.54601 0.43598 0.36829 0.0
H807 H 0.62092 0.48933 0.21598 0.0
H808 H 0.58987 0.46287 0.23478 0.0
H809 H 0.56602 0.46549 0.37236 0.0
H810 H 0.50593 0.37088 0.44847 0.0
H811 H 0.5329 0.40173 0.42795 0.0
H812 H 0.5472 0.40546 0.29189 0.0
C813 C 0.59826 0.47242 0.26151 0.0
C814 C 0.56231 0.45249 0.35479 0.0
C815 C 0.61599 0.48769 0.25054 0.0
C816 C 0.50646 0.37648 0.41501 0.0
C817 C 0.52182 0.3941 0.4034 0.0
C818 C 0.55124 0.41855 0.30952 0.0
C819 C 0.59161 0.46943 0.30637 0.0
C820 C 0.57354 0.45215 0.31907 0.0
C821 C 0.52328 0.40137 0.3597 0.0
C822 C 0.54037 0.41892 0.34567 0.0
H823 H 0.62882 0.50779 0.35482 0.0
H824 H 0.59849 0.48079 0.37446 0.0
H825 H 0.57614 0.43385 0.26982 0.0
H826 H 0.48258 0.36615 0.31498 0.0
H827 H 0.50969 0.39661 0.29456 0.0
C828 C 0.1116 0.61544 0.63987 0.0
C829 C 0.12639 0.62838 0.61205 0.0
C830 C 0.10979 0.59796 0.65028 0.0
C831 C 0.12432 0.56369 0.61653 0.0
H832 H 0.11798 0.55061 0.74378 0.0
C833 C 0.11692 0.49385 0.68128 0.0
C834 C 0.12873 0.49556 0.71769 0.0
C835 C 0.1145 0.50897 0.6688 0.0
C836 C 0.11975 0.55408 0.70816 0.0
H837 H 0.15031 0.63261 0.57148 0.0
H838 H 0.14708 0.60201 0.58961 0.0
H839 H 0.11774 0.57891 0.7185 0.0
H840 H 0.14655 0.51427 0.77079 0.0
H841 H 0.14219 0.54063 0.7491 0.0
H842 H 0.12675 0.53907 0.60635 0.0
C843 C 0.13689 0.60545 0.60333 0.0
C844 C 0.11943 0.57017 0.69361 0.0
C845 C 0.13877 0.62301 0.59306 0.0
C846 C 0.13738 0.51247 0.74257 0.0
C847 C 0.13483 0.52756 0.73024 0.0
C848 C 0.12449 0.54751 0.63104 0.0
C849 C 0.12265 0.59295 0.63292 0.0
C850 C 0.12189 0.57524 0.6477 0.0
C851 C 0.12369 0.52609 0.69264 0.0
C852 C 0.1224 0.54265 0.67707 0.0
H853 H 0.10172 0.61903 0.6549 0.0
H854 H 0.0985 0.58847 0.67259 0.0
H855 H 0.12615 0.5672 0.58093 0.0
H856 H 0.10998 0.48102 0.66142 0.0
H857 H 0.10561 0.50735 0.64008 0.0
C858 C 0.62315 0.13148 0.06508 0.0
C859 C 0.6346 0.12988 0.03203 0.0
C860 C 0.60573 0.12961 0.05327 0.0
C861 C 0.58256 0.13931 0.96432 0.0
H862 H 0.53498 0.10158 0.01647 0.0
C863 C 0.51277 0.13553 0.91285 0.0
C864 C 0.49913 0.13089 0.94671 0.0
C865 C 0.52846 0.13336 0.92045 0.0
C866 C 0.54814 0.11241 0.00202 0.0
H867 H 0.6368 0.12502 0.96082 0.0
H868 H 0.60664 0.12241 0.94014 0.0
H869 H 0.5641 0.10207 0.0372 0.0
H870 H 0.49117 0.12026 0.015 0.0
H871 H 0.51879 0.11739 0.0291 0.0
H872 H 0.56711 0.15046 0.9311 0.0
C873 C 0.61105 0.12479 0.97515 0.0
C874 C 0.56476 0.11255 0.01374 0.0
C875 C 0.62823 0.12621 0.98708 0.0
C876 C 0.50134 0.12379 0.98802 0.0
C877 C 0.5172 0.12202 0.99599 0.0
C878 C 0.56603 0.13947 0.95337 0.0
C879 C 0.59973 0.12656 0.00811 0.0
C880 C 0.58207 0.12603 0.99503 0.0
C881 C 0.53109 0.12691 0.96248 0.0
C882 C 0.54856 0.12607 0.97222 0.0
H883 H 0.6277 0.13428 0.09997 0.0
H884 H 0.5972 0.13109 0.07914 0.0
H885 H 0.59584 0.14992 0.94978 0.0
H886 H 0.51134 0.1409 0.88053 0.0
H887 H 0.53858 0.13687 0.89337 0.0
loop_
_geom_bond_atom_site_label_1
_geom_bond_atom_site_label_2
_geom_bond_distance
_geom_bond_site_symmetry_2
_ccdc_geom_bond_type
O0 Cd1 2.223 . S
O0 C8 1.315 . S
Cd1 O0 2.223 . S
Cd1 O4 2.297 . S
Cd1 O5 2.439 . S
Cd1 O11 2.240 . S
Cd2 O3 2.240 . S
Cd2 O10 2.223 . S
Cd2 O12 2.297 . S
Cd2 O13 2.439 . S
O3 Cd2 2.240 . S
O3 C8 1.279 . S
O4 Cd1 2.297 . S
O4 C6 1.247 . S
O5 Cd1 2.439 . S
O5 C6 1.208 . S
C6 O4 1.247 . S
C6 O5 1.208 . S
C7 O12 1.247 . S
C7 O13 1.208 . S
C8 O0 1.315 . S
C8 O3 1.279 . S
C9 O10 1.315 . S
C9 O11 1.279 . S
O10 Cd2 2.223 . S
O10 C9 1.315 . S
O11 Cd1 2.240 . S
O11 C9 1.279 . S
O12 Cd2 2.297 . S
O12 C7 1.247 . S
O13 Cd2 2.439 . S
O13 C7 1.208 . S
O14 Cd15 2.223 . S
O14 C22 1.315 . S
Cd15 O14 2.223 . S
Cd15 O18 2.297 . S
Cd15 O19 2.439 . S
Cd15 O25 2.240 . S
Cd16 O17 2.240 . S
Cd16 O24 2.223 . S
Cd16 O26 2.297 . S
Cd16 O27 2.439 . S
O17 Cd16 2.240 . S
O17 C22 1.279 . S
O18 Cd15 2.297 . S
O18 C20 1.247 . S
O19 Cd15 2.439 . S
O19 C20 1.208 . S
C20 O18 1.247 . S
C20 O19 1.208 . S
C21 O26 1.247 . S
C21 O27 1.208 . S
C22 O14 1.315 . S
C22 O17 1.279 . S
C23 O24 1.315 . S
C23 O25 1.279 . S
O24 Cd16 2.223 . S
O24 C23 1.315 . S
O25 Cd15 2.240 . S
O25 C23 1.279 . S
O26 Cd16 2.297 . S
O26 C21 1.247 . S
O27 Cd16 2.439 . S
O27 C21 1.208 . S
O28 Cd29 2.223 . S
O28 C36 1.315 . S
Cd29 O28 2.223 . S
Cd29 O32 2.297 . S
Cd29 O33 2.439 . S
Cd29 O39 2.240 . S
Cd30 O31 2.240 . S
Cd30 O38 2.223 1_556 S
Cd30 O40 2.297 . S
Cd30 O41 2.439 . S
O31 Cd30 2.240 . S
O31 C36 1.279 . S
O32 Cd29 2.297 . S
O32 C34 1.247 . S
O33 Cd29 2.439 . S
O33 C34 1.208 . S
C34 O32 1.247 . S
C34 O33 1.208 . S
C35 O40 1.247 . S
C35 O41 1.208 . S
C36 O28 1.315 . S
C36 O31 1.279 . S
C37 O38 1.315 1_556 S
C37 O39 1.279 . S
O38 Cd30 2.223 1_554 S
O38 C37 1.315 1_554 S
O39 Cd29 2.240 . S
O39 C37 1.279 . S
O40 Cd30 2.297 . S
O40 C35 1.247 . S
O41 Cd30 2.439 . S
O41 C35 1.208 . S
O42 Cd43 2.223 . S
O42 C50 1.315 . S
Cd43 O42 2.223 . S
Cd43 O46 2.297 . S
Cd43 O47 2.439 . S
Cd43 O53 2.240 . S
Cd44 O45 2.240 . S
Cd44 O52 2.223 . S
Cd44 O54 2.297 . S
Cd44 O55 2.439 . S
O45 Cd44 2.240 . S
O45 C50 1.279 . S
O46 Cd43 2.297 . S
O46 C48 1.247 . S
O47 Cd43 2.439 . S
O47 C48 1.208 . S
C48 O46 1.247 . S
C48 O47 1.208 . S
C49 O54 1.247 . S
C49 O55 1.208 . S
C50 O42 1.315 . S
C50 O45 1.279 . S
C51 O52 1.315 . S
C51 O53 1.279 . S
O52 Cd44 2.223 . S
O52 C51 1.315 . S
O53 Cd43 2.240 . S
O53 C51 1.279 . S
O54 Cd44 2.297 . S
O54 C49 1.247 . S
O55 Cd44 2.439 . S
O55 C49 1.208 . S
O56 Cd57 2.223 . S
O56 C64 1.315 . S
Cd57 O56 2.223 . S
Cd57 O60 2.297 . S
Cd57 O61 2.439 . S
Cd57 O67 2.240 . S
Cd58 O59 2.240 . S
Cd58 O66 2.223 . S
Cd58 O68 2.297 . S
Cd58 O69 2.439 . S
O59 Cd58 2.240 . S
O59 C64 1.279 . S
O60 Cd57 2.297 . S
O60 C62 1.247 . S
O61 Cd57 2.439 . S
O61 C62 1.208 . S
C62 O60 1.247 . S
C62 O61 1.208 . S
C63 O68 1.247 . S
C63 O69 1.208 . S
C64 O56 1.315 . S
C64 O59 1.279 . S
C65 O66 1.315 . S
C65 O67 1.279 . S
O66 Cd58 2.223 . S
O66 C65 1.315 . S
O67 Cd57 2.240 . S
O67 C65 1.279 . S
O68 Cd58 2.297 . S
O68 C63 1.247 . S
O69 Cd58 2.439 . S
O69 C63 1.208 . S
O70 Cd71 2.223 . S
O70 C78 1.315 . S
Cd71 O70 2.223 . S
Cd71 O74 2.297 . S
Cd71 O75 2.439 . S
Cd71 O81 2.240 . S
Cd72 O73 2.240 . S
Cd72 O80 2.223 1_556 S
Cd72 O82 2.297 . S
Cd72 O83 2.439 . S
O73 Cd72 2.240 . S
O73 C78 1.279 . S
O74 Cd71 2.297 . S
O74 C76 1.247 . S
O75 Cd71 2.439 . S
O75 C76 1.208 . S
C76 O74 1.247 . S
C76 O75 1.208 . S
C77 O82 1.247 . S
C77 O83 1.208 . S
C78 O70 1.315 . S
C78 O73 1.279 . S
C79 O80 1.315 1_556 S
C79 O81 1.279 . S
O80 Cd72 2.223 1_554 S
O80 C79 1.315 1_554 S
O81 Cd71 2.240 . S
O81 C79 1.279 . S
O82 Cd72 2.297 . S
O82 C77 1.247 . S
O83 Cd72 2.439 . S
O83 C77 1.208 . S
O84 Cd85 2.223 . S
O84 C92 1.315 . S
Cd85 O84 2.223 . S
Cd85 O88 2.297 . S
Cd85 O89 2.439 . S
Cd85 O95 2.240 . S
Cd86 O87 2.240 . S
Cd86 O94 2.223 . S
Cd86 O96 2.297 . S
Cd86 O97 2.439 . S
O87 Cd86 2.240 . S
O87 C92 1.279 . S
O88 Cd85 2.297 . S
O88 C90 1.247 . S
O89 Cd85 2.439 . S
O89 C90 1.208 . S
C90 O88 1.247 . S
C90 O89 1.208 . S
C91 O96 1.247 . S
C91 O97 1.208 . S
C92 O84 1.315 . S
C92 O87 1.279 . S
C93 O94 1.315 . S
C93 O95 1.279 . S
O94 Cd86 2.223 . S
O94 C93 1.315 . S
O95 Cd85 2.240 . S
O95 C93 1.279 . S
O96 Cd86 2.297 . S
O96 C91 1.247 . S
O97 Cd86 2.439 . S
O97 C91 1.208 . S
O98 Cd99 2.223 . S
O98 C106 1.315 . S
Cd99 O98 2.223 . S
Cd99 O102 2.297 . S
Cd99 O103 2.439 . S
Cd99 O109 2.240 . S
Cd100 O101 2.240 . S
Cd100 O108 2.223 . S
Cd100 O110 2.297 . S
Cd100 O111 2.439 . S
O101 Cd100 2.240 . S
O101 C106 1.279 . S
O102 Cd99 2.297 . S
O102 C104 1.247 . S
O103 Cd99 2.439 . S
O103 C104 1.208 . S
C104 O102 1.247 . S
C104 O103 1.208 . S
C105 O110 1.247 . S
C105 O111 1.208 . S
C106 O98 1.315 . S
C106 O101 1.279 . S
C107 O108 1.315 . S
C107 O109 1.279 . S
O108 Cd100 2.223 . S
O108 C107 1.315 . S
O109 Cd99 2.240 . S
O109 C107 1.279 . S
O110 Cd100 2.297 . S
O110 C105 1.247 . S
O111 Cd100 2.439 . S
O111 C105 1.208 . S
O112 Cd113 2.223 . S
O112 C120 1.315 . S
Cd113 O112 2.223 . S
Cd113 O116 2.297 . S
Cd113 O117 2.439 . S
Cd113 O123 2.240 . S
Cd114 O115 2.240 . S
Cd114 O122 2.223 1_554 S
Cd114 O124 2.297 . S
Cd114 O125 2.439 . S
O115 Cd114 2.240 . S
O115 C120 1.279 . S
O116 Cd113 2.297 . S
O116 C118 1.247 . S
O117 Cd113 2.439 . S
O117 C118 1.208 . S
C118 O116 1.247 . S
C118 O117 1.208 . S
C119 O124 1.247 . S
C119 O125 1.208 . S
C120 O112 1.315 . S
C120 O115 1.279 . S
C121 O122 1.315 1_554 S
C121 O123 1.279 . S
O122 Cd114 2.223 1_556 S
O122 C121 1.315 1_556 S
O123 Cd113 2.240 . S
O123 C121 1.279 . S
O124 Cd114 2.297 . S
O124 C119 1.247 . S
O125 Cd114 2.439 . S
O125 C119 1.208 . S
O126 Cd127 2.223 . S
O126 C134 1.315 . S
Cd127 O126 2.223 . S
Cd127 O130 2.297 . S
Cd127 O131 2.439 . S
Cd127 O137 2.240 . S
Cd128 O129 2.240 . S
Cd128 O136 2.223 . S
Cd128 O138 2.297 . S
Cd128 O139 2.439 . S
O129 Cd128 2.240 . S
O129 C134 1.279 . S
O130 Cd127 2.297 . S
O130 C132 1.247 . S
O131 Cd127 2.439 . S
O131 C132 1.208 . S
C132 O130 1.247 . S
C132 O131 1.208 . S
C133 O138 1.247 . S
C133 O139 1.208 . S
C134 O126 1.315 . S
C134 O129 1.279 . S
C135 O136 1.315 . S
C135 O137 1.279 . S
O136 Cd128 2.223 . S
O136 C135 1.315 . S
O137 Cd127 2.240 . S
O137 C135 1.279 . S
O138 Cd128 2.297 . S
O138 C133 1.247 . S
O139 Cd128 2.439 . S
O139 C133 1.208 . S
O140 Cd141 2.223 . S
O140 C148 1.315 . S
Cd141 O140 2.223 . S
Cd141 O144 2.297 . S
Cd141 O145 2.439 . S
Cd141 O151 2.240 . S
Cd142 O143 2.240 . S
Cd142 O150 2.223 . S
Cd142 O152 2.297 . S
Cd142 O153 2.439 . S
O143 Cd142 2.240 . S
O143 C148 1.279 . S
O144 Cd141 2.297 . S
O144 C146 1.247 . S
O145 Cd141 2.439 . S
O145 C146 1.208 . S
C146 O144 1.247 . S
C146 O145 1.208 . S
C147 O152 1.247 . S
C147 O153 1.208 . S
C148 O140 1.315 . S
C148 O143 1.279 . S
C149 O150 1.315 . S
C149 O151 1.279 . S
O150 Cd142 2.223 . S
O150 C149 1.315 . S
O151 Cd141 2.240 . S
O151 C149 1.279 . S
O152 Cd142 2.297 . S
O152 C147 1.247 . S
O153 Cd142 2.439 . S
O153 C147 1.208 . S
O154 Cd155 2.223 . S
O154 C162 1.315 . S
Cd155 O154 2.223 . S
Cd155 O158 2.297 . S
Cd155 O159 2.439 . S
Cd155 O165 2.240 . S
Cd156 O157 2.240 . S
Cd156 O164 2.223 1_554 S
Cd156 O166 2.297 . S
Cd156 O167 2.439 . S
O157 Cd156 2.240 . S
O157 C162 1.279 . S
O158 Cd155 2.297 . S
O158 C160 1.247 . S
O159 Cd155 2.439 . S
O159 C160 1.208 . S
C160 O158 1.247 . S
C160 O159 1.208 . S
C161 O166 1.247 . S
C161 O167 1.208 . S
C162 O154 1.315 . S
C162 O157 1.279 . S
C163 O164 1.315 1_554 S
C163 O165 1.279 . S
O164 Cd156 2.223 1_556 S
O164 C163 1.315 1_556 S
O165 Cd155 2.240 . S
O165 C163 1.279 . S
O166 Cd156 2.297 . S
O166 C161 1.247 . S
O167 Cd156 2.439 . S
O167 C161 1.208 . S
C168 C169 1.349 . S
C168 C170 1.327 . S
C168 H193 0.950 . S
C169 C168 1.349 . S
C169 C185 1.349 . S
C170 C168 1.327 . S
C170 C189 1.429 . S
C170 H194 0.950 . S
C171 C188 1.574 . S
C171 C190 1.368 . S
C171 H195 0.949 . S
H172 C176 0.949 . S
C173 C174 1.349 . S
C173 C175 1.327 . S
C173 H196 0.950 . S
C174 C173 1.349 . S
C174 C186 1.349 . S
C175 C173 1.327 . S
C175 C191 1.429 . S
C175 H197 0.950 . S
C176 H172 0.949 . S
C176 C184 1.574 . S
C176 C192 1.368 . S
H177 C185 0.950 . S
H178 C183 0.950 . S
H179 C184 0.949 . S
H180 C186 0.950 . S
H181 C187 0.950 . S
H182 C188 0.949 . S
C183 H178 0.950 . S
C183 C185 1.327 . S
C183 C189 1.429 . S
C184 C176 1.574 . S
C184 H179 0.949 . S
C184 C190 1.368 . S
C185 C169 1.349 . S
C185 H177 0.950 . S
C185 C183 1.327 . S
C186 C174 1.349 . S
C186 H180 0.950 . S
C186 C187 1.327 . S
C187 H181 0.950 . S
C187 C186 1.327 . S
C187 C191 1.429 . S
C188 C171 1.574 . S
C188 H182 0.949 . S
C188 C192 1.368 . S
C189 C170 1.429 . S
C189 C183 1.429 . S
C189 C190 1.523 . S
C190 C171 1.368 . S
C190 C184 1.368 . S
C190 C189 1.523 . S
C191 C175 1.429 . S
C191 C187 1.429 . S
C191 C192 1.523 . S
C192 C176 1.368 . S
C192 C188 1.368 . S
C192 C191 1.523 . S
H193 C168 0.950 . S
H194 C170 0.950 . S
H195 C171 0.949 . S
H196 C173 0.950 . S
H197 C175 0.950 . S
C198 C199 1.349 . S
C198 C200 1.327 . S
C198 H223 0.950 . S
C199 C198 1.349 . S
C199 C215 1.349 . S
C200 C198 1.327 . S
C200 C219 1.429 . S
C200 H224 0.950 . S
C201 C218 1.574 1_655 S
C201 C220 1.368 . S
C201 H225 0.949 . S
H202 C206 0.949 . S
C203 C204 1.349 . S
C203 C205 1.327 . S
C203 H226 0.950 . S
C204 C203 1.349 . S
C204 C216 1.349 . S
C205 C203 1.327 . S
C205 C221 1.429 . S
C205 H227 0.950 . S
C206 H202 0.949 . S
C206 C214 1.574 1_455 S
C206 C222 1.368 . S
H207 C215 0.950 . S
H208 C213 0.950 . S
H209 C214 0.949 . S
H210 C216 0.950 . S
H211 C217 0.950 . S
H212 C218 0.949 . S
C213 H208 0.950 . S
C213 C215 1.327 . S
C213 C219 1.429 . S
C214 C206 1.574 1_655 S
C214 H209 0.949 . S
C214 C220 1.368 . S
C215 C199 1.349 . S
C215 H207 0.950 . S
C215 C213 1.327 . S
C216 C204 1.349 . S
C216 H210 0.950 . S
C216 C217 1.327 . S
C217 H211 0.950 . S
C217 C216 1.327 . S
C217 C221 1.429 . S
C218 C201 1.574 1_455 S
C218 H212 0.949 . S
C218 C222 1.368 . S
C219 C200 1.429 . S
C219 C213 1.429 . S
C219 C220 1.523 . S
C220 C201 1.368 . S
C220 C214 1.368 . S
C220 C219 1.523 . S
C221 C205 1.429 . S
C221 C217 1.429 . S
C221 C222 1.523 . S
C222 C206 1.368 . S
C222 C218 1.368 . S
C222 C221 1.523 . S
H223 C198 0.950 . S
H224 C200 0.950 . S
H225 C201 0.949 . S
H226 C203 0.950 . S
H227 C205 0.950 . S
C228 C229 1.349 . S
C228 C230 1.327 . S
C228 H253 0.950 . S
C229 C228 1.349 . S
C229 C245 1.349 . S
C230 C228 1.327 . S
C230 C249 1.429 . S
C230 H254 0.950 . S
C231 C248 1.574 1_565 S
C231 C250 1.368 1_554 S
C231 H255 0.949 . S
H232 C236 0.949 . S
C233 C234 1.349 . S
C233 C235 1.327 . S
C233 H256 0.950 . S
C234 C233 1.349 . S
C234 C246 1.349 . S
C235 C233 1.327 . S
C235 C251 1.429 . S
C235 H257 0.950 . S
C236 H232 0.949 . S
C236 C244 1.574 1_545 S
C236 C252 1.368 1_556 S
H237 C245 0.950 . S
H238 C243 0.950 1_554 S
H239 C244 0.949 . S
H240 C246 0.950 . S
H241 C247 0.950 1_556 S
H242 C248 0.949 . S
C243 H238 0.950 1_556 S
C243 C245 1.327 . S
C243 C249 1.429 . S
C244 C236 1.574 1_565 S
C244 H239 0.949 . S
C244 C250 1.368 . S
C245 C229 1.349 . S
C245 H237 0.950 . S
C245 C243 1.327 . S
C246 C234 1.349 . S
C246 H240 0.950 . S
C246 C247 1.327 . S
C247 H241 0.950 1_554 S
C247 C246 1.327 . S
C247 C251 1.429 . S
C248 C231 1.574 1_545 S
C248 H242 0.949 . S
C248 C252 1.368 . S
C249 C230 1.429 . S
C249 C243 1.429 . S
C249 C250 1.523 . S
C250 C231 1.368 1_556 S
C250 C244 1.368 . S
C250 C249 1.523 . S
C251 C235 1.429 . S
C251 C247 1.429 . S
C251 C252 1.523 . S
C252 C236 1.368 1_554 S
C252 C248 1.368 . S
C252 C251 1.523 . S
H253 C228 0.950 . S
H254 C230 0.950 . S
H255 C231 0.949 . S
H256 C233 0.950 . S
H257 C235 0.950 . S
C258 C259 1.349 . S
C258 C260 1.327 . S
C258 H283 0.950 . S
C259 C258 1.349 . S
C259 C275 1.349 . S
C260 C258 1.327 . S
C260 C279 1.429 . S
C260 H284 0.950 . S
C261 C278 1.574 . S
C261 C280 1.368 . S
C261 H285 0.949 . S
H262 C266 0.949 . S
C263 C264 1.349 . S
C263 C265 1.327 . S
C263 H286 0.950 . S
C264 C263 1.349 . S
C264 C276 1.349 . S
C265 C263 1.327 . S
C265 C281 1.429 . S
C265 H287 0.950 . S
C266 H262 0.949 . S
C266 C274 1.574 . S
C266 C282 1.368 . S
H267 C275 0.950 . S
H268 C273 0.950 . S
H269 C274 0.949 . S
H270 C276 0.950 . S
H271 C277 0.950 . S
H272 C278 0.949 . S
C273 H268 0.950 . S
C273 C275 1.327 . S
C273 C279 1.429 . S
C274 C266 1.574 . S
C274 H269 0.949 . S
C274 C280 1.368 . S
C275 C259 1.349 . S
C275 H267 0.950 . S
C275 C273 1.327 . S
C276 C264 1.349 . S
C276 H270 0.950 . S
C276 C277 1.327 . S
C277 H271 0.950 . S
C277 C276 1.327 . S
C277 C281 1.429 . S
C278 C261 1.574 . S
C278 H272 0.949 . S
C278 C282 1.368 . S
C279 C260 1.429 . S
C279 C273 1.429 . S
C279 C280 1.523 . S
C280 C261 1.368 . S
C280 C274 1.368 . S
C280 C279 1.523 . S
C281 C265 1.429 . S
C281 C277 1.429 . S
C281 C282 1.523 . S
C282 C266 1.368 . S
C282 C278 1.368 . S
C282 C281 1.523 . S
H283 C258 0.950 . S
H284 C260 0.950 . S
H285 C261 0.949 . S
H286 C263 0.950 . S
H287 C265 0.950 . S
C288 C289 1.349 . S
C288 C290 1.327 . S
C288 H313 0.950 . S
C289 C288 1.349 . S
C289 C305 1.349 . S
C290 C288 1.327 . S
C290 C309 1.429 . S
C290 H314 0.950 . S
C291 C308 1.574 1_655 S
C291 C310 1.368 . S
C291 H315 0.949 . S
H292 C296 0.949 . S
C293 C294 1.349 . S
C293 C295 1.327 . S
C293 H316 0.950 . S
C294 C293 1.349 . S
C294 C306 1.349 . S
C295 C293 1.327 . S
C295 C311 1.429 . S
C295 H317 0.950 . S
C296 H292 0.949 . S
C296 C304 1.574 1_455 S
C296 C312 1.368 . S
H297 C305 0.950 . S
H298 C303 0.950 . S
H299 C304 0.949 . S
H300 C306 0.950 . S
H301 C307 0.950 . S
H302 C308 0.949 . S
C303 H298 0.950 . S
C303 C305 1.327 . S
C303 C309 1.429 . S
C304 C296 1.574 1_655 S
C304 H299 0.949 . S
C304 C310 1.368 . S
C305 C289 1.349 . S
C305 H297 0.950 . S
C305 C303 1.327 . S
C306 C294 1.349 . S
C306 H300 0.950 . S
C306 C307 1.327 . S
C307 H301 0.950 . S
C307 C306 1.327 . S
C307 C311 1.429 . S
C308 C291 1.574 1_455 S
C308 H302 0.949 . S
C308 C312 1.368 . S
C309 C290 1.429 . S
C309 C303 1.429 . S
C309 C310 1.523 . S
C310 C291 1.368 . S
C310 C304 1.368 . S
C310 C309 1.523 . S
C311 C295 1.429 . S
C311 C307 1.429 . S
C311 C312 1.523 . S
C312 C296 1.368 . S
C312 C308 1.368 . S
C312 C311 1.523 . S
H313 C288 0.950 . S
H314 C290 0.950 . S
H315 C291 0.949 . S
H316 C293 0.950 . S
H317 C295 0.950 . S
C318 C319 1.349 . S
C318 C320 1.326 1_554 S
C318 H343 0.950 1_554 S
C319 C318 1.349 . S
C319 C335 1.349 . S
C320 C318 1.326 1_556 S
C320 C339 1.427 1_556 S
C320 H344 0.951 . S
C321 C338 1.574 1_565 S
C321 C340 1.368 . S
C321 H345 0.949 . S
H322 C326 0.949 . S
C323 C324 1.349 . S
C323 C325 1.327 1_556 S
C323 H346 0.950 1_556 S
C324 C323 1.349 . S
C324 C336 1.349 . S
C325 C323 1.327 1_554 S
C325 C341 1.427 1_554 S
C325 H347 0.951 . S
C326 H322 0.949 . S
C326 C334 1.574 1_545 S
C326 C342 1.368 . S
H327 C335 0.950 . S
H328 C333 0.950 . S
H329 C334 0.949 . S
H330 C336 0.950 . S
H331 C337 0.950 . S
H332 C338 0.949 . S
C333 H328 0.950 . S
C333 C335 1.327 . S
C333 C339 1.429 . S
C334 C326 1.574 1_565 S
C334 H329 0.949 . S
C334 C340 1.368 1_556 S
C335 C319 1.349 . S
C335 H327 0.950 . S
C335 C333 1.327 . S
C336 C324 1.349 . S
C336 H330 0.950 . S
C336 C337 1.327 . S
C337 H331 0.950 . S
C337 C336 1.327 . S
C337 C341 1.429 . S
C338 C321 1.574 1_545 S
C338 H332 0.949 . S
C338 C342 1.368 1_554 S
C339 C320 1.427 1_554 S
C339 C333 1.429 . S
C339 C340 1.523 . S
C340 C321 1.368 . S
C340 C334 1.368 1_554 S
C340 C339 1.523 . S
C341 C325 1.427 1_556 S
C341 C337 1.429 . S
C341 C342 1.523 . S
C342 C326 1.368 . S
C342 C338 1.368 1_556 S
C342 C341 1.523 . S
H343 C318 0.950 1_556 S
H344 C320 0.951 . S
H345 C321 0.949 . S
H346 C323 0.950 1_554 S
H347 C325 0.951 . S
C348 C349 1.349 . S
C348 C350 1.327 . S
C348 H373 0.950 . S
C349 C348 1.349 . S
C349 C365 1.349 . S
C350 C348 1.327 . S
C350 C369 1.429 . S
C350 H374 0.950 . S
C351 C368 1.574 1_556 S
C351 C370 1.368 . S
C351 H375 0.949 . S
H352 C356 0.949 . S
C353 C354 1.349 . S
C353 C355 1.327 . S
C353 H376 0.950 . S
C354 C353 1.349 . S
C354 C366 1.349 . S
C355 C353 1.327 . S
C355 C371 1.429 . S
C355 H377 0.950 . S
C356 H352 0.949 . S
C356 C364 1.574 1_554 S
C356 C372 1.368 . S
H357 C365 0.950 . S
H358 C363 0.950 . S
H359 C364 0.949 . S
H360 C366 0.950 . S
H361 C367 0.950 . S
H362 C368 0.949 . S
C363 H358 0.950 . S
C363 C365 1.327 . S
C363 C369 1.429 . S
C364 C356 1.574 1_556 S
C364 H359 0.949 . S
C364 C370 1.368 . S
C365 C349 1.349 . S
C365 H357 0.950 . S
C365 C363 1.327 . S
C366 C354 1.349 . S
C366 H360 0.950 . S
C366 C367 1.327 . S
C367 H361 0.950 . S
C367 C366 1.327 . S
C367 C371 1.429 . S
C368 C351 1.574 1_554 S
C368 H362 0.949 . S
C368 C372 1.368 . S
C369 C350 1.429 . S
C369 C363 1.429 . S
C369 C370 1.523 . S
C370 C351 1.368 . S
C370 C364 1.368 . S
C370 C369 1.523 . S
C371 C355 1.429 . S
C371 C367 1.429 . S
C371 C372 1.523 . S
C372 C356 1.368 . S
C372 C368 1.368 . S
C372 C371 1.523 . S
H373 C348 0.950 . S
H374 C350 0.950 . S
H375 C351 0.949 . S
H376 C353 0.950 . S
H377 C355 0.950 . S
C378 C379 1.349 . S
C378 C380 1.327 . S
C378 H403 0.950 . S
C379 C378 1.349 . S
C379 C395 1.349 . S
C380 C378 1.327 . S
C380 C399 1.429 . S
C380 H404 0.950 . S
C381 C398 1.574 . S
C381 C400 1.368 . S
C381 H405 0.949 . S
H382 C386 0.949 . S
C383 C384 1.349 . S
C383 C385 1.327 . S
C383 H406 0.950 . S
C384 C383 1.349 . S
C384 C396 1.349 . S
C385 C383 1.327 . S
C385 C401 1.429 . S
C385 H407 0.950 . S
C386 H382 0.949 . S
C386 C394 1.574 . S
C386 C402 1.368 . S
H387 C395 0.950 . S
H388 C393 0.950 . S
H389 C394 0.949 . S
H390 C396 0.950 . S
H391 C397 0.950 . S
H392 C398 0.949 . S
C393 H388 0.950 . S
C393 C395 1.327 . S
C393 C399 1.429 . S
C394 C386 1.574 . S
C394 H389 0.949 . S
C394 C400 1.368 . S
C395 C379 1.349 . S
C395 H387 0.950 . S
C395 C393 1.327 . S
C396 C384 1.349 . S
C396 H390 0.950 . S
C396 C397 1.327 . S
C397 H391 0.950 . S
C397 C396 1.327 . S
C397 C401 1.429 . S
C398 C381 1.574 . S
C398 H392 0.949 . S
C398 C402 1.368 . S
C399 C380 1.429 . S
C399 C393 1.429 . S
C399 C400 1.523 . S
C400 C381 1.368 . S
C400 C394 1.368 . S
C400 C399 1.523 . S
C401 C385 1.429 . S
C401 C397 1.429 . S
C401 C402 1.523 . S
C402 C386 1.368 . S
C402 C398 1.368 . S
C402 C401 1.523 . S
H403 C378 0.950 . S
H404 C380 0.950 . S
H405 C381 0.949 . S
H406 C383 0.950 . S
H407 C385 0.950 . S
C408 C409 1.349 . S
C408 C410 1.327 . S
C408 H433 0.950 . S
C409 C408 1.349 . S
C409 C425 1.349 . S
C410 C408 1.327 . S
C410 C429 1.429 . S
C410 H434 0.950 . S
C411 C428 1.574 . S
C411 C430 1.368 . S
C411 H435 0.949 . S
H412 C416 0.949 . S
C413 C414 1.349 . S
C413 C415 1.327 . S
C413 H436 0.950 . S
C414 C413 1.349 . S
C414 C426 1.349 . S
C415 C413 1.327 . S
C415 C431 1.429 . S
C415 H437 0.950 . S
C416 H412 0.949 . S
C416 C424 1.574 . S
C416 C432 1.368 . S
H417 C425 0.950 . S
H418 C423 0.950 . S
H419 C424 0.949 . S
H420 C426 0.950 . S
H421 C427 0.950 . S
H422 C428 0.949 . S
C423 H418 0.950 . S
C423 C425 1.327 . S
C423 C429 1.429 . S
C424 C416 1.574 . S
C424 H419 0.949 . S
C424 C430 1.368 . S
C425 C409 1.349 . S
C425 H417 0.950 . S
C425 C423 1.327 . S
C426 C414 1.349 . S
C426 H420 0.950 . S
C426 C427 1.327 . S
C427 H421 0.950 . S
C427 C426 1.327 . S
C427 C431 1.429 . S
C428 C411 1.574 . S
C428 H422 0.949 . S
C428 C432 1.368 . S
C429 C410 1.429 . S
C429 C423 1.429 . S
C429 C430 1.523 . S
C430 C411 1.368 . S
C430 C424 1.368 . S
C430 C429 1.523 . S
C431 C415 1.429 . S
C431 C427 1.429 . S
C431 C432 1.523 . S
C432 C416 1.368 . S
C432 C428 1.368 . S
C432 C431 1.523 . S
H433 C408 0.950 . S
H434 C410 0.950 . S
H435 C411 0.949 . S
H436 C413 0.950 . S
H437 C415 0.950 . S
C438 C439 1.349 . S
C438 C440 1.327 . S
C438 H463 0.950 . S
C439 C438 1.349 . S
C439 C455 1.349 . S
C440 C438 1.327 . S
C440 C459 1.429 . S
C440 H464 0.950 . S
C441 C458 1.574 1_554 S
C441 C460 1.368 . S
C441 H465 0.949 . S
H442 C446 0.949 . S
C443 C444 1.349 . S
C443 C445 1.327 . S
C443 H466 0.950 . S
C444 C443 1.349 . S
C444 C456 1.349 . S
C445 C443 1.327 . S
C445 C461 1.429 . S
C445 H467 0.950 . S
C446 H442 0.949 . S
C446 C454 1.574 1_556 S
C446 C462 1.368 . S
H447 C455 0.950 . S
H448 C453 0.950 . S
H449 C454 0.949 . S
H450 C456 0.950 . S
H451 C457 0.950 . S
H452 C458 0.949 . S
C453 H448 0.950 . S
C453 C455 1.327 . S
C453 C459 1.429 . S
C454 C446 1.574 1_554 S
C454 H449 0.949 . S
C454 C460 1.368 . S
C455 C439 1.349 . S
C455 H447 0.950 . S
C455 C453 1.327 . S
C456 C444 1.349 . S
C456 H450 0.950 . S
C456 C457 1.327 . S
C457 H451 0.950 . S
C457 C456 1.327 . S
C457 C461 1.429 . S
C458 C441 1.574 1_556 S
C458 H452 0.949 . S
C458 C462 1.368 . S
C459 C440 1.429 . S
C459 C453 1.429 . S
C459 C460 1.523 . S
C460 C441 1.368 . S
C460 C454 1.368 . S
C460 C459 1.523 . S
C461 C445 1.429 . S
C461 C457 1.429 . S
C461 C462 1.523 . S
C462 C446 1.368 . S
C462 C458 1.368 . S
C462 C461 1.523 . S
H463 C438 0.950 . S
H464 C440 0.950 . S
H465 C441 0.949 . S
H466 C443 0.950 . S
H467 C445 0.950 . S
C468 C469 1.349 . S
C468 C470 1.327 . S
C468 H493 0.950 . S
C469 C468 1.349 . S
C469 C485 1.349 . S
C470 C468 1.327 . S
C470 C489 1.429 . S
C470 H494 0.950 . S
C471 C488 1.574 . S
C471 C490 1.368 . S
C471 H495 0.949 . S
H472 C476 0.949 . S
C473 C474 1.349 . S
C473 C475 1.327 . S
C473 H496 0.950 . S
C474 C473 1.349 . S
C474 C486 1.349 . S
C475 C473 1.327 . S
C475 C491 1.429 . S
C475 H497 0.950 . S
C476 H472 0.949 . S
C476 C484 1.574 . S
C476 C492 1.368 . S
H477 C485 0.950 . S
H478 C483 0.950 . S
H479 C484 0.949 . S
H480 C486 0.950 . S
H481 C487 0.950 . S
H482 C488 0.949 . S
C483 H478 0.950 . S
C483 C485 1.327 . S
C483 C489 1.429 . S
C484 C476 1.574 . S
C484 H479 0.949 . S
C484 C490 1.368 . S
C485 C469 1.349 . S
C485 H477 0.950 . S
C485 C483 1.327 . S
C486 C474 1.349 . S
C486 H480 0.950 . S
C486 C487 1.327 . S
C487 H481 0.950 . S
C487 C486 1.327 . S
C487 C491 1.429 . S
C488 C471 1.574 . S
C488 H482 0.949 . S
C488 C492 1.368 . S
C489 C470 1.429 . S
C489 C483 1.429 . S
C489 C490 1.523 . S
C490 C471 1.368 . S
C490 C484 1.368 . S
C490 C489 1.523 . S
C491 C475 1.429 . S
C491 C487 1.429 . S
C491 C492 1.523 . S
C492 C476 1.368 . S
C492 C488 1.368 . S
C492 C491 1.523 . S
H493 C468 0.950 . S
H494 C470 0.950 . S
H495 C471 0.949 . S
H496 C473 0.950 . S
H497 C475 0.950 . S
C498 C499 1.349 . S
C498 C500 1.327 . S
C498 H523 0.950 . S
C499 C498 1.349 . S
C499 C515 1.349 . S
C500 C498 1.327 . S
C500 C519 1.429 . S
C500 H524 0.950 . S
C501 C518 1.574 . S
C501 C520 1.368 . S
C501 H525 0.949 . S
H502 C506 0.949 . S
C503 C504 1.349 . S
C503 C505 1.327 . S
C503 H526 0.950 . S
C504 C503 1.349 . S
C504 C516 1.349 . S
C505 C503 1.327 . S
C505 C521 1.429 . S
C505 H527 0.950 . S
C506 H502 0.949 . S
C506 C514 1.574 . S
C506 C522 1.368 . S
H507 C515 0.950 . S
H508 C513 0.950 . S
H509 C514 0.949 . S
H510 C516 0.950 . S
H511 C517 0.950 . S
H512 C518 0.949 . S
C513 H508 0.950 . S
C513 C515 1.327 . S
C513 C519 1.429 . S
C514 C506 1.574 . S
C514 H509 0.949 . S
C514 C520 1.368 . S
C515 C499 1.349 . S
C515 H507 0.950 . S
C515 C513 1.327 . S
C516 C504 1.349 . S
C516 H510 0.950 . S
C516 C517 1.327 . S
C517 H511 0.950 . S
C517 C516 1.327 . S
C517 C521 1.429 . S
C518 C501 1.574 . S
C518 H512 0.949 . S
C518 C522 1.368 . S
C519 C500 1.429 . S
C519 C513 1.429 . S
C519 C520 1.523 . S
C520 C501 1.368 . S
C520 C514 1.368 . S
C520 C519 1.523 . S
C521 C505 1.429 . S
C521 C517 1.429 . S
C521 C522 1.523 . S
C522 C506 1.368 . S
C522 C518 1.368 . S
C522 C521 1.523 . S
H523 C498 0.950 . S
H524 C500 0.950 . S
H525 C501 0.949 . S
H526 C503 0.950 . S
H527 C505 0.950 . S
C528 C529 1.349 . S
C528 C530 1.327 . S
C528 H553 0.950 . S
C529 C528 1.349 . S
C529 C545 1.349 . S
C530 C528 1.327 . S
C530 C549 1.429 . S
C530 H554 0.950 . S
C531 C548 1.574 . S
C531 C550 1.368 . S
C531 H555 0.949 . S
H532 C536 0.949 . S
C533 C534 1.349 . S
C533 C535 1.327 . S
C533 H556 0.950 . S
C534 C533 1.349 . S
C534 C546 1.349 . S
C535 C533 1.327 . S
C535 C551 1.429 . S
C535 H557 0.950 . S
C536 H532 0.949 . S
C536 C544 1.574 . S
C536 C552 1.368 . S
H537 C545 0.950 . S
H538 C543 0.950 . S
H539 C544 0.949 . S
H540 C546 0.950 . S
H541 C547 0.950 . S
H542 C548 0.949 . S
C543 H538 0.950 . S
C543 C545 1.327 . S
C543 C549 1.429 . S
C544 C536 1.574 . S
C544 H539 0.949 . S
C544 C550 1.368 . S
C545 C529 1.349 . S
C545 H537 0.950 . S
C545 C543 1.327 . S
C546 C534 1.349 . S
C546 H540 0.950 . S
C546 C547 1.327 . S
C547 H541 0.950 . S
C547 C546 1.327 . S
C547 C551 1.429 . S
C548 C531 1.574 . S
C548 H542 0.949 . S
C548 C552 1.368 . S
C549 C530 1.429 . S
C549 C543 1.429 . S
C549 C550 1.523 . S
C550 C531 1.368 . S
C550 C544 1.368 . S
C550 C549 1.523 . S
C551 C535 1.429 . S
C551 C547 1.429 . S
C551 C552 1.523 . S
C552 C536 1.368 . S
C552 C548 1.368 . S
C552 C551 1.523 . S
H553 C528 0.950 . S
H554 C530 0.950 . S
H555 C531 0.949 . S
H556 C533 0.950 . S
H557 C535 0.950 . S
C558 C559 1.349 . S
C558 C560 1.327 . S
C558 H583 0.950 . S
C559 C558 1.349 . S
C559 C575 1.349 . S
C560 C558 1.327 . S
C560 C579 1.429 . S
C560 H584 0.950 . S
C561 C578 1.574 . S
C561 C580 1.368 . S
C561 H585 0.949 . S
H562 C566 0.949 . S
C563 C564 1.349 . S
C563 C565 1.327 . S
C563 H586 0.950 . S
C564 C563 1.349 . S
C564 C576 1.349 . S
C565 C563 1.327 . S
C565 C581 1.429 . S
C565 H587 0.950 . S
C566 H562 0.949 . S
C566 C574 1.574 . S
C566 C582 1.368 . S
H567 C575 0.950 . S
H568 C573 0.950 . S
H569 C574 0.949 . S
H570 C576 0.950 1_554 S
H571 C577 0.950 . S
H572 C578 0.949 . S
C573 H568 0.950 . S
C573 C575 1.327 . S
C573 C579 1.429 . S
C574 C566 1.574 . S
C574 H569 0.949 . S
C574 C580 1.368 . S
C575 C559 1.349 . S
C575 H567 0.950 . S
C575 C573 1.327 . S
C576 C564 1.349 . S
C576 H570 0.950 1_556 S
C576 C577 1.327 . S
C577 H571 0.950 . S
C577 C576 1.327 . S
C577 C581 1.429 . S
C578 C561 1.574 . S
C578 H572 0.949 . S
C578 C582 1.368 . S
C579 C560 1.429 . S
C579 C573 1.429 . S
C579 C580 1.523 . S
C580 C561 1.368 . S
C580 C574 1.368 . S
C580 C579 1.523 . S
C581 C565 1.429 . S
C581 C577 1.429 . S
C581 C582 1.523 . S
C582 C566 1.368 . S
C582 C578 1.368 . S
C582 C581 1.523 . S
H583 C558 0.950 . S
H584 C560 0.950 . S
H585 C561 0.949 . S
H586 C563 0.950 . S
H587 C565 0.950 . S
C588 C589 1.349 . S
C588 C590 1.327 . S
C588 H613 0.950 1_554 S
C589 C588 1.349 . S
C589 C605 1.349 . S
C590 C588 1.327 . S
C590 C609 1.429 . S
C590 H614 0.950 . S
C591 C608 1.574 . S
C591 C610 1.368 . S
C591 H615 0.949 . S
H592 C596 0.949 . S
C593 C594 1.349 . S
C593 C595 1.327 . S
C593 H616 0.950 . S
C594 C593 1.349 . S
C594 C606 1.349 . S
C595 C593 1.327 . S
C595 C611 1.429 . S
C595 H617 0.950 . S
C596 H592 0.949 . S
C596 C604 1.574 . S
C596 C612 1.368 . S
H597 C605 0.950 . S
H598 C603 0.950 . S
H599 C604 0.949 . S
H600 C606 0.950 . S
H601 C607 0.950 . S
H602 C608 0.949 . S
C603 H598 0.950 . S
C603 C605 1.327 . S
C603 C609 1.429 . S
C604 C596 1.574 . S
C604 H599 0.949 . S
C604 C610 1.368 . S
C605 C589 1.349 . S
C605 H597 0.950 . S
C605 C603 1.327 . S
C606 C594 1.349 . S
C606 H600 0.950 . S
C606 C607 1.327 . S
C607 H601 0.950 . S
C607 C606 1.327 . S
C607 C611 1.429 . S
C608 C591 1.574 . S
C608 H602 0.949 . S
C608 C612 1.368 . S
C609 C590 1.429 . S
C609 C603 1.429 . S
C609 C610 1.523 . S
C610 C591 1.368 . S
C610 C604 1.368 . S
C610 C609 1.523 . S
C611 C595 1.429 . S
C611 C607 1.429 . S
C611 C612 1.523 . S
C612 C596 1.368 . S
C612 C608 1.368 . S
C612 C611 1.523 . S
H613 C588 0.950 1_556 S
H614 C590 0.950 . S
H615 C591 0.949 . S
H616 C593 0.950 . S
H617 C595 0.950 . S
C618 C619 1.349 . S
C618 C620 1.327 . S
C618 H643 0.950 . S
C619 C618 1.349 . S
C619 C635 1.349 . S
C620 C618 1.327 . S
C620 C639 1.429 . S
C620 H644 0.950 . S
C621 C638 1.574 . S
C621 C640 1.368 . S
C621 H645 0.949 . S
H622 C626 0.949 . S
C623 C624 1.349 . S
C623 C625 1.327 . S
C623 H646 0.950 . S
C624 C623 1.349 . S
C624 C636 1.349 . S
C625 C623 1.327 . S
C625 C641 1.429 . S
C625 H647 0.950 . S
C626 H622 0.949 . S
C626 C634 1.574 . S
C626 C642 1.368 . S
H627 C635 0.950 . S
H628 C633 0.950 . S
H629 C634 0.949 . S
H630 C636 0.950 . S
H631 C637 0.950 . S
H632 C638 0.949 . S
C633 H628 0.950 . S
C633 C635 1.327 . S
C633 C639 1.429 . S
C634 C626 1.574 . S
C634 H629 0.949 . S
C634 C640 1.368 . S
C635 C619 1.349 . S
C635 H627 0.950 . S
C635 C633 1.327 . S
C636 C624 1.349 . S
C636 H630 0.950 . S
C636 C637 1.327 . S
C637 H631 0.950 . S
C637 C636 1.327 . S
C637 C641 1.429 . S
C638 C621 1.574 . S
C638 H632 0.949 . S
C638 C642 1.368 . S
C639 C620 1.429 . S
C639 C633 1.429 . S
C639 C640 1.523 . S
C640 C621 1.368 . S
C640 C634 1.368 . S
C640 C639 1.523 . S
C641 C625 1.429 . S
C641 C637 1.429 . S
C641 C642 1.523 . S
C642 C626 1.368 . S
C642 C638 1.368 . S
C642 C641 1.523 . S
H643 C618 0.950 . S
H644 C620 0.950 . S
H645 C621 0.949 . S
H646 C623 0.950 . S
H647 C625 0.950 . S
C648 C649 1.349 . S
C648 C650 1.327 . S
C648 H673 0.950 . S
C649 C648 1.349 . S
C649 C665 1.349 . S
C650 C648 1.327 . S
C650 C669 1.429 . S
C650 H674 0.950 . S
C651 C668 1.574 . S
C651 C670 1.368 . S
C651 H675 0.949 . S
H652 C656 0.949 . S
C653 C654 1.349 . S
C653 C655 1.327 . S
C653 H676 0.950 . S
C654 C653 1.349 . S
C654 C666 1.349 . S
C655 C653 1.327 . S
C655 C671 1.429 . S
C655 H677 0.950 . S
C656 H652 0.949 . S
C656 C664 1.574 . S
C656 C672 1.368 . S
H657 C665 0.950 . S
H658 C663 0.950 . S
H659 C664 0.949 . S
H660 C666 0.950 . S
H661 C667 0.950 . S
H662 C668 0.949 . S
C663 H658 0.950 . S
C663 C665 1.327 . S
C663 C669 1.429 . S
C664 C656 1.574 . S
C664 H659 0.949 . S
C664 C670 1.368 . S
C665 C649 1.349 . S
C665 H657 0.950 . S
C665 C663 1.327 . S
C666 C654 1.349 . S
C666 H660 0.950 . S
C666 C667 1.327 . S
C667 H661 0.950 . S
C667 C666 1.327 . S
C667 C671 1.429 . S
C668 C651 1.574 . S
C668 H662 0.949 . S
C668 C672 1.368 . S
C669 C650 1.429 . S
C669 C663 1.429 . S
C669 C670 1.523 . S
C670 C651 1.368 . S
C670 C664 1.368 . S
C670 C669 1.523 . S
C671 C655 1.429 . S
C671 C667 1.429 . S
C671 C672 1.523 . S
C672 C656 1.368 . S
C672 C668 1.368 . S
C672 C671 1.523 . S
H673 C648 0.950 . S
H674 C650 0.950 . S
H675 C651 0.949 . S
H676 C653 0.950 . S
H677 C655 0.950 . S
C678 C679 1.349 . S
C678 C680 1.327 . S
C678 H703 0.950 . S
C679 C678 1.349 . S
C679 C695 1.349 . S
C680 C678 1.327 . S
C680 C699 1.429 . S
C680 H704 0.950 . S
C681 C698 1.574 . S
C681 C700 1.368 . S
C681 H705 0.949 . S
H682 C686 0.949 . S
C683 C684 1.349 . S
C683 C685 1.327 . S
C683 H706 0.950 . S
C684 C683 1.349 . S
C684 C696 1.349 . S
C685 C683 1.327 . S
C685 C701 1.429 . S
C685 H707 0.950 . S
C686 H682 0.949 . S
C686 C694 1.574 . S
C686 C702 1.368 . S
H687 C695 0.950 1_556 S
H688 C693 0.950 . S
H689 C694 0.949 . S
H690 C696 0.950 . S
H691 C697 0.950 . S
H692 C698 0.949 . S
C693 H688 0.950 . S
C693 C695 1.327 . S
C693 C699 1.429 . S
C694 C686 1.574 . S
C694 H689 0.949 . S
C694 C700 1.368 . S
C695 C679 1.349 . S
C695 H687 0.950 1_554 S
C695 C693 1.327 . S
C696 C684 1.349 . S
C696 H690 0.950 . S
C696 C697 1.327 . S
C697 H691 0.950 . S
C697 C696 1.327 . S
C697 C701 1.429 . S
C698 C681 1.574 . S
C698 H692 0.949 . S
C698 C702 1.368 . S
C699 C680 1.429 . S
C699 C693 1.429 . S
C699 C700 1.523 . S
C700 C681 1.368 . S
C700 C694 1.368 . S
C700 C699 1.523 . S
C701 C685 1.429 . S
C701 C697 1.429 . S
C701 C702 1.523 . S
C702 C686 1.368 . S
C702 C698 1.368 . S
C702 C701 1.523 . S
H703 C678 0.950 . S
H704 C680 0.950 . S
H705 C681 0.949 . S
H706 C683 0.950 . S
H707 C685 0.950 . S
C708 C709 1.349 . S
C708 C710 1.327 . S
C708 H733 0.950 . S
C709 C708 1.349 . S
C709 C725 1.349 . S
C710 C708 1.327 . S
C710 C729 1.429 . S
C710 H734 0.950 . S
C711 C728 1.574 . S
C711 C730 1.368 . S
C711 H735 0.949 . S
H712 C716 0.949 . S
C713 C714 1.349 . S
C713 C715 1.327 . S
C713 H736 0.950 . S
C714 C713 1.349 . S
C714 C726 1.349 . S
C715 C713 1.327 . S
C715 C731 1.429 . S
C715 H737 0.950 . S
C716 H712 0.949 . S
C716 C724 1.574 . S
C716 C732 1.368 . S
H717 C725 0.950 . S
H718 C723 0.950 . S
H719 C724 0.949 . S
H720 C726 0.950 . S
H721 C727 0.950 . S
H722 C728 0.949 . S
C723 H718 0.950 . S
C723 C725 1.327 . S
C723 C729 1.429 . S
C724 C716 1.574 . S
C724 H719 0.949 . S
C724 C730 1.368 . S
C725 C709 1.349 . S
C725 H717 0.950 . S
C725 C723 1.327 . S
C726 C714 1.349 . S
C726 H720 0.950 . S
C726 C727 1.327 . S
C727 H721 0.950 . S
C727 C726 1.327 . S
C727 C731 1.429 . S
C728 C711 1.574 . S
C728 H722 0.949 . S
C728 C732 1.368 . S
C729 C710 1.429 . S
C729 C723 1.429 . S
C729 C730 1.523 . S
C730 C711 1.368 . S
C730 C724 1.368 . S
C730 C729 1.523 . S
C731 C715 1.429 . S
C731 C727 1.429 . S
C731 C732 1.523 . S
C732 C716 1.368 . S
C732 C728 1.368 . S
C732 C731 1.523 . S
H733 C708 0.950 . S
H734 C710 0.950 . S
H735 C711 0.949 . S
H736 C713 0.950 . S
H737 C715 0.950 . S
C738 C739 1.349 . S
C738 C740 1.327 . S
C738 H763 0.950 . S
C739 C738 1.349 . S
C739 C755 1.349 . S
C740 C738 1.327 . S
C740 C759 1.429 . S
C740 H764 0.950 . S
C741 C758 1.574 . S
C741 C760 1.368 . S
C741 H765 0.949 . S
H742 C746 0.949 . S
C743 C744 1.349 . S
C743 C745 1.327 . S
C743 H766 0.950 . S
C744 C743 1.349 . S
C744 C756 1.349 . S
C745 C743 1.327 . S
C745 C761 1.429 . S
C745 H767 0.950 . S
C746 H742 0.949 . S
C746 C754 1.574 . S
C746 C762 1.368 . S
H747 C755 0.950 . S
H748 C753 0.950 . S
H749 C754 0.949 . S
H750 C756 0.950 . S
H751 C757 0.950 . S
H752 C758 0.949 . S
C753 H748 0.950 . S
C753 C755 1.327 . S
C753 C759 1.429 . S
C754 C746 1.574 . S
C754 H749 0.949 . S
C754 C760 1.368 . S
C755 C739 1.349 . S
C755 H747 0.950 . S
C755 C753 1.327 . S
C756 C744 1.349 . S
C756 H750 0.950 . S
C756 C757 1.327 . S
C757 H751 0.950 . S
C757 C756 1.327 . S
C757 C761 1.429 . S
C758 C741 1.574 . S
C758 H752 0.949 . S
C758 C762 1.368 . S
C759 C740 1.429 . S
C759 C753 1.429 . S
C759 C760 1.523 . S
C760 C741 1.368 . S
C760 C754 1.368 . S
C760 C759 1.523 . S
C761 C745 1.429 . S
C761 C757 1.429 . S
C761 C762 1.523 . S
C762 C746 1.368 . S
C762 C758 1.368 . S
C762 C761 1.523 . S
H763 C738 0.950 . S
H764 C740 0.950 . S
H765 C741 0.949 . S
H766 C743 0.950 . S
H767 C745 0.950 . S
C768 C769 1.349 1_554 S
C768 C770 1.327 . S
C768 H793 0.950 . S
C769 C768 1.349 1_556 S
C769 C785 1.349 . S
C770 C768 1.327 . S
C770 C789 1.429 1_554 S
C770 H794 0.950 . S
C771 C788 1.574 . S
C771 C790 1.368 . S
C771 H795 0.949 . S
H772 C776 0.949 . S
C773 C774 1.349 1_556 S
C773 C775 1.327 . S
C773 H796 0.950 . S
C774 C773 1.349 1_554 S
C774 C786 1.349 . S
C775 C773 1.327 . S
C775 C791 1.429 1_556 S
C775 H797 0.950 . S
C776 H772 0.949 . S
C776 C784 1.574 . S
C776 C792 1.368 . S
H777 C785 0.950 . S
H778 C783 0.950 . S
H779 C784 0.949 . S
H780 C786 0.950 . S
H781 C787 0.950 . S
H782 C788 0.949 . S
C783 H778 0.950 . S
C783 C785 1.327 . S
C783 C789 1.429 . S
C784 C776 1.574 . S
C784 H779 0.949 . S
C784 C790 1.368 1_554 S
C785 C769 1.349 . S
C785 H777 0.950 . S
C785 C783 1.327 . S
C786 C774 1.349 . S
C786 H780 0.950 . S
C786 C787 1.327 . S
C787 H781 0.950 . S
C787 C786 1.327 . S
C787 C791 1.429 . S
C788 C771 1.574 . S
C788 H782 0.949 . S
C788 C792 1.368 1_556 S
C789 C770 1.429 1_556 S
C789 C783 1.429 . S
C789 C790 1.523 . S
C790 C771 1.368 . S
C790 C784 1.368 1_556 S
C790 C789 1.523 . S
C791 C775 1.429 1_554 S
C791 C787 1.429 . S
C791 C792 1.523 . S
C792 C776 1.368 . S
C792 C788 1.368 1_554 S
C792 C791 1.523 . S
H793 C768 0.950 . S
H794 C770 0.950 . S
H795 C771 0.949 . S
H796 C773 0.950 . S
H797 C775 0.950 . S
C798 C799 1.349 . S
C798 C800 1.327 . S
C798 H823 0.950 . S
C799 C798 1.349 . S
C799 C815 1.349 . S
C800 C798 1.327 . S
C800 C819 1.429 . S
C800 H824 0.950 . S
C801 C818 1.574 . S
C801 C820 1.368 . S
C801 H825 0.949 . S
H802 C806 0.949 . S
C803 C804 1.349 . S
C803 C805 1.327 . S
C803 H826 0.950 . S
C804 C803 1.349 . S
C804 C816 1.349 . S
C805 C803 1.327 . S
C805 C821 1.429 . S
C805 H827 0.950 . S
C806 H802 0.949 . S
C806 C814 1.574 . S
C806 C822 1.368 . S
H807 C815 0.950 . S
H808 C813 0.950 . S
H809 C814 0.949 . S
H810 C816 0.950 . S
H811 C817 0.950 . S
H812 C818 0.949 . S
C813 H808 0.950 . S
C813 C815 1.327 . S
C813 C819 1.429 . S
C814 C806 1.574 . S
C814 H809 0.949 . S
C814 C820 1.368 . S
C815 C799 1.349 . S
C815 H807 0.950 . S
C815 C813 1.327 . S
C816 C804 1.349 . S
C816 H810 0.950 . S
C816 C817 1.327 . S
C817 H811 0.950 . S
C817 C816 1.327 . S
C817 C821 1.429 . S
C818 C801 1.574 . S
C818 H812 0.949 . S
C818 C822 1.368 . S
C819 C800 1.429 . S
C819 C813 1.429 . S
C819 C820 1.523 . S
C820 C801 1.368 . S
C820 C814 1.368 . S
C820 C819 1.523 . S
C821 C805 1.429 . S
C821 C817 1.429 . S
C821 C822 1.523 . S
C822 C806 1.368 . S
C822 C818 1.368 . S
C822 C821 1.523 . S
H823 C798 0.950 . S
H824 C800 0.950 . S
H825 C801 0.949 . S
H826 C803 0.950 . S
H827 C805 0.950 . S
C828 C829 1.349 . S
C828 C830 1.327 . S
C828 H853 0.950 . S
C829 C828 1.349 . S
C829 C845 1.349 . S
C830 C828 1.327 . S
C830 C849 1.429 . S
C830 H854 0.950 . S
C831 C848 1.574 . S
C831 C850 1.368 . S
C831 H855 0.949 . S
H832 C836 0.949 . S
C833 C834 1.349 . S
C833 C835 1.327 . S
C833 H856 0.950 . S
C834 C833 1.349 . S
C834 C846 1.349 . S
C835 C833 1.327 . S
C835 C851 1.429 . S
C835 H857 0.950 . S
C836 H832 0.949 . S
C836 C844 1.574 . S
C836 C852 1.368 . S
H837 C845 0.950 . S
H838 C843 0.950 . S
H839 C844 0.949 . S
H840 C846 0.950 . S
H841 C847 0.950 . S
H842 C848 0.949 . S
C843 H838 0.950 . S
C843 C845 1.327 . S
C843 C849 1.429 . S
C844 C836 1.574 . S
C844 H839 0.949 . S
C844 C850 1.368 . S
C845 C829 1.349 . S
C845 H837 0.950 . S
C845 C843 1.327 . S
C846 C834 1.349 . S
C846 H840 0.950 . S
C846 C847 1.327 . S
C847 H841 0.950 . S
C847 C846 1.327 . S
C847 C851 1.429 . S
C848 C831 1.574 . S
C848 H842 0.949 . S
C848 C852 1.368 . S
C849 C830 1.429 . S
C849 C843 1.429 . S
C849 C850 1.523 . S
C850 C831 1.368 . S
C850 C844 1.368 . S
C850 C849 1.523 . S
C851 C835 1.429 . S
C851 C847 1.429 . S
C851 C852 1.523 . S
C852 C836 1.368 . S
C852 C848 1.368 . S
C852 C851 1.523 . S
H853 C828 0.950 . S
H854 C830 0.950 . S
H855 C831 0.949 . S
H856 C833 0.950 . S
H857 C835 0.950 . S
C858 C859 1.349 . S
C858 C860 1.327 . S
C858 H883 0.950 . S
C859 C858 1.349 . S
C859 C875 1.349 1_554 S
C860 C858 1.327 . S
C860 C879 1.429 . S
C860 H884 0.950 . S
C861 C878 1.574 . S
C861 C880 1.368 1_556 S
C861 H885 0.949 . S
H862 C866 0.949 . S
C863 C864 1.349 . S
C863 C865 1.327 . S
C863 H886 0.950 . S
C864 C863 1.349 . S
C864 C876 1.349 1_556 S
C865 C863 1.327 . S
C865 C881 1.429 . S
C865 H887 0.950 . S
C866 H862 0.949 . S
C866 C874 1.574 . S
C866 C882 1.368 1_554 S
H867 C875 0.950 . S
H868 C873 0.950 . S
H869 C874 0.949 . S
H870 C876 0.950 . S
H871 C877 0.950 . S
H872 C878 0.949 . S
C873 H868 0.950 . S
C873 C875 1.327 . S
C873 C879 1.429 1_556 S
C874 C866 1.574 . S
C874 H869 0.949 . S
C874 C880 1.368 . S
C875 C859 1.349 1_556 S
C875 H867 0.950 . S
C875 C873 1.327 . S
C876 C864 1.349 1_554 S
C876 H870 0.950 . S
C876 C877 1.327 . S
C877 H871 0.950 . S
C877 C876 1.327 . S
C877 C881 1.429 1_554 S
C878 C861 1.574 . S
C878 H872 0.949 . S
C878 C882 1.368 . S
C879 C860 1.429 . S
C879 C873 1.429 1_554 S
C879 C880 1.523 . S
C880 C861 1.368 1_554 S
C880 C874 1.368 . S
C880 C879 1.523 . S
C881 C865 1.429 . S
C881 C877 1.429 1_556 S
C881 C882 1.523 . S
C882 C866 1.368 1_556 S
C882 C878 1.368 . S
C882 C881 1.523 . S
H883 C858 0.950 . S
H884 C860 0.950 . S
H885 C861 0.949 . S
H886 C863 0.950 . S
H887 C865 0.950 . S
C169 C7 1.454 . S
C174 C133 1.454 . S
C199 C21 1.454 . S
C204 C147 1.454 . S
C229 C35 1.454 . S
C234 C161 1.454 . S
C259 C49 1.454 . S
C264 C91 1.454 . S
C289 C105 1.454 . S
C294 C63 1.454 . S
C319 C119 1.454 . S
C324 C77 1.454 . S
C349 C146 1.541 . S
C354 C6 1.541 . S
C379 C20 1.541 . S
C384 C160 1.541 . S
C409 C34 1.541 . S
C414 C90 1.541 . S
C439 C48 1.541 . S
C444 C104 1.541 . S
C469 C62 1.541 . S
C474 C118 1.541 . S
C499 C76 1.541 . S
C504 C132 1.541 . S
C529 C148 1.391 . S
C534 C8 1.391 . S
C559 C22 1.391 . S
C564 C162 1.391 1_556 S
C589 C36 1.391 1_554 S
C594 C92 1.391 . S
C619 C50 1.391 . S
C624 C106 1.391 . S
C649 C64 1.391 . S
C654 C120 1.391 1_556 S
C679 C78 1.391 1_554 S
C684 C134 1.391 . S
C709 C9 1.609 . S
C714 C93 1.609 . S
C739 C107 1.609 . S
C744 C23 1.609 . S
C769 C37 1.609 . S
C774 C121 1.609 . S
C799 C51 1.609 . S
C804 C135 1.609 . S
C829 C65 1.609 . S
C834 C149 1.609 . S
C859 C163 1.609 . S
C864 C79 1.609 . S
