# Generated by pormake.
# Topology irl, (4)-cn, num edge types: 1
# Building blocks:
#     Node 0, Type 0, BuildingBlock: ICAMEG_clean_sbu_1, # of connection points: 4
#     Node 1, Type 0, BuildingBlock: ICAMEG_clean_sbu_1, # of connection points: 4
#     Node 2, Type 0, BuildingBlock: ICAMEG_clean_sbu_1, # of connection points: 4
#     Node 3, Type 0, BuildingBlock: ICAMEG_clean_sbu_1, # of connection points: 4
#     Node 4, Type 0, BuildingBlock: ICAMEG_clean_sbu_1, # of connection points: 4
#     Node 5, Type 0, BuildingBlock: ICAMEG_clean_sbu_1, # of connection points: 4
#     Node 6, Type 0, BuildingBlock: ICAMEG_clean_sbu_1, # of connection points: 4
#     Node 7, Type 0, BuildingBlock: ICAMEG_clean_sbu_1, # of connection points: 4
#     Edge 8, Type (0, 0), BuildingBlock: AJUNOK_clean_linker_0, # of connection points: 2
#     Edge 9, Type (0, 0), BuildingBlock: AJUNOK_clean_linker_0, # of connection points: 2
#     Edge 10, Type (0, 0), BuildingBlock: AJUNOK_clean_linker_0, # of connection points: 2
#     Edge 11, Type (0, 0), BuildingBlock: AJUNOK_clean_linker_0, # of connection points: 2
#     Edge 12, Type (0, 0), BuildingBlock: AJUNOK_clean_linker_0, # of connection points: 2
#     Edge 13, Type (0, 0), BuildingBlock: AJUNOK_clean_linker_0, # of connection points: 2
#     Edge 14, Type (0, 0), BuildingBlock: AJUNOK_clean_linker_0, # of connection points: 2
#     Edge 15, Type (0, 0), BuildingBlock: AJUNOK_clean_linker_0, # of connection points: 2
#     Edge 16, Type (0, 0), BuildingBlock: AJUNOK_clean_linker_0, # of connection points: 2
#     Edge 17, Type (0, 0), BuildingBlock: AJUNOK_clean_linker_0, # of connection points: 2
#     Edge 18, Type (0, 0), BuildingBlock: AJUNOK_clean_linker_0, # of connection points: 2
#     Edge 19, Type (0, 0), BuildingBlock: AJUNOK_clean_linker_0, # of connection points: 2
#     Edge 20, Type (0, 0), BuildingBlock: AJUNOK_clean_linker_0, # of connection points: 2
#     Edge 21, Type (0, 0), BuildingBlock: AJUNOK_clean_linker_0, # of connection points: 2
#     Edge 22, Type (0, 0), BuildingBlock: AJUNOK_clean_linker_0, # of connection points: 2
#     Edge 23, Type (0, 0), BuildingBlock: AJUNOK_clean_linker_0, # of connection points: 2
# Relax obj value: 0.026
# Max RMSD: 0.073
# Mean RMSD: 0.073
data_MOF--net-irl--node1-ICAMEG_clean_sbu_1--edge1-AJUNOK_clean_linker_0
_symmetry_space_group_name_H-M    P1
_symmetry_Int_Tables_number       1
_symmetry_cell_setting            triclinic
loop_
_symmetry_equiv_pos_as_xyz
'x, y, z'
_cell_length_a     26.136567
_cell_length_b     36.896548
_cell_length_c     22.645291
_cell_angle_alpha  89.997952
_cell_angle_beta   90.006185
_cell_angle_gamma 90.027336
loop_
_atom_site_label
_atom_site_type_symbol
_atom_site_fract_x
_atom_site_fract_y
_atom_site_fract_z
_atom_type_partial_charge
Co0 Co 0.0091 0.15616 1.0028 0.0
Co1 Co 0.12437 0.12676 0.05879 0.0
O2 O 0.08419 0.15605 1.00322 0.0
C3 C 0.03443 0.14043 0.87829 0.0
O4 O 0.06979 0.11815 0.8976 0.0
C5 C 0.17078 0.20013 0.07098 0.0
O6 O 0.12424 0.21303 0.07703 0.0
O7 O 0.08642 0.14787 0.12705 0.0
O8 O 0.00681 0.15294 0.09109 0.0
H9 H 0.14887 0.04577 0.23498 0.0
H10 H 0.06527 0.21376 0.93918 0.0
O11 O 0.00808 0.15904 0.91451 0.0
H12 H 0.96074 0.27765 0.08756 0.0
H13 H 0.83528 0.19775 0.93479 0.0
H14 H 0.92922 0.11301 0.06357 0.0
H15 H 0.95677 0.21111 0.07863 0.0
H16 H 0.92964 0.19827 0.93757 0.0
O17 O 0.17729 0.16622 0.06382 0.0
H18 H 0.09922 0.08189 0.16346 0.0
H19 H 0.23562 0.11038 0.07278 0.0
H20 H 0.83489 0.11171 0.06244 0.0
H21 H 0.07014 0.28043 0.9462 0.0
H22 H 0.78727 0.15436 0.99778 0.0
H23 H 0.0177 0.31278 0.02094 0.0
O24 O 0.00785 0.1025 0.99696 0.0
H25 H 0.21862 0.13156 0.86553 0.0
H26 H 0.15096 0.05141 0.02133 0.0
H27 H 0.19362 0.02465 0.93464 0.0
H28 H 0.22786 0.06483 0.85597 0.0
H29 H 0.175 0.15719 0.95262 0.0
H30 H 0.28683 0.07486 0.1436 0.0
H31 H 0.24337 0.04209 0.22531 0.0
O32 O 0.07383 0.08605 0.05475 0.0
C33 C 0.03837 0.15266 0.13408 0.0
C34 C 0.16824 0.0599 0.19954 0.0
C35 C 0.24567 0.07626 0.14832 0.0
N36 N 0.1645 0.09825 0.11396 0.0
C37 C 0.14033 0.08036 0.15886 0.0
C38 C 0.21651 0.09648 0.10848 0.0
C39 C 0.22127 0.05787 0.19412 0.0
C40 C 0.04204 0.22771 0.97146 0.0
N41 N 0.01068 0.2086 0.00833 0.0
C42 C 0.04509 0.26543 0.97538 0.0
C43 C 0.01571 0.28356 0.01739 0.0
C44 C 0.98378 0.26387 0.05481 0.0
C45 C 0.9818 0.22618 0.04968 0.0
C46 C 0.85558 0.17916 0.96337 0.0
C47 C 0.90876 0.1318 0.03558 0.0
C48 C 0.909 0.17934 0.96515 0.0
N49 N 0.93488 0.1561 1.00145 0.0
C50 C 0.85535 0.13087 0.035 0.0
C51 C 0.82867 0.15479 0.99869 0.0
C52 C 0.03378 0.07891 0.02489 0.0
C53 C 0.20403 0.11379 0.89963 0.0
C54 C 0.16565 0.0691 0.98728 0.0
C55 C 0.18991 0.05378 0.93834 0.0
C56 C 0.20913 0.07633 0.89424 0.0
N57 N 0.16061 0.10587 0.99215 0.0
C58 C 0.17953 0.12815 0.94919 0.0
Co59 Co 1.00125 0.85111 1.00371 0.0
Co60 Co 0.88533 0.8781 0.06049 0.0
O61 O 0.92616 0.84962 1.0044 0.0
C62 C 0.9756 0.86638 0.87893 0.0
O63 O 0.93834 0.88728 0.89755 0.0
C64 C 0.84027 0.80402 0.07162 0.0
O65 O 0.88695 0.79124 0.07692 0.0
O66 O 0.92405 0.8571 0.12817 0.0
O67 O 1.00381 0.85452 0.09209 0.0
H68 H 0.85957 0.95783 0.23793 0.0
H69 H 0.94773 0.79223 0.94029 0.0
O70 O 1.00234 0.84824 0.91541 0.0
H71 H 0.0551 0.73089 0.08886 0.0
H72 H 0.17648 0.81349 0.93447 0.0
H73 H 0.07944 0.89647 0.06319 0.0
H74 H 0.056 0.79749 0.07982 0.0
H75 H 0.08229 0.8104 0.93874 0.0
O76 O 0.83342 0.83796 0.0653 0.0
H77 H 0.90974 0.9225 0.1659 0.0
H78 H 0.77376 0.8933 0.07501 0.0
H79 H 0.17361 0.90035 0.06058 0.0
H80 H 0.94594 0.72548 0.94742 0.0
H81 H 0.22279 0.85863 0.99588 0.0
H82 H 0.99984 0.69441 0.02226 0.0
O83 O 1.00004 0.9047 0.99752 0.0
H84 H 0.78843 0.87275 0.86904 0.0
H85 H 0.8566 0.95327 0.02406 0.0
H86 H 0.81117 0.97971 0.93896 0.0
H87 H 0.77656 0.93934 0.86077 0.0
H88 H 0.83478 0.84746 0.95449 0.0
H89 H 0.722 0.92794 0.14642 0.0
H90 H 0.76499 0.96071 0.22847 0.0
O91 O 0.93472 0.91958 0.05682 0.0
C92 C 0.97232 0.85367 0.13514 0.0
C93 C 0.8404 0.94369 0.20237 0.0
C94 C 0.76319 0.92687 0.15107 0.0
N95 N 0.8447 0.9058 0.11627 0.0
C96 C 0.8686 0.92367 0.16139 0.0
C97 C 0.79266 0.90713 0.11091 0.0
C98 C 0.78733 0.94527 0.19706 0.0
C99 C 0.97156 0.77883 0.97261 0.0
N100 N 1.00202 0.79868 0.00945 0.0
C101 C 0.97027 0.74107 0.9766 0.0
C102 C 1.00047 0.72366 0.01866 0.0
C103 C 0.03145 0.74411 0.05607 0.0
C104 C 0.03168 0.78183 0.05088 0.0
C105 C 0.15551 0.83167 0.96311 0.0
C106 C 0.1006 0.87803 0.03529 0.0
C107 C 0.10218 0.83001 0.96579 0.0
N108 N 0.07544 0.85282 1.00197 0.0
C109 C 0.15391 0.88043 0.03385 0.0
C110 C 0.18147 0.85703 0.99752 0.0
C111 C 0.9738 0.9279 0.02598 0.0
C112 C 0.8032 0.89061 0.90292 0.0
C113 C 0.84195 0.93551 0.99007 0.0
C114 C 0.81608 0.95064 0.94208 0.0
C115 C 0.79663 0.92798 0.89825 0.0
N116 N 0.84821 0.89881 0.99437 0.0
C117 C 0.82927 0.87643 0.95155 0.0
Co118 Co 0.01199 0.84939 0.50638 0.0
Co119 Co 0.13151 0.88057 0.46211 0.0
O120 O 0.08715 0.85008 0.51142 0.0
C121 C 0.03197 0.86865 0.63092 0.0
O122 O 0.06832 0.89021 0.61177 0.0
C123 C 0.1727 0.80597 0.44152 0.0
O124 O 0.12546 0.79407 0.43751 0.0
O125 O 0.09375 0.86576 0.38907 0.0
O126 O 0.01497 0.84962 0.41856 0.0
H127 H 0.16623 0.97069 0.3007 0.0
H128 H 0.06534 0.79469 0.5796 0.0
O129 O 0.00631 0.84953 0.59469 0.0
H130 H 0.97154 0.72472 0.42885 0.0
H131 H 0.83569 0.80835 0.56633 0.0
H132 H 0.93477 0.88748 0.43321 0.0
H133 H 0.96581 0.79143 0.43144 0.0
H134 H 0.92998 0.80943 0.57093 0.0
O135 O 0.18107 0.83948 0.45092 0.0
H136 H 0.1123 0.93291 0.36559 0.0
H137 H 0.24438 0.89304 0.45319 0.0
H138 H 0.84058 0.88705 0.42677 0.0
H139 H 0.0719 0.72797 0.57888 0.0
H140 H 0.79038 0.84725 0.49368 0.0
H141 H 0.02486 0.69256 0.503 0.0
O142 O 0.00835 0.90333 0.5066 0.0
H143 H 0.21691 0.85796 0.65741 0.0
H144 H 0.17061 0.95071 0.51013 0.0
H145 H 0.21461 0.96917 0.60174 0.0
H146 H 0.23798 0.92258 0.67621 0.0
H147 H 0.17239 0.84083 0.56549 0.0
H148 H 0.29985 0.92993 0.38873 0.0
H149 H 0.26073 0.96926 0.31196 0.0
O150 O 0.08469 0.92289 0.47326 0.0
C151 C 0.04795 0.85559 0.3783 0.0
C152 C 0.18373 0.95365 0.33397 0.0
C153 C 0.25873 0.93073 0.38328 0.0
N154 N 0.1752 0.91065 0.41297 0.0
C155 C 0.1534 0.93225 0.37091 0.0
C156 C 0.22717 0.90969 0.4194 0.0
C157 C 0.23676 0.95281 0.34027 0.0
C158 C 0.04442 0.77942 0.5468 0.0
N159 N 0.01503 0.79689 0.50584 0.0
C160 C 0.04843 0.74167 0.54645 0.0
C161 C 0.02208 0.72182 0.50381 0.0
C162 C 0.99218 0.73985 0.46217 0.0
C163 C 0.98916 0.77763 0.46379 0.0
C164 C 0.85714 0.82573 0.53684 0.0
C165 C 0.91321 0.86993 0.46221 0.0
C166 C 0.91053 0.8265 0.5393 0.0
N167 N 0.93787 0.84826 0.502 0.0
C168 C 0.85988 0.86987 0.45848 0.0
C169 C 0.83174 0.84757 0.49607 0.0
C170 C 0.0392 0.92844 0.49153 0.0
C171 C 0.20684 0.87852 0.62538 0.0
C172 C 0.18025 0.93038 0.5426 0.0
C173 C 0.20543 0.94094 0.59422 0.0
C174 C 0.21861 0.91479 0.63592 0.0
N175 N 0.16838 0.89483 0.53282 0.0
C176 C 0.18167 0.86898 0.57322 0.0
Co177 Co 0.99639 0.1569 0.50545 0.0
Co178 Co 0.87832 0.12616 0.45823 0.0
O179 O 0.92129 0.15651 0.50949 0.0
C180 C 0.97629 0.14057 0.63101 0.0
O181 O 0.93899 0.11925 0.61374 0.0
C182 C 0.83354 0.19979 0.44193 0.0
O183 O 0.88026 0.21203 0.43417 0.0
O184 O 0.91422 0.14452 0.38648 0.0
O185 O 0.9946 0.15425 0.41741 0.0
H186 H 0.84569 0.04055 0.28983 0.0
H187 H 0.94303 0.21392 0.57351 0.0
O188 O 1.00147 0.15912 0.59362 0.0
H189 H 0.03995 0.27898 0.4196 0.0
H190 H 0.17281 0.19753 0.56576 0.0
H191 H 0.07363 0.11551 0.4374 0.0
H192 H 0.04451 0.21237 0.42709 0.0
H193 H 0.07845 0.19829 0.56761 0.0
O194 O 0.8264 0.16619 0.45184 0.0
H195 H 0.89866 0.078 0.35622 0.0
H196 H 0.76632 0.11056 0.45102 0.0
H197 H 0.16792 0.11406 0.43377 0.0
H198 H 0.93761 0.28063 0.56788 0.0
H199 H 0.21816 0.15525 0.49835 0.0
H200 H 0.98625 0.31356 0.4904 0.0
O201 O 0.9987 0.10326 0.51032 0.0
H202 H 0.7894 0.13903 0.65378 0.0
H203 H 0.85064 0.0526 0.50352 0.0
H204 H 0.8087 0.02957 0.59351 0.0
H205 H 0.77762 0.07292 0.66936 0.0
H206 H 0.83215 0.1609 0.56345 0.0
H207 H 0.71178 0.07382 0.38529 0.0
H208 H 0.75153 0.03833 0.30411 0.0
O209 O 0.9277 0.08486 0.46375 0.0
C210 C 0.96128 0.15155 0.37654 0.0
C211 C 0.82792 0.05588 0.32504 0.0
C212 C 0.75277 0.07459 0.37855 0.0
N213 N 0.83558 0.09652 0.40741 0.0
C214 C 0.85772 0.0771 0.36282 0.0
C215 C 0.78379 0.09551 0.41547 0.0
C216 C 0.77509 0.05467 0.33305 0.0
C217 C 0.9646 0.22814 0.54 0.0
N218 N 0.9942 0.20934 0.50087 0.0
C219 C 0.96125 0.26587 0.53689 0.0
C220 C 0.9885 0.28433 0.49334 0.0
C221 C 0.01861 0.26494 0.45358 0.0
C222 C 0.02095 0.22722 0.45796 0.0
C223 C 0.15134 0.17955 0.53724 0.0
C224 C 0.09523 0.13377 0.4652 0.0
C225 C 0.09791 0.17985 0.5381 0.0
N226 N 0.07056 0.15724 0.50216 0.0
C227 C 0.14861 0.13273 0.46313 0.0
C228 C 0.17677 0.15581 0.49942 0.0
C229 C 0.9706 0.07847 0.48843 0.0
C230 C 0.80264 0.11988 0.62097 0.0
C231 C 0.83748 0.07165 0.53642 0.0
C232 C 0.81359 0.05844 0.58722 0.0
C233 C 0.79612 0.08278 0.62973 0.0
N234 N 0.8437 0.10809 0.52812 0.0
C235 C 0.82665 0.13211 0.5696 0.0
Co236 Co 0.50815 0.66033 0.00878 0.0
Co237 Co 0.62728 0.6283 0.0522 0.0
O238 O 0.58299 0.65841 1.00267 0.0
C239 C 0.52709 0.63879 0.88493 0.0
O240 O 0.56302 0.61717 0.90483 0.0
C241 C 0.66728 0.70289 0.07041 0.0
O242 O 0.61966 0.71357 0.07648 0.0
O243 O 0.59041 0.64373 0.1254 0.0
O244 O 0.51214 0.66155 0.09667 0.0
H245 H 0.66388 0.53836 0.21328 0.0
H246 H 0.56272 0.71281 0.93232 0.0
O247 O 0.50181 0.65863 0.92048 0.0
H248 H 0.47339 0.78694 0.08127 0.0
H249 H 0.33291 0.70208 0.9462 0.0
H250 H 0.43012 0.62757 0.08765 0.0
H251 H 0.46466 0.72036 0.08134 0.0
H252 H 0.42706 0.69918 0.94106 0.0
O253 O 0.67694 0.66952 0.06148 0.0
H254 H 0.60908 0.57578 0.14887 0.0
H255 H 0.74028 0.61762 0.06163 0.0
H256 H 0.33606 0.62971 0.09463 0.0
H257 H 0.5723 0.77934 0.93043 0.0
H258 H 0.28675 0.66721 0.02346 0.0
H259 H 0.5276 0.81684 1.00545 0.0
O260 O 0.50294 0.60632 0.01146 0.0
H261 H 0.71328 0.64822 0.85643 0.0
H262 H 0.66125 0.55703 1.00387 0.0
H263 H 0.70382 0.5372 0.91219 0.0
H264 H 0.73015 0.58299 0.8377 0.0
H265 H 0.66997 0.66678 0.94837 0.0
H266 H 0.79652 0.58082 0.12534 0.0
H267 H 0.75832 0.54075 0.20171 0.0
O268 O 0.57968 0.5863 0.04301 0.0
C269 C 0.54515 0.65484 0.13664 0.0
C270 C 0.68097 0.55562 0.18003 0.0
C271 C 0.75541 0.5795 0.13073 0.0
N272 N 0.67143 0.59865 0.10127 0.0
C273 C 0.65014 0.57678 0.14332 0.0
C274 C 0.72338 0.60032 0.09486 0.0
C275 C 0.73396 0.55701 0.17356 0.0
C276 C 0.5427 0.729 0.96469 0.0
N277 N 0.51295 0.71276 1.00666 0.0
C278 C 0.54842 0.76663 0.96354 0.0
C279 C 0.52339 0.78765 1.00571 0.0
C280 C 0.49301 0.77089 0.0483 0.0
C281 C 0.48825 0.73318 0.04816 0.0
C282 C 0.35394 0.68557 0.97737 0.0
C283 C 0.40896 0.64382 0.05651 0.0
C284 C 0.40726 0.6837 0.97454 0.0
N285 N 0.43409 0.66298 0.01385 0.0
C286 C 0.35569 0.64499 0.06069 0.0
C287 C 0.32806 0.66602 0.02075 0.0
C288 C 0.53359 0.58101 0.02663 0.0
C289 C 0.70207 0.62802 0.8886 0.0
C290 C 0.67235 0.57707 0.97152 0.0
C291 C 0.69662 0.56571 0.9198 0.0
C292 C 0.71145 0.59141 0.87807 0.0
N293 N 0.66308 0.61301 0.98142 0.0
C294 C 0.67769 0.63838 0.94081 0.0
Co295 Co 0.49998 0.35296 1.00459 0.0
Co296 Co 0.38063 0.37734 0.05689 0.0
O297 O 0.42508 0.34992 1.00342 0.0
C298 C 0.47401 0.36959 0.88063 0.0
O299 O 0.43665 0.38992 0.90059 0.0
C300 C 0.34359 0.30136 0.0705 0.0
O301 O 0.39148 0.29096 0.07473 0.0
O302 O 0.42043 0.36033 0.12705 0.0
O303 O 0.50053 0.35428 0.09277 0.0
H304 H 0.34349 0.46072 0.22696 0.0
H305 H 0.44912 0.29478 0.93637 0.0
O306 O 0.50233 0.35204 0.91625 0.0
H307 H 0.5551 0.23159 0.08417 0.0
H308 H 0.67754 0.31933 0.9379 0.0
H309 H 0.57573 0.39764 0.06947 0.0
H310 H 0.55502 0.29833 0.07845 0.0
H311 H 0.58332 0.31531 0.93872 0.0
O312 O 0.33314 0.3348 0.06403 0.0
H313 H 0.39849 0.42609 0.15881 0.0
H314 H 0.26744 0.3856 0.06959 0.0
H315 H 0.66984 0.40245 0.07029 0.0
H316 H 0.44829 0.22795 0.94025 0.0
H317 H 0.72142 0.36303 1.00425 0.0
H318 H 0.5014 0.19593 0.01473 0.0
O319 O 0.49765 0.40686 1.00224 0.0
H320 H 0.29039 0.36084 0.86284 0.0
H321 H 0.34181 0.44916 0.0149 0.0
H322 H 0.2959 0.47038 0.92638 0.0
H323 H 0.26981 0.42603 0.84952 0.0
H324 H 0.33703 0.34092 0.95174 0.0
H325 H 0.21099 0.41952 0.13713 0.0
H326 H 0.24901 0.4576 0.21629 0.0
O327 O 0.42563 0.42109 0.05067 0.0
C328 C 0.46834 0.35526 0.13504 0.0
C329 C 0.32646 0.44431 0.19254 0.0
C330 C 0.25211 0.42118 0.14214 0.0
N331 N 0.33623 0.40414 0.10989 0.0
C332 C 0.35741 0.4247 0.15374 0.0
C333 C 0.28426 0.40197 0.1041 0.0
C334 C 0.27346 0.44253 0.18654 0.0
C335 C 0.47274 0.28101 0.96848 0.0
N336 N 0.5022 0.30042 1.00701 0.0
C337 C 0.47196 0.24318 0.97062 0.0
C338 C 0.5017 0.22523 0.01249 0.0
C339 C 0.5318 0.24522 0.05151 0.0
C340 C 0.53151 0.28302 0.04817 0.0
C341 C 0.6555 0.33652 0.9671 0.0
C342 C 0.59793 0.38025 0.04085 0.0
C343 C 0.60215 0.33435 0.96778 0.0
N344 N 0.5741 0.3558 1.00483 0.0
C345 C 0.6512 0.38317 0.04139 0.0
C346 C 0.6801 0.36106 1.00431 0.0
C347 C 0.46775 0.42991 0.02612 0.0
C348 C 0.30149 0.38042 0.89605 0.0
C349 C 0.33098 0.42978 0.98156 0.0
C350 C 0.30474 0.44191 0.9316 0.0
C351 C 0.29003 0.41701 0.88855 0.0
N352 N 0.34226 0.39388 0.98854 0.0
C353 C 0.32774 0.36929 0.94662 0.0
Co354 Co 0.50557 0.34877 0.50697 0.0
Co355 Co 0.62611 0.37797 0.46299 0.0
O356 O 0.58063 0.34846 0.51235 0.0
C357 C 0.52587 0.368 0.63146 0.0
O358 O 0.56408 0.38804 0.61282 0.0
C359 C 0.66272 0.30257 0.44264 0.0
O360 O 0.61474 0.2926 0.4371 0.0
O361 O 0.58773 0.36414 0.39001 0.0
O362 O 0.50854 0.34882 0.41915 0.0
H363 H 0.66499 0.46874 0.30388 0.0
H364 H 0.55739 0.29356 0.58063 0.0
O365 O 0.49969 0.34927 0.59518 0.0
H366 H 0.46333 0.22448 0.42904 0.0
H367 H 0.32825 0.31015 0.56697 0.0
H368 H 0.42939 0.38817 0.43416 0.0
H369 H 0.45817 0.29121 0.43214 0.0
H370 H 0.42255 0.30969 0.57111 0.0
O371 O 0.67352 0.33571 0.45198 0.0
H372 H 0.6093 0.43212 0.36854 0.0
H373 H 0.7396 0.38549 0.45091 0.0
H374 H 0.33518 0.38923 0.42809 0.0
H375 H 0.56341 0.22682 0.57934 0.0
H376 H 0.28395 0.35003 0.49489 0.0
H377 H 0.51633 0.19186 0.50296 0.0
O378 O 0.50365 0.40273 0.50688 0.0
H379 H 0.71159 0.35397 0.65785 0.0
H380 H 0.66811 0.4473 0.51037 0.0
H381 H 0.71372 0.46503 0.60128 0.0
H382 H 0.73573 0.41815 0.67583 0.0
H383 H 0.66562 0.33755 0.56652 0.0
H384 H 0.79669 0.42137 0.3868 0.0
H385 H 0.75941 0.46346 0.31279 0.0
O386 O 0.58092 0.42118 0.47438 0.0
C387 C 0.54171 0.35459 0.37906 0.0
C388 C 0.68169 0.45059 0.3361 0.0
C389 C 0.7556 0.42395 0.38257 0.0
N390 N 0.67115 0.40691 0.41376 0.0
C391 C 0.65036 0.42988 0.37297 0.0
C392 C 0.72308 0.40363 0.41864 0.0
C393 C 0.73466 0.44758 0.34107 0.0
C394 C 0.53633 0.27848 0.5477 0.0
N395 N 0.50726 0.29622 0.50674 0.0
C396 C 0.54005 0.24072 0.54703 0.0
C397 C 0.51368 0.22112 0.5041 0.0
C398 C 0.48398 0.23941 0.46258 0.0
C399 C 0.48126 0.2772 0.46451 0.0
C400 C 0.35014 0.32726 0.5375 0.0
C401 C 0.40737 0.37083 0.46303 0.0
C402 C 0.40354 0.32715 0.53967 0.0
N403 N 0.43145 0.34864 0.50251 0.0
C404 C 0.35403 0.37163 0.45953 0.0
C405 C 0.32531 0.34965 0.49706 0.0
C406 C 0.53544 0.42737 0.49226 0.0
C407 C 0.70215 0.37465 0.62577 0.0
C408 C 0.67723 0.42683 0.54283 0.0
C409 C 0.70327 0.43699 0.59408 0.0
C410 C 0.71565 0.41067 0.63584 0.0
N411 N 0.66377 0.39152 0.53345 0.0
C412 C 0.67618 0.36551 0.57394 0.0
Co413 Co 0.49967 0.65593 0.51153 0.0
Co414 Co 0.38292 0.62837 0.45612 0.0
O415 O 0.42465 0.65721 0.51077 0.0
C416 C 0.47331 0.64024 0.63609 0.0
O417 O 0.43578 0.61969 0.6171 0.0
C418 C 0.34346 0.70311 0.43945 0.0
O419 O 0.39126 0.7135 0.43379 0.0
O420 O 0.42296 0.64656 0.38711 0.0
O421 O 0.50229 0.65323 0.42328 0.0
H422 H 0.35389 0.54379 0.28546 0.0
H423 H 0.44548 0.7142 0.57575 0.0
O424 O 0.5006 0.6582 0.5999 0.0
H425 H 0.55162 0.77684 0.4274 0.0
H426 H 0.67449 0.69364 0.58216 0.0
H427 H 0.57823 0.61095 0.45207 0.0
H428 H 0.55402 0.71025 0.43638 0.0
H429 H 0.58032 0.69671 0.57709 0.0
O430 O 0.33344 0.66975 0.44802 0.0
H431 H 0.4056 0.57951 0.3556 0.0
H432 H 0.27059 0.61754 0.43955 0.0
H433 H 0.67236 0.60704 0.45554 0.0
H434 H 0.44211 0.78091 0.56855 0.0
H435 H 0.72115 0.64862 0.52095 0.0
H436 H 0.4953 0.81263 0.49377 0.0
O437 O 0.49893 0.60229 0.51651 0.0
H438 H 0.28589 0.64106 0.64654 0.0
H439 H 0.34934 0.55511 0.49677 0.0
H440 H 0.30208 0.532 0.58313 0.0
H441 H 0.26989 0.57511 0.65872 0.0
H442 H 0.33386 0.66298 0.55979 0.0
H443 H 0.2174 0.58243 0.37004 0.0
H444 H 0.25908 0.5451 0.29246 0.0
O445 O 0.43027 0.5859 0.46358 0.0
C446 C 0.47087 0.65202 0.38023 0.0
C447 C 0.33529 0.55986 0.31919 0.0
C448 C 0.25868 0.58159 0.36662 0.0
N449 N 0.34116 0.60037 0.4019 0.0
C450 C 0.36437 0.58007 0.35913 0.0
C451 C 0.289 0.60147 0.40577 0.0
C452 C 0.28209 0.56064 0.32311 0.0
C453 C 0.46912 0.72788 0.54354 0.0
N454 N 0.50002 0.7084 0.50671 0.0
C455 C 0.46691 0.76563 0.5395 0.0
C456 C 0.4967 0.7834 0.49747 0.0
C457 C 0.52828 0.76334 0.46018 0.0
C458 C 0.5294 0.72563 0.46539 0.0
C459 C 0.6537 0.67555 0.55318 0.0
C460 C 0.59922 0.62938 0.48017 0.0
C461 C 0.60038 0.67721 0.55002 0.0
N462 N 0.57386 0.65449 0.51344 0.0
C463 C 0.65251 0.62694 0.48214 0.0
C464 C 0.67985 0.65025 0.51888 0.0
C465 C 0.47129 0.57834 0.49154 0.0
C466 C 0.2996 0.62201 0.61382 0.0
C467 C 0.33569 0.57404 0.52958 0.0
C468 C 0.3088 0.5608 0.57831 0.0
C469 C 0.29071 0.585 0.62068 0.0
N470 N 0.34424 0.61038 0.52314 0.0
C471 C 0.32659 0.63428 0.56447 0.0
C472 C 0.97526 0.98986 0.0706 0.0
C473 C 0.9893 0.96649 0.02408 0.0
C474 C 0.98934 0.0265 0.07023 0.0
C475 C 0.01705 0.04108 0.02289 0.0
H476 H 0.9539 0.9797 0.10811 0.0
H477 H 0.97871 0.04351 0.10727 0.0
S478 S 0.06193 0.99252 0.88962 0.0
N479 N 0.0321 0.96122 0.92885 0.0
N480 N 0.05761 0.03039 0.9282 0.0
C481 C 0.03082 0.01848 0.97583 0.0
C482 C 0.01719 0.98105 0.97642 0.0
C483 C 0.97575 0.97624 0.46528 0.0
C484 C 0.02109 0.96626 0.49419 0.0
C485 C 0.95975 0.01251 0.46377 0.0
C486 C 0.98829 0.04017 0.49161 0.0
H487 H 0.95316 0.95602 0.4424 0.0
H488 H 0.92492 0.01883 0.43998 0.0
S489 S 0.10717 0.02675 0.57912 0.0
N490 N 0.0921 0.98586 0.55522 0.0
N491 N 0.06272 0.054 0.55258 0.0
C492 C 0.03304 0.0301 0.5223 0.0
C493 C 0.04925 0.99317 0.52353 0.0
C494 C 0.5466 0.51561 1.00235 0.0
C495 C 0.51514 0.54313 0.02519 0.0
C496 C 0.53075 0.47929 1.00223 0.0
C497 C 0.48301 0.46888 0.02584 0.0
H498 H 0.58365 0.52221 0.98391 0.0
H499 H 0.55648 0.45924 0.98386 0.0
S500 S 0.3878 0.53104 0.09437 0.0
N501 N 0.43496 0.55779 0.07328 0.0
N502 N 0.40528 0.48979 0.07485 0.0
C503 C 0.45146 0.49637 0.04949 0.0
C504 C 0.46744 0.53339 0.04862 0.0
C505 C 0.47368 0.47627 0.46622 0.0
C506 C 0.51851 0.46542 0.49533 0.0
C507 C 0.45865 0.51275 0.46546 0.0
C508 C 0.48764 0.53973 0.49442 0.0
H509 H 0.45073 0.45657 0.4426 0.0
H510 H 0.42424 0.51977 0.4414 0.0
S511 S 0.6056 0.52385 0.58261 0.0
N512 N 0.58966 0.48342 0.55741 0.0
N513 N 0.56196 0.55193 0.55656 0.0
C514 C 0.53185 0.52875 0.52538 0.0
C515 C 0.54715 0.49162 0.52566 0.0
C516 C 0.05099 0.15433 0.24408 0.0
C517 C 0.0176 0.15571 0.19536 0.0
C518 C 0.03241 0.15407 0.30215 0.0
C519 C 0.97949 0.15488 0.3144 0.0
H520 H 0.09198 0.15271 0.23755 0.0
H521 H 0.06005 0.15229 0.33765 0.0
S522 S 0.87547 0.1615 0.20327 0.0
N523 N 0.92855 0.16028 0.16394 0.0
N524 N 0.89396 0.15929 0.27281 0.0
C525 C 0.94562 0.15741 0.26633 0.0
C526 C 0.96454 0.15798 0.20705 0.0
C527 C 0.97775 0.85036 0.30313 0.0
C528 C 0.03053 0.85224 0.31583 0.0
C529 C 0.95952 0.84993 0.24492 0.0
C530 C 0.99317 0.85098 0.19644 0.0
H531 H 0.94981 0.85012 0.33841 0.0
H532 H 0.9185 0.84941 0.23812 0.0
S533 S 0.13546 0.85269 0.20535 0.0
N534 N 0.11648 0.85301 0.27482 0.0
N535 N 0.08259 0.85158 0.16559 0.0
C536 C 0.04627 0.85139 0.20848 0.0
C537 C 0.06481 0.85221 0.26796 0.0
C538 C 0.96723 0.86334 0.71177 0.0
C539 C 0.01862 0.8678 0.69436 0.0
C540 C 0.95329 0.8634 0.77167 0.0
C541 C 0.99048 0.86669 0.81609 0.0
H542 H 0.93744 0.86046 0.67883 0.0
H543 H 0.91331 0.86032 0.78332 0.0
S544 S 0.13007 0.87894 0.79403 0.0
N545 N 0.10655 0.87612 0.72648 0.0
N546 N 0.08062 0.8749 0.83895 0.0
C547 C 0.04196 0.87083 0.79934 0.0
C548 C 0.05598 0.87175 0.73846 0.0
C549 C 0.96933 0.14469 0.79796 0.0
C550 C 0.02098 0.14128 0.81494 0.0
C551 C 0.95496 0.14402 0.73827 0.0
C552 C 0.99191 0.14113 0.69356 0.0
H553 H 0.93963 0.14709 0.83112 0.0
H554 H 0.91478 0.14621 0.727 0.0
S555 S 0.13205 0.13175 0.71442 0.0
N556 N 0.10895 0.13443 0.78219 0.0
N557 N 0.08217 0.13467 0.66987 0.0
C558 C 0.04368 0.13818 0.70981 0.0
C559 C 0.05817 0.13784 0.77059 0.0
C560 C 0.47558 0.66028 0.21264 0.0
C561 C 0.52819 0.65766 0.19937 0.0
C562 C 0.45763 0.65909 0.27095 0.0
C563 C 0.49146 0.65582 0.31899 0.0
H564 H 0.4475 0.6623 0.17769 0.0
H565 H 0.4167 0.6603 0.27817 0.0
S566 S 0.63355 0.65171 0.30894 0.0
N567 N 0.61427 0.65399 0.23968 0.0
N568 N 0.58092 0.65258 0.3491 0.0
C569 C 0.54444 0.65488 0.30655 0.0
C570 C 0.56267 0.65561 0.24696 0.0
C571 C 0.47174 0.3523 0.30321 0.0
C572 C 0.52446 0.35186 0.31652 0.0
C573 C 0.45405 0.35261 0.24475 0.0
C574 C 0.48821 0.35207 0.19671 0.0
H575 H 0.44356 0.35335 0.33819 0.0
H576 H 0.41314 0.35387 0.23738 0.0
S577 S 0.63032 0.34744 0.20754 0.0
N578 N 0.61069 0.34873 0.27672 0.0
N579 N 0.57786 0.34865 0.1671 0.0
C580 C 0.54114 0.35017 0.20947 0.0
C581 C 0.55912 0.35026 0.26914 0.0
C582 C 0.53739 0.36825 0.79829 0.0
C583 C 0.486 0.36883 0.81694 0.0
C584 C 0.55007 0.36845 0.7381 0.0
C585 C 0.51178 0.36806 0.69458 0.0
H586 H 0.56807 0.3683 0.83049 0.0
H587 H 0.59008 0.3684 0.72555 0.0
S588 S 0.37156 0.36889 0.72032 0.0
N589 N 0.39672 0.36927 0.78725 0.0
N590 N 0.42042 0.36824 0.67407 0.0
C591 C 0.46027 0.36816 0.71263 0.0
C592 C 0.4474 0.36895 0.77387 0.0
C593 C 0.46312 0.64365 0.80315 0.0
C594 C 0.51432 0.63931 0.82132 0.0
C595 C 0.44982 0.6434 0.74304 0.0
C596 C 0.48749 0.64002 0.69917 0.0
H597 H 0.433 0.64663 0.83566 0.0
H598 H 0.40997 0.64641 0.73079 0.0
S599 S 0.62687 0.62815 0.72335 0.0
N600 N 0.6026 0.63107 0.79053 0.0
N601 N 0.5779 0.63196 0.67768 0.0
C602 C 0.5388 0.63603 0.7167 0.0
C603 C 0.55215 0.6353 0.77779 0.0
C604 C 0.25006 0.28677 0.07892 0.0
C605 C 0.30084 0.2746 0.07189 0.0
C606 C 0.2086 0.26258 0.07892 0.0
C607 C 0.21586 0.22505 0.0716 0.0
H608 H 0.24203 0.31536 0.08457 0.0
H609 H 0.17047 0.27356 0.08445 0.0
S610 S 0.34121 0.17911 0.04995 0.0
N611 N 0.35597 0.2224 0.05669 0.0
N612 N 0.27838 0.17696 0.05623 0.0
C613 C 0.26653 0.21246 0.06438 0.0
C614 C 0.30884 0.23716 0.0647 0.0
C615 C 0.76108 0.71715 0.07804 0.0
C616 C 0.71027 0.72944 0.07204 0.0
C617 C 0.80259 0.74136 0.07824 0.0
C618 C 0.79528 0.77898 0.07207 0.0
H619 H 0.76903 0.68848 0.08275 0.0
H620 H 0.84077 0.73033 0.083 0.0
S621 S 0.66976 0.82516 0.05304 0.0
N622 N 0.65508 0.78182 0.05888 0.0
N623 N 0.73264 0.8272 0.05864 0.0
C624 C 0.74456 0.79163 0.06577 0.0
C625 C 0.70226 0.76695 0.06597 0.0
C626 C 0.20854 0.74269 0.44308 0.0
C627 C 0.21674 0.78027 0.43817 0.0
C628 C 0.24959 0.7181 0.44297 0.0
C629 C 0.30075 0.72993 0.43768 0.0
H630 H 0.17012 0.7321 0.44809 0.0
H631 H 0.24096 0.68952 0.44756 0.0
S632 S 0.34311 0.82546 0.42067 0.0
N633 N 0.28023 0.82795 0.42554 0.0
N634 N 0.35698 0.78196 0.42575 0.0
C635 C 0.30946 0.76739 0.43171 0.0
C636 C 0.26766 0.79244 0.43186 0.0
C637 C 0.75617 0.28733 0.43558 0.0
C638 C 0.70501 0.2755 0.44037 0.0
C639 C 0.79716 0.26274 0.4355 0.0
C640 C 0.78899 0.22515 0.44058 0.0
H641 H 0.76485 0.31595 0.43197 0.0
H642 H 0.83563 0.27346 0.43199 0.0
S643 S 0.66225 0.17994 0.45459 0.0
N644 N 0.64853 0.2235 0.45024 0.0
N645 N 0.72517 0.17735 0.45041 0.0
C646 C 0.73792 0.21291 0.44515 0.0
C647 C 0.69613 0.238 0.44489 0.0
loop_
_geom_bond_atom_site_label_1
_geom_bond_atom_site_label_2
_geom_bond_distance
_geom_bond_site_symmetry_2
_ccdc_geom_bond_type
Co0 O2 2.142 1_654 S
Co0 O8 2.085 . S
Co0 O11 2.081 1_554 S
Co0 O24 2.097 1_554 S
Co0 N41 2.151 . S
Co0 N49 2.215 . S
Co1 O2 2.160 1_554 S
Co1 O7 2.058 . S
Co1 O17 2.057 . S
Co1 O32 2.037 . S
Co1 N36 2.145 . S
Co1 N57 2.257 1_554 S
O2 Co0 2.142 1_456 S
O2 Co1 2.160 1_556 S
C3 O4 1.278 . S
C3 O11 1.224 1_455 S
O4 C3 1.278 . S
C5 O6 1.245 . S
C5 O17 1.232 . S
O6 C5 1.245 . S
O7 Co1 2.058 . S
O7 C33 1.269 . S
O8 Co0 2.085 . S
O8 C33 1.257 1_655 S
H9 C34 0.930 . S
H10 C40 0.930 . S
O11 Co0 2.081 1_556 S
O11 C3 1.224 1_655 S
H12 C44 0.929 . S
H13 C46 0.930 . S
H14 C47 0.930 . S
H15 C45 0.929 . S
H16 C48 0.928 . S
O17 Co1 2.057 . S
O17 C5 1.232 . S
H18 C37 0.929 . S
H19 C38 0.929 . S
H20 C50 0.931 . S
H21 C42 0.929 . S
H22 C51 0.930 . S
H23 C43 0.931 . S
O24 Co0 2.097 1_556 S
O24 C52 1.214 1_656 S
H25 C53 0.929 . S
H26 C54 0.929 1_554 S
H27 C55 0.930 . S
H28 C56 0.929 . S
H29 C58 0.930 . S
H30 C35 0.930 . S
H31 C39 0.930 . S
O32 Co1 2.037 . S
O32 C52 1.234 . S
C33 O7 1.269 . S
C33 O8 1.257 1_455 S
C34 H9 0.930 . S
C34 C37 1.388 . S
C34 C39 1.418 . S
C35 H30 0.930 . S
C35 C38 1.404 . S
C35 C39 1.353 . S
N36 Co1 2.145 . S
N36 C37 1.397 . S
N36 C38 1.334 . S
C37 H18 0.929 . S
C37 C34 1.388 . S
C37 N36 1.397 . S
C38 H19 0.929 . S
C38 C35 1.404 . S
C38 N36 1.334 . S
C39 H31 0.930 . S
C39 C34 1.418 . S
C39 C35 1.353 . S
C40 H10 0.930 . S
C40 N41 1.330 1_556 S
C40 C42 1.446 . S
N41 Co0 2.151 . S
N41 C40 1.330 1_554 S
N41 C45 1.418 . S
C42 H21 0.929 . S
C42 C40 1.446 . S
C42 C43 1.332 1_556 S
C43 H23 0.931 . S
C43 C42 1.332 1_554 S
C43 C44 1.267 . S
C44 H12 0.929 . S
C44 C43 1.267 . S
C44 C45 1.251 . S
C45 H15 0.929 . S
C45 N41 1.418 . S
C45 C44 1.251 . S
C46 H13 0.930 . S
C46 C48 1.406 . S
C46 C51 1.261 1_556 S
C47 H14 0.930 . S
C47 N49 1.325 . S
C47 C50 1.357 . S
C48 H16 0.928 . S
C48 C46 1.406 . S
C48 N49 1.261 1_556 S
N49 Co0 2.215 . S
N49 C47 1.325 . S
N49 C48 1.261 1_554 S
C50 H20 0.931 . S
C50 C47 1.357 . S
C50 C51 1.312 . S
C51 H22 0.930 . S
C51 C46 1.261 1_554 S
C51 C50 1.312 . S
C52 O24 1.214 1_454 S
C52 O32 1.234 . S
C53 H25 0.929 . S
C53 C56 1.391 . S
C53 C58 1.391 . S
C54 H26 0.929 1_556 S
C54 C55 1.390 . S
C54 N57 1.391 . S
C55 H27 0.930 . S
C55 C54 1.390 . S
C55 C56 1.392 . S
C56 H28 0.929 . S
C56 C53 1.391 . S
C56 C55 1.392 . S
N57 Co1 2.257 1_556 S
N57 C54 1.391 . S
N57 C58 1.388 . S
C58 H29 0.930 . S
C58 C53 1.391 . S
C58 N57 1.388 . S
Co59 O61 2.142 1_454 S
Co59 O67 2.085 . S
Co59 O70 2.081 1_554 S
Co59 O83 2.097 1_554 S
Co59 N100 2.151 . S
Co59 N108 2.215 . S
Co60 O61 2.160 1_554 S
Co60 O66 2.058 . S
Co60 O76 2.057 . S
Co60 O91 2.037 . S
Co60 N95 2.145 . S
Co60 N116 2.257 1_554 S
O61 Co59 2.142 1_656 S
O61 Co60 2.160 1_556 S
C62 O63 1.278 . S
C62 O70 1.224 1_655 S
O63 C62 1.278 . S
C64 O65 1.245 . S
C64 O76 1.232 . S
O65 C64 1.245 . S
O66 Co60 2.058 . S
O66 C92 1.269 . S
O67 Co59 2.085 . S
O67 C92 1.257 1_455 S
H68 C93 0.930 . S
H69 C99 0.930 . S
O70 Co59 2.081 1_556 S
O70 C62 1.224 1_455 S
H71 C103 0.929 . S
H72 C105 0.930 . S
H73 C106 0.930 . S
H74 C104 0.929 . S
H75 C107 0.928 . S
O76 Co60 2.057 . S
O76 C64 1.232 . S
H77 C96 0.929 . S
H78 C97 0.929 . S
H79 C109 0.931 . S
H80 C101 0.929 . S
H81 C110 0.930 . S
H82 C102 0.931 . S
O83 Co59 2.097 1_556 S
O83 C111 1.214 1_456 S
H84 C112 0.929 . S
H85 C113 0.929 1_554 S
H86 C114 0.930 . S
H87 C115 0.929 . S
H88 C117 0.930 . S
H89 C94 0.930 . S
H90 C98 0.930 . S
O91 Co60 2.037 . S
O91 C111 1.234 . S
C92 O66 1.269 . S
C92 O67 1.257 1_655 S
C93 H68 0.930 . S
C93 C96 1.388 . S
C93 C98 1.418 . S
C94 H89 0.930 . S
C94 C97 1.404 . S
C94 C98 1.353 . S
N95 Co60 2.145 . S
N95 C96 1.397 . S
N95 C97 1.334 . S
C96 H77 0.929 . S
C96 C93 1.388 . S
C96 N95 1.397 . S
C97 H78 0.929 . S
C97 C94 1.404 . S
C97 N95 1.334 . S
C98 H90 0.930 . S
C98 C93 1.418 . S
C98 C94 1.353 . S
C99 H69 0.930 . S
C99 N100 1.330 1_556 S
C99 C101 1.446 . S
N100 Co59 2.151 . S
N100 C99 1.330 1_554 S
N100 C104 1.418 . S
C101 H80 0.929 . S
C101 C99 1.446 . S
C101 C102 1.332 1_556 S
C102 H82 0.931 . S
C102 C101 1.332 1_554 S
C102 C103 1.267 . S
C103 H71 0.929 . S
C103 C102 1.267 . S
C103 C104 1.251 . S
C104 H74 0.929 . S
C104 N100 1.418 . S
C104 C103 1.251 . S
C105 H72 0.930 . S
C105 C107 1.406 . S
C105 C110 1.261 1_556 S
C106 H73 0.930 . S
C106 N108 1.325 . S
C106 C109 1.357 . S
C107 H75 0.928 . S
C107 C105 1.406 . S
C107 N108 1.261 1_556 S
N108 Co59 2.215 . S
N108 C106 1.325 . S
N108 C107 1.261 1_554 S
C109 H79 0.931 . S
C109 C106 1.357 . S
C109 C110 1.312 . S
C110 H81 0.930 . S
C110 C105 1.261 1_554 S
C110 C109 1.312 . S
C111 O83 1.214 1_654 S
C111 O91 1.234 . S
C112 H84 0.929 . S
C112 C115 1.391 . S
C112 C117 1.391 . S
C113 H85 0.929 1_556 S
C113 C114 1.390 . S
C113 N116 1.391 . S
C114 H86 0.930 . S
C114 C113 1.390 . S
C114 C115 1.392 . S
C115 H87 0.929 . S
C115 C112 1.391 . S
C115 C114 1.392 . S
N116 Co60 2.257 1_556 S
N116 C113 1.391 . S
N116 C117 1.388 . S
C117 H88 0.930 . S
C117 C112 1.391 . S
C117 N116 1.388 . S
Co118 O120 2.143 1_655 S
Co118 O126 2.074 . S
Co118 O129 2.093 . S
Co118 O142 2.097 . S
Co118 N159 2.151 . S
Co118 N167 2.214 . S
Co119 O120 2.160 . S
Co119 O125 2.058 . S
Co119 O135 2.057 . S
Co119 O150 2.037 . S
Co119 N154 2.145 . S
Co119 N175 2.257 . S
O120 Co118 2.143 1_455 S
O120 Co119 2.160 . S
C121 O122 1.278 . S
C121 O129 1.224 1_455 S
O122 C121 1.278 . S
C123 O124 1.245 . S
C123 O135 1.232 . S
O124 C123 1.245 . S
O125 Co119 2.058 . S
O125 C151 1.269 . S
O126 Co118 2.074 . S
O126 C151 1.257 1_655 S
H127 C152 0.930 . S
H128 C158 0.930 . S
O129 Co118 2.093 . S
O129 C121 1.224 1_655 S
H130 C162 0.929 . S
H131 C164 0.930 . S
H132 C165 0.930 . S
H133 C163 0.929 . S
H134 C166 0.928 . S
O135 Co119 2.057 . S
O135 C123 1.232 . S
H136 C155 0.929 . S
H137 C156 0.929 . S
H138 C168 0.931 . S
H139 C160 0.929 . S
H140 C169 0.930 . S
H141 C161 0.931 . S
O142 Co118 2.097 . S
O142 C170 1.214 1_655 S
H143 C171 0.929 . S
H144 C172 0.929 . S
H145 C173 0.930 . S
H146 C174 0.929 . S
H147 C176 0.930 . S
H148 C153 0.930 . S
H149 C157 0.930 . S
O150 Co119 2.037 . S
O150 C170 1.234 . S
C151 O125 1.269 . S
C151 O126 1.257 1_455 S
C152 H127 0.930 . S
C152 C155 1.388 . S
C152 C157 1.418 . S
C153 H148 0.930 . S
C153 C156 1.404 . S
C153 C157 1.353 . S
N154 Co119 2.145 . S
N154 C155 1.397 . S
N154 C156 1.334 . S
C155 H136 0.929 . S
C155 C152 1.388 . S
C155 N154 1.397 . S
C156 H137 0.929 . S
C156 C153 1.404 . S
C156 N154 1.334 . S
C157 H149 0.930 . S
C157 C152 1.418 . S
C157 C153 1.353 . S
C158 H128 0.930 . S
C158 N159 1.330 . S
C158 C160 1.446 . S
N159 Co118 2.151 . S
N159 C158 1.330 . S
N159 C163 1.418 . S
C160 H139 0.929 . S
C160 C158 1.446 . S
C160 C161 1.332 . S
C161 H141 0.931 . S
C161 C160 1.332 . S
C161 C162 1.267 . S
C162 H130 0.929 . S
C162 C161 1.267 . S
C162 C163 1.251 . S
C163 H133 0.929 . S
C163 N159 1.418 . S
C163 C162 1.251 . S
C164 H131 0.930 . S
C164 C166 1.406 . S
C164 C169 1.261 . S
C165 H132 0.930 . S
C165 N167 1.325 . S
C165 C168 1.357 . S
C166 H134 0.928 . S
C166 C164 1.406 . S
C166 N167 1.261 . S
N167 Co118 2.214 . S
N167 C165 1.325 . S
N167 C166 1.261 . S
C168 H138 0.931 . S
C168 C165 1.357 . S
C168 C169 1.312 . S
C169 H140 0.930 . S
C169 C164 1.261 . S
C169 C168 1.312 . S
C170 O142 1.214 1_455 S
C170 O150 1.234 . S
C171 H143 0.929 . S
C171 C174 1.391 . S
C171 C176 1.391 . S
C172 H144 0.929 . S
C172 C173 1.390 . S
C172 N175 1.391 . S
C173 H145 0.930 . S
C173 C172 1.390 . S
C173 C174 1.392 . S
C174 H146 0.929 . S
C174 C171 1.391 . S
C174 C173 1.392 . S
N175 Co119 2.257 . S
N175 C172 1.391 . S
N175 C176 1.388 . S
C176 H147 0.930 . S
C176 C171 1.391 . S
C176 N175 1.388 . S
Co177 O179 2.143 1_455 S
Co177 O185 2.074 . S
Co177 O188 2.093 . S
Co177 O201 2.097 . S
Co177 N218 2.151 . S
Co177 N226 2.214 . S
Co178 O179 2.160 . S
Co178 O184 2.058 . S
Co178 O194 2.057 . S
Co178 O209 2.037 . S
Co178 N213 2.145 . S
Co178 N234 2.257 . S
O179 Co177 2.143 1_655 S
O179 Co178 2.160 . S
C180 O181 1.278 . S
C180 O188 1.224 1_655 S
O181 C180 1.278 . S
C182 O183 1.245 . S
C182 O194 1.232 . S
O183 C182 1.245 . S
O184 Co178 2.058 . S
O184 C210 1.269 . S
O185 Co177 2.074 . S
O185 C210 1.257 1_455 S
H186 C211 0.930 . S
H187 C217 0.930 . S
O188 Co177 2.093 . S
O188 C180 1.224 1_455 S
H189 C221 0.929 . S
H190 C223 0.930 . S
H191 C224 0.930 . S
H192 C222 0.929 . S
H193 C225 0.928 . S
O194 Co178 2.057 . S
O194 C182 1.232 . S
H195 C214 0.929 . S
H196 C215 0.929 . S
H197 C227 0.931 . S
H198 C219 0.929 . S
H199 C228 0.930 . S
H200 C220 0.931 . S
O201 Co177 2.097 . S
O201 C229 1.214 1_455 S
H202 C230 0.929 . S
H203 C231 0.929 . S
H204 C232 0.930 . S
H205 C233 0.929 . S
H206 C235 0.930 . S
H207 C212 0.930 . S
H208 C216 0.930 . S
O209 Co178 2.037 . S
O209 C229 1.234 . S
C210 O184 1.269 . S
C210 O185 1.257 1_655 S
C211 H186 0.930 . S
C211 C214 1.388 . S
C211 C216 1.418 . S
C212 H207 0.930 . S
C212 C215 1.404 . S
C212 C216 1.353 . S
N213 Co178 2.145 . S
N213 C214 1.397 . S
N213 C215 1.334 . S
C214 H195 0.929 . S
C214 C211 1.388 . S
C214 N213 1.397 . S
C215 H196 0.929 . S
C215 C212 1.404 . S
C215 N213 1.334 . S
C216 H208 0.930 . S
C216 C211 1.418 . S
C216 C212 1.353 . S
C217 H187 0.930 . S
C217 N218 1.330 . S
C217 C219 1.446 . S
N218 Co177 2.151 . S
N218 C217 1.330 . S
N218 C222 1.418 . S
C219 H198 0.929 . S
C219 C217 1.446 . S
C219 C220 1.332 . S
C220 H200 0.931 . S
C220 C219 1.332 . S
C220 C221 1.267 . S
C221 H189 0.929 . S
C221 C220 1.267 . S
C221 C222 1.251 . S
C222 H192 0.929 . S
C222 N218 1.418 . S
C222 C221 1.251 . S
C223 H190 0.930 . S
C223 C225 1.406 . S
C223 C228 1.261 . S
C224 H191 0.930 . S
C224 N226 1.325 . S
C224 C227 1.357 . S
C225 H193 0.928 . S
C225 C223 1.406 . S
C225 N226 1.261 . S
N226 Co177 2.214 . S
N226 C224 1.325 . S
N226 C225 1.261 . S
C227 H197 0.931 . S
C227 C224 1.357 . S
C227 C228 1.312 . S
C228 H199 0.930 . S
C228 C223 1.261 . S
C228 C227 1.312 . S
C229 O201 1.214 1_655 S
C229 O209 1.234 . S
C230 H202 0.929 . S
C230 C233 1.391 . S
C230 C235 1.391 . S
C231 H203 0.929 . S
C231 C232 1.390 . S
C231 N234 1.391 . S
C232 H204 0.930 . S
C232 C231 1.390 . S
C232 C233 1.392 . S
C233 H205 0.929 . S
C233 C230 1.391 . S
C233 C232 1.392 . S
N234 Co178 2.257 . S
N234 C231 1.391 . S
N234 C235 1.388 . S
C235 H206 0.930 . S
C235 C230 1.391 . S
C235 N234 1.388 . S
Co236 O238 2.142 1_554 S
Co236 O244 2.085 . S
Co236 O247 2.081 1_554 S
Co236 O260 2.097 1_554 S
Co236 N277 2.151 . S
Co236 N285 2.215 . S
Co237 O238 2.160 1_554 S
Co237 O243 2.058 . S
Co237 O253 2.057 . S
Co237 O268 2.037 . S
Co237 N272 2.145 . S
Co237 N293 2.257 1_554 S
O238 Co236 2.142 1_556 S
O238 Co237 2.160 1_556 S
C239 O240 1.278 . S
C239 O247 1.224 . S
O240 C239 1.278 . S
C241 O242 1.245 . S
C241 O253 1.232 . S
O242 C241 1.245 . S
O243 Co237 2.058 . S
O243 C269 1.269 . S
O244 Co236 2.085 . S
O244 C269 1.257 . S
H245 C270 0.930 . S
H246 C276 0.930 . S
O247 Co236 2.081 1_556 S
O247 C239 1.224 . S
H248 C280 0.929 . S
H249 C282 0.930 . S
H250 C283 0.930 . S
H251 C281 0.929 . S
H252 C284 0.928 . S
O253 Co237 2.057 . S
O253 C241 1.232 . S
H254 C273 0.929 . S
H255 C274 0.929 . S
H256 C286 0.931 . S
H257 C278 0.929 . S
H258 C287 0.930 . S
H259 C279 0.931 . S
O260 Co236 2.097 1_556 S
O260 C288 1.214 1_556 S
H261 C289 0.929 . S
H262 C290 0.929 1_554 S
H263 C291 0.930 . S
H264 C292 0.929 . S
H265 C294 0.930 . S
H266 C271 0.930 . S
H267 C275 0.930 . S
O268 Co237 2.037 . S
O268 C288 1.234 . S
C269 O243 1.269 . S
C269 O244 1.257 . S
C270 H245 0.930 . S
C270 C273 1.388 . S
C270 C275 1.418 . S
C271 H266 0.930 . S
C271 C274 1.404 . S
C271 C275 1.353 . S
N272 Co237 2.145 . S
N272 C273 1.397 . S
N272 C274 1.334 . S
C273 H254 0.929 . S
C273 C270 1.388 . S
C273 N272 1.397 . S
C274 H255 0.929 . S
C274 C271 1.404 . S
C274 N272 1.334 . S
C275 H267 0.930 . S
C275 C270 1.418 . S
C275 C271 1.353 . S
C276 H246 0.930 . S
C276 N277 1.330 1_556 S
C276 C278 1.446 . S
N277 Co236 2.151 . S
N277 C276 1.330 1_554 S
N277 C281 1.418 . S
C278 H257 0.929 . S
C278 C276 1.446 . S
C278 C279 1.332 1_556 S
C279 H259 0.931 . S
C279 C278 1.332 1_554 S
C279 C280 1.267 . S
C280 H248 0.929 . S
C280 C279 1.267 . S
C280 C281 1.251 . S
C281 H251 0.929 . S
C281 N277 1.418 . S
C281 C280 1.251 . S
C282 H249 0.930 . S
C282 C284 1.406 . S
C282 C287 1.261 1_556 S
C283 H250 0.930 . S
C283 N285 1.325 . S
C283 C286 1.357 . S
C284 H252 0.928 . S
C284 C282 1.406 . S
C284 N285 1.261 1_556 S
N285 Co236 2.215 . S
N285 C283 1.325 . S
N285 C284 1.261 1_554 S
C286 H256 0.931 . S
C286 C283 1.357 . S
C286 C287 1.312 . S
C287 H258 0.930 . S
C287 C282 1.261 1_554 S
C287 C286 1.312 . S
C288 O260 1.214 1_554 S
C288 O268 1.234 . S
C289 H261 0.929 . S
C289 C292 1.391 . S
C289 C294 1.391 . S
C290 H262 0.929 1_556 S
C290 C291 1.390 . S
C290 N293 1.391 . S
C291 H263 0.930 . S
C291 C290 1.390 . S
C291 C292 1.392 . S
C292 H264 0.929 . S
C292 C289 1.391 . S
C292 C291 1.392 . S
N293 Co237 2.257 1_556 S
N293 C290 1.391 . S
N293 C294 1.388 . S
C294 H265 0.930 . S
C294 C289 1.391 . S
C294 N293 1.388 . S
Co295 O297 2.142 1_554 S
Co295 O303 2.085 . S
Co295 O306 2.081 1_554 S
Co295 O319 2.097 1_554 S
Co295 N336 2.151 . S
Co295 N344 2.215 . S
Co296 O297 2.160 1_554 S
Co296 O302 2.058 . S
Co296 O312 2.057 . S
Co296 O327 2.037 . S
Co296 N331 2.145 . S
Co296 N352 2.257 1_554 S
O297 Co295 2.142 1_556 S
O297 Co296 2.160 1_556 S
C298 O299 1.278 . S
C298 O306 1.224 . S
O299 C298 1.278 . S
C300 O301 1.245 . S
C300 O312 1.232 . S
O301 C300 1.245 . S
O302 Co296 2.058 . S
O302 C328 1.269 . S
O303 Co295 2.085 . S
O303 C328 1.257 . S
H304 C329 0.930 . S
H305 C335 0.930 . S
O306 Co295 2.081 1_556 S
O306 C298 1.224 . S
H307 C339 0.929 . S
H308 C341 0.930 . S
H309 C342 0.930 . S
H310 C340 0.929 . S
H311 C343 0.928 . S
O312 Co296 2.057 . S
O312 C300 1.232 . S
H313 C332 0.929 . S
H314 C333 0.929 . S
H315 C345 0.931 . S
H316 C337 0.929 . S
H317 C346 0.930 . S
H318 C338 0.931 . S
O319 Co295 2.097 1_556 S
O319 C347 1.214 1_556 S
H320 C348 0.929 . S
H321 C349 0.929 1_554 S
H322 C350 0.930 . S
H323 C351 0.929 . S
H324 C353 0.930 . S
H325 C330 0.930 . S
H326 C334 0.930 . S
O327 Co296 2.037 . S
O327 C347 1.234 . S
C328 O302 1.269 . S
C328 O303 1.257 . S
C329 H304 0.930 . S
C329 C332 1.388 . S
C329 C334 1.418 . S
C330 H325 0.930 . S
C330 C333 1.404 . S
C330 C334 1.353 . S
N331 Co296 2.145 . S
N331 C332 1.397 . S
N331 C333 1.334 . S
C332 H313 0.929 . S
C332 C329 1.388 . S
C332 N331 1.397 . S
C333 H314 0.929 . S
C333 C330 1.404 . S
C333 N331 1.334 . S
C334 H326 0.930 . S
C334 C329 1.418 . S
C334 C330 1.353 . S
C335 H305 0.930 . S
C335 N336 1.330 1_556 S
C335 C337 1.446 . S
N336 Co295 2.151 . S
N336 C335 1.330 1_554 S
N336 C340 1.418 . S
C337 H316 0.929 . S
C337 C335 1.446 . S
C337 C338 1.332 1_556 S
C338 H318 0.931 . S
C338 C337 1.332 1_554 S
C338 C339 1.267 . S
C339 H307 0.929 . S
C339 C338 1.267 . S
C339 C340 1.251 . S
C340 H310 0.929 . S
C340 N336 1.418 . S
C340 C339 1.251 . S
C341 H308 0.930 . S
C341 C343 1.406 . S
C341 C346 1.261 1_556 S
C342 H309 0.930 . S
C342 N344 1.325 . S
C342 C345 1.357 . S
C343 H311 0.928 . S
C343 C341 1.406 . S
C343 N344 1.261 1_556 S
N344 Co295 2.215 . S
N344 C342 1.325 . S
N344 C343 1.261 1_554 S
C345 H315 0.931 . S
C345 C342 1.357 . S
C345 C346 1.312 . S
C346 H317 0.930 . S
C346 C341 1.261 1_554 S
C346 C345 1.312 . S
C347 O319 1.214 1_554 S
C347 O327 1.234 . S
C348 H320 0.929 . S
C348 C351 1.391 . S
C348 C353 1.391 . S
C349 H321 0.929 1_556 S
C349 C350 1.390 . S
C349 N352 1.391 . S
C350 H322 0.930 . S
C350 C349 1.390 . S
C350 C351 1.392 . S
C351 H323 0.929 . S
C351 C348 1.391 . S
C351 C350 1.392 . S
N352 Co296 2.257 1_556 S
N352 C349 1.391 . S
N352 C353 1.388 . S
C353 H324 0.930 . S
C353 C348 1.391 . S
C353 N352 1.388 . S
Co354 O356 2.143 . S
Co354 O362 2.074 . S
Co354 O365 2.093 . S
Co354 O378 2.097 . S
Co354 N395 2.151 . S
Co354 N403 2.214 . S
Co355 O356 2.160 . S
Co355 O361 2.058 . S
Co355 O371 2.057 . S
Co355 O386 2.037 . S
Co355 N390 2.145 . S
Co355 N411 2.257 . S
O356 Co354 2.143 . S
O356 Co355 2.160 . S
C357 O358 1.278 . S
C357 O365 1.224 . S
O358 C357 1.278 . S
C359 O360 1.245 . S
C359 O371 1.232 . S
O360 C359 1.245 . S
O361 Co355 2.058 . S
O361 C387 1.269 . S
O362 Co354 2.074 . S
O362 C387 1.257 . S
H363 C388 0.930 . S
H364 C394 0.930 . S
O365 Co354 2.093 . S
O365 C357 1.224 . S
H366 C398 0.929 . S
H367 C400 0.930 . S
H368 C401 0.930 . S
H369 C399 0.929 . S
H370 C402 0.928 . S
O371 Co355 2.057 . S
O371 C359 1.232 . S
H372 C391 0.929 . S
H373 C392 0.929 . S
H374 C404 0.931 . S
H375 C396 0.929 . S
H376 C405 0.930 . S
H377 C397 0.931 . S
O378 Co354 2.097 . S
O378 C406 1.214 . S
H379 C407 0.929 . S
H380 C408 0.929 . S
H381 C409 0.930 . S
H382 C410 0.929 . S
H383 C412 0.930 . S
H384 C389 0.930 . S
H385 C393 0.930 . S
O386 Co355 2.037 . S
O386 C406 1.234 . S
C387 O361 1.269 . S
C387 O362 1.257 . S
C388 H363 0.930 . S
C388 C391 1.388 . S
C388 C393 1.418 . S
C389 H384 0.930 . S
C389 C392 1.404 . S
C389 C393 1.353 . S
N390 Co355 2.145 . S
N390 C391 1.397 . S
N390 C392 1.334 . S
C391 H372 0.929 . S
C391 C388 1.388 . S
C391 N390 1.397 . S
C392 H373 0.929 . S
C392 C389 1.404 . S
C392 N390 1.334 . S
C393 H385 0.930 . S
C393 C388 1.418 . S
C393 C389 1.353 . S
C394 H364 0.930 . S
C394 N395 1.330 . S
C394 C396 1.446 . S
N395 Co354 2.151 . S
N395 C394 1.330 . S
N395 C399 1.418 . S
C396 H375 0.929 . S
C396 C394 1.446 . S
C396 C397 1.332 . S
C397 H377 0.931 . S
C397 C396 1.332 . S
C397 C398 1.267 . S
C398 H366 0.929 . S
C398 C397 1.267 . S
C398 C399 1.251 . S
C399 H369 0.929 . S
C399 N395 1.418 . S
C399 C398 1.251 . S
C400 H367 0.930 . S
C400 C402 1.406 . S
C400 C405 1.261 . S
C401 H368 0.930 . S
C401 N403 1.325 . S
C401 C404 1.357 . S
C402 H370 0.928 . S
C402 C400 1.406 . S
C402 N403 1.261 . S
N403 Co354 2.214 . S
N403 C401 1.325 . S
N403 C402 1.261 . S
C404 H374 0.931 . S
C404 C401 1.357 . S
C404 C405 1.312 . S
C405 H376 0.930 . S
C405 C400 1.261 . S
C405 C404 1.312 . S
C406 O378 1.214 . S
C406 O386 1.234 . S
C407 H379 0.929 . S
C407 C410 1.391 . S
C407 C412 1.391 . S
C408 H380 0.929 . S
C408 C409 1.390 . S
C408 N411 1.391 . S
C409 H381 0.930 . S
C409 C408 1.390 . S
C409 C410 1.392 . S
C410 H382 0.929 . S
C410 C407 1.391 . S
C410 C409 1.392 . S
N411 Co355 2.257 . S
N411 C408 1.391 . S
N411 C412 1.388 . S
C412 H383 0.930 . S
C412 C407 1.391 . S
C412 N411 1.388 . S
Co413 O415 2.143 . S
Co413 O421 2.074 . S
Co413 O424 2.093 . S
Co413 O437 2.097 . S
Co413 N454 2.151 . S
Co413 N462 2.214 . S
Co414 O415 2.160 . S
Co414 O420 2.058 . S
Co414 O430 2.057 . S
Co414 O445 2.037 . S
Co414 N449 2.145 . S
Co414 N470 2.257 . S
O415 Co413 2.143 . S
O415 Co414 2.160 . S
C416 O417 1.278 . S
C416 O424 1.224 . S
O417 C416 1.278 . S
C418 O419 1.245 . S
C418 O430 1.232 . S
O419 C418 1.245 . S
O420 Co414 2.058 . S
O420 C446 1.269 . S
O421 Co413 2.074 . S
O421 C446 1.257 . S
H422 C447 0.930 . S
H423 C453 0.930 . S
O424 Co413 2.093 . S
O424 C416 1.224 . S
H425 C457 0.929 . S
H426 C459 0.930 . S
H427 C460 0.930 . S
H428 C458 0.929 . S
H429 C461 0.928 . S
O430 Co414 2.057 . S
O430 C418 1.232 . S
H431 C450 0.929 . S
H432 C451 0.929 . S
H433 C463 0.931 . S
H434 C455 0.929 . S
H435 C464 0.930 . S
H436 C456 0.931 . S
O437 Co413 2.097 . S
O437 C465 1.214 . S
H438 C466 0.929 . S
H439 C467 0.929 . S
H440 C468 0.930 . S
H441 C469 0.929 . S
H442 C471 0.930 . S
H443 C448 0.930 . S
H444 C452 0.930 . S
O445 Co414 2.037 . S
O445 C465 1.234 . S
C446 O420 1.269 . S
C446 O421 1.257 . S
C447 H422 0.930 . S
C447 C450 1.388 . S
C447 C452 1.418 . S
C448 H443 0.930 . S
C448 C451 1.404 . S
C448 C452 1.353 . S
N449 Co414 2.145 . S
N449 C450 1.397 . S
N449 C451 1.334 . S
C450 H431 0.929 . S
C450 C447 1.388 . S
C450 N449 1.397 . S
C451 H432 0.929 . S
C451 C448 1.404 . S
C451 N449 1.334 . S
C452 H444 0.930 . S
C452 C447 1.418 . S
C452 C448 1.353 . S
C453 H423 0.930 . S
C453 N454 1.330 . S
C453 C455 1.446 . S
N454 Co413 2.151 . S
N454 C453 1.330 . S
N454 C458 1.418 . S
C455 H434 0.929 . S
C455 C453 1.446 . S
C455 C456 1.332 . S
C456 H436 0.931 . S
C456 C455 1.332 . S
C456 C457 1.267 . S
C457 H425 0.929 . S
C457 C456 1.267 . S
C457 C458 1.251 . S
C458 H428 0.929 . S
C458 N454 1.418 . S
C458 C457 1.251 . S
C459 H426 0.930 . S
C459 C461 1.406 . S
C459 C464 1.261 . S
C460 H427 0.930 . S
C460 N462 1.325 . S
C460 C463 1.357 . S
C461 H429 0.928 . S
C461 C459 1.406 . S
C461 N462 1.261 . S
N462 Co413 2.214 . S
N462 C460 1.325 . S
N462 C461 1.261 . S
C463 H433 0.931 . S
C463 C460 1.357 . S
C463 C464 1.312 . S
C464 H435 0.930 . S
C464 C459 1.261 . S
C464 C463 1.312 . S
C465 O437 1.214 . S
C465 O445 1.234 . S
C466 H438 0.929 . S
C466 C469 1.391 . S
C466 C471 1.391 . S
C467 H439 0.929 . S
C467 C468 1.390 . S
C467 N470 1.391 . S
C468 H440 0.930 . S
C468 C467 1.390 . S
C468 C469 1.392 . S
C469 H441 0.929 . S
C469 C466 1.391 . S
C469 C468 1.392 . S
N470 Co414 2.257 . S
N470 C467 1.391 . S
N470 C471 1.388 . S
C471 H442 0.930 . S
C471 C466 1.391 . S
C471 N470 1.388 . S
C472 C473 1.369 . S
C472 C474 1.416 1_665 S
C472 H476 0.930 . S
C473 C472 1.369 . S
C473 C482 1.429 1_654 S
C474 C472 1.416 1_445 S
C474 C475 1.366 . S
C474 H477 0.929 . S
C475 C474 1.366 . S
C475 C481 1.428 1_554 S
H476 C472 0.930 . S
H477 C474 0.929 . S
S478 N479 1.613 . S
S478 N480 1.610 1_565 S
N479 S478 1.613 . S
N479 C482 1.350 . S
N480 S478 1.610 1_545 S
N480 C481 1.351 . S
C481 C475 1.428 1_556 S
C481 N480 1.351 . S
C481 C482 1.434 1_545 S
C482 C473 1.429 1_456 S
C482 N479 1.350 . S
C482 C481 1.434 1_565 S
C483 C484 1.369 1_655 S
C483 C485 1.419 1_565 S
C483 H487 0.930 . S
C484 C483 1.369 1_455 S
C484 C493 1.429 . S
C485 C483 1.419 1_545 S
C485 C486 1.363 . S
C485 H488 0.929 . S
C486 C485 1.363 . S
C486 C492 1.428 1_655 S
H487 C483 0.930 . S
H488 C485 0.929 . S
S489 N490 1.613 1_545 S
S489 N491 1.610 . S
N490 S489 1.613 1_565 S
N490 C493 1.350 . S
N491 S489 1.610 . S
N491 C492 1.351 . S
C492 C486 1.428 1_455 S
C492 N491 1.351 . S
C492 C493 1.434 1_545 S
C493 C484 1.429 . S
C493 N490 1.350 . S
C493 C492 1.434 1_565 S
C494 C495 1.369 . S
C494 C496 1.419 . S
C494 H498 0.930 . S
C495 C494 1.369 . S
C495 C504 1.429 . S
C496 C494 1.419 . S
C496 C497 1.363 . S
C496 H499 0.929 . S
C497 C496 1.363 . S
C497 C503 1.428 . S
H498 C494 0.930 . S
H499 C496 0.929 . S
S500 N501 1.613 . S
S500 N502 1.610 . S
N501 S500 1.613 . S
N501 C504 1.350 . S
N502 S500 1.610 . S
N502 C503 1.351 . S
C503 C497 1.428 . S
C503 N502 1.351 . S
C503 C504 1.434 . S
C504 C495 1.429 . S
C504 N501 1.350 . S
C504 C503 1.434 . S
C505 C506 1.369 . S
C505 C507 1.419 . S
C505 H509 0.930 . S
C506 C505 1.369 . S
C506 C515 1.429 . S
C507 C505 1.419 . S
C507 C508 1.363 . S
C507 H510 0.929 . S
C508 C507 1.363 . S
C508 C514 1.428 . S
H509 C505 0.930 . S
H510 C507 0.929 . S
S511 N512 1.613 . S
S511 N513 1.610 . S
N512 S511 1.613 . S
N512 C515 1.350 . S
N513 S511 1.610 . S
N513 C514 1.351 . S
C514 C508 1.428 . S
C514 N513 1.351 . S
C514 C515 1.434 . S
C515 C506 1.429 . S
C515 N512 1.350 . S
C515 C514 1.434 . S
C516 C517 1.369 . S
C516 C518 1.419 . S
C516 H520 0.930 . S
C517 C516 1.369 . S
C517 C526 1.429 1_455 S
C518 C516 1.419 . S
C518 C519 1.363 1_455 S
C518 H521 0.929 . S
C519 C518 1.363 1_655 S
C519 C525 1.428 . S
H520 C516 0.930 . S
H521 C518 0.929 . S
S522 N523 1.613 . S
S522 N524 1.610 . S
N523 S522 1.613 . S
N523 C526 1.350 . S
N524 S522 1.610 . S
N524 C525 1.351 . S
C525 C519 1.428 . S
C525 N524 1.351 . S
C525 C526 1.434 . S
C526 C517 1.429 1_655 S
C526 N523 1.350 . S
C526 C525 1.434 . S
C527 C528 1.369 1_655 S
C527 C529 1.419 . S
C527 H531 0.930 . S
C528 C527 1.369 1_455 S
C528 C537 1.429 . S
C529 C527 1.419 . S
C529 C530 1.363 . S
C529 H532 0.929 . S
C530 C529 1.363 . S
C530 C536 1.428 1_655 S
H531 C527 0.930 . S
H532 C529 0.929 . S
S533 N534 1.613 . S
S533 N535 1.610 . S
N534 S533 1.613 . S
N534 C537 1.350 . S
N535 S533 1.610 . S
N535 C536 1.351 . S
C536 C530 1.428 1_455 S
C536 N535 1.351 . S
C536 C537 1.434 . S
C537 C528 1.429 . S
C537 N534 1.350 . S
C537 C536 1.434 . S
C538 C539 1.369 1_655 S
C538 C540 1.419 . S
C538 H542 0.930 . S
C539 C538 1.369 1_455 S
C539 C548 1.429 . S
C540 C538 1.419 . S
C540 C541 1.363 . S
C540 H543 0.929 . S
C541 C540 1.363 . S
C541 C547 1.428 1_655 S
H542 C538 0.930 . S
H543 C540 0.929 . S
S544 N545 1.613 . S
S544 N546 1.610 . S
N545 S544 1.613 . S
N545 C548 1.350 . S
N546 S544 1.610 . S
N546 C547 1.351 . S
C547 C541 1.428 1_455 S
C547 N546 1.351 . S
C547 C548 1.434 . S
C548 C539 1.429 . S
C548 N545 1.350 . S
C548 C547 1.434 . S
C549 C550 1.369 1_655 S
C549 C551 1.419 . S
C549 H553 0.930 . S
C550 C549 1.369 1_455 S
C550 C559 1.429 . S
C551 C549 1.419 . S
C551 C552 1.363 . S
C551 H554 0.929 . S
C552 C551 1.363 . S
C552 C558 1.428 1_655 S
H553 C549 0.930 . S
H554 C551 0.929 . S
S555 N556 1.613 . S
S555 N557 1.610 . S
N556 S555 1.613 . S
N556 C559 1.350 . S
N557 S555 1.610 . S
N557 C558 1.351 . S
C558 C552 1.428 1_455 S
C558 N557 1.351 . S
C558 C559 1.434 . S
C559 C550 1.429 . S
C559 N556 1.350 . S
C559 C558 1.434 . S
C560 C561 1.369 . S
C560 C562 1.419 . S
C560 H564 0.930 . S
C561 C560 1.369 . S
C561 C570 1.429 . S
C562 C560 1.419 . S
C562 C563 1.363 . S
C562 H565 0.929 . S
C563 C562 1.363 . S
C563 C569 1.428 . S
H564 C560 0.930 . S
H565 C562 0.929 . S
S566 N567 1.613 . S
S566 N568 1.610 . S
N567 S566 1.613 . S
N567 C570 1.350 . S
N568 S566 1.610 . S
N568 C569 1.351 . S
C569 C563 1.428 . S
C569 N568 1.351 . S
C569 C570 1.434 . S
C570 C561 1.429 . S
C570 N567 1.350 . S
C570 C569 1.434 . S
C571 C572 1.369 . S
C571 C573 1.419 . S
C571 H575 0.930 . S
C572 C571 1.369 . S
C572 C581 1.429 . S
C573 C571 1.419 . S
C573 C574 1.363 . S
C573 H576 0.929 . S
C574 C573 1.363 . S
C574 C580 1.428 . S
H575 C571 0.930 . S
H576 C573 0.929 . S
S577 N578 1.613 . S
S577 N579 1.610 . S
N578 S577 1.613 . S
N578 C581 1.350 . S
N579 S577 1.610 . S
N579 C580 1.351 . S
C580 C574 1.428 . S
C580 N579 1.351 . S
C580 C581 1.434 . S
C581 C572 1.429 . S
C581 N578 1.350 . S
C581 C580 1.434 . S
C582 C583 1.369 . S
C582 C584 1.419 . S
C582 H586 0.930 . S
C583 C582 1.369 . S
C583 C592 1.429 . S
C584 C582 1.419 . S
C584 C585 1.363 . S
C584 H587 0.929 . S
C585 C584 1.363 . S
C585 C591 1.428 . S
H586 C582 0.930 . S
H587 C584 0.929 . S
S588 N589 1.613 . S
S588 N590 1.610 . S
N589 S588 1.613 . S
N589 C592 1.350 . S
N590 S588 1.610 . S
N590 C591 1.351 . S
C591 C585 1.428 . S
C591 N590 1.351 . S
C591 C592 1.434 . S
C592 C583 1.429 . S
C592 N589 1.350 . S
C592 C591 1.434 . S
C593 C594 1.369 . S
C593 C595 1.419 . S
C593 H597 0.930 . S
C594 C593 1.369 . S
C594 C603 1.429 . S
C595 C593 1.419 . S
C595 C596 1.363 . S
C595 H598 0.929 . S
C596 C595 1.363 . S
C596 C602 1.428 . S
H597 C593 0.930 . S
H598 C595 0.929 . S
S599 N600 1.613 . S
S599 N601 1.610 . S
N600 S599 1.613 . S
N600 C603 1.350 . S
N601 S599 1.610 . S
N601 C602 1.351 . S
C602 C596 1.428 . S
C602 N601 1.351 . S
C602 C603 1.434 . S
C603 C594 1.429 . S
C603 N600 1.350 . S
C603 C602 1.434 . S
C604 C605 1.369 . S
C604 C606 1.419 . S
C604 H608 0.930 . S
C605 C604 1.369 . S
C605 C614 1.429 . S
C606 C604 1.419 . S
C606 C607 1.363 . S
C606 H609 0.929 . S
C607 C606 1.363 . S
C607 C613 1.428 . S
H608 C604 0.930 . S
H609 C606 0.929 . S
S610 N611 1.613 . S
S610 N612 1.610 . S
N611 S610 1.613 . S
N611 C614 1.350 1_556 S
N612 S610 1.610 . S
N612 C613 1.351 1_556 S
C613 C607 1.428 . S
C613 N612 1.351 1_554 S
C613 C614 1.434 . S
C614 C605 1.429 . S
C614 N611 1.350 1_554 S
C614 C613 1.434 . S
C615 C616 1.369 . S
C615 C617 1.419 . S
C615 H619 0.930 . S
C616 C615 1.369 . S
C616 C625 1.429 . S
C617 C615 1.419 . S
C617 C618 1.363 . S
C617 H620 0.929 . S
C618 C617 1.363 . S
C618 C624 1.428 . S
H619 C615 0.930 . S
H620 C617 0.929 . S
S621 N622 1.613 . S
S621 N623 1.610 . S
N622 S621 1.613 . S
N622 C625 1.350 1_556 S
N623 S621 1.610 . S
N623 C624 1.351 1_556 S
C624 C618 1.428 . S
C624 N623 1.351 1_554 S
C624 C625 1.434 . S
C625 C616 1.429 . S
C625 N622 1.350 1_554 S
C625 C624 1.434 . S
C626 C627 1.369 . S
C626 C628 1.419 . S
C626 H630 0.930 . S
C627 C626 1.369 . S
C627 C636 1.429 . S
C628 C626 1.419 . S
C628 C629 1.363 . S
C628 H631 0.929 . S
C629 C628 1.363 . S
C629 C635 1.428 . S
H630 C626 0.930 . S
H631 C628 0.929 . S
S632 N633 1.613 . S
S632 N634 1.610 . S
N633 S632 1.613 . S
N633 C636 1.350 . S
N634 S632 1.610 . S
N634 C635 1.351 . S
C635 C629 1.428 . S
C635 N634 1.351 . S
C635 C636 1.434 . S
C636 C627 1.429 . S
C636 N633 1.350 . S
C636 C635 1.434 . S
C637 C638 1.369 . S
C637 C639 1.419 . S
C637 H641 0.930 . S
C638 C637 1.369 . S
C638 C647 1.429 . S
C639 C637 1.419 . S
C639 C640 1.363 . S
C639 H642 0.929 . S
C640 C639 1.363 . S
C640 C646 1.428 . S
H641 C637 0.930 . S
H642 C639 0.929 . S
S643 N644 1.613 . S
S643 N645 1.610 . S
N644 S643 1.613 . S
N644 C647 1.350 . S
N645 S643 1.610 . S
N645 C646 1.351 . S
C646 C640 1.428 . S
C646 N645 1.351 . S
C646 C647 1.434 . S
C647 C638 1.429 . S
C647 N644 1.350 . S
C647 C646 1.434 . S
C473 C111 1.514 . S
C475 C52 1.514 . S
C484 C170 1.514 . S
C486 C229 1.514 . S
C495 C288 1.516 . S
C497 C347 1.516 . S
C506 C406 1.514 . S
C508 C465 1.514 . S
C517 C33 1.384 . S
C519 C210 1.383 . S
C528 C151 1.380 . S
C530 C92 1.382 . S
C539 C121 1.460 . S
C541 C62 1.462 . S
C550 C3 1.463 . S
C552 C180 1.463 . S
C561 C269 1.380 . S
C563 C446 1.382 . S
C572 C387 1.380 . S
C574 C328 1.381 . S
C583 C298 1.463 . S
C585 C357 1.463 . S
C594 C239 1.462 . S
C596 C416 1.463 . S
C605 C300 1.515 . S
C607 C5 1.515 . S
C616 C241 1.515 . S
C618 C64 1.515 . S
C627 C123 1.514 . S
C629 C418 1.515 . S
C638 C359 1.515 . S
C640 C182 1.515 . S
