# Generated by pormake.
# Topology qtz-a, (4)-cn, num edge types: 1
# Building blocks:
#     Node 0, Type 0, BuildingBlock: QUQFOY_clean_sbu_3, # of connection points: 4
#     Node 1, Type 0, BuildingBlock: QUQFOY_clean_sbu_3, # of connection points: 4
#     Node 2, Type 0, BuildingBlock: QUQFOY_clean_sbu_3, # of connection points: 4
#     Node 3, Type 0, BuildingBlock: QUQFOY_clean_sbu_3, # of connection points: 4
#     Node 4, Type 0, BuildingBlock: QUQFOY_clean_sbu_3, # of connection points: 4
#     Node 5, Type 0, BuildingBlock: QUQFOY_clean_sbu_3, # of connection points: 4
#     Node 6, Type 0, BuildingBlock: QUQFOY_clean_sbu_3, # of connection points: 4
#     Node 7, Type 0, BuildingBlock: QUQFOY_clean_sbu_3, # of connection points: 4
#     Node 8, Type 0, BuildingBlock: QUQFOY_clean_sbu_3, # of connection points: 4
#     Node 9, Type 0, BuildingBlock: QUQFOY_clean_sbu_3, # of connection points: 4
#     Node 10, Type 0, BuildingBlock: QUQFOY_clean_sbu_3, # of connection points: 4
#     Node 11, Type 0, BuildingBlock: QUQFOY_clean_sbu_3, # of connection points: 4
#     Edge 12, Type (0, 0), BuildingBlock: XIVTED_clean_linker_0, # of connection points: 2
#     Edge 13, Type (0, 0), BuildingBlock: XIVTED_clean_linker_0, # of connection points: 2
#     Edge 14, Type (0, 0), BuildingBlock: XIVTED_clean_linker_0, # of connection points: 2
#     Edge 15, Type (0, 0), BuildingBlock: XIVTED_clean_linker_0, # of connection points: 2
#     Edge 16, Type (0, 0), BuildingBlock: XIVTED_clean_linker_0, # of connection points: 2
#     Edge 17, Type (0, 0), BuildingBlock: XIVTED_clean_linker_0, # of connection points: 2
#     Edge 18, Type (0, 0), BuildingBlock: XIVTED_clean_linker_0, # of connection points: 2
#     Edge 19, Type (0, 0), BuildingBlock: XIVTED_clean_linker_0, # of connection points: 2
#     Edge 20, Type (0, 0), BuildingBlock: XIVTED_clean_linker_0, # of connection points: 2
#     Edge 21, Type (0, 0), BuildingBlock: XIVTED_clean_linker_0, # of connection points: 2
#     Edge 22, Type (0, 0), BuildingBlock: XIVTED_clean_linker_0, # of connection points: 2
#     Edge 23, Type (0, 0), BuildingBlock: XIVTED_clean_linker_0, # of connection points: 2
#     Edge 24, Type (0, 0), BuildingBlock: XIVTED_clean_linker_0, # of connection points: 2
#     Edge 25, Type (0, 0), BuildingBlock: XIVTED_clean_linker_0, # of connection points: 2
#     Edge 26, Type (0, 0), BuildingBlock: XIVTED_clean_linker_0, # of connection points: 2
#     Edge 27, Type (0, 0), BuildingBlock: XIVTED_clean_linker_0, # of connection points: 2
#     Edge 28, Type (0, 0), BuildingBlock: XIVTED_clean_linker_0, # of connection points: 2
#     Edge 29, Type (0, 0), BuildingBlock: XIVTED_clean_linker_0, # of connection points: 2
#     Edge 30, Type (0, 0), BuildingBlock: XIVTED_clean_linker_0, # of connection points: 2
#     Edge 31, Type (0, 0), BuildingBlock: XIVTED_clean_linker_0, # of connection points: 2
#     Edge 32, Type (0, 0), BuildingBlock: XIVTED_clean_linker_0, # of connection points: 2
#     Edge 33, Type (0, 0), BuildingBlock: XIVTED_clean_linker_0, # of connection points: 2
#     Edge 34, Type (0, 0), BuildingBlock: XIVTED_clean_linker_0, # of connection points: 2
#     Edge 35, Type (0, 0), BuildingBlock: XIVTED_clean_linker_0, # of connection points: 2
# Relax obj value: 0.781
# Max RMSD: 0.704
# Mean RMSD: 0.704
data_MOF--net-qtz-a--node1-QUQFOY_clean_sbu_3--edge1-XIVTED_clean_linker_0
_symmetry_space_group_name_H-M    P1
_symmetry_Int_Tables_number       1
_symmetry_cell_setting            triclinic
loop_
_symmetry_equiv_pos_as_xyz
'x, y, z'
_cell_length_a     36.804287
_cell_length_b     36.77289
_cell_length_c     54.829822
_cell_angle_alpha  90.484415
_cell_angle_beta   89.304634
_cell_angle_gamma 119.32664
loop_
_atom_site_label
_atom_site_type_symbol
_atom_site_fract_x
_atom_site_fract_y
_atom_site_fract_z
_atom_type_partial_charge
C0 C 0.62511 0.10432 0.14251 0.0
O1 O 0.63806 0.08916 0.12601 0.0
Cd2 Cd 0.69187 0.14055 0.09818 0.0
O3 O 0.63649 0.14262 0.14068 0.0
Cd4 Cd 0.62382 0.14552 0.09743 0.0
C5 C 0.63659 0.07233 0.06244 0.0
O6 O 0.67964 0.185 0.06933 0.0
O7 O 0.65825 0.22059 0.09057 0.0
O8 O 0.56039 0.13792 0.11597 0.0
C9 C 0.67238 0.2154 0.07041 0.0
O10 O 0.67535 0.09106 0.06696 0.0
C11 C 0.54781 0.14804 0.09716 0.0
O12 O 0.61235 0.0833 0.07306 0.0
O13 O 0.56759 0.15121 0.07749 0.0
C14 C 0.5386 0.64861 0.46872 0.0
O15 O 0.55974 0.65743 0.44923 0.0
Cd16 Cd 0.54563 0.70228 0.42232 0.0
O17 O 0.51154 0.66027 0.46978 0.0
Cd18 Cd 0.47563 0.63262 0.43111 0.0
C19 C 0.54613 0.63586 0.3874 0.0
O20 O 0.48114 0.68077 0.39919 0.0
O21 O 0.42379 0.65248 0.41989 0.0
O22 O 0.43271 0.59518 0.46445 0.0
C23 C 0.44219 0.66774 0.39986 0.0
O24 O 0.5645 0.6754 0.38894 0.0
C25 C 0.40624 0.5636 0.45281 0.0
O26 O 0.51664 0.6128 0.40219 0.0
O27 O 0.41338 0.56185 0.43014 0.0
C28 C 0.89315 0.53377 0.79522 0.0
O29 O 0.91176 0.55634 0.77704 0.0
Cd30 Cd 0.86758 0.56394 0.74658 0.0
O31 O 0.85385 0.51418 0.7945 0.0
Cd32 Cd 0.83437 0.48011 0.75474 0.0
C33 C 0.91528 0.53256 0.71259 0.0
O34 O 0.8097 0.50756 0.72301 0.0
O35 O 0.76259 0.45491 0.74304 0.0
O36 O 0.80977 0.42588 0.78407 0.0
C37 C 0.77439 0.47453 0.72304 0.0
O38 O 0.91352 0.56592 0.71583 0.0
C39 C 0.81063 0.39839 0.77044 0.0
O40 O 0.8929 0.50002 0.72534 0.0
O41 O 0.82329 0.40869 0.74859 0.0
C42 C 0.33065 0.92994 0.14321 0.0
O43 O 0.3282 0.95106 0.12593 0.0
Cd44 Cd 0.30921 0.91864 0.08615 0.0
O45 O 0.31312 0.89084 0.14009 0.0
Cd46 Cd 0.33874 0.86521 0.10712 0.0
C47 C 0.41053 0.95688 0.08145 0.0
O48 O 0.31896 0.8651 0.0642 0.0
O49 O 0.29604 0.8053 0.08166 0.0
O50 O 0.32199 0.80774 0.13297 0.0
C51 C 0.30713 0.82645 0.06222 0.0
O52 O 0.38062 0.96321 0.07578 0.0
C53 C 0.35652 0.8082 0.13051 0.0
O54 O 0.40409 0.92484 0.09362 0.0
O55 O 0.3849 0.83762 0.11796 0.0
C56 C 0.42951 0.35456 0.48104 0.0
O57 O 0.4065 0.34863 0.46288 0.0
Cd58 Cd 0.41203 0.31291 0.42688 0.0
O59 O 0.45196 0.33727 0.4805 0.0
Cd60 Cd 0.49712 0.35453 0.44495 0.0
C61 C 0.46245 0.40906 0.40995 0.0
O62 O 0.47357 0.31677 0.40563 0.0
O63 O 0.51756 0.30728 0.42666 0.0
O64 O 0.54704 0.35763 0.47357 0.0
C65 C 0.50264 0.30757 0.40604 0.0
O66 O 0.42776 0.37593 0.40687 0.0
C67 C 0.57697 0.39218 0.4664 0.0
O68 O 0.4909 0.40933 0.42315 0.0
O69 O 0.56947 0.41079 0.44934 0.0
C70 C 0.06105 0.40596 0.80142 0.0
O71 O 0.04827 0.38559 0.78165 0.0
Cd72 Cd 0.09184 0.45099 0.76178 0.0
O73 O 0.09869 0.43521 0.80136 0.0
Cd74 Cd 0.12845 0.48084 0.76272 0.0
C75 C 0.05359 0.50121 0.75092 0.0
O76 O 0.10816 0.45255 0.71991 0.0
O77 O 0.17378 0.48807 0.72782 0.0
O78 O 0.19916 0.51935 0.77701 0.0
C79 C 0.14527 0.47379 0.71189 0.0
O80 O 0.0369 0.46798 0.7631 0.0
C81 C 0.19558 0.55117 0.78252 0.0
O82 O 0.09277 0.51899 0.7484 0.0
O83 O 0.16053 0.54915 0.77913 0.0
C84 C 0.91575 0.35032 0.5224 0.0
O85 O 0.92701 0.34446 0.54295 0.0
Cd86 Cd 0.87058 0.29456 0.56939 0.0
O87 O 0.87695 0.33311 0.51893 0.0
Cd88 Cd 0.84867 0.35188 0.55417 0.0
C89 C 0.91746 0.37406 0.60225 0.0
O90 O 0.8134 0.30261 0.58739 0.0
O91 O 0.77477 0.31712 0.56484 0.0
O92 O 0.82391 0.37108 0.51944 0.0
C93 C 0.78114 0.30655 0.58554 0.0
O94 O 0.90748 0.33572 0.6026 0.0
C95 C 0.82602 0.40389 0.52847 0.0
O96 O 0.90467 0.38899 0.58543 0.0
O97 O 0.84172 0.41481 0.54968 0.0
C98 C 0.57919 0.91156 0.85346 0.0
O99 O 0.61325 0.92751 0.86467 0.0
Cd100 Cd 0.57814 0.88544 0.90226 0.0
O101 O 0.55496 0.87373 0.8586 0.0
Cd102 Cd 0.49164 0.85617 0.87835 0.0
C103 C 0.53211 0.94606 0.9084 0.0
O104 O 0.50578 0.83527 0.91874 0.0
O105 O 0.44462 0.7997 0.90266 0.0
O106 O 0.46887 0.80923 0.84506 0.0
C107 C 0.46707 0.80868 0.92138 0.0
O108 O 0.56121 0.93786 0.91278 0.0
C109 C 0.43599 0.81153 0.84152 0.0
O110 O 0.50113 0.92227 0.89508 0.0
O111 O 0.43066 0.8379 0.85417 0.0
C112 C 0.66377 0.52303 0.1764 0.0
O113 O 0.68594 0.55557 0.18858 0.0
Cd114 Cd 0.69621 0.52482 0.22646 0.0
O115 O 0.66919 0.49255 0.18138 0.0
Cd116 Cd 0.61725 0.44295 0.20756 0.0
C117 C 0.60319 0.5132 0.24219 0.0
O118 O 0.66186 0.45167 0.24343 0.0
O119 O 0.61818 0.38954 0.23085 0.0
O120 O 0.60839 0.40144 0.17204 0.0
C121 C 0.6418 0.41249 0.24756 0.0
O122 O 0.64253 0.53348 0.24473 0.0
C123 C 0.56895 0.37989 0.17367 0.0
O124 O 0.58529 0.48025 0.22905 0.0
O125 O 0.55104 0.38823 0.19117 0.0
C126 C 0.09368 0.65027 0.48856 0.0
O127 O 0.07571 0.66997 0.49607 0.0
Cd128 Cd 0.09143 0.67551 0.54011 0.0
O129 O 0.13043 0.66444 0.4963 0.0
Cd130 Cd 0.1377 0.62713 0.52942 0.0
C131 C 0.03615 0.5763 0.55228 0.0
O132 O 0.13144 0.65529 0.56867 0.0
O133 O 0.19278 0.66601 0.55843 0.0
O134 O 0.198 0.6236 0.51626 0.0
C135 C 0.16665 0.66033 0.57524 0.0
O136 O 0.03349 0.60942 0.55042 0.0
C137 C 0.1809 0.58415 0.51566 0.0
O138 O 0.06901 0.57542 0.54545 0.0
O139 O 0.14221 0.56344 0.52078 0.0
C140 C 0.44174 0.08501 0.85778 0.0
O141 O 0.41516 0.06959 0.87487 0.0
Cd142 Cd 0.42372 0.11588 0.90944 0.0
O143 O 0.4637 0.12438 0.85741 0.0
Cd144 Cd 0.51885 0.15553 0.88682 0.0
C145 C 0.48231 0.07746 0.93069 0.0
O146 O 0.48954 0.17976 0.91815 0.0
O147 O 0.55071 0.22485 0.9057 0.0
O148 O 0.55998 0.18852 0.85138 0.0
C149 C 0.5236 0.2128 0.92261 0.0
O150 O 0.44811 0.07812 0.93262 0.0
C151 C 0.5901 0.18267 0.85707 0.0
O152 O 0.51084 0.10031 0.91544 0.0
O153 O 0.58717 0.16381 0.877 0.0
C154 C 0.36489 0.42227 0.1884 0.0
O155 O 0.35861 0.40182 0.20788 0.0
Cd156 Cd 0.31692 0.40295 0.24203 0.0
O157 O 0.34737 0.44431 0.18599 0.0
Cd158 Cd 0.34841 0.48996 0.21892 0.0
C159 C 0.41024 0.47664 0.2598 0.0
O160 O 0.30515 0.45956 0.25519 0.0
O161 O 0.30241 0.51135 0.23925 0.0
O162 O 0.33251 0.52346 0.1875 0.0
C163 C 0.29839 0.49009 0.25809 0.0
O164 O 0.38102 0.43925 0.26269 0.0
C165 C 0.36521 0.55863 0.19003 0.0
O166 O 0.40748 0.5015 0.24477 0.0
O167 O 0.39171 0.56154 0.20582 0.0
H168 H 0.66028 0.17827 0.02562 0.0
H169 H 0.58639 0.28724 0.93983 0.0
H170 H 0.65125 0.27715 0.06344 0.0
H171 H 0.49825 0.16211 0.96244 0.0
H172 H 0.62632 0.29595 0.97726 0.0
H173 H 0.62001 0.18365 -0.00775 0.0
C174 C 0.65114 0.20212 0.02667 0.0
C175 C 0.65927 0.2273 0.04759 0.0
C176 C 0.59751 0.26718 0.97425 0.0
C177 C 0.6132 0.23344 0.0091 0.0
C178 C 0.57454 0.26225 0.95307 0.0
C179 C 0.53873 0.22397 0.94801 0.0
C180 C 0.58513 0.23323 0.98999 0.0
C181 C 0.5253 0.19231 0.96562 0.0
C182 C 0.6277 0.20471 0.00768 0.0
C183 C 0.64585 0.25721 0.04771 0.0
N184 N 0.54917 0.1972 0.98544 0.0
N185 N 0.62332 0.25947 0.02873 0.0
H186 H 0.28059 0.55158 0.27268 0.0
H187 H 0.47042 0.65463 0.35622 0.0
H188 H 0.33697 0.47981 0.29758 0.0
H189 H 0.35882 0.64066 0.3916 0.0
H190 H 0.42785 0.60894 0.32342 0.0
H191 H 0.3125 0.5998 0.3073 0.0
C192 C 0.29845 0.54513 0.28581 0.0
C193 C 0.30576 0.51128 0.28223 0.0
C194 C 0.41292 0.61681 0.3381 0.0
C195 C 0.3436 0.56724 0.32095 0.0
C196 C 0.43715 0.64333 0.35675 0.0
C197 C 0.41822 0.6516 0.3769 0.0
C198 C 0.36951 0.5993 0.33908 0.0
C199 C 0.37471 0.63521 0.37646 0.0
C200 C 0.31685 0.57284 0.30537 0.0
C201 C 0.32994 0.50503 0.29963 0.0
N202 N 0.35168 0.60965 0.35786 0.0
N203 N 0.34881 0.53331 0.31782 0.0
H204 H 0.81378 0.32178 0.63141 0.0
H205 H 0.70519 0.39764 0.71526 0.0
H206 H 0.71543 0.32265 0.58972 0.0
H207 H 0.81349 0.49426 0.67836 0.0
H208 H 0.69684 0.34961 0.68151 0.0
H209 H 0.80299 0.36254 0.66326 0.0
C210 C 0.78888 0.32912 0.62926 0.0
C211 C 0.76559 0.31876 0.60765 0.0
C212 C 0.72164 0.38171 0.68067 0.0
C213 C 0.7531 0.36518 0.64433 0.0
C214 C 0.72634 0.40926 0.69978 0.0
C215 C 0.76031 0.45015 0.69989 0.0
C216 C 0.75125 0.3951 0.66175 0.0
C217 C 0.78686 0.46317 0.67927 0.0
C218 C 0.78306 0.35267 0.64741 0.0
C219 C 0.73409 0.32987 0.60601 0.0
N220 N 0.78242 0.43544 0.6614 0.0
N221 N 0.729 0.35292 0.62401 0.0
H222 H 0.33292 0.76796 0.06209 0.0
H223 H 0.38771 0.74779 0.93144 0.0
H224 H 0.32108 0.85517 0.01518 0.0
H225 H 0.49554 0.84834 0.96568 0.0
H226 H 0.34511 0.74569 0.96666 0.0
H227 H 0.37353 0.75669 0.02989 0.0
C228 C 0.33768 0.78378 0.0448 0.0
C229 C 0.32305 0.81226 0.04123 0.0
C230 C 0.37832 0.7673 0.96666 0.0
C231 C 0.37009 0.79996 0.0048 0.0
C232 C 0.40283 0.76843 0.94672 0.0
C233 C 0.44548 0.79833 0.94552 0.0
C234 C 0.39651 0.79599 0.98565 0.0
C235 C 0.46302 0.82455 0.96584 0.0
C236 C 0.36132 0.77769 0.02666 0.0
C237 C 0.33144 0.83277 0.01866 0.0
N238 N 0.43827 0.82328 0.98494 0.0
N239 N 0.35451 0.82631 0.0013 0.0
H240 H 0.58742 0.35123 0.40265 0.0
H241 H 0.60234 0.33043 0.25981 0.0
H242 H 0.47736 0.28493 0.35879 0.0
H243 H 0.66435 0.45327 0.29223 0.0
H244 H 0.57197 0.30105 0.29952 0.0
H245 H 0.62974 0.37647 0.36518 0.0
C246 C 0.5723 0.34082 0.38516 0.0
C247 C 0.52878 0.31527 0.38382 0.0
C248 C 0.593 0.3343 0.298 0.0
C249 C 0.57714 0.34398 0.34112 0.0
C250 C 0.6107 0.3512 0.2754 0.0
C251 C 0.63561 0.39459 0.2725 0.0
C252 C 0.60102 0.36065 0.31813 0.0
C253 C 0.64537 0.4197 0.29354 0.0
C254 C 0.59646 0.35573 0.36388 0.0
C255 C 0.51079 0.30399 0.36065 0.0
N256 N 0.62771 0.40238 0.31551 0.0
N257 N 0.53508 0.31817 0.3402 0.0
H258 H 0.10586 0.6228 0.61025 0.0
H259 H 0.21996 0.5314 0.69105 0.0
H260 H 0.23183 0.65141 0.59283 0.0
H261 H 0.08725 0.4672 0.6788 0.0
H262 H 0.22853 0.58114 0.65886 0.0
H263 H 0.10274 0.57468 0.64162 0.0
C264 C 0.13327 0.61975 0.61332 0.0
C265 C 0.16897 0.64085 0.59848 0.0
C266 C 0.19769 0.5557 0.66302 0.0
C267 C 0.16534 0.58526 0.63446 0.0
C268 C 0.19276 0.52693 0.68117 0.0
C269 C 0.15275 0.49494 0.68783 0.0
C270 C 0.16233 0.55291 0.65177 0.0
C271 C 0.11871 0.4912 0.67445 0.0
C272 C 0.13121 0.59177 0.63107 0.0
C273 C 0.20351 0.6356 0.60363 0.0
N274 N 0.1242 0.52023 0.65746 0.0
N275 N 0.20078 0.60815 0.62109 0.0
H276 H 0.67785 0.08289 0.01959 0.0
H277 H 0.48 0.9201 0.94607 0.0
H278 H 0.55969 0.00502 0.0552 0.0
H279 H 0.5803 0.03037 0.91368 0.0
H280 H 0.51102 0.94434 0.98582 0.0
H281 H 0.64546 0.05506 0.98016 0.0
C282 C 0.64544 0.05879 0.01916 0.0
C283 C 0.6212 0.04628 0.04056 0.0
C284 C 0.52468 0.9646 0.9703 0.0
C285 C 0.5841 0.01507 -0.00426 0.0
C286 C 0.50656 0.95123 0.94755 0.0
C287 C 0.52833 0.9729 0.92661 0.0
C288 C 0.56245 0.0019 0.97222 0.0
C289 C 0.56293 0.01267 0.92949 0.0
C290 C 0.62686 0.04357 -0.00335 0.0
C291 C 0.57931 0.01547 0.03903 0.0
N292 N 0.57962 0.02565 0.95196 0.0
N293 N 0.56203 0.00083 0.0169 0.0
H294 H 0.58197 0.57446 0.23982 0.0
H295 H 0.56806 0.57495 0.38536 0.0
H296 H 0.57699 0.4774 0.2855 0.0
H297 H 0.54189 0.65516 0.34072 0.0
H298 H 0.58021 0.54472 0.34817 0.0
H299 H 0.56807 0.60615 0.2759 0.0
C300 C 0.57624 0.55905 0.25733 0.0
C301 C 0.57939 0.52287 0.25985 0.0
C302 C 0.57082 0.56822 0.34653 0.0
C303 C 0.56727 0.56032 0.30103 0.0
C304 C 0.56441 0.58566 0.36768 0.0
C305 C 0.554 0.61725 0.36581 0.0
C306 C 0.56441 0.58094 0.3236 0.0
C307 C 0.54999 0.63071 0.34266 0.0
C308 C 0.56928 0.5775 0.27792 0.0
C309 C 0.57362 0.50477 0.28289 0.0
N310 N 0.55466 0.61207 0.32235 0.0
N311 N 0.56878 0.52423 0.3027 0.0
H312 H 0.95223 0.54405 0.56067 0.0
H313 H -0.00654 0.58455 0.69496 0.0
H314 H 0.06259 0.54624 0.58824 0.0
H315 H 0.87853 0.47273 0.6785 0.0
H316 H 0.01905 0.58237 0.65354 0.0
H317 H 0.92028 0.52396 0.60157 0.0
C318 C 0.96894 0.53858 0.57502 0.0
C319 C 0.01004 0.54686 0.57118 0.0
C320 C 0.9884 0.55821 0.65924 0.0
C321 C 0.97542 0.52755 0.61766 0.0
C322 C 0.97406 0.5593 0.68273 0.0
C323 C 0.9344 0.52831 0.69004 0.0
C324 C 0.96207 0.52699 0.64294 0.0
C325 C 0.90973 0.4966 0.67351 0.0
C326 C 0.95107 0.52786 0.5983 0.0
C327 C 0.03081 0.54012 0.59043 0.0
N328 N 0.92364 0.49717 0.65041 0.0
N329 N 0.01405 0.53282 0.61316 0.0
H330 H 0.43342 0.9163 0.0503 0.0
H331 H 0.54537 0.11215 0.96285 0.0
H332 H 0.46572 0.04018 0.07467 0.0
H333 H 0.43716 -0.00382 0.94336 0.0
H334 H 0.5447 0.08322 0.00325 0.0
H335 H 0.46282 0.94406 0.01065 0.0
C336 C 0.44978 0.94987 0.04789 0.0
C337 C 0.44709 0.97613 0.06558 0.0
C338 C 0.52205 0.06386 0.98976 0.0
C339 C 0.48312 0.00832 0.02066 0.0
C340 C 0.52278 0.07994 0.96671 0.0
C341 C 0.4914 0.05614 0.94996 0.0
C342 C 0.49036 0.02358 -0.00446 0.0
C343 C 0.46197 0.01513 0.95587 0.0
C344 C 0.46638 0.96564 0.02511 0.0
C345 C 0.46745 0.01917 0.06134 0.0
N346 N 0.46191 0.00015 0.97836 0.0
N347 N 0.48454 0.03412 0.03904 0.0
H348 H 0.42743 0.53774 0.29275 0.0
H349 H 0.52592 0.43644 0.37837 0.0
H350 H 0.46289 0.44728 0.26927 0.0
H351 H 0.42264 0.45377 0.40056 0.0
H352 H 0.52951 0.47021 0.33975 0.0
H353 H 0.45489 0.53822 0.33346 0.0
C354 C 0.44316 0.51983 0.29581 0.0
C355 C 0.44306 0.49234 0.27792 0.0
C356 C 0.50757 0.46868 0.35358 0.0
C357 C 0.47333 0.49221 0.32387 0.0
C358 C 0.50563 0.44966 0.37564 0.0
C359 C 0.47398 0.44258 0.39244 0.0
C360 C 0.47901 0.48249 0.3489 0.0
C361 C 0.44755 0.45904 0.3879 0.0
C362 C 0.45797 0.51953 0.31905 0.0
C363 C 0.46269 0.46892 0.28272 0.0
N364 N 0.45051 0.47824 0.36633 0.0
N365 N 0.47634 0.46872 0.30549 0.0
H366 H 0.08174 0.54625 0.70869 0.0
H367 H 0.8857 0.35693 0.64762 0.0
H368 H 0.96864 0.46406 0.74777 0.0
H369 H -0.00822 0.44634 0.60624 0.0
H370 H 0.91436 0.39906 0.68426 0.0
H371 H 0.04601 0.51773 0.6704 0.0
C372 C 0.04884 0.52352 0.70929 0.0
C373 C 0.02873 0.50568 0.7315 0.0
C374 C 0.93147 0.4097 0.66723 0.0
C375 C 0.98826 0.47238 0.68783 0.0
C376 C 0.91519 0.38561 0.64638 0.0
C377 C 0.93635 0.39888 0.62406 0.0
C378 C 0.96965 0.44689 0.66577 0.0
C379 C 0.97452 0.43571 0.62322 0.0
C380 C 0.02879 0.5065 0.68735 0.0
C381 C 0.98581 0.47744 0.73103 0.0
N382 N 0.99032 0.45835 0.64395 0.0
N383 N 0.96731 0.4604 0.7095 0.0
H384 H 0.38084 0.89769 0.1564 0.0
H385 H 0.57551 0.12619 0.16953 0.0
H386 H 0.37257 0.01071 0.1592 0.0
H387 H 0.58391 0.01872 0.14491 0.0
H388 H 0.50212 0.08058 0.17972 0.0
H389 H 0.4549 0.93824 0.16604 0.0
C390 C 0.39414 0.93078 0.15996 0.0
C391 C 0.37044 0.95091 0.15676 0.0
C392 C 0.52029 0.06688 0.17263 0.0
C393 C 0.45546 -0.00247 0.16753 0.0
C394 C 0.56236 0.09288 0.16694 0.0
C395 C 0.58581 0.07644 0.15579 0.0
C396 C 0.50156 0.02406 0.16737 0.0
C397 C 0.56694 0.03291 0.1531 0.0
C398 C 0.43661 0.95398 0.16522 0.0
C399 C 0.3897 -0.00602 0.16135 0.0
N400 N 0.52575 0.00832 0.15842 0.0
N401 N 0.43117 0.01594 0.16615 0.0
H402 H 0.38755 0.3969 0.49222 0.0
H403 H 0.58287 0.60652 0.4655 0.0
H404 H 0.5096 0.40781 0.49502 0.0
H405 H 0.47825 0.60425 0.50332 0.0
H406 H 0.55845 0.53473 0.47836 0.0
H407 H 0.41948 0.47237 0.49867 0.0
C408 C 0.42087 0.41491 0.49508 0.0
C409 C 0.44587 0.39593 0.49299 0.0
C410 C 0.54133 0.55025 0.48431 0.0
C411 C 0.48274 0.48242 0.49949 0.0
C412 C 0.55533 0.59138 0.47702 0.0
C413 C 0.53189 0.61119 0.48266 0.0
C414 C 0.50325 0.52849 0.49696 0.0
C415 C 0.49669 0.5899 0.49788 0.0
C416 C 0.43911 0.45802 0.49864 0.0
C417 C 0.48901 0.42095 0.49655 0.0
N418 N 0.48269 0.54929 0.50386 0.0
N419 N 0.50617 0.46302 0.49893 0.0
H420 H 0.07908 0.46923 0.83426 0.0
H421 H 0.85974 0.45971 0.82028 0.0
H422 H 0.97496 0.36577 0.79904 0.0
H423 H 0.97721 0.56833 0.80275 0.0
H424 H 0.89723 0.42269 0.83139 0.0
H425 H 0.03548 0.50102 0.84225 0.0
C426 C 0.04666 0.45224 0.82899 0.0
C427 C 0.03122 0.41524 0.81512 0.0
C428 C 0.91468 0.45499 0.82574 0.0
C429 C 0.98104 0.45146 0.82488 0.0
C430 C 0.89342 0.47625 0.81938 0.0
C431 C 0.91528 0.51684 0.80976 0.0
C432 C 0.95816 0.47507 0.82344 0.0
C433 C 0.95903 0.53688 0.80967 0.0
C434 C 0.02194 0.47073 0.83348 0.0
C435 C 0.98859 0.39465 0.80931 0.0
N436 N 0.97903 0.51565 0.81613 0.0
N437 N 0.96516 0.41344 0.81381 0.0
H438 H 0.00114 0.3948 0.52389 0.0
H439 H 0.00786 0.60341 0.48875 0.0
H440 H 0.89533 0.39516 0.49106 0.0
H441 H 0.1187 0.59171 0.48292 0.0
H442 H 0.96582 0.52748 0.4908 0.0
H443 H 0.04542 0.4667 0.51001 0.0
C444 C 0.98738 0.40957 0.51325 0.0
C445 C 0.94432 0.38888 0.50883 0.0
C446 C -0.00067 0.54153 0.48884 0.0
C447 C -0.00539 0.4715 0.49353 0.0
C448 C 0.02344 0.58495 0.48774 0.0
C449 C 0.06718 0.60417 0.4865 0.0
C450 C 0.01898 0.51705 0.4889 0.0
C451 C 0.08528 0.57832 0.48477 0.0
C452 C 0.01266 0.45065 0.50542 0.0
C453 C 0.92825 0.40977 0.49502 0.0
N454 N 0.06124 0.53615 0.48654 0.0
N455 N 0.95319 0.4502 0.48835 0.0
H456 H 0.5047 0.88859 0.83177 0.0
H457 H 0.51908 0.11155 0.8372 0.0
H458 H 0.61313 -0.00305 0.85931 0.0
H459 H 0.40667 -0.00047 0.85748 0.0
H460 H 0.55454 0.07048 0.83166 0.0
H461 H 0.46942 0.93011 0.82789 0.0
C462 C 0.52103 0.92103 0.83702 0.0
C463 C 0.56114 0.93864 0.8469 0.0
C464 C 0.52196 0.05493 0.83701 0.0
C465 C 0.522 0.98701 0.84118 0.0
C466 C 0.50165 0.07831 0.84018 0.0
C467 C 0.46016 0.0593 0.84859 0.0
C468 C 0.50023 0.0119 0.84141 0.0
C469 C 0.43886 0.01571 0.8514 0.0
C470 C 0.50105 0.94476 0.83459 0.0
C471 C 0.58187 0.98167 0.85206 0.0
N472 N 0.45918 -0.0065 0.84794 0.0
N473 N 0.56196 0.00433 0.84928 0.0
H474 H 0.62246 0.56652 0.18884 0.0
H475 H 0.40354 0.3757 0.17988 0.0
H476 H 0.60783 0.45964 0.14791 0.0
H477 H 0.41868 0.49851 0.16929 0.0
H478 H 0.47772 0.40351 0.16994 0.0
H479 H 0.54795 0.54223 0.18393 0.0
C480 C 0.6038 0.53821 0.17855 0.0
C481 C 0.62114 0.51406 0.16957 0.0
C482 C 0.46441 0.42402 0.16916 0.0
C483 C 0.5358 0.48593 0.16431 0.0
C484 C 0.42209 0.40813 0.17467 0.0
C485 C 0.40475 0.4347 0.1753 0.0
C486 C 0.48978 0.46698 0.16505 0.0
C487 C 0.43051 0.47674 0.16881 0.0
C488 C 0.56123 0.52436 0.1758 0.0
C489 C 0.59527 0.47794 0.15619 0.0
N490 N 0.47195 0.49182 0.16461 0.0
N491 N 0.5537 0.46431 0.15449 0.0
H492 H 0.49865 0.30594 0.18326 0.0
H493 H 0.54551 0.20537 0.06692 0.0
H494 H 0.58866 0.37311 0.1266 0.0
H495 H 0.49553 0.14088 0.13492 0.0
H496 H 0.53325 0.26146 0.0812 0.0
H497 H 0.4722 0.24211 0.15853 0.0
C498 C 0.51185 0.30751 0.16528 0.0
C499 C 0.54616 0.34448 0.15701 0.0
C500 C 0.52352 0.23428 0.09263 0.0
C501 C 0.51609 0.27219 0.12876 0.0
C502 C 0.53002 0.20191 0.08437 0.0
C503 C 0.52263 0.16901 0.1001 0.0
C504 C 0.50914 0.2333 0.11658 0.0
C505 C 0.50248 0.16621 0.12246 0.0
C506 C 0.49688 0.27115 0.15125 0.0
C507 C 0.56246 0.34496 0.13371 0.0
N508 N 0.49743 0.19859 0.13035 0.0
N509 N 0.5476 0.30921 0.1205 0.0
H510 H 0.16052 0.51516 0.48715 0.0
H511 H 0.38946 0.54761 0.50103 0.0
H512 H 0.2585 0.60843 0.53132 0.0
H513 H 0.32985 0.52305 0.43095 0.0
H514 H 0.32472 0.53626 0.52042 0.0
H515 H 0.20834 0.48914 0.47427 0.0
C516 C 0.1917 0.5294 0.49452 0.0
C517 C 0.20603 0.56411 0.51005 0.0
C518 C 0.32536 0.5317 0.5009 0.0
C519 C 0.25954 0.53402 0.49625 0.0
C520 C 0.36213 0.53781 0.48983 0.0
C521 C 0.36521 0.53737 0.4643 0.0
C522 C 0.29152 0.52479 0.48634 0.0
C523 C 0.32882 0.52417 0.45068 0.0
C524 C 0.21875 0.51463 0.48722 0.0
C525 C 0.24658 0.58183 0.5191 0.0
N526 N 0.29356 0.51957 0.46182 0.0
N527 N 0.27195 0.56661 0.51205 0.0
H528 H 0.66984 0.20779 0.87118 0.0
H529 H 0.76007 0.32716 0.74557 0.0
H530 H 0.59591 0.19726 0.80831 0.0
H531 H 0.81632 0.37296 0.81572 0.0
H532 H 0.7107 0.26062 0.76464 0.0
H533 H 0.73321 0.24959 0.8469 0.0
C534 C 0.66703 0.2133 0.8521 0.0
C535 C 0.62785 0.1999 0.84176 0.0
C536 C 0.73483 0.28478 0.77565 0.0
C537 C 0.69961 0.24692 0.81404 0.0
C538 C 0.76317 0.32248 0.76476 0.0
C539 C 0.79175 0.35539 0.77924 0.0
C540 C 0.73568 0.28026 0.80103 0.0
C541 C 0.7943 0.34823 0.80407 0.0
C542 C 0.70307 0.23713 0.83831 0.0
C543 C 0.6257 0.20779 0.81701 0.0
N544 N 0.76611 0.31156 0.8143 0.0
N545 N 0.66115 0.23124 0.80402 0.0
H546 H 0.43345 0.63698 0.18714 0.0
H547 H 0.29586 0.73626 0.15007 0.0
H548 H 0.30551 0.56385 0.16425 0.0
H549 H 0.42704 0.80019 0.13157 0.0
H550 H 0.30099 0.67538 0.1617 0.0
H551 H 0.43437 0.69972 0.17115 0.0
C552 C 0.40585 0.63406 0.17847 0.0
C553 C 0.36924 0.59538 0.17723 0.0
C554 C 0.32867 0.70273 0.15509 0.0
C555 C 0.3699 0.66641 0.15963 0.0
C556 C 0.32592 0.73767 0.14867 0.0
C557 C 0.36115 0.77333 0.13982 0.0
C558 C 0.36702 0.70353 0.15301 0.0
C559 C 0.3992 0.77325 0.13833 0.0
C560 C 0.40644 0.66972 0.1694 0.0
C561 C 0.33436 0.5931 0.16573 0.0
N562 N 0.40125 0.73874 0.14499 0.0
N563 N 0.33534 0.62828 0.15774 0.0
H564 H 0.80334 0.39677 0.48083 0.0
H565 H 0.65045 0.46031 0.45184 0.0
H566 H 0.79468 0.45058 0.54944 0.0
H567 H 0.59946 0.35835 0.50319 0.0
H568 H 0.72107 0.47855 0.46544 0.0
H569 H 0.74747 0.40756 0.46488 0.0
C570 C 0.79087 0.41238 0.49222 0.0
C571 C 0.80344 0.42262 0.51657 0.0
C572 C 0.6941 0.45273 0.47385 0.0
C573 C 0.73971 0.43447 0.49847 0.0
C574 C 0.65401 0.44229 0.4662 0.0
C575 C 0.61911 0.40763 0.47631 0.0
C576 C 0.6988 0.42869 0.49191 0.0
C577 C 0.62543 0.38529 0.49487 0.0
C578 C 0.75914 0.41852 0.48307 0.0
C579 C 0.78592 0.44233 0.53059 0.0
N580 N 0.66458 0.39607 0.50198 0.0
N581 N 0.7538 0.44634 0.52159 0.0
H582 H 0.19346 0.61752 0.80298 0.0
H583 H 0.44067 0.75529 0.81087 0.0
H584 H 0.27812 0.57317 0.7812 0.0
H585 H 0.35507 0.7941 0.83939 0.0
H586 H 0.38181 0.69181 0.79517 0.0
H587 H 0.25274 0.68455 0.81368 0.0
C588 C 0.22462 0.62192 0.80053 0.0
C589 C 0.23107 0.59 0.7911 0.0
C590 C 0.37595 0.71446 0.80459 0.0
C591 C 0.29894 0.66668 0.80296 0.0
C592 C 0.40951 0.75087 0.81335 0.0
C593 C 0.40256 0.77969 0.82665 0.0
C594 C 0.33532 0.70697 0.80923 0.0
C595 C 0.36173 0.77261 0.82926 0.0
C596 C 0.25842 0.66022 0.80654 0.0
C597 C 0.27193 0.59709 0.78846 0.0
N598 N 0.3295 0.73658 0.8209 0.0
N599 N 0.30449 0.6349 0.79427 0.0
loop_
_geom_bond_atom_site_label_1
_geom_bond_atom_site_label_2
_geom_bond_distance
_geom_bond_site_symmetry_2
_ccdc_geom_bond_type
C0 O1 1.306 . S
C0 O3 1.160 . S
O1 C0 1.306 . S
O1 Cd2 2.228 . S
Cd2 O1 2.228 . S
Cd2 O6 2.273 . S
Cd2 O10 2.277 . S
O3 C0 1.160 . S
O3 Cd4 2.203 . S
Cd4 O3 2.203 . S
Cd4 O6 2.411 . S
Cd4 O7 2.333 . S
Cd4 O8 2.352 . S
Cd4 O12 2.277 . S
Cd4 O13 2.356 . S
C5 O10 1.209 . S
C5 O12 1.226 . S
O6 Cd2 2.273 . S
O6 Cd4 2.411 . S
O6 C9 1.320 . S
O7 Cd4 2.333 . S
O7 C9 1.214 . S
O8 Cd4 2.352 . S
O8 C11 1.258 . S
C9 O6 1.320 . S
C9 O7 1.214 . S
O10 Cd2 2.277 . S
O10 C5 1.209 . S
C11 O8 1.258 . S
C11 O13 1.282 . S
O12 Cd4 2.277 . S
O12 C5 1.226 . S
O13 Cd4 2.356 . S
O13 C11 1.282 . S
C14 O15 1.306 . S
C14 O17 1.160 . S
O15 C14 1.306 . S
O15 Cd16 2.228 . S
Cd16 O15 2.228 . S
Cd16 O20 2.273 . S
Cd16 O24 2.277 . S
O17 C14 1.160 . S
O17 Cd18 2.203 . S
Cd18 O17 2.203 . S
Cd18 O20 2.411 . S
Cd18 O21 2.333 . S
Cd18 O22 2.352 . S
Cd18 O26 2.277 . S
Cd18 O27 2.356 . S
C19 O24 1.209 . S
C19 O26 1.226 . S
O20 Cd16 2.273 . S
O20 Cd18 2.411 . S
O20 C23 1.320 . S
O21 Cd18 2.333 . S
O21 C23 1.214 . S
O22 Cd18 2.352 . S
O22 C25 1.258 . S
C23 O20 1.320 . S
C23 O21 1.214 . S
O24 Cd16 2.277 . S
O24 C19 1.209 . S
C25 O22 1.258 . S
C25 O27 1.282 . S
O26 Cd18 2.277 . S
O26 C19 1.226 . S
O27 Cd18 2.356 . S
O27 C25 1.282 . S
C28 O29 1.306 . S
C28 O31 1.160 . S
O29 C28 1.306 . S
O29 Cd30 2.228 . S
Cd30 O29 2.228 . S
Cd30 O34 2.273 . S
Cd30 O38 2.277 . S
O31 C28 1.160 . S
O31 Cd32 2.203 . S
Cd32 O31 2.203 . S
Cd32 O34 2.411 . S
Cd32 O35 2.333 . S
Cd32 O36 2.352 . S
Cd32 O40 2.277 . S
Cd32 O41 2.356 . S
C33 O38 1.209 . S
C33 O40 1.226 . S
O34 Cd30 2.273 . S
O34 Cd32 2.411 . S
O34 C37 1.320 . S
O35 Cd32 2.333 . S
O35 C37 1.214 . S
O36 Cd32 2.352 . S
O36 C39 1.258 . S
C37 O34 1.320 . S
C37 O35 1.214 . S
O38 Cd30 2.277 . S
O38 C33 1.209 . S
C39 O36 1.258 . S
C39 O41 1.282 . S
O40 Cd32 2.277 . S
O40 C33 1.226 . S
O41 Cd32 2.356 . S
O41 C39 1.282 . S
C42 O43 1.306 . S
C42 O45 1.160 . S
O43 C42 1.306 . S
O43 Cd44 2.228 . S
Cd44 O43 2.228 . S
Cd44 O48 2.273 . S
Cd44 O52 2.277 . S
O45 C42 1.160 . S
O45 Cd46 2.203 . S
Cd46 O45 2.203 . S
Cd46 O48 2.411 . S
Cd46 O49 2.333 . S
Cd46 O50 2.352 . S
Cd46 O54 2.277 . S
Cd46 O55 2.356 . S
C47 O52 1.209 . S
C47 O54 1.226 . S
O48 Cd44 2.273 . S
O48 Cd46 2.411 . S
O48 C51 1.320 . S
O49 Cd46 2.333 . S
O49 C51 1.214 . S
O50 Cd46 2.352 . S
O50 C53 1.258 . S
C51 O48 1.320 . S
C51 O49 1.214 . S
O52 Cd44 2.277 . S
O52 C47 1.209 . S
C53 O50 1.258 . S
C53 O55 1.282 . S
O54 Cd46 2.277 . S
O54 C47 1.226 . S
O55 Cd46 2.356 . S
O55 C53 1.282 . S
C56 O57 1.306 . S
C56 O59 1.160 . S
O57 C56 1.306 . S
O57 Cd58 2.228 . S
Cd58 O57 2.228 . S
Cd58 O62 2.273 . S
Cd58 O66 2.277 . S
O59 C56 1.160 . S
O59 Cd60 2.203 . S
Cd60 O59 2.203 . S
Cd60 O62 2.411 . S
Cd60 O63 2.333 . S
Cd60 O64 2.352 . S
Cd60 O68 2.277 . S
Cd60 O69 2.356 . S
C61 O66 1.209 . S
C61 O68 1.226 . S
O62 Cd58 2.273 . S
O62 Cd60 2.411 . S
O62 C65 1.320 . S
O63 Cd60 2.333 . S
O63 C65 1.214 . S
O64 Cd60 2.352 . S
O64 C67 1.258 . S
C65 O62 1.320 . S
C65 O63 1.214 . S
O66 Cd58 2.277 . S
O66 C61 1.209 . S
C67 O64 1.258 . S
C67 O69 1.282 . S
O68 Cd60 2.277 . S
O68 C61 1.226 . S
O69 Cd60 2.356 . S
O69 C67 1.282 . S
C70 O71 1.306 . S
C70 O73 1.160 . S
O71 C70 1.306 . S
O71 Cd72 2.228 . S
Cd72 O71 2.228 . S
Cd72 O76 2.273 . S
Cd72 O80 2.277 . S
O73 C70 1.160 . S
O73 Cd74 2.203 . S
Cd74 O73 2.203 . S
Cd74 O76 2.411 . S
Cd74 O77 2.333 . S
Cd74 O78 2.352 . S
Cd74 O82 2.277 . S
Cd74 O83 2.356 . S
C75 O80 1.209 . S
C75 O82 1.226 . S
O76 Cd72 2.273 . S
O76 Cd74 2.411 . S
O76 C79 1.320 . S
O77 Cd74 2.333 . S
O77 C79 1.214 . S
O78 Cd74 2.352 . S
O78 C81 1.258 . S
C79 O76 1.320 . S
C79 O77 1.214 . S
O80 Cd72 2.277 . S
O80 C75 1.209 . S
C81 O78 1.258 . S
C81 O83 1.282 . S
O82 Cd74 2.277 . S
O82 C75 1.226 . S
O83 Cd74 2.356 . S
O83 C81 1.282 . S
C84 O85 1.306 . S
C84 O87 1.160 . S
O85 C84 1.306 . S
O85 Cd86 2.228 . S
Cd86 O85 2.228 . S
Cd86 O90 2.273 . S
Cd86 O94 2.277 . S
O87 C84 1.160 . S
O87 Cd88 2.203 . S
Cd88 O87 2.203 . S
Cd88 O90 2.411 . S
Cd88 O91 2.333 . S
Cd88 O92 2.352 . S
Cd88 O96 2.277 . S
Cd88 O97 2.356 . S
C89 O94 1.209 . S
C89 O96 1.226 . S
O90 Cd86 2.273 . S
O90 Cd88 2.411 . S
O90 C93 1.320 . S
O91 Cd88 2.333 . S
O91 C93 1.214 . S
O92 Cd88 2.352 . S
O92 C95 1.258 . S
C93 O90 1.320 . S
C93 O91 1.214 . S
O94 Cd86 2.277 . S
O94 C89 1.209 . S
C95 O92 1.258 . S
C95 O97 1.282 . S
O96 Cd88 2.277 . S
O96 C89 1.226 . S
O97 Cd88 2.356 . S
O97 C95 1.282 . S
C98 O99 1.306 . S
C98 O101 1.160 . S
O99 C98 1.306 . S
O99 Cd100 2.228 . S
Cd100 O99 2.228 . S
Cd100 O104 2.273 . S
Cd100 O108 2.277 . S
O101 C98 1.160 . S
O101 Cd102 2.203 . S
Cd102 O101 2.203 . S
Cd102 O104 2.411 . S
Cd102 O105 2.333 . S
Cd102 O106 2.352 . S
Cd102 O110 2.277 . S
Cd102 O111 2.356 . S
C103 O108 1.209 . S
C103 O110 1.226 . S
O104 Cd100 2.273 . S
O104 Cd102 2.411 . S
O104 C107 1.320 . S
O105 Cd102 2.333 . S
O105 C107 1.214 . S
O106 Cd102 2.352 . S
O106 C109 1.258 . S
C107 O104 1.320 . S
C107 O105 1.214 . S
O108 Cd100 2.277 . S
O108 C103 1.209 . S
C109 O106 1.258 . S
C109 O111 1.282 . S
O110 Cd102 2.277 . S
O110 C103 1.226 . S
O111 Cd102 2.356 . S
O111 C109 1.282 . S
C112 O113 1.306 . S
C112 O115 1.160 . S
O113 C112 1.306 . S
O113 Cd114 2.228 . S
Cd114 O113 2.228 . S
Cd114 O118 2.273 . S
Cd114 O122 2.277 . S
O115 C112 1.160 . S
O115 Cd116 2.203 . S
Cd116 O115 2.203 . S
Cd116 O118 2.411 . S
Cd116 O119 2.333 . S
Cd116 O120 2.352 . S
Cd116 O124 2.277 . S
Cd116 O125 2.356 . S
C117 O122 1.209 . S
C117 O124 1.226 . S
O118 Cd114 2.273 . S
O118 Cd116 2.411 . S
O118 C121 1.320 . S
O119 Cd116 2.333 . S
O119 C121 1.214 . S
O120 Cd116 2.352 . S
O120 C123 1.258 . S
C121 O118 1.320 . S
C121 O119 1.214 . S
O122 Cd114 2.277 . S
O122 C117 1.209 . S
C123 O120 1.258 . S
C123 O125 1.282 . S
O124 Cd116 2.277 . S
O124 C117 1.226 . S
O125 Cd116 2.356 . S
O125 C123 1.282 . S
C126 O127 1.306 . S
C126 O129 1.160 . S
O127 C126 1.306 . S
O127 Cd128 2.228 . S
Cd128 O127 2.228 . S
Cd128 O132 2.273 . S
Cd128 O136 2.277 . S
O129 C126 1.160 . S
O129 Cd130 2.203 . S
Cd130 O129 2.203 . S
Cd130 O132 2.411 . S
Cd130 O133 2.333 . S
Cd130 O134 2.352 . S
Cd130 O138 2.277 . S
Cd130 O139 2.356 . S
C131 O136 1.209 . S
C131 O138 1.226 . S
O132 Cd128 2.273 . S
O132 Cd130 2.411 . S
O132 C135 1.320 . S
O133 Cd130 2.333 . S
O133 C135 1.214 . S
O134 Cd130 2.352 . S
O134 C137 1.258 . S
C135 O132 1.320 . S
C135 O133 1.214 . S
O136 Cd128 2.277 . S
O136 C131 1.209 . S
C137 O134 1.258 . S
C137 O139 1.282 . S
O138 Cd130 2.277 . S
O138 C131 1.226 . S
O139 Cd130 2.356 . S
O139 C137 1.282 . S
C140 O141 1.306 . S
C140 O143 1.160 . S
O141 C140 1.306 . S
O141 Cd142 2.228 . S
Cd142 O141 2.228 . S
Cd142 O146 2.273 . S
Cd142 O150 2.277 . S
O143 C140 1.160 . S
O143 Cd144 2.203 . S
Cd144 O143 2.203 . S
Cd144 O146 2.411 . S
Cd144 O147 2.333 . S
Cd144 O148 2.352 . S
Cd144 O152 2.277 . S
Cd144 O153 2.356 . S
C145 O150 1.209 . S
C145 O152 1.226 . S
O146 Cd142 2.273 . S
O146 Cd144 2.411 . S
O146 C149 1.320 . S
O147 Cd144 2.333 . S
O147 C149 1.214 . S
O148 Cd144 2.352 . S
O148 C151 1.258 . S
C149 O146 1.320 . S
C149 O147 1.214 . S
O150 Cd142 2.277 . S
O150 C145 1.209 . S
C151 O148 1.258 . S
C151 O153 1.282 . S
O152 Cd144 2.277 . S
O152 C145 1.226 . S
O153 Cd144 2.356 . S
O153 C151 1.282 . S
C154 O155 1.306 . S
C154 O157 1.160 . S
O155 C154 1.306 . S
O155 Cd156 2.228 . S
Cd156 O155 2.228 . S
Cd156 O160 2.273 . S
Cd156 O164 2.277 . S
O157 C154 1.160 . S
O157 Cd158 2.203 . S
Cd158 O157 2.203 . S
Cd158 O160 2.411 . S
Cd158 O161 2.333 . S
Cd158 O162 2.352 . S
Cd158 O166 2.277 . S
Cd158 O167 2.356 . S
C159 O164 1.209 . S
C159 O166 1.226 . S
O160 Cd156 2.273 . S
O160 Cd158 2.411 . S
O160 C163 1.320 . S
O161 Cd158 2.333 . S
O161 C163 1.214 . S
O162 Cd158 2.352 . S
O162 C165 1.258 . S
C163 O160 1.320 . S
C163 O161 1.214 . S
O164 Cd156 2.277 . S
O164 C159 1.209 . S
C165 O162 1.258 . S
C165 O167 1.282 . S
O166 Cd158 2.277 . S
O166 C159 1.226 . S
O167 Cd158 2.356 . S
O167 C165 1.282 . S
H168 C174 0.930 . S
H169 C178 0.930 . S
H170 C183 0.929 . S
H171 C181 0.929 . S
H172 C176 0.929 . S
H173 C182 0.929 . S
C174 H168 0.930 . S
C174 C175 1.367 . S
C174 C182 1.378 . S
C175 C174 1.367 . S
C175 C183 1.433 . S
C176 H172 0.929 . S
C176 C178 1.378 . S
C176 C180 1.350 . S
C177 C180 1.463 1_554 S
C177 C182 1.350 . S
C177 N185 1.427 . S
C178 H169 0.930 . S
C178 C176 1.378 . S
C178 C179 1.367 . S
C179 C178 1.367 . S
C179 C181 1.433 . S
C180 C176 1.350 . S
C180 C177 1.463 1_556 S
C180 N184 1.427 . S
C181 H171 0.929 . S
C181 C179 1.433 . S
C181 N184 1.384 . S
C182 H173 0.929 . S
C182 C174 1.378 . S
C182 C177 1.350 . S
C183 H170 0.929 . S
C183 C175 1.433 . S
C183 N185 1.384 . S
N184 C180 1.427 . S
N184 C181 1.384 . S
N185 C177 1.427 . S
N185 C183 1.384 . S
H186 C192 0.930 . S
H187 C196 0.930 . S
H188 C201 0.929 . S
H189 C199 0.929 . S
H190 C194 0.929 . S
H191 C200 0.929 . S
C192 H186 0.930 . S
C192 C193 1.367 . S
C192 C200 1.378 . S
C193 C192 1.367 . S
C193 C201 1.433 . S
C194 H190 0.929 . S
C194 C196 1.378 . S
C194 C198 1.350 . S
C195 C198 1.463 . S
C195 C200 1.350 . S
C195 N203 1.427 . S
C196 H187 0.930 . S
C196 C194 1.378 . S
C196 C197 1.367 . S
C197 C196 1.367 . S
C197 C199 1.433 . S
C198 C194 1.350 . S
C198 C195 1.463 . S
C198 N202 1.427 . S
C199 H189 0.929 . S
C199 C197 1.433 . S
C199 N202 1.384 . S
C200 H191 0.929 . S
C200 C192 1.378 . S
C200 C195 1.350 . S
C201 H188 0.929 . S
C201 C193 1.433 . S
C201 N203 1.384 . S
N202 C198 1.427 . S
N202 C199 1.384 . S
N203 C195 1.427 . S
N203 C201 1.384 . S
H204 C210 0.930 . S
H205 C214 0.930 . S
H206 C219 0.929 . S
H207 C217 0.929 . S
H208 C212 0.929 . S
H209 C218 0.929 . S
C210 H204 0.930 . S
C210 C211 1.367 . S
C210 C218 1.378 . S
C211 C210 1.367 . S
C211 C219 1.433 . S
C212 H208 0.929 . S
C212 C214 1.378 . S
C212 C216 1.350 . S
C213 C216 1.463 . S
C213 C218 1.350 . S
C213 N221 1.427 . S
C214 H205 0.930 . S
C214 C212 1.378 . S
C214 C215 1.367 . S
C215 C214 1.367 . S
C215 C217 1.433 . S
C216 C212 1.350 . S
C216 C213 1.463 . S
C216 N220 1.427 . S
C217 H207 0.929 . S
C217 C215 1.433 . S
C217 N220 1.384 . S
C218 H209 0.929 . S
C218 C210 1.378 . S
C218 C213 1.350 . S
C219 H206 0.929 . S
C219 C211 1.433 . S
C219 N221 1.384 . S
N220 C216 1.427 . S
N220 C217 1.384 . S
N221 C213 1.427 . S
N221 C219 1.384 . S
H222 C228 0.930 . S
H223 C232 0.930 . S
H224 C237 0.914 1_556 S
H225 C235 0.914 1_554 S
H226 C230 0.929 . S
H227 C236 0.929 . S
C228 H222 0.930 . S
C228 C229 1.367 . S
C228 C236 1.378 . S
C229 C228 1.367 . S
C229 C237 1.433 . S
C230 H226 0.929 . S
C230 C232 1.378 . S
C230 C234 1.350 . S
C231 C234 1.463 1_554 S
C231 C236 1.350 . S
C231 N239 1.427 1_554 S
C232 H223 0.930 . S
C232 C230 1.378 . S
C232 C233 1.367 . S
C233 C232 1.367 . S
C233 C235 1.433 . S
C234 C230 1.350 . S
C234 C231 1.463 1_556 S
C234 N238 1.427 1_556 S
C235 H225 0.914 1_556 S
C235 C233 1.433 . S
C235 N238 1.384 1_556 S
C236 H227 0.929 . S
C236 C228 1.378 . S
C236 C231 1.350 . S
C237 H224 0.914 1_554 S
C237 C229 1.433 . S
C237 N239 1.384 1_554 S
N238 C234 1.427 1_554 S
N238 C235 1.384 1_554 S
N239 C231 1.427 1_556 S
N239 C237 1.384 1_556 S
H240 C246 0.930 . S
H241 C250 0.930 . S
H242 C255 0.929 . S
H243 C253 0.929 . S
H244 C248 0.929 . S
H245 C254 0.929 . S
C246 H240 0.930 . S
C246 C247 1.367 . S
C246 C254 1.378 . S
C247 C246 1.367 . S
C247 C255 1.433 . S
C248 H244 0.929 . S
C248 C250 1.378 . S
C248 C252 1.350 . S
C249 C252 1.463 . S
C249 C254 1.350 . S
C249 N257 1.427 . S
C250 H241 0.930 . S
C250 C248 1.378 . S
C250 C251 1.367 . S
C251 C250 1.367 . S
C251 C253 1.433 . S
C252 C248 1.350 . S
C252 C249 1.463 . S
C252 N256 1.427 . S
C253 H243 0.929 . S
C253 C251 1.433 . S
C253 N256 1.384 . S
C254 H245 0.929 . S
C254 C246 1.378 . S
C254 C249 1.350 . S
C255 H242 0.929 . S
C255 C247 1.433 . S
C255 N257 1.384 . S
N256 C252 1.427 . S
N256 C253 1.384 . S
N257 C249 1.427 . S
N257 C255 1.384 . S
H258 C264 0.930 . S
H259 C268 0.930 . S
H260 C273 0.929 . S
H261 C271 0.929 . S
H262 C266 0.929 . S
H263 C272 0.929 . S
C264 H258 0.930 . S
C264 C265 1.367 . S
C264 C272 1.378 . S
C265 C264 1.367 . S
C265 C273 1.433 . S
C266 H262 0.929 . S
C266 C268 1.378 . S
C266 C270 1.350 . S
C267 C270 1.463 . S
C267 C272 1.350 . S
C267 N275 1.427 . S
C268 H259 0.930 . S
C268 C266 1.378 . S
C268 C269 1.367 . S
C269 C268 1.367 . S
C269 C271 1.433 . S
C270 C266 1.350 . S
C270 C267 1.463 . S
C270 N274 1.427 . S
C271 H261 0.929 . S
C271 C269 1.433 . S
C271 N274 1.384 . S
C272 H263 0.929 . S
C272 C264 1.378 . S
C272 C267 1.350 . S
C273 H260 0.929 . S
C273 C265 1.433 . S
C273 N275 1.384 . S
N274 C270 1.427 . S
N274 C271 1.384 . S
N275 C267 1.427 . S
N275 C273 1.384 . S
H276 C282 0.930 . S
H277 C286 0.930 . S
H278 C291 0.929 . S
H279 C289 0.929 . S
H280 C284 0.929 1_554 S
H281 C290 0.929 1_556 S
C282 H276 0.930 . S
C282 C283 1.367 . S
C282 C290 1.378 . S
C283 C282 1.367 . S
C283 C291 1.433 . S
C284 H280 0.929 1_556 S
C284 C286 1.378 . S
C284 C288 1.350 . S
C285 C288 1.463 1_544 S
C285 C290 1.350 . S
C285 N293 1.427 . S
C286 H277 0.930 . S
C286 C284 1.378 . S
C286 C287 1.367 . S
C287 C286 1.367 . S
C287 C289 1.433 . S
C288 C284 1.350 . S
C288 C285 1.463 1_566 S
C288 N292 1.427 . S
C289 H279 0.929 . S
C289 C287 1.433 . S
C289 N292 1.384 . S
C290 H281 0.929 1_554 S
C290 C282 1.378 . S
C290 C285 1.350 . S
C291 H278 0.929 . S
C291 C283 1.433 . S
C291 N293 1.384 . S
N292 C288 1.427 . S
N292 C289 1.384 . S
N293 C285 1.427 . S
N293 C291 1.384 . S
H294 C300 0.930 . S
H295 C304 0.930 . S
H296 C309 0.929 . S
H297 C307 0.929 . S
H298 C302 0.929 . S
H299 C308 0.929 . S
C300 H294 0.930 . S
C300 C301 1.367 . S
C300 C308 1.378 . S
C301 C300 1.367 . S
C301 C309 1.433 . S
C302 H298 0.929 . S
C302 C304 1.378 . S
C302 C306 1.350 . S
C303 C306 1.463 . S
C303 C308 1.350 . S
C303 N311 1.427 . S
C304 H295 0.930 . S
C304 C302 1.378 . S
C304 C305 1.367 . S
C305 C304 1.367 . S
C305 C307 1.433 . S
C306 C302 1.350 . S
C306 C303 1.463 . S
C306 N310 1.427 . S
C307 H297 0.929 . S
C307 C305 1.433 . S
C307 N310 1.384 . S
C308 H299 0.929 . S
C308 C300 1.378 . S
C308 C303 1.350 . S
C309 H296 0.929 . S
C309 C301 1.433 . S
C309 N311 1.384 . S
N310 C306 1.427 . S
N310 C307 1.384 . S
N311 C303 1.427 . S
N311 C309 1.384 . S
H312 C318 0.930 . S
H313 C322 0.930 . S
H314 C327 0.929 . S
H315 C325 0.929 . S
H316 C320 0.929 1_455 S
H317 C326 0.929 1_655 S
C318 H312 0.930 . S
C318 C319 1.367 . S
C318 C326 1.378 . S
C319 C318 1.367 . S
C319 C327 1.433 . S
C320 H316 0.929 1_655 S
C320 C322 1.378 . S
C320 C324 1.350 . S
C321 C324 1.463 1_455 S
C321 C326 1.350 . S
C321 N329 1.427 . S
C322 H313 0.930 . S
C322 C320 1.378 . S
C322 C323 1.367 . S
C323 C322 1.367 . S
C323 C325 1.433 . S
C324 C320 1.350 . S
C324 C321 1.463 1_655 S
C324 N328 1.427 . S
C325 H315 0.929 . S
C325 C323 1.433 . S
C325 N328 1.384 . S
C326 H317 0.929 1_455 S
C326 C318 1.378 . S
C326 C321 1.350 . S
C327 H314 0.929 . S
C327 C319 1.433 . S
C327 N329 1.384 . S
N328 C324 1.427 . S
N328 C325 1.384 . S
N329 C321 1.427 . S
N329 C327 1.384 . S
H330 C336 0.930 . S
H331 C340 0.930 . S
H332 C345 0.929 . S
H333 C343 0.929 . S
H334 C338 0.929 1_554 S
H335 C344 0.929 1_556 S
C336 H330 0.930 . S
C336 C337 1.367 . S
C336 C344 1.378 . S
C337 C336 1.367 . S
C337 C345 1.433 . S
C338 H334 0.929 1_556 S
C338 C340 1.378 . S
C338 C342 1.350 . S
C339 C342 1.463 1_564 S
C339 C344 1.350 . S
C339 N347 1.427 . S
C340 H331 0.930 . S
C340 C338 1.378 . S
C340 C341 1.367 . S
C341 C340 1.367 . S
C341 C343 1.433 . S
C342 C338 1.350 . S
C342 C339 1.463 1_546 S
C342 N346 1.427 . S
C343 H333 0.929 . S
C343 C341 1.433 . S
C343 N346 1.383 . S
C344 H335 0.929 1_554 S
C344 C336 1.378 . S
C344 C339 1.350 . S
C345 H332 0.929 . S
C345 C337 1.433 . S
C345 N347 1.383 . S
N346 C342 1.427 . S
N346 C343 1.383 . S
N347 C339 1.427 . S
N347 C345 1.383 . S
H348 C354 0.930 . S
H349 C358 0.930 . S
H350 C363 0.929 . S
H351 C361 0.929 . S
H352 C356 0.929 . S
H353 C362 0.929 . S
C354 H348 0.930 . S
C354 C355 1.367 . S
C354 C362 1.378 . S
C355 C354 1.367 . S
C355 C363 1.433 . S
C356 H352 0.929 . S
C356 C358 1.378 . S
C356 C360 1.350 . S
C357 C360 1.463 . S
C357 C362 1.350 . S
C357 N365 1.427 . S
C358 H349 0.930 . S
C358 C356 1.378 . S
C358 C359 1.367 . S
C359 C358 1.367 . S
C359 C361 1.433 . S
C360 C356 1.350 . S
C360 C357 1.463 . S
C360 N364 1.427 . S
C361 H351 0.929 . S
C361 C359 1.433 . S
C361 N364 1.384 . S
C362 H353 0.929 . S
C362 C354 1.378 . S
C362 C357 1.350 . S
C363 H350 0.929 . S
C363 C355 1.433 . S
C363 N365 1.384 . S
N364 C360 1.427 . S
N364 C361 1.384 . S
N365 C357 1.427 . S
N365 C363 1.384 . S
H366 C372 0.930 . S
H367 C376 0.930 . S
H368 C381 0.929 . S
H369 C379 0.929 . S
H370 C374 0.929 . S
H371 C380 0.929 . S
C372 H366 0.930 . S
C372 C373 1.367 . S
C372 C380 1.378 . S
C373 C372 1.367 . S
C373 C381 1.433 . S
C374 H370 0.929 . S
C374 C376 1.378 . S
C374 C378 1.350 . S
C375 C378 1.463 1_455 S
C375 C380 1.350 . S
C375 N383 1.427 . S
C376 H367 0.930 . S
C376 C374 1.378 . S
C376 C377 1.367 . S
C377 C376 1.367 . S
C377 C379 1.433 . S
C378 C374 1.350 . S
C378 C375 1.463 1_655 S
C378 N382 1.427 . S
C379 H369 0.929 . S
C379 C377 1.433 . S
C379 N382 1.384 . S
C380 H371 0.929 . S
C380 C372 1.378 . S
C380 C375 1.350 . S
C381 H368 0.929 . S
C381 C373 1.433 . S
C381 N383 1.384 . S
N382 C378 1.427 . S
N382 C379 1.384 . S
N383 C375 1.427 . S
N383 C381 1.384 . S
H384 C390 0.930 . S
H385 C394 0.930 . S
H386 C399 0.929 . S
H387 C397 0.929 . S
H388 C392 0.929 . S
H389 C398 0.929 . S
C390 H384 0.930 . S
C390 C391 1.367 . S
C390 C398 1.378 . S
C391 C390 1.367 . S
C391 C399 1.433 . S
C392 H388 0.929 . S
C392 C394 1.378 . S
C392 C396 1.350 . S
C393 C396 1.463 1_565 S
C393 C398 1.350 . S
C393 N401 1.427 . S
C394 H385 0.930 . S
C394 C392 1.378 . S
C394 C395 1.367 . S
C395 C394 1.367 . S
C395 C397 1.433 . S
C396 C392 1.350 . S
C396 C393 1.463 1_545 S
C396 N400 1.427 . S
C397 H387 0.929 . S
C397 C395 1.433 . S
C397 N400 1.384 . S
C398 H389 0.929 . S
C398 C390 1.378 . S
C398 C393 1.350 . S
C399 H386 0.929 . S
C399 C391 1.433 . S
C399 N401 1.384 . S
N400 C396 1.427 . S
N400 C397 1.384 . S
N401 C393 1.427 . S
N401 C399 1.384 . S
H402 C408 0.930 . S
H403 C412 0.930 . S
H404 C417 0.929 . S
H405 C415 0.929 . S
H406 C410 0.929 . S
H407 C416 0.929 . S
C408 H402 0.930 . S
C408 C409 1.367 . S
C408 C416 1.378 . S
C409 C408 1.367 . S
C409 C417 1.433 . S
C410 H406 0.929 . S
C410 C412 1.378 . S
C410 C414 1.350 . S
C411 C414 1.463 . S
C411 C416 1.350 . S
C411 N419 1.427 . S
C412 H403 0.930 . S
C412 C410 1.378 . S
C412 C413 1.367 . S
C413 C412 1.367 . S
C413 C415 1.433 . S
C414 C410 1.350 . S
C414 C411 1.463 . S
C414 N418 1.427 . S
C415 H405 0.929 . S
C415 C413 1.433 . S
C415 N418 1.384 . S
C416 H407 0.929 . S
C416 C408 1.378 . S
C416 C411 1.350 . S
C417 H404 0.929 . S
C417 C409 1.433 . S
C417 N419 1.384 . S
N418 C414 1.427 . S
N418 C415 1.384 . S
N419 C411 1.427 . S
N419 C417 1.384 . S
H420 C426 0.930 . S
H421 C430 0.930 . S
H422 C435 0.929 . S
H423 C433 0.929 . S
H424 C428 0.929 . S
H425 C434 0.929 . S
C426 H420 0.930 . S
C426 C427 1.367 . S
C426 C434 1.378 . S
C427 C426 1.367 . S
C427 C435 1.433 . S
C428 H424 0.929 . S
C428 C430 1.378 . S
C428 C432 1.350 . S
C429 C432 1.463 1_455 S
C429 C434 1.350 . S
C429 N437 1.427 1_455 S
C430 H421 0.930 . S
C430 C428 1.378 . S
C430 C431 1.367 . S
C431 C430 1.367 . S
C431 C433 1.433 . S
C432 C428 1.350 . S
C432 C429 1.463 1_655 S
C432 N436 1.427 1_655 S
C433 H423 0.929 . S
C433 C431 1.433 . S
C433 N436 1.384 1_655 S
C434 H425 0.929 . S
C434 C426 1.378 . S
C434 C429 1.350 . S
C435 H422 0.929 . S
C435 C427 1.433 . S
C435 N437 1.384 1_455 S
N436 C432 1.427 1_455 S
N436 C433 1.384 1_455 S
N437 C429 1.427 1_655 S
N437 C435 1.384 1_655 S
H438 C444 0.930 . S
H439 C448 0.930 . S
H440 C453 0.929 . S
H441 C451 0.929 . S
H442 C446 0.929 . S
H443 C452 0.929 . S
C444 H438 0.930 . S
C444 C445 1.367 . S
C444 C452 1.378 1_655 S
C445 C444 1.367 . S
C445 C453 1.433 . S
C446 H442 0.929 . S
C446 C448 1.378 1_655 S
C446 C450 1.350 1_655 S
C447 C450 1.463 1_655 S
C447 C452 1.350 1_655 S
C447 N455 1.427 . S
C448 H439 0.930 . S
C448 C446 1.378 1_455 S
C448 C449 1.367 . S
C449 C448 1.367 . S
C449 C451 1.433 . S
C450 C446 1.350 1_455 S
C450 C447 1.463 1_455 S
C450 N454 1.427 . S
C451 H441 0.929 . S
C451 C449 1.433 . S
C451 N454 1.384 . S
C452 H443 0.929 . S
C452 C444 1.378 1_455 S
C452 C447 1.350 1_455 S
C453 H440 0.929 . S
C453 C445 1.433 . S
C453 N455 1.384 . S
N454 C450 1.427 . S
N454 C451 1.384 . S
N455 C447 1.427 . S
N455 C453 1.384 . S
H456 C462 0.930 . S
H457 C466 0.930 . S
H458 C471 0.929 . S
H459 C469 0.929 . S
H460 C464 0.929 . S
H461 C470 0.929 . S
C462 H456 0.930 . S
C462 C463 1.367 . S
C462 C470 1.378 . S
C463 C462 1.367 . S
C463 C471 1.433 . S
C464 H460 0.929 . S
C464 C466 1.378 . S
C464 C468 1.350 . S
C465 C468 1.463 1_565 S
C465 C470 1.350 . S
C465 N473 1.427 1_565 S
C466 H457 0.930 . S
C466 C464 1.378 . S
C466 C467 1.367 . S
C467 C466 1.367 . S
C467 C469 1.433 . S
C468 C464 1.350 . S
C468 C465 1.463 1_545 S
C468 N472 1.427 1_545 S
C469 H459 0.929 . S
C469 C467 1.433 . S
C469 N472 1.384 1_545 S
C470 H461 0.929 . S
C470 C462 1.378 . S
C470 C465 1.350 . S
C471 H458 0.929 . S
C471 C463 1.433 . S
C471 N473 1.384 1_565 S
N472 C468 1.427 1_565 S
N472 C469 1.384 1_565 S
N473 C465 1.427 1_545 S
N473 C471 1.384 1_545 S
H474 C480 0.930 . S
H475 C484 0.930 . S
H476 C489 0.929 . S
H477 C487 0.929 . S
H478 C482 0.929 . S
H479 C488 0.929 . S
C480 H474 0.930 . S
C480 C481 1.367 . S
C480 C488 1.378 . S
C481 C480 1.367 . S
C481 C489 1.433 . S
C482 H478 0.929 . S
C482 C484 1.378 . S
C482 C486 1.350 . S
C483 C486 1.463 . S
C483 C488 1.350 . S
C483 N491 1.427 . S
C484 H475 0.930 . S
C484 C482 1.378 . S
C484 C485 1.367 . S
C485 C484 1.367 . S
C485 C487 1.433 . S
C486 C482 1.350 . S
C486 C483 1.463 . S
C486 N490 1.427 . S
C487 H477 0.929 . S
C487 C485 1.433 . S
C487 N490 1.384 . S
C488 H479 0.929 . S
C488 C480 1.378 . S
C488 C483 1.350 . S
C489 H476 0.929 . S
C489 C481 1.433 . S
C489 N491 1.384 . S
N490 C486 1.427 . S
N490 C487 1.384 . S
N491 C483 1.427 . S
N491 C489 1.384 . S
H492 C498 0.930 . S
H493 C502 0.930 . S
H494 C507 0.929 . S
H495 C505 0.929 . S
H496 C500 0.929 . S
H497 C506 0.929 . S
C498 H492 0.930 . S
C498 C499 1.367 . S
C498 C506 1.378 . S
C499 C498 1.367 . S
C499 C507 1.433 . S
C500 H496 0.929 . S
C500 C502 1.378 . S
C500 C504 1.350 . S
C501 C504 1.463 . S
C501 C506 1.350 . S
C501 N509 1.427 . S
C502 H493 0.930 . S
C502 C500 1.378 . S
C502 C503 1.367 . S
C503 C502 1.367 . S
C503 C505 1.433 . S
C504 C500 1.350 . S
C504 C501 1.463 . S
C504 N508 1.427 . S
C505 H495 0.929 . S
C505 C503 1.433 . S
C505 N508 1.384 . S
C506 H497 0.929 . S
C506 C498 1.378 . S
C506 C501 1.350 . S
C507 H494 0.929 . S
C507 C499 1.433 . S
C507 N509 1.384 . S
N508 C504 1.427 . S
N508 C505 1.384 . S
N509 C501 1.427 . S
N509 C507 1.384 . S
H510 C516 0.930 . S
H511 C520 0.930 . S
H512 C525 0.929 . S
H513 C523 0.929 . S
H514 C518 0.929 . S
H515 C524 0.929 . S
C516 H510 0.930 . S
C516 C517 1.367 . S
C516 C524 1.378 . S
C517 C516 1.367 . S
C517 C525 1.433 . S
C518 H514 0.929 . S
C518 C520 1.378 . S
C518 C522 1.350 . S
C519 C522 1.463 . S
C519 C524 1.350 . S
C519 N527 1.427 . S
C520 H511 0.930 . S
C520 C518 1.378 . S
C520 C521 1.367 . S
C521 C520 1.367 . S
C521 C523 1.433 . S
C522 C518 1.350 . S
C522 C519 1.463 . S
C522 N526 1.427 . S
C523 H513 0.929 . S
C523 C521 1.433 . S
C523 N526 1.384 . S
C524 H515 0.929 . S
C524 C516 1.378 . S
C524 C519 1.350 . S
C525 H512 0.929 . S
C525 C517 1.433 . S
C525 N527 1.384 . S
N526 C522 1.427 . S
N526 C523 1.384 . S
N527 C519 1.427 . S
N527 C525 1.384 . S
H528 C534 0.930 . S
H529 C538 0.930 . S
H530 C543 0.929 . S
H531 C541 0.929 . S
H532 C536 0.929 . S
H533 C542 0.929 . S
C534 H528 0.930 . S
C534 C535 1.367 . S
C534 C542 1.378 . S
C535 C534 1.367 . S
C535 C543 1.433 . S
C536 H532 0.929 . S
C536 C538 1.378 . S
C536 C540 1.350 . S
C537 C540 1.463 . S
C537 C542 1.350 . S
C537 N545 1.427 . S
C538 H529 0.930 . S
C538 C536 1.378 . S
C538 C539 1.367 . S
C539 C538 1.367 . S
C539 C541 1.433 . S
C540 C536 1.350 . S
C540 C537 1.463 . S
C540 N544 1.427 . S
C541 H531 0.929 . S
C541 C539 1.433 . S
C541 N544 1.384 . S
C542 H533 0.929 . S
C542 C534 1.378 . S
C542 C537 1.350 . S
C543 H530 0.929 . S
C543 C535 1.433 . S
C543 N545 1.384 . S
N544 C540 1.427 . S
N544 C541 1.384 . S
N545 C537 1.427 . S
N545 C543 1.384 . S
H546 C552 0.930 . S
H547 C556 0.930 . S
H548 C561 0.929 . S
H549 C559 0.929 . S
H550 C554 0.929 . S
H551 C560 0.929 . S
C552 H546 0.930 . S
C552 C553 1.367 . S
C552 C560 1.378 . S
C553 C552 1.367 . S
C553 C561 1.433 . S
C554 H550 0.929 . S
C554 C556 1.378 . S
C554 C558 1.350 . S
C555 C558 1.463 . S
C555 C560 1.350 . S
C555 N563 1.427 . S
C556 H547 0.930 . S
C556 C554 1.378 . S
C556 C557 1.367 . S
C557 C556 1.367 . S
C557 C559 1.433 . S
C558 C554 1.350 . S
C558 C555 1.463 . S
C558 N562 1.427 . S
C559 H549 0.929 . S
C559 C557 1.433 . S
C559 N562 1.384 . S
C560 H551 0.929 . S
C560 C552 1.378 . S
C560 C555 1.350 . S
C561 H548 0.929 . S
C561 C553 1.433 . S
C561 N563 1.384 . S
N562 C558 1.427 . S
N562 C559 1.384 . S
N563 C555 1.427 . S
N563 C561 1.384 . S
H564 C570 0.930 . S
H565 C574 0.930 . S
H566 C579 0.929 . S
H567 C577 0.929 . S
H568 C572 0.929 . S
H569 C578 0.929 . S
C570 H564 0.930 . S
C570 C571 1.367 . S
C570 C578 1.378 . S
C571 C570 1.367 . S
C571 C579 1.433 . S
C572 H568 0.929 . S
C572 C574 1.378 . S
C572 C576 1.350 . S
C573 C576 1.463 . S
C573 C578 1.350 . S
C573 N581 1.427 . S
C574 H565 0.930 . S
C574 C572 1.378 . S
C574 C575 1.367 . S
C575 C574 1.367 . S
C575 C577 1.433 . S
C576 C572 1.350 . S
C576 C573 1.463 . S
C576 N580 1.427 . S
C577 H567 0.929 . S
C577 C575 1.433 . S
C577 N580 1.384 . S
C578 H569 0.929 . S
C578 C570 1.378 . S
C578 C573 1.350 . S
C579 H566 0.929 . S
C579 C571 1.433 . S
C579 N581 1.384 . S
N580 C576 1.427 . S
N580 C577 1.384 . S
N581 C573 1.427 . S
N581 C579 1.384 . S
H582 C588 0.930 . S
H583 C592 0.930 . S
H584 C597 0.929 . S
H585 C595 0.929 . S
H586 C590 0.929 . S
H587 C596 0.929 . S
C588 H582 0.930 . S
C588 C589 1.367 . S
C588 C596 1.378 . S
C589 C588 1.367 . S
C589 C597 1.433 . S
C590 H586 0.929 . S
C590 C592 1.378 . S
C590 C594 1.350 . S
C591 C594 1.463 . S
C591 C596 1.350 . S
C591 N599 1.427 . S
C592 H583 0.930 . S
C592 C590 1.378 . S
C592 C593 1.367 . S
C593 C592 1.367 . S
C593 C595 1.433 . S
C594 C590 1.350 . S
C594 C591 1.463 . S
C594 N598 1.427 . S
C595 H585 0.929 . S
C595 C593 1.433 . S
C595 N598 1.384 . S
C596 H587 0.929 . S
C596 C588 1.378 . S
C596 C591 1.350 . S
C597 H584 0.929 . S
C597 C589 1.433 . S
C597 N599 1.384 . S
N598 C594 1.427 . S
N598 C595 1.384 . S
N599 C591 1.427 . S
N599 C597 1.384 . S
C175 C9 1.976 . S
C179 C149 1.986 . S
C193 C163 1.988 . S
C197 C23 1.977 . S
C211 C93 1.976 . S
C215 C37 1.986 . S
C229 C51 1.978 . S
C233 C107 1.973 . S
C247 C65 1.975 . S
C251 C121 1.974 . S
C265 C135 1.984 . S
C269 C79 1.993 . S
C283 C5 0.903 . S
C287 C103 0.914 . S
C301 C117 0.907 . S
C305 C19 0.919 . S
C319 C131 0.916 . S
C323 C33 0.910 . S
C337 C47 0.909 . S
C341 C145 0.907 . S
C355 C159 0.907 . S
C359 C61 0.909 . S
C373 C75 0.914 . S
C377 C89 0.903 . S
C391 C42 2.170 . S
C395 C0 2.157 . S
C409 C56 2.168 . S
C413 C14 2.175 . S
C427 C70 2.168 . S
C431 C28 2.157 . S
C445 C84 2.166 . S
C449 C126 2.176 . S
C463 C98 2.157 . S
C467 C140 2.168 . S
C481 C112 2.175 . S
C485 C154 2.169 . S
C499 C123 1.334 . S
C503 C11 1.335 . S
C517 C137 1.340 . S
C521 C25 1.341 . S
C535 C151 1.334 . S
C539 C39 1.334 . S
C553 C165 1.338 . S
C557 C53 1.339 . S
C571 C95 1.338 . S
C575 C67 1.337 . S
C589 C81 1.341 . S
C593 C109 1.341 . S
