# Generated by pormake.
# Topology yfz, (5)-cn, num edge types: 1
# Building blocks:
#     Node 0, Type 0, BuildingBlock: XOMCOT_clean_sbu_0, # of connection points: 5
#     Node 1, Type 0, BuildingBlock: XOMCOT_clean_sbu_0, # of connection points: 5
#     Node 2, Type 0, BuildingBlock: XOMCOT_clean_sbu_0, # of connection points: 5
#     Node 3, Type 0, BuildingBlock: XOMCOT_clean_sbu_0, # of connection points: 5
#     Node 4, Type 0, BuildingBlock: XOMCOT_clean_sbu_0, # of connection points: 5
#     Node 5, Type 0, BuildingBlock: XOMCOT_clean_sbu_0, # of connection points: 5
#     Node 6, Type 0, BuildingBlock: XOMCOT_clean_sbu_0, # of connection points: 5
#     Node 7, Type 0, BuildingBlock: XOMCOT_clean_sbu_0, # of connection points: 5
#     Edge 8, Type (0, 0), BuildingBlock: XIVTED_clean_linker_0, # of connection points: 2
#     Edge 9, Type (0, 0), BuildingBlock: XIVTED_clean_linker_0, # of connection points: 2
#     Edge 10, Type (0, 0), BuildingBlock: XIVTED_clean_linker_0, # of connection points: 2
#     Edge 11, Type (0, 0), BuildingBlock: XIVTED_clean_linker_0, # of connection points: 2
#     Edge 12, Type (0, 0), BuildingBlock: XIVTED_clean_linker_0, # of connection points: 2
#     Edge 13, Type (0, 0), BuildingBlock: XIVTED_clean_linker_0, # of connection points: 2
#     Edge 14, Type (0, 0), BuildingBlock: XIVTED_clean_linker_0, # of connection points: 2
#     Edge 15, Type (0, 0), BuildingBlock: XIVTED_clean_linker_0, # of connection points: 2
#     Edge 16, Type (0, 0), BuildingBlock: XIVTED_clean_linker_0, # of connection points: 2
#     Edge 17, Type (0, 0), BuildingBlock: XIVTED_clean_linker_0, # of connection points: 2
#     Edge 18, Type (0, 0), BuildingBlock: XIVTED_clean_linker_0, # of connection points: 2
#     Edge 19, Type (0, 0), BuildingBlock: XIVTED_clean_linker_0, # of connection points: 2
#     Edge 20, Type (0, 0), BuildingBlock: XIVTED_clean_linker_0, # of connection points: 2
#     Edge 21, Type (0, 0), BuildingBlock: XIVTED_clean_linker_0, # of connection points: 2
#     Edge 22, Type (0, 0), BuildingBlock: XIVTED_clean_linker_0, # of connection points: 2
#     Edge 23, Type (0, 0), BuildingBlock: XIVTED_clean_linker_0, # of connection points: 2
#     Edge 24, Type (0, 0), BuildingBlock: XIVTED_clean_linker_0, # of connection points: 2
#     Edge 25, Type (0, 0), BuildingBlock: XIVTED_clean_linker_0, # of connection points: 2
#     Edge 26, Type (0, 0), BuildingBlock: XIVTED_clean_linker_0, # of connection points: 2
#     Edge 27, Type (0, 0), BuildingBlock: XIVTED_clean_linker_0, # of connection points: 2
# Relax obj value: 0.170
# Max RMSD: 0.157
# Mean RMSD: 0.157
data_MOF--net-yfz--node1-XOMCOT_clean_sbu_0--edge1-XIVTED_clean_linker_0
_symmetry_space_group_name_H-M    P1
_symmetry_Int_Tables_number       1
_symmetry_cell_setting            triclinic
loop_
_symmetry_equiv_pos_as_xyz
'x, y, z'
_cell_length_a     51.561022
_cell_length_b     51.676525
_cell_length_c     17.673527
_cell_angle_alpha  90.004532
_cell_angle_beta   89.979304
_cell_angle_gamma 90.073916
loop_
_atom_site_label
_atom_site_type_symbol
_atom_site_fract_x
_atom_site_fract_y
_atom_site_fract_z
_atom_type_partial_charge
Co0 Co 0.56443 0.10238 0.33185 0.0
C1 C 0.56038 0.09908 0.16403 0.0
C2 C 0.52491 0.08841 0.21866 0.0
C3 C 0.52097 0.08812 0.14148 0.0
N4 N 0.54984 0.09473 0.23284 0.0
N5 N 0.54332 0.09501 0.1074 0.0
H6 H 0.57977 0.10597 0.15472 0.0
H7 H 0.51034 0.08509 0.26163 0.0
C8 C 0.54156 0.04894 0.35079 0.0
O9 O 0.54996 0.04241 0.28326 0.0
N10 N 0.57811 0.11034 0.43047 0.0
C11 C 0.6016 0.11998 0.44807 0.0
C12 C 0.60336 0.12185 0.52579 0.0
C13 C 0.56585 0.10667 0.49688 0.0
N14 N 0.58087 0.11337 0.55633 0.0
C15 C 0.61368 0.09415 0.26168 0.0
C16 C 0.62732 0.04946 0.33714 0.0
C17 C 0.64475 0.0601 0.28461 0.0
C18 C 0.63758 0.08278 0.24699 0.0
C19 C 0.60317 0.06134 0.34932 0.0
N20 N 0.59616 0.083 0.30967 0.0
H21 H 0.60996 0.11272 0.2365 0.0
H22 H 0.59081 0.05368 0.39316 0.0
H23 H 0.61648 0.12495 0.40744 0.0
H24 H 0.54624 0.09939 0.50134 0.0
O25 O 0.57525 0.13581 0.29494 0.0
O26 O 0.53709 0.12769 0.34784 0.0
O27 O 0.54633 0.07141 0.37755 0.0
C28 C 0.55273 0.14427 0.31622 0.0
H29 H 0.5028 0.0843 0.11293 0.0
H30 H 0.62014 0.12838 0.55722 0.0
H31 H 0.63246 0.03242 0.36947 0.0
H32 H 0.65092 0.09251 0.20908 0.0
Co33 Co 0.38027 0.56686 0.80843 0.0
C34 C 0.38059 0.56188 0.64099 0.0
C35 C 0.40209 0.53126 0.69233 0.0
C36 C 0.40233 0.52769 0.61502 0.0
N37 N 0.38922 0.55333 0.70868 0.0
N38 N 0.38893 0.54716 0.58296 0.0
H39 H 0.36714 0.57768 0.63394 0.0
H40 H 0.41007 0.51799 0.73331 0.0
C41 C 0.43278 0.54449 0.84431 0.0
O42 O 0.44302 0.55858 0.79007 0.0
N43 N 0.37077 0.57954 0.90721 0.0
C44 C 0.3602 0.60267 0.92364 0.0
C45 C 0.35729 0.60445 1.00091 0.0
C46 C 0.37395 0.56746 0.9741 0.0
N47 N 0.36603 0.58232 0.0326 0.0
C48 C 0.39873 0.61307 0.73675 0.0
C49 C 0.43272 0.62834 0.84884 0.0
C50 C 0.42852 0.64489 0.78702 0.0
C51 C 0.41148 0.6367 0.73025 0.0
C52 C 0.41969 0.6045 0.85268 0.0
N53 N 0.40312 0.59688 0.79633 0.0
H54 H 0.3839 0.60892 0.69619 0.0
H55 H 0.42212 0.59268 0.90261 0.0
H56 H 0.35534 0.61734 0.8824 0.0
H57 H 0.38253 0.54849 0.97986 0.0
O58 O 0.34926 0.58204 0.76788 0.0
O59 O 0.35177 0.54214 0.81316 0.0
O60 O 0.40838 0.54521 0.857 0.0
C61 C 0.33761 0.56037 0.78322 0.0
H62 H 0.41155 0.51194 0.58498 0.0
H63 H 0.34939 0.62084 0.03117 0.0
H64 H 0.44536 0.63405 0.89485 0.0
H65 H 0.40654 0.64924 0.68331 0.0
Co66 Co 0.9124 0.37153 0.32995 0.0
C67 C 0.91592 0.37688 0.16215 0.0
C68 C 0.95223 0.38432 0.21658 0.0
C69 C 0.95585 0.38561 0.13935 0.0
N70 N 0.92703 0.37931 0.231 0.0
N71 N 0.93293 0.38094 0.10525 0.0
H72 H 0.89627 0.37074 0.15283 0.0
H73 H 0.96709 0.38633 0.25937 0.0
C74 C 0.93614 0.42457 0.34897 0.0
O75 O 0.9284 0.43107 0.28077 0.0
N76 N 0.8986 0.36345 0.4285 0.0
C77 C 0.87494 0.35406 0.44555 0.0
C78 C 0.8728 0.35247 0.52322 0.0
C79 C 0.91061 0.36715 0.49532 0.0
N80 N 0.89526 0.36074 0.55436 0.0
C81 C 0.863 0.37986 0.26105 0.0
C82 C 0.84997 0.425 0.3352 0.0
C83 C 0.83223 0.4142 0.28384 0.0
C84 C 0.8391 0.3913 0.24686 0.0
C85 C 0.87408 0.41301 0.34699 0.0
N86 N 0.88076 0.39109 0.30806 0.0
H87 H 0.86661 0.36125 0.23586 0.0
H88 H 0.88666 0.42082 0.39002 0.0
H89 H 0.86021 0.34906 0.40453 0.0
H90 H 0.92999 0.375 0.50054 0.0
O91 O 0.90149 0.33821 0.29245 0.0
O92 O 0.93962 0.34609 0.34572 0.0
O93 O 0.93064 0.40232 0.3761 0.0
C94 C 0.92395 0.32962 0.31376 0.0
H95 H 0.97403 0.38936 0.11076 0.0
H96 H 0.856 0.34571 0.55421 0.0
H97 H 0.8451 0.44224 0.36694 0.0
H98 H 0.82557 0.38147 0.20977 0.0
Co99 Co 0.09526 0.91121 0.78584 0.0
C100 C 0.09909 0.92165 0.62043 0.0
C101 C 0.0657 0.94027 0.66708 0.0
C102 C 0.06611 0.94457 0.59021 0.0
N103 N 0.08607 0.92524 0.68623 0.0
N104 N 0.08699 0.93258 0.56068 0.0
H105 H 0.11654 0.91025 0.61569 0.0
H106 H 0.05117 0.94764 0.70504 0.0
C107 C 0.04284 0.93014 0.83999 0.0
O108 O 0.03111 0.91243 0.79917 0.0
N109 N 0.10526 0.89874 0.88489 0.0
C110 C 0.11664 0.87612 0.90298 0.0
C111 C 0.11986 0.87523 0.98043 0.0
C112 C 0.10229 0.91148 0.95084 0.0
N113 N 0.11071 0.89748 0.01048 0.0
C114 C 0.07105 0.86998 0.7019 0.0
C115 C 0.05136 0.84318 0.82406 0.0
C116 C 0.05151 0.83107 0.75276 0.0
C117 C 0.06 0.84573 0.69083 0.0
C118 C 0.06143 0.86831 0.83216 0.0
N119 N 0.07229 0.88109 0.77194 0.0
H120 H 0.07997 0.87875 0.65364 0.0
H121 H 0.06154 0.87692 0.88787 0.0
H122 H 0.12166 0.86112 0.86291 0.0
H123 H 0.09424 0.93073 0.95488 0.0
O124 O 0.1258 0.89561 0.74452 0.0
O125 O 0.12419 0.93553 0.79026 0.0
O126 O 0.06747 0.93298 0.8363 0.0
C127 C 0.13794 0.917 0.75996 0.0
H128 H 0.05151 0.95494 0.55846 0.0
H129 H 0.1277 0.85912 0.01204 0.0
H130 H 0.04486 0.83302 0.87412 0.0
H131 H 0.05954 0.83809 0.63384 0.0
Co132 Co 0.56197 0.37469 0.20528 0.0
C133 C 0.55664 0.37622 0.37337 0.0
C134 C 0.52754 0.39914 0.31947 0.0
C135 C 0.52342 0.39983 0.39644 0.0
N136 N 0.54899 0.38505 0.30476 0.0
N137 N 0.5418 0.3854 0.43036 0.0
H138 H 0.57207 0.36247 0.38168 0.0
H139 H 0.51481 0.4074 0.27747 0.0
C140 C 0.54298 0.42843 0.16694 0.0
O141 O 0.55758 0.43824 0.22073 0.0
N142 N 0.57392 0.36396 0.10654 0.0
C143 C 0.59639 0.35209 0.08927 0.0
C144 C 0.59769 0.34911 0.01177 0.0
C145 C 0.56181 0.36787 0.03995 0.0
N146 N 0.57597 0.35918 0.98089 0.0
C147 C 0.60963 0.38968 0.27628 0.0
C148 C 0.62675 0.423 0.1648 0.0
C149 C 0.64308 0.41779 0.2265 0.0
C150 C 0.63402 0.40103 0.28284 0.0
C151 C 0.60219 0.41133 0.16081 0.0
N152 N 0.59363 0.39521 0.21702 0.0
H153 H 0.60457 0.37507 0.31662 0.0
H154 H 0.5905 0.41451 0.11096 0.0
H155 H 0.61104 0.34658 0.12998 0.0
H156 H 0.54301 0.37697 0.03482 0.0
O157 O 0.57445 0.34274 0.24799 0.0
O158 O 0.53503 0.34852 0.20038 0.0
O159 O 0.54249 0.40402 0.15538 0.0
C160 C 0.55174 0.33317 0.23259 0.0
H161 H 0.50746 0.40936 0.42478 0.0
H162 H 0.61378 0.34095 0.98055 0.0
H163 H 0.6331 0.43545 0.11911 0.0
H164 H 0.64633 0.39534 0.32962 0.0
Co165 Co 0.10133 0.56416 0.69448 0.0
C166 C 0.10046 0.55904 0.86265 0.0
C167 C 0.08639 0.52485 0.80841 0.0
C168 C 0.0862 0.52084 0.88554 0.0
N169 N 0.09443 0.54924 0.79394 0.0
N170 N 0.09493 0.5425 0.9195 0.0
H171 H 0.11054 0.57702 0.87152 0.0
H172 H 0.08159 0.5106 0.76588 0.0
C173 C 0.05 0.53805 0.66945 0.0
O174 O 0.04161 0.54853 0.73262 0.0
N175 N 0.10883 0.5782 0.59572 0.0
C176 C 0.11704 0.60231 0.57966 0.0
C177 C 0.11911 0.60472 0.50228 0.0
C178 C 0.10626 0.56618 0.52846 0.0
N179 N 0.11224 0.582 0.47009 0.0
C180 C 0.08345 0.61043 0.76687 0.0
C181 C 0.04482 0.62236 0.66473 0.0
C182 C 0.05072 0.64009 0.72234 0.0
C183 C 0.06993 0.63356 0.77462 0.0
C184 C 0.05844 0.59891 0.66026 0.0
N185 N 0.07744 0.59299 0.71156 0.0
H186 H 0.10029 0.60795 0.8015 0.0
H187 H 0.05487 0.58641 0.6124 0.0
H188 H 0.12091 0.61717 0.62127 0.0
H189 H 0.09957 0.54645 0.52245 0.0
O190 O 0.13226 0.58019 0.73285 0.0
O191 O 0.13071 0.54071 0.68419 0.0
O192 O 0.07326 0.54205 0.64723 0.0
C193 C 0.14453 0.55922 0.7142 0.0
H194 H 0.08027 0.50328 0.91412 0.0
H195 H 0.12523 0.62192 0.47226 0.0
H196 H 0.03065 0.62706 0.62167 0.0
H197 H 0.07611 0.64723 0.81749 0.0
Co198 Co 0.91526 0.099 0.20794 0.0
C199 C 0.92081 0.09829 0.37568 0.0
C200 C 0.94985 0.07506 0.32261 0.0
C201 C 0.95404 0.0748 0.39957 0.0
N202 N 0.92837 0.08906 0.3075 0.0
N203 N 0.9357 0.08944 0.43288 0.0
H204 H 0.9054 0.1121 0.38353 0.0
H205 H 0.96254 0.06657 0.28086 0.0
C206 C 0.93421 0.04511 0.17164 0.0
O207 O 0.91988 0.03566 0.22659 0.0
N208 N 0.90323 0.10933 0.10913 0.0
C209 C 0.88064 0.12083 0.09109 0.0
C210 C 0.87956 0.12359 0.01346 0.0
C211 C 0.91563 0.10546 0.04302 0.0
N212 N 0.90154 0.11376 0.98345 0.0
C213 C 0.86769 0.08435 0.28025 0.0
C214 C 0.85032 0.0506 0.17022 0.0
C215 C 0.83415 0.05606 0.23213 0.0
C216 C 0.84333 0.07301 0.28774 0.0
C217 C 0.8749 0.06219 0.16544 0.0
N218 N 0.88358 0.07856 0.2209 0.0
H219 H 0.87281 0.09914 0.31994 0.0
H220 H 0.88652 0.05879 0.11553 0.0
H221 H 0.86579 0.12623 0.13133 0.0
H222 H 0.9346 0.09668 0.03865 0.0
O223 O 0.90287 0.13114 0.24965 0.0
O224 O 0.94223 0.12509 0.20173 0.0
O225 O 0.9346 0.06943 0.15872 0.0
C226 C 0.92558 0.14059 0.23363 0.0
H227 H 0.96999 0.06542 0.42831 0.0
H228 H 0.86347 0.13143 0.98157 0.0
H229 H 0.84382 0.03802 0.12504 0.0
H230 H 0.83112 0.07885 0.33463 0.0
Co231 Co 0.37426 0.90824 0.6808 0.0
C232 C 0.37789 0.91279 0.84932 0.0
C233 C 0.38346 0.94908 0.79337 0.0
C234 C 0.38434 0.95318 0.8704 0.0
N235 N 0.37992 0.92362 0.77998 0.0
N236 N 0.38087 0.93027 0.90546 0.0
H237 H 0.37294 0.89291 0.85955 0.0
H238 H 0.38492 0.96376 0.74994 0.0
C239 C 0.42576 0.93525 0.66502 0.0
O240 O 0.43226 0.92715 0.73288 0.0
N241 N 0.36825 0.89374 0.58189 0.0
C242 C 0.36079 0.86942 0.56525 0.0
C243 C 0.35972 0.8669 0.48768 0.0
C244 C 0.37133 0.90576 0.51484 0.0
N245 N 0.36639 0.88977 0.45609 0.0
C246 C 0.38689 0.86039 0.7524 0.0
C247 C 0.43246 0.85019 0.67628 0.0
C248 C 0.42323 0.83208 0.72908 0.0
C249 C 0.40012 0.83755 0.76714 0.0
C250 C 0.41869 0.87329 0.66412 0.0
N251 N 0.39654 0.87861 0.70399 0.0
H252 H 0.36804 0.86261 0.77769 0.0
H253 H 0.42526 0.88611 0.61993 0.0
H254 H 0.35666 0.85454 0.60656 0.0
H255 H 0.3776 0.92566 0.50928 0.0
O256 O 0.34192 0.89392 0.71506 0.0
O257 O 0.34607 0.93281 0.66422 0.0
O258 O 0.40378 0.92915 0.63679 0.0
C259 C 0.33093 0.91521 0.69336 0.0
H260 H 0.38713 0.97163 0.89819 0.0
H261 H 0.35431 0.84959 0.45706 0.0
H262 H 0.44978 0.84631 0.64355 0.0
H263 H 0.39143 0.82356 0.80518 0.0
H264 H 0.46754 0.96335 0.71491 0.0
H265 H 0.5143 0.00648 0.30207 0.0
H266 H 0.4261 0.94264 0.51158 0.0
H267 H 0.53367 0.04932 0.50391 0.0
H268 H 0.48704 0.97764 0.37865 0.0
H269 H 0.49709 0.98991 0.63861 0.0
C270 C 0.46473 0.96428 0.65424 0.0
C271 C 0.44422 0.95087 0.61966 0.0
C272 C 0.49734 0.99332 0.40607 0.0
C273 C 0.47811 0.98097 0.53206 0.0
C274 C 0.513 0.00969 0.36252 0.0
C275 C 0.52618 0.03041 0.39657 0.0
C276 C 0.4952 0.99743 0.48443 0.0
C277 C 0.52369 0.03372 0.47517 0.0
C278 C 0.48154 0.9795 0.61081 0.0
C279 C 0.44149 0.95283 0.54075 0.0
N280 N 0.50857 0.01738 0.51644 0.0
N281 N 0.45829 0.9675 0.49961 0.0
H282 H 0.49929 0.41547 0.08812 0.0
H283 H 0.48488 0.54921 0.87134 0.0
H284 H 0.54944 0.48018 0.13776 0.0
H285 H 0.41868 0.50134 0.92405 0.0
H286 H 0.51195 0.52122 0.9511 0.0
H287 H 0.47244 0.44386 0.00957 0.0
C288 C 0.50468 0.43565 0.08241 0.0
C289 C 0.52657 0.44553 0.11982 0.0
C290 C 0.49149 0.51691 0.94507 0.0
C291 C 0.49617 0.47793 0.02909 0.0
C292 C 0.47608 0.53275 0.89932 0.0
C293 C 0.4495 0.52757 0.89104 0.0
C294 C 0.48035 0.49543 0.98131 0.0
C295 C 0.43907 0.50608 0.92906 0.0
C296 C 0.4893 0.45182 0.03784 0.0
C297 C 0.53262 0.47184 0.11039 0.0
N298 N 0.45456 0.49066 0.97199 0.0
N299 N 0.51762 0.48711 0.0654 0.0
H300 H 0.96584 0.46538 0.30051 0.0
H301 H 0.00597 0.51267 0.71443 0.0
H302 H 0.94166 0.42533 0.50286 0.0
H303 H 0.05364 0.52708 0.51818 0.0
H304 H 0.97716 0.48598 0.63619 0.0
H305 H 0.99309 0.49386 0.37836 0.0
C306 C 0.96609 0.46272 0.3613 0.0
C307 C 0.95154 0.4429 0.39522 0.0
C308 C 0.99394 0.495 0.61039 0.0
C309 C 0.98245 0.47546 0.4844 0.0
C310 C 0.01033 0.51029 0.65488 0.0
C311 C 0.03233 0.52199 0.62288 0.0
C312 C 0.99928 0.49182 0.53301 0.0
C313 C 0.03705 0.51822 0.54536 0.0
C314 C 0.98174 0.47886 0.40556 0.0
C315 C 0.9527 0.44024 0.47427 0.0
N316 N 0.02059 0.50358 0.50297 0.0
N317 N 0.9678 0.45639 0.51619 0.0
H318 H 0.92969 0.99255 0.15393 0.0
H319 H 0.05695 0.97687 0.90151 0.0
H320 H 0.97552 0.058 0.08185 0.0
H321 H 0.99336 0.9226 0.89144 0.0
H322 H 0.03071 0.00482 0.98343 0.0
H323 H 0.95629 0.96441 0.07354 0.0
C324 C 0.94541 1.00098 0.12155 0.0
C325 C 0.95037 0.02767 0.1246 0.0
C326 C 0.02253 0.98681 0.96306 0.0
C327 C 0.98098 0.99557 0.03322 0.0
C328 C 0.03749 0.97083 0.91649 0.0
C329 C 0.02727 0.94744 0.8891 0.0
C330 C 0.99736 0.97912 0.98367 0.0
C331 C 1.00194 0.94056 0.91062 0.0
C332 C 0.96049 0.98494 0.07546 0.0
C333 C 0.97094 0.03755 0.08105 0.0
N334 N 0.98792 0.95624 0.95698 0.0
N335 N 0.98558 0.02149 0.03756 0.0
H336 H 0.55369 0.17034 0.1836 0.0
H337 H 0.56556 0.30647 0.35835 0.0
H338 H 0.53691 0.17975 0.42082 0.0
H339 H 0.52506 0.29823 0.14637 0.0
H340 H 0.55973 0.25997 0.38171 0.0
H341 H 0.5475 0.21707 0.1652 0.0
C342 C 0.54832 0.1823 0.23148 0.0
C343 C 0.54562 0.17143 0.30366 0.0
C344 C 0.55179 0.26845 0.33069 0.0
C345 C 0.53941 0.22458 0.28366 0.0
C346 C 0.55521 0.29484 0.31718 0.0
C347 C 0.54576 0.306 0.25039 0.0
C348 C 0.53966 0.25305 0.27576 0.0
C349 C 0.53247 0.29025 0.19871 0.0
C350 C 0.54473 0.20881 0.22096 0.0
C351 C 0.53887 0.18755 0.36423 0.0
N352 N 0.53029 0.26436 0.21167 0.0
N353 N 0.53653 0.21353 0.35324 0.0
H354 H 0.17714 0.59871 0.74682 0.0
H355 H 0.30656 0.5168 0.79622 0.0
H356 H 0.17673 0.51642 0.70497 0.0
H357 H 0.30431 0.59803 0.73976 0.0
H358 H 0.25913 0.5147 0.77777 0.0
H359 H 0.22386 0.59735 0.76207 0.0
C360 C 0.18688 0.58026 0.74102 0.0
C361 C 0.17297 0.55764 0.72437 0.0
C362 C 0.2692 0.53286 0.76909 0.0
C363 C 0.22688 0.55596 0.74201 0.0
C364 C 0.29617 0.5341 0.77975 0.0
C365 C 0.3094 0.55765 0.76979 0.0
C366 C 0.25554 0.55543 0.74964 0.0
C367 C 0.29502 0.57946 0.74826 0.0
C368 C 0.21366 0.57953 0.74941 0.0
C369 C 0.18678 0.53432 0.71745 0.0
N370 N 0.26896 0.57784 0.73955 0.0
N371 N 0.21308 0.53402 0.72664 0.0
H372 H 0.91312 0.16739 0.36042 0.0
H373 H 0.92058 0.30298 0.18244 0.0
H374 H 0.95099 0.1755 0.14424 0.0
H375 H 0.94211 0.29465 0.4167 0.0
H376 H 0.92704 0.25628 0.16436 0.0
H377 H 0.91884 0.214 0.38237 0.0
C378 C 0.9229 0.17902 0.31804 0.0
C379 C 0.93163 0.1678 0.25049 0.0
C380 C 0.93077 0.26478 0.21934 0.0
C381 C 0.93756 0.22084 0.27426 0.0
C382 C 0.92701 0.29127 0.22971 0.0
C383 C 0.93096 0.30243 0.301 0.0
C384 C 0.93753 0.24931 0.28144 0.0
C385 C 0.93912 0.28662 0.36078 0.0
C386 C 0.92625 0.20546 0.33074 0.0
C387 C 0.94416 0.18354 0.19719 0.0
N388 N 0.94161 0.26064 0.35013 0.0
N389 N 0.94626 0.20947 0.20943 0.0
H390 H 0.30123 0.95988 0.68858 0.0
H391 H 0.16913 0.87974 0.70286 0.0
H392 H 0.29586 0.87696 0.71308 0.0
H393 H 0.171 0.95887 0.7811 0.0
H394 H 0.21557 0.88132 0.6827 0.0
H395 H 0.25354 0.96258 0.70201 0.0
C396 C 0.29006 0.94232 0.69648 0.0
C397 C 0.30249 0.91816 0.69982 0.0
C398 C 0.20592 0.89841 0.70426 0.0
C399 C 0.24846 0.92108 0.71413 0.0
C400 C 0.17929 0.89757 0.71567 0.0
C401 C 0.1661 0.91915 0.74448 0.0
C402 C 0.21978 0.92103 0.72126 0.0
C403 C 0.18047 0.94174 0.75929 0.0
C404 C 0.26298 0.94389 0.70445 0.0
C405 C 0.28719 0.89601 0.71047 0.0
N406 N 0.20667 0.94212 0.74761 0.0
N407 N 0.2611 0.89801 0.71677 0.0
H408 H 0.44133 0.79861 0.62049 0.0
H409 H 0.43257 0.67977 0.90372 0.0
H410 H 0.43213 0.80643 0.86197 0.0
H411 H 0.44745 0.67169 0.66461 0.0
H412 H 0.44058 0.7262 0.89299 0.0
H413 H 0.4518 0.75282 0.63816 0.0
C414 C 0.4422 0.79087 0.67739 0.0
C415 C 0.43543 0.80627 0.73974 0.0
C416 C 0.44255 0.71423 0.84302 0.0
C417 C 0.44684 0.75374 0.76036 0.0
C418 C 0.43817 0.68761 0.84929 0.0
C419 C 0.43889 0.6718 0.78473 0.0
C420 C 0.44747 0.7252 0.77159 0.0
C421 C 0.44606 0.68323 0.71558 0.0
C422 C 0.44798 0.76465 0.68747 0.0
C423 C 0.4367 0.79512 0.81217 0.0
N424 N 0.44964 0.70924 0.71059 0.0
N425 N 0.44183 0.76949 0.82037 0.0
H426 H 0.79819 0.43171 0.39199 0.0
H427 H 0.67825 0.42106 0.11007 0.0
H428 H 0.80552 0.42017 0.15121 0.0
H429 H 0.67052 0.43514 0.34969 0.0
H430 H 0.72489 0.42843 0.12069 0.0
H431 H 0.75197 0.44072 0.37475 0.0
C432 C 0.79023 0.43168 0.33529 0.0
C433 C 0.80567 0.42479 0.27309 0.0
C434 C 0.71297 0.4303 0.17083 0.0
C435 C 0.75267 0.43459 0.253 0.0
C436 C 0.68623 0.42629 0.16464 0.0
C437 C 0.67042 0.42709 0.22929 0.0
C438 C 0.72405 0.43499 0.24223 0.0
C439 C 0.68203 0.43374 0.29862 0.0
C440 C 0.76377 0.43663 0.32549 0.0
C441 C 0.79421 0.42487 0.20095 0.0
N442 N 0.70814 0.43706 0.30345 0.0
N443 N 0.76839 0.4293 0.19304 0.0
H444 H 0.07191 0.79731 0.64805 0.0
H445 H 0.03155 0.66843 0.84126 0.0
H446 H 0.01832 0.79937 0.8364 0.0
H447 H 0.04852 0.67332 0.60277 0.0
H448 H 0.02582 0.71559 0.84461 0.0
H449 H 0.06375 0.75167 0.63396 0.0
C450 C 0.05789 0.78853 0.68564 0.0
C451 C 0.04547 0.80287 0.74293 0.0
C452 C 0.03013 0.70623 0.79124 0.0
C453 C 0.03704 0.74938 0.7286 0.0
C454 C 0.03339 0.67937 0.78925 0.0
C455 C 0.04066 0.66699 0.72168 0.0
C456 C 0.03476 0.72078 0.72558 0.0
C457 C 0.04282 0.68203 0.65594 0.0
C458 C 0.05342 0.76215 0.67766 0.0
C459 C 0.02859 0.78938 0.79178 0.0
N460 N 0.04042 0.70817 0.65987 0.0
N461 N 0.02512 0.76332 0.78412 0.0
H462 H 0.80752 0.03817 0.356 0.0
H463 H 0.67058 0.05302 0.15103 0.0
H464 H 0.79827 0.05346 0.11757 0.0
H465 H 0.67967 0.04405 0.39216 0.0
H466 H 0.7168 0.04432 0.1345 0.0
H467 H 0.76072 0.03147 0.36656 0.0
C468 C 0.79568 0.03975 0.3056 0.0
C469 C 0.80683 0.04678 0.23598 0.0
C470 C 0.70866 0.04385 0.19097 0.0
C471 C 0.75313 0.03919 0.24776 0.0
C472 C 0.68226 0.04881 0.20045 0.0
C473 C 0.67131 0.04963 0.2732 0.0
C474 C 0.72437 0.03982 0.25475 0.0
C475 C 0.68727 0.04362 0.33508 0.0
C476 C 0.76895 0.03589 0.31168 0.0
C477 C 0.79058 0.04806 0.17235 0.0
N478 N 0.71307 0.03937 0.32455 0.0
N479 N 0.76453 0.0447 0.18 0.0
H480 H 0.54547 0.08102 0.62087 0.0
H481 H 0.57748 0.12823 0.0418 0.0
H482 H 0.60161 0.14036 0.67384 0.0
H483 H 0.51952 0.07058 0.99023 0.0
H484 H 0.58621 0.13308 0.9071 0.0
H485 H 0.53517 0.07732 0.75512 0.0
C486 C 0.55552 0.09345 0.66048 0.0
C487 C 0.57446 0.1111 0.6356 0.0
C488 C 0.57156 0.11937 0.92508 0.0
C489 C 0.56291 0.10667 0.7901 0.0
C490 C 0.56667 0.11644 1.00222 0.0
C491 C 0.54789 0.09875 0.0276 0.0
C492 C 0.55763 0.10447 0.87252 0.0
C493 C 0.53406 0.08452 0.97323 0.0
C494 C 0.54971 0.09119 0.73736 0.0
C495 C 0.58712 0.12629 0.69018 0.0
N496 N 0.53928 0.08761 0.89829 0.0
N497 N 0.58113 0.12371 0.76472 0.0
H498 H 0.38012 0.59345 0.51605 0.0
H499 H 0.36941 0.53472 0.09845 0.0
H500 H 0.38828 0.51199 0.46796 0.0
H501 H 0.36745 0.6164 0.14976 0.0
H502 H 0.37451 0.52552 0.23319 0.0
H503 H 0.3732 0.60163 0.3821 0.0
C504 C 0.38021 0.57721 0.47742 0.0
C505 C 0.38464 0.55195 0.50357 0.0
C506 C 0.3729 0.54544 0.21483 0.0
C507 C 0.37709 0.56128 0.34914 0.0
C508 C 0.3701 0.55075 0.13776 0.0
C509 C 0.36804 0.57643 0.11223 0.0
C510 C 0.37361 0.56594 0.26692 0.0
C511 C 0.36863 0.59632 0.16638 0.0
C512 C 0.37644 0.58193 0.40066 0.0
C513 C 0.38513 0.53177 0.45033 0.0
N514 N 0.3714 0.59064 0.24092 0.0
N515 N 0.38137 0.53687 0.37558 0.0
H516 H 0.88649 0.38722 0.03493 0.0
H517 H 0.94289 0.35992 0.62051 0.0
H518 H 0.96712 0.3704 0.99151 0.0
H519 H 0.86135 0.3679 0.67025 0.0
H520 H 0.95257 0.36566 0.75487 0.0
H521 H 0.87738 0.38208 0.90059 0.0
C522 C 0.9023 0.38231 0.99736 0.0
C523 C 0.92762 0.37902 0.02515 0.0
C524 C 0.93255 0.36611 0.73638 0.0
C525 C 0.91729 0.37344 0.87019 0.0
C526 C 0.92701 0.36296 0.65954 0.0
C527 C 0.90123 0.36342 0.63379 0.0
C528 C 0.9122 0.3699 0.78803 0.0
C529 C 0.88146 0.36708 0.68739 0.0
C530 C 0.89708 0.37949 0.92037 0.0
C531 C 0.94737 0.3733 0.97294 0.0
N532 N 0.88736 0.37024 0.76177 0.0
N533 N 0.94177 0.37063 0.89808 0.0
H534 H 0.07911 0.93362 0.07492 0.0
H535 H 0.11754 0.89535 0.49665 0.0
H536 H 0.13794 0.87706 0.12847 0.0
H537 H 0.07044 0.96185 0.44175 0.0
H538 H 0.12527 0.88844 0.36261 0.0
H539 H 0.07555 0.94406 0.20868 0.0
C540 C 0.09153 0.92353 0.11436 0.0
C541 C 0.10892 0.90435 0.08963 0.0
C542 C 0.11338 0.90465 0.37992 0.0
C543 C 0.10448 0.91604 0.24409 0.0
C544 C 0.10904 0.90878 0.45691 0.0
C545 C 0.09318 0.92927 0.48142 0.0
C546 C 0.10164 0.92094 0.3265 0.0
C547 C 0.08244 0.94558 0.42604 0.0
C548 C 0.08935 0.92947 0.19111 0.0
C549 C 0.12403 0.8917 0.14447 0.0
N550 N 0.08673 0.94097 0.35132 0.0
N551 N 0.12137 0.89769 0.21901 0.0
H552 H 0.52451 0.41521 0.54668 0.0
H553 H 0.59285 0.32879 0.86537 0.0
H554 H 0.56643 0.34484 0.49841 0.0
H555 H 0.54539 0.39545 0.91418 0.0
H556 H 0.58346 0.33429 0.7307 0.0
H557 H 0.5315 0.40794 0.6815 0.0
C558 C 0.53499 0.39811 0.5642 0.0
C559 C 0.54496 0.38072 0.5105 0.0
C560 C 0.57502 0.34766 0.77093 0.0
C561 C 0.5534 0.37244 0.66551 0.0
C562 C 0.58049 0.34459 0.84786 0.0
C563 C 0.56993 0.36167 0.90143 0.0
C564 C 0.55897 0.36805 0.74709 0.0
C565 C 0.55372 0.38161 0.87529 0.0
C566 C 0.53912 0.39405 0.6414 0.0
C567 C 0.55874 0.35908 0.53714 0.0
N568 N 0.54885 0.3843 0.8001 0.0
N569 N 0.5626 0.35562 0.61259 0.0
H570 H 0.10146 0.50717 0.03266 0.0
H571 H 0.1064 0.61625 0.35457 0.0
H572 H 0.09485 0.58913 0.98992 0.0
H573 H 0.11365 0.53463 0.40214 0.0
H574 H 0.10279 0.60632 0.22046 0.0
H575 H 0.10601 0.5164 0.16794 0.0
C576 C 0.10091 0.52707 0.05155 0.0
C577 C 0.0979 0.54739 0.99949 0.0
C578 C 0.10521 0.59054 0.26014 0.0
C579 C 0.10324 0.55811 0.15426 0.0
C580 C 0.10745 0.59623 0.337 0.0
C581 C 0.11041 0.57628 0.39024 0.0
C582 C 0.10589 0.56468 0.23579 0.0
C583 C 0.11111 0.55065 0.36353 0.0
C584 C 0.10363 0.53234 0.12881 0.0
C585 C 0.09758 0.57284 0.02747 0.0
N586 N 0.10887 0.54559 0.28824 0.0
N587 N 0.10019 0.57743 0.10271 0.0
H588 H 0.91176 0.1308 0.49859 0.0
H589 H 0.93271 0.07752 0.91927 0.0
H590 H 0.95226 0.05992 0.55054 0.0
H591 H 0.88495 0.1436 0.86639 0.0
H592 H 0.94276 0.07273 0.78522 0.0
H593 H 0.90425 0.13752 0.63336 0.0
C594 C 0.91903 0.11657 0.53808 0.0
C595 C 0.9325 0.09458 0.51268 0.0
C596 C 0.93013 0.08833 0.80287 0.0
C597 C 0.92419 0.10243 0.66778 0.0
C598 C 0.92451 0.0912 0.87963 0.0
C599 C 0.90797 0.11106 0.90438 0.0
C600 C 0.91921 0.10545 0.75011 0.0
C601 C 0.89756 0.12787 0.84989 0.0
C602 C 0.91483 0.12052 0.61526 0.0
C603 C 0.94197 0.07722 0.56721 0.0
N604 N 0.90336 0.1247 0.77537 0.0
N605 N 0.93755 0.08147 0.64202 0.0
H606 H 0.37615 0.85609 0.34163 0.0
H607 H 0.36869 0.9643 0.01797 0.0
H608 H 0.36202 0.93683 0.38808 0.0
H609 H 0.39014 0.88476 0.97759 0.0
H610 H 0.36559 0.95484 0.15324 0.0
H611 H 0.38007 0.86626 0.20742 0.0
C612 C 0.3737 0.87595 0.32366 0.0
C613 C 0.36867 0.8956 0.37648 0.0
C614 C 0.37099 0.93948 0.11468 0.0
C615 C 0.37341 0.9075 0.22233 0.0
C616 C 0.37289 0.9449 0.03735 0.0
C617 C 0.37953 0.92528 0.98582 0.0
C618 C 0.37573 0.91425 0.14084 0.0
C619 C 0.38447 0.90042 0.01462 0.0
C620 C 0.37613 0.88179 0.24691 0.0
C621 C 0.36616 0.92108 0.34965 0.0
N622 N 0.38242 0.89563 0.08995 0.0
N623 N 0.36848 0.92628 0.27448 0.0
loop_
_geom_bond_atom_site_label_1
_geom_bond_atom_site_label_2
_geom_bond_distance
_geom_bond_site_symmetry_2
_ccdc_geom_bond_type
Co0 N4 2.148 . S
Co0 N10 2.128 . S
Co0 N20 2.194 . S
Co0 O25 2.351 . S
Co0 O26 2.155 . S
Co0 O27 2.096 . S
C1 N4 1.301 . S
C1 N5 1.328 . S
C1 H6 0.930 . S
C2 C3 1.333 . S
C2 N4 1.317 . S
C2 H7 0.930 . S
C3 C2 1.333 . S
C3 N5 1.350 . S
C3 H29 0.931 . S
N4 Co0 2.148 . S
N4 C1 1.301 . S
N4 C2 1.317 . S
N5 C1 1.328 . S
N5 C3 1.350 . S
H6 C1 0.930 . S
H7 C2 0.930 . S
C8 O9 1.224 . S
C8 O27 1.247 . S
O9 C8 1.224 . S
N10 Co0 2.128 . S
N10 C11 1.355 . S
N10 C13 1.311 . S
C11 N10 1.355 . S
C11 C12 1.363 . S
C11 H23 0.929 . S
C12 C11 1.363 . S
C12 N14 1.375 . S
C12 H30 0.931 . S
C13 N10 1.311 . S
C13 N14 1.347 . S
C13 H24 0.929 . S
N14 C12 1.375 . S
N14 C13 1.347 . S
C15 C18 1.365 . S
C15 N20 1.328 . S
C15 H21 0.929 . S
C16 C17 1.362 . S
C16 C19 1.378 . S
C16 H31 0.929 . S
C17 C16 1.362 . S
C17 C18 1.366 . S
C18 C15 1.365 . S
C18 C17 1.366 . S
C18 H32 0.930 . S
C19 C16 1.378 . S
C19 N20 1.315 . S
C19 H22 0.930 . S
N20 Co0 2.194 . S
N20 C15 1.328 . S
N20 C19 1.315 . S
H21 C15 0.929 . S
H22 C19 0.930 . S
H23 C11 0.929 . S
H24 C13 0.929 . S
O25 Co0 2.351 . S
O25 C28 1.244 . S
O26 Co0 2.155 . S
O26 C28 1.240 . S
O27 Co0 2.096 . S
O27 C8 1.247 . S
C28 O25 1.244 . S
C28 O26 1.240 . S
H29 C3 0.931 . S
H30 C12 0.931 . S
H31 C16 0.929 . S
H32 C18 0.930 . S
Co33 N37 2.148 . S
Co33 N43 2.128 . S
Co33 N53 2.194 . S
Co33 O58 2.351 . S
Co33 O59 2.155 . S
Co33 O60 2.096 . S
C34 N37 1.301 . S
C34 N38 1.328 . S
C34 H39 0.930 . S
C35 C36 1.333 . S
C35 N37 1.317 . S
C35 H40 0.930 . S
C36 C35 1.333 . S
C36 N38 1.350 . S
C36 H62 0.931 . S
N37 Co33 2.148 . S
N37 C34 1.301 . S
N37 C35 1.317 . S
N38 C34 1.328 . S
N38 C36 1.350 . S
H39 C34 0.930 . S
H40 C35 0.930 . S
C41 O42 1.224 . S
C41 O60 1.247 . S
O42 C41 1.224 . S
N43 Co33 2.128 . S
N43 C44 1.355 . S
N43 C46 1.311 . S
C44 N43 1.355 . S
C44 C45 1.363 1_556 S
C44 H56 0.929 . S
C45 C44 1.363 1_554 S
C45 N47 1.375 . S
C45 H63 0.931 . S
C46 N43 1.311 . S
C46 N47 1.347 1_556 S
C46 H57 0.929 . S
N47 C45 1.375 . S
N47 C46 1.347 1_554 S
C48 C51 1.365 . S
C48 N53 1.328 . S
C48 H54 0.929 . S
C49 C50 1.362 . S
C49 C52 1.378 . S
C49 H64 0.929 . S
C50 C49 1.362 . S
C50 C51 1.366 . S
C51 C48 1.365 . S
C51 C50 1.366 . S
C51 H65 0.930 . S
C52 C49 1.378 . S
C52 N53 1.315 . S
C52 H55 0.930 . S
N53 Co33 2.194 . S
N53 C48 1.328 . S
N53 C52 1.315 . S
H54 C48 0.929 . S
H55 C52 0.930 . S
H56 C44 0.929 . S
H57 C46 0.929 . S
O58 Co33 2.351 . S
O58 C61 1.244 . S
O59 Co33 2.155 . S
O59 C61 1.240 . S
O60 Co33 2.096 . S
O60 C41 1.247 . S
C61 O58 1.244 . S
C61 O59 1.240 . S
H62 C36 0.931 . S
H63 C45 0.931 . S
H64 C49 0.929 . S
H65 C51 0.930 . S
Co66 N70 2.148 . S
Co66 N76 2.128 . S
Co66 N86 2.194 . S
Co66 O91 2.351 . S
Co66 O92 2.155 . S
Co66 O93 2.096 . S
C67 N70 1.301 . S
C67 N71 1.328 . S
C67 H72 0.930 . S
C68 C69 1.333 . S
C68 N70 1.317 . S
C68 H73 0.930 . S
C69 C68 1.333 . S
C69 N71 1.350 . S
C69 H95 0.931 . S
N70 Co66 2.148 . S
N70 C67 1.301 . S
N70 C68 1.317 . S
N71 C67 1.328 . S
N71 C69 1.350 . S
H72 C67 0.930 . S
H73 C68 0.930 . S
C74 O75 1.224 . S
C74 O93 1.247 . S
O75 C74 1.224 . S
N76 Co66 2.128 . S
N76 C77 1.355 . S
N76 C79 1.311 . S
C77 N76 1.355 . S
C77 C78 1.363 . S
C77 H89 0.929 . S
C78 C77 1.363 . S
C78 N80 1.375 . S
C78 H96 0.931 . S
C79 N76 1.311 . S
C79 N80 1.347 . S
C79 H90 0.929 . S
N80 C78 1.375 . S
N80 C79 1.347 . S
C81 C84 1.365 . S
C81 N86 1.328 . S
C81 H87 0.929 . S
C82 C83 1.362 . S
C82 C85 1.378 . S
C82 H97 0.929 . S
C83 C82 1.362 . S
C83 C84 1.366 . S
C84 C81 1.365 . S
C84 C83 1.366 . S
C84 H98 0.930 . S
C85 C82 1.378 . S
C85 N86 1.315 . S
C85 H88 0.930 . S
N86 Co66 2.194 . S
N86 C81 1.328 . S
N86 C85 1.315 . S
H87 C81 0.929 . S
H88 C85 0.930 . S
H89 C77 0.929 . S
H90 C79 0.929 . S
O91 Co66 2.351 . S
O91 C94 1.244 . S
O92 Co66 2.155 . S
O92 C94 1.240 . S
O93 Co66 2.096 . S
O93 C74 1.247 . S
C94 O91 1.244 . S
C94 O92 1.240 . S
H95 C69 0.931 . S
H96 C78 0.931 . S
H97 C82 0.929 . S
H98 C84 0.930 . S
Co99 N103 2.148 . S
Co99 N109 2.128 . S
Co99 N119 2.194 . S
Co99 O124 2.351 . S
Co99 O125 2.155 . S
Co99 O126 2.096 . S
C100 N103 1.301 . S
C100 N104 1.328 . S
C100 H105 0.930 . S
C101 C102 1.333 . S
C101 N103 1.317 . S
C101 H106 0.930 . S
C102 C101 1.333 . S
C102 N104 1.350 . S
C102 H128 0.931 . S
N103 Co99 2.148 . S
N103 C100 1.301 . S
N103 C101 1.317 . S
N104 C100 1.328 . S
N104 C102 1.350 . S
H105 C100 0.930 . S
H106 C101 0.930 . S
C107 O108 1.224 . S
C107 O126 1.247 . S
O108 C107 1.224 . S
N109 Co99 2.128 . S
N109 C110 1.355 . S
N109 C112 1.311 . S
C110 N109 1.355 . S
C110 C111 1.363 1_556 S
C110 H122 0.929 . S
C111 C110 1.363 1_554 S
C111 N113 1.375 . S
C111 H129 0.931 . S
C112 N109 1.311 . S
C112 N113 1.347 1_556 S
C112 H123 0.929 . S
N113 C111 1.375 . S
N113 C112 1.347 1_554 S
C114 C117 1.365 . S
C114 N119 1.328 . S
C114 H120 0.929 . S
C115 C116 1.362 . S
C115 C118 1.378 . S
C115 H130 0.929 . S
C116 C115 1.362 . S
C116 C117 1.366 . S
C117 C114 1.365 . S
C117 C116 1.366 . S
C117 H131 0.930 . S
C118 C115 1.378 . S
C118 N119 1.315 . S
C118 H121 0.930 . S
N119 Co99 2.194 . S
N119 C114 1.328 . S
N119 C118 1.315 . S
H120 C114 0.929 . S
H121 C118 0.930 . S
H122 C110 0.929 . S
H123 C112 0.929 . S
O124 Co99 2.351 . S
O124 C127 1.244 . S
O125 Co99 2.155 . S
O125 C127 1.240 . S
O126 Co99 2.096 . S
O126 C107 1.247 . S
C127 O124 1.244 . S
C127 O125 1.240 . S
H128 C102 0.931 . S
H129 C111 0.931 . S
H130 C115 0.929 . S
H131 C117 0.930 . S
Co132 N136 2.148 . S
Co132 N142 2.128 . S
Co132 N152 2.194 . S
Co132 O157 2.351 . S
Co132 O158 2.155 . S
Co132 O159 2.096 . S
C133 N136 1.301 . S
C133 N137 1.328 . S
C133 H138 0.930 . S
C134 C135 1.333 . S
C134 N136 1.317 . S
C134 H139 0.930 . S
C135 C134 1.333 . S
C135 N137 1.350 . S
C135 H161 0.931 . S
N136 Co132 2.148 . S
N136 C133 1.301 . S
N136 C134 1.317 . S
N137 C133 1.328 . S
N137 C135 1.350 . S
H138 C133 0.930 . S
H139 C134 0.930 . S
C140 O141 1.224 . S
C140 O159 1.247 . S
O141 C140 1.224 . S
N142 Co132 2.128 . S
N142 C143 1.355 . S
N142 C145 1.311 . S
C143 N142 1.355 . S
C143 C144 1.363 1_554 S
C143 H155 0.929 . S
C144 C143 1.363 1_556 S
C144 N146 1.375 . S
C144 H162 0.931 . S
C145 N142 1.311 . S
C145 N146 1.347 1_554 S
C145 H156 0.929 . S
N146 C144 1.375 . S
N146 C145 1.347 1_556 S
C147 C150 1.365 . S
C147 N152 1.328 . S
C147 H153 0.929 . S
C148 C149 1.362 . S
C148 C151 1.378 . S
C148 H163 0.929 . S
C149 C148 1.362 . S
C149 C150 1.366 . S
C150 C147 1.365 . S
C150 C149 1.366 . S
C150 H164 0.930 . S
C151 C148 1.378 . S
C151 N152 1.315 . S
C151 H154 0.930 . S
N152 Co132 2.194 . S
N152 C147 1.328 . S
N152 C151 1.315 . S
H153 C147 0.929 . S
H154 C151 0.930 . S
H155 C143 0.929 . S
H156 C145 0.929 . S
O157 Co132 2.351 . S
O157 C160 1.244 . S
O158 Co132 2.155 . S
O158 C160 1.240 . S
O159 Co132 2.096 . S
O159 C140 1.247 . S
C160 O157 1.244 . S
C160 O158 1.240 . S
H161 C135 0.931 . S
H162 C144 0.931 . S
H163 C148 0.929 . S
H164 C150 0.930 . S
Co165 N169 2.148 . S
Co165 N175 2.128 . S
Co165 N185 2.194 . S
Co165 O190 2.351 . S
Co165 O191 2.155 . S
Co165 O192 2.096 . S
C166 N169 1.301 . S
C166 N170 1.328 . S
C166 H171 0.930 . S
C167 C168 1.333 . S
C167 N169 1.317 . S
C167 H172 0.930 . S
C168 C167 1.333 . S
C168 N170 1.350 . S
C168 H194 0.931 . S
N169 Co165 2.148 . S
N169 C166 1.301 . S
N169 C167 1.317 . S
N170 C166 1.328 . S
N170 C168 1.350 . S
H171 C166 0.930 . S
H172 C167 0.930 . S
C173 O174 1.224 . S
C173 O192 1.247 . S
O174 C173 1.224 . S
N175 Co165 2.128 . S
N175 C176 1.355 . S
N175 C178 1.311 . S
C176 N175 1.355 . S
C176 C177 1.363 . S
C176 H188 0.929 . S
C177 C176 1.363 . S
C177 N179 1.375 . S
C177 H195 0.931 . S
C178 N175 1.311 . S
C178 N179 1.347 . S
C178 H189 0.929 . S
N179 C177 1.375 . S
N179 C178 1.347 . S
C180 C183 1.365 . S
C180 N185 1.328 . S
C180 H186 0.929 . S
C181 C182 1.362 . S
C181 C184 1.378 . S
C181 H196 0.929 . S
C182 C181 1.362 . S
C182 C183 1.366 . S
C183 C180 1.365 . S
C183 C182 1.366 . S
C183 H197 0.930 . S
C184 C181 1.378 . S
C184 N185 1.315 . S
C184 H187 0.930 . S
N185 Co165 2.194 . S
N185 C180 1.328 . S
N185 C184 1.315 . S
H186 C180 0.929 . S
H187 C184 0.930 . S
H188 C176 0.929 . S
H189 C178 0.929 . S
O190 Co165 2.351 . S
O190 C193 1.244 . S
O191 Co165 2.155 . S
O191 C193 1.240 . S
O192 Co165 2.096 . S
O192 C173 1.247 . S
C193 O190 1.244 . S
C193 O191 1.240 . S
H194 C168 0.931 . S
H195 C177 0.931 . S
H196 C181 0.929 . S
H197 C183 0.930 . S
Co198 N202 2.148 . S
Co198 N208 2.128 . S
Co198 N218 2.194 . S
Co198 O223 2.351 . S
Co198 O224 2.155 . S
Co198 O225 2.096 . S
C199 N202 1.301 . S
C199 N203 1.328 . S
C199 H204 0.930 . S
C200 C201 1.333 . S
C200 N202 1.317 . S
C200 H205 0.930 . S
C201 C200 1.333 . S
C201 N203 1.350 . S
C201 H227 0.931 . S
N202 Co198 2.148 . S
N202 C199 1.301 . S
N202 C200 1.317 . S
N203 C199 1.328 . S
N203 C201 1.350 . S
H204 C199 0.930 . S
H205 C200 0.930 . S
C206 O207 1.224 . S
C206 O225 1.247 . S
O207 C206 1.224 . S
N208 Co198 2.128 . S
N208 C209 1.355 . S
N208 C211 1.311 . S
C209 N208 1.355 . S
C209 C210 1.363 1_554 S
C209 H221 0.929 . S
C210 C209 1.363 1_556 S
C210 N212 1.375 . S
C210 H228 0.931 . S
C211 N208 1.311 . S
C211 N212 1.347 1_554 S
C211 H222 0.929 . S
N212 C210 1.375 . S
N212 C211 1.347 1_556 S
C213 C216 1.365 . S
C213 N218 1.328 . S
C213 H219 0.929 . S
C214 C215 1.362 . S
C214 C217 1.378 . S
C214 H229 0.929 . S
C215 C214 1.362 . S
C215 C216 1.366 . S
C216 C213 1.365 . S
C216 C215 1.366 . S
C216 H230 0.930 . S
C217 C214 1.378 . S
C217 N218 1.315 . S
C217 H220 0.930 . S
N218 Co198 2.194 . S
N218 C213 1.328 . S
N218 C217 1.315 . S
H219 C213 0.929 . S
H220 C217 0.930 . S
H221 C209 0.929 . S
H222 C211 0.929 . S
O223 Co198 2.351 . S
O223 C226 1.244 . S
O224 Co198 2.155 . S
O224 C226 1.240 . S
O225 Co198 2.096 . S
O225 C206 1.247 . S
C226 O223 1.244 . S
C226 O224 1.240 . S
H227 C201 0.931 . S
H228 C210 0.931 . S
H229 C214 0.929 . S
H230 C216 0.930 . S
Co231 N235 2.148 . S
Co231 N241 2.128 . S
Co231 N251 2.194 . S
Co231 O256 2.351 . S
Co231 O257 2.155 . S
Co231 O258 2.096 . S
C232 N235 1.301 . S
C232 N236 1.328 . S
C232 H237 0.930 . S
C233 C234 1.333 . S
C233 N235 1.317 . S
C233 H238 0.930 . S
C234 C233 1.333 . S
C234 N236 1.350 . S
C234 H260 0.931 . S
N235 Co231 2.148 . S
N235 C232 1.301 . S
N235 C233 1.317 . S
N236 C232 1.328 . S
N236 C234 1.350 . S
H237 C232 0.930 . S
H238 C233 0.930 . S
C239 O240 1.224 . S
C239 O258 1.247 . S
O240 C239 1.224 . S
N241 Co231 2.128 . S
N241 C242 1.355 . S
N241 C244 1.311 . S
C242 N241 1.355 . S
C242 C243 1.363 . S
C242 H254 0.929 . S
C243 C242 1.363 . S
C243 N245 1.375 . S
C243 H261 0.931 . S
C244 N241 1.311 . S
C244 N245 1.347 . S
C244 H255 0.929 . S
N245 C243 1.375 . S
N245 C244 1.347 . S
C246 C249 1.365 . S
C246 N251 1.328 . S
C246 H252 0.929 . S
C247 C248 1.362 . S
C247 C250 1.378 . S
C247 H262 0.929 . S
C248 C247 1.362 . S
C248 C249 1.366 . S
C249 C246 1.365 . S
C249 C248 1.366 . S
C249 H263 0.930 . S
C250 C247 1.378 . S
C250 N251 1.315 . S
C250 H253 0.930 . S
N251 Co231 2.194 . S
N251 C246 1.328 . S
N251 C250 1.315 . S
H252 C246 0.929 . S
H253 C250 0.930 . S
H254 C242 0.929 . S
H255 C244 0.929 . S
O256 Co231 2.351 . S
O256 C259 1.244 . S
O257 Co231 2.155 . S
O257 C259 1.240 . S
O258 Co231 2.096 . S
O258 C239 1.247 . S
C259 O256 1.244 . S
C259 O257 1.240 . S
H260 C234 0.931 . S
H261 C243 0.931 . S
H262 C247 0.929 . S
H263 C249 0.930 . S
H264 C270 0.930 . S
H265 C274 0.930 . S
H266 C279 0.929 . S
H267 C277 0.929 . S
H268 C272 0.929 . S
H269 C278 0.929 . S
C270 H264 0.930 . S
C270 C271 1.367 . S
C270 C278 1.378 . S
C271 C270 1.367 . S
C271 C279 1.433 . S
C272 H268 0.929 . S
C272 C274 1.378 . S
C272 C276 1.350 . S
C273 C276 1.463 1_565 S
C273 C278 1.350 . S
C273 N281 1.427 . S
C274 H265 0.930 . S
C274 C272 1.378 . S
C274 C275 1.367 . S
C275 C274 1.367 . S
C275 C277 1.433 . S
C276 C272 1.350 . S
C276 C273 1.463 1_545 S
C276 N280 1.427 . S
C277 H267 0.929 . S
C277 C275 1.433 . S
C277 N280 1.384 . S
C278 H269 0.929 . S
C278 C270 1.378 . S
C278 C273 1.350 . S
C279 H266 0.929 . S
C279 C271 1.433 . S
C279 N281 1.384 . S
N280 C276 1.427 . S
N280 C277 1.384 . S
N281 C273 1.427 . S
N281 C279 1.384 . S
H282 C288 0.930 . S
H283 C292 0.930 . S
H284 C297 0.929 . S
H285 C295 0.929 . S
H286 C290 0.929 1_554 S
H287 C296 0.929 1_556 S
C288 H282 0.930 . S
C288 C289 1.367 . S
C288 C296 1.378 . S
C289 C288 1.367 . S
C289 C297 1.433 . S
C290 H286 0.929 1_556 S
C290 C292 1.378 . S
C290 C294 1.350 . S
C291 C294 1.463 1_554 S
C291 C296 1.350 . S
C291 N299 1.427 . S
C292 H283 0.930 . S
C292 C290 1.378 . S
C292 C293 1.367 . S
C293 C292 1.367 . S
C293 C295 1.433 . S
C294 C290 1.350 . S
C294 C291 1.463 1_556 S
C294 N298 1.427 . S
C295 H285 0.929 . S
C295 C293 1.433 . S
C295 N298 1.384 . S
C296 H287 0.929 1_554 S
C296 C288 1.378 . S
C296 C291 1.350 . S
C297 H284 0.929 . S
C297 C289 1.433 . S
C297 N299 1.384 . S
N298 C294 1.427 . S
N298 C295 1.384 . S
N299 C291 1.427 . S
N299 C297 1.384 . S
H300 C306 0.930 . S
H301 C310 0.930 . S
H302 C315 0.929 . S
H303 C313 0.929 . S
H304 C308 0.929 1_655 S
H305 C314 0.929 1_455 S
C306 H300 0.930 . S
C306 C307 1.367 . S
C306 C314 1.378 . S
C307 C306 1.367 . S
C307 C315 1.433 . S
C308 H304 0.929 1_455 S
C308 C310 1.378 . S
C308 C312 1.350 . S
C309 C312 1.463 1_655 S
C309 C314 1.350 . S
C309 N317 1.427 . S
C310 H301 0.930 . S
C310 C308 1.378 . S
C310 C311 1.367 . S
C311 C310 1.367 . S
C311 C313 1.433 . S
C312 C308 1.350 . S
C312 C309 1.463 1_455 S
C312 N316 1.427 . S
C313 H303 0.929 . S
C313 C311 1.433 . S
C313 N316 1.384 . S
C314 H305 0.929 1_655 S
C314 C306 1.378 . S
C314 C309 1.350 . S
C315 H302 0.929 . S
C315 C307 1.433 . S
C315 N317 1.384 . S
N316 C312 1.427 . S
N316 C313 1.384 . S
N317 C309 1.427 . S
N317 C315 1.384 . S
H318 C324 0.930 . S
H319 C328 0.930 . S
H320 C333 0.929 . S
H321 C331 0.929 . S
H322 C326 0.929 . S
H323 C332 0.929 . S
C324 H318 0.930 . S
C324 C325 1.367 . S
C324 C332 1.378 1_545 S
C325 C324 1.367 . S
C325 C333 1.433 . S
C326 H322 0.929 . S
C326 C328 1.378 1_545 S
C326 C330 1.350 1_545 S
C327 C330 1.463 1_644 S
C327 C332 1.350 1_545 S
C327 N335 1.427 . S
C328 H319 0.930 . S
C328 C326 1.378 1_565 S
C328 C329 1.367 . S
C329 C328 1.367 . S
C329 C331 1.433 . S
C330 C326 1.350 1_565 S
C330 C327 1.463 1_466 S
C330 N334 1.427 . S
C331 H321 0.929 . S
C331 C329 1.433 . S
C331 N334 1.384 . S
C332 H323 0.929 . S
C332 C324 1.378 1_565 S
C332 C327 1.350 1_565 S
C333 H320 0.929 . S
C333 C325 1.433 . S
C333 N335 1.384 . S
N334 C330 1.427 . S
N334 C331 1.384 . S
N335 C327 1.427 . S
N335 C333 1.384 . S
H336 C342 0.930 . S
H337 C346 0.930 . S
H338 C351 0.929 . S
H339 C349 0.929 . S
H340 C344 0.929 . S
H341 C350 0.929 . S
C342 H336 0.930 . S
C342 C343 1.367 . S
C342 C350 1.378 . S
C343 C342 1.367 . S
C343 C351 1.433 . S
C344 H340 0.929 . S
C344 C346 1.378 . S
C344 C348 1.350 . S
C345 C348 1.463 . S
C345 C350 1.350 . S
C345 N353 1.427 . S
C346 H337 0.930 . S
C346 C344 1.378 . S
C346 C347 1.367 . S
C347 C346 1.367 . S
C347 C349 1.433 . S
C348 C344 1.350 . S
C348 C345 1.463 . S
C348 N352 1.427 . S
C349 H339 0.929 . S
C349 C347 1.433 . S
C349 N352 1.384 . S
C350 H341 0.929 . S
C350 C342 1.378 . S
C350 C345 1.350 . S
C351 H338 0.929 . S
C351 C343 1.433 . S
C351 N353 1.384 . S
N352 C348 1.427 . S
N352 C349 1.384 . S
N353 C345 1.427 . S
N353 C351 1.384 . S
H354 C360 0.930 . S
H355 C364 0.930 . S
H356 C369 0.929 . S
H357 C367 0.929 . S
H358 C362 0.929 . S
H359 C368 0.929 . S
C360 H354 0.930 . S
C360 C361 1.367 . S
C360 C368 1.378 . S
C361 C360 1.367 . S
C361 C369 1.433 . S
C362 H358 0.929 . S
C362 C364 1.378 . S
C362 C366 1.350 . S
C363 C366 1.463 . S
C363 C368 1.350 . S
C363 N371 1.427 . S
C364 H355 0.930 . S
C364 C362 1.378 . S
C364 C365 1.367 . S
C365 C364 1.367 . S
C365 C367 1.433 . S
C366 C362 1.350 . S
C366 C363 1.463 . S
C366 N370 1.427 . S
C367 H357 0.929 . S
C367 C365 1.433 . S
C367 N370 1.384 . S
C368 H359 0.929 . S
C368 C360 1.378 . S
C368 C363 1.350 . S
C369 H356 0.929 . S
C369 C361 1.433 . S
C369 N371 1.384 . S
N370 C366 1.427 . S
N370 C367 1.384 . S
N371 C363 1.427 . S
N371 C369 1.384 . S
H372 C378 0.930 . S
H373 C382 0.930 . S
H374 C387 0.929 . S
H375 C385 0.929 . S
H376 C380 0.929 . S
H377 C386 0.929 . S
C378 H372 0.930 . S
C378 C379 1.367 . S
C378 C386 1.378 . S
C379 C378 1.367 . S
C379 C387 1.433 . S
C380 H376 0.929 . S
C380 C382 1.378 . S
C380 C384 1.350 . S
C381 C384 1.463 . S
C381 C386 1.350 . S
C381 N389 1.427 . S
C382 H373 0.930 . S
C382 C380 1.378 . S
C382 C383 1.367 . S
C383 C382 1.367 . S
C383 C385 1.433 . S
C384 C380 1.350 . S
C384 C381 1.463 . S
C384 N388 1.427 . S
C385 H375 0.929 . S
C385 C383 1.433 . S
C385 N388 1.384 . S
C386 H377 0.929 . S
C386 C378 1.378 . S
C386 C381 1.350 . S
C387 H374 0.929 . S
C387 C379 1.433 . S
C387 N389 1.384 . S
N388 C384 1.427 . S
N388 C385 1.384 . S
N389 C381 1.427 . S
N389 C387 1.384 . S
H390 C396 0.930 . S
H391 C400 0.930 . S
H392 C405 0.929 . S
H393 C403 0.929 . S
H394 C398 0.929 . S
H395 C404 0.929 . S
C396 H390 0.930 . S
C396 C397 1.367 . S
C396 C404 1.378 . S
C397 C396 1.367 . S
C397 C405 1.433 . S
C398 H394 0.929 . S
C398 C400 1.378 . S
C398 C402 1.350 . S
C399 C402 1.463 . S
C399 C404 1.350 . S
C399 N407 1.427 . S
C400 H391 0.930 . S
C400 C398 1.378 . S
C400 C401 1.367 . S
C401 C400 1.367 . S
C401 C403 1.433 . S
C402 C398 1.350 . S
C402 C399 1.463 . S
C402 N406 1.427 . S
C403 H393 0.929 . S
C403 C401 1.433 . S
C403 N406 1.384 . S
C404 H395 0.929 . S
C404 C396 1.378 . S
C404 C399 1.350 . S
C405 H392 0.929 . S
C405 C397 1.433 . S
C405 N407 1.384 . S
N406 C402 1.427 . S
N406 C403 1.384 . S
N407 C399 1.427 . S
N407 C405 1.384 . S
H408 C414 0.930 . S
H409 C418 0.930 . S
H410 C423 0.929 . S
H411 C421 0.929 . S
H412 C416 0.929 . S
H413 C422 0.929 . S
C414 H408 0.930 . S
C414 C415 1.367 . S
C414 C422 1.378 . S
C415 C414 1.367 . S
C415 C423 1.433 . S
C416 H412 0.929 . S
C416 C418 1.378 . S
C416 C420 1.350 . S
C417 C420 1.463 . S
C417 C422 1.350 . S
C417 N425 1.427 . S
C418 H409 0.930 . S
C418 C416 1.378 . S
C418 C419 1.367 . S
C419 C418 1.367 . S
C419 C421 1.433 . S
C420 C416 1.350 . S
C420 C417 1.463 . S
C420 N424 1.427 . S
C421 H411 0.929 . S
C421 C419 1.433 . S
C421 N424 1.384 . S
C422 H413 0.929 . S
C422 C414 1.378 . S
C422 C417 1.350 . S
C423 H410 0.929 . S
C423 C415 1.433 . S
C423 N425 1.384 . S
N424 C420 1.427 . S
N424 C421 1.384 . S
N425 C417 1.427 . S
N425 C423 1.384 . S
H426 C432 0.930 . S
H427 C436 0.930 . S
H428 C441 0.929 . S
H429 C439 0.929 . S
H430 C434 0.929 . S
H431 C440 0.929 . S
C432 H426 0.930 . S
C432 C433 1.367 . S
C432 C440 1.378 . S
C433 C432 1.367 . S
C433 C441 1.433 . S
C434 H430 0.929 . S
C434 C436 1.378 . S
C434 C438 1.350 . S
C435 C438 1.463 . S
C435 C440 1.350 . S
C435 N443 1.427 . S
C436 H427 0.930 . S
C436 C434 1.378 . S
C436 C437 1.367 . S
C437 C436 1.367 . S
C437 C439 1.433 . S
C438 C434 1.350 . S
C438 C435 1.463 . S
C438 N442 1.427 . S
C439 H429 0.929 . S
C439 C437 1.433 . S
C439 N442 1.384 . S
C440 H431 0.929 . S
C440 C432 1.378 . S
C440 C435 1.350 . S
C441 H428 0.929 . S
C441 C433 1.433 . S
C441 N443 1.384 . S
N442 C438 1.427 . S
N442 C439 1.384 . S
N443 C435 1.427 . S
N443 C441 1.384 . S
H444 C450 0.930 . S
H445 C454 0.930 . S
H446 C459 0.929 . S
H447 C457 0.929 . S
H448 C452 0.929 . S
H449 C458 0.929 . S
C450 H444 0.930 . S
C450 C451 1.367 . S
C450 C458 1.378 . S
C451 C450 1.367 . S
C451 C459 1.433 . S
C452 H448 0.929 . S
C452 C454 1.378 . S
C452 C456 1.350 . S
C453 C456 1.463 . S
C453 C458 1.350 . S
C453 N461 1.427 . S
C454 H445 0.930 . S
C454 C452 1.378 . S
C454 C455 1.367 . S
C455 C454 1.367 . S
C455 C457 1.433 . S
C456 C452 1.350 . S
C456 C453 1.463 . S
C456 N460 1.427 . S
C457 H447 0.929 . S
C457 C455 1.433 . S
C457 N460 1.384 . S
C458 H449 0.929 . S
C458 C450 1.378 . S
C458 C453 1.350 . S
C459 H446 0.929 . S
C459 C451 1.433 . S
C459 N461 1.384 . S
N460 C456 1.427 . S
N460 C457 1.384 . S
N461 C453 1.427 . S
N461 C459 1.384 . S
H462 C468 0.930 . S
H463 C472 0.930 . S
H464 C477 0.929 . S
H465 C475 0.929 . S
H466 C470 0.929 . S
H467 C476 0.929 . S
C468 H462 0.930 . S
C468 C469 1.367 . S
C468 C476 1.378 . S
C469 C468 1.367 . S
C469 C477 1.433 . S
C470 H466 0.929 . S
C470 C472 1.378 . S
C470 C474 1.350 . S
C471 C474 1.463 . S
C471 C476 1.350 . S
C471 N479 1.427 . S
C472 H463 0.930 . S
C472 C470 1.378 . S
C472 C473 1.367 . S
C473 C472 1.367 . S
C473 C475 1.433 . S
C474 C470 1.350 . S
C474 C471 1.463 . S
C474 N478 1.427 . S
C475 H465 0.929 . S
C475 C473 1.433 . S
C475 N478 1.384 . S
C476 H467 0.929 . S
C476 C468 1.378 . S
C476 C471 1.350 . S
C477 H464 0.929 . S
C477 C469 1.433 . S
C477 N479 1.384 . S
N478 C474 1.427 . S
N478 C475 1.384 . S
N479 C471 1.427 . S
N479 C477 1.384 . S
H480 C486 0.930 . S
H481 C490 0.930 . S
H482 C495 0.929 . S
H483 C493 0.929 . S
H484 C488 0.929 . S
H485 C494 0.929 . S
C486 H480 0.930 . S
C486 C487 1.367 . S
C486 C494 1.378 . S
C487 C486 1.367 . S
C487 C495 1.433 . S
C488 H484 0.929 . S
C488 C490 1.378 . S
C488 C492 1.350 . S
C489 C492 1.463 . S
C489 C494 1.350 . S
C489 N497 1.427 . S
C490 H481 0.930 . S
C490 C488 1.378 . S
C490 C491 1.367 1_556 S
C491 C490 1.367 1_554 S
C491 C493 1.433 1_554 S
C492 C488 1.350 . S
C492 C489 1.463 . S
C492 N496 1.427 . S
C493 H483 0.929 . S
C493 C491 1.433 1_556 S
C493 N496 1.384 . S
C494 H485 0.929 . S
C494 C486 1.378 . S
C494 C489 1.350 . S
C495 H482 0.929 . S
C495 C487 1.433 . S
C495 N497 1.384 . S
N496 C492 1.427 . S
N496 C493 1.384 . S
N497 C489 1.427 . S
N497 C495 1.384 . S
H498 C504 0.930 . S
H499 C508 0.930 . S
H500 C513 0.929 . S
H501 C511 0.929 . S
H502 C506 0.929 . S
H503 C512 0.929 . S
C504 H498 0.930 . S
C504 C505 1.367 . S
C504 C512 1.378 . S
C505 C504 1.367 . S
C505 C513 1.433 . S
C506 H502 0.929 . S
C506 C508 1.378 . S
C506 C510 1.350 . S
C507 C510 1.463 . S
C507 C512 1.350 . S
C507 N515 1.427 . S
C508 H499 0.930 . S
C508 C506 1.378 . S
C508 C509 1.367 . S
C509 C508 1.367 . S
C509 C511 1.433 . S
C510 C506 1.350 . S
C510 C507 1.463 . S
C510 N514 1.427 . S
C511 H501 0.929 . S
C511 C509 1.433 . S
C511 N514 1.384 . S
C512 H503 0.929 . S
C512 C504 1.378 . S
C512 C507 1.350 . S
C513 H500 0.929 . S
C513 C505 1.433 . S
C513 N515 1.384 . S
N514 C510 1.427 . S
N514 C511 1.384 . S
N515 C507 1.427 . S
N515 C513 1.384 . S
H516 C522 0.932 . S
H517 C526 0.930 . S
H518 C531 0.929 . S
H519 C529 0.929 . S
H520 C524 0.929 . S
H521 C530 0.929 . S
C522 H516 0.932 . S
C522 C523 1.367 1_556 S
C522 C530 1.378 . S
C523 C522 1.367 1_554 S
C523 C531 1.433 1_554 S
C524 H520 0.929 . S
C524 C526 1.378 . S
C524 C528 1.350 . S
C525 C528 1.463 . S
C525 C530 1.350 . S
C525 N533 1.427 . S
C526 H517 0.930 . S
C526 C524 1.378 . S
C526 C527 1.367 . S
C527 C526 1.367 . S
C527 C529 1.433 . S
C528 C524 1.350 . S
C528 C525 1.463 . S
C528 N532 1.427 . S
C529 H519 0.929 . S
C529 C527 1.433 . S
C529 N532 1.384 . S
C530 H521 0.929 . S
C530 C522 1.378 . S
C530 C525 1.350 . S
C531 H518 0.929 . S
C531 C523 1.433 1_556 S
C531 N533 1.384 . S
N532 C528 1.427 . S
N532 C529 1.384 . S
N533 C525 1.427 . S
N533 C531 1.384 . S
H534 C540 0.930 . S
H535 C544 0.930 . S
H536 C549 0.929 . S
H537 C547 0.929 . S
H538 C542 0.929 . S
H539 C548 0.929 . S
C540 H534 0.930 . S
C540 C541 1.367 . S
C540 C548 1.378 . S
C541 C540 1.367 . S
C541 C549 1.433 . S
C542 H538 0.929 . S
C542 C544 1.378 . S
C542 C546 1.350 . S
C543 C546 1.463 . S
C543 C548 1.350 . S
C543 N551 1.427 . S
C544 H535 0.930 . S
C544 C542 1.378 . S
C544 C545 1.367 . S
C545 C544 1.367 . S
C545 C547 1.433 . S
C546 C542 1.350 . S
C546 C543 1.463 . S
C546 N550 1.427 . S
C547 H537 0.929 . S
C547 C545 1.433 . S
C547 N550 1.384 . S
C548 H539 0.929 . S
C548 C540 1.378 . S
C548 C543 1.350 . S
C549 H536 0.929 . S
C549 C541 1.433 . S
C549 N551 1.384 . S
N550 C546 1.427 . S
N550 C547 1.384 . S
N551 C543 1.427 . S
N551 C549 1.384 . S
H552 C558 0.930 . S
H553 C562 0.930 . S
H554 C567 0.929 . S
H555 C565 0.929 . S
H556 C560 0.929 . S
H557 C566 0.929 . S
C558 H552 0.930 . S
C558 C559 1.367 . S
C558 C566 1.378 . S
C559 C558 1.367 . S
C559 C567 1.433 . S
C560 H556 0.929 . S
C560 C562 1.378 . S
C560 C564 1.350 . S
C561 C564 1.463 . S
C561 C566 1.350 . S
C561 N569 1.427 . S
C562 H553 0.930 . S
C562 C560 1.378 . S
C562 C563 1.367 . S
C563 C562 1.367 . S
C563 C565 1.433 . S
C564 C560 1.350 . S
C564 C561 1.463 . S
C564 N568 1.427 . S
C565 H555 0.929 . S
C565 C563 1.433 . S
C565 N568 1.384 . S
C566 H557 0.929 . S
C566 C558 1.378 . S
C566 C561 1.350 . S
C567 H554 0.929 . S
C567 C559 1.433 . S
C567 N569 1.384 . S
N568 C564 1.427 . S
N568 C565 1.384 . S
N569 C561 1.427 . S
N569 C567 1.384 . S
H570 C576 0.930 . S
H571 C580 0.930 . S
H572 C585 0.929 . S
H573 C583 0.929 . S
H574 C578 0.929 . S
H575 C584 0.929 . S
C576 H570 0.930 . S
C576 C577 1.367 1_554 S
C576 C584 1.378 . S
C577 C576 1.367 1_556 S
C577 C585 1.433 1_556 S
C578 H574 0.929 . S
C578 C580 1.378 . S
C578 C582 1.350 . S
C579 C582 1.463 . S
C579 C584 1.350 . S
C579 N587 1.427 . S
C580 H571 0.930 . S
C580 C578 1.378 . S
C580 C581 1.367 . S
C581 C580 1.367 . S
C581 C583 1.433 . S
C582 C578 1.350 . S
C582 C579 1.463 . S
C582 N586 1.427 . S
C583 H573 0.929 . S
C583 C581 1.433 . S
C583 N586 1.384 . S
C584 H575 0.929 . S
C584 C576 1.378 . S
C584 C579 1.350 . S
C585 H572 0.929 . S
C585 C577 1.433 1_554 S
C585 N587 1.384 . S
N586 C582 1.427 . S
N586 C583 1.384 . S
N587 C579 1.427 . S
N587 C585 1.384 . S
H588 C594 0.930 . S
H589 C598 0.930 . S
H590 C603 0.929 . S
H591 C601 0.929 . S
H592 C596 0.929 . S
H593 C602 0.929 . S
C594 H588 0.930 . S
C594 C595 1.367 . S
C594 C602 1.378 . S
C595 C594 1.367 . S
C595 C603 1.433 . S
C596 H592 0.929 . S
C596 C598 1.378 . S
C596 C600 1.350 . S
C597 C600 1.463 . S
C597 C602 1.350 . S
C597 N605 1.427 . S
C598 H589 0.930 . S
C598 C596 1.378 . S
C598 C599 1.367 . S
C599 C598 1.367 . S
C599 C601 1.433 . S
C600 C596 1.350 . S
C600 C597 1.463 . S
C600 N604 1.427 . S
C601 H591 0.929 . S
C601 C599 1.433 . S
C601 N604 1.384 . S
C602 H593 0.929 . S
C602 C594 1.378 . S
C602 C597 1.350 . S
C603 H590 0.929 . S
C603 C595 1.433 . S
C603 N605 1.384 . S
N604 C600 1.427 . S
N604 C601 1.384 . S
N605 C597 1.427 . S
N605 C603 1.384 . S
H606 C612 0.930 . S
H607 C616 0.930 . S
H608 C621 0.929 . S
H609 C619 0.923 1_556 S
H610 C614 0.929 . S
H611 C620 0.929 . S
C612 H606 0.930 . S
C612 C613 1.367 . S
C612 C620 1.378 . S
C613 C612 1.367 . S
C613 C621 1.433 . S
C614 H610 0.929 . S
C614 C616 1.378 . S
C614 C618 1.350 . S
C615 C618 1.463 . S
C615 C620 1.350 . S
C615 N623 1.427 . S
C616 H607 0.930 . S
C616 C614 1.378 . S
C616 C617 1.367 1_554 S
C617 C616 1.367 1_556 S
C617 C619 1.433 1_556 S
C618 C614 1.350 . S
C618 C615 1.463 . S
C618 N622 1.427 . S
C619 H609 0.923 1_554 S
C619 C617 1.433 1_554 S
C619 N622 1.384 . S
C620 H611 0.929 . S
C620 C612 1.378 . S
C620 C615 1.350 . S
C621 H608 0.929 . S
C621 C613 1.433 . S
C621 N623 1.384 . S
N622 C618 1.427 . S
N622 C619 1.384 . S
N623 C615 1.427 . S
N623 C621 1.384 . S
C271 C239 1.081 . S
C275 C8 1.082 . S
C289 C140 1.070 . S
C293 C41 1.069 . S
C307 C74 1.082 . S
C311 C173 1.082 . S
C325 C206 1.078 . S
C329 C107 1.079 . S
C343 C28 1.485 . S
C347 C160 1.484 . S
C361 C193 1.478 . S
C365 C61 1.483 . S
C379 C226 1.485 . S
C383 C94 1.483 . S
C397 C259 1.486 . S
C401 C127 1.480 . S
C415 C248 1.556 . S
C419 C50 1.552 . S
C433 C83 1.550 . S
C437 C149 1.556 . S
C451 C116 1.547 . S
C455 C182 1.553 . S
C469 C215 1.551 . S
C473 C17 1.548 . S
C487 N14 1.278 . S
C491 N5 1.280 . S
C505 N38 1.276 . S
C509 N47 1.274 . S
C523 N71 1.279 . S
C527 N80 1.277 . S
C541 N113 1.278 . S
C545 N104 1.280 . S
C559 N137 1.272 . S
C563 N146 1.269 . S
C577 N170 1.277 . S
C581 N179 1.274 . S
C595 N203 1.279 . S
C599 N212 1.276 . S
C613 N245 1.269 . S
C617 N236 1.272 . S
