# Generated by pormake.
# Topology smt, (6)-cn, num edge types: 1
# Building blocks:
#     Node 0, Type 0, BuildingBlock: MIDCAF_clean_sbu_0, # of connection points: 6
#     Node 1, Type 0, BuildingBlock: MIDCAF_clean_sbu_0, # of connection points: 6
#     Node 2, Type 0, BuildingBlock: MIDCAF_clean_sbu_0, # of connection points: 6
#     Node 3, Type 0, BuildingBlock: MIDCAF_clean_sbu_0, # of connection points: 6
#     Node 4, Type 0, BuildingBlock: MIDCAF_clean_sbu_0, # of connection points: 6
#     Node 5, Type 0, BuildingBlock: MIDCAF_clean_sbu_0, # of connection points: 6
#     Edge 6, Type (0, 0), BuildingBlock: EZIPEK_clean_linker_0, # of connection points: 2
#     Edge 7, Type (0, 0), BuildingBlock: EZIPEK_clean_linker_0, # of connection points: 2
#     Edge 8, Type (0, 0), BuildingBlock: EZIPEK_clean_linker_0, # of connection points: 2
#     Edge 9, Type (0, 0), BuildingBlock: EZIPEK_clean_linker_0, # of connection points: 2
#     Edge 10, Type (0, 0), BuildingBlock: EZIPEK_clean_linker_0, # of connection points: 2
#     Edge 11, Type (0, 0), BuildingBlock: EZIPEK_clean_linker_0, # of connection points: 2
#     Edge 12, Type (0, 0), BuildingBlock: EZIPEK_clean_linker_0, # of connection points: 2
#     Edge 13, Type (0, 0), BuildingBlock: EZIPEK_clean_linker_0, # of connection points: 2
#     Edge 14, Type (0, 0), BuildingBlock: EZIPEK_clean_linker_0, # of connection points: 2
#     Edge 15, Type (0, 0), BuildingBlock: EZIPEK_clean_linker_0, # of connection points: 2
#     Edge 16, Type (0, 0), BuildingBlock: EZIPEK_clean_linker_0, # of connection points: 2
#     Edge 17, Type (0, 0), BuildingBlock: EZIPEK_clean_linker_0, # of connection points: 2
#     Edge 18, Type (0, 0), BuildingBlock: EZIPEK_clean_linker_0, # of connection points: 2
#     Edge 19, Type (0, 0), BuildingBlock: EZIPEK_clean_linker_0, # of connection points: 2
#     Edge 20, Type (0, 0), BuildingBlock: EZIPEK_clean_linker_0, # of connection points: 2
#     Edge 21, Type (0, 0), BuildingBlock: EZIPEK_clean_linker_0, # of connection points: 2
#     Edge 22, Type (0, 0), BuildingBlock: EZIPEK_clean_linker_0, # of connection points: 2
#     Edge 23, Type (0, 0), BuildingBlock: EZIPEK_clean_linker_0, # of connection points: 2
# Relax obj value: 0.229
# Max RMSD: 0.198
# Mean RMSD: 0.198
data_MOF--net-smt--node1-MIDCAF_clean_sbu_0--edge1-EZIPEK_clean_linker_0
_symmetry_space_group_name_H-M    P1
_symmetry_Int_Tables_number       1
_symmetry_cell_setting            triclinic
loop_
_symmetry_equiv_pos_as_xyz
'x, y, z'
_cell_length_a     25.205609
_cell_length_b     25.224698
_cell_length_c     18.649394
_cell_angle_alpha  90.963639
_cell_angle_beta   89.737243
_cell_angle_gamma 119.59952
loop_
_atom_site_label
_atom_site_type_symbol
_atom_site_fract_x
_atom_site_fract_y
_atom_site_fract_z
_atom_type_partial_charge
Zn0 Zn 0.5069 0.11372 0.90357 0.0
Zn1 Zn 0.34922 0.0688 0.10279 0.0
Zn2 Zn 0.43429 0.09612 -0.00177 0.0
C3 C 0.29716 0.97997 -0.00469 0.0
C4 C 0.38828 0.18782 0.04914 0.0
O5 O 0.52246 0.11805 0.04583 0.0
O6 O 0.58429 0.16209 0.95459 0.0
C7 C 0.42807 -0.00415 0.88957 0.0
O8 O 0.35229 0.00976 0.97227 0.0
O9 O 0.28099 -0.00257 0.05097 0.0
O10 O 0.35722 0.15173 0.09829 0.0
O11 O 0.41703 0.17288 0.00341 0.0
O12 O 0.48462 0.02957 0.8811 0.0
O13 O 0.3976 0.01581 0.92523 0.0
O14 O 0.44831 0.17633 0.94088 0.0
O15 O 0.48091 0.15817 0.8385 0.0
C16 C 0.46285 0.18888 0.87481 0.0
O17 O 0.47748 0.08933 0.09648 0.0
O18 O 0.40058 0.05356 0.17302 0.0
C19 C 0.5766 0.1501 0.0203 0.0
C20 C 0.45503 0.06774 0.15821 0.0
Zn21 Zn 0.38198 0.5662 0.09395 0.0
Zn22 Zn 0.33184 0.34704 0.33705 0.0
Zn23 Zn 0.3572 0.47041 0.17736 0.0
C24 C 0.37151 0.3516 0.20365 0.0
C25 C 0.24649 0.3611 0.2688 0.0
O26 O 0.40417 0.55676 0.23431 0.0
O27 O 0.42944 0.63484 0.1628 0.0
C28 C 0.43939 0.50289 0.03829 0.0
O29 O 0.35902 0.39413 0.21633 0.0
O30 O 0.36531 0.31675 0.25495 0.0
O31 O 0.24281 0.32518 0.3177 0.0
O32 O 0.29935 0.39533 0.24205 0.0
O33 O 0.4255 0.5432 0.02339 0.0
O34 O 0.41788 0.47062 0.09433 0.0
O35 O 0.26971 0.45476 0.14424 0.0
O36 O 0.29471 0.53734 0.08221 0.0
C37 C 0.25457 0.48773 0.10851 0.0
O38 O 0.39932 0.51018 0.28031 0.0
O39 O 0.38689 0.4402 0.36321 0.0
C40 C 0.42936 0.61438 0.22406 0.0
C41 C 0.40881 0.49534 0.34301 0.0
Zn42 Zn 0.86402 0.39981 0.25319 0.0
Zn43 Zn 0.9193 0.26259 0.38215 0.0
Zn44 Zn 0.88463 0.32849 0.31004 0.0
C45 C 0.01111 0.3239 0.288 0.0
C46 C 0.80368 0.18618 0.31641 0.0
O47 O 0.84943 0.37257 0.38859 0.0
O48 O 0.8087 0.41111 0.3162 0.0
C49 C 0.98015 0.44616 0.23114 0.0
O50 O 0.97825 0.3493 0.27807 0.0
O51 O -0.00801 0.27768 0.32695 0.0
O52 O 0.84098 0.1878 0.36272 0.0
O53 O 0.81343 0.23526 0.28543 0.0
O54 O 0.94742 0.46866 0.25044 0.0
O55 O 0.96162 0.38968 0.24344 0.0
O56 O 0.80893 0.27643 0.23751 0.0
O57 O 0.82524 0.35098 0.1645 0.0
C58 C 0.79708 0.29501 0.17911 0.0
O59 O 0.88763 0.3567 0.42003 0.0
O60 O 0.93541 0.31347 0.47146 0.0
C61 C 0.81546 0.39681 0.37835 0.0
C62 C 0.91602 0.35103 0.47374 0.0
Zn63 Zn 0.62243 0.96997 0.62094 0.0
Zn64 Zn 0.39717 0.82572 0.41455 0.0
Zn65 Zn 0.52718 0.89407 0.5209 0.0
C66 C 0.50011 0.78954 0.44298 0.0
C67 C 0.49138 0.94794 0.37615 0.0
O68 O 0.48593 0.9005 0.61731 0.0
O69 O 0.55888 0.97134 0.68605 0.0
C70 C 0.62126 0.85834 0.59218 0.0
O71 O 0.54128 0.82055 0.48897 0.0
O72 O 0.45988 0.80381 0.43195 0.0
O73 O 0.4365 0.90599 0.36769 0.0
O74 O 0.52666 0.94661 0.42546 0.0
O75 O 0.64263 0.90356 0.63508 0.0
O76 O 0.58141 0.85043 0.54412 0.0
O77 O 0.57992 0.97525 0.46763 0.0
O78 O 0.66193 0.02514 0.53731 0.0
C79 C 0.63403 0.01901 0.47891 0.0
O80 O 0.43698 0.85818 0.56947 0.0
O81 O 0.3508 0.81475 0.50457 0.0
C82 C 0.50318 0.93342 0.67446 0.0
C83 C 0.3783 0.83093 0.56449 0.0
Zn84 Zn 0.53694 0.43367 0.56854 0.0
Zn85 Zn 0.71507 0.60541 0.74366 0.0
Zn86 Zn 0.62428 0.52264 0.65904 0.0
C87 C 0.66939 0.66552 0.66097 0.0
C88 C 0.76477 0.5512 0.65957 0.0
O89 O 0.55798 0.45182 0.72653 0.0
O90 O 0.49548 0.37976 0.64991 0.0
C91 C 0.5412 0.54755 0.55067 0.0
O92 O 0.63346 0.6108 0.63839 0.0
O93 O 0.71036 0.67682 0.707 0.0
O94 O 0.77999 0.59146 0.70819 0.0
O95 O 0.70962 0.52197 0.63605 0.0
O96 O 0.51136 0.49142 0.53441 0.0
O97 O 0.58702 0.56832 0.59369 0.0
O98 O 0.66439 0.48085 0.58992 0.0
O99 O 0.59514 0.41663 0.51215 0.0
C100 C 0.64893 0.44277 0.53676 0.0
O101 O 0.59446 0.50429 0.77228 0.0
O102 O 0.67491 0.56973 0.8363 0.0
C103 C 0.51364 0.39775 0.71322 0.0
C104 C 0.61956 0.52858 0.83315 0.0
Zn105 Zn 0.15599 0.56447 0.77626 0.0
Zn106 Zn -1e-05 0.64493 0.89554 0.0
Zn107 Zn 0.0849 0.60942 0.83328 0.0
C108 C 0.95983 0.58252 0.75933 0.0
C109 C 0.11969 0.74747 0.8773 0.0
O110 O 0.10166 0.55619 0.91259 0.0
O111 O 0.1671 0.53065 0.86627 0.0
C112 C 0.04924 0.51369 0.69891 0.0
O113 O 0.00765 0.57712 0.76286 0.0
O114 O 0.94715 0.61 0.80793 0.0
O115 O 0.0668 0.73194 0.90023 0.0
O116 O 0.13215 0.7083 0.84808 0.0
O117 O 0.09574 0.50769 0.70553 0.0
O118 O 0.04129 0.55101 0.73921 0.0
O119 O 0.16616 0.69085 0.80429 0.0
O120 O 0.21434 0.64932 0.74744 0.0
C121 C 0.21065 0.69586 0.76613 0.0
O122 O 0.06025 0.57458 0.93772 0.0
O123 O -0.00985 0.5948 0.98285 0.0
C124 C 0.13508 0.53109 0.91823 0.0
C125 C 0.02428 0.57146 0.98825 0.0
C126 C 0.25505 0.86804 0.98245 0.0
C127 C 0.2544 0.92124 0.9608 0.0
C128 C 0.17385 0.86149 0.87288 0.0
C129 C 0.17003 0.80761 0.90008 0.0
N130 N 0.20022 0.75807 0.98815 0.0
N131 N 0.21186 0.97012 0.8897 0.0
C132 C 0.20928 0.81041 0.9563 0.0
C133 C 0.21344 0.91847 0.90705 0.0
N134 N 0.29939 0.87261 0.02831 0.0
N135 N 0.14047 0.85801 0.81365 0.0
H136 H 0.2417 0.01285 0.91214 0.0
H137 H 0.17897 0.97032 0.85637 0.0
H138 H 0.11105 0.8167 0.78791 0.0
H139 H 0.14535 0.89593 0.78665 0.0
H140 H 0.30654 0.8363 0.03949 0.0
H141 H 0.33248 0.91385 0.05102 0.0
H142 H 0.22225 0.75758 0.03501 0.0
H143 H 0.16683 0.71458 0.97173 0.0
C144 C 0.33769 0.30047 0.08605 0.0
C145 C 0.38677 0.33791 0.13211 0.0
C146 C 0.44849 0.29873 0.07669 0.0
C147 C 0.39391 0.24892 0.04956 0.0
N148 N 0.2895 0.20765 0.0132 0.0
N149 N 0.49292 0.38437 0.16142 0.0
C150 C 0.33968 0.2525 0.04763 0.0
C151 C 0.44417 0.34183 0.12272 0.0
N152 N 0.28939 0.31043 0.08093 0.0
N153 N 0.50332 0.30323 0.06034 0.0
H154 H 0.4899 0.41738 0.19302 0.0
H155 H 0.53511 0.38633 0.16327 0.0
H156 H 0.50684 0.27278 0.02489 0.0
H157 H 0.54517 0.34006 0.07563 0.0
H158 H 0.25305 0.28676 0.04553 0.0
H159 H 0.28926 0.34702 0.10771 0.0
H160 H 0.24643 0.20367 0.01568 0.0
H161 H 0.29147 0.17334 0.98315 0.0
C162 C 0.12234 0.40197 0.29005 0.0
C163 C 0.07333 0.34905 0.25817 0.0
C164 C 0.14353 0.31619 0.21214 0.0
C165 C 0.19167 0.36528 0.25038 0.0
N166 N 0.23186 0.46213 0.31179 0.0
N167 N 0.03872 0.26885 0.16954 0.0
C168 C 0.18276 0.41125 0.28375 0.0
C169 C 0.08478 0.31081 0.21215 0.0
N170 N 0.11036 0.44088 0.32975 0.0
N171 N 0.15333 0.27288 0.17951 0.0
H172 H -0.00461 0.26471 0.16936 0.0
H173 H 0.04474 0.24261 0.13012 0.0
H174 H 0.1963 0.27641 0.17737 0.0
H175 H 0.1188 0.23234 0.15742 0.0
H176 H 0.14264 0.47779 0.35972 0.0
H177 H 0.06686 0.43581 0.33361 0.0
H178 H 0.22981 0.49867 0.33539 0.0
H179 H 0.27626 0.46964 0.30738 0.0
C180 C 0.74483 0.07513 0.32565 0.0
C181 C 0.74412 0.12959 0.31187 0.0
C182 C 0.66005 0.10242 0.39355 0.0
C183 C 0.66781 0.05392 0.41718 0.0
N184 N 0.7013 0.98067 0.39174 0.0
N185 N 0.67713 0.16994 0.29569 0.0
C186 C 0.70449 0.03525 0.37796 0.0
C187 C 0.69339 0.13486 0.3335 0.0
N188 N 0.78823 0.0657 0.29341 0.0
N189 N 0.62305 0.11891 0.42962 0.0
H190 H 0.69914 0.18801 0.24799 0.0
H191 H 0.63786 0.17275 0.30562 0.0
H192 H 0.59821 0.09601 0.47476 0.0
H193 H 0.62 0.1574 0.41697 0.0
H194 H 0.79651 0.03036 0.30579 0.0
H195 H 0.81692 0.09539 0.25436 0.0
H196 H 0.72411 0.96294 0.36193 0.0
H197 H 0.67255 0.95097 0.43062 0.0
C198 C 0.68715 0.81036 0.58041 0.0
C199 C 0.63327 0.80826 0.6064 0.0
C200 C 0.60509 0.71428 0.67019 0.0
C201 C 0.65696 0.71423 0.64073 0.0
N202 N 0.7435 0.75621 0.56151 0.0
N203 N 0.53651 0.75543 0.66744 0.0
C204 C 0.69712 0.7607 0.59409 0.0
C205 C 0.59078 0.75921 0.6485 0.0
N206 N 0.7289 0.86017 0.54372 0.0
N207 N 0.5713 0.67323 0.72171 0.0
H208 H 0.5256 0.78928 0.6563 0.0
H209 H 0.50045 0.71687 0.68988 0.0
H210 H 0.57975 0.63895 0.73886 0.0
H211 H 0.53758 0.6757 0.7516 0.0
H212 H 0.77204 0.86766 0.52969 0.0
H213 H 0.72166 0.89619 0.53069 0.0
H214 H 0.77079 0.78522 0.52147 0.0
H215 H 0.75198 0.72039 0.57088 0.0
C216 C 0.92178 0.59557 0.64337 0.0
C217 C 0.91829 0.55608 0.69809 0.0
C218 C 0.81156 0.48719 0.6705 0.0
C219 C 0.81128 0.53619 0.63545 0.0
N220 N 0.86446 0.62787 0.56862 0.0
N221 N 0.86719 0.45747 0.75172 0.0
C222 C 0.86658 0.58607 0.61222 0.0
C223 C 0.86586 0.49835 0.70575 0.0
N224 N 0.97701 0.64405 0.62626 0.0
N225 N 0.75867 0.43306 0.67574 0.0
H226 H 0.90732 0.46605 0.77769 0.0
H227 H 0.82939 0.41597 0.76451 0.0
H228 H 0.7183 0.42649 0.65265 0.0
H229 H 0.7555 0.39421 0.69842 0.0
H230 H 0.98359 0.67408 0.5852 0.0
H231 H 0.01722 0.65165 0.65124 0.0
H232 H 0.90243 0.66818 0.55296 0.0
H233 H 0.823 0.6216 0.54893 0.0
C234 C 0.48996 0.07736 0.28443 0.0
C235 C 0.49119 0.0574 0.21327 0.0
C236 C 0.53172 -0.00607 0.25876 0.0
C237 C 0.51276 0.00021 0.32807 0.0
N238 N 0.47852 0.05122 0.41024 0.0
N239 N 0.51611 -0.0029 0.13153 0.0
C240 C 0.49484 0.04426 0.3423 0.0
C241 C 0.51501 0.01744 0.19957 0.0
N242 N 0.48284 0.12705 0.29604 0.0
N243 N 0.56301 0.96298 0.24984 0.0
H244 H 0.50299 0.01144 0.08639 0.0
H245 H 0.52638 0.96261 0.12014 0.0
H246 H 0.57457 0.94514 0.29341 0.0
H247 H 0.58253 0.96069 0.20136 0.0
H248 H 0.4859 0.14652 0.34663 0.0
H249 H 0.4801 0.15223 0.25374 0.0
H250 H 0.45813 0.07742 0.42273 0.0
H251 H 0.48365 0.02858 0.45376 0.0
C252 C 0.5127 0.57676 0.3835 0.0
C253 C 0.4485 0.54387 0.39444 0.0
C254 C 0.4639 0.57324 0.52117 0.0
C255 C 0.52501 0.58805 0.5125 0.0
N256 N 0.61281 0.63887 0.43904 0.0
N257 N 0.36228 0.52456 0.46812 0.0
C258 C 0.55113 0.60369 0.44419 0.0
C259 C 0.42378 0.54808 0.46147 0.0
N260 N 0.53663 0.57697 0.31762 0.0
N261 N 0.44452 0.57781 0.58808 0.0
H262 H 0.33298 0.50754 0.42394 0.0
H263 H 0.34052 0.52275 0.51627 0.0
H264 H 0.47516 0.59413 0.63117 0.0
H265 H 0.40048 0.5687 0.6 0.0
H266 H 0.58312 0.59523 0.30832 0.0
H267 H 0.50972 0.55728 0.27214 0.0
H268 H 0.63567 0.65515 0.39078 0.0
H269 H 0.63993 0.65526 0.48514 0.0
C270 C 0.96026 0.41474 0.66038 0.0
C271 C 0.00307 0.47617 0.64516 0.0
C272 C 0.97845 0.45863 0.51794 0.0
C273 C 0.93661 0.39637 0.53263 0.0
N274 N 0.87473 0.31955 0.61732 0.0
N275 N 0.04028 0.56122 0.56565 0.0
C276 C 0.92309 0.37592 0.604 0.0
C277 C 0.00723 0.49976 0.57602 0.0
N278 N 0.95702 0.39313 0.72793 0.0
N279 N -0.00462 0.47753 0.44904 0.0
H280 H 0.06418 0.59229 0.60696 0.0
H281 H 0.03941 0.58166 0.51793 0.0
H282 H 0.97773 0.44933 0.40395 0.0
H283 H 0.03115 0.52048 0.43637 0.0
H284 H 0.93174 0.34717 0.7406 0.0
H285 H 0.98199 0.4212 0.77107 0.0
H286 H 0.8592 0.30374 0.66865 0.0
H287 H 0.84657 0.29084 0.57635 0.0
C288 C 0.45775 0.89645 0.79477 0.0
C289 C 0.45773 0.92452 0.72937 0.0
C290 C 0.38198 0.94834 0.77784 0.0
C291 C 0.39858 0.93958 0.84645 0.0
N292 N 0.4263 0.88129 0.92033 0.0
N293 N 0.41391 0.97022 0.65406 0.0
C294 C 0.42576 0.90295 0.85407 0.0
C295 C 0.41643 0.94663 0.71852 0.0
N296 N 0.49015 0.86639 0.80026 0.0
N297 N 0.33786 0.96419 0.77158 0.0
H298 H 0.43898 0.9699 0.60958 0.0
H299 H 0.38878 -0.00785 0.6454 0.0
H300 H 0.31578 0.96851 0.8169 0.0
H301 H 0.32051 0.96813 0.72262 0.0
H302 H 0.49351 0.84614 0.84682 0.0
H303 H 0.51272 0.86021 0.75661 0.0
H304 H 0.44591 0.85461 0.93224 0.0
H305 H 0.40478 0.88975 0.96344 0.0
C306 C 0.48897 0.45379 0.96397 0.0
C307 C 0.49141 0.50538 -0.00171 0.0
C308 C 0.58082 0.57237 0.92823 0.0
C309 C 0.58063 0.52065 0.89643 0.0
N310 N 0.55043 0.41495 0.90959 0.0
N311 N 0.5551 0.61101 0.03403 0.0
C312 C 0.53955 0.46192 0.92212 0.0
C313 C 0.54282 0.56375 0.9877 0.0
N314 N 0.43759 0.39829 0.96703 0.0
N315 N 0.61329 0.62906 0.89935 0.0
H316 H 0.52941 0.60553 0.0802 0.0
H317 H 0.59477 0.65327 0.03088 0.0
H318 H 0.6384 0.63805 0.85225 0.0
H319 H 0.60943 0.66621 0.91802 0.0
H320 H 0.43294 0.36016 0.93889 0.0
H321 H 0.39815 0.39237 -0.00769 0.0
H322 H 0.52405 0.37225 0.93233 0.0
H323 H 0.59009 0.42177 0.88376 0.0
C324 C 0.00576 0.47729 0.0486 0.0
C325 C 0.02465 0.54031 0.05339 0.0
C326 C 0.05276 0.54333 0.17911 0.0
C327 C 0.02573 0.47925 0.17569 0.0
N328 N 0.01017 0.39331 0.10342 0.0
N329 N 0.0807 0.6371 0.11633 0.0
C330 C 0.01415 0.44906 0.1087 0.0
C331 C 0.05313 0.57487 0.11663 0.0
N332 N 0.97798 0.44414 0.98784 0.0
N333 N 0.07308 0.57211 0.24399 0.0
H334 H 0.08113 0.66133 0.07134 0.0
H335 H 0.10604 0.66512 0.15903 0.0
H336 H 0.07361 0.54803 0.28883 0.0
H337 H 0.08834 0.61815 0.25371 0.0
H338 H 0.95849 0.39691 0.9843 0.0
H339 H 0.96999 0.46313 0.94272 0.0
H340 H 0.00489 0.37001 0.055 0.0
H341 H 0.01991 0.37441 0.14704 0.0
C342 C 0.53574 0.28912 0.82768 0.0
C343 C 0.47487 0.24766 0.84637 0.0
C344 C 0.44149 0.31478 0.79439 0.0
C345 C 0.50065 0.34995 0.76514 0.0
N346 N 0.60123 0.36263 0.74218 0.0
N347 N 0.36846 0.21885 0.84834 0.0
C348 C 0.54709 0.33503 0.77849 0.0
C349 C 0.42716 0.26014 0.83091 0.0
N350 N 0.58294 0.28543 0.85835 0.0
N351 N 0.39971 0.33392 0.78745 0.0
H352 H 0.35717 0.1788 0.87542 0.0
H353 H 0.33084 0.22255 0.83277 0.0
H354 H 0.40966 0.37384 0.76082 0.0
H355 H 0.35749 0.31328 0.81281 0.0
H356 H 0.62853 0.31837 0.85142 0.0
H357 H 0.57622 0.25359 0.89738 0.0
H358 H 0.63321 0.34795 0.7451 0.0
H359 H 0.61211 0.39605 0.70393 0.0
C360 C 0.12989 0.44471 0.98649 0.0
C361 C 0.13953 0.50512 0.98664 0.0
C362 C 0.17942 0.51964 0.10808 0.0
C363 C 0.19071 0.47102 0.09562 0.0
N364 N 0.1647 0.37761 0.03327 0.0
N365 N 0.17681 0.60238 0.04885 0.0
C366 C 0.15979 0.42893 0.03946 0.0
C367 C 0.16314 0.54283 0.04888 0.0
N368 N 0.09398 0.40389 0.93482 0.0
N369 N 0.19364 0.54853 0.17328 0.0
H370 H 0.16885 0.62261 0.00515 0.0
H371 H 0.20002 0.63293 0.09077 0.0
H372 H 0.2095 0.53287 0.21499 0.0
H373 H 0.18508 0.58385 0.18678 0.0
H374 H 0.08219 0.35808 0.93444 0.0
H375 H 0.07151 0.41514 0.89616 0.0
H376 H 0.14895 0.3479 0.98917 0.0
H377 H 0.18659 0.36628 0.07251 0.0
C378 C 0.63393 0.22655 0.11641 0.0
C379 C 0.62976 0.18063 0.06813 0.0
C380 C 0.73704 0.21136 0.08975 0.0
C381 C 0.74021 0.25543 0.14002 0.0
N382 N 0.68844 0.29457 0.21512 0.0
N383 N 0.67204 0.12102 0.01795 0.0
C384 C 0.68777 0.26023 0.1572 0.0
C385 C 0.67986 0.1705 0.05753 0.0
N386 N 0.58796 0.24049 0.12074 0.0
N387 N 0.78884 0.2097 0.07179 0.0
H388 H 0.63017 0.08978 -0.00503 0.0
H389 H 0.70509 0.1079 0.01305 0.0
H390 H 0.8311 0.23865 0.09558 0.0
H391 H 0.79096 0.18276 0.03022 0.0
H392 H 0.59222 0.27866 0.14832 0.0
H393 H 0.54712 0.21714 0.09232 0.0
H394 H 0.64937 0.29334 0.23571 0.0
H395 H 0.72673 0.31938 0.24748 0.0
C396 C 0.53565 0.74358 0.34879 0.0
C397 C 0.49432 0.73599 0.40452 0.0
C398 C 0.41207 0.64882 0.34277 0.0
C399 C 0.4529 0.65579 0.28649 0.0
N400 N 0.55614 0.6995 0.24295 0.0
N401 N 0.40133 0.672 0.46677 0.0
C402 C 0.51574 0.69991 0.29173 0.0
C403 C 0.43548 0.68442 0.40583 0.0
N404 N 0.59217 0.79424 0.34815 0.0
N405 N 0.35059 0.61138 0.33411 0.0
H406 H 0.41877 0.69811 0.51373 0.0
H407 H 0.35887 0.63319 0.47278 0.0
H408 H 0.33102 0.58684 0.28685 0.0
H409 H 0.31848 0.60922 0.37103 0.0
H410 H 0.62147 0.80637 0.3044 0.0
H411 H 0.60886 0.82548 0.39086 0.0
H412 H 0.60325 0.72674 0.24817 0.0
H413 H 0.54277 0.66808 0.20042 0.0
C414 C 0.79418 0.46918 0.44492 0.0
C415 C 0.78332 0.40885 0.43711 0.0
C416 C 0.6899 0.37214 0.50783 0.0
C417 C 0.69548 0.43086 0.50367 0.0
N418 N 0.74875 0.53347 0.45906 0.0
N419 N 0.72016 0.30137 0.45888 0.0
C420 C 0.74687 0.47921 0.47047 0.0
C421 C 0.7315 0.35983 0.46904 0.0
N422 N 0.84983 0.51675 0.42703 0.0
N423 N 0.64566 0.32868 0.54971 0.0
H424 H 0.75046 0.29079 0.43267 0.0
H425 H 0.67938 0.26321 0.47326 0.0
H426 H 0.61438 0.33619 0.57862 0.0
H427 H 0.64328 0.28722 0.56072 0.0
H428 H 0.86232 0.56223 0.43685 0.0
H429 H 0.88547 0.51004 0.40923 0.0
H430 H 0.78195 0.56768 0.42772 0.0
H431 H 0.71435 0.54244 0.47569 0.0
C432 C 0.29045 0.82126 0.63717 0.0
C433 C 0.34186 0.81273 0.63061 0.0
C434 C 0.31815 0.76405 0.74677 0.0
C435 C 0.2588 0.75521 0.74098 0.0
N436 N 0.18823 0.7801 0.68401 0.0
N437 N 0.39918 0.76617 0.6767 0.0
C438 C 0.24525 0.78684 0.68855 0.0
C439 C 0.35552 0.78284 0.6856 0.0
N440 N 0.28475 0.86147 0.59417 0.0
N441 N 0.3355 0.74797 0.80811 0.0
H442 H 0.42301 0.77174 0.62916 0.0
H443 H 0.40658 0.74005 0.71381 0.0
H444 H 0.30674 0.7327 0.85264 0.0
H445 H 0.37954 0.75546 0.81657 0.0
H446 H 0.25068 0.87308 0.60095 0.0
H447 H 0.31783 0.88789 0.5567 0.0
H448 H 0.17375 0.79575 0.6411 0.0
H449 H 0.15457 0.75669 0.72189 0.0
loop_
_geom_bond_atom_site_label_1
_geom_bond_atom_site_label_2
_geom_bond_distance
_geom_bond_site_symmetry_2
_ccdc_geom_bond_type
Zn0 O6 1.920 . S
Zn0 O12 1.898 . S
Zn0 O15 1.905 . S
Zn1 O9 1.905 1_545 S
Zn1 O10 1.898 . S
Zn1 O18 1.920 . S
Zn2 O5 2.080 . S
Zn2 O8 2.114 1_554 S
Zn2 O11 2.120 . S
Zn2 O13 2.120 1_554 S
Zn2 O14 2.114 1_554 S
Zn2 O17 2.080 . S
C3 O8 1.156 1_565 S
C3 O9 1.185 1_556 S
C4 O10 1.167 . S
C4 O11 1.299 . S
O5 Zn2 2.080 . S
O5 C19 1.305 . S
O6 Zn0 1.920 . S
O6 C19 1.234 1_556 S
C7 O12 1.167 . S
C7 O13 1.299 . S
O8 Zn2 2.114 1_556 S
O8 C3 1.156 1_545 S
O9 Zn1 1.905 1_565 S
O9 C3 1.185 1_554 S
O10 Zn1 1.898 . S
O10 C4 1.167 . S
O11 Zn2 2.120 . S
O11 C4 1.299 . S
O12 Zn0 1.898 . S
O12 C7 1.167 . S
O13 Zn2 2.120 1_556 S
O13 C7 1.299 . S
O14 Zn2 2.114 1_556 S
O14 C16 1.166 . S
O15 Zn0 1.905 . S
O15 C16 1.182 . S
C16 O14 1.166 . S
C16 O15 1.182 . S
O17 Zn2 2.080 . S
O17 C20 1.305 . S
O18 Zn1 1.920 . S
O18 C20 1.234 . S
C19 O5 1.305 . S
C19 O6 1.234 1_554 S
C20 O17 1.305 . S
C20 O18 1.234 . S
Zn21 O27 1.920 . S
Zn21 O33 1.898 . S
Zn21 O36 1.905 . S
Zn22 O30 1.905 . S
Zn22 O31 1.898 . S
Zn22 O39 1.920 . S
Zn23 O26 2.080 . S
Zn23 O29 2.114 . S
Zn23 O32 2.120 . S
Zn23 O34 2.120 . S
Zn23 O35 2.114 . S
Zn23 O38 2.080 . S
C24 O29 1.166 . S
C24 O30 1.182 . S
C25 O31 1.167 . S
C25 O32 1.299 . S
O26 Zn23 2.080 . S
O26 C40 1.305 . S
O27 Zn21 1.920 . S
O27 C40 1.234 . S
C28 O33 1.167 . S
C28 O34 1.299 . S
O29 Zn23 2.114 . S
O29 C24 1.166 . S
O30 Zn22 1.905 . S
O30 C24 1.182 . S
O31 Zn22 1.898 . S
O31 C25 1.167 . S
O32 Zn23 2.120 . S
O32 C25 1.299 . S
O33 Zn21 1.898 . S
O33 C28 1.167 . S
O34 Zn23 2.120 . S
O34 C28 1.299 . S
O35 Zn23 2.114 . S
O35 C37 1.166 . S
O36 Zn21 1.905 . S
O36 C37 1.182 . S
C37 O35 1.166 . S
C37 O36 1.182 . S
O38 Zn23 2.080 . S
O38 C41 1.305 . S
O39 Zn22 1.920 . S
O39 C41 1.234 . S
C40 O26 1.305 . S
C40 O27 1.234 . S
C41 O38 1.305 . S
C41 O39 1.234 . S
Zn42 O48 1.920 . S
Zn42 O54 1.898 . S
Zn42 O57 1.905 . S
Zn43 O51 1.905 1_655 S
Zn43 O52 1.898 . S
Zn43 O60 1.920 . S
Zn44 O47 2.080 . S
Zn44 O50 2.114 . S
Zn44 O53 2.120 . S
Zn44 O55 2.120 . S
Zn44 O56 2.114 . S
Zn44 O59 2.080 . S
C45 O50 1.149 1_455 S
C45 O51 1.193 . S
C46 O52 1.167 . S
C46 O53 1.299 . S
O47 Zn44 2.080 . S
O47 C61 1.305 . S
O48 Zn42 1.920 . S
O48 C61 1.234 . S
C49 O54 1.167 . S
C49 O55 1.299 . S
O50 Zn44 2.114 . S
O50 C45 1.149 1_655 S
O51 Zn43 1.905 1_455 S
O51 C45 1.193 . S
O52 Zn43 1.898 . S
O52 C46 1.167 . S
O53 Zn44 2.120 . S
O53 C46 1.299 . S
O54 Zn42 1.898 . S
O54 C49 1.167 . S
O55 Zn44 2.120 . S
O55 C49 1.299 . S
O56 Zn44 2.114 . S
O56 C58 1.166 . S
O57 Zn42 1.905 . S
O57 C58 1.182 . S
C58 O56 1.166 . S
C58 O57 1.182 . S
O59 Zn44 2.080 . S
O59 C62 1.305 . S
O60 Zn43 1.920 . S
O60 C62 1.234 . S
C61 O47 1.305 . S
C61 O48 1.234 . S
C62 O59 1.305 . S
C62 O60 1.234 . S
Zn63 O69 1.920 . S
Zn63 O75 1.898 . S
Zn63 O78 1.905 1_565 S
Zn64 O72 1.905 . S
Zn64 O73 1.898 . S
Zn64 O81 1.920 . S
Zn65 O68 2.080 . S
Zn65 O71 2.114 . S
Zn65 O74 2.120 . S
Zn65 O76 2.120 . S
Zn65 O77 2.114 . S
Zn65 O80 2.080 . S
C66 O71 1.166 . S
C66 O72 1.182 . S
C67 O73 1.167 . S
C67 O74 1.299 . S
O68 Zn65 2.080 . S
O68 C82 1.305 . S
O69 Zn63 1.920 . S
O69 C82 1.234 . S
C70 O75 1.167 . S
C70 O76 1.299 . S
O71 Zn65 2.114 . S
O71 C66 1.166 . S
O72 Zn64 1.905 . S
O72 C66 1.182 . S
O73 Zn64 1.898 . S
O73 C67 1.167 . S
O74 Zn65 2.120 . S
O74 C67 1.299 . S
O75 Zn63 1.898 . S
O75 C70 1.167 . S
O76 Zn65 2.120 . S
O76 C70 1.299 . S
O77 Zn65 2.114 . S
O77 C79 1.156 1_565 S
O78 Zn63 1.905 1_545 S
O78 C79 1.185 . S
C79 O77 1.156 1_545 S
C79 O78 1.185 . S
O80 Zn65 2.080 . S
O80 C83 1.305 . S
O81 Zn64 1.920 . S
O81 C83 1.234 . S
C82 O68 1.305 . S
C82 O69 1.234 . S
C83 O80 1.305 . S
C83 O81 1.234 . S
Zn84 O90 1.920 . S
Zn84 O96 1.898 . S
Zn84 O99 1.905 . S
Zn85 O93 1.905 . S
Zn85 O94 1.898 . S
Zn85 O102 1.920 . S
Zn86 O89 2.080 . S
Zn86 O92 2.114 . S
Zn86 O95 2.120 . S
Zn86 O97 2.120 . S
Zn86 O98 2.114 . S
Zn86 O101 2.080 . S
C87 O92 1.166 . S
C87 O93 1.182 . S
C88 O94 1.167 . S
C88 O95 1.299 . S
O89 Zn86 2.080 . S
O89 C103 1.305 . S
O90 Zn84 1.920 . S
O90 C103 1.234 . S
C91 O96 1.167 . S
C91 O97 1.299 . S
O92 Zn86 2.114 . S
O92 C87 1.166 . S
O93 Zn85 1.905 . S
O93 C87 1.182 . S
O94 Zn85 1.898 . S
O94 C88 1.167 . S
O95 Zn86 2.120 . S
O95 C88 1.299 . S
O96 Zn84 1.898 . S
O96 C91 1.167 . S
O97 Zn86 2.120 . S
O97 C91 1.299 . S
O98 Zn86 2.114 . S
O98 C100 1.166 . S
O99 Zn84 1.905 . S
O99 C100 1.182 . S
C100 O98 1.166 . S
C100 O99 1.182 . S
O101 Zn86 2.080 . S
O101 C104 1.305 . S
O102 Zn85 1.920 . S
O102 C104 1.234 . S
C103 O89 1.305 . S
C103 O90 1.234 . S
C104 O101 1.305 . S
C104 O102 1.234 . S
Zn105 O111 1.920 . S
Zn105 O117 1.898 . S
Zn105 O120 1.905 . S
Zn106 O114 1.905 1_455 S
Zn106 O115 1.898 . S
Zn106 O123 1.920 1_556 S
Zn107 O110 2.080 . S
Zn107 O113 2.114 . S
Zn107 O116 2.120 . S
Zn107 O118 2.120 . S
Zn107 O119 2.114 . S
Zn107 O122 2.080 . S
C108 O113 1.149 1_655 S
C108 O114 1.193 . S
C109 O115 1.167 . S
C109 O116 1.299 . S
O110 Zn107 2.080 . S
O110 C124 1.305 . S
O111 Zn105 1.920 . S
O111 C124 1.234 . S
C112 O117 1.167 . S
C112 O118 1.299 . S
O113 Zn107 2.114 . S
O113 C108 1.149 1_455 S
O114 Zn106 1.905 1_655 S
O114 C108 1.193 . S
O115 Zn106 1.898 . S
O115 C109 1.167 . S
O116 Zn107 2.120 . S
O116 C109 1.299 . S
O117 Zn105 1.898 . S
O117 C112 1.167 . S
O118 Zn107 2.120 . S
O118 C112 1.299 . S
O119 Zn107 2.114 . S
O119 C121 1.166 . S
O120 Zn105 1.905 . S
O120 C121 1.182 . S
C121 O119 1.166 . S
C121 O120 1.182 . S
O122 Zn107 2.080 . S
O122 C125 1.305 . S
O123 Zn106 1.920 1_554 S
O123 C125 1.234 1_554 S
C124 O110 1.305 . S
C124 O111 1.234 . S
C125 O122 1.305 . S
C125 O123 1.234 1_556 S
C126 C127 1.363 . S
C126 C132 1.379 . S
C126 N134 1.356 1_556 S
C127 C126 1.363 . S
C127 C133 1.363 . S
C128 C129 1.363 . S
C128 C133 1.379 . S
C128 N135 1.356 . S
C129 C128 1.363 . S
C129 C132 1.363 . S
N130 C132 1.356 1_554 S
N130 H142 0.984 . S
N130 H143 0.985 1_554 S
N131 C133 1.356 . S
N131 H136 0.984 1_565 S
N131 H137 0.985 1_565 S
C132 C126 1.379 . S
C132 C129 1.363 . S
C132 N130 1.356 1_556 S
C133 C127 1.363 . S
C133 C128 1.379 . S
C133 N131 1.356 . S
N134 C126 1.356 1_554 S
N134 H140 0.984 . S
N134 H141 0.984 . S
N135 C128 1.356 . S
N135 H138 0.984 . S
N135 H139 0.985 . S
H136 N131 0.984 1_545 S
H137 N131 0.985 1_545 S
H138 N135 0.984 . S
H139 N135 0.985 . S
H140 N134 0.984 . S
H141 N134 0.984 . S
H142 N130 0.984 . S
H143 N130 0.985 1_556 S
C144 C145 1.363 . S
C144 C150 1.379 . S
C144 N152 1.356 . S
C145 C144 1.363 . S
C145 C151 1.363 . S
C146 C147 1.363 . S
C146 C151 1.379 . S
C146 N153 1.356 . S
C147 C146 1.363 . S
C147 C150 1.363 . S
N148 C150 1.356 1_556 S
N148 H160 0.984 . S
N148 H161 0.985 . S
N149 C151 1.356 . S
N149 H154 0.984 . S
N149 H155 0.985 . S
C150 C144 1.379 . S
C150 C147 1.363 . S
C150 N148 1.356 1_554 S
C151 C145 1.363 . S
C151 C146 1.379 . S
C151 N149 1.356 . S
N152 C144 1.356 . S
N152 H158 0.984 1_554 S
N152 H159 0.984 . S
N153 C146 1.356 . S
N153 H156 0.984 . S
N153 H157 0.985 . S
H154 N149 0.984 . S
H155 N149 0.985 . S
H156 N153 0.984 . S
H157 N153 0.985 . S
H158 N152 0.984 1_556 S
H159 N152 0.984 . S
H160 N148 0.984 . S
H161 N148 0.985 . S
C162 C163 1.363 . S
C162 C168 1.379 . S
C162 N170 1.356 . S
C163 C162 1.363 . S
C163 C169 1.363 . S
C164 C165 1.363 . S
C164 C169 1.379 . S
C164 N171 1.356 . S
C165 C164 1.363 . S
C165 C168 1.363 . S
N166 C168 1.356 . S
N166 H178 0.984 . S
N166 H179 0.985 . S
N167 C169 1.361 . S
N167 H172 0.977 1_455 S
N167 H173 0.987 1_455 S
C168 C162 1.379 . S
C168 C165 1.363 . S
C168 N166 1.356 . S
C169 C163 1.363 . S
C169 C164 1.379 . S
C169 N167 1.361 . S
N170 C162 1.356 . S
N170 H176 0.984 . S
N170 H177 0.984 . S
N171 C164 1.356 . S
N171 H174 0.984 . S
N171 H175 0.985 . S
H172 N167 0.977 1_655 S
H173 N167 0.987 1_655 S
H174 N171 0.984 . S
H175 N171 0.985 . S
H176 N170 0.984 . S
H177 N170 0.984 . S
H178 N166 0.984 . S
H179 N166 0.985 . S
C180 C181 1.363 . S
C180 C186 1.379 . S
C180 N188 1.356 . S
C181 C180 1.363 . S
C181 C187 1.363 . S
C182 C183 1.363 . S
C182 C187 1.379 . S
C182 N189 1.356 . S
C183 C182 1.363 . S
C183 C186 1.363 . S
N184 C186 1.356 . S
N184 H196 0.984 . S
N184 H197 0.985 1_545 S
N185 C187 1.356 . S
N185 H190 0.984 . S
N185 H191 0.985 . S
C186 C180 1.379 . S
C186 C183 1.363 . S
C186 N184 1.356 . S
C187 C181 1.363 . S
C187 C182 1.379 . S
C187 N185 1.356 . S
N188 C180 1.356 . S
N188 H194 0.984 . S
N188 H195 0.984 . S
N189 C182 1.356 . S
N189 H192 0.984 1_545 S
N189 H193 0.985 . S
H190 N185 0.984 . S
H191 N185 0.985 . S
H192 N189 0.984 1_565 S
H193 N189 0.985 . S
H194 N188 0.984 . S
H195 N188 0.984 . S
H196 N184 0.984 . S
H197 N184 0.985 1_565 S
C198 C199 1.363 . S
C198 C204 1.379 . S
C198 N206 1.356 . S
C199 C198 1.363 . S
C199 C205 1.363 . S
C200 C201 1.363 . S
C200 C205 1.379 . S
C200 N207 1.356 . S
C201 C200 1.363 . S
C201 C204 1.363 . S
N202 C204 1.356 . S
N202 H214 0.984 . S
N202 H215 0.985 . S
N203 C205 1.356 . S
N203 H208 0.984 . S
N203 H209 0.985 . S
C204 C198 1.379 . S
C204 C201 1.363 . S
C204 N202 1.356 . S
C205 C199 1.363 . S
C205 C200 1.379 . S
C205 N203 1.356 . S
N206 C198 1.356 . S
N206 H212 0.984 . S
N206 H213 0.984 . S
N207 C200 1.356 . S
N207 H210 0.984 . S
N207 H211 0.985 . S
H208 N203 0.984 . S
H209 N203 0.985 . S
H210 N207 0.984 . S
H211 N207 0.985 . S
H212 N206 0.984 . S
H213 N206 0.984 . S
H214 N202 0.984 . S
H215 N202 0.985 . S
C216 C217 1.363 . S
C216 C222 1.379 . S
C216 N224 1.356 . S
C217 C216 1.363 . S
C217 C223 1.363 . S
C218 C219 1.363 . S
C218 C223 1.379 . S
C218 N225 1.356 . S
C219 C218 1.363 . S
C219 C222 1.363 . S
N220 C222 1.356 . S
N220 H232 0.984 . S
N220 H233 0.985 . S
N221 C223 1.356 . S
N221 H226 0.984 . S
N221 H227 0.985 . S
C222 C216 1.379 . S
C222 C219 1.363 . S
C222 N220 1.356 . S
C223 C217 1.363 . S
C223 C218 1.379 . S
C223 N221 1.356 . S
N224 C216 1.356 . S
N224 H230 0.984 . S
N224 H231 0.984 1_655 S
N225 C218 1.356 . S
N225 H228 0.984 . S
N225 H229 0.985 . S
H226 N221 0.984 . S
H227 N221 0.985 . S
H228 N225 0.984 . S
H229 N225 0.985 . S
H230 N224 0.984 . S
H231 N224 0.984 1_455 S
H232 N220 0.984 . S
H233 N220 0.985 . S
C234 C235 1.363 1_565 S
C234 C240 1.379 . S
C234 N242 1.356 . S
C235 C234 1.363 1_545 S
C235 C241 1.363 . S
C236 C237 1.363 1_545 S
C236 C241 1.379 . S
C236 N243 1.356 . S
C237 C236 1.363 1_565 S
C237 C240 1.363 . S
N238 C240 1.356 . S
N238 H250 0.984 . S
N238 H251 0.985 . S
N239 C241 1.356 . S
N239 H244 0.984 . S
N239 H245 0.985 . S
C240 C234 1.379 . S
C240 C237 1.363 . S
C240 N238 1.356 . S
C241 C235 1.363 . S
C241 C236 1.379 . S
C241 N239 1.356 . S
N242 C234 1.356 . S
N242 H248 0.984 . S
N242 H249 0.984 . S
N243 C236 1.356 . S
N243 H246 0.984 . S
N243 H247 0.985 . S
H244 N239 0.984 . S
H245 N239 0.985 . S
H246 N243 0.984 . S
H247 N243 0.985 . S
H248 N242 0.984 . S
H249 N242 0.984 . S
H250 N238 0.984 . S
H251 N238 0.985 . S
C252 C253 1.363 . S
C252 C258 1.379 . S
C252 N260 1.356 . S
C253 C252 1.363 . S
C253 C259 1.363 . S
C254 C255 1.363 . S
C254 C259 1.379 . S
C254 N261 1.356 . S
C255 C254 1.363 . S
C255 C258 1.363 . S
N256 C258 1.356 . S
N256 H268 0.984 . S
N256 H269 0.985 . S
N257 C259 1.356 . S
N257 H262 0.984 . S
N257 H263 0.985 . S
C258 C252 1.379 . S
C258 C255 1.363 . S
C258 N256 1.356 . S
C259 C253 1.363 . S
C259 C254 1.379 . S
C259 N257 1.356 . S
N260 C252 1.356 . S
N260 H266 0.984 . S
N260 H267 0.984 . S
N261 C254 1.356 . S
N261 H264 0.984 . S
N261 H265 0.985 . S
H262 N257 0.984 . S
H263 N257 0.985 . S
H264 N261 0.984 . S
H265 N261 0.985 . S
H266 N260 0.984 . S
H267 N260 0.984 . S
H268 N256 0.984 . S
H269 N256 0.985 . S
C270 C271 1.363 . S
C270 C276 1.379 1_455 S
C270 N278 1.356 . S
C271 C270 1.363 . S
C271 C277 1.363 . S
C272 C273 1.363 . S
C272 C277 1.379 1_655 S
C272 N279 1.356 . S
C273 C272 1.363 . S
C273 C276 1.363 . S
N274 C276 1.356 . S
N274 H286 0.984 . S
N274 H287 0.985 . S
N275 C277 1.356 . S
N275 H280 0.984 . S
N275 H281 0.985 . S
C276 C270 1.379 1_655 S
C276 C273 1.363 . S
C276 N274 1.356 . S
C277 C271 1.363 . S
C277 C272 1.379 1_455 S
C277 N275 1.356 . S
N278 C270 1.356 . S
N278 H284 0.984 . S
N278 H285 0.984 . S
N279 C272 1.356 . S
N279 H282 0.984 . S
N279 H283 0.985 . S
H280 N275 0.984 . S
H281 N275 0.985 . S
H282 N279 0.984 . S
H283 N279 0.985 . S
H284 N278 0.984 . S
H285 N278 0.984 . S
H286 N274 0.984 . S
H287 N274 0.985 . S
C288 C289 1.363 1_545 S
C288 C294 1.379 . S
C288 N296 1.356 . S
C289 C288 1.363 1_565 S
C289 C295 1.363 . S
C290 C291 1.363 1_565 S
C290 C295 1.379 . S
C290 N297 1.356 . S
C291 C290 1.363 1_545 S
C291 C294 1.363 . S
N292 C294 1.356 . S
N292 H304 0.984 . S
N292 H305 0.985 . S
N293 C295 1.356 . S
N293 H298 0.984 . S
N293 H299 0.985 . S
C294 C288 1.379 . S
C294 C291 1.363 . S
C294 N292 1.356 . S
C295 C289 1.363 . S
C295 C290 1.379 . S
C295 N293 1.356 . S
N296 C288 1.356 . S
N296 H302 0.984 . S
N296 H303 0.984 . S
N297 C290 1.356 . S
N297 H300 0.984 . S
N297 H301 0.985 . S
H298 N293 0.984 . S
H299 N293 0.985 . S
H300 N297 0.984 . S
H301 N297 0.985 . S
H302 N296 0.984 . S
H303 N296 0.984 . S
H304 N292 0.984 . S
H305 N292 0.985 . S
C306 C307 1.363 1_556 S
C306 C312 1.379 . S
C306 N314 1.356 1_556 S
C307 C306 1.363 1_554 S
C307 C313 1.363 1_554 S
C308 C309 1.363 . S
C308 C313 1.379 . S
C308 N315 1.356 . S
C309 C308 1.363 . S
C309 C312 1.363 . S
N310 C312 1.356 . S
N310 H322 0.984 . S
N310 H323 0.985 . S
N311 C313 1.356 1_554 S
N311 H316 0.984 . S
N311 H317 0.985 . S
C312 C306 1.379 . S
C312 C309 1.363 . S
C312 N310 1.356 . S
C313 C307 1.363 1_556 S
C313 C308 1.379 . S
C313 N311 1.356 1_556 S
N314 C306 1.356 1_554 S
N314 H320 0.984 1_554 S
N314 H321 0.984 . S
N315 C308 1.356 . S
N315 H318 0.984 . S
N315 H319 0.985 . S
H316 N311 0.984 . S
H317 N311 0.985 . S
H318 N315 0.984 . S
H319 N315 0.985 . S
H320 N314 0.984 1_556 S
H321 N314 0.984 . S
H322 N310 0.984 . S
H323 N310 0.985 . S
C324 C325 1.363 1_655 S
C324 C330 1.379 . S
C324 N332 1.356 . S
C325 C324 1.363 1_455 S
C325 C331 1.363 . S
C326 C327 1.363 1_455 S
C326 C331 1.379 . S
C326 N333 1.356 . S
C327 C326 1.363 1_655 S
C327 C330 1.363 . S
N328 C330 1.356 . S
N328 H340 0.984 . S
N328 H341 0.985 . S
N329 C331 1.356 . S
N329 H334 0.984 1_554 S
N329 H335 0.985 . S
C330 C324 1.379 . S
C330 C327 1.363 . S
C330 N328 1.356 . S
C331 C325 1.363 . S
C331 C326 1.379 . S
C331 N329 1.356 . S
N332 C324 1.356 . S
N332 H338 0.984 . S
N332 H339 0.984 1_554 S
N333 C326 1.356 . S
N333 H336 0.984 . S
N333 H337 0.985 . S
H334 N329 0.984 1_556 S
H335 N329 0.985 . S
H336 N333 0.984 . S
H337 N333 0.985 . S
H338 N332 0.984 . S
H339 N332 0.984 1_556 S
H340 N328 0.984 . S
H341 N328 0.985 . S
C342 C343 1.363 . S
C342 C348 1.379 . S
C342 N350 1.356 . S
C343 C342 1.363 . S
C343 C349 1.363 . S
C344 C345 1.363 . S
C344 C349 1.379 . S
C344 N351 1.356 . S
C345 C344 1.363 . S
C345 C348 1.363 . S
N346 C348 1.356 . S
N346 H358 0.984 . S
N346 H359 0.985 . S
N347 C349 1.356 . S
N347 H352 0.984 . S
N347 H353 0.985 . S
C348 C342 1.379 . S
C348 C345 1.363 . S
C348 N346 1.356 . S
C349 C343 1.363 . S
C349 C344 1.379 . S
C349 N347 1.356 . S
N350 C342 1.356 . S
N350 H356 0.984 . S
N350 H357 0.984 . S
N351 C344 1.356 . S
N351 H354 0.984 . S
N351 H355 0.985 . S
H352 N347 0.984 . S
H353 N347 0.985 . S
H354 N351 0.984 . S
H355 N351 0.985 . S
H356 N350 0.984 . S
H357 N350 0.984 . S
H358 N346 0.984 . S
H359 N346 0.985 . S
C360 C361 1.363 . S
C360 C366 1.379 . S
C360 N368 1.356 . S
C361 C360 1.363 . S
C361 C367 1.363 1_556 S
C362 C363 1.363 . S
C362 C367 1.379 . S
C362 N369 1.356 . S
C363 C362 1.363 . S
C363 C366 1.363 1_554 S
N364 C366 1.356 . S
N364 H376 0.984 . S
N364 H377 0.985 1_556 S
N365 C367 1.356 . S
N365 H370 0.984 1_554 S
N365 H371 0.985 . S
C366 C360 1.379 . S
C366 C363 1.363 1_556 S
C366 N364 1.356 . S
C367 C361 1.363 1_554 S
C367 C362 1.379 . S
C367 N365 1.356 . S
N368 C360 1.356 . S
N368 H374 0.984 . S
N368 H375 0.984 . S
N369 C362 1.356 . S
N369 H372 0.984 . S
N369 H373 0.985 . S
H370 N365 0.984 1_556 S
H371 N365 0.985 . S
H372 N369 0.984 . S
H373 N369 0.985 . S
H374 N368 0.984 . S
H375 N368 0.984 . S
H376 N364 0.984 . S
H377 N364 0.985 1_554 S
C378 C379 1.363 . S
C378 C384 1.379 . S
C378 N386 1.356 . S
C379 C378 1.363 . S
C379 C385 1.363 . S
C380 C381 1.363 . S
C380 C385 1.379 . S
C380 N387 1.356 . S
C381 C380 1.363 . S
C381 C384 1.363 . S
N382 C384 1.356 . S
N382 H394 0.984 . S
N382 H395 0.985 . S
N383 C385 1.356 . S
N383 H388 0.984 1_554 S
N383 H389 0.985 1_554 S
C384 C378 1.379 . S
C384 C381 1.363 . S
C384 N382 1.356 . S
C385 C379 1.363 . S
C385 C380 1.379 . S
C385 N383 1.356 . S
N386 C378 1.356 . S
N386 H392 0.984 . S
N386 H393 0.984 . S
N387 C380 1.356 . S
N387 H390 0.984 . S
N387 H391 0.985 . S
H388 N383 0.984 1_556 S
H389 N383 0.985 1_556 S
H390 N387 0.984 . S
H391 N387 0.985 . S
H392 N386 0.984 . S
H393 N386 0.984 . S
H394 N382 0.984 . S
H395 N382 0.985 . S
C396 C397 1.363 . S
C396 C402 1.379 . S
C396 N404 1.356 . S
C397 C396 1.363 . S
C397 C403 1.363 . S
C398 C399 1.363 . S
C398 C403 1.379 . S
C398 N405 1.356 . S
C399 C398 1.363 . S
C399 C402 1.363 . S
N400 C402 1.356 . S
N400 H412 0.984 . S
N400 H413 0.985 . S
N401 C403 1.356 . S
N401 H406 0.984 . S
N401 H407 0.985 . S
C402 C396 1.379 . S
C402 C399 1.363 . S
C402 N400 1.356 . S
C403 C397 1.363 . S
C403 C398 1.379 . S
C403 N401 1.356 . S
N404 C396 1.356 . S
N404 H410 0.984 . S
N404 H411 0.984 . S
N405 C398 1.356 . S
N405 H408 0.984 . S
N405 H409 0.985 . S
H406 N401 0.984 . S
H407 N401 0.985 . S
H408 N405 0.984 . S
H409 N405 0.985 . S
H410 N404 0.984 . S
H411 N404 0.984 . S
H412 N400 0.984 . S
H413 N400 0.985 . S
C414 C415 1.363 . S
C414 C420 1.379 . S
C414 N422 1.356 . S
C415 C414 1.363 . S
C415 C421 1.363 . S
C416 C417 1.363 . S
C416 C421 1.379 . S
C416 N423 1.356 . S
C417 C416 1.363 . S
C417 C420 1.363 . S
N418 C420 1.356 . S
N418 H430 0.984 . S
N418 H431 0.985 . S
N419 C421 1.356 . S
N419 H424 0.984 . S
N419 H425 0.985 . S
C420 C414 1.379 . S
C420 C417 1.363 . S
C420 N418 1.356 . S
C421 C415 1.363 . S
C421 C416 1.379 . S
C421 N419 1.356 . S
N422 C414 1.356 . S
N422 H428 0.984 . S
N422 H429 0.984 . S
N423 C416 1.356 . S
N423 H426 0.984 . S
N423 H427 0.985 . S
H424 N419 0.984 . S
H425 N419 0.985 . S
H426 N423 0.984 . S
H427 N423 0.985 . S
H428 N422 0.984 . S
H429 N422 0.984 . S
H430 N418 0.984 . S
H431 N418 0.985 . S
C432 C433 1.363 . S
C432 C438 1.379 . S
C432 N440 1.356 . S
C433 C432 1.363 . S
C433 C439 1.363 . S
C434 C435 1.363 . S
C434 C439 1.379 . S
C434 N441 1.356 . S
C435 C434 1.363 . S
C435 C438 1.363 . S
N436 C438 1.356 . S
N436 H448 0.984 . S
N436 H449 0.985 . S
N437 C439 1.356 . S
N437 H442 0.984 . S
N437 H443 0.985 . S
C438 C432 1.379 . S
C438 C435 1.363 . S
C438 N436 1.356 . S
C439 C433 1.363 . S
C439 C434 1.379 . S
C439 N437 1.356 . S
N440 C432 1.356 . S
N440 H446 0.984 . S
N440 H447 0.984 . S
N441 C434 1.356 . S
N441 H444 0.984 . S
N441 H445 0.985 . S
H442 N437 0.984 . S
H443 N437 0.985 . S
H444 N441 0.984 . S
H445 N441 0.985 . S
H446 N440 0.984 . S
H447 N440 0.984 . S
H448 N436 0.984 . S
H449 N436 0.985 . S
C127 C3 1.120 . S
C129 C109 1.203 . S
C145 C24 1.108 . S
C147 C4 1.203 . S
C163 C45 1.122 . S
C165 C25 1.203 . S
C181 C46 1.203 . S
C183 C79 1.120 . S
C199 C70 1.203 . S
C201 C87 1.109 . S
C217 C108 1.122 . S
C219 C88 1.204 . S
C235 C20 1.509 . S
C237 C67 1.359 . S
C253 C41 1.510 . S
C255 C91 1.359 . S
C271 C112 1.359 . S
C273 C62 1.509 . S
C289 C82 1.509 . S
C291 C7 1.359 . S
C307 C28 1.359 . S
C309 C104 1.509 . S
C325 C125 1.509 1_554 S
C327 C49 1.359 . S
C343 C16 1.263 . S
C345 C103 1.424 . S
C361 C124 1.424 . S
C363 C37 1.263 . S
C379 C19 1.424 . S
C381 C58 1.263 . S
C397 C66 1.263 . S
C399 C40 1.424 . S
C415 C61 1.424 . S
C417 C100 1.263 . S
C433 C83 1.424 . S
C435 C121 1.263 . S
