# Generated by pormake.
# Topology whw, (6)-cn, num edge types: 1
# Building blocks:
#     Node 0, Type 0, BuildingBlock: GEDQOX_clean_sbu_0, # of connection points: 6
#     Node 1, Type 0, BuildingBlock: GEDQOX_clean_sbu_0, # of connection points: 6
#     Node 2, Type 0, BuildingBlock: GEDQOX_clean_sbu_0, # of connection points: 6
#     Node 3, Type 0, BuildingBlock: GEDQOX_clean_sbu_0, # of connection points: 6
#     Node 4, Type 0, BuildingBlock: GEDQOX_clean_sbu_0, # of connection points: 6
#     Node 5, Type 0, BuildingBlock: GEDQOX_clean_sbu_0, # of connection points: 6
#     Node 6, Type 0, BuildingBlock: GEDQOX_clean_sbu_0, # of connection points: 6
#     Node 7, Type 0, BuildingBlock: GEDQOX_clean_sbu_0, # of connection points: 6
#     Node 8, Type 0, BuildingBlock: GEDQOX_clean_sbu_0, # of connection points: 6
#     Node 9, Type 0, BuildingBlock: GEDQOX_clean_sbu_0, # of connection points: 6
#     Node 10, Type 0, BuildingBlock: GEDQOX_clean_sbu_0, # of connection points: 6
#     Node 11, Type 0, BuildingBlock: GEDQOX_clean_sbu_0, # of connection points: 6
#     Node 12, Type 0, BuildingBlock: GEDQOX_clean_sbu_0, # of connection points: 6
#     Node 13, Type 0, BuildingBlock: GEDQOX_clean_sbu_0, # of connection points: 6
#     Node 14, Type 0, BuildingBlock: GEDQOX_clean_sbu_0, # of connection points: 6
#     Node 15, Type 0, BuildingBlock: GEDQOX_clean_sbu_0, # of connection points: 6
#     Edge 16, Type (0, 0), None
#     Edge 17, Type (0, 0), None
#     Edge 18, Type (0, 0), None
#     Edge 19, Type (0, 0), None
#     Edge 20, Type (0, 0), None
#     Edge 21, Type (0, 0), None
#     Edge 22, Type (0, 0), None
#     Edge 23, Type (0, 0), None
#     Edge 24, Type (0, 0), None
#     Edge 25, Type (0, 0), None
#     Edge 26, Type (0, 0), None
#     Edge 27, Type (0, 0), None
#     Edge 28, Type (0, 0), None
#     Edge 29, Type (0, 0), None
#     Edge 30, Type (0, 0), None
#     Edge 31, Type (0, 0), None
#     Edge 32, Type (0, 0), None
#     Edge 33, Type (0, 0), None
#     Edge 34, Type (0, 0), None
#     Edge 35, Type (0, 0), None
#     Edge 36, Type (0, 0), None
#     Edge 37, Type (0, 0), None
#     Edge 38, Type (0, 0), None
#     Edge 39, Type (0, 0), None
#     Edge 40, Type (0, 0), None
#     Edge 41, Type (0, 0), None
#     Edge 42, Type (0, 0), None
#     Edge 43, Type (0, 0), None
#     Edge 44, Type (0, 0), None
#     Edge 45, Type (0, 0), None
#     Edge 46, Type (0, 0), None
#     Edge 47, Type (0, 0), None
#     Edge 48, Type (0, 0), None
#     Edge 49, Type (0, 0), None
#     Edge 50, Type (0, 0), None
#     Edge 51, Type (0, 0), None
#     Edge 52, Type (0, 0), None
#     Edge 53, Type (0, 0), None
#     Edge 54, Type (0, 0), None
#     Edge 55, Type (0, 0), None
#     Edge 56, Type (0, 0), None
#     Edge 57, Type (0, 0), None
#     Edge 58, Type (0, 0), None
#     Edge 59, Type (0, 0), None
#     Edge 60, Type (0, 0), None
#     Edge 61, Type (0, 0), None
#     Edge 62, Type (0, 0), None
#     Edge 63, Type (0, 0), None
# Relax obj value: 0.235
# Max RMSD: 0.246
# Mean RMSD: 0.246
data_MOF--net-whw--node1-GEDQOX_clean_sbu_0--edge1-none
_symmetry_space_group_name_H-M    P1
_symmetry_Int_Tables_number       1
_symmetry_cell_setting            triclinic
loop_
_symmetry_equiv_pos_as_xyz
'x, y, z'
_cell_length_a     20.847358
_cell_length_b     20.843748
_cell_length_c     19.773224
_cell_angle_alpha  89.979329
_cell_angle_beta   89.990419
_cell_angle_gamma 89.961513
loop_
_atom_site_label
_atom_site_type_symbol
_atom_site_fract_x
_atom_site_fract_y
_atom_site_fract_z
_atom_type_partial_charge
Nd0 Nd 0.8917 0.08747 0.15404 0.0
Nd1 Nd 0.02825 0.06243 0.209 0.0
C2 C 0.79125 0.08026 0.07911 0.0
C3 C 0.79844 0.1074 1.01073 0.0
C4 C 0.8038 0.06682 0.95411 0.0
C5 C 0.83106 0.08957 0.89383 0.0
C6 C 0.85446 0.15278 0.88988 0.0
C7 C 0.84807 0.19277 0.9463 0.0
C8 C 0.81921 0.17123 1.00504 0.0
C9 C 0.95447 0.19771 0.18941 0.0
C10 C 0.01966 0.11496 1.05963 0.0
C11 C 0.12887 0.0595 0.29014 0.0
C12 C 0.13927 0.07879 0.36231 0.0
C13 C 0.15773 0.14195 0.37837 0.0
C14 C 0.16189 0.1623 0.4458 0.0
C15 C 0.14866 0.11996 0.49959 0.0
C16 C 0.1328 0.05599 0.48373 0.0
C17 C 0.12821 0.03567 0.41603 0.0
C18 C -0.00935 -0.01884 0.10279 0.0
C19 C 0.90084 0.0542 0.31325 0.0
O20 O 0.82655 0.02931 0.08987 0.0
O21 O 0.79405 0.12168 0.12918 0.0
O22 O 0.91458 0.19348 0.13931 0.0
O23 O 0.95845 0.14454 0.22046 0.0
O24 O 0.95733 0.10363 1.0632 0.0
O25 O 0.056 0.11787 0.11426 0.0
O26 O 0.11817 0.1062 0.24686 0.0
O27 O 0.09254 0.00908 0.27885 0.0
O28 O 0.04989 -0.0057 0.1175 0.0
O29 O 0.95598 0.00147 0.15163 0.0
O30 O 0.96311 0.04657 0.30273 0.0
O31 O 0.86097 0.0673 0.26325 0.0
H32 H 0.78926 0.01701 0.95739 0.0
H33 H 0.83294 0.05823 0.85027 0.0
H34 H 0.86366 0.24185 0.94425 0.0
H35 H 0.81636 0.20432 1.04715 0.0
H36 H 0.16756 0.17642 0.33869 0.0
H37 H 0.17465 0.2118 0.4556 0.0
H38 H 0.12235 0.02189 0.52357 0.0
H39 H 0.11455 -0.01352 0.40584 0.0
Nd40 Nd 0.11453 0.63492 0.404 0.0
Nd41 Nd 0.13938 0.77149 0.45896 0.0
C42 C 0.12186 0.53448 0.32904 0.0
C43 C 0.09472 0.54167 0.26066 0.0
C44 C 0.13529 0.54712 0.20403 0.0
C45 C 0.11248 0.57436 0.14376 0.0
C46 C 0.0492 0.59766 0.13982 0.0
C47 C 0.00922 0.59114 0.19625 0.0
C48 C 0.03083 0.56232 0.25499 0.0
C49 C 0.0042 0.69772 0.43939 0.0
C50 C 0.08693 0.76292 0.3096 0.0
C51 C 0.14229 0.87213 0.54006 0.0
C52 C 0.12305 0.88256 0.61224 0.0
C53 C 0.05993 0.90117 0.62837 0.0
C54 C 0.03961 0.90534 0.69581 0.0
C55 C 0.08195 0.89198 0.74956 0.0
C56 C 0.14589 0.87598 0.73364 0.0
C57 C 0.16617 0.87138 0.66592 0.0
C58 C 0.22074 0.73389 0.35277 0.0
C59 C 0.14769 0.64402 0.56321 0.0
O60 O 0.17275 0.56979 0.33977 0.0
O61 O 0.08045 0.53727 0.37913 0.0
O62 O 0.00851 0.65782 0.3893 0.0
O63 O 0.05735 0.70169 0.47043 0.0
O64 O 0.09833 0.70058 0.31318 0.0
O65 O 0.08397 0.79927 0.36422 0.0
O66 O 0.09557 0.86145 0.49685 0.0
O67 O 0.19272 0.83575 0.52873 0.0
O68 O 0.20751 0.79314 0.36747 0.0
O69 O 0.20045 0.6992 0.40161 0.0
O70 O 0.15521 0.70631 0.55269 0.0
O71 O 0.13471 0.60415 0.5132 0.0
H72 H 0.18513 0.53267 0.20729 0.0
H73 H 0.14383 0.57634 0.1002 0.0
H74 H 0.96009 0.60661 0.1942 0.0
H75 H -0.00225 0.55939 0.29711 0.0
H76 H 0.02546 0.9111 0.58873 0.0
H77 H -0.00987 0.91822 0.70566 0.0
H78 H 0.17999 0.86543 0.77343 0.0
H79 H 0.21534 0.8576 0.65568 0.0
Nd80 Nd 0.56696 0.8577 0.65397 0.0
Nd81 Nd 0.4304 0.88271 0.70898 0.0
C82 C 0.6674 0.86492 0.57899 0.0
C83 C 0.6602 0.8378 0.51062 0.0
C84 C 0.65486 0.87839 0.45399 0.0
C85 C 0.62761 0.85566 0.39371 0.0
C86 C 0.60419 0.79245 0.3898 0.0
C87 C 0.61057 0.75245 0.44625 0.0
C88 C 0.63941 0.77398 0.50498 0.0
C89 C 0.50418 0.74744 0.6894 0.0
C90 C 0.439 0.83028 0.5596 0.0
C91 C 0.32977 0.88569 0.79011 0.0
C92 C 0.31935 0.86641 0.86228 0.0
C93 C 0.30092 0.80326 0.87841 0.0
C94 C 0.29678 0.7829 0.94585 0.0
C95 C 0.31 0.82526 0.99959 0.0
C96 C 0.32583 0.88924 0.98368 0.0
C97 C 0.33039 0.90955 0.91596 0.0
C98 C 0.46802 0.96405 0.60278 0.0
C99 C 0.55783 0.89093 0.81317 0.0
O100 O 0.63211 0.91587 0.58975 0.0
O101 O 0.66461 0.82349 0.62908 0.0
O102 O 0.54408 0.7517 0.63929 0.0
O103 O 0.5002 0.8006 0.72043 0.0
O104 O 0.50133 0.84161 0.56316 0.0
O105 O 0.40266 0.82734 0.61424 0.0
O106 O 0.34046 0.83898 0.74687 0.0
O107 O 0.36612 0.93609 0.77877 0.0
O108 O 0.40877 0.9509 0.61749 0.0
O109 O 0.50268 0.94371 0.65161 0.0
O110 O 0.49554 0.89852 0.80268 0.0
O111 O 0.59769 0.87787 0.76315 0.0
H112 H 0.66941 0.92819 0.45723 0.0
H113 H 0.62575 0.887 0.35013 0.0
H114 H 0.59496 0.70338 0.44422 0.0
H115 H 0.64225 0.74088 0.5471 0.0
H116 H 0.29109 0.76877 0.83877 0.0
H117 H 0.28404 0.7334 0.9557 0.0
H118 H 0.33627 0.92335 1.02348 0.0
H119 H 0.34403 0.95874 0.90572 0.0
Nd120 Nd 0.34412 0.31029 0.90398 0.0
Nd121 Nd 0.31923 0.17375 0.95903 0.0
C122 C 0.33681 0.41074 0.82896 0.0
C123 C 0.36395 0.40354 0.76058 0.0
C124 C 0.3234 0.39813 0.70396 0.0
C125 C 0.34621 0.37087 0.6437 0.0
C126 C 0.40947 0.34754 0.63978 0.0
C127 C 0.44944 0.35401 0.6962 0.0
C128 C 0.42783 0.38285 0.75493 0.0
C129 C 0.45443 0.24747 0.93938 0.0
C130 C 0.37174 0.18229 0.80966 0.0
C131 C 0.31629 0.0731 1.04019 0.0
C132 C 0.33557 0.06268 0.11237 0.0
C133 C 0.39871 0.04416 0.12846 0.0
C134 C 0.41906 0.04001 0.19589 0.0
C135 C 0.37672 0.05331 0.24966 0.0
C136 C 0.31275 0.06923 0.23377 0.0
C137 C 0.29244 0.07381 0.16606 0.0
C138 C 0.23792 0.21134 0.85279 0.0
C139 C 0.31097 0.3012 1.06322 0.0
O140 O 0.28591 0.37544 0.83972 0.0
O141 O 0.37821 0.40794 0.87904 0.0
O142 O 0.45012 0.28737 0.88925 0.0
O143 O 0.40128 0.24351 0.97044 0.0
O144 O 0.36035 0.24463 0.8132 0.0
O145 O 0.37467 0.14594 0.86431 0.0
O146 O 0.36299 0.08375 0.99693 0.0
O147 O 0.26588 0.10951 1.02887 0.0
O148 O 0.25114 0.15209 0.86754 0.0
O149 O 0.25818 0.24603 0.9016 0.0
O150 O 0.30343 0.23891 1.05275 0.0
O151 O 0.32395 0.34107 1.01317 0.0
H152 H 0.27356 0.4126 0.70722 0.0
H153 H 0.31488 0.36893 0.60015 0.0
H154 H 0.49856 0.3385 0.69417 0.0
H155 H 0.4609 0.38575 0.79704 0.0
H156 H 0.43319 0.03427 0.08881 0.0
H157 H 0.46856 0.0272 0.20572 0.0
H158 H 0.27866 0.07974 0.27358 0.0
H159 H 0.24326 0.08752 0.15584 0.0
Nd160 Nd 0.93054 0.88249 0.92532 0.0
Nd161 Nd 0.0672 0.85759 0.98014 0.0
C162 C 0.82993 0.88536 0.84417 0.0
C163 C 0.81949 0.86617 0.77198 0.0
C164 C 0.80069 0.80313 0.75587 0.0
C165 C 0.79647 0.78283 0.68843 0.0
C166 C 0.80997 0.82512 0.63467 0.0
C167 C 0.82617 0.88899 0.65056 0.0
C168 C 0.83083 0.90925 0.71828 0.0
C169 C 0.968 0.96382 1.03141 0.0
C170 C 0.05794 0.89088 0.82098 0.0
C171 C 0.16761 0.86474 1.0551 0.0
C172 C 0.16033 0.83766 0.12349 0.0
C173 C 0.15527 0.87826 0.18012 0.0
C174 C 0.12799 0.85563 0.24045 0.0
C175 C 0.10424 0.79256 0.24441 0.0
C176 C 0.11027 0.75256 0.18795 0.0
C177 C 0.13919 0.77394 0.12919 0.0
C178 C 0.00427 0.74732 0.94467 0.0
C179 C 0.93926 0.83005 0.07466 0.0
O180 O 0.84071 0.8386 0.88736 0.0
O181 O 0.86618 0.93582 0.85553 0.0
O182 O 0.90878 0.95068 1.01666 0.0
O183 O 0.00287 0.94356 0.98269 0.0
O184 O -0.00435 0.89838 0.83154 0.0
O185 O 0.09786 0.87788 0.87096 0.0
O186 O 0.13238 0.91573 1.04429 0.0
O187 O 0.16481 0.82331 1.00506 0.0
O188 O 0.04413 0.75151 0.99481 0.0
O189 O 0.00056 0.80057 0.91377 0.0
O190 O 0.00158 0.84144 0.07103 0.0
O191 O 0.9029 0.82704 1.02006 0.0
H192 H 0.79064 0.7687 0.79553 0.0
H193 H 0.78344 0.7334 0.6786 0.0
H194 H 0.83684 0.92305 0.61075 0.0
H195 H 0.84475 0.95836 0.7285 0.0
H196 H 0.17008 0.92798 0.17683 0.0
H197 H 0.12639 0.88694 0.28405 0.0
H198 H 0.09432 0.70359 0.19 0.0
H199 H 0.14179 0.74085 0.08707 0.0
Nd200 Nd 0.3196 0.6738 0.17537 0.0
Nd201 Nd 0.34427 0.81048 0.23018 0.0
C202 C 0.31679 0.57317 0.09425 0.0
C203 C 0.33594 0.56272 1.02204 0.0
C204 C 0.39896 0.54382 1.00587 0.0
C205 C 0.41923 0.5396 0.93841 0.0
C206 C 0.37693 0.5532 0.8847 0.0
C207 C 0.31308 0.56949 0.90066 0.0
C208 C 0.29285 0.57414 0.96839 0.0
C209 C 0.23815 0.71125 0.28141 0.0
C210 C 0.31112 0.80123 0.07102 0.0
C211 C 0.33698 0.91091 0.30513 0.0
C212 C 0.36408 0.90366 0.37352 0.0
C213 C 0.32349 0.89849 0.43016 0.0
C214 C 0.3462 0.87124 0.49048 0.0
C215 C 0.40935 0.84762 0.49442 0.0
C216 C 0.44934 0.85379 0.43796 0.0
C217 C 0.42786 0.88267 0.37919 0.0
C218 C 0.45463 0.74753 0.19476 0.0
C219 C 0.37193 0.68252 0.32471 0.0
O220 O 0.36356 0.58395 0.13738 0.0
O221 O 0.26631 0.60945 0.10565 0.0
O222 O 0.2514 0.65202 0.26669 0.0
O223 O 0.25839 0.74614 0.2327 0.0
O224 O 0.30373 0.73893 0.08157 0.0
O225 O 0.324 0.84116 0.121 0.0
O226 O 0.28606 0.87566 0.29437 0.0
O227 O 0.37841 0.9081 0.25506 0.0
O228 O 0.45035 0.78739 0.2449 0.0
O229 O 0.40143 0.74382 0.16383 0.0
O230 O 0.36044 0.74485 0.32106 0.0
O231 O 0.37501 0.64615 0.27013 0.0
H232 H 0.4334 0.53369 1.04549 0.0
H233 H 0.46865 0.5265 0.92854 0.0
H234 H 0.27902 0.58024 0.86088 0.0
H235 H 0.24376 0.58815 0.97866 0.0
H236 H 0.27373 0.91319 0.42689 0.0
H237 H 0.31488 0.86953 0.53407 0.0
H238 H 0.49837 0.83799 0.44 0.0
H239 H 0.46095 0.88536 0.33706 0.0
Nd240 Nd 0.52815 0.06281 0.42534 0.0
Nd241 Nd 0.39149 0.08769 0.48021 0.0
C242 C 0.62879 0.0599 0.34421 0.0
C243 C 0.63924 0.07908 0.272 0.0
C244 C 0.65801 0.14212 0.25583 0.0
C245 C 0.66221 0.16241 0.18838 0.0
C246 C 0.64872 0.12011 0.13466 0.0
C247 C 0.63256 0.05623 0.15062 0.0
C248 C 0.62792 0.03598 0.21836 0.0
C249 C 0.49068 -0.01858 0.53141 0.0
C250 C 0.40075 0.05443 0.32107 0.0
C251 C 0.29108 0.08052 0.55523 0.0
C252 C 0.29838 0.10759 0.6236 0.0
C253 C 0.30342 0.06698 0.68025 0.0
C254 C 0.33069 0.08959 0.74057 0.0
C255 C 0.35446 0.15266 0.74449 0.0
C256 C 0.34845 0.19267 0.68801 0.0
C257 C 0.31954 0.1713 0.62925 0.0
C258 C 0.45442 0.19797 0.44468 0.0
C259 C 0.51942 0.11516 0.57469 0.0
O260 O 0.618 0.10667 0.38735 0.0
O261 O 0.59251 0.00946 0.3556 0.0
O262 O 0.54991 -0.00542 0.51667 0.0
O263 O 0.45581 0.00171 0.48271 0.0
O264 O 0.46305 0.04698 0.33159 0.0
O265 O 0.36082 0.0674 0.37106 0.0
O266 O 0.32631 0.02954 0.54442 0.0
O267 O 0.29388 0.12197 0.50516 0.0
O268 O 0.41456 0.19376 0.49484 0.0
O269 O 0.45814 0.14474 0.4138 0.0
O270 O 0.45711 0.10376 0.57107 0.0
O271 O 0.55579 0.11819 0.52008 0.0
H272 H 0.66806 0.17656 0.29545 0.0
H273 H 0.67522 0.21184 0.1785 0.0
H274 H 0.62189 0.02216 0.11085 0.0
H275 H 0.61401 -0.01314 0.22863 0.0
H276 H 0.2886 0.01726 0.67699 0.0
H277 H 0.33227 0.05827 0.78418 0.0
H278 H 0.36441 0.24163 0.69003 0.0
H279 H 0.31695 0.2044 0.58712 0.0
Nd280 Nd 0.13915 0.27141 0.6753 0.0
Nd281 Nd 0.11444 0.13476 0.7302 0.0
C282 C 0.14197 0.37205 0.59412 0.0
C283 C 0.12279 0.38249 0.52192 0.0
C284 C 0.05975 0.40131 0.50578 0.0
C285 C 0.03945 0.4055 0.43833 0.0
C286 C 0.08175 0.39196 0.3846 0.0
C287 C 0.14563 0.37575 0.40052 0.0
C288 C 0.16589 0.37112 0.46825 0.0
C289 C 0.22054 0.23397 0.78139 0.0
C290 C 0.14757 0.144 0.571 0.0
C291 C 0.12171 0.03432 0.80521 0.0
C292 C 0.09459 0.04158 0.87359 0.0
C293 C 0.13517 0.04672 0.93023 0.0
C294 C 0.11246 0.07398 0.99053 0.0
C295 C 0.04932 0.09763 0.99446 0.0
C296 C 0.00934 0.09149 0.938 0.0
C297 C 0.03082 0.06261 0.87925 0.0
C298 C 0.00409 0.19772 0.69478 0.0
C299 C 0.08675 0.26271 0.82465 0.0
O300 O 0.09523 0.3613 0.6373 0.0
O301 O 0.19244 0.33574 0.6055 0.0
O302 O 0.2073 0.2932 0.76661 0.0
O303 O 0.20033 0.19909 0.7327 0.0
O304 O 0.15498 0.2063 0.58152 0.0
O305 O 0.13469 0.10407 0.62103 0.0
O306 O 0.17264 0.06957 0.79442 0.0
O307 O 0.08029 0.03714 0.75515 0.0
O308 O 0.00836 0.15787 0.74495 0.0
O309 O 0.05728 0.20143 0.66382 0.0
O310 O 0.09823 0.20039 0.82104 0.0
O311 O 0.08371 0.29909 0.77004 0.0
H312 H 0.02531 0.41139 0.54541 0.0
H313 H -0.00999 0.41854 0.42848 0.0
H314 H 0.17969 0.36504 0.36073 0.0
H315 H 0.215 0.35718 0.4785 0.0
H316 H 0.18493 0.03199 0.92696 0.0
H317 H 0.14377 0.07565 1.03412 0.0
H318 H 0.96033 0.10734 0.94003 0.0
H319 H -0.00225 0.05994 0.83713 0.0
Nd320 Nd 0.81949 0.17377 0.67535 0.0
Nd321 Nd 0.84425 0.31042 0.73019 0.0
C322 C 0.81665 0.07313 0.59422 0.0
C323 C 0.83582 0.06267 0.52202 0.0
C324 C 0.89885 0.04383 0.50586 0.0
C325 C 0.91913 0.03959 0.43841 0.0
C326 C 0.87682 0.05313 0.38468 0.0
C327 C 0.81295 0.06936 0.40063 0.0
C328 C 0.79271 0.07403 0.46836 0.0
C329 C 0.738 0.21127 0.78136 0.0
C330 C 0.81108 0.30122 0.57103 0.0
C331 C 0.83701 0.41087 0.80513 0.0
C332 C 0.86409 0.40361 0.87353 0.0
C333 C 0.82348 0.39854 0.93016 0.0
C334 C 0.84613 0.37127 0.9905 0.0
C335 C 0.90924 0.34754 0.99447 0.0
C336 C 0.94924 0.35362 0.938 0.0
C337 C 0.92783 0.38251 0.87922 0.0
C338 C 0.95452 0.24736 0.69483 0.0
C339 C 0.87183 0.18245 0.8247 0.0
O340 O 0.86341 0.08388 0.63737 0.0
O341 O 0.76619 0.10945 0.60561 0.0
O342 O 0.75129 0.15204 0.76667 0.0
O343 O 0.75832 0.24613 0.73267 0.0
O344 O 0.80364 0.23891 0.58157 0.0
O345 O 0.82401 0.34113 0.62102 0.0
O346 O 0.78607 0.37565 0.79436 0.0
O347 O 0.87846 0.40802 0.75508 0.0
O348 O 0.95032 0.28725 0.74495 0.0
O349 O 0.90136 0.24373 0.66383 0.0
O350 O 0.86033 0.24477 0.82108 0.0
O351 O 0.87486 0.14606 0.77013 0.0
H352 H 0.9333 0.03375 0.54549 0.0
H353 H 0.96856 0.02653 0.42854 0.0
H354 H 0.77888 0.08006 0.36085 0.0
H355 H 0.7436 0.08799 0.47863 0.0
H356 H 0.77374 0.41333 0.92688 0.0
H357 H 0.81481 0.36966 1.0341 0.0
H358 H -0.00177 0.33771 0.94005 0.0
H359 H 0.96092 0.38512 0.83709 0.0
Nd360 Nd 0.63925 0.77145 0.17528 0.0
Nd361 Nd 0.61446 0.63482 0.23021 0.0
C362 C 0.64212 0.87209 0.09409 0.0
C363 C 0.62292 0.88254 1.0219 0.0
C364 C 0.55986 0.9013 1.00577 0.0
C365 C 0.53955 0.90551 0.93833 0.0
C366 C 0.58186 0.89203 0.88458 0.0
C367 C 0.64576 0.87588 0.9005 0.0
C368 C 0.66602 0.87124 0.96822 0.0
C369 C 0.7207 0.73395 0.28135 0.0
C370 C 0.64761 0.64401 0.07102 0.0
C371 C 0.62167 0.53436 0.30521 0.0
C372 C 0.59459 0.54163 0.3736 0.0
C373 C 0.63518 0.54667 0.43023 0.0
C374 C 0.61253 0.57394 0.49055 0.0
C375 C 0.54943 0.59771 0.4945 0.0
C376 C 0.50945 0.59167 0.43804 0.0
C377 C 0.53086 0.56277 0.37928 0.0
C378 C 0.5042 0.69789 0.19484 0.0
C379 C 0.58685 0.76279 0.32464 0.0
O380 O 0.59538 0.86137 0.13729 0.0
O381 O 0.69256 0.83574 0.10546 0.0
O382 O 0.70742 0.79318 0.2666 0.0
O383 O 0.7004 0.69909 0.23267 0.0
O384 O 0.65507 0.70631 0.08152 0.0
O385 O 0.63468 0.60411 0.12105 0.0
O386 O 0.67263 0.56958 0.29441 0.0
O387 O 0.58024 0.53722 0.25516 0.0
O388 O 0.50839 0.65801 0.245 0.0
O389 O 0.55736 0.70151 0.16382 0.0
O390 O 0.59835 0.70046 0.32106 0.0
O391 O 0.58385 0.79918 0.27003 0.0
H392 H 0.52541 0.91134 1.04541 0.0
H393 H 0.4901 0.91851 0.92848 0.0
H394 H 0.67983 0.86522 0.8607 0.0
H395 H 0.71515 0.85734 0.97846 0.0
H396 H 0.68491 0.53185 0.42695 0.0
H397 H 0.64384 0.57553 0.53415 0.0
H398 H 0.46047 0.60762 0.44008 0.0
H399 H 0.49777 0.56018 0.33716 0.0
Nd400 Nd 0.61437 0.13505 0.90405 0.0
Nd401 Nd 0.63941 0.2716 0.95898 0.0
C402 C 0.62166 0.0346 0.82911 0.0
C403 C 0.59455 0.0418 0.76072 0.0
C404 C 0.63515 0.04725 0.70411 0.0
C405 C 0.61236 0.0745 0.64382 0.0
C406 C 0.54909 0.09779 0.63987 0.0
C407 C 0.50908 0.09129 0.69628 0.0
C408 C 0.53067 0.06247 0.75503 0.0
C409 C 0.50418 0.19802 0.93934 0.0
C410 C 0.58684 0.26308 0.80967 0.0
C411 C 0.64239 0.37223 1.0401 0.0
C412 C 0.62313 0.38265 0.11227 0.0
C413 C 0.56001 0.40128 0.12838 0.0
C414 C 0.53966 0.40543 0.19582 0.0
C415 C 0.58198 0.39203 0.24957 0.0
C416 C 0.64592 0.376 0.23367 0.0
C417 C 0.66622 0.37142 0.16596 0.0
C418 C 0.72061 0.23392 0.85273 0.0
C419 C 0.64762 0.14414 1.06324 0.0
O420 O 0.67257 0.06988 0.83985 0.0
O421 O 0.58024 0.03742 0.87918 0.0
O422 O 0.50838 0.15803 0.88932 0.0
O423 O 0.55729 0.20191 0.97045 0.0
O424 O 0.59817 0.20073 0.81324 0.0
O425 O 0.58397 0.29944 0.86428 0.0
O426 O 0.59568 0.3616 0.99686 0.0
O427 O 0.69279 0.33581 1.02877 0.0
O428 O 0.70754 0.2932 0.86747 0.0
O429 O 0.70036 0.19924 0.90158 0.0
O430 O 0.65525 0.20642 1.0527 0.0
O431 O 0.63452 0.10429 1.01325 0.0
H432 H 0.68499 0.03279 0.70739 0.0
H433 H 0.64372 0.07647 0.60027 0.0
H434 H 0.45996 0.10677 0.6942 0.0
H435 H 0.49757 0.05955 0.79713 0.0
H436 H 0.52556 0.41125 0.08873 0.0
H437 H 0.49019 0.41833 0.20565 0.0
H438 H 0.67999 0.36541 0.27348 0.0
H439 H 0.71538 0.35762 0.15574 0.0
Nd440 Nd 0.84427 0.81016 0.40403 0.0
Nd441 Nd 0.8192 0.67363 0.45905 0.0
C442 C 0.837 0.91062 0.32903 0.0
C443 C 0.86412 0.90341 0.26064 0.0
C444 C 0.82354 0.89799 0.20404 0.0
C445 C 0.84633 0.87073 0.14377 0.0
C446 C 0.90958 0.84741 0.13983 0.0
C447 C 0.94958 0.85386 0.19623 0.0
C448 C 0.92799 0.8827 0.25496 0.0
C449 C 0.95445 0.74718 0.43933 0.0
C450 C 0.87182 0.68213 0.30973 0.0
C451 C 0.8162 0.573 0.54023 0.0
C452 C 0.83549 0.56259 0.6124 0.0
C453 C 0.89863 0.54404 0.62848 0.0
C454 C 0.91901 0.53992 0.6959 0.0
C455 C 0.87669 0.55326 0.74967 0.0
C456 C 0.81273 0.56921 0.73381 0.0
C457 C 0.79239 0.57377 0.6661 0.0
C458 C 0.73805 0.7113 0.35275 0.0
C459 C 0.81104 0.80108 0.56325 0.0
O460 O 0.78608 0.87535 0.3398 0.0
O461 O 0.87841 0.90779 0.3791 0.0
O462 O 0.95026 0.78717 0.38928 0.0
O463 O 0.90134 0.74329 0.47047 0.0
O464 O 0.86051 0.74449 0.31326 0.0
O465 O 0.87467 0.64577 0.36437 0.0
O466 O 0.86289 0.5836 0.49694 0.0
O467 O 0.76581 0.60945 0.52892 0.0
O468 O 0.75111 0.65203 0.36754 0.0
O469 O 0.75827 0.74598 0.40158 0.0
O470 O 0.80339 0.73881 0.55276 0.0
O471 O 0.82414 0.84093 0.51322 0.0
H472 H 0.77371 0.91248 0.20731 0.0
H473 H 0.81498 0.8688 0.10022 0.0
H474 H -0.00131 0.83835 0.19417 0.0
H475 H 0.96108 0.8856 0.29707 0.0
H476 H 0.93309 0.53412 0.58881 0.0
H477 H 0.9685 0.52708 0.70571 0.0
H478 H 0.77865 0.57976 0.77363 0.0
H479 H 0.74321 0.5875 0.6559 0.0
Nd480 Nd 0.39181 0.58762 0.65406 0.0
Nd481 Nd 0.52836 0.56245 0.70902 0.0
C482 C 0.29136 0.58045 0.57916 0.0
C483 C 0.29857 0.60756 0.51076 0.0
C484 C 0.3039 0.56696 0.45416 0.0
C485 C 0.33117 0.58968 0.39387 0.0
C486 C 0.35461 0.65287 0.3899 0.0
C487 C 0.34825 0.69288 0.44631 0.0
C488 C 0.31939 0.67138 0.50506 0.0
C489 C 0.45473 0.69776 0.68936 0.0
C490 C 0.51979 0.61507 0.55969 0.0
C491 C 0.62897 0.55946 0.79017 0.0
C492 C 0.63936 0.57876 0.86233 0.0
C493 C 0.65784 0.64191 0.87839 0.0
C494 C 0.66198 0.66228 0.94581 0.0
C495 C 0.64871 0.61996 0.99961 0.0
C496 C 0.63283 0.55599 0.98376 0.0
C497 C 0.62826 0.53566 0.91606 0.0
C498 C 0.49069 0.48124 0.60278 0.0
C499 C 0.40095 0.55429 0.81327 0.0
O500 O 0.32663 0.52948 0.58993 0.0
O501 O 0.29418 0.62187 0.62921 0.0
O502 O 0.41476 0.69361 0.63932 0.0
O503 O 0.45864 0.64462 0.72048 0.0
O504 O 0.45746 0.60376 0.56324 0.0
O505 O 0.55617 0.61788 0.61429 0.0
O506 O 0.61831 0.60615 0.74688 0.0
O507 O 0.59261 0.50906 0.77888 0.0
O508 O 0.54995 0.49432 0.6175 0.0
O509 O 0.45604 0.50157 0.65162 0.0
O510 O 0.46321 0.54658 0.80273 0.0
O511 O 0.36109 0.56747 0.76328 0.0
H512 H 0.28933 0.51716 0.45745 0.0
H513 H 0.33302 0.55834 0.35031 0.0
H514 H 0.36388 0.74195 0.44423 0.0
H515 H 0.31656 0.70448 0.54716 0.0
H516 H 0.66771 0.67637 0.83871 0.0
H517 H 0.67477 0.71178 0.9556 0.0
H518 H 0.62235 0.52191 1.0236 0.0
H519 H 0.61458 0.48647 0.90588 0.0
Nd520 Nd 0.06685 0.35755 0.154 0.0
Nd521 Nd 0.93029 0.3827 0.20899 0.0
C522 C 0.16729 0.36473 0.07903 0.0
C523 C 0.16007 0.33764 1.01066 0.0
C524 C 0.15476 0.37826 0.95403 0.0
C525 C 0.1275 0.35555 0.89375 0.0
C526 C 0.10405 0.29236 0.88982 0.0
C527 C 0.11038 0.25234 0.94626 0.0
C528 C 0.13923 0.27383 1.00499 0.0
C529 C 0.00392 0.2474 0.18935 0.0
C530 C 0.93887 0.33017 1.05966 0.0
C531 C 0.82966 0.38573 0.29013 0.0
C532 C 0.81926 0.36645 0.36231 0.0
C533 C 0.8008 0.3033 0.37842 0.0
C534 C 0.79669 0.28293 0.44586 0.0
C535 C 0.80995 0.32527 0.49961 0.0
C536 C 0.8258 0.38924 0.48371 0.0
C537 C 0.83034 0.40956 0.41599 0.0
C538 C 0.96798 0.46397 0.10277 0.0
C539 C 0.05772 0.39085 0.31319 0.0
O540 O 0.13203 0.4157 0.0898 0.0
O541 O 0.16448 0.3233 0.12911 0.0
O542 O 0.04389 0.25156 0.1393 0.0
O543 O 2e-05 0.30052 0.22045 0.0
O544 O 0.0012 0.34148 1.06319 0.0
O545 O 0.90249 0.32733 0.11427 0.0
O546 O 0.84032 0.33902 0.24689 0.0
O547 O 0.86605 0.43612 0.2788 0.0
O548 O 0.90872 0.45087 0.11749 0.0
O549 O 0.00263 0.44361 0.1516 0.0
O550 O -0.00456 0.39851 0.30268 0.0
O551 O 0.09757 0.3777 0.26318 0.0
H552 H 0.16934 0.42805 0.95729 0.0
H553 H 0.12567 0.3869 0.85017 0.0
H554 H 0.09474 0.20328 0.9442 0.0
H555 H 0.14205 0.24072 1.04711 0.0
H556 H 0.79094 0.26882 0.33878 0.0
H557 H 0.78392 0.23343 0.4557 0.0
H558 H 0.83627 0.42333 0.52351 0.0
H559 H 0.844 0.45875 0.40576 0.0
Nd560 Nd 0.43051 0.38264 0.42529 0.0
Nd561 Nd 0.56715 0.3576 0.48016 0.0
C562 C 0.32991 0.38556 0.34411 0.0
C563 C 0.31947 0.36634 0.27193 0.0
C564 C 0.30074 0.30328 0.25585 0.0
C565 C 0.2965 0.28295 0.18841 0.0
C566 C 0.30991 0.32526 0.13463 0.0
C567 C 0.32603 0.38916 0.15051 0.0
C568 C 0.3307 0.40943 0.21822 0.0
C569 C 0.46804 0.46393 0.53139 0.0
C570 C 0.55794 0.39092 0.32099 0.0
C571 C 0.66757 0.3647 0.55511 0.0
C572 C 0.66026 0.33765 0.62351 0.0
C573 C 0.6553 0.37828 0.68012 0.0
C574 C 0.62801 0.35572 0.74048 0.0
C575 C 0.60413 0.29269 0.74445 0.0
C576 C 0.61005 0.25267 0.688 0.0
C577 C 0.63899 0.27398 0.62922 0.0
C578 C 0.50407 0.24745 0.44474 0.0
C579 C 0.43917 0.33014 0.57462 0.0
O580 O 0.34065 0.33883 0.38734 0.0
O581 O 0.36622 0.43599 0.35544 0.0
O582 O 0.4088 0.45084 0.51663 0.0
O583 O 0.50289 0.44363 0.48268 0.0
O584 O 0.49566 0.39849 0.33153 0.0
O585 O 0.59784 0.37785 0.37098 0.0
O586 O 0.63238 0.41571 0.54428 0.0
O587 O 0.66473 0.32325 0.50508 0.0
O588 O 0.54397 0.25154 0.49485 0.0
O589 O 0.50045 0.30066 0.41377 0.0
O590 O 0.50149 0.34152 0.57103 0.0
O591 O 0.40279 0.32721 0.52002 0.0
H592 H 0.29075 0.26884 0.29551 0.0
H593 H 0.28353 0.23351 0.1786 0.0
H594 H 0.33663 0.42322 0.11068 0.0
H595 H 0.34457 0.45856 0.22842 0.0
H596 H 0.67021 0.42797 0.67681 0.0
H597 H 0.62651 0.38703 0.78407 0.0
H598 H 0.59398 0.20374 0.69007 0.0
H599 H 0.64151 0.24087 0.58711 0.0
Nd600 Nd 0.02818 0.56266 0.92531 0.0
Nd601 Nd 0.89154 0.58767 0.98022 0.0
C602 C 0.12881 0.5597 0.84415 0.0
C603 C 0.13927 0.5789 0.77196 0.0
C604 C 0.15797 0.64197 0.75581 0.0
C605 C 0.16219 0.66229 0.68836 0.0
C606 C 0.14878 0.61997 0.63463 0.0
C607 C 0.1327 0.55607 0.65056 0.0
C608 C 0.12804 0.5358 0.71829 0.0
C609 C -0.00936 0.48131 1.0314 0.0
C610 C 0.90074 0.55439 0.82107 0.0
C611 C 0.79113 0.58057 1.05523 0.0
C612 C 0.79845 0.6076 0.12361 0.0
C613 C 0.80339 0.56696 0.18025 0.0
C614 C 0.83067 0.5895 0.24059 0.0
C615 C 0.85456 0.65253 0.24453 0.0
C616 C 0.84867 0.69255 0.18806 0.0
C617 C 0.81974 0.67126 0.12929 0.0
C618 C 0.95463 0.69784 0.94475 0.0
C619 C 0.01952 0.61507 0.07465 0.0
O620 O 0.11807 0.60645 0.88733 0.0
O621 O 0.09248 0.50928 0.85552 0.0
O622 O 0.04988 0.49441 1.01664 0.0
O623 O 0.95579 0.50164 0.9827 0.0
O624 O 0.96304 0.54686 0.83158 0.0
O625 O 0.86085 0.56742 0.87108 0.0
O626 O 0.82632 0.52955 1.04441 0.0
O627 O 0.79397 0.62203 1.00518 0.0
O628 O 0.91472 0.69373 0.99488 0.0
O629 O 0.95825 0.64465 0.91379 0.0
O630 O 0.9572 0.60368 0.07108 0.0
O631 O 0.0559 0.61802 1.02005 0.0
H632 H 0.16794 0.67642 0.79544 0.0
H633 H 0.17513 0.71174 0.6785 0.0
H634 H 0.1221 0.522 0.61077 0.0
H635 H 0.1142 0.48666 0.72855 0.0
H636 H 0.78847 0.51727 0.17697 0.0
H637 H 0.83216 0.55818 0.28421 0.0
H638 H 0.86474 0.74147 0.1901 0.0
H639 H 0.81724 0.70437 0.08716 0.0
loop_
_geom_bond_atom_site_label_1
_geom_bond_atom_site_label_2
_geom_bond_distance
_geom_bond_site_symmetry_2
_ccdc_geom_bond_type
Nd0 C2 2.836 1_554 S
Nd0 O20 2.500 1_554 S
Nd0 O21 2.492 1_554 S
Nd0 O22 2.487 . S
Nd0 O23 2.682 1_655 S
Nd0 O24 2.410 1_655 S
Nd0 O29 2.414 . S
Nd0 O31 2.424 . S
Nd1 C11 2.836 . S
Nd1 O23 2.414 . S
Nd1 O25 2.424 . S
Nd1 O26 2.500 . S
Nd1 O27 2.492 . S
Nd1 O28 2.487 1_545 S
Nd1 O29 2.682 1_455 S
Nd1 O30 2.410 1_455 S
C2 Nd0 2.836 1_556 S
C2 C3 1.498 . S
C2 O20 1.258 . S
C2 O21 1.239 . S
C3 C2 1.498 . S
C3 C4 1.366 . S
C3 C8 1.407 . S
C4 C3 1.366 . S
C4 C5 1.392 . S
C4 H32 0.930 . S
C5 C4 1.392 . S
C5 C6 1.398 . S
C5 H33 0.929 . S
C6 C5 1.398 . S
C6 C7 1.352 . S
C7 C6 1.352 . S
C7 C8 1.384 . S
C7 H34 0.930 . S
C8 C3 1.407 . S
C8 C7 1.384 . S
C8 H35 0.929 . S
C9 O22 1.241 . S
C9 O23 1.273 1_655 S
C10 O24 1.251 . S
C10 O25 1.268 . S
C11 Nd1 2.836 . S
C11 C12 1.498 . S
C11 O26 1.258 . S
C11 O27 1.239 . S
C12 C11 1.498 . S
C12 C13 1.366 . S
C12 C17 1.407 1_545 S
C13 C12 1.366 . S
C13 C14 1.392 . S
C13 H36 0.930 . S
C14 C13 1.392 . S
C14 C15 1.398 . S
C14 H37 0.929 . S
C15 C14 1.398 . S
C15 C16 1.352 1_545 S
C16 C15 1.352 1_565 S
C16 C17 1.384 . S
C16 H38 0.930 . S
C17 C12 1.407 1_565 S
C17 C16 1.384 . S
C17 H39 0.929 . S
C18 O28 1.241 . S
C18 O29 1.273 1_465 S
C19 O30 1.251 . S
C19 O31 1.268 . S
O20 Nd0 2.500 1_556 S
O20 C2 1.258 . S
O21 Nd0 2.492 1_556 S
O21 C2 1.239 . S
O22 Nd0 2.487 . S
O22 C9 1.241 . S
O23 Nd0 2.682 1_455 S
O23 Nd1 2.414 . S
O23 C9 1.273 1_455 S
O24 Nd0 2.410 1_455 S
O24 C10 1.251 . S
O25 Nd1 2.424 . S
O25 C10 1.268 . S
O26 Nd1 2.500 . S
O26 C11 1.258 . S
O27 Nd1 2.492 . S
O27 C11 1.239 . S
O28 Nd1 2.487 1_565 S
O28 C18 1.241 . S
O29 Nd0 2.414 . S
O29 Nd1 2.682 1_655 S
O29 C18 1.273 1_645 S
O30 Nd1 2.410 1_655 S
O30 C19 1.251 . S
O31 Nd0 2.424 . S
O31 C19 1.268 . S
H32 C4 0.930 . S
H33 C5 0.929 . S
H34 C7 0.930 . S
H35 C8 0.929 . S
H36 C13 0.930 . S
H37 C14 0.929 . S
H38 C16 0.930 . S
H39 C17 0.929 . S
Nd40 C42 2.836 . S
Nd40 O60 2.500 . S
Nd40 O61 2.492 . S
Nd40 O62 2.487 . S
Nd40 O63 2.682 . S
Nd40 O64 2.410 . S
Nd40 O69 2.414 . S
Nd40 O71 2.424 . S
Nd41 C51 2.836 . S
Nd41 O63 2.414 . S
Nd41 O65 2.424 . S
Nd41 O66 2.500 . S
Nd41 O67 2.492 . S
Nd41 O68 2.487 . S
Nd41 O69 2.682 . S
Nd41 O70 2.410 . S
C42 Nd40 2.836 . S
C42 C43 1.498 . S
C42 O60 1.258 . S
C42 O61 1.239 . S
C43 C42 1.498 . S
C43 C44 1.366 . S
C43 C48 1.407 . S
C44 C43 1.366 . S
C44 C45 1.392 . S
C44 H72 0.930 . S
C45 C44 1.392 . S
C45 C46 1.398 . S
C45 H73 0.929 . S
C46 C45 1.398 . S
C46 C47 1.352 . S
C47 C46 1.352 . S
C47 C48 1.384 . S
C47 H74 0.930 . S
C48 C43 1.407 . S
C48 C47 1.384 . S
C48 H75 0.929 . S
C49 O62 1.241 . S
C49 O63 1.273 . S
C50 O64 1.251 . S
C50 O65 1.268 . S
C51 Nd41 2.836 . S
C51 C52 1.498 . S
C51 O66 1.258 . S
C51 O67 1.239 . S
C52 C51 1.498 . S
C52 C53 1.366 . S
C52 C57 1.407 . S
C53 C52 1.366 . S
C53 C54 1.392 . S
C53 H76 0.930 . S
C54 C53 1.392 . S
C54 C55 1.398 . S
C54 H77 0.929 . S
C55 C54 1.398 . S
C55 C56 1.352 . S
C56 C55 1.352 . S
C56 C57 1.384 . S
C56 H78 0.930 . S
C57 C52 1.407 . S
C57 C56 1.384 . S
C57 H79 0.929 . S
C58 O68 1.241 . S
C58 O69 1.273 . S
C59 O70 1.251 . S
C59 O71 1.268 . S
O60 Nd40 2.500 . S
O60 C42 1.258 . S
O61 Nd40 2.492 . S
O61 C42 1.239 . S
O62 Nd40 2.487 . S
O62 C49 1.241 . S
O63 Nd40 2.682 . S
O63 Nd41 2.414 . S
O63 C49 1.273 . S
O64 Nd40 2.410 . S
O64 C50 1.251 . S
O65 Nd41 2.424 . S
O65 C50 1.268 . S
O66 Nd41 2.500 . S
O66 C51 1.258 . S
O67 Nd41 2.492 . S
O67 C51 1.239 . S
O68 Nd41 2.487 . S
O68 C58 1.241 . S
O69 Nd40 2.414 . S
O69 Nd41 2.682 . S
O69 C58 1.273 . S
O70 Nd41 2.410 . S
O70 C59 1.251 . S
O71 Nd40 2.424 . S
O71 C59 1.268 . S
H72 C44 0.930 . S
H73 C45 0.929 . S
H74 C47 0.930 . S
H75 C48 0.929 . S
H76 C53 0.930 . S
H77 C54 0.929 . S
H78 C56 0.930 . S
H79 C57 0.929 . S
Nd80 C82 2.836 . S
Nd80 O100 2.500 . S
Nd80 O101 2.492 . S
Nd80 O102 2.487 . S
Nd80 O103 2.682 . S
Nd80 O104 2.410 . S
Nd80 O109 2.414 . S
Nd80 O111 2.424 . S
Nd81 C91 2.836 . S
Nd81 O103 2.414 . S
Nd81 O105 2.424 . S
Nd81 O106 2.500 . S
Nd81 O107 2.492 . S
Nd81 O108 2.487 1_565 S
Nd81 O109 2.682 . S
Nd81 O110 2.410 . S
C82 Nd80 2.836 . S
C82 C83 1.498 . S
C82 O100 1.258 . S
C82 O101 1.239 . S
C83 C82 1.498 . S
C83 C84 1.366 . S
C83 C88 1.407 . S
C84 C83 1.366 . S
C84 C85 1.392 . S
C84 H112 0.930 . S
C85 C84 1.392 . S
C85 C86 1.398 . S
C85 H113 0.929 . S
C86 C85 1.398 . S
C86 C87 1.352 . S
C87 C86 1.352 . S
C87 C88 1.384 . S
C87 H114 0.930 . S
C88 C83 1.407 . S
C88 C87 1.384 . S
C88 H115 0.929 . S
C89 O102 1.241 . S
C89 O103 1.273 . S
C90 O104 1.251 . S
C90 O105 1.268 . S
C91 Nd81 2.836 . S
C91 C92 1.498 . S
C91 O106 1.258 . S
C91 O107 1.239 . S
C92 C91 1.498 . S
C92 C93 1.366 . S
C92 C97 1.407 1_565 S
C93 C92 1.366 . S
C93 C94 1.392 . S
C93 H116 0.930 . S
C94 C93 1.392 . S
C94 C95 1.398 . S
C94 H117 0.929 . S
C95 C94 1.398 . S
C95 C96 1.352 1_565 S
C96 C95 1.352 1_545 S
C96 C97 1.384 . S
C96 H118 0.930 . S
C97 C92 1.407 1_545 S
C97 C96 1.384 . S
C97 H119 0.929 . S
C98 O108 1.241 . S
C98 O109 1.273 1_545 S
C99 O110 1.251 . S
C99 O111 1.268 . S
O100 Nd80 2.500 . S
O100 C82 1.258 . S
O101 Nd80 2.492 . S
O101 C82 1.239 . S
O102 Nd80 2.487 . S
O102 C89 1.241 . S
O103 Nd80 2.682 . S
O103 Nd81 2.414 . S
O103 C89 1.273 . S
O104 Nd80 2.410 . S
O104 C90 1.251 . S
O105 Nd81 2.424 . S
O105 C90 1.268 . S
O106 Nd81 2.500 . S
O106 C91 1.258 . S
O107 Nd81 2.492 . S
O107 C91 1.239 . S
O108 Nd81 2.487 1_545 S
O108 C98 1.241 . S
O109 Nd80 2.414 . S
O109 Nd81 2.682 . S
O109 C98 1.273 1_565 S
O110 Nd81 2.410 . S
O110 C99 1.251 . S
O111 Nd80 2.424 . S
O111 C99 1.268 . S
H112 C84 0.930 . S
H113 C85 0.929 . S
H114 C87 0.930 . S
H115 C88 0.929 . S
H116 C93 0.930 . S
H117 C94 0.929 . S
H118 C96 0.930 . S
H119 C97 0.929 . S
Nd120 C122 2.836 . S
Nd120 O140 2.500 . S
Nd120 O141 2.492 . S
Nd120 O142 2.487 . S
Nd120 O143 2.682 . S
Nd120 O144 2.410 . S
Nd120 O149 2.414 . S
Nd120 O151 2.424 . S
Nd121 C131 2.836 1_556 S
Nd121 O143 2.414 . S
Nd121 O145 2.424 . S
Nd121 O146 2.500 1_556 S
Nd121 O147 2.492 . S
Nd121 O148 2.487 . S
Nd121 O149 2.682 . S
Nd121 O150 2.410 . S
C122 Nd120 2.836 . S
C122 C123 1.498 . S
C122 O140 1.258 . S
C122 O141 1.239 . S
C123 C122 1.498 . S
C123 C124 1.366 . S
C123 C128 1.407 . S
C124 C123 1.366 . S
C124 C125 1.392 . S
C124 H152 0.930 . S
C125 C124 1.392 . S
C125 C126 1.398 . S
C125 H153 0.929 . S
C126 C125 1.398 . S
C126 C127 1.352 . S
C127 C126 1.352 . S
C127 C128 1.384 . S
C127 H154 0.930 . S
C128 C123 1.407 . S
C128 C127 1.384 . S
C128 H155 0.929 . S
C129 O142 1.241 . S
C129 O143 1.273 . S
C130 O144 1.251 . S
C130 O145 1.268 . S
C131 Nd121 2.836 1_554 S
C131 C132 1.498 . S
C131 O146 1.258 . S
C131 O147 1.239 1_554 S
C132 C131 1.498 . S
C132 C133 1.366 . S
C132 C137 1.407 . S
C133 C132 1.366 . S
C133 C134 1.392 . S
C133 H156 0.930 . S
C134 C133 1.392 . S
C134 C135 1.398 . S
C134 H157 0.929 . S
C135 C134 1.398 . S
C135 C136 1.352 . S
C136 C135 1.352 . S
C136 C137 1.384 . S
C136 H158 0.930 . S
C137 C132 1.407 . S
C137 C136 1.384 . S
C137 H159 0.929 . S
C138 O148 1.241 . S
C138 O149 1.273 . S
C139 O150 1.251 . S
C139 O151 1.268 . S
O140 Nd120 2.500 . S
O140 C122 1.258 . S
O141 Nd120 2.492 . S
O141 C122 1.239 . S
O142 Nd120 2.487 . S
O142 C129 1.241 . S
O143 Nd120 2.682 . S
O143 Nd121 2.414 . S
O143 C129 1.273 . S
O144 Nd120 2.410 . S
O144 C130 1.251 . S
O145 Nd121 2.424 . S
O145 C130 1.268 . S
O146 Nd121 2.500 1_554 S
O146 C131 1.258 . S
O147 Nd121 2.492 . S
O147 C131 1.239 1_556 S
O148 Nd121 2.487 . S
O148 C138 1.241 . S
O149 Nd120 2.414 . S
O149 Nd121 2.682 . S
O149 C138 1.273 . S
O150 Nd121 2.410 . S
O150 C139 1.251 . S
O151 Nd120 2.424 . S
O151 C139 1.268 . S
H152 C124 0.930 . S
H153 C125 0.929 . S
H154 C127 0.930 . S
H155 C128 0.929 . S
H156 C133 0.930 . S
H157 C134 0.929 . S
H158 C136 0.930 . S
H159 C137 0.929 . S
Nd160 C162 2.836 . S
Nd160 O180 2.500 . S
Nd160 O181 2.492 . S
Nd160 O182 2.487 1_565 S
Nd160 O183 2.682 1_655 S
Nd160 O184 2.410 1_655 S
Nd160 O189 2.414 1_655 S
Nd160 O191 2.424 . S
Nd161 C171 2.836 1_556 S
Nd161 O183 2.414 . S
Nd161 O185 2.424 . S
Nd161 O186 2.500 1_556 S
Nd161 O187 2.492 1_556 S
Nd161 O188 2.487 . S
Nd161 O189 2.682 . S
Nd161 O190 2.410 . S
C162 Nd160 2.836 . S
C162 C163 1.498 . S
C162 O180 1.258 . S
C162 O181 1.239 . S
C163 C162 1.498 . S
C163 C164 1.366 . S
C163 C168 1.407 1_565 S
C164 C163 1.366 . S
C164 C165 1.392 . S
C164 H192 0.930 . S
C165 C164 1.392 . S
C165 C166 1.398 . S
C165 H193 0.929 . S
C166 C165 1.398 . S
C166 C167 1.352 1_565 S
C167 C166 1.352 1_545 S
C167 C168 1.384 . S
C167 H194 0.930 . S
C168 C163 1.407 1_545 S
C168 C167 1.384 . S
C168 H195 0.929 . S
C169 O182 1.249 . S
C169 O183 1.269 1_645 S
C170 O184 1.251 . S
C170 O185 1.268 . S
C171 Nd161 2.836 1_554 S
C171 C172 1.498 . S
C171 O186 1.258 . S
C171 O187 1.239 . S
C172 C171 1.498 . S
C172 C173 1.366 . S
C172 C177 1.407 . S
C173 C172 1.366 . S
C173 C174 1.392 . S
C173 H196 0.930 . S
C174 C173 1.392 . S
C174 C175 1.398 . S
C174 H197 0.929 . S
C175 C174 1.398 . S
C175 C176 1.352 . S
C176 C175 1.352 . S
C176 C177 1.384 . S
C176 H198 0.930 . S
C177 C172 1.407 . S
C177 C176 1.384 . S
C177 H199 0.929 . S
C178 O188 1.241 . S
C178 O189 1.273 . S
C179 O190 1.251 1_655 S
C179 O191 1.268 . S
O180 Nd160 2.500 . S
O180 C162 1.258 . S
O181 Nd160 2.492 . S
O181 C162 1.239 . S
O182 Nd160 2.487 1_545 S
O182 C169 1.249 . S
O183 Nd160 2.682 1_455 S
O183 Nd161 2.414 . S
O183 C169 1.269 1_465 S
O184 Nd160 2.410 1_455 S
O184 C170 1.251 . S
O185 Nd161 2.424 . S
O185 C170 1.268 . S
O186 Nd161 2.500 1_554 S
O186 C171 1.258 . S
O187 Nd161 2.492 1_554 S
O187 C171 1.239 . S
O188 Nd161 2.487 . S
O188 C178 1.241 . S
O189 Nd160 2.414 1_455 S
O189 Nd161 2.682 . S
O189 C178 1.273 . S
O190 Nd161 2.410 . S
O190 C179 1.251 1_455 S
O191 Nd160 2.424 . S
O191 C179 1.268 . S
H192 C164 0.930 . S
H193 C165 0.929 . S
H194 C167 0.930 . S
H195 C168 0.929 . S
H196 C173 0.930 . S
H197 C174 0.929 . S
H198 C176 0.930 . S
H199 C177 0.929 . S
Nd200 C202 2.836 1_554 S
Nd200 O220 2.500 1_554 S
Nd200 O221 2.492 . S
Nd200 O222 2.487 . S
Nd200 O223 2.682 . S
Nd200 O224 2.410 . S
Nd200 O229 2.414 . S
Nd200 O231 2.424 . S
Nd201 C211 2.836 . S
Nd201 O223 2.414 . S
Nd201 O225 2.424 . S
Nd201 O226 2.500 . S
Nd201 O227 2.492 . S
Nd201 O228 2.487 . S
Nd201 O229 2.682 . S
Nd201 O230 2.410 . S
C202 Nd200 2.836 1_556 S
C202 C203 1.498 . S
C202 O220 1.258 . S
C202 O221 1.239 1_556 S
C203 C202 1.498 . S
C203 C204 1.366 . S
C203 C208 1.407 . S
C204 C203 1.366 . S
C204 C205 1.392 . S
C204 H232 0.930 . S
C205 C204 1.392 . S
C205 C206 1.398 . S
C205 H233 0.929 . S
C206 C205 1.398 . S
C206 C207 1.352 . S
C207 C206 1.352 . S
C207 C208 1.384 . S
C207 H234 0.930 . S
C208 C203 1.407 . S
C208 C207 1.384 . S
C208 H235 0.929 . S
C209 O222 1.241 . S
C209 O223 1.273 . S
C210 O224 1.251 . S
C210 O225 1.268 . S
C211 Nd201 2.836 . S
C211 C212 1.498 . S
C211 O226 1.258 . S
C211 O227 1.239 . S
C212 C211 1.498 . S
C212 C213 1.366 . S
C212 C217 1.407 . S
C213 C212 1.366 . S
C213 C214 1.392 . S
C213 H236 0.930 . S
C214 C213 1.392 . S
C214 C215 1.398 . S
C214 H237 0.929 . S
C215 C214 1.398 . S
C215 C216 1.352 . S
C216 C215 1.352 . S
C216 C217 1.384 . S
C216 H238 0.930 . S
C217 C212 1.407 . S
C217 C216 1.384 . S
C217 H239 0.929 . S
C218 O228 1.241 . S
C218 O229 1.273 . S
C219 O230 1.251 . S
C219 O231 1.268 . S
O220 Nd200 2.500 1_556 S
O220 C202 1.258 . S
O221 Nd200 2.492 . S
O221 C202 1.239 1_554 S
O222 Nd200 2.487 . S
O222 C209 1.241 . S
O223 Nd200 2.682 . S
O223 Nd201 2.414 . S
O223 C209 1.273 . S
O224 Nd200 2.410 . S
O224 C210 1.251 . S
O225 Nd201 2.424 . S
O225 C210 1.268 . S
O226 Nd201 2.500 . S
O226 C211 1.258 . S
O227 Nd201 2.492 . S
O227 C211 1.239 . S
O228 Nd201 2.487 . S
O228 C218 1.241 . S
O229 Nd200 2.414 . S
O229 Nd201 2.682 . S
O229 C218 1.273 . S
O230 Nd201 2.410 . S
O230 C219 1.251 . S
O231 Nd200 2.424 . S
O231 C219 1.268 . S
H232 C204 0.930 . S
H233 C205 0.929 . S
H234 C207 0.930 . S
H235 C208 0.929 . S
H236 C213 0.930 . S
H237 C214 0.929 . S
H238 C216 0.930 . S
H239 C217 0.929 . S
Nd240 C242 2.836 . S
Nd240 O260 2.500 . S
Nd240 O261 2.492 . S
Nd240 O262 2.487 1_545 S
Nd240 O263 2.682 . S
Nd240 O264 2.410 . S
Nd240 O269 2.414 . S
Nd240 O271 2.424 . S
Nd241 C251 2.836 . S
Nd241 O263 2.414 . S
Nd241 O265 2.424 . S
Nd241 O266 2.500 . S
Nd241 O267 2.492 . S
Nd241 O268 2.487 . S
Nd241 O269 2.682 . S
Nd241 O270 2.410 . S
C242 Nd240 2.836 . S
C242 C243 1.498 . S
C242 O260 1.258 . S
C242 O261 1.239 . S
C243 C242 1.498 . S
C243 C244 1.366 . S
C243 C248 1.407 1_545 S
C244 C243 1.366 . S
C244 C245 1.392 . S
C244 H272 0.930 . S
C245 C244 1.392 . S
C245 C246 1.398 . S
C245 H273 0.929 . S
C246 C245 1.398 . S
C246 C247 1.352 1_545 S
C247 C246 1.352 1_565 S
C247 C248 1.384 . S
C247 H274 0.930 . S
C248 C243 1.407 1_565 S
C248 C247 1.384 . S
C248 H275 0.929 . S
C249 O262 1.241 . S
C249 O263 1.273 1_565 S
C250 O264 1.251 . S
C250 O265 1.268 . S
C251 Nd241 2.836 . S
C251 C252 1.498 . S
C251 O266 1.258 . S
C251 O267 1.239 . S
C252 C251 1.498 . S
C252 C253 1.366 . S
C252 C257 1.407 . S
C253 C252 1.366 . S
C253 C254 1.392 . S
C253 H276 0.930 . S
C254 C253 1.392 . S
C254 C255 1.398 . S
C254 H277 0.929 . S
C255 C254 1.398 . S
C255 C256 1.352 . S
C256 C255 1.352 . S
C256 C257 1.384 . S
C256 H278 0.930 . S
C257 C252 1.407 . S
C257 C256 1.384 . S
C257 H279 0.929 . S
C258 O268 1.241 . S
C258 O269 1.273 . S
C259 O270 1.251 . S
C259 O271 1.268 . S
O260 Nd240 2.500 . S
O260 C242 1.258 . S
O261 Nd240 2.492 . S
O261 C242 1.239 . S
O262 Nd240 2.487 1_565 S
O262 C249 1.241 . S
O263 Nd240 2.682 . S
O263 Nd241 2.414 . S
O263 C249 1.273 1_545 S
O264 Nd240 2.410 . S
O264 C250 1.251 . S
O265 Nd241 2.424 . S
O265 C250 1.268 . S
O266 Nd241 2.500 . S
O266 C251 1.258 . S
O267 Nd241 2.492 . S
O267 C251 1.239 . S
O268 Nd241 2.487 . S
O268 C258 1.241 . S
O269 Nd240 2.414 . S
O269 Nd241 2.682 . S
O269 C258 1.273 . S
O270 Nd241 2.410 . S
O270 C259 1.251 . S
O271 Nd240 2.424 . S
O271 C259 1.268 . S
H272 C244 0.930 . S
H273 C245 0.929 . S
H274 C247 0.930 . S
H275 C248 0.929 . S
H276 C253 0.930 . S
H277 C254 0.929 . S
H278 C256 0.930 . S
H279 C257 0.929 . S
Nd280 C282 2.836 . S
Nd280 O300 2.500 . S
Nd280 O301 2.492 . S
Nd280 O302 2.487 . S
Nd280 O303 2.682 . S
Nd280 O304 2.410 . S
Nd280 O309 2.414 . S
Nd280 O311 2.424 . S
Nd281 C291 2.836 . S
Nd281 O303 2.414 . S
Nd281 O305 2.424 . S
Nd281 O306 2.500 . S
Nd281 O307 2.492 . S
Nd281 O308 2.487 . S
Nd281 O309 2.682 . S
Nd281 O310 2.410 . S
C282 Nd280 2.836 . S
C282 C283 1.498 . S
C282 O300 1.258 . S
C282 O301 1.239 . S
C283 C282 1.498 . S
C283 C284 1.366 . S
C283 C288 1.407 . S
C284 C283 1.366 . S
C284 C285 1.392 . S
C284 H312 0.930 . S
C285 C284 1.392 . S
C285 C286 1.398 . S
C285 H313 0.929 . S
C286 C285 1.398 . S
C286 C287 1.352 . S
C287 C286 1.352 . S
C287 C288 1.384 . S
C287 H314 0.930 . S
C288 C283 1.407 . S
C288 C287 1.384 . S
C288 H315 0.929 . S
C289 O302 1.241 . S
C289 O303 1.273 . S
C290 O304 1.251 . S
C290 O305 1.268 . S
C291 Nd281 2.836 . S
C291 C292 1.498 . S
C291 O306 1.258 . S
C291 O307 1.239 . S
C292 C291 1.498 . S
C292 C293 1.366 . S
C292 C297 1.407 . S
C293 C292 1.366 . S
C293 C294 1.392 . S
C293 H316 0.930 . S
C294 C293 1.392 . S
C294 C295 1.398 . S
C294 H317 0.929 . S
C295 C294 1.398 . S
C295 C296 1.352 . S
C296 C295 1.352 . S
C296 C297 1.384 . S
C296 H318 0.930 . S
C297 C292 1.407 . S
C297 C296 1.384 . S
C297 H319 0.929 . S
C298 O308 1.241 . S
C298 O309 1.273 . S
C299 O310 1.251 . S
C299 O311 1.268 . S
O300 Nd280 2.500 . S
O300 C282 1.258 . S
O301 Nd280 2.492 . S
O301 C282 1.239 . S
O302 Nd280 2.487 . S
O302 C289 1.241 . S
O303 Nd280 2.682 . S
O303 Nd281 2.414 . S
O303 C289 1.273 . S
O304 Nd280 2.410 . S
O304 C290 1.251 . S
O305 Nd281 2.424 . S
O305 C290 1.268 . S
O306 Nd281 2.500 . S
O306 C291 1.258 . S
O307 Nd281 2.492 . S
O307 C291 1.239 . S
O308 Nd281 2.487 . S
O308 C298 1.241 . S
O309 Nd280 2.414 . S
O309 Nd281 2.682 . S
O309 C298 1.273 . S
O310 Nd281 2.410 . S
O310 C299 1.251 . S
O311 Nd280 2.424 . S
O311 C299 1.268 . S
H312 C284 0.930 . S
H313 C285 0.929 . S
H314 C287 0.930 . S
H315 C288 0.929 . S
H316 C293 0.930 . S
H317 C294 0.929 . S
H318 C296 0.930 . S
H319 C297 0.929 . S
Nd320 C322 2.836 . S
Nd320 O340 2.500 . S
Nd320 O341 2.492 . S
Nd320 O342 2.487 . S
Nd320 O343 2.682 . S
Nd320 O344 2.410 . S
Nd320 O349 2.414 . S
Nd320 O351 2.424 . S
Nd321 C331 2.836 . S
Nd321 O343 2.414 . S
Nd321 O345 2.424 . S
Nd321 O346 2.500 . S
Nd321 O347 2.492 . S
Nd321 O348 2.487 . S
Nd321 O349 2.682 . S
Nd321 O350 2.410 . S
C322 Nd320 2.836 . S
C322 C323 1.498 . S
C322 O340 1.258 . S
C322 O341 1.239 . S
C323 C322 1.498 . S
C323 C324 1.366 . S
C323 C328 1.407 . S
C324 C323 1.366 . S
C324 C325 1.392 . S
C324 H352 0.930 . S
C325 C324 1.392 . S
C325 C326 1.398 . S
C325 H353 0.929 . S
C326 C325 1.398 . S
C326 C327 1.352 . S
C327 C326 1.352 . S
C327 C328 1.384 . S
C327 H354 0.930 . S
C328 C323 1.407 . S
C328 C327 1.384 . S
C328 H355 0.929 . S
C329 O342 1.241 . S
C329 O343 1.273 . S
C330 O344 1.251 . S
C330 O345 1.268 . S
C331 Nd321 2.836 . S
C331 C332 1.498 . S
C331 O346 1.258 . S
C331 O347 1.239 . S
C332 C331 1.498 . S
C332 C333 1.366 . S
C332 C337 1.407 . S
C333 C332 1.366 . S
C333 C334 1.392 . S
C333 H356 0.930 . S
C334 C333 1.392 . S
C334 C335 1.398 . S
C334 H357 0.929 . S
C335 C334 1.398 . S
C335 C336 1.352 . S
C336 C335 1.352 . S
C336 C337 1.384 . S
C336 H358 0.930 . S
C337 C332 1.407 . S
C337 C336 1.384 . S
C337 H359 0.929 . S
C338 O348 1.241 . S
C338 O349 1.273 . S
C339 O350 1.251 . S
C339 O351 1.268 . S
O340 Nd320 2.500 . S
O340 C322 1.258 . S
O341 Nd320 2.492 . S
O341 C322 1.239 . S
O342 Nd320 2.487 . S
O342 C329 1.241 . S
O343 Nd320 2.682 . S
O343 Nd321 2.414 . S
O343 C329 1.273 . S
O344 Nd320 2.410 . S
O344 C330 1.251 . S
O345 Nd321 2.424 . S
O345 C330 1.268 . S
O346 Nd321 2.500 . S
O346 C331 1.258 . S
O347 Nd321 2.492 . S
O347 C331 1.239 . S
O348 Nd321 2.487 . S
O348 C338 1.241 . S
O349 Nd320 2.414 . S
O349 Nd321 2.682 . S
O349 C338 1.273 . S
O350 Nd321 2.410 . S
O350 C339 1.251 . S
O351 Nd320 2.424 . S
O351 C339 1.268 . S
H352 C324 0.930 . S
H353 C325 0.929 . S
H354 C327 0.930 . S
H355 C328 0.929 . S
H356 C333 0.930 . S
H357 C334 0.929 . S
H358 C336 0.930 . S
H359 C337 0.929 . S
Nd360 C362 2.836 1_554 S
Nd360 O380 2.500 1_554 S
Nd360 O381 2.492 . S
Nd360 O382 2.487 . S
Nd360 O383 2.682 . S
Nd360 O384 2.410 . S
Nd360 O389 2.414 . S
Nd360 O391 2.424 . S
Nd361 C371 2.836 . S
Nd361 O383 2.414 . S
Nd361 O385 2.424 . S
Nd361 O386 2.500 . S
Nd361 O387 2.492 . S
Nd361 O388 2.487 . S
Nd361 O389 2.682 . S
Nd361 O390 2.410 . S
C362 Nd360 2.836 1_556 S
C362 C363 1.498 . S
C362 O380 1.258 . S
C362 O381 1.239 1_556 S
C363 C362 1.498 . S
C363 C364 1.366 . S
C363 C368 1.407 . S
C364 C363 1.366 . S
C364 C365 1.392 . S
C364 H392 0.930 . S
C365 C364 1.392 . S
C365 C366 1.398 . S
C365 H393 0.929 . S
C366 C365 1.398 . S
C366 C367 1.352 . S
C367 C366 1.352 . S
C367 C368 1.384 . S
C367 H394 0.930 . S
C368 C363 1.407 . S
C368 C367 1.384 . S
C368 H395 0.929 . S
C369 O382 1.241 . S
C369 O383 1.273 . S
C370 O384 1.251 . S
C370 O385 1.268 . S
C371 Nd361 2.836 . S
C371 C372 1.498 . S
C371 O386 1.258 . S
C371 O387 1.239 . S
C372 C371 1.498 . S
C372 C373 1.366 . S
C372 C377 1.407 . S
C373 C372 1.366 . S
C373 C374 1.392 . S
C373 H396 0.930 . S
C374 C373 1.392 . S
C374 C375 1.398 . S
C374 H397 0.929 . S
C375 C374 1.398 . S
C375 C376 1.352 . S
C376 C375 1.352 . S
C376 C377 1.384 . S
C376 H398 0.930 . S
C377 C372 1.407 . S
C377 C376 1.384 . S
C377 H399 0.929 . S
C378 O388 1.241 . S
C378 O389 1.273 . S
C379 O390 1.251 . S
C379 O391 1.268 . S
O380 Nd360 2.500 1_556 S
O380 C362 1.258 . S
O381 Nd360 2.492 . S
O381 C362 1.239 1_554 S
O382 Nd360 2.487 . S
O382 C369 1.241 . S
O383 Nd360 2.682 . S
O383 Nd361 2.414 . S
O383 C369 1.273 . S
O384 Nd360 2.410 . S
O384 C370 1.251 . S
O385 Nd361 2.424 . S
O385 C370 1.268 . S
O386 Nd361 2.500 . S
O386 C371 1.258 . S
O387 Nd361 2.492 . S
O387 C371 1.239 . S
O388 Nd361 2.487 . S
O388 C378 1.241 . S
O389 Nd360 2.414 . S
O389 Nd361 2.682 . S
O389 C378 1.273 . S
O390 Nd361 2.410 . S
O390 C379 1.251 . S
O391 Nd360 2.424 . S
O391 C379 1.268 . S
H392 C364 0.930 . S
H393 C365 0.929 . S
H394 C367 0.930 . S
H395 C368 0.929 . S
H396 C373 0.930 . S
H397 C374 0.929 . S
H398 C376 0.930 . S
H399 C377 0.929 . S
Nd400 C402 2.836 . S
Nd400 O420 2.500 . S
Nd400 O421 2.492 . S
Nd400 O422 2.487 . S
Nd400 O423 2.682 . S
Nd400 O424 2.410 . S
Nd400 O429 2.414 . S
Nd400 O431 2.424 . S
Nd401 C411 2.836 1_556 S
Nd401 O423 2.414 . S
Nd401 O425 2.424 . S
Nd401 O426 2.500 1_556 S
Nd401 O427 2.492 . S
Nd401 O428 2.487 . S
Nd401 O429 2.682 . S
Nd401 O430 2.410 . S
C402 Nd400 2.836 . S
C402 C403 1.498 . S
C402 O420 1.258 . S
C402 O421 1.239 . S
C403 C402 1.498 . S
C403 C404 1.366 . S
C403 C408 1.407 . S
C404 C403 1.366 . S
C404 C405 1.392 . S
C404 H432 0.930 . S
C405 C404 1.392 . S
C405 C406 1.398 . S
C405 H433 0.929 . S
C406 C405 1.398 . S
C406 C407 1.352 . S
C407 C406 1.352 . S
C407 C408 1.384 . S
C407 H434 0.930 . S
C408 C403 1.407 . S
C408 C407 1.384 . S
C408 H435 0.929 . S
C409 O422 1.241 . S
C409 O423 1.273 . S
C410 O424 1.251 . S
C410 O425 1.268 . S
C411 Nd401 2.836 1_554 S
C411 C412 1.498 . S
C411 O426 1.258 . S
C411 O427 1.239 1_554 S
C412 C411 1.498 . S
C412 C413 1.366 . S
C412 C417 1.407 . S
C413 C412 1.366 . S
C413 C414 1.392 . S
C413 H436 0.930 . S
C414 C413 1.392 . S
C414 C415 1.398 . S
C414 H437 0.929 . S
C415 C414 1.398 . S
C415 C416 1.352 . S
C416 C415 1.352 . S
C416 C417 1.384 . S
C416 H438 0.930 . S
C417 C412 1.407 . S
C417 C416 1.384 . S
C417 H439 0.929 . S
C418 O428 1.241 . S
C418 O429 1.273 . S
C419 O430 1.251 . S
C419 O431 1.268 . S
O420 Nd400 2.500 . S
O420 C402 1.258 . S
O421 Nd400 2.492 . S
O421 C402 1.239 . S
O422 Nd400 2.487 . S
O422 C409 1.241 . S
O423 Nd400 2.682 . S
O423 Nd401 2.414 . S
O423 C409 1.273 . S
O424 Nd400 2.410 . S
O424 C410 1.251 . S
O425 Nd401 2.424 . S
O425 C410 1.268 . S
O426 Nd401 2.500 1_554 S
O426 C411 1.258 . S
O427 Nd401 2.492 . S
O427 C411 1.239 1_556 S
O428 Nd401 2.487 . S
O428 C418 1.241 . S
O429 Nd400 2.414 . S
O429 Nd401 2.682 . S
O429 C418 1.273 . S
O430 Nd401 2.410 . S
O430 C419 1.251 . S
O431 Nd400 2.424 . S
O431 C419 1.268 . S
H432 C404 0.930 . S
H433 C405 0.929 . S
H434 C407 0.930 . S
H435 C408 0.929 . S
H436 C413 0.930 . S
H437 C414 0.929 . S
H438 C416 0.930 . S
H439 C417 0.929 . S
Nd440 C442 2.836 . S
Nd440 O460 2.500 . S
Nd440 O461 2.492 . S
Nd440 O462 2.487 . S
Nd440 O463 2.682 . S
Nd440 O464 2.410 . S
Nd440 O469 2.414 . S
Nd440 O471 2.424 . S
Nd441 C451 2.836 . S
Nd441 O463 2.414 . S
Nd441 O465 2.424 . S
Nd441 O466 2.500 . S
Nd441 O467 2.492 . S
Nd441 O468 2.487 . S
Nd441 O469 2.682 . S
Nd441 O470 2.410 . S
C442 Nd440 2.836 . S
C442 C443 1.498 . S
C442 O460 1.258 . S
C442 O461 1.239 . S
C443 C442 1.498 . S
C443 C444 1.366 . S
C443 C448 1.407 . S
C444 C443 1.366 . S
C444 C445 1.392 . S
C444 H472 0.930 . S
C445 C444 1.392 . S
C445 C446 1.398 . S
C445 H473 0.929 . S
C446 C445 1.398 . S
C446 C447 1.352 . S
C447 C446 1.352 . S
C447 C448 1.384 . S
C447 H474 0.930 . S
C448 C443 1.407 . S
C448 C447 1.384 . S
C448 H475 0.929 . S
C449 O462 1.241 . S
C449 O463 1.273 . S
C450 O464 1.251 . S
C450 O465 1.268 . S
C451 Nd441 2.836 . S
C451 C452 1.498 . S
C451 O466 1.258 . S
C451 O467 1.239 . S
C452 C451 1.498 . S
C452 C453 1.366 . S
C452 C457 1.407 . S
C453 C452 1.366 . S
C453 C454 1.392 . S
C453 H476 0.930 . S
C454 C453 1.392 . S
C454 C455 1.398 . S
C454 H477 0.929 . S
C455 C454 1.398 . S
C455 C456 1.352 . S
C456 C455 1.352 . S
C456 C457 1.384 . S
C456 H478 0.930 . S
C457 C452 1.407 . S
C457 C456 1.384 . S
C457 H479 0.929 . S
C458 O468 1.241 . S
C458 O469 1.273 . S
C459 O470 1.251 . S
C459 O471 1.268 . S
O460 Nd440 2.500 . S
O460 C442 1.258 . S
O461 Nd440 2.492 . S
O461 C442 1.239 . S
O462 Nd440 2.487 . S
O462 C449 1.241 . S
O463 Nd440 2.682 . S
O463 Nd441 2.414 . S
O463 C449 1.273 . S
O464 Nd440 2.410 . S
O464 C450 1.251 . S
O465 Nd441 2.424 . S
O465 C450 1.268 . S
O466 Nd441 2.500 . S
O466 C451 1.258 . S
O467 Nd441 2.492 . S
O467 C451 1.239 . S
O468 Nd441 2.487 . S
O468 C458 1.241 . S
O469 Nd440 2.414 . S
O469 Nd441 2.682 . S
O469 C458 1.273 . S
O470 Nd441 2.410 . S
O470 C459 1.251 . S
O471 Nd440 2.424 . S
O471 C459 1.268 . S
H472 C444 0.930 . S
H473 C445 0.929 . S
H474 C447 0.930 . S
H475 C448 0.929 . S
H476 C453 0.930 . S
H477 C454 0.929 . S
H478 C456 0.930 . S
H479 C457 0.929 . S
Nd480 C482 2.836 . S
Nd480 O500 2.500 . S
Nd480 O501 2.492 . S
Nd480 O502 2.487 . S
Nd480 O503 2.682 . S
Nd480 O504 2.410 . S
Nd480 O509 2.414 . S
Nd480 O511 2.424 . S
Nd481 C491 2.836 . S
Nd481 O503 2.414 . S
Nd481 O505 2.424 . S
Nd481 O506 2.500 . S
Nd481 O507 2.492 . S
Nd481 O508 2.487 . S
Nd481 O509 2.682 . S
Nd481 O510 2.410 . S
C482 Nd480 2.836 . S
C482 C483 1.498 . S
C482 O500 1.258 . S
C482 O501 1.239 . S
C483 C482 1.498 . S
C483 C484 1.366 . S
C483 C488 1.407 . S
C484 C483 1.366 . S
C484 C485 1.392 . S
C484 H512 0.930 . S
C485 C484 1.392 . S
C485 C486 1.398 . S
C485 H513 0.929 . S
C486 C485 1.398 . S
C486 C487 1.352 . S
C487 C486 1.352 . S
C487 C488 1.384 . S
C487 H514 0.930 . S
C488 C483 1.407 . S
C488 C487 1.384 . S
C488 H515 0.929 . S
C489 O502 1.241 . S
C489 O503 1.273 . S
C490 O504 1.251 . S
C490 O505 1.268 . S
C491 Nd481 2.836 . S
C491 C492 1.498 . S
C491 O506 1.258 . S
C491 O507 1.239 . S
C492 C491 1.498 . S
C492 C493 1.366 . S
C492 C497 1.407 . S
C493 C492 1.366 . S
C493 C494 1.392 . S
C493 H516 0.930 . S
C494 C493 1.392 . S
C494 C495 1.398 . S
C494 H517 0.929 . S
C495 C494 1.398 . S
C495 C496 1.352 . S
C496 C495 1.352 . S
C496 C497 1.384 . S
C496 H518 0.930 . S
C497 C492 1.407 . S
C497 C496 1.384 . S
C497 H519 0.929 . S
C498 O508 1.241 . S
C498 O509 1.273 . S
C499 O510 1.251 . S
C499 O511 1.268 . S
O500 Nd480 2.500 . S
O500 C482 1.258 . S
O501 Nd480 2.492 . S
O501 C482 1.239 . S
O502 Nd480 2.487 . S
O502 C489 1.241 . S
O503 Nd480 2.682 . S
O503 Nd481 2.414 . S
O503 C489 1.273 . S
O504 Nd480 2.410 . S
O504 C490 1.251 . S
O505 Nd481 2.424 . S
O505 C490 1.268 . S
O506 Nd481 2.500 . S
O506 C491 1.258 . S
O507 Nd481 2.492 . S
O507 C491 1.239 . S
O508 Nd481 2.487 . S
O508 C498 1.241 . S
O509 Nd480 2.414 . S
O509 Nd481 2.682 . S
O509 C498 1.273 . S
O510 Nd481 2.410 . S
O510 C499 1.251 . S
O511 Nd480 2.424 . S
O511 C499 1.268 . S
H512 C484 0.930 . S
H513 C485 0.929 . S
H514 C487 0.930 . S
H515 C488 0.929 . S
H516 C493 0.930 . S
H517 C494 0.929 . S
H518 C496 0.930 . S
H519 C497 0.929 . S
Nd520 C522 2.836 1_554 S
Nd520 O540 2.500 1_554 S
Nd520 O541 2.492 1_554 S
Nd520 O542 2.487 . S
Nd520 O543 2.682 . S
Nd520 O544 2.410 . S
Nd520 O549 2.414 . S
Nd520 O551 2.424 . S
Nd521 C531 2.836 . S
Nd521 O543 2.414 1_655 S
Nd521 O545 2.424 . S
Nd521 O546 2.500 . S
Nd521 O547 2.492 . S
Nd521 O548 2.487 . S
Nd521 O549 2.682 1_655 S
Nd521 O550 2.410 1_655 S
C522 Nd520 2.836 1_556 S
C522 C523 1.498 . S
C522 O540 1.258 . S
C522 O541 1.239 . S
C523 C522 1.498 . S
C523 C524 1.366 . S
C523 C528 1.407 . S
C524 C523 1.366 . S
C524 C525 1.392 . S
C524 H552 0.930 . S
C525 C524 1.392 . S
C525 C526 1.398 . S
C525 H553 0.929 . S
C526 C525 1.398 . S
C526 C527 1.352 . S
C527 C526 1.352 . S
C527 C528 1.384 . S
C527 H554 0.930 . S
C528 C523 1.407 . S
C528 C527 1.384 . S
C528 H555 0.929 . S
C529 O542 1.241 . S
C529 O543 1.273 . S
C530 O544 1.251 1_655 S
C530 O545 1.268 . S
C531 Nd521 2.836 . S
C531 C532 1.498 . S
C531 O546 1.258 . S
C531 O547 1.239 . S
C532 C531 1.498 . S
C532 C533 1.366 . S
C532 C537 1.407 . S
C533 C532 1.366 . S
C533 C534 1.392 . S
C533 H556 0.930 . S
C534 C533 1.392 . S
C534 C535 1.398 . S
C534 H557 0.929 . S
C535 C534 1.398 . S
C535 C536 1.352 . S
C536 C535 1.352 . S
C536 C537 1.384 . S
C536 H558 0.930 . S
C537 C532 1.407 . S
C537 C536 1.384 . S
C537 H559 0.929 . S
C538 O548 1.249 . S
C538 O549 1.269 1_655 S
C539 O550 1.251 . S
C539 O551 1.268 . S
O540 Nd520 2.500 1_556 S
O540 C522 1.258 . S
O541 Nd520 2.492 1_556 S
O541 C522 1.239 . S
O542 Nd520 2.487 . S
O542 C529 1.241 . S
O543 Nd520 2.682 . S
O543 Nd521 2.414 1_455 S
O543 C529 1.273 . S
O544 Nd520 2.410 . S
O544 C530 1.251 1_455 S
O545 Nd521 2.424 . S
O545 C530 1.268 . S
O546 Nd521 2.500 . S
O546 C531 1.258 . S
O547 Nd521 2.492 . S
O547 C531 1.239 . S
O548 Nd521 2.487 . S
O548 C538 1.249 . S
O549 Nd520 2.414 . S
O549 Nd521 2.682 1_455 S
O549 C538 1.269 1_455 S
O550 Nd521 2.410 1_455 S
O550 C539 1.251 . S
O551 Nd520 2.424 . S
O551 C539 1.268 . S
H552 C524 0.930 . S
H553 C525 0.929 . S
H554 C527 0.930 . S
H555 C528 0.929 . S
H556 C533 0.930 . S
H557 C534 0.929 . S
H558 C536 0.930 . S
H559 C537 0.929 . S
Nd560 C562 2.836 . S
Nd560 O580 2.500 . S
Nd560 O581 2.492 . S
Nd560 O582 2.487 . S
Nd560 O583 2.682 . S
Nd560 O584 2.410 . S
Nd560 O589 2.414 . S
Nd560 O591 2.424 . S
Nd561 C571 2.836 . S
Nd561 O583 2.414 . S
Nd561 O585 2.424 . S
Nd561 O586 2.500 . S
Nd561 O587 2.492 . S
Nd561 O588 2.487 . S
Nd561 O589 2.682 . S
Nd561 O590 2.410 . S
C562 Nd560 2.836 . S
C562 C563 1.498 . S
C562 O580 1.258 . S
C562 O581 1.239 . S
C563 C562 1.498 . S
C563 C564 1.366 . S
C563 C568 1.407 . S
C564 C563 1.366 . S
C564 C565 1.392 . S
C564 H592 0.930 . S
C565 C564 1.392 . S
C565 C566 1.398 . S
C565 H593 0.929 . S
C566 C565 1.398 . S
C566 C567 1.352 . S
C567 C566 1.352 . S
C567 C568 1.384 . S
C567 H594 0.930 . S
C568 C563 1.407 . S
C568 C567 1.384 . S
C568 H595 0.929 . S
C569 O582 1.241 . S
C569 O583 1.273 . S
C570 O584 1.251 . S
C570 O585 1.268 . S
C571 Nd561 2.836 . S
C571 C572 1.498 . S
C571 O586 1.258 . S
C571 O587 1.239 . S
C572 C571 1.498 . S
C572 C573 1.366 . S
C572 C577 1.407 . S
C573 C572 1.366 . S
C573 C574 1.392 . S
C573 H596 0.930 . S
C574 C573 1.392 . S
C574 C575 1.398 . S
C574 H597 0.929 . S
C575 C574 1.398 . S
C575 C576 1.352 . S
C576 C575 1.352 . S
C576 C577 1.384 . S
C576 H598 0.930 . S
C577 C572 1.407 . S
C577 C576 1.384 . S
C577 H599 0.929 . S
C578 O588 1.241 . S
C578 O589 1.273 . S
C579 O590 1.251 . S
C579 O591 1.268 . S
O580 Nd560 2.500 . S
O580 C562 1.258 . S
O581 Nd560 2.492 . S
O581 C562 1.239 . S
O582 Nd560 2.487 . S
O582 C569 1.241 . S
O583 Nd560 2.682 . S
O583 Nd561 2.414 . S
O583 C569 1.273 . S
O584 Nd560 2.410 . S
O584 C570 1.251 . S
O585 Nd561 2.424 . S
O585 C570 1.268 . S
O586 Nd561 2.500 . S
O586 C571 1.258 . S
O587 Nd561 2.492 . S
O587 C571 1.239 . S
O588 Nd561 2.487 . S
O588 C578 1.241 . S
O589 Nd560 2.414 . S
O589 Nd561 2.682 . S
O589 C578 1.273 . S
O590 Nd561 2.410 . S
O590 C579 1.251 . S
O591 Nd560 2.424 . S
O591 C579 1.268 . S
H592 C564 0.930 . S
H593 C565 0.929 . S
H594 C567 0.930 . S
H595 C568 0.929 . S
H596 C573 0.930 . S
H597 C574 0.929 . S
H598 C576 0.930 . S
H599 C577 0.929 . S
Nd600 C602 2.836 . S
Nd600 O620 2.500 . S
Nd600 O621 2.492 . S
Nd600 O622 2.487 . S
Nd600 O623 2.682 1_455 S
Nd600 O624 2.410 1_455 S
Nd600 O629 2.414 . S
Nd600 O631 2.424 . S
Nd601 C611 2.836 1_556 S
Nd601 O623 2.414 . S
Nd601 O625 2.424 . S
Nd601 O626 2.500 1_556 S
Nd601 O627 2.492 1_556 S
Nd601 O628 2.487 . S
Nd601 O629 2.682 1_655 S
Nd601 O630 2.410 1_655 S
C602 Nd600 2.836 . S
C602 C603 1.498 . S
C602 O620 1.258 . S
C602 O621 1.239 . S
C603 C602 1.498 . S
C603 C604 1.366 . S
C603 C608 1.407 . S
C604 C603 1.366 . S
C604 C605 1.392 . S
C604 H632 0.930 . S
C605 C604 1.392 . S
C605 C606 1.398 . S
C605 H633 0.929 . S
C606 C605 1.398 . S
C606 C607 1.352 . S
C607 C606 1.352 . S
C607 C608 1.384 . S
C607 H634 0.930 . S
C608 C603 1.407 . S
C608 C607 1.384 . S
C608 H635 0.929 . S
C609 O622 1.241 . S
C609 O623 1.273 1_455 S
C610 O624 1.251 . S
C610 O625 1.268 . S
C611 Nd601 2.836 1_554 S
C611 C612 1.498 . S
C611 O626 1.258 . S
C611 O627 1.239 . S
C612 C611 1.498 . S
C612 C613 1.366 . S
C612 C617 1.407 . S
C613 C612 1.366 . S
C613 C614 1.392 . S
C613 H636 0.930 . S
C614 C613 1.392 . S
C614 C615 1.398 . S
C614 H637 0.929 . S
C615 C614 1.398 . S
C615 C616 1.352 . S
C616 C615 1.352 . S
C616 C617 1.384 . S
C616 H638 0.930 . S
C617 C612 1.407 . S
C617 C616 1.384 . S
C617 H639 0.929 . S
C618 O628 1.241 . S
C618 O629 1.273 1_655 S
C619 O630 1.251 . S
C619 O631 1.268 . S
O620 Nd600 2.500 . S
O620 C602 1.258 . S
O621 Nd600 2.492 . S
O621 C602 1.239 . S
O622 Nd600 2.487 . S
O622 C609 1.241 . S
O623 Nd600 2.682 1_655 S
O623 Nd601 2.414 . S
O623 C609 1.273 1_655 S
O624 Nd600 2.410 1_655 S
O624 C610 1.251 . S
O625 Nd601 2.424 . S
O625 C610 1.268 . S
O626 Nd601 2.500 1_554 S
O626 C611 1.258 . S
O627 Nd601 2.492 1_554 S
O627 C611 1.239 . S
O628 Nd601 2.487 . S
O628 C618 1.241 . S
O629 Nd600 2.414 . S
O629 Nd601 2.682 1_455 S
O629 C618 1.273 1_455 S
O630 Nd601 2.410 1_455 S
O630 C619 1.251 . S
O631 Nd600 2.424 . S
O631 C619 1.268 . S
H632 C604 0.930 . S
H633 C605 0.929 . S
H634 C607 0.930 . S
H635 C608 0.929 . S
H636 C613 0.930 . S
H637 C614 0.929 . S
H638 C616 0.930 . S
H639 C617 0.929 . S
C10 C295 1.736 1_554 S
C50 C175 1.735 . S
C215 C90 1.740 . S
C130 C255 1.738 . S
C446 C179 1.738 1_554 S
C339 C6 1.733 . S
C406 C259 1.740 . S
C86 C379 1.738 . S
C375 C490 1.740 . S
C410 C575 1.738 . S
C530 C335 1.738 1_554 S
C450 C615 1.733 . S
C579 C126 1.740 . S
C486 C219 1.738 . S
C46 C619 1.736 1_554 S
C299 C526 1.735 . S
C529 C9 1.523 1_455 S
C449 C49 1.528 1_655 S
C489 C89 1.528 . S
C409 C129 1.530 . S
C178 C618 1.523 1_455 S
C378 C218 1.530 . S
C258 C578 1.528 . S
C298 C338 1.528 1_455 S
C18 C169 4.668 1_464 S
C58 C209 4.668 . S
C249 C98 4.668 1_565 S
C138 C289 4.668 . S
C418 C329 4.667 . S
C458 C369 4.667 . S
C498 C569 4.668 . S
C609 C538 4.668 1_456 S
C15 C290 3.206 . S
C55 C170 3.202 . S
C210 C95 3.203 1_554 S
C250 C135 3.201 . S
C459 C166 3.206 . S
C326 C19 3.204 . S
C419 C246 3.203 1_556 S
C99 C366 3.201 . S
C495 C370 3.203 1_556 S
C570 C415 3.201 . S
C535 C330 3.206 . S
C610 C455 3.204 . S
C566 C139 3.203 1_554 S
C206 C499 3.201 . S
C59 C606 3.206 . S
C539 C286 3.202 . S
