# Generated by pormake.
# Topology qtz-x, (6)-cn, num edge types: 1
# Building blocks:
#     Node 0, Type 0, BuildingBlock: PAMTUU_clean_sbu_0, # of connection points: 6
#     Node 1, Type 0, BuildingBlock: PAMTUU_clean_sbu_0, # of connection points: 6
#     Node 2, Type 0, BuildingBlock: PAMTUU_clean_sbu_0, # of connection points: 6
#     Edge 3, Type (0, 0), BuildingBlock: CIFDUS_clean_linker_0, # of connection points: 2
#     Edge 4, Type (0, 0), BuildingBlock: CIFDUS_clean_linker_0, # of connection points: 2
#     Edge 5, Type (0, 0), BuildingBlock: CIFDUS_clean_linker_0, # of connection points: 2
#     Edge 6, Type (0, 0), BuildingBlock: CIFDUS_clean_linker_0, # of connection points: 2
#     Edge 7, Type (0, 0), BuildingBlock: CIFDUS_clean_linker_0, # of connection points: 2
#     Edge 8, Type (0, 0), BuildingBlock: CIFDUS_clean_linker_0, # of connection points: 2
#     Edge 9, Type (0, 0), BuildingBlock: CIFDUS_clean_linker_0, # of connection points: 2
#     Edge 10, Type (0, 0), BuildingBlock: CIFDUS_clean_linker_0, # of connection points: 2
#     Edge 11, Type (0, 0), BuildingBlock: CIFDUS_clean_linker_0, # of connection points: 2
# Relax obj value: 0.129
# Max RMSD: 0.233
# Mean RMSD: 0.233
data_MOF--net-qtz-x--node1-PAMTUU_clean_sbu_0--edge1-CIFDUS_clean_linker_0
_symmetry_space_group_name_H-M    P1
_symmetry_Int_Tables_number       1
_symmetry_cell_setting            triclinic
loop_
_symmetry_equiv_pos_as_xyz
'x, y, z'
_cell_length_a     13.189068
_cell_length_b     13.200188
_cell_length_c     49.263613
_cell_angle_alpha  89.98426
_cell_angle_beta   90.044743
_cell_angle_gamma 119.89997
loop_
_atom_site_label
_atom_site_type_symbol
_atom_site_fract_x
_atom_site_fract_y
_atom_site_fract_z
_atom_type_partial_charge
Tb0 Tb 0.1346 0.69948 0.16883 0.0
Tb1 Tb 0.87778 0.55068 0.1995 0.0
C2 C 0.02521 0.43635 0.18303 0.0
C3 C 0.34111 0.77659 0.11275 0.0
C4 C 0.37376 0.72752 0.05863 0.0
C5 C 0.30488 0.63646 0.07674 0.0
C6 C 0.28816 0.6607 0.10343 0.0
C7 C 0.40963 0.86792 0.09475 0.0
C8 C 0.42558 0.84367 0.06787 0.0
C9 C 0.31764 0.8022 0.14049 0.0
O10 O 1.00175 0.65332 0.13774 0.0
O11 O 0.83858 0.49971 0.15705 0.0
O12 O 0.89483 0.71207 0.18358 0.0
O13 O 0.09386 0.82512 0.1867 0.0
O14 O 0.73122 0.39158 0.21124 0.0
O15 O 0.7473 0.55646 0.22263 0.0
O16 O 1.00356 0.64682 0.23128 0.0
O17 O 0.17979 0.69387 0.21129 0.0
O18 O 0.07384 0.51479 0.16382 0.0
O19 O 0.96644 0.44974 0.20284 0.0
C20 C 0.89653 0.56157 0.13575 0.0
O21 O 0.24045 0.83611 0.14211 0.0
O22 O 0.30083 0.72492 0.15911 0.0
C23 C 0.98967 0.8148 0.18584 0.0
C24 C 0.66542 0.40544 0.25477 0.0
C25 C 0.61905 0.33323 0.30944 0.0
C26 C 0.52801 0.29024 0.29019 0.0
C27 C 0.55104 0.32655 0.26308 0.0
C28 C 0.75647 0.44796 0.27389 0.0
C29 C 0.73348 0.41294 0.30101 0.0
C30 C 0.68983 0.44376 0.22629 0.0
C31 C 0.11569 0.68151 0.23289 0.0
H32 H 0.26225 0.54622 0.07013 0.0
H33 H 0.23267 0.58863 0.11669 0.0
H34 H 0.44987 0.95798 0.10142 0.0
H35 H 0.47941 0.91556 0.05441 0.0
H36 H 0.43892 0.22906 0.29614 0.0
H37 H 0.47967 0.29285 0.24861 0.0
H38 H 0.84547 0.50779 0.26778 0.0
H39 H 0.80565 0.44618 0.31526 0.0
Tb40 Tb 0.48397 0.96092 0.50213 0.0
Tb41 Tb 0.59455 0.22063 0.53196 0.0
C42 C 0.33234 0.0732 0.51589 0.0
C43 C 0.35493 0.76177 0.44562 0.0
C44 C 0.2791 0.74417 0.39118 0.0
C45 C 0.2641 0.81634 0.4098 0.0
C46 C 0.30194 0.82539 0.43663 0.0
C47 C 0.37105 0.69022 0.4271 0.0
C48 C 0.33361 0.68157 0.40007 0.0
C49 C 0.40244 0.77902 0.47349 0.0
O50 O 0.56444 0.09092 0.47046 0.0
O51 O 0.58562 0.26043 0.48941 0.0
O52 O 0.73752 0.20264 0.51558 0.0
O53 O 0.65245 0.00376 0.51919 0.0
O54 O 0.58299 0.36749 0.54414 0.0
O55 O 0.73091 0.34906 0.55541 0.0
O56 O 0.56844 0.09601 0.56353 0.0
O57 O 0.43464 0.91909 0.54475 0.0
O58 O 0.3612 0.02297 0.49689 0.0
O59 O 0.40521 0.13326 0.53545 0.0
C60 C 0.58168 0.19752 0.46829 0.0
O61 O 0.51389 0.85376 0.47558 0.0
O62 O 0.34249 0.79538 0.49236 0.0
C63 C 0.74583 0.10797 0.51795 0.0
C64 C 0.65844 0.42625 0.58885 0.0
C65 C 0.62484 0.46446 0.64397 0.0
C66 C 0.70375 0.42642 0.63693 0.0
C67 C 0.72049 0.40772 0.60973 0.0
C68 C 0.57952 0.4641 0.59588 0.0
C69 C 0.56248 0.48235 0.62306 0.0
C70 C 0.67417 0.40471 0.55996 0.0
C71 C 0.48879 0.9853 0.56593 0.0
H72 H 0.2244 0.8673 0.40351 0.0
H73 H 0.29108 0.8836 0.45028 0.0
H74 H 0.41351 0.64194 0.43347 0.0
H75 H 0.3459 0.62485 0.38624 0.0
H76 H 0.7544 0.41315 0.65239 0.0
H77 H 0.78241 0.37893 0.60511 0.0
H78 H 0.53029 0.4791 0.58035 0.0
H79 H 0.49953 0.50981 0.62768 0.0
Tb80 Tb 0.41224 0.63663 0.83646 0.0
Tb81 Tb 0.51909 0.48478 0.86681 0.0
C82 C 0.67481 0.74887 0.85212 0.0
C83 C 0.34556 0.776 0.78019 0.0
C84 C 0.38829 0.84911 0.72534 0.0
C85 C 0.37859 0.91994 0.74542 0.0
C86 C 0.35762 0.88373 0.77256 0.0
C87 C 0.35287 0.70406 0.76014 0.0
C88 C 0.37369 0.74005 0.73304 0.0
C89 C 0.33063 0.74131 0.80907 0.0
O90 O 0.45065 0.54984 0.80409 0.0
O91 O 0.56392 0.48166 0.82429 0.0
O92 O 0.35376 0.35982 0.84859 0.0
O93 O 0.2679 0.47322 0.85159 0.0
O94 O 0.65925 0.45973 0.87765 0.0
O95 O 0.48619 0.34776 0.8936 0.0
O96 O 0.43115 0.53103 0.89749 0.0
O97 O 0.42825 0.68934 0.87888 0.0
O98 O 0.60127 0.73774 0.83285 0.0
O99 O 0.64624 0.66929 0.87103 0.0
C100 C 0.52041 0.50558 0.80271 0.0
O101 O 0.274 0.62928 0.81382 0.0
O102 O 0.42368 0.79516 0.82426 0.0
C103 C 0.26011 0.37047 0.84917 0.0
C104 C 0.64241 0.4109 0.92409 0.0
C105 C 0.72033 0.46566 0.97832 0.0
C106 C 0.68267 0.35313 0.96789 0.0
C107 C 0.64424 0.32607 0.94091 0.0
C108 C 0.67763 0.52238 0.93467 0.0
C109 C 0.71666 0.54962 0.96144 0.0
C110 C 0.59714 0.38247 0.89611 0.0
C111 C 0.42371 0.62614 0.89998 0.0
H112 H 0.38752 0.0037 0.74019 0.0
H113 H 0.35223 0.94053 0.78766 0.0
H114 H 0.34417 0.62048 0.76545 0.0
H115 H 0.38144 0.68358 0.71828 0.0
H116 H 0.68491 0.28688 0.98044 0.0
H117 H 0.61572 0.23905 0.93323 0.0
H118 H 0.67436 0.58843 0.92225 0.0
H119 H 0.74325 0.63638 0.96903 0.0
H120 H 0.14735 0.03375 0.16924 0.0
H121 H 0.80694 0.83271 0.20593 0.0
H122 H 0.78968 0.00839 0.20944 0.0
H123 H 0.87126 0.21952 0.20181 0.0
H124 H 0.20463 0.41667 0.16174 0.0
H125 H 0.22505 0.24261 0.15985 0.0
C126 C 0.0696 0.02865 0.17806 0.0
C127 C 0.97885 0.92079 0.18745 0.0
C128 C 0.05912 0.12936 0.17941 0.0
C129 C 0.87781 0.91484 0.19848 0.0
C130 C 0.86804 0.01526 0.20057 0.0
C131 C 0.94851 0.22422 0.1928 0.0
C132 C 0.03672 0.33071 0.18212 0.0
C133 C 0.95814 0.12302 0.19109 0.0
C134 C 0.13554 0.33548 0.17008 0.0
C135 C 0.14734 0.23611 0.16902 0.0
H136 H 0.26927 0.22816 0.53404 0.0
H137 H 0.13346 0.89216 0.49527 0.0
H138 H 0.93886 0.87143 0.49321 0.0
H139 H 0.80753 0.9496 0.50204 0.0
H140 H 0.94615 0.29224 0.53747 0.0
H141 H 0.13934 0.31 0.54115 0.0
C142 C 0.19676 0.15028 0.52529 0.0
C143 C 0.21515 0.06145 0.51502 0.0
C144 C 0.08584 0.14041 0.52347 0.0
C145 C 0.12121 0.96174 0.5033 0.0
C146 C 0.00998 0.94976 0.50213 0.0
C147 C 0.88008 0.02796 0.51062 0.0
C148 C 0.86276 0.1192 0.51959 0.0
C149 C 0.99133 0.03863 0.51209 0.0
C150 C 0.95766 0.221 0.53032 0.0
C151 C 0.06796 0.23105 0.53252 0.0
H152 H 0.73712 0.96624 0.83364 0.0
H153 H 0.87472 0.76809 0.87293 0.0
H154 H 0.06896 0.942 0.8747 0.0
H155 H 0.19952 0.15102 0.86544 0.0
H156 H 0.05896 0.35286 0.82941 0.0
H157 H 0.86619 0.17733 0.82604 0.0
C158 C 0.80989 0.96122 0.84246 0.0
C159 C 0.79198 0.85445 0.85295 0.0
C160 C 0.92064 0.06232 0.84406 0.0
C161 C 0.88642 0.84941 0.86473 0.0
C162 C 0.99749 0.94873 0.86572 0.0
C163 C 0.12668 0.15635 0.85678 0.0
C164 C 0.14343 0.26444 0.84755 0.0
C165 C 0.01559 0.0557 0.8555 0.0
C166 C 0.04803 0.2706 0.83674 0.0
C167 C 0.93793 0.17026 0.83473 0.0
H168 H 0.44523 0.53492 0.94749 0.0
H169 H 0.37636 0.79906 0.91534 0.0
H170 H 0.35838 0.85655 0.96159 0.0
H171 H 0.35885 0.82871 1.01138 0.0
H172 H 0.42916 0.56415 0.04247 0.0
H173 H 0.45033 0.5103 0.99633 0.0
C174 C 0.42568 0.60482 0.95044 0.0
C175 C 0.41111 0.66179 0.92783 0.0
C176 C 0.41596 0.63753 0.97697 0.0
C177 C 0.38746 0.75322 0.93229 0.0
C178 C 0.37728 0.78622 0.95876 0.0
C179 C 0.37973 0.75998 1.008 0.0
C180 C 0.39166 0.70001 0.03036 0.0
C181 C 0.39113 0.72878 0.98128 0.0
C182 C 0.41788 0.61051 0.02565 0.0
C183 C 0.43028 0.57983 0.99927 0.0
H184 H 0.495 0.07392 0.42224 0.0
H185 H 0.69685 0.42739 0.45193 0.0
H186 H 0.7251 0.50126 0.4052 0.0
H187 H 0.69662 0.46359 0.35575 0.0
H188 H 0.48965 0.10882 0.32708 0.0
H189 H 0.45823 0.037 0.37371 0.0
C190 C 0.5454 0.16726 0.41855 0.0
C191 C 0.59513 0.24511 0.44048 0.0
C192 C 0.55998 0.20862 0.39183 0.0
C193 C 0.65801 0.36579 0.43537 0.0
C194 C 0.67435 0.40787 0.40867 0.0
C195 C 0.64471 0.37063 0.35978 0.0
C196 C 0.59583 0.29155 0.33798 0.0
C197 C 0.62655 0.32992 0.38672 0.0
C198 C 0.52738 0.17146 0.34348 0.0
C199 C 0.50994 0.1303 0.37012 0.0
H200 H 0.30343 0.72262 0.67831 0.0
H201 H 0.54244 0.06991 0.70794 0.0
H202 H 0.59423 0.14027 0.66155 0.0
H203 H 0.57317 0.10462 0.61298 0.0
H204 H 0.33664 0.75894 0.58219 0.0
H205 H 0.28453 0.68611 0.6288 0.0
C206 C 0.3676 0.81347 0.67465 0.0
C207 C 0.41821 0.89082 0.69676 0.0
C208 C 0.39818 0.85353 0.64776 0.0
C209 C 0.50016 0.00865 0.69148 0.0
C210 C 0.53076 0.04892 0.66491 0.0
C211 C 0.51052 0.01293 0.61626 0.0
C212 C 0.45921 0.93733 0.59394 0.0
C213 C 0.48037 0.97221 0.64295 0.0
C214 C 0.37779 0.81915 0.59889 0.0
C215 C 0.34779 0.77755 0.62556 0.0
H216 H 0.62528 0.34531 0.02541 0.0
H217 H 0.92073 0.65869 0.99409 0.0
H218 H 0.99922 0.71633 0.03987 0.0
H219 H 0.98521 0.67831 0.08849 0.0
H220 H 0.69012 0.36687 0.12085 0.0
H221 H 0.61012 0.30821 0.07502 0.0
C222 C 0.7071 0.4258 0.02868 0.0
C223 C 0.76707 0.49771 1.00639 0.0
C224 C 0.7515 0.45909 0.05521 0.0
C225 C 0.87237 0.60244 1.01092 0.0
C226 C 0.91748 0.63532 0.03708 0.0
C227 C 0.90311 0.5976 0.08567 0.0
C228 C 0.84395 0.52724 0.10822 0.0
C229 C 0.85775 0.56453 0.05935 0.0
C230 C 0.73755 0.42311 0.10395 0.0
C231 C 0.69186 0.38928 0.07771 0.0
H232 H 0.01673 0.69113 0.28042 0.0
H233 H 0.3343 0.7217 0.2477 0.0
H234 H 0.41347 0.74387 0.2937 0.0
H235 H 0.38958 0.74917 0.34359 0.0
H236 H 0.06814 0.71311 0.37523 0.0
H237 H 0.99292 0.69666 0.32927 0.0
C238 C 0.10316 0.70204 0.28319 0.0
C239 C 0.16878 0.70355 0.26048 0.0
C240 C 0.14728 0.71312 0.30962 0.0
C241 C 0.28159 0.72018 0.26471 0.0
C242 C 0.32675 0.73232 0.29106 0.0
C243 C 0.30289 0.73707 0.34037 0.0
C244 C 0.23474 0.73265 0.36288 0.0
C245 C 0.25985 0.72774 0.31372 0.0
C246 C 0.12302 0.71824 0.35833 0.0
C247 C 0.07973 0.70849 0.33204 0.0
H248 H 0.54132 0.63018 0.75781 0.0
H249 H 0.56893 0.33536 0.78574 0.0
H250 H 0.60442 0.2961 0.73895 0.0
H251 H 0.61916 0.34216 0.68978 0.0
H252 H 0.59861 0.64366 0.66334 0.0
H253 H 0.56765 0.68281 0.70989 0.0
C254 C 0.55475 0.55699 0.75369 0.0
C255 C 0.55091 0.48476 0.77513 0.0
C256 C 0.57548 0.53572 0.72697 0.0
C257 C 0.57146 0.39216 0.76956 0.0
C258 C 0.5912 0.36953 0.74281 0.0
C259 C 0.60899 0.41706 0.69421 0.0
C260 C 0.60958 0.48875 0.67283 0.0
C261 C 0.59232 0.44024 0.72129 0.0
C262 C 0.59553 0.58502 0.67911 0.0
C263 C 0.5785 0.60809 0.70581 0.0
loop_
_geom_bond_atom_site_label_1
_geom_bond_atom_site_label_2
_geom_bond_distance
_geom_bond_site_symmetry_2
_ccdc_geom_bond_type
Tb0 C9 2.764 . S
Tb0 O10 2.325 . S
Tb0 O13 2.303 . S
Tb0 O17 2.322 . S
Tb0 O18 2.349 . S
Tb0 O21 2.415 . S
Tb0 O22 2.399 . S
Tb1 O11 2.322 . S
Tb1 O12 2.349 . S
Tb1 O14 2.415 . S
Tb1 O15 2.399 . S
Tb1 O16 2.325 1_655 S
Tb1 O19 2.303 1_655 S
Tb1 C30 2.764 . S
C2 O18 1.261 . S
C2 O19 1.257 . S
C3 C6 1.358 . S
C3 C7 1.332 . S
C3 C9 1.504 . S
C4 C5 1.373 . S
C4 C8 1.308 . S
C5 C4 1.373 . S
C5 C6 1.429 . S
C5 H32 0.932 . S
C6 C3 1.358 . S
C6 C5 1.429 . S
C6 H33 0.930 . S
C7 C3 1.332 . S
C7 C8 1.394 . S
C7 H34 0.932 . S
C8 C4 1.308 . S
C8 C7 1.394 . S
C8 H35 0.929 . S
C9 Tb0 2.764 . S
C9 C3 1.504 . S
C9 O21 1.239 . S
C9 O22 1.263 . S
O10 Tb0 2.325 . S
O10 C20 1.236 1_455 S
O11 Tb1 2.322 . S
O11 C20 1.257 . S
O12 Tb1 2.349 . S
O12 C23 1.261 1_655 S
O13 Tb0 2.303 . S
O13 C23 1.257 . S
O14 Tb1 2.415 . S
O14 C30 1.239 . S
O15 Tb1 2.399 . S
O15 C30 1.263 . S
O16 Tb1 2.325 1_455 S
O16 C31 1.236 . S
O17 Tb0 2.322 . S
O17 C31 1.257 . S
O18 Tb0 2.349 . S
O18 C2 1.261 . S
O19 Tb1 2.303 1_455 S
O19 C2 1.257 . S
C20 O10 1.236 1_655 S
C20 O11 1.257 . S
O21 Tb0 2.415 . S
O21 C9 1.239 . S
O22 Tb0 2.399 . S
O22 C9 1.263 . S
C23 O12 1.261 1_455 S
C23 O13 1.257 . S
C24 C27 1.358 . S
C24 C28 1.332 . S
C24 C30 1.504 . S
C25 C26 1.373 . S
C25 C29 1.308 . S
C26 C25 1.373 . S
C26 C27 1.429 . S
C26 H36 0.932 . S
C27 C24 1.358 . S
C27 C26 1.429 . S
C27 H37 0.930 . S
C28 C24 1.332 . S
C28 C29 1.394 . S
C28 H38 0.932 . S
C29 C25 1.308 . S
C29 C28 1.394 . S
C29 H39 0.929 . S
C30 Tb1 2.764 . S
C30 O14 1.239 . S
C30 O15 1.263 . S
C30 C24 1.504 . S
C31 O16 1.236 . S
C31 O17 1.257 . S
H32 C5 0.932 . S
H33 C6 0.930 . S
H34 C7 0.932 . S
H35 C8 0.929 . S
H36 C26 0.932 . S
H37 C27 0.930 . S
H38 C28 0.932 . S
H39 C29 0.929 . S
Tb40 C49 2.764 . S
Tb40 O50 2.325 1_565 S
Tb40 O53 2.303 . S
Tb40 O57 2.322 . S
Tb40 O58 2.349 . S
Tb40 O61 2.415 . S
Tb40 O62 2.399 . S
Tb41 O51 2.322 . S
Tb41 O52 2.349 . S
Tb41 O54 2.415 . S
Tb41 O55 2.399 . S
Tb41 O56 2.325 1_545 S
Tb41 O59 2.303 . S
Tb41 C70 2.764 . S
C42 O58 1.261 . S
C42 O59 1.257 1_565 S
C43 C46 1.358 . S
C43 C47 1.332 . S
C43 C49 1.504 . S
C44 C45 1.373 . S
C44 C48 1.308 . S
C45 C44 1.373 . S
C45 C46 1.429 . S
C45 H72 0.932 . S
C46 C43 1.358 . S
C46 C45 1.429 . S
C46 H73 0.930 . S
C47 C43 1.332 . S
C47 C48 1.394 . S
C47 H74 0.932 . S
C48 C44 1.308 . S
C48 C47 1.394 . S
C48 H75 0.929 . S
C49 Tb40 2.764 . S
C49 C43 1.504 . S
C49 O61 1.239 . S
C49 O62 1.263 . S
O50 Tb40 2.325 1_545 S
O50 C60 1.236 . S
O51 Tb41 2.322 . S
O51 C60 1.257 . S
O52 Tb41 2.349 . S
O52 C63 1.261 . S
O53 Tb40 2.303 . S
O53 C63 1.257 1_565 S
O54 Tb41 2.415 . S
O54 C70 1.239 . S
O55 Tb41 2.399 . S
O55 C70 1.263 . S
O56 Tb41 2.325 1_565 S
O56 C71 1.236 . S
O57 Tb40 2.322 . S
O57 C71 1.257 . S
O58 Tb40 2.349 . S
O58 C42 1.261 . S
O59 Tb41 2.303 . S
O59 C42 1.257 1_545 S
C60 O50 1.236 . S
C60 O51 1.257 . S
O61 Tb40 2.415 . S
O61 C49 1.239 . S
O62 Tb40 2.399 . S
O62 C49 1.263 . S
C63 O52 1.261 . S
C63 O53 1.257 1_545 S
C64 C67 1.358 . S
C64 C68 1.332 . S
C64 C70 1.504 . S
C65 C66 1.373 . S
C65 C69 1.308 . S
C66 C65 1.373 . S
C66 C67 1.429 . S
C66 H76 0.932 . S
C67 C64 1.358 . S
C67 C66 1.429 . S
C67 H77 0.930 . S
C68 C64 1.332 . S
C68 C69 1.394 . S
C68 H78 0.932 . S
C69 C65 1.308 . S
C69 C68 1.394 . S
C69 H79 0.929 . S
C70 Tb41 2.764 . S
C70 O54 1.239 . S
C70 O55 1.263 . S
C70 C64 1.504 . S
C71 O56 1.236 . S
C71 O57 1.257 . S
H72 C45 0.932 . S
H73 C46 0.930 . S
H74 C47 0.932 . S
H75 C48 0.929 . S
H76 C66 0.932 . S
H77 C67 0.930 . S
H78 C68 0.932 . S
H79 C69 0.929 . S
Tb80 C89 2.764 . S
Tb80 O90 2.325 . S
Tb80 O93 2.303 . S
Tb80 O97 2.322 . S
Tb80 O98 2.349 . S
Tb80 O101 2.415 . S
Tb80 O102 2.399 . S
Tb81 O91 2.322 . S
Tb81 O92 2.349 . S
Tb81 O94 2.415 . S
Tb81 O95 2.399 . S
Tb81 O96 2.325 . S
Tb81 O99 2.303 . S
Tb81 C110 2.764 . S
C82 O98 1.261 . S
C82 O99 1.257 . S
C83 C86 1.358 . S
C83 C87 1.332 . S
C83 C89 1.504 . S
C84 C85 1.373 . S
C84 C88 1.308 . S
C85 C84 1.373 . S
C85 C86 1.429 . S
C85 H112 0.932 . S
C86 C83 1.358 . S
C86 C85 1.429 . S
C86 H113 0.930 . S
C87 C83 1.332 . S
C87 C88 1.394 . S
C87 H114 0.932 . S
C88 C84 1.308 . S
C88 C87 1.394 . S
C88 H115 0.929 . S
C89 Tb80 2.764 . S
C89 C83 1.504 . S
C89 O101 1.239 . S
C89 O102 1.263 . S
O90 Tb80 2.325 . S
O90 C100 1.236 . S
O91 Tb81 2.322 . S
O91 C100 1.257 . S
O92 Tb81 2.349 . S
O92 C103 1.261 . S
O93 Tb80 2.303 . S
O93 C103 1.257 . S
O94 Tb81 2.415 . S
O94 C110 1.239 . S
O95 Tb81 2.399 . S
O95 C110 1.263 . S
O96 Tb81 2.325 . S
O96 C111 1.236 . S
O97 Tb80 2.322 . S
O97 C111 1.257 . S
O98 Tb80 2.349 . S
O98 C82 1.261 . S
O99 Tb81 2.303 . S
O99 C82 1.257 . S
C100 O90 1.236 . S
C100 O91 1.257 . S
O101 Tb80 2.415 . S
O101 C89 1.239 . S
O102 Tb80 2.399 . S
O102 C89 1.263 . S
C103 O92 1.261 . S
C103 O93 1.257 . S
C104 C107 1.358 . S
C104 C108 1.332 . S
C104 C110 1.504 . S
C105 C106 1.373 . S
C105 C109 1.308 . S
C106 C105 1.373 . S
C106 C107 1.429 . S
C106 H116 0.932 . S
C107 C104 1.358 . S
C107 C106 1.429 . S
C107 H117 0.930 . S
C108 C104 1.332 . S
C108 C109 1.394 . S
C108 H118 0.932 . S
C109 C105 1.308 . S
C109 C108 1.394 . S
C109 H119 0.929 . S
C110 Tb81 2.764 . S
C110 O94 1.239 . S
C110 O95 1.263 . S
C110 C104 1.504 . S
C111 O96 1.236 . S
C111 O97 1.257 . S
H112 C85 0.932 . S
H113 C86 0.930 . S
H114 C87 0.932 . S
H115 C88 0.929 . S
H116 C106 0.932 . S
H117 C107 0.930 . S
H118 C108 0.932 . S
H119 C109 0.929 . S
H120 C126 0.930 . S
H121 C129 0.930 . S
H122 C130 0.930 . S
H123 C131 0.930 1_655 S
H124 C134 0.930 . S
H125 C135 0.930 . S
C126 H120 0.930 . S
C126 C127 1.355 1_545 S
C126 C128 1.415 . S
C127 C126 1.355 1_565 S
C127 C129 1.419 1_455 S
C128 C126 1.415 . S
C128 C133 1.425 . S
C128 C135 1.409 . S
C129 H121 0.930 . S
C129 C127 1.419 1_655 S
C129 C130 1.362 1_565 S
C130 H122 0.930 . S
C130 C129 1.362 1_545 S
C130 C133 1.409 1_655 S
C131 H123 0.930 1_455 S
C131 C132 1.355 . S
C131 C133 1.415 . S
C132 C131 1.355 . S
C132 C134 1.419 . S
C133 C128 1.425 . S
C133 C130 1.409 1_455 S
C133 C131 1.415 . S
C134 H124 0.930 . S
C134 C132 1.419 . S
C134 C135 1.362 . S
C135 H125 0.930 . S
C135 C128 1.409 . S
C135 C134 1.362 . S
H136 C142 0.930 . S
H137 C145 0.930 . S
H138 C146 0.930 . S
H139 C147 0.930 . S
H140 C150 0.930 . S
H141 C151 0.930 . S
C142 H136 0.930 . S
C142 C143 1.355 1_565 S
C142 C144 1.415 1_455 S
C143 C142 1.355 1_545 S
C143 C145 1.419 . S
C144 C142 1.415 1_655 S
C144 C149 1.425 1_565 S
C144 C151 1.409 . S
C145 H137 0.930 . S
C145 C143 1.419 . S
C145 C146 1.362 . S
C146 H138 0.930 . S
C146 C145 1.362 . S
C146 C149 1.409 1_455 S
C147 H139 0.930 . S
C147 C148 1.355 . S
C147 C149 1.415 . S
C148 C147 1.355 . S
C148 C150 1.419 1_545 S
C149 C144 1.425 1_545 S
C149 C146 1.409 1_655 S
C149 C147 1.415 . S
C150 H140 0.930 . S
C150 C148 1.419 1_565 S
C150 C151 1.362 . S
C151 H141 0.930 . S
C151 C144 1.409 . S
C151 C150 1.362 . S
H152 C158 0.930 . S
H153 C161 0.930 . S
H154 C162 0.930 1_465 S
H155 C163 0.930 . S
H156 C166 0.930 . S
H157 C167 0.930 . S
C158 H152 0.930 . S
C158 C159 1.355 1_545 S
C158 C160 1.415 . S
C159 C158 1.355 1_565 S
C159 C161 1.419 . S
C160 C158 1.415 . S
C160 C165 1.425 1_655 S
C160 C167 1.409 . S
C161 H153 0.930 . S
C161 C159 1.419 . S
C161 C162 1.362 1_565 S
C162 H154 0.930 1_645 S
C162 C161 1.362 1_545 S
C162 C165 1.409 1_655 S
C163 H155 0.930 . S
C163 C164 1.355 . S
C163 C165 1.415 . S
C164 C163 1.355 . S
C164 C166 1.419 . S
C165 C160 1.425 1_455 S
C165 C162 1.409 1_455 S
C165 C163 1.415 . S
C166 H156 0.930 . S
C166 C164 1.419 . S
C166 C167 1.362 1_455 S
C167 H157 0.930 . S
C167 C160 1.409 . S
C167 C166 1.362 1_655 S
H168 C174 0.930 . S
H169 C177 0.930 . S
H170 C178 0.930 . S
H171 C179 0.930 . S
H172 C182 0.916 1_554 S
H173 C183 0.930 . S
C174 H168 0.930 . S
C174 C175 1.355 . S
C174 C176 1.415 . S
C175 C174 1.355 . S
C175 C177 1.419 . S
C176 C174 1.415 . S
C176 C181 1.425 . S
C176 C183 1.409 . S
C177 H169 0.930 . S
C177 C175 1.419 . S
C177 C178 1.362 . S
C178 H170 0.930 . S
C178 C177 1.362 . S
C178 C181 1.409 . S
C179 H171 0.930 . S
C179 C180 1.355 . S
C179 C181 1.415 . S
C180 C179 1.355 . S
C180 C182 1.419 . S
C181 C176 1.425 . S
C181 C178 1.409 . S
C181 C179 1.415 . S
C182 H172 0.916 1_556 S
C182 C180 1.419 . S
C182 C183 1.362 . S
C183 H173 0.930 . S
C183 C176 1.409 . S
C183 C182 1.362 . S
H184 C190 0.930 . S
H185 C193 0.930 . S
H186 C194 0.930 . S
H187 C195 0.930 . S
H188 C198 0.930 . S
H189 C199 0.930 . S
C190 H184 0.930 . S
C190 C191 1.355 . S
C190 C192 1.415 . S
C191 C190 1.355 . S
C191 C193 1.419 . S
C192 C190 1.415 . S
C192 C197 1.425 . S
C192 C199 1.409 . S
C193 H185 0.930 . S
C193 C191 1.419 . S
C193 C194 1.362 . S
C194 H186 0.930 . S
C194 C193 1.362 . S
C194 C197 1.409 . S
C195 H187 0.930 . S
C195 C196 1.355 . S
C195 C197 1.415 . S
C196 C195 1.355 . S
C196 C198 1.419 . S
C197 C192 1.425 . S
C197 C194 1.409 . S
C197 C195 1.415 . S
C198 H188 0.930 . S
C198 C196 1.419 . S
C198 C199 1.362 . S
C199 H189 0.930 . S
C199 C192 1.409 . S
C199 C198 1.362 . S
H200 C206 0.930 . S
H201 C209 0.930 . S
H202 C210 0.930 . S
H203 C211 0.930 . S
H204 C214 0.930 1_545 S
H205 C215 0.930 1_545 S
C206 H200 0.930 . S
C206 C207 1.355 . S
C206 C208 1.415 . S
C207 C206 1.355 . S
C207 C209 1.419 . S
C208 C206 1.415 . S
C208 C213 1.425 . S
C208 C215 1.409 . S
C209 H201 0.930 . S
C209 C207 1.419 . S
C209 C210 1.362 . S
C210 H202 0.930 . S
C210 C209 1.362 . S
C210 C213 1.409 . S
C211 H203 0.930 . S
C211 C212 1.355 . S
C211 C213 1.415 . S
C212 C211 1.355 . S
C212 C214 1.419 . S
C213 C208 1.425 . S
C213 C210 1.409 . S
C213 C211 1.415 . S
C214 H204 0.930 1_565 S
C214 C212 1.419 . S
C214 C215 1.362 . S
C215 H205 0.930 1_565 S
C215 C208 1.409 . S
C215 C214 1.362 . S
H216 C222 0.930 . S
H217 C225 0.930 1_556 S
H218 C226 0.930 . S
H219 C227 0.930 1_455 S
H220 C230 0.930 . S
H221 C231 0.930 . S
C222 H216 0.930 . S
C222 C223 1.355 . S
C222 C224 1.415 . S
C223 C222 1.355 . S
C223 C225 1.419 . S
C224 C222 1.415 . S
C224 C229 1.425 . S
C224 C231 1.409 . S
C225 H217 0.930 1_554 S
C225 C223 1.419 . S
C225 C226 1.362 . S
C226 H218 0.930 . S
C226 C225 1.362 . S
C226 C229 1.409 . S
C227 H219 0.930 1_655 S
C227 C228 1.355 . S
C227 C229 1.415 . S
C228 C227 1.355 . S
C228 C230 1.419 . S
C229 C224 1.425 . S
C229 C226 1.409 . S
C229 C227 1.415 . S
C230 H220 0.930 . S
C230 C228 1.419 . S
C230 C231 1.362 . S
C231 H221 0.930 . S
C231 C224 1.409 . S
C231 C230 1.362 . S
H232 C238 0.930 . S
H233 C241 0.930 . S
H234 C242 0.930 . S
H235 C243 0.930 . S
H236 C246 0.930 . S
H237 C247 0.930 . S
C238 H232 0.930 . S
C238 C239 1.355 . S
C238 C240 1.415 . S
C239 C238 1.355 . S
C239 C241 1.419 . S
C240 C238 1.415 . S
C240 C245 1.425 . S
C240 C247 1.409 . S
C241 H233 0.930 . S
C241 C239 1.419 . S
C241 C242 1.362 . S
C242 H234 0.930 . S
C242 C241 1.362 . S
C242 C245 1.409 . S
C243 H235 0.930 . S
C243 C244 1.355 . S
C243 C245 1.415 . S
C244 C243 1.355 . S
C244 C246 1.419 . S
C245 C240 1.425 . S
C245 C242 1.409 . S
C245 C243 1.415 . S
C246 H236 0.930 . S
C246 C244 1.419 . S
C246 C247 1.362 . S
C247 H237 0.930 . S
C247 C240 1.409 . S
C247 C246 1.362 . S
H248 C254 0.930 . S
H249 C257 0.930 . S
H250 C258 0.930 . S
H251 C259 0.930 . S
H252 C262 0.930 . S
H253 C263 0.930 . S
C254 H248 0.930 . S
C254 C255 1.355 . S
C254 C256 1.415 . S
C255 C254 1.355 . S
C255 C257 1.419 . S
C256 C254 1.415 . S
C256 C261 1.425 . S
C256 C263 1.409 . S
C257 H249 0.930 . S
C257 C255 1.419 . S
C257 C258 1.362 . S
C258 H250 0.930 . S
C258 C257 1.362 . S
C258 C261 1.409 . S
C259 H251 0.930 . S
C259 C260 1.355 . S
C259 C261 1.415 . S
C260 C259 1.355 . S
C260 C262 1.419 . S
C261 C256 1.425 . S
C261 C258 1.409 . S
C261 C259 1.415 . S
C262 H252 0.930 . S
C262 C260 1.419 . S
C262 C263 1.362 . S
C263 H253 0.930 . S
C263 C256 1.409 . S
C263 C262 1.362 . S
C127 C23 1.551 . S
C132 C2 1.551 . S
C143 C42 1.539 1_545 S
C148 C63 1.540 . S
C159 C82 1.581 . S
C164 C103 1.581 . S
C175 C111 1.392 . S
C180 C4 1.311 1_556 S
C191 C60 1.452 . S
C196 C25 1.447 . S
C207 C84 1.250 . S
C212 C71 1.338 . S
C223 C105 1.405 1_554 S
C228 C20 1.449 . S
C239 C31 1.393 . S
C244 C44 1.287 . S
C255 C100 1.464 . S
C260 C65 1.452 . S
