# Generated by pormake.
# Topology uou, (4)-cn, num edge types: 1
# Building blocks:
#     Node 0, Type 0, BuildingBlock: NAHDIM_clean_sbu_0, # of connection points: 4
#     Node 1, Type 0, BuildingBlock: NAHDIM_clean_sbu_0, # of connection points: 4
#     Node 2, Type 0, BuildingBlock: NAHDIM_clean_sbu_0, # of connection points: 4
#     Node 3, Type 0, BuildingBlock: NAHDIM_clean_sbu_0, # of connection points: 4
#     Node 4, Type 0, BuildingBlock: NAHDIM_clean_sbu_0, # of connection points: 4
#     Node 5, Type 0, BuildingBlock: NAHDIM_clean_sbu_0, # of connection points: 4
#     Node 6, Type 0, BuildingBlock: NAHDIM_clean_sbu_0, # of connection points: 4
#     Node 7, Type 0, BuildingBlock: NAHDIM_clean_sbu_0, # of connection points: 4
#     Node 8, Type 0, BuildingBlock: NAHDIM_clean_sbu_0, # of connection points: 4
#     Node 9, Type 0, BuildingBlock: NAHDIM_clean_sbu_0, # of connection points: 4
#     Node 10, Type 0, BuildingBlock: NAHDIM_clean_sbu_0, # of connection points: 4
#     Node 11, Type 0, BuildingBlock: NAHDIM_clean_sbu_0, # of connection points: 4
#     Node 12, Type 0, BuildingBlock: NAHDIM_clean_sbu_0, # of connection points: 4
#     Node 13, Type 0, BuildingBlock: NAHDIM_clean_sbu_0, # of connection points: 4
#     Node 14, Type 0, BuildingBlock: NAHDIM_clean_sbu_0, # of connection points: 4
#     Node 15, Type 0, BuildingBlock: NAHDIM_clean_sbu_0, # of connection points: 4
#     Edge 16, Type (0, 0), BuildingBlock: EYOCIG_clean_linker_4, # of connection points: 2
#     Edge 17, Type (0, 0), BuildingBlock: EYOCIG_clean_linker_4, # of connection points: 2
#     Edge 18, Type (0, 0), BuildingBlock: EYOCIG_clean_linker_4, # of connection points: 2
#     Edge 19, Type (0, 0), BuildingBlock: EYOCIG_clean_linker_4, # of connection points: 2
#     Edge 20, Type (0, 0), BuildingBlock: EYOCIG_clean_linker_4, # of connection points: 2
#     Edge 21, Type (0, 0), BuildingBlock: EYOCIG_clean_linker_4, # of connection points: 2
#     Edge 22, Type (0, 0), BuildingBlock: EYOCIG_clean_linker_4, # of connection points: 2
#     Edge 23, Type (0, 0), BuildingBlock: EYOCIG_clean_linker_4, # of connection points: 2
#     Edge 24, Type (0, 0), BuildingBlock: EYOCIG_clean_linker_4, # of connection points: 2
#     Edge 25, Type (0, 0), BuildingBlock: EYOCIG_clean_linker_4, # of connection points: 2
#     Edge 26, Type (0, 0), BuildingBlock: EYOCIG_clean_linker_4, # of connection points: 2
#     Edge 27, Type (0, 0), BuildingBlock: EYOCIG_clean_linker_4, # of connection points: 2
#     Edge 28, Type (0, 0), BuildingBlock: EYOCIG_clean_linker_4, # of connection points: 2
#     Edge 29, Type (0, 0), BuildingBlock: EYOCIG_clean_linker_4, # of connection points: 2
#     Edge 30, Type (0, 0), BuildingBlock: EYOCIG_clean_linker_4, # of connection points: 2
#     Edge 31, Type (0, 0), BuildingBlock: EYOCIG_clean_linker_4, # of connection points: 2
#     Edge 32, Type (0, 0), BuildingBlock: EYOCIG_clean_linker_4, # of connection points: 2
#     Edge 33, Type (0, 0), BuildingBlock: EYOCIG_clean_linker_4, # of connection points: 2
#     Edge 34, Type (0, 0), BuildingBlock: EYOCIG_clean_linker_4, # of connection points: 2
#     Edge 35, Type (0, 0), BuildingBlock: EYOCIG_clean_linker_4, # of connection points: 2
#     Edge 36, Type (0, 0), BuildingBlock: EYOCIG_clean_linker_4, # of connection points: 2
#     Edge 37, Type (0, 0), BuildingBlock: EYOCIG_clean_linker_4, # of connection points: 2
#     Edge 38, Type (0, 0), BuildingBlock: EYOCIG_clean_linker_4, # of connection points: 2
#     Edge 39, Type (0, 0), BuildingBlock: EYOCIG_clean_linker_4, # of connection points: 2
#     Edge 40, Type (0, 0), BuildingBlock: EYOCIG_clean_linker_4, # of connection points: 2
#     Edge 41, Type (0, 0), BuildingBlock: EYOCIG_clean_linker_4, # of connection points: 2
#     Edge 42, Type (0, 0), BuildingBlock: EYOCIG_clean_linker_4, # of connection points: 2
#     Edge 43, Type (0, 0), BuildingBlock: EYOCIG_clean_linker_4, # of connection points: 2
#     Edge 44, Type (0, 0), BuildingBlock: EYOCIG_clean_linker_4, # of connection points: 2
#     Edge 45, Type (0, 0), BuildingBlock: EYOCIG_clean_linker_4, # of connection points: 2
#     Edge 46, Type (0, 0), BuildingBlock: EYOCIG_clean_linker_4, # of connection points: 2
#     Edge 47, Type (0, 0), BuildingBlock: EYOCIG_clean_linker_4, # of connection points: 2
# Relax obj value: 0.105
# Max RMSD: 0.145
# Mean RMSD: 0.145
data_MOF--net-uou--node1-NAHDIM_clean_sbu_0--edge1-EYOCIG_clean_linker_4
_symmetry_space_group_name_H-M    P1
_symmetry_Int_Tables_number       1
_symmetry_cell_setting            triclinic
loop_
_symmetry_equiv_pos_as_xyz
'x, y, z'
_cell_length_a     32.516291
_cell_length_b     32.189264
_cell_length_c     40.385835
_cell_angle_alpha  89.996131
_cell_angle_beta   89.991702
_cell_angle_gamma 89.987155
loop_
_atom_site_label
_atom_site_type_symbol
_atom_site_fract_x
_atom_site_fract_y
_atom_site_fract_z
_atom_type_partial_charge
C0 C 0.14039 0.01704 0.11469 0.0
O1 O 0.11247 -0.01216 0.1176 0.0
O2 O 0.04639 0.0466 0.15641 0.0
Zn3 Zn 0.06816 0.06496 0.11202 0.0
O4 O 0.04434 0.03145 0.07432 0.0
C5 C 0.02076 0.13924 0.11784 0.0
O6 O -0.00422 0.11353 0.13302 0.0
O7 O 0.12932 0.05474 0.11191 0.0
C8 C 0.01439 0.04335 0.05654 0.0
O9 O -0.00432 0.07853 0.0629 0.0
C10 C 0.01937 0.01881 0.16117 0.0
O11 O 0.00319 -0.00117 0.13604 0.0
O12 O 0.05465 0.12602 0.1062 0.0
C13 C 0.33777 0.95819 0.11462 0.0
O14 O 0.36569 0.98737 0.1176 0.0
O15 O 0.43181 0.92835 0.1562 0.0
Zn16 Zn 0.40999 0.91027 0.11175 0.0
O17 O 0.43373 0.94392 0.07411 0.0
C18 C 0.45719 0.83581 0.11745 0.0
O19 O 0.48201 0.86126 0.13306 0.0
O20 O 0.34883 0.9205 0.11172 0.0
C21 C 0.46469 0.93286 0.05712 0.0
O22 O 0.48453 0.89859 0.06436 0.0
C23 C 0.45842 0.9565 0.16112 0.0
O24 O 0.47414 0.97711 0.13613 0.0
O25 O 0.42348 0.84925 0.10563 0.0
C26 C 0.64029 0.95794 0.36388 0.0
O27 O 0.61243 0.98718 0.36082 0.0
O28 O 0.54597 0.92858 0.32279 0.0
Zn29 Zn 0.56797 0.91026 0.36712 0.0
O30 O 0.54451 0.94394 0.40488 0.0
C31 C 0.52033 0.83609 0.3617 0.0
O32 O 0.49524 0.86184 0.34668 0.0
O33 O 0.62916 0.92031 0.36696 0.0
C34 C 0.51478 0.93207 0.42292 0.0
O35 O 0.49606 0.89684 0.41678 0.0
C36 C 0.51857 0.95603 0.31813 0.0
O37 O 0.50213 0.97565 0.34333 0.0
O38 O 0.55438 0.84924 0.37309 0.0
C39 C 0.83769 0.01667 0.36392 0.0
O40 O 0.86566 0.98753 0.36093 0.0
O41 O 0.9319 0.04636 0.32277 0.0
Zn42 Zn 0.90983 0.06468 0.36707 0.0
O43 O 0.93349 0.03116 0.40485 0.0
C44 C 0.95725 0.13895 0.36157 0.0
O45 O 0.98251 0.11317 0.34677 0.0
O46 O 0.84868 0.05436 0.36694 0.0
C47 C 0.96258 0.04359 0.4233 0.0
O48 O 0.98048 0.07937 0.41764 0.0
C49 C 0.95912 0.01873 0.31812 0.0
O50 O 0.97532 -0.00111 0.34332 0.0
O51 O 0.92317 0.12577 0.37289 0.0
C52 C 0.83764 0.95821 0.86368 0.0
O53 O 0.86556 0.98737 0.86053 0.0
O54 O 0.93201 0.92866 0.82291 0.0
Zn55 Zn 0.90986 0.91037 0.8672 0.0
O56 O 0.93333 0.944 0.90498 0.0
C57 C 0.9574 0.83612 0.8618 0.0
O58 O 0.98257 0.86187 0.84688 0.0
O59 O 0.8487 0.92057 0.86694 0.0
C60 C 0.96284 0.93195 0.92317 0.0
O61 O 0.9813 0.89652 0.91721 0.0
C62 C 0.95906 0.95645 0.81827 0.0
O63 O 0.97504 0.97646 0.84346 0.0
O64 O 0.92333 0.84931 0.87314 0.0
C65 C 0.64017 0.01678 0.8634 0.0
O66 O 0.61232 0.98753 0.86046 0.0
O67 O 0.54569 0.04586 0.82243 0.0
Zn68 Zn 0.56783 0.06451 0.86662 0.0
O69 O 0.54439 0.03111 0.90456 0.0
C70 C 0.52002 0.13854 0.86106 0.0
O71 O 0.49471 0.11253 0.84658 0.0
O72 O 0.62902 0.05443 0.8664 0.0
C73 C 0.51581 0.04386 0.9234 0.0
O74 O 0.49831 0.07994 0.91807 0.0
C75 C 0.51873 0.01796 0.81794 0.0
O76 O 0.50286 -0.00196 0.84324 0.0
O77 O 0.55427 0.12559 0.87221 0.0
C78 C 0.33769 0.0171 0.61484 0.0
O79 O 0.36555 -0.01218 0.6176 0.0
O80 O 0.4319 0.04631 0.65644 0.0
Zn81 Zn 0.41002 0.06481 0.61212 0.0
O82 O 0.43362 0.03133 0.57432 0.0
C83 C 0.45759 0.13896 0.61799 0.0
O84 O 0.48247 0.11319 0.63322 0.0
O85 O 0.34883 0.05478 0.61214 0.0
C86 C 0.4638 0.04301 0.5567 0.0
O87 O 0.4829 0.07789 0.56332 0.0
C88 C 0.45803 0.01766 0.66119 0.0
O89 O 0.47316 -0.00322 0.6361 0.0
O90 O 0.42368 0.12583 0.60632 0.0
C91 C 0.14028 0.95847 0.61486 0.0
O92 O 0.11234 -0.01234 0.61777 0.0
O93 O 0.04629 0.92878 0.65652 0.0
Zn94 Zn 0.0681 0.91053 0.61211 0.0
O95 O 0.04431 0.9441 0.57443 0.0
C96 C 0.02079 0.8362 0.61786 0.0
O97 O -0.00418 0.86184 0.63313 0.0
O98 O 0.12925 0.92077 0.61205 0.0
C99 C 0.01417 0.93237 0.55679 0.0
O100 O -0.00478 0.89738 0.56333 0.0
C101 C 0.01939 0.95668 0.66133 0.0
O102 O 0.00336 0.97688 0.63624 0.0
O103 O 0.05465 0.84948 0.6062 0.0
C104 C 0.64057 0.51699 0.11518 0.0
O105 O 0.6128 0.48769 0.11826 0.0
O106 O 0.54629 0.54633 0.15649 0.0
Zn107 Zn 0.56812 0.56451 0.11206 0.0
O108 O 0.54461 0.53066 0.07442 0.0
C109 C 0.52039 0.63867 0.11746 0.0
O110 O 0.49544 0.61298 0.13268 0.0
O111 O 0.62933 0.5546 0.11212 0.0
C112 C 0.51459 0.54228 0.05661 0.0
O113 O 0.49559 0.57732 0.06291 0.0
C114 C 0.51913 0.51868 0.16129 0.0
O115 O 0.50283 0.49876 0.13619 0.0
O116 O 0.55438 0.62548 0.10596 0.0
C117 C 0.83813 0.45874 0.11529 0.0
O118 O 0.86603 0.48796 0.11818 0.0
O119 O 0.93227 0.42911 0.15683 0.0
Zn120 Zn 0.91038 0.41084 0.11246 0.0
O121 O 0.93409 0.44433 0.07472 0.0
C122 C 0.95765 0.33643 0.1183 0.0
O123 O 0.98248 0.36197 0.1338 0.0
O124 O 0.84922 0.42105 0.11246 0.0
C125 C 0.96481 0.43299 0.05756 0.0
O126 O 0.98441 0.39855 0.06468 0.0
C127 C 0.95865 0.45749 0.16168 0.0
O128 O 0.97407 0.47826 0.13664 0.0
O129 O 0.92389 0.3498 0.10649 0.0
C130 C 0.14033 0.45796 0.36461 0.0
O131 O 0.11247 0.48726 0.36188 0.0
O132 O 0.04604 0.4289 0.32314 0.0
Zn133 Zn 0.06799 0.41026 0.36739 0.0
O134 O 0.04447 0.44373 0.40525 0.0
C135 C 0.02019 0.33624 0.36175 0.0
O136 O -0.00497 0.3622 0.34704 0.0
O137 O 0.12919 0.42028 0.36732 0.0
C138 C 0.01534 0.43137 0.4237 0.0
O139 O -0.00271 0.39567 0.41799 0.0
C140 C 0.01889 0.45662 0.31858 0.0
O141 O 0.00269 0.47632 0.34385 0.0
O142 O 0.05435 0.34921 0.37305 0.0
C143 C 0.33775 0.51661 0.3646 0.0
O144 O 0.3657 0.48742 0.36173 0.0
O145 O 0.43187 0.54633 0.32306 0.0
Zn146 Zn 0.40993 0.56459 0.36743 0.0
O147 O 0.43366 0.53104 0.40516 0.0
C148 C 0.45733 0.63887 0.36186 0.0
O149 O 0.48247 0.61313 0.34687 0.0
O150 O 0.34878 0.55431 0.36741 0.0
C151 C 0.46316 0.54322 0.4233 0.0
O152 O 0.48147 0.57871 0.4173 0.0
C153 C 0.45899 0.51863 0.31831 0.0
O154 O 0.47518 0.49865 0.34344 0.0
O155 O 0.42333 0.62566 0.3733 0.0
C156 C 0.33814 0.45852 0.86362 0.0
O157 O 0.36612 0.48764 0.86063 0.0
O158 O 0.43245 0.42897 0.82264 0.0
Zn159 Zn 0.41026 0.41042 0.86684 0.0
O160 O 0.43389 0.44364 0.90478 0.0
C161 C 0.45749 0.33601 0.86102 0.0
O162 O 0.48274 0.36175 0.84617 0.0
O163 O 0.34912 0.42082 0.86666 0.0
C164 C 0.4633 0.43128 0.92294 0.0
O165 O 0.48155 0.39578 0.91685 0.0
C166 C 0.45963 0.45666 0.81812 0.0
O167 O 0.47572 0.47641 0.84341 0.0
O168 O 0.42351 0.34927 0.87247 0.0
C169 C 0.1407 0.5172 0.8638 0.0
O170 O 0.11286 0.48795 0.86076 0.0
O171 O 0.04615 0.54629 0.82307 0.0
Zn172 Zn 0.06834 0.56483 0.86727 0.0
O173 O 0.04503 0.5313 0.90518 0.0
C174 C 0.02052 0.63889 0.86181 0.0
O175 O -0.00467 0.61299 0.84707 0.0
O176 O 0.12953 0.55482 0.86696 0.0
C177 C 0.01579 0.54355 0.92358 0.0
O178 O -0.00248 0.57911 0.91775 0.0
C179 C 0.01908 0.51849 0.81855 0.0
O180 O 0.00311 0.49863 0.84383 0.0
O181 O 0.05469 0.62587 0.87305 0.0
C182 C 0.83816 0.51685 0.61545 0.0
O183 O 0.8661 0.48766 0.61837 0.0
O184 O 0.93228 0.54647 0.6569 0.0
Zn185 Zn 0.91035 0.56472 0.61253 0.0
O186 O 0.93399 0.5311 0.57482 0.0
C187 C 0.95774 0.63902 0.61818 0.0
O188 O 0.98265 0.6134 0.63355 0.0
O189 O 0.8492 0.55454 0.61257 0.0
C190 C 0.96442 0.54254 0.55738 0.0
O191 O 0.98378 0.57723 0.56414 0.0
C192 C 0.9585 0.51793 0.66174 0.0
O193 O 0.97372 0.49701 0.6367 0.0
O194 O 0.92389 0.62573 0.60651 0.0
C195 C 0.64082 0.458 0.61527 0.0
O196 O 0.61291 0.48721 0.61824 0.0
O197 O 0.54662 0.42862 0.65653 0.0
Zn198 Zn 0.56858 0.41024 0.6122 0.0
O199 O 0.54503 0.4438 0.57442 0.0
C200 C 0.52112 0.336 0.61801 0.0
O201 O 0.49626 0.36167 0.63337 0.0
O202 O 0.62975 0.42033 0.61229 0.0
C203 C 0.51449 0.43243 0.55708 0.0
O204 O 0.49498 0.39788 0.56401 0.0
C205 C 0.52026 0.45705 0.66131 0.0
O206 O 0.5049 0.47778 0.63623 0.0
O207 O 0.55497 0.34923 0.60628 0.0
C208 C 0.25965 0.9806 0.11436 0.0
C209 C 0.29502 0.96931 0.11439 0.0
C210 C 0.2185 -0.00536 0.11437 0.0
C211 C 0.18314 0.00592 0.11443 0.0
C212 C 0.71844 0.9802 0.36405 0.0
C213 C 0.68306 0.96898 0.36407 0.0
C214 C 0.7596 -0.00579 0.36406 0.0
C215 C 0.79495 0.0055 0.36409 0.0
C216 C 0.75951 0.98058 0.86366 0.0
C217 C 0.79488 0.96933 0.86377 0.0
C218 C 0.71833 -0.00545 0.8636 0.0
C219 C 0.68295 0.00576 0.8636 0.0
C220 C 0.21838 0.98088 0.61459 0.0
C221 C 0.18302 0.96961 0.61462 0.0
C222 C 0.25954 -0.00512 0.61459 0.0
C223 C 0.29492 0.00609 0.61462 0.0
C224 C 0.75998 0.48103 0.11502 0.0
C225 C 0.79537 0.46982 0.11505 0.0
C226 C 0.71879 0.49494 0.11499 0.0
C227 C 0.68338 0.50607 0.11498 0.0
C228 C 0.25965 0.49419 0.36482 0.0
C229 C 0.29501 0.50547 0.3648 0.0
C230 C 0.21848 0.48019 0.36482 0.0
C231 C 0.18311 0.46897 0.36481 0.0
C232 C 0.21888 0.495 0.86381 0.0
C233 C 0.18349 0.5062 0.8639 0.0
C234 C 0.26005 0.48101 0.86378 0.0
C235 C 0.29541 0.46972 0.8638 0.0
C236 C 0.71893 0.48036 0.61512 0.0
C237 C 0.68357 0.46909 0.61509 0.0
C238 C 0.76007 0.49441 0.61517 0.0
C239 C 0.79542 0.50571 0.61521 0.0
C240 C 0.98371 0.00757 0.25654 0.0
C241 C 0.97369 0.01132 0.28512 0.0
C242 C -0.00496 0.0076 0.22281 0.0
C243 C 0.00497 0.01139 0.19421 0.0
C244 C 0.48273 0.96735 0.2228 0.0
C245 C 0.47279 0.96375 0.1942 0.0
C246 C 0.49406 0.96723 0.25654 0.0
C247 C 0.50406 0.96342 0.28511 0.0
C248 C -0.00497 0.96773 0.72298 0.0
C249 C 0.00497 0.96403 0.69438 0.0
C250 C 0.98367 0.96768 0.75671 0.0
C251 C 0.97363 0.9639 0.78528 0.0
C252 C 0.48254 0.00633 0.72276 0.0
C253 C 0.47252 0.01007 0.69419 0.0
C254 C 0.49397 0.00641 0.75647 0.0
C255 C 0.50406 0.0103 0.78501 0.0
C256 C 0.49478 0.50762 0.22295 0.0
C257 C 0.50472 0.51136 0.19435 0.0
C258 C 0.48346 0.50759 0.25668 0.0
C259 C 0.47348 0.5113 0.28527 0.0
C260 C -0.00561 0.46824 0.25704 0.0
C261 C 0.00437 0.46427 0.28561 0.0
C262 C 0.98306 0.46846 0.22331 0.0
C263 C 0.97309 0.46486 0.19471 0.0
C264 C 0.49577 0.46823 0.72291 0.0
C265 C 0.50578 0.46453 0.69432 0.0
C266 C 0.48436 0.46812 0.75662 0.0
C267 C 0.47428 0.46424 0.78517 0.0
C268 C -0.00563 0.50698 0.75706 0.0
C269 C 0.00445 0.51088 0.78561 0.0
C270 C 0.98296 0.50684 0.72335 0.0
C271 C 0.97296 0.5105 0.69476 0.0
C272 C -0.00313 0.21733 0.11268 0.0
C273 C 0.00916 0.18205 0.11439 0.0
C274 C 0.98156 0.25839 0.11278 0.0
C275 C 0.96926 0.29366 0.11463 0.0
C276 C 0.48102 0.75774 0.11195 0.0
C277 C 0.46874 0.79301 0.11377 0.0
C278 C 0.49636 0.71668 0.11197 0.0
C279 C 0.50871 0.68143 0.11383 0.0
C280 C 0.48113 0.71697 0.3671 0.0
C281 C 0.46888 0.68168 0.36535 0.0
C282 C 0.49642 0.75803 0.36706 0.0
C283 C 0.50871 0.7933 0.36525 0.0
C284 C -0.00378 0.25817 0.36679 0.0
C285 C 0.0085 0.29345 0.3651 0.0
C286 C 0.98096 0.21709 0.36677 0.0
C287 C 0.96876 0.18178 0.36503 0.0
C288 C -0.00348 0.71695 0.86703 0.0
C289 C 0.00883 0.68168 0.86526 0.0
C290 C 0.98121 0.75802 0.86704 0.0
C291 C 0.96895 0.79331 0.86529 0.0
C292 C 0.48104 0.2578 0.86607 0.0
C293 C 0.46892 0.29315 0.86439 0.0
C294 C 0.49618 0.21667 0.86605 0.0
C295 C 0.50839 0.18136 0.86436 0.0
C296 C 0.48171 0.21696 0.61271 0.0
C297 C 0.46933 0.18172 0.61447 0.0
C298 C 0.4971 0.25798 0.6127 0.0
C299 C 0.50945 0.29323 0.61446 0.0
C300 C -0.00303 0.75811 0.61261 0.0
C301 C 0.00923 0.79339 0.61435 0.0
C302 C 0.98167 0.71705 0.61269 0.0
C303 C 0.96937 0.68179 0.61454 0.0
C304 C 0.9833 0.97605 0.97568 0.0
C305 C 0.97406 0.95581 0.95173 0.0
C306 C -0.00639 -0.00056 0.00401 0.0
C307 C 0.00296 0.01963 0.02796 0.0
C308 C 0.49554 -0.00013 0.97603 0.0
C309 C 0.50472 0.02004 0.95202 0.0
C310 C 0.48535 0.97655 0.00443 0.0
C311 C 0.47611 0.95643 0.02845 0.0
C312 C 0.4843 -0.00069 0.50398 0.0
C313 C 0.47509 0.01941 0.52802 0.0
C314 C 0.49448 0.97602 0.47556 0.0
C315 C 0.50364 0.95585 0.45155 0.0
C316 C -0.00656 0.97622 0.50421 0.0
C317 C 0.00276 0.95606 0.52819 0.0
C318 C 0.98312 -0.00043 0.47585 0.0
C319 C 0.97384 0.01976 0.45188 0.0
C320 C 0.49416 0.49824 0.00405 0.0
C321 C 0.50339 0.51844 0.02803 0.0
C322 C 0.48389 0.47495 0.97566 0.0
C323 C 0.47462 0.45489 0.95162 0.0
C324 C 0.98544 0.47649 0.00476 0.0
C325 C 0.9762 0.45646 0.02883 0.0
C326 C -0.00438 0.49969 0.9763 0.0
C327 C 0.00475 0.5198 0.95225 0.0
C328 C 0.9849 0.49871 0.50471 0.0
C329 C 0.97571 0.51888 0.52872 0.0
C330 C -0.00495 0.47536 0.47633 0.0
C331 C 0.00421 0.45516 0.45233 0.0
C332 C 0.49396 0.4761 0.50435 0.0
C333 C 0.50319 0.45602 0.5284 0.0
C334 C 0.48371 0.49936 0.47593 0.0
C335 C 0.47443 0.51949 0.45193 0.0
loop_
_geom_bond_atom_site_label_1
_geom_bond_atom_site_label_2
_geom_bond_distance
_geom_bond_site_symmetry_2
_ccdc_geom_bond_type
C0 O1 1.160 . S
C0 O7 1.185 . S
O1 C0 1.160 . S
O2 Zn3 1.899 . S
O2 C10 1.284 . S
Zn3 O2 1.899 . S
Zn3 O4 2.032 . S
Zn3 O7 2.086 . S
Zn3 O12 1.977 . S
O4 Zn3 2.032 . S
O4 C8 1.278 . S
C5 O6 1.203 . S
C5 O12 1.267 . S
O6 C5 1.203 . S
O7 C0 1.185 . S
O7 Zn3 2.086 . S
C8 O4 1.278 . S
C8 O9 1.211 1_455 S
O9 C8 1.211 1_655 S
C10 O2 1.284 . S
C10 O11 1.273 1_455 S
O11 C10 1.273 1_655 S
O12 Zn3 1.977 . S
O12 C5 1.267 . S
C13 O14 1.160 . S
C13 O20 1.185 . S
O14 C13 1.160 . S
O15 Zn16 1.899 . S
O15 C23 1.284 . S
Zn16 O15 1.899 . S
Zn16 O17 2.032 . S
Zn16 O20 2.086 . S
Zn16 O25 1.977 . S
O17 Zn16 2.032 . S
O17 C21 1.278 . S
C18 O19 1.203 . S
C18 O25 1.267 . S
O19 C18 1.203 . S
O20 C13 1.185 . S
O20 Zn16 2.086 . S
C21 O17 1.278 . S
C21 O22 1.211 . S
O22 C21 1.211 . S
C23 O15 1.284 . S
C23 O24 1.273 . S
O24 C23 1.273 . S
O25 Zn16 1.977 . S
O25 C18 1.267 . S
C26 O27 1.160 . S
C26 O33 1.185 . S
O27 C26 1.160 . S
O28 Zn29 1.899 . S
O28 C36 1.284 . S
Zn29 O28 1.899 . S
Zn29 O30 2.032 . S
Zn29 O33 2.086 . S
Zn29 O38 1.977 . S
O30 Zn29 2.032 . S
O30 C34 1.278 . S
C31 O32 1.203 . S
C31 O38 1.267 . S
O32 C31 1.203 . S
O33 C26 1.185 . S
O33 Zn29 2.086 . S
C34 O30 1.278 . S
C34 O35 1.211 . S
O35 C34 1.211 . S
C36 O28 1.284 . S
C36 O37 1.273 . S
O37 C36 1.273 . S
O38 Zn29 1.977 . S
O38 C31 1.267 . S
C39 O40 1.160 . S
C39 O46 1.185 . S
O40 C39 1.160 . S
O41 Zn42 1.899 . S
O41 C49 1.284 . S
Zn42 O41 1.899 . S
Zn42 O43 2.032 . S
Zn42 O46 2.086 . S
Zn42 O51 1.977 . S
O43 Zn42 2.032 . S
O43 C47 1.278 . S
C44 O45 1.203 . S
C44 O51 1.267 . S
O45 C44 1.203 . S
O46 C39 1.185 . S
O46 Zn42 2.086 . S
C47 O43 1.278 . S
C47 O48 1.211 1_655 S
O48 C47 1.211 1_455 S
C49 O41 1.284 . S
C49 O50 1.273 1_655 S
O50 C49 1.273 1_455 S
O51 Zn42 1.977 . S
O51 C44 1.267 . S
C52 O53 1.160 . S
C52 O59 1.185 . S
O53 C52 1.160 . S
O54 Zn55 1.899 . S
O54 C62 1.284 . S
Zn55 O54 1.899 . S
Zn55 O56 2.032 . S
Zn55 O59 2.086 . S
Zn55 O64 1.977 . S
O56 Zn55 2.032 . S
O56 C60 1.278 . S
C57 O58 1.203 . S
C57 O64 1.267 . S
O58 C57 1.203 . S
O59 C52 1.185 . S
O59 Zn55 2.086 . S
C60 O56 1.278 . S
C60 O61 1.211 1_655 S
O61 C60 1.211 1_455 S
C62 O54 1.284 . S
C62 O63 1.273 1_655 S
O63 C62 1.273 1_455 S
O64 Zn55 1.977 . S
O64 C57 1.267 . S
C65 O66 1.160 . S
C65 O72 1.185 . S
O66 C65 1.160 . S
O67 Zn68 1.899 . S
O67 C75 1.284 . S
Zn68 O67 1.899 . S
Zn68 O69 2.032 . S
Zn68 O72 2.086 . S
Zn68 O77 1.977 . S
O69 Zn68 2.032 . S
O69 C73 1.278 . S
C70 O71 1.203 . S
C70 O77 1.267 . S
O71 C70 1.203 . S
O72 C65 1.185 . S
O72 Zn68 2.086 . S
C73 O69 1.278 . S
C73 O74 1.211 . S
O74 C73 1.211 . S
C75 O67 1.284 . S
C75 O76 1.273 . S
O76 C75 1.273 . S
O77 Zn68 1.977 . S
O77 C70 1.267 . S
C78 O79 1.160 . S
C78 O85 1.185 . S
O79 C78 1.160 . S
O80 Zn81 1.899 . S
O80 C88 1.284 . S
Zn81 O80 1.899 . S
Zn81 O82 2.032 . S
Zn81 O85 2.086 . S
Zn81 O90 1.977 . S
O82 Zn81 2.032 . S
O82 C86 1.278 . S
C83 O84 1.203 . S
C83 O90 1.267 . S
O84 C83 1.203 . S
O85 C78 1.185 . S
O85 Zn81 2.086 . S
C86 O82 1.278 . S
C86 O87 1.211 . S
O87 C86 1.211 . S
C88 O80 1.284 . S
C88 O89 1.273 . S
O89 C88 1.273 . S
O90 Zn81 1.977 . S
O90 C83 1.267 . S
C91 O92 1.160 . S
C91 O98 1.185 . S
O92 C91 1.160 . S
O93 Zn94 1.899 . S
O93 C101 1.284 . S
Zn94 O93 1.899 . S
Zn94 O95 2.032 . S
Zn94 O98 2.086 . S
Zn94 O103 1.977 . S
O95 Zn94 2.032 . S
O95 C99 1.278 . S
C96 O97 1.203 . S
C96 O103 1.267 . S
O97 C96 1.203 . S
O98 C91 1.185 . S
O98 Zn94 2.086 . S
C99 O95 1.278 . S
C99 O100 1.211 1_455 S
O100 C99 1.211 1_655 S
C101 O93 1.284 . S
C101 O102 1.273 1_455 S
O102 C101 1.273 1_655 S
O103 Zn94 1.977 . S
O103 C96 1.267 . S
C104 O105 1.160 . S
C104 O111 1.185 . S
O105 C104 1.160 . S
O106 Zn107 1.899 . S
O106 C114 1.284 . S
Zn107 O106 1.899 . S
Zn107 O108 2.032 . S
Zn107 O111 2.086 . S
Zn107 O116 1.977 . S
O108 Zn107 2.032 . S
O108 C112 1.278 . S
C109 O110 1.203 . S
C109 O116 1.267 . S
O110 C109 1.203 . S
O111 C104 1.185 . S
O111 Zn107 2.086 . S
C112 O108 1.278 . S
C112 O113 1.211 . S
O113 C112 1.211 . S
C114 O106 1.284 . S
C114 O115 1.273 . S
O115 C114 1.273 . S
O116 Zn107 1.977 . S
O116 C109 1.267 . S
C117 O118 1.160 . S
C117 O124 1.185 . S
O118 C117 1.160 . S
O119 Zn120 1.899 . S
O119 C127 1.284 . S
Zn120 O119 1.899 . S
Zn120 O121 2.032 . S
Zn120 O124 2.086 . S
Zn120 O129 1.977 . S
O121 Zn120 2.032 . S
O121 C125 1.278 . S
C122 O123 1.203 . S
C122 O129 1.267 . S
O123 C122 1.203 . S
O124 C117 1.185 . S
O124 Zn120 2.086 . S
C125 O121 1.278 . S
C125 O126 1.211 1_655 S
O126 C125 1.211 1_455 S
C127 O119 1.284 . S
C127 O128 1.273 1_655 S
O128 C127 1.273 1_455 S
O129 Zn120 1.977 . S
O129 C122 1.267 . S
C130 O131 1.160 . S
C130 O137 1.185 . S
O131 C130 1.160 . S
O132 Zn133 1.899 . S
O132 C140 1.284 . S
Zn133 O132 1.899 . S
Zn133 O134 2.032 . S
Zn133 O137 2.086 . S
Zn133 O142 1.977 . S
O134 Zn133 2.032 . S
O134 C138 1.278 . S
C135 O136 1.203 . S
C135 O142 1.267 . S
O136 C135 1.203 . S
O137 C130 1.185 . S
O137 Zn133 2.086 . S
C138 O134 1.278 . S
C138 O139 1.211 1_455 S
O139 C138 1.211 1_655 S
C140 O132 1.284 . S
C140 O141 1.273 1_455 S
O141 C140 1.273 1_655 S
O142 Zn133 1.977 . S
O142 C135 1.267 . S
C143 O144 1.160 . S
C143 O150 1.185 . S
O144 C143 1.160 . S
O145 Zn146 1.899 . S
O145 C153 1.284 . S
Zn146 O145 1.899 . S
Zn146 O147 2.032 . S
Zn146 O150 2.086 . S
Zn146 O155 1.977 . S
O147 Zn146 2.032 . S
O147 C151 1.278 . S
C148 O149 1.203 . S
C148 O155 1.267 . S
O149 C148 1.203 . S
O150 C143 1.185 . S
O150 Zn146 2.086 . S
C151 O147 1.278 . S
C151 O152 1.211 . S
O152 C151 1.211 . S
C153 O145 1.284 . S
C153 O154 1.273 . S
O154 C153 1.273 . S
O155 Zn146 1.977 . S
O155 C148 1.267 . S
C156 O157 1.160 . S
C156 O163 1.185 . S
O157 C156 1.160 . S
O158 Zn159 1.899 . S
O158 C166 1.284 . S
Zn159 O158 1.899 . S
Zn159 O160 2.032 . S
Zn159 O163 2.086 . S
Zn159 O168 1.977 . S
O160 Zn159 2.032 . S
O160 C164 1.278 . S
C161 O162 1.203 . S
C161 O168 1.267 . S
O162 C161 1.203 . S
O163 C156 1.185 . S
O163 Zn159 2.086 . S
C164 O160 1.278 . S
C164 O165 1.211 . S
O165 C164 1.211 . S
C166 O158 1.284 . S
C166 O167 1.273 . S
O167 C166 1.273 . S
O168 Zn159 1.977 . S
O168 C161 1.267 . S
C169 O170 1.160 . S
C169 O176 1.185 . S
O170 C169 1.160 . S
O171 Zn172 1.899 . S
O171 C179 1.284 . S
Zn172 O171 1.899 . S
Zn172 O173 2.032 . S
Zn172 O176 2.086 . S
Zn172 O181 1.977 . S
O173 Zn172 2.032 . S
O173 C177 1.278 . S
C174 O175 1.203 . S
C174 O181 1.267 . S
O175 C174 1.203 . S
O176 C169 1.185 . S
O176 Zn172 2.086 . S
C177 O173 1.278 . S
C177 O178 1.211 1_455 S
O178 C177 1.211 1_655 S
C179 O171 1.284 . S
C179 O180 1.273 1_455 S
O180 C179 1.273 1_655 S
O181 Zn172 1.977 . S
O181 C174 1.267 . S
C182 O183 1.160 . S
C182 O189 1.185 . S
O183 C182 1.160 . S
O184 Zn185 1.899 . S
O184 C192 1.284 . S
Zn185 O184 1.899 . S
Zn185 O186 2.032 . S
Zn185 O189 2.086 . S
Zn185 O194 1.977 . S
O186 Zn185 2.032 . S
O186 C190 1.278 . S
C187 O188 1.203 . S
C187 O194 1.267 . S
O188 C187 1.203 . S
O189 C182 1.185 . S
O189 Zn185 2.086 . S
C190 O186 1.278 . S
C190 O191 1.211 1_655 S
O191 C190 1.211 1_455 S
C192 O184 1.284 . S
C192 O193 1.273 1_655 S
O193 C192 1.273 1_455 S
O194 Zn185 1.977 . S
O194 C187 1.267 . S
C195 O196 1.160 . S
C195 O202 1.185 . S
O196 C195 1.160 . S
O197 Zn198 1.899 . S
O197 C205 1.284 . S
Zn198 O197 1.899 . S
Zn198 O199 2.032 . S
Zn198 O202 2.086 . S
Zn198 O207 1.977 . S
O199 Zn198 2.032 . S
O199 C203 1.278 . S
C200 O201 1.203 . S
C200 O207 1.267 . S
O201 C200 1.203 . S
O202 C195 1.185 . S
O202 Zn198 2.086 . S
C203 O199 1.278 . S
C203 O204 1.211 . S
O204 C203 1.211 . S
C205 O197 1.284 . S
C205 O206 1.273 . S
O206 C205 1.273 . S
O207 Zn198 1.977 . S
O207 C200 1.267 . S
C208 C209 1.170 . S
C208 C210 1.380 1_565 S
C209 C208 1.170 . S
C210 C208 1.380 1_545 S
C210 C211 1.170 . S
C211 C210 1.170 . S
C212 C213 1.170 . S
C212 C214 1.380 1_565 S
C213 C212 1.170 . S
C214 C212 1.380 1_545 S
C214 C215 1.170 . S
C215 C214 1.170 . S
C216 C217 1.170 . S
C216 C218 1.380 1_565 S
C217 C216 1.170 . S
C218 C216 1.380 1_545 S
C218 C219 1.170 . S
C219 C218 1.170 . S
C220 C221 1.170 . S
C220 C222 1.380 1_565 S
C221 C220 1.170 . S
C222 C220 1.380 1_545 S
C222 C223 1.170 . S
C223 C222 1.170 . S
C224 C225 1.170 . S
C224 C226 1.380 . S
C225 C224 1.170 . S
C226 C224 1.380 . S
C226 C227 1.170 . S
C227 C226 1.170 . S
C228 C229 1.170 . S
C228 C230 1.380 . S
C229 C228 1.170 . S
C230 C228 1.380 . S
C230 C231 1.170 . S
C231 C230 1.170 . S
C232 C233 1.170 . S
C232 C234 1.380 . S
C233 C232 1.170 . S
C234 C232 1.380 . S
C234 C235 1.170 . S
C235 C234 1.170 . S
C236 C237 1.170 . S
C236 C238 1.380 . S
C237 C236 1.170 . S
C238 C236 1.380 . S
C238 C239 1.170 . S
C239 C238 1.170 . S
C240 C241 1.170 . S
C240 C242 1.380 1_655 S
C241 C240 1.170 . S
C242 C240 1.380 1_455 S
C242 C243 1.170 . S
C243 C242 1.170 . S
C244 C245 1.170 . S
C244 C246 1.380 . S
C245 C244 1.170 . S
C246 C244 1.380 . S
C246 C247 1.170 . S
C247 C246 1.170 . S
C248 C249 1.170 . S
C248 C250 1.380 1_455 S
C249 C248 1.170 . S
C250 C248 1.380 1_655 S
C250 C251 1.170 . S
C251 C250 1.170 . S
C252 C253 1.170 . S
C252 C254 1.380 . S
C253 C252 1.170 . S
C254 C252 1.380 . S
C254 C255 1.170 . S
C255 C254 1.170 . S
C256 C257 1.170 . S
C256 C258 1.380 . S
C257 C256 1.170 . S
C258 C256 1.380 . S
C258 C259 1.170 . S
C259 C258 1.170 . S
C260 C261 1.170 . S
C260 C262 1.380 1_455 S
C261 C260 1.170 . S
C262 C260 1.380 1_655 S
C262 C263 1.170 . S
C263 C262 1.170 . S
C264 C265 1.170 . S
C264 C266 1.380 . S
C265 C264 1.170 . S
C266 C264 1.380 . S
C266 C267 1.170 . S
C267 C266 1.170 . S
C268 C269 1.170 . S
C268 C270 1.380 1_455 S
C269 C268 1.170 . S
C270 C268 1.380 1_655 S
C270 C271 1.170 . S
C271 C270 1.170 . S
C272 C273 1.170 . S
C272 C274 1.380 1_455 S
C273 C272 1.170 . S
C274 C272 1.380 1_655 S
C274 C275 1.170 . S
C275 C274 1.170 . S
C276 C277 1.170 . S
C276 C278 1.380 . S
C277 C276 1.170 . S
C278 C276 1.380 . S
C278 C279 1.170 . S
C279 C278 1.170 . S
C280 C281 1.170 . S
C280 C282 1.380 . S
C281 C280 1.170 . S
C282 C280 1.380 . S
C282 C283 1.170 . S
C283 C282 1.170 . S
C284 C285 1.170 . S
C284 C286 1.380 1_455 S
C285 C284 1.170 . S
C286 C284 1.380 1_655 S
C286 C287 1.170 . S
C287 C286 1.170 . S
C288 C289 1.170 . S
C288 C290 1.380 1_455 S
C289 C288 1.170 . S
C290 C288 1.380 1_655 S
C290 C291 1.170 . S
C291 C290 1.170 . S
C292 C293 1.170 . S
C292 C294 1.380 . S
C293 C292 1.170 . S
C294 C292 1.380 . S
C294 C295 1.170 . S
C295 C294 1.170 . S
C296 C297 1.170 . S
C296 C298 1.380 . S
C297 C296 1.170 . S
C298 C296 1.380 . S
C298 C299 1.170 . S
C299 C298 1.170 . S
C300 C301 1.170 . S
C300 C302 1.380 1_455 S
C301 C300 1.170 . S
C302 C300 1.380 1_655 S
C302 C303 1.170 . S
C303 C302 1.170 . S
C304 C305 1.170 . S
C304 C306 1.380 1_666 S
C305 C304 1.170 . S
C306 C304 1.380 1_444 S
C306 C307 1.170 . S
C307 C306 1.170 . S
C308 C309 1.170 . S
C308 C310 1.380 1_546 S
C309 C308 1.170 . S
C310 C308 1.380 1_564 S
C310 C311 1.170 . S
C311 C310 1.170 . S
C312 C313 1.170 . S
C312 C314 1.377 1_545 S
C313 C312 1.170 . S
C314 C312 1.377 1_565 S
C314 C315 1.175 . S
C315 C314 1.175 . S
C316 C317 1.170 . S
C316 C318 1.380 1_465 S
C317 C316 1.170 . S
C318 C316 1.380 1_645 S
C318 C319 1.170 . S
C319 C318 1.170 . S
C320 C321 1.170 . S
C320 C322 1.380 1_554 S
C321 C320 1.170 . S
C322 C320 1.380 1_556 S
C322 C323 1.170 . S
C323 C322 1.170 . S
C324 C325 1.170 . S
C324 C326 1.380 1_654 S
C325 C324 1.170 . S
C326 C324 1.380 1_456 S
C326 C327 1.170 . S
C327 C326 1.170 . S
C328 C329 1.170 . S
C328 C330 1.380 1_655 S
C329 C328 1.170 . S
C330 C328 1.380 1_455 S
C330 C331 1.170 . S
C331 C330 1.170 . S
C332 C333 1.170 . S
C332 C334 1.380 . S
C333 C332 1.170 . S
C334 C332 1.380 . S
C334 C335 1.170 . S
C335 C334 1.170 . S
C209 C13 1.471 . S
C211 C0 1.472 . S
C213 C26 1.455 . S
C215 C39 1.448 . S
C217 C52 1.440 . S
C219 C65 1.451 . S
C221 C91 1.459 . S
C223 C78 1.472 . S
C225 C117 1.458 . S
C227 C104 1.465 . S
C229 C143 1.469 . S
C231 C130 1.472 . S
C233 C169 1.440 . S
C235 C156 1.450 . S
C237 C195 1.465 . S
C239 C182 1.441 . S
C241 C49 1.308 . S
C243 C10 1.310 . S
C245 C23 1.308 . S
C247 C36 1.310 . S
C249 C101 1.307 . S
C251 C62 1.308 . S
C253 C88 1.314 . S
C255 C75 1.313 . S
C257 C114 1.309 . S
C259 C153 1.308 . S
C261 C140 1.310 . S
C263 C127 1.308 . S
C265 C205 1.310 . S
C267 C166 1.308 . S
C269 C179 1.308 . S
C271 C192 1.309 . S
C273 C5 1.482 . S
C275 C122 1.437 . S
C277 C18 1.466 . S
C279 C109 1.461 . S
C281 C148 1.436 . S
C283 C31 1.479 . S
C285 C135 1.437 . S
C287 C44 1.477 . S
C289 C174 1.440 . S
C291 C57 1.471 . S
C293 C161 1.438 . S
C295 C70 1.448 . S
C297 C83 1.457 . S
C299 C200 1.482 . S
C301 C96 1.444 . S
C303 C187 1.440 . S
C305 C60 1.145 . S
C307 C8 1.122 . S
C309 C73 1.123 . S
C311 C21 1.143 . S
C313 C86 1.111 . S
C315 C34 1.170 . S
C317 C99 1.163 . S
C319 C47 1.137 . S
C321 C112 1.172 . S
C323 C164 1.115 . S
C325 C125 1.146 . S
C327 C177 1.121 . S
C329 C190 1.172 . S
C331 C138 1.118 . S
C333 C203 1.172 . S
C335 C151 1.121 . S
