# Generated by pormake.
# Topology rac, (4)-cn, num edge types: 1
# Building blocks:
#     Node 0, Type 0, BuildingBlock: AZAVOO_clean_sbu_0, # of connection points: 4
#     Node 1, Type 0, BuildingBlock: AZAVOO_clean_sbu_0, # of connection points: 4
#     Node 2, Type 0, BuildingBlock: AZAVOO_clean_sbu_0, # of connection points: 4
#     Node 3, Type 0, BuildingBlock: AZAVOO_clean_sbu_0, # of connection points: 4
#     Node 4, Type 0, BuildingBlock: AZAVOO_clean_sbu_0, # of connection points: 4
#     Node 5, Type 0, BuildingBlock: AZAVOO_clean_sbu_0, # of connection points: 4
#     Node 6, Type 0, BuildingBlock: AZAVOO_clean_sbu_0, # of connection points: 4
#     Node 7, Type 0, BuildingBlock: AZAVOO_clean_sbu_0, # of connection points: 4
#     Edge 8, Type (0, 0), BuildingBlock: CIFDUS_clean_linker_0, # of connection points: 2
#     Edge 9, Type (0, 0), BuildingBlock: CIFDUS_clean_linker_0, # of connection points: 2
#     Edge 10, Type (0, 0), BuildingBlock: CIFDUS_clean_linker_0, # of connection points: 2
#     Edge 11, Type (0, 0), BuildingBlock: CIFDUS_clean_linker_0, # of connection points: 2
#     Edge 12, Type (0, 0), BuildingBlock: CIFDUS_clean_linker_0, # of connection points: 2
#     Edge 13, Type (0, 0), BuildingBlock: CIFDUS_clean_linker_0, # of connection points: 2
#     Edge 14, Type (0, 0), BuildingBlock: CIFDUS_clean_linker_0, # of connection points: 2
#     Edge 15, Type (0, 0), BuildingBlock: CIFDUS_clean_linker_0, # of connection points: 2
#     Edge 16, Type (0, 0), BuildingBlock: CIFDUS_clean_linker_0, # of connection points: 2
#     Edge 17, Type (0, 0), BuildingBlock: CIFDUS_clean_linker_0, # of connection points: 2
#     Edge 18, Type (0, 0), BuildingBlock: CIFDUS_clean_linker_0, # of connection points: 2
#     Edge 19, Type (0, 0), BuildingBlock: CIFDUS_clean_linker_0, # of connection points: 2
#     Edge 20, Type (0, 0), BuildingBlock: CIFDUS_clean_linker_0, # of connection points: 2
#     Edge 21, Type (0, 0), BuildingBlock: CIFDUS_clean_linker_0, # of connection points: 2
#     Edge 22, Type (0, 0), BuildingBlock: CIFDUS_clean_linker_0, # of connection points: 2
#     Edge 23, Type (0, 0), BuildingBlock: CIFDUS_clean_linker_0, # of connection points: 2
# Relax obj value: 0.234
# Max RMSD: 0.130
# Mean RMSD: 0.130
data_MOF--net-rac--node1-AZAVOO_clean_sbu_0--edge1-CIFDUS_clean_linker_0
_symmetry_space_group_name_H-M    P1
_symmetry_Int_Tables_number       1
_symmetry_cell_setting            triclinic
loop_
_symmetry_equiv_pos_as_xyz
'x, y, z'
_cell_length_a     34.112366
_cell_length_b     17.14412
_cell_length_c     40.394199
_cell_angle_alpha  90.061692
_cell_angle_beta   89.936747
_cell_angle_gamma 90.200559
loop_
_atom_site_label
_atom_site_type_symbol
_atom_site_fract_x
_atom_site_fract_y
_atom_site_fract_z
_atom_type_partial_charge
Mg0 Mg 0.38751 0.21368 0.07259 0.0
O1 O 0.34223 0.31232 0.07396 0.0
O2 O 0.289 0.26957 0.1009 0.0
Mg3 Mg 0.30045 0.14314 0.11682 0.0
C4 C 0.30779 0.32298 0.08549 0.0
C5 C 0.4282 0.34345 0.031 0.0
O6 O 0.39528 0.33631 0.01439 0.0
O7 O 0.40037 0.24112 0.12681 0.0
O8 O 0.34784 0.18965 0.1522 0.0
O9 O 0.36091 0.16402 0.02584 0.0
O10 O 0.34314 0.13211 0.0767 0.0
C11 C 0.38115 0.22388 0.15294 0.0
C12 C 0.33745 0.12647 0.04538 0.0
O13 O 0.43397 0.30022 0.05602 0.0
Mg14 Mg 0.09499 0.80834 0.08422 0.0
O15 O 0.14397 0.71879 0.08232 0.0
O16 O 0.19788 0.76493 0.10681 0.0
Mg17 Mg 0.18161 0.88749 0.12604 0.0
C18 C 0.17945 0.71087 0.0915 0.0
C19 C 0.05995 0.67552 0.04085 0.0
O20 O 0.09202 0.69103 0.02402 0.0
O21 O 0.08556 0.77462 0.13843 0.0
O22 O 0.13797 0.83076 0.16223 0.0
O23 O 0.11819 0.86618 0.03794 0.0
O24 O 0.13494 0.8985 0.08905 0.0
C25 C 0.10587 0.79232 0.16394 0.0
C26 C 0.13908 0.90857 0.05779 0.0
O27 O 0.05254 0.71459 0.06685 0.0
Mg28 Mg 0.3955 0.292 0.42304 0.0
O29 O 0.34264 0.21059 0.41653 0.0
O30 O 0.293 0.27848 0.39496 0.0
Mg31 Mg 0.3163 0.40182 0.38431 0.0
C32 C 0.3073 0.21517 0.40637 0.0
C33 C 0.42575 0.14503 0.45929 0.0
O34 O 0.3947 0.16063 0.47735 0.0
O35 O 0.4075 0.2788 0.36794 0.0
O36 O 0.35902 0.34971 0.34605 0.0
O37 O 0.37106 0.32815 0.47194 0.0
O38 O 0.35884 0.388 0.42449 0.0
C39 C 0.38954 0.30722 0.34305 0.0
C40 C 0.35154 0.37981 0.45554 0.0
O41 O 0.43368 0.188 0.43457 0.0
Mg42 Mg 0.11667 0.72079 0.43361 0.0
O43 O 0.16858 0.80209 0.42301 0.0
O44 O 0.2156 0.73425 0.39741 0.0
Mg45 Mg 0.19112 0.611 0.38842 0.0
C46 C 0.20265 0.79751 0.41004 0.0
C47 C 0.06099 0.81625 0.47593 0.0
O48 O 0.0618 0.74855 0.49113 0.0
O49 O 0.09835 0.73445 0.37968 0.0
O50 O 0.1442 0.66325 0.35406 0.0
O51 O 0.14647 0.68447 0.48013 0.0
O52 O 0.1532 0.62446 0.43185 0.0
C53 C 0.11348 0.70571 0.35345 0.0
C54 C 0.16394 0.6326 0.46218 0.0
O55 O 0.08069 0.8248 0.44948 0.0
Mg56 Mg 0.60927 0.80579 0.91738 0.0
O57 O 0.65511 0.70906 0.92436 0.0
O58 O 0.7138 0.74998 0.90678 0.0
Mg59 Mg 0.70398 0.87031 0.88395 0.0
C60 C 0.69169 0.69792 0.91965 0.0
C61 C 0.56531 0.6797 0.95761 0.0
O62 O 0.59644 0.69103 0.97616 0.0
O63 O 0.60573 0.76993 0.863 0.0
O64 O 0.66536 0.80753 0.84574 0.0
O65 O 0.62749 0.86291 0.96527 0.0
O66 O 0.65326 0.88881 0.91617 0.0
C67 C 0.632 0.7757 0.84059 0.0
C68 C 0.65337 0.89937 0.94763 0.0
O69 O 0.56139 0.71942 0.9313 0.0
Mg70 Mg 0.89725 0.20029 0.91768 0.0
O71 O 0.85002 0.29361 0.92326 0.0
O72 O 0.79316 0.25143 0.90248 0.0
Mg73 Mg 0.80537 0.12941 0.88122 0.0
C74 C 0.81383 0.30383 0.91675 0.0
C75 C 0.937 0.32735 0.95986 0.0
O76 O 0.90578 0.31071 0.97761 0.0
O77 O 0.90254 0.23473 0.86317 0.0
O78 O 0.84634 0.18617 0.8428 0.0
O79 O 0.87767 0.1435 0.96515 0.0
O80 O 0.85462 0.11433 0.91543 0.0
C81 C 0.87916 0.22124 0.83913 0.0
C82 C 0.85322 0.10483 0.94693 0.0
O83 O 0.9428 0.29043 0.93301 0.0
Mg84 Mg 0.59709 0.67424 0.57284 0.0
O85 O 0.64286 0.77239 0.57521 0.0
O86 O 0.70027 0.725 0.59226 0.0
Mg87 Mg 0.68951 0.59593 0.60453 0.0
C88 C 0.67902 0.78153 0.58234 0.0
C89 C 0.55577 0.80621 0.537 0.0
O90 O 0.58725 0.79424 0.51897 0.0
O91 O 0.5897 0.68545 0.62903 0.0
O92 O 0.64693 0.6349 0.64512 0.0
O93 O 0.61939 0.64115 0.5223 0.0
O94 O 0.64096 0.59124 0.5693 0.0
C95 C 0.61362 0.66508 0.65176 0.0
C96 C 0.64394 0.59697 0.53773 0.0
O97 O 0.55042 0.76511 0.56277 0.0
Mg98 Mg 0.88371 0.2855 0.56746 0.0
O99 O 0.83838 0.18763 0.57214 0.0
O100 O 0.78336 0.23421 0.59457 0.0
Mg101 Mg 0.79543 0.36338 0.60654 0.0
C102 C 0.80324 0.17821 0.58224 0.0
C103 C 0.94999 0.20561 0.52852 0.0
O104 O 0.94672 0.27139 0.51211 0.0
O105 O 0.89614 0.27249 0.62277 0.0
O106 O 0.84203 0.32585 0.64447 0.0
O107 O 0.85725 0.31863 0.51881 0.0
O108 O 0.83974 0.36849 0.5672 0.0
C109 C 0.87568 0.29414 0.64764 0.0
C110 C 0.83401 0.36259 0.53585 0.0
O111 O 0.92879 0.19464 0.55396 0.0
H112 H 0.26365 0.17217 0.05473 0.0
H113 H 0.33288 0.98987 0.011 0.0
H114 H 0.27408 0.90773 0.00517 0.0
H115 H 0.20521 0.88066 0.02203 0.0
H116 H 0.13874 0.06187 0.06991 0.0
H117 H 0.19372 0.1524 0.06426 0.0
C118 C 0.26552 0.11527 0.04312 0.0
C119 C 0.30212 0.08659 0.03335 0.0
C120 C 0.23204 0.06816 0.04092 0.0
C121 C 0.30467 0.01298 0.01836 0.0
C122 C 0.27116 0.96591 0.01536 0.0
C123 C 0.20255 0.94083 0.03004 0.0
C124 C 0.16819 0.96534 0.04611 0.0
C125 C 0.23496 0.99172 0.02784 0.0
C126 C 0.16501 0.04252 0.05725 0.0
C127 C 0.19646 0.09399 0.05423 0.0
H128 H 0.17834 0.48048 0.47312 0.0
H129 H 0.23216 0.70804 0.47267 0.0
H130 H 0.29732 0.6489 0.47498 0.0
H131 H 0.33832 0.53175 0.46786 0.0
H132 H 0.28467 0.30418 0.47094 0.0
H133 H 0.21989 0.36332 0.47755 0.0
C134 C 0.20442 0.51672 0.47472 0.0
C135 C 0.20096 0.59797 0.47277 0.0
C136 C 0.2416 0.48224 0.47623 0.0
C137 C 0.23453 0.64517 0.4745 0.0
C138 C 0.27168 0.61141 0.47553 0.0
C139 C 0.31249 0.4955 0.47122 0.0
C140 C 0.31578 0.41425 0.46903 0.0
C141 C 0.27555 0.52998 0.47513 0.0
C142 C 0.28246 0.36705 0.47298 0.0
C143 C 0.2455 0.40082 0.47643 0.0
H144 H 0.72584 0.84955 0.96163 0.0
H145 H 0.652 0.05249 0.96334 0.0
H146 H 0.70958 0.13692 0.96995 0.0
H147 H 0.78111 0.153 0.96395 0.0
H148 H 0.8547 0.94999 0.95825 0.0
H149 H 0.79743 0.86492 0.96508 0.0
C150 C 0.72249 0.91202 0.96481 0.0
C151 C 0.68512 0.94527 0.96238 0.0
C152 C 0.75578 0.95993 0.96741 0.0
C153 C 0.68067 0.02612 0.96574 0.0
C154 C 0.71358 0.07426 0.96912 0.0
C155 C 0.78453 0.09021 0.96559 0.0
C156 C 0.82171 0.0572 0.96104 0.0
C157 C 0.75134 0.04199 0.96842 0.0
C158 C 0.82619 0.97605 0.96225 0.0
C159 C 0.79346 0.92761 0.96583 0.0
H160 H 0.65904 0.44745 0.52306 0.0
H161 H 0.70819 0.67889 0.5201 0.0
H162 H 0.77407 0.62479 0.51343 0.0
H163 H 0.81772 0.51139 0.52017 0.0
H164 H 0.76843 0.28001 0.52326 0.0
H165 H 0.70234 0.3335 0.51749 0.0
C166 C 0.68409 0.48567 0.5194 0.0
C167 C 0.67921 0.56659 0.52179 0.0
C168 C 0.72175 0.45398 0.51614 0.0
C169 C 0.71158 0.6163 0.51776 0.0
C170 C 0.74919 0.58534 0.51438 0.0
C171 C 0.7925 0.47293 0.51819 0.0
C172 C 0.79743 0.39232 0.52199 0.0
C173 C 0.75473 0.5043 0.51521 0.0
C174 C 0.76494 0.34233 0.51998 0.0
C175 C 0.72724 0.37294 0.51699 0.0
H176 H 0.4002 0.1379 0.20645 0.0
H177 H 0.39029 0.37411 0.17136 0.0
H178 H 0.39627 0.42333 0.2281 0.0
H179 H 0.39448 0.39683 0.28809 0.0
H180 H 0.40817 0.16107 0.32304 0.0
H181 H 0.41138 0.11358 0.26595 0.0
C182 C 0.40059 0.20016 0.2113 0.0
C183 C 0.39477 0.2526 0.18515 0.0
C184 C 0.40433 0.2278 0.24388 0.0
C185 C 0.39511 0.33309 0.19133 0.0
C186 C 0.39818 0.36108 0.22372 0.0
C187 C 0.39918 0.33538 0.28308 0.0
C188 C 0.40068 0.28227 0.30948 0.0
C189 C 0.40135 0.30875 0.25026 0.0
C190 C 0.40708 0.20287 0.30296 0.0
C191 C 0.40859 0.17568 0.27037 0.0
H192 H 0.10535 0.61629 0.29859 0.0
H193 H 0.08992 0.85043 0.33524 0.0
H194 H 0.0811 0.89811 0.27868 0.0
H195 H 0.08839 0.87546 0.21862 0.0
H196 H 0.10068 0.64085 0.18195 0.0
H197 H 0.09955 0.59038 0.2387 0.0
C198 C 0.09903 0.67736 0.29414 0.0
C199 C 0.09872 0.73006 0.32081 0.0
C200 C 0.09378 0.70414 0.26162 0.0
C201 C 0.09017 0.8089 0.315 0.0
C202 C 0.08546 0.83624 0.28267 0.0
C203 C 0.08956 0.81315 0.22318 0.0
C204 C 0.0947 0.76165 0.19652 0.0
C205 C 0.08872 0.78483 0.25577 0.0
C206 C 0.09636 0.68112 0.20232 0.0
C207 C 0.09608 0.65247 0.2347 0.0
H208 H 0.57759 0.80673 0.79289 0.0
H209 H 0.67512 0.65827 0.81715 0.0
H210 H 0.67421 0.6027 0.76153 0.0
H211 H 0.65098 0.60685 0.70497 0.0
H212 H 0.55673 0.76129 0.67781 0.0
H213 H 0.55043 0.80306 0.73565 0.0
C214 C 0.59798 0.76114 0.78595 0.0
C215 C 0.62643 0.73629 0.80872 0.0
C216 C 0.59809 0.73119 0.75346 0.0
C217 C 0.65312 0.678 0.79974 0.0
C218 C 0.65265 0.64644 0.76802 0.0
C219 C 0.62873 0.64917 0.71161 0.0
C220 C 0.60479 0.68176 0.68698 0.0
C221 C 0.62609 0.67429 0.74446 0.0
C222 C 0.57569 0.73547 0.69625 0.0
C223 C 0.57223 0.7597 0.7293 0.0
H224 H 0.86802 0.38481 0.70188 0.0
H225 H 0.91241 0.16269 0.66909 0.0
H226 H 0.92204 0.12241 0.72669 0.0
H227 H 0.90897 0.14455 0.78632 0.0
H228 H 0.86612 0.36802 0.81865 0.0
H229 H 0.86518 0.41451 0.76135 0.0
C230 C 0.88057 0.32824 0.70742 0.0
C231 C 0.8891 0.27635 0.68148 0.0
C232 C 0.88607 0.30579 0.74047 0.0
C233 C 0.90573 0.20356 0.68876 0.0
C234 C 0.91095 0.18037 0.72166 0.0
C235 C 0.9006 0.20408 0.7807 0.0
C236 C 0.88778 0.25326 0.80629 0.0
C237 C 0.90002 0.23008 0.74771 0.0
C238 C 0.87647 0.32988 0.79911 0.0
C239 C 0.87564 0.35611 0.76642 0.0
H240 H 0.4251 0.44387 0.97898 0.0
H241 H 0.49798 0.37527 0.06124 0.0
H242 H 0.54655 0.47342 0.04583 0.0
H243 H 0.56829 0.57885 0.00927 0.0
H244 H 0.49581 0.64731 0.92678 0.0
H245 H 0.44712 0.54901 0.94211 0.0
C246 C 0.45162 0.45028 0.99353 0.0
C247 C 0.45784 0.40225 0.02122 0.0
C248 C 0.47949 0.50688 0.98455 0.0
C249 C 0.49241 0.41139 0.03978 0.0
C250 C 0.52023 0.46758 0.03102 0.0
C251 C 0.54183 0.57245 0.99465 0.0
C252 C 0.53569 0.62052 0.96697 0.0
C253 C 0.51403 0.5157 0.00351 0.0
C254 C 0.50128 0.61112 0.94823 0.0
C255 C 0.47341 0.5549 0.95696 0.0
H256 H 0.06762 0.58109 0.98707 0.0
H257 H 0.99172 0.62878 0.07026 0.0
H258 H 0.94736 0.52496 0.05262 0.0
H259 H 0.92998 0.42107 0.01367 0.0
H260 H 0.00548 0.37326 0.93028 0.0
H261 H 0.05016 0.47679 0.94801 0.0
C262 C 0.04137 0.56886 0.00135 0.0
C263 C 0.03303 0.61276 0.02993 0.0
C264 C 0.01593 0.50903 0.99108 0.0
C265 C -0.00112 0.596 0.04814 0.0
C266 C 0.97347 0.53658 0.03809 0.0
C267 C 0.95624 0.43309 -0.00063 0.0
C268 C 0.96437 0.38937 0.97071 0.0
C269 C 0.98171 0.49277 0.00962 0.0
C270 C -0.00151 0.40599 0.95245 0.0
C271 C 0.02407 0.46521 0.96256 0.0
H272 H 0.558 0.89583 0.48196 0.0
H273 H 0.48893 0.85044 0.56952 0.0
H274 H 0.44183 0.94987 0.55262 0.0
H275 H 0.42101 0.05105 0.51339 0.0
H276 H 0.49074 0.09582 0.42608 0.0
H277 H 0.53677 0.99465 0.44249 0.0
C278 C 0.53266 0.90756 0.4974 0.0
C279 C 0.52705 0.86594 0.52699 0.0
C280 C 0.50579 0.96454 0.48756 0.0
C281 C 0.49396 0.88175 0.54662 0.0
C282 C 0.46702 0.93855 0.53698 0.0
C283 C 0.44617 0.03845 0.49787 0.0
C284 C 0.45246 0.08111 0.4686 0.0
C285 C 0.47271 0.98044 0.50753 0.0
C286 C 0.48523 0.06403 0.44878 0.0
C287 C 0.51162 0.00623 0.45814 0.0
H288 H 0.95586 0.05827 0.55238 0.0
H289 H 0.00038 0.21063 0.47592 0.0
H290 H 0.03877 0.10349 0.4529 0.0
H291 H 0.05834 0.96585 0.45369 0.0
H292 H 0.01318 0.81379 0.53002 0.0
H293 H 0.97622 0.92174 0.55376 0.0
C294 C 0.97415 0.0683 0.5308 0.0
C295 C 0.97521 0.14233 0.51588 0.0
C296 C 0.99581 0.00641 0.51752 0.0
C297 C -0.00101 0.15418 0.48788 0.0
C298 C 0.02089 0.09292 0.47464 0.0
C299 C 0.04038 0.95628 0.4755 0.0
C300 C 0.03843 0.8818 0.48998 0.0
C301 C 0.01924 0.01863 0.48909 0.0
C302 C 0.01517 0.87049 0.51833 0.0
C303 C 0.99404 0.9322 0.53197 0.0
H304 H 0.25768 0.67724 0.08799 0.0
H305 H 0.14284 0.57096 0.08439 0.0
H306 H 0.17227 0.44196 0.08124 0.0
H307 H 0.23046 0.35834 0.08248 0.0
H308 H 0.34553 0.46331 0.08269 0.0
H309 H 0.31629 0.59338 0.08389 0.0
C310 C 0.23918 0.62582 0.08632 0.0
C311 C 0.19816 0.63381 0.08675 0.0
C312 C 0.25631 0.55142 0.08397 0.0
C313 C 0.17452 0.56664 0.0841 0.0
C314 C 0.1913 0.49266 0.08241 0.0
C315 C 0.24909 0.40976 0.08259 0.0
C316 C 0.29003 0.40129 0.08285 0.0
C317 C 0.23212 0.48426 0.08279 0.0
C318 C 0.31388 0.46835 0.08246 0.0
C319 C 0.29719 0.54274 0.0833 0.0
H320 H 0.33093 0.06402 0.40678 0.0
H321 H 0.22739 0.2079 0.40878 0.0
H322 H 0.18598 0.09135 0.41099 0.0
H323 H 0.17916 0.94862 0.41191 0.0
H324 H 0.28253 0.80469 0.40688 0.0
H325 H 0.32405 0.92125 0.40629 0.0
C326 C 0.2993 0.06987 0.40782 0.0
C327 C 0.28227 0.14453 0.40771 0.0
C328 C 0.27566 0.00263 0.40847 0.0
C329 C 0.24123 0.15111 0.40868 0.0
C330 C 0.21753 0.08451 0.41003 0.0
C331 C 0.21079 0.94277 0.4108 0.0
C332 C 0.22775 0.8681 0.40955 0.0
C333 C 0.23443 0.01 0.40987 0.0
C334 C 0.26875 0.86149 0.40771 0.0
C335 C 0.2925 0.9281 0.40746 0.0
H336 H 0.76827 0.65855 0.92777 0.0
H337 H 0.65173 0.56007 0.92438 0.0
H338 H 0.67905 0.42868 0.92514 0.0
H339 H 0.73633 0.34182 0.92148 0.0
H340 H 0.8527 0.44094 0.92666 0.0
H341 H 0.82513 0.5715 0.9307 0.0
C342 C 0.74883 0.60834 0.92761 0.0
C343 C 0.70807 0.61924 0.92558 0.0
C344 C 0.76471 0.53285 0.92808 0.0
C345 C 0.68325 0.5535 0.92589 0.0
C346 C 0.69885 0.47821 0.92612 0.0
C347 C 0.75562 0.39195 0.9238 0.0
C348 C 0.79651 0.38152 0.92328 0.0
C349 C 0.73957 0.46719 0.92635 0.0
C350 C 0.8211 0.44708 0.92686 0.0
C351 C 0.80538 0.52197 0.92906 0.0
H352 H 0.75635 0.82143 0.57949 0.0
H353 H 0.6402 0.9205 0.58089 0.0
H354 H 0.66815 0.05173 0.58094 0.0
H355 H 0.72569 0.13882 0.58214 0.0
H356 H 0.8417 0.03947 0.57835 0.0
H357 H 0.8137 0.90838 0.57762 0.0
C358 C 0.73715 0.87172 0.57975 0.0
C359 C 0.69625 0.86096 0.58044 0.0
C360 C 0.75339 0.94719 0.57942 0.0
C361 C 0.6718 0.92691 0.58034 0.0
C362 C 0.68775 0.00211 0.58048 0.0
C363 C 0.74481 0.08846 0.58116 0.0
C364 C 0.78572 0.09906 0.58054 0.0
C365 C 0.72851 0.013 0.5803 0.0
C366 C 0.8101 0.03313 0.5788 0.0
C367 C 0.79412 0.95801 0.57847 0.0
loop_
_geom_bond_atom_site_label_1
_geom_bond_atom_site_label_2
_geom_bond_distance
_geom_bond_site_symmetry_2
_ccdc_geom_bond_type
Mg0 O1 2.028 . S
Mg0 O7 1.986 . S
Mg0 O9 2.114 . S
Mg0 O10 2.251 . S
Mg0 O13 2.010 . S
O1 Mg0 2.028 . S
O1 C4 1.250 . S
O2 Mg3 2.028 . S
O2 C4 1.248 . S
Mg3 O2 2.028 . S
Mg3 O8 2.032 . S
Mg3 O10 2.079 . S
C4 O1 1.250 . S
C4 O2 1.248 . S
C5 O6 1.264 . S
C5 O13 1.249 . S
O6 C5 1.264 . S
O7 Mg0 1.986 . S
O7 C11 1.246 . S
O8 Mg3 2.032 . S
O8 C11 1.259 . S
O9 Mg0 2.114 . S
O9 C12 1.252 . S
O10 Mg0 2.251 . S
O10 Mg3 2.079 . S
O10 C12 1.273 . S
C11 O7 1.246 . S
C11 O8 1.259 . S
C12 O9 1.252 . S
C12 O10 1.273 . S
O13 Mg0 2.010 . S
O13 C5 1.249 . S
Mg14 O15 2.028 . S
Mg14 O21 1.986 . S
Mg14 O23 2.114 . S
Mg14 O24 2.251 . S
Mg14 O27 2.010 . S
O15 Mg14 2.028 . S
O15 C18 1.250 . S
O16 Mg17 2.028 . S
O16 C18 1.248 . S
Mg17 O16 2.028 . S
Mg17 O22 2.032 . S
Mg17 O24 2.079 . S
C18 O15 1.250 . S
C18 O16 1.248 . S
C19 O20 1.264 . S
C19 O27 1.249 . S
O20 C19 1.264 . S
O21 Mg14 1.986 . S
O21 C25 1.246 . S
O22 Mg17 2.032 . S
O22 C25 1.259 . S
O23 Mg14 2.114 . S
O23 C26 1.252 . S
O24 Mg14 2.251 . S
O24 Mg17 2.079 . S
O24 C26 1.273 . S
C25 O21 1.246 . S
C25 O22 1.259 . S
C26 O23 1.252 . S
C26 O24 1.273 . S
O27 Mg14 2.010 . S
O27 C19 1.249 . S
Mg28 O29 2.028 . S
Mg28 O35 1.986 . S
Mg28 O37 2.114 . S
Mg28 O38 2.251 . S
Mg28 O41 2.010 . S
O29 Mg28 2.028 . S
O29 C32 1.250 . S
O30 Mg31 2.028 . S
O30 C32 1.248 . S
Mg31 O30 2.028 . S
Mg31 O36 2.032 . S
Mg31 O38 2.079 . S
C32 O29 1.250 . S
C32 O30 1.248 . S
C33 O34 1.264 . S
C33 O41 1.249 . S
O34 C33 1.264 . S
O35 Mg28 1.986 . S
O35 C39 1.246 . S
O36 Mg31 2.032 . S
O36 C39 1.259 . S
O37 Mg28 2.114 . S
O37 C40 1.252 . S
O38 Mg28 2.251 . S
O38 Mg31 2.079 . S
O38 C40 1.273 . S
C39 O35 1.246 . S
C39 O36 1.259 . S
C40 O37 1.252 . S
C40 O38 1.273 . S
O41 Mg28 2.010 . S
O41 C33 1.249 . S
Mg42 O43 2.028 . S
Mg42 O49 1.986 . S
Mg42 O51 2.114 . S
Mg42 O52 2.251 . S
Mg42 O55 2.010 . S
O43 Mg42 2.028 . S
O43 C46 1.250 . S
O44 Mg45 2.028 . S
O44 C46 1.248 . S
Mg45 O44 2.028 . S
Mg45 O50 2.032 . S
Mg45 O52 2.079 . S
C46 O43 1.250 . S
C46 O44 1.248 . S
C47 O48 1.264 . S
C47 O55 1.249 . S
O48 C47 1.264 . S
O49 Mg42 1.986 . S
O49 C53 1.246 . S
O50 Mg45 2.032 . S
O50 C53 1.259 . S
O51 Mg42 2.114 . S
O51 C54 1.252 . S
O52 Mg42 2.251 . S
O52 Mg45 2.079 . S
O52 C54 1.273 . S
C53 O49 1.246 . S
C53 O50 1.259 . S
C54 O51 1.252 . S
C54 O52 1.273 . S
O55 Mg42 2.010 . S
O55 C47 1.249 . S
Mg56 O57 2.028 . S
Mg56 O63 1.986 . S
Mg56 O65 2.114 . S
Mg56 O66 2.251 . S
Mg56 O69 2.010 . S
O57 Mg56 2.028 . S
O57 C60 1.250 . S
O58 Mg59 2.028 . S
O58 C60 1.248 . S
Mg59 O58 2.028 . S
Mg59 O64 2.032 . S
Mg59 O66 2.079 . S
C60 O57 1.250 . S
C60 O58 1.248 . S
C61 O62 1.264 . S
C61 O69 1.249 . S
O62 C61 1.264 . S
O63 Mg56 1.986 . S
O63 C67 1.246 . S
O64 Mg59 2.032 . S
O64 C67 1.259 . S
O65 Mg56 2.114 . S
O65 C68 1.252 . S
O66 Mg56 2.251 . S
O66 Mg59 2.079 . S
O66 C68 1.273 . S
C67 O63 1.246 . S
C67 O64 1.259 . S
C68 O65 1.252 . S
C68 O66 1.273 . S
O69 Mg56 2.010 . S
O69 C61 1.249 . S
Mg70 O71 2.028 . S
Mg70 O77 1.986 . S
Mg70 O79 2.114 . S
Mg70 O80 2.251 . S
Mg70 O83 2.010 . S
O71 Mg70 2.028 . S
O71 C74 1.250 . S
O72 Mg73 2.028 . S
O72 C74 1.248 . S
Mg73 O72 2.028 . S
Mg73 O78 2.032 . S
Mg73 O80 2.079 . S
C74 O71 1.250 . S
C74 O72 1.248 . S
C75 O76 1.264 . S
C75 O83 1.249 . S
O76 C75 1.264 . S
O77 Mg70 1.986 . S
O77 C81 1.246 . S
O78 Mg73 2.032 . S
O78 C81 1.259 . S
O79 Mg70 2.114 . S
O79 C82 1.252 . S
O80 Mg70 2.251 . S
O80 Mg73 2.079 . S
O80 C82 1.273 . S
C81 O77 1.246 . S
C81 O78 1.259 . S
C82 O79 1.252 . S
C82 O80 1.273 . S
O83 Mg70 2.010 . S
O83 C75 1.249 . S
Mg84 O85 2.028 . S
Mg84 O91 1.986 . S
Mg84 O93 2.114 . S
Mg84 O94 2.251 . S
Mg84 O97 2.010 . S
O85 Mg84 2.028 . S
O85 C88 1.250 . S
O86 Mg87 2.028 . S
O86 C88 1.248 . S
Mg87 O86 2.028 . S
Mg87 O92 2.032 . S
Mg87 O94 2.079 . S
C88 O85 1.250 . S
C88 O86 1.248 . S
C89 O90 1.264 . S
C89 O97 1.249 . S
O90 C89 1.264 . S
O91 Mg84 1.986 . S
O91 C95 1.246 . S
O92 Mg87 2.032 . S
O92 C95 1.259 . S
O93 Mg84 2.114 . S
O93 C96 1.252 . S
O94 Mg84 2.251 . S
O94 Mg87 2.079 . S
O94 C96 1.273 . S
C95 O91 1.246 . S
C95 O92 1.259 . S
C96 O93 1.252 . S
C96 O94 1.273 . S
O97 Mg84 2.010 . S
O97 C89 1.249 . S
Mg98 O99 2.028 . S
Mg98 O105 1.986 . S
Mg98 O107 2.114 . S
Mg98 O108 2.251 . S
Mg98 O111 2.010 . S
O99 Mg98 2.028 . S
O99 C102 1.250 . S
O100 Mg101 2.028 . S
O100 C102 1.248 . S
Mg101 O100 2.028 . S
Mg101 O106 2.032 . S
Mg101 O108 2.079 . S
C102 O99 1.250 . S
C102 O100 1.248 . S
C103 O104 1.264 . S
C103 O111 1.249 . S
O104 C103 1.264 . S
O105 Mg98 1.986 . S
O105 C109 1.246 . S
O106 Mg101 2.032 . S
O106 C109 1.259 . S
O107 Mg98 2.114 . S
O107 C110 1.252 . S
O108 Mg98 2.251 . S
O108 Mg101 2.079 . S
O108 C110 1.273 . S
C109 O105 1.246 . S
C109 O106 1.259 . S
C110 O107 1.252 . S
C110 O108 1.273 . S
O111 Mg98 2.010 . S
O111 C103 1.249 . S
H112 C118 0.930 . S
H113 C121 0.930 . S
H114 C122 0.930 . S
H115 C123 0.930 . S
H116 C126 0.930 . S
H117 C127 0.930 . S
C118 H112 0.930 . S
C118 C119 1.355 . S
C118 C120 1.415 . S
C119 C118 1.355 . S
C119 C121 1.419 1_545 S
C120 C118 1.415 . S
C120 C125 1.425 1_545 S
C120 C127 1.409 . S
C121 H113 0.930 . S
C121 C119 1.419 1_565 S
C121 C122 1.362 . S
C122 H114 0.930 . S
C122 C121 1.362 . S
C122 C125 1.409 . S
C123 H115 0.930 . S
C123 C124 1.355 . S
C123 C125 1.415 . S
C124 C123 1.355 . S
C124 C126 1.419 1_565 S
C125 C120 1.425 1_565 S
C125 C122 1.409 . S
C125 C123 1.415 . S
C126 H116 0.930 . S
C126 C124 1.419 1_545 S
C126 C127 1.362 . S
C127 H117 0.930 . S
C127 C120 1.409 . S
C127 C126 1.362 . S
H128 C134 0.930 . S
H129 C137 0.930 . S
H130 C138 0.930 . S
H131 C139 0.930 . S
H132 C142 0.930 . S
H133 C143 0.930 . S
C134 H128 0.930 . S
C134 C135 1.355 . S
C134 C136 1.415 . S
C135 C134 1.355 . S
C135 C137 1.419 . S
C136 C134 1.415 . S
C136 C141 1.425 . S
C136 C143 1.409 . S
C137 H129 0.930 . S
C137 C135 1.419 . S
C137 C138 1.362 . S
C138 H130 0.930 . S
C138 C137 1.362 . S
C138 C141 1.409 . S
C139 H131 0.930 . S
C139 C140 1.355 . S
C139 C141 1.415 . S
C140 C139 1.355 . S
C140 C142 1.419 . S
C141 C136 1.425 . S
C141 C138 1.409 . S
C141 C139 1.415 . S
C142 H132 0.930 . S
C142 C140 1.419 . S
C142 C143 1.362 . S
C143 H133 0.930 . S
C143 C136 1.409 . S
C143 C142 1.362 . S
H144 C150 0.930 . S
H145 C153 0.930 . S
H146 C154 0.930 . S
H147 C155 0.930 . S
H148 C158 0.930 . S
H149 C159 0.930 . S
C150 H144 0.930 . S
C150 C151 1.355 . S
C150 C152 1.415 . S
C151 C150 1.355 . S
C151 C153 1.419 1_565 S
C152 C150 1.415 . S
C152 C157 1.425 1_565 S
C152 C159 1.409 . S
C153 H145 0.930 . S
C153 C151 1.419 1_545 S
C153 C154 1.362 . S
C154 H146 0.930 . S
C154 C153 1.362 . S
C154 C157 1.409 . S
C155 H147 0.930 . S
C155 C156 1.355 . S
C155 C157 1.415 . S
C156 C155 1.355 . S
C156 C158 1.419 1_545 S
C157 C152 1.425 1_545 S
C157 C154 1.409 . S
C157 C155 1.415 . S
C158 H148 0.930 . S
C158 C156 1.419 1_565 S
C158 C159 1.362 . S
C159 H149 0.930 . S
C159 C152 1.409 . S
C159 C158 1.362 . S
H160 C166 0.930 . S
H161 C169 0.930 . S
H162 C170 0.930 . S
H163 C171 0.930 . S
H164 C174 0.930 . S
H165 C175 0.930 . S
C166 H160 0.930 . S
C166 C167 1.355 . S
C166 C168 1.415 . S
C167 C166 1.355 . S
C167 C169 1.419 . S
C168 C166 1.415 . S
C168 C173 1.425 . S
C168 C175 1.409 . S
C169 H161 0.930 . S
C169 C167 1.419 . S
C169 C170 1.362 . S
C170 H162 0.930 . S
C170 C169 1.362 . S
C170 C173 1.409 . S
C171 H163 0.930 . S
C171 C172 1.355 . S
C171 C173 1.415 . S
C172 C171 1.355 . S
C172 C174 1.419 . S
C173 C168 1.425 . S
C173 C170 1.409 . S
C173 C171 1.415 . S
C174 H164 0.930 . S
C174 C172 1.419 . S
C174 C175 1.362 . S
C175 H165 0.930 . S
C175 C168 1.409 . S
C175 C174 1.362 . S
H176 C182 0.930 . S
H177 C185 0.930 . S
H178 C186 0.930 . S
H179 C187 0.930 . S
H180 C190 0.930 . S
H181 C191 0.930 . S
C182 H176 0.930 . S
C182 C183 1.355 . S
C182 C184 1.415 . S
C183 C182 1.355 . S
C183 C185 1.419 . S
C184 C182 1.415 . S
C184 C189 1.425 . S
C184 C191 1.409 . S
C185 H177 0.930 . S
C185 C183 1.419 . S
C185 C186 1.362 . S
C186 H178 0.930 . S
C186 C185 1.362 . S
C186 C189 1.409 . S
C187 H179 0.930 . S
C187 C188 1.355 . S
C187 C189 1.415 . S
C188 C187 1.355 . S
C188 C190 1.419 . S
C189 C184 1.425 . S
C189 C186 1.409 . S
C189 C187 1.415 . S
C190 H180 0.930 . S
C190 C188 1.419 . S
C190 C191 1.362 . S
C191 H181 0.930 . S
C191 C184 1.409 . S
C191 C190 1.362 . S
H192 C198 0.930 . S
H193 C201 0.930 . S
H194 C202 0.930 . S
H195 C203 0.930 . S
H196 C206 0.930 . S
H197 C207 0.930 . S
C198 H192 0.930 . S
C198 C199 1.355 . S
C198 C200 1.415 . S
C199 C198 1.355 . S
C199 C201 1.419 . S
C200 C198 1.415 . S
C200 C205 1.425 . S
C200 C207 1.409 . S
C201 H193 0.930 . S
C201 C199 1.419 . S
C201 C202 1.362 . S
C202 H194 0.930 . S
C202 C201 1.362 . S
C202 C205 1.409 . S
C203 H195 0.930 . S
C203 C204 1.355 . S
C203 C205 1.415 . S
C204 C203 1.355 . S
C204 C206 1.419 . S
C205 C200 1.425 . S
C205 C202 1.409 . S
C205 C203 1.415 . S
C206 H196 0.930 . S
C206 C204 1.419 . S
C206 C207 1.362 . S
C207 H197 0.930 . S
C207 C200 1.409 . S
C207 C206 1.362 . S
H208 C214 0.930 . S
H209 C217 0.930 . S
H210 C218 0.930 . S
H211 C219 0.930 . S
H212 C222 0.930 . S
H213 C223 0.930 . S
C214 H208 0.930 . S
C214 C215 1.355 . S
C214 C216 1.415 . S
C215 C214 1.355 . S
C215 C217 1.419 . S
C216 C214 1.415 . S
C216 C221 1.425 . S
C216 C223 1.409 . S
C217 H209 0.930 . S
C217 C215 1.419 . S
C217 C218 1.362 . S
C218 H210 0.930 . S
C218 C217 1.362 . S
C218 C221 1.409 . S
C219 H211 0.930 . S
C219 C220 1.355 . S
C219 C221 1.415 . S
C220 C219 1.355 . S
C220 C222 1.419 . S
C221 C216 1.425 . S
C221 C218 1.409 . S
C221 C219 1.415 . S
C222 H212 0.930 . S
C222 C220 1.419 . S
C222 C223 1.362 . S
C223 H213 0.930 . S
C223 C216 1.409 . S
C223 C222 1.362 . S
H224 C230 0.930 . S
H225 C233 0.930 . S
H226 C234 0.930 . S
H227 C235 0.930 . S
H228 C238 0.930 . S
H229 C239 0.930 . S
C230 H224 0.930 . S
C230 C231 1.355 . S
C230 C232 1.415 . S
C231 C230 1.355 . S
C231 C233 1.419 . S
C232 C230 1.415 . S
C232 C237 1.425 . S
C232 C239 1.409 . S
C233 H225 0.930 . S
C233 C231 1.419 . S
C233 C234 1.362 . S
C234 H226 0.930 . S
C234 C233 1.362 . S
C234 C237 1.409 . S
C235 H227 0.930 . S
C235 C236 1.355 . S
C235 C237 1.415 . S
C236 C235 1.355 . S
C236 C238 1.419 . S
C237 C232 1.425 . S
C237 C234 1.409 . S
C237 C235 1.415 . S
C238 H228 0.930 . S
C238 C236 1.419 . S
C238 C239 1.362 . S
C239 H229 0.930 . S
C239 C232 1.409 . S
C239 C238 1.362 . S
H240 C246 0.927 1_556 S
H241 C249 0.930 . S
H242 C250 0.930 . S
H243 C251 0.927 1_554 S
H244 C254 0.930 . S
H245 C255 0.930 . S
C246 H240 0.927 1_554 S
C246 C247 1.359 . S
C246 C248 1.413 1_554 S
C247 C246 1.359 . S
C247 C249 1.419 . S
C248 C246 1.413 1_556 S
C248 C253 1.425 1_556 S
C248 C255 1.409 . S
C249 H241 0.930 . S
C249 C247 1.419 . S
C249 C250 1.362 . S
C250 H242 0.930 . S
C250 C249 1.362 . S
C250 C253 1.409 . S
C251 H243 0.927 1_556 S
C251 C252 1.359 . S
C251 C253 1.413 1_556 S
C252 C251 1.359 . S
C252 C254 1.419 . S
C253 C248 1.425 1_554 S
C253 C250 1.409 . S
C253 C251 1.413 1_554 S
C254 H244 0.930 . S
C254 C252 1.419 . S
C254 C255 1.362 . S
C255 H245 0.930 . S
C255 C248 1.409 . S
C255 C254 1.362 . S
H256 C262 0.930 . S
H257 C265 0.930 . S
H258 C266 0.930 1_655 S
H259 C267 0.930 . S
H260 C270 0.930 . S
H261 C271 0.930 1_455 S
C262 H256 0.930 . S
C262 C263 1.355 1_556 S
C262 C264 1.415 . S
C263 C262 1.355 1_554 S
C263 C265 1.419 . S
C264 C262 1.415 . S
C264 C269 1.425 1_456 S
C264 C271 1.409 1_455 S
C265 H257 0.930 . S
C265 C263 1.419 . S
C265 C266 1.362 . S
C266 H258 0.930 1_455 S
C266 C265 1.362 . S
C266 C269 1.409 1_455 S
C267 H259 0.930 . S
C267 C268 1.355 1_554 S
C267 C269 1.415 . S
C268 C267 1.355 1_556 S
C268 C270 1.419 . S
C269 C264 1.425 1_654 S
C269 C266 1.409 1_655 S
C269 C267 1.415 . S
C270 H260 0.930 . S
C270 C268 1.419 . S
C270 C271 1.362 . S
C271 H261 0.930 1_655 S
C271 C264 1.409 1_655 S
C271 C270 1.362 . S
H272 C278 0.930 . S
H273 C281 0.930 . S
H274 C282 0.930 1_545 S
H275 C283 0.930 . S
H276 C286 0.930 . S
H277 C287 0.930 1_565 S
C278 H272 0.930 . S
C278 C279 1.355 . S
C278 C280 1.415 . S
C279 C278 1.355 . S
C279 C281 1.419 . S
C280 C278 1.415 . S
C280 C285 1.425 1_565 S
C280 C287 1.409 1_565 S
C281 H273 0.930 . S
C281 C279 1.419 . S
C281 C282 1.362 . S
C282 H274 0.930 1_565 S
C282 C281 1.362 . S
C282 C285 1.409 1_565 S
C283 H275 0.930 . S
C283 C284 1.355 . S
C283 C285 1.415 . S
C284 C283 1.355 . S
C284 C286 1.419 . S
C285 C280 1.425 1_545 S
C285 C282 1.409 1_545 S
C285 C283 1.415 . S
C286 H276 0.930 . S
C286 C284 1.419 . S
C286 C287 1.362 . S
C287 H277 0.930 1_545 S
C287 C280 1.409 1_545 S
C287 C286 1.362 . S
H288 C294 0.930 . S
H289 C297 0.930 . S
H290 C298 0.930 . S
H291 C299 0.930 . S
H292 C302 0.930 . S
H293 C303 0.930 . S
C294 H288 0.930 . S
C294 C295 1.355 . S
C294 C296 1.421 1_545 S
C295 C294 1.355 . S
C295 C297 1.419 . S
C296 C294 1.421 1_565 S
C296 C301 1.425 1_665 S
C296 C303 1.403 1_655 S
C297 H289 0.930 . S
C297 C295 1.419 . S
C297 C298 1.362 . S
C298 H290 0.930 . S
C298 C297 1.362 . S
C298 C301 1.403 1_655 S
C299 H291 0.930 . S
C299 C300 1.355 . S
C299 C301 1.421 1_565 S
C300 C299 1.355 . S
C300 C302 1.419 . S
C301 C296 1.425 1_445 S
C301 C298 1.403 1_455 S
C301 C299 1.421 1_545 S
C302 H292 0.930 . S
C302 C300 1.419 . S
C302 C303 1.362 . S
C303 H293 0.930 . S
C303 C296 1.403 1_455 S
C303 C302 1.362 . S
H304 C310 0.930 . S
H305 C313 0.930 . S
H306 C314 0.930 . S
H307 C315 0.930 . S
H308 C318 0.930 . S
H309 C319 0.930 . S
C310 H304 0.930 . S
C310 C311 1.355 . S
C310 C312 1.415 . S
C311 C310 1.355 . S
C311 C313 1.419 . S
C312 C310 1.415 . S
C312 C317 1.425 . S
C312 C319 1.409 . S
C313 H305 0.930 . S
C313 C311 1.419 . S
C313 C314 1.362 . S
C314 H306 0.930 . S
C314 C313 1.362 . S
C314 C317 1.409 . S
C315 H307 0.930 . S
C315 C316 1.355 . S
C315 C317 1.415 . S
C316 C315 1.355 . S
C316 C318 1.419 . S
C317 C312 1.425 . S
C317 C314 1.409 . S
C317 C315 1.415 . S
C318 H308 0.930 . S
C318 C316 1.419 . S
C318 C319 1.362 . S
C319 H309 0.930 . S
C319 C312 1.409 . S
C319 C318 1.362 . S
H320 C326 0.930 . S
H321 C329 0.930 . S
H322 C330 0.930 . S
H323 C331 0.930 . S
H324 C334 0.930 . S
H325 C335 0.930 . S
C326 H320 0.930 . S
C326 C327 1.355 . S
C326 C328 1.415 1_545 S
C327 C326 1.355 . S
C327 C329 1.419 . S
C328 C326 1.415 1_565 S
C328 C333 1.425 1_565 S
C328 C335 1.409 . S
C329 H321 0.930 . S
C329 C327 1.419 . S
C329 C330 1.362 . S
C330 H322 0.930 . S
C330 C329 1.362 . S
C330 C333 1.409 . S
C331 H323 0.930 . S
C331 C332 1.355 . S
C331 C333 1.415 1_565 S
C332 C331 1.355 . S
C332 C334 1.419 . S
C333 C328 1.425 1_545 S
C333 C330 1.409 . S
C333 C331 1.415 1_545 S
C334 H324 0.930 . S
C334 C332 1.419 . S
C334 C335 1.362 . S
C335 H325 0.930 . S
C335 C328 1.409 . S
C335 C334 1.362 . S
H336 C342 0.930 . S
H337 C345 0.930 . S
H338 C346 0.930 . S
H339 C347 0.930 . S
H340 C350 0.930 . S
H341 C351 0.930 . S
C342 H336 0.930 . S
C342 C343 1.355 . S
C342 C344 1.415 . S
C343 C342 1.355 . S
C343 C345 1.419 . S
C344 C342 1.415 . S
C344 C349 1.425 . S
C344 C351 1.409 . S
C345 H337 0.930 . S
C345 C343 1.419 . S
C345 C346 1.362 . S
C346 H338 0.930 . S
C346 C345 1.362 . S
C346 C349 1.409 . S
C347 H339 0.930 . S
C347 C348 1.355 . S
C347 C349 1.415 . S
C348 C347 1.355 . S
C348 C350 1.419 . S
C349 C344 1.425 . S
C349 C346 1.409 . S
C349 C347 1.415 . S
C350 H340 0.930 . S
C350 C348 1.419 . S
C350 C351 1.362 . S
C351 H341 0.930 . S
C351 C344 1.409 . S
C351 C350 1.362 . S
H352 C358 0.930 . S
H353 C361 0.930 . S
H354 C362 0.930 . S
H355 C363 0.930 . S
H356 C366 0.930 . S
H357 C367 0.930 . S
C358 H352 0.930 . S
C358 C359 1.355 . S
C358 C360 1.415 . S
C359 C358 1.355 . S
C359 C361 1.419 . S
C360 C358 1.415 . S
C360 C365 1.425 1_565 S
C360 C367 1.409 . S
C361 H353 0.930 . S
C361 C359 1.419 . S
C361 C362 1.362 1_565 S
C362 H354 0.930 . S
C362 C361 1.362 1_545 S
C362 C365 1.409 . S
C363 H355 0.930 . S
C363 C364 1.355 . S
C363 C365 1.415 . S
C364 C363 1.355 . S
C364 C366 1.419 . S
C365 C360 1.425 1_545 S
C365 C362 1.409 . S
C365 C363 1.415 . S
C366 H356 0.930 . S
C366 C364 1.419 . S
C366 C367 1.362 1_545 S
C367 H357 0.930 . S
C367 C360 1.409 . S
C367 C366 1.362 1_565 S
C119 C12 1.346 . S
C124 C26 1.345 . S
C135 C54 1.286 . S
C140 C40 1.269 . S
C151 C68 1.350 . S
C156 C82 1.338 . S
C167 C96 1.271 . S
C172 C110 1.281 . S
C183 C11 1.420 . S
C188 C39 1.479 . S
C199 C53 1.421 . S
C204 C25 1.479 . S
C215 C67 1.444 . S
C220 C95 1.459 . S
C231 C109 1.417 . S
C236 C81 1.481 . S
C247 C5 1.535 . S
C252 C61 1.535 . S
C263 C19 1.508 . S
C268 C75 1.508 . S
C279 C89 1.530 . S
C284 C33 1.530 . S
C295 C103 1.526 . S
C300 C47 1.526 . S
C311 C18 0.995 . S
C316 C4 0.930 . S
C327 C32 0.886 . S
C332 C46 0.924 . S
C343 C60 0.968 . S
C348 C74 0.990 . S
C359 C88 0.930 . S
C364 C102 0.995 . S
