# Generated by pormake.
# Topology hcp, (12)-cn, num edge types: 1
# Building blocks:
#     Node 0, Type 0, BuildingBlock: BOTCEU_clean_sbu_0, # of connection points: 12
#     Node 1, Type 0, BuildingBlock: BOTCEU_clean_sbu_0, # of connection points: 12
#     Edge 2, Type (0, 0), BuildingBlock: XUDNAN_clean_linker_2, # of connection points: 2
#     Edge 3, Type (0, 0), BuildingBlock: XUDNAN_clean_linker_2, # of connection points: 2
#     Edge 4, Type (0, 0), BuildingBlock: XUDNAN_clean_linker_2, # of connection points: 2
#     Edge 5, Type (0, 0), BuildingBlock: XUDNAN_clean_linker_2, # of connection points: 2
#     Edge 6, Type (0, 0), BuildingBlock: XUDNAN_clean_linker_2, # of connection points: 2
#     Edge 7, Type (0, 0), BuildingBlock: XUDNAN_clean_linker_2, # of connection points: 2
#     Edge 8, Type (0, 0), BuildingBlock: XUDNAN_clean_linker_2, # of connection points: 2
#     Edge 9, Type (0, 0), BuildingBlock: XUDNAN_clean_linker_2, # of connection points: 2
#     Edge 10, Type (0, 0), BuildingBlock: XUDNAN_clean_linker_2, # of connection points: 2
#     Edge 11, Type (0, 0), BuildingBlock: XUDNAN_clean_linker_2, # of connection points: 2
#     Edge 12, Type (0, 0), BuildingBlock: XUDNAN_clean_linker_2, # of connection points: 2
#     Edge 13, Type (0, 0), BuildingBlock: XUDNAN_clean_linker_2, # of connection points: 2
# Relax obj value: 0.161
# Max RMSD: 0.246
# Mean RMSD: 0.246
data_MOF--net-hcp--node1-BOTCEU_clean_sbu_0--edge1-XUDNAN_clean_linker_2
_symmetry_space_group_name_H-M    P1
_symmetry_Int_Tables_number       1
_symmetry_cell_setting            triclinic
loop_
_symmetry_equiv_pos_as_xyz
'x, y, z'
_cell_length_a     26.92472
_cell_length_b     21.692609
_cell_length_c     42.82518
_cell_angle_alpha  98.216118
_cell_angle_beta   87.473617
_cell_angle_gamma 123.55037
loop_
_atom_site_label
_atom_site_type_symbol
_atom_site_fract_x
_atom_site_fract_y
_atom_site_fract_z
_atom_type_partial_charge
C0 C 0.35265 0.04919 0.27334 0.0
C1 C 0.3472 0.98945 0.28537 0.0
C2 C 0.38539 0.02316 0.31234 0.0
N3 N 0.38824 0.11203 0.29328 0.0
N4 N 0.4074 0.09668 0.31697 0.0
C5 C 0.31657 0.04448 0.24638 0.0
H6 H 0.33378 0.10085 0.24035 0.0
H7 H 0.26921 0.01746 0.25268 0.0
H8 H 0.31829 1.00929 0.22541 0.0
C9 C 0.4013 0.98512 0.33248 0.0
H10 H 0.42354 0.96145 0.31781 0.0
H11 H 0.36057 0.93742 0.34107 0.0
H12 H 0.43224 0.02517 0.35243 0.0
C13 C 0.853 0.39078 0.11547 0.0
C14 C 0.79082 0.409 0.09288 0.0
C15 C 0.84089 0.40587 0.08724 0.0
N16 N 0.81218 0.38525 0.13607 0.0
N17 N 0.77535 0.39694 0.12283 0.0
H18 H 0.89226 0.32769 0.11351 0.0
H19 H 0.94472 0.42577 0.11219 0.0
H20 H 0.91114 0.39274 0.14913 0.0
C21 C 0.9035 0.3844 0.12318 0.0
H22 H 0.75486 0.38763 0.04585 0.0
H23 H 0.77735 0.47689 0.06767 0.0
H24 H 0.70947 0.39386 0.0773 0.0
C25 C 0.75567 0.41679 0.06953 0.0
C26 C 0.36751 0.23228 0.36149 0.0
C27 C 0.49744 0.2408 0.25596 0.0
C28 C 0.70295 0.13034 0.34973 0.0
N29 N 0.72793 0.19767 0.34003 0.0
N30 N 0.73823 0.19167 0.30975 0.0
C31 C 0.69357 0.07788 0.32356 0.0
C32 C 0.71718 0.1198 0.29862 0.0
H33 H 0.69389 0.16353 0.39845 0.0
H34 H 0.73436 0.12011 0.39235 0.0
H35 H 0.65442 0.06318 0.38621 0.0
C36 C 0.6954 0.11848 0.38365 0.0
H37 H 0.74948 0.14054 0.25177 0.0
H38 H 0.68633 0.04757 0.25414 0.0
H39 H 0.7582 0.07429 0.26831 0.0
C40 C 0.72868 0.09449 0.26632 0.0
C41 C 0.31202 0.26626 0.256 0.0
C42 C 0.28394 0.17761 0.28585 0.0
N43 N 0.35909 0.26436 0.26315 0.0
N44 N 0.3426 0.2129 0.28147 0.0
C45 C 0.26153 0.21007 0.26981 0.0
H46 H 0.30487 0.30156 0.21317 0.0
H47 H 0.28958 0.34447 0.24845 0.0
H48 H 0.36514 0.3732 0.23958 0.0
C49 C 0.31805 0.32488 0.23843 0.0
C50 C 0.25117 0.11214 0.30372 0.0
H51 H 0.20805 0.06761 0.29131 0.0
H52 H 0.24275 0.13043 0.32773 0.0
H53 H 0.27835 0.08927 0.30674 0.0
C54 C 0.88627 0.40454 0.34499 0.0
C55 C 0.67086 0.30116 0.33012 0.0
C56 C 0.62627 0.23441 0.11333 0.0
N57 N 0.64051 0.29744 0.13219 0.0
C58 C 0.56534 0.19307 0.10593 0.0
N59 N 0.59243 0.29846 0.13723 0.0
C60 C 0.54537 0.23588 0.1216 0.0
H61 H 0.70784 0.24078 0.11897 0.0
H62 H 0.68905 0.2416 0.07937 0.0
H63 H 0.64902 0.15518 0.09581 0.0
C64 C 0.67053 0.21652 0.1013 0.0
H65 H 0.48104 0.2634 0.13458 0.0
C66 C 0.48527 0.22301 0.11771 0.0
H67 H 0.47898 0.22952 0.09323 0.0
H68 H 0.44977 0.16535 0.12156 0.0
C69 C 0.75714 0.34176 0.45156 0.0
C70 C 0.81339 0.31444 0.42188 0.0
N71 N 0.73739 0.32428 0.42124 0.0
N72 N 0.77167 0.30874 0.40359 0.0
C73 C 0.80635 0.33664 0.45289 0.0
H74 H 0.72321 0.3316 0.49793 0.0
C75 C 0.73085 0.3645 0.47855 0.0
H76 H 0.68817 0.35555 0.471 0.0
H77 H 0.76279 0.42421 0.48794 0.0
H78 H 0.86547 0.26745 0.42186 0.0
H79 H 0.90615 0.36234 0.41412 0.0
C80 C 0.86303 0.30733 0.40948 0.0
H81 H 0.85567 0.28705 0.38382 0.0
C82 C 0.71882 0.52122 0.13839 0.0
C83 C 0.68878 0.32792 0.20658 0.0
C84 C 0.93254 0.46719 0.24088 0.0
N85 N 0.881 0.41389 0.22545 0.0
C86 C 0.95507 0.53224 0.2277 0.0
C87 C 0.91363 0.51306 0.20362 0.0
N88 N 0.8692 0.44067 0.20332 0.0
C89 C 0.96092 0.45377 0.26605 0.0
H90 H 0.92632 0.41727 0.28167 0.0
H91 H 0.98105 0.42371 0.25472 0.0
H92 H -0.00363 0.50638 0.28012 0.0
C93 C 0.91631 0.56215 0.18153 0.0
H94 H 0.8711 0.53947 0.17149 0.0
H95 H 0.93615 0.61995 0.19389 0.0
H96 H 0.94525 0.56411 0.1619 0.0
C97 C 0.4068 0.09224 0.40988 0.0
C98 C 0.43837 0.10754 0.43844 0.0
C99 C 0.4868 0.18027 0.43854 0.0
N100 N 0.43726 0.15198 0.39391 0.0
N101 N 0.4856 0.20288 0.4113 0.0
H102 H 0.31554 1.00915 0.41587 0.0
H103 H 0.35625 0.97374 0.39607 0.0
H104 H 0.33437 0.02393 0.37538 0.0
C105 C 0.34999 0.02056 0.39821 0.0
C106 C 0.54188 0.21932 0.45977 0.0
H107 H 0.57319 0.27768 0.4552 0.0
H108 H 0.52959 0.2197 0.48484 0.0
H109 H 0.56455 0.18909 0.45584 0.0
C110 C 0.77505 0.21611 0.1685 0.0
C111 C 0.77164 0.37585 0.27249 0.0
C112 C 0.53662 0.52367 0.23699 0.0
C113 C 0.52287 0.541 0.26733 0.0
C114 C 0.48714 0.47206 0.27838 0.0
N115 N 0.51048 0.4494 0.23094 0.0
N116 N 0.48046 0.41809 0.25548 0.0
C117 C 0.57654 0.57695 0.21487 0.0
H118 H 0.59198 0.54999 0.19668 0.0
H119 H 0.55139 0.59425 0.20286 0.0
H120 H 0.61543 0.62782 0.22812 0.0
C121 C 0.45943 0.45791 0.30975 0.0
H122 H 0.42118 0.39888 0.30869 0.0
H123 H 0.49318 0.46883 0.3275 0.0
H124 H 0.44474 0.49632 0.31737 0.0
C125 C 0.88139 0.23261 0.28308 0.0
C126 C 0.91037 0.22292 0.25673 0.0
C127 C 0.89718 0.25102 0.23309 0.0
N128 N 0.85319 0.26319 0.27491 0.0
N129 N 0.86162 0.27315 0.24509 0.0
C130 C 0.88071 0.21541 0.31578 0.0
H131 H 0.92494 0.2285 0.3231 0.0
H132 H 0.84647 0.15536 0.31659 0.0
H133 H 0.8681 0.24776 0.33259 0.0
C134 C 0.91797 0.25793 0.20004 0.0
H135 H 0.96425 0.30777 0.20034 0.0
H136 H 0.91719 0.20759 0.18947 0.0
H137 H 0.89028 0.26676 0.18534 0.0
C138 C 0.39528 0.2459 0.18417 0.0
C139 C 0.62749 0.43551 0.22367 0.0
C140 C 0.57585 0.39729 0.41877 0.0
N141 N 0.596 0.3559 0.40607 0.0
N142 N 0.65284 0.38806 0.41362 0.0
C143 C 0.6216 0.46033 0.43661 0.0
C144 C 0.6705 0.45296 0.43296 0.0
H145 H 0.48883 0.32882 0.39621 0.0
H146 H 0.49006 0.34498 0.43877 0.0
H147 H 0.50682 0.41848 0.41668 0.0
C148 C 0.51154 0.371 0.41738 0.0
H149 H 0.76131 0.48715 0.44057 0.0
H150 H 0.7489 0.56219 0.44515 0.0
H151 H 0.7259 0.50305 0.47511 0.0
C152 C 0.73049 0.50406 0.44928 0.0
C153 C 0.55504 0.42916 0.11076 0.0
N154 N 0.55711 0.41111 0.13908 0.0
N155 N 0.51646 0.4123 0.15699 0.0
C156 C 0.5119 0.4455 0.11093 0.0
C157 C 0.48854 0.43466 0.14094 0.0
C158 C 0.59548 0.43391 0.08477 0.0
H159 H 0.62575 0.49297 0.08075 0.0
H160 H 0.569 0.40103 0.06251 0.0
H161 H 0.62202 0.41201 0.09084 0.0
C162 C 0.44185 0.4468 0.15415 0.0
H163 H 0.46153 0.50771 0.15975 0.0
H164 H 0.40477 0.42318 0.13632 0.0
H165 H 0.42484 0.421 0.17607 0.0
C166 C 0.5908 0.15748 0.38131 0.0
C167 C 0.54956 0.30318 0.33187 0.0
Cu168 Cu 0.40197 0.20665 0.29778 0.0
Cu169 Cu 0.44215 0.17353 0.35147 0.0
Cu170 Cu 0.7607 0.29558 0.36011 0.0
Cu171 Cu 0.79916 0.27983 0.29577 0.0
Cu172 Cu 0.71194 0.38399 0.14723 0.0
Cu173 Cu 0.60601 0.38905 0.1566 0.0
Cu174 Cu 0.8257 0.31594 0.23005 0.0
Cu175 Cu 0.80128 0.37028 0.17808 0.0
Cu176 Cu 0.51244 0.38648 0.19742 0.0
Cu177 Cu 0.43737 0.31313 0.25014 0.0
Cu178 Cu 0.55253 0.25752 0.38983 0.0
Cu179 Cu 0.67842 0.32253 0.39913 0.0
H180 H 0.38577 0.26315 0.38545 0.0
H181 H 0.33128 0.17362 0.36348 0.0
H182 H 0.34969 0.25929 0.35 0.0
H183 H 0.49794 0.20047 0.26896 0.0
H184 H 0.54377 0.28547 0.25163 0.0
H185 H 0.47238 0.2106 0.2331 0.0
H186 H 0.90326 0.45478 0.33335 0.0
H187 H 0.91439 0.38201 0.33939 0.0
H188 H 0.8879 0.42073 0.37085 0.0
H189 H 0.68639 0.27515 0.31164 0.0
H190 H 0.67186 0.34783 0.32174 0.0
H191 H 0.6252 0.25723 0.33541 0.0
H192 H 0.69078 0.54437 0.14046 0.0
H193 H 0.72429 0.50718 0.11313 0.0
H194 H 0.76319 0.56349 0.15011 0.0
H195 H 0.64503 0.29659 0.19356 0.0
H196 H 0.68674 0.36091 0.22818 0.0
H197 H 0.69809 0.28749 0.21302 0.0
H198 H 0.7288 0.18243 0.15821 0.0
H199 H 0.80708 0.23645 0.14938 0.0
H200 H 0.78213 0.18057 0.18142 0.0
H201 H 0.79201 0.41387 0.25441 0.0
H202 H 0.72446 0.35752 0.27425 0.0
H203 H 0.79588 0.40652 0.29548 0.0
H204 H 0.39673 0.19849 0.17173 0.0
H205 H 0.35363 0.22363 0.19724 0.0
H206 H 0.396 0.27968 0.16681 0.0
H207 H 0.62001 0.40764 0.24475 0.0
H208 H 0.67219 0.45378 0.21475 0.0
H209 H 0.62585 0.48559 0.23024 0.0
H210 H 0.62146 0.16501 0.36208 0.0
H211 H 0.59347 0.12684 0.39907 0.0
H212 H 0.54459 0.12467 0.37097 0.0
H213 H 0.58768 0.35249 0.3461 0.0
H214 H 0.56609 0.29396 0.30878 0.0
H215 H 0.51554 0.31563 0.32907 0.0
O216 O 0.41157 0.23323 0.34383 0.0
O217 O 0.47001 0.27135 0.27324 0.0
O218 O 0.82847 0.35151 0.33464 0.0
O219 O 0.7072 0.3277 0.35661 0.0
O220 O 0.69201 0.45833 0.1528 0.0
O221 O 0.73271 0.37503 0.18811 0.0
O222 O 0.78306 0.27574 0.18903 0.0
O223 O 0.77503 0.31484 0.2641 0.0
O224 O 0.44362 0.28967 0.2049 0.0
O225 O 0.58458 0.38725 0.2005 0.0
O226 O 0.60399 0.22565 0.39568 0.0
O227 O 0.52682 0.24149 0.34691 0.0
C228 C 0.05166 0.54258 0.76047 0.0
C229 C 0.02663 0.48144 0.77671 0.0
C230 C 0.06854 0.50234 0.80066 0.0
N231 N 0.10471 0.59631 0.77474 0.0
N232 N 0.11487 0.57242 0.79867 0.0
C233 C 0.02103 0.55373 0.73565 0.0
H234 H 0.05344 0.60222 0.72379 0.0
H235 H 0.98738 0.5633 0.74675 0.0
H236 H -0.00273 0.50296 0.71781 0.0
C237 C 0.06235 0.45816 0.8261 0.0
H238 H 0.10663 0.47988 0.83711 0.0
H239 H 0.0407 0.39838 0.81611 0.0
H240 H 0.03339 0.46162 0.84448 0.0
C241 C 0.59959 0.92615 0.60827 0.0
C242 C 0.51956 0.84117 0.57864 0.0
C243 C 0.57216 0.90993 0.57826 0.0
N244 N 0.56346 0.86916 0.62504 0.0
N245 N 0.51551 0.82031 0.60699 0.0
H246 H 0.69315 1.00408 0.60555 0.0
H247 H 0.65302 0.0451 0.61989 0.0
H248 H 0.66706 0.99523 0.6454 0.0
C249 C 0.65646 0.99674 0.62088 0.0
H250 H 0.43255 0.74831 0.56015 0.0
H251 H 0.48265 0.80164 0.53098 0.0
H252 H 0.44853 0.83947 0.55674 0.0
C253 C 0.46766 0.80513 0.55534 0.0
C254 C 0.1717 0.78131 0.83649 0.0
C255 C 0.23179 0.66178 0.73682 0.0
C256 C 0.45028 0.50712 0.78692 0.0
N257 N 0.47386 0.58091 0.79343 0.0
N258 N 0.50781 0.61485 0.77038 0.0
C259 C 0.47045 0.49293 0.75783 0.0
C260 C 0.50747 0.56372 0.74826 0.0
H261 H 0.41982 0.40733 0.80747 0.0
H262 H 0.36399 0.42665 0.8019 0.0
H263 H 0.41941 0.48068 0.83342 0.0
C264 C 0.41147 0.45233 0.8088 0.0
H265 H 0.54841 0.63519 0.71241 0.0
H266 H 0.51613 0.53637 0.69883 0.0
H267 H 0.58498 0.59154 0.72232 0.0
C268 C 0.54082 0.58264 0.71854 0.0
C269 C 0.10253 0.77901 0.71799 0.0
C270 C 0.07196 0.74047 0.76438 0.0
N271 N 0.13718 0.75981 0.72893 0.0
N272 N 0.11943 0.73741 0.75663 0.0
C273 C 0.05966 0.76693 0.74002 0.0
H274 H 0.08284 0.75728 0.6684 0.0
H275 H 0.09415 0.84402 0.68752 0.0
H276 H 0.15707 0.83508 0.68026 0.0
C277 C 0.10976 0.80601 0.68681 0.0
C278 C 0.03509 0.70952 0.79216 0.0
H279 H 0.98687 0.6786 0.7855 0.0
H280 H 0.04587 0.75635 0.81106 0.0
H281 H 0.04494 0.67205 0.8015 0.0
C282 C 0.5811 0.78522 0.84245 0.0
C283 C 0.3575 0.59132 0.79394 0.0
C284 C 0.42069 0.6313 0.59629 0.0
N285 N 0.39963 0.67134 0.60976 0.0
C286 C 0.38147 0.5799 0.57195 0.0
N287 N 0.34706 0.64732 0.59722 0.0
C288 C 0.33438 0.59083 0.57363 0.0
H289 H 0.51054 0.6823 0.58129 0.0
H290 H 0.48575 0.60586 0.6031 0.0
H291 H 0.50339 0.69497 0.62358 0.0
C292 C 0.4839 0.65514 0.60147 0.0
H293 H 0.24746 0.56257 0.56082 0.0
C294 C 0.28022 0.54917 0.55209 0.0
H295 H 0.29305 0.56298 0.52785 0.0
H296 H 0.25985 0.48824 0.55089 0.0
C297 C 0.41018 0.59226 0.91061 0.0
C298 C 0.48831 0.60303 0.88659 0.0
N299 N 0.40963 0.60502 0.88097 0.0
N300 N 0.4567 0.61281 0.86655 0.0
C301 C 0.4597 0.58983 0.9152 0.0
H302 H 0.33721 0.53134 0.93981 0.0
C303 C 0.3674 0.58959 0.93477 0.0
H304 H 0.34066 0.60877 0.92608 0.0
H305 H 0.39159 0.62516 0.95719 0.0
H306 H 0.54607 0.56429 0.88719 0.0
H307 H 0.58292 0.66386 0.8929 0.0
C308 C 0.54621 0.61107 0.87942 0.0
H309 H 0.5541 0.61201 0.85377 0.0
C310 C 0.4162 0.88023 0.6277 0.0
C311 C 0.44136 0.72216 0.68565 0.0
C312 C 0.62648 0.97595 0.7479 0.0
N313 N 0.59751 0.91345 0.72702 0.0
C314 C 0.63058 0.03341 0.73458 0.0
C315 C 0.60132 0.99975 0.70502 0.0
N316 N 0.58298 0.92744 0.70116 0.0
C317 C 0.65831 0.98294 0.77729 0.0
H318 H 0.63847 0.92741 0.78498 0.0
H319 H 0.70598 1.00654 0.77248 0.0
H320 H 0.656 0.02125 0.79652 0.0
C321 C 0.59156 0.03662 0.68124 0.0
H322 H 0.5643 0.99544 0.66055 0.0
H323 H 0.56836 0.06288 0.69236 0.0
H324 H 0.63499 0.08205 0.67366 0.0
C325 C 0.1058 0.60364 0.88599 0.0
C326 C 0.11158 0.57752 0.91268 0.0
C327 C 0.16657 0.58552 0.91008 0.0
N328 N 0.15457 0.62461 0.86888 0.0
N329 N 0.19048 0.61328 0.88327 0.0
H330 H 0.0517 0.6478 0.88934 0.0
H331 H 0.0108 0.54804 0.87986 0.0
H332 H 0.05408 0.60685 0.85 0.0
C333 C 0.05238 0.60104 0.87542 0.0
C334 C 0.19603 0.56762 0.93271 0.0
H335 H 0.18428 0.57729 0.95729 0.0
H336 H 0.18031 0.5079 0.927 0.0
H337 H 0.24514 0.60222 0.93064 0.0
C338 C 0.62107 0.78023 0.66409 0.0
C339 C 0.48328 0.78445 0.76372 0.0
C340 C 0.30682 0.91267 0.66421 0.0
C341 C 0.31254 0.96047 0.69146 0.0
C342 C 0.28039 0.91291 0.7137 0.0
N343 N 0.27507 0.84174 0.67083 0.0
N344 N 0.25865 0.84228 0.70025 0.0
C345 C 0.32073 0.93333 0.6316 0.0
H346 H 0.30898 0.88415 0.61398 0.0
H347 H 0.29498 0.9564 0.62562 0.0
H348 H 0.36865 0.97783 0.6306 0.0
C349 C 0.26691 0.93321 0.74634 0.0
H350 H 0.25536 0.88909 0.76101 0.0
H351 H 0.30553 0.98788 0.75741 0.0
H352 H 0.22805 0.93787 0.74504 0.0
C353 C 0.67177 0.76664 0.7735 0.0
C354 C 0.7205 0.81471 0.7569 0.0
C355 C 0.7009 0.84823 0.7402 0.0
N356 N 0.62626 0.7717 0.76644 0.0
N357 N 0.64352 0.81975 0.74622 0.0
C358 C 0.66572 0.70845 0.79126 0.0
H359 H 0.70455 0.73376 0.80807 0.0
H360 H 0.66544 0.66437 0.77437 0.0
H361 H 0.62366 0.68273 0.80414 0.0
C362 C 0.73502 0.90219 0.71728 0.0
H363 H 0.77904 0.94838 0.72827 0.0
H364 H 0.74353 0.87395 0.69609 0.0
H365 H 0.70994 0.92515 0.71008 0.0
C366 C 0.13572 0.6096 0.66603 0.0
C367 C 0.3265 0.73324 0.67926 0.0
C368 C 0.33325 0.77201 0.90625 0.0
N369 N 0.32636 0.71782 0.88374 0.0
N370 N 0.37526 0.71791 0.88237 0.0
C371 C 0.38976 0.80814 0.92051 0.0
C372 C 0.41538 0.77243 0.90449 0.0
H373 H 0.25658 0.7446 0.93309 0.0
H374 H 0.30349 0.84157 0.92781 0.0
H375 H 0.25584 0.77113 0.89528 0.0
C376 C 0.28457 0.78343 0.91613 0.0
H377 H 0.48537 0.75331 0.89532 0.0
H378 H 0.50817 0.84177 0.91888 0.0
H379 H 0.46566 0.75734 0.93617 0.0
C380 C 0.47206 0.78156 0.91406 0.0
C381 C 0.24882 0.70091 0.55758 0.0
N382 N 0.27077 0.72433 0.58757 0.0
N383 N 0.23465 0.73699 0.60489 0.0
C384 C 0.19375 0.69294 0.55638 0.0
C385 C 0.18776 0.71911 0.58701 0.0
C386 C 0.27956 0.68694 0.53029 0.0
H387 H 0.29057 0.72738 0.51374 0.0
H388 H 0.24944 0.63042 0.51697 0.0
H389 H 0.32154 0.6948 0.53836 0.0
C390 C 0.13219 0.7096 0.60069 0.0
H391 H 0.11414 0.73158 0.58595 0.0
H392 H 0.09787 0.64928 0.6009 0.0
H393 H 0.14164 0.73949 0.62516 0.0
C394 C 0.24749 0.49283 0.86927 0.0
C395 C 0.29603 0.71336 0.80933 0.0
Cu396 Cu 0.15579 0.69752 0.77336 0.0
Cu397 Cu 0.17396 0.64643 0.82775 0.0
Cu398 Cu 0.46691 0.64167 0.82616 0.0
Cu399 Cu 0.54659 0.71924 0.77614 0.0
Cu400 Cu 0.44582 0.76972 0.62678 0.0
Cu401 Cu 0.3248 0.71714 0.61047 0.0
Cu402 Cu 0.58478 0.82008 0.72578 0.0
Cu403 Cu 0.55268 0.84906 0.66779 0.0
Cu404 Cu 0.24217 0.74548 0.6483 0.0
Cu405 Cu 0.19663 0.75104 0.71097 0.0
Cu406 Cu 0.25939 0.63446 0.86296 0.0
Cu407 Cu 0.36531 0.63027 0.86108 0.0
H408 H 0.20548 0.81308 0.8563 0.0
H409 H 0.12705 0.7455 0.84596 0.0
H410 H 0.17145 0.82105 0.82292 0.0
H411 H 0.20833 0.61837 0.75257 0.0
H412 H 0.2805 0.6898 0.7406 0.0
H413 H 0.21862 0.63477 0.71203 0.0
H414 H 0.62046 0.82772 0.83074 0.0
H415 H 0.59264 0.75063 0.85291 0.0
H416 H 0.5682 0.81407 0.86119 0.0
H417 H 0.37759 0.61228 0.77153 0.0
H418 H 0.31426 0.58611 0.7962 0.0
H419 H 0.34944 0.53534 0.79384 0.0
H420 H 0.39205 0.88066 0.64921 0.0
H421 H 0.40562 0.90102 0.60858 0.0
H422 H 0.46482 0.91685 0.63343 0.0
H423 H 0.40544 0.67273 0.67032 0.0
H424 H 0.42161 0.73174 0.70745 0.0
H425 H 0.47437 0.70986 0.69129 0.0
H426 H 0.60016 0.74012 0.64218 0.0
H427 H 0.65793 0.83496 0.65788 0.0
H428 H 0.63853 0.75806 0.67908 0.0
H429 H 0.48639 0.82611 0.75007 0.0
H430 H 0.43585 0.73876 0.7649 0.0
H431 H 0.50246 0.81236 0.78792 0.0
H432 H 0.12243 0.58919 0.6892 0.0
H433 H 0.09513 0.58956 0.65146 0.0
H434 H 0.16144 0.58792 0.65387 0.0
H435 H 0.31088 0.75983 0.69737 0.0
H436 H 0.32266 0.68483 0.68763 0.0
H437 H 0.373 0.77635 0.67495 0.0
H438 H 0.25879 0.45454 0.85611 0.0
H439 H 0.25871 0.50101 0.89471 0.0
H440 H 0.19904 0.46801 0.86585 0.0
H441 H 0.31538 0.69231 0.79095 0.0
H442 H 0.28065 0.74398 0.79876 0.0
H443 H 0.33092 0.75274 0.82783 0.0
O444 O 0.18577 0.73765 0.81708 0.0
O445 O 0.21707 0.71342 0.74351 0.0
O446 O 0.53472 0.74075 0.82063 0.0
O447 O 0.39537 0.63927 0.81903 0.0
O448 O 0.40114 0.80918 0.61738 0.0
O449 O 0.46732 0.78381 0.67029 0.0
O450 O 0.5795 0.7887 0.68006 0.0
O451 O 0.51465 0.75618 0.74941 0.0
O452 O 0.17032 0.68615 0.67041 0.0
O453 O 0.29237 0.70946 0.65213 0.0
O454 O 0.27905 0.56003 0.858 0.0
O455 O 0.24904 0.65475 0.82228 0.0
H456 H 0.49111 0.94738 0.93619 0.0
H457 H 0.33177 0.77197 0.97502 0.0
H458 H 0.36049 0.85033 0.02727 0.0
H459 H 0.58889 1.00926 1.00627 0.0
H460 H 0.62893 0.10655 1.00145 0.0
H461 H 0.59691 0.0355 0.96737 0.0
H462 H 0.53855 0.08974 0.95101 0.0
H463 H 0.57027 0.16078 0.98504 0.0
H464 H 0.49043 0.10023 0.97871 0.0
H465 H 0.40432 0.94908 0.07456 0.0
H466 H 0.46213 0.06179 0.11431 0.0
H467 H 0.59275 0.17303 0.04485 0.0
C468 C 0.46281 0.92555 0.95586 0.0
C469 C 0.40908 0.85437 0.95178 0.0
C470 C 0.37267 0.82714 0.97778 0.0
C471 C 0.38877 0.87094 1.0075 0.0
C472 C 0.44159 0.94157 0.01077 0.0
C473 C 0.47827 0.96868 0.98574 0.0
C474 C 0.53189 0.0472 0.99551 0.0
C475 C 0.5901 0.04974 0.99247 0.0
C476 C 0.5328 0.10275 0.97643 0.0
C477 C 0.51921 0.06015 0.02977 0.0
C478 C 0.467 0.99845 0.03813 0.0
C479 C 0.44538 0.99771 0.06836 0.0
C480 C 0.47812 0.06189 0.09066 0.0
C481 C 0.53156 0.1255 0.08249 0.0
C482 C 0.55235 0.1245 0.05173 0.0
H483 H 0.41369 0.47956 0.56701 0.0
H484 H 0.40786 0.6338 0.5158 0.0
H485 H 0.48049 0.63223 0.47881 0.0
H486 H 0.56573 0.55775 0.56363 0.0
H487 H 0.5622 0.47142 0.55795 0.0
H488 H 0.50411 0.47625 0.57819 0.0
H489 H 0.4233 0.36658 0.53854 0.0
H490 H 0.4808 0.35889 0.51923 0.0
H491 H 0.43234 0.37075 0.49676 0.0
H492 H 0.56139 0.62243 0.45027 0.0
H493 H 0.62589 0.58282 0.42526 0.0
H494 H 0.58087 0.43726 0.49567 0.0
C495 C 0.42551 0.50999 0.54704 0.0
C496 C 0.4039 0.55531 0.54379 0.0
C497 C 0.42223 0.59679 0.51812 0.0
C498 C 0.46453 0.59745 0.4974 0.0
C499 C 0.48791 0.55597 0.50253 0.0
C500 C 0.46764 0.51113 0.52613 0.0
C501 C 0.50036 0.47249 0.52687 0.0
C502 C 0.53515 0.49589 0.55855 0.0
C503 C 0.45661 0.38713 0.51993 0.0
C504 C 0.54247 0.5028 0.50014 0.0
C505 C 0.53512 0.55159 0.48663 0.0
C506 C 0.56763 0.58457 0.46081 0.0
C507 C 0.60534 0.56315 0.44714 0.0
C508 C 0.61022 0.50919 0.4592 0.0
C509 C 0.58024 0.48124 0.48686 0.0
H510 H 0.88791 0.52097 0.05198 0.0
H511 H 0.86784 0.31002 0.05655 0.0
H512 H 0.92968 0.32782 0.01007 0.0
H513 H 0.88728 0.5078 0.96475 0.0
H514 H 0.94291 0.60618 0.96558 0.0
H515 H 0.89258 0.57381 0.99744 0.0
H516 H 0.98271 0.64012 0.03755 0.0
H517 H 0.03325 0.67236 1.00586 0.0
H518 H 0.03877 0.61886 0.03244 0.0
H519 H -0.00157 0.3716 0.96582 0.0
H520 H 0.07071 0.43904 0.92614 0.0
H521 H 0.04819 0.62307 0.9497 0.0
C522 C 0.89562 0.47797 0.04268 0.0
C523 C 0.87333 0.41412 0.05772 0.0
C524 C 0.88512 0.35959 0.04546 0.0
C525 C 0.91982 0.36902 0.01898 0.0
C526 C 0.94229 0.43328 1.00501 0.0
C527 C 0.9306 0.48681 0.01629 0.0
C528 C 0.96323 0.55274 0.99794 0.0
C529 C 0.91884 0.56057 0.98038 0.0
C530 C 0.00709 0.62529 0.01975 0.0
C531 C -0.00407 0.52847 0.97503 0.0
C532 C 0.9827 0.45906 0.97944 0.0
C533 C 0.00896 0.42581 0.96206 0.0
C534 C 0.0503 0.46477 0.93979 0.0
C535 C 0.06531 0.53637 0.93519 0.0
C536 C 0.03708 0.56813 0.95268 0.0
H537 H 0.54 0.01027 0.58572 0.0
H538 H 0.60866 0.90936 0.51842 0.0
H539 H 0.57323 0.94013 0.47453 0.0
H540 H 0.41057 0.94416 0.54593 0.0
H541 H 0.40708 0.02559 0.55361 0.0
H542 H 0.44724 0.01103 0.58095 0.0
H543 H 0.54468 0.138 0.57653 0.0
H544 H 0.50455 0.15703 0.55113 0.0
H545 H 0.57152 0.1632 0.53806 0.0
H546 H 0.51664 0.96457 0.43782 0.0
H547 H 0.466 0.0101 0.41099 0.0
H548 H 0.43425 0.09658 0.50174 0.0
C549 C 0.55108 0.99928 0.56184 0.0
C550 C 0.57894 0.95953 0.55552 0.0
C551 C 0.58953 0.94219 0.52383 0.0
C552 C 0.56826 0.95798 0.49871 0.0
C553 C 0.53691 0.99197 0.50564 0.0
C554 C 0.5303 0.01505 0.53644 0.0
C555 C 0.49329 0.04862 0.53737 0.0
C556 C 0.43615 1.00465 0.55553 0.0
C557 C 0.53075 0.13165 0.55161 0.0
C558 C 0.47892 0.03912 0.50238 0.0
C559 C 0.50406 1.00566 0.48451 0.0
C560 C 0.49703 0.99112 0.45163 0.0
C561 C 0.46692 0.01567 0.43655 0.0
C562 C 0.4446 0.05507 0.45422 0.0
C563 C 0.44905 0.0645 0.48764 0.0
H564 H 0.47321 0.38151 0.05002 0.0
H565 H 0.52903 0.58243 0.11553 0.0
H566 H 0.52719 0.64425 0.07157 0.0
H567 H 0.55909 0.47029 0.98613 0.0
H568 H 0.50317 0.40484 0.95583 0.0
H569 H 0.50589 0.37508 0.99254 0.0
H570 H 0.39572 0.33041 1.00162 0.0
H571 H 0.39226 0.3585 0.96462 0.0
H572 H 0.37323 0.39443 1.0004 0.0
H573 H 0.52472 0.68582 0.01997 0.0
H574 H 0.50858 0.69904 0.96549 0.0
H575 H 0.45361 0.47061 0.93361 0.0
C576 C 0.48429 0.43822 0.05504 0.0
C577 C 0.50106 0.47751 0.08597 0.0
C578 C 0.51522 0.5514 0.09195 0.0
C579 C 0.51493 0.58703 0.06711 0.0
C580 C 0.50005 0.54757 0.0366 0.0
C581 C 0.48391 0.47433 0.03057 0.0
C582 C 0.46919 0.44413 0.99575 0.0
C583 C 0.51189 0.42231 0.98175 0.0
C584 C 0.40371 0.37797 0.99028 0.0
C585 C 0.47987 0.51197 0.98302 0.0
C586 C 0.49818 0.57126 1.00696 0.0
C587 C 0.51031 0.63977 1.00109 0.0
C588 C 0.5015 0.647 0.97014 0.0
C589 C 0.48056 0.58606 0.94564 0.0
C590 C 0.47068 0.51825 0.95199 0.0
H591 H 0.87056 0.48415 0.47506 0.0
H592 H 0.85451 0.27643 0.4815 0.0
H593 H 0.95507 0.34723 0.50764 0.0
H594 H 0.01546 0.58172 0.4544 0.0
H595 H 0.03819 0.67073 0.47697 0.0
H596 H 0.9614 0.60525 0.46376 0.0
H597 H 0.92675 0.6068 0.52114 0.0
H598 H 0.00323 0.67489 0.53444 0.0
H599 H 0.96012 0.5894 0.55144 0.0
H600 H 0.06013 0.43955 0.52654 0.0
H601 H 0.15873 0.54824 0.54626 0.0
H602 H 0.10815 0.69733 0.52645 0.0
C603 C 0.88704 0.4537 0.48358 0.0
C604 C 0.85488 0.37512 0.47709 0.0
C605 C 0.87853 0.33669 0.48699 0.0
C606 C 0.93561 0.37642 0.5015 0.0
C607 C 0.96777 0.45422 0.50589 0.0
C608 C 0.9439 0.49256 0.49803 0.0
C609 C 0.98912 0.57626 0.50367 0.0
C610 C 0.00176 0.61045 0.47286 0.0
C611 C 0.96859 0.61406 0.5292 0.0
C612 C 0.04257 0.57889 0.51527 0.0
C613 C 0.02919 0.5078 0.51622 0.0
C614 C 0.07116 0.49549 0.52597 0.0
C615 C 0.12752 0.55765 0.5365 0.0
C616 C 0.14149 0.63105 0.53701 0.0
C617 C 0.09886 0.64174 0.52563 0.0
H618 H 0.61066 0.96041 0.28131 0.0
H619 H 0.72333 0.01251 0.36319 0.0
H620 H 0.68389 0.87858 0.36097 0.0
H621 H 0.48485 0.78012 0.29631 0.0
H622 H 0.47262 0.73888 0.25544 0.0
H623 H 0.50482 0.83769 0.26554 0.0
H624 H 0.59592 0.8662 0.23206 0.0
H625 H 0.56376 0.76755 0.22166 0.0
H626 H 0.63781 0.82741 0.23975 0.0
H627 H 0.63358 0.73771 0.3486 0.0
H628 H 0.58491 0.60545 0.32412 0.0
H629 H 0.51288 0.64805 0.2476 0.0
C630 C 0.62754 0.94389 0.29861 0.0
C631 C 0.66972 0.99718 0.32264 0.0
C632 C 0.68972 0.97276 0.34515 0.0
C633 C 0.66787 0.89668 0.34391 0.0
C634 C 0.62655 0.84567 0.31976 0.0
C635 C 0.60719 0.86851 0.29728 0.0
C636 C 0.56607 0.80365 0.27237 0.0
C637 C 0.50337 0.78925 0.27243 0.0
C638 C 0.59248 0.81701 0.23952 0.0
C639 C 0.56572 0.74079 0.28413 0.0
C640 C 0.59999 0.76576 0.31182 0.0
C641 C 0.6066 0.71764 0.32696 0.0
C642 C 0.57855 0.6426 0.31305 0.0
C643 C 0.54522 0.61691 0.28411 0.0
C644 C 0.53822 0.6665 0.26976 0.0
H645 H 0.01645 0.82797 0.7837 0.0
H646 H 0.98459 0.71113 0.68822 0.0
H647 H 0.8971 0.7173 0.68154 0.0
H648 H 0.86231 0.7319 0.80247 0.0
H649 H 0.86973 0.81228 0.82633 0.0
H650 H 0.93236 0.80314 0.82293 0.0
H651 H -0.00366 0.93257 0.80361 0.0
H652 H 0.93383 0.94199 0.80684 0.0
H653 H 0.97015 0.94958 0.76988 0.0
H654 H 0.8131 0.73302 0.6854 0.0
H655 H 0.73304 0.75325 0.70046 0.0
H656 H 0.81596 0.85475 0.79423 0.0
C657 C 0.99091 0.80376 0.76145 0.0
C658 C 0.00759 0.77054 0.73621 0.0
C659 C 0.97342 0.73905 0.70742 0.0
C660 C 0.92349 0.74171 0.70351 0.0
C661 C 0.90834 0.77529 0.72878 0.0
C662 C 0.94059 0.80524 0.75728 0.0
C663 C 0.91301 0.83513 0.78106 0.0
C664 C 0.89317 0.79308 0.8099 0.0
C665 C 0.9559 0.91985 0.79092 0.0
C666 C 0.86012 0.81702 0.76143 0.0
C667 C 0.85867 0.78301 0.73128 0.0
C668 C 0.81384 0.76009 0.70881 0.0
C669 C 0.76899 0.77211 0.71746 0.0
C670 C 0.76975 0.8066 0.74818 0.0
C671 C 0.81544 0.82907 0.77051 0.0
H672 H 0.29389 0.88232 0.23285 0.0
H673 H 0.26932 0.93485 0.33156 0.0
H674 H 0.1659 0.8261 0.3264 0.0
H675 H 0.15128 0.82714 0.20494 0.0
H676 H 0.1396 0.75113 0.17578 0.0
H677 H 0.21426 0.82976 0.18718 0.0
H678 H 0.24307 0.74155 0.20219 0.0
H679 H 0.16893 0.66249 0.19015 0.0
H680 H 0.1985 0.67676 0.22938 0.0
H681 H 0.06422 0.72023 0.31043 0.0
H682 H 0.97088 0.60818 0.28575 0.0
H683 H 0.05778 0.61993 0.19708 0.0
C684 C 0.26701 0.86939 0.25347 0.0
C685 C 0.2901 0.91569 0.28285 0.0
C686 C 0.25334 0.89855 0.30918 0.0
C687 C 0.19415 0.83755 0.30636 0.0
C688 C 0.17218 0.79423 0.27699 0.0
C689 C 0.20742 0.80815 0.25107 0.0
C690 C 0.17165 0.75266 0.22217 0.0
C691 C 0.16906 0.79258 0.19597 0.0
C692 C 0.19705 0.70556 0.21028 0.0
C693 C 0.11098 0.7059 0.23603 0.0
C694 C 0.11251 0.73179 0.26763 0.0
C695 C 0.06242 0.69888 0.28578 0.0
C696 C 0.0097 0.63578 0.27159 0.0
C697 C 0.00777 0.60601 0.23976 0.0
C698 C 0.05845 0.64236 0.22145 0.0
H699 H 0.36202 0.35789 0.75151 0.0
H700 H 0.54755 0.46003 0.72838 0.0
H701 H 0.52573 0.33589 0.7053 0.0
H702 H 0.34529 0.19953 0.77748 0.0
H703 H 0.26924 0.1357 0.76252 0.0
H704 H 0.29811 0.23328 0.77391 0.0
H705 H 0.26884 0.24022 0.7183 0.0
H706 H 0.23979 0.14257 0.70674 0.0
H707 H 0.29581 0.21101 0.68386 0.0
H708 H 0.48428 0.19838 0.68753 0.0
H709 H 0.42773 0.06021 0.6779 0.0
H710 H 0.27051 0.04756 0.7151 0.0
C711 C 0.39818 0.35433 0.74165 0.0
C712 C 0.4566 0.41907 0.74175 0.0
C713 C 0.50225 0.41172 0.72807 0.0
C714 C 0.49032 0.34121 0.7151 0.0
C715 C 0.43248 0.27837 0.71607 0.0
C716 C 0.38718 0.28436 0.72905 0.0
C717 C 0.32969 0.20803 0.72889 0.0
C718 C 0.30941 0.19329 0.76271 0.0
C719 C 0.28064 0.20001 0.70821 0.0
C720 C 0.34978 0.1579 0.71414 0.0
C721 C 0.40906 0.19954 0.70658 0.0
C722 C 0.43776 0.16542 0.69316 0.0
C723 C 0.40522 0.08693 0.68759 0.0
C724 C 0.34477 0.04329 0.69561 0.0
C725 C 0.31677 0.0795 0.70889 0.0
H726 H 0.20599 0.23255 0.22357 0.0
H727 H 0.17247 0.14468 0.31272 0.0
H728 H 0.0696 0.10765 0.30861 0.0
H729 H 0.14499 0.33416 0.25346 0.0
H730 H 0.11857 0.334 0.21547 0.0
H731 H 0.18219 0.32816 0.21824 0.0
H732 H 0.12907 0.20616 0.1781 0.0
H733 H 0.06459 0.21099 0.17587 0.0
H734 H 0.05655 0.12839 0.18631 0.0
H735 H 0.96939 0.08189 0.29518 0.0
H736 H 0.8946 0.10969 0.28675 0.0
H737 H 0.01098 0.26293 0.22219 0.0
C738 C 0.17825 0.2065 0.24265 0.0
C739 C 0.19861 0.18909 0.26781 0.0
C740 C 0.15843 0.15372 0.2917 0.0
C741 C 0.09929 0.13303 0.28983 0.0
C742 C 0.08149 0.15213 0.26495 0.0
C743 C 0.12082 0.19168 0.24275 0.0
C744 C 0.09657 0.22431 0.224 0.0
C745 C 0.13801 0.31022 0.22806 0.0
C746 C 0.08607 0.19041 0.18899 0.0
C747 C 0.0381 0.19828 0.23983 0.0
C748 C 0.02871 0.15263 0.26184 0.0
C749 C 0.97711 0.11963 0.27876 0.0
C750 C 0.93551 0.1373 0.27435 0.0
C751 C 0.94797 0.1921 0.25524 0.0
C752 C -0.00087 0.22076 0.2369 0.0
H753 H 0.96298 0.37216 0.72753 0.0
H754 H 0.94781 0.45736 0.82282 0.0
H755 H 0.8397 0.35933 0.82013 0.0
H756 H 0.81889 0.32088 0.69619 0.0
H757 H 0.80515 0.23733 0.67202 0.0
H758 H 0.88058 0.31679 0.68082 0.0
H759 H 0.90776 0.23413 0.70382 0.0
H760 H 0.83287 0.15448 0.6945 0.0
H761 H 0.86355 0.1804 0.73436 0.0
H762 H 0.73489 0.24781 0.808 0.0
H763 H 0.64298 0.1254 0.78859 0.0
H764 H 0.72723 0.11535 0.70124 0.0
C765 C 0.93658 0.37006 0.74768 0.0
C766 C 0.9631 0.4211 0.77546 0.0
C767 C 0.92793 0.4173 0.80156 0.0
C768 C 0.86657 0.36265 0.80008 0.0
C769 C 0.84141 0.31294 0.77224 0.0
C770 C 0.87538 0.31589 0.74657 0.0
C771 C 0.83835 0.25324 0.72018 0.0
C772 C 0.83559 0.28393 0.69055 0.0
C773 C 0.86203 0.20257 0.71281 0.0
C774 C 0.77855 0.21365 0.73524 0.0
C775 C 0.78091 0.24941 0.7651 0.0
C776 C 0.73214 0.21994 0.78445 0.0
C777 C 0.68023 0.15083 0.77329 0.0
C778 C 0.67802 0.11262 0.74324 0.0
C779 C 0.72719 0.1452 0.72379 0.0
loop_
_geom_bond_atom_site_label_1
_geom_bond_atom_site_label_2
_geom_bond_distance
_geom_bond_site_symmetry_2
_ccdc_geom_bond_type
C0 C1 1.388 . S
C0 N3 1.338 . S
C0 C5 1.503 . S
C1 C0 1.388 . S
C1 C2 1.396 . S
C2 C1 1.396 . S
C2 N4 1.348 . S
C2 C9 1.504 . S
N3 C0 1.338 . S
N3 N4 1.361 . S
N3 Cu168 1.924 . S
N4 C2 1.348 . S
N4 N3 1.361 . S
N4 Cu169 1.964 . S
C5 C0 1.503 . S
C5 H6 0.979 . S
C5 H7 0.979 . S
C5 H8 0.979 . S
H6 C5 0.979 . S
H7 C5 0.979 . S
H8 C5 0.979 . S
C9 C2 1.504 . S
C9 H10 0.981 . S
C9 H11 0.980 . S
C9 H12 0.979 . S
H10 C9 0.981 . S
H11 C9 0.980 . S
H12 C9 0.979 . S
C13 C15 1.402 . S
C13 N16 1.356 . S
C13 C21 1.481 1_655 S
C14 C15 1.400 . S
C14 N17 1.325 . S
C14 C25 1.503 . S
C15 C13 1.402 . S
C15 C14 1.400 . S
N16 C13 1.356 . S
N16 N17 1.365 . S
N16 Cu175 1.941 . S
N17 C14 1.325 . S
N17 N16 1.365 . S
N17 Cu172 1.924 . S
H18 C21 0.980 . S
H19 C21 0.980 . S
H20 C21 0.980 1_655 S
C21 C13 1.481 1_455 S
C21 H18 0.980 . S
C21 H19 0.980 . S
C21 H20 0.980 1_455 S
H22 C25 0.978 . S
H23 C25 0.978 . S
H24 C25 0.983 . S
C25 C14 1.503 . S
C25 H22 0.978 . S
C25 H23 0.978 . S
C25 H24 0.983 . S
C26 H180 0.979 . S
C26 H181 0.981 . S
C26 H182 0.981 . S
C26 O216 1.438 . S
C27 H183 0.980 . S
C27 H184 0.979 . S
C27 H185 0.980 . S
C27 O217 1.533 . S
C28 N29 1.338 . S
C28 C31 1.388 . S
C28 C36 1.503 . S
N29 C28 1.338 . S
N29 N30 1.361 . S
N29 Cu170 1.924 . S
N30 N29 1.361 . S
N30 C32 1.348 . S
N30 Cu171 1.964 . S
C31 C28 1.388 . S
C31 C32 1.396 . S
C32 N30 1.348 . S
C32 C31 1.396 . S
C32 C40 1.504 . S
H33 C36 0.979 . S
H34 C36 0.979 . S
H35 C36 0.979 . S
C36 C28 1.503 . S
C36 H33 0.979 . S
C36 H34 0.979 . S
C36 H35 0.979 . S
H37 C40 0.981 . S
H38 C40 0.980 . S
H39 C40 0.979 . S
C40 C32 1.504 . S
C40 H37 0.981 . S
C40 H38 0.980 . S
C40 H39 0.979 . S
C41 N43 1.356 . S
C41 C45 1.402 . S
C41 C49 1.481 . S
C42 N44 1.325 . S
C42 C45 1.400 . S
C42 C50 1.503 . S
N43 C41 1.356 . S
N43 N44 1.365 . S
N43 Cu177 1.941 . S
N44 C42 1.325 . S
N44 N43 1.365 . S
N44 Cu168 1.924 . S
C45 C41 1.402 . S
C45 C42 1.400 . S
H46 C49 0.980 . S
H47 C49 0.980 . S
H48 C49 0.980 . S
C49 C41 1.481 . S
C49 H46 0.980 . S
C49 H47 0.980 . S
C49 H48 0.980 . S
C50 C42 1.503 . S
C50 H51 0.978 . S
C50 H52 0.978 . S
C50 H53 0.983 . S
H51 C50 0.978 . S
H52 C50 0.978 . S
H53 C50 0.983 . S
C54 H186 0.979 . S
C54 H187 0.981 . S
C54 H188 0.981 . S
C54 O218 1.438 . S
C55 H189 0.980 . S
C55 H190 0.979 . S
C55 H191 0.980 . S
C55 O219 1.533 . S
C56 N57 1.338 . S
C56 C58 1.388 . S
C56 C64 1.503 . S
N57 C56 1.338 . S
N57 N59 1.361 . S
N57 Cu172 1.924 . S
C58 C56 1.388 . S
C58 C60 1.396 . S
N59 N57 1.361 . S
N59 C60 1.348 . S
N59 Cu173 1.964 . S
C60 C58 1.396 . S
C60 N59 1.348 . S
C60 C66 1.504 . S
H61 C64 0.979 . S
H62 C64 0.979 . S
H63 C64 0.979 . S
C64 C56 1.503 . S
C64 H61 0.979 . S
C64 H62 0.979 . S
C64 H63 0.979 . S
H65 C66 0.981 . S
C66 C60 1.504 . S
C66 H65 0.981 . S
C66 H67 0.979 . S
C66 H68 0.980 . S
H67 C66 0.979 . S
H68 C66 0.980 . S
C69 N71 1.356 . S
C69 C73 1.402 . S
C69 C75 1.481 . S
C70 N72 1.325 . S
C70 C73 1.400 . S
C70 C80 1.503 . S
N71 C69 1.356 . S
N71 N72 1.365 . S
N71 Cu179 1.941 . S
N72 C70 1.325 . S
N72 N71 1.365 . S
N72 Cu170 1.924 . S
C73 C69 1.402 . S
C73 C70 1.400 . S
H74 C75 0.980 . S
C75 C69 1.481 . S
C75 H74 0.980 . S
C75 H76 0.980 . S
C75 H77 0.980 . S
H76 C75 0.980 . S
H77 C75 0.980 . S
H78 C80 0.978 . S
H79 C80 0.978 . S
C80 C70 1.503 . S
C80 H78 0.978 . S
C80 H79 0.978 . S
C80 H81 0.983 . S
H81 C80 0.983 . S
C82 H192 0.979 . S
C82 H193 0.981 . S
C82 H194 0.981 . S
C82 O220 1.438 . S
C83 H195 0.980 . S
C83 H196 0.979 . S
C83 H197 0.980 . S
C83 O221 1.533 . S
C84 N85 1.338 . S
C84 C86 1.388 . S
C84 C89 1.502 . S
N85 C84 1.338 . S
N85 N88 1.361 . S
N85 Cu174 1.924 . S
C86 C84 1.388 . S
C86 C87 1.396 . S
C87 C86 1.396 . S
C87 N88 1.348 . S
C87 C93 1.504 . S
N88 N85 1.361 . S
N88 C87 1.348 . S
N88 Cu175 1.964 . S
C89 C84 1.502 . S
C89 H90 0.981 1_655 S
C89 H91 0.981 1_655 S
C89 H92 0.978 . S
H90 C89 0.981 1_455 S
H91 C89 0.981 1_455 S
H92 C89 0.978 . S
C93 C87 1.504 . S
C93 H94 0.981 . S
C93 H95 0.980 . S
C93 H96 0.979 . S
H94 C93 0.981 . S
H95 C93 0.980 . S
H96 C93 0.979 . S
C97 C98 1.402 . S
C97 N100 1.356 . S
C97 C105 1.481 . S
C98 C97 1.402 . S
C98 C99 1.400 . S
C99 C98 1.400 . S
C99 N101 1.325 . S
C99 C106 1.503 . S
N100 C97 1.356 . S
N100 N101 1.365 . S
N100 Cu169 1.941 . S
N101 C99 1.325 . S
N101 N100 1.365 . S
N101 Cu178 1.924 . S
H102 C105 0.980 . S
H103 C105 0.980 . S
H104 C105 0.980 . S
C105 C97 1.481 . S
C105 H102 0.980 . S
C105 H103 0.980 . S
C105 H104 0.980 . S
C106 C99 1.503 . S
C106 H107 0.978 . S
C106 H108 0.978 . S
C106 H109 0.983 . S
H107 C106 0.978 . S
H108 C106 0.978 . S
H109 C106 0.983 . S
C110 H198 0.979 . S
C110 H199 0.981 . S
C110 H200 0.981 . S
C110 O222 1.438 . S
C111 H201 0.980 . S
C111 H202 0.979 . S
C111 H203 0.980 . S
C111 O223 1.533 . S
C112 C113 1.388 . S
C112 N115 1.338 . S
C112 C117 1.503 . S
C113 C112 1.388 . S
C113 C114 1.396 . S
C114 C113 1.396 . S
C114 N116 1.348 . S
C114 C121 1.504 . S
N115 C112 1.338 . S
N115 N116 1.361 . S
N115 Cu176 1.924 . S
N116 C114 1.348 . S
N116 N115 1.361 . S
N116 Cu177 1.964 . S
C117 C112 1.503 . S
C117 H118 0.979 . S
C117 H119 0.979 . S
C117 H120 0.979 . S
H118 C117 0.979 . S
H119 C117 0.979 . S
H120 C117 0.979 . S
C121 C114 1.504 . S
C121 H122 0.981 . S
C121 H123 0.980 . S
C121 H124 0.979 . S
H122 C121 0.981 . S
H123 C121 0.980 . S
H124 C121 0.979 . S
C125 C126 1.402 . S
C125 N128 1.356 . S
C125 C130 1.481 . S
C126 C125 1.402 . S
C126 C127 1.400 . S
C127 C126 1.400 . S
C127 N129 1.325 . S
C127 C134 1.503 1_655 S
N128 C125 1.356 . S
N128 N129 1.365 . S
N128 Cu171 1.941 . S
N129 C127 1.325 . S
N129 N128 1.365 . S
N129 Cu174 1.924 . S
C130 C125 1.481 . S
C130 H131 0.980 . S
C130 H132 0.980 . S
C130 H133 0.980 . S
H131 C130 0.980 . S
H132 C130 0.980 . S
H133 C130 0.980 . S
C134 C127 1.503 1_455 S
C134 H135 0.978 . S
C134 H136 0.978 . S
C134 H137 0.983 . S
H135 C134 0.978 . S
H136 C134 0.978 . S
H137 C134 0.983 . S
C138 H204 0.979 . S
C138 H205 0.981 . S
C138 H206 0.981 . S
C138 O224 1.438 . S
C139 H207 0.980 . S
C139 H208 0.979 . S
C139 H209 0.980 . S
C139 O225 1.533 . S
C140 N141 1.338 . S
C140 C143 1.388 . S
C140 C148 1.503 . S
N141 C140 1.338 . S
N141 N142 1.361 . S
N141 Cu178 1.924 . S
N142 N141 1.361 . S
N142 C144 1.348 . S
N142 Cu179 1.964 . S
C143 C140 1.388 . S
C143 C144 1.396 . S
C144 N142 1.348 . S
C144 C143 1.396 . S
C144 C152 1.504 . S
H145 C148 0.979 . S
H146 C148 0.979 . S
H147 C148 0.979 . S
C148 C140 1.503 . S
C148 H145 0.979 . S
C148 H146 0.979 . S
C148 H147 0.979 . S
H149 C152 0.981 . S
H150 C152 0.980 . S
H151 C152 0.979 . S
C152 C144 1.504 . S
C152 H149 0.981 . S
C152 H150 0.980 . S
C152 H151 0.979 . S
C153 N154 1.356 . S
C153 C156 1.402 . S
C153 C158 1.481 . S
N154 C153 1.356 . S
N154 N155 1.365 . S
N154 Cu173 1.941 . S
N155 N154 1.365 . S
N155 C157 1.325 . S
N155 Cu176 1.924 . S
C156 C153 1.402 . S
C156 C157 1.400 . S
C157 N155 1.325 . S
C157 C156 1.400 . S
C157 C162 1.503 . S
C158 C153 1.481 . S
C158 H159 0.980 . S
C158 H160 0.980 . S
C158 H161 0.980 . S
H159 C158 0.980 . S
H160 C158 0.980 . S
H161 C158 0.980 . S
C162 C157 1.503 . S
C162 H163 0.978 . S
C162 H164 0.978 . S
C162 H165 0.983 . S
H163 C162 0.978 . S
H164 C162 0.978 . S
H165 C162 0.983 . S
C166 H210 0.979 . S
C166 H211 0.981 . S
C166 H212 0.981 . S
C166 O226 1.438 . S
C167 H213 0.980 . S
C167 H214 0.979 . S
C167 H215 0.980 . S
C167 O227 1.533 . S
Cu168 N3 1.924 . S
Cu168 N44 1.924 . S
Cu168 O216 1.923 . S
Cu168 O217 1.930 . S
Cu169 N4 1.964 . S
Cu169 N100 1.941 . S
Cu169 O216 1.905 . S
Cu169 O227 1.920 . S
Cu170 N29 1.924 . S
Cu170 N72 1.924 . S
Cu170 O218 1.923 . S
Cu170 O219 1.930 . S
Cu171 N30 1.964 . S
Cu171 N128 1.941 . S
Cu171 O218 1.905 . S
Cu171 O223 1.920 . S
Cu172 N17 1.924 . S
Cu172 N57 1.924 . S
Cu172 O220 1.923 . S
Cu172 O221 1.930 . S
Cu173 N59 1.964 . S
Cu173 N154 1.941 . S
Cu173 O220 1.905 . S
Cu173 O225 1.920 . S
Cu174 N85 1.924 . S
Cu174 N129 1.924 . S
Cu174 O222 1.923 . S
Cu174 O223 1.930 . S
Cu175 N16 1.941 . S
Cu175 N88 1.964 . S
Cu175 O221 1.920 . S
Cu175 O222 1.905 . S
Cu176 N115 1.924 . S
Cu176 N155 1.924 . S
Cu176 O224 1.923 . S
Cu176 O225 1.930 . S
Cu177 N43 1.941 . S
Cu177 N116 1.964 . S
Cu177 O217 1.920 . S
Cu177 O224 1.905 . S
Cu178 N101 1.924 . S
Cu178 N141 1.924 . S
Cu178 O226 1.923 . S
Cu178 O227 1.930 . S
Cu179 N71 1.941 . S
Cu179 N142 1.964 . S
Cu179 O219 1.920 . S
Cu179 O226 1.905 . S
H180 C26 0.979 . S
H181 C26 0.981 . S
H182 C26 0.981 . S
H183 C27 0.980 . S
H184 C27 0.979 . S
H185 C27 0.980 . S
H186 C54 0.979 . S
H187 C54 0.981 . S
H188 C54 0.981 . S
H189 C55 0.980 . S
H190 C55 0.979 . S
H191 C55 0.980 . S
H192 C82 0.979 . S
H193 C82 0.981 . S
H194 C82 0.981 . S
H195 C83 0.980 . S
H196 C83 0.979 . S
H197 C83 0.980 . S
H198 C110 0.979 . S
H199 C110 0.981 . S
H200 C110 0.981 . S
H201 C111 0.980 . S
H202 C111 0.979 . S
H203 C111 0.980 . S
H204 C138 0.979 . S
H205 C138 0.981 . S
H206 C138 0.981 . S
H207 C139 0.980 . S
H208 C139 0.979 . S
H209 C139 0.980 . S
H210 C166 0.979 . S
H211 C166 0.981 . S
H212 C166 0.981 . S
H213 C167 0.980 . S
H214 C167 0.979 . S
H215 C167 0.980 . S
O216 C26 1.438 . S
O216 Cu168 1.923 . S
O216 Cu169 1.905 . S
O217 C27 1.533 . S
O217 Cu168 1.930 . S
O217 Cu177 1.920 . S
O218 C54 1.438 . S
O218 Cu170 1.923 . S
O218 Cu171 1.905 . S
O219 C55 1.533 . S
O219 Cu170 1.930 . S
O219 Cu179 1.920 . S
O220 C82 1.438 . S
O220 Cu172 1.923 . S
O220 Cu173 1.905 . S
O221 C83 1.533 . S
O221 Cu172 1.930 . S
O221 Cu175 1.920 . S
O222 C110 1.438 . S
O222 Cu174 1.923 . S
O222 Cu175 1.905 . S
O223 C111 1.533 . S
O223 Cu171 1.920 . S
O223 Cu174 1.930 . S
O224 C138 1.438 . S
O224 Cu176 1.923 . S
O224 Cu177 1.905 . S
O225 C139 1.533 . S
O225 Cu173 1.920 . S
O225 Cu176 1.930 . S
O226 C166 1.438 . S
O226 Cu178 1.923 . S
O226 Cu179 1.905 . S
O227 C167 1.533 . S
O227 Cu169 1.920 . S
O227 Cu178 1.930 . S
C228 C229 1.388 . S
C228 N231 1.338 . S
C228 C233 1.502 . S
C229 C228 1.388 . S
C229 C230 1.396 . S
C230 C229 1.396 . S
C230 N232 1.348 . S
C230 C237 1.504 . S
N231 C228 1.338 . S
N231 N232 1.361 . S
N231 Cu396 1.924 . S
N232 C230 1.348 . S
N232 N231 1.361 . S
N232 Cu397 1.964 . S
C233 C228 1.502 . S
C233 H234 0.981 1_455 S
C233 H235 0.980 1_455 S
C233 H236 0.978 . S
H234 C233 0.981 1_655 S
H235 C233 0.980 1_655 S
H236 C233 0.978 . S
C237 C230 1.504 . S
C237 H238 0.981 . S
C237 H239 0.980 . S
C237 H240 0.979 . S
H238 C237 0.981 . S
H239 C237 0.980 . S
H240 C237 0.979 . S
C241 C243 1.402 . S
C241 N244 1.356 . S
C241 C249 1.481 . S
C242 C243 1.400 . S
C242 N245 1.325 . S
C242 C253 1.503 . S
C243 C241 1.402 . S
C243 C242 1.400 . S
N244 C241 1.356 . S
N244 N245 1.365 . S
N244 Cu403 1.941 . S
N245 C242 1.325 . S
N245 N244 1.365 . S
N245 Cu400 1.924 . S
H246 C249 0.980 . S
H247 C249 0.980 . S
H248 C249 0.980 . S
C249 C241 1.481 . S
C249 H246 0.980 . S
C249 H247 0.980 . S
C249 H248 0.980 . S
H250 C253 0.978 . S
H251 C253 0.978 . S
H252 C253 0.983 . S
C253 C242 1.503 . S
C253 H250 0.978 . S
C253 H251 0.978 . S
C253 H252 0.983 . S
C254 H408 0.979 . S
C254 H409 0.981 . S
C254 H410 0.981 . S
C254 O444 1.438 . S
C255 H411 0.980 . S
C255 H412 0.979 . S
C255 H413 0.980 . S
C255 O445 1.533 . S
C256 N257 1.338 . S
C256 C259 1.388 . S
C256 C264 1.503 . S
N257 C256 1.338 . S
N257 N258 1.361 . S
N257 Cu398 1.924 . S
N258 N257 1.361 . S
N258 C260 1.348 . S
N258 Cu399 1.964 . S
C259 C256 1.388 . S
C259 C260 1.396 . S
C260 N258 1.348 . S
C260 C259 1.396 . S
C260 C268 1.504 . S
H261 C264 0.979 . S
H262 C264 0.979 . S
H263 C264 0.979 . S
C264 C256 1.503 . S
C264 H261 0.979 . S
C264 H262 0.979 . S
C264 H263 0.979 . S
H265 C268 0.981 . S
H266 C268 0.980 . S
H267 C268 0.979 . S
C268 C260 1.504 . S
C268 H265 0.981 . S
C268 H266 0.980 . S
C268 H267 0.979 . S
C269 N271 1.356 . S
C269 C273 1.402 . S
C269 C277 1.481 . S
C270 N272 1.325 . S
C270 C273 1.400 . S
C270 C278 1.503 1_455 S
N271 C269 1.356 . S
N271 N272 1.365 . S
N271 Cu405 1.941 . S
N272 C270 1.325 . S
N272 N271 1.365 . S
N272 Cu396 1.924 . S
C273 C269 1.402 . S
C273 C270 1.400 . S
H274 C277 0.980 . S
H275 C277 0.980 . S
H276 C277 0.980 . S
C277 C269 1.481 . S
C277 H274 0.980 . S
C277 H275 0.980 . S
C277 H276 0.980 . S
C278 C270 1.503 1_655 S
C278 H279 0.978 . S
C278 H280 0.978 . S
C278 H281 0.983 . S
H279 C278 0.978 . S
H280 C278 0.978 . S
H281 C278 0.983 . S
C282 H414 0.979 . S
C282 H415 0.981 . S
C282 H416 0.981 . S
C282 O446 1.438 . S
C283 H417 0.980 . S
C283 H418 0.979 . S
C283 H419 0.980 . S
C283 O447 1.533 . S
C284 N285 1.338 . S
C284 C286 1.388 . S
C284 C292 1.503 . S
N285 C284 1.338 . S
N285 N287 1.361 . S
N285 Cu400 1.924 . S
C286 C284 1.388 . S
C286 C288 1.396 . S
N287 N285 1.361 . S
N287 C288 1.348 . S
N287 Cu401 1.964 . S
C288 C286 1.396 . S
C288 N287 1.348 . S
C288 C294 1.504 . S
H289 C292 0.979 . S
H290 C292 0.979 . S
H291 C292 0.979 . S
C292 C284 1.503 . S
C292 H289 0.979 . S
C292 H290 0.979 . S
C292 H291 0.979 . S
H293 C294 0.981 . S
C294 C288 1.504 . S
C294 H293 0.981 . S
C294 H295 0.979 . S
C294 H296 0.980 . S
H295 C294 0.979 . S
H296 C294 0.980 . S
C297 N299 1.356 . S
C297 C301 1.402 . S
C297 C303 1.481 . S
C298 N300 1.325 . S
C298 C301 1.400 . S
C298 C308 1.503 . S
N299 C297 1.356 . S
N299 N300 1.365 . S
N299 Cu407 1.941 . S
N300 C298 1.325 . S
N300 N299 1.365 . S
N300 Cu398 1.924 . S
C301 C297 1.402 . S
C301 C298 1.400 . S
H302 C303 0.980 . S
C303 C297 1.481 . S
C303 H302 0.980 . S
C303 H304 0.980 . S
C303 H305 0.980 . S
H304 C303 0.980 . S
H305 C303 0.980 . S
H306 C308 0.978 . S
H307 C308 0.978 . S
C308 C298 1.503 . S
C308 H306 0.978 . S
C308 H307 0.978 . S
C308 H309 0.983 . S
H309 C308 0.983 . S
C310 H420 0.979 . S
C310 H421 0.981 . S
C310 H422 0.981 . S
C310 O448 1.438 . S
C311 H423 0.980 . S
C311 H424 0.979 . S
C311 H425 0.980 . S
C311 O449 1.533 . S
C312 N313 1.338 . S
C312 C314 1.388 . S
C312 C317 1.503 . S
N313 C312 1.338 . S
N313 N316 1.361 . S
N313 Cu402 1.924 . S
C314 C312 1.388 . S
C314 C315 1.396 . S
C315 C314 1.396 . S
C315 N316 1.348 . S
C315 C321 1.504 . S
N316 N313 1.361 . S
N316 C315 1.348 . S
N316 Cu403 1.964 . S
C317 C312 1.503 . S
C317 H318 0.979 . S
C317 H319 0.979 . S
C317 H320 0.979 . S
H318 C317 0.979 . S
H319 C317 0.979 . S
H320 C317 0.979 . S
C321 C315 1.504 . S
C321 H322 0.981 . S
C321 H323 0.980 . S
C321 H324 0.979 . S
H322 C321 0.981 . S
H323 C321 0.980 . S
H324 C321 0.979 . S
C325 C326 1.402 . S
C325 N328 1.356 . S
C325 C333 1.481 1_455 S
C326 C325 1.402 . S
C326 C327 1.400 . S
C327 C326 1.400 . S
C327 N329 1.325 . S
C327 C334 1.503 . S
N328 C325 1.356 . S
N328 N329 1.365 . S
N328 Cu397 1.941 . S
N329 C327 1.325 . S
N329 N328 1.365 . S
N329 Cu406 1.924 . S
H330 C333 0.980 . S
H331 C333 0.980 . S
H332 C333 0.980 1_455 S
C333 C325 1.481 1_655 S
C333 H330 0.980 . S
C333 H331 0.980 . S
C333 H332 0.980 1_655 S
C334 C327 1.503 . S
C334 H335 0.978 . S
C334 H336 0.978 . S
C334 H337 0.983 . S
H335 C334 0.978 . S
H336 C334 0.978 . S
H337 C334 0.983 . S
C338 H426 0.979 . S
C338 H427 0.981 . S
C338 H428 0.981 . S
C338 O450 1.438 . S
C339 H429 0.980 . S
C339 H430 0.979 . S
C339 H431 0.980 . S
C339 O451 1.533 . S
C340 C341 1.388 . S
C340 N343 1.338 . S
C340 C345 1.503 . S
C341 C340 1.388 . S
C341 C342 1.396 . S
C342 C341 1.396 . S
C342 N344 1.348 . S
C342 C349 1.504 . S
N343 C340 1.338 . S
N343 N344 1.361 . S
N343 Cu404 1.924 . S
N344 C342 1.348 . S
N344 N343 1.361 . S
N344 Cu405 1.964 . S
C345 C340 1.503 . S
C345 H346 0.979 . S
C345 H347 0.979 . S
C345 H348 0.979 . S
H346 C345 0.979 . S
H347 C345 0.979 . S
H348 C345 0.979 . S
C349 C342 1.504 . S
C349 H350 0.981 . S
C349 H351 0.980 . S
C349 H352 0.979 . S
H350 C349 0.981 . S
H351 C349 0.980 . S
H352 C349 0.979 . S
C353 C354 1.402 . S
C353 N356 1.356 . S
C353 C358 1.481 . S
C354 C353 1.402 . S
C354 C355 1.400 . S
C355 C354 1.400 . S
C355 N357 1.325 . S
C355 C362 1.503 . S
N356 C353 1.356 . S
N356 N357 1.365 . S
N356 Cu399 1.941 . S
N357 C355 1.325 . S
N357 N356 1.365 . S
N357 Cu402 1.924 . S
C358 C353 1.481 . S
C358 H359 0.980 . S
C358 H360 0.980 . S
C358 H361 0.980 . S
H359 C358 0.980 . S
H360 C358 0.980 . S
H361 C358 0.980 . S
C362 C355 1.503 . S
C362 H363 0.978 . S
C362 H364 0.978 . S
C362 H365 0.983 . S
H363 C362 0.978 . S
H364 C362 0.978 . S
H365 C362 0.983 . S
C366 H432 0.979 . S
C366 H433 0.981 . S
C366 H434 0.981 . S
C366 O452 1.438 . S
C367 H435 0.980 . S
C367 H436 0.979 . S
C367 H437 0.980 . S
C367 O453 1.533 . S
C368 N369 1.338 . S
C368 C371 1.388 . S
C368 C376 1.503 . S
N369 C368 1.338 . S
N369 N370 1.361 . S
N369 Cu406 1.924 . S
N370 N369 1.361 . S
N370 C372 1.348 . S
N370 Cu407 1.964 . S
C371 C368 1.388 . S
C371 C372 1.396 . S
C372 N370 1.348 . S
C372 C371 1.396 . S
C372 C380 1.504 . S
H373 C376 0.979 . S
H374 C376 0.979 . S
H375 C376 0.979 . S
C376 C368 1.503 . S
C376 H373 0.979 . S
C376 H374 0.979 . S
C376 H375 0.979 . S
H377 C380 0.981 . S
H378 C380 0.980 . S
H379 C380 0.979 . S
C380 C372 1.504 . S
C380 H377 0.981 . S
C380 H378 0.980 . S
C380 H379 0.979 . S
C381 N382 1.356 . S
C381 C384 1.402 . S
C381 C386 1.481 . S
N382 C381 1.356 . S
N382 N383 1.365 . S
N382 Cu401 1.941 . S
N383 N382 1.365 . S
N383 C385 1.325 . S
N383 Cu404 1.924 . S
C384 C381 1.402 . S
C384 C385 1.400 . S
C385 N383 1.325 . S
C385 C384 1.400 . S
C385 C390 1.503 . S
C386 C381 1.481 . S
C386 H387 0.980 . S
C386 H388 0.980 . S
C386 H389 0.980 . S
H387 C386 0.980 . S
H388 C386 0.980 . S
H389 C386 0.980 . S
C390 C385 1.503 . S
C390 H391 0.978 . S
C390 H392 0.978 . S
C390 H393 0.983 . S
H391 C390 0.978 . S
H392 C390 0.978 . S
H393 C390 0.983 . S
C394 H438 0.979 . S
C394 H439 0.981 . S
C394 H440 0.981 . S
C394 O454 1.438 . S
C395 H441 0.980 . S
C395 H442 0.979 . S
C395 H443 0.980 . S
C395 O455 1.533 . S
Cu396 N231 1.924 . S
Cu396 N272 1.924 . S
Cu396 O444 1.923 . S
Cu396 O445 1.930 . S
Cu397 N232 1.964 . S
Cu397 N328 1.941 . S
Cu397 O444 1.905 . S
Cu397 O455 1.920 . S
Cu398 N257 1.924 . S
Cu398 N300 1.924 . S
Cu398 O446 1.923 . S
Cu398 O447 1.930 . S
Cu399 N258 1.964 . S
Cu399 N356 1.941 . S
Cu399 O446 1.905 . S
Cu399 O451 1.920 . S
Cu400 N245 1.924 . S
Cu400 N285 1.924 . S
Cu400 O448 1.923 . S
Cu400 O449 1.930 . S
Cu401 N287 1.964 . S
Cu401 N382 1.941 . S
Cu401 O448 1.905 . S
Cu401 O453 1.920 . S
Cu402 N313 1.924 . S
Cu402 N357 1.924 . S
Cu402 O450 1.923 . S
Cu402 O451 1.930 . S
Cu403 N244 1.941 . S
Cu403 N316 1.964 . S
Cu403 O449 1.920 . S
Cu403 O450 1.905 . S
Cu404 N343 1.924 . S
Cu404 N383 1.924 . S
Cu404 O452 1.923 . S
Cu404 O453 1.930 . S
Cu405 N271 1.941 . S
Cu405 N344 1.964 . S
Cu405 O445 1.920 . S
Cu405 O452 1.905 . S
Cu406 N329 1.924 . S
Cu406 N369 1.924 . S
Cu406 O454 1.923 . S
Cu406 O455 1.930 . S
Cu407 N299 1.941 . S
Cu407 N370 1.964 . S
Cu407 O447 1.920 . S
Cu407 O454 1.905 . S
H408 C254 0.979 . S
H409 C254 0.981 . S
H410 C254 0.981 . S
H411 C255 0.980 . S
H412 C255 0.979 . S
H413 C255 0.980 . S
H414 C282 0.979 . S
H415 C282 0.981 . S
H416 C282 0.981 . S
H417 C283 0.980 . S
H418 C283 0.979 . S
H419 C283 0.980 . S
H420 C310 0.979 . S
H421 C310 0.981 . S
H422 C310 0.981 . S
H423 C311 0.980 . S
H424 C311 0.979 . S
H425 C311 0.980 . S
H426 C338 0.979 . S
H427 C338 0.981 . S
H428 C338 0.981 . S
H429 C339 0.980 . S
H430 C339 0.979 . S
H431 C339 0.980 . S
H432 C366 0.979 . S
H433 C366 0.981 . S
H434 C366 0.981 . S
H435 C367 0.980 . S
H436 C367 0.979 . S
H437 C367 0.980 . S
H438 C394 0.979 . S
H439 C394 0.981 . S
H440 C394 0.981 . S
H441 C395 0.980 . S
H442 C395 0.979 . S
H443 C395 0.980 . S
O444 C254 1.438 . S
O444 Cu396 1.923 . S
O444 Cu397 1.905 . S
O445 C255 1.533 . S
O445 Cu396 1.930 . S
O445 Cu405 1.920 . S
O446 C282 1.438 . S
O446 Cu398 1.923 . S
O446 Cu399 1.905 . S
O447 C283 1.533 . S
O447 Cu398 1.930 . S
O447 Cu407 1.920 . S
O448 C310 1.438 . S
O448 Cu400 1.923 . S
O448 Cu401 1.905 . S
O449 C311 1.533 . S
O449 Cu400 1.930 . S
O449 Cu403 1.920 . S
O450 C338 1.438 . S
O450 Cu402 1.923 . S
O450 Cu403 1.905 . S
O451 C339 1.533 . S
O451 Cu399 1.920 . S
O451 Cu402 1.930 . S
O452 C366 1.438 . S
O452 Cu404 1.923 . S
O452 Cu405 1.905 . S
O453 C367 1.533 . S
O453 Cu401 1.920 . S
O453 Cu404 1.930 . S
O454 C394 1.438 . S
O454 Cu406 1.923 . S
O454 Cu407 1.905 . S
O455 C395 1.533 . S
O455 Cu397 1.920 . S
O455 Cu406 1.930 . S
H456 C468 0.930 . S
H457 C470 0.930 . S
H458 C471 0.930 . S
H459 C475 0.959 . S
H460 C475 0.959 . S
H461 C475 0.961 . S
H462 C476 0.960 . S
H463 C476 0.961 . S
H464 C476 0.959 . S
H465 C479 0.929 . S
H466 C480 0.931 . S
H467 C482 0.930 . S
C468 H456 0.930 . S
C468 C469 1.399 . S
C468 C473 1.399 . S
C469 C468 1.399 . S
C469 C470 1.376 . S
C470 H457 0.930 . S
C470 C469 1.376 . S
C470 C471 1.388 . S
C471 H458 0.930 . S
C471 C470 1.388 . S
C471 C472 1.390 . S
C472 C471 1.390 . S
C472 C473 1.394 . S
C472 C478 1.465 1_556 S
C473 C468 1.399 . S
C473 C472 1.394 . S
C473 C474 1.516 1_565 S
C474 C473 1.516 1_545 S
C474 C475 1.502 . S
C474 C476 1.561 . S
C474 C477 1.526 1_556 S
C475 H459 0.959 . S
C475 H460 0.959 . S
C475 H461 0.961 . S
C475 C474 1.502 . S
C476 H462 0.960 . S
C476 H463 0.961 . S
C476 H464 0.959 . S
C476 C474 1.561 . S
C477 C474 1.526 1_554 S
C477 C478 1.396 1_545 S
C477 C482 1.390 . S
C478 C472 1.465 1_554 S
C478 C477 1.396 1_565 S
C478 C479 1.399 . S
C479 H465 0.929 . S
C479 C478 1.399 . S
C479 C480 1.385 1_565 S
C480 H466 0.931 . S
C480 C479 1.385 1_545 S
C480 C481 1.389 . S
C481 C480 1.389 . S
C481 C482 1.387 . S
C482 H467 0.930 . S
C482 C477 1.390 . S
C482 C481 1.387 . S
H483 C495 0.930 . S
H484 C497 0.930 . S
H485 C498 0.930 . S
H486 C502 0.959 . S
H487 C502 0.959 . S
H488 C502 0.961 . S
H489 C503 0.960 . S
H490 C503 0.961 . S
H491 C503 0.959 . S
H492 C506 0.929 . S
H493 C507 0.931 . S
H494 C509 0.930 . S
C495 H483 0.930 . S
C495 C496 1.399 . S
C495 C500 1.399 . S
C496 C495 1.399 . S
C496 C497 1.376 . S
C497 H484 0.930 . S
C497 C496 1.376 . S
C497 C498 1.388 . S
C498 H485 0.930 . S
C498 C497 1.388 . S
C498 C499 1.390 . S
C499 C498 1.390 . S
C499 C500 1.394 . S
C499 C505 1.465 . S
C500 C495 1.399 . S
C500 C499 1.394 . S
C500 C501 1.516 . S
C501 C500 1.516 . S
C501 C502 1.502 . S
C501 C503 1.561 . S
C501 C504 1.526 . S
C502 H486 0.959 . S
C502 H487 0.959 . S
C502 H488 0.961 . S
C502 C501 1.502 . S
C503 H489 0.960 . S
C503 H490 0.961 . S
C503 H491 0.959 . S
C503 C501 1.561 . S
C504 C501 1.526 . S
C504 C505 1.396 . S
C504 C509 1.390 . S
C505 C499 1.465 . S
C505 C504 1.396 . S
C505 C506 1.399 . S
C506 H492 0.929 . S
C506 C505 1.399 . S
C506 C507 1.385 . S
C507 H493 0.931 . S
C507 C506 1.385 . S
C507 C508 1.389 . S
C508 C507 1.389 . S
C508 C509 1.387 . S
C509 H494 0.930 . S
C509 C504 1.390 . S
C509 C508 1.387 . S
H510 C522 0.930 . S
H511 C524 0.930 . S
H512 C525 0.930 . S
H513 C529 0.970 . S
H514 C529 0.953 1_455 S
H515 C529 0.970 . S
H516 C530 0.960 1_554 S
H517 C530 0.961 . S
H518 C530 0.959 1_554 S
H519 C533 0.929 . S
H520 C534 0.931 . S
H521 C536 0.930 . S
C522 H510 0.930 . S
C522 C523 1.399 . S
C522 C527 1.399 1_655 S
C523 C522 1.399 . S
C523 C524 1.376 . S
C524 H511 0.930 . S
C524 C523 1.376 . S
C524 C525 1.388 . S
C525 H512 0.930 . S
C525 C524 1.388 . S
C525 C526 1.390 . S
C526 C525 1.390 . S
C526 C527 1.394 1_655 S
C526 C532 1.465 1_654 S
C527 C522 1.399 1_455 S
C527 C526 1.394 1_455 S
C527 C528 1.516 1_554 S
C528 C527 1.516 1_556 S
C528 C529 1.489 1_455 S
C528 C530 1.561 . S
C528 C531 1.526 . S
C529 H513 0.970 . S
C529 H514 0.953 1_655 S
C529 H515 0.970 . S
C529 C528 1.489 1_655 S
C530 H516 0.960 1_556 S
C530 H517 0.961 . S
C530 H518 0.959 1_556 S
C530 C528 1.561 . S
C531 C528 1.526 . S
C531 C532 1.396 . S
C531 C536 1.390 . S
C532 C526 1.465 1_456 S
C532 C531 1.396 . S
C532 C533 1.399 1_455 S
C533 H519 0.929 . S
C533 C532 1.399 1_655 S
C533 C534 1.385 1_655 S
C534 H520 0.931 . S
C534 C533 1.385 1_455 S
C534 C535 1.389 . S
C535 C534 1.389 . S
C535 C536 1.387 . S
C536 H521 0.930 . S
C536 C531 1.390 . S
C536 C535 1.387 . S
H537 C549 0.930 . S
H538 C551 0.930 . S
H539 C552 0.930 . S
H540 C556 0.959 . S
H541 C556 0.959 . S
H542 C556 0.961 . S
H543 C557 0.960 . S
H544 C557 0.961 . S
H545 C557 0.959 . S
H546 C560 0.929 . S
H547 C561 0.931 . S
H548 C563 0.930 . S
C549 H537 0.930 . S
C549 C550 1.399 . S
C549 C554 1.399 . S
C550 C549 1.399 . S
C550 C551 1.376 1_565 S
C551 H538 0.930 . S
C551 C550 1.376 1_545 S
C551 C552 1.388 . S
C552 H539 0.930 . S
C552 C551 1.388 . S
C552 C553 1.390 . S
C553 C552 1.390 . S
C553 C554 1.394 1_545 S
C553 C559 1.465 . S
C554 C549 1.399 . S
C554 C553 1.394 1_565 S
C554 C555 1.516 . S
C555 C554 1.516 . S
C555 C556 1.502 . S
C555 C557 1.561 . S
C555 C558 1.526 . S
C556 H540 0.959 . S
C556 H541 0.959 . S
C556 H542 0.961 . S
C556 C555 1.502 . S
C557 H543 0.960 . S
C557 H544 0.961 . S
C557 H545 0.959 . S
C557 C555 1.561 . S
C558 C555 1.526 . S
C558 C559 1.396 1_565 S
C558 C563 1.390 . S
C559 C553 1.465 . S
C559 C558 1.396 1_545 S
C559 C560 1.399 . S
C560 H546 0.929 . S
C560 C559 1.399 . S
C560 C561 1.385 . S
C561 H547 0.931 . S
C561 C560 1.385 . S
C561 C562 1.389 . S
C562 C561 1.389 . S
C562 C563 1.387 1_545 S
C563 H548 0.930 . S
C563 C558 1.390 . S
C563 C562 1.387 1_565 S
H564 C576 0.930 1_556 S
H565 C578 0.930 . S
H566 C579 0.930 . S
H567 C583 0.959 . S
H568 C583 0.959 . S
H569 C583 0.961 . S
H570 C584 0.960 . S
H571 C584 0.961 . S
H572 C584 0.959 . S
H573 C587 0.929 . S
H574 C588 0.931 1_554 S
H575 C590 0.930 . S
C576 H564 0.930 1_554 S
C576 C577 1.399 . S
C576 C581 1.396 1_554 S
C577 C576 1.399 . S
C577 C578 1.376 . S
C578 H565 0.930 . S
C578 C577 1.376 . S
C578 C579 1.388 . S
C579 H566 0.930 . S
C579 C578 1.388 . S
C579 C580 1.390 . S
C580 C579 1.390 . S
C580 C581 1.390 1_554 S
C580 C586 1.465 . S
C581 C576 1.396 1_556 S
C581 C580 1.390 1_556 S
C581 C582 1.523 . S
C582 C581 1.523 . S
C582 C583 1.502 . S
C582 C584 1.561 . S
C582 C585 1.526 . S
C583 H567 0.959 . S
C583 H568 0.959 . S
C583 H569 0.961 . S
C583 C582 1.502 . S
C584 H570 0.960 . S
C584 H571 0.961 . S
C584 H572 0.959 . S
C584 C582 1.561 . S
C585 C582 1.526 . S
C585 C586 1.396 1_556 S
C585 C590 1.390 . S
C586 C580 1.465 . S
C586 C585 1.396 1_554 S
C586 C587 1.399 . S
C587 H573 0.929 . S
C587 C586 1.399 . S
C587 C588 1.385 1_554 S
C588 H574 0.931 1_556 S
C588 C587 1.385 1_556 S
C588 C589 1.389 . S
C589 C588 1.389 . S
C589 C590 1.387 . S
C590 H575 0.930 . S
C590 C585 1.390 . S
C590 C589 1.387 . S
H591 C603 0.930 . S
H592 C605 0.930 . S
H593 C606 0.930 . S
H594 C610 0.959 . S
H595 C610 0.959 . S
H596 C610 0.961 . S
H597 C611 0.960 . S
H598 C611 0.961 1_455 S
H599 C611 0.959 . S
H600 C614 0.929 . S
H601 C615 0.931 . S
H602 C617 0.930 . S
C603 H591 0.930 . S
C603 C604 1.399 . S
C603 C608 1.399 . S
C604 C603 1.399 . S
C604 C605 1.376 . S
C605 H592 0.930 . S
C605 C604 1.376 . S
C605 C606 1.388 . S
C606 H593 0.930 . S
C606 C605 1.388 . S
C606 C607 1.390 . S
C607 C606 1.390 . S
C607 C608 1.394 . S
C607 C613 1.465 1_655 S
C608 C603 1.399 . S
C608 C607 1.394 . S
C608 C609 1.516 1_655 S
C609 C608 1.516 1_455 S
C609 C610 1.502 . S
C609 C611 1.561 1_455 S
C609 C612 1.526 . S
C610 H594 0.959 . S
C610 H595 0.959 . S
C610 H596 0.961 . S
C610 C609 1.502 . S
C611 H597 0.960 . S
C611 H598 0.961 1_655 S
C611 H599 0.959 . S
C611 C609 1.561 1_655 S
C612 C609 1.526 . S
C612 C613 1.396 . S
C612 C617 1.390 . S
C613 C607 1.465 1_455 S
C613 C612 1.396 . S
C613 C614 1.399 . S
C614 H600 0.929 . S
C614 C613 1.399 . S
C614 C615 1.385 . S
C615 H601 0.931 . S
C615 C614 1.385 . S
C615 C616 1.389 . S
C616 C615 1.389 . S
C616 C617 1.387 . S
C617 H602 0.930 . S
C617 C612 1.390 . S
C617 C616 1.387 . S
H618 C630 0.930 . S
H619 C632 0.927 1_545 S
H620 C633 0.930 . S
H621 C637 0.959 . S
H622 C637 0.959 . S
H623 C637 0.961 . S
H624 C638 0.960 . S
H625 C638 0.961 . S
H626 C638 0.959 . S
H627 C641 0.929 . S
H628 C642 0.931 . S
H629 C644 0.930 . S
C630 H618 0.930 . S
C630 C631 1.399 1_565 S
C630 C635 1.399 . S
C631 C630 1.399 1_545 S
C631 C632 1.374 1_545 S
C632 H619 0.927 1_565 S
C632 C631 1.374 1_565 S
C632 C633 1.394 . S
C633 H620 0.930 . S
C633 C632 1.394 . S
C633 C634 1.390 . S
C634 C633 1.390 . S
C634 C635 1.394 . S
C634 C640 1.465 . S
C635 C630 1.399 . S
C635 C634 1.394 . S
C635 C636 1.516 . S
C636 C635 1.516 . S
C636 C637 1.502 . S
C636 C638 1.561 . S
C636 C639 1.526 . S
C637 H621 0.959 . S
C637 H622 0.959 . S
C637 H623 0.961 . S
C637 C636 1.502 . S
C638 H624 0.960 . S
C638 H625 0.961 . S
C638 H626 0.959 . S
C638 C636 1.561 . S
C639 C636 1.526 . S
C639 C640 1.396 . S
C639 C644 1.390 . S
C640 C634 1.465 . S
C640 C639 1.396 . S
C640 C641 1.399 . S
C641 H627 0.929 . S
C641 C640 1.399 . S
C641 C642 1.385 . S
C642 H628 0.931 . S
C642 C641 1.385 . S
C642 C643 1.389 . S
C643 C642 1.389 . S
C643 C644 1.387 . S
C644 H629 0.930 . S
C644 C639 1.390 . S
C644 C643 1.387 . S
H645 C657 0.930 . S
H646 C659 0.930 . S
H647 C660 0.930 . S
H648 C664 0.959 . S
H649 C664 0.959 . S
H650 C664 0.961 . S
H651 C665 0.960 . S
H652 C665 0.961 . S
H653 C665 0.959 . S
H654 C668 0.929 . S
H655 C669 0.931 . S
H656 C671 0.930 . S
C657 H645 0.930 . S
C657 C658 1.399 . S
C657 C662 1.399 . S
C658 C657 1.399 . S
C658 C659 1.376 . S
C659 H646 0.930 . S
C659 C658 1.376 . S
C659 C660 1.388 . S
C660 H647 0.930 . S
C660 C659 1.388 . S
C660 C661 1.390 . S
C661 C660 1.390 . S
C661 C662 1.394 . S
C661 C667 1.465 . S
C662 C657 1.399 . S
C662 C661 1.394 . S
C662 C663 1.516 . S
C663 C662 1.516 . S
C663 C664 1.502 . S
C663 C665 1.561 . S
C663 C666 1.526 . S
C664 H648 0.959 . S
C664 H649 0.959 . S
C664 H650 0.961 . S
C664 C663 1.502 . S
C665 H651 0.960 . S
C665 H652 0.961 . S
C665 H653 0.959 . S
C665 C663 1.561 . S
C666 C663 1.526 . S
C666 C667 1.396 . S
C666 C671 1.390 . S
C667 C661 1.465 . S
C667 C666 1.396 . S
C667 C668 1.399 . S
C668 H654 0.929 . S
C668 C667 1.399 . S
C668 C669 1.385 . S
C669 H655 0.931 . S
C669 C668 1.385 . S
C669 C670 1.389 . S
C670 C669 1.389 . S
C670 C671 1.387 . S
C671 H656 0.930 . S
C671 C666 1.390 . S
C671 C670 1.387 . S
H672 C684 0.930 . S
H673 C686 0.930 . S
H674 C687 0.930 . S
H675 C691 0.959 . S
H676 C691 0.959 . S
H677 C691 0.961 . S
H678 C692 0.960 . S
H679 C692 0.961 . S
H680 C692 0.959 . S
H681 C695 0.929 . S
H682 C696 0.931 . S
H683 C698 0.930 . S
C684 H672 0.930 . S
C684 C685 1.399 . S
C684 C689 1.399 . S
C685 C684 1.399 . S
C685 C686 1.376 . S
C686 H673 0.930 . S
C686 C685 1.376 . S
C686 C687 1.388 . S
C687 H674 0.930 . S
C687 C686 1.388 . S
C687 C688 1.390 . S
C688 C687 1.390 . S
C688 C689 1.394 . S
C688 C694 1.465 . S
C689 C684 1.399 . S
C689 C688 1.394 . S
C689 C690 1.516 . S
C690 C689 1.516 . S
C690 C691 1.502 . S
C690 C692 1.561 . S
C690 C693 1.526 . S
C691 H675 0.959 . S
C691 H676 0.959 . S
C691 H677 0.961 . S
C691 C690 1.502 . S
C692 H678 0.960 . S
C692 H679 0.961 . S
C692 H680 0.959 . S
C692 C690 1.561 . S
C693 C690 1.526 . S
C693 C694 1.396 . S
C693 C698 1.390 . S
C694 C688 1.465 . S
C694 C693 1.396 . S
C694 C695 1.399 . S
C695 H681 0.929 . S
C695 C694 1.399 . S
C695 C696 1.385 . S
C696 H682 0.931 . S
C696 C695 1.385 . S
C696 C697 1.389 . S
C697 C696 1.389 . S
C697 C698 1.387 . S
C698 H683 0.930 . S
C698 C693 1.390 . S
C698 C697 1.387 . S
H699 C711 0.930 . S
H700 C713 0.930 . S
H701 C714 0.930 . S
H702 C718 0.959 . S
H703 C718 0.959 . S
H704 C718 0.961 . S
H705 C719 0.960 . S
H706 C719 0.961 . S
H707 C719 0.959 . S
H708 C722 0.929 . S
H709 C723 0.931 . S
H710 C725 0.930 . S
C711 H699 0.930 . S
C711 C712 1.399 . S
C711 C716 1.399 . S
C712 C711 1.399 . S
C712 C713 1.376 . S
C713 H700 0.930 . S
C713 C712 1.376 . S
C713 C714 1.388 . S
C714 H701 0.930 . S
C714 C713 1.388 . S
C714 C715 1.390 . S
C715 C714 1.390 . S
C715 C716 1.394 . S
C715 C721 1.465 . S
C716 C711 1.399 . S
C716 C715 1.394 . S
C716 C717 1.516 . S
C717 C716 1.516 . S
C717 C718 1.502 . S
C717 C719 1.561 . S
C717 C720 1.526 . S
C718 H702 0.959 . S
C718 H703 0.959 . S
C718 H704 0.961 . S
C718 C717 1.502 . S
C719 H705 0.960 . S
C719 H706 0.961 . S
C719 H707 0.959 . S
C719 C717 1.561 . S
C720 C717 1.526 . S
C720 C721 1.396 . S
C720 C725 1.390 . S
C721 C715 1.465 . S
C721 C720 1.396 . S
C721 C722 1.399 . S
C722 H708 0.929 . S
C722 C721 1.399 . S
C722 C723 1.385 . S
C723 H709 0.931 . S
C723 C722 1.385 . S
C723 C724 1.389 1_545 S
C724 C723 1.389 1_565 S
C724 C725 1.387 1_565 S
C725 H710 0.930 . S
C725 C720 1.390 . S
C725 C724 1.387 1_545 S
H726 C738 0.930 . S
H727 C740 0.930 . S
H728 C741 0.930 . S
H729 C745 0.959 . S
H730 C745 0.959 . S
H731 C745 0.961 . S
H732 C746 0.960 . S
H733 C746 0.961 . S
H734 C746 0.959 . S
H735 C749 0.929 . S
H736 C750 0.931 1_655 S
H737 C752 0.930 . S
C738 H726 0.930 . S
C738 C739 1.399 . S
C738 C743 1.399 . S
C739 C738 1.399 . S
C739 C740 1.376 . S
C740 H727 0.930 . S
C740 C739 1.376 . S
C740 C741 1.388 . S
C741 H728 0.930 . S
C741 C740 1.388 . S
C741 C742 1.390 . S
C742 C741 1.390 . S
C742 C743 1.394 . S
C742 C748 1.465 . S
C743 C738 1.399 . S
C743 C742 1.394 . S
C743 C744 1.516 . S
C744 C743 1.516 . S
C744 C745 1.502 . S
C744 C746 1.561 . S
C744 C747 1.526 . S
C745 H729 0.959 . S
C745 H730 0.959 . S
C745 H731 0.961 . S
C745 C744 1.502 . S
C746 H732 0.960 . S
C746 H733 0.961 . S
C746 H734 0.959 . S
C746 C744 1.561 . S
C747 C744 1.526 . S
C747 C748 1.396 . S
C747 C752 1.390 . S
C748 C742 1.465 . S
C748 C747 1.396 . S
C748 C749 1.399 . S
C749 H735 0.929 . S
C749 C748 1.399 . S
C749 C750 1.385 . S
C750 H736 0.931 1_455 S
C750 C749 1.385 . S
C750 C751 1.389 . S
C751 C750 1.389 . S
C751 C752 1.387 . S
C752 H737 0.930 . S
C752 C747 1.390 . S
C752 C751 1.387 . S
H753 C765 0.930 . S
H754 C767 0.930 1_455 S
H755 C768 0.930 . S
H756 C772 0.959 . S
H757 C772 0.959 . S
H758 C772 0.961 . S
H759 C773 0.960 . S
H760 C773 0.961 . S
H761 C773 0.959 . S
H762 C776 0.929 . S
H763 C777 0.931 1_565 S
H764 C779 0.930 . S
C765 H753 0.930 . S
C765 C766 1.399 . S
C765 C770 1.399 . S
C766 C765 1.399 . S
C766 C767 1.376 . S
C767 H754 0.930 1_655 S
C767 C766 1.376 . S
C767 C768 1.388 . S
C768 H755 0.930 . S
C768 C767 1.388 . S
C768 C769 1.390 . S
C769 C768 1.390 . S
C769 C770 1.394 . S
C769 C775 1.465 . S
C770 C765 1.399 . S
C770 C769 1.394 . S
C770 C771 1.516 . S
C771 C770 1.516 . S
C771 C772 1.502 . S
C771 C773 1.561 . S
C771 C774 1.526 . S
C772 H756 0.959 . S
C772 H757 0.959 . S
C772 H758 0.961 . S
C772 C771 1.502 . S
C773 H759 0.960 . S
C773 H760 0.961 . S
C773 H761 0.959 . S
C773 C771 1.561 . S
C774 C771 1.526 . S
C774 C775 1.396 . S
C774 C779 1.390 . S
C775 C769 1.465 . S
C775 C774 1.396 . S
C775 C776 1.399 . S
C776 H762 0.929 . S
C776 C775 1.399 . S
C776 C777 1.385 . S
C777 H763 0.931 1_545 S
C777 C776 1.385 . S
C777 C778 1.389 . S
C778 C777 1.389 . S
C778 C779 1.387 . S
C779 H764 0.930 . S
C779 C774 1.390 . S
C779 C778 1.387 . S
C469 C371 1.697 . S
C481 C58 1.756 . S
C496 C286 3.748 . S
C508 C143 3.797 . S
C523 C15 1.687 . S
C535 C326 1.785 . S
C550 C243 3.219 . S
C562 C98 3.166 . S
C577 C156 1.748 . S
C589 C301 1.779 . S
C604 C73 1.047 . S
C616 C384 0.968 . S
C631 C31 1.372 . S
C643 C113 1.457 . S
C658 C273 0.707 1_655 S
C670 C354 0.912 . S
C685 C1 1.509 1_565 S
C697 C86 1.493 1_455 S
C712 C259 1.372 . S
C724 C341 1.456 . S
C739 C45 0.764 . S
C751 C126 0.837 1_455 S
C766 C229 1.524 1_655 S
C778 C314 1.476 1_545 S
