# Generated by pormake.
# Topology wjh, (4)-cn, num edge types: 1
# Building blocks:
#     Node 0, Type 0, BuildingBlock: NAHDIM_clean_sbu_0, # of connection points: 4
#     Node 1, Type 0, BuildingBlock: NAHDIM_clean_sbu_0, # of connection points: 4
#     Node 2, Type 0, BuildingBlock: NAHDIM_clean_sbu_0, # of connection points: 4
#     Node 3, Type 0, BuildingBlock: NAHDIM_clean_sbu_0, # of connection points: 4
#     Node 4, Type 0, BuildingBlock: NAHDIM_clean_sbu_0, # of connection points: 4
#     Node 5, Type 0, BuildingBlock: NAHDIM_clean_sbu_0, # of connection points: 4
#     Node 6, Type 0, BuildingBlock: NAHDIM_clean_sbu_0, # of connection points: 4
#     Node 7, Type 0, BuildingBlock: NAHDIM_clean_sbu_0, # of connection points: 4
#     Node 8, Type 0, BuildingBlock: NAHDIM_clean_sbu_0, # of connection points: 4
#     Node 9, Type 0, BuildingBlock: NAHDIM_clean_sbu_0, # of connection points: 4
#     Node 10, Type 0, BuildingBlock: NAHDIM_clean_sbu_0, # of connection points: 4
#     Node 11, Type 0, BuildingBlock: NAHDIM_clean_sbu_0, # of connection points: 4
#     Edge 12, Type (0, 0), BuildingBlock: ZUJKAS_clean_linker_0, # of connection points: 2
#     Edge 13, Type (0, 0), BuildingBlock: ZUJKAS_clean_linker_0, # of connection points: 2
#     Edge 14, Type (0, 0), BuildingBlock: ZUJKAS_clean_linker_0, # of connection points: 2
#     Edge 15, Type (0, 0), BuildingBlock: ZUJKAS_clean_linker_0, # of connection points: 2
#     Edge 16, Type (0, 0), BuildingBlock: ZUJKAS_clean_linker_0, # of connection points: 2
#     Edge 17, Type (0, 0), BuildingBlock: ZUJKAS_clean_linker_0, # of connection points: 2
#     Edge 18, Type (0, 0), BuildingBlock: ZUJKAS_clean_linker_0, # of connection points: 2
#     Edge 19, Type (0, 0), BuildingBlock: ZUJKAS_clean_linker_0, # of connection points: 2
#     Edge 20, Type (0, 0), BuildingBlock: ZUJKAS_clean_linker_0, # of connection points: 2
#     Edge 21, Type (0, 0), BuildingBlock: ZUJKAS_clean_linker_0, # of connection points: 2
#     Edge 22, Type (0, 0), BuildingBlock: ZUJKAS_clean_linker_0, # of connection points: 2
#     Edge 23, Type (0, 0), BuildingBlock: ZUJKAS_clean_linker_0, # of connection points: 2
#     Edge 24, Type (0, 0), BuildingBlock: ZUJKAS_clean_linker_0, # of connection points: 2
#     Edge 25, Type (0, 0), BuildingBlock: ZUJKAS_clean_linker_0, # of connection points: 2
#     Edge 26, Type (0, 0), BuildingBlock: ZUJKAS_clean_linker_0, # of connection points: 2
#     Edge 27, Type (0, 0), BuildingBlock: ZUJKAS_clean_linker_0, # of connection points: 2
#     Edge 28, Type (0, 0), BuildingBlock: ZUJKAS_clean_linker_0, # of connection points: 2
#     Edge 29, Type (0, 0), BuildingBlock: ZUJKAS_clean_linker_0, # of connection points: 2
#     Edge 30, Type (0, 0), BuildingBlock: ZUJKAS_clean_linker_0, # of connection points: 2
#     Edge 31, Type (0, 0), BuildingBlock: ZUJKAS_clean_linker_0, # of connection points: 2
#     Edge 32, Type (0, 0), BuildingBlock: ZUJKAS_clean_linker_0, # of connection points: 2
#     Edge 33, Type (0, 0), BuildingBlock: ZUJKAS_clean_linker_0, # of connection points: 2
#     Edge 34, Type (0, 0), BuildingBlock: ZUJKAS_clean_linker_0, # of connection points: 2
#     Edge 35, Type (0, 0), BuildingBlock: ZUJKAS_clean_linker_0, # of connection points: 2
# Relax obj value: 0.145
# Max RMSD: 0.134
# Mean RMSD: 0.134
data_MOF--net-wjh--node1-NAHDIM_clean_sbu_0--edge1-ZUJKAS_clean_linker_0
_symmetry_space_group_name_H-M    P1
_symmetry_Int_Tables_number       1
_symmetry_cell_setting            triclinic
loop_
_symmetry_equiv_pos_as_xyz
'x, y, z'
_cell_length_a     81.751553
_cell_length_b     81.847892
_cell_length_c     31.240947
_cell_angle_alpha  89.949717
_cell_angle_beta   90.004381
_cell_angle_gamma 119.97174
loop_
_atom_site_label
_atom_site_type_symbol
_atom_site_fract_x
_atom_site_fract_y
_atom_site_fract_z
_atom_type_partial_charge
C0 C 0.5065 0.17187 0.07932 0.0
O1 O 0.5241 0.1765 0.07162 0.0
O2 O 0.51752 0.13987 0.02189 0.0
Zn3 Zn 0.50252 0.13563 0.07579 0.0
O4 O 0.51882 0.13904 0.127 0.0
C5 C 0.48088 0.09646 0.09744 0.0
O6 O 0.49673 0.10039 0.11659 0.0
O7 O 0.49399 0.15454 0.08086 0.0
C8 C 0.51217 0.1389 0.16385 0.0
O9 O 0.49531 0.13709 0.1668 0.0
C10 C 0.52665 0.1312 0.017 0.0
O11 O 0.52588 0.11964 0.04715 0.0
O12 O 0.47995 0.10936 0.07681 0.0
C13 C 0.32365 0.4954 0.2212 0.0
O14 O 0.33612 0.51244 0.20825 0.0
O15 O 0.36643 0.5053 0.164 0.0
Zn16 Zn 0.35578 0.49037 0.21802 0.0
O17 O 0.37093 0.50614 0.26823 0.0
C18 C 0.35177 0.45559 0.24779 0.0
O19 O 0.34335 0.45887 0.2797 0.0
O20 O 0.32874 0.48319 0.22599 0.0
C21 C 0.36338 0.50529 0.30436 0.0
O22 O 0.34511 0.4941 0.3091 0.0
C23 C 0.38398 0.51219 0.15708 0.0
O24 O 0.39413 0.50904 0.18496 0.0
O25 O 0.358 0.46708 0.21658 0.0
C26 C 0.82517 0.32887 0.45596 0.0
O27 O 0.8232 0.34349 0.46465 0.0
O28 O 0.85234 0.36465 0.36182 0.0
Zn29 Zn 0.85903 0.35755 0.41814 0.0
O30 O 0.86053 0.37522 0.46459 0.0
C31 C 0.89658 0.36986 0.38741 0.0
O32 O 0.89236 0.37949 0.36034 0.0
O33 O 0.83951 0.33132 0.4349 0.0
C34 C 0.87151 0.39296 0.46327 0.0
O35 O 0.88251 0.40053 0.42983 0.0
C36 C 0.84294 0.37316 0.35957 0.0
O37 O 0.83682 0.37696 0.39496 0.0
O38 O 0.88427 0.35913 0.41444 0.0
C39 C 0.48175 0.82185 0.62228 0.0
O40 O 0.46799 0.82413 0.63713 0.0
O41 O 0.47243 0.84353 0.51125 0.0
Zn42 Zn 0.48695 0.85189 0.56635 0.0
O43 O 0.47242 0.85809 0.60941 0.0
C44 C 0.51191 0.88773 0.53076 0.0
O45 O 0.49605 0.88447 0.51268 0.0
O46 O 0.49157 0.83188 0.59097 0.0
C47 C 0.48006 0.87287 0.63242 0.0
O48 O 0.49805 0.8852 0.62727 0.0
C49 C 0.45451 0.83425 0.51024 0.0
O50 O 0.44506 0.82885 0.54641 0.0
O51 O 0.5118 0.87521 0.55499 0.0
C52 C 0.65521 0.49026 0.77567 0.0
O53 O 0.64056 0.47317 0.77885 0.0
O54 O 0.61526 0.4839 0.7017 0.0
Zn55 Zn 0.62627 0.49859 0.75597 0.0
O56 O 0.61059 0.48393 0.80651 0.0
C57 C 0.63138 0.53324 0.71933 0.0
O58 O 0.63673 0.52764 0.68537 0.0
O59 O 0.65263 0.50376 0.76493 0.0
C60 C 0.59574 0.48423 0.81702 0.0
O61 O 0.59047 0.4943 0.79423 0.0
C62 C 0.6046 0.46608 0.70204 0.0
O63 O 0.60096 0.45696 0.73858 0.0
O64 O 0.6265 0.52312 0.75289 0.0
C65 C 0.16319 0.66024 0.95835 0.0
O66 O 0.16615 0.64613 0.96583 0.0
O67 O 0.13403 0.62193 0.87311 0.0
Zn68 Zn 0.12819 0.6302 0.92894 0.0
O69 O 0.12795 0.61373 0.97688 0.0
C70 C 0.09068 0.61837 0.89808 0.0
O71 O 0.0954 0.6102 0.8682 0.0
O72 O 0.14767 0.6569 0.9416 0.0
C73 C 0.11683 0.59601 0.97678 0.0
O74 O 0.10526 0.58821 0.94434 0.0
C75 C 0.14348 0.61347 0.87118 0.0
O76 O 0.1503 0.6105 0.90654 0.0
O77 O 0.10263 0.628 0.9268 0.0
C78 C 0.82504 0.50436 0.93195 0.0
O79 O 0.8239 0.49632 0.9691 0.0
O80 O 0.84875 0.48068 0.9679 0.0
Zn81 Zn 0.85676 0.49848 0.91748 0.0
O82 O 0.85831 0.48556 0.86422 0.0
C83 C 0.89534 0.51682 0.93735 0.0
O84 O 0.89099 0.49907 0.9396 0.0
O85 O 0.83814 0.50704 0.90611 0.0
C86 C 0.86782 0.49526 0.83224 0.0
O87 O 0.8766 0.51375 0.83456 0.0
C88 C 0.84841 0.465 0.96598 0.0
O89 O 0.85299 0.46002 0.92998 0.0
O90 O 0.88242 0.52062 0.92881 0.0
C91 C 0.31471 0.8382 0.0871 0.0
O92 O 0.32067 0.84038 0.12686 0.0
O93 O 0.36191 0.8576 0.12009 0.0
Zn94 Zn 0.35323 0.86663 0.06949 0.0
O95 O 0.3679 0.86755 0.01691 0.0
C96 C 0.36287 0.90113 0.11509 0.0
O97 O 0.36663 0.89296 0.14675 0.0
O98 O 0.32608 0.84826 0.05784 0.0
C99 C 0.38213 0.88265 0.00363 0.0
O100 O 0.38786 0.89836 0.02518 0.0
C101 C 0.3787 0.86066 0.12342 0.0
O102 O 0.39095 0.87008 0.09306 0.0
O103 O 0.35661 0.89233 0.08004 0.0
C104 C 0.48862 0.32348 0.25012 0.0
O105 O 0.50442 0.3369 0.26671 0.0
O106 O 0.49387 0.36277 0.30977 0.0
Zn107 Zn 0.47958 0.35262 0.2545 0.0
O108 O 0.49486 0.36901 0.20504 0.0
C109 C 0.44691 0.35302 0.29056 0.0
O110 O 0.45445 0.35302 0.3277 0.0
O111 O 0.47519 0.32671 0.24312 0.0
C112 C 0.4914 0.3811 0.18818 0.0
O113 O 0.47775 0.38335 0.20392 0.0
C114 C 0.50561 0.38027 0.31388 0.0
O115 O 0.50822 0.3917 0.2818 0.0
O116 O 0.45491 0.35227 0.25636 0.0
C117 C 0.16615 0.49193 0.42019 0.0
O118 O 0.17062 0.50878 0.43422 0.0
O119 O 0.1366 0.50381 0.48076 0.0
Zn120 Zn 0.12957 0.48711 0.42852 0.0
O121 O 0.12844 0.50092 0.37641 0.0
C122 C 0.09077 0.46766 0.44638 0.0
O123 O 0.09489 0.48521 0.45227 0.0
O124 O 0.14885 0.47949 0.41661 0.0
C125 C 0.11978 0.49166 0.34325 0.0
O126 O 0.11171 0.47318 0.34379 0.0
C127 C 0.13646 0.51927 0.47973 0.0
O128 O 0.13201 0.52452 0.44391 0.0
O129 O 0.10394 0.46439 0.43666 0.0
C130 C 0.67749 0.14933 0.59455 0.0
O131 O 0.67165 0.14607 0.63446 0.0
O132 O 0.63027 0.12557 0.63103 0.0
Zn133 Zn 0.63897 0.12085 0.57455 0.0
O134 O 0.62421 0.12387 0.52668 0.0
C135 C 0.61931 0.08166 0.58901 0.0
O136 O 0.6078 0.08644 0.60711 0.0
O137 O 0.66617 0.13978 0.56477 0.0
C138 C 0.60716 0.11999 0.53034 0.0
O139 O 0.59835 0.11353 0.56696 0.0
C140 C 0.62837 0.13989 0.63694 0.0
O141 O 0.63265 0.15216 0.60578 0.0
O142 O 0.63462 0.09447 0.57276 0.0
C143 C 0.51096 0.67167 0.74699 0.0
O144 O 0.51123 0.66527 0.78541 0.0
O145 O 0.49236 0.62277 0.77199 0.0
Zn146 Zn 0.50517 0.63549 0.71699 0.0
O147 O 0.48856 0.62107 0.66754 0.0
C148 C 0.53936 0.63626 0.74303 0.0
O149 O 0.53333 0.63689 0.78163 0.0
O150 O 0.50901 0.66155 0.71448 0.0
C151 C 0.47941 0.60316 0.66671 0.0
O152 O 0.48085 0.59371 0.69911 0.0
C153 C 0.47561 0.61917 0.77951 0.0
O154 O 0.46698 0.62409 0.75118 0.0
O155 O 0.52979 0.636 0.71076 0.0
H156 H 0.54732 0.1427 0.16909 0.0
H157 H 0.56336 0.1408 0.23347 0.0
H158 H 0.51653 0.13351 0.31091 0.0
H159 H 0.50032 0.13535 0.24684 0.0
H160 H 0.57289 0.16348 0.31206 0.0
H161 H 0.52302 0.08697 0.33788 0.0
H162 H 0.52495 0.09849 0.28728 0.0
H163 H 0.51256 0.10159 0.33108 0.0
C164 C 0.54046 0.1408 0.19983 0.0
C165 C 0.52249 0.13906 0.20284 0.0
C166 C 0.54966 0.13974 0.23653 0.0
C167 C 0.54098 0.13678 0.27671 0.0
C168 C 0.5233 0.13554 0.28002 0.0
H169 H 0.5717 0.11554 0.52868 0.0
H170 H 0.55581 0.12064 0.46804 0.0
C171 C 0.51412 0.13667 0.2434 0.0
C172 C 0.55032 0.13465 0.31509 0.0
H173 H 0.54666 0.10266 0.39006 0.0
C174 C 0.5672 0.15021 0.32919 0.0
C175 C 0.54275 0.11732 0.33727 0.0
C176 C 0.5249 0.10005 0.32258 0.0
C177 C 0.57669 0.14893 0.36533 0.0
C178 C 0.56928 0.1315 0.3872 0.0
C179 C 0.55229 0.116 0.37323 0.0
C180 C 0.57912 0.1289 0.42409 0.0
C181 C 0.59439 0.16632 0.38015 0.0
C182 C 0.59738 0.13163 0.41928 0.0
C183 C 0.60651 0.1288 0.45385 0.0
C184 C 0.59745 0.12297 0.49378 0.0
C185 C 0.57907 0.12005 0.49838 0.0
C186 C 0.56997 0.12296 0.46379 0.0
H187 H 0.59507 0.17942 0.36808 0.0
H188 H 0.59527 0.16698 0.41564 0.0
H189 H 0.60691 0.16594 0.36769 0.0
H190 H 0.6045 0.13576 0.38864 0.0
H191 H 0.62062 0.13105 0.44913 0.0
H192 H 0.352 0.50506 0.38672 0.0
H193 H 0.37166 0.52223 0.44801 0.0
H194 H 0.42091 0.54742 0.3668 0.0
H195 H 0.40142 0.53007 0.30537 0.0
H196 H 0.42625 0.53274 0.44183 0.0
H197 H 0.39538 0.57833 0.47519 0.0
H198 H 0.37831 0.55361 0.47309 0.0
H199 H 0.39129 0.5655 0.42568 0.0
C200 C 0.367 0.51434 0.38178 0.0
C201 C 0.37514 0.51623 0.34113 0.0
C202 C 0.37818 0.52422 0.41683 0.0
C203 C 0.39768 0.53628 0.41179 0.0
C204 C 0.40586 0.53823 0.37128 0.0
H205 H 0.47472 0.61862 0.59347 0.0
H206 H 0.45506 0.60212 0.5317 0.0
C207 C 0.3947 0.52833 0.33622 0.0
C208 C 0.40968 0.54635 0.44907 0.0
H209 H 0.4164 0.57812 0.5275 0.0
C210 C 0.42416 0.54272 0.46051 0.0
C211 C 0.40701 0.55948 0.47305 0.0
C212 C 0.39227 0.56463 0.46098 0.0
C213 C 0.43592 0.5517 0.49568 0.0
C214 C 0.43288 0.56439 0.52045 0.0
C215 C 0.41856 0.56822 0.50868 0.0
C216 C 0.4447 0.57421 0.55813 0.0
C217 C 0.45172 0.54778 0.50552 0.0
C218 C 0.44521 0.56397 0.59366 0.0
C219 C 0.4565 0.57336 0.629 0.0
C220 C 0.46735 0.59316 0.62951 0.0
C221 C 0.46658 0.60336 0.59407 0.0
C222 C 0.45533 0.59397 0.55876 0.0
H223 H 0.45514 0.54165 0.47755 0.0
H224 H 0.4647 0.56087 0.5154 0.0
H225 H 0.44736 0.53751 0.53226 0.0
H226 H 0.43679 0.54873 0.59415 0.0
H227 H 0.45667 0.56509 0.65591 0.0
H228 H 0.88821 0.51172 0.75965 0.0
H229 H 0.88937 0.49598 0.69404 0.0
H230 H 0.85105 0.44191 0.74997 0.0
H231 H 0.8497 0.45744 0.81556 0.0
H232 H 0.90027 0.46766 0.68532 0.0
H233 H 0.82636 0.44208 0.63408 0.0
H234 H 0.83825 0.46061 0.67312 0.0
H235 H 0.8288 0.43636 0.68838 0.0
C236 C 0.87998 0.49647 0.75798 0.0
C237 C 0.86877 0.48583 0.79274 0.0
C238 C 0.8807 0.48753 0.7205 0.0
C239 C 0.87009 0.46784 0.71705 0.0
C240 C 0.85908 0.45716 0.75181 0.0
H241 H 0.85116 0.38131 0.53734 0.0
H242 H 0.8518 0.40073 0.59724 0.0
C243 C 0.8584 0.46606 0.78932 0.0
C244 C 0.87074 0.45834 0.6774 0.0
H245 H 0.84306 0.42953 0.5972 0.0
C246 C 0.88784 0.45946 0.66573 0.0
C247 C 0.85448 0.44772 0.65205 0.0
C248 C 0.83595 0.44671 0.66221 0.0
C249 C 0.88894 0.44959 0.63013 0.0
C250 C 0.87256 0.43865 0.60526 0.0
C251 C 0.85558 0.4379 0.61643 0.0
C252 C 0.87248 0.42715 0.56862 0.0
C253 C 0.90741 0.45038 0.62041 0.0
C254 C 0.88379 0.43562 0.53247 0.0
C255 C 0.88352 0.42455 0.49811 0.0
C256 C 0.87183 0.40483 0.49929 0.0
C257 C 0.86037 0.39645 0.5354 0.0
C258 C 0.86068 0.40752 0.56968 0.0
H259 H 0.91731 0.45585 0.64795 0.0
H260 H 0.90504 0.4362 0.61182 0.0
H261 H 0.91425 0.45991 0.59275 0.0
H262 H 0.89272 0.4508 0.5307 0.0
H263 H 0.89243 0.43143 0.47066 0.0
H264 H 0.4446 0.84742 0.66044 0.0
H265 H 0.42776 0.8506 0.72168 0.0
H266 H 0.47402 0.90677 0.74456 0.0
H267 H 0.49104 0.90377 0.68338 0.0
H268 H 0.44375 0.85894 0.80838 0.0
H269 H 0.4251 0.91145 0.74722 0.0
H270 H 0.43052 0.89727 0.71206 0.0
H271 H 0.44916 0.91695 0.73983 0.0
C272 C 0.45111 0.86056 0.67812 0.0
C273 C 0.46919 0.87534 0.66711 0.0
C274 C 0.44148 0.86232 0.7131 0.0
C275 C 0.44962 0.87895 0.73731 0.0
C276 C 0.46743 0.89392 0.72586 0.0
H277 H 0.41406 0.91186 0.96846 0.0
H278 H 0.43083 0.91115 0.90418 0.0
C279 C 0.47715 0.89213 0.69104 0.0
C280 C 0.44002 0.88013 0.77627 0.0
H281 H 0.41824 0.90251 0.8199 0.0
C282 C 0.43811 0.86842 0.81094 0.0
C283 C 0.4329 0.89265 0.77944 0.0
C284 C 0.43435 0.90525 0.74264 0.0
C285 C 0.42933 0.86896 0.84902 0.0
C286 C 0.42186 0.88122 0.852 0.0
C287 C 0.42394 0.89309 0.81742 0.0
C288 C 0.41158 0.8817 0.89055 0.0
C289 C 0.42845 0.85665 0.88598 0.0
C290 C 0.39507 0.86544 0.90375 0.0
C291 C 0.38552 0.86576 0.94049 0.0
C292 C 0.39221 0.88242 0.96452 0.0
C293 C 0.40858 0.89879 0.95076 0.0
C294 C 0.41816 0.89843 0.91403 0.0
H295 H 0.43929 0.85231 0.88299 0.0
H296 H 0.4305 0.86403 0.91701 0.0
H297 H 0.41438 0.84367 0.88642 0.0
H298 H 0.38953 0.8525 0.88553 0.0
H299 H 0.37287 0.85294 0.94997 0.0
H300 H 0.52104 0.38054 0.14905 0.0
H301 H 0.53884 0.39871 0.0865 0.0
H302 H 0.50428 0.42478 0.07967 0.0
H303 H 0.48659 0.40691 0.14255 0.0
H304 H 0.52511 0.39827 0.00485 0.0
H305 H 0.55781 0.47001 0.07552 0.0
H306 H 0.54694 0.44886 0.10776 0.0
H307 H 0.53258 0.45658 0.0807 0.0
C308 C 0.5173 0.39024 0.13444 0.0
C309 C 0.50244 0.39233 0.15088 0.0
C310 C 0.52747 0.40058 0.09868 0.0
C311 C 0.52304 0.41327 0.07886 0.0
C312 C 0.50818 0.41536 0.09506 0.0
H313 H 0.56497 0.48397 0.85226 0.0
H314 H 0.5469 0.46632 0.91519 0.0
C315 C 0.49802 0.40505 0.13087 0.0
C316 C 0.53355 0.42382 0.04032 0.0
H317 H 0.56133 0.46822 0.0005 0.0
C318 C 0.5331 0.41356 0.00392 0.0
C319 C 0.54391 0.44376 0.03926 0.0
C320 C 0.54553 0.45548 0.07799 0.0
C321 C 0.54257 0.42273 0.96623 0.0
C322 C 0.55292 0.44266 0.9652 0.0
C323 C 0.55331 0.45293 0.00148 0.0
C324 C 0.56372 0.45311 0.92692 0.0
C325 C 0.5412 0.41107 0.92759 0.0
C326 C 0.57923 0.45162 0.91308 0.0
C327 C 0.5896 0.46168 0.87727 0.0
C328 C 0.58464 0.47346 0.85473 0.0
C329 C 0.56911 0.47497 0.86882 0.0
C330 C 0.55879 0.46493 0.90476 0.0
H331 H 0.52926 0.39636 0.93031 0.0
H332 H 0.53939 0.41746 0.89788 0.0
H333 H 0.55444 0.41052 0.92453 0.0
H334 H 0.58342 0.44278 0.93021 0.0
H335 H 0.60151 0.46025 0.86734 0.0
H336 H 0.13704 0.5297 0.3297 0.0
H337 H 0.13576 0.546 0.26522 0.0
H338 H 0.09953 0.49251 0.20458 0.0
H339 H 0.10065 0.47602 0.26894 0.0
H340 H 0.14649 0.54131 0.1791 0.0
H341 H 0.07129 0.52297 0.19199 0.0
H342 H 0.08437 0.52147 0.23697 0.0
H343 H 0.0759 0.50371 0.19609 0.0
C344 C 0.12874 0.52138 0.30273 0.0
C345 C 0.11891 0.50156 0.30446 0.0
C346 C 0.12805 0.53072 0.26594 0.0
C347 C 0.11741 0.52043 0.23045 0.0
C348 C 0.10761 0.50067 0.23195 0.0
H349 H 0.09609 0.55761 0.9855 0.0
H350 H 0.09656 0.53856 0.04548 0.0
C351 C 0.10834 0.4913 0.26867 0.0
C352 C 0.11693 0.53045 0.19152 0.0
H353 H 0.088 0.53993 0.13064 0.0
C354 C 0.13372 0.54103 0.16842 0.0
C355 C 0.1002 0.52988 0.17766 0.0
C356 C 0.0819 0.51902 0.20202 0.0
C357 C 0.13423 0.5511 0.13162 0.0
C358 C 0.1176 0.5509 0.11827 0.0
C359 C 0.10073 0.54006 0.14101 0.0
C360 C 0.11755 0.56237 0.08166 0.0
C361 C 0.15253 0.56166 0.10711 0.0
C362 C 0.12902 0.58206 0.08244 0.0
C363 C 0.12885 0.59296 0.04826 0.0
C364 C 0.11703 0.58437 0.01279 0.0
C365 C 0.10538 0.56465 0.01229 0.0
C366 C 0.10562 0.55374 0.04651 0.0
H367 H 0.16205 0.55592 0.11369 0.0
H368 H 0.14994 0.56105 0.07209 0.0
H369 H 0.15994 0.57668 0.11707 0.0
H370 H 0.138 0.58903 0.10972 0.0
H371 H 0.13789 0.60812 0.04981 0.0
H372 H 0.51418 0.31174 0.26248 0.0
H373 H 0.51337 0.28381 0.2322 0.0
H374 H 0.45938 0.26712 0.17439 0.0
H375 H 0.46002 0.29504 0.20447 0.0
H376 H 0.48432 0.24373 0.23986 0.0
H377 H 0.49587 0.27217 0.07371 0.0
H378 H 0.50079 0.28697 0.12025 0.0
H379 H 0.47685 0.27178 0.10355 0.0
C380 C 0.50204 0.30206 0.24366 0.0
C381 C 0.48724 0.30568 0.23556 0.0
C382 C 0.50161 0.28611 0.22646 0.0
C383 C 0.48644 0.27363 0.2007 0.0
C384 C 0.4713 0.27678 0.19382 0.0
H385 H 0.47249 0.16666 0.10715 0.0
H386 H 0.46575 0.1907 0.13444 0.0
C387 C 0.47168 0.29268 0.21117 0.0
C388 C 0.48693 0.25772 0.17982 0.0
H389 H 0.49328 0.2424 0.08301 0.0
C390 C 0.4861 0.24329 0.20555 0.0
C391 C 0.48942 0.25742 0.13511 0.0
C392 C 0.49092 0.27294 0.10637 0.0
C393 C 0.48793 0.22857 0.18769 0.0
C394 C 0.49053 0.22832 0.143 0.0
C395 C 0.49114 0.24264 0.11721 0.0
C396 C 0.49392 0.21397 0.12296 0.0
C397 C 0.48772 0.21376 0.21684 0.0
C398 C 0.5118 0.21927 0.10619 0.0
C399 C 0.51571 0.20562 0.09056 0.0
C400 C 0.50175 0.18646 0.09126 0.0
C401 C 0.48358 0.1813 0.10633 0.0
C402 C 0.47971 0.19498 0.12209 0.0
H403 H 0.48879 0.21776 0.25113 0.0
H404 H 0.47433 0.20026 0.21223 0.0
H405 H 0.49956 0.21129 0.20893 0.0
H406 H 0.52291 0.23392 0.10649 0.0
H407 H 0.52981 0.21005 0.07899 0.0
H408 H 0.29645 0.46316 0.2594 0.0
H409 H 0.26674 0.45771 0.2908 0.0
H410 H 0.27853 0.51267 0.24818 0.0
H411 H 0.30823 0.51826 0.21649 0.0
H412 H 0.26501 0.48084 0.35569 0.0
H413 H 0.22289 0.47749 0.2133 0.0
H414 H 0.2431 0.47416 0.21011 0.0
H415 H 0.24637 0.49752 0.21379 0.0
C416 C 0.29258 0.47397 0.25601 0.0
C417 C 0.30472 0.49119 0.23555 0.0
C418 C 0.27562 0.47082 0.27403 0.0
C419 C 0.27042 0.48472 0.27146 0.0
C420 C 0.28218 0.50165 0.24985 0.0
H421 H 0.20432 0.51466 0.42687 0.0
H422 H 0.22876 0.51018 0.39315 0.0
C423 C 0.29919 0.50486 0.23196 0.0
C424 C 0.25358 0.48227 0.29455 0.0
H425 H 0.21228 0.48242 0.28091 0.0
C426 C 0.25334 0.48093 0.33936 0.0
C427 C 0.23835 0.4822 0.27305 0.0
C428 C 0.23753 0.48274 0.22487 0.0
C429 C 0.23861 0.48037 0.36344 0.0
C430 C 0.2239 0.48134 0.34205 0.0
C431 C 0.22369 0.48182 0.29716 0.0
C432 C 0.20918 0.48305 0.36565 0.0
C433 C 0.239 0.479 0.41154 0.0
C434 C 0.19012 0.46924 0.36134 0.0
C435 C 0.17611 0.47174 0.38062 0.0
C436 C 0.18097 0.48823 0.40401 0.0
C437 C 0.20013 0.50181 0.4091 0.0
C438 C 0.21411 0.49924 0.39004 0.0
H439 H 0.24821 0.47336 0.42204 0.0
H440 H 0.24465 0.49327 0.42555 0.0
H441 H 0.22457 0.46983 0.4245 0.0
H442 H 0.18609 0.4567 0.34243 0.0
H443 H 0.16147 0.46104 0.376 0.0
H444 H 0.70192 0.17778 0.64739 0.0
H445 H 0.72948 0.20763 0.62575 0.0
H446 H 0.72224 0.18803 0.49531 0.0
H447 H 0.69461 0.1583 0.51638 0.0
H448 H 0.7642 0.21769 0.57968 0.0
H449 H 0.71582 0.23532 0.49216 0.0
H450 H 0.70749 0.21634 0.53057 0.0
H451 H 0.71391 0.21322 0.47746 0.0
C452 C 0.7064 0.17968 0.61425 0.0
C453 C 0.69592 0.16583 0.58344 0.0
C454 C 0.72213 0.19672 0.60198 0.0
C455 C 0.72758 0.20008 0.55886 0.0
C456 C 0.71799 0.18576 0.52863 0.0
H457 H 0.82479 0.29563 0.44286 0.0
H458 H 0.8017 0.26437 0.46968 0.0
C459 C 0.70225 0.16879 0.54077 0.0
C460 C 0.74221 0.21904 0.54479 0.0
H461 H 0.74854 0.25644 0.48419 0.0
C462 C 0.76085 0.22621 0.55883 0.0
C463 C 0.73761 0.23016 0.5182 0.0
C464 C 0.7176 0.22349 0.50395 0.0
C465 C 0.77517 0.24421 0.54625 0.0
C466 C 0.77065 0.25508 0.5186 0.0
C467 C 0.75195 0.24798 0.50513 0.0
C468 C 0.785 0.27401 0.50352 0.0
C469 C 0.7949 0.25157 0.56319 0.0
C470 C 0.78296 0.28966 0.51288 0.0
C471 C 0.79599 0.30748 0.49728 0.0
C472 C 0.81126 0.30994 0.47191 0.0
C473 C 0.81322 0.29421 0.46245 0.0
C474 C 0.80014 0.27637 0.47802 0.0
H475 H 0.79502 0.24367 0.59203 0.0
H476 H 0.80364 0.24997 0.53818 0.0
H477 H 0.80158 0.26677 0.57138 0.0
H478 H 0.77127 0.28807 0.53228 0.0
H479 H 0.79409 0.31931 0.50517 0.0
H480 H 0.464 0.79892 0.69065 0.0
H481 H 0.47087 0.77589 0.72353 0.0
H482 H 0.51572 0.79042 0.6324 0.0
H483 H 0.50914 0.81363 0.59964 0.0
H484 H 0.46876 0.74513 0.68331 0.0
H485 H 0.54098 0.79127 0.74596 0.0
H486 H 0.52561 0.8002 0.73038 0.0
H487 H 0.53866 0.79556 0.69054 0.0
C488 C 0.47542 0.79732 0.67778 0.0
C489 C 0.48601 0.80808 0.64248 0.0
C490 C 0.47936 0.78421 0.69672 0.0
C491 C 0.49401 0.78172 0.68088 0.0
C492 C 0.50466 0.79248 0.64579 0.0
H493 H 0.51077 0.6884 0.6718 0.0
H494 H 0.50723 0.71601 0.66175 0.0
C495 C 0.50075 0.8056 0.62683 0.0
C496 C 0.49715 0.76675 0.69856 0.0
H497 H 0.53113 0.75832 0.73851 0.0
C498 C 0.4823 0.74805 0.69604 0.0
C499 C 0.51477 0.77062 0.71554 0.0
C500 C 0.53086 0.79052 0.72121 0.0
C501 C 0.48491 0.73302 0.70796 0.0
C502 C 0.50285 0.73684 0.72239 0.0
C503 C 0.51745 0.75553 0.72703 0.0
C504 C 0.5069 0.72141 0.72936 0.0
C505 C 0.46864 0.7131 0.70392 0.0
C506 C 0.50842 0.71574 0.77082 0.0
C507 C 0.5104 0.69987 0.7768 0.0
C508 C 0.51094 0.68958 0.74131 0.0
C509 C 0.51026 0.69591 0.69984 0.0
C510 C 0.50824 0.71167 0.69397 0.0
H511 H 0.45489 0.71267 0.70091 0.0
H512 H 0.47071 0.70649 0.67494 0.0
H513 H 0.46806 0.70452 0.73207 0.0
H514 H 0.50744 0.72321 0.79843 0.0
H515 H 0.51095 0.69537 0.80912 0.0
H516 H 0.68797 0.52428 0.77809 0.0
H517 H 0.71913 0.53047 0.80141 0.0
H518 H 0.69663 0.47104 0.82398 0.0
H519 H 0.66549 0.46466 0.80045 0.0
H520 H 0.72834 0.52183 0.88226 0.0
H521 H 0.74391 0.48626 0.75052 0.0
H522 H 0.72574 0.49261 0.74667 0.0
H523 H 0.72133 0.47171 0.77524 0.0
C524 C 0.68969 0.51249 0.78761 0.0
C525 C 0.67427 0.49396 0.78735 0.0
C526 C 0.70748 0.51608 0.80099 0.0
C527 C 0.71017 0.50119 0.81394 0.0
C528 C 0.69488 0.48268 0.81338 0.0
H529 H 0.7919 0.49494 0.97285 0.0
H530 H 0.76529 0.49726 0.94436 0.0
C531 C 0.67708 0.47907 0.8001 0.0
C532 C 0.72877 0.50501 0.82974 0.0
H533 H 0.76313 0.49371 0.81304 0.0
C534 C 0.73609 0.51588 0.86693 0.0
C535 C 0.73891 0.49744 0.80927 0.0
C536 C 0.73219 0.48651 0.76797 0.0
C537 C 0.75301 0.51876 0.88521 0.0
C538 C 0.76261 0.51031 0.86601 0.0
C539 C 0.75564 0.50006 0.82788 0.0
C540 C 0.77947 0.51116 0.88561 0.0
C541 C 0.7604 0.53075 0.9249 0.0
C542 C 0.79626 0.51826 0.86205 0.0
C543 C 0.81141 0.5168 0.87804 0.0
C544 C 0.81 0.50813 0.91783 0.0
C545 C 0.79345 0.50175 0.94217 0.0
C546 C 0.77826 0.50316 0.92605 0.0
H547 H 0.75481 0.54059 0.92794 0.0
H548 H 0.75582 0.52147 0.95351 0.0
H549 H 0.77607 0.53907 0.92479 0.0
H550 H 0.79743 0.52444 0.83071 0.0
H551 H 0.824 0.52193 0.85857 0.0
H552 H 0.16117 0.69241 0.9486 0.0
H553 H 0.18496 0.72454 0.96885 0.0
H554 H 0.22102 0.70408 0.01605 0.0
H555 H 0.19747 0.67198 0.9956 0.0
H556 H 0.20091 0.73864 0.05084 0.0
H557 H 0.25471 0.74644 0.93177 0.0
H558 H 0.23028 0.7281 0.92826 0.0
H559 H 0.24606 0.72566 0.96437 0.0
C560 C 0.1742 0.69475 0.96314 0.0
C561 C 0.17751 0.67967 0.97025 0.0
C562 C 0.18772 0.7131 0.97477 0.0
C563 C 0.20478 0.71664 0.99341 0.0
C564 C 0.20804 0.70162 0.00101 0.0
H565 H 0.2899 0.80885 0.13738 0.0
H566 H 0.26117 0.78058 0.11414 0.0
C567 C 0.19455 0.68329 0.98942 0.0
C568 C 0.21922 0.73604 0.00517 0.0
H569 H 0.26506 0.76946 0.98709 0.0
C570 C 0.2149 0.74551 0.03669 0.0
C571 C 0.2373 0.745 0.9861 0.0
C572 C 0.24236 0.73587 0.95044 0.0
C573 C 0.22851 0.76353 0.05081 0.0
C574 C 0.24689 0.77207 0.03325 0.0
C575 C 0.25097 0.76283 0.00069 0.0
C576 C 0.26247 0.79024 0.04901 0.0
C577 C 0.22309 0.77324 0.08428 0.0
C578 C 0.27265 0.80507 0.02019 0.0
C579 C 0.28918 0.82112 0.03321 0.0
C580 C 0.29584 0.82259 0.07533 0.0
C581 C 0.2851 0.80815 0.10476 0.0
C582 C 0.2686 0.79203 0.0916 0.0
H583 H 0.2076 0.76767 0.08471 0.0
H584 H 0.22726 0.77069 0.11631 0.0
H585 H 0.23038 0.78871 0.07875 0.0
H586 H 0.26815 0.80392 0.98716 0.0
H587 H 0.29708 0.83206 0.00984 0.0
H588 H 0.61711 0.16544 0.65572 0.0
H589 H 0.60174 0.16733 0.72137 0.0
H590 H 0.60555 0.12075 0.77477 0.0
H591 H 0.62089 0.11873 0.70951 0.0
H592 H 0.56708 0.13672 0.75539 0.0
H593 H 0.62665 0.16156 0.87009 0.0
H594 H 0.63008 0.16411 0.81281 0.0
H595 H 0.62284 0.14176 0.83794 0.0
C596 C 0.61488 0.15574 0.68163 0.0
C597 C 0.62022 0.14194 0.67744 0.0
C598 C 0.60608 0.15683 0.71903 0.0
C599 C 0.60273 0.14432 0.75298 0.0
C600 C 0.6083 0.13073 0.74915 0.0
H601 H 0.54571 0.11303 0.99454 0.0
H602 H 0.56423 0.1175 0.92975 0.0
C603 C 0.61698 0.12955 0.71174 0.0
C604 C 0.59237 0.14461 0.79147 0.0
H605 H 0.59596 0.14966 0.9 0.0
C606 C 0.57341 0.13977 0.787 0.0
C607 C 0.60073 0.14853 0.83252 0.0
C608 C 0.62125 0.15445 0.83878 0.0
C609 C 0.5623 0.13801 0.82285 0.0
C610 C 0.57056 0.1416 0.86407 0.0
C611 C 0.58967 0.14688 0.86836 0.0
C612 C 0.55943 0.1392 0.90332 0.0
C613 C 0.54166 0.13159 0.81643 0.0
C614 C 0.55076 0.15007 0.91011 0.0
C615 C 0.54006 0.14747 0.94702 0.0
C616 C 0.53801 0.13407 0.97796 0.0
C617 C 0.54697 0.12343 0.97132 0.0
C618 C 0.55759 0.12599 0.93435 0.0
H619 H 0.53657 0.12513 0.78441 0.0
H620 H 0.53286 0.12119 0.8413 0.0
H621 H 0.53954 0.14393 0.819 0.0
H622 H 0.55234 0.16061 0.88695 0.0
H623 H 0.53347 0.156 0.95135 0.0
H624 H 0.48979 0.60785 0.84513 0.0
H625 H 0.47324 0.59035 0.90946 0.0
H626 H 0.42291 0.59034 0.86814 0.0
H627 H 0.43927 0.60773 0.80348 0.0
H628 H 0.45503 0.60058 0.97397 0.0
H629 H 0.40525 0.53402 0.89036 0.0
H630 H 0.4264 0.55232 0.86524 0.0
H631 H 0.406 0.55501 0.87055 0.0
C632 C 0.47519 0.60413 0.84967 0.0
C633 C 0.4658 0.60908 0.81905 0.0
C634 C 0.46578 0.59416 0.88647 0.0
C635 C 0.44681 0.58886 0.89318 0.0
C636 C 0.43747 0.59404 0.86312 0.0
H637 H 0.36739 0.52241 0.09442 0.0
H638 H 0.38249 0.54185 0.03115 0.0
C639 C 0.44688 0.60405 0.82632 0.0
C640 C 0.43685 0.57794 0.93179 0.0
H641 H 0.4011 0.53513 0.96489 0.0
C642 C 0.44324 0.58628 0.97207 0.0
C643 C 0.42144 0.55932 0.92904 0.0
C644 C 0.4144 0.54951 0.88655 0.0
C645 C 0.43454 0.57649 0.00983 0.0
C646 C 0.41932 0.55775 0.00713 0.0
C647 C 0.41278 0.5495 0.9668 0.0
C648 C 0.41028 0.54626 0.04579 0.0
C649 C 0.44157 0.58638 0.05223 0.0
C650 C 0.42086 0.54212 0.07461 0.0
C651 C 0.41231 0.53106 0.11077 0.0
C652 C 0.39295 0.5238 0.11859 0.0
C653 C 0.38233 0.52781 0.08937 0.0
C654 C 0.39092 0.53891 0.05322 0.0
H655 H 0.44941 0.60196 0.04839 0.0
H656 H 0.4297 0.58244 0.07488 0.0
H657 H 0.45133 0.58218 0.06659 0.0
H658 H 0.43573 0.5473 0.06894 0.0
H659 H 0.42087 0.52815 0.13247 0.0
H660 H 0.85088 0.43312 0.97528 0.0
H661 H 0.84656 0.41505 0.04083 0.0
H662 H 0.83265 0.45207 0.10987 0.0
H663 H 0.83691 0.47027 0.04448 0.0
H664 H 0.86814 0.43211 0.11781 0.0
H665 H 0.79065 0.39767 0.14431 0.0
H666 H 0.8014 0.40651 0.09262 0.0
H667 H 0.80261 0.42257 0.13324 0.0
C668 C 0.84666 0.4373 0.00424 0.0
C669 C 0.8443 0.45318 0.00471 0.0
C670 C 0.8442 0.42694 0.04163 0.0
C671 C 0.83912 0.43214 0.07996 0.0
C672 C 0.83628 0.44768 0.08038 0.0
H673 H 0.82948 0.39723 0.34456 0.0
H674 H 0.82785 0.41072 0.27585 0.0
C675 C 0.83884 0.45812 0.04306 0.0
C676 C 0.83834 0.42228 0.1202 0.0
H677 H 0.80885 0.39507 0.20022 0.0
C678 C 0.85517 0.42389 0.13573 0.0
C679 C 0.82142 0.41176 0.14353 0.0
C680 C 0.80292 0.40934 0.12757 0.0
C681 C 0.85563 0.41552 0.17453 0.0
C682 C 0.83867 0.40483 0.19779 0.0
C683 C 0.8218 0.4032 0.1822 0.0
C684 C 0.8383 0.39554 0.23876 0.0
C685 C 0.87439 0.41872 0.19084 0.0
C686 C 0.84421 0.38213 0.24045 0.0
C687 C 0.84533 0.37454 0.27965 0.0
C688 C 0.84029 0.38002 0.3178 0.0
C689 C 0.83353 0.39278 0.31576 0.0
C690 C 0.83256 0.40048 0.27654 0.0
H691 H 0.88643 0.43122 0.1756 0.0
H692 H 0.8755 0.42073 0.22608 0.0
H693 H 0.87577 0.40622 0.18318 0.0
H694 H 0.84825 0.37777 0.21151 0.0
H695 H 0.85039 0.36458 0.28008 0.0
H696 H 0.47008 0.8457 0.43081 0.0
H697 H 0.45395 0.84519 0.36464 0.0
H698 H 0.40032 0.81663 0.4299 0.0
H699 H 0.41636 0.81728 0.49662 0.0
H700 H 0.42457 0.81572 0.31641 0.0
H701 H 0.40347 0.86535 0.38425 0.0
H702 H 0.4208 0.86104 0.40954 0.0
H703 H 0.3961 0.84403 0.41417 0.0
C704 C 0.45483 0.83911 0.43109 0.0
C705 C 0.44452 0.83174 0.46915 0.0
C706 C 0.44564 0.83881 0.39319 0.0
C707 C 0.42601 0.83117 0.39263 0.0
C708 C 0.41554 0.8229 0.42994 0.0
H709 H 0.35697 0.84115 0.19224 0.0
H710 H 0.36698 0.8315 0.25663 0.0
C711 C 0.42473 0.82321 0.46796 0.0
C712 C 0.41677 0.83293 0.35354 0.0
H713 H 0.3944 0.85537 0.31335 0.0
C714 C 0.41784 0.82427 0.31572 0.0
C715 C 0.40805 0.84412 0.35285 0.0
C716 C 0.40711 0.85432 0.39221 0.0
C717 C 0.41053 0.82664 0.27703 0.0
C718 C 0.40225 0.83823 0.27615 0.0
C719 C 0.40075 0.84648 0.3142 0.0
C720 C 0.3959 0.84283 0.23582 0.0
C721 C 0.41172 0.81671 0.23751 0.0
C722 C 0.40888 0.85248 0.2029 0.0
C723 C 0.40322 0.85803 0.16609 0.0
C724 C 0.3845 0.85415 0.16168 0.0
C725 C 0.37149 0.84435 0.19461 0.0
C726 C 0.37717 0.8388 0.23141 0.0
H727 H 0.41313 0.80427 0.24583 0.0
H728 H 0.39905 0.81199 0.21697 0.0
H729 H 0.42434 0.82659 0.21866 0.0
H730 H 0.42351 0.85612 0.20611 0.0
H731 H 0.41361 0.86561 0.14142 0.0
H732 H 0.57941 0.42846 0.69236 0.0
H733 H 0.56361 0.41191 0.62655 0.0
H734 H 0.59347 0.46396 0.55573 0.0
H735 H 0.60946 0.48061 0.62117 0.0
H736 H 0.54037 0.41985 0.57507 0.0
H737 H 0.60158 0.42681 0.48316 0.0
H738 H 0.60239 0.43055 0.54027 0.0
H739 H 0.60498 0.44874 0.50396 0.0
C740 C 0.58277 0.43636 0.66272 0.0
C741 C 0.59571 0.45586 0.66199 0.0
C742 C 0.57372 0.42688 0.62518 0.0
C743 C 0.57757 0.43667 0.58625 0.0
C744 C 0.59059 0.45607 0.58532 0.0
H745 H 0.53316 0.41641 0.33086 0.0
H746 H 0.55039 0.42889 0.39786 0.0
C747 C 0.59963 0.46558 0.62281 0.0
C748 C 0.56715 0.42686 0.54702 0.0
H749 H 0.5731 0.417 0.44397 0.0
C750 C 0.54747 0.41902 0.54653 0.0
C751 C 0.5765 0.42585 0.50992 0.0
C752 C 0.59751 0.43327 0.50931 0.0
C753 C 0.53693 0.41075 0.50935 0.0
C754 C 0.54634 0.41007 0.472 0.0
C755 C 0.56597 0.4176 0.4727 0.0
C756 C 0.5361 0.40221 0.4314 0.0
C757 C 0.51593 0.40337 0.50986 0.0
C758 C 0.52254 0.38302 0.42803 0.0
C759 C 0.51265 0.37583 0.38977 0.0
C760 C 0.51621 0.38772 0.35425 0.0
C761 C 0.53001 0.40689 0.35766 0.0
C762 C 0.53991 0.41404 0.39585 0.0
H763 H 0.51153 0.40844 0.5382 0.0
H764 H 0.51146 0.40771 0.48044 0.0
H765 H 0.50835 0.38773 0.51086 0.0
H766 H 0.51961 0.37362 0.45499 0.0
H767 H 0.50217 0.36098 0.38812 0.0
H768 H 0.13289 0.55043 0.49039 0.0
H769 H 0.13684 0.56803 0.55642 0.0
H770 H 0.15192 0.5315 0.62396 0.0
H771 H 0.14798 0.51372 0.55804 0.0
H772 H 0.1157 0.55007 0.63494 0.0
H773 H 0.19368 0.58683 0.65625 0.0
H774 H 0.18248 0.57806 0.60495 0.0
H775 H 0.18205 0.56199 0.64462 0.0
C776 C 0.13724 0.54623 0.51914 0.0
C777 C 0.14008 0.53064 0.519 0.0
C778 C 0.13949 0.55631 0.55679 0.0
C779 C 0.14482 0.55114 0.59481 0.0
C780 C 0.14804 0.53584 0.59471 0.0
H781 H 0.15756 0.58983 0.8575 0.0
H782 H 0.15836 0.57512 0.78996 0.0
C783 C 0.14569 0.52566 0.55709 0.0
C784 C 0.14571 0.56094 0.63515 0.0
H785 H 0.17585 0.58976 0.7123 0.0
C786 C 0.12884 0.55882 0.65184 0.0
C787 C 0.16287 0.57216 0.65709 0.0
C788 C 0.18137 0.57508 0.63984 0.0
C789 C 0.12861 0.56747 0.69034 0.0
C790 C 0.14582 0.57897 0.71206 0.0
C791 C 0.16271 0.58101 0.69544 0.0
C792 C 0.14648 0.58885 0.75226 0.0
C793 C 0.10987 0.56382 0.70789 0.0
C794 C 0.14002 0.60183 0.75316 0.0
C795 C 0.1394 0.61013 0.79169 0.0
C796 C 0.14548 0.60579 0.82994 0.0
C797 C 0.15272 0.59341 0.82862 0.0
C798 C 0.1532 0.585 0.79007 0.0
H799 H 0.0979 0.55081 0.69416 0.0
H800 H 0.10941 0.56243 0.7433 0.0
H801 H 0.10778 0.57583 0.69948 0.0
H802 H 0.13521 0.60534 0.72412 0.0
H803 H 0.13394 0.61976 0.79155 0.0
H804 H 0.47725 0.06745 0.14695 0.0
H805 H 0.45057 0.03531 0.15011 0.0
H806 H 0.42047 0.04963 0.05799 0.0
H807 H 0.44719 0.08202 0.05456 0.0
H808 H 0.40911 0.02232 0.16746 0.0
H809 H 0.42568 0.00409 0.00727 0.0
H810 H 0.44317 0.02383 0.03782 0.0
H811 H 0.4242 0.02523 0.01267 0.0
C812 C 0.46495 0.06384 0.12743 0.0
C813 C 0.46439 0.07724 0.10022 0.0
C814 C 0.44969 0.0455 0.1295 0.0
C815 C 0.43366 0.04019 0.10422 0.0
C816 C 0.43281 0.05355 0.07763 0.0
H817 H 0.35372 0.92114 0.05963 0.0
H818 H 0.36644 0.95525 0.05864 0.0
C819 C 0.44807 0.07199 0.07571 0.0
C820 C 0.41844 0.02031 0.10425 0.0
H821 H 0.40257 0.97947 0.04826 0.0
C822 C 0.40739 0.01293 0.14119 0.0
C823 C 0.41622 0.00825 0.06974 0.0
C824 C 0.42794 0.01561 0.02956 0.0
C825 C 0.39457 0.99355 0.14513 0.0
C826 C 0.39323 0.98128 0.11172 0.0
C827 C 0.4036 0.98887 0.07389 0.0
C828 C 0.38282 0.9605 0.11662 0.0
C829 C 0.38281 0.98642 0.18526 0.0
C830 C 0.38748 0.95207 0.15005 0.0
C831 C 0.3801 0.93258 0.15091 0.0
C832 C 0.36822 0.92121 0.11788 0.0
C833 C 0.36293 0.92956 0.08543 0.0
C834 C 0.37016 0.94903 0.08484 0.0
H835 H 0.38005 -0.00268 0.19909 0.0
H836 H 0.36908 0.97346 0.17902 0.0
H837 H 0.39064 0.98312 0.20957 0.0
H838 H 0.39762 0.96064 0.17428 0.0
H839 H 0.38453 0.92659 0.17623 0.0
H840 H 0.42803 0.35333 0.21885 0.0
H841 H 0.40616 0.36534 0.21238 0.0
H842 H 0.40831 0.37383 0.34883 0.0
H843 H 0.43027 0.3618 0.35588 0.0
H844 H 0.36896 0.35801 0.29341 0.0
H845 H 0.43291 0.42554 0.24702 0.0
H846 H 0.42962 0.40401 0.22357 0.0
H847 H 0.43436 0.40811 0.27974 0.0
C848 C 0.42356 0.35734 0.24768 0.0
C849 C 0.43111 0.35688 0.28785 0.0
C850 C 0.41101 0.36412 0.24387 0.0
C851 C 0.40577 0.37049 0.2801 0.0
C852 C 0.41219 0.36886 0.3206 0.0
H853 H 0.34743 0.43321 0.31678 0.0
H854 H 0.35819 0.41034 0.32347 0.0
C855 C 0.42477 0.36205 0.3245 0.0
C856 C 0.39591 0.38128 0.27475 0.0
H857 H 0.40383 0.4247 0.24515 0.0
C858 C 0.37648 0.37259 0.2829 0.0
C859 C 0.40589 0.40023 0.26096 0.0
C860 C 0.42688 0.41017 0.25243 0.0
C861 C 0.36666 0.38244 0.27699 0.0
C862 C 0.37669 0.40147 0.26331 0.0
C863 C 0.39615 0.41008 0.25535 0.0
C864 C 0.36763 0.4131 0.25776 0.0
C865 C 0.34563 0.37232 0.28461 0.0
C866 C 0.36935 0.42225 0.2186 0.0
C867 C 0.3635 0.43554 0.21486 0.0
C868 C 0.35579 0.43991 0.25024 0.0
C869 C 0.35326 0.4301 0.28889 0.0
C870 C 0.35927 0.4169 0.2927 0.0
H871 H 0.33936 0.35677 0.28277 0.0
H872 H 0.34284 0.37582 0.31711 0.0
H873 H 0.33844 0.37675 0.26101 0.0
H874 H 0.37583 0.41955 0.19129 0.0
H875 H 0.36554 0.44278 0.18459 0.0
H876 H 0.05984 0.47034 0.46683 0.0
H877 H 0.02682 0.44594 0.46091 0.0
H878 H 0.0434 0.40582 0.4213 0.0
H879 H 0.0767 0.43037 0.42651 0.0
H880 H 0.01742 0.40645 0.36764 0.0
H881 H -0.00691 0.40073 0.53453 0.0
H882 H 0.00547 0.42489 0.51761 0.0
H883 H 0.01781 0.41182 0.52063 0.0
C884 C 0.05652 0.45627 0.45746 0.0
C885 C 0.07089 0.4523 0.44707 0.0
C886 C 0.03761 0.44228 0.45444 0.0
C887 C 0.03266 0.42399 0.44137 0.0
C888 C 0.04695 0.41982 0.43182 0.0
H889 H 0.90978 0.35162 0.43793 0.0
H890 H 0.94268 0.35987 0.44833 0.0
C891 C 0.06594 0.43385 0.43486 0.0
C892 C 0.01256 0.40996 0.43396 0.0
H893 H 0.96914 0.39249 0.47957 0.0
C894 C 0.00685 0.403 0.39233 0.0
C895 C -0.00118 0.4051 0.46634 0.0
C896 C 0.00414 0.41087 0.51237 0.0
C897 C 0.98766 0.39262 0.38145 0.0
C898 C 0.97394 0.38953 0.41284 0.0
C899 C 0.97966 0.39512 0.45527 0.0
C900 C 0.9539 0.38249 0.40178 0.0
C901 C 0.98232 0.38555 0.33618 0.0
C902 C 0.94927 0.3923 0.37173 0.0
C903 C 0.93051 0.38757 0.36556 0.0
C904 C 0.91604 0.37314 0.38984 0.0
C905 C 0.92062 0.36287 0.41883 0.0
C906 C 0.9394 0.36754 0.42478 0.0
H907 H -0.00702 0.38259 0.32169 0.0
H908 H 0.96828 0.37253 0.33479 0.0
H909 H 0.98185 0.39659 0.31644 0.0
H910 H 0.96023 0.40422 0.35446 0.0
H911 H 0.92747 0.3958 0.34312 0.0
H912 H 0.54722 0.89922 0.56283 0.0
H913 H 0.57348 0.93167 0.56854 0.0
H914 H 0.5407 0.95152 0.50108 0.0
H915 H 0.51473 0.91924 0.49406 0.0
H916 H 0.57818 0.97128 0.47923 0.0
H917 H 0.56895 0.96566 0.65636 0.0
H918 H 0.57487 0.94949 0.63165 0.0
H919 H 0.55244 0.94768 0.6207 0.0
C920 C 0.54575 0.91048 0.54856 0.0
C921 C 0.52879 0.90672 0.52862 0.0
C922 C 0.56073 0.929 0.55203 0.0
C923 C 0.55884 0.94401 0.53614 0.0
C924 C 0.54241 0.94014 0.51375 0.0
H925 H 0.58598 0.05128 0.61288 0.0
H926 H 0.57541 0.01811 0.60062 0.0
C927 C 0.52754 0.92166 0.50989 0.0
C928 C 0.57295 0.96385 0.5459 0.0
H929 H 0.58926 -0.00449 0.62808 0.0
C930 C 0.58093 0.9766 0.51177 0.0
C931 C 0.57637 0.97067 0.58847 0.0
C932 C 0.56764 0.95775 0.62648 0.0
C933 C 0.59128 -0.00387 0.5189 0.0
C934 C 0.59404 0.00296 0.5614 0.0
C935 C 0.58712 0.99015 0.59559 0.0
C936 C 0.60146 0.02316 0.57088 0.0
C937 C 0.59801 0.00927 0.48086 0.0
C938 C 0.61977 0.03701 0.55893 0.0
C939 C 0.62582 0.05611 0.56558 0.0
C940 C 0.6137 0.06156 0.58466 0.0
C941 C 0.59565 0.04758 0.59801 0.0
C942 C 0.5896 0.02859 0.59111 0.0
H943 H 0.592 0.00171 0.45028 0.0
H944 H 0.59415 0.02042 0.48452 0.0
H945 H 0.61362 0.01625 0.4787 0.0
H946 H 0.62926 0.03307 0.54402 0.0
H947 H 0.63987 0.06657 0.55525 0.0
H948 H 0.63398 0.5545 0.64916 0.0
H949 H 0.62658 0.58002 0.6457 0.0
H950 H 0.61651 0.57544 0.78186 0.0
H951 H 0.62394 0.55012 0.7857 0.0
H952 H 0.59109 0.57355 0.66924 0.0
H953 H 0.64613 0.63262 0.76354 0.0
H954 H 0.64938 0.61395 0.74192 0.0
H955 H 0.6365 0.61043 0.79099 0.0
C956 C 0.6306 0.55922 0.6785 0.0
C957 C 0.62939 0.5502 0.71766 0.0
C958 C 0.62642 0.57382 0.67646 0.0
C959 C 0.62126 0.57978 0.7136 0.0
C960 C 0.62089 0.57136 0.75297 0.0
H961 H 0.557 0.62647 0.80364 0.0
H962 H 0.58009 0.61632 0.79137 0.0
C963 C 0.62495 0.55674 0.75502 0.0
C964 C 0.61352 0.59266 0.71075 0.0
H965 H 0.61629 0.63182 0.75638 0.0
C966 C 0.59682 0.58655 0.68741 0.0
C967 C 0.62101 0.60951 0.73474 0.0
C968 C 0.63935 0.61712 0.75889 0.0
C969 C 0.58665 0.59612 0.68973 0.0
C970 C 0.5937 0.61256 0.71526 0.0
C971 C 0.61093 0.61923 0.73687 0.0
C972 C 0.58235 0.62177 0.7232 0.0
C973 C 0.56784 0.58781 0.66712 0.0
C974 C 0.5766 0.62894 0.68922 0.0
C975 C 0.5632 0.6345 0.69602 0.0
C976 C 0.55559 0.63325 0.73707 0.0
C977 C 0.56251 0.62749 0.77161 0.0
C978 C 0.57575 0.62173 0.76468 0.0
H979 H 0.56273 0.57311 0.65637 0.0
H980 H 0.55696 0.58786 0.68833 0.0
H981 H 0.56928 0.59643 0.63841 0.0
H982 H 0.58188 0.62949 0.65715 0.0
H983 H 0.55835 0.63916 0.66887 0.0
H984 H 0.06073 0.59509 0.84777 0.0
H985 H 0.0277 0.5858 0.85856 0.0
H986 H 0.04309 0.62394 0.96564 0.0
H987 H 0.07625 0.63305 0.95567 0.0
H988 H 0.01613 0.58947 0.98697 0.0
H989 H -0.00456 0.60917 0.83613 0.0
H990 H 0.00691 0.59584 0.82512 0.0
H991 H 0.01986 0.61848 0.85104 0.0
C992 C 0.05717 0.60179 0.87312 0.0
C993 C 0.0711 0.61471 0.90104 0.0
C994 C 0.03827 0.59659 0.87901 0.0
C995 C 0.03295 0.60439 0.9125 0.0
C996 C 0.04691 0.61786 0.93941 0.0
H997 H 0.90972 0.55494 0.92885 0.0
H998 H 0.94306 0.57962 0.92964 0.0
C999 C 0.06584 0.62301 0.93368 0.0
C1000 C 0.01269 0.59663 0.92241 0.0
H1001 H 0.97018 0.58256 0.87475 0.0
C1002 C 0.00611 0.58836 0.96276 0.0
C1003 C -0.00038 0.59551 0.89124 0.0
C1004 C 0.00588 0.60543 0.84866 0.0
C1005 C 0.98675 0.57767 0.97149 0.0
C1006 C 0.97368 0.57486 0.93871 0.0
C1007 C 0.98023 0.58444 0.89964 0.0
C1008 C 0.95347 0.56045 0.94245 0.0
C1009 C 0.98049 0.569 0.01533 0.0
C1010 C 0.94833 0.54154 0.94938 0.0
C1011 C 0.9294 0.52747 0.94901 0.0
C1012 C 0.91521 0.53201 0.94124 0.0
C1013 C 0.92033 0.55101 0.93503 0.0
C1014 C 0.93935 0.56512 0.93545 0.0
H1015 H 0.99103 0.57768 0.0401 0.0
H1016 H 0.96661 0.56742 0.02415 0.0
H1017 H 0.9792 0.55485 0.01555 0.0
H1018 H 0.95903 0.53756 0.95372 0.0
H1019 H 0.92595 0.51299 0.95373 0.0
loop_
_geom_bond_atom_site_label_1
_geom_bond_atom_site_label_2
_geom_bond_distance
_geom_bond_site_symmetry_2
_ccdc_geom_bond_type
C0 O1 1.160 . S
C0 O7 1.185 . S
O1 C0 1.160 . S
O2 Zn3 1.899 . S
O2 C10 1.284 . S
Zn3 O2 1.899 . S
Zn3 O4 2.032 . S
Zn3 O7 2.086 . S
Zn3 O12 1.977 . S
O4 Zn3 2.032 . S
O4 C8 1.278 . S
C5 O6 1.203 . S
C5 O12 1.267 . S
O6 C5 1.203 . S
O7 C0 1.185 . S
O7 Zn3 2.086 . S
C8 O4 1.278 . S
C8 O9 1.211 . S
O9 C8 1.211 . S
C10 O2 1.284 . S
C10 O11 1.273 . S
O11 C10 1.273 . S
O12 Zn3 1.977 . S
O12 C5 1.267 . S
C13 O14 1.160 . S
C13 O20 1.185 . S
O14 C13 1.160 . S
O15 Zn16 1.899 . S
O15 C23 1.284 . S
Zn16 O15 1.899 . S
Zn16 O17 2.032 . S
Zn16 O20 2.086 . S
Zn16 O25 1.977 . S
O17 Zn16 2.032 . S
O17 C21 1.278 . S
C18 O19 1.203 . S
C18 O25 1.267 . S
O19 C18 1.203 . S
O20 C13 1.185 . S
O20 Zn16 2.086 . S
C21 O17 1.278 . S
C21 O22 1.211 . S
O22 C21 1.211 . S
C23 O15 1.284 . S
C23 O24 1.273 . S
O24 C23 1.273 . S
O25 Zn16 1.977 . S
O25 C18 1.267 . S
C26 O27 1.160 . S
C26 O33 1.185 . S
O27 C26 1.160 . S
O28 Zn29 1.899 . S
O28 C36 1.284 . S
Zn29 O28 1.899 . S
Zn29 O30 2.032 . S
Zn29 O33 2.086 . S
Zn29 O38 1.977 . S
O30 Zn29 2.032 . S
O30 C34 1.278 . S
C31 O32 1.203 . S
C31 O38 1.267 . S
O32 C31 1.203 . S
O33 C26 1.185 . S
O33 Zn29 2.086 . S
C34 O30 1.278 . S
C34 O35 1.211 . S
O35 C34 1.211 . S
C36 O28 1.284 . S
C36 O37 1.273 . S
O37 C36 1.273 . S
O38 Zn29 1.977 . S
O38 C31 1.267 . S
C39 O40 1.160 . S
C39 O46 1.185 . S
O40 C39 1.160 . S
O41 Zn42 1.899 . S
O41 C49 1.284 . S
Zn42 O41 1.899 . S
Zn42 O43 2.032 . S
Zn42 O46 2.086 . S
Zn42 O51 1.977 . S
O43 Zn42 2.032 . S
O43 C47 1.278 . S
C44 O45 1.203 . S
C44 O51 1.267 . S
O45 C44 1.203 . S
O46 C39 1.185 . S
O46 Zn42 2.086 . S
C47 O43 1.278 . S
C47 O48 1.211 . S
O48 C47 1.211 . S
C49 O41 1.284 . S
C49 O50 1.273 . S
O50 C49 1.273 . S
O51 Zn42 1.977 . S
O51 C44 1.267 . S
C52 O53 1.160 . S
C52 O59 1.185 . S
O53 C52 1.160 . S
O54 Zn55 1.899 . S
O54 C62 1.284 . S
Zn55 O54 1.899 . S
Zn55 O56 2.032 . S
Zn55 O59 2.086 . S
Zn55 O64 1.977 . S
O56 Zn55 2.032 . S
O56 C60 1.278 . S
C57 O58 1.203 . S
C57 O64 1.267 . S
O58 C57 1.203 . S
O59 C52 1.185 . S
O59 Zn55 2.086 . S
C60 O56 1.278 . S
C60 O61 1.211 . S
O61 C60 1.211 . S
C62 O54 1.284 . S
C62 O63 1.273 . S
O63 C62 1.273 . S
O64 Zn55 1.977 . S
O64 C57 1.267 . S
C65 O66 1.160 . S
C65 O72 1.185 . S
O66 C65 1.160 . S
O67 Zn68 1.899 . S
O67 C75 1.284 . S
Zn68 O67 1.899 . S
Zn68 O69 2.032 . S
Zn68 O72 2.086 . S
Zn68 O77 1.977 . S
O69 Zn68 2.032 . S
O69 C73 1.278 . S
C70 O71 1.203 . S
C70 O77 1.267 . S
O71 C70 1.203 . S
O72 C65 1.185 . S
O72 Zn68 2.086 . S
C73 O69 1.278 . S
C73 O74 1.211 . S
O74 C73 1.211 . S
C75 O67 1.284 . S
C75 O76 1.273 . S
O76 C75 1.273 . S
O77 Zn68 1.977 . S
O77 C70 1.267 . S
C78 O79 1.160 . S
C78 O85 1.185 . S
O79 C78 1.160 . S
O80 Zn81 1.899 . S
O80 C88 1.284 . S
Zn81 O80 1.899 . S
Zn81 O82 2.032 . S
Zn81 O85 2.086 . S
Zn81 O90 1.977 . S
O82 Zn81 2.032 . S
O82 C86 1.278 . S
C83 O84 1.203 . S
C83 O90 1.267 . S
O84 C83 1.203 . S
O85 C78 1.185 . S
O85 Zn81 2.086 . S
C86 O82 1.278 . S
C86 O87 1.211 . S
O87 C86 1.211 . S
C88 O80 1.284 . S
C88 O89 1.273 . S
O89 C88 1.273 . S
O90 Zn81 1.977 . S
O90 C83 1.267 . S
C91 O92 1.160 . S
C91 O98 1.185 . S
O92 C91 1.160 . S
O93 Zn94 1.899 . S
O93 C101 1.284 . S
Zn94 O93 1.899 . S
Zn94 O95 2.032 . S
Zn94 O98 2.086 . S
Zn94 O103 1.977 . S
O95 Zn94 2.032 . S
O95 C99 1.278 . S
C96 O97 1.203 . S
C96 O103 1.267 . S
O97 C96 1.203 . S
O98 C91 1.185 . S
O98 Zn94 2.086 . S
C99 O95 1.278 . S
C99 O100 1.211 . S
O100 C99 1.211 . S
C101 O93 1.284 . S
C101 O102 1.273 . S
O102 C101 1.273 . S
O103 Zn94 1.977 . S
O103 C96 1.267 . S
C104 O105 1.160 . S
C104 O111 1.185 . S
O105 C104 1.160 . S
O106 Zn107 1.899 . S
O106 C114 1.284 . S
Zn107 O106 1.899 . S
Zn107 O108 2.032 . S
Zn107 O111 2.086 . S
Zn107 O116 1.977 . S
O108 Zn107 2.032 . S
O108 C112 1.278 . S
C109 O110 1.203 . S
C109 O116 1.267 . S
O110 C109 1.203 . S
O111 C104 1.185 . S
O111 Zn107 2.086 . S
C112 O108 1.278 . S
C112 O113 1.211 . S
O113 C112 1.211 . S
C114 O106 1.284 . S
C114 O115 1.273 . S
O115 C114 1.273 . S
O116 Zn107 1.977 . S
O116 C109 1.267 . S
C117 O118 1.160 . S
C117 O124 1.185 . S
O118 C117 1.160 . S
O119 Zn120 1.899 . S
O119 C127 1.284 . S
Zn120 O119 1.899 . S
Zn120 O121 2.032 . S
Zn120 O124 2.086 . S
Zn120 O129 1.977 . S
O121 Zn120 2.032 . S
O121 C125 1.278 . S
C122 O123 1.203 . S
C122 O129 1.267 . S
O123 C122 1.203 . S
O124 C117 1.185 . S
O124 Zn120 2.086 . S
C125 O121 1.278 . S
C125 O126 1.211 . S
O126 C125 1.211 . S
C127 O119 1.284 . S
C127 O128 1.273 . S
O128 C127 1.273 . S
O129 Zn120 1.977 . S
O129 C122 1.267 . S
C130 O131 1.160 . S
C130 O137 1.185 . S
O131 C130 1.160 . S
O132 Zn133 1.899 . S
O132 C140 1.284 . S
Zn133 O132 1.899 . S
Zn133 O134 2.032 . S
Zn133 O137 2.086 . S
Zn133 O142 1.977 . S
O134 Zn133 2.032 . S
O134 C138 1.278 . S
C135 O136 1.203 . S
C135 O142 1.267 . S
O136 C135 1.203 . S
O137 C130 1.185 . S
O137 Zn133 2.086 . S
C138 O134 1.278 . S
C138 O139 1.211 . S
O139 C138 1.211 . S
C140 O132 1.284 . S
C140 O141 1.273 . S
O141 C140 1.273 . S
O142 Zn133 1.977 . S
O142 C135 1.267 . S
C143 O144 1.160 . S
C143 O150 1.185 . S
O144 C143 1.160 . S
O145 Zn146 1.899 . S
O145 C153 1.284 . S
Zn146 O145 1.899 . S
Zn146 O147 2.032 . S
Zn146 O150 2.086 . S
Zn146 O155 1.977 . S
O147 Zn146 2.032 . S
O147 C151 1.278 . S
C148 O149 1.203 . S
C148 O155 1.267 . S
O149 C148 1.203 . S
O150 C143 1.185 . S
O150 Zn146 2.086 . S
C151 O147 1.278 . S
C151 O152 1.211 . S
O152 C151 1.211 . S
C153 O145 1.284 . S
C153 O154 1.273 . S
O154 C153 1.273 . S
O155 Zn146 1.977 . S
O155 C148 1.267 . S
H156 C164 0.929 . S
H157 C166 0.930 . S
H158 C168 0.930 . S
H159 C171 0.929 . S
H160 C174 0.930 . S
H161 C176 0.960 . S
H162 C176 0.960 . S
H163 C176 0.960 . S
C164 H156 0.929 . S
C164 C165 1.377 . S
C164 C166 1.384 . S
C165 C164 1.377 . S
C165 C171 1.390 . S
C166 H157 0.930 . S
C166 C164 1.384 . S
C166 C167 1.372 . S
C167 C166 1.372 . S
C167 C168 1.400 . S
C167 C172 1.490 . S
C168 H158 0.930 . S
C168 C167 1.400 . S
C168 C171 1.386 . S
H169 C185 0.930 . S
H170 C186 0.931 . S
C171 H159 0.929 . S
C171 C165 1.390 . S
C171 C168 1.386 . S
C172 C167 1.490 . S
C172 C174 1.395 . S
C172 C175 1.403 . S
H173 C179 0.930 . S
C174 H160 0.930 . S
C174 C172 1.395 . S
C174 C177 1.403 . S
C175 C172 1.403 . S
C175 C176 1.524 . S
C175 C179 1.400 . S
C176 H161 0.960 . S
C176 H162 0.960 . S
C176 H163 0.960 . S
C176 C175 1.524 . S
C177 C174 1.403 . S
C177 C178 1.392 . S
C177 C181 1.495 . S
C178 C177 1.392 . S
C178 C179 1.385 . S
C178 C180 1.478 . S
C179 H173 0.930 . S
C179 C175 1.400 . S
C179 C178 1.385 . S
C180 C178 1.478 . S
C180 C182 1.381 . S
C180 C186 1.383 . S
C181 C177 1.495 . S
C181 H187 0.959 . S
C181 H188 0.961 . S
C181 H189 0.960 . S
C182 C180 1.381 . S
C182 C183 1.394 . S
C182 H190 0.930 . S
C183 C182 1.394 . S
C183 C184 1.383 . S
C183 H191 0.929 . S
C184 C183 1.383 . S
C184 C185 1.377 . S
C185 H169 0.930 . S
C185 C184 1.377 . S
C185 C186 1.379 . S
C186 H170 0.931 . S
C186 C180 1.383 . S
C186 C185 1.379 . S
H187 C181 0.959 . S
H188 C181 0.961 . S
H189 C181 0.960 . S
H190 C182 0.930 . S
H191 C183 0.929 . S
H192 C200 0.929 . S
H193 C202 0.930 . S
H194 C204 0.930 . S
H195 C207 0.929 . S
H196 C210 0.930 . S
H197 C212 0.960 . S
H198 C212 0.960 . S
H199 C212 0.960 . S
C200 H192 0.929 . S
C200 C201 1.377 . S
C200 C202 1.384 . S
C201 C200 1.377 . S
C201 C207 1.390 . S
C202 H193 0.930 . S
C202 C200 1.384 . S
C202 C203 1.372 . S
C203 C202 1.372 . S
C203 C204 1.400 . S
C203 C208 1.490 . S
C204 H194 0.930 . S
C204 C203 1.400 . S
C204 C207 1.386 . S
H205 C221 0.930 . S
H206 C222 0.931 . S
C207 H195 0.929 . S
C207 C201 1.390 . S
C207 C204 1.386 . S
C208 C203 1.490 . S
C208 C210 1.395 . S
C208 C211 1.403 . S
H209 C215 0.930 . S
C210 H196 0.930 . S
C210 C208 1.395 . S
C210 C213 1.403 . S
C211 C208 1.403 . S
C211 C212 1.524 . S
C211 C215 1.400 . S
C212 H197 0.960 . S
C212 H198 0.960 . S
C212 H199 0.960 . S
C212 C211 1.524 . S
C213 C210 1.403 . S
C213 C214 1.392 . S
C213 C217 1.495 . S
C214 C213 1.392 . S
C214 C215 1.385 . S
C214 C216 1.478 . S
C215 H209 0.930 . S
C215 C211 1.400 . S
C215 C214 1.385 . S
C216 C214 1.478 . S
C216 C218 1.381 . S
C216 C222 1.383 . S
C217 C213 1.495 . S
C217 H223 0.959 . S
C217 H224 0.961 . S
C217 H225 0.960 . S
C218 C216 1.381 . S
C218 C219 1.394 . S
C218 H226 0.930 . S
C219 C218 1.394 . S
C219 C220 1.383 . S
C219 H227 0.929 . S
C220 C219 1.383 . S
C220 C221 1.377 . S
C221 H205 0.930 . S
C221 C220 1.377 . S
C221 C222 1.379 . S
C222 H206 0.931 . S
C222 C216 1.383 . S
C222 C221 1.379 . S
H223 C217 0.959 . S
H224 C217 0.961 . S
H225 C217 0.960 . S
H226 C218 0.930 . S
H227 C219 0.929 . S
H228 C236 0.929 . S
H229 C238 0.930 . S
H230 C240 0.930 . S
H231 C243 0.929 . S
H232 C246 0.930 . S
H233 C248 0.960 . S
H234 C248 0.960 . S
H235 C248 0.960 . S
C236 H228 0.929 . S
C236 C237 1.377 . S
C236 C238 1.384 . S
C237 C236 1.377 . S
C237 C243 1.390 . S
C238 H229 0.930 . S
C238 C236 1.384 . S
C238 C239 1.372 . S
C239 C238 1.372 . S
C239 C240 1.400 . S
C239 C244 1.490 . S
C240 H230 0.930 . S
C240 C239 1.400 . S
C240 C243 1.386 . S
H241 C257 0.930 . S
H242 C258 0.931 . S
C243 H231 0.929 . S
C243 C237 1.390 . S
C243 C240 1.386 . S
C244 C239 1.490 . S
C244 C246 1.395 . S
C244 C247 1.403 . S
H245 C251 0.930 . S
C246 H232 0.930 . S
C246 C244 1.395 . S
C246 C249 1.403 . S
C247 C244 1.403 . S
C247 C248 1.524 . S
C247 C251 1.400 . S
C248 H233 0.960 . S
C248 H234 0.960 . S
C248 H235 0.960 . S
C248 C247 1.524 . S
C249 C246 1.403 . S
C249 C250 1.392 . S
C249 C253 1.495 . S
C250 C249 1.392 . S
C250 C251 1.385 . S
C250 C252 1.478 . S
C251 H245 0.930 . S
C251 C247 1.400 . S
C251 C250 1.385 . S
C252 C250 1.478 . S
C252 C254 1.381 . S
C252 C258 1.383 . S
C253 C249 1.495 . S
C253 H259 0.959 . S
C253 H260 0.961 . S
C253 H261 0.960 . S
C254 C252 1.381 . S
C254 C255 1.394 . S
C254 H262 0.930 . S
C255 C254 1.394 . S
C255 C256 1.383 . S
C255 H263 0.929 . S
C256 C255 1.383 . S
C256 C257 1.377 . S
C257 H241 0.930 . S
C257 C256 1.377 . S
C257 C258 1.379 . S
C258 H242 0.931 . S
C258 C252 1.383 . S
C258 C257 1.379 . S
H259 C253 0.959 . S
H260 C253 0.961 . S
H261 C253 0.960 . S
H262 C254 0.930 . S
H263 C255 0.929 . S
H264 C272 0.929 . S
H265 C274 0.930 . S
H266 C276 0.930 . S
H267 C279 0.929 . S
H268 C282 0.930 . S
H269 C284 0.960 . S
H270 C284 0.960 . S
H271 C284 0.960 . S
C272 H264 0.929 . S
C272 C273 1.377 . S
C272 C274 1.384 . S
C273 C272 1.377 . S
C273 C279 1.390 . S
C274 H265 0.930 . S
C274 C272 1.384 . S
C274 C275 1.372 . S
C275 C274 1.372 . S
C275 C276 1.400 . S
C275 C280 1.490 . S
C276 H266 0.930 . S
C276 C275 1.400 . S
C276 C279 1.386 . S
H277 C293 0.930 . S
H278 C294 0.931 . S
C279 H267 0.929 . S
C279 C273 1.390 . S
C279 C276 1.386 . S
C280 C275 1.490 . S
C280 C282 1.395 . S
C280 C283 1.403 . S
H281 C287 0.930 . S
C282 H268 0.930 . S
C282 C280 1.395 . S
C282 C285 1.403 . S
C283 C280 1.403 . S
C283 C284 1.524 . S
C283 C287 1.400 . S
C284 H269 0.960 . S
C284 H270 0.960 . S
C284 H271 0.960 . S
C284 C283 1.524 . S
C285 C282 1.403 . S
C285 C286 1.392 . S
C285 C289 1.495 . S
C286 C285 1.392 . S
C286 C287 1.385 . S
C286 C288 1.478 . S
C287 H281 0.930 . S
C287 C283 1.400 . S
C287 C286 1.385 . S
C288 C286 1.478 . S
C288 C290 1.381 . S
C288 C294 1.383 . S
C289 C285 1.495 . S
C289 H295 0.959 . S
C289 H296 0.961 . S
C289 H297 0.960 . S
C290 C288 1.381 . S
C290 C291 1.394 . S
C290 H298 0.930 . S
C291 C290 1.394 . S
C291 C292 1.383 . S
C291 H299 0.929 . S
C292 C291 1.383 . S
C292 C293 1.377 . S
C293 H277 0.930 . S
C293 C292 1.377 . S
C293 C294 1.379 . S
C294 H278 0.931 . S
C294 C288 1.383 . S
C294 C293 1.379 . S
H295 C289 0.959 . S
H296 C289 0.961 . S
H297 C289 0.960 . S
H298 C290 0.930 . S
H299 C291 0.929 . S
H300 C308 0.929 . S
H301 C310 0.930 . S
H302 C312 0.930 . S
H303 C315 0.929 . S
H304 C318 0.929 1_554 S
H305 C320 0.960 . S
H306 C320 0.960 . S
H307 C320 0.960 . S
C308 H300 0.929 . S
C308 C309 1.377 . S
C308 C310 1.384 . S
C309 C308 1.377 . S
C309 C315 1.390 . S
C310 H301 0.930 . S
C310 C308 1.384 . S
C310 C311 1.372 . S
C311 C310 1.372 . S
C311 C312 1.400 . S
C311 C316 1.490 . S
C312 H302 0.930 . S
C312 C311 1.400 . S
C312 C315 1.386 . S
H313 C329 0.930 . S
H314 C330 0.931 . S
C315 H303 0.929 . S
C315 C309 1.390 . S
C315 C312 1.386 . S
C316 C311 1.490 . S
C316 C318 1.384 1_554 S
C316 C319 1.403 . S
H317 C323 0.930 . S
C318 H304 0.929 1_556 S
C318 C316 1.384 1_556 S
C318 C321 1.415 . S
C319 C316 1.403 . S
C319 C320 1.524 . S
C319 C323 1.400 1_554 S
C320 H305 0.960 . S
C320 H306 0.960 . S
C320 H307 0.960 . S
C320 C319 1.524 . S
C321 C318 1.415 . S
C321 C322 1.392 . S
C321 C325 1.495 . S
C322 C321 1.392 . S
C322 C323 1.385 . S
C322 C324 1.478 . S
C323 H317 0.930 . S
C323 C319 1.400 1_556 S
C323 C322 1.385 . S
C324 C322 1.478 . S
C324 C326 1.381 . S
C324 C330 1.383 . S
C325 C321 1.495 . S
C325 H331 0.959 . S
C325 H332 0.961 . S
C325 H333 0.960 . S
C326 C324 1.381 . S
C326 C327 1.394 . S
C326 H334 0.930 . S
C327 C326 1.394 . S
C327 C328 1.383 . S
C327 H335 0.929 . S
C328 C327 1.383 . S
C328 C329 1.377 . S
C329 H313 0.930 . S
C329 C328 1.377 . S
C329 C330 1.379 . S
C330 H314 0.931 . S
C330 C324 1.383 . S
C330 C329 1.379 . S
H331 C325 0.959 . S
H332 C325 0.961 . S
H333 C325 0.960 . S
H334 C326 0.930 . S
H335 C327 0.929 . S
H336 C344 0.929 . S
H337 C346 0.930 . S
H338 C348 0.930 . S
H339 C351 0.929 . S
H340 C354 0.930 . S
H341 C356 0.960 . S
H342 C356 0.960 . S
H343 C356 0.960 . S
C344 H336 0.929 . S
C344 C345 1.377 . S
C344 C346 1.384 . S
C345 C344 1.377 . S
C345 C351 1.390 . S
C346 H337 0.930 . S
C346 C344 1.384 . S
C346 C347 1.372 . S
C347 C346 1.372 . S
C347 C348 1.400 . S
C347 C352 1.490 . S
C348 H338 0.930 . S
C348 C347 1.400 . S
C348 C351 1.386 . S
H349 C365 0.930 1_556 S
H350 C366 0.931 . S
C351 H339 0.929 . S
C351 C345 1.390 . S
C351 C348 1.386 . S
C352 C347 1.490 . S
C352 C354 1.395 . S
C352 C355 1.403 . S
H353 C359 0.930 . S
C354 H340 0.930 . S
C354 C352 1.395 . S
C354 C357 1.403 . S
C355 C352 1.403 . S
C355 C356 1.524 . S
C355 C359 1.400 . S
C356 H341 0.960 . S
C356 H342 0.960 . S
C356 H343 0.960 . S
C356 C355 1.524 . S
C357 C354 1.403 . S
C357 C358 1.392 . S
C357 C361 1.495 . S
C358 C357 1.392 . S
C358 C359 1.385 . S
C358 C360 1.478 . S
C359 H353 0.930 . S
C359 C355 1.400 . S
C359 C358 1.385 . S
C360 C358 1.478 . S
C360 C362 1.381 . S
C360 C366 1.383 . S
C361 C357 1.495 . S
C361 H367 0.959 . S
C361 H368 0.961 . S
C361 H369 0.960 . S
C362 C360 1.381 . S
C362 C363 1.394 . S
C362 H370 0.930 . S
C363 C362 1.394 . S
C363 C364 1.383 . S
C363 H371 0.929 . S
C364 C363 1.383 . S
C364 C365 1.377 . S
C365 H349 0.930 1_554 S
C365 C364 1.377 . S
C365 C366 1.379 . S
C366 H350 0.931 . S
C366 C360 1.383 . S
C366 C365 1.379 . S
H367 C361 0.959 . S
H368 C361 0.961 . S
H369 C361 0.960 . S
H370 C362 0.930 . S
H371 C363 0.929 . S
H372 C380 0.929 . S
H373 C382 0.930 . S
H374 C384 0.930 . S
H375 C387 0.929 . S
H376 C390 0.930 . S
H377 C392 0.960 . S
H378 C392 0.960 . S
H379 C392 0.960 . S
C380 H372 0.929 . S
C380 C381 1.377 . S
C380 C382 1.384 . S
C381 C380 1.377 . S
C381 C387 1.390 . S
C382 H373 0.930 . S
C382 C380 1.384 . S
C382 C383 1.372 . S
C383 C382 1.372 . S
C383 C384 1.400 . S
C383 C388 1.490 . S
C384 H374 0.930 . S
C384 C383 1.400 . S
C384 C387 1.386 . S
H385 C401 0.930 . S
H386 C402 0.931 . S
C387 H375 0.929 . S
C387 C381 1.390 . S
C387 C384 1.386 . S
C388 C383 1.490 . S
C388 C390 1.395 . S
C388 C391 1.403 . S
H389 C395 0.930 . S
C390 H376 0.930 . S
C390 C388 1.395 . S
C390 C393 1.403 . S
C391 C388 1.403 . S
C391 C392 1.524 . S
C391 C395 1.400 . S
C392 H377 0.960 . S
C392 H378 0.960 . S
C392 H379 0.960 . S
C392 C391 1.524 . S
C393 C390 1.403 . S
C393 C394 1.392 . S
C393 C397 1.495 . S
C394 C393 1.392 . S
C394 C395 1.385 . S
C394 C396 1.478 . S
C395 H389 0.930 . S
C395 C391 1.400 . S
C395 C394 1.385 . S
C396 C394 1.478 . S
C396 C398 1.381 . S
C396 C402 1.383 . S
C397 C393 1.495 . S
C397 H403 0.959 . S
C397 H404 0.961 . S
C397 H405 0.960 . S
C398 C396 1.381 . S
C398 C399 1.394 . S
C398 H406 0.930 . S
C399 C398 1.394 . S
C399 C400 1.383 . S
C399 H407 0.929 . S
C400 C399 1.383 . S
C400 C401 1.377 . S
C401 H385 0.930 . S
C401 C400 1.377 . S
C401 C402 1.379 . S
C402 H386 0.931 . S
C402 C396 1.383 . S
C402 C401 1.379 . S
H403 C397 0.959 . S
H404 C397 0.961 . S
H405 C397 0.960 . S
H406 C398 0.930 . S
H407 C399 0.929 . S
H408 C416 0.929 . S
H409 C418 0.930 . S
H410 C420 0.930 . S
H411 C423 0.929 . S
H412 C426 0.930 . S
H413 C428 0.960 . S
H414 C428 0.960 . S
H415 C428 0.960 . S
C416 H408 0.929 . S
C416 C417 1.377 . S
C416 C418 1.384 . S
C417 C416 1.377 . S
C417 C423 1.390 . S
C418 H409 0.930 . S
C418 C416 1.384 . S
C418 C419 1.372 . S
C419 C418 1.372 . S
C419 C420 1.400 . S
C419 C424 1.490 . S
C420 H410 0.930 . S
C420 C419 1.400 . S
C420 C423 1.386 . S
H421 C437 0.930 . S
H422 C438 0.931 . S
C423 H411 0.929 . S
C423 C417 1.390 . S
C423 C420 1.386 . S
C424 C419 1.490 . S
C424 C426 1.395 . S
C424 C427 1.403 . S
H425 C431 0.930 . S
C426 H412 0.930 . S
C426 C424 1.395 . S
C426 C429 1.403 . S
C427 C424 1.403 . S
C427 C428 1.524 . S
C427 C431 1.400 . S
C428 H413 0.960 . S
C428 H414 0.960 . S
C428 H415 0.960 . S
C428 C427 1.524 . S
C429 C426 1.403 . S
C429 C430 1.392 . S
C429 C433 1.495 . S
C430 C429 1.392 . S
C430 C431 1.385 . S
C430 C432 1.478 . S
C431 H425 0.930 . S
C431 C427 1.400 . S
C431 C430 1.385 . S
C432 C430 1.478 . S
C432 C434 1.381 . S
C432 C438 1.383 . S
C433 C429 1.495 . S
C433 H439 0.959 . S
C433 H440 0.961 . S
C433 H441 0.960 . S
C434 C432 1.381 . S
C434 C435 1.394 . S
C434 H442 0.930 . S
C435 C434 1.394 . S
C435 C436 1.383 . S
C435 H443 0.929 . S
C436 C435 1.383 . S
C436 C437 1.377 . S
C437 H421 0.930 . S
C437 C436 1.377 . S
C437 C438 1.379 . S
C438 H422 0.931 . S
C438 C432 1.383 . S
C438 C437 1.379 . S
H439 C433 0.959 . S
H440 C433 0.961 . S
H441 C433 0.960 . S
H442 C434 0.930 . S
H443 C435 0.929 . S
H444 C452 0.929 . S
H445 C454 0.930 . S
H446 C456 0.930 . S
H447 C459 0.929 . S
H448 C462 0.930 . S
H449 C464 0.960 . S
H450 C464 0.960 . S
H451 C464 0.960 . S
C452 H444 0.929 . S
C452 C453 1.377 . S
C452 C454 1.384 . S
C453 C452 1.377 . S
C453 C459 1.390 . S
C454 H445 0.930 . S
C454 C452 1.384 . S
C454 C455 1.372 . S
C455 C454 1.372 . S
C455 C456 1.400 . S
C455 C460 1.490 . S
C456 H446 0.930 . S
C456 C455 1.400 . S
C456 C459 1.386 . S
H457 C473 0.930 . S
H458 C474 0.931 . S
C459 H447 0.929 . S
C459 C453 1.390 . S
C459 C456 1.386 . S
C460 C455 1.490 . S
C460 C462 1.395 . S
C460 C463 1.403 . S
H461 C467 0.930 . S
C462 H448 0.930 . S
C462 C460 1.395 . S
C462 C465 1.403 . S
C463 C460 1.403 . S
C463 C464 1.524 . S
C463 C467 1.400 . S
C464 H449 0.960 . S
C464 H450 0.960 . S
C464 H451 0.960 . S
C464 C463 1.524 . S
C465 C462 1.403 . S
C465 C466 1.392 . S
C465 C469 1.495 . S
C466 C465 1.392 . S
C466 C467 1.385 . S
C466 C468 1.478 . S
C467 H461 0.930 . S
C467 C463 1.400 . S
C467 C466 1.385 . S
C468 C466 1.478 . S
C468 C470 1.381 . S
C468 C474 1.383 . S
C469 C465 1.495 . S
C469 H475 0.959 . S
C469 H476 0.961 . S
C469 H477 0.960 . S
C470 C468 1.381 . S
C470 C471 1.394 . S
C470 H478 0.930 . S
C471 C470 1.394 . S
C471 C472 1.383 . S
C471 H479 0.929 . S
C472 C471 1.383 . S
C472 C473 1.377 . S
C473 H457 0.930 . S
C473 C472 1.377 . S
C473 C474 1.379 . S
C474 H458 0.931 . S
C474 C468 1.383 . S
C474 C473 1.379 . S
H475 C469 0.959 . S
H476 C469 0.961 . S
H477 C469 0.960 . S
H478 C470 0.930 . S
H479 C471 0.929 . S
H480 C488 0.929 . S
H481 C490 0.930 . S
H482 C492 0.930 . S
H483 C495 0.929 . S
H484 C498 0.930 . S
H485 C500 0.960 . S
H486 C500 0.960 . S
H487 C500 0.960 . S
C488 H480 0.929 . S
C488 C489 1.377 . S
C488 C490 1.384 . S
C489 C488 1.377 . S
C489 C495 1.390 . S
C490 H481 0.930 . S
C490 C488 1.384 . S
C490 C491 1.372 . S
C491 C490 1.372 . S
C491 C492 1.400 . S
C491 C496 1.490 . S
C492 H482 0.930 . S
C492 C491 1.400 . S
C492 C495 1.386 . S
H493 C509 0.930 . S
H494 C510 0.931 . S
C495 H483 0.929 . S
C495 C489 1.390 . S
C495 C492 1.386 . S
C496 C491 1.490 . S
C496 C498 1.395 . S
C496 C499 1.403 . S
H497 C503 0.930 . S
C498 H484 0.930 . S
C498 C496 1.395 . S
C498 C501 1.403 . S
C499 C496 1.403 . S
C499 C500 1.524 . S
C499 C503 1.400 . S
C500 H485 0.960 . S
C500 H486 0.960 . S
C500 H487 0.960 . S
C500 C499 1.524 . S
C501 C498 1.403 . S
C501 C502 1.392 . S
C501 C505 1.495 . S
C502 C501 1.392 . S
C502 C503 1.385 . S
C502 C504 1.478 . S
C503 H497 0.930 . S
C503 C499 1.400 . S
C503 C502 1.385 . S
C504 C502 1.478 . S
C504 C506 1.381 . S
C504 C510 1.383 . S
C505 C501 1.495 . S
C505 H511 0.959 . S
C505 H512 0.961 . S
C505 H513 0.960 . S
C506 C504 1.381 . S
C506 C507 1.394 . S
C506 H514 0.930 . S
C507 C506 1.394 . S
C507 C508 1.383 . S
C507 H515 0.929 . S
C508 C507 1.383 . S
C508 C509 1.377 . S
C509 H493 0.930 . S
C509 C508 1.377 . S
C509 C510 1.379 . S
C510 H494 0.931 . S
C510 C504 1.383 . S
C510 C509 1.379 . S
H511 C505 0.959 . S
H512 C505 0.961 . S
H513 C505 0.960 . S
H514 C506 0.930 . S
H515 C507 0.929 . S
H516 C524 0.929 . S
H517 C526 0.930 . S
H518 C528 0.930 . S
H519 C531 0.929 . S
H520 C534 0.930 . S
H521 C536 0.960 . S
H522 C536 0.960 . S
H523 C536 0.960 . S
C524 H516 0.929 . S
C524 C525 1.377 . S
C524 C526 1.384 . S
C525 C524 1.377 . S
C525 C531 1.390 . S
C526 H517 0.930 . S
C526 C524 1.384 . S
C526 C527 1.372 . S
C527 C526 1.372 . S
C527 C528 1.400 . S
C527 C532 1.490 . S
C528 H518 0.930 . S
C528 C527 1.400 . S
C528 C531 1.386 . S
H529 C545 0.930 . S
H530 C546 0.931 . S
C531 H519 0.929 . S
C531 C525 1.390 . S
C531 C528 1.386 . S
C532 C527 1.490 . S
C532 C534 1.395 . S
C532 C535 1.403 . S
H533 C539 0.930 . S
C534 H520 0.930 . S
C534 C532 1.395 . S
C534 C537 1.403 . S
C535 C532 1.403 . S
C535 C536 1.524 . S
C535 C539 1.400 . S
C536 H521 0.960 . S
C536 H522 0.960 . S
C536 H523 0.960 . S
C536 C535 1.524 . S
C537 C534 1.403 . S
C537 C538 1.392 . S
C537 C541 1.495 . S
C538 C537 1.392 . S
C538 C539 1.385 . S
C538 C540 1.478 . S
C539 H533 0.930 . S
C539 C535 1.400 . S
C539 C538 1.385 . S
C540 C538 1.478 . S
C540 C542 1.381 . S
C540 C546 1.383 . S
C541 C537 1.495 . S
C541 H547 0.959 . S
C541 H548 0.961 . S
C541 H549 0.960 . S
C542 C540 1.381 . S
C542 C543 1.394 . S
C542 H550 0.930 . S
C543 C542 1.394 . S
C543 C544 1.383 . S
C543 H551 0.929 . S
C544 C543 1.383 . S
C544 C545 1.377 . S
C545 H529 0.930 . S
C545 C544 1.377 . S
C545 C546 1.379 . S
C546 H530 0.931 . S
C546 C540 1.383 . S
C546 C545 1.379 . S
H547 C541 0.959 . S
H548 C541 0.961 . S
H549 C541 0.960 . S
H550 C542 0.930 . S
H551 C543 0.929 . S
H552 C560 0.929 . S
H553 C562 0.930 . S
H554 C564 0.930 1_554 S
H555 C567 0.929 . S
H556 C570 0.930 . S
H557 C572 0.960 . S
H558 C572 0.960 . S
H559 C572 0.960 . S
C560 H552 0.929 . S
C560 C561 1.377 . S
C560 C562 1.384 . S
C561 C560 1.377 . S
C561 C567 1.390 . S
C562 H553 0.930 . S
C562 C560 1.384 . S
C562 C563 1.372 . S
C563 C562 1.372 . S
C563 C564 1.400 . S
C563 C568 1.490 . S
C564 H554 0.930 1_556 S
C564 C563 1.400 . S
C564 C567 1.386 . S
H565 C581 0.930 . S
H566 C582 0.931 . S
C567 H555 0.929 . S
C567 C561 1.390 . S
C567 C564 1.386 . S
C568 C563 1.490 . S
C568 C570 1.395 . S
C568 C571 1.403 . S
H569 C575 0.930 . S
C570 H556 0.930 . S
C570 C568 1.395 . S
C570 C573 1.403 1_556 S
C571 C568 1.403 . S
C571 C572 1.524 . S
C571 C575 1.400 1_556 S
C572 H557 0.960 . S
C572 H558 0.960 . S
C572 H559 0.960 . S
C572 C571 1.524 . S
C573 C570 1.403 1_554 S
C573 C574 1.392 . S
C573 C577 1.495 . S
C574 C573 1.392 . S
C574 C575 1.385 . S
C574 C576 1.478 . S
C575 H569 0.930 . S
C575 C571 1.400 1_554 S
C575 C574 1.385 . S
C576 C574 1.478 . S
C576 C578 1.381 . S
C576 C582 1.383 . S
C577 C573 1.495 . S
C577 H583 0.959 . S
C577 H584 0.961 . S
C577 H585 0.960 . S
C578 C576 1.381 . S
C578 C579 1.394 . S
C578 H586 0.930 1_554 S
C579 C578 1.394 . S
C579 C580 1.383 . S
C579 H587 0.929 . S
C580 C579 1.383 . S
C580 C581 1.377 . S
C581 H565 0.930 . S
C581 C580 1.377 . S
C581 C582 1.379 . S
C582 H566 0.931 . S
C582 C576 1.383 . S
C582 C581 1.379 . S
H583 C577 0.959 . S
H584 C577 0.961 . S
H585 C577 0.960 . S
H586 C578 0.930 1_556 S
H587 C579 0.929 . S
H588 C596 0.929 . S
H589 C598 0.930 . S
H590 C600 0.930 . S
H591 C603 0.929 . S
H592 C606 0.930 . S
H593 C608 0.960 . S
H594 C608 0.960 . S
H595 C608 0.960 . S
C596 H588 0.929 . S
C596 C597 1.377 . S
C596 C598 1.384 . S
C597 C596 1.377 . S
C597 C603 1.390 . S
C598 H589 0.930 . S
C598 C596 1.384 . S
C598 C599 1.372 . S
C599 C598 1.372 . S
C599 C600 1.400 . S
C599 C604 1.490 . S
C600 H590 0.930 . S
C600 C599 1.400 . S
C600 C603 1.386 . S
H601 C617 0.930 . S
H602 C618 0.931 . S
C603 H591 0.929 . S
C603 C597 1.390 . S
C603 C600 1.386 . S
C604 C599 1.490 . S
C604 C606 1.395 . S
C604 C607 1.403 . S
H605 C611 0.930 . S
C606 H592 0.930 . S
C606 C604 1.395 . S
C606 C609 1.403 . S
C607 C604 1.403 . S
C607 C608 1.524 . S
C607 C611 1.400 . S
C608 H593 0.960 . S
C608 H594 0.960 . S
C608 H595 0.960 . S
C608 C607 1.524 . S
C609 C606 1.403 . S
C609 C610 1.392 . S
C609 C613 1.495 . S
C610 C609 1.392 . S
C610 C611 1.385 . S
C610 C612 1.478 . S
C611 H605 0.930 . S
C611 C607 1.400 . S
C611 C610 1.385 . S
C612 C610 1.478 . S
C612 C614 1.381 . S
C612 C618 1.383 . S
C613 C609 1.495 . S
C613 H619 0.959 . S
C613 H620 0.961 . S
C613 H621 0.960 . S
C614 C612 1.381 . S
C614 C615 1.394 . S
C614 H622 0.930 . S
C615 C614 1.394 . S
C615 C616 1.383 . S
C615 H623 0.929 . S
C616 C615 1.383 . S
C616 C617 1.377 . S
C617 H601 0.930 . S
C617 C616 1.377 . S
C617 C618 1.379 . S
C618 H602 0.931 . S
C618 C612 1.383 . S
C618 C617 1.379 . S
H619 C613 0.959 . S
H620 C613 0.961 . S
H621 C613 0.960 . S
H622 C614 0.930 . S
H623 C615 0.929 . S
H624 C632 0.929 . S
H625 C634 0.930 . S
H626 C636 0.930 . S
H627 C639 0.929 . S
H628 C642 0.930 . S
H629 C644 0.960 . S
H630 C644 0.960 . S
H631 C644 0.960 . S
C632 H624 0.929 . S
C632 C633 1.377 . S
C632 C634 1.384 . S
C633 C632 1.377 . S
C633 C639 1.390 . S
C634 H625 0.930 . S
C634 C632 1.384 . S
C634 C635 1.372 . S
C635 C634 1.372 . S
C635 C636 1.400 . S
C635 C640 1.490 . S
C636 H626 0.930 . S
C636 C635 1.400 . S
C636 C639 1.386 . S
H637 C653 0.930 . S
H638 C654 0.931 . S
C639 H627 0.929 . S
C639 C633 1.390 . S
C639 C636 1.386 . S
C640 C635 1.490 . S
C640 C642 1.395 1_556 S
C640 C643 1.403 . S
H641 C647 0.931 . S
C642 H628 0.930 . S
C642 C640 1.395 1_554 S
C642 C645 1.403 . S
C643 C640 1.403 . S
C643 C644 1.524 . S
C643 C647 1.400 1_556 S
C644 H629 0.960 . S
C644 H630 0.960 . S
C644 H631 0.960 . S
C644 C643 1.524 . S
C645 C642 1.403 . S
C645 C646 1.392 . S
C645 C649 1.495 . S
C646 C645 1.392 . S
C646 C647 1.385 . S
C646 C648 1.478 . S
C647 H641 0.931 . S
C647 C643 1.400 1_554 S
C647 C646 1.385 . S
C648 C646 1.478 . S
C648 C650 1.381 . S
C648 C654 1.383 . S
C649 C645 1.495 . S
C649 H655 0.959 . S
C649 H656 0.961 . S
C649 H657 0.960 . S
C650 C648 1.381 . S
C650 C651 1.394 . S
C650 H658 0.930 . S
C651 C650 1.394 . S
C651 C652 1.383 . S
C651 H659 0.929 . S
C652 C651 1.383 . S
C652 C653 1.377 . S
C653 H637 0.930 . S
C653 C652 1.377 . S
C653 C654 1.379 . S
C654 H638 0.931 . S
C654 C648 1.383 . S
C654 C653 1.379 . S
H655 C649 0.959 . S
H656 C649 0.961 . S
H657 C649 0.960 . S
H658 C650 0.930 . S
H659 C651 0.929 . S
H660 C668 0.929 1_556 S
H661 C670 0.930 . S
H662 C672 0.930 . S
H663 C675 0.929 . S
H664 C678 0.930 . S
H665 C680 0.960 . S
H666 C680 0.960 . S
H667 C680 0.960 . S
C668 H660 0.929 1_554 S
C668 C669 1.377 . S
C668 C670 1.384 . S
C669 C668 1.377 . S
C669 C675 1.390 . S
C670 H661 0.930 . S
C670 C668 1.384 . S
C670 C671 1.372 . S
C671 C670 1.372 . S
C671 C672 1.400 . S
C671 C676 1.490 . S
C672 H662 0.930 . S
C672 C671 1.400 . S
C672 C675 1.386 . S
H673 C689 0.930 . S
H674 C690 0.931 . S
C675 H663 0.929 . S
C675 C669 1.390 . S
C675 C672 1.386 . S
C676 C671 1.490 . S
C676 C678 1.395 . S
C676 C679 1.403 . S
H677 C683 0.930 . S
C678 H664 0.930 . S
C678 C676 1.395 . S
C678 C681 1.403 . S
C679 C676 1.403 . S
C679 C680 1.524 . S
C679 C683 1.400 . S
C680 H665 0.960 . S
C680 H666 0.960 . S
C680 H667 0.960 . S
C680 C679 1.524 . S
C681 C678 1.403 . S
C681 C682 1.392 . S
C681 C685 1.495 . S
C682 C681 1.392 . S
C682 C683 1.385 . S
C682 C684 1.478 . S
C683 H677 0.930 . S
C683 C679 1.400 . S
C683 C682 1.385 . S
C684 C682 1.478 . S
C684 C686 1.381 . S
C684 C690 1.383 . S
C685 C681 1.495 . S
C685 H691 0.959 . S
C685 H692 0.961 . S
C685 H693 0.960 . S
C686 C684 1.381 . S
C686 C687 1.394 . S
C686 H694 0.930 . S
C687 C686 1.394 . S
C687 C688 1.383 . S
C687 H695 0.929 . S
C688 C687 1.383 . S
C688 C689 1.377 . S
C689 H673 0.930 . S
C689 C688 1.377 . S
C689 C690 1.379 . S
C690 H674 0.931 . S
C690 C684 1.383 . S
C690 C689 1.379 . S
H691 C685 0.959 . S
H692 C685 0.961 . S
H693 C685 0.960 . S
H694 C686 0.930 . S
H695 C687 0.929 . S
H696 C704 0.929 . S
H697 C706 0.930 . S
H698 C708 0.930 . S
H699 C711 0.929 . S
H700 C714 0.930 . S
H701 C716 0.960 . S
H702 C716 0.960 . S
H703 C716 0.960 . S
C704 H696 0.929 . S
C704 C705 1.377 . S
C704 C706 1.384 . S
C705 C704 1.377 . S
C705 C711 1.390 . S
C706 H697 0.930 . S
C706 C704 1.384 . S
C706 C707 1.372 . S
C707 C706 1.372 . S
C707 C708 1.400 . S
C707 C712 1.490 . S
C708 H698 0.930 . S
C708 C707 1.400 . S
C708 C711 1.386 . S
H709 C725 0.930 . S
H710 C726 0.931 . S
C711 H699 0.929 . S
C711 C705 1.390 . S
C711 C708 1.386 . S
C712 C707 1.490 . S
C712 C714 1.395 . S
C712 C715 1.403 . S
H713 C719 0.930 . S
C714 H700 0.930 . S
C714 C712 1.395 . S
C714 C717 1.403 . S
C715 C712 1.403 . S
C715 C716 1.524 . S
C715 C719 1.400 . S
C716 H701 0.960 . S
C716 H702 0.960 . S
C716 H703 0.960 . S
C716 C715 1.524 . S
C717 C714 1.403 . S
C717 C718 1.392 . S
C717 C721 1.495 . S
C718 C717 1.392 . S
C718 C719 1.385 . S
C718 C720 1.478 . S
C719 H713 0.930 . S
C719 C715 1.400 . S
C719 C718 1.385 . S
C720 C718 1.478 . S
C720 C722 1.381 . S
C720 C726 1.383 . S
C721 C717 1.495 . S
C721 H727 0.959 . S
C721 H728 0.961 . S
C721 H729 0.960 . S
C722 C720 1.381 . S
C722 C723 1.394 . S
C722 H730 0.930 . S
C723 C722 1.394 . S
C723 C724 1.383 . S
C723 H731 0.929 . S
C724 C723 1.383 . S
C724 C725 1.377 . S
C725 H709 0.930 . S
C725 C724 1.377 . S
C725 C726 1.379 . S
C726 H710 0.931 . S
C726 C720 1.383 . S
C726 C725 1.379 . S
H727 C721 0.959 . S
H728 C721 0.961 . S
H729 C721 0.960 . S
H730 C722 0.930 . S
H731 C723 0.929 . S
H732 C740 0.929 . S
H733 C742 0.930 . S
H734 C744 0.930 . S
H735 C747 0.929 . S
H736 C750 0.930 . S
H737 C752 0.960 . S
H738 C752 0.960 . S
H739 C752 0.960 . S
C740 H732 0.929 . S
C740 C741 1.377 . S
C740 C742 1.384 . S
C741 C740 1.377 . S
C741 C747 1.390 . S
C742 H733 0.930 . S
C742 C740 1.384 . S
C742 C743 1.372 . S
C743 C742 1.372 . S
C743 C744 1.400 . S
C743 C748 1.490 . S
C744 H734 0.930 . S
C744 C743 1.400 . S
C744 C747 1.386 . S
H745 C761 0.930 . S
H746 C762 0.931 . S
C747 H735 0.929 . S
C747 C741 1.390 . S
C747 C744 1.386 . S
C748 C743 1.490 . S
C748 C750 1.395 . S
C748 C751 1.403 . S
H749 C755 0.930 . S
C750 H736 0.930 . S
C750 C748 1.395 . S
C750 C753 1.403 . S
C751 C748 1.403 . S
C751 C752 1.524 . S
C751 C755 1.400 . S
C752 H737 0.960 . S
C752 H738 0.960 . S
C752 H739 0.960 . S
C752 C751 1.524 . S
C753 C750 1.403 . S
C753 C754 1.392 . S
C753 C757 1.495 . S
C754 C753 1.392 . S
C754 C755 1.385 . S
C754 C756 1.478 . S
C755 H749 0.930 . S
C755 C751 1.400 . S
C755 C754 1.385 . S
C756 C754 1.478 . S
C756 C758 1.381 . S
C756 C762 1.383 . S
C757 C753 1.495 . S
C757 H763 0.959 . S
C757 H764 0.961 . S
C757 H765 0.960 . S
C758 C756 1.381 . S
C758 C759 1.394 . S
C758 H766 0.930 . S
C759 C758 1.394 . S
C759 C760 1.383 . S
C759 H767 0.929 . S
C760 C759 1.383 . S
C760 C761 1.377 . S
C761 H745 0.930 . S
C761 C760 1.377 . S
C761 C762 1.379 . S
C762 H746 0.931 . S
C762 C756 1.383 . S
C762 C761 1.379 . S
H763 C757 0.959 . S
H764 C757 0.961 . S
H765 C757 0.960 . S
H766 C758 0.930 . S
H767 C759 0.929 . S
H768 C776 0.929 . S
H769 C778 0.930 . S
H770 C780 0.930 . S
H771 C783 0.929 . S
H772 C786 0.930 . S
H773 C788 0.960 . S
H774 C788 0.960 . S
H775 C788 0.960 . S
C776 H768 0.929 . S
C776 C777 1.377 . S
C776 C778 1.384 . S
C777 C776 1.377 . S
C777 C783 1.390 . S
C778 H769 0.930 . S
C778 C776 1.384 . S
C778 C779 1.372 . S
C779 C778 1.372 . S
C779 C780 1.400 . S
C779 C784 1.490 . S
C780 H770 0.930 . S
C780 C779 1.400 . S
C780 C783 1.386 . S
H781 C797 0.930 . S
H782 C798 0.931 . S
C783 H771 0.929 . S
C783 C777 1.390 . S
C783 C780 1.386 . S
C784 C779 1.490 . S
C784 C786 1.395 . S
C784 C787 1.403 . S
H785 C791 0.930 . S
C786 H772 0.930 . S
C786 C784 1.395 . S
C786 C789 1.403 . S
C787 C784 1.403 . S
C787 C788 1.524 . S
C787 C791 1.400 . S
C788 H773 0.960 . S
C788 H774 0.960 . S
C788 H775 0.960 . S
C788 C787 1.524 . S
C789 C786 1.403 . S
C789 C790 1.392 . S
C789 C793 1.495 . S
C790 C789 1.392 . S
C790 C791 1.385 . S
C790 C792 1.478 . S
C791 H785 0.930 . S
C791 C787 1.400 . S
C791 C790 1.385 . S
C792 C790 1.478 . S
C792 C794 1.381 . S
C792 C798 1.383 . S
C793 C789 1.495 . S
C793 H799 0.959 . S
C793 H800 0.961 . S
C793 H801 0.960 . S
C794 C792 1.381 . S
C794 C795 1.394 . S
C794 H802 0.930 . S
C795 C794 1.394 . S
C795 C796 1.383 . S
C795 H803 0.929 . S
C796 C795 1.383 . S
C796 C797 1.377 . S
C797 H781 0.930 . S
C797 C796 1.377 . S
C797 C798 1.379 . S
C798 H782 0.931 . S
C798 C792 1.383 . S
C798 C797 1.379 . S
H799 C793 0.959 . S
H800 C793 0.961 . S
H801 C793 0.960 . S
H802 C794 0.930 . S
H803 C795 0.929 . S
H804 C812 0.929 . S
H805 C814 0.930 . S
H806 C816 0.930 . S
H807 C819 0.929 . S
H808 C822 0.930 . S
H809 C824 0.960 1_556 S
H810 C824 0.960 . S
H811 C824 0.959 1_556 S
C812 H804 0.929 . S
C812 C813 1.377 . S
C812 C814 1.384 . S
C813 C812 1.377 . S
C813 C819 1.390 . S
C814 H805 0.930 . S
C814 C812 1.384 . S
C814 C815 1.372 . S
C815 C814 1.372 . S
C815 C816 1.400 . S
C815 C820 1.490 . S
C816 H806 0.930 . S
C816 C815 1.400 . S
C816 C819 1.386 . S
H817 C833 0.930 . S
H818 C834 0.931 . S
C819 H807 0.929 . S
C819 C813 1.390 . S
C819 C816 1.386 . S
C820 C815 1.490 . S
C820 C822 1.395 . S
C820 C823 1.403 . S
H821 C827 0.930 . S
C822 H808 0.930 . S
C822 C820 1.395 . S
C822 C825 1.403 1_545 S
C823 C820 1.403 . S
C823 C824 1.524 . S
C823 C827 1.400 1_545 S
C824 H809 0.960 1_554 S
C824 H810 0.960 . S
C824 H811 0.959 1_554 S
C824 C823 1.524 . S
C825 C822 1.403 1_565 S
C825 C826 1.392 . S
C825 C829 1.495 . S
C826 C825 1.392 . S
C826 C827 1.385 . S
C826 C828 1.478 . S
C827 H821 0.930 . S
C827 C823 1.400 1_565 S
C827 C826 1.385 . S
C828 C826 1.478 . S
C828 C830 1.381 . S
C828 C834 1.383 . S
C829 C825 1.495 . S
C829 H835 0.959 . S
C829 H836 0.961 . S
C829 H837 0.960 . S
C830 C828 1.381 . S
C830 C831 1.394 . S
C830 H838 0.930 . S
C831 C830 1.394 . S
C831 C832 1.383 . S
C831 H839 0.929 . S
C832 C831 1.383 . S
C832 C833 1.377 . S
C833 H817 0.930 . S
C833 C832 1.377 . S
C833 C834 1.379 . S
C834 H818 0.931 . S
C834 C828 1.383 . S
C834 C833 1.379 . S
H835 C829 0.959 . S
H836 C829 0.961 . S
H837 C829 0.960 . S
H838 C830 0.930 . S
H839 C831 0.929 . S
H840 C848 0.929 . S
H841 C850 0.930 . S
H842 C852 0.930 . S
H843 C855 0.929 . S
H844 C858 0.930 . S
H845 C860 0.960 . S
H846 C860 0.960 . S
H847 C860 0.960 . S
C848 H840 0.929 . S
C848 C849 1.377 . S
C848 C850 1.384 . S
C849 C848 1.377 . S
C849 C855 1.390 . S
C850 H841 0.930 . S
C850 C848 1.384 . S
C850 C851 1.372 . S
C851 C850 1.372 . S
C851 C852 1.400 . S
C851 C856 1.490 . S
C852 H842 0.930 . S
C852 C851 1.400 . S
C852 C855 1.386 . S
H853 C869 0.930 . S
H854 C870 0.931 . S
C855 H843 0.929 . S
C855 C849 1.390 . S
C855 C852 1.386 . S
C856 C851 1.490 . S
C856 C858 1.395 . S
C856 C859 1.403 . S
H857 C863 0.930 . S
C858 H844 0.930 . S
C858 C856 1.395 . S
C858 C861 1.403 . S
C859 C856 1.403 . S
C859 C860 1.524 . S
C859 C863 1.400 . S
C860 H845 0.960 . S
C860 H846 0.960 . S
C860 H847 0.960 . S
C860 C859 1.524 . S
C861 C858 1.403 . S
C861 C862 1.392 . S
C861 C865 1.495 . S
C862 C861 1.392 . S
C862 C863 1.385 . S
C862 C864 1.478 . S
C863 H857 0.930 . S
C863 C859 1.400 . S
C863 C862 1.385 . S
C864 C862 1.478 . S
C864 C866 1.381 . S
C864 C870 1.383 . S
C865 C861 1.495 . S
C865 H871 0.959 . S
C865 H872 0.961 . S
C865 H873 0.960 . S
C866 C864 1.381 . S
C866 C867 1.394 . S
C866 H874 0.930 . S
C867 C866 1.394 . S
C867 C868 1.383 . S
C867 H875 0.929 . S
C868 C867 1.383 . S
C868 C869 1.377 . S
C869 H853 0.930 . S
C869 C868 1.377 . S
C869 C870 1.379 . S
C870 H854 0.931 . S
C870 C864 1.383 . S
C870 C869 1.379 . S
H871 C865 0.959 . S
H872 C865 0.961 . S
H873 C865 0.960 . S
H874 C866 0.930 . S
H875 C867 0.929 . S
H876 C884 0.929 . S
H877 C886 0.930 . S
H878 C888 0.930 . S
H879 C891 0.929 . S
H880 C894 0.930 . S
H881 C896 0.960 . S
H882 C896 0.960 . S
H883 C896 0.960 . S
C884 H876 0.929 . S
C884 C885 1.377 . S
C884 C886 1.384 . S
C885 C884 1.377 . S
C885 C891 1.390 . S
C886 H877 0.930 . S
C886 C884 1.384 . S
C886 C887 1.372 . S
C887 C886 1.372 . S
C887 C888 1.400 . S
C887 C892 1.490 . S
C888 H878 0.930 . S
C888 C887 1.400 . S
C888 C891 1.386 . S
H889 C905 0.930 . S
H890 C906 0.931 . S
C891 H879 0.929 . S
C891 C885 1.390 . S
C891 C888 1.386 . S
C892 C887 1.490 . S
C892 C894 1.395 . S
C892 C895 1.403 . S
H893 C899 0.930 . S
C894 H880 0.930 . S
C894 C892 1.395 . S
C894 C897 1.403 1_455 S
C895 C892 1.403 . S
C895 C896 1.524 . S
C895 C899 1.400 1_455 S
C896 H881 0.960 . S
C896 H882 0.960 . S
C896 H883 0.960 . S
C896 C895 1.524 . S
C897 C894 1.403 1_655 S
C897 C898 1.392 . S
C897 C901 1.495 . S
C898 C897 1.392 . S
C898 C899 1.385 . S
C898 C900 1.478 . S
C899 H893 0.930 . S
C899 C895 1.400 1_655 S
C899 C898 1.385 . S
C900 C898 1.478 . S
C900 C902 1.381 . S
C900 C906 1.383 . S
C901 C897 1.495 . S
C901 H907 0.959 . S
C901 H908 0.961 . S
C901 H909 0.960 . S
C902 C900 1.381 . S
C902 C903 1.394 . S
C902 H910 0.930 . S
C903 C902 1.394 . S
C903 C904 1.383 . S
C903 H911 0.929 . S
C904 C903 1.383 . S
C904 C905 1.377 . S
C905 H889 0.930 . S
C905 C904 1.377 . S
C905 C906 1.379 . S
C906 H890 0.931 . S
C906 C900 1.383 . S
C906 C905 1.379 . S
H907 C901 0.959 . S
H908 C901 0.961 . S
H909 C901 0.960 . S
H910 C902 0.930 . S
H911 C903 0.929 . S
H912 C920 0.929 . S
H913 C922 0.930 . S
H914 C924 0.930 . S
H915 C927 0.929 . S
H916 C930 0.930 . S
H917 C932 0.960 . S
H918 C932 0.960 . S
H919 C932 0.960 . S
C920 H912 0.929 . S
C920 C921 1.377 . S
C920 C922 1.384 . S
C921 C920 1.377 . S
C921 C927 1.390 . S
C922 H913 0.930 . S
C922 C920 1.384 . S
C922 C923 1.372 . S
C923 C922 1.372 . S
C923 C924 1.400 . S
C923 C928 1.490 . S
C924 H914 0.930 . S
C924 C923 1.400 . S
C924 C927 1.386 . S
H925 C941 0.930 . S
H926 C942 0.931 . S
C927 H915 0.929 . S
C927 C921 1.390 . S
C927 C924 1.386 . S
C928 C923 1.490 . S
C928 C930 1.395 . S
C928 C931 1.403 . S
H929 C935 0.930 . S
C930 H916 0.930 . S
C930 C928 1.395 . S
C930 C933 1.403 1_565 S
C931 C928 1.403 . S
C931 C932 1.524 . S
C931 C935 1.400 1_565 S
C932 H917 0.960 . S
C932 H918 0.960 . S
C932 H919 0.960 . S
C932 C931 1.524 . S
C933 C930 1.403 1_545 S
C933 C934 1.392 . S
C933 C937 1.495 . S
C934 C933 1.392 . S
C934 C935 1.385 . S
C934 C936 1.478 . S
C935 H929 0.930 . S
C935 C931 1.400 1_545 S
C935 C934 1.385 . S
C936 C934 1.478 . S
C936 C938 1.381 . S
C936 C942 1.383 . S
C937 C933 1.495 . S
C937 H943 0.959 . S
C937 H944 0.961 . S
C937 H945 0.960 . S
C938 C936 1.381 . S
C938 C939 1.394 . S
C938 H946 0.930 . S
C939 C938 1.394 . S
C939 C940 1.383 . S
C939 H947 0.929 . S
C940 C939 1.383 . S
C940 C941 1.377 . S
C941 H925 0.930 . S
C941 C940 1.377 . S
C941 C942 1.379 . S
C942 H926 0.931 . S
C942 C936 1.383 . S
C942 C941 1.379 . S
H943 C937 0.959 . S
H944 C937 0.961 . S
H945 C937 0.960 . S
H946 C938 0.930 . S
H947 C939 0.929 . S
H948 C956 0.929 . S
H949 C958 0.930 . S
H950 C960 0.930 . S
H951 C963 0.929 . S
H952 C966 0.930 . S
H953 C968 0.960 . S
H954 C968 0.960 . S
H955 C968 0.960 . S
C956 H948 0.929 . S
C956 C957 1.377 . S
C956 C958 1.384 . S
C957 C956 1.377 . S
C957 C963 1.390 . S
C958 H949 0.930 . S
C958 C956 1.384 . S
C958 C959 1.372 . S
C959 C958 1.372 . S
C959 C960 1.400 . S
C959 C964 1.490 . S
C960 H950 0.930 . S
C960 C959 1.400 . S
C960 C963 1.386 . S
H961 C977 0.930 . S
H962 C978 0.931 . S
C963 H951 0.929 . S
C963 C957 1.390 . S
C963 C960 1.386 . S
C964 C959 1.490 . S
C964 C966 1.395 . S
C964 C967 1.403 . S
H965 C971 0.930 . S
C966 H952 0.930 . S
C966 C964 1.395 . S
C966 C969 1.403 . S
C967 C964 1.403 . S
C967 C968 1.524 . S
C967 C971 1.400 . S
C968 H953 0.960 . S
C968 H954 0.960 . S
C968 H955 0.960 . S
C968 C967 1.524 . S
C969 C966 1.403 . S
C969 C970 1.392 . S
C969 C973 1.495 . S
C970 C969 1.392 . S
C970 C971 1.385 . S
C970 C972 1.478 . S
C971 H965 0.930 . S
C971 C967 1.400 . S
C971 C970 1.385 . S
C972 C970 1.478 . S
C972 C974 1.381 . S
C972 C978 1.383 . S
C973 C969 1.495 . S
C973 H979 0.959 . S
C973 H980 0.961 . S
C973 H981 0.960 . S
C974 C972 1.381 . S
C974 C975 1.394 . S
C974 H982 0.930 . S
C975 C974 1.394 . S
C975 C976 1.383 . S
C975 H983 0.929 . S
C976 C975 1.383 . S
C976 C977 1.377 . S
C977 H961 0.930 . S
C977 C976 1.377 . S
C977 C978 1.379 . S
C978 H962 0.931 . S
C978 C972 1.383 . S
C978 C977 1.379 . S
H979 C973 0.959 . S
H980 C973 0.961 . S
H981 C973 0.960 . S
H982 C974 0.930 . S
H983 C975 0.929 . S
H984 C992 0.929 . S
H985 C994 0.930 . S
H986 C996 0.930 . S
H987 C999 0.929 . S
H988 C1002 0.930 . S
H989 C1004 0.960 . S
H990 C1004 0.960 . S
H991 C1004 0.960 . S
C992 H984 0.929 . S
C992 C993 1.377 . S
C992 C994 1.384 . S
C993 C992 1.377 . S
C993 C999 1.390 . S
C994 H985 0.930 . S
C994 C992 1.384 . S
C994 C995 1.372 . S
C995 C994 1.372 . S
C995 C996 1.400 . S
C995 C1000 1.490 . S
C996 H986 0.930 . S
C996 C995 1.400 . S
C996 C999 1.386 . S
H997 C1013 0.930 . S
H998 C1014 0.931 . S
C999 H987 0.929 . S
C999 C993 1.390 . S
C999 C996 1.386 . S
C1000 C995 1.490 . S
C1000 C1002 1.395 . S
C1000 C1003 1.403 . S
H1001 C1007 0.930 . S
C1002 H988 0.930 . S
C1002 C1000 1.395 . S
C1002 C1005 1.403 1_455 S
C1003 C1000 1.403 . S
C1003 C1004 1.524 . S
C1003 C1007 1.400 1_455 S
C1004 H989 0.960 . S
C1004 H990 0.960 . S
C1004 H991 0.960 . S
C1004 C1003 1.524 . S
C1005 C1002 1.403 1_655 S
C1005 C1006 1.392 . S
C1005 C1009 1.495 . S
C1006 C1005 1.392 . S
C1006 C1007 1.385 . S
C1006 C1008 1.478 . S
C1007 H1001 0.930 . S
C1007 C1003 1.400 1_655 S
C1007 C1006 1.385 . S
C1008 C1006 1.478 . S
C1008 C1010 1.381 . S
C1008 C1014 1.383 . S
C1009 C1005 1.495 . S
C1009 H1015 0.959 1_556 S
C1009 H1016 0.961 1_556 S
C1009 H1017 0.960 . S
C1010 C1008 1.381 . S
C1010 C1011 1.394 . S
C1010 H1018 0.930 . S
C1011 C1010 1.394 . S
C1011 C1012 1.383 . S
C1011 H1019 0.929 . S
C1012 C1011 1.383 . S
C1012 C1013 1.377 . S
C1013 H997 0.930 . S
C1013 C1012 1.377 . S
C1013 C1014 1.379 . S
C1014 H998 0.931 . S
C1014 C1008 1.383 . S
C1014 C1013 1.379 . S
H1015 C1009 0.959 1_554 S
H1016 C1009 0.961 1_554 S
H1017 C1009 0.960 . S
H1018 C1010 0.930 . S
H1019 C1011 0.929 . S
C165 C8 1.222 . S
C184 C138 1.248 . S
C201 C21 1.223 . S
C220 C151 1.197 . S
C237 C86 1.224 . S
C256 C34 1.196 . S
C273 C47 1.228 . S
C292 C99 1.236 1_556 S
C309 C112 1.227 . S
C328 C60 1.237 . S
C345 C125 1.222 . S
C364 C73 1.248 1_554 S
C381 C104 1.062 . S
C400 C0 1.081 . S
C417 C13 1.069 . S
C436 C117 1.062 . S
C453 C130 1.064 . S
C472 C26 1.077 . S
C489 C39 1.071 . S
C508 C143 1.040 . S
C525 C52 1.066 . S
C544 C78 1.077 . S
C561 C65 1.064 . S
C580 C91 1.088 . S
C597 C140 1.636 . S
C616 C10 1.647 1_556 S
C633 C153 1.631 . S
C652 C23 1.613 . S
C669 C88 1.631 1_554 S
C688 C36 1.626 . S
C705 C49 1.633 . S
C724 C101 1.618 . S
C741 C62 1.632 . S
C760 C114 1.630 . S
C777 C127 1.632 . S
C796 C75 1.628 . S
C813 C5 1.019 . S
C832 C96 1.020 . S
C849 C109 1.033 . S
C868 C18 1.065 . S
C885 C122 1.023 . S
C904 C31 0.987 . S
C921 C44 1.033 . S
C940 C135 1.064 . S
C957 C57 1.028 . S
C976 C148 0.981 . S
C993 C70 1.020 . S
C1012 C83 1.001 . S
