# Generated by pormake.
# Topology unh, (4)-cn, num edge types: 1
# Building blocks:
#     Node 0, Type 0, BuildingBlock: NAWXER_clean_sbu_0, # of connection points: 4
#     Node 1, Type 0, BuildingBlock: NAWXER_clean_sbu_0, # of connection points: 4
#     Node 2, Type 0, BuildingBlock: NAWXER_clean_sbu_0, # of connection points: 4
#     Node 3, Type 0, BuildingBlock: NAWXER_clean_sbu_0, # of connection points: 4
#     Node 4, Type 0, BuildingBlock: NAWXER_clean_sbu_0, # of connection points: 4
#     Node 5, Type 0, BuildingBlock: NAWXER_clean_sbu_0, # of connection points: 4
#     Edge 6, Type (0, 0), BuildingBlock: MIFKUJ_clean_linker_0, # of connection points: 2
#     Edge 7, Type (0, 0), BuildingBlock: MIFKUJ_clean_linker_0, # of connection points: 2
#     Edge 8, Type (0, 0), BuildingBlock: MIFKUJ_clean_linker_0, # of connection points: 2
#     Edge 9, Type (0, 0), BuildingBlock: MIFKUJ_clean_linker_0, # of connection points: 2
#     Edge 10, Type (0, 0), BuildingBlock: MIFKUJ_clean_linker_0, # of connection points: 2
#     Edge 11, Type (0, 0), BuildingBlock: MIFKUJ_clean_linker_0, # of connection points: 2
#     Edge 12, Type (0, 0), BuildingBlock: MIFKUJ_clean_linker_0, # of connection points: 2
#     Edge 13, Type (0, 0), BuildingBlock: MIFKUJ_clean_linker_0, # of connection points: 2
#     Edge 14, Type (0, 0), BuildingBlock: MIFKUJ_clean_linker_0, # of connection points: 2
#     Edge 15, Type (0, 0), BuildingBlock: MIFKUJ_clean_linker_0, # of connection points: 2
#     Edge 16, Type (0, 0), BuildingBlock: MIFKUJ_clean_linker_0, # of connection points: 2
#     Edge 17, Type (0, 0), BuildingBlock: MIFKUJ_clean_linker_0, # of connection points: 2
# Relax obj value: 0.020
# Max RMSD: 0.247
# Mean RMSD: 0.247
data_MOF--net-unh--node1-NAWXER_clean_sbu_0--edge1-MIFKUJ_clean_linker_0
_symmetry_space_group_name_H-M    P1
_symmetry_Int_Tables_number       1
_symmetry_cell_setting            triclinic
loop_
_symmetry_equiv_pos_as_xyz
'x, y, z'
_cell_length_a     58.363911
_cell_length_b     58.550357
_cell_length_c     27.830266
_cell_angle_alpha  90.097879
_cell_angle_beta   89.92422
_cell_angle_gamma 120.00532
loop_
_atom_site_label
_atom_site_type_symbol
_atom_site_fract_x
_atom_site_fract_y
_atom_site_fract_z
_atom_type_partial_charge
C0 C 0.10923 0.55631 0.15576 0.0
C1 C 0.17991 0.617 0.05034 0.0
O2 O 0.12056 0.58122 0.15263 0.0
Zn3 Zn 0.14427 0.58581 0.1017 0.0
O4 O 0.11645 0.5436 0.12765 0.0
Zn5 Zn 0.14552 0.55443 0.0699 0.0
O6 O 0.16815 0.54191 0.09177 0.0
O7 O 0.17196 0.5755 0.13418 0.0
O8 O 0.17391 0.59306 0.04197 0.0
O9 O 0.1671 0.62159 0.08205 0.0
O10 O 0.11779 0.56824 0.04064 0.0
O11 O 0.12487 0.53673 0.01463 0.0
C12 C 0.17904 0.55832 0.12573 0.0
C13 C 0.11282 0.54961 0.01069 0.0
C14 C 0.56432 0.17451 0.2133 0.0
C15 C 0.55122 0.10712 0.32932 0.0
O16 O 0.5458 0.16244 0.24351 0.0
Zn17 Zn 0.55804 0.14037 0.26962 0.0
O18 O 0.58253 0.16835 0.20949 0.0
Zn19 Zn 0.59158 0.14037 0.24434 0.0
O20 O 0.58955 0.11741 0.19336 0.0
O21 O 0.55071 0.11268 0.21179 0.0
O22 O 0.57179 0.11355 0.30347 0.0
O23 O 0.53756 0.1181 0.32166 0.0
O24 O 0.59523 0.16914 0.30307 0.0
O25 O 0.62608 0.16289 0.27011 0.0
C26 C 0.56479 0.10603 0.18627 0.0
C27 C 0.61962 0.17531 0.29947 0.0
C28 C 0.4615 0.55964 0.35463 0.0
C29 C 0.45019 0.6179 0.4645 0.0
O30 O 0.47502 0.58449 0.35939 0.0
Zn31 Zn 0.45562 0.58798 0.41127 0.0
O32 O 0.44154 0.54633 0.3824 0.0
Zn33 Zn 0.42282 0.55574 0.4412 0.0
O34 O 0.38769 0.543 0.41825 0.0
O35 O 0.41767 0.57782 0.37874 0.0
O36 O 0.43232 0.59374 0.47126 0.0
O37 O 0.46806 0.6233 0.43333 0.0
O38 O 0.46446 0.56959 0.47074 0.0
O39 O 0.42581 0.53743 0.49545 0.0
C40 C 0.39336 0.56013 0.38565 0.0
C41 C 0.45076 0.55047 0.49973 0.0
C42 C 0.83775 0.45008 0.62454 0.0
C43 C 0.90497 0.45737 0.51243 0.0
O44 O 0.85014 0.46721 0.59232 0.0
Zn45 Zn 0.87173 0.45333 0.57005 0.0
O46 O 0.84337 0.43176 0.63179 0.0
Zn47 Zn 0.87069 0.42056 0.60092 0.0
O48 O 0.89254 0.42362 0.65447 0.0
O49 O 0.89974 0.46219 0.62832 0.0
O50 O 0.89833 0.4379 0.54121 0.0
O51 O 0.89403 0.47131 0.51669 0.0
O52 O 0.84237 0.41542 0.54011 0.0
O53 O 0.84749 0.38542 0.57878 0.0
C54 C 0.90512 0.44857 0.65755 0.0
C55 C 0.83553 0.39115 0.5472 0.0
C56 C 0.39392 0.83314 0.7977 0.0
C57 C 0.45004 0.90213 0.68562 0.0
O58 O 0.38803 0.84534 0.76695 0.0
Zn59 Zn 0.42282 0.86775 0.74292 0.0
O60 O 0.41824 0.83932 0.80285 0.0
Zn61 Zn 0.45587 0.86762 0.76963 0.0
O62 O 0.47608 0.88976 0.82179 0.0
O63 O 0.44224 0.89472 0.80253 0.0
O64 O 0.46395 0.89557 0.71175 0.0
O65 O 0.42522 0.89058 0.69184 0.0
O66 O 0.43201 0.8397 0.70876 0.0
O67 O 0.4682 0.84538 0.74437 0.0
C68 C 0.46261 0.901 0.82889 0.0
C69 C 0.45009 0.83344 0.71344 0.0
C70 C 0.55556 0.44825 0.85303 0.0
C71 C 0.5667 0.39067 0.96416 0.0
O72 O 0.54275 0.42332 0.85644 0.0
Zn73 Zn 0.56149 0.42021 0.90991 0.0
O74 O 0.57474 0.46179 0.88215 0.0
Zn75 Zn 0.5935 0.4528 0.94106 0.0
O76 O 0.62907 0.46598 0.91927 0.0
O77 O 0.5998 0.4312 0.87869 0.0
O78 O 0.58408 0.41494 0.97172 0.0
O79 O 0.54942 0.38504 0.93174 0.0
O80 O 0.55144 0.4381 0.96912 0.0
O81 O 0.58942 0.47132 0.99379 0.0
C82 C 0.62392 0.44908 0.88635 0.0
C83 C 0.56445 0.45771 0.99766 0.0
H84 H 0.11012 0.5254 0.92572 0.0
H85 H 0.07665 0.51224 0.8631 0.0
H86 H 0.03637 0.54365 0.94697 0.0
H87 H 0.07075 0.55811 0.00868 0.0
H88 H 0.02881 0.47855 0.86218 0.0
H89 H 0.99925 0.55969 0.8772 0.0
H90 H 0.02024 0.60722 0.89541 0.0
H91 H 0.09571 0.61823 0.85183 0.0
H92 H 0.07513 0.57086 0.83275 0.0
H93 H 0.90753 0.42957 0.7453 0.0
H94 H 0.94301 0.44989 0.80451 0.0
H95 H 0.98622 0.51669 0.71056 0.0
H96 H 0.94981 0.49703 0.65247 0.0
H97 H 0.99442 0.53413 0.79584 0.0
H98 H 1.00013 0.46393 0.72096 0.0
H99 H 0.98444 0.41859 0.69235 0.0
H100 H 0.96658 0.38994 0.83731 0.0
H101 H 0.98185 0.43508 0.86673 0.0
C102 C 0.09427 0.52975 0.93058 0.0
C103 C 0.09304 0.54279 0.97208 0.0
C104 C 0.07507 0.52215 0.89478 0.0
C105 C 0.05393 0.527 0.89994 0.0
C106 C 0.05273 0.54014 0.94144 0.0
C107 C 0.07231 0.54828 0.97687 0.0
C108 C 0.03261 0.51711 0.86295 0.0
C109 C 0.0214 0.4908 0.84767 0.0
C110 C 0.02315 0.53311 0.84302 0.0
C111 C 0.03567 0.56167 0.85404 0.0
C112 C 0.02031 0.57228 0.87135 0.0
C113 C 0.03214 0.59918 0.88185 0.0
C114 C 0.0593 0.61571 0.87494 0.0
C115 C 0.07469 0.60539 0.85735 0.0
C116 C 0.06295 0.5785 0.84675 0.0
C117 C 0.92453 0.44868 0.73746 0.0
C118 C 0.92607 0.46164 0.69415 0.0
C119 C 0.9449 0.46024 0.77121 0.0
C120 C 0.96774 0.48454 0.76159 0.0
C121 C 0.96892 0.49789 0.71886 0.0
C122 C 0.94815 0.48663 0.68561 0.0
C123 C 0.99058 0.49556 0.79547 0.0
C124 C 1.00196 0.52198 0.81029 0.0
C125 C 1.00104 0.48003 0.81349 0.0
C126 C 0.99192 0.45285 0.79599 0.0
C127 C 0.9927 0.44793 0.7467 0.0
C128 C 0.9839 0.42228 0.73034 0.0
C129 C 0.97446 0.40139 0.76298 0.0
C130 C 0.97387 0.40613 0.81206 0.0
C131 C 0.98261 0.43175 0.82861 0.0
H132 H 0.96766 0.38154 0.75024 0.0
H133 H 0.06842 0.63653 0.88312 0.0
H134 H 0.50893 0.92464 0.87901 0.0
H135 H 0.52276 0.95846 0.94085 0.0
H136 H 0.44852 0.95726 0.92756 0.0
H137 H 0.4348 0.9238 0.8642 0.0
H138 H 0.48726 0.00623 0.93468 0.0
H139 H 0.46159 0.92801 0.0244 0.0
H140 H 0.45997 0.88647 0.04652 0.0
H141 H 0.54342 0.92877 0.07534 0.0
H142 H 0.54562 0.97054 0.05275 0.0
H143 H 0.51368 0.08174 0.15323 0.0
H144 H 0.49319 0.0462 0.09368 0.0
H145 H 0.567 0.04684 0.07749 0.0
H146 H 0.58763 0.08231 0.13662 0.0
H147 H 0.52369 0.9964 0.08928 0.0
H148 H 0.5484 0.07444 0.99375 0.0
H149 H 0.54844 0.1154 0.97309 0.0
H150 H 0.46388 0.072 0.9584 0.0
H151 H 0.46331 0.03081 0.97963 0.0
C152 C 0.49545 0.93146 0.88927 0.0
C153 C 0.47068 0.92139 0.86684 0.0
C154 C 0.50336 0.95076 0.92488 0.0
C155 C 0.48649 0.96009 0.93964 0.0
C156 C 0.46183 0.95029 0.91696 0.0
C157 C 0.45399 0.93113 0.88084 0.0
C158 C 0.49498 0.98038 0.97816 0.0
C159 C 0.49476 1.00384 0.96883 0.0
C160 C 0.50503 0.97746 0.02265 0.0
C161 C 0.50379 0.95239 0.03652 0.0
C162 C 0.47963 0.92843 0.03514 0.0
C163 C 0.47861 0.90485 0.04781 0.0
C164 C 0.50159 0.90497 0.06224 0.0
C165 C 0.52564 0.9287 0.06414 0.0
C166 C 0.52678 0.95234 0.05146 0.0
C167 C 0.52556 0.07436 0.1369 0.0
C168 C 0.55231 0.0849 0.14964 0.0
C169 C 0.51384 0.0541 0.10281 0.0
C170 C 0.52862 0.04396 0.08108 0.0
C171 C 0.55525 0.05437 0.09388 0.0
C172 C 0.56702 0.07473 0.12757 0.0
C173 C 0.51643 0.02231 0.04529 0.0
C174 C 0.51592 0.99859 0.05528 0.0
C175 C 0.50543 0.02487 1.00176 0.0
C176 C 0.50579 0.0496 0.98881 0.0
C177 C 0.52979 0.07367 0.98652 0.0
C178 C 0.52992 0.09692 0.97463 0.0
C179 C 0.50617 0.09631 0.96458 0.0
C180 C 0.48225 0.07244 0.96627 0.0
C181 C 0.48202 0.04914 0.97821 0.0
H182 H 0.5063 0.11433 0.95537 0.0
H183 H 0.50076 0.88669 0.07203 0.0
H184 H 0.43335 0.5082 0.32361 0.0
H185 H 0.44601 0.48714 0.26093 0.0
H186 H 0.51946 0.55997 0.23993 0.0
H187 H 0.50666 0.58121 0.30115 0.0
H188 H 0.49945 0.53991 0.15678 0.0
H189 H 0.51456 0.50578 0.30389 0.0
H190 H 0.50204 0.48267 0.38181 0.0
H191 H 0.44331 0.41206 0.31193 0.0
H192 H 0.45526 0.43488 0.23364 0.0
H193 H 0.58516 0.5029 0.0506 0.0
H194 H 0.56258 0.51601 0.10875 0.0
H195 H 0.49007 0.44263 0.08595 0.0
H196 H 0.51256 0.42931 0.02692 0.0
H197 H 0.50324 0.4583 0.18605 0.0
H198 H 0.49285 0.4927 0.03685 0.0
H199 H 0.5079 0.51661 0.96002 0.0
H200 H 0.56028 0.58792 0.0357 0.0
H201 H 0.54586 0.56433 0.113 0.0
C202 C 0.4522 0.51968 0.30563 0.0
C203 C 0.46898 0.54639 0.31741 0.0
C204 C 0.45947 0.5076 0.26991 0.0
C205 C 0.48383 0.52188 0.24587 0.0
C206 C 0.50053 0.54853 0.25772 0.0
C207 C 0.49319 0.56065 0.29293 0.0
C208 C 0.49215 0.50946 0.20811 0.0
C209 C 0.50041 0.52216 0.16343 0.0
C210 C 0.49274 0.48585 0.21604 0.0
C211 C 0.48558 0.47212 0.26303 0.0
C212 C 0.49883 0.48539 0.30521 0.0
C213 C 0.49187 0.47233 0.34942 0.0
C214 C 0.47184 0.44594 0.35184 0.0
C215 C 0.45879 0.43252 0.31002 0.0
C216 C 0.46565 0.4455 0.26572 0.0
C217 C 0.56443 0.48944 0.05793 0.0
C218 C 0.55064 0.46507 0.03396 0.0
C219 C 0.55155 0.49702 0.09113 0.0
C220 C 0.52464 0.48037 0.10137 0.0
C221 C 0.51086 0.45576 0.07843 0.0
C222 C 0.5237 0.44824 0.04465 0.0
C223 C 0.51113 0.4892 0.1356 0.0
C224 C 0.50189 0.47584 0.1794 0.0
C225 C 0.50987 0.51235 0.12713 0.0
C226 C 0.5184 0.52668 0.08072 0.0
C227 C 0.50773 0.51343 0.03711 0.0
C228 C 0.51612 0.52693 0.99347 0.0
C229 C 0.53507 0.55375 0.99297 0.0
C230 C 0.54561 0.56714 0.03614 0.0
C231 C 0.53731 0.55372 0.07988 0.0
H232 H 0.54154 0.56417 0.95915 0.0
H233 H 0.46648 0.43587 0.3861 0.0
H234 H 0.92737 0.50062 0.45442 0.0
H235 H 0.96044 0.51156 0.39194 0.0
H236 H 0.96157 0.43979 0.42115 0.0
H237 H 0.9287 0.42894 0.48508 0.0
H238 H 0.01057 0.47943 0.40797 0.0
H239 H 0.93033 0.44514 0.32069 0.0
H240 H 0.88712 0.43955 0.29705 0.0
H241 H 0.92488 0.52049 0.25225 0.0
H242 H 0.96829 0.52669 0.27629 0.0
H243 H 0.0874 0.50525 0.18816 0.0
H244 H 0.05135 0.48285 0.24681 0.0
H245 H 0.04576 0.55328 0.26026 0.0
H246 H 0.08171 0.57577 0.20264 0.0
H247 H 0.99642 0.5063 0.24674 0.0
H248 H 0.07601 0.54035 0.34431 0.0
H249 H 0.11876 0.54454 0.36722 0.0
H250 H 0.08076 0.46091 0.38984 0.0
H251 H 0.03782 0.45618 0.36639 0.0
C252 C 0.93455 0.48706 0.44763 0.0
C253 C 0.92522 0.46379 0.4746 0.0
C254 C 0.95341 0.4933 0.41162 0.0
C255 C 0.96314 0.47624 0.40108 0.0
C256 C 0.95423 0.45317 0.42842 0.0
C257 C 0.93542 0.44698 0.46487 0.0
C258 C 0.98286 0.48299 0.36187 0.0
C259 C 1.00723 0.48475 0.37241 0.0
C260 C 0.97864 0.49005 0.31541 0.0
C261 C 0.95257 0.48641 0.30059 0.0
C262 C 0.92941 0.4618 0.30609 0.0
C263 C 0.90488 0.45851 0.29258 0.0
C264 C 0.90325 0.47966 0.27323 0.0
C265 C 0.92617 0.50412 0.26726 0.0
C266 C 0.95075 0.50752 0.28075 0.0
C267 C 0.07846 0.51592 0.20366 0.0
C268 C 0.08747 0.54231 0.19085 0.0
C269 C 0.05794 0.50313 0.23718 0.0
C270 C 0.04594 0.51645 0.25784 0.0
C271 C 0.05472 0.54264 0.24465 0.0
C272 C 0.07538 0.5555 0.21184 0.0
C273 C 0.02423 0.50345 0.29342 0.0
C274 C 0.99948 0.50049 0.28208 0.0
C275 C 0.02801 0.495 0.3388 0.0
C276 C 0.05379 0.49787 0.353 0.0
C277 C 0.07682 0.52282 0.35371 0.0
C278 C 0.10107 0.5253 0.3669 0.0
C279 C 0.10249 0.50299 0.37981 0.0
C280 C 0.07964 0.47816 0.37972 0.0
C281 C 0.05535 0.47557 0.3665 0.0
H282 H 0.12128 0.50495 0.39002 0.0
H283 H 0.88424 0.47708 0.2628 0.0
H284 H 0.50417 0.08208 0.37727 0.0
H285 H 0.49057 0.0484 0.43926 0.0
H286 H 0.56654 0.05286 0.43055 0.0
H287 H 0.57998 0.08607 0.36703 0.0
H288 H 0.52944 1.0035 0.43687 0.0
H289 H 0.55006 0.08098 0.52573 0.0
H290 H 0.54903 0.12141 0.54655 0.0
H291 H 0.46527 0.07571 0.57103 0.0
H292 H 0.46572 0.03503 0.54972 0.0
H293 H 0.50183 0.92793 0.65558 0.0
H294 H 0.52242 0.96373 0.5966 0.0
H295 H 0.44758 0.96029 0.57528 0.0
H296 H 0.4269 0.92465 0.63379 0.0
H297 H 0.48909 0.01118 0.58865 0.0
H298 H 0.46949 0.93399 0.49375 0.0
H299 H 0.47201 0.89418 0.47443 0.0
H300 H 0.55664 0.94087 0.46464 0.0
H301 H 0.55464 0.98093 0.48455 0.0
C302 C 0.51805 0.07599 0.3886 0.0
C303 C 0.54322 0.08688 0.36739 0.0
C304 C 0.51029 0.05679 0.42428 0.0
C305 C 0.5277 0.04841 0.44036 0.0
C306 C 0.55279 0.05906 0.41892 0.0
C307 C 0.56047 0.07809 0.3827 0.0
C308 C 0.5194 0.02823 0.47894 0.0
C309 C 0.52107 0.00544 0.47042 0.0
C310 C 0.50826 0.03055 0.52266 0.0
C311 C 0.5079 0.05497 0.53577 0.0
C312 C 0.53139 0.07957 0.53525 0.0
C313 C 0.53091 0.10253 0.54718 0.0
C314 C 0.50709 0.10113 0.56002 0.0
C315 C 0.4837 0.07676 0.56106 0.0
C316 C 0.48406 0.05374 0.54911 0.0
C317 C 0.48976 0.93476 0.63822 0.0
C318 C 0.4627 0.9234 0.64936 0.0
C319 C 0.50154 0.95516 0.60448 0.0
C320 C 0.48649 0.96459 0.58149 0.0
C321 C 0.45955 0.95333 0.59268 0.0
C322 C 0.44775 0.93287 0.62602 0.0
C323 C 0.49864 0.98637 0.54603 0.0
C324 C 0.49774 0.00946 0.55527 0.0
C325 C 0.51075 0.98445 0.50333 0.0
C326 C 0.51193 0.96039 0.49118 0.0
C327 C 0.48865 0.93573 0.48788 0.0
C328 C 0.48998 0.91313 0.47674 0.0
C329 C 0.51447 0.91498 0.46846 0.0
C330 C 0.53768 0.93945 0.47115 0.0
C331 C 0.53646 0.96211 0.48233 0.0
H332 H 0.51546 0.89746 0.45984 0.0
H333 H 0.50676 0.11894 0.56924 0.0
H334 H 0.56349 0.49845 0.85464 0.0
H335 H 0.54733 0.51853 0.79646 0.0
H336 H 0.51566 0.44824 0.7091 0.0
H337 H 0.53051 0.42772 0.7682 0.0
H338 H 0.55498 0.5328 0.70818 0.0
H339 H 0.46016 0.43514 0.65447 0.0
H340 H 0.42861 0.39236 0.69097 0.0
H341 H 0.4481 0.42742 0.83144 0.0
H342 H 0.47949 0.47047 0.79575 0.0
H343 H 0.49976 0.55513 0.49794 0.0
H344 H 0.51952 0.5404 0.55934 0.0
H345 H 0.45111 0.51667 0.64992 0.0
H346 H 0.43073 0.52974 0.58734 0.0
H347 H 0.46165 0.48102 0.65438 0.0
H348 H 0.51587 0.57417 0.67041 0.0
H349 H 0.54532 0.62001 0.64417 0.0
H350 H 0.60305 0.59976 0.59733 0.0
H351 H 0.57378 0.55369 0.62273 0.0
C352 C 0.55314 0.48737 0.8229 0.0
C353 C 0.54794 0.46141 0.81624 0.0
C354 C 0.54397 0.49887 0.78961 0.0
C355 C 0.52974 0.48472 0.74879 0.0
C356 C 0.52585 0.4593 0.74095 0.0
C357 C 0.53446 0.44762 0.77467 0.0
C358 C 0.51828 0.49609 0.71506 0.0
C359 C 0.53456 0.52152 0.69647 0.0
C360 C 0.49142 0.48174 0.70067 0.0
C361 C 0.47236 0.45596 0.72242 0.0
C362 C 0.45763 0.43374 0.69312 0.0
C363 C 0.43979 0.40944 0.71368 0.0
C364 C 0.43641 0.40715 0.7635 0.0
C365 C 0.4508 0.42919 0.79287 0.0
C366 C 0.46864 0.45354 0.7725 0.0
C367 C 0.48909 0.54691 0.53114 0.0
C368 C 0.46371 0.54348 0.5379 0.0
C369 C 0.50045 0.53864 0.56642 0.0
C370 C 0.48702 0.52765 0.60981 0.0
C371 C 0.4619 0.52489 0.61681 0.0
C372 C 0.45026 0.53244 0.58108 0.0
C373 C 0.49835 0.51777 0.64697 0.0
C374 C 0.48206 0.49248 0.66613 0.0
C375 C 0.52484 0.53274 0.66335 0.0
C376 C 0.54252 0.56043 0.64808 0.0
C377 C 0.53476 0.57945 0.6542 0.0
C378 C 0.55144 0.60548 0.63953 0.0
C379 C 0.57601 0.61278 0.61899 0.0
C380 C 0.58399 0.59407 0.61319 0.0
C381 C 0.56738 0.568 0.62777 0.0
H382 H 0.58889 0.63294 0.60765 0.0
H383 H 0.42261 0.38832 0.77934 0.0
H384 H 0.19721 0.57874 0.21549 0.0
H385 H 0.23383 0.57929 0.25947 0.0
H386 H 0.24747 0.54029 0.14024 0.0
H387 H 0.21017 0.53843 0.09759 0.0
H388 H 0.25239 0.51982 0.21534 0.0
H389 H 0.28718 0.60959 0.16607 0.0
H390 H 0.2884 0.65216 0.15872 0.0
H391 H 0.29186 0.66039 0.3123 0.0
H392 H 0.29032 0.61769 0.32058 0.0
H393 H 0.39805 0.59281 0.31112 0.0
H394 H 0.36232 0.593 0.26541 0.0
H395 H 0.30463 0.52851 0.35136 0.0
H396 H 0.34006 0.5278 0.39635 0.0
H397 H 0.32358 0.60177 0.28959 0.0
H398 H 0.25137 0.48843 0.28485 0.0
H399 H 0.25342 0.44736 0.28237 0.0
H400 H 0.33077 0.48913 0.21883 0.0
H401 H 0.32903 0.53034 0.22029 0.0
C402 C 0.208 0.5702 0.19887 0.0
C403 C 0.2008 0.5585 0.15318 0.0
C404 C 0.22906 0.57069 0.22385 0.0
C405 C 0.24379 0.5602 0.20295 0.0
C406 C 0.23645 0.54844 0.15734 0.0
C407 C 0.2151 0.54742 0.13292 0.0
C408 C 0.26667 0.5611 0.2284 0.0
C409 C 0.26791 0.53779 0.23154 0.0
C410 C 0.28733 0.5846 0.24883 0.0
C411 C 0.28839 0.61033 0.24394 0.0
C412 C 0.28803 0.6204 0.19828 0.0
C413 C 0.2888 0.64456 0.19394 0.0
C414 C 0.29014 0.65894 0.23502 0.0
C415 C 0.29079 0.64922 0.28052 0.0
C416 C 0.28999 0.62505 0.28505 0.0
C417 C 0.37775 0.57857 0.32009 0.0
C418 C 0.37194 0.56016 0.35716 0.0
C419 C 0.35735 0.5788 0.29409 0.0
C420 C 0.33078 0.5606 0.30461 0.0
C421 C 0.32496 0.54244 0.34199 0.0
C422 C 0.34529 0.5421 0.36778 0.0
C423 C 0.30906 0.5605 0.27663 0.0
C424 C 0.30802 0.58388 0.27325 0.0
C425 C 0.28903 0.53729 0.25452 0.0
C426 C 0.29016 0.51252 0.25318 0.0
C427 C 0.26877 0.48882 0.27021 0.0
C428 C 0.26989 0.46552 0.269 0.0
C429 C 0.29225 0.46565 0.25061 0.0
C430 C 0.3135 0.48907 0.23325 0.0
C431 C 0.31248 0.51241 0.23432 0.0
H432 H 0.29307 0.4476 0.24972 0.0
H433 H 0.29073 0.67764 0.23159 0.0
H434 H 0.66821 0.18319 0.32424 0.0
H435 H 0.70315 0.22051 0.36862 0.0
H436 H 0.65317 0.25495 0.38174 0.0
H437 H 0.61777 0.21728 0.33833 0.0
H438 H 0.70921 0.28943 0.34486 0.0
H439 H 0.65869 0.23212 0.47561 0.0
H440 H 0.63621 0.1897 0.51874 0.0
H441 H 0.70952 0.18948 0.5284 0.0
H442 H 0.73237 0.23173 0.48462 0.0
H443 H 0.79484 0.39301 0.50245 0.0
H444 H 0.75675 0.35693 0.4619 0.0
H445 H 0.78838 0.30544 0.48905 0.0
H446 H 0.82576 0.34109 0.53163 0.0
H447 H 0.73915 0.27972 0.50641 0.0
H448 H 0.79004 0.3339 0.37448 0.0
H449 H 0.81427 0.37479 0.3272 0.0
H450 H 0.74347 0.37955 0.31426 0.0
H451 H 0.71888 0.33885 0.36203 0.0
C452 C 0.6646 0.19863 0.33682 0.0
C453 C 0.64025 0.19731 0.32795 0.0
C454 C 0.68454 0.21989 0.36215 0.0
C455 C 0.68067 0.2404 0.37834 0.0
C456 C 0.65646 0.23925 0.36945 0.0
C457 C 0.63626 0.21769 0.34495 0.0
C458 C 0.70217 0.26315 0.40406 0.0
C459 C 0.71556 0.28754 0.38053 0.0
C460 C 0.71084 0.26028 0.44983 0.0
C461 C 0.69718 0.23496 0.47641 0.0
C462 C 0.66997 0.22291 0.48652 0.0
C463 C 0.65717 0.19892 0.51118 0.0
C464 C 0.67141 0.18686 0.52619 0.0
C465 C 0.6985 0.19882 0.51669 0.0
C466 C 0.71139 0.2228 0.492 0.0
C467 C 0.79373 0.37403 0.49944 0.0
C468 C 0.81331 0.36988 0.52007 0.0
C469 C 0.77198 0.35342 0.47609 0.0
C470 C 0.76977 0.32845 0.47173 0.0
C471 C 0.78952 0.32444 0.49198 0.0
C472 C 0.81095 0.34487 0.51616 0.0
C473 C 0.74665 0.30629 0.44715 0.0
C474 C 0.73288 0.28188 0.47086 0.0
C475 C 0.73798 0.30904 0.40106 0.0
C476 C 0.75269 0.33349 0.37227 0.0
C477 C 0.77968 0.34378 0.36186 0.0
C478 C 0.79348 0.3669 0.33493 0.0
C479 C 0.78044 0.3798 0.31786 0.0
C480 C 0.75355 0.36956 0.32758 0.0
C481 C 0.73968 0.34646 0.35455 0.0
H482 H 0.79115 0.3977 0.29701 0.0
H483 H 0.66147 0.16829 0.54528 0.0
H484 H 0.41206 0.8006 0.64938 0.0
H485 H 0.40963 0.76281 0.6067 0.0
H486 H 0.48388 0.77944 0.66975 0.0
H487 H 0.48631 0.81687 0.7129 0.0
H488 H 0.44052 0.75741 0.54134 0.0
H489 H 0.48215 0.72225 0.69584 0.0
H490 H 0.48335 0.72276 0.78447 0.0
H491 H 0.4122 0.72733 0.78882 0.0
H492 H 0.41037 0.72646 0.70029 0.0
H493 H 0.48285 0.67111 0.45419 0.0
H494 H 0.48023 0.70649 0.49585 0.0
H495 H 0.4129 0.64892 0.57656 0.0
H496 H 0.41547 0.61333 0.53527 0.0
H497 H 0.44722 0.6885 0.63357 0.0
H498 H 0.40365 0.68025 0.48452 0.0
H499 H 0.39832 0.67753 0.39646 0.0
H500 H 0.46537 0.75548 0.38223 0.0
H501 H 0.47134 0.75852 0.47021 0.0
C502 C 0.42794 0.79629 0.65396 0.0
C503 C 0.44928 0.81166 0.68483 0.0
C504 C 0.42653 0.77471 0.62949 0.0
C505 C 0.44636 0.76806 0.63561 0.0
C506 C 0.46809 0.78389 0.66519 0.0
C507 C 0.46949 0.80538 0.68969 0.0
C508 C 0.4443 0.7444 0.6117 0.0
C509 C 0.44196 0.74234 0.56149 0.0
C510 C 0.44557 0.7244 0.63809 0.0
C511 C 0.44628 0.72453 0.6914 0.0
C512 C 0.4667 0.72324 0.71572 0.0
C513 C 0.4675 0.72361 0.76594 0.0
C514 C 0.44791 0.72516 0.79225 0.0
C515 C 0.42741 0.72623 0.7684 0.0
C516 C 0.42651 0.72583 0.7182 0.0
C517 C 0.46753 0.66593 0.48093 0.0
C518 C 0.44932 0.63936 0.49129 0.0
C519 C 0.46598 0.68619 0.50453 0.0
C520 C 0.44616 0.68034 0.53887 0.0
C521 C 0.42831 0.65388 0.55008 0.0
C522 C 0.42979 0.63356 0.52638 0.0
C523 C 0.44418 0.7019 0.56312 0.0
C524 C 0.44574 0.70355 0.61341 0.0
C525 C 0.44164 0.72122 0.53688 0.0
C526 C 0.43808 0.71952 0.48395 0.0
C527 C 0.41739 0.69674 0.46259 0.0
C528 C 0.41423 0.69515 0.41269 0.0
C529 C 0.43153 0.7163 0.38376 0.0
C530 C 0.452 0.7391 0.40469 0.0
C531 C 0.45526 0.74078 0.45457 0.0
H532 H 0.42905 0.71504 0.34513 0.0
H533 H 0.44858 0.72547 0.83112 0.0
H534 H 0.67629 0.47334 0.90961 0.0
H535 H 0.71204 0.47324 0.86428 0.0
H536 H 0.65672 0.42648 0.7532 0.0
H537 H 0.6206 0.42551 0.79966 0.0
H538 H 0.68813 0.40868 0.76635 0.0
H539 H 0.70168 0.49518 0.74158 0.0
H540 H 0.70752 0.5385 0.7644 0.0
H541 H 0.77799 0.5565 0.84257 0.0
H542 H 0.77238 0.51313 0.82072 0.0
H543 H 0.81562 0.48082 0.60775 0.0
H544 H 0.77881 0.48036 0.65022 0.0
H545 H 0.77484 0.42086 0.74671 0.0
H546 H 0.8112 0.42062 0.70332 0.0
H547 H 0.77197 0.49207 0.73592 0.0
H548 H 0.71162 0.38049 0.78291 0.0
H549 H 0.70351 0.33798 0.74969 0.0
H550 H 0.72247 0.37155 0.60817 0.0
H551 H 0.73031 0.41412 0.64041 0.0
C552 C 0.67174 0.46312 0.87543 0.0
C553 C 0.64565 0.44957 0.85804 0.0
C554 C 0.69225 0.46316 0.84941 0.0
C555 C 0.68725 0.45026 0.80479 0.0
C556 C 0.66114 0.4366 0.78748 0.0
C557 C 0.64051 0.43614 0.81396 0.0
C558 C 0.70921 0.45084 0.77649 0.0
C559 C 0.70643 0.42694 0.75969 0.0
C560 C 0.73297 0.47467 0.76677 0.0
C561 C 0.73647 0.50081 0.77985 0.0
C562 C 0.71832 0.50831 0.7639 0.0
C563 C 0.72161 0.53288 0.77662 0.0
C564 C 0.74308 0.55021 0.80501 0.0
C565 C 0.76135 0.54304 0.82062 0.0
C566 C 0.75815 0.51848 0.80804 0.0
C567 C 0.80696 0.46764 0.63806 0.0
C568 C 0.81628 0.45066 0.65201 0.0
C569 C 0.78592 0.46744 0.66239 0.0
C570 C 0.77378 0.45036 0.70134 0.0
C571 C 0.78349 0.43384 0.71615 0.0
C572 C 0.80439 0.43383 0.69148 0.0
C573 C 0.751 0.4499 0.72631 0.0
C574 C 0.75365 0.47382 0.74258 0.0
C575 C 0.7268 0.4262 0.73403 0.0
C576 C 0.72183 0.40057 0.71421 0.0
C577 C 0.71396 0.37877 0.74468 0.0
C578 C 0.70942 0.35466 0.72602 0.0
C579 C 0.71257 0.35209 0.67688 0.0
C580 C 0.72015 0.37359 0.64625 0.0
C581 C 0.72466 0.39772 0.66471 0.0
H582 H 0.70907 0.33343 0.66252 0.0
H583 H 0.74559 0.56923 0.81483 0.0
H584 H 0.34117 0.81676 0.79667 0.0
H585 H 0.30577 0.78029 0.84103 0.0
H586 H 0.36264 0.76338 0.90634 0.0
H587 H 0.3984 0.80023 0.86242 0.0
H588 H 0.28845 0.72892 0.83793 0.0
H589 H 0.34028 0.7384 0.01954 0.0
H590 H 0.37564 0.77274 0.0696 0.0
H591 H 0.36126 0.83146 0.00735 0.0
H592 H 0.32559 0.79743 0.95743 0.0
H593 H 0.21117 0.61428 0.97962 0.0
H594 H 0.24822 0.65096 0.93804 0.0
H595 H 0.2359 0.70633 0.02057 0.0
H596 H 0.19902 0.66984 0.0626 0.0
H597 H 0.28782 0.72162 0.01557 0.0
H598 H 0.21494 0.69274 0.90592 0.0
H599 H 0.17776 0.66042 0.85638 0.0
H600 H 0.23091 0.64447 0.77547 0.0
H601 H 0.26837 0.67645 0.825 0.0
C602 C 0.34624 0.8054 0.82062 0.0
C603 C 0.37267 0.81147 0.82605 0.0
C604 C 0.32593 0.78446 0.84582 0.0
C605 C 0.33152 0.76915 0.87714 0.0
C606 C 0.35788 0.77513 0.88278 0.0
C607 C 0.37829 0.79617 0.85759 0.0
C608 C 0.30961 0.74681 0.90337 0.0
C609 C 0.28839 0.72729 0.87676 0.0
C610 C 0.30932 0.74481 0.95407 0.0
C611 C 0.33048 0.7654 0.98438 0.0
C612 C 0.34462 0.75863 0.01667 0.0
C613 C 0.36472 0.77804 0.045 0.0
C614 C 0.37076 0.80428 0.04152 0.0
C615 C 0.35663 0.81115 0.00986 0.0
C616 C 0.3365 0.79181 0.9815 0.0
C617 C 0.2163 0.63425 0.98888 0.0
C618 C 0.20204 0.6391 0.02431 0.0
C619 C 0.23747 0.6552 0.96504 0.0
C620 C 0.24473 0.68138 0.97602 0.0
C621 C 0.23068 0.68628 0.01161 0.0
C622 C 0.2095 0.66537 0.03541 0.0
C623 C 0.26677 0.70372 0.95008 0.0
C624 C 0.28802 0.72318 0.97672 0.0
C625 C 0.26687 0.70593 0.89945 0.0
C626 C 0.24441 0.68679 0.86948 0.0
C627 C 0.21866 0.68219 0.8778 0.0
C628 C 0.19755 0.66396 0.84969 0.0
C629 C 0.20196 0.65035 0.81289 0.0
C630 C 0.22752 0.655 0.80404 0.0
C631 C 0.2487 0.67319 0.8321 0.0
H632 H 0.18559 0.63624 0.79116 0.0
H633 H 0.38634 0.81928 0.06344 0.0
H634 H 0.60185 0.39543 0.03414 0.0
H635 H 0.60433 0.35988 0.07559 0.0
H636 H 0.53583 0.30222 0.99749 0.0
H637 H 0.53336 0.33751 0.95558 0.0
H638 H 0.57091 0.32111 0.13391 0.0
H639 H 0.54282 0.24933 0.97183 0.0
H640 H 0.54739 0.25147 0.88356 0.0
H641 H 0.61563 0.32888 0.89419 0.0
H642 H 0.6117 0.32706 0.9825 0.0
H643 H 0.52911 0.19234 0.21375 0.0
H644 H 0.53236 0.23012 0.1708 0.0
H645 H 0.60552 0.24453 0.10578 0.0
H646 H 0.60232 0.20646 0.1484 0.0
H647 H 0.57423 0.2503 0.04123 0.0
H648 H 0.60716 0.28197 0.19842 0.0
H649 H 0.60672 0.28183 0.28701 0.0
H650 H 0.53689 0.28879 0.28674 0.0
H651 H 0.53668 0.28857 0.19809 0.0
C652 C 0.58725 0.37518 0.02589 0.0
C653 C 0.56747 0.36933 0.99136 0.0
C654 C 0.58869 0.3549 0.04966 0.0
C655 C 0.5705 0.3284 0.03915 0.0
C656 C 0.55038 0.32252 0.00555 0.0
C657 C 0.54892 0.34275 0.9818 0.0
C658 C 0.57244 0.30683 0.06329 0.0
C659 C 0.57167 0.30565 0.11365 0.0
C660 C 0.57406 0.28698 0.03688 0.0
C661 C 0.57679 0.28813 0.98378 0.0
C662 C 0.55886 0.26676 0.95534 0.0
C663 C 0.56134 0.26793 0.90529 0.0
C664 C 0.58174 0.29033 0.88328 0.0
C665 C 0.59978 0.31158 0.91127 0.0
C666 C 0.59741 0.3105 0.96132 0.0
C667 C 0.54585 0.20341 0.19013 0.0
C668 C 0.56554 0.19643 0.18472 0.0
C669 C 0.54772 0.2251 0.16576 0.0
C670 C 0.56938 0.24039 0.13567 0.0
C671 C 0.58868 0.23305 0.12899 0.0
C672 C 0.58683 0.21131 0.15341 0.0
C673 C 0.57191 0.26419 0.11175 0.0
C674 C 0.57354 0.2658 0.06146 0.0
C675 C 0.57165 0.28473 0.13826 0.0
C676 C 0.57179 0.28504 0.19159 0.0
C677 C 0.5916 0.28328 0.21724 0.0
C678 C 0.59148 0.28329 0.26747 0.0
C679 C 0.57176 0.28525 0.29249 0.0
C680 C 0.55214 0.28726 0.26731 0.0
C681 C 0.55215 0.28721 0.21707 0.0
H682 H 0.57171 0.28525 0.33138 0.0
H683 H 0.58361 0.2912 0.84453 0.0
loop_
_geom_bond_atom_site_label_1
_geom_bond_atom_site_label_2
_geom_bond_distance
_geom_bond_site_symmetry_2
_ccdc_geom_bond_type
C0 O2 1.247 . S
C0 O4 1.258 . S
C1 O8 1.247 . S
C1 O9 1.258 . S
O2 C0 1.247 . S
O2 Zn3 2.028 . S
Zn3 O2 2.028 . S
Zn3 O7 2.035 . S
Zn3 O9 2.035 . S
Zn3 O10 2.028 . S
O4 C0 1.258 . S
O4 Zn5 2.035 . S
Zn5 O4 2.035 . S
Zn5 O6 2.028 . S
Zn5 O8 2.028 . S
Zn5 O11 2.035 . S
O6 Zn5 2.028 . S
O6 C12 1.247 . S
O7 Zn3 2.035 . S
O7 C12 1.258 . S
O8 C1 1.247 . S
O8 Zn5 2.028 . S
O9 C1 1.258 . S
O9 Zn3 2.035 . S
O10 Zn3 2.028 . S
O10 C13 1.247 . S
O11 Zn5 2.035 . S
O11 C13 1.258 . S
C12 O6 1.247 . S
C12 O7 1.258 . S
C13 O10 1.247 . S
C13 O11 1.258 . S
C14 O16 1.247 . S
C14 O18 1.258 . S
C15 O22 1.247 . S
C15 O23 1.258 . S
O16 C14 1.247 . S
O16 Zn17 2.028 . S
Zn17 O16 2.028 . S
Zn17 O21 2.035 . S
Zn17 O23 2.035 . S
Zn17 O24 2.028 . S
O18 C14 1.258 . S
O18 Zn19 2.035 . S
Zn19 O18 2.035 . S
Zn19 O20 2.028 . S
Zn19 O22 2.028 . S
Zn19 O25 2.035 . S
O20 Zn19 2.028 . S
O20 C26 1.247 . S
O21 Zn17 2.035 . S
O21 C26 1.258 . S
O22 C15 1.247 . S
O22 Zn19 2.028 . S
O23 C15 1.258 . S
O23 Zn17 2.035 . S
O24 Zn17 2.028 . S
O24 C27 1.247 . S
O25 Zn19 2.035 . S
O25 C27 1.258 . S
C26 O20 1.247 . S
C26 O21 1.258 . S
C27 O24 1.247 . S
C27 O25 1.258 . S
C28 O30 1.247 . S
C28 O32 1.258 . S
C29 O36 1.247 . S
C29 O37 1.258 . S
O30 C28 1.247 . S
O30 Zn31 2.028 . S
Zn31 O30 2.028 . S
Zn31 O35 2.035 . S
Zn31 O37 2.035 . S
Zn31 O38 2.028 . S
O32 C28 1.258 . S
O32 Zn33 2.035 . S
Zn33 O32 2.035 . S
Zn33 O34 2.028 . S
Zn33 O36 2.028 . S
Zn33 O39 2.035 . S
O34 Zn33 2.028 . S
O34 C40 1.247 . S
O35 Zn31 2.035 . S
O35 C40 1.258 . S
O36 C29 1.247 . S
O36 Zn33 2.028 . S
O37 C29 1.258 . S
O37 Zn31 2.035 . S
O38 Zn31 2.028 . S
O38 C41 1.247 . S
O39 Zn33 2.035 . S
O39 C41 1.258 . S
C40 O34 1.247 . S
C40 O35 1.258 . S
C41 O38 1.247 . S
C41 O39 1.258 . S
C42 O44 1.247 . S
C42 O46 1.258 . S
C43 O50 1.247 . S
C43 O51 1.258 . S
O44 C42 1.247 . S
O44 Zn45 2.028 . S
Zn45 O44 2.028 . S
Zn45 O49 2.035 . S
Zn45 O51 2.035 . S
Zn45 O52 2.028 . S
O46 C42 1.258 . S
O46 Zn47 2.035 . S
Zn47 O46 2.035 . S
Zn47 O48 2.028 . S
Zn47 O50 2.028 . S
Zn47 O53 2.035 . S
O48 Zn47 2.028 . S
O48 C54 1.247 . S
O49 Zn45 2.035 . S
O49 C54 1.258 . S
O50 C43 1.247 . S
O50 Zn47 2.028 . S
O51 C43 1.258 . S
O51 Zn45 2.035 . S
O52 Zn45 2.028 . S
O52 C55 1.247 . S
O53 Zn47 2.035 . S
O53 C55 1.258 . S
C54 O48 1.247 . S
C54 O49 1.258 . S
C55 O52 1.247 . S
C55 O53 1.258 . S
C56 O58 1.247 . S
C56 O60 1.258 . S
C57 O64 1.247 . S
C57 O65 1.258 . S
O58 C56 1.247 . S
O58 Zn59 2.028 . S
Zn59 O58 2.028 . S
Zn59 O63 2.035 . S
Zn59 O65 2.035 . S
Zn59 O66 2.028 . S
O60 C56 1.258 . S
O60 Zn61 2.035 . S
Zn61 O60 2.035 . S
Zn61 O62 2.028 . S
Zn61 O64 2.028 . S
Zn61 O67 2.035 . S
O62 Zn61 2.028 . S
O62 C68 1.247 . S
O63 Zn59 2.035 . S
O63 C68 1.258 . S
O64 C57 1.247 . S
O64 Zn61 2.028 . S
O65 C57 1.258 . S
O65 Zn59 2.035 . S
O66 Zn59 2.028 . S
O66 C69 1.247 . S
O67 Zn61 2.035 . S
O67 C69 1.258 . S
C68 O62 1.247 . S
C68 O63 1.258 . S
C69 O66 1.247 . S
C69 O67 1.258 . S
C70 O72 1.247 . S
C70 O74 1.258 . S
C71 O78 1.247 . S
C71 O79 1.258 . S
O72 C70 1.247 . S
O72 Zn73 2.028 . S
Zn73 O72 2.028 . S
Zn73 O77 2.035 . S
Zn73 O79 2.035 . S
Zn73 O80 2.028 . S
O74 C70 1.258 . S
O74 Zn75 2.035 . S
Zn75 O74 2.035 . S
Zn75 O76 2.028 . S
Zn75 O78 2.028 . S
Zn75 O81 2.035 . S
O76 Zn75 2.028 . S
O76 C82 1.247 . S
O77 Zn73 2.035 . S
O77 C82 1.258 . S
O78 C71 1.247 . S
O78 Zn75 2.028 . S
O79 C71 1.258 . S
O79 Zn73 2.035 . S
O80 Zn73 2.028 . S
O80 C83 1.247 . S
O81 Zn75 2.035 . S
O81 C83 1.258 . S
C82 O76 1.247 . S
C82 O77 1.258 . S
C83 O80 1.247 . S
C83 O81 1.258 . S
H84 C102 0.951 . S
H85 C104 0.951 . S
H86 C106 0.950 . S
H87 C107 0.950 1_554 S
H88 C109 0.950 . S
H89 C112 0.950 . S
H90 C113 0.950 . S
H91 C115 0.950 . S
H92 C116 0.950 . S
H93 C117 0.951 . S
H94 C119 0.951 . S
H95 C121 0.950 . S
H96 C122 0.950 . S
H97 C124 0.950 . S
H98 C127 0.950 . S
H99 C128 0.950 . S
H100 C130 0.950 . S
H101 C131 0.950 . S
C102 H84 0.951 . S
C102 C103 1.366 . S
C102 C104 1.388 . S
C103 C102 1.366 . S
C103 C107 1.385 . S
C104 H85 0.951 . S
C104 C102 1.388 . S
C104 C105 1.366 . S
C105 C104 1.366 . S
C105 C106 1.414 . S
C105 C108 1.499 . S
C106 H86 0.950 . S
C106 C105 1.414 . S
C106 C107 1.374 . S
C107 H87 0.950 1_556 S
C107 C103 1.385 . S
C107 C106 1.374 . S
C108 C105 1.499 . S
C108 C109 1.373 1_455 S
C108 C110 1.389 . S
C109 H88 0.950 . S
C109 C108 1.373 1_655 S
C109 C125 1.377 . S
C110 C108 1.389 . S
C110 C111 1.524 . S
C110 C124 1.377 . S
C111 C110 1.524 . S
C111 C112 1.397 . S
C111 C116 1.363 . S
C112 H89 0.950 . S
C112 C111 1.397 . S
C112 C113 1.334 . S
C113 H90 0.950 . S
C113 C112 1.334 . S
C113 C114 1.287 . S
C114 C113 1.287 . S
C114 C115 1.524 . S
C114 H133 0.913 . S
C115 H91 0.950 . S
C115 C114 1.524 . S
C115 C116 1.415 . S
C116 H92 0.950 . S
C116 C111 1.363 . S
C116 C115 1.415 . S
C117 H93 0.951 . S
C117 C118 1.366 . S
C117 C119 1.388 . S
C118 C117 1.366 . S
C118 C122 1.385 . S
C119 H94 0.951 . S
C119 C117 1.388 . S
C119 C120 1.366 . S
C120 C119 1.366 . S
C120 C121 1.414 . S
C120 C123 1.499 . S
C121 H95 0.950 . S
C121 C120 1.414 . S
C121 C122 1.374 . S
C122 H96 0.950 . S
C122 C118 1.385 . S
C122 C121 1.374 . S
C123 C120 1.499 . S
C123 C124 1.373 1_655 S
C123 C125 1.389 . S
C124 H97 0.950 . S
C124 C110 1.377 . S
C124 C123 1.373 1_455 S
C125 C109 1.377 . S
C125 C123 1.389 . S
C125 C126 1.524 . S
C126 C125 1.524 . S
C126 C127 1.397 . S
C126 C131 1.363 . S
C127 H98 0.950 . S
C127 C126 1.397 . S
C127 C128 1.334 . S
C128 H99 0.950 . S
C128 C127 1.334 . S
C128 C129 1.287 . S
C129 C128 1.287 . S
C129 C130 1.524 . S
C129 H132 0.999 . S
C130 H100 0.950 . S
C130 C129 1.524 . S
C130 C131 1.415 . S
C131 H101 0.950 . S
C131 C126 1.363 . S
C131 C130 1.415 . S
H132 C129 0.999 . S
H133 C114 0.913 . S
H134 C152 0.951 . S
H135 C154 0.951 . S
H136 C156 0.950 . S
H137 C157 0.950 . S
H138 C159 0.950 . S
H139 C162 0.950 . S
H140 C163 0.950 . S
H141 C165 0.950 . S
H142 C166 0.950 1_545 S
H143 C167 0.951 . S
H144 C169 0.951 . S
H145 C171 0.950 . S
H146 C172 0.950 . S
H147 C174 0.950 . S
H148 C177 0.950 . S
H149 C178 0.950 . S
H150 C180 0.950 . S
H151 C181 0.950 1_565 S
C152 H134 0.951 . S
C152 C153 1.366 . S
C152 C154 1.388 . S
C153 C152 1.366 . S
C153 C157 1.385 . S
C154 H135 0.951 . S
C154 C152 1.388 . S
C154 C155 1.366 . S
C155 C154 1.366 . S
C155 C156 1.414 . S
C155 C158 1.499 . S
C156 H136 0.950 . S
C156 C155 1.414 . S
C156 C157 1.374 . S
C157 H137 0.950 . S
C157 C153 1.385 . S
C157 C156 1.374 . S
C158 C155 1.499 . S
C158 C159 1.373 . S
C158 C160 1.389 . S
C159 H138 0.950 . S
C159 C158 1.373 . S
C159 C175 1.377 1_566 S
C160 C158 1.389 . S
C160 C161 1.524 . S
C160 C174 1.377 1_566 S
C161 C160 1.524 . S
C161 C162 1.397 . S
C161 C166 1.363 . S
C162 H139 0.950 . S
C162 C161 1.397 . S
C162 C163 1.334 . S
C163 H140 0.950 . S
C163 C162 1.334 . S
C163 C164 1.287 . S
C164 C163 1.287 . S
C164 C165 1.524 . S
C164 H183 0.913 . S
C165 H141 0.950 . S
C165 C164 1.524 . S
C165 C166 1.415 . S
C166 H142 0.950 1_565 S
C166 C161 1.363 . S
C166 C165 1.415 . S
C167 H143 0.951 . S
C167 C168 1.366 . S
C167 C169 1.388 . S
C168 C167 1.366 . S
C168 C172 1.385 . S
C169 H144 0.951 . S
C169 C167 1.388 . S
C169 C170 1.366 . S
C170 C169 1.366 . S
C170 C171 1.414 . S
C170 C173 1.499 . S
C171 H145 0.950 . S
C171 C170 1.414 . S
C171 C172 1.374 . S
C172 H146 0.950 . S
C172 C168 1.385 . S
C172 C171 1.374 . S
C173 C170 1.499 . S
C173 C174 1.373 . S
C173 C175 1.389 . S
C174 H147 0.950 . S
C174 C160 1.377 1_544 S
C174 C173 1.373 . S
C175 C159 1.377 1_544 S
C175 C173 1.389 . S
C175 C176 1.524 . S
C176 C175 1.524 . S
C176 C177 1.397 . S
C176 C181 1.363 . S
C177 H148 0.950 . S
C177 C176 1.397 . S
C177 C178 1.334 . S
C178 H149 0.950 . S
C178 C177 1.334 . S
C178 C179 1.287 . S
C179 C178 1.287 . S
C179 C180 1.524 . S
C179 H182 0.999 . S
C180 H150 0.950 . S
C180 C179 1.524 . S
C180 C181 1.415 . S
C181 H151 0.950 1_545 S
C181 C176 1.363 . S
C181 C180 1.415 . S
H182 C179 0.999 . S
H183 C164 0.913 . S
H184 C202 0.951 . S
H185 C204 0.951 . S
H186 C206 0.950 . S
H187 C207 0.950 . S
H188 C209 0.950 . S
H189 C212 0.950 . S
H190 C213 0.950 . S
H191 C215 0.950 . S
H192 C216 0.950 . S
H193 C217 0.951 . S
H194 C219 0.951 . S
H195 C221 0.950 . S
H196 C222 0.950 . S
H197 C224 0.950 . S
H198 C227 0.950 . S
H199 C228 0.950 1_556 S
H200 C230 0.950 . S
H201 C231 0.950 . S
C202 H184 0.951 . S
C202 C203 1.366 . S
C202 C204 1.388 . S
C203 C202 1.366 . S
C203 C207 1.385 . S
C204 H185 0.951 . S
C204 C202 1.388 . S
C204 C205 1.366 . S
C205 C204 1.366 . S
C205 C206 1.414 . S
C205 C208 1.499 . S
C206 H186 0.950 . S
C206 C205 1.414 . S
C206 C207 1.374 . S
C207 H187 0.950 . S
C207 C203 1.385 . S
C207 C206 1.374 . S
C208 C205 1.499 . S
C208 C209 1.373 . S
C208 C210 1.389 . S
C209 H188 0.950 . S
C209 C208 1.373 . S
C209 C225 1.377 . S
C210 C208 1.389 . S
C210 C211 1.524 . S
C210 C224 1.377 . S
C211 C210 1.524 . S
C211 C212 1.397 . S
C211 C216 1.363 . S
C212 H189 0.950 . S
C212 C211 1.397 . S
C212 C213 1.334 . S
C213 H190 0.950 . S
C213 C212 1.334 . S
C213 C214 1.287 . S
C214 C213 1.287 . S
C214 C215 1.524 . S
C214 H233 0.913 . S
C215 H191 0.950 . S
C215 C214 1.524 . S
C215 C216 1.415 . S
C216 H192 0.950 . S
C216 C211 1.363 . S
C216 C215 1.415 . S
C217 H193 0.951 . S
C217 C218 1.366 . S
C217 C219 1.388 . S
C218 C217 1.366 . S
C218 C222 1.385 . S
C219 H194 0.951 . S
C219 C217 1.388 . S
C219 C220 1.366 . S
C220 C219 1.366 . S
C220 C221 1.414 . S
C220 C223 1.499 . S
C221 H195 0.950 . S
C221 C220 1.414 . S
C221 C222 1.374 . S
C222 H196 0.950 . S
C222 C218 1.385 . S
C222 C221 1.374 . S
C223 C220 1.499 . S
C223 C224 1.373 . S
C223 C225 1.389 . S
C224 H197 0.950 . S
C224 C210 1.377 . S
C224 C223 1.373 . S
C225 C209 1.377 . S
C225 C223 1.389 . S
C225 C226 1.524 . S
C226 C225 1.524 . S
C226 C227 1.397 . S
C226 C231 1.363 . S
C227 H198 0.950 . S
C227 C226 1.397 . S
C227 C228 1.334 . S
C228 H199 0.950 1_554 S
C228 C227 1.334 . S
C228 C229 1.287 . S
C229 C228 1.287 . S
C229 C230 1.524 . S
C229 H232 0.999 . S
C230 H200 0.950 . S
C230 C229 1.524 . S
C230 C231 1.415 . S
C231 H201 0.950 . S
C231 C226 1.363 . S
C231 C230 1.415 . S
H232 C229 0.999 . S
H233 C214 0.913 . S
H234 C252 0.951 . S
H235 C254 0.951 . S
H236 C256 0.950 . S
H237 C257 0.950 . S
H238 C259 0.950 . S
H239 C262 0.950 . S
H240 C263 0.950 . S
H241 C265 0.950 . S
H242 C266 0.950 . S
H243 C267 0.951 . S
H244 C269 0.951 . S
H245 C271 0.950 . S
H246 C272 0.950 . S
H247 C274 0.950 . S
H248 C277 0.950 . S
H249 C278 0.950 . S
H250 C280 0.950 . S
H251 C281 0.950 . S
C252 H234 0.951 . S
C252 C253 1.366 . S
C252 C254 1.388 . S
C253 C252 1.366 . S
C253 C257 1.385 . S
C254 H235 0.951 . S
C254 C252 1.388 . S
C254 C255 1.366 . S
C255 C254 1.366 . S
C255 C256 1.414 . S
C255 C258 1.499 . S
C256 H236 0.950 . S
C256 C255 1.414 . S
C256 C257 1.374 . S
C257 H237 0.950 . S
C257 C253 1.385 . S
C257 C256 1.374 . S
C258 C255 1.499 . S
C258 C259 1.373 1_655 S
C258 C260 1.389 . S
C259 H238 0.950 . S
C259 C258 1.373 1_455 S
C259 C275 1.377 . S
C260 C258 1.389 . S
C260 C261 1.524 . S
C260 C274 1.377 . S
C261 C260 1.524 . S
C261 C262 1.397 . S
C261 C266 1.363 . S
C262 H239 0.950 . S
C262 C261 1.397 . S
C262 C263 1.334 . S
C263 H240 0.950 . S
C263 C262 1.334 . S
C263 C264 1.287 . S
C264 C263 1.287 . S
C264 C265 1.524 . S
C264 H283 0.913 . S
C265 H241 0.950 . S
C265 C264 1.524 . S
C265 C266 1.415 . S
C266 H242 0.950 . S
C266 C261 1.363 . S
C266 C265 1.415 . S
C267 H243 0.951 . S
C267 C268 1.366 . S
C267 C269 1.388 . S
C268 C267 1.366 . S
C268 C272 1.385 . S
C269 H244 0.951 . S
C269 C267 1.388 . S
C269 C270 1.366 . S
C270 C269 1.366 . S
C270 C271 1.414 . S
C270 C273 1.499 . S
C271 H245 0.950 . S
C271 C270 1.414 . S
C271 C272 1.374 . S
C272 H246 0.950 . S
C272 C268 1.385 . S
C272 C271 1.374 . S
C273 C270 1.499 . S
C273 C274 1.373 1_455 S
C273 C275 1.389 . S
C274 H247 0.950 . S
C274 C260 1.377 . S
C274 C273 1.373 1_655 S
C275 C259 1.377 . S
C275 C273 1.389 . S
C275 C276 1.524 . S
C276 C275 1.524 . S
C276 C277 1.397 . S
C276 C281 1.363 . S
C277 H248 0.950 . S
C277 C276 1.397 . S
C277 C278 1.334 . S
C278 H249 0.950 . S
C278 C277 1.334 . S
C278 C279 1.287 . S
C279 C278 1.287 . S
C279 C280 1.524 . S
C279 H282 0.999 . S
C280 H250 0.950 . S
C280 C279 1.524 . S
C280 C281 1.415 . S
C281 H251 0.950 . S
C281 C276 1.363 . S
C281 C280 1.415 . S
H282 C279 0.999 . S
H283 C264 0.913 . S
H284 C302 0.951 . S
H285 C304 0.951 . S
H286 C306 0.950 . S
H287 C307 0.950 . S
H288 C309 0.950 . S
H289 C312 0.950 . S
H290 C313 0.950 . S
H291 C315 0.951 . S
H292 C316 0.950 . S
H293 C317 0.951 . S
H294 C319 0.951 . S
H295 C321 0.950 . S
H296 C322 0.950 . S
H297 C324 0.950 . S
H298 C327 0.950 . S
H299 C328 0.950 . S
H300 C330 0.951 . S
H301 C331 0.950 . S
C302 H284 0.951 . S
C302 C303 1.366 . S
C302 C304 1.388 . S
C303 C302 1.366 . S
C303 C307 1.385 . S
C304 H285 0.951 . S
C304 C302 1.388 . S
C304 C305 1.366 . S
C305 C304 1.366 . S
C305 C306 1.414 . S
C305 C308 1.499 . S
C306 H286 0.950 . S
C306 C305 1.414 . S
C306 C307 1.374 . S
C307 H287 0.950 . S
C307 C303 1.385 . S
C307 C306 1.374 . S
C308 C305 1.499 . S
C308 C309 1.373 . S
C308 C310 1.389 . S
C309 H288 0.950 . S
C309 C308 1.373 . S
C309 C325 1.377 1_545 S
C310 C308 1.389 . S
C310 C311 1.524 . S
C310 C324 1.377 1_545 S
C311 C310 1.524 . S
C311 C312 1.397 . S
C311 C316 1.363 1_545 S
C312 H289 0.950 . S
C312 C311 1.397 . S
C312 C313 1.334 . S
C313 H290 0.950 . S
C313 C312 1.334 . S
C313 C314 1.287 . S
C314 C313 1.287 . S
C314 C315 1.520 1_545 S
C314 H333 0.913 . S
C315 H291 0.951 . S
C315 C314 1.520 1_565 S
C315 C316 1.418 . S
C316 H292 0.950 . S
C316 C311 1.363 1_565 S
C316 C315 1.418 . S
C317 H293 0.951 . S
C317 C318 1.366 . S
C317 C319 1.388 . S
C318 C317 1.366 . S
C318 C322 1.385 . S
C319 H294 0.951 . S
C319 C317 1.388 . S
C319 C320 1.366 . S
C320 C319 1.366 . S
C320 C321 1.414 . S
C320 C323 1.499 . S
C321 H295 0.950 . S
C321 C320 1.414 . S
C321 C322 1.374 . S
C322 H296 0.950 . S
C322 C318 1.385 . S
C322 C321 1.374 . S
C323 C320 1.499 . S
C323 C324 1.373 . S
C323 C325 1.389 . S
C324 H297 0.950 . S
C324 C310 1.377 1_565 S
C324 C323 1.373 . S
C325 C309 1.377 1_565 S
C325 C323 1.389 . S
C325 C326 1.524 . S
C326 C325 1.524 . S
C326 C327 1.397 . S
C326 C331 1.363 1_565 S
C327 H298 0.950 . S
C327 C326 1.397 . S
C327 C328 1.334 . S
C328 H299 0.950 . S
C328 C327 1.334 . S
C328 C329 1.287 . S
C329 C328 1.287 . S
C329 C330 1.520 1_565 S
C329 H332 0.999 . S
C330 H300 0.951 . S
C330 C329 1.520 1_545 S
C330 C331 1.417 . S
C331 H301 0.950 . S
C331 C326 1.363 1_545 S
C331 C330 1.417 . S
H332 C329 0.999 . S
H333 C314 0.913 . S
H334 C352 0.951 . S
H335 C354 0.951 . S
H336 C356 0.950 . S
H337 C357 0.950 . S
H338 C359 0.950 . S
H339 C362 0.950 . S
H340 C363 0.950 . S
H341 C365 0.950 . S
H342 C366 0.950 . S
H343 C367 0.951 . S
H344 C369 0.951 . S
H345 C371 0.950 . S
H346 C372 0.950 . S
H347 C374 0.950 . S
H348 C377 0.950 . S
H349 C378 0.950 . S
H350 C380 0.950 . S
H351 C381 0.950 . S
C352 H334 0.951 . S
C352 C353 1.366 . S
C352 C354 1.388 . S
C353 C352 1.366 . S
C353 C357 1.385 . S
C354 H335 0.951 . S
C354 C352 1.388 . S
C354 C355 1.366 . S
C355 C354 1.366 . S
C355 C356 1.414 . S
C355 C358 1.499 . S
C356 H336 0.950 . S
C356 C355 1.414 . S
C356 C357 1.374 . S
C357 H337 0.950 . S
C357 C353 1.385 . S
C357 C356 1.374 . S
C358 C355 1.499 . S
C358 C359 1.373 . S
C358 C360 1.389 . S
C359 H338 0.950 . S
C359 C358 1.373 . S
C359 C375 1.377 . S
C360 C358 1.389 . S
C360 C361 1.524 . S
C360 C374 1.377 . S
C361 C360 1.524 . S
C361 C362 1.397 . S
C361 C366 1.363 . S
C362 H339 0.950 . S
C362 C361 1.397 . S
C362 C363 1.334 . S
C363 H340 0.950 . S
C363 C362 1.334 . S
C363 C364 1.287 . S
C364 C363 1.287 . S
C364 C365 1.524 . S
C364 H383 0.913 . S
C365 H341 0.950 . S
C365 C364 1.524 . S
C365 C366 1.415 . S
C366 H342 0.950 . S
C366 C361 1.363 . S
C366 C365 1.415 . S
C367 H343 0.951 . S
C367 C368 1.366 . S
C367 C369 1.388 . S
C368 C367 1.366 . S
C368 C372 1.385 . S
C369 H344 0.951 . S
C369 C367 1.388 . S
C369 C370 1.366 . S
C370 C369 1.366 . S
C370 C371 1.414 . S
C370 C373 1.499 . S
C371 H345 0.950 . S
C371 C370 1.414 . S
C371 C372 1.374 . S
C372 H346 0.950 . S
C372 C368 1.385 . S
C372 C371 1.374 . S
C373 C370 1.499 . S
C373 C374 1.373 . S
C373 C375 1.389 . S
C374 H347 0.950 . S
C374 C360 1.377 . S
C374 C373 1.373 . S
C375 C359 1.377 . S
C375 C373 1.389 . S
C375 C376 1.524 . S
C376 C375 1.524 . S
C376 C377 1.397 . S
C376 C381 1.363 . S
C377 H348 0.950 . S
C377 C376 1.397 . S
C377 C378 1.334 . S
C378 H349 0.950 . S
C378 C377 1.334 . S
C378 C379 1.287 . S
C379 C378 1.287 . S
C379 C380 1.524 . S
C379 H382 0.999 . S
C380 H350 0.950 . S
C380 C379 1.524 . S
C380 C381 1.415 . S
C381 H351 0.950 . S
C381 C376 1.363 . S
C381 C380 1.415 . S
H382 C379 0.999 . S
H383 C364 0.913 . S
H384 C402 0.951 . S
H385 C404 0.951 . S
H386 C406 0.950 . S
H387 C407 0.950 . S
H388 C409 0.950 . S
H389 C412 0.950 . S
H390 C413 0.950 . S
H391 C415 0.950 . S
H392 C416 0.950 . S
H393 C417 0.951 . S
H394 C419 0.951 . S
H395 C421 0.950 . S
H396 C422 0.950 . S
H397 C424 0.950 . S
H398 C427 0.950 . S
H399 C428 0.950 . S
H400 C430 0.950 . S
H401 C431 0.950 . S
C402 H384 0.951 . S
C402 C403 1.366 . S
C402 C404 1.388 . S
C403 C402 1.366 . S
C403 C407 1.385 . S
C404 H385 0.951 . S
C404 C402 1.388 . S
C404 C405 1.366 . S
C405 C404 1.366 . S
C405 C406 1.414 . S
C405 C408 1.499 . S
C406 H386 0.950 . S
C406 C405 1.414 . S
C406 C407 1.374 . S
C407 H387 0.950 . S
C407 C403 1.385 . S
C407 C406 1.374 . S
C408 C405 1.499 . S
C408 C409 1.373 . S
C408 C410 1.389 . S
C409 H388 0.950 . S
C409 C408 1.373 . S
C409 C425 1.377 . S
C410 C408 1.389 . S
C410 C411 1.524 . S
C410 C424 1.377 . S
C411 C410 1.524 . S
C411 C412 1.397 . S
C411 C416 1.363 . S
C412 H389 0.950 . S
C412 C411 1.397 . S
C412 C413 1.334 . S
C413 H390 0.950 . S
C413 C412 1.334 . S
C413 C414 1.287 . S
C414 C413 1.287 . S
C414 C415 1.524 . S
C414 H433 0.913 . S
C415 H391 0.950 . S
C415 C414 1.524 . S
C415 C416 1.415 . S
C416 H392 0.950 . S
C416 C411 1.363 . S
C416 C415 1.415 . S
C417 H393 0.951 . S
C417 C418 1.366 . S
C417 C419 1.388 . S
C418 C417 1.366 . S
C418 C422 1.385 . S
C419 H394 0.951 . S
C419 C417 1.388 . S
C419 C420 1.366 . S
C420 C419 1.366 . S
C420 C421 1.414 . S
C420 C423 1.499 . S
C421 H395 0.950 . S
C421 C420 1.414 . S
C421 C422 1.374 . S
C422 H396 0.950 . S
C422 C418 1.385 . S
C422 C421 1.374 . S
C423 C420 1.499 . S
C423 C424 1.373 . S
C423 C425 1.389 . S
C424 H397 0.950 . S
C424 C410 1.377 . S
C424 C423 1.373 . S
C425 C409 1.377 . S
C425 C423 1.389 . S
C425 C426 1.524 . S
C426 C425 1.524 . S
C426 C427 1.397 . S
C426 C431 1.363 . S
C427 H398 0.950 . S
C427 C426 1.397 . S
C427 C428 1.334 . S
C428 H399 0.950 . S
C428 C427 1.334 . S
C428 C429 1.287 . S
C429 C428 1.287 . S
C429 C430 1.524 . S
C429 H432 0.999 . S
C430 H400 0.950 . S
C430 C429 1.524 . S
C430 C431 1.415 . S
C431 H401 0.950 . S
C431 C426 1.363 . S
C431 C430 1.415 . S
H432 C429 0.999 . S
H433 C414 0.913 . S
H434 C452 0.951 . S
H435 C454 0.951 . S
H436 C456 0.950 . S
H437 C457 0.950 . S
H438 C459 0.950 . S
H439 C462 0.950 . S
H440 C463 0.950 . S
H441 C465 0.950 . S
H442 C466 0.950 . S
H443 C467 0.951 . S
H444 C469 0.951 . S
H445 C471 0.950 . S
H446 C472 0.950 . S
H447 C474 0.950 . S
H448 C477 0.950 . S
H449 C478 0.950 . S
H450 C480 0.950 . S
H451 C481 0.950 . S
C452 H434 0.951 . S
C452 C453 1.366 . S
C452 C454 1.388 . S
C453 C452 1.366 . S
C453 C457 1.385 . S
C454 H435 0.951 . S
C454 C452 1.388 . S
C454 C455 1.366 . S
C455 C454 1.366 . S
C455 C456 1.414 . S
C455 C458 1.499 . S
C456 H436 0.950 . S
C456 C455 1.414 . S
C456 C457 1.374 . S
C457 H437 0.950 . S
C457 C453 1.385 . S
C457 C456 1.374 . S
C458 C455 1.499 . S
C458 C459 1.373 . S
C458 C460 1.389 . S
C459 H438 0.950 . S
C459 C458 1.373 . S
C459 C475 1.377 . S
C460 C458 1.389 . S
C460 C461 1.524 . S
C460 C474 1.377 . S
C461 C460 1.524 . S
C461 C462 1.397 . S
C461 C466 1.363 . S
C462 H439 0.950 . S
C462 C461 1.397 . S
C462 C463 1.334 . S
C463 H440 0.950 . S
C463 C462 1.334 . S
C463 C464 1.287 . S
C464 C463 1.287 . S
C464 C465 1.524 . S
C464 H483 0.913 . S
C465 H441 0.950 . S
C465 C464 1.524 . S
C465 C466 1.415 . S
C466 H442 0.950 . S
C466 C461 1.363 . S
C466 C465 1.415 . S
C467 H443 0.951 . S
C467 C468 1.366 . S
C467 C469 1.388 . S
C468 C467 1.366 . S
C468 C472 1.385 . S
C469 H444 0.951 . S
C469 C467 1.388 . S
C469 C470 1.366 . S
C470 C469 1.366 . S
C470 C471 1.414 . S
C470 C473 1.499 . S
C471 H445 0.950 . S
C471 C470 1.414 . S
C471 C472 1.374 . S
C472 H446 0.950 . S
C472 C468 1.385 . S
C472 C471 1.374 . S
C473 C470 1.499 . S
C473 C474 1.373 . S
C473 C475 1.389 . S
C474 H447 0.950 . S
C474 C460 1.377 . S
C474 C473 1.373 . S
C475 C459 1.377 . S
C475 C473 1.389 . S
C475 C476 1.524 . S
C476 C475 1.524 . S
C476 C477 1.397 . S
C476 C481 1.363 . S
C477 H448 0.950 . S
C477 C476 1.397 . S
C477 C478 1.334 . S
C478 H449 0.950 . S
C478 C477 1.334 . S
C478 C479 1.287 . S
C479 C478 1.287 . S
C479 C480 1.524 . S
C479 H482 0.999 . S
C480 H450 0.950 . S
C480 C479 1.524 . S
C480 C481 1.415 . S
C481 H451 0.950 . S
C481 C476 1.363 . S
C481 C480 1.415 . S
H482 C479 0.999 . S
H483 C464 0.913 . S
H484 C502 0.951 . S
H485 C504 0.951 . S
H486 C506 0.950 . S
H487 C507 0.950 . S
H488 C509 0.950 . S
H489 C512 0.950 . S
H490 C513 0.950 . S
H491 C515 0.950 . S
H492 C516 0.950 . S
H493 C517 0.951 . S
H494 C519 0.951 . S
H495 C521 0.950 . S
H496 C522 0.950 . S
H497 C524 0.950 . S
H498 C527 0.950 . S
H499 C528 0.950 . S
H500 C530 0.950 . S
H501 C531 0.950 . S
C502 H484 0.951 . S
C502 C503 1.366 . S
C502 C504 1.388 . S
C503 C502 1.366 . S
C503 C507 1.385 . S
C504 H485 0.951 . S
C504 C502 1.388 . S
C504 C505 1.366 . S
C505 C504 1.366 . S
C505 C506 1.414 . S
C505 C508 1.499 . S
C506 H486 0.950 . S
C506 C505 1.414 . S
C506 C507 1.374 . S
C507 H487 0.950 . S
C507 C503 1.385 . S
C507 C506 1.374 . S
C508 C505 1.499 . S
C508 C509 1.373 . S
C508 C510 1.389 . S
C509 H488 0.950 . S
C509 C508 1.373 . S
C509 C525 1.377 . S
C510 C508 1.389 . S
C510 C511 1.524 . S
C510 C524 1.377 . S
C511 C510 1.524 . S
C511 C512 1.397 . S
C511 C516 1.363 . S
C512 H489 0.950 . S
C512 C511 1.397 . S
C512 C513 1.334 . S
C513 H490 0.950 . S
C513 C512 1.334 . S
C513 C514 1.287 . S
C514 C513 1.287 . S
C514 C515 1.524 . S
C514 H533 0.913 . S
C515 H491 0.950 . S
C515 C514 1.524 . S
C515 C516 1.415 . S
C516 H492 0.950 . S
C516 C511 1.363 . S
C516 C515 1.415 . S
C517 H493 0.951 . S
C517 C518 1.366 . S
C517 C519 1.388 . S
C518 C517 1.366 . S
C518 C522 1.385 . S
C519 H494 0.951 . S
C519 C517 1.388 . S
C519 C520 1.366 . S
C520 C519 1.366 . S
C520 C521 1.414 . S
C520 C523 1.499 . S
C521 H495 0.950 . S
C521 C520 1.414 . S
C521 C522 1.374 . S
C522 H496 0.950 . S
C522 C518 1.385 . S
C522 C521 1.374 . S
C523 C520 1.499 . S
C523 C524 1.373 . S
C523 C525 1.389 . S
C524 H497 0.950 . S
C524 C510 1.377 . S
C524 C523 1.373 . S
C525 C509 1.377 . S
C525 C523 1.389 . S
C525 C526 1.524 . S
C526 C525 1.524 . S
C526 C527 1.397 . S
C526 C531 1.363 . S
C527 H498 0.950 . S
C527 C526 1.397 . S
C527 C528 1.334 . S
C528 H499 0.950 . S
C528 C527 1.334 . S
C528 C529 1.287 . S
C529 C528 1.287 . S
C529 C530 1.524 . S
C529 H532 0.999 . S
C530 H500 0.950 . S
C530 C529 1.524 . S
C530 C531 1.415 . S
C531 H501 0.950 . S
C531 C526 1.363 . S
C531 C530 1.415 . S
H532 C529 0.999 . S
H533 C514 0.913 . S
H534 C552 0.951 . S
H535 C554 0.951 . S
H536 C556 0.950 . S
H537 C557 0.950 . S
H538 C559 0.950 . S
H539 C562 0.950 . S
H540 C563 0.950 . S
H541 C565 0.950 . S
H542 C566 0.950 . S
H543 C567 0.951 . S
H544 C569 0.951 . S
H545 C571 0.950 . S
H546 C572 0.950 . S
H547 C574 0.950 . S
H548 C577 0.950 . S
H549 C578 0.950 . S
H550 C580 0.950 . S
H551 C581 0.950 . S
C552 H534 0.951 . S
C552 C553 1.366 . S
C552 C554 1.388 . S
C553 C552 1.366 . S
C553 C557 1.385 . S
C554 H535 0.951 . S
C554 C552 1.388 . S
C554 C555 1.366 . S
C555 C554 1.366 . S
C555 C556 1.414 . S
C555 C558 1.499 . S
C556 H536 0.950 . S
C556 C555 1.414 . S
C556 C557 1.374 . S
C557 H537 0.950 . S
C557 C553 1.385 . S
C557 C556 1.374 . S
C558 C555 1.499 . S
C558 C559 1.373 . S
C558 C560 1.389 . S
C559 H538 0.950 . S
C559 C558 1.373 . S
C559 C575 1.377 . S
C560 C558 1.389 . S
C560 C561 1.524 . S
C560 C574 1.377 . S
C561 C560 1.524 . S
C561 C562 1.397 . S
C561 C566 1.363 . S
C562 H539 0.950 . S
C562 C561 1.397 . S
C562 C563 1.334 . S
C563 H540 0.950 . S
C563 C562 1.334 . S
C563 C564 1.287 . S
C564 C563 1.287 . S
C564 C565 1.524 . S
C564 H583 0.913 . S
C565 H541 0.950 . S
C565 C564 1.524 . S
C565 C566 1.415 . S
C566 H542 0.950 . S
C566 C561 1.363 . S
C566 C565 1.415 . S
C567 H543 0.951 . S
C567 C568 1.366 . S
C567 C569 1.388 . S
C568 C567 1.366 . S
C568 C572 1.385 . S
C569 H544 0.951 . S
C569 C567 1.388 . S
C569 C570 1.366 . S
C570 C569 1.366 . S
C570 C571 1.414 . S
C570 C573 1.499 . S
C571 H545 0.950 . S
C571 C570 1.414 . S
C571 C572 1.374 . S
C572 H546 0.950 . S
C572 C568 1.385 . S
C572 C571 1.374 . S
C573 C570 1.499 . S
C573 C574 1.373 . S
C573 C575 1.389 . S
C574 H547 0.950 . S
C574 C560 1.377 . S
C574 C573 1.373 . S
C575 C559 1.377 . S
C575 C573 1.389 . S
C575 C576 1.524 . S
C576 C575 1.524 . S
C576 C577 1.397 . S
C576 C581 1.363 . S
C577 H548 0.950 . S
C577 C576 1.397 . S
C577 C578 1.334 . S
C578 H549 0.950 . S
C578 C577 1.334 . S
C578 C579 1.287 . S
C579 C578 1.287 . S
C579 C580 1.524 . S
C579 H582 0.999 . S
C580 H550 0.950 . S
C580 C579 1.524 . S
C580 C581 1.415 . S
C581 H551 0.950 . S
C581 C576 1.363 . S
C581 C580 1.415 . S
H582 C579 0.999 . S
H583 C564 0.913 . S
H584 C602 0.951 . S
H585 C604 0.951 . S
H586 C606 0.950 . S
H587 C607 0.950 . S
H588 C609 0.950 . S
H589 C612 0.950 . S
H590 C613 0.950 . S
H591 C615 0.950 . S
H592 C616 0.950 . S
H593 C617 0.951 . S
H594 C619 0.951 . S
H595 C621 0.950 1_554 S
H596 C622 0.950 . S
H597 C624 0.950 . S
H598 C627 0.950 . S
H599 C628 0.950 . S
H600 C630 0.950 . S
H601 C631 0.950 . S
C602 H584 0.951 . S
C602 C603 1.366 . S
C602 C604 1.388 . S
C603 C602 1.366 . S
C603 C607 1.385 . S
C604 H585 0.951 . S
C604 C602 1.388 . S
C604 C605 1.366 . S
C605 C604 1.366 . S
C605 C606 1.414 . S
C605 C608 1.499 . S
C606 H586 0.950 . S
C606 C605 1.414 . S
C606 C607 1.374 . S
C607 H587 0.950 . S
C607 C603 1.385 . S
C607 C606 1.374 . S
C608 C605 1.499 . S
C608 C609 1.373 . S
C608 C610 1.389 . S
C609 H588 0.950 . S
C609 C608 1.373 . S
C609 C625 1.377 . S
C610 C608 1.389 . S
C610 C611 1.524 . S
C610 C624 1.377 . S
C611 C610 1.524 . S
C611 C612 1.397 . S
C611 C616 1.363 1_556 S
C612 H589 0.950 . S
C612 C611 1.397 . S
C612 C613 1.334 . S
C613 H590 0.950 . S
C613 C612 1.334 . S
C613 C614 1.287 1_556 S
C614 C613 1.287 1_554 S
C614 C615 1.524 . S
C614 H633 0.913 . S
C615 H591 0.950 . S
C615 C614 1.524 . S
C615 C616 1.415 . S
C616 H592 0.950 . S
C616 C611 1.363 1_554 S
C616 C615 1.415 . S
C617 H593 0.951 . S
C617 C618 1.366 . S
C617 C619 1.388 . S
C618 C617 1.366 . S
C618 C622 1.385 1_556 S
C619 H594 0.951 . S
C619 C617 1.388 . S
C619 C620 1.366 . S
C620 C619 1.366 . S
C620 C621 1.414 . S
C620 C623 1.499 . S
C621 H595 0.950 1_556 S
C621 C620 1.414 . S
C621 C622 1.374 1_556 S
C622 H596 0.950 . S
C622 C618 1.385 1_554 S
C622 C621 1.374 1_554 S
C623 C620 1.499 . S
C623 C624 1.373 . S
C623 C625 1.389 . S
C624 H597 0.950 . S
C624 C610 1.377 . S
C624 C623 1.373 . S
C625 C609 1.377 . S
C625 C623 1.389 . S
C625 C626 1.524 . S
C626 C625 1.524 . S
C626 C627 1.397 . S
C626 C631 1.363 . S
C627 H598 0.950 . S
C627 C626 1.397 . S
C627 C628 1.334 . S
C628 H599 0.950 . S
C628 C627 1.334 . S
C628 C629 1.287 . S
C629 C628 1.287 . S
C629 C630 1.524 . S
C629 H632 0.999 . S
C630 H600 0.950 . S
C630 C629 1.524 . S
C630 C631 1.415 . S
C631 H601 0.950 . S
C631 C626 1.363 . S
C631 C630 1.415 . S
H632 C629 0.999 . S
H633 C614 0.913 . S
H634 C652 0.951 . S
H635 C654 0.951 . S
H636 C656 0.950 . S
H637 C657 0.950 . S
H638 C659 0.950 . S
H639 C662 0.950 . S
H640 C663 0.950 . S
H641 C665 0.950 . S
H642 C666 0.950 . S
H643 C667 0.951 . S
H644 C669 0.951 . S
H645 C671 0.950 . S
H646 C672 0.950 . S
H647 C674 0.950 . S
H648 C677 0.950 . S
H649 C678 0.950 . S
H650 C680 0.950 . S
H651 C681 0.950 . S
C652 H634 0.951 . S
C652 C653 1.366 1_556 S
C652 C654 1.388 1_556 S
C653 C652 1.366 1_554 S
C653 C657 1.385 . S
C654 H635 0.951 . S
C654 C652 1.388 1_554 S
C654 C655 1.366 . S
C655 C654 1.366 . S
C655 C656 1.414 . S
C655 C658 1.499 . S
C656 H636 0.950 . S
C656 C655 1.414 . S
C656 C657 1.374 . S
C657 H637 0.950 . S
C657 C653 1.385 . S
C657 C656 1.374 . S
C658 C655 1.499 . S
C658 C659 1.373 . S
C658 C660 1.389 . S
C659 H638 0.950 . S
C659 C658 1.373 . S
C659 C675 1.377 . S
C660 C658 1.389 . S
C660 C661 1.524 1_554 S
C660 C674 1.377 . S
C661 C660 1.524 1_556 S
C661 C662 1.397 . S
C661 C666 1.363 . S
C662 H639 0.950 . S
C662 C661 1.397 . S
C662 C663 1.334 . S
C663 H640 0.950 . S
C663 C662 1.334 . S
C663 C664 1.287 . S
C664 C663 1.287 . S
C664 C665 1.524 . S
C664 H683 0.913 . S
C665 H641 0.950 . S
C665 C664 1.524 . S
C665 C666 1.415 . S
C666 H642 0.950 . S
C666 C661 1.363 . S
C666 C665 1.415 . S
C667 H643 0.951 . S
C667 C668 1.366 . S
C667 C669 1.388 . S
C668 C667 1.366 . S
C668 C672 1.385 . S
C669 H644 0.951 . S
C669 C667 1.388 . S
C669 C670 1.366 . S
C670 C669 1.366 . S
C670 C671 1.414 . S
C670 C673 1.499 . S
C671 H645 0.950 . S
C671 C670 1.414 . S
C671 C672 1.374 . S
C672 H646 0.950 . S
C672 C668 1.385 . S
C672 C671 1.374 . S
C673 C670 1.499 . S
C673 C674 1.373 . S
C673 C675 1.389 . S
C674 H647 0.950 . S
C674 C660 1.377 . S
C674 C673 1.373 . S
C675 C659 1.377 . S
C675 C673 1.389 . S
C675 C676 1.524 . S
C676 C675 1.524 . S
C676 C677 1.397 . S
C676 C681 1.363 . S
C677 H648 0.950 . S
C677 C676 1.397 . S
C677 C678 1.334 . S
C678 H649 0.950 . S
C678 C677 1.334 . S
C678 C679 1.287 . S
C679 C678 1.287 . S
C679 C680 1.524 . S
C679 H682 0.999 . S
C680 H650 0.950 . S
C680 C679 1.524 . S
C680 C681 1.415 . S
C681 H651 0.950 . S
C681 C676 1.363 . S
C681 C680 1.415 . S
H682 C679 0.999 . S
H683 C664 0.913 . S
C103 C13 1.892 1_556 S
C118 C54 1.891 . S
C153 C68 1.891 . S
C168 C26 1.891 . S
C203 C28 1.890 . S
C218 C83 1.892 1_554 S
C253 C43 1.892 . S
C268 C0 1.891 . S
C303 C15 1.892 . S
C318 C57 1.892 . S
C353 C70 1.891 . S
C368 C41 1.892 . S
C403 C12 1.610 . S
C418 C40 1.610 . S
C453 C27 1.611 . S
C468 C55 1.611 . S
C503 C69 1.612 . S
C518 C29 1.611 . S
C553 C82 1.610 . S
C568 C42 1.610 . S
C603 C56 1.610 . S
C618 C1 1.612 1_556 S
C653 C71 1.612 1_554 S
C668 C14 1.610 . S
