# Generated by pormake.
# Topology ume, (4)-cn, num edge types: 1
# Building blocks:
#     Node 0, Type 0, BuildingBlock: QUQFOY_clean_sbu_3, # of connection points: 4
#     Node 1, Type 0, BuildingBlock: QUQFOY_clean_sbu_3, # of connection points: 4
#     Node 2, Type 0, BuildingBlock: QUQFOY_clean_sbu_3, # of connection points: 4
#     Node 3, Type 0, BuildingBlock: QUQFOY_clean_sbu_3, # of connection points: 4
#     Node 4, Type 0, BuildingBlock: QUQFOY_clean_sbu_3, # of connection points: 4
#     Node 5, Type 0, BuildingBlock: QUQFOY_clean_sbu_3, # of connection points: 4
#     Node 6, Type 0, BuildingBlock: QUQFOY_clean_sbu_3, # of connection points: 4
#     Node 7, Type 0, BuildingBlock: QUQFOY_clean_sbu_3, # of connection points: 4
#     Node 8, Type 0, BuildingBlock: QUQFOY_clean_sbu_3, # of connection points: 4
#     Node 9, Type 0, BuildingBlock: QUQFOY_clean_sbu_3, # of connection points: 4
#     Node 10, Type 0, BuildingBlock: QUQFOY_clean_sbu_3, # of connection points: 4
#     Node 11, Type 0, BuildingBlock: QUQFOY_clean_sbu_3, # of connection points: 4
#     Node 12, Type 0, BuildingBlock: QUQFOY_clean_sbu_3, # of connection points: 4
#     Node 13, Type 0, BuildingBlock: QUQFOY_clean_sbu_3, # of connection points: 4
#     Node 14, Type 0, BuildingBlock: QUQFOY_clean_sbu_3, # of connection points: 4
#     Node 15, Type 0, BuildingBlock: QUQFOY_clean_sbu_3, # of connection points: 4
#     Edge 16, Type (0, 0), BuildingBlock: XUDNAN_clean_linker_2, # of connection points: 2
#     Edge 17, Type (0, 0), BuildingBlock: XUDNAN_clean_linker_2, # of connection points: 2
#     Edge 18, Type (0, 0), BuildingBlock: XUDNAN_clean_linker_2, # of connection points: 2
#     Edge 19, Type (0, 0), BuildingBlock: XUDNAN_clean_linker_2, # of connection points: 2
#     Edge 20, Type (0, 0), BuildingBlock: XUDNAN_clean_linker_2, # of connection points: 2
#     Edge 21, Type (0, 0), BuildingBlock: XUDNAN_clean_linker_2, # of connection points: 2
#     Edge 22, Type (0, 0), BuildingBlock: XUDNAN_clean_linker_2, # of connection points: 2
#     Edge 23, Type (0, 0), BuildingBlock: XUDNAN_clean_linker_2, # of connection points: 2
#     Edge 24, Type (0, 0), BuildingBlock: XUDNAN_clean_linker_2, # of connection points: 2
#     Edge 25, Type (0, 0), BuildingBlock: XUDNAN_clean_linker_2, # of connection points: 2
#     Edge 26, Type (0, 0), BuildingBlock: XUDNAN_clean_linker_2, # of connection points: 2
#     Edge 27, Type (0, 0), BuildingBlock: XUDNAN_clean_linker_2, # of connection points: 2
#     Edge 28, Type (0, 0), BuildingBlock: XUDNAN_clean_linker_2, # of connection points: 2
#     Edge 29, Type (0, 0), BuildingBlock: XUDNAN_clean_linker_2, # of connection points: 2
#     Edge 30, Type (0, 0), BuildingBlock: XUDNAN_clean_linker_2, # of connection points: 2
#     Edge 31, Type (0, 0), BuildingBlock: XUDNAN_clean_linker_2, # of connection points: 2
#     Edge 32, Type (0, 0), BuildingBlock: XUDNAN_clean_linker_2, # of connection points: 2
#     Edge 33, Type (0, 0), BuildingBlock: XUDNAN_clean_linker_2, # of connection points: 2
#     Edge 34, Type (0, 0), BuildingBlock: XUDNAN_clean_linker_2, # of connection points: 2
#     Edge 35, Type (0, 0), BuildingBlock: XUDNAN_clean_linker_2, # of connection points: 2
#     Edge 36, Type (0, 0), BuildingBlock: XUDNAN_clean_linker_2, # of connection points: 2
#     Edge 37, Type (0, 0), BuildingBlock: XUDNAN_clean_linker_2, # of connection points: 2
#     Edge 38, Type (0, 0), BuildingBlock: XUDNAN_clean_linker_2, # of connection points: 2
#     Edge 39, Type (0, 0), BuildingBlock: XUDNAN_clean_linker_2, # of connection points: 2
#     Edge 40, Type (0, 0), BuildingBlock: XUDNAN_clean_linker_2, # of connection points: 2
#     Edge 41, Type (0, 0), BuildingBlock: XUDNAN_clean_linker_2, # of connection points: 2
#     Edge 42, Type (0, 0), BuildingBlock: XUDNAN_clean_linker_2, # of connection points: 2
#     Edge 43, Type (0, 0), BuildingBlock: XUDNAN_clean_linker_2, # of connection points: 2
#     Edge 44, Type (0, 0), BuildingBlock: XUDNAN_clean_linker_2, # of connection points: 2
#     Edge 45, Type (0, 0), BuildingBlock: XUDNAN_clean_linker_2, # of connection points: 2
#     Edge 46, Type (0, 0), BuildingBlock: XUDNAN_clean_linker_2, # of connection points: 2
#     Edge 47, Type (0, 0), BuildingBlock: XUDNAN_clean_linker_2, # of connection points: 2
# Relax obj value: 0.095
# Max RMSD: 0.142
# Mean RMSD: 0.141
data_MOF--net-ume--node1-QUQFOY_clean_sbu_3--edge1-XUDNAN_clean_linker_2
_symmetry_space_group_name_H-M    P1
_symmetry_Int_Tables_number       1
_symmetry_cell_setting            triclinic
loop_
_symmetry_equiv_pos_as_xyz
'x, y, z'
_cell_length_a     28.475778
_cell_length_b     28.270958
_cell_length_c     115.85519
_cell_angle_alpha  89.861194
_cell_angle_beta   89.910255
_cell_angle_gamma 90.162754
loop_
_atom_site_label
_atom_site_type_symbol
_atom_site_fract_x
_atom_site_fract_y
_atom_site_fract_z
_atom_type_partial_charge
C0 C 0.26343 0.22361 0.2715 0.0
O1 O 0.28543 0.24796 0.27893 0.0
Cd2 Cd 0.31033 0.20859 0.29631 0.0
O3 O 0.25112 0.18136 0.2738 0.0
Cd4 Cd 0.247 0.12047 0.28883 0.0
C5 C 0.36325 0.10778 0.28497 0.0
O6 O 0.24315 0.17316 0.3055 0.0
O7 O 0.25486 0.09873 0.30886 0.0
O8 O 0.16645 0.12538 0.283 0.0
C9 C 0.24811 0.13995 0.3128 0.0
O10 O 0.36559 0.1488 0.28947 0.0
C11 C 0.15829 0.08136 0.28252 0.0
O12 O 0.32377 0.08741 0.28336 0.0
O13 O 0.19225 0.05383 0.28491 0.0
C14 C 0.79008 0.75314 0.51723 0.0
O15 O 0.76269 0.77988 0.52286 0.0
Cd16 Cd 0.78744 0.81433 0.54082 0.0
O17 O 0.83082 0.74375 0.52105 0.0
Cd18 Cd 0.8818 0.75868 0.53772 0.0
C19 C 0.8855 0.87704 0.53253 0.0
O20 O 0.82143 0.7536 0.55282 0.0
O21 O 0.89081 0.77694 0.55792 0.0
O22 O 0.89957 0.67493 0.53648 0.0
C23 C 0.84959 0.76484 0.56085 0.0
O24 O 0.84282 0.87708 0.53582 0.0
C25 C 0.9438 0.67956 0.53586 0.0
O26 O 0.90845 0.83845 0.53189 0.0
O27 O 0.95984 0.72159 0.53602 0.0
C28 C 0.21221 0.28499 0.77106 0.0
O29 O 0.18389 0.26799 0.77847 0.0
Cd30 Cd 0.1666 0.30952 0.79598 0.0
O31 O 0.23458 0.32305 0.77312 0.0
Cd32 Cd 0.2479 0.38112 0.78853 0.0
C33 C 0.13602 0.41966 0.7853 0.0
O34 O 0.24033 0.32712 0.80492 0.0
O35 O 0.24248 0.40188 0.80878 0.0
O36 O 0.32998 0.36764 0.78416 0.0
C37 C 0.24176 0.3596 0.81244 0.0
O38 O 0.12421 0.38078 0.79009 0.0
C39 C 0.34184 0.41083 0.78351 0.0
O40 O 0.17908 0.42889 0.78318 0.0
O41 O 0.30943 0.44117 0.78493 0.0
C42 C 0.69747 0.73226 0.02001 0.0
O43 O 0.71538 0.70263 0.02697 0.0
Cd44 Cd 0.67864 0.67892 0.04476 0.0
O45 O 0.65878 0.75252 0.02238 0.0
Cd46 Cd 0.60067 0.75552 0.03809 0.0
C47 C 0.5721 0.63853 0.03511 0.0
O48 O 0.65563 0.75079 0.05414 0.0
O49 O 0.58197 0.74548 0.05844 0.0
O50 O 0.59252 0.84155 0.03611 0.0
C51 C 0.62417 0.74778 0.06186 0.0
O52 O 0.61141 0.62841 0.03972 0.0
C53 C 0.54919 0.84016 0.03356 0.0
O54 O 0.56108 0.68141 0.0331 0.0
O55 O 0.53014 0.79954 0.03306 0.0
C56 C 0.25965 0.28054 0.93887 0.0
O57 O 0.28184 0.25515 0.93169 0.0
Cd58 Cd 0.31183 0.28748 0.91401 0.0
O59 O 0.25028 0.32349 0.93651 0.0
Cd60 Cd 0.25735 0.3813 0.92064 0.0
C61 C 0.37578 0.38354 0.92377 0.0
O62 O 0.24826 0.32668 0.90446 0.0
O63 O 0.27074 0.39796 0.9004 0.0
O64 O 0.17434 0.39673 0.92351 0.0
C65 C 0.25785 0.35759 0.89684 0.0
O66 O 0.37461 0.34196 0.91956 0.0
C67 C 0.1782 0.44111 0.92477 0.0
O68 O 0.33795 0.40655 0.92551 0.0
O69 O 0.21955 0.4582 0.92439 0.0
C70 C 0.72019 0.74741 0.18688 0.0
O71 O 0.74291 0.76866 0.17898 0.0
Cd72 Cd 0.70319 0.79072 0.16154 0.0
O73 O 0.67844 0.73308 0.18509 0.0
Cd74 Cd 0.61754 0.72396 0.17025 0.0
C75 C 0.60182 0.84136 0.17324 0.0
O76 O 0.66864 0.72145 0.1534 0.0
O77 O 0.59439 0.73107 0.15024 0.0
O78 O 0.62581 0.64223 0.17555 0.0
C79 C 0.63543 0.72583 0.14618 0.0
O80 O 0.64202 0.84413 0.16842 0.0
C81 C 0.58249 0.63282 0.17663 0.0
O82 O 0.58277 0.80128 0.17533 0.0
O83 O 0.5539 0.66675 0.17497 0.0
C84 C 0.22765 0.19955 0.43887 0.0
O85 O 0.19863 0.21863 0.43198 0.0
Cd86 Cd 0.17401 0.18177 0.41431 0.0
O87 O 0.24612 0.1598 0.4365 0.0
Cd88 Cd 0.24698 0.10063 0.42102 0.0
C89 C 0.12992 0.07593 0.42404 0.0
O90 O 0.2451 0.15666 0.40502 0.0
O91 O 0.23867 0.08275 0.40059 0.0
O92 O 0.33171 0.09146 0.42368 0.0
C93 C 0.24228 0.12534 0.39724 0.0
O94 O 0.12139 0.11589 0.4194 0.0
C95 C 0.32992 0.04756 0.42597 0.0
O96 O 0.17204 0.06328 0.42606 0.0
O97 O 0.28952 0.02838 0.426 0.0
C98 C 0.75247 0.71846 0.68629 0.0
O99 O 0.73561 0.68834 0.67931 0.0
Cd100 Cd 0.77598 0.66736 0.66172 0.0
O101 O 0.79119 0.73907 0.68406 0.0
Cd102 Cd 0.85168 0.74236 0.66908 0.0
C103 C 0.88032 0.62554 0.67191 0.0
O104 O 0.79961 0.73987 0.65228 0.0
O105 O 0.87435 0.73591 0.64902 0.0
O106 O 0.85915 0.82797 0.67171 0.0
C107 C 0.83306 0.73912 0.64503 0.0
O108 O 0.84173 0.61557 0.66693 0.0
C109 C 0.90185 0.82669 0.67481 0.0
O110 O 0.89089 0.66833 0.67417 0.0
O111 O 0.92106 0.78624 0.67527 0.0
C112 C 0.72979 0.70993 0.76761 0.0
O113 O 0.75568 0.73797 0.77332 0.0
Cd114 Cd 0.78942 0.71131 0.79131 0.0
O115 O 0.72114 0.66865 0.77141 0.0
Cd116 Cd 0.73478 0.61601 0.78776 0.0
C117 C 0.85236 0.61375 0.78279 0.0
O118 O 0.73063 0.67434 0.80348 0.0
O119 O 0.75313 0.60319 0.80768 0.0
O120 O 0.6515 0.59944 0.78647 0.0
C121 C 0.74224 0.64425 0.81113 0.0
O122 O 0.85206 0.65658 0.78616 0.0
C123 C 0.65525 0.55522 0.78496 0.0
O124 O 0.81423 0.59017 0.78203 0.0
O125 O 0.69665 0.53842 0.78483 0.0
C126 C 0.25962 0.25402 0.02058 0.0
O127 O 0.23478 0.28042 0.02695 0.0
Cd128 Cd 0.2682 0.30549 0.04501 0.0
O129 O 0.29981 0.2402 0.0239 0.0
Cd130 Cd 0.35596 0.24042 0.03985 0.0
C131 C 0.37191 0.35698 0.03532 0.0
O132 O 0.29859 0.2386 0.05564 0.0
O133 O 0.37086 0.25454 0.06001 0.0
O134 O 0.3536 0.15795 0.03512 0.0
C135 C 0.32923 0.2463 0.06337 0.0
O136 O 0.33017 0.3604 0.0392 0.0
C137 C 0.39746 0.15067 0.03503 0.0
O138 O 0.39145 0.31671 0.03417 0.0
O139 O 0.42383 0.18583 0.03736 0.0
C140 C 0.74533 0.78998 0.26806 0.0
O141 O 0.71232 0.77117 0.27388 0.0
Cd142 Cd 0.68574 0.80437 0.29193 0.0
O143 O 0.76483 0.82788 0.2715 0.0
Cd144 Cd 0.76111 0.88485 0.28727 0.0
C145 C 0.64522 0.91202 0.28314 0.0
O146 O 0.75389 0.82739 0.30298 0.0
O147 O 0.74823 0.90138 0.30749 0.0
O148 O 0.84643 0.89381 0.28602 0.0
C149 C 0.74975 0.8586 0.31077 0.0
O150 O 0.63505 0.8715 0.28728 0.0
C151 C 0.84551 0.93748 0.28347 0.0
O152 O 0.68792 0.9242 0.28163 0.0
O153 O 0.80535 0.95675 0.28283 0.0
C154 C 0.21432 0.24444 0.51982 0.0
O155 O 0.23226 0.21168 0.52587 0.0
Cd156 Cd 0.1951 0.18794 0.54371 0.0
O157 O 0.17779 0.26584 0.52329 0.0
Cd158 Cd 0.12299 0.27062 0.53942 0.0
C159 C 0.08431 0.15932 0.53396 0.0
O160 O 0.1769 0.25547 0.55555 0.0
O161 O 0.10216 0.25306 0.55901 0.0
O162 O 0.13565 0.35511 0.538 0.0
C163 C 0.14378 0.25152 0.56286 0.0
O164 O 0.12359 0.14615 0.5381 0.0
C165 C 0.09282 0.36659 0.53705 0.0
O166 O 0.07504 0.20321 0.53274 0.0
O167 O 0.06295 0.33302 0.53715 0.0
C168 C 0.75499 0.76032 0.43569 0.0
O169 O 0.77693 0.7384 0.42781 0.0
Cd170 Cd 0.79717 0.77949 0.41037 0.0
O171 O 0.73962 0.80193 0.4339 0.0
Cd172 Cd 0.72968 0.86406 0.41919 0.0
C173 C 0.84589 0.88191 0.42226 0.0
O174 O 0.727 0.81236 0.40239 0.0
O175 O 0.73536 0.88726 0.39912 0.0
O176 O 0.64903 0.85707 0.42526 0.0
C177 C 0.73043 0.84584 0.39512 0.0
O178 O 0.84952 0.8416 0.41745 0.0
C179 C 0.64058 0.90096 0.426 0.0
O180 O 0.80581 0.90027 0.42425 0.0
O181 O 0.67437 0.92906 0.42372 0.0
C182 C 0.19011 0.2427 0.68965 0.0
O183 O 0.21549 0.26872 0.68322 0.0
Cd184 Cd 0.18454 0.293 0.6648 0.0
O185 O 0.15017 0.22841 0.68622 0.0
Cd186 Cd 0.09463 0.22632 0.67021 0.0
C187 C 0.07935 0.34403 0.67356 0.0
O188 O 0.15437 0.22428 0.65503 0.0
O189 O 0.08194 0.23222 0.64974 0.0
O190 O 0.09605 0.14511 0.67626 0.0
C191 C 0.12474 0.2279 0.6469 0.0
O192 O 0.1216 0.34729 0.67 0.0
C193 C 0.05217 0.13775 0.67593 0.0
O194 O 0.05947 0.30381 0.6748 0.0
O195 O 0.02644 0.17232 0.67286 0.0
C196 C 0.74235 0.70849 0.93879 0.0
O197 O 0.71048 0.72707 0.93264 0.0
Cd198 Cd 0.68948 0.6917 0.91441 0.0
O199 O 0.76418 0.67215 0.93527 0.0
Cd200 Cd 0.77161 0.61816 0.91897 0.0
C201 C 0.6599 0.5789 0.92324 0.0
O202 O 0.75907 0.67523 0.90326 0.0
O203 O 0.76013 0.60082 0.89888 0.0
O204 O 0.85489 0.63097 0.92177 0.0
C205 C 0.75779 0.64346 0.89552 0.0
O206 O 0.64739 0.61909 0.91933 0.0
C207 C 0.86635 0.58776 0.9225 0.0
O208 O 0.7033 0.5692 0.92463 0.0
O209 O 0.83336 0.55754 0.92158 0.0
C210 C 0.28175 0.23224 0.19005 0.0
O211 O 0.26313 0.19649 0.18522 0.0
Cd212 Cd 0.29219 0.15862 0.16778 0.0
O213 O 0.31902 0.25066 0.18599 0.0
Cd214 Cd 0.37572 0.24177 0.17047 0.0
C215 C 0.40221 0.1221 0.17499 0.0
O216 O 0.32471 0.21592 0.15474 0.0
O217 O 0.37314 0.27201 0.15075 0.0
O218 O 0.38953 0.32329 0.17576 0.0
C219 C 0.34034 0.24517 0.14739 0.0
O220 O 0.3598 0.11021 0.17298 0.0
C221 C 0.43406 0.32052 0.17566 0.0
O222 O 0.41497 0.16545 0.17459 0.0
O223 O 0.45189 0.28039 0.17328 0.0
H224 H 0.93632 0.90983 0.28762 0.0
H225 H 0.85303 0.02656 0.27451 0.0
H226 H 0.92541 0.07276 0.27116 0.0
H227 H 0.01751 0.98001 0.303 0.0
H228 H 0.06763 0.94329 0.29993 0.0
H229 H 0.00973 0.91767 0.30034 0.0
H230 H 0.02145 0.88528 0.27963 0.0
H231 H 0.07941 0.91101 0.27914 0.0
H232 H 0.0371 0.92543 0.26813 0.0
H233 H 0.00521 0.10789 0.27028 0.0
H234 H 0.08774 0.1318 0.27274 0.0
H235 H 0.12046 0.99292 0.28659 0.0
C236 C 0.93339 0.94491 0.28392 0.0
C237 C 0.88907 0.96459 0.28128 0.0
C238 C 0.8866 0.0108 0.2766 0.0
C239 C 0.92752 0.03721 0.2746 0.0
C240 C 0.9706 0.0169 0.27735 0.0
C241 C 0.97391 0.9719 0.28194 0.0
C242 C 0.02441 0.95968 0.28481 0.0
C243 C 0.03014 0.94959 0.29779 0.0
C244 C 0.0416 0.91787 0.27749 0.0
C245 C 0.04881 0.00527 0.28133 0.0
C246 C 0.01706 0.03749 0.27692 0.0
C247 C 0.0305 0.08288 0.27362 0.0
C248 C 0.07747 0.09612 0.27508 0.0
C249 C 0.11051 0.06417 0.27983 0.0
C250 C 0.09611 0.01783 0.28279 0.0
H251 H 0.91743 0.5864 0.53592 0.0
H252 H 0.03998 0.67795 0.53445 0.0
H253 H 0.09128 0.60753 0.53395 0.0
H254 H 0.96641 0.49946 0.55451 0.0
H255 H 0.93815 0.45024 0.54748 0.0
H256 H 0.91113 0.50772 0.54722 0.0
H257 H 0.90847 0.50523 0.52488 0.0
H258 H 0.93544 0.44767 0.52506 0.0
H259 H 0.96187 0.49512 0.51689 0.0
H260 H 0.12905 0.52733 0.53426 0.0
H261 H 0.15102 0.44315 0.53534 0.0
H262 H 0.00357 0.40384 0.53659 0.0
C263 C 0.95505 0.59173 0.53542 0.0
C264 C 0.97475 0.63771 0.53521 0.0
C265 C 0.02414 0.64308 0.5346 0.0
C266 C 0.05353 0.60331 0.53431 0.0
C267 C 0.03292 0.55851 0.5346 0.0
C268 C 0.98482 0.55251 0.53512 0.0
C269 C 0.97156 0.50059 0.53562 0.0
C270 C 0.94527 0.48883 0.54688 0.0
C271 C 0.94263 0.48633 0.52497 0.0
C272 C 0.01979 0.47823 0.5354 0.0
C273 C 0.05466 0.51228 0.53478 0.0
C274 C 0.10205 0.50036 0.5347 0.0
C275 C 0.11414 0.45241 0.53533 0.0
C276 C 0.07901 0.41687 0.53603 0.0
C277 C 0.03122 0.43013 0.536 0.0
H278 H 0.56348 0.58309 0.78579 0.0
H279 H 0.65152 0.45965 0.78085 0.0
H280 H 0.5804 0.40998 0.77869 0.0
H281 H 0.47626 0.52672 0.80272 0.0
H282 H 0.42809 0.55946 0.79659 0.0
H283 H 0.48584 0.58542 0.79706 0.0
H284 H 0.48314 0.59914 0.77494 0.0
H285 H 0.42536 0.57309 0.7744 0.0
H286 H 0.47179 0.54987 0.76549 0.0
H287 H 0.49974 0.37356 0.77789 0.0
H288 H 0.41578 0.35237 0.77902 0.0
H289 H 0.38057 0.49993 0.78451 0.0
C290 C 0.56791 0.54566 0.78417 0.0
C291 C 0.61307 0.5252 0.78347 0.0
C292 C 0.61727 0.47605 0.78141 0.0
C293 C 0.5771 0.44762 0.78014 0.0
C294 C 0.53311 0.46897 0.78092 0.0
C295 C 0.5283 0.51686 0.78289 0.0
C296 C 0.47712 0.53085 0.78381 0.0
C297 C 0.4662 0.55183 0.79576 0.0
C298 C 0.46357 0.56527 0.77408 0.0
C299 C 0.45377 0.48317 0.78223 0.0
C300 C 0.48667 0.44801 0.78048 0.0
C301 C 0.47367 0.40083 0.77918 0.0
C302 C 0.42586 0.38917 0.77984 0.0
C303 C 0.39158 0.42452 0.78183 0.0
C304 C 0.40586 0.47219 0.78288 0.0
H305 H 0.48603 0.11467 0.03927 0.0
H306 H 0.34952 0.07853 0.02508 0.0
H307 H 0.37592 -0.00313 0.02191 0.0
H308 H 0.55588 0.03706 0.02011 0.0
H309 H 0.59614 0.0208 0.03142 0.0
H310 H 0.56836 0.078 0.03162 0.0
H311 H 0.53642 0.06091 0.05216 0.0
H312 H 0.56392 0.00367 0.05202 0.0
H313 H 0.50173 0.00843 0.05468 0.0
H314 H 0.41356 0.91822 0.02172 0.0
H315 H 0.46155 0.84652 0.02428 0.0
H316 H 0.57448 0.93195 0.03843 0.0
C317 C 0.4621 0.08973 0.0353 0.0
C318 C 0.41575 0.10299 0.03241 0.0
C319 C 0.38515 0.06918 0.0274 0.0
C320 C 0.39984 0.02269 0.02552 0.0
C321 C 0.4453 0.01042 0.02866 0.0
C322 C 0.47617 0.04283 0.0334 0.0
C323 C 0.52219 0.01931 0.0366 0.0
C324 C 0.56306 0.04003 0.02951 0.0
C325 C 0.53159 0.02332 0.04964 0.0
C326 C 0.51182 0.96861 0.03314 0.0
C327 C 0.46734 0.96448 0.02851 0.0
C328 C 0.4487 0.92099 0.0252 0.0
C329 C 0.47615 0.88046 0.02673 0.0
C330 C 0.52177 0.88368 0.0315 0.0
C331 C 0.53993 0.92848 0.03463 0.0
H332 H 0.08613 0.4132 0.92417 0.0
H333 H 0.17503 0.53718 0.92797 0.0
H334 H 0.10436 0.5877 0.9288 0.0
H335 H 0.00303 0.4654 0.90563 0.0
H336 H 0.95308 0.43503 0.91174 0.0
H337 H 0.01031 0.4083 0.91235 0.0
H338 H 0.00338 0.40082 0.93458 0.0
H339 H 0.94597 0.42737 0.93405 0.0
H340 H -0.00902 0.45269 0.94307 0.0
H341 H 0.02446 0.62489 0.9281 0.0
H342 H 0.94111 0.64651 0.92603 0.0
H343 H 0.9041 0.49811 0.9226 0.0
C344 C 0.0908 0.45092 0.92534 0.0
C345 C 0.13613 0.47128 0.92605 0.0
C346 C 0.14067 0.52082 0.92745 0.0
C347 C 0.10074 0.54976 0.92793 0.0
C348 C 0.05661 0.52857 0.92704 0.0
C349 C 0.0514 0.48027 0.92581 0.0
C350 C 0.00016 0.46653 0.92456 0.0
C351 C -0.00886 0.4424 0.91288 0.0
C352 C 0.98419 0.43499 0.93467 0.0
C353 C 0.97733 0.51478 0.92509 0.0
C354 C 0.01052 0.55002 0.92659 0.0
C355 C -0.00185 0.59758 0.927 0.0
C356 C 0.95067 0.60947 0.92579 0.0
C357 C 0.91602 0.57399 0.92417 0.0
C358 C 0.92968 0.526 0.9239 0.0
H359 H 0.40646 0.41311 0.17554 0.0
H360 H 0.52825 0.32324 0.18033 0.0
H361 H 0.57792 0.39423 0.18301 0.0
H362 H 0.46376 0.49924 0.15876 0.0
H363 H 0.43205 0.54875 0.16464 0.0
H364 H 0.40524 0.49106 0.1644 0.0
H365 H 0.39141 0.49543 0.18648 0.0
H366 H 0.41826 0.55323 0.1868 0.0
H367 H 0.44037 0.50669 0.19594 0.0
H368 H 0.61483 0.47424 0.18398 0.0
H369 H 0.63794 0.55785 0.18214 0.0
H370 H 0.49247 0.59642 0.17617 0.0
C371 C 0.44345 0.40833 0.17736 0.0
C372 C 0.46352 0.36267 0.17783 0.0
C373 C 0.51218 0.35789 0.17998 0.0
C374 C 0.54058 0.39798 0.18156 0.0
C375 C 0.51975 0.44249 0.18092 0.0
C376 C 0.47234 0.44794 0.17883 0.0
C377 C 0.4594 0.49973 0.17767 0.0
C378 C 0.43892 0.5103 0.16566 0.0
C379 C 0.42534 0.51464 0.1873 0.0
C380 C 0.50715 0.52258 0.17921 0.0
C381 C 0.54129 0.48888 0.18124 0.0
C382 C 0.58839 0.50096 0.18248 0.0
C383 C 0.60113 0.54863 0.1814 0.0
C384 C 0.56699 0.58374 0.17902 0.0
C385 C 0.51927 0.5705 0.17811 0.0
H386 H 0.42149 0.07549 0.42291 0.0
H387 H 0.33538 0.95678 0.43399 0.0
H388 H 0.40681 0.90906 0.43695 0.0
H389 H 0.50217 0.00882 0.40681 0.0
H390 H 0.55279 0.04394 0.41056 0.0
H391 H 0.49541 0.07041 0.41044 0.0
H392 H 0.50654 0.09703 0.43165 0.0
H393 H 0.56404 0.07055 0.43184 0.0
H394 H 0.52097 0.05372 0.44252 0.0
H395 H 0.48619 0.87259 0.43739 0.0
H396 H 0.56851 0.84847 0.43471 0.0
H397 H 0.60401 0.99043 0.42321 0.0
C398 C 0.41772 0.0397 0.42613 0.0
C399 C 0.37289 0.01988 0.42828 0.0
C400 C 0.36936 0.97269 0.43231 0.0
C401 C 0.40974 0.94538 0.43407 0.0
C402 C 0.45335 0.9658 0.43176 0.0
C403 C 0.45768 0.01184 0.42787 0.0
C404 C 0.50852 0.02415 0.4253 0.0
C405 C 0.51509 0.0376 0.41252 0.0
C406 C 0.52604 0.06371 0.43331 0.0
C407 C 0.53196 0.97746 0.4281 0.0
C408 C 0.49947 0.94452 0.43193 0.0
C409 C 0.51204 0.89817 0.43451 0.0
C410 C 0.55891 0.88481 0.43293 0.0
C411 C 0.59271 0.91761 0.42878 0.0
C412 C 0.57911 0.96477 0.42654 0.0
H413 H 0.96457 0.10156 0.67082 0.0
H414 H 0.09763 0.06639 0.6869 0.0
H415 H 0.07058 0.9845 0.68982 0.0
H416 H 0.89033 0.02242 0.68905 0.0
H417 H 0.85296 0.00649 0.67713 0.0
H418 H 0.88042 0.064 0.6775 0.0
H419 H 0.91723 0.0486 0.65739 0.0
H420 H 0.89019 0.99103 0.65699 0.0
H421 H 0.95286 -0.00328 0.65525 0.0
H422 H 0.03347 0.90519 0.68918 0.0
H423 H 0.98691 0.83308 0.6855 0.0
H424 H 0.87712 0.91847 0.67004 0.0
C425 C 0.9875 0.07684 0.67519 0.0
C426 C 0.03315 0.09035 0.67866 0.0
C427 C 0.06253 0.05681 0.68416 0.0
C428 C 0.04745 0.01022 0.6859 0.0
C429 C 0.0028 -0.00236 0.68213 0.0
C430 C 0.97302 0.02992 0.67697 0.0
C431 C 0.92802 0.00615 0.67303 0.0
C432 C 0.88541 0.02595 0.67957 0.0
C433 C 0.92174 0.01091 0.65989 0.0
C434 C 0.93786 0.95539 0.67651 0.0
C435 C 0.98106 0.95143 0.68182 0.0
C436 C -0.00075 0.90785 0.68519 0.0
C437 C 0.97266 0.86709 0.68301 0.0
C438 C 0.92836 0.87022 0.67755 0.0
C439 C 0.91061 0.91507 0.67438 0.0
H440 H 0.54979 0.89871 0.28539 0.0
H441 H 0.65448 0.00342 0.27554 0.0
H442 H 0.59201 0.06272 0.27309 0.0
H443 H 0.45615 0.94117 0.2657 0.0
H444 H 0.41041 0.9292 0.27609 0.0
H445 H 0.46274 0.89346 0.27592 0.0
H446 H 0.47689 0.91261 0.29749 0.0
H447 H 0.42478 0.94842 0.29773 0.0
H448 H 0.48033 0.9735 0.30202 0.0
H449 H 0.52037 0.11276 0.27395 0.0
H450 H 0.44333 0.14988 0.27737 0.0
H451 H 0.38375 0.01281 0.28592 0.0
C452 C 0.55956 0.93386 0.28251 0.0
C453 C 0.60718 0.94631 0.28065 0.0
C454 C 0.61836 0.99288 0.27699 0.0
C455 C 0.58307 0.02685 0.27556 0.0
C456 C 0.53668 0.01365 0.27768 0.0
C457 C 0.52473 0.96819 0.28097 0.0
C458 C 0.47244 0.964 0.28333 0.0
C459 C 0.44906 0.92994 0.27474 0.0
C460 C 0.46309 0.94875 0.29589 0.0
C461 C 0.45715 0.01458 0.2812 0.0
C462 C 0.49481 0.04251 0.27789 0.0
C463 C 0.49045 0.09113 0.27633 0.0
C464 C 0.44661 0.1119 0.27833 0.0
C465 C 0.40757 0.0841 0.28178 0.0
C466 C 0.41277 0.03468 0.28303 0.0
H467 H 0.97984 0.89774 0.53303 0.0
H468 H 0.84328 0.96038 0.52675 0.0
H469 H 0.88052 0.03877 0.52448 0.0
H470 H 0.02204 0.98861 0.55038 0.0
H471 H 0.08176 0.98628 0.54524 0.0
H472 H 0.04549 0.93414 0.54476 0.0
H473 H 0.06084 0.92656 0.52279 0.0
H474 H 0.0974 0.97868 0.52321 0.0
H475 H 0.04839 0.97593 0.51341 0.0
H476 H 0.93159 0.11145 0.52455 0.0
H477 H -0.00763 0.17279 0.52751 0.0
H478 H 0.09518 0.06298 0.53422 0.0
C479 C 0.95794 0.92775 0.53088 0.0
C480 C 0.9087 0.92287 0.52998 0.0
C481 C 0.88111 0.96325 0.52746 0.0
C482 C 0.90195 0.00792 0.52611 0.0
C483 C 0.95045 0.01176 0.52732 0.0
C484 C 0.97814 0.97275 0.52963 0.0
C485 C 0.02884 0.98709 0.53152 0.0
C486 C 0.04548 0.97322 0.5437 0.0
C487 C 0.06075 0.9658 0.52217 0.0
C488 C 0.02507 0.04028 0.5302 0.0
C489 C 0.97974 0.05378 0.5276 0.0
C490 C 0.96735 0.10127 0.52646 0.0
C491 C 0.00212 0.13589 0.52817 0.0
C492 C 0.04861 0.12285 0.5311 0.0
C493 C 0.06008 0.07428 0.53195 0.0
H494 H 0.04056 0.40709 0.78633 0.0
H495 H 0.1475 0.51175 0.77813 0.0
H496 H 0.08551 0.57128 0.77486 0.0
H497 H 0.95271 0.44882 0.76534 0.0
H498 H 0.90433 0.43652 0.77495 0.0
H499 H 0.95688 0.40124 0.77567 0.0
H500 H 0.96499 0.42068 0.79743 0.0
H501 H 0.91259 0.45596 0.79678 0.0
H502 H 0.96657 0.48163 0.80196 0.0
H503 H 0.01256 0.62115 0.77445 0.0
H504 H 0.93411 0.6572 0.77642 0.0
H505 H 0.87443 0.5194 0.78422 0.0
C506 C 0.05106 0.44235 0.7837 0.0
C507 C 0.09902 0.45471 0.7825 0.0
C508 C 0.11107 0.50133 0.77907 0.0
C509 C 0.07608 0.53539 0.77718 0.0
C510 C 0.02921 0.52213 0.77862 0.0
C511 C 0.01664 0.4766 0.7817 0.0
C512 C 0.96393 0.47192 0.78319 0.0
C513 C 0.94325 0.43759 0.77425 0.0
C514 C 0.9513 0.45666 0.79557 0.0
C515 C 0.94884 0.52231 0.78079 0.0
C516 C 0.98702 0.55065 0.77811 0.0
C517 C 0.98235 0.59916 0.77636 0.0
C518 C 0.93766 0.61932 0.77753 0.0
C519 C 0.8981 0.59103 0.78036 0.0
C520 C 0.9038 0.54175 0.78181 0.0
H521 H 0.58268 0.54244 0.0383 0.0
H522 H 0.48362 0.6481 0.02622 0.0
H523 H 0.42438 0.58572 0.02324 0.0
H524 H 0.54446 0.44706 0.0185 0.0
H525 H 0.55243 0.40163 0.02926 0.0
H526 H 0.58884 0.45389 0.02945 0.0
H527 H 0.56385 0.47003 0.05059 0.0
H528 H 0.5274 0.41795 0.05046 0.0
H529 H 0.50229 0.47448 0.05407 0.0
H530 H 0.37338 0.51435 0.02355 0.0
H531 H 0.33417 0.43746 0.02664 0.0
H532 H 0.46617 0.37641 0.03778 0.0
C533 C 0.5488 0.55241 0.03485 0.0
C534 C 0.53792 0.60031 0.03249 0.0
C535 C 0.49296 0.61176 0.02808 0.0
C536 C 0.45904 0.57653 0.02632 0.0
C537 C 0.47066 0.52987 0.0289 0.0
C538 C 0.51452 0.51759 0.03298 0.0
C539 C 0.51701 0.46504 0.03563 0.0
C540 C 0.55281 0.44046 0.02774 0.0
C541 C 0.52829 0.4564 0.04845 0.0
C542 C 0.46723 0.45004 0.03274 0.0
C543 C 0.44125 0.48806 0.02881 0.0
C544 C 0.39352 0.48413 0.02642 0.0
C545 C 0.37154 0.44038 0.02824 0.0
C546 C 0.39728 0.40098 0.03232 0.0
C547 C 0.44595 0.4057 0.0344 0.0
H548 H 0.39818 0.47814 0.92436 0.0
H549 H 0.45831 0.33813 0.92813 0.0
H550 H 0.53712 0.37354 0.93028 0.0
H551 H 0.48761 0.52334 0.90687 0.0
H552 H 0.48697 0.58211 0.91287 0.0
H553 H 0.43457 0.54645 0.91321 0.0
H554 H 0.42949 0.55644 0.93541 0.0
H555 H 0.48188 0.59235 0.93513 0.0
H556 H 0.47914 0.54063 0.94423 0.0
H557 H 0.61023 0.42366 0.93056 0.0
H558 H 0.67202 0.48452 0.92819 0.0
H559 H 0.56446 0.59149 0.9236 0.0
C560 C 0.42779 0.45505 0.92592 0.0
C561 C 0.42206 0.40541 0.92618 0.0
C562 C 0.46186 0.37628 0.92793 0.0
C563 C 0.50677 0.39606 0.92921 0.0
C564 C 0.51141 0.44507 0.92867 0.0
C565 C 0.47301 0.47421 0.92706 0.0
C566 C 0.48807 0.5254 0.9258 0.0
C567 C 0.47344 0.54548 0.91399 0.0
C568 C 0.46848 0.55547 0.93574 0.0
C569 C 0.5409 0.52031 0.92669 0.0
C570 C 0.55366 0.47383 0.92852 0.0
C571 C 0.60065 0.46028 0.92922 0.0
C572 C 0.63552 0.4951 0.92786 0.0
C573 C 0.62323 0.54282 0.9257 0.0
C574 C 0.57517 0.55539 0.92526 0.0
H575 H 0.50674 0.85996 0.17362 0.0
H576 H 0.64337 0.92408 0.17925 0.0
H577 H 0.6059 0.00151 0.18225 0.0
H578 H 0.46167 0.9526 0.15711 0.0
H579 H 0.40258 0.9493 0.16266 0.0
H580 H 0.43896 0.89737 0.16262 0.0
H581 H 0.42625 0.88733 0.18464 0.0
H582 H 0.38957 0.93921 0.18474 0.0
H583 H 0.43974 0.93579 0.19417 0.0
H584 H 0.55545 0.07294 0.18279 0.0
H585 H 0.49488 0.13437 0.1806 0.0
H586 H 0.39032 0.02536 0.1742 0.0
C587 C 0.5285 0.89011 0.1758 0.0
C588 C 0.57791 0.886 0.17629 0.0
C589 C 0.60545 0.92646 0.17884 0.0
C590 C 0.58449 0.97057 0.18061 0.0
C591 C 0.53587 0.97383 0.17976 0.0
C592 C 0.5081 0.93477 0.17744 0.0
C593 C 0.45711 0.94901 0.176 0.0
C594 C 0.43904 0.93632 0.16388 0.0
C595 C 0.42635 0.9265 0.18545 0.0
C596 C 0.46092 0.00217 0.17757 0.0
C597 C 0.50659 0.01557 0.17989 0.0
C598 C 0.51941 0.06289 0.18111 0.0
C599 C 0.48472 0.09757 0.17982 0.0
C600 C 0.43771 0.08486 0.17725 0.0
C601 C 0.42576 0.03635 0.17627 0.0
H602 H 0.86726 0.97654 0.42014 0.0
H603 H 0.9235 0.84182 0.43143 0.0
H604 H 0.00023 0.87947 0.43515 0.0
H605 H 0.96641 0.01043 0.40452 0.0
H606 H 0.96348 0.07254 0.40792 0.0
H607 H 0.91076 0.03733 0.40792 0.0
H608 H 0.89339 0.06254 0.42898 0.0
H609 H 0.94605 0.0981 0.42902 0.0
H610 H 0.9373 0.05343 0.43995 0.0
H611 H 0.07214 0.92898 0.43596 0.0
H612 H 0.13602 0.98677 0.43316 0.0
H613 H 0.03511 0.08953 0.42053 0.0
C614 C 0.89544 0.95547 0.42372 0.0
C615 C 0.88949 0.90647 0.42566 0.0
C616 C 0.92744 0.87949 0.42996 0.0
C617 C 0.97104 0.90058 0.43214 0.0
C618 C 0.9763 0.94868 0.42988 0.0
C619 C 0.93966 0.9759 0.42575 0.0
C620 C 0.95624 0.02565 0.42291 0.0
C621 C 0.94878 0.03713 0.41005 0.0
C622 C 0.93179 0.06208 0.43068 0.0
C623 C 0.00803 0.02163 0.42581 0.0
C624 C 0.01858 0.97715 0.43 0.0
C625 C 0.0643 0.96413 0.4328 0.0
C626 C 0.1004 -0.00276 0.43115 0.0
C627 C 0.09074 0.0428 0.42662 0.0
C628 C 0.04372 0.05516 0.42407 0.0
H629 H 0.98562 0.36348 0.67025 0.0
H630 H 0.11647 0.42477 0.68227 0.0
H631 H 0.07735 0.50173 0.68485 0.0
H632 H 0.95253 0.46084 0.65347 0.0
H633 H 0.89049 0.45658 0.65643 0.0
H634 H 0.92653 0.40446 0.65706 0.0
H635 H 0.89886 0.38863 0.67804 0.0
H636 H 0.86248 0.44065 0.67744 0.0
H637 H 0.90543 0.4343 0.68875 0.0
H638 H 0.02664 0.57302 0.68472 0.0
H639 H 0.96792 0.63526 0.68131 0.0
H640 H 0.86994 0.52945 0.66862 0.0
C641 C 0.00557 0.39286 0.67371 0.0
C642 C 0.0539 0.38818 0.67618 0.0
C643 C 0.07934 0.42767 0.68037 0.0
C644 C 0.05741 0.47145 0.6819 0.0
C645 C 0.01003 0.47533 0.67914 0.0
C646 C 0.98431 0.43722 0.67512 0.0
C647 C 0.93501 0.45223 0.6718 0.0
C648 C 0.92562 0.44298 0.65893 0.0
C649 C 0.89827 0.42748 0.67947 0.0
C650 C 0.93751 0.50479 0.67435 0.0
C651 C 0.9809 0.51713 0.67874 0.0
C652 C -0.00765 0.56378 0.68138 0.0
C653 C 0.95871 0.59893 0.67939 0.0
C654 C 0.91421 0.5874 0.67469 0.0
C655 C 0.90349 0.5395 0.67227 0.0
H656 H 0.24758 0.07361 0.32989 0.0
H657 H 0.24376 0.22525 0.32401 0.0
H658 H 0.24118 0.23848 0.34511 0.0
H659 H 0.168 0.07207 0.35403 0.0
H660 H 0.19931 0.02585 0.36147 0.0
H661 H 0.20066 0.02876 0.34595 0.0
H662 H 0.29169 0.03084 0.34637 0.0
H663 H 0.29063 0.02798 0.36189 0.0
H664 H 0.32122 0.07563 0.35472 0.0
H665 H 0.24076 0.23462 0.36693 0.0
H666 H 0.24076 0.21406 0.38769 0.0
H667 H 0.24353 0.06489 0.37891 0.0
C668 C 0.24619 0.10965 0.33302 0.0
C669 C 0.24598 0.14845 0.32534 0.0
C670 C 0.24392 0.19503 0.32977 0.0
C671 C 0.24248 0.20287 0.34172 0.0
C672 C 0.24287 0.16372 0.34906 0.0
C673 C 0.24448 0.11805 0.34487 0.0
C674 C 0.24444 0.08199 0.35452 0.0
C675 C 0.20048 0.05032 0.35396 0.0
C676 C 0.28969 0.05238 0.35436 0.0
C677 C 0.24291 0.11448 0.36483 0.0
C678 C 0.24205 0.16149 0.36154 0.0
C679 C 0.24126 0.19793 0.36961 0.0
C680 C 0.24133 0.18592 0.38136 0.0
C681 C 0.24206 0.1379 0.38489 0.0
C682 C 0.24277 0.1019 0.37648 0.0
H683 H 0.90748 0.77192 0.57945 0.0
H684 H 0.76168 0.7499 0.56995 0.0
H685 H 0.74058 0.74251 0.59063 0.0
H686 H 0.90969 0.688 0.60227 0.0
H687 H 0.94825 0.72272 0.61122 0.0
H688 H 0.95106 0.72849 0.59576 0.0
H689 H 0.93718 0.81882 0.59749 0.0
H690 H 0.93446 0.81336 0.61296 0.0
H691 H 0.88648 0.84005 0.60522 0.0
H692 H 0.73614 0.73704 0.61248 0.0
H693 H 0.7491 0.73162 0.63358 0.0
H694 H 0.8983 0.75477 0.62822 0.0
C695 C 0.87101 0.76593 0.5817 0.0
C696 C 0.83614 0.76169 0.57313 0.0
C697 C 0.78891 0.75333 0.57642 0.0
C698 C 0.77662 0.74915 0.58812 0.0
C699 C 0.81204 0.75322 0.59635 0.0
C700 C 0.85828 0.7613 0.59327 0.0
C701 C 0.89007 0.76279 0.60368 0.0
C702 C 0.92692 0.72313 0.6032 0.0
C703 C 0.9134 0.81166 0.60491 0.0
C704 C 0.85457 0.75407 0.61315 0.0
C705 C 0.80969 0.74898 0.6088 0.0
C706 C 0.77115 0.74092 0.61598 0.0
C707 C 0.77882 0.73793 0.62793 0.0
C708 C 0.8247 0.74258 0.6325 0.0
C709 C 0.86287 0.75076 0.62498 0.0
H710 H 0.25522 0.42182 0.83007 0.0
H711 H 0.22971 0.27332 0.8229 0.0
H712 H 0.23095 0.25608 0.84385 0.0
H713 H 0.33532 0.40374 0.85346 0.0
H714 H 0.31422 0.45364 0.86159 0.0
H715 H 0.31058 0.45404 0.84608 0.0
H716 H 0.22095 0.46921 0.84734 0.0
H717 H 0.22431 0.46891 0.86286 0.0
H718 H 0.18446 0.42932 0.85559 0.0
H719 H 0.2342 0.25568 0.86567 0.0
H720 H 0.24092 0.27192 0.88658 0.0
H721 H 0.26597 0.42038 0.87906 0.0
C722 C 0.24976 0.38567 0.83289 0.0
C723 C 0.24224 0.3489 0.82489 0.0
C724 C 0.23554 0.30201 0.82892 0.0
C725 C 0.23614 0.2919 0.84078 0.0
C726 C 0.24372 0.32906 0.84844 0.0
C727 C 0.25055 0.37495 0.84465 0.0
C728 C 0.25854 0.40849 0.85459 0.0
C729 C 0.30758 0.4313 0.85388 0.0
C730 C 0.21974 0.44619 0.85512 0.0
C731 C 0.25503 0.37433 0.8646 0.0
C732 C 0.24633 0.3287 0.86091 0.0
C733 C 0.24115 0.29125 0.86866 0.0
C734 C 0.24498 0.30081 0.8805 0.0
C735 C 0.25411 0.34735 0.88441 0.0
C736 C 0.25924 0.38439 0.87633 0.0
H737 H 0.56342 0.74412 0.08009 0.0
H738 H 0.71187 0.74339 0.0715 0.0
H739 H 0.73139 0.73645 0.09222 0.0
H740 H 0.57342 0.8137 0.10574 0.0
H741 H 0.52831 0.78142 0.11336 0.0
H742 H 0.5264 0.78576 0.09787 0.0
H743 H 0.52379 0.69428 0.09638 0.0
H744 H 0.52579 0.68965 0.11188 0.0
H745 H 0.56908 0.65974 0.10321 0.0
H746 H 0.73431 0.72931 0.11395 0.0
H747 H 0.72038 0.72458 0.135 0.0
H748 H 0.57003 0.73075 0.12905 0.0
C749 C 0.60006 0.74247 0.08255 0.0
C750 C 0.63615 0.74423 0.0742 0.0
C751 C 0.68367 0.74213 0.07777 0.0
C752 C 0.69508 0.73811 0.08951 0.0
C753 C 0.65856 0.73634 0.09751 0.0
C754 C 0.61204 0.7386 0.09418 0.0
C755 C 0.57935 0.73651 0.10446 0.0
C756 C 0.55017 0.78207 0.10541 0.0
C757 C 0.54765 0.69242 0.10395 0.0
C758 C 0.61474 0.73283 0.11412 0.0
C759 C 0.66025 0.7326 0.10996 0.0
C760 C 0.69882 0.72947 0.11731 0.0
C761 C 0.69058 0.72674 0.12923 0.0
C762 C 0.64416 0.72736 0.13364 0.0
C763 C 0.60593 0.73027 0.12594 0.0
H764 H 0.75253 0.58222 0.82886 0.0
H765 H 0.73169 0.73124 0.82147 0.0
H766 H 0.73297 0.74836 0.84246 0.0
H767 H 0.6794 0.57734 0.85407 0.0
H768 H 0.71692 0.53579 0.86141 0.0
H769 H 0.71421 0.53612 0.84588 0.0
H770 H 0.80457 0.54728 0.84486 0.0
H771 H 0.80756 0.54705 0.86038 0.0
H772 H 0.83146 0.5962 0.85234 0.0
H773 H 0.73839 0.74831 0.86452 0.0
H774 H 0.74531 0.73084 0.88543 0.0
H775 H 0.76105 0.58165 0.87762 0.0
C776 C 0.74825 0.61854 0.83162 0.0
C777 C 0.74218 0.65546 0.82356 0.0
C778 C 0.73638 0.70243 0.82753 0.0
C779 C 0.7371 0.71245 0.83941 0.0
C780 C 0.74335 0.67504 0.84713 0.0
C781 C 0.74857 0.62902 0.84335 0.0
C782 C 0.75448 0.59488 0.85327 0.0
C783 C 0.71382 0.55893 0.85368 0.0
C784 C 0.80237 0.56991 0.85267 0.0
C785 C 0.7522 0.62881 0.86328 0.0
C786 C 0.7458 0.67493 0.85963 0.0
C787 C 0.74324 0.71229 0.86745 0.0
C788 C 0.74727 0.70207 0.87929 0.0
C789 C 0.75364 0.65491 0.88313 0.0
C790 C 0.75605 0.61806 0.87497 0.0
H791 H 0.38321 0.28954 0.12942 0.0
H792 H 0.26492 0.19867 0.13783 0.0
H793 H 0.24434 0.19437 0.11707 0.0
H794 H 0.32945 0.35327 0.10527 0.0
H795 H 0.38352 0.35418 0.09716 0.0
H796 H 0.385 0.35437 0.11271 0.0
H797 H 0.43792 0.27986 0.11249 0.0
H798 H 0.43649 0.27933 0.09698 0.0
H799 H 0.41827 0.22767 0.10498 0.0
H800 H 0.23974 0.19724 0.09511 0.0
H801 H 0.25447 0.20286 0.07404 0.0
H802 H 0.37828 0.28828 0.08061 0.0
C803 C 0.35241 0.26944 0.12694 0.0
C804 C 0.32537 0.24476 0.13521 0.0
C805 C 0.28592 0.21805 0.1316 0.0
C806 C 0.27393 0.21554 0.11986 0.0
C807 C 0.3019 0.23981 0.1119 0.0
C808 C 0.34041 0.26611 0.11532 0.0
C809 C 0.36723 0.28573 0.10512 0.0
C810 C 0.36621 0.34012 0.10507 0.0
C811 C 0.41795 0.267 0.10488 0.0
C812 C 0.33842 0.26562 0.09537 0.0
C813 C 0.30036 0.23995 0.09939 0.0
C814 C 0.26932 0.21744 0.09187 0.0
C815 C 0.27788 0.22084 0.07995 0.0
C816 C 0.3176 0.24578 0.07576 0.0
C817 C 0.34777 0.26878 0.08359 0.0
H818 H 0.74662 0.91913 0.32903 0.0
H819 H 0.7447 0.76984 0.32036 0.0
H820 H 0.7382 0.7497 0.3411 0.0
H821 H 0.81649 0.90836 0.35449 0.0
H822 H 0.78513 0.95376 0.36218 0.0
H823 H 0.78886 0.95594 0.34668 0.0
H824 H 0.69801 0.95886 0.34538 0.0
H825 H 0.69399 0.95661 0.36088 0.0
H826 H 0.66357 0.91323 0.35228 0.0
H827 H 0.73195 0.74644 0.36292 0.0
H828 H 0.72825 0.76027 0.38399 0.0
H829 H 0.73499 0.91175 0.37794 0.0
C830 C 0.74474 0.88216 0.33147 0.0
C831 C 0.74608 0.84601 0.3231 0.0
C832 C 0.74375 0.79808 0.32665 0.0
C833 C 0.73998 0.78633 0.33839 0.0
C834 C 0.73872 0.82294 0.34642 0.0
C835 C 0.74115 0.86987 0.3431 0.0
C836 C 0.73975 0.90263 0.35337 0.0
C837 C 0.78527 0.93188 0.35423 0.0
C838 C 0.69623 0.93471 0.35295 0.0
C839 C 0.73616 0.86685 0.36303 0.0
C840 C 0.73548 0.82107 0.35889 0.0
C841 C 0.73246 0.78214 0.36626 0.0
C842 C 0.73032 0.79034 0.37819 0.0
C843 C 0.73136 0.83706 0.38258 0.0
C844 C 0.73415 0.87562 0.37486 0.0
H845 H 0.06702 0.22637 0.62826 0.0
H846 H 0.21419 0.23001 0.6379 0.0
H847 H 0.23637 0.23346 0.61721 0.0
H848 H 0.08085 0.15361 0.60277 0.0
H849 H 0.03612 0.18507 0.59491 0.0
H850 H 0.03274 0.18067 0.6104 0.0
H851 H 0.02871 0.27212 0.61186 0.0
H852 H 0.03219 0.27681 0.5964 0.0
H853 H 0.07426 0.3075 0.60528 0.0
H854 H 0.2414 0.24023 0.59525 0.0
H855 H 0.22874 0.2488 0.57418 0.0
H856 H 0.07814 0.24009 0.57967 0.0
C857 C 0.10398 0.22759 0.62606 0.0
C858 C 0.13892 0.22799 0.63466 0.0
C859 C 0.18688 0.22957 0.63141 0.0
C860 C 0.19977 0.23153 0.6197 0.0
C861 C 0.16424 0.23154 0.61143 0.0
C862 C 0.11735 0.22936 0.6145 0.0
C863 C 0.08566 0.23091 0.60408 0.0
C864 C 0.05718 0.18482 0.60298 0.0
C865 C 0.05333 0.27443 0.60443 0.0
C866 C 0.12193 0.23516 0.59463 0.0
C867 C 0.16711 0.23523 0.59897 0.0
C868 C 0.20617 0.23992 0.59177 0.0
C869 C 0.19867 0.24482 0.57983 0.0
C870 C 0.15249 0.24512 0.57531 0.0
C871 C 0.1139 0.23994 0.58284 0.0
H872 H 0.21778 0.17916 0.25395 0.0
H873 H 0.29008 0.30977 0.2625 0.0
H874 H 0.28554 0.33459 0.24208 0.0
H875 H 0.27851 0.15558 0.23019 0.0
H876 H 0.23112 0.13076 0.22184 0.0
H877 H 0.22849 0.12912 0.23729 0.0
H878 H 0.1485 0.17258 0.23687 0.0
H879 H 0.15082 0.17427 0.22132 0.0
H880 H 0.14347 0.22825 0.22936 0.0
H881 H 0.28834 0.33736 0.22071 0.0
H882 H 0.30055 0.31708 0.20027 0.0
H883 H 0.22667 0.18438 0.2055 0.0
C884 C 0.23128 0.21374 0.25163 0.0
C885 C 0.25427 0.24256 0.25982 0.0
C886 C 0.27211 0.2872 0.25638 0.0
C887 C 0.26942 0.3017 0.24481 0.0
C888 C 0.24826 0.27144 0.23685 0.0
C889 C 0.22907 0.22852 0.24014 0.0
C890 C 0.21482 0.19923 0.2298 0.0
C891 C 0.23976 0.15088 0.22978 0.0
C892 C 0.16121 0.19325 0.22931 0.0
C893 C 0.2322 0.23081 0.22013 0.0
C894 C 0.25004 0.27294 0.22436 0.0
C895 C 0.27339 0.30512 0.21726 0.0
C896 C 0.28033 0.29317 0.20566 0.0
C897 C 0.26436 0.24919 0.20131 0.0
C898 C 0.23827 0.21867 0.20853 0.0
H899 H 0.70611 0.79597 0.45395 0.0
H900 H 0.79662 0.67969 0.444 0.0
H901 H 0.80233 0.65522 0.4644 0.0
H902 H 0.76758 0.83067 0.47673 0.0
H903 H 0.71909 0.84627 0.48598 0.0
H904 H 0.71185 0.84738 0.4706 0.0
H905 H 0.64127 0.7897 0.47223 0.0
H906 H 0.64797 0.78872 0.4877 0.0
H907 H 0.64822 0.73414 0.47969 0.0
H908 H 0.81304 0.65472 0.48562 0.0
H909 H 0.82534 0.67627 0.50601 0.0
H910 H 0.7266 0.79181 0.50234 0.0
C911 C 0.72578 0.76433 0.456 0.0
C912 C 0.75098 0.73978 0.44739 0.0
C913 C 0.77681 0.69892 0.45044 0.0
C914 C 0.78013 0.68465 0.46201 0.0
C915 C 0.75674 0.71112 0.47037 0.0
C916 C 0.72936 0.74967 0.46748 0.0
C917 C 0.71295 0.77594 0.47812 0.0
C918 C 0.72886 0.8281 0.47783 0.0
C919 C 0.65942 0.77185 0.47952 0.0
C920 C 0.73819 0.74825 0.48739 0.0
C921 C 0.76241 0.71035 0.48278 0.0
C922 C 0.79314 0.68336 0.4894 0.0
C923 C 0.80014 0.69605 0.50095 0.0
C924 C 0.77656 0.73544 0.50574 0.0
C925 C 0.74411 0.76081 0.49896 0.0
H926 H 0.24677 0.29463 0.70382 0.0
H927 H 0.1631 0.16642 0.70237 0.0
H928 H 0.17305 0.15531 0.72331 0.0
H929 H 0.32612 0.25656 0.7289 0.0
H930 H 0.32516 0.31559 0.73474 0.0
H931 H 0.32235 0.30683 0.71935 0.0
H932 H 0.24571 0.35591 0.71861 0.0
H933 H 0.24791 0.36434 0.73394 0.0
H934 H 0.19647 0.33836 0.72746 0.0
H935 H 0.17715 0.16679 0.74438 0.0
H936 H 0.17689 0.1993 0.76412 0.0
H937 H 0.25767 0.32032 0.75213 0.0
C938 C 0.23245 0.26314 0.70786 0.0
C939 C 0.20452 0.23121 0.70152 0.0
C940 C 0.18479 0.19121 0.7071 0.0
C941 C 0.19047 0.18445 0.71898 0.0
C942 C 0.21618 0.21786 0.72513 0.0
C943 C 0.23739 0.25618 0.71975 0.0
C944 C 0.25699 0.29058 0.72852 0.0
C945 C 0.31086 0.29248 0.72784 0.0
C946 C 0.23545 0.34018 0.72704 0.0
C947 C 0.24077 0.26718 0.73959 0.0
C948 C 0.21831 0.22472 0.73747 0.0
C949 C 0.19575 0.19935 0.74621 0.0
C950 C 0.19551 0.21824 0.75738 0.0
C951 C 0.21739 0.26224 0.75967 0.0
C952 C 0.24129 0.28623 0.7507 0.0
H953 H 0.68387 0.75952 0.95275 0.0
H954 H 0.82117 0.69367 0.95156 0.0
H955 H 0.83081 0.70745 0.97239 0.0
H956 H 0.71148 0.84696 0.97713 0.0
H957 H 0.65354 0.83889 -0.01688 0.0
H958 H 0.66242 0.8354 0.96773 0.0
H959 H 0.62385 0.75228 0.96765 0.0
H960 H 0.61533 0.75523 -0.01702 0.0
H961 H 0.64741 0.70652 0.97682 0.0
H962 H 0.81872 0.71163 -0.00655 0.0
H963 H 0.78649 0.70847 0.01321 0.0
H964 H 0.65734 0.7724 0.001 0.0
C965 C 0.71678 0.74997 0.95679 0.0
C966 C 0.75184 0.72578 0.95056 0.0
C967 C 0.79388 0.71237 0.95619 0.0
C968 C 0.79981 0.7203 0.96801 0.0
C969 C 0.76357 0.74204 0.97406 0.0
C970 C 0.72308 0.75735 0.96863 0.0
C971 C 0.68677 0.7734 0.97733 0.0
C972 C 0.67806 0.82685 0.97626 0.0
C973 C 0.64067 0.74515 0.97612 0.0
C974 C 0.71193 0.76166 -0.01153 0.0
C975 C 0.7566 0.74464 -0.0136 0.0
C976 C 0.78435 0.72616 -0.00478 0.0
C977 C 0.76564 0.7242 0.00641 0.0
C978 C 0.71956 0.74046 0.00864 0.0
C979 C 0.69305 0.76062 -0.0004 0.0
H980 H 0.21342 0.31025 0.00527 0.0
H981 H 0.27555 0.17155 0.00934 0.0
H982 H 0.26637 0.15697 -0.01152 0.0
H983 H 0.13306 0.28031 -0.02038 0.0
H984 H 0.14524 0.337 0.9731 0.0
H985 H 0.14353 0.33121 -0.0114 0.0
H986 H 0.22721 0.36705 -0.01018 0.0
H987 H 0.22945 0.37242 0.97439 0.0
H988 H 0.27439 0.33974 -0.01812 0.0
H989 H 0.26635 0.16362 0.96727 0.0
H990 H 0.27636 0.19132 0.94723 0.0
H991 H 0.21664 0.32702 0.95665 0.0
C992 C 0.22279 0.27598 0.00181 0.0
C993 C 0.2444 0.24167 0.00885 0.0
C994 C 0.2584 0.19798 0.00404 0.0
C995 C 0.25311 0.18934 -0.00777 0.0
C996 C 0.23388 0.22481 -0.01464 0.0
C997 C 0.21855 0.26721 -0.01003 0.0
C998 C 0.20685 0.30246 -0.01945 0.0
C999 C 0.15402 0.31337 -0.01954 0.0
C1000 C 0.23625 0.34805 -0.01827 0.0
C1001 C 0.22094 0.27438 0.97 0.0
C1002 C 0.23509 0.22922 0.97293 0.0
C1003 C 0.25428 0.19848 0.96481 0.0
C1004 C 0.26007 0.21463 0.95345 0.0
C1005 C 0.24729 0.26134 0.95036 0.0
C1006 C 0.22627 0.29095 0.9587 0.0
H1007 H 0.69275 0.73323 0.25404 0.0
H1008 H 0.82639 0.80663 0.25614 0.0
H1009 H 0.84167 0.78882 0.23567 0.0
H1010 H 0.72939 0.64238 0.23128 0.0
H1011 H 0.67267 0.6464 0.22447 0.0
H1012 H 0.67781 0.65358 0.23988 0.0
H1013 H 0.63612 0.73473 0.23837 0.0
H1014 H 0.63124 0.72807 0.22303 0.0
H1015 H 0.65997 0.77953 0.22891 0.0
H1016 H 0.83517 0.77844 0.21451 0.0
H1017 H 0.80735 0.77574 0.19436 0.0
H1018 H 0.67786 0.70927 0.2059 0.0
C1019 C 0.72612 0.74369 0.25032 0.0
C1020 C 0.75848 0.77102 0.25666 0.0
C1021 C 0.80115 0.78549 0.25142 0.0
C1022 C 0.81028 0.77529 0.23981 0.0
C1023 C 0.77658 0.7503 0.2336 0.0
C1024 C 0.73553 0.73416 0.2387 0.0
C1025 C 0.70195 0.71456 0.2298 0.0
C1026 C 0.69507 0.66104 0.23146 0.0
C1027 C 0.65458 0.74082 0.23005 0.0
C1028 C 0.72917 0.72512 0.21886 0.0
C1029 C 0.77264 0.74459 0.22124 0.0
C1030 C 0.80175 0.76209 0.21252 0.0
C1031 C 0.78557 0.76062 0.2011 0.0
C1032 C 0.74048 0.74224 0.19855 0.0
C1033 C 0.71275 0.723 0.20754 0.0
H1034 H 0.2699 0.15886 0.45751 0.0
H1035 H 0.20641 0.28972 0.44576 0.0
H1036 H 0.21368 0.32252 0.46538 0.0
H1037 H 0.20867 0.14998 0.482 0.0
H1038 H 0.25461 0.12561 0.49088 0.0
H1039 H 0.25607 0.1171 0.47555 0.0
H1040 H 0.33917 0.15459 0.47465 0.0
H1041 H 0.33796 0.16324 0.49007 0.0
H1042 H 0.34883 0.2127 0.48058 0.0
H1043 H 0.21306 0.33501 0.48642 0.0
H1044 H 0.20095 0.32498 0.50733 0.0
H1045 H 0.26424 0.18581 0.5057 0.0
C1046 C 0.25909 0.19505 0.45896 0.0
C1047 C 0.23782 0.22186 0.4501 0.0
C1048 C 0.22294 0.26861 0.45241 0.0
C1049 C 0.22731 0.28767 0.46351 0.0
C1050 C 0.2469 0.25965 0.47217 0.0
C1051 C 0.2628 0.21436 0.47 0.0
C1052 C 0.27548 0.18885 0.48107 0.0
C1053 C 0.24698 0.14272 0.48245 0.0
C1054 C 0.32852 0.1793 0.48162 0.0
C1055 C 0.26112 0.22562 0.48985 0.0
C1056 C 0.24613 0.26676 0.48452 0.0
C1057 C 0.22579 0.30353 0.49072 0.0
C1058 C 0.21887 0.29741 0.50259 0.0
C1059 C 0.2319 0.25468 0.50811 0.0
C1060 C 0.25504 0.21925 0.50174 0.0
H1061 H 0.78453 0.77431 0.70377 0.0
H1062 H 0.67055 0.67948 0.69456 0.0
H1063 H 0.64131 0.68257 0.71459 0.0
H1064 H 0.81283 0.72137 0.72831 0.0
H1065 H 0.82734 0.77349 0.73652 0.0
H1066 H 0.8317 0.77471 0.72108 0.0
H1067 H 0.77557 0.84661 0.72029 0.0
H1068 H 0.77116 0.84579 0.73583 0.0
H1069 H 0.71877 0.84295 0.72714 0.0
H1070 H 0.63523 0.68115 0.73584 0.0
H1071 H 0.65309 0.67465 0.75658 0.0
H1072 H 0.77072 0.77075 0.75224 0.0
C1073 C 0.75239 0.75556 0.70584 0.0
C1074 C 0.72978 0.72669 0.69759 0.0
C1075 C 0.68836 0.70199 0.70072 0.0
C1076 C 0.67133 0.70378 0.71207 0.0
C1077 C 0.69577 0.73088 0.72013 0.0
C1078 C 0.73517 0.7568 0.71713 0.0
C1079 C 0.7593 0.7771 0.72766 0.0
C1080 C 0.81078 0.76064 0.72843 0.0
C1081 C 0.75598 0.83134 0.72773 0.0
C1082 C 0.72941 0.75558 0.73712 0.0
C1083 C 0.69214 0.73018 0.73259 0.0
C1084 C 0.66339 0.702 0.73951 0.0
C1085 C 0.67395 0.69835 0.75128 0.0
C1086 C 0.71304 0.72257 0.75598 0.0
C1087 C 0.73988 0.75297 0.7489 0.0
loop_
_geom_bond_atom_site_label_1
_geom_bond_atom_site_label_2
_geom_bond_distance
_geom_bond_site_symmetry_2
_ccdc_geom_bond_type
C0 O1 1.306 . S
C0 O3 1.160 . S
O1 C0 1.306 . S
O1 Cd2 2.228 . S
Cd2 O1 2.228 . S
Cd2 O6 2.273 . S
Cd2 O10 2.277 . S
O3 C0 1.160 . S
O3 Cd4 2.203 . S
Cd4 O3 2.203 . S
Cd4 O6 2.411 . S
Cd4 O7 2.333 . S
Cd4 O8 2.352 . S
Cd4 O12 2.277 . S
Cd4 O13 2.356 . S
C5 O10 1.209 . S
C5 O12 1.226 . S
O6 Cd2 2.273 . S
O6 Cd4 2.411 . S
O6 C9 1.320 . S
O7 Cd4 2.333 . S
O7 C9 1.214 . S
O8 Cd4 2.352 . S
O8 C11 1.258 . S
C9 O6 1.320 . S
C9 O7 1.214 . S
O10 Cd2 2.277 . S
O10 C5 1.209 . S
C11 O8 1.258 . S
C11 O13 1.282 . S
O12 Cd4 2.277 . S
O12 C5 1.226 . S
O13 Cd4 2.356 . S
O13 C11 1.282 . S
C14 O15 1.306 . S
C14 O17 1.160 . S
O15 C14 1.306 . S
O15 Cd16 2.228 . S
Cd16 O15 2.228 . S
Cd16 O20 2.273 . S
Cd16 O24 2.277 . S
O17 C14 1.160 . S
O17 Cd18 2.203 . S
Cd18 O17 2.203 . S
Cd18 O20 2.411 . S
Cd18 O21 2.333 . S
Cd18 O22 2.352 . S
Cd18 O26 2.277 . S
Cd18 O27 2.356 . S
C19 O24 1.209 . S
C19 O26 1.226 . S
O20 Cd16 2.273 . S
O20 Cd18 2.411 . S
O20 C23 1.320 . S
O21 Cd18 2.333 . S
O21 C23 1.214 . S
O22 Cd18 2.352 . S
O22 C25 1.258 . S
C23 O20 1.320 . S
C23 O21 1.214 . S
O24 Cd16 2.277 . S
O24 C19 1.209 . S
C25 O22 1.258 . S
C25 O27 1.282 . S
O26 Cd18 2.277 . S
O26 C19 1.226 . S
O27 Cd18 2.356 . S
O27 C25 1.282 . S
C28 O29 1.306 . S
C28 O31 1.160 . S
O29 C28 1.306 . S
O29 Cd30 2.228 . S
Cd30 O29 2.228 . S
Cd30 O34 2.273 . S
Cd30 O38 2.277 . S
O31 C28 1.160 . S
O31 Cd32 2.203 . S
Cd32 O31 2.203 . S
Cd32 O34 2.411 . S
Cd32 O35 2.333 . S
Cd32 O36 2.352 . S
Cd32 O40 2.277 . S
Cd32 O41 2.356 . S
C33 O38 1.209 . S
C33 O40 1.226 . S
O34 Cd30 2.273 . S
O34 Cd32 2.411 . S
O34 C37 1.320 . S
O35 Cd32 2.333 . S
O35 C37 1.214 . S
O36 Cd32 2.352 . S
O36 C39 1.258 . S
C37 O34 1.320 . S
C37 O35 1.214 . S
O38 Cd30 2.277 . S
O38 C33 1.209 . S
C39 O36 1.258 . S
C39 O41 1.282 . S
O40 Cd32 2.277 . S
O40 C33 1.226 . S
O41 Cd32 2.356 . S
O41 C39 1.282 . S
C42 O43 1.306 . S
C42 O45 1.160 . S
O43 C42 1.306 . S
O43 Cd44 2.228 . S
Cd44 O43 2.228 . S
Cd44 O48 2.273 . S
Cd44 O52 2.277 . S
O45 C42 1.160 . S
O45 Cd46 2.203 . S
Cd46 O45 2.203 . S
Cd46 O48 2.411 . S
Cd46 O49 2.333 . S
Cd46 O50 2.352 . S
Cd46 O54 2.277 . S
Cd46 O55 2.356 . S
C47 O52 1.209 . S
C47 O54 1.226 . S
O48 Cd44 2.273 . S
O48 Cd46 2.411 . S
O48 C51 1.320 . S
O49 Cd46 2.333 . S
O49 C51 1.214 . S
O50 Cd46 2.352 . S
O50 C53 1.258 . S
C51 O48 1.320 . S
C51 O49 1.214 . S
O52 Cd44 2.277 . S
O52 C47 1.209 . S
C53 O50 1.258 . S
C53 O55 1.282 . S
O54 Cd46 2.277 . S
O54 C47 1.226 . S
O55 Cd46 2.356 . S
O55 C53 1.282 . S
C56 O57 1.306 . S
C56 O59 1.160 . S
O57 C56 1.306 . S
O57 Cd58 2.228 . S
Cd58 O57 2.228 . S
Cd58 O62 2.273 . S
Cd58 O66 2.277 . S
O59 C56 1.160 . S
O59 Cd60 2.203 . S
Cd60 O59 2.203 . S
Cd60 O62 2.411 . S
Cd60 O63 2.333 . S
Cd60 O64 2.352 . S
Cd60 O68 2.277 . S
Cd60 O69 2.356 . S
C61 O66 1.209 . S
C61 O68 1.226 . S
O62 Cd58 2.273 . S
O62 Cd60 2.411 . S
O62 C65 1.320 . S
O63 Cd60 2.333 . S
O63 C65 1.214 . S
O64 Cd60 2.352 . S
O64 C67 1.258 . S
C65 O62 1.320 . S
C65 O63 1.214 . S
O66 Cd58 2.277 . S
O66 C61 1.209 . S
C67 O64 1.258 . S
C67 O69 1.282 . S
O68 Cd60 2.277 . S
O68 C61 1.226 . S
O69 Cd60 2.356 . S
O69 C67 1.282 . S
C70 O71 1.306 . S
C70 O73 1.160 . S
O71 C70 1.306 . S
O71 Cd72 2.228 . S
Cd72 O71 2.228 . S
Cd72 O76 2.273 . S
Cd72 O80 2.277 . S
O73 C70 1.160 . S
O73 Cd74 2.203 . S
Cd74 O73 2.203 . S
Cd74 O76 2.411 . S
Cd74 O77 2.333 . S
Cd74 O78 2.352 . S
Cd74 O82 2.277 . S
Cd74 O83 2.356 . S
C75 O80 1.209 . S
C75 O82 1.226 . S
O76 Cd72 2.273 . S
O76 Cd74 2.411 . S
O76 C79 1.320 . S
O77 Cd74 2.333 . S
O77 C79 1.214 . S
O78 Cd74 2.352 . S
O78 C81 1.258 . S
C79 O76 1.320 . S
C79 O77 1.214 . S
O80 Cd72 2.277 . S
O80 C75 1.209 . S
C81 O78 1.258 . S
C81 O83 1.282 . S
O82 Cd74 2.277 . S
O82 C75 1.226 . S
O83 Cd74 2.356 . S
O83 C81 1.282 . S
C84 O85 1.306 . S
C84 O87 1.160 . S
O85 C84 1.306 . S
O85 Cd86 2.228 . S
Cd86 O85 2.228 . S
Cd86 O90 2.273 . S
Cd86 O94 2.277 . S
O87 C84 1.160 . S
O87 Cd88 2.203 . S
Cd88 O87 2.203 . S
Cd88 O90 2.411 . S
Cd88 O91 2.333 . S
Cd88 O92 2.352 . S
Cd88 O96 2.277 . S
Cd88 O97 2.356 . S
C89 O94 1.209 . S
C89 O96 1.226 . S
O90 Cd86 2.273 . S
O90 Cd88 2.411 . S
O90 C93 1.320 . S
O91 Cd88 2.333 . S
O91 C93 1.214 . S
O92 Cd88 2.352 . S
O92 C95 1.258 . S
C93 O90 1.320 . S
C93 O91 1.214 . S
O94 Cd86 2.277 . S
O94 C89 1.209 . S
C95 O92 1.258 . S
C95 O97 1.282 . S
O96 Cd88 2.277 . S
O96 C89 1.226 . S
O97 Cd88 2.356 . S
O97 C95 1.282 . S
C98 O99 1.306 . S
C98 O101 1.160 . S
O99 C98 1.306 . S
O99 Cd100 2.228 . S
Cd100 O99 2.228 . S
Cd100 O104 2.273 . S
Cd100 O108 2.277 . S
O101 C98 1.160 . S
O101 Cd102 2.203 . S
Cd102 O101 2.203 . S
Cd102 O104 2.411 . S
Cd102 O105 2.333 . S
Cd102 O106 2.352 . S
Cd102 O110 2.277 . S
Cd102 O111 2.356 . S
C103 O108 1.209 . S
C103 O110 1.226 . S
O104 Cd100 2.273 . S
O104 Cd102 2.411 . S
O104 C107 1.320 . S
O105 Cd102 2.333 . S
O105 C107 1.214 . S
O106 Cd102 2.352 . S
O106 C109 1.258 . S
C107 O104 1.320 . S
C107 O105 1.214 . S
O108 Cd100 2.277 . S
O108 C103 1.209 . S
C109 O106 1.258 . S
C109 O111 1.282 . S
O110 Cd102 2.277 . S
O110 C103 1.226 . S
O111 Cd102 2.356 . S
O111 C109 1.282 . S
C112 O113 1.306 . S
C112 O115 1.160 . S
O113 C112 1.306 . S
O113 Cd114 2.228 . S
Cd114 O113 2.228 . S
Cd114 O118 2.273 . S
Cd114 O122 2.277 . S
O115 C112 1.160 . S
O115 Cd116 2.203 . S
Cd116 O115 2.203 . S
Cd116 O118 2.411 . S
Cd116 O119 2.333 . S
Cd116 O120 2.352 . S
Cd116 O124 2.277 . S
Cd116 O125 2.356 . S
C117 O122 1.209 . S
C117 O124 1.226 . S
O118 Cd114 2.273 . S
O118 Cd116 2.411 . S
O118 C121 1.320 . S
O119 Cd116 2.333 . S
O119 C121 1.214 . S
O120 Cd116 2.352 . S
O120 C123 1.258 . S
C121 O118 1.320 . S
C121 O119 1.214 . S
O122 Cd114 2.277 . S
O122 C117 1.209 . S
C123 O120 1.258 . S
C123 O125 1.282 . S
O124 Cd116 2.277 . S
O124 C117 1.226 . S
O125 Cd116 2.356 . S
O125 C123 1.282 . S
C126 O127 1.306 . S
C126 O129 1.160 . S
O127 C126 1.306 . S
O127 Cd128 2.228 . S
Cd128 O127 2.228 . S
Cd128 O132 2.273 . S
Cd128 O136 2.277 . S
O129 C126 1.160 . S
O129 Cd130 2.203 . S
Cd130 O129 2.203 . S
Cd130 O132 2.411 . S
Cd130 O133 2.333 . S
Cd130 O134 2.352 . S
Cd130 O138 2.277 . S
Cd130 O139 2.356 . S
C131 O136 1.209 . S
C131 O138 1.226 . S
O132 Cd128 2.273 . S
O132 Cd130 2.411 . S
O132 C135 1.320 . S
O133 Cd130 2.333 . S
O133 C135 1.214 . S
O134 Cd130 2.352 . S
O134 C137 1.258 . S
C135 O132 1.320 . S
C135 O133 1.214 . S
O136 Cd128 2.277 . S
O136 C131 1.209 . S
C137 O134 1.258 . S
C137 O139 1.282 . S
O138 Cd130 2.277 . S
O138 C131 1.226 . S
O139 Cd130 2.356 . S
O139 C137 1.282 . S
C140 O141 1.306 . S
C140 O143 1.160 . S
O141 C140 1.306 . S
O141 Cd142 2.228 . S
Cd142 O141 2.228 . S
Cd142 O146 2.273 . S
Cd142 O150 2.277 . S
O143 C140 1.160 . S
O143 Cd144 2.203 . S
Cd144 O143 2.203 . S
Cd144 O146 2.411 . S
Cd144 O147 2.333 . S
Cd144 O148 2.352 . S
Cd144 O152 2.277 . S
Cd144 O153 2.356 . S
C145 O150 1.209 . S
C145 O152 1.226 . S
O146 Cd142 2.273 . S
O146 Cd144 2.411 . S
O146 C149 1.320 . S
O147 Cd144 2.333 . S
O147 C149 1.214 . S
O148 Cd144 2.352 . S
O148 C151 1.258 . S
C149 O146 1.320 . S
C149 O147 1.214 . S
O150 Cd142 2.277 . S
O150 C145 1.209 . S
C151 O148 1.258 . S
C151 O153 1.282 . S
O152 Cd144 2.277 . S
O152 C145 1.226 . S
O153 Cd144 2.356 . S
O153 C151 1.282 . S
C154 O155 1.306 . S
C154 O157 1.160 . S
O155 C154 1.306 . S
O155 Cd156 2.228 . S
Cd156 O155 2.228 . S
Cd156 O160 2.273 . S
Cd156 O164 2.277 . S
O157 C154 1.160 . S
O157 Cd158 2.203 . S
Cd158 O157 2.203 . S
Cd158 O160 2.411 . S
Cd158 O161 2.333 . S
Cd158 O162 2.352 . S
Cd158 O166 2.277 . S
Cd158 O167 2.356 . S
C159 O164 1.209 . S
C159 O166 1.226 . S
O160 Cd156 2.273 . S
O160 Cd158 2.411 . S
O160 C163 1.320 . S
O161 Cd158 2.333 . S
O161 C163 1.214 . S
O162 Cd158 2.352 . S
O162 C165 1.258 . S
C163 O160 1.320 . S
C163 O161 1.214 . S
O164 Cd156 2.277 . S
O164 C159 1.209 . S
C165 O162 1.258 . S
C165 O167 1.282 . S
O166 Cd158 2.277 . S
O166 C159 1.226 . S
O167 Cd158 2.356 . S
O167 C165 1.282 . S
C168 O169 1.306 . S
C168 O171 1.160 . S
O169 C168 1.306 . S
O169 Cd170 2.228 . S
Cd170 O169 2.228 . S
Cd170 O174 2.273 . S
Cd170 O178 2.277 . S
O171 C168 1.160 . S
O171 Cd172 2.203 . S
Cd172 O171 2.203 . S
Cd172 O174 2.411 . S
Cd172 O175 2.333 . S
Cd172 O176 2.352 . S
Cd172 O180 2.277 . S
Cd172 O181 2.356 . S
C173 O178 1.209 . S
C173 O180 1.226 . S
O174 Cd170 2.273 . S
O174 Cd172 2.411 . S
O174 C177 1.320 . S
O175 Cd172 2.333 . S
O175 C177 1.214 . S
O176 Cd172 2.352 . S
O176 C179 1.258 . S
C177 O174 1.320 . S
C177 O175 1.214 . S
O178 Cd170 2.277 . S
O178 C173 1.209 . S
C179 O176 1.258 . S
C179 O181 1.282 . S
O180 Cd172 2.277 . S
O180 C173 1.226 . S
O181 Cd172 2.356 . S
O181 C179 1.282 . S
C182 O183 1.306 . S
C182 O185 1.160 . S
O183 C182 1.306 . S
O183 Cd184 2.228 . S
Cd184 O183 2.228 . S
Cd184 O188 2.273 . S
Cd184 O192 2.277 . S
O185 C182 1.160 . S
O185 Cd186 2.203 . S
Cd186 O185 2.203 . S
Cd186 O188 2.411 . S
Cd186 O189 2.333 . S
Cd186 O190 2.352 . S
Cd186 O194 2.277 . S
Cd186 O195 2.356 . S
C187 O192 1.209 . S
C187 O194 1.226 . S
O188 Cd184 2.273 . S
O188 Cd186 2.411 . S
O188 C191 1.320 . S
O189 Cd186 2.333 . S
O189 C191 1.214 . S
O190 Cd186 2.352 . S
O190 C193 1.258 . S
C191 O188 1.320 . S
C191 O189 1.214 . S
O192 Cd184 2.277 . S
O192 C187 1.209 . S
C193 O190 1.258 . S
C193 O195 1.282 . S
O194 Cd186 2.277 . S
O194 C187 1.226 . S
O195 Cd186 2.356 . S
O195 C193 1.282 . S
C196 O197 1.306 . S
C196 O199 1.160 . S
O197 C196 1.306 . S
O197 Cd198 2.228 . S
Cd198 O197 2.228 . S
Cd198 O202 2.273 . S
Cd198 O206 2.277 . S
O199 C196 1.160 . S
O199 Cd200 2.203 . S
Cd200 O199 2.203 . S
Cd200 O202 2.411 . S
Cd200 O203 2.333 . S
Cd200 O204 2.352 . S
Cd200 O208 2.277 . S
Cd200 O209 2.356 . S
C201 O206 1.209 . S
C201 O208 1.226 . S
O202 Cd198 2.273 . S
O202 Cd200 2.411 . S
O202 C205 1.320 . S
O203 Cd200 2.333 . S
O203 C205 1.214 . S
O204 Cd200 2.352 . S
O204 C207 1.258 . S
C205 O202 1.320 . S
C205 O203 1.214 . S
O206 Cd198 2.277 . S
O206 C201 1.209 . S
C207 O204 1.258 . S
C207 O209 1.282 . S
O208 Cd200 2.277 . S
O208 C201 1.226 . S
O209 Cd200 2.356 . S
O209 C207 1.282 . S
C210 O211 1.306 . S
C210 O213 1.160 . S
O211 C210 1.306 . S
O211 Cd212 2.228 . S
Cd212 O211 2.228 . S
Cd212 O216 2.273 . S
Cd212 O220 2.277 . S
O213 C210 1.160 . S
O213 Cd214 2.203 . S
Cd214 O213 2.203 . S
Cd214 O216 2.411 . S
Cd214 O217 2.333 . S
Cd214 O218 2.352 . S
Cd214 O222 2.277 . S
Cd214 O223 2.356 . S
C215 O220 1.209 . S
C215 O222 1.226 . S
O216 Cd212 2.273 . S
O216 Cd214 2.411 . S
O216 C219 1.320 . S
O217 Cd214 2.333 . S
O217 C219 1.214 . S
O218 Cd214 2.352 . S
O218 C221 1.258 . S
C219 O216 1.320 . S
C219 O217 1.214 . S
O220 Cd212 2.277 . S
O220 C215 1.209 . S
C221 O218 1.258 . S
C221 O223 1.282 . S
O222 Cd214 2.277 . S
O222 C215 1.226 . S
O223 Cd214 2.356 . S
O223 C221 1.282 . S
H224 C236 0.930 . S
H225 C238 0.930 . S
H226 C239 0.930 1_545 S
H227 C243 0.959 1_645 S
H228 C243 0.959 . S
H229 C243 0.961 1_655 S
H230 C244 0.960 . S
H231 C244 0.961 . S
H232 C244 0.959 . S
H233 C247 0.929 . S
H234 C248 0.931 . S
H235 C250 0.930 . S
C236 H224 0.930 . S
C236 C237 1.399 . S
C236 C241 1.399 . S
C237 C236 1.399 . S
C237 C238 1.376 . S
C238 H225 0.930 . S
C238 C237 1.376 . S
C238 C239 1.388 . S
C239 H226 0.930 1_565 S
C239 C238 1.388 . S
C239 C240 1.390 . S
C240 C239 1.390 . S
C240 C241 1.394 . S
C240 C246 1.465 1_665 S
C241 C236 1.399 . S
C241 C240 1.394 . S
C241 C242 1.516 1_655 S
C242 C241 1.516 1_455 S
C242 C243 1.502 . S
C242 C244 1.561 . S
C242 C245 1.526 1_565 S
C243 H227 0.959 1_465 S
C243 H228 0.959 . S
C243 H229 0.961 1_455 S
C243 C242 1.502 . S
C244 H230 0.960 . S
C244 H231 0.961 . S
C244 H232 0.959 . S
C244 C242 1.561 . S
C245 C242 1.526 1_545 S
C245 C246 1.396 . S
C245 C250 1.390 . S
C246 C240 1.465 1_445 S
C246 C245 1.396 . S
C246 C247 1.399 . S
C247 H233 0.929 . S
C247 C246 1.399 . S
C247 C248 1.385 . S
C248 H234 0.931 . S
C248 C247 1.385 . S
C248 C249 1.389 . S
C249 C248 1.389 . S
C249 C250 1.387 . S
C250 H235 0.930 . S
C250 C245 1.390 . S
C250 C249 1.387 . S
H251 C263 0.930 . S
H252 C265 0.930 . S
H253 C266 0.930 . S
H254 C270 0.959 . S
H255 C270 0.959 . S
H256 C270 0.961 . S
H257 C271 0.960 . S
H258 C271 0.961 . S
H259 C271 0.959 . S
H260 C274 0.929 . S
H261 C275 0.931 . S
H262 C277 0.930 . S
C263 H251 0.930 . S
C263 C264 1.399 . S
C263 C268 1.399 . S
C264 C263 1.399 . S
C264 C265 1.376 . S
C265 H252 0.930 . S
C265 C264 1.376 . S
C265 C266 1.388 . S
C266 H253 0.930 . S
C266 C265 1.388 . S
C266 C267 1.390 . S
C267 C266 1.390 . S
C267 C268 1.394 . S
C267 C273 1.465 1_655 S
C268 C263 1.399 . S
C268 C267 1.394 . S
C268 C269 1.516 . S
C269 C268 1.516 . S
C269 C270 1.502 . S
C269 C271 1.561 1_655 S
C269 C272 1.526 1_655 S
C270 H254 0.959 . S
C270 H255 0.959 . S
C270 H256 0.961 . S
C270 C269 1.502 . S
C271 H257 0.960 . S
C271 H258 0.961 . S
C271 H259 0.959 . S
C271 C269 1.561 1_455 S
C272 C269 1.526 1_455 S
C272 C273 1.396 . S
C272 C277 1.390 . S
C273 C267 1.465 1_455 S
C273 C272 1.396 . S
C273 C274 1.399 . S
C274 H260 0.929 . S
C274 C273 1.399 . S
C274 C275 1.385 . S
C275 H261 0.931 . S
C275 C274 1.385 . S
C275 C276 1.389 . S
C276 C275 1.389 . S
C276 C277 1.387 . S
C277 H262 0.930 . S
C277 C272 1.390 . S
C277 C276 1.387 . S
H278 C290 0.930 . S
H279 C292 0.930 . S
H280 C293 0.930 . S
H281 C297 0.959 . S
H282 C297 0.959 . S
H283 C297 0.961 . S
H284 C298 0.960 . S
H285 C298 0.961 . S
H286 C298 0.959 . S
H287 C301 0.929 . S
H288 C302 0.931 . S
H289 C304 0.930 . S
C290 H278 0.930 . S
C290 C291 1.399 . S
C290 C295 1.399 . S
C291 C290 1.399 . S
C291 C292 1.376 . S
C292 H279 0.930 . S
C292 C291 1.376 . S
C292 C293 1.388 . S
C293 H280 0.930 . S
C293 C292 1.388 . S
C293 C294 1.390 . S
C294 C293 1.390 . S
C294 C295 1.394 . S
C294 C300 1.465 . S
C295 C290 1.399 . S
C295 C294 1.394 . S
C295 C296 1.516 . S
C296 C295 1.516 . S
C296 C297 1.502 . S
C296 C298 1.561 . S
C296 C299 1.526 . S
C297 H281 0.959 . S
C297 H282 0.959 . S
C297 H283 0.961 . S
C297 C296 1.502 . S
C298 H284 0.960 . S
C298 H285 0.961 . S
C298 H286 0.959 . S
C298 C296 1.561 . S
C299 C296 1.526 . S
C299 C300 1.396 . S
C299 C304 1.390 . S
C300 C294 1.465 . S
C300 C299 1.396 . S
C300 C301 1.399 . S
C301 H287 0.929 . S
C301 C300 1.399 . S
C301 C302 1.385 . S
C302 H288 0.931 . S
C302 C301 1.385 . S
C302 C303 1.389 . S
C303 C302 1.389 . S
C303 C304 1.387 . S
C304 H289 0.930 . S
C304 C299 1.390 . S
C304 C303 1.387 . S
H305 C317 0.930 . S
H306 C319 0.930 . S
H307 C320 0.930 . S
H308 C324 0.959 . S
H309 C324 0.959 . S
H310 C324 0.961 . S
H311 C325 0.960 1_545 S
H312 C325 0.961 . S
H313 C325 0.959 . S
H314 C328 0.929 . S
H315 C329 0.931 . S
H316 C331 0.930 . S
C317 H305 0.930 . S
C317 C318 1.399 . S
C317 C322 1.399 . S
C318 C317 1.399 . S
C318 C319 1.376 . S
C319 H306 0.930 . S
C319 C318 1.376 . S
C319 C320 1.388 . S
C320 H307 0.930 . S
C320 C319 1.388 . S
C320 C321 1.390 . S
C321 C320 1.390 . S
C321 C322 1.394 . S
C321 C327 1.465 1_545 S
C322 C317 1.399 . S
C322 C321 1.394 . S
C322 C323 1.516 . S
C323 C322 1.516 . S
C323 C324 1.502 . S
C323 C325 1.561 1_545 S
C323 C326 1.526 1_545 S
C324 H308 0.959 . S
C324 H309 0.959 . S
C324 H310 0.961 . S
C324 C323 1.502 . S
C325 H311 0.960 1_565 S
C325 H312 0.961 . S
C325 H313 0.959 . S
C325 C323 1.561 1_565 S
C326 C323 1.526 1_565 S
C326 C327 1.396 . S
C326 C331 1.390 . S
C327 C321 1.465 1_565 S
C327 C326 1.396 . S
C327 C328 1.399 . S
C328 H314 0.929 . S
C328 C327 1.399 . S
C328 C329 1.385 . S
C329 H315 0.931 . S
C329 C328 1.385 . S
C329 C330 1.389 . S
C330 C329 1.389 . S
C330 C331 1.387 . S
C331 H316 0.930 . S
C331 C326 1.390 . S
C331 C330 1.387 . S
H332 C344 0.930 . S
H333 C346 0.930 . S
H334 C347 0.930 . S
H335 C351 0.959 . S
H336 C351 0.959 . S
H337 C351 0.961 . S
H338 C352 0.960 . S
H339 C352 0.961 1_655 S
H340 C352 0.959 . S
H341 C355 0.929 . S
H342 C356 0.931 . S
H343 C358 0.930 . S
C344 H332 0.930 . S
C344 C345 1.399 . S
C344 C349 1.399 . S
C345 C344 1.399 . S
C345 C346 1.376 . S
C346 H333 0.930 . S
C346 C345 1.376 . S
C346 C347 1.388 . S
C347 H334 0.930 . S
C347 C346 1.388 . S
C347 C348 1.390 . S
C348 C347 1.390 . S
C348 C349 1.394 . S
C348 C354 1.465 1_455 S
C349 C344 1.399 . S
C349 C348 1.394 . S
C349 C350 1.516 1_455 S
C350 C349 1.516 1_655 S
C350 C351 1.502 . S
C350 C352 1.561 1_655 S
C350 C353 1.526 . S
C351 H335 0.959 . S
C351 H336 0.959 . S
C351 H337 0.961 . S
C351 C350 1.502 . S
C352 H338 0.960 . S
C352 H339 0.961 1_455 S
C352 H340 0.959 . S
C352 C350 1.561 1_455 S
C353 C350 1.526 . S
C353 C354 1.396 . S
C353 C358 1.390 . S
C354 C348 1.465 1_655 S
C354 C353 1.396 . S
C354 C355 1.399 . S
C355 H341 0.929 . S
C355 C354 1.399 . S
C355 C356 1.385 . S
C356 H342 0.931 . S
C356 C355 1.385 . S
C356 C357 1.389 . S
C357 C356 1.389 . S
C357 C358 1.387 . S
C358 H343 0.930 . S
C358 C353 1.390 . S
C358 C357 1.387 . S
H359 C371 0.930 . S
H360 C373 0.930 . S
H361 C374 0.930 . S
H362 C378 0.959 . S
H363 C378 0.959 . S
H364 C378 0.961 . S
H365 C379 0.960 . S
H366 C379 0.961 . S
H367 C379 0.959 . S
H368 C382 0.929 . S
H369 C383 0.931 . S
H370 C385 0.930 . S
C371 H359 0.930 . S
C371 C372 1.399 . S
C371 C376 1.399 . S
C372 C371 1.399 . S
C372 C373 1.376 . S
C373 H360 0.930 . S
C373 C372 1.376 . S
C373 C374 1.388 . S
C374 H361 0.930 . S
C374 C373 1.388 . S
C374 C375 1.390 . S
C375 C374 1.390 . S
C375 C376 1.394 . S
C375 C381 1.465 . S
C376 C371 1.399 . S
C376 C375 1.394 . S
C376 C377 1.516 . S
C377 C376 1.516 . S
C377 C378 1.502 . S
C377 C379 1.561 . S
C377 C380 1.526 . S
C378 H362 0.959 . S
C378 H363 0.959 . S
C378 H364 0.961 . S
C378 C377 1.502 . S
C379 H365 0.960 . S
C379 H366 0.961 . S
C379 H367 0.959 . S
C379 C377 1.561 . S
C380 C377 1.526 . S
C380 C381 1.396 . S
C380 C385 1.390 . S
C381 C375 1.465 . S
C381 C380 1.396 . S
C381 C382 1.399 . S
C382 H368 0.929 . S
C382 C381 1.399 . S
C382 C383 1.385 . S
C383 H369 0.931 . S
C383 C382 1.385 . S
C383 C384 1.389 . S
C384 C383 1.389 . S
C384 C385 1.387 . S
C385 H370 0.930 . S
C385 C380 1.390 . S
C385 C384 1.387 . S
H386 C398 0.930 . S
H387 C400 0.930 . S
H388 C401 0.938 . S
H389 C405 0.959 . S
H390 C405 0.959 . S
H391 C405 0.961 . S
H392 C406 0.960 . S
H393 C406 0.961 . S
H394 C406 0.959 . S
H395 C409 0.929 . S
H396 C410 0.931 . S
H397 C412 0.930 . S
C398 H386 0.930 . S
C398 C399 1.399 . S
C398 C403 1.399 . S
C399 C398 1.399 . S
C399 C400 1.376 . S
C400 H387 0.930 . S
C400 C399 1.376 . S
C400 C401 1.388 . S
C401 H388 0.938 . S
C401 C400 1.388 . S
C401 C402 1.390 . S
C402 C401 1.390 . S
C402 C403 1.394 . S
C402 C408 1.465 1_545 S
C403 C398 1.399 . S
C403 C402 1.394 . S
C403 C404 1.516 . S
C404 C403 1.516 . S
C404 C405 1.502 . S
C404 C406 1.561 1_545 S
C404 C407 1.526 1_545 S
C405 H389 0.959 . S
C405 H390 0.959 . S
C405 H391 0.961 . S
C405 C404 1.502 . S
C406 H392 0.960 . S
C406 H393 0.961 . S
C406 H394 0.959 . S
C406 C404 1.561 1_565 S
C407 C404 1.526 1_565 S
C407 C408 1.396 . S
C407 C412 1.390 . S
C408 C402 1.465 1_565 S
C408 C407 1.396 . S
C408 C409 1.399 . S
C409 H395 0.929 . S
C409 C408 1.399 . S
C409 C410 1.385 . S
C410 H396 0.931 . S
C410 C409 1.385 . S
C410 C411 1.389 . S
C411 C410 1.389 . S
C411 C412 1.387 . S
C412 H397 0.930 . S
C412 C407 1.390 . S
C412 C411 1.387 . S
H413 C425 0.930 . S
H414 C427 0.930 . S
H415 C428 0.930 . S
H416 C432 0.959 . S
H417 C432 0.959 . S
H418 C432 0.961 . S
H419 C433 0.960 . S
H420 C433 0.961 1_565 S
H421 C433 0.959 1_465 S
H422 C436 0.929 . S
H423 C437 0.931 . S
H424 C439 0.930 . S
C425 H413 0.930 . S
C425 C426 1.399 . S
C425 C430 1.399 . S
C426 C425 1.399 . S
C426 C427 1.376 . S
C427 H414 0.930 . S
C427 C426 1.376 . S
C427 C428 1.388 . S
C428 H415 0.930 . S
C428 C427 1.388 . S
C428 C429 1.390 . S
C429 C428 1.390 . S
C429 C430 1.394 . S
C429 C435 1.465 1_545 S
C430 C425 1.399 . S
C430 C429 1.394 . S
C430 C431 1.516 1_455 S
C431 C430 1.516 1_655 S
C431 C432 1.502 . S
C431 C433 1.561 . S
C431 C434 1.526 1_545 S
C432 H416 0.959 . S
C432 H417 0.959 . S
C432 H418 0.961 . S
C432 C431 1.502 . S
C433 H419 0.960 . S
C433 H420 0.961 1_545 S
C433 H421 0.959 1_645 S
C433 C431 1.561 . S
C434 C431 1.526 1_565 S
C434 C435 1.396 1_655 S
C434 C439 1.390 . S
C435 C429 1.465 1_565 S
C435 C434 1.396 1_455 S
C435 C436 1.399 . S
C436 H422 0.929 . S
C436 C435 1.399 . S
C436 C437 1.385 1_455 S
C437 H423 0.931 . S
C437 C436 1.385 1_655 S
C437 C438 1.389 . S
C438 C437 1.389 . S
C438 C439 1.387 . S
C439 H424 0.930 . S
C439 C434 1.390 . S
C439 C438 1.387 . S
H440 C452 0.930 . S
H441 C454 0.930 . S
H442 C455 0.930 . S
H443 C459 0.959 . S
H444 C459 0.959 . S
H445 C459 0.961 . S
H446 C460 0.960 . S
H447 C460 0.961 . S
H448 C460 0.959 1_545 S
H449 C463 0.929 . S
H450 C464 0.931 . S
H451 C466 0.930 . S
C452 H440 0.930 . S
C452 C453 1.399 . S
C452 C457 1.399 . S
C453 C452 1.399 . S
C453 C454 1.376 . S
C454 H441 0.930 . S
C454 C453 1.376 . S
C454 C455 1.388 1_565 S
C455 H442 0.930 . S
C455 C454 1.388 1_545 S
C455 C456 1.390 . S
C456 C455 1.390 . S
C456 C457 1.394 1_545 S
C456 C462 1.465 . S
C457 C452 1.399 . S
C457 C456 1.394 1_565 S
C457 C458 1.516 . S
C458 C457 1.516 . S
C458 C459 1.502 . S
C458 C460 1.561 . S
C458 C461 1.526 1_565 S
C459 H443 0.959 . S
C459 H444 0.959 . S
C459 H445 0.961 . S
C459 C458 1.502 . S
C460 H446 0.960 . S
C460 H447 0.961 . S
C460 H448 0.959 1_565 S
C460 C458 1.561 . S
C461 C458 1.526 1_545 S
C461 C462 1.396 . S
C461 C466 1.390 . S
C462 C456 1.465 . S
C462 C461 1.396 . S
C462 C463 1.399 . S
C463 H449 0.929 . S
C463 C462 1.399 . S
C463 C464 1.385 . S
C464 H450 0.931 . S
C464 C463 1.385 . S
C464 C465 1.389 . S
C465 C464 1.389 . S
C465 C466 1.387 . S
C466 H451 0.930 . S
C466 C461 1.390 . S
C466 C465 1.387 . S
H467 C479 0.930 . S
H468 C481 0.930 . S
H469 C482 0.930 . S
H470 C486 0.959 . S
H471 C486 0.959 . S
H472 C486 0.961 . S
H473 C487 0.960 1_565 S
H474 C487 0.961 1_455 S
H475 C487 0.959 . S
H476 C490 0.929 1_655 S
H477 C491 0.931 . S
H478 C493 0.930 . S
C479 H467 0.930 . S
C479 C480 1.399 . S
C479 C484 1.399 . S
C480 C479 1.399 . S
C480 C481 1.376 . S
C481 H468 0.930 . S
C481 C480 1.376 . S
C481 C482 1.388 . S
C482 H469 0.930 . S
C482 C481 1.388 . S
C482 C483 1.390 . S
C483 C482 1.390 . S
C483 C484 1.394 . S
C483 C489 1.466 1_565 S
C484 C479 1.399 . S
C484 C483 1.394 . S
C484 C485 1.516 1_655 S
C485 C484 1.516 1_455 S
C485 C486 1.502 . S
C485 C487 1.561 1_465 S
C485 C488 1.526 1_565 S
C486 H470 0.959 . S
C486 H471 0.959 . S
C486 H472 0.961 . S
C486 C485 1.502 . S
C487 H473 0.960 1_545 S
C487 H474 0.961 1_655 S
C487 H475 0.959 . S
C487 C485 1.561 1_645 S
C488 C485 1.526 1_545 S
C488 C489 1.395 1_455 S
C488 C493 1.390 . S
C489 C483 1.466 1_545 S
C489 C488 1.395 1_655 S
C489 C490 1.399 1_655 S
C490 H476 0.929 1_455 S
C490 C489 1.399 1_455 S
C490 C491 1.385 . S
C491 H477 0.931 . S
C491 C490 1.385 . S
C491 C492 1.389 . S
C492 C491 1.389 . S
C492 C493 1.387 . S
C493 H478 0.930 . S
C493 C488 1.390 . S
C493 C492 1.387 . S
H494 C506 0.930 . S
H495 C508 0.930 . S
H496 C509 0.930 . S
H497 C513 0.959 . S
H498 C513 0.959 . S
H499 C513 0.961 . S
H500 C514 0.960 . S
H501 C514 0.961 1_655 S
H502 C514 0.959 . S
H503 C517 0.929 . S
H504 C518 0.931 . S
H505 C520 0.930 . S
C506 H494 0.930 . S
C506 C507 1.399 . S
C506 C511 1.399 . S
C507 C506 1.399 . S
C507 C508 1.376 . S
C508 H495 0.930 . S
C508 C507 1.376 . S
C508 C509 1.388 . S
C509 H496 0.930 . S
C509 C508 1.388 . S
C509 C510 1.390 . S
C510 C509 1.390 . S
C510 C511 1.394 . S
C510 C516 1.465 1_455 S
C511 C506 1.399 . S
C511 C510 1.394 . S
C511 C512 1.516 1_455 S
C512 C511 1.516 1_655 S
C512 C513 1.502 . S
C512 C514 1.561 1_655 S
C512 C515 1.526 . S
C513 H497 0.959 . S
C513 H498 0.959 . S
C513 H499 0.961 . S
C513 C512 1.502 . S
C514 H500 0.960 . S
C514 H501 0.961 1_455 S
C514 H502 0.959 . S
C514 C512 1.561 1_455 S
C515 C512 1.526 . S
C515 C516 1.396 . S
C515 C520 1.390 . S
C516 C510 1.465 1_655 S
C516 C515 1.396 . S
C516 C517 1.399 . S
C517 H503 0.929 . S
C517 C516 1.399 . S
C517 C518 1.385 . S
C518 H504 0.931 . S
C518 C517 1.385 . S
C518 C519 1.389 . S
C519 C518 1.389 . S
C519 C520 1.387 . S
C520 H505 0.930 . S
C520 C515 1.390 . S
C520 C519 1.387 . S
H521 C533 0.930 . S
H522 C535 0.930 . S
H523 C536 0.930 . S
H524 C540 0.959 . S
H525 C540 0.959 . S
H526 C540 0.961 . S
H527 C541 0.960 . S
H528 C541 0.961 . S
H529 C541 0.959 . S
H530 C544 0.929 . S
H531 C545 0.931 . S
H532 C547 0.930 . S
C533 H521 0.930 . S
C533 C534 1.399 . S
C533 C538 1.399 . S
C534 C533 1.399 . S
C534 C535 1.376 . S
C535 H522 0.930 . S
C535 C534 1.376 . S
C535 C536 1.388 . S
C536 H523 0.930 . S
C536 C535 1.388 . S
C536 C537 1.390 . S
C537 C536 1.390 . S
C537 C538 1.394 . S
C537 C543 1.465 . S
C538 C533 1.399 . S
C538 C537 1.394 . S
C538 C539 1.516 . S
C539 C538 1.516 . S
C539 C540 1.502 . S
C539 C541 1.561 . S
C539 C542 1.526 . S
C540 H524 0.959 . S
C540 H525 0.959 . S
C540 H526 0.961 . S
C540 C539 1.502 . S
C541 H527 0.960 . S
C541 H528 0.961 . S
C541 H529 0.959 . S
C541 C539 1.561 . S
C542 C539 1.526 . S
C542 C543 1.396 . S
C542 C547 1.390 . S
C543 C537 1.465 . S
C543 C542 1.396 . S
C543 C544 1.399 . S
C544 H530 0.929 . S
C544 C543 1.399 . S
C544 C545 1.385 . S
C545 H531 0.931 . S
C545 C544 1.385 . S
C545 C546 1.389 . S
C546 C545 1.389 . S
C546 C547 1.387 . S
C547 H532 0.930 . S
C547 C542 1.390 . S
C547 C546 1.387 . S
H548 C560 0.930 . S
H549 C562 0.930 . S
H550 C563 0.930 . S
H551 C567 0.959 . S
H552 C567 0.959 . S
H553 C567 0.961 . S
H554 C568 0.960 . S
H555 C568 0.961 . S
H556 C568 0.959 . S
H557 C571 0.929 . S
H558 C572 0.931 . S
H559 C574 0.930 . S
C560 H548 0.930 . S
C560 C561 1.399 . S
C560 C565 1.399 . S
C561 C560 1.399 . S
C561 C562 1.376 . S
C562 H549 0.930 . S
C562 C561 1.376 . S
C562 C563 1.388 . S
C563 H550 0.930 . S
C563 C562 1.388 . S
C563 C564 1.390 . S
C564 C563 1.390 . S
C564 C565 1.394 . S
C564 C570 1.465 . S
C565 C560 1.399 . S
C565 C564 1.394 . S
C565 C566 1.516 . S
C566 C565 1.516 . S
C566 C567 1.502 . S
C566 C568 1.561 . S
C566 C569 1.526 . S
C567 H551 0.959 . S
C567 H552 0.959 . S
C567 H553 0.961 . S
C567 C566 1.502 . S
C568 H554 0.960 . S
C568 H555 0.961 . S
C568 H556 0.959 . S
C568 C566 1.561 . S
C569 C566 1.526 . S
C569 C570 1.396 . S
C569 C574 1.390 . S
C570 C564 1.465 . S
C570 C569 1.396 . S
C570 C571 1.399 . S
C571 H557 0.929 . S
C571 C570 1.399 . S
C571 C572 1.385 . S
C572 H558 0.931 . S
C572 C571 1.385 . S
C572 C573 1.389 . S
C573 C572 1.389 . S
C573 C574 1.387 . S
C574 H559 0.930 . S
C574 C569 1.390 . S
C574 C573 1.387 . S
H575 C587 0.930 . S
H576 C589 0.930 . S
H577 C590 0.930 . S
H578 C594 0.959 . S
H579 C594 0.959 . S
H580 C594 0.961 . S
H581 C595 0.960 1_565 S
H582 C595 0.961 . S
H583 C595 0.959 . S
H584 C598 0.929 . S
H585 C599 0.931 . S
H586 C601 0.930 . S
C587 H575 0.930 . S
C587 C588 1.399 . S
C587 C592 1.399 . S
C588 C587 1.399 . S
C588 C589 1.376 . S
C589 H576 0.930 . S
C589 C588 1.376 . S
C589 C590 1.388 . S
C590 H577 0.930 . S
C590 C589 1.388 . S
C590 C591 1.390 . S
C591 C590 1.390 . S
C591 C592 1.394 . S
C591 C597 1.465 1_565 S
C592 C587 1.399 . S
C592 C591 1.394 . S
C592 C593 1.516 . S
C593 C592 1.516 . S
C593 C594 1.502 . S
C593 C595 1.561 1_565 S
C593 C596 1.526 1_565 S
C594 H578 0.959 . S
C594 H579 0.959 . S
C594 H580 0.961 . S
C594 C593 1.502 . S
C595 H581 0.960 1_545 S
C595 H582 0.961 . S
C595 H583 0.959 . S
C595 C593 1.561 1_545 S
C596 C593 1.526 1_545 S
C596 C597 1.396 . S
C596 C601 1.390 . S
C597 C591 1.465 1_545 S
C597 C596 1.396 . S
C597 C598 1.399 . S
C598 H584 0.929 . S
C598 C597 1.399 . S
C598 C599 1.385 . S
C599 H585 0.931 . S
C599 C598 1.385 . S
C599 C600 1.389 . S
C600 C599 1.389 . S
C600 C601 1.387 . S
C601 H586 0.930 . S
C601 C596 1.390 . S
C601 C600 1.387 . S
H602 C614 0.930 . S
H603 C616 0.930 . S
H604 C617 0.930 . S
H605 C621 0.959 . S
H606 C621 0.959 . S
H607 C621 0.961 . S
H608 C622 0.960 1_655 S
H609 C622 0.961 1_545 S
H610 C622 0.959 . S
H611 C625 0.943 . S
H612 C626 0.931 . S
H613 C628 0.930 . S
C614 H602 0.930 . S
C614 C615 1.399 . S
C614 C619 1.399 . S
C615 C614 1.399 . S
C615 C616 1.376 . S
C616 H603 0.930 . S
C616 C615 1.376 . S
C616 C617 1.388 . S
C617 H604 0.930 . S
C617 C616 1.388 . S
C617 C618 1.390 . S
C618 C617 1.390 . S
C618 C619 1.394 . S
C618 C624 1.465 1_655 S
C619 C614 1.399 . S
C619 C618 1.394 . S
C619 C620 1.516 1_565 S
C620 C619 1.516 1_545 S
C620 C621 1.502 . S
C620 C622 1.561 1_645 S
C620 C623 1.526 1_655 S
C621 H605 0.959 . S
C621 H606 0.959 . S
C621 H607 0.961 . S
C621 C620 1.502 . S
C622 H608 0.960 1_455 S
C622 H609 0.961 1_565 S
C622 H610 0.959 . S
C622 C620 1.561 1_465 S
C623 C620 1.526 1_455 S
C623 C624 1.396 1_545 S
C623 C628 1.390 . S
C624 C618 1.465 1_455 S
C624 C623 1.396 1_565 S
C624 C625 1.399 . S
C625 H611 0.943 . S
C625 C624 1.399 . S
C625 C626 1.371 1_565 S
C626 H612 0.931 . S
C626 C625 1.371 1_545 S
C626 C627 1.389 . S
C627 C626 1.389 . S
C627 C628 1.387 . S
C628 H613 0.930 . S
C628 C623 1.390 . S
C628 C627 1.387 . S
H629 C641 0.930 . S
H630 C643 0.930 . S
H631 C644 0.930 . S
H632 C648 0.959 . S
H633 C648 0.959 . S
H634 C648 0.961 . S
H635 C649 0.960 . S
H636 C649 0.964 . S
H637 C649 0.959 . S
H638 C652 0.929 1_455 S
H639 C653 0.931 . S
H640 C655 0.930 . S
C641 H629 0.930 . S
C641 C642 1.399 . S
C641 C646 1.399 . S
C642 C641 1.399 . S
C642 C643 1.376 . S
C643 H630 0.930 . S
C643 C642 1.376 . S
C643 C644 1.388 . S
C644 H631 0.930 . S
C644 C643 1.388 . S
C644 C645 1.390 . S
C645 C644 1.390 . S
C645 C646 1.394 . S
C645 C651 1.456 1_455 S
C646 C641 1.399 . S
C646 C645 1.394 . S
C646 C647 1.516 1_455 S
C647 C646 1.516 1_655 S
C647 C648 1.502 . S
C647 C649 1.561 1_655 S
C647 C650 1.526 . S
C648 H632 0.959 . S
C648 H633 0.959 . S
C648 H634 0.961 . S
C648 C647 1.502 . S
C649 H635 0.960 . S
C649 H636 0.964 . S
C649 H637 0.959 . S
C649 C647 1.561 1_455 S
C650 C647 1.526 . S
C650 C651 1.405 . S
C650 C655 1.390 . S
C651 C645 1.456 1_655 S
C651 C650 1.405 . S
C651 C652 1.400 . S
C652 H638 0.929 1_655 S
C652 C651 1.400 . S
C652 C653 1.385 . S
C653 H639 0.931 . S
C653 C652 1.385 . S
C653 C654 1.389 . S
C654 C653 1.389 . S
C654 C655 1.387 . S
C655 H640 0.930 . S
C655 C650 1.390 . S
C655 C654 1.387 . S
H656 C668 0.930 . S
H657 C670 0.930 . S
H658 C671 0.930 . S
H659 C675 0.959 . S
H660 C675 0.959 . S
H661 C675 0.961 . S
H662 C676 0.960 . S
H663 C676 0.961 . S
H664 C676 0.959 . S
H665 C679 0.929 . S
H666 C680 0.931 . S
H667 C682 0.930 . S
C668 H656 0.930 . S
C668 C669 1.399 . S
C668 C673 1.399 . S
C669 C668 1.399 . S
C669 C670 1.376 . S
C670 H657 0.930 . S
C670 C669 1.376 . S
C670 C671 1.388 . S
C671 H658 0.930 . S
C671 C670 1.388 . S
C671 C672 1.390 . S
C672 C671 1.390 . S
C672 C673 1.394 . S
C672 C678 1.465 . S
C673 C668 1.399 . S
C673 C672 1.394 . S
C673 C674 1.516 . S
C674 C673 1.516 . S
C674 C675 1.502 . S
C674 C676 1.561 . S
C674 C677 1.526 . S
C675 H659 0.959 . S
C675 H660 0.959 . S
C675 H661 0.961 . S
C675 C674 1.502 . S
C676 H662 0.960 . S
C676 H663 0.961 . S
C676 H664 0.959 . S
C676 C674 1.561 . S
C677 C674 1.526 . S
C677 C678 1.396 . S
C677 C682 1.390 . S
C678 C672 1.465 . S
C678 C677 1.396 . S
C678 C679 1.399 . S
C679 H665 0.929 . S
C679 C678 1.399 . S
C679 C680 1.385 . S
C680 H666 0.931 . S
C680 C679 1.385 . S
C680 C681 1.389 . S
C681 C680 1.389 . S
C681 C682 1.387 . S
C682 H667 0.930 . S
C682 C677 1.390 . S
C682 C681 1.387 . S
H683 C695 0.930 . S
H684 C697 0.930 . S
H685 C698 0.930 . S
H686 C702 0.959 . S
H687 C702 0.959 . S
H688 C702 0.961 . S
H689 C703 0.960 . S
H690 C703 0.961 . S
H691 C703 0.959 . S
H692 C706 0.929 . S
H693 C707 0.931 . S
H694 C709 0.930 . S
C695 H683 0.930 . S
C695 C696 1.399 . S
C695 C700 1.399 . S
C696 C695 1.399 . S
C696 C697 1.376 . S
C697 H684 0.930 . S
C697 C696 1.376 . S
C697 C698 1.388 . S
C698 H685 0.930 . S
C698 C697 1.388 . S
C698 C699 1.390 . S
C699 C698 1.390 . S
C699 C700 1.394 . S
C699 C705 1.465 . S
C700 C695 1.399 . S
C700 C699 1.394 . S
C700 C701 1.516 . S
C701 C700 1.516 . S
C701 C702 1.502 . S
C701 C703 1.561 . S
C701 C704 1.526 . S
C702 H686 0.959 . S
C702 H687 0.959 . S
C702 H688 0.961 . S
C702 C701 1.502 . S
C703 H689 0.960 . S
C703 H690 0.961 . S
C703 H691 0.959 . S
C703 C701 1.561 . S
C704 C701 1.526 . S
C704 C705 1.396 . S
C704 C709 1.390 . S
C705 C699 1.465 . S
C705 C704 1.396 . S
C705 C706 1.399 . S
C706 H692 0.929 . S
C706 C705 1.399 . S
C706 C707 1.385 . S
C707 H693 0.931 . S
C707 C706 1.385 . S
C707 C708 1.389 . S
C708 C707 1.389 . S
C708 C709 1.387 . S
C709 H694 0.930 . S
C709 C704 1.390 . S
C709 C708 1.387 . S
H710 C722 0.930 . S
H711 C724 0.930 . S
H712 C725 0.930 . S
H713 C729 0.959 . S
H714 C729 0.959 . S
H715 C729 0.961 . S
H716 C730 0.960 . S
H717 C730 0.961 . S
H718 C730 0.959 . S
H719 C733 0.929 . S
H720 C734 0.931 . S
H721 C736 0.930 . S
C722 H710 0.930 . S
C722 C723 1.399 . S
C722 C727 1.399 . S
C723 C722 1.399 . S
C723 C724 1.376 . S
C724 H711 0.930 . S
C724 C723 1.376 . S
C724 C725 1.388 . S
C725 H712 0.930 . S
C725 C724 1.388 . S
C725 C726 1.390 . S
C726 C725 1.390 . S
C726 C727 1.394 . S
C726 C732 1.465 . S
C727 C722 1.399 . S
C727 C726 1.394 . S
C727 C728 1.516 . S
C728 C727 1.516 . S
C728 C729 1.502 . S
C728 C730 1.561 . S
C728 C731 1.526 . S
C729 H713 0.959 . S
C729 H714 0.959 . S
C729 H715 0.961 . S
C729 C728 1.502 . S
C730 H716 0.960 . S
C730 H717 0.961 . S
C730 H718 0.959 . S
C730 C728 1.561 . S
C731 C728 1.526 . S
C731 C732 1.396 . S
C731 C736 1.390 . S
C732 C726 1.465 . S
C732 C731 1.396 . S
C732 C733 1.399 . S
C733 H719 0.929 . S
C733 C732 1.399 . S
C733 C734 1.385 . S
C734 H720 0.931 . S
C734 C733 1.385 . S
C734 C735 1.389 . S
C735 C734 1.389 . S
C735 C736 1.387 . S
C736 H721 0.930 . S
C736 C731 1.390 . S
C736 C735 1.387 . S
H737 C749 0.930 . S
H738 C751 0.930 . S
H739 C752 0.930 . S
H740 C756 0.959 . S
H741 C756 0.959 . S
H742 C756 0.961 . S
H743 C757 0.960 . S
H744 C757 0.961 . S
H745 C757 0.959 . S
H746 C760 0.929 . S
H747 C761 0.931 . S
H748 C763 0.930 . S
C749 H737 0.930 . S
C749 C750 1.399 . S
C749 C754 1.399 . S
C750 C749 1.399 . S
C750 C751 1.376 . S
C751 H738 0.930 . S
C751 C750 1.376 . S
C751 C752 1.388 . S
C752 H739 0.930 . S
C752 C751 1.388 . S
C752 C753 1.390 . S
C753 C752 1.390 . S
C753 C754 1.394 . S
C753 C759 1.465 . S
C754 C749 1.399 . S
C754 C753 1.394 . S
C754 C755 1.516 . S
C755 C754 1.516 . S
C755 C756 1.502 . S
C755 C757 1.561 . S
C755 C758 1.526 . S
C756 H740 0.959 . S
C756 H741 0.959 . S
C756 H742 0.961 . S
C756 C755 1.502 . S
C757 H743 0.960 . S
C757 H744 0.961 . S
C757 H745 0.959 . S
C757 C755 1.561 . S
C758 C755 1.526 . S
C758 C759 1.396 . S
C758 C763 1.390 . S
C759 C753 1.465 . S
C759 C758 1.396 . S
C759 C760 1.399 . S
C760 H746 0.929 . S
C760 C759 1.399 . S
C760 C761 1.385 . S
C761 H747 0.931 . S
C761 C760 1.385 . S
C761 C762 1.389 . S
C762 C761 1.389 . S
C762 C763 1.387 . S
C763 H748 0.930 . S
C763 C758 1.390 . S
C763 C762 1.387 . S
H764 C776 0.930 . S
H765 C778 0.930 . S
H766 C779 0.930 . S
H767 C783 0.959 . S
H768 C783 0.959 . S
H769 C783 0.961 . S
H770 C784 0.960 . S
H771 C784 0.961 . S
H772 C784 0.959 . S
H773 C787 0.929 . S
H774 C788 0.931 . S
H775 C790 0.930 . S
C776 H764 0.930 . S
C776 C777 1.399 . S
C776 C781 1.399 . S
C777 C776 1.399 . S
C777 C778 1.376 . S
C778 H765 0.930 . S
C778 C777 1.376 . S
C778 C779 1.388 . S
C779 H766 0.930 . S
C779 C778 1.388 . S
C779 C780 1.390 . S
C780 C779 1.390 . S
C780 C781 1.394 . S
C780 C786 1.465 . S
C781 C776 1.399 . S
C781 C780 1.394 . S
C781 C782 1.516 . S
C782 C781 1.516 . S
C782 C783 1.502 . S
C782 C784 1.561 . S
C782 C785 1.526 . S
C783 H767 0.959 . S
C783 H768 0.959 . S
C783 H769 0.961 . S
C783 C782 1.502 . S
C784 H770 0.960 . S
C784 H771 0.961 . S
C784 H772 0.959 . S
C784 C782 1.561 . S
C785 C782 1.526 . S
C785 C786 1.396 . S
C785 C790 1.390 . S
C786 C780 1.465 . S
C786 C785 1.396 . S
C786 C787 1.399 . S
C787 H773 0.929 . S
C787 C786 1.399 . S
C787 C788 1.385 . S
C788 H774 0.931 . S
C788 C787 1.385 . S
C788 C789 1.389 . S
C789 C788 1.389 . S
C789 C790 1.387 . S
C790 H775 0.930 . S
C790 C785 1.390 . S
C790 C789 1.387 . S
H791 C803 0.930 . S
H792 C805 0.930 . S
H793 C806 0.930 . S
H794 C810 0.959 . S
H795 C810 0.959 . S
H796 C810 0.961 . S
H797 C811 0.960 . S
H798 C811 0.961 . S
H799 C811 0.959 . S
H800 C814 0.929 . S
H801 C815 0.931 . S
H802 C817 0.930 . S
C803 H791 0.930 . S
C803 C804 1.399 . S
C803 C808 1.399 . S
C804 C803 1.399 . S
C804 C805 1.376 . S
C805 H792 0.930 . S
C805 C804 1.376 . S
C805 C806 1.388 . S
C806 H793 0.930 . S
C806 C805 1.388 . S
C806 C807 1.390 . S
C807 C806 1.390 . S
C807 C808 1.394 . S
C807 C813 1.465 . S
C808 C803 1.399 . S
C808 C807 1.394 . S
C808 C809 1.516 . S
C809 C808 1.516 . S
C809 C810 1.502 . S
C809 C811 1.561 . S
C809 C812 1.526 . S
C810 H794 0.959 . S
C810 H795 0.959 . S
C810 H796 0.961 . S
C810 C809 1.502 . S
C811 H797 0.960 . S
C811 H798 0.961 . S
C811 H799 0.959 . S
C811 C809 1.561 . S
C812 C809 1.526 . S
C812 C813 1.396 . S
C812 C817 1.390 . S
C813 C807 1.465 . S
C813 C812 1.396 . S
C813 C814 1.399 . S
C814 H800 0.929 . S
C814 C813 1.399 . S
C814 C815 1.385 . S
C815 H801 0.931 . S
C815 C814 1.385 . S
C815 C816 1.389 . S
C816 C815 1.389 . S
C816 C817 1.387 . S
C817 H802 0.930 . S
C817 C812 1.390 . S
C817 C816 1.387 . S
H818 C830 0.930 . S
H819 C832 0.930 . S
H820 C833 0.930 . S
H821 C837 0.959 . S
H822 C837 0.959 . S
H823 C837 0.961 . S
H824 C838 0.960 . S
H825 C838 0.961 . S
H826 C838 0.959 . S
H827 C841 0.929 . S
H828 C842 0.931 . S
H829 C844 0.930 . S
C830 H818 0.930 . S
C830 C831 1.399 . S
C830 C835 1.399 . S
C831 C830 1.399 . S
C831 C832 1.376 . S
C832 H819 0.930 . S
C832 C831 1.376 . S
C832 C833 1.388 . S
C833 H820 0.930 . S
C833 C832 1.388 . S
C833 C834 1.390 . S
C834 C833 1.390 . S
C834 C835 1.394 . S
C834 C840 1.465 . S
C835 C830 1.399 . S
C835 C834 1.394 . S
C835 C836 1.516 . S
C836 C835 1.516 . S
C836 C837 1.502 . S
C836 C838 1.561 . S
C836 C839 1.526 . S
C837 H821 0.959 . S
C837 H822 0.959 . S
C837 H823 0.961 . S
C837 C836 1.502 . S
C838 H824 0.960 . S
C838 H825 0.961 . S
C838 H826 0.959 . S
C838 C836 1.561 . S
C839 C836 1.526 . S
C839 C840 1.396 . S
C839 C844 1.390 . S
C840 C834 1.465 . S
C840 C839 1.396 . S
C840 C841 1.399 . S
C841 H827 0.929 . S
C841 C840 1.399 . S
C841 C842 1.385 . S
C842 H828 0.931 . S
C842 C841 1.385 . S
C842 C843 1.389 . S
C843 C842 1.389 . S
C843 C844 1.387 . S
C844 H829 0.930 . S
C844 C839 1.390 . S
C844 C843 1.387 . S
H845 C857 0.930 . S
H846 C859 0.930 . S
H847 C860 0.930 . S
H848 C864 0.959 . S
H849 C864 0.959 . S
H850 C864 0.961 . S
H851 C865 0.960 . S
H852 C865 0.961 . S
H853 C865 0.959 . S
H854 C868 0.929 . S
H855 C869 0.931 . S
H856 C871 0.930 . S
C857 H845 0.930 . S
C857 C858 1.399 . S
C857 C862 1.399 . S
C858 C857 1.399 . S
C858 C859 1.376 . S
C859 H846 0.930 . S
C859 C858 1.376 . S
C859 C860 1.388 . S
C860 H847 0.930 . S
C860 C859 1.388 . S
C860 C861 1.390 . S
C861 C860 1.390 . S
C861 C862 1.394 . S
C861 C867 1.465 . S
C862 C857 1.399 . S
C862 C861 1.394 . S
C862 C863 1.516 . S
C863 C862 1.516 . S
C863 C864 1.502 . S
C863 C865 1.561 . S
C863 C866 1.526 . S
C864 H848 0.959 . S
C864 H849 0.959 . S
C864 H850 0.961 . S
C864 C863 1.502 . S
C865 H851 0.960 . S
C865 H852 0.961 . S
C865 H853 0.959 . S
C865 C863 1.561 . S
C866 C863 1.526 . S
C866 C867 1.396 . S
C866 C871 1.390 . S
C867 C861 1.465 . S
C867 C866 1.396 . S
C867 C868 1.399 . S
C868 H854 0.929 . S
C868 C867 1.399 . S
C868 C869 1.385 . S
C869 H855 0.931 . S
C869 C868 1.385 . S
C869 C870 1.389 . S
C870 C869 1.389 . S
C870 C871 1.387 . S
C871 H856 0.930 . S
C871 C866 1.390 . S
C871 C870 1.387 . S
H872 C884 0.930 . S
H873 C886 0.930 . S
H874 C887 0.930 . S
H875 C891 0.959 . S
H876 C891 0.959 . S
H877 C891 0.961 . S
H878 C892 0.960 . S
H879 C892 0.961 . S
H880 C892 0.959 . S
H881 C895 0.929 . S
H882 C896 0.931 . S
H883 C898 0.930 . S
C884 H872 0.930 . S
C884 C885 1.399 . S
C884 C889 1.399 . S
C885 C884 1.399 . S
C885 C886 1.376 . S
C886 H873 0.930 . S
C886 C885 1.376 . S
C886 C887 1.388 . S
C887 H874 0.930 . S
C887 C886 1.388 . S
C887 C888 1.390 . S
C888 C887 1.390 . S
C888 C889 1.394 . S
C888 C894 1.465 . S
C889 C884 1.399 . S
C889 C888 1.394 . S
C889 C890 1.516 . S
C890 C889 1.516 . S
C890 C891 1.502 . S
C890 C892 1.561 . S
C890 C893 1.526 . S
C891 H875 0.959 . S
C891 H876 0.959 . S
C891 H877 0.961 . S
C891 C890 1.502 . S
C892 H878 0.960 . S
C892 H879 0.961 . S
C892 H880 0.959 . S
C892 C890 1.561 . S
C893 C890 1.526 . S
C893 C894 1.396 . S
C893 C898 1.390 . S
C894 C888 1.465 . S
C894 C893 1.396 . S
C894 C895 1.399 . S
C895 H881 0.929 . S
C895 C894 1.399 . S
C895 C896 1.385 . S
C896 H882 0.931 . S
C896 C895 1.385 . S
C896 C897 1.389 . S
C897 C896 1.389 . S
C897 C898 1.387 . S
C898 H883 0.930 . S
C898 C893 1.390 . S
C898 C897 1.387 . S
H899 C911 0.930 . S
H900 C913 0.930 . S
H901 C914 0.930 . S
H902 C918 0.959 . S
H903 C918 0.959 . S
H904 C918 0.961 . S
H905 C919 0.960 . S
H906 C919 0.961 . S
H907 C919 0.959 . S
H908 C922 0.929 . S
H909 C923 0.931 . S
H910 C925 0.930 . S
C911 H899 0.930 . S
C911 C912 1.399 . S
C911 C916 1.399 . S
C912 C911 1.399 . S
C912 C913 1.376 . S
C913 H900 0.930 . S
C913 C912 1.376 . S
C913 C914 1.388 . S
C914 H901 0.930 . S
C914 C913 1.388 . S
C914 C915 1.390 . S
C915 C914 1.390 . S
C915 C916 1.394 . S
C915 C921 1.465 . S
C916 C911 1.399 . S
C916 C915 1.394 . S
C916 C917 1.516 . S
C917 C916 1.516 . S
C917 C918 1.502 . S
C917 C919 1.561 . S
C917 C920 1.526 . S
C918 H902 0.959 . S
C918 H903 0.959 . S
C918 H904 0.961 . S
C918 C917 1.502 . S
C919 H905 0.960 . S
C919 H906 0.961 . S
C919 H907 0.959 . S
C919 C917 1.561 . S
C920 C917 1.526 . S
C920 C921 1.396 . S
C920 C925 1.390 . S
C921 C915 1.465 . S
C921 C920 1.396 . S
C921 C922 1.399 . S
C922 H908 0.929 . S
C922 C921 1.399 . S
C922 C923 1.385 . S
C923 H909 0.931 . S
C923 C922 1.385 . S
C923 C924 1.389 . S
C924 C923 1.389 . S
C924 C925 1.387 . S
C925 H910 0.930 . S
C925 C920 1.390 . S
C925 C924 1.387 . S
H926 C938 0.930 . S
H927 C940 0.930 . S
H928 C941 0.930 . S
H929 C945 0.959 . S
H930 C945 0.959 . S
H931 C945 0.961 . S
H932 C946 0.960 . S
H933 C946 0.961 . S
H934 C946 0.959 . S
H935 C949 0.929 . S
H936 C950 0.931 . S
H937 C952 0.930 . S
C938 H926 0.930 . S
C938 C939 1.399 . S
C938 C943 1.399 . S
C939 C938 1.399 . S
C939 C940 1.376 . S
C940 H927 0.930 . S
C940 C939 1.376 . S
C940 C941 1.388 . S
C941 H928 0.930 . S
C941 C940 1.388 . S
C941 C942 1.390 . S
C942 C941 1.390 . S
C942 C943 1.394 . S
C942 C948 1.465 . S
C943 C938 1.399 . S
C943 C942 1.394 . S
C943 C944 1.516 . S
C944 C943 1.516 . S
C944 C945 1.502 . S
C944 C946 1.561 . S
C944 C947 1.526 . S
C945 H929 0.959 . S
C945 H930 0.959 . S
C945 H931 0.961 . S
C945 C944 1.502 . S
C946 H932 0.960 . S
C946 H933 0.961 . S
C946 H934 0.959 . S
C946 C944 1.561 . S
C947 C944 1.526 . S
C947 C948 1.396 . S
C947 C952 1.390 . S
C948 C942 1.465 . S
C948 C947 1.396 . S
C948 C949 1.399 . S
C949 H935 0.929 . S
C949 C948 1.399 . S
C949 C950 1.385 . S
C950 H936 0.931 . S
C950 C949 1.385 . S
C950 C951 1.389 . S
C951 C950 1.389 . S
C951 C952 1.387 . S
C952 H937 0.930 . S
C952 C947 1.390 . S
C952 C951 1.387 . S
H953 C965 0.930 . S
H954 C967 0.930 . S
H955 C968 0.930 . S
H956 C972 0.940 1_554 S
H957 C972 0.909 1_554 S
H958 C972 1.030 . S
H959 C973 0.960 . S
H960 C973 0.961 1_554 S
H961 C973 0.959 . S
H962 C976 0.929 . S
H963 C977 0.931 . S
H964 C979 0.930 . S
C965 H953 0.930 . S
C965 C966 1.399 . S
C965 C970 1.399 . S
C966 C965 1.399 . S
C966 C967 1.376 . S
C967 H954 0.930 . S
C967 C966 1.376 . S
C967 C968 1.388 . S
C968 H955 0.930 . S
C968 C967 1.388 . S
C968 C969 1.390 . S
C969 C968 1.390 . S
C969 C970 1.394 . S
C969 C975 1.465 1_556 S
C970 C965 1.399 . S
C970 C969 1.394 . S
C970 C971 1.516 . S
C971 C970 1.516 . S
C971 C972 1.509 . S
C971 C973 1.561 . S
C971 C974 1.526 1_556 S
C972 H956 0.940 1_556 S
C972 H957 0.909 1_556 S
C972 H958 1.030 . S
C972 C971 1.509 . S
C973 H959 0.960 . S
C973 H960 0.961 1_556 S
C973 H961 0.959 . S
C973 C971 1.561 . S
C974 C971 1.526 1_554 S
C974 C975 1.396 . S
C974 C979 1.390 . S
C975 C969 1.465 1_554 S
C975 C974 1.396 . S
C975 C976 1.399 . S
C976 H962 0.929 . S
C976 C975 1.399 . S
C976 C977 1.385 . S
C977 H963 0.931 . S
C977 C976 1.385 . S
C977 C978 1.389 . S
C978 C977 1.389 . S
C978 C979 1.387 . S
C979 H964 0.930 . S
C979 C974 1.390 . S
C979 C978 1.387 . S
H980 C992 0.930 . S
H981 C994 0.930 . S
H982 C995 0.930 . S
H983 C999 0.959 . S
H984 C999 0.909 1_556 S
H985 C999 0.961 . S
H986 C1000 0.960 . S
H987 C1000 0.961 1_556 S
H988 C1000 0.958 . S
H989 C1003 0.929 . S
H990 C1004 0.931 . S
H991 C1006 0.930 . S
C992 H980 0.930 . S
C992 C993 1.399 . S
C992 C997 1.399 . S
C993 C992 1.399 . S
C993 C994 1.376 . S
C994 H981 0.930 . S
C994 C993 1.376 . S
C994 C995 1.388 . S
C995 H982 0.930 . S
C995 C994 1.388 . S
C995 C996 1.390 . S
C996 C995 1.390 . S
C996 C997 1.394 . S
C996 C1002 1.465 1_554 S
C997 C992 1.399 . S
C997 C996 1.394 . S
C997 C998 1.516 . S
C998 C997 1.516 . S
C998 C999 1.502 . S
C998 C1000 1.561 . S
C998 C1001 1.526 1_554 S
C999 H983 0.959 . S
C999 H984 0.909 1_554 S
C999 H985 0.961 . S
C999 C998 1.502 . S
C1000 H986 0.960 . S
C1000 H987 0.961 1_554 S
C1000 H988 0.958 . S
C1000 C998 1.561 . S
C1001 C998 1.526 1_556 S
C1001 C1002 1.396 . S
C1001 C1006 1.390 . S
C1002 C996 1.465 1_556 S
C1002 C1001 1.396 . S
C1002 C1003 1.399 . S
C1003 H989 0.929 . S
C1003 C1002 1.399 . S
C1003 C1004 1.385 . S
C1004 H990 0.931 . S
C1004 C1003 1.385 . S
C1004 C1005 1.389 . S
C1005 C1004 1.389 . S
C1005 C1006 1.387 . S
C1006 H991 0.930 . S
C1006 C1001 1.390 . S
C1006 C1005 1.387 . S
H1007 C1019 0.930 . S
H1008 C1021 0.930 . S
H1009 C1022 0.930 . S
H1010 C1026 0.959 . S
H1011 C1026 0.959 . S
H1012 C1026 0.961 . S
H1013 C1027 0.960 . S
H1014 C1027 0.961 . S
H1015 C1027 0.959 . S
H1016 C1030 0.929 . S
H1017 C1031 0.931 . S
H1018 C1033 0.930 . S
C1019 H1007 0.930 . S
C1019 C1020 1.399 . S
C1019 C1024 1.399 . S
C1020 C1019 1.399 . S
C1020 C1021 1.376 . S
C1021 H1008 0.930 . S
C1021 C1020 1.376 . S
C1021 C1022 1.388 . S
C1022 H1009 0.930 . S
C1022 C1021 1.388 . S
C1022 C1023 1.390 . S
C1023 C1022 1.390 . S
C1023 C1024 1.394 . S
C1023 C1029 1.465 . S
C1024 C1019 1.399 . S
C1024 C1023 1.394 . S
C1024 C1025 1.516 . S
C1025 C1024 1.516 . S
C1025 C1026 1.502 . S
C1025 C1027 1.561 . S
C1025 C1028 1.526 . S
C1026 H1010 0.959 . S
C1026 H1011 0.959 . S
C1026 H1012 0.961 . S
C1026 C1025 1.502 . S
C1027 H1013 0.960 . S
C1027 H1014 0.961 . S
C1027 H1015 0.959 . S
C1027 C1025 1.561 . S
C1028 C1025 1.526 . S
C1028 C1029 1.396 . S
C1028 C1033 1.390 . S
C1029 C1023 1.465 . S
C1029 C1028 1.396 . S
C1029 C1030 1.399 . S
C1030 H1016 0.929 . S
C1030 C1029 1.399 . S
C1030 C1031 1.385 . S
C1031 H1017 0.931 . S
C1031 C1030 1.385 . S
C1031 C1032 1.389 . S
C1032 C1031 1.389 . S
C1032 C1033 1.387 . S
C1033 H1018 0.930 . S
C1033 C1028 1.390 . S
C1033 C1032 1.387 . S
H1034 C1046 0.930 . S
H1035 C1048 0.930 . S
H1036 C1049 0.930 . S
H1037 C1053 0.959 . S
H1038 C1053 0.959 . S
H1039 C1053 0.961 . S
H1040 C1054 0.960 . S
H1041 C1054 0.961 . S
H1042 C1054 0.959 . S
H1043 C1057 0.929 . S
H1044 C1058 0.931 . S
H1045 C1060 0.930 . S
C1046 H1034 0.930 . S
C1046 C1047 1.399 . S
C1046 C1051 1.399 . S
C1047 C1046 1.399 . S
C1047 C1048 1.376 . S
C1048 H1035 0.930 . S
C1048 C1047 1.376 . S
C1048 C1049 1.388 . S
C1049 H1036 0.930 . S
C1049 C1048 1.388 . S
C1049 C1050 1.390 . S
C1050 C1049 1.390 . S
C1050 C1051 1.394 . S
C1050 C1056 1.465 . S
C1051 C1046 1.399 . S
C1051 C1050 1.394 . S
C1051 C1052 1.516 . S
C1052 C1051 1.516 . S
C1052 C1053 1.502 . S
C1052 C1054 1.561 . S
C1052 C1055 1.526 . S
C1053 H1037 0.959 . S
C1053 H1038 0.959 . S
C1053 H1039 0.961 . S
C1053 C1052 1.502 . S
C1054 H1040 0.960 . S
C1054 H1041 0.961 . S
C1054 H1042 0.959 . S
C1054 C1052 1.561 . S
C1055 C1052 1.526 . S
C1055 C1056 1.396 . S
C1055 C1060 1.390 . S
C1056 C1050 1.465 . S
C1056 C1055 1.396 . S
C1056 C1057 1.399 . S
C1057 H1043 0.929 . S
C1057 C1056 1.399 . S
C1057 C1058 1.385 . S
C1058 H1044 0.931 . S
C1058 C1057 1.385 . S
C1058 C1059 1.389 . S
C1059 C1058 1.389 . S
C1059 C1060 1.387 . S
C1060 H1045 0.930 . S
C1060 C1055 1.390 . S
C1060 C1059 1.387 . S
H1061 C1073 0.930 . S
H1062 C1075 0.930 . S
H1063 C1076 0.930 . S
H1064 C1080 0.959 . S
H1065 C1080 0.959 . S
H1066 C1080 0.961 . S
H1067 C1081 0.960 . S
H1068 C1081 0.961 . S
H1069 C1081 0.959 . S
H1070 C1084 0.929 . S
H1071 C1085 0.931 . S
H1072 C1087 0.930 . S
C1073 H1061 0.930 . S
C1073 C1074 1.399 . S
C1073 C1078 1.399 . S
C1074 C1073 1.399 . S
C1074 C1075 1.376 . S
C1075 H1062 0.930 . S
C1075 C1074 1.376 . S
C1075 C1076 1.388 . S
C1076 H1063 0.930 . S
C1076 C1075 1.388 . S
C1076 C1077 1.390 . S
C1077 C1076 1.390 . S
C1077 C1078 1.394 . S
C1077 C1083 1.465 . S
C1078 C1073 1.399 . S
C1078 C1077 1.394 . S
C1078 C1079 1.516 . S
C1079 C1078 1.516 . S
C1079 C1080 1.502 . S
C1079 C1081 1.561 . S
C1079 C1082 1.526 . S
C1080 H1064 0.959 . S
C1080 H1065 0.959 . S
C1080 H1066 0.961 . S
C1080 C1079 1.502 . S
C1081 H1067 0.960 . S
C1081 H1068 0.961 . S
C1081 H1069 0.959 . S
C1081 C1079 1.561 . S
C1082 C1079 1.526 . S
C1082 C1083 1.396 . S
C1082 C1087 1.390 . S
C1083 C1077 1.465 . S
C1083 C1082 1.396 . S
C1083 C1084 1.399 . S
C1084 H1070 0.929 . S
C1084 C1083 1.399 . S
C1084 C1085 1.385 . S
C1085 H1071 0.931 . S
C1085 C1084 1.385 . S
C1085 C1086 1.389 . S
C1086 C1085 1.389 . S
C1086 C1087 1.387 . S
C1087 H1072 0.930 . S
C1087 C1082 1.390 . S
C1087 C1086 1.387 . S
C237 C151 1.519 . S
C249 C11 1.525 . S
C264 C25 1.492 . S
C276 C165 1.505 . S
C291 C123 1.492 . S
C303 C39 1.522 . S
C318 C137 1.529 . S
C330 C53 1.508 . S
C345 C67 1.490 . S
C357 C207 1.509 . S
C372 C221 1.491 . S
C384 C81 1.507 . S
C399 C95 1.491 . S
C411 C179 1.507 . S
C426 C193 1.529 . S
C438 C109 1.502 . S
C453 C145 1.551 . S
C465 C5 1.551 . S
C480 C19 1.551 . S
C492 C159 1.551 . S
C507 C33 1.551 . S
C519 C117 1.551 . S
C534 C47 1.551 . S
C546 C131 1.551 . S
C561 C61 1.551 . S
C573 C201 1.551 . S
C588 C75 1.551 . S
C600 C215 1.551 . S
C615 C173 1.551 . S
C627 C89 1.551 . S
C642 C187 1.551 . S
C654 C103 1.551 . S
C669 C9 1.267 . S
C681 C93 1.264 . S
C696 C23 1.264 . S
C708 C107 1.266 . S
C723 C37 1.269 . S
C735 C65 1.266 . S
C750 C51 1.262 . S
C762 C79 1.264 . S
C777 C121 1.272 . S
C789 C205 1.270 . S
C804 C219 1.211 . S
C816 C135 1.211 . S
C831 C149 1.265 . S
C843 C177 1.262 . S
C858 C191 1.220 . S
C870 C163 1.219 . S
C885 C0 1.269 . S
C897 C210 1.274 . S
C912 C168 1.273 . S
C924 C14 1.270 . S
C939 C182 1.240 . S
C951 C28 1.264 . S
C966 C196 1.211 . S
C978 C42 1.218 . S
C993 C126 1.235 . S
C1005 C56 1.261 . S
C1020 C140 1.211 . S
C1032 C70 1.215 . S
C1047 C84 1.274 . S
C1059 C154 1.268 . S
C1074 C98 1.246 . S
C1086 C112 1.222 . S
