# Generated by pormake.
# Topology kfi, (4)-cn, num edge types: 1
# Building blocks:
#     Node 0, Type 0, BuildingBlock: AZAVOO_clean_sbu_0, # of connection points: 4
#     Node 1, Type 0, BuildingBlock: AZAVOO_clean_sbu_0, # of connection points: 4
#     Node 2, Type 0, BuildingBlock: AZAVOO_clean_sbu_0, # of connection points: 4
#     Node 3, Type 0, BuildingBlock: AZAVOO_clean_sbu_0, # of connection points: 4
#     Node 4, Type 0, BuildingBlock: AZAVOO_clean_sbu_0, # of connection points: 4
#     Node 5, Type 0, BuildingBlock: AZAVOO_clean_sbu_0, # of connection points: 4
#     Node 6, Type 0, BuildingBlock: AZAVOO_clean_sbu_0, # of connection points: 4
#     Node 7, Type 0, BuildingBlock: AZAVOO_clean_sbu_0, # of connection points: 4
#     Node 8, Type 0, BuildingBlock: AZAVOO_clean_sbu_0, # of connection points: 4
#     Node 9, Type 0, BuildingBlock: AZAVOO_clean_sbu_0, # of connection points: 4
#     Node 10, Type 0, BuildingBlock: AZAVOO_clean_sbu_0, # of connection points: 4
#     Node 11, Type 0, BuildingBlock: AZAVOO_clean_sbu_0, # of connection points: 4
#     Node 12, Type 0, BuildingBlock: AZAVOO_clean_sbu_0, # of connection points: 4
#     Node 13, Type 0, BuildingBlock: AZAVOO_clean_sbu_0, # of connection points: 4
#     Node 14, Type 0, BuildingBlock: AZAVOO_clean_sbu_0, # of connection points: 4
#     Node 15, Type 0, BuildingBlock: AZAVOO_clean_sbu_0, # of connection points: 4
#     Node 16, Type 0, BuildingBlock: AZAVOO_clean_sbu_0, # of connection points: 4
#     Node 17, Type 0, BuildingBlock: AZAVOO_clean_sbu_0, # of connection points: 4
#     Node 18, Type 0, BuildingBlock: AZAVOO_clean_sbu_0, # of connection points: 4
#     Node 19, Type 0, BuildingBlock: AZAVOO_clean_sbu_0, # of connection points: 4
#     Node 20, Type 0, BuildingBlock: AZAVOO_clean_sbu_0, # of connection points: 4
#     Node 21, Type 0, BuildingBlock: AZAVOO_clean_sbu_0, # of connection points: 4
#     Node 22, Type 0, BuildingBlock: AZAVOO_clean_sbu_0, # of connection points: 4
#     Node 23, Type 0, BuildingBlock: AZAVOO_clean_sbu_0, # of connection points: 4
#     Node 24, Type 0, BuildingBlock: AZAVOO_clean_sbu_0, # of connection points: 4
#     Node 25, Type 0, BuildingBlock: AZAVOO_clean_sbu_0, # of connection points: 4
#     Node 26, Type 0, BuildingBlock: AZAVOO_clean_sbu_0, # of connection points: 4
#     Node 27, Type 0, BuildingBlock: AZAVOO_clean_sbu_0, # of connection points: 4
#     Node 28, Type 0, BuildingBlock: AZAVOO_clean_sbu_0, # of connection points: 4
#     Node 29, Type 0, BuildingBlock: AZAVOO_clean_sbu_0, # of connection points: 4
#     Node 30, Type 0, BuildingBlock: AZAVOO_clean_sbu_0, # of connection points: 4
#     Node 31, Type 0, BuildingBlock: AZAVOO_clean_sbu_0, # of connection points: 4
#     Node 32, Type 0, BuildingBlock: AZAVOO_clean_sbu_0, # of connection points: 4
#     Node 33, Type 0, BuildingBlock: AZAVOO_clean_sbu_0, # of connection points: 4
#     Node 34, Type 0, BuildingBlock: AZAVOO_clean_sbu_0, # of connection points: 4
#     Node 35, Type 0, BuildingBlock: AZAVOO_clean_sbu_0, # of connection points: 4
#     Node 36, Type 0, BuildingBlock: AZAVOO_clean_sbu_0, # of connection points: 4
#     Node 37, Type 0, BuildingBlock: AZAVOO_clean_sbu_0, # of connection points: 4
#     Node 38, Type 0, BuildingBlock: AZAVOO_clean_sbu_0, # of connection points: 4
#     Node 39, Type 0, BuildingBlock: AZAVOO_clean_sbu_0, # of connection points: 4
#     Node 40, Type 0, BuildingBlock: AZAVOO_clean_sbu_0, # of connection points: 4
#     Node 41, Type 0, BuildingBlock: AZAVOO_clean_sbu_0, # of connection points: 4
#     Node 42, Type 0, BuildingBlock: AZAVOO_clean_sbu_0, # of connection points: 4
#     Node 43, Type 0, BuildingBlock: AZAVOO_clean_sbu_0, # of connection points: 4
#     Node 44, Type 0, BuildingBlock: AZAVOO_clean_sbu_0, # of connection points: 4
#     Node 45, Type 0, BuildingBlock: AZAVOO_clean_sbu_0, # of connection points: 4
#     Node 46, Type 0, BuildingBlock: AZAVOO_clean_sbu_0, # of connection points: 4
#     Node 47, Type 0, BuildingBlock: AZAVOO_clean_sbu_0, # of connection points: 4
#     Node 48, Type 0, BuildingBlock: AZAVOO_clean_sbu_0, # of connection points: 4
#     Node 49, Type 0, BuildingBlock: AZAVOO_clean_sbu_0, # of connection points: 4
#     Node 50, Type 0, BuildingBlock: AZAVOO_clean_sbu_0, # of connection points: 4
#     Node 51, Type 0, BuildingBlock: AZAVOO_clean_sbu_0, # of connection points: 4
#     Node 52, Type 0, BuildingBlock: AZAVOO_clean_sbu_0, # of connection points: 4
#     Node 53, Type 0, BuildingBlock: AZAVOO_clean_sbu_0, # of connection points: 4
#     Node 54, Type 0, BuildingBlock: AZAVOO_clean_sbu_0, # of connection points: 4
#     Node 55, Type 0, BuildingBlock: AZAVOO_clean_sbu_0, # of connection points: 4
#     Node 56, Type 0, BuildingBlock: AZAVOO_clean_sbu_0, # of connection points: 4
#     Node 57, Type 0, BuildingBlock: AZAVOO_clean_sbu_0, # of connection points: 4
#     Node 58, Type 0, BuildingBlock: AZAVOO_clean_sbu_0, # of connection points: 4
#     Node 59, Type 0, BuildingBlock: AZAVOO_clean_sbu_0, # of connection points: 4
#     Node 60, Type 0, BuildingBlock: AZAVOO_clean_sbu_0, # of connection points: 4
#     Node 61, Type 0, BuildingBlock: AZAVOO_clean_sbu_0, # of connection points: 4
#     Node 62, Type 0, BuildingBlock: AZAVOO_clean_sbu_0, # of connection points: 4
#     Node 63, Type 0, BuildingBlock: AZAVOO_clean_sbu_0, # of connection points: 4
#     Node 64, Type 0, BuildingBlock: AZAVOO_clean_sbu_0, # of connection points: 4
#     Node 65, Type 0, BuildingBlock: AZAVOO_clean_sbu_0, # of connection points: 4
#     Node 66, Type 0, BuildingBlock: AZAVOO_clean_sbu_0, # of connection points: 4
#     Node 67, Type 0, BuildingBlock: AZAVOO_clean_sbu_0, # of connection points: 4
#     Node 68, Type 0, BuildingBlock: AZAVOO_clean_sbu_0, # of connection points: 4
#     Node 69, Type 0, BuildingBlock: AZAVOO_clean_sbu_0, # of connection points: 4
#     Node 70, Type 0, BuildingBlock: AZAVOO_clean_sbu_0, # of connection points: 4
#     Node 71, Type 0, BuildingBlock: AZAVOO_clean_sbu_0, # of connection points: 4
#     Node 72, Type 0, BuildingBlock: AZAVOO_clean_sbu_0, # of connection points: 4
#     Node 73, Type 0, BuildingBlock: AZAVOO_clean_sbu_0, # of connection points: 4
#     Node 74, Type 0, BuildingBlock: AZAVOO_clean_sbu_0, # of connection points: 4
#     Node 75, Type 0, BuildingBlock: AZAVOO_clean_sbu_0, # of connection points: 4
#     Node 76, Type 0, BuildingBlock: AZAVOO_clean_sbu_0, # of connection points: 4
#     Node 77, Type 0, BuildingBlock: AZAVOO_clean_sbu_0, # of connection points: 4
#     Node 78, Type 0, BuildingBlock: AZAVOO_clean_sbu_0, # of connection points: 4
#     Node 79, Type 0, BuildingBlock: AZAVOO_clean_sbu_0, # of connection points: 4
#     Node 80, Type 0, BuildingBlock: AZAVOO_clean_sbu_0, # of connection points: 4
#     Node 81, Type 0, BuildingBlock: AZAVOO_clean_sbu_0, # of connection points: 4
#     Node 82, Type 0, BuildingBlock: AZAVOO_clean_sbu_0, # of connection points: 4
#     Node 83, Type 0, BuildingBlock: AZAVOO_clean_sbu_0, # of connection points: 4
#     Node 84, Type 0, BuildingBlock: AZAVOO_clean_sbu_0, # of connection points: 4
#     Node 85, Type 0, BuildingBlock: AZAVOO_clean_sbu_0, # of connection points: 4
#     Node 86, Type 0, BuildingBlock: AZAVOO_clean_sbu_0, # of connection points: 4
#     Node 87, Type 0, BuildingBlock: AZAVOO_clean_sbu_0, # of connection points: 4
#     Node 88, Type 0, BuildingBlock: AZAVOO_clean_sbu_0, # of connection points: 4
#     Node 89, Type 0, BuildingBlock: AZAVOO_clean_sbu_0, # of connection points: 4
#     Node 90, Type 0, BuildingBlock: AZAVOO_clean_sbu_0, # of connection points: 4
#     Node 91, Type 0, BuildingBlock: AZAVOO_clean_sbu_0, # of connection points: 4
#     Node 92, Type 0, BuildingBlock: AZAVOO_clean_sbu_0, # of connection points: 4
#     Node 93, Type 0, BuildingBlock: AZAVOO_clean_sbu_0, # of connection points: 4
#     Node 94, Type 0, BuildingBlock: AZAVOO_clean_sbu_0, # of connection points: 4
#     Node 95, Type 0, BuildingBlock: AZAVOO_clean_sbu_0, # of connection points: 4
#     Edge 96, Type (0, 0), None
#     Edge 97, Type (0, 0), None
#     Edge 98, Type (0, 0), None
#     Edge 99, Type (0, 0), None
#     Edge 100, Type (0, 0), None
#     Edge 101, Type (0, 0), None
#     Edge 102, Type (0, 0), None
#     Edge 103, Type (0, 0), None
#     Edge 104, Type (0, 0), None
#     Edge 105, Type (0, 0), None
#     Edge 106, Type (0, 0), None
#     Edge 107, Type (0, 0), None
#     Edge 108, Type (0, 0), None
#     Edge 109, Type (0, 0), None
#     Edge 110, Type (0, 0), None
#     Edge 111, Type (0, 0), None
#     Edge 112, Type (0, 0), None
#     Edge 113, Type (0, 0), None
#     Edge 114, Type (0, 0), None
#     Edge 115, Type (0, 0), None
#     Edge 116, Type (0, 0), None
#     Edge 117, Type (0, 0), None
#     Edge 118, Type (0, 0), None
#     Edge 119, Type (0, 0), None
#     Edge 120, Type (0, 0), None
#     Edge 121, Type (0, 0), None
#     Edge 122, Type (0, 0), None
#     Edge 123, Type (0, 0), None
#     Edge 124, Type (0, 0), None
#     Edge 125, Type (0, 0), None
#     Edge 126, Type (0, 0), None
#     Edge 127, Type (0, 0), None
#     Edge 128, Type (0, 0), None
#     Edge 129, Type (0, 0), None
#     Edge 130, Type (0, 0), None
#     Edge 131, Type (0, 0), None
#     Edge 132, Type (0, 0), None
#     Edge 133, Type (0, 0), None
#     Edge 134, Type (0, 0), None
#     Edge 135, Type (0, 0), None
#     Edge 136, Type (0, 0), None
#     Edge 137, Type (0, 0), None
#     Edge 138, Type (0, 0), None
#     Edge 139, Type (0, 0), None
#     Edge 140, Type (0, 0), None
#     Edge 141, Type (0, 0), None
#     Edge 142, Type (0, 0), None
#     Edge 143, Type (0, 0), None
#     Edge 144, Type (0, 0), None
#     Edge 145, Type (0, 0), None
#     Edge 146, Type (0, 0), None
#     Edge 147, Type (0, 0), None
#     Edge 148, Type (0, 0), None
#     Edge 149, Type (0, 0), None
#     Edge 150, Type (0, 0), None
#     Edge 151, Type (0, 0), None
#     Edge 152, Type (0, 0), None
#     Edge 153, Type (0, 0), None
#     Edge 154, Type (0, 0), None
#     Edge 155, Type (0, 0), None
#     Edge 156, Type (0, 0), None
#     Edge 157, Type (0, 0), None
#     Edge 158, Type (0, 0), None
#     Edge 159, Type (0, 0), None
#     Edge 160, Type (0, 0), None
#     Edge 161, Type (0, 0), None
#     Edge 162, Type (0, 0), None
#     Edge 163, Type (0, 0), None
#     Edge 164, Type (0, 0), None
#     Edge 165, Type (0, 0), None
#     Edge 166, Type (0, 0), None
#     Edge 167, Type (0, 0), None
#     Edge 168, Type (0, 0), None
#     Edge 169, Type (0, 0), None
#     Edge 170, Type (0, 0), None
#     Edge 171, Type (0, 0), None
#     Edge 172, Type (0, 0), None
#     Edge 173, Type (0, 0), None
#     Edge 174, Type (0, 0), None
#     Edge 175, Type (0, 0), None
#     Edge 176, Type (0, 0), None
#     Edge 177, Type (0, 0), None
#     Edge 178, Type (0, 0), None
#     Edge 179, Type (0, 0), None
#     Edge 180, Type (0, 0), None
#     Edge 181, Type (0, 0), None
#     Edge 182, Type (0, 0), None
#     Edge 183, Type (0, 0), None
#     Edge 184, Type (0, 0), None
#     Edge 185, Type (0, 0), None
#     Edge 186, Type (0, 0), None
#     Edge 187, Type (0, 0), None
#     Edge 188, Type (0, 0), None
#     Edge 189, Type (0, 0), None
#     Edge 190, Type (0, 0), None
#     Edge 191, Type (0, 0), None
#     Edge 192, Type (0, 0), None
#     Edge 193, Type (0, 0), None
#     Edge 194, Type (0, 0), None
#     Edge 195, Type (0, 0), None
#     Edge 196, Type (0, 0), None
#     Edge 197, Type (0, 0), None
#     Edge 198, Type (0, 0), None
#     Edge 199, Type (0, 0), None
#     Edge 200, Type (0, 0), None
#     Edge 201, Type (0, 0), None
#     Edge 202, Type (0, 0), None
#     Edge 203, Type (0, 0), None
#     Edge 204, Type (0, 0), None
#     Edge 205, Type (0, 0), None
#     Edge 206, Type (0, 0), None
#     Edge 207, Type (0, 0), None
#     Edge 208, Type (0, 0), None
#     Edge 209, Type (0, 0), None
#     Edge 210, Type (0, 0), None
#     Edge 211, Type (0, 0), None
#     Edge 212, Type (0, 0), None
#     Edge 213, Type (0, 0), None
#     Edge 214, Type (0, 0), None
#     Edge 215, Type (0, 0), None
#     Edge 216, Type (0, 0), None
#     Edge 217, Type (0, 0), None
#     Edge 218, Type (0, 0), None
#     Edge 219, Type (0, 0), None
#     Edge 220, Type (0, 0), None
#     Edge 221, Type (0, 0), None
#     Edge 222, Type (0, 0), None
#     Edge 223, Type (0, 0), None
#     Edge 224, Type (0, 0), None
#     Edge 225, Type (0, 0), None
#     Edge 226, Type (0, 0), None
#     Edge 227, Type (0, 0), None
#     Edge 228, Type (0, 0), None
#     Edge 229, Type (0, 0), None
#     Edge 230, Type (0, 0), None
#     Edge 231, Type (0, 0), None
#     Edge 232, Type (0, 0), None
#     Edge 233, Type (0, 0), None
#     Edge 234, Type (0, 0), None
#     Edge 235, Type (0, 0), None
#     Edge 236, Type (0, 0), None
#     Edge 237, Type (0, 0), None
#     Edge 238, Type (0, 0), None
#     Edge 239, Type (0, 0), None
#     Edge 240, Type (0, 0), None
#     Edge 241, Type (0, 0), None
#     Edge 242, Type (0, 0), None
#     Edge 243, Type (0, 0), None
#     Edge 244, Type (0, 0), None
#     Edge 245, Type (0, 0), None
#     Edge 246, Type (0, 0), None
#     Edge 247, Type (0, 0), None
#     Edge 248, Type (0, 0), None
#     Edge 249, Type (0, 0), None
#     Edge 250, Type (0, 0), None
#     Edge 251, Type (0, 0), None
#     Edge 252, Type (0, 0), None
#     Edge 253, Type (0, 0), None
#     Edge 254, Type (0, 0), None
#     Edge 255, Type (0, 0), None
#     Edge 256, Type (0, 0), None
#     Edge 257, Type (0, 0), None
#     Edge 258, Type (0, 0), None
#     Edge 259, Type (0, 0), None
#     Edge 260, Type (0, 0), None
#     Edge 261, Type (0, 0), None
#     Edge 262, Type (0, 0), None
#     Edge 263, Type (0, 0), None
#     Edge 264, Type (0, 0), None
#     Edge 265, Type (0, 0), None
#     Edge 266, Type (0, 0), None
#     Edge 267, Type (0, 0), None
#     Edge 268, Type (0, 0), None
#     Edge 269, Type (0, 0), None
#     Edge 270, Type (0, 0), None
#     Edge 271, Type (0, 0), None
#     Edge 272, Type (0, 0), None
#     Edge 273, Type (0, 0), None
#     Edge 274, Type (0, 0), None
#     Edge 275, Type (0, 0), None
#     Edge 276, Type (0, 0), None
#     Edge 277, Type (0, 0), None
#     Edge 278, Type (0, 0), None
#     Edge 279, Type (0, 0), None
#     Edge 280, Type (0, 0), None
#     Edge 281, Type (0, 0), None
#     Edge 282, Type (0, 0), None
#     Edge 283, Type (0, 0), None
#     Edge 284, Type (0, 0), None
#     Edge 285, Type (0, 0), None
#     Edge 286, Type (0, 0), None
#     Edge 287, Type (0, 0), None
# Relax obj value: 0.183
# Max RMSD: 0.165
# Mean RMSD: 0.165
data_MOF--net-kfi--node1-AZAVOO_clean_sbu_0--edge1-none
_symmetry_space_group_name_H-M    P1
_symmetry_Int_Tables_number       1
_symmetry_cell_setting            triclinic
loop_
_symmetry_equiv_pos_as_xyz
'x, y, z'
_cell_length_a     41.252365
_cell_length_b     41.252951
_cell_length_c     41.253498
_cell_angle_alpha  90.000002
_cell_angle_beta   89.999999
_cell_angle_gamma 89.999999
loop_
_atom_site_label
_atom_site_type_symbol
_atom_site_fract_x
_atom_site_fract_y
_atom_site_fract_z
_atom_type_partial_charge
Mg0 Mg 0.06625 0.18489 0.32289 0.0
O1 O 0.08115 0.22022 0.28228 0.0
O2 O 0.1349 0.22265 0.28855 0.0
Mg3 Mg 0.15232 0.19898 0.33615 0.0
C4 C 0.1091 0.22922 0.27262 0.0
C5 C -0.003 0.16091 0.31402 0.0
O6 O 0.00833 0.14289 0.33769 0.0
O7 O 0.09209 0.14414 0.29227 0.0
O8 O 0.14256 0.15363 0.30917 0.0
O9 O 0.05839 0.22704 0.35818 0.0
O10 O 0.10379 0.20001 0.354 0.0
C11 C 0.12244 0.13712 0.29296 0.0
C12 C 0.08828 0.22359 0.36681 0.0
O13 O 0.01625 0.17984 0.29925 0.0
Mg14 Mg 0.78787 0.06624 0.32289 0.0
O15 O 0.75254 0.08114 0.28228 0.0
O16 O 0.75011 0.13489 0.28855 0.0
Mg17 Mg 0.77378 0.15231 0.33615 0.0
C18 C 0.74354 0.10909 0.27262 0.0
C19 C 0.81186 -0.00301 0.31402 0.0
O20 O 0.82987 0.00832 0.3377 0.0
O21 O 0.82862 0.09209 0.29226 0.0
O22 O 0.81913 0.14255 0.30918 0.0
O23 O 0.74572 0.05838 0.35818 0.0
O24 O 0.77275 0.10378 0.354 0.0
C25 C 0.83564 0.12243 0.29296 0.0
C26 C 0.74917 0.08827 0.36681 0.0
O27 O 0.79292 0.01625 0.29925 0.0
Mg28 Mg 0.90652 0.78786 0.32289 0.0
O29 O 0.89162 0.75254 0.28228 0.0
O30 O 0.83786 0.75011 0.28855 0.0
Mg31 Mg 0.82045 0.77377 0.33615 0.0
C32 C 0.86367 0.74354 0.27262 0.0
C33 C 0.97577 0.81185 0.31402 0.0
O34 O 0.96444 0.82986 0.33769 0.0
O35 O 0.88068 0.82861 0.29227 0.0
O36 O 0.83021 0.81913 0.30917 0.0
O37 O 0.91438 0.74571 0.35818 0.0
O38 O 0.86898 0.77274 0.354 0.0
C39 C 0.85033 0.83563 0.29296 0.0
C40 C 0.88449 0.74916 0.36681 0.0
O41 O 0.95652 0.79292 0.29925 0.0
Mg42 Mg 0.1849 0.90651 0.32289 0.0
O43 O 0.22023 0.89161 0.28228 0.0
O44 O 0.22265 0.83786 0.28855 0.0
Mg45 Mg 0.19899 0.82044 0.33615 0.0
C46 C 0.22923 0.86367 0.27262 0.0
C47 C 0.16091 0.97576 0.31402 0.0
O48 O 0.1429 0.96443 0.3377 0.0
O49 O 0.14415 0.88067 0.29226 0.0
O50 O 0.15363 0.8302 0.30918 0.0
O51 O 0.22705 0.91437 0.35818 0.0
O52 O 0.20002 0.86898 0.354 0.0
C53 C 0.13713 0.85032 0.29296 0.0
C54 C 0.2236 0.88449 0.36681 0.0
O55 O 0.17984 0.95651 0.29925 0.0
Mg56 Mg 0.06625 0.78786 0.64985 0.0
O57 O 0.08115 0.75254 0.69046 0.0
O58 O 0.1349 0.75011 0.68419 0.0
Mg59 Mg 0.15232 0.77377 0.63659 0.0
C60 C 0.1091 0.74354 0.70012 0.0
C61 C -0.003 0.81185 0.65873 0.0
O62 O 0.00833 0.82986 0.63505 0.0
O63 O 0.09209 0.82861 0.68048 0.0
O64 O 0.14256 0.81913 0.66357 0.0
O65 O 0.05839 0.74571 0.61456 0.0
O66 O 0.10379 0.77274 0.61874 0.0
C67 C 0.12244 0.83563 0.67978 0.0
C68 C 0.08828 0.74916 0.60593 0.0
O69 O 0.01625 0.79292 0.6735 0.0
Mg70 Mg 0.1849 0.06624 0.64985 0.0
O71 O 0.22023 0.08114 0.69046 0.0
O72 O 0.22265 0.13489 0.68419 0.0
Mg73 Mg 0.19899 0.15231 0.63659 0.0
C74 C 0.22923 0.10909 0.70012 0.0
C75 C 0.16091 -0.00301 0.65872 0.0
O76 O 0.1429 0.00832 0.63504 0.0
O77 O 0.14415 0.09209 0.68048 0.0
O78 O 0.15363 0.14255 0.66357 0.0
O79 O 0.22705 0.05838 0.61456 0.0
O80 O 0.20002 0.10378 0.61874 0.0
C81 C 0.13713 0.12243 0.67978 0.0
C82 C 0.2236 0.08827 0.60593 0.0
O83 O 0.17984 0.01625 0.67349 0.0
Mg84 Mg 0.90652 0.18489 0.64985 0.0
O85 O 0.89162 0.22022 0.69046 0.0
O86 O 0.83786 0.22265 0.68419 0.0
Mg87 Mg 0.82045 0.19898 0.63659 0.0
C88 C 0.86367 0.22922 0.70012 0.0
C89 C 0.97577 0.16091 0.65873 0.0
O90 O 0.96444 0.14289 0.63505 0.0
O91 O 0.88068 0.14414 0.68048 0.0
O92 O 0.83021 0.15363 0.66357 0.0
O93 O 0.91438 0.22704 0.61456 0.0
O94 O 0.86898 0.20001 0.61874 0.0
C95 C 0.85033 0.13712 0.67978 0.0
C96 C 0.88449 0.22359 0.60593 0.0
O97 O 0.95652 0.17984 0.6735 0.0
Mg98 Mg 0.78787 0.90651 0.64985 0.0
O99 O 0.75254 0.89161 0.69046 0.0
O100 O 0.75011 0.83786 0.68419 0.0
Mg101 Mg 0.77378 0.82044 0.63659 0.0
C102 C 0.74354 0.86367 0.70012 0.0
C103 C 0.81186 0.97576 0.65872 0.0
O104 O 0.82987 0.96443 0.63504 0.0
O105 O 0.82862 0.88067 0.68048 0.0
O106 O 0.81913 0.8302 0.66357 0.0
O107 O 0.74572 0.91437 0.61456 0.0
O108 O 0.77275 0.86898 0.61874 0.0
C109 C 0.83564 0.85032 0.67978 0.0
C110 C 0.74917 0.88449 0.60593 0.0
O111 O 0.79292 0.95651 0.67349 0.0
Mg112 Mg 0.3229 0.06624 0.18488 0.0
O113 O 0.28229 0.08114 0.22021 0.0
O114 O 0.28856 0.1349 0.22264 0.0
Mg115 Mg 0.33617 0.15231 0.19897 0.0
C116 C 0.27264 0.10909 0.22921 0.0
C117 C 0.31403 -0.00301 0.1609 0.0
O118 O 0.33771 0.00832 0.14289 0.0
O119 O 0.29228 0.09208 0.14413 0.0
O120 O 0.30918 0.14255 0.15363 0.0
O121 O 0.3582 0.05839 0.22703 0.0
O122 O 0.35402 0.10378 0.2 0.0
C123 C 0.29297 0.12243 0.13712 0.0
C124 C 0.36682 0.08827 0.22358 0.0
O125 O 0.29926 0.01625 0.17983 0.0
Mg126 Mg 0.90652 0.3229 0.18489 0.0
O127 O 0.89162 0.28228 0.22021 0.0
O128 O 0.83786 0.28856 0.22264 0.0
Mg129 Mg 0.82045 0.33616 0.19897 0.0
C130 C 0.86367 0.27263 0.22921 0.0
C131 C 0.97577 0.31402 0.1609 0.0
O132 O 0.96444 0.3377 0.14289 0.0
O133 O 0.88068 0.29227 0.14413 0.0
O134 O 0.83021 0.30918 0.15363 0.0
O135 O 0.91438 0.35819 0.22703 0.0
O136 O 0.86898 0.35401 0.2 0.0
C137 C 0.85033 0.29296 0.13712 0.0
C138 C 0.88449 0.36681 0.22358 0.0
O139 O 0.95652 0.29925 0.17983 0.0
Mg140 Mg 0.64986 0.90651 0.18488 0.0
O141 O 0.69048 0.89161 0.22021 0.0
O142 O 0.6842 0.83786 0.22264 0.0
Mg143 Mg 0.6366 0.82044 0.19897 0.0
C144 C 0.70013 0.86367 0.22921 0.0
C145 C 0.65874 0.97576 0.1609 0.0
O146 O 0.63506 0.96443 0.14289 0.0
O147 O 0.68049 0.88067 0.14413 0.0
O148 O 0.66359 0.83021 0.15363 0.0
O149 O 0.61457 0.91437 0.22703 0.0
O150 O 0.61875 0.86897 0.2 0.0
C151 C 0.6798 0.85032 0.13712 0.0
C152 C 0.60595 0.88448 0.22358 0.0
O153 O 0.67351 0.95651 0.17983 0.0
Mg154 Mg 0.06625 0.64986 0.18489 0.0
O155 O 0.08115 0.69047 0.22021 0.0
O156 O 0.1349 0.6842 0.22264 0.0
Mg157 Mg 0.15232 0.6366 0.19897 0.0
C158 C 0.1091 0.70012 0.22921 0.0
C159 C -0.003 0.65873 0.1609 0.0
O160 O 0.00833 0.63505 0.14289 0.0
O161 O 0.09209 0.68048 0.14413 0.0
O162 O 0.14256 0.66358 0.15363 0.0
O163 O 0.05839 0.61457 0.22703 0.0
O164 O 0.10379 0.61875 0.2 0.0
C165 C 0.12244 0.67979 0.13712 0.0
C166 C 0.08828 0.60594 0.22358 0.0
O167 O 0.01625 0.6735 0.17983 0.0
Mg168 Mg 0.3229 0.90651 0.78786 0.0
O169 O 0.28229 0.89161 0.75253 0.0
O170 O 0.28856 0.83786 0.7501 0.0
Mg171 Mg 0.33617 0.82044 0.77377 0.0
C172 C 0.27264 0.86367 0.74353 0.0
C173 C 0.31403 0.97576 0.81184 0.0
O174 O 0.33771 0.96443 0.82986 0.0
O175 O 0.29228 0.88067 0.82861 0.0
O176 O 0.30918 0.83021 0.81911 0.0
O177 O 0.3582 0.91437 0.74571 0.0
O178 O 0.35402 0.86897 0.77274 0.0
C179 C 0.29297 0.85032 0.83562 0.0
C180 C 0.36682 0.88448 0.74916 0.0
O181 O 0.29926 0.95651 0.79291 0.0
Mg182 Mg 0.06625 0.3229 0.78786 0.0
O183 O 0.08115 0.28228 0.75253 0.0
O184 O 0.1349 0.28856 0.7501 0.0
Mg185 Mg 0.15232 0.33616 0.77377 0.0
C186 C 0.1091 0.27263 0.74353 0.0
C187 C -0.003 0.31402 0.81184 0.0
O188 O 0.00833 0.3377 0.82986 0.0
O189 O 0.09209 0.29227 0.82861 0.0
O190 O 0.14256 0.30918 0.81912 0.0
O191 O 0.05839 0.35819 0.74571 0.0
O192 O 0.10379 0.35401 0.77274 0.0
C193 C 0.12244 0.29296 0.83562 0.0
C194 C 0.08828 0.36681 0.74916 0.0
O195 O 0.01625 0.29925 0.79291 0.0
Mg196 Mg 0.64986 0.06624 0.78786 0.0
O197 O 0.69048 0.08114 0.75253 0.0
O198 O 0.6842 0.1349 0.7501 0.0
Mg199 Mg 0.6366 0.15231 0.77377 0.0
C200 C 0.70013 0.10909 0.74353 0.0
C201 C 0.65874 -0.00301 0.81184 0.0
O202 O 0.63506 0.00832 0.82986 0.0
O203 O 0.68049 0.09208 0.82861 0.0
O204 O 0.66359 0.14255 0.81911 0.0
O205 O 0.61457 0.05839 0.74571 0.0
O206 O 0.61875 0.10378 0.77274 0.0
C207 C 0.6798 0.12243 0.83562 0.0
C208 C 0.60595 0.08827 0.74916 0.0
O209 O 0.67351 0.01625 0.79291 0.0
Mg210 Mg 0.90652 0.64986 0.78786 0.0
O211 O 0.89162 0.69047 0.75253 0.0
O212 O 0.83786 0.6842 0.7501 0.0
Mg213 Mg 0.82045 0.6366 0.77377 0.0
C214 C 0.86367 0.70012 0.74353 0.0
C215 C 0.97577 0.65873 0.81184 0.0
O216 O 0.96444 0.63505 0.82986 0.0
O217 O 0.88068 0.68048 0.82861 0.0
O218 O 0.83021 0.66358 0.81912 0.0
O219 O 0.91438 0.61457 0.74571 0.0
O220 O 0.86898 0.61875 0.77274 0.0
C221 C 0.85033 0.67979 0.83562 0.0
C222 C 0.88449 0.60594 0.74916 0.0
O223 O 0.95652 0.6735 0.79291 0.0
Mg224 Mg 0.1849 0.3229 0.06624 0.0
O225 O 0.22023 0.28228 0.08113 0.0
O226 O 0.22265 0.28855 0.13489 0.0
Mg227 Mg 0.19899 0.33616 0.15231 0.0
C228 C 0.22923 0.27263 0.10908 0.0
C229 C 0.16091 0.31403 -0.00302 0.0
O230 O 0.1429 0.33771 0.00831 0.0
O231 O 0.14415 0.29227 0.09208 0.0
O232 O 0.15364 0.30918 0.14255 0.0
O233 O 0.22705 0.35819 0.05838 0.0
O234 O 0.20002 0.35401 0.10377 0.0
C235 C 0.13713 0.29296 0.12243 0.0
C236 C 0.2236 0.36682 0.08826 0.0
O237 O 0.17984 0.29925 0.01624 0.0
Mg238 Mg 0.1849 0.64986 0.9065 0.0
O239 O 0.22023 0.69047 0.89161 0.0
O240 O 0.22265 0.6842 0.83786 0.0
Mg241 Mg 0.19899 0.6366 0.82044 0.0
C242 C 0.22923 0.70012 0.86366 0.0
C243 C 0.16091 0.65873 0.97576 0.0
O244 O 0.1429 0.63505 0.96443 0.0
O245 O 0.14415 0.68048 0.88066 0.0
O246 O 0.15364 0.66358 0.8302 0.0
O247 O 0.22705 0.61456 0.91436 0.0
O248 O 0.20002 0.61875 0.86897 0.0
C249 C 0.13713 0.67979 0.85031 0.0
C250 C 0.2236 0.60594 0.88448 0.0
O251 O 0.17984 0.6735 0.9565 0.0
Mg252 Mg 0.3229 0.18489 0.9065 0.0
O253 O 0.28229 0.22022 0.89161 0.0
O254 O 0.28856 0.22265 0.83785 0.0
Mg255 Mg 0.33616 0.19898 0.82044 0.0
C256 C 0.27264 0.22922 0.86366 0.0
C257 C 0.31403 0.1609 0.97576 0.0
O258 O 0.33771 0.14289 0.96443 0.0
O259 O 0.29228 0.14414 0.88066 0.0
O260 O 0.30918 0.15363 0.8302 0.0
O261 O 0.3582 0.22704 0.91436 0.0
O262 O 0.35401 0.20001 0.86897 0.0
C263 C 0.29297 0.13712 0.85031 0.0
C264 C 0.36682 0.22359 0.88448 0.0
O265 O 0.29926 0.17984 0.9565 0.0
Mg266 Mg 0.78787 0.3229 0.9065 0.0
O267 O 0.75254 0.28228 0.89161 0.0
O268 O 0.75011 0.28855 0.83786 0.0
Mg269 Mg 0.77378 0.33616 0.82044 0.0
C270 C 0.74354 0.27263 0.86366 0.0
C271 C 0.81186 0.31403 0.97576 0.0
O272 O 0.82987 0.33771 0.96443 0.0
O273 O 0.82862 0.29227 0.88066 0.0
O274 O 0.81913 0.30918 0.8302 0.0
O275 O 0.74572 0.35819 0.91436 0.0
O276 O 0.77275 0.35401 0.86897 0.0
C277 C 0.83564 0.29296 0.85031 0.0
C278 C 0.74917 0.36682 0.88448 0.0
O279 O 0.79293 0.29925 0.9565 0.0
Mg280 Mg 0.64986 0.78786 0.9065 0.0
O281 O 0.69048 0.75254 0.89161 0.0
O282 O 0.68421 0.75011 0.83785 0.0
Mg283 Mg 0.6366 0.77377 0.82044 0.0
C284 C 0.70013 0.74354 0.86366 0.0
C285 C 0.65874 0.81185 0.97576 0.0
O286 O 0.63505 0.82986 0.96443 0.0
O287 O 0.68049 0.82862 0.88066 0.0
O288 O 0.66359 0.81912 0.8302 0.0
O289 O 0.61457 0.74572 0.91436 0.0
O290 O 0.61875 0.77275 0.86897 0.0
C291 C 0.6798 0.83563 0.85031 0.0
C292 C 0.60595 0.74917 0.88448 0.0
O293 O 0.67351 0.79292 0.9565 0.0
Mg294 Mg 0.78787 0.64986 0.06624 0.0
O295 O 0.75254 0.69047 0.08113 0.0
O296 O 0.75011 0.6842 0.13489 0.0
Mg297 Mg 0.77378 0.6366 0.15231 0.0
C298 C 0.74354 0.70012 0.10908 0.0
C299 C 0.81186 0.65873 -0.00302 0.0
O300 O 0.82987 0.63505 0.00831 0.0
O301 O 0.82862 0.68048 0.09208 0.0
O302 O 0.81913 0.66358 0.14255 0.0
O303 O 0.74572 0.61456 0.05838 0.0
O304 O 0.77275 0.61875 0.10377 0.0
C305 C 0.83564 0.67979 0.12243 0.0
C306 C 0.74917 0.60594 0.08826 0.0
O307 O 0.79293 0.6735 0.01624 0.0
Mg308 Mg 0.3229 0.78786 0.06624 0.0
O309 O 0.28229 0.75254 0.08114 0.0
O310 O 0.28856 0.75011 0.13489 0.0
Mg311 Mg 0.33616 0.77377 0.15231 0.0
C312 C 0.27264 0.74354 0.10908 0.0
C313 C 0.31403 0.81185 -0.00302 0.0
O314 O 0.33771 0.82986 0.00831 0.0
O315 O 0.29228 0.82862 0.09208 0.0
O316 O 0.30918 0.81912 0.14254 0.0
O317 O 0.3582 0.74572 0.05838 0.0
O318 O 0.35401 0.77275 0.10377 0.0
C319 C 0.29297 0.83563 0.12243 0.0
C320 C 0.36682 0.74917 0.08826 0.0
O321 O 0.29926 0.79292 0.01624 0.0
Mg322 Mg 0.64986 0.18489 0.06624 0.0
O323 O 0.69048 0.22022 0.08114 0.0
O324 O 0.68421 0.22265 0.13489 0.0
Mg325 Mg 0.6366 0.19898 0.15231 0.0
C326 C 0.70013 0.22922 0.10908 0.0
C327 C 0.65874 0.1609 -0.00302 0.0
O328 O 0.63505 0.14289 0.00831 0.0
O329 O 0.68049 0.14414 0.09208 0.0
O330 O 0.66359 0.15363 0.14254 0.0
O331 O 0.61457 0.22704 0.05838 0.0
O332 O 0.61875 0.20001 0.10377 0.0
C333 C 0.6798 0.13712 0.12243 0.0
C334 C 0.60595 0.22359 0.08826 0.0
O335 O 0.67351 0.17984 0.01624 0.0
Mg336 Mg 0.89393 0.78284 0.67017 0.0
O337 O 0.885 0.74574 0.71365 0.0
O338 O 0.83121 0.73678 0.71531 0.0
Mg339 Mg 0.80777 0.77857 0.69017 0.0
C340 C 0.86012 0.72947 0.72338 0.0
C341 C 0.96173 0.80981 0.66353 0.0
O342 O 0.94287 0.82969 0.64731 0.0
O343 O 0.88632 0.83223 0.69664 0.0
O344 O 0.84472 0.81004 0.71756 0.0
O345 O 0.88742 0.74046 0.63766 0.0
O346 O 0.8461 0.77157 0.65196 0.0
C347 C 0.85676 0.83508 0.70422 0.0
C348 C 0.8566 0.74608 0.63717 0.0
O349 O 0.94888 0.78611 0.67858 0.0
Mg350 Mg 0.18992 0.89392 0.67017 0.0
O351 O 0.22702 0.885 0.71365 0.0
O352 O 0.23598 0.8312 0.71531 0.0
Mg353 Mg 0.19419 0.80777 0.69017 0.0
C354 C 0.24329 0.86011 0.72338 0.0
C355 C 0.16295 0.96172 0.66352 0.0
O356 O 0.14307 0.94286 0.64731 0.0
O357 O 0.14053 0.88632 0.69664 0.0
O358 O 0.16272 0.84472 0.71756 0.0
O359 O 0.2323 0.88741 0.63766 0.0
O360 O 0.20119 0.84609 0.65196 0.0
C361 C 0.13768 0.85675 0.70422 0.0
C362 C 0.22668 0.8566 0.63717 0.0
O363 O 0.18665 0.94887 0.67857 0.0
Mg364 Mg 0.07884 0.18992 0.67017 0.0
O365 O 0.08777 0.22701 0.71365 0.0
O366 O 0.14156 0.23597 0.71531 0.0
Mg367 Mg 0.165 0.19419 0.69017 0.0
C368 C 0.11265 0.24328 0.72338 0.0
C369 C 0.01104 0.16294 0.66353 0.0
O370 O 0.0299 0.14307 0.64731 0.0
O371 O 0.08645 0.14053 0.69664 0.0
O372 O 0.12804 0.16272 0.71756 0.0
O373 O 0.08535 0.23229 0.63766 0.0
O374 O 0.12667 0.20119 0.65196 0.0
C375 C 0.11601 0.13767 0.70422 0.0
C376 C 0.11616 0.22667 0.63717 0.0
O377 O 0.02389 0.18664 0.67858 0.0
Mg378 Mg 0.78284 0.07883 0.67017 0.0
O379 O 0.74575 0.08776 0.71365 0.0
O380 O 0.73679 0.14155 0.71531 0.0
Mg381 Mg 0.77858 0.16499 0.69017 0.0
C382 C 0.72948 0.11264 0.72338 0.0
C383 C 0.80982 0.01104 0.66352 0.0
O384 O 0.8297 0.02989 0.64731 0.0
O385 O 0.83224 0.08644 0.69664 0.0
O386 O 0.81004 0.12804 0.71756 0.0
O387 O 0.74047 0.08534 0.63766 0.0
O388 O 0.77157 0.12666 0.65196 0.0
C389 C 0.83509 0.116 0.70422 0.0
C390 C 0.74609 0.11616 0.63717 0.0
O391 O 0.78612 0.02388 0.67857 0.0
Mg392 Mg 0.89393 0.18992 0.30257 0.0
O393 O 0.885 0.22701 0.25909 0.0
O394 O 0.83121 0.23597 0.25743 0.0
Mg395 Mg 0.80777 0.19419 0.28257 0.0
C396 C 0.86012 0.24328 0.24936 0.0
C397 C 0.96173 0.16294 0.30922 0.0
O398 O 0.94287 0.14307 0.32543 0.0
O399 O 0.88632 0.14053 0.2761 0.0
O400 O 0.84472 0.16272 0.25518 0.0
O401 O 0.88742 0.23229 0.33508 0.0
O402 O 0.8461 0.20119 0.32079 0.0
C403 C 0.85676 0.13767 0.26852 0.0
C404 C 0.8566 0.22667 0.33557 0.0
O405 O 0.94888 0.18664 0.29417 0.0
Mg406 Mg 0.78284 0.89392 0.30257 0.0
O407 O 0.74575 0.885 0.25909 0.0
O408 O 0.73679 0.8312 0.25743 0.0
Mg409 Mg 0.77858 0.80777 0.28257 0.0
C410 C 0.72948 0.86011 0.24936 0.0
C411 C 0.80982 0.96172 0.30922 0.0
O412 O 0.8297 0.94286 0.32543 0.0
O413 O 0.83224 0.88632 0.27611 0.0
O414 O 0.81004 0.84472 0.25518 0.0
O415 O 0.74047 0.88741 0.33508 0.0
O416 O 0.77157 0.84609 0.32079 0.0
C417 C 0.83509 0.85675 0.26852 0.0
C418 C 0.74609 0.8566 0.33557 0.0
O419 O 0.78612 0.94887 0.29417 0.0
Mg420 Mg 0.07884 0.78284 0.30257 0.0
O421 O 0.08777 0.74574 0.25909 0.0
O422 O 0.14156 0.73678 0.25743 0.0
Mg423 Mg 0.165 0.77857 0.28257 0.0
C424 C 0.11265 0.72947 0.24936 0.0
C425 C 0.01104 0.80981 0.30922 0.0
O426 O 0.0299 0.82969 0.32543 0.0
O427 O 0.08645 0.83223 0.2761 0.0
O428 O 0.12804 0.81004 0.25518 0.0
O429 O 0.08535 0.74046 0.33508 0.0
O430 O 0.12667 0.77157 0.32079 0.0
C431 C 0.11601 0.83508 0.26852 0.0
C432 C 0.11616 0.74608 0.33557 0.0
O433 O 0.02389 0.78611 0.29417 0.0
Mg434 Mg 0.18992 0.07883 0.30257 0.0
O435 O 0.22702 0.08776 0.25909 0.0
O436 O 0.23598 0.14155 0.25743 0.0
Mg437 Mg 0.19419 0.16499 0.28257 0.0
C438 C 0.24329 0.11264 0.24936 0.0
C439 C 0.16295 0.01104 0.30922 0.0
O440 O 0.14307 0.02989 0.32543 0.0
O441 O 0.14053 0.08644 0.27611 0.0
O442 O 0.16272 0.12804 0.25518 0.0
O443 O 0.2323 0.08534 0.33508 0.0
O444 O 0.20119 0.12666 0.32079 0.0
C445 C 0.13768 0.116 0.26852 0.0
C446 C 0.22668 0.11616 0.33557 0.0
O447 O 0.18665 0.02388 0.29417 0.0
Mg448 Mg 0.67018 0.89392 0.78283 0.0
O449 O 0.71366 0.885 0.74574 0.0
O450 O 0.71533 0.83121 0.73678 0.0
Mg451 Mg 0.69018 0.80777 0.77856 0.0
C452 C 0.72339 0.86012 0.72947 0.0
C453 C 0.66354 0.96172 0.80981 0.0
O454 O 0.64733 0.94286 0.82968 0.0
O455 O 0.69665 0.88632 0.83222 0.0
O456 O 0.71758 0.84472 0.81003 0.0
O457 O 0.63768 0.88741 0.74046 0.0
O458 O 0.65197 0.84609 0.77156 0.0
C459 C 0.70423 0.85676 0.83508 0.0
C460 C 0.63719 0.8566 0.74608 0.0
O461 O 0.67859 0.94887 0.78611 0.0
Mg462 Mg 0.07884 0.67018 0.78283 0.0
O463 O 0.08777 0.71366 0.74574 0.0
O464 O 0.14156 0.71532 0.73678 0.0
Mg465 Mg 0.165 0.69017 0.77856 0.0
C466 C 0.11265 0.72339 0.72947 0.0
C467 C 0.01104 0.66353 0.8098 0.0
O468 O 0.0299 0.64732 0.82968 0.0
O469 O 0.08645 0.69664 0.83222 0.0
O470 O 0.12804 0.71757 0.81003 0.0
O471 O 0.08535 0.63767 0.74046 0.0
O472 O 0.12667 0.65196 0.77156 0.0
C473 C 0.11601 0.70423 0.83507 0.0
C474 C 0.11617 0.63718 0.74608 0.0
O475 O 0.02389 0.67858 0.78611 0.0
Mg476 Mg 0.30258 0.07884 0.78283 0.0
O477 O 0.25911 0.08776 0.74574 0.0
O478 O 0.25744 0.14155 0.73678 0.0
Mg479 Mg 0.28259 0.16499 0.77856 0.0
C480 C 0.24938 0.11264 0.72947 0.0
C481 C 0.30923 0.01104 0.80981 0.0
O482 O 0.32544 0.02989 0.82968 0.0
O483 O 0.27612 0.08644 0.83222 0.0
O484 O 0.25519 0.12803 0.81003 0.0
O485 O 0.33509 0.08534 0.74046 0.0
O486 O 0.3208 0.12666 0.77156 0.0
C487 C 0.26854 0.116 0.83508 0.0
C488 C 0.33558 0.11616 0.74608 0.0
O489 O 0.29418 0.02388 0.78611 0.0
Mg490 Mg 0.89393 0.30258 0.78283 0.0
O491 O 0.885 0.2591 0.74574 0.0
O492 O 0.83121 0.25743 0.73678 0.0
Mg493 Mg 0.80777 0.28258 0.77856 0.0
C494 C 0.86012 0.24937 0.72947 0.0
C495 C 0.96172 0.30922 0.8098 0.0
O496 O 0.94287 0.32543 0.82968 0.0
O497 O 0.88632 0.27611 0.83222 0.0
O498 O 0.84472 0.25518 0.81003 0.0
O499 O 0.88742 0.33508 0.74046 0.0
O500 O 0.8461 0.32079 0.77156 0.0
C501 C 0.85676 0.26853 0.83507 0.0
C502 C 0.8566 0.33557 0.74608 0.0
O503 O 0.94888 0.29417 0.78611 0.0
Mg504 Mg 0.67018 0.07884 0.18991 0.0
O505 O 0.71366 0.08776 0.227 0.0
O506 O 0.71533 0.14155 0.23596 0.0
Mg507 Mg 0.69018 0.16499 0.19418 0.0
C508 C 0.72339 0.11264 0.24327 0.0
C509 C 0.66354 0.01104 0.16294 0.0
O510 O 0.64733 0.02989 0.14306 0.0
O511 O 0.69665 0.08644 0.14052 0.0
O512 O 0.71758 0.12803 0.16271 0.0
O513 O 0.63768 0.08534 0.23228 0.0
O514 O 0.65197 0.12666 0.20118 0.0
C515 C 0.70423 0.116 0.13767 0.0
C516 C 0.63719 0.11616 0.22666 0.0
O517 O 0.67859 0.02388 0.18663 0.0
Mg518 Mg 0.89393 0.67018 0.18991 0.0
O519 O 0.885 0.71366 0.22701 0.0
O520 O 0.83121 0.71532 0.23596 0.0
Mg521 Mg 0.80777 0.69017 0.19418 0.0
C522 C 0.86012 0.72339 0.24327 0.0
C523 C 0.96172 0.66353 0.16294 0.0
O524 O 0.94287 0.64732 0.14306 0.0
O525 O 0.88632 0.69664 0.14052 0.0
O526 O 0.84472 0.71757 0.16271 0.0
O527 O 0.88742 0.63767 0.23228 0.0
O528 O 0.8461 0.65196 0.20118 0.0
C529 C 0.85676 0.70423 0.13767 0.0
C530 C 0.8566 0.63718 0.22666 0.0
O531 O 0.94888 0.67858 0.18663 0.0
Mg532 Mg 0.30258 0.89392 0.18991 0.0
O533 O 0.25911 0.885 0.227 0.0
O534 O 0.25744 0.83121 0.23596 0.0
Mg535 Mg 0.28259 0.80777 0.19418 0.0
C536 C 0.24938 0.86012 0.24327 0.0
C537 C 0.30923 0.96172 0.16294 0.0
O538 O 0.32544 0.94286 0.14306 0.0
O539 O 0.27612 0.88632 0.14052 0.0
O540 O 0.25519 0.84472 0.16271 0.0
O541 O 0.33509 0.88741 0.23228 0.0
O542 O 0.3208 0.84609 0.20118 0.0
C543 C 0.26854 0.85676 0.13767 0.0
C544 C 0.33558 0.8566 0.22666 0.0
O545 O 0.29418 0.94887 0.18663 0.0
Mg546 Mg 0.07884 0.30258 0.18991 0.0
O547 O 0.08777 0.2591 0.22701 0.0
O548 O 0.14156 0.25743 0.23596 0.0
Mg549 Mg 0.165 0.28258 0.19418 0.0
C550 C 0.11265 0.24937 0.24327 0.0
C551 C 0.01104 0.30922 0.16294 0.0
O552 O 0.0299 0.32543 0.14306 0.0
O553 O 0.08645 0.27611 0.14052 0.0
O554 O 0.12804 0.25518 0.16271 0.0
O555 O 0.08535 0.33508 0.23228 0.0
O556 O 0.12667 0.32079 0.20118 0.0
C557 C 0.11601 0.26853 0.13767 0.0
C558 C 0.11617 0.33557 0.22666 0.0
O559 O 0.02389 0.29417 0.18663 0.0
Mg560 Mg 0.78285 0.67018 0.89391 0.0
O561 O 0.74575 0.71366 0.88499 0.0
O562 O 0.73679 0.71532 0.8312 0.0
Mg563 Mg 0.77858 0.69018 0.80776 0.0
C564 C 0.72948 0.72339 0.86011 0.0
C565 C 0.80982 0.66353 0.96171 0.0
O566 O 0.8297 0.64732 0.94286 0.0
O567 O 0.83224 0.69664 0.88631 0.0
O568 O 0.81004 0.71757 0.84471 0.0
O569 O 0.74047 0.63767 0.88741 0.0
O570 O 0.77158 0.65196 0.84609 0.0
C571 C 0.83509 0.70422 0.85675 0.0
C572 C 0.74609 0.63718 0.85659 0.0
O573 O 0.78612 0.67858 0.94886 0.0
Mg574 Mg 0.78285 0.30258 0.07883 0.0
O575 O 0.74575 0.2591 0.08775 0.0
O576 O 0.73679 0.25744 0.14154 0.0
Mg577 Mg 0.77858 0.28258 0.16498 0.0
C578 C 0.72948 0.24937 0.11263 0.0
C579 C 0.80982 0.30923 0.01103 0.0
O580 O 0.8297 0.32544 0.02989 0.0
O581 O 0.83224 0.27611 0.08643 0.0
O582 O 0.81004 0.25518 0.12803 0.0
O583 O 0.74047 0.33509 0.08533 0.0
O584 O 0.77158 0.32079 0.12666 0.0
C585 C 0.83509 0.26853 0.11599 0.0
C586 C 0.74609 0.33558 0.11615 0.0
O587 O 0.78612 0.29418 0.02388 0.0
Mg588 Mg 0.67018 0.78284 0.07883 0.0
O589 O 0.71366 0.74574 0.08775 0.0
O590 O 0.71533 0.73679 0.14154 0.0
Mg591 Mg 0.69018 0.77857 0.16498 0.0
C592 C 0.72339 0.72948 0.11263 0.0
C593 C 0.66353 0.80981 0.01103 0.0
O594 O 0.64732 0.82969 0.02989 0.0
O595 O 0.69665 0.83223 0.08643 0.0
O596 O 0.71758 0.81004 0.12803 0.0
O597 O 0.63768 0.74047 0.08533 0.0
O598 O 0.65197 0.77157 0.12666 0.0
C599 C 0.70423 0.83508 0.11599 0.0
C600 C 0.63719 0.74609 0.11615 0.0
O601 O 0.67859 0.78612 0.02388 0.0
Mg602 Mg 0.18992 0.67018 0.07883 0.0
O603 O 0.22702 0.71366 0.08775 0.0
O604 O 0.23598 0.71532 0.14154 0.0
Mg605 Mg 0.19419 0.69018 0.16498 0.0
C606 C 0.24329 0.72339 0.11263 0.0
C607 C 0.16295 0.66353 0.01103 0.0
O608 O 0.14307 0.64732 0.02989 0.0
O609 O 0.14053 0.69664 0.08643 0.0
O610 O 0.16272 0.71757 0.12803 0.0
O611 O 0.2323 0.63767 0.08533 0.0
O612 O 0.20119 0.65196 0.12666 0.0
C613 C 0.13768 0.70422 0.11599 0.0
C614 C 0.22668 0.63718 0.11615 0.0
O615 O 0.18665 0.67858 0.02388 0.0
Mg616 Mg 0.30258 0.18991 0.07883 0.0
O617 O 0.25911 0.22701 0.08775 0.0
O618 O 0.25744 0.23597 0.14154 0.0
Mg619 Mg 0.28259 0.19418 0.16498 0.0
C620 C 0.24938 0.24328 0.11263 0.0
C621 C 0.30923 0.16294 0.01103 0.0
O622 O 0.32545 0.14306 0.02989 0.0
O623 O 0.27612 0.14052 0.08643 0.0
O624 O 0.25519 0.16272 0.12803 0.0
O625 O 0.33509 0.23229 0.08533 0.0
O626 O 0.3208 0.20118 0.12666 0.0
C627 C 0.26854 0.13767 0.11599 0.0
C628 C 0.33558 0.22667 0.11615 0.0
O629 O 0.29418 0.18664 0.02388 0.0
Mg630 Mg 0.18992 0.30258 0.89391 0.0
O631 O 0.22702 0.2591 0.88499 0.0
O632 O 0.23598 0.25744 0.8312 0.0
Mg633 Mg 0.19419 0.28258 0.80776 0.0
C634 C 0.24329 0.24937 0.86011 0.0
C635 C 0.16295 0.30923 0.96171 0.0
O636 O 0.14307 0.32544 0.94286 0.0
O637 O 0.14053 0.27611 0.88631 0.0
O638 O 0.16272 0.25518 0.84471 0.0
O639 O 0.2323 0.33509 0.88741 0.0
O640 O 0.20119 0.32079 0.84609 0.0
C641 C 0.13768 0.26853 0.85675 0.0
C642 C 0.22668 0.33558 0.85659 0.0
O643 O 0.18665 0.29418 0.94886 0.0
Mg644 Mg 0.67018 0.18991 0.89391 0.0
O645 O 0.71366 0.22701 0.88499 0.0
O646 O 0.71533 0.23597 0.8312 0.0
Mg647 Mg 0.69018 0.19418 0.80776 0.0
C648 C 0.72339 0.24328 0.86011 0.0
C649 C 0.66353 0.16294 0.96171 0.0
O650 O 0.64732 0.14306 0.94286 0.0
O651 O 0.69665 0.14052 0.88631 0.0
O652 O 0.71758 0.16272 0.84472 0.0
O653 O 0.63768 0.23229 0.88741 0.0
O654 O 0.65197 0.20118 0.84609 0.0
C655 C 0.70423 0.13767 0.85675 0.0
C656 C 0.63719 0.22667 0.85659 0.0
O657 O 0.67859 0.18664 0.94886 0.0
Mg658 Mg 0.30258 0.78284 0.89391 0.0
O659 O 0.25911 0.74574 0.88499 0.0
O660 O 0.25744 0.73679 0.8312 0.0
Mg661 Mg 0.28259 0.77857 0.80776 0.0
C662 C 0.24938 0.72948 0.86011 0.0
C663 C 0.30923 0.80981 0.96171 0.0
O664 O 0.32545 0.82969 0.94286 0.0
O665 O 0.27612 0.83223 0.88631 0.0
O666 O 0.25519 0.81004 0.84472 0.0
O667 O 0.33509 0.74047 0.88741 0.0
O668 O 0.3208 0.77157 0.84609 0.0
C669 C 0.26854 0.83508 0.85675 0.0
C670 C 0.33558 0.74609 0.85659 0.0
O671 O 0.29418 0.78612 0.94886 0.0
Mg672 Mg 0.56625 0.68488 0.82289 0.0
O673 O 0.58115 0.72021 0.78227 0.0
O674 O 0.6349 0.72268 0.78856 0.0
Mg675 Mg 0.65232 0.699 0.83615 0.0
C676 C 0.60909 0.72923 0.77263 0.0
C677 C 0.49699 0.6609 0.81402 0.0
O678 O 0.50832 0.64289 0.83771 0.0
O679 O 0.59208 0.64412 0.79228 0.0
O680 O 0.64255 0.65368 0.80913 0.0
O681 O 0.55838 0.72704 0.85817 0.0
O682 O 0.60378 0.70001 0.854 0.0
C683 C 0.62244 0.63714 0.79295 0.0
C684 C 0.58827 0.7236 0.86679 0.0
O685 O 0.51625 0.67983 0.79925 0.0
Mg686 Mg 0.28788 0.56624 0.82289 0.0
O687 O 0.25255 0.58114 0.78227 0.0
O688 O 0.25009 0.63489 0.78856 0.0
Mg689 Mg 0.27376 0.65231 0.83615 0.0
C690 C 0.24353 0.60908 0.77263 0.0
C691 C 0.31187 0.49699 0.81402 0.0
O692 O 0.32987 0.50832 0.83771 0.0
O693 O 0.32864 0.59207 0.79228 0.0
O694 O 0.31908 0.64254 0.80913 0.0
O695 O 0.24572 0.55837 0.85817 0.0
O696 O 0.27275 0.60378 0.854 0.0
C697 C 0.33562 0.62243 0.79295 0.0
C698 C 0.24916 0.58826 0.86679 0.0
O699 O 0.29294 0.51624 0.79925 0.0
Mg700 Mg 0.40652 0.28787 0.82289 0.0
O701 O 0.39162 0.25255 0.78227 0.0
O702 O 0.33787 0.25008 0.78856 0.0
Mg703 Mg 0.32045 0.27375 0.83615 0.0
C704 C 0.36368 0.24353 0.77263 0.0
C705 C 0.47578 0.31186 0.81402 0.0
O706 O 0.46445 0.32987 0.83771 0.0
O707 O 0.38069 0.32864 0.79228 0.0
O708 O 0.33022 0.31907 0.80913 0.0
O709 O 0.41439 0.24572 0.85817 0.0
O710 O 0.36898 0.27274 0.854 0.0
C711 C 0.35033 0.33561 0.79295 0.0
C712 C 0.3845 0.24915 0.86679 0.0
O713 O 0.45652 0.29293 0.79925 0.0
Mg714 Mg 0.68489 0.40651 0.82289 0.0
O715 O 0.72022 0.39162 0.78227 0.0
O716 O 0.72268 0.33787 0.78856 0.0
Mg717 Mg 0.69901 0.32044 0.83615 0.0
C718 C 0.72924 0.36367 0.77263 0.0
C719 C 0.6609 0.47577 0.81402 0.0
O720 O 0.6429 0.46444 0.83771 0.0
O721 O 0.64413 0.38068 0.79228 0.0
O722 O 0.65369 0.33021 0.80913 0.0
O723 O 0.72704 0.41438 0.85817 0.0
O724 O 0.70002 0.36898 0.854 0.0
C725 C 0.63715 0.35032 0.79295 0.0
C726 C 0.72361 0.38449 0.86679 0.0
O727 O 0.67983 0.45651 0.79925 0.0
Mg728 Mg 0.56625 0.28787 0.14985 0.0
O729 O 0.58115 0.25255 0.19047 0.0
O730 O 0.6349 0.25008 0.18418 0.0
Mg731 Mg 0.65232 0.27375 0.13659 0.0
C732 C 0.60909 0.24353 0.20011 0.0
C733 C 0.49699 0.31186 0.15872 0.0
O734 O 0.50832 0.32987 0.13503 0.0
O735 O 0.59208 0.32864 0.18047 0.0
O736 O 0.64255 0.31907 0.16361 0.0
O737 O 0.55838 0.24572 0.11457 0.0
O738 O 0.60378 0.27274 0.11874 0.0
C739 C 0.62244 0.33561 0.1798 0.0
C740 C 0.58827 0.24915 0.10595 0.0
O741 O 0.51625 0.29293 0.17349 0.0
Mg742 Mg 0.68489 0.56624 0.14985 0.0
O743 O 0.72022 0.58114 0.19047 0.0
O744 O 0.72268 0.63489 0.18418 0.0
Mg745 Mg 0.69901 0.65231 0.13659 0.0
C746 C 0.72924 0.60908 0.20011 0.0
C747 C 0.6609 0.49699 0.15872 0.0
O748 O 0.6429 0.50832 0.13503 0.0
O749 O 0.64413 0.59207 0.18047 0.0
O750 O 0.65369 0.64254 0.16361 0.0
O751 O 0.72704 0.55837 0.11457 0.0
O752 O 0.70002 0.60378 0.11874 0.0
C753 C 0.63715 0.62243 0.1798 0.0
C754 C 0.72361 0.58826 0.10595 0.0
O755 O 0.67983 0.51624 0.17349 0.0
Mg756 Mg 0.40652 0.68488 0.14985 0.0
O757 O 0.39162 0.72021 0.19047 0.0
O758 O 0.33787 0.72268 0.18418 0.0
Mg759 Mg 0.32045 0.699 0.13659 0.0
C760 C 0.36368 0.72923 0.20011 0.0
C761 C 0.47578 0.6609 0.15872 0.0
O762 O 0.46445 0.64289 0.13503 0.0
O763 O 0.38069 0.64412 0.18047 0.0
O764 O 0.33022 0.65368 0.16361 0.0
O765 O 0.41439 0.72704 0.11457 0.0
O766 O 0.36898 0.70001 0.11874 0.0
C767 C 0.35033 0.63714 0.1798 0.0
C768 C 0.3845 0.7236 0.10595 0.0
O769 O 0.45652 0.67983 0.17349 0.0
Mg770 Mg 0.28788 0.40651 0.14985 0.0
O771 O 0.25255 0.39162 0.19047 0.0
O772 O 0.25009 0.33787 0.18418 0.0
Mg773 Mg 0.27376 0.32044 0.13659 0.0
C774 C 0.24353 0.36367 0.20011 0.0
C775 C 0.31187 0.47577 0.15872 0.0
O776 O 0.32987 0.46444 0.13503 0.0
O777 O 0.32864 0.38068 0.18047 0.0
O778 O 0.31908 0.33021 0.16361 0.0
O779 O 0.24572 0.41438 0.11457 0.0
O780 O 0.27275 0.36898 0.11874 0.0
C781 C 0.33562 0.35032 0.1798 0.0
C782 C 0.24916 0.38449 0.10595 0.0
O783 O 0.29294 0.45651 0.17349 0.0
Mg784 Mg 0.8229 0.56624 0.68488 0.0
O785 O 0.78228 0.58114 0.7202 0.0
O786 O 0.78858 0.63489 0.72267 0.0
Mg787 Mg 0.83617 0.65232 0.69899 0.0
C788 C 0.77264 0.60908 0.72922 0.0
C789 C 0.81404 0.49699 0.66089 0.0
O790 O 0.83772 0.50832 0.64288 0.0
O791 O 0.79229 0.59207 0.64411 0.0
O792 O 0.80914 0.64254 0.65368 0.0
O793 O 0.85818 0.55838 0.72703 0.0
O794 O 0.85401 0.60378 0.70001 0.0
C795 C 0.79296 0.62243 0.63713 0.0
C796 C 0.8668 0.58826 0.72359 0.0
O797 O 0.79926 0.51624 0.67982 0.0
Mg798 Mg 0.40652 0.8229 0.68488 0.0
O799 O 0.39162 0.78227 0.7202 0.0
O800 O 0.33787 0.78857 0.72267 0.0
Mg801 Mg 0.32045 0.83616 0.69899 0.0
C802 C 0.36368 0.77264 0.72922 0.0
C803 C 0.47578 0.81403 0.66089 0.0
O804 O 0.46445 0.83771 0.64288 0.0
O805 O 0.38069 0.79228 0.64411 0.0
O806 O 0.33022 0.80913 0.65368 0.0
O807 O 0.41439 0.85818 0.72703 0.0
O808 O 0.36898 0.85401 0.70001 0.0
C809 C 0.35033 0.79295 0.63713 0.0
C810 C 0.3845 0.86679 0.72359 0.0
O811 O 0.45652 0.79926 0.67982 0.0
Mg812 Mg 0.14986 0.40651 0.68488 0.0
O813 O 0.19049 0.39161 0.7202 0.0
O814 O 0.18419 0.33787 0.72267 0.0
Mg815 Mg 0.1366 0.32044 0.69899 0.0
C816 C 0.20013 0.36367 0.72922 0.0
C817 C 0.15873 0.47577 0.66089 0.0
O818 O 0.13504 0.46444 0.64288 0.0
O819 O 0.18048 0.38068 0.64411 0.0
O820 O 0.16363 0.33022 0.65368 0.0
O821 O 0.11458 0.41438 0.72703 0.0
O822 O 0.11876 0.36898 0.70001 0.0
C823 C 0.17981 0.35032 0.63713 0.0
C824 C 0.10597 0.38449 0.72359 0.0
O825 O 0.17351 0.45651 0.67982 0.0
Mg826 Mg 0.56625 0.14986 0.68488 0.0
O827 O 0.58115 0.19048 0.7202 0.0
O828 O 0.6349 0.18419 0.72267 0.0
Mg829 Mg 0.65232 0.1366 0.69899 0.0
C830 C 0.60909 0.20012 0.72922 0.0
C831 C 0.49699 0.15872 0.66089 0.0
O832 O 0.50832 0.13504 0.64288 0.0
O833 O 0.59208 0.18047 0.64411 0.0
O834 O 0.64254 0.16362 0.65368 0.0
O835 O 0.55838 0.11458 0.72703 0.0
O836 O 0.60379 0.11875 0.70001 0.0
C837 C 0.62244 0.1798 0.63713 0.0
C838 C 0.58827 0.10596 0.72359 0.0
O839 O 0.51625 0.1735 0.67982 0.0
Mg840 Mg 0.8229 0.40651 0.28787 0.0
O841 O 0.78228 0.39161 0.25254 0.0
O842 O 0.78858 0.33787 0.25007 0.0
Mg843 Mg 0.83617 0.32044 0.27375 0.0
C844 C 0.77264 0.36367 0.24352 0.0
C845 C 0.81404 0.47577 0.31185 0.0
O846 O 0.83772 0.46444 0.32986 0.0
O847 O 0.79229 0.38068 0.32863 0.0
O848 O 0.80914 0.33022 0.31906 0.0
O849 O 0.85818 0.41438 0.24571 0.0
O850 O 0.85401 0.36898 0.27274 0.0
C851 C 0.79296 0.35032 0.33561 0.0
C852 C 0.8668 0.38449 0.24915 0.0
O853 O 0.79926 0.45651 0.29293 0.0
Mg854 Mg 0.56625 0.8229 0.28786 0.0
O855 O 0.58115 0.78227 0.25254 0.0
O856 O 0.6349 0.78857 0.25007 0.0
Mg857 Mg 0.65232 0.83616 0.27375 0.0
C858 C 0.60909 0.77264 0.24352 0.0
C859 C 0.49699 0.81403 0.31185 0.0
O860 O 0.50832 0.83771 0.32986 0.0
O861 O 0.59208 0.79228 0.32863 0.0
O862 O 0.64254 0.80913 0.31906 0.0
O863 O 0.55838 0.85818 0.24571 0.0
O864 O 0.60379 0.85401 0.27273 0.0
C865 C 0.62244 0.79295 0.33561 0.0
C866 C 0.58827 0.86679 0.24915 0.0
O867 O 0.51625 0.79926 0.29292 0.0
Mg868 Mg 0.14986 0.56624 0.28787 0.0
O869 O 0.19049 0.58114 0.25254 0.0
O870 O 0.18419 0.63489 0.25007 0.0
Mg871 Mg 0.1366 0.65232 0.27375 0.0
C872 C 0.20013 0.60908 0.24352 0.0
C873 C 0.15873 0.49699 0.31185 0.0
O874 O 0.13504 0.50832 0.32986 0.0
O875 O 0.18048 0.59207 0.32863 0.0
O876 O 0.16363 0.64254 0.31906 0.0
O877 O 0.11458 0.55838 0.24571 0.0
O878 O 0.11876 0.60378 0.27274 0.0
C879 C 0.17981 0.62243 0.33561 0.0
C880 C 0.10597 0.58826 0.24915 0.0
O881 O 0.17351 0.51624 0.29293 0.0
Mg882 Mg 0.40652 0.14986 0.28786 0.0
O883 O 0.39162 0.19048 0.25254 0.0
O884 O 0.33787 0.18419 0.25007 0.0
Mg885 Mg 0.32045 0.1366 0.27375 0.0
C886 C 0.36368 0.20012 0.24352 0.0
C887 C 0.47578 0.15872 0.31185 0.0
O888 O 0.46445 0.13504 0.32986 0.0
O889 O 0.38069 0.18047 0.32863 0.0
O890 O 0.33022 0.16362 0.31906 0.0
O891 O 0.41439 0.11458 0.24571 0.0
O892 O 0.36898 0.11875 0.27273 0.0
C893 C 0.35033 0.1798 0.33561 0.0
C894 C 0.3845 0.10596 0.24915 0.0
O895 O 0.45652 0.1735 0.29292 0.0
Mg896 Mg 0.68489 0.8229 0.56623 0.0
O897 O 0.72021 0.78228 0.58113 0.0
O898 O 0.72268 0.78857 0.63488 0.0
Mg899 Mg 0.69901 0.83616 0.65231 0.0
C900 C 0.72924 0.77263 0.60907 0.0
C901 C 0.6609 0.81403 0.49698 0.0
O902 O 0.6429 0.83772 0.50831 0.0
O903 O 0.64412 0.79228 0.59207 0.0
O904 O 0.65369 0.80914 0.64253 0.0
O905 O 0.72704 0.85818 0.55837 0.0
O906 O 0.70002 0.85401 0.60377 0.0
C907 C 0.63715 0.79295 0.62243 0.0
C908 C 0.72361 0.8668 0.58825 0.0
O909 O 0.67983 0.79926 0.51624 0.0
Mg910 Mg 0.68489 0.14986 0.40651 0.0
O911 O 0.72021 0.19048 0.39161 0.0
O912 O 0.72268 0.18419 0.33786 0.0
Mg913 Mg 0.69901 0.1366 0.32043 0.0
C914 C 0.72924 0.20012 0.36367 0.0
C915 C 0.6609 0.15872 0.47576 0.0
O916 O 0.6429 0.13504 0.46443 0.0
O917 O 0.64412 0.18047 0.38067 0.0
O918 O 0.65369 0.16362 0.33021 0.0
O919 O 0.72704 0.11457 0.41437 0.0
O920 O 0.70002 0.11875 0.36897 0.0
C921 C 0.63715 0.1798 0.35032 0.0
C922 C 0.72361 0.10596 0.38449 0.0
O923 O 0.67983 0.1735 0.45651 0.0
Mg924 Mg 0.8229 0.68488 0.40651 0.0
O925 O 0.78228 0.7202 0.39161 0.0
O926 O 0.78858 0.72268 0.33786 0.0
Mg927 Mg 0.83617 0.699 0.32043 0.0
C928 C 0.77264 0.72923 0.36367 0.0
C929 C 0.81404 0.6609 0.47576 0.0
O930 O 0.83773 0.64289 0.46443 0.0
O931 O 0.79229 0.64411 0.38068 0.0
O932 O 0.80914 0.65369 0.33021 0.0
O933 O 0.85819 0.72704 0.41437 0.0
O934 O 0.85401 0.70001 0.36897 0.0
C935 C 0.79296 0.63714 0.35032 0.0
C936 C 0.8668 0.7236 0.38449 0.0
O937 O 0.79926 0.67982 0.45651 0.0
Mg938 Mg 0.28788 0.8229 0.40651 0.0
O939 O 0.25255 0.78228 0.39161 0.0
O940 O 0.25009 0.78857 0.33786 0.0
Mg941 Mg 0.27376 0.83616 0.32043 0.0
C942 C 0.24353 0.77263 0.36367 0.0
C943 C 0.31187 0.81403 0.47576 0.0
O944 O 0.32987 0.83772 0.46443 0.0
O945 O 0.32864 0.79228 0.38067 0.0
O946 O 0.31908 0.80914 0.33021 0.0
O947 O 0.24573 0.85818 0.41437 0.0
O948 O 0.27275 0.85401 0.36897 0.0
C949 C 0.33562 0.79295 0.35032 0.0
C950 C 0.24916 0.8668 0.38449 0.0
O951 O 0.29294 0.79926 0.45651 0.0
Mg952 Mg 0.14986 0.28787 0.40651 0.0
O953 O 0.19049 0.25255 0.39161 0.0
O954 O 0.18419 0.25008 0.33786 0.0
Mg955 Mg 0.1366 0.27375 0.32043 0.0
C956 C 0.20013 0.24353 0.36367 0.0
C957 C 0.15873 0.31186 0.47576 0.0
O958 O 0.13504 0.32987 0.46443 0.0
O959 O 0.18048 0.32864 0.38068 0.0
O960 O 0.16363 0.31907 0.33021 0.0
O961 O 0.11458 0.24572 0.41437 0.0
O962 O 0.11876 0.27274 0.36897 0.0
C963 C 0.17981 0.33561 0.35032 0.0
C964 C 0.10597 0.24916 0.38449 0.0
O965 O 0.1735 0.29293 0.45651 0.0
Mg966 Mg 0.28788 0.14986 0.56623 0.0
O967 O 0.25255 0.19048 0.58113 0.0
O968 O 0.25009 0.18419 0.63488 0.0
Mg969 Mg 0.27376 0.1366 0.65231 0.0
C970 C 0.24353 0.20012 0.60907 0.0
C971 C 0.31187 0.15872 0.49698 0.0
O972 O 0.32987 0.13504 0.50831 0.0
O973 O 0.32864 0.18047 0.59207 0.0
O974 O 0.31908 0.16362 0.64253 0.0
O975 O 0.24573 0.11457 0.55837 0.0
O976 O 0.27275 0.11875 0.60377 0.0
C977 C 0.33562 0.1798 0.62243 0.0
C978 C 0.24916 0.10596 0.58825 0.0
O979 O 0.29294 0.1735 0.51624 0.0
Mg980 Mg 0.8229 0.28787 0.56623 0.0
O981 O 0.78228 0.25255 0.58113 0.0
O982 O 0.78858 0.25008 0.63488 0.0
Mg983 Mg 0.83617 0.27375 0.65231 0.0
C984 C 0.77264 0.24353 0.60907 0.0
C985 C 0.81404 0.31186 0.49698 0.0
O986 O 0.83773 0.32987 0.50831 0.0
O987 O 0.79229 0.32864 0.59207 0.0
O988 O 0.80914 0.31907 0.64253 0.0
O989 O 0.85819 0.24572 0.55837 0.0
O990 O 0.85401 0.27274 0.60377 0.0
C991 C 0.79296 0.33561 0.62243 0.0
C992 C 0.8668 0.24916 0.58826 0.0
O993 O 0.79926 0.29293 0.51624 0.0
Mg994 Mg 0.14986 0.68488 0.56623 0.0
O995 O 0.19049 0.7202 0.58113 0.0
O996 O 0.18419 0.72268 0.63488 0.0
Mg997 Mg 0.1366 0.699 0.65231 0.0
C998 C 0.20013 0.72923 0.60907 0.0
C999 C 0.15873 0.6609 0.49698 0.0
O1000 O 0.13504 0.64289 0.50831 0.0
O1001 O 0.18048 0.64411 0.59207 0.0
O1002 O 0.16363 0.65369 0.64253 0.0
O1003 O 0.11458 0.72704 0.55837 0.0
O1004 O 0.11876 0.70001 0.60377 0.0
C1005 C 0.17981 0.63714 0.62243 0.0
C1006 C 0.10597 0.7236 0.58826 0.0
O1007 O 0.1735 0.67982 0.51624 0.0
Mg1008 Mg 0.39392 0.28285 0.17017 0.0
O1009 O 0.38501 0.24574 0.21364 0.0
O1010 O 0.33121 0.23678 0.2153 0.0
Mg1011 Mg 0.30777 0.27856 0.19017 0.0
C1012 C 0.36013 0.22947 0.22337 0.0
C1013 C 0.46172 0.30982 0.16352 0.0
O1014 O 0.44286 0.3297 0.14731 0.0
O1015 O 0.38632 0.33224 0.19664 0.0
O1016 O 0.34473 0.31003 0.21756 0.0
O1017 O 0.38741 0.24048 0.13766 0.0
O1018 O 0.34609 0.27158 0.15195 0.0
C1019 C 0.35675 0.33508 0.20422 0.0
C1020 C 0.3566 0.2461 0.13716 0.0
O1021 O 0.44887 0.28612 0.17857 0.0
Mg1022 Mg 0.68991 0.39392 0.17017 0.0
O1023 O 0.72702 0.385 0.21364 0.0
O1024 O 0.73598 0.33121 0.2153 0.0
Mg1025 Mg 0.6942 0.30776 0.19017 0.0
C1026 C 0.74329 0.36012 0.22337 0.0
C1027 C 0.66294 0.46171 0.16352 0.0
O1028 O 0.64306 0.44286 0.1473 0.0
O1029 O 0.64052 0.38631 0.19663 0.0
O1030 O 0.66274 0.34472 0.21756 0.0
O1031 O 0.73228 0.38741 0.13765 0.0
O1032 O 0.70118 0.34609 0.15195 0.0
C1033 C 0.63768 0.35675 0.20422 0.0
C1034 C 0.72666 0.35659 0.13716 0.0
O1035 O 0.68664 0.44887 0.17857 0.0
Mg1036 Mg 0.57885 0.68991 0.17017 0.0
O1037 O 0.58776 0.72701 0.21364 0.0
O1038 O 0.64155 0.73598 0.2153 0.0
Mg1039 Mg 0.665 0.69419 0.19017 0.0
C1040 C 0.61264 0.74328 0.22337 0.0
C1041 C 0.51105 0.66294 0.16352 0.0
O1042 O 0.52991 0.64306 0.14731 0.0
O1043 O 0.58645 0.64052 0.19664 0.0
O1044 O 0.62804 0.66273 0.21756 0.0
O1045 O 0.58535 0.73228 0.13766 0.0
O1046 O 0.62668 0.70117 0.15195 0.0
C1047 C 0.61601 0.63768 0.20422 0.0
C1048 C 0.61617 0.72665 0.13716 0.0
O1049 O 0.5239 0.68663 0.17857 0.0
Mg1050 Mg 0.28285 0.57884 0.17017 0.0
O1051 O 0.24575 0.58776 0.21364 0.0
O1052 O 0.23678 0.64155 0.2153 0.0
Mg1053 Mg 0.27857 0.66499 0.19017 0.0
C1054 C 0.22948 0.61263 0.22337 0.0
C1055 C 0.30983 0.51104 0.16352 0.0
O1056 O 0.3297 0.5299 0.1473 0.0
O1057 O 0.33224 0.58645 0.19663 0.0
O1058 O 0.31003 0.62803 0.21756 0.0
O1059 O 0.24048 0.58535 0.13765 0.0
O1060 O 0.27159 0.62667 0.15195 0.0
C1061 C 0.33508 0.61601 0.20422 0.0
C1062 C 0.24611 0.61616 0.13716 0.0
O1063 O 0.28613 0.52389 0.17857 0.0
Mg1064 Mg 0.39392 0.68991 0.80257 0.0
O1065 O 0.38501 0.72701 0.7591 0.0
O1066 O 0.33121 0.73598 0.75744 0.0
Mg1067 Mg 0.30777 0.69419 0.78257 0.0
C1068 C 0.36013 0.74328 0.74937 0.0
C1069 C 0.46172 0.66294 0.80922 0.0
O1070 O 0.44286 0.64306 0.82544 0.0
O1071 O 0.38632 0.64052 0.77611 0.0
O1072 O 0.34473 0.66273 0.75518 0.0
O1073 O 0.38741 0.73228 0.83509 0.0
O1074 O 0.34609 0.70117 0.82079 0.0
C1075 C 0.35675 0.63768 0.76852 0.0
C1076 C 0.3566 0.72665 0.83558 0.0
O1077 O 0.44887 0.68663 0.79417 0.0
Mg1078 Mg 0.28285 0.39392 0.80257 0.0
O1079 O 0.24575 0.385 0.7591 0.0
O1080 O 0.23678 0.33121 0.75744 0.0
Mg1081 Mg 0.27857 0.30776 0.78257 0.0
C1082 C 0.22948 0.36012 0.74937 0.0
C1083 C 0.30983 0.46171 0.80923 0.0
O1084 O 0.3297 0.44286 0.82544 0.0
O1085 O 0.33224 0.38631 0.77611 0.0
O1086 O 0.31003 0.34472 0.75518 0.0
O1087 O 0.24048 0.38741 0.83509 0.0
O1088 O 0.27159 0.34609 0.82079 0.0
C1089 C 0.33508 0.35675 0.76852 0.0
C1090 C 0.24611 0.35659 0.83558 0.0
O1091 O 0.28613 0.44887 0.79417 0.0
Mg1092 Mg 0.57885 0.28285 0.80257 0.0
O1093 O 0.58776 0.24574 0.7591 0.0
O1094 O 0.64155 0.23678 0.75744 0.0
Mg1095 Mg 0.665 0.27856 0.78257 0.0
C1096 C 0.61264 0.22947 0.74937 0.0
C1097 C 0.51105 0.30982 0.80922 0.0
O1098 O 0.52991 0.3297 0.82544 0.0
O1099 O 0.58645 0.33224 0.77611 0.0
O1100 O 0.62804 0.31003 0.75518 0.0
O1101 O 0.58535 0.24048 0.83509 0.0
O1102 O 0.62668 0.27158 0.82079 0.0
C1103 C 0.61601 0.33508 0.76852 0.0
C1104 C 0.61617 0.2461 0.83558 0.0
O1105 O 0.5239 0.28612 0.79417 0.0
Mg1106 Mg 0.68991 0.57884 0.80257 0.0
O1107 O 0.72702 0.58776 0.7591 0.0
O1108 O 0.73598 0.64155 0.75744 0.0
Mg1109 Mg 0.6942 0.66499 0.78257 0.0
C1110 C 0.74329 0.61263 0.74937 0.0
C1111 C 0.66294 0.51104 0.80923 0.0
O1112 O 0.64306 0.5299 0.82544 0.0
O1113 O 0.64052 0.58645 0.77611 0.0
O1114 O 0.66274 0.62803 0.75518 0.0
O1115 O 0.73228 0.58535 0.83509 0.0
O1116 O 0.70118 0.62667 0.82079 0.0
C1117 C 0.63768 0.61601 0.76852 0.0
C1118 C 0.72666 0.61616 0.83558 0.0
O1119 O 0.68664 0.52389 0.79417 0.0
Mg1120 Mg 0.17018 0.39392 0.28284 0.0
O1121 O 0.21366 0.385 0.24574 0.0
O1122 O 0.21532 0.33121 0.23677 0.0
Mg1123 Mg 0.19019 0.30776 0.27856 0.0
C1124 C 0.22338 0.36012 0.22946 0.0
C1125 C 0.16353 0.46171 0.30981 0.0
O1126 O 0.14732 0.44286 0.32969 0.0
O1127 O 0.19665 0.38631 0.33223 0.0
O1128 O 0.21758 0.34472 0.31002 0.0
O1129 O 0.13767 0.38741 0.24047 0.0
O1130 O 0.15197 0.34608 0.27158 0.0
C1131 C 0.20423 0.35675 0.33507 0.0
C1132 C 0.13718 0.35659 0.2461 0.0
O1133 O 0.17858 0.44887 0.28612 0.0
Mg1134 Mg 0.57885 0.17018 0.28284 0.0
O1135 O 0.58776 0.21365 0.24574 0.0
O1136 O 0.64155 0.21531 0.23677 0.0
Mg1137 Mg 0.665 0.19018 0.27856 0.0
C1138 C 0.61264 0.22337 0.22946 0.0
C1139 C 0.51105 0.16352 0.30981 0.0
O1140 O 0.52991 0.14731 0.32969 0.0
O1141 O 0.58645 0.19664 0.33223 0.0
O1142 O 0.62804 0.21757 0.31002 0.0
O1143 O 0.58535 0.13766 0.24047 0.0
O1144 O 0.62668 0.15196 0.27157 0.0
C1145 C 0.61601 0.20423 0.33507 0.0
C1146 C 0.61617 0.13717 0.2461 0.0
O1147 O 0.5239 0.17857 0.28612 0.0
Mg1148 Mg 0.80259 0.57884 0.28284 0.0
O1149 O 0.75911 0.58775 0.24574 0.0
O1150 O 0.75745 0.64154 0.23677 0.0
Mg1151 Mg 0.78258 0.66499 0.27856 0.0
C1152 C 0.74939 0.61263 0.22946 0.0
C1153 C 0.80924 0.51104 0.30981 0.0
O1154 O 0.82545 0.5299 0.32969 0.0
O1155 O 0.77612 0.58645 0.33223 0.0
O1156 O 0.75519 0.62803 0.31002 0.0
O1157 O 0.8351 0.58535 0.24047 0.0
O1158 O 0.8208 0.62667 0.27158 0.0
C1159 C 0.76853 0.61601 0.33507 0.0
C1160 C 0.83559 0.61616 0.2461 0.0
O1161 O 0.79419 0.52389 0.28612 0.0
Mg1162 Mg 0.39392 0.80258 0.28284 0.0
O1163 O 0.38501 0.7591 0.24574 0.0
O1164 O 0.33121 0.75745 0.23677 0.0
Mg1165 Mg 0.30777 0.78258 0.27856 0.0
C1166 C 0.36013 0.74938 0.22946 0.0
C1167 C 0.46172 0.80923 0.30981 0.0
O1168 O 0.44286 0.82544 0.32969 0.0
O1169 O 0.38632 0.77611 0.33223 0.0
O1170 O 0.34473 0.75519 0.31002 0.0
O1171 O 0.38741 0.83509 0.24047 0.0
O1172 O 0.34609 0.82079 0.27157 0.0
C1173 C 0.35675 0.76853 0.33507 0.0
C1174 C 0.3566 0.83558 0.2461 0.0
O1175 O 0.44887 0.79418 0.28612 0.0
Mg1176 Mg 0.17018 0.57884 0.6899 0.0
O1177 O 0.21366 0.58775 0.727 0.0
O1178 O 0.21532 0.64154 0.73597 0.0
Mg1179 Mg 0.19019 0.66499 0.69419 0.0
C1180 C 0.22338 0.61263 0.74328 0.0
C1181 C 0.16353 0.51104 0.66293 0.0
O1182 O 0.14732 0.5299 0.64305 0.0
O1183 O 0.19665 0.58645 0.64051 0.0
O1184 O 0.21758 0.62803 0.66272 0.0
O1185 O 0.13767 0.58535 0.73227 0.0
O1186 O 0.15197 0.62667 0.70117 0.0
C1187 C 0.20423 0.61601 0.63767 0.0
C1188 C 0.13718 0.61616 0.72664 0.0
O1189 O 0.17858 0.52389 0.68662 0.0
Mg1190 Mg 0.39392 0.17018 0.6899 0.0
O1191 O 0.38501 0.21365 0.727 0.0
O1192 O 0.33121 0.21531 0.73597 0.0
Mg1193 Mg 0.30777 0.19018 0.69419 0.0
C1194 C 0.36013 0.22337 0.74328 0.0
C1195 C 0.46172 0.16352 0.66293 0.0
O1196 O 0.44286 0.14731 0.64305 0.0
O1197 O 0.38632 0.19664 0.64051 0.0
O1198 O 0.34473 0.21757 0.66272 0.0
O1199 O 0.38741 0.13766 0.73227 0.0
O1200 O 0.34609 0.15196 0.70117 0.0
C1201 C 0.35675 0.20423 0.63767 0.0
C1202 C 0.3566 0.13717 0.72665 0.0
O1203 O 0.44887 0.17857 0.68662 0.0
Mg1204 Mg 0.80259 0.39392 0.6899 0.0
O1205 O 0.75911 0.385 0.727 0.0
O1206 O 0.75745 0.33121 0.73597 0.0
Mg1207 Mg 0.78258 0.30776 0.69419 0.0
C1208 C 0.74939 0.36012 0.74328 0.0
C1209 C 0.80924 0.46171 0.66293 0.0
O1210 O 0.82545 0.44286 0.64305 0.0
O1211 O 0.77612 0.38631 0.64051 0.0
O1212 O 0.75519 0.34472 0.66272 0.0
O1213 O 0.8351 0.38741 0.73227 0.0
O1214 O 0.8208 0.34608 0.70117 0.0
C1215 C 0.76853 0.35675 0.63767 0.0
C1216 C 0.83559 0.35659 0.72664 0.0
O1217 O 0.79419 0.44887 0.68662 0.0
Mg1218 Mg 0.57885 0.80258 0.6899 0.0
O1219 O 0.58776 0.7591 0.727 0.0
O1220 O 0.64155 0.75745 0.73597 0.0
Mg1221 Mg 0.665 0.78258 0.69419 0.0
C1222 C 0.61264 0.74938 0.74328 0.0
C1223 C 0.51105 0.80923 0.66293 0.0
O1224 O 0.52991 0.82544 0.64305 0.0
O1225 O 0.58645 0.77611 0.64051 0.0
O1226 O 0.62804 0.75519 0.66272 0.0
O1227 O 0.58535 0.83509 0.73227 0.0
O1228 O 0.62668 0.82079 0.70117 0.0
C1229 C 0.61601 0.76853 0.63767 0.0
C1230 C 0.61617 0.83558 0.72665 0.0
O1231 O 0.5239 0.79418 0.68662 0.0
Mg1232 Mg 0.28286 0.17017 0.39391 0.0
O1233 O 0.24575 0.21365 0.38499 0.0
O1234 O 0.23678 0.21531 0.33121 0.0
Mg1235 Mg 0.27857 0.19018 0.30776 0.0
C1236 C 0.22948 0.22337 0.36012 0.0
C1237 C 0.30983 0.16352 0.46171 0.0
O1238 O 0.32971 0.14731 0.44285 0.0
O1239 O 0.33225 0.19664 0.3863 0.0
O1240 O 0.31003 0.21757 0.34472 0.0
O1241 O 0.24049 0.13766 0.3874 0.0
O1242 O 0.27159 0.15196 0.34608 0.0
C1243 C 0.33509 0.20423 0.35674 0.0
C1244 C 0.24611 0.13717 0.35658 0.0
O1245 O 0.28613 0.17857 0.44886 0.0
Mg1246 Mg 0.28286 0.80258 0.57883 0.0
O1247 O 0.24575 0.75911 0.58775 0.0
O1248 O 0.23678 0.75745 0.64154 0.0
Mg1249 Mg 0.27857 0.78258 0.66498 0.0
C1250 C 0.22948 0.74938 0.61263 0.0
C1251 C 0.30983 0.80923 0.51103 0.0
O1252 O 0.32971 0.82545 0.52989 0.0
O1253 O 0.33225 0.77611 0.58644 0.0
O1254 O 0.31003 0.75519 0.62802 0.0
O1255 O 0.24049 0.83509 0.58534 0.0
O1256 O 0.27159 0.8208 0.62666 0.0
C1257 C 0.33509 0.76853 0.616 0.0
C1258 C 0.24611 0.83559 0.61616 0.0
O1259 O 0.28613 0.79418 0.52388 0.0
Mg1260 Mg 0.17018 0.28285 0.57883 0.0
O1261 O 0.21366 0.24575 0.58775 0.0
O1262 O 0.21531 0.23678 0.64154 0.0
Mg1263 Mg 0.19019 0.27856 0.66498 0.0
C1264 C 0.22338 0.22947 0.61263 0.0
C1265 C 0.16353 0.30982 0.51103 0.0
O1266 O 0.14731 0.3297 0.52989 0.0
O1267 O 0.19665 0.33224 0.58644 0.0
O1268 O 0.21758 0.31003 0.62802 0.0
O1269 O 0.13767 0.24048 0.58534 0.0
O1270 O 0.15197 0.27158 0.62666 0.0
C1271 C 0.20423 0.33508 0.616 0.0
C1272 C 0.13718 0.24611 0.61616 0.0
O1273 O 0.17858 0.28613 0.52388 0.0
Mg1274 Mg 0.68991 0.17017 0.57883 0.0
O1275 O 0.72702 0.21365 0.58775 0.0
O1276 O 0.73598 0.21531 0.64154 0.0
Mg1277 Mg 0.6942 0.19018 0.66498 0.0
C1278 C 0.74329 0.22337 0.61263 0.0
C1279 C 0.66294 0.16352 0.51103 0.0
O1280 O 0.64306 0.14731 0.52989 0.0
O1281 O 0.64052 0.19664 0.58644 0.0
O1282 O 0.66274 0.21757 0.62802 0.0
O1283 O 0.73228 0.13766 0.58534 0.0
O1284 O 0.70118 0.15196 0.62666 0.0
C1285 C 0.63768 0.20423 0.616 0.0
C1286 C 0.72666 0.13717 0.61616 0.0
O1287 O 0.68664 0.17857 0.52388 0.0
Mg1288 Mg 0.80259 0.68991 0.57883 0.0
O1289 O 0.75911 0.72701 0.58775 0.0
O1290 O 0.75745 0.73598 0.64154 0.0
Mg1291 Mg 0.78258 0.69419 0.66498 0.0
C1292 C 0.74939 0.74328 0.61263 0.0
C1293 C 0.80924 0.66293 0.51103 0.0
O1294 O 0.82545 0.64306 0.52989 0.0
O1295 O 0.77612 0.64052 0.58644 0.0
O1296 O 0.75519 0.66273 0.62802 0.0
O1297 O 0.8351 0.73227 0.58534 0.0
O1298 O 0.8208 0.70117 0.62666 0.0
C1299 C 0.76853 0.63768 0.616 0.0
C1300 C 0.83559 0.72665 0.61616 0.0
O1301 O 0.79419 0.68663 0.52388 0.0
Mg1302 Mg 0.68991 0.80258 0.39391 0.0
O1303 O 0.72702 0.75911 0.38499 0.0
O1304 O 0.73598 0.75745 0.33121 0.0
Mg1305 Mg 0.6942 0.78258 0.30776 0.0
C1306 C 0.74329 0.74938 0.36012 0.0
C1307 C 0.66294 0.80923 0.46171 0.0
O1308 O 0.64306 0.82545 0.44285 0.0
O1309 O 0.64052 0.77611 0.3863 0.0
O1310 O 0.66274 0.75519 0.34472 0.0
O1311 O 0.73228 0.83509 0.3874 0.0
O1312 O 0.70118 0.8208 0.34608 0.0
C1313 C 0.63768 0.76853 0.35674 0.0
C1314 C 0.72666 0.83559 0.35658 0.0
O1315 O 0.68664 0.79418 0.44886 0.0
Mg1316 Mg 0.17018 0.68991 0.39391 0.0
O1317 O 0.21366 0.72701 0.385 0.0
O1318 O 0.21531 0.73598 0.33121 0.0
Mg1319 Mg 0.19019 0.69419 0.30776 0.0
C1320 C 0.22338 0.74328 0.36012 0.0
C1321 C 0.16353 0.66293 0.46171 0.0
O1322 O 0.14731 0.64306 0.44285 0.0
O1323 O 0.19665 0.64052 0.3863 0.0
O1324 O 0.21758 0.66273 0.34472 0.0
O1325 O 0.13767 0.73227 0.3874 0.0
O1326 O 0.15197 0.70117 0.34608 0.0
C1327 C 0.20423 0.63768 0.35674 0.0
C1328 C 0.13718 0.72665 0.35658 0.0
O1329 O 0.17858 0.68663 0.44886 0.0
Mg1330 Mg 0.80259 0.28285 0.39391 0.0
O1331 O 0.75911 0.24575 0.385 0.0
O1332 O 0.75745 0.23678 0.33121 0.0
Mg1333 Mg 0.78258 0.27856 0.30776 0.0
C1334 C 0.74939 0.22947 0.36012 0.0
C1335 C 0.80924 0.30982 0.46171 0.0
O1336 O 0.82545 0.3297 0.44285 0.0
O1337 O 0.77612 0.33224 0.3863 0.0
O1338 O 0.75519 0.31003 0.34472 0.0
O1339 O 0.8351 0.24048 0.3874 0.0
O1340 O 0.8208 0.27158 0.34608 0.0
C1341 C 0.76853 0.33508 0.35674 0.0
C1342 C 0.83559 0.24611 0.35658 0.0
O1343 O 0.79419 0.28613 0.44886 0.0
loop_
_geom_bond_atom_site_label_1
_geom_bond_atom_site_label_2
_geom_bond_distance
_geom_bond_site_symmetry_2
_ccdc_geom_bond_type
Mg0 O1 2.028 . S
Mg0 O7 1.986 . S
Mg0 O9 2.114 . S
Mg0 O10 2.251 . S
Mg0 O13 2.010 . S
O1 Mg0 2.028 . S
O1 C4 1.250 . S
O2 Mg3 2.028 . S
O2 C4 1.248 . S
Mg3 O2 2.028 . S
Mg3 O8 2.032 . S
Mg3 O10 2.079 . S
C4 O1 1.250 . S
C4 O2 1.248 . S
C5 O6 1.264 1_455 S
C5 O13 1.249 . S
O6 C5 1.264 1_655 S
O7 Mg0 1.986 . S
O7 C11 1.246 . S
O8 Mg3 2.032 . S
O8 C11 1.259 . S
O9 Mg0 2.114 . S
O9 C12 1.252 . S
O10 Mg0 2.251 . S
O10 Mg3 2.079 . S
O10 C12 1.273 . S
C11 O7 1.246 . S
C11 O8 1.259 . S
C12 O9 1.252 . S
C12 O10 1.273 . S
O13 Mg0 2.010 . S
O13 C5 1.249 . S
Mg14 O15 2.028 . S
Mg14 O21 1.986 . S
Mg14 O23 2.114 . S
Mg14 O24 2.251 . S
Mg14 O27 2.010 . S
O15 Mg14 2.028 . S
O15 C18 1.250 . S
O16 Mg17 2.028 . S
O16 C18 1.248 . S
Mg17 O16 2.028 . S
Mg17 O22 2.032 . S
Mg17 O24 2.079 . S
C18 O15 1.250 . S
C18 O16 1.248 . S
C19 O20 1.264 1_545 S
C19 O27 1.249 . S
O20 C19 1.264 1_565 S
O21 Mg14 1.986 . S
O21 C25 1.246 . S
O22 Mg17 2.032 . S
O22 C25 1.259 . S
O23 Mg14 2.114 . S
O23 C26 1.252 . S
O24 Mg14 2.251 . S
O24 Mg17 2.079 . S
O24 C26 1.273 . S
C25 O21 1.246 . S
C25 O22 1.259 . S
C26 O23 1.252 . S
C26 O24 1.273 . S
O27 Mg14 2.010 . S
O27 C19 1.249 . S
Mg28 O29 2.028 . S
Mg28 O35 1.986 . S
Mg28 O37 2.114 . S
Mg28 O38 2.251 . S
Mg28 O41 2.010 . S
O29 Mg28 2.028 . S
O29 C32 1.250 . S
O30 Mg31 2.028 . S
O30 C32 1.248 . S
Mg31 O30 2.028 . S
Mg31 O36 2.032 . S
Mg31 O38 2.079 . S
C32 O29 1.250 . S
C32 O30 1.248 . S
C33 O34 1.264 1_655 S
C33 O41 1.249 . S
O34 C33 1.264 1_455 S
O35 Mg28 1.986 . S
O35 C39 1.246 . S
O36 Mg31 2.032 . S
O36 C39 1.259 . S
O37 Mg28 2.114 . S
O37 C40 1.252 . S
O38 Mg28 2.251 . S
O38 Mg31 2.079 . S
O38 C40 1.273 . S
C39 O35 1.246 . S
C39 O36 1.259 . S
C40 O37 1.252 . S
C40 O38 1.273 . S
O41 Mg28 2.010 . S
O41 C33 1.249 . S
Mg42 O43 2.028 . S
Mg42 O49 1.986 . S
Mg42 O51 2.114 . S
Mg42 O52 2.251 . S
Mg42 O55 2.010 . S
O43 Mg42 2.028 . S
O43 C46 1.250 . S
O44 Mg45 2.028 . S
O44 C46 1.248 . S
Mg45 O44 2.028 . S
Mg45 O50 2.032 . S
Mg45 O52 2.079 . S
C46 O43 1.250 . S
C46 O44 1.248 . S
C47 O48 1.264 1_565 S
C47 O55 1.249 . S
O48 C47 1.264 1_545 S
O49 Mg42 1.986 . S
O49 C53 1.246 . S
O50 Mg45 2.032 . S
O50 C53 1.259 . S
O51 Mg42 2.114 . S
O51 C54 1.252 . S
O52 Mg42 2.251 . S
O52 Mg45 2.079 . S
O52 C54 1.273 . S
C53 O49 1.246 . S
C53 O50 1.259 . S
C54 O51 1.252 . S
C54 O52 1.273 . S
O55 Mg42 2.010 . S
O55 C47 1.249 . S
Mg56 O57 2.028 . S
Mg56 O63 1.986 . S
Mg56 O65 2.114 . S
Mg56 O66 2.251 . S
Mg56 O69 2.010 . S
O57 Mg56 2.028 . S
O57 C60 1.250 . S
O58 Mg59 2.028 . S
O58 C60 1.248 . S
Mg59 O58 2.028 . S
Mg59 O64 2.032 . S
Mg59 O66 2.079 . S
C60 O57 1.250 . S
C60 O58 1.248 . S
C61 O62 1.264 1_455 S
C61 O69 1.249 . S
O62 C61 1.264 1_655 S
O63 Mg56 1.986 . S
O63 C67 1.246 . S
O64 Mg59 2.032 . S
O64 C67 1.259 . S
O65 Mg56 2.114 . S
O65 C68 1.252 . S
O66 Mg56 2.251 . S
O66 Mg59 2.079 . S
O66 C68 1.273 . S
C67 O63 1.246 . S
C67 O64 1.259 . S
C68 O65 1.252 . S
C68 O66 1.273 . S
O69 Mg56 2.010 . S
O69 C61 1.249 . S
Mg70 O71 2.028 . S
Mg70 O77 1.986 . S
Mg70 O79 2.114 . S
Mg70 O80 2.251 . S
Mg70 O83 2.010 . S
O71 Mg70 2.028 . S
O71 C74 1.250 . S
O72 Mg73 2.028 . S
O72 C74 1.248 . S
Mg73 O72 2.028 . S
Mg73 O78 2.032 . S
Mg73 O80 2.079 . S
C74 O71 1.250 . S
C74 O72 1.248 . S
C75 O76 1.264 1_545 S
C75 O83 1.249 . S
O76 C75 1.264 1_565 S
O77 Mg70 1.986 . S
O77 C81 1.246 . S
O78 Mg73 2.032 . S
O78 C81 1.259 . S
O79 Mg70 2.114 . S
O79 C82 1.252 . S
O80 Mg70 2.251 . S
O80 Mg73 2.079 . S
O80 C82 1.273 . S
C81 O77 1.246 . S
C81 O78 1.259 . S
C82 O79 1.252 . S
C82 O80 1.273 . S
O83 Mg70 2.010 . S
O83 C75 1.249 . S
Mg84 O85 2.028 . S
Mg84 O91 1.986 . S
Mg84 O93 2.114 . S
Mg84 O94 2.251 . S
Mg84 O97 2.010 . S
O85 Mg84 2.028 . S
O85 C88 1.250 . S
O86 Mg87 2.028 . S
O86 C88 1.248 . S
Mg87 O86 2.028 . S
Mg87 O92 2.032 . S
Mg87 O94 2.079 . S
C88 O85 1.250 . S
C88 O86 1.248 . S
C89 O90 1.264 1_655 S
C89 O97 1.249 . S
O90 C89 1.264 1_455 S
O91 Mg84 1.986 . S
O91 C95 1.246 . S
O92 Mg87 2.032 . S
O92 C95 1.259 . S
O93 Mg84 2.114 . S
O93 C96 1.252 . S
O94 Mg84 2.251 . S
O94 Mg87 2.079 . S
O94 C96 1.273 . S
C95 O91 1.246 . S
C95 O92 1.259 . S
C96 O93 1.252 . S
C96 O94 1.273 . S
O97 Mg84 2.010 . S
O97 C89 1.249 . S
Mg98 O99 2.028 . S
Mg98 O105 1.986 . S
Mg98 O107 2.114 . S
Mg98 O108 2.251 . S
Mg98 O111 2.010 . S
O99 Mg98 2.028 . S
O99 C102 1.250 . S
O100 Mg101 2.028 . S
O100 C102 1.248 . S
Mg101 O100 2.028 . S
Mg101 O106 2.032 . S
Mg101 O108 2.079 . S
C102 O99 1.250 . S
C102 O100 1.248 . S
C103 O104 1.264 1_565 S
C103 O111 1.249 . S
O104 C103 1.264 1_545 S
O105 Mg98 1.986 . S
O105 C109 1.246 . S
O106 Mg101 2.032 . S
O106 C109 1.259 . S
O107 Mg98 2.114 . S
O107 C110 1.252 . S
O108 Mg98 2.251 . S
O108 Mg101 2.079 . S
O108 C110 1.273 . S
C109 O105 1.246 . S
C109 O106 1.259 . S
C110 O107 1.252 . S
C110 O108 1.273 . S
O111 Mg98 2.010 . S
O111 C103 1.249 . S
Mg112 O113 2.028 . S
Mg112 O119 1.986 . S
Mg112 O121 2.114 . S
Mg112 O122 2.251 . S
Mg112 O125 2.010 . S
O113 Mg112 2.028 . S
O113 C116 1.250 . S
O114 Mg115 2.028 . S
O114 C116 1.248 . S
Mg115 O114 2.028 . S
Mg115 O120 2.032 . S
Mg115 O122 2.079 . S
C116 O113 1.250 . S
C116 O114 1.248 . S
C117 O118 1.264 1_545 S
C117 O125 1.249 . S
O118 C117 1.264 1_565 S
O119 Mg112 1.986 . S
O119 C123 1.246 . S
O120 Mg115 2.032 . S
O120 C123 1.259 . S
O121 Mg112 2.114 . S
O121 C124 1.252 . S
O122 Mg112 2.251 . S
O122 Mg115 2.079 . S
O122 C124 1.273 . S
C123 O119 1.246 . S
C123 O120 1.259 . S
C124 O121 1.252 . S
C124 O122 1.273 . S
O125 Mg112 2.010 . S
O125 C117 1.249 . S
Mg126 O127 2.028 . S
Mg126 O133 1.986 . S
Mg126 O135 2.114 . S
Mg126 O136 2.251 . S
Mg126 O139 2.010 . S
O127 Mg126 2.028 . S
O127 C130 1.250 . S
O128 Mg129 2.028 . S
O128 C130 1.248 . S
Mg129 O128 2.028 . S
Mg129 O134 2.032 . S
Mg129 O136 2.079 . S
C130 O127 1.250 . S
C130 O128 1.248 . S
C131 O132 1.264 1_655 S
C131 O139 1.249 . S
O132 C131 1.264 1_455 S
O133 Mg126 1.986 . S
O133 C137 1.246 . S
O134 Mg129 2.032 . S
O134 C137 1.259 . S
O135 Mg126 2.114 . S
O135 C138 1.252 . S
O136 Mg126 2.251 . S
O136 Mg129 2.079 . S
O136 C138 1.273 . S
C137 O133 1.246 . S
C137 O134 1.259 . S
C138 O135 1.252 . S
C138 O136 1.273 . S
O139 Mg126 2.010 . S
O139 C131 1.249 . S
Mg140 O141 2.028 . S
Mg140 O147 1.986 . S
Mg140 O149 2.114 . S
Mg140 O150 2.251 . S
Mg140 O153 2.010 . S
O141 Mg140 2.028 . S
O141 C144 1.250 . S
O142 Mg143 2.028 . S
O142 C144 1.248 . S
Mg143 O142 2.028 . S
Mg143 O148 2.032 . S
Mg143 O150 2.079 . S
C144 O141 1.250 . S
C144 O142 1.248 . S
C145 O146 1.264 1_565 S
C145 O153 1.249 . S
O146 C145 1.264 1_545 S
O147 Mg140 1.986 . S
O147 C151 1.246 . S
O148 Mg143 2.032 . S
O148 C151 1.259 . S
O149 Mg140 2.114 . S
O149 C152 1.252 . S
O150 Mg140 2.251 . S
O150 Mg143 2.079 . S
O150 C152 1.273 . S
C151 O147 1.246 . S
C151 O148 1.259 . S
C152 O149 1.252 . S
C152 O150 1.273 . S
O153 Mg140 2.010 . S
O153 C145 1.249 . S
Mg154 O155 2.028 . S
Mg154 O161 1.986 . S
Mg154 O163 2.114 . S
Mg154 O164 2.251 . S
Mg154 O167 2.010 . S
O155 Mg154 2.028 . S
O155 C158 1.250 . S
O156 Mg157 2.028 . S
O156 C158 1.248 . S
Mg157 O156 2.028 . S
Mg157 O162 2.032 . S
Mg157 O164 2.079 . S
C158 O155 1.250 . S
C158 O156 1.248 . S
C159 O160 1.264 1_455 S
C159 O167 1.249 . S
O160 C159 1.264 1_655 S
O161 Mg154 1.986 . S
O161 C165 1.246 . S
O162 Mg157 2.032 . S
O162 C165 1.259 . S
O163 Mg154 2.114 . S
O163 C166 1.252 . S
O164 Mg154 2.251 . S
O164 Mg157 2.079 . S
O164 C166 1.273 . S
C165 O161 1.246 . S
C165 O162 1.259 . S
C166 O163 1.252 . S
C166 O164 1.273 . S
O167 Mg154 2.010 . S
O167 C159 1.249 . S
Mg168 O169 2.028 . S
Mg168 O175 1.986 . S
Mg168 O177 2.114 . S
Mg168 O178 2.251 . S
Mg168 O181 2.010 . S
O169 Mg168 2.028 . S
O169 C172 1.250 . S
O170 Mg171 2.028 . S
O170 C172 1.248 . S
Mg171 O170 2.028 . S
Mg171 O176 2.032 . S
Mg171 O178 2.079 . S
C172 O169 1.250 . S
C172 O170 1.248 . S
C173 O174 1.264 1_565 S
C173 O181 1.249 . S
O174 C173 1.264 1_545 S
O175 Mg168 1.986 . S
O175 C179 1.246 . S
O176 Mg171 2.032 . S
O176 C179 1.259 . S
O177 Mg168 2.114 . S
O177 C180 1.252 . S
O178 Mg168 2.251 . S
O178 Mg171 2.079 . S
O178 C180 1.273 . S
C179 O175 1.246 . S
C179 O176 1.259 . S
C180 O177 1.252 . S
C180 O178 1.273 . S
O181 Mg168 2.010 . S
O181 C173 1.249 . S
Mg182 O183 2.028 . S
Mg182 O189 1.986 . S
Mg182 O191 2.114 . S
Mg182 O192 2.251 . S
Mg182 O195 2.010 . S
O183 Mg182 2.028 . S
O183 C186 1.250 . S
O184 Mg185 2.028 . S
O184 C186 1.248 . S
Mg185 O184 2.028 . S
Mg185 O190 2.032 . S
Mg185 O192 2.079 . S
C186 O183 1.250 . S
C186 O184 1.248 . S
C187 O188 1.264 1_455 S
C187 O195 1.249 . S
O188 C187 1.264 1_655 S
O189 Mg182 1.986 . S
O189 C193 1.246 . S
O190 Mg185 2.032 . S
O190 C193 1.259 . S
O191 Mg182 2.114 . S
O191 C194 1.252 . S
O192 Mg182 2.251 . S
O192 Mg185 2.079 . S
O192 C194 1.273 . S
C193 O189 1.246 . S
C193 O190 1.259 . S
C194 O191 1.252 . S
C194 O192 1.273 . S
O195 Mg182 2.010 . S
O195 C187 1.249 . S
Mg196 O197 2.028 . S
Mg196 O203 1.986 . S
Mg196 O205 2.114 . S
Mg196 O206 2.251 . S
Mg196 O209 2.010 . S
O197 Mg196 2.028 . S
O197 C200 1.250 . S
O198 Mg199 2.028 . S
O198 C200 1.248 . S
Mg199 O198 2.028 . S
Mg199 O204 2.032 . S
Mg199 O206 2.079 . S
C200 O197 1.250 . S
C200 O198 1.248 . S
C201 O202 1.264 1_545 S
C201 O209 1.249 . S
O202 C201 1.264 1_565 S
O203 Mg196 1.986 . S
O203 C207 1.246 . S
O204 Mg199 2.032 . S
O204 C207 1.259 . S
O205 Mg196 2.114 . S
O205 C208 1.252 . S
O206 Mg196 2.251 . S
O206 Mg199 2.079 . S
O206 C208 1.273 . S
C207 O203 1.246 . S
C207 O204 1.259 . S
C208 O205 1.252 . S
C208 O206 1.273 . S
O209 Mg196 2.010 . S
O209 C201 1.249 . S
Mg210 O211 2.028 . S
Mg210 O217 1.986 . S
Mg210 O219 2.114 . S
Mg210 O220 2.251 . S
Mg210 O223 2.010 . S
O211 Mg210 2.028 . S
O211 C214 1.250 . S
O212 Mg213 2.028 . S
O212 C214 1.248 . S
Mg213 O212 2.028 . S
Mg213 O218 2.032 . S
Mg213 O220 2.079 . S
C214 O211 1.250 . S
C214 O212 1.248 . S
C215 O216 1.264 1_655 S
C215 O223 1.249 . S
O216 C215 1.264 1_455 S
O217 Mg210 1.986 . S
O217 C221 1.246 . S
O218 Mg213 2.032 . S
O218 C221 1.259 . S
O219 Mg210 2.114 . S
O219 C222 1.252 . S
O220 Mg210 2.251 . S
O220 Mg213 2.079 . S
O220 C222 1.273 . S
C221 O217 1.246 . S
C221 O218 1.259 . S
C222 O219 1.252 . S
C222 O220 1.273 . S
O223 Mg210 2.010 . S
O223 C215 1.249 . S
Mg224 O225 2.028 . S
Mg224 O231 1.986 . S
Mg224 O233 2.114 . S
Mg224 O234 2.251 . S
Mg224 O237 2.010 . S
O225 Mg224 2.028 . S
O225 C228 1.250 . S
O226 Mg227 2.028 . S
O226 C228 1.248 . S
Mg227 O226 2.028 . S
Mg227 O232 2.032 . S
Mg227 O234 2.079 . S
C228 O225 1.250 . S
C228 O226 1.248 . S
C229 O230 1.264 1_554 S
C229 O237 1.249 . S
O230 C229 1.264 1_556 S
O231 Mg224 1.986 . S
O231 C235 1.246 . S
O232 Mg227 2.032 . S
O232 C235 1.259 . S
O233 Mg224 2.114 . S
O233 C236 1.252 . S
O234 Mg224 2.251 . S
O234 Mg227 2.079 . S
O234 C236 1.273 . S
C235 O231 1.246 . S
C235 O232 1.259 . S
C236 O233 1.252 . S
C236 O234 1.273 . S
O237 Mg224 2.010 . S
O237 C229 1.249 . S
Mg238 O239 2.028 . S
Mg238 O245 1.986 . S
Mg238 O247 2.114 . S
Mg238 O248 2.251 . S
Mg238 O251 2.010 . S
O239 Mg238 2.028 . S
O239 C242 1.250 . S
O240 Mg241 2.028 . S
O240 C242 1.248 . S
Mg241 O240 2.028 . S
Mg241 O246 2.032 . S
Mg241 O248 2.079 . S
C242 O239 1.250 . S
C242 O240 1.248 . S
C243 O244 1.264 1_556 S
C243 O251 1.249 . S
O244 C243 1.264 1_554 S
O245 Mg238 1.986 . S
O245 C249 1.246 . S
O246 Mg241 2.032 . S
O246 C249 1.259 . S
O247 Mg238 2.114 . S
O247 C250 1.252 . S
O248 Mg238 2.251 . S
O248 Mg241 2.079 . S
O248 C250 1.273 . S
C249 O245 1.246 . S
C249 O246 1.259 . S
C250 O247 1.252 . S
C250 O248 1.273 . S
O251 Mg238 2.010 . S
O251 C243 1.249 . S
Mg252 O253 2.028 . S
Mg252 O259 1.986 . S
Mg252 O261 2.114 . S
Mg252 O262 2.251 . S
Mg252 O265 2.010 . S
O253 Mg252 2.028 . S
O253 C256 1.250 . S
O254 Mg255 2.028 . S
O254 C256 1.248 . S
Mg255 O254 2.028 . S
Mg255 O260 2.032 . S
Mg255 O262 2.079 . S
C256 O253 1.250 . S
C256 O254 1.248 . S
C257 O258 1.264 1_556 S
C257 O265 1.249 . S
O258 C257 1.264 1_554 S
O259 Mg252 1.986 . S
O259 C263 1.246 . S
O260 Mg255 2.032 . S
O260 C263 1.259 . S
O261 Mg252 2.114 . S
O261 C264 1.252 . S
O262 Mg252 2.251 . S
O262 Mg255 2.079 . S
O262 C264 1.273 . S
C263 O259 1.246 . S
C263 O260 1.259 . S
C264 O261 1.252 . S
C264 O262 1.273 . S
O265 Mg252 2.010 . S
O265 C257 1.249 . S
Mg266 O267 2.028 . S
Mg266 O273 1.986 . S
Mg266 O275 2.114 . S
Mg266 O276 2.251 . S
Mg266 O279 2.010 . S
O267 Mg266 2.028 . S
O267 C270 1.250 . S
O268 Mg269 2.028 . S
O268 C270 1.248 . S
Mg269 O268 2.028 . S
Mg269 O274 2.032 . S
Mg269 O276 2.079 . S
C270 O267 1.250 . S
C270 O268 1.248 . S
C271 O272 1.264 1_556 S
C271 O279 1.249 . S
O272 C271 1.264 1_554 S
O273 Mg266 1.986 . S
O273 C277 1.246 . S
O274 Mg269 2.032 . S
O274 C277 1.259 . S
O275 Mg266 2.114 . S
O275 C278 1.252 . S
O276 Mg266 2.251 . S
O276 Mg269 2.079 . S
O276 C278 1.273 . S
C277 O273 1.246 . S
C277 O274 1.259 . S
C278 O275 1.252 . S
C278 O276 1.273 . S
O279 Mg266 2.010 . S
O279 C271 1.249 . S
Mg280 O281 2.028 . S
Mg280 O287 1.986 . S
Mg280 O289 2.114 . S
Mg280 O290 2.251 . S
Mg280 O293 2.010 . S
O281 Mg280 2.028 . S
O281 C284 1.250 . S
O282 Mg283 2.028 . S
O282 C284 1.248 . S
Mg283 O282 2.028 . S
Mg283 O288 2.032 . S
Mg283 O290 2.079 . S
C284 O281 1.250 . S
C284 O282 1.248 . S
C285 O286 1.264 1_556 S
C285 O293 1.249 . S
O286 C285 1.264 1_554 S
O287 Mg280 1.986 . S
O287 C291 1.246 . S
O288 Mg283 2.032 . S
O288 C291 1.259 . S
O289 Mg280 2.114 . S
O289 C292 1.252 . S
O290 Mg280 2.251 . S
O290 Mg283 2.079 . S
O290 C292 1.273 . S
C291 O287 1.246 . S
C291 O288 1.259 . S
C292 O289 1.252 . S
C292 O290 1.273 . S
O293 Mg280 2.010 . S
O293 C285 1.249 . S
Mg294 O295 2.028 . S
Mg294 O301 1.986 . S
Mg294 O303 2.114 . S
Mg294 O304 2.251 . S
Mg294 O307 2.010 . S
O295 Mg294 2.028 . S
O295 C298 1.250 . S
O296 Mg297 2.028 . S
O296 C298 1.248 . S
Mg297 O296 2.028 . S
Mg297 O302 2.032 . S
Mg297 O304 2.079 . S
C298 O295 1.250 . S
C298 O296 1.248 . S
C299 O300 1.264 1_554 S
C299 O307 1.249 . S
O300 C299 1.264 1_556 S
O301 Mg294 1.986 . S
O301 C305 1.246 . S
O302 Mg297 2.032 . S
O302 C305 1.259 . S
O303 Mg294 2.114 . S
O303 C306 1.252 . S
O304 Mg294 2.251 . S
O304 Mg297 2.079 . S
O304 C306 1.273 . S
C305 O301 1.246 . S
C305 O302 1.259 . S
C306 O303 1.252 . S
C306 O304 1.273 . S
O307 Mg294 2.010 . S
O307 C299 1.249 . S
Mg308 O309 2.028 . S
Mg308 O315 1.986 . S
Mg308 O317 2.114 . S
Mg308 O318 2.251 . S
Mg308 O321 2.010 . S
O309 Mg308 2.028 . S
O309 C312 1.250 . S
O310 Mg311 2.028 . S
O310 C312 1.248 . S
Mg311 O310 2.028 . S
Mg311 O316 2.032 . S
Mg311 O318 2.079 . S
C312 O309 1.250 . S
C312 O310 1.248 . S
C313 O314 1.264 1_554 S
C313 O321 1.249 . S
O314 C313 1.264 1_556 S
O315 Mg308 1.986 . S
O315 C319 1.246 . S
O316 Mg311 2.032 . S
O316 C319 1.259 . S
O317 Mg308 2.114 . S
O317 C320 1.252 . S
O318 Mg308 2.251 . S
O318 Mg311 2.079 . S
O318 C320 1.273 . S
C319 O315 1.246 . S
C319 O316 1.259 . S
C320 O317 1.252 . S
C320 O318 1.273 . S
O321 Mg308 2.010 . S
O321 C313 1.249 . S
Mg322 O323 2.028 . S
Mg322 O329 1.986 . S
Mg322 O331 2.114 . S
Mg322 O332 2.251 . S
Mg322 O335 2.010 . S
O323 Mg322 2.028 . S
O323 C326 1.250 . S
O324 Mg325 2.028 . S
O324 C326 1.248 . S
Mg325 O324 2.028 . S
Mg325 O330 2.032 . S
Mg325 O332 2.079 . S
C326 O323 1.250 . S
C326 O324 1.248 . S
C327 O328 1.264 1_554 S
C327 O335 1.249 . S
O328 C327 1.264 1_556 S
O329 Mg322 1.986 . S
O329 C333 1.246 . S
O330 Mg325 2.032 . S
O330 C333 1.259 . S
O331 Mg322 2.114 . S
O331 C334 1.252 . S
O332 Mg322 2.251 . S
O332 Mg325 2.079 . S
O332 C334 1.273 . S
C333 O329 1.246 . S
C333 O330 1.259 . S
C334 O331 1.252 . S
C334 O332 1.273 . S
O335 Mg322 2.010 . S
O335 C327 1.249 . S
Mg336 O337 2.028 . S
Mg336 O343 1.986 . S
Mg336 O345 2.114 . S
Mg336 O346 2.251 . S
Mg336 O349 2.010 . S
O337 Mg336 2.028 . S
O337 C340 1.250 . S
O338 Mg339 2.028 . S
O338 C340 1.248 . S
Mg339 O338 2.028 . S
Mg339 O344 2.032 . S
Mg339 O346 2.079 . S
C340 O337 1.250 . S
C340 O338 1.248 . S
C341 O342 1.264 1_655 S
C341 O349 1.249 . S
O342 C341 1.264 1_455 S
O343 Mg336 1.986 . S
O343 C347 1.246 . S
O344 Mg339 2.032 . S
O344 C347 1.259 . S
O345 Mg336 2.114 . S
O345 C348 1.252 . S
O346 Mg336 2.251 . S
O346 Mg339 2.079 . S
O346 C348 1.273 . S
C347 O343 1.246 . S
C347 O344 1.259 . S
C348 O345 1.252 . S
C348 O346 1.273 . S
O349 Mg336 2.010 . S
O349 C341 1.249 . S
Mg350 O351 2.028 . S
Mg350 O357 1.986 . S
Mg350 O359 2.114 . S
Mg350 O360 2.251 . S
Mg350 O363 2.010 . S
O351 Mg350 2.028 . S
O351 C354 1.250 . S
O352 Mg353 2.028 . S
O352 C354 1.248 . S
Mg353 O352 2.028 . S
Mg353 O358 2.032 . S
Mg353 O360 2.079 . S
C354 O351 1.250 . S
C354 O352 1.248 . S
C355 O356 1.264 1_565 S
C355 O363 1.249 . S
O356 C355 1.264 1_545 S
O357 Mg350 1.986 . S
O357 C361 1.246 . S
O358 Mg353 2.032 . S
O358 C361 1.259 . S
O359 Mg350 2.114 . S
O359 C362 1.252 . S
O360 Mg350 2.251 . S
O360 Mg353 2.079 . S
O360 C362 1.273 . S
C361 O357 1.246 . S
C361 O358 1.259 . S
C362 O359 1.252 . S
C362 O360 1.273 . S
O363 Mg350 2.010 . S
O363 C355 1.249 . S
Mg364 O365 2.028 . S
Mg364 O371 1.986 . S
Mg364 O373 2.114 . S
Mg364 O374 2.251 . S
Mg364 O377 2.010 . S
O365 Mg364 2.028 . S
O365 C368 1.250 . S
O366 Mg367 2.028 . S
O366 C368 1.248 . S
Mg367 O366 2.028 . S
Mg367 O372 2.032 . S
Mg367 O374 2.079 . S
C368 O365 1.250 . S
C368 O366 1.248 . S
C369 O370 1.264 1_455 S
C369 O377 1.249 . S
O370 C369 1.264 1_655 S
O371 Mg364 1.986 . S
O371 C375 1.246 . S
O372 Mg367 2.032 . S
O372 C375 1.259 . S
O373 Mg364 2.114 . S
O373 C376 1.252 . S
O374 Mg364 2.251 . S
O374 Mg367 2.079 . S
O374 C376 1.273 . S
C375 O371 1.246 . S
C375 O372 1.259 . S
C376 O373 1.252 . S
C376 O374 1.273 . S
O377 Mg364 2.010 . S
O377 C369 1.249 . S
Mg378 O379 2.028 . S
Mg378 O385 1.986 . S
Mg378 O387 2.114 . S
Mg378 O388 2.251 . S
Mg378 O391 2.010 . S
O379 Mg378 2.028 . S
O379 C382 1.250 . S
O380 Mg381 2.028 . S
O380 C382 1.248 . S
Mg381 O380 2.028 . S
Mg381 O386 2.032 . S
Mg381 O388 2.079 . S
C382 O379 1.250 . S
C382 O380 1.248 . S
C383 O384 1.264 1_545 S
C383 O391 1.249 . S
O384 C383 1.264 1_565 S
O385 Mg378 1.986 . S
O385 C389 1.246 . S
O386 Mg381 2.032 . S
O386 C389 1.259 . S
O387 Mg378 2.114 . S
O387 C390 1.252 . S
O388 Mg378 2.251 . S
O388 Mg381 2.079 . S
O388 C390 1.273 . S
C389 O385 1.246 . S
C389 O386 1.259 . S
C390 O387 1.252 . S
C390 O388 1.273 . S
O391 Mg378 2.010 . S
O391 C383 1.249 . S
Mg392 O393 2.028 . S
Mg392 O399 1.986 . S
Mg392 O401 2.114 . S
Mg392 O402 2.251 . S
Mg392 O405 2.010 . S
O393 Mg392 2.028 . S
O393 C396 1.250 . S
O394 Mg395 2.028 . S
O394 C396 1.248 . S
Mg395 O394 2.028 . S
Mg395 O400 2.032 . S
Mg395 O402 2.079 . S
C396 O393 1.250 . S
C396 O394 1.248 . S
C397 O398 1.264 1_655 S
C397 O405 1.249 . S
O398 C397 1.264 1_455 S
O399 Mg392 1.986 . S
O399 C403 1.246 . S
O400 Mg395 2.032 . S
O400 C403 1.259 . S
O401 Mg392 2.114 . S
O401 C404 1.252 . S
O402 Mg392 2.251 . S
O402 Mg395 2.079 . S
O402 C404 1.273 . S
C403 O399 1.246 . S
C403 O400 1.259 . S
C404 O401 1.252 . S
C404 O402 1.273 . S
O405 Mg392 2.010 . S
O405 C397 1.249 . S
Mg406 O407 2.028 . S
Mg406 O413 1.986 . S
Mg406 O415 2.114 . S
Mg406 O416 2.251 . S
Mg406 O419 2.010 . S
O407 Mg406 2.028 . S
O407 C410 1.250 . S
O408 Mg409 2.028 . S
O408 C410 1.248 . S
Mg409 O408 2.028 . S
Mg409 O414 2.032 . S
Mg409 O416 2.079 . S
C410 O407 1.250 . S
C410 O408 1.248 . S
C411 O412 1.264 1_565 S
C411 O419 1.249 . S
O412 C411 1.264 1_545 S
O413 Mg406 1.986 . S
O413 C417 1.246 . S
O414 Mg409 2.032 . S
O414 C417 1.259 . S
O415 Mg406 2.114 . S
O415 C418 1.252 . S
O416 Mg406 2.251 . S
O416 Mg409 2.079 . S
O416 C418 1.273 . S
C417 O413 1.246 . S
C417 O414 1.259 . S
C418 O415 1.252 . S
C418 O416 1.273 . S
O419 Mg406 2.010 . S
O419 C411 1.249 . S
Mg420 O421 2.028 . S
Mg420 O427 1.986 . S
Mg420 O429 2.114 . S
Mg420 O430 2.251 . S
Mg420 O433 2.010 . S
O421 Mg420 2.028 . S
O421 C424 1.250 . S
O422 Mg423 2.028 . S
O422 C424 1.248 . S
Mg423 O422 2.028 . S
Mg423 O428 2.032 . S
Mg423 O430 2.079 . S
C424 O421 1.250 . S
C424 O422 1.248 . S
C425 O426 1.264 1_455 S
C425 O433 1.249 . S
O426 C425 1.264 1_655 S
O427 Mg420 1.986 . S
O427 C431 1.246 . S
O428 Mg423 2.032 . S
O428 C431 1.259 . S
O429 Mg420 2.114 . S
O429 C432 1.252 . S
O430 Mg420 2.251 . S
O430 Mg423 2.079 . S
O430 C432 1.273 . S
C431 O427 1.246 . S
C431 O428 1.259 . S
C432 O429 1.252 . S
C432 O430 1.273 . S
O433 Mg420 2.010 . S
O433 C425 1.249 . S
Mg434 O435 2.028 . S
Mg434 O441 1.986 . S
Mg434 O443 2.114 . S
Mg434 O444 2.251 . S
Mg434 O447 2.010 . S
O435 Mg434 2.028 . S
O435 C438 1.250 . S
O436 Mg437 2.028 . S
O436 C438 1.248 . S
Mg437 O436 2.028 . S
Mg437 O442 2.032 . S
Mg437 O444 2.079 . S
C438 O435 1.250 . S
C438 O436 1.248 . S
C439 O440 1.264 1_545 S
C439 O447 1.249 . S
O440 C439 1.264 1_565 S
O441 Mg434 1.986 . S
O441 C445 1.246 . S
O442 Mg437 2.032 . S
O442 C445 1.259 . S
O443 Mg434 2.114 . S
O443 C446 1.252 . S
O444 Mg434 2.251 . S
O444 Mg437 2.079 . S
O444 C446 1.273 . S
C445 O441 1.246 . S
C445 O442 1.259 . S
C446 O443 1.252 . S
C446 O444 1.273 . S
O447 Mg434 2.010 . S
O447 C439 1.249 . S
Mg448 O449 2.028 . S
Mg448 O455 1.986 . S
Mg448 O457 2.114 . S
Mg448 O458 2.251 . S
Mg448 O461 2.010 . S
O449 Mg448 2.028 . S
O449 C452 1.250 . S
O450 Mg451 2.028 . S
O450 C452 1.248 . S
Mg451 O450 2.028 . S
Mg451 O456 2.032 . S
Mg451 O458 2.079 . S
C452 O449 1.250 . S
C452 O450 1.248 . S
C453 O454 1.264 1_565 S
C453 O461 1.249 . S
O454 C453 1.264 1_545 S
O455 Mg448 1.986 . S
O455 C459 1.246 . S
O456 Mg451 2.032 . S
O456 C459 1.259 . S
O457 Mg448 2.114 . S
O457 C460 1.252 . S
O458 Mg448 2.251 . S
O458 Mg451 2.079 . S
O458 C460 1.273 . S
C459 O455 1.246 . S
C459 O456 1.259 . S
C460 O457 1.252 . S
C460 O458 1.273 . S
O461 Mg448 2.010 . S
O461 C453 1.249 . S
Mg462 O463 2.028 . S
Mg462 O469 1.986 . S
Mg462 O471 2.114 . S
Mg462 O472 2.251 . S
Mg462 O475 2.010 . S
O463 Mg462 2.028 . S
O463 C466 1.250 . S
O464 Mg465 2.028 . S
O464 C466 1.248 . S
Mg465 O464 2.028 . S
Mg465 O470 2.032 . S
Mg465 O472 2.079 . S
C466 O463 1.250 . S
C466 O464 1.248 . S
C467 O468 1.264 1_455 S
C467 O475 1.249 . S
O468 C467 1.264 1_655 S
O469 Mg462 1.986 . S
O469 C473 1.246 . S
O470 Mg465 2.032 . S
O470 C473 1.259 . S
O471 Mg462 2.114 . S
O471 C474 1.252 . S
O472 Mg462 2.251 . S
O472 Mg465 2.079 . S
O472 C474 1.273 . S
C473 O469 1.246 . S
C473 O470 1.259 . S
C474 O471 1.252 . S
C474 O472 1.273 . S
O475 Mg462 2.010 . S
O475 C467 1.249 . S
Mg476 O477 2.028 . S
Mg476 O483 1.986 . S
Mg476 O485 2.114 . S
Mg476 O486 2.251 . S
Mg476 O489 2.010 . S
O477 Mg476 2.028 . S
O477 C480 1.250 . S
O478 Mg479 2.028 . S
O478 C480 1.248 . S
Mg479 O478 2.028 . S
Mg479 O484 2.032 . S
Mg479 O486 2.079 . S
C480 O477 1.250 . S
C480 O478 1.248 . S
C481 O482 1.264 1_545 S
C481 O489 1.249 . S
O482 C481 1.264 1_565 S
O483 Mg476 1.986 . S
O483 C487 1.246 . S
O484 Mg479 2.032 . S
O484 C487 1.259 . S
O485 Mg476 2.114 . S
O485 C488 1.252 . S
O486 Mg476 2.251 . S
O486 Mg479 2.079 . S
O486 C488 1.273 . S
C487 O483 1.246 . S
C487 O484 1.259 . S
C488 O485 1.252 . S
C488 O486 1.273 . S
O489 Mg476 2.010 . S
O489 C481 1.249 . S
Mg490 O491 2.028 . S
Mg490 O497 1.986 . S
Mg490 O499 2.114 . S
Mg490 O500 2.251 . S
Mg490 O503 2.010 . S
O491 Mg490 2.028 . S
O491 C494 1.250 . S
O492 Mg493 2.028 . S
O492 C494 1.248 . S
Mg493 O492 2.028 . S
Mg493 O498 2.032 . S
Mg493 O500 2.079 . S
C494 O491 1.250 . S
C494 O492 1.248 . S
C495 O496 1.264 1_655 S
C495 O503 1.249 . S
O496 C495 1.264 1_455 S
O497 Mg490 1.986 . S
O497 C501 1.246 . S
O498 Mg493 2.032 . S
O498 C501 1.259 . S
O499 Mg490 2.114 . S
O499 C502 1.252 . S
O500 Mg490 2.251 . S
O500 Mg493 2.079 . S
O500 C502 1.273 . S
C501 O497 1.246 . S
C501 O498 1.259 . S
C502 O499 1.252 . S
C502 O500 1.273 . S
O503 Mg490 2.010 . S
O503 C495 1.249 . S
Mg504 O505 2.028 . S
Mg504 O511 1.986 . S
Mg504 O513 2.114 . S
Mg504 O514 2.251 . S
Mg504 O517 2.010 . S
O505 Mg504 2.028 . S
O505 C508 1.250 . S
O506 Mg507 2.028 . S
O506 C508 1.248 . S
Mg507 O506 2.028 . S
Mg507 O512 2.032 . S
Mg507 O514 2.079 . S
C508 O505 1.250 . S
C508 O506 1.248 . S
C509 O510 1.264 1_545 S
C509 O517 1.249 . S
O510 C509 1.264 1_565 S
O511 Mg504 1.986 . S
O511 C515 1.246 . S
O512 Mg507 2.032 . S
O512 C515 1.259 . S
O513 Mg504 2.114 . S
O513 C516 1.252 . S
O514 Mg504 2.251 . S
O514 Mg507 2.079 . S
O514 C516 1.273 . S
C515 O511 1.246 . S
C515 O512 1.259 . S
C516 O513 1.252 . S
C516 O514 1.273 . S
O517 Mg504 2.010 . S
O517 C509 1.249 . S
Mg518 O519 2.028 . S
Mg518 O525 1.986 . S
Mg518 O527 2.114 . S
Mg518 O528 2.251 . S
Mg518 O531 2.010 . S
O519 Mg518 2.028 . S
O519 C522 1.250 . S
O520 Mg521 2.028 . S
O520 C522 1.248 . S
Mg521 O520 2.028 . S
Mg521 O526 2.032 . S
Mg521 O528 2.079 . S
C522 O519 1.250 . S
C522 O520 1.248 . S
C523 O524 1.264 1_655 S
C523 O531 1.249 . S
O524 C523 1.264 1_455 S
O525 Mg518 1.986 . S
O525 C529 1.246 . S
O526 Mg521 2.032 . S
O526 C529 1.259 . S
O527 Mg518 2.114 . S
O527 C530 1.252 . S
O528 Mg518 2.251 . S
O528 Mg521 2.079 . S
O528 C530 1.273 . S
C529 O525 1.246 . S
C529 O526 1.259 . S
C530 O527 1.252 . S
C530 O528 1.273 . S
O531 Mg518 2.010 . S
O531 C523 1.249 . S
Mg532 O533 2.028 . S
Mg532 O539 1.986 . S
Mg532 O541 2.114 . S
Mg532 O542 2.251 . S
Mg532 O545 2.010 . S
O533 Mg532 2.028 . S
O533 C536 1.250 . S
O534 Mg535 2.028 . S
O534 C536 1.248 . S
Mg535 O534 2.028 . S
Mg535 O540 2.032 . S
Mg535 O542 2.079 . S
C536 O533 1.250 . S
C536 O534 1.248 . S
C537 O538 1.264 1_565 S
C537 O545 1.249 . S
O538 C537 1.264 1_545 S
O539 Mg532 1.986 . S
O539 C543 1.246 . S
O540 Mg535 2.032 . S
O540 C543 1.259 . S
O541 Mg532 2.114 . S
O541 C544 1.252 . S
O542 Mg532 2.251 . S
O542 Mg535 2.079 . S
O542 C544 1.273 . S
C543 O539 1.246 . S
C543 O540 1.259 . S
C544 O541 1.252 . S
C544 O542 1.273 . S
O545 Mg532 2.010 . S
O545 C537 1.249 . S
Mg546 O547 2.028 . S
Mg546 O553 1.986 . S
Mg546 O555 2.114 . S
Mg546 O556 2.251 . S
Mg546 O559 2.010 . S
O547 Mg546 2.028 . S
O547 C550 1.250 . S
O548 Mg549 2.028 . S
O548 C550 1.248 . S
Mg549 O548 2.028 . S
Mg549 O554 2.032 . S
Mg549 O556 2.079 . S
C550 O547 1.250 . S
C550 O548 1.248 . S
C551 O552 1.264 1_455 S
C551 O559 1.249 . S
O552 C551 1.264 1_655 S
O553 Mg546 1.986 . S
O553 C557 1.246 . S
O554 Mg549 2.032 . S
O554 C557 1.259 . S
O555 Mg546 2.114 . S
O555 C558 1.252 . S
O556 Mg546 2.251 . S
O556 Mg549 2.079 . S
O556 C558 1.273 . S
C557 O553 1.246 . S
C557 O554 1.259 . S
C558 O555 1.252 . S
C558 O556 1.273 . S
O559 Mg546 2.010 . S
O559 C551 1.249 . S
Mg560 O561 2.028 . S
Mg560 O567 1.986 . S
Mg560 O569 2.114 . S
Mg560 O570 2.251 . S
Mg560 O573 2.010 . S
O561 Mg560 2.028 . S
O561 C564 1.250 . S
O562 Mg563 2.028 . S
O562 C564 1.248 . S
Mg563 O562 2.028 . S
Mg563 O568 2.032 . S
Mg563 O570 2.079 . S
C564 O561 1.250 . S
C564 O562 1.248 . S
C565 O566 1.264 1_556 S
C565 O573 1.249 . S
O566 C565 1.264 1_554 S
O567 Mg560 1.986 . S
O567 C571 1.246 . S
O568 Mg563 2.032 . S
O568 C571 1.259 . S
O569 Mg560 2.114 . S
O569 C572 1.252 . S
O570 Mg560 2.251 . S
O570 Mg563 2.079 . S
O570 C572 1.273 . S
C571 O567 1.246 . S
C571 O568 1.259 . S
C572 O569 1.252 . S
C572 O570 1.273 . S
O573 Mg560 2.010 . S
O573 C565 1.249 . S
Mg574 O575 2.028 . S
Mg574 O581 1.986 . S
Mg574 O583 2.114 . S
Mg574 O584 2.251 . S
Mg574 O587 2.010 . S
O575 Mg574 2.028 . S
O575 C578 1.250 . S
O576 Mg577 2.028 . S
O576 C578 1.248 . S
Mg577 O576 2.028 . S
Mg577 O582 2.032 . S
Mg577 O584 2.079 . S
C578 O575 1.250 . S
C578 O576 1.248 . S
C579 O580 1.264 1_554 S
C579 O587 1.249 . S
O580 C579 1.264 1_556 S
O581 Mg574 1.986 . S
O581 C585 1.246 . S
O582 Mg577 2.032 . S
O582 C585 1.259 . S
O583 Mg574 2.114 . S
O583 C586 1.252 . S
O584 Mg574 2.251 . S
O584 Mg577 2.079 . S
O584 C586 1.273 . S
C585 O581 1.246 . S
C585 O582 1.259 . S
C586 O583 1.252 . S
C586 O584 1.273 . S
O587 Mg574 2.010 . S
O587 C579 1.249 . S
Mg588 O589 2.028 . S
Mg588 O595 1.986 . S
Mg588 O597 2.114 . S
Mg588 O598 2.251 . S
Mg588 O601 2.010 . S
O589 Mg588 2.028 . S
O589 C592 1.250 . S
O590 Mg591 2.028 . S
O590 C592 1.248 . S
Mg591 O590 2.028 . S
Mg591 O596 2.032 . S
Mg591 O598 2.079 . S
C592 O589 1.250 . S
C592 O590 1.248 . S
C593 O594 1.264 1_554 S
C593 O601 1.249 . S
O594 C593 1.264 1_556 S
O595 Mg588 1.986 . S
O595 C599 1.246 . S
O596 Mg591 2.032 . S
O596 C599 1.259 . S
O597 Mg588 2.114 . S
O597 C600 1.252 . S
O598 Mg588 2.251 . S
O598 Mg591 2.079 . S
O598 C600 1.273 . S
C599 O595 1.246 . S
C599 O596 1.259 . S
C600 O597 1.252 . S
C600 O598 1.273 . S
O601 Mg588 2.010 . S
O601 C593 1.249 . S
Mg602 O603 2.028 . S
Mg602 O609 1.986 . S
Mg602 O611 2.114 . S
Mg602 O612 2.251 . S
Mg602 O615 2.010 . S
O603 Mg602 2.028 . S
O603 C606 1.250 . S
O604 Mg605 2.028 . S
O604 C606 1.248 . S
Mg605 O604 2.028 . S
Mg605 O610 2.032 . S
Mg605 O612 2.079 . S
C606 O603 1.250 . S
C606 O604 1.248 . S
C607 O608 1.264 1_554 S
C607 O615 1.249 . S
O608 C607 1.264 1_556 S
O609 Mg602 1.986 . S
O609 C613 1.246 . S
O610 Mg605 2.032 . S
O610 C613 1.259 . S
O611 Mg602 2.114 . S
O611 C614 1.252 . S
O612 Mg602 2.251 . S
O612 Mg605 2.079 . S
O612 C614 1.273 . S
C613 O609 1.246 . S
C613 O610 1.259 . S
C614 O611 1.252 . S
C614 O612 1.273 . S
O615 Mg602 2.010 . S
O615 C607 1.249 . S
Mg616 O617 2.028 . S
Mg616 O623 1.986 . S
Mg616 O625 2.114 . S
Mg616 O626 2.251 . S
Mg616 O629 2.010 . S
O617 Mg616 2.028 . S
O617 C620 1.250 . S
O618 Mg619 2.028 . S
O618 C620 1.248 . S
Mg619 O618 2.028 . S
Mg619 O624 2.032 . S
Mg619 O626 2.079 . S
C620 O617 1.250 . S
C620 O618 1.248 . S
C621 O622 1.264 1_554 S
C621 O629 1.249 . S
O622 C621 1.264 1_556 S
O623 Mg616 1.986 . S
O623 C627 1.246 . S
O624 Mg619 2.032 . S
O624 C627 1.259 . S
O625 Mg616 2.114 . S
O625 C628 1.252 . S
O626 Mg616 2.251 . S
O626 Mg619 2.079 . S
O626 C628 1.273 . S
C627 O623 1.246 . S
C627 O624 1.259 . S
C628 O625 1.252 . S
C628 O626 1.273 . S
O629 Mg616 2.010 . S
O629 C621 1.249 . S
Mg630 O631 2.028 . S
Mg630 O637 1.986 . S
Mg630 O639 2.114 . S
Mg630 O640 2.251 . S
Mg630 O643 2.010 . S
O631 Mg630 2.028 . S
O631 C634 1.250 . S
O632 Mg633 2.028 . S
O632 C634 1.248 . S
Mg633 O632 2.028 . S
Mg633 O638 2.032 . S
Mg633 O640 2.079 . S
C634 O631 1.250 . S
C634 O632 1.248 . S
C635 O636 1.264 1_556 S
C635 O643 1.249 . S
O636 C635 1.264 1_554 S
O637 Mg630 1.986 . S
O637 C641 1.246 . S
O638 Mg633 2.032 . S
O638 C641 1.259 . S
O639 Mg630 2.114 . S
O639 C642 1.252 . S
O640 Mg630 2.251 . S
O640 Mg633 2.079 . S
O640 C642 1.273 . S
C641 O637 1.246 . S
C641 O638 1.259 . S
C642 O639 1.252 . S
C642 O640 1.273 . S
O643 Mg630 2.010 . S
O643 C635 1.249 . S
Mg644 O645 2.028 . S
Mg644 O651 1.986 . S
Mg644 O653 2.114 . S
Mg644 O654 2.251 . S
Mg644 O657 2.010 . S
O645 Mg644 2.028 . S
O645 C648 1.250 . S
O646 Mg647 2.028 . S
O646 C648 1.248 . S
Mg647 O646 2.028 . S
Mg647 O652 2.032 . S
Mg647 O654 2.079 . S
C648 O645 1.250 . S
C648 O646 1.248 . S
C649 O650 1.264 1_556 S
C649 O657 1.249 . S
O650 C649 1.264 1_554 S
O651 Mg644 1.986 . S
O651 C655 1.246 . S
O652 Mg647 2.032 . S
O652 C655 1.259 . S
O653 Mg644 2.114 . S
O653 C656 1.252 . S
O654 Mg644 2.251 . S
O654 Mg647 2.079 . S
O654 C656 1.273 . S
C655 O651 1.246 . S
C655 O652 1.259 . S
C656 O653 1.252 . S
C656 O654 1.273 . S
O657 Mg644 2.010 . S
O657 C649 1.249 . S
Mg658 O659 2.028 . S
Mg658 O665 1.986 . S
Mg658 O667 2.114 . S
Mg658 O668 2.251 . S
Mg658 O671 2.010 . S
O659 Mg658 2.028 . S
O659 C662 1.250 . S
O660 Mg661 2.028 . S
O660 C662 1.248 . S
Mg661 O660 2.028 . S
Mg661 O666 2.032 . S
Mg661 O668 2.079 . S
C662 O659 1.250 . S
C662 O660 1.248 . S
C663 O664 1.264 1_556 S
C663 O671 1.249 . S
O664 C663 1.264 1_554 S
O665 Mg658 1.986 . S
O665 C669 1.246 . S
O666 Mg661 2.032 . S
O666 C669 1.259 . S
O667 Mg658 2.114 . S
O667 C670 1.252 . S
O668 Mg658 2.251 . S
O668 Mg661 2.079 . S
O668 C670 1.273 . S
C669 O665 1.246 . S
C669 O666 1.259 . S
C670 O667 1.252 . S
C670 O668 1.273 . S
O671 Mg658 2.010 . S
O671 C663 1.249 . S
Mg672 O673 2.028 . S
Mg672 O679 1.986 . S
Mg672 O681 2.114 . S
Mg672 O682 2.251 . S
Mg672 O685 2.010 . S
O673 Mg672 2.028 . S
O673 C676 1.250 . S
O674 Mg675 2.028 . S
O674 C676 1.248 . S
Mg675 O674 2.028 . S
Mg675 O680 2.032 . S
Mg675 O682 2.079 . S
C676 O673 1.250 . S
C676 O674 1.248 . S
C677 O678 1.264 . S
C677 O685 1.249 . S
O678 C677 1.264 . S
O679 Mg672 1.986 . S
O679 C683 1.246 . S
O680 Mg675 2.032 . S
O680 C683 1.259 . S
O681 Mg672 2.114 . S
O681 C684 1.252 . S
O682 Mg672 2.251 . S
O682 Mg675 2.079 . S
O682 C684 1.273 . S
C683 O679 1.246 . S
C683 O680 1.259 . S
C684 O681 1.252 . S
C684 O682 1.273 . S
O685 Mg672 2.010 . S
O685 C677 1.249 . S
Mg686 O687 2.028 . S
Mg686 O693 1.986 . S
Mg686 O695 2.114 . S
Mg686 O696 2.251 . S
Mg686 O699 2.010 . S
O687 Mg686 2.028 . S
O687 C690 1.250 . S
O688 Mg689 2.028 . S
O688 C690 1.248 . S
Mg689 O688 2.028 . S
Mg689 O694 2.032 . S
Mg689 O696 2.079 . S
C690 O687 1.250 . S
C690 O688 1.248 . S
C691 O692 1.264 . S
C691 O699 1.249 . S
O692 C691 1.264 . S
O693 Mg686 1.986 . S
O693 C697 1.246 . S
O694 Mg689 2.032 . S
O694 C697 1.259 . S
O695 Mg686 2.114 . S
O695 C698 1.252 . S
O696 Mg686 2.251 . S
O696 Mg689 2.079 . S
O696 C698 1.273 . S
C697 O693 1.246 . S
C697 O694 1.259 . S
C698 O695 1.252 . S
C698 O696 1.273 . S
O699 Mg686 2.010 . S
O699 C691 1.249 . S
Mg700 O701 2.028 . S
Mg700 O707 1.986 . S
Mg700 O709 2.114 . S
Mg700 O710 2.251 . S
Mg700 O713 2.010 . S
O701 Mg700 2.028 . S
O701 C704 1.250 . S
O702 Mg703 2.028 . S
O702 C704 1.248 . S
Mg703 O702 2.028 . S
Mg703 O708 2.032 . S
Mg703 O710 2.079 . S
C704 O701 1.250 . S
C704 O702 1.248 . S
C705 O706 1.264 . S
C705 O713 1.249 . S
O706 C705 1.264 . S
O707 Mg700 1.986 . S
O707 C711 1.246 . S
O708 Mg703 2.032 . S
O708 C711 1.259 . S
O709 Mg700 2.114 . S
O709 C712 1.252 . S
O710 Mg700 2.251 . S
O710 Mg703 2.079 . S
O710 C712 1.273 . S
C711 O707 1.246 . S
C711 O708 1.259 . S
C712 O709 1.252 . S
C712 O710 1.273 . S
O713 Mg700 2.010 . S
O713 C705 1.249 . S
Mg714 O715 2.028 . S
Mg714 O721 1.986 . S
Mg714 O723 2.114 . S
Mg714 O724 2.251 . S
Mg714 O727 2.010 . S
O715 Mg714 2.028 . S
O715 C718 1.250 . S
O716 Mg717 2.028 . S
O716 C718 1.248 . S
Mg717 O716 2.028 . S
Mg717 O722 2.032 . S
Mg717 O724 2.079 . S
C718 O715 1.250 . S
C718 O716 1.248 . S
C719 O720 1.264 . S
C719 O727 1.249 . S
O720 C719 1.264 . S
O721 Mg714 1.986 . S
O721 C725 1.246 . S
O722 Mg717 2.032 . S
O722 C725 1.259 . S
O723 Mg714 2.114 . S
O723 C726 1.252 . S
O724 Mg714 2.251 . S
O724 Mg717 2.079 . S
O724 C726 1.273 . S
C725 O721 1.246 . S
C725 O722 1.259 . S
C726 O723 1.252 . S
C726 O724 1.273 . S
O727 Mg714 2.010 . S
O727 C719 1.249 . S
Mg728 O729 2.028 . S
Mg728 O735 1.986 . S
Mg728 O737 2.114 . S
Mg728 O738 2.251 . S
Mg728 O741 2.010 . S
O729 Mg728 2.028 . S
O729 C732 1.250 . S
O730 Mg731 2.028 . S
O730 C732 1.248 . S
Mg731 O730 2.028 . S
Mg731 O736 2.032 . S
Mg731 O738 2.079 . S
C732 O729 1.250 . S
C732 O730 1.248 . S
C733 O734 1.264 . S
C733 O741 1.249 . S
O734 C733 1.264 . S
O735 Mg728 1.986 . S
O735 C739 1.246 . S
O736 Mg731 2.032 . S
O736 C739 1.259 . S
O737 Mg728 2.114 . S
O737 C740 1.252 . S
O738 Mg728 2.251 . S
O738 Mg731 2.079 . S
O738 C740 1.273 . S
C739 O735 1.246 . S
C739 O736 1.259 . S
C740 O737 1.252 . S
C740 O738 1.273 . S
O741 Mg728 2.010 . S
O741 C733 1.249 . S
Mg742 O743 2.028 . S
Mg742 O749 1.986 . S
Mg742 O751 2.114 . S
Mg742 O752 2.251 . S
Mg742 O755 2.010 . S
O743 Mg742 2.028 . S
O743 C746 1.250 . S
O744 Mg745 2.028 . S
O744 C746 1.248 . S
Mg745 O744 2.028 . S
Mg745 O750 2.032 . S
Mg745 O752 2.079 . S
C746 O743 1.250 . S
C746 O744 1.248 . S
C747 O748 1.264 . S
C747 O755 1.249 . S
O748 C747 1.264 . S
O749 Mg742 1.986 . S
O749 C753 1.246 . S
O750 Mg745 2.032 . S
O750 C753 1.259 . S
O751 Mg742 2.114 . S
O751 C754 1.252 . S
O752 Mg742 2.251 . S
O752 Mg745 2.079 . S
O752 C754 1.273 . S
C753 O749 1.246 . S
C753 O750 1.259 . S
C754 O751 1.252 . S
C754 O752 1.273 . S
O755 Mg742 2.010 . S
O755 C747 1.249 . S
Mg756 O757 2.028 . S
Mg756 O763 1.986 . S
Mg756 O765 2.114 . S
Mg756 O766 2.251 . S
Mg756 O769 2.010 . S
O757 Mg756 2.028 . S
O757 C760 1.250 . S
O758 Mg759 2.028 . S
O758 C760 1.248 . S
Mg759 O758 2.028 . S
Mg759 O764 2.032 . S
Mg759 O766 2.079 . S
C760 O757 1.250 . S
C760 O758 1.248 . S
C761 O762 1.264 . S
C761 O769 1.249 . S
O762 C761 1.264 . S
O763 Mg756 1.986 . S
O763 C767 1.246 . S
O764 Mg759 2.032 . S
O764 C767 1.259 . S
O765 Mg756 2.114 . S
O765 C768 1.252 . S
O766 Mg756 2.251 . S
O766 Mg759 2.079 . S
O766 C768 1.273 . S
C767 O763 1.246 . S
C767 O764 1.259 . S
C768 O765 1.252 . S
C768 O766 1.273 . S
O769 Mg756 2.010 . S
O769 C761 1.249 . S
Mg770 O771 2.028 . S
Mg770 O777 1.986 . S
Mg770 O779 2.114 . S
Mg770 O780 2.251 . S
Mg770 O783 2.010 . S
O771 Mg770 2.028 . S
O771 C774 1.250 . S
O772 Mg773 2.028 . S
O772 C774 1.248 . S
Mg773 O772 2.028 . S
Mg773 O778 2.032 . S
Mg773 O780 2.079 . S
C774 O771 1.250 . S
C774 O772 1.248 . S
C775 O776 1.264 . S
C775 O783 1.249 . S
O776 C775 1.264 . S
O777 Mg770 1.986 . S
O777 C781 1.246 . S
O778 Mg773 2.032 . S
O778 C781 1.259 . S
O779 Mg770 2.114 . S
O779 C782 1.252 . S
O780 Mg770 2.251 . S
O780 Mg773 2.079 . S
O780 C782 1.273 . S
C781 O777 1.246 . S
C781 O778 1.259 . S
C782 O779 1.252 . S
C782 O780 1.273 . S
O783 Mg770 2.010 . S
O783 C775 1.249 . S
Mg784 O785 2.028 . S
Mg784 O791 1.986 . S
Mg784 O793 2.114 . S
Mg784 O794 2.251 . S
Mg784 O797 2.010 . S
O785 Mg784 2.028 . S
O785 C788 1.250 . S
O786 Mg787 2.028 . S
O786 C788 1.248 . S
Mg787 O786 2.028 . S
Mg787 O792 2.032 . S
Mg787 O794 2.079 . S
C788 O785 1.250 . S
C788 O786 1.248 . S
C789 O790 1.264 . S
C789 O797 1.249 . S
O790 C789 1.264 . S
O791 Mg784 1.986 . S
O791 C795 1.246 . S
O792 Mg787 2.032 . S
O792 C795 1.259 . S
O793 Mg784 2.114 . S
O793 C796 1.252 . S
O794 Mg784 2.251 . S
O794 Mg787 2.079 . S
O794 C796 1.273 . S
C795 O791 1.246 . S
C795 O792 1.259 . S
C796 O793 1.252 . S
C796 O794 1.273 . S
O797 Mg784 2.010 . S
O797 C789 1.249 . S
Mg798 O799 2.028 . S
Mg798 O805 1.986 . S
Mg798 O807 2.114 . S
Mg798 O808 2.251 . S
Mg798 O811 2.010 . S
O799 Mg798 2.028 . S
O799 C802 1.250 . S
O800 Mg801 2.028 . S
O800 C802 1.248 . S
Mg801 O800 2.028 . S
Mg801 O806 2.032 . S
Mg801 O808 2.079 . S
C802 O799 1.250 . S
C802 O800 1.248 . S
C803 O804 1.264 . S
C803 O811 1.249 . S
O804 C803 1.264 . S
O805 Mg798 1.986 . S
O805 C809 1.246 . S
O806 Mg801 2.032 . S
O806 C809 1.259 . S
O807 Mg798 2.114 . S
O807 C810 1.252 . S
O808 Mg798 2.251 . S
O808 Mg801 2.079 . S
O808 C810 1.273 . S
C809 O805 1.246 . S
C809 O806 1.259 . S
C810 O807 1.252 . S
C810 O808 1.273 . S
O811 Mg798 2.010 . S
O811 C803 1.249 . S
Mg812 O813 2.028 . S
Mg812 O819 1.986 . S
Mg812 O821 2.114 . S
Mg812 O822 2.251 . S
Mg812 O825 2.010 . S
O813 Mg812 2.028 . S
O813 C816 1.250 . S
O814 Mg815 2.028 . S
O814 C816 1.248 . S
Mg815 O814 2.028 . S
Mg815 O820 2.032 . S
Mg815 O822 2.079 . S
C816 O813 1.250 . S
C816 O814 1.248 . S
C817 O818 1.264 . S
C817 O825 1.249 . S
O818 C817 1.264 . S
O819 Mg812 1.986 . S
O819 C823 1.246 . S
O820 Mg815 2.032 . S
O820 C823 1.259 . S
O821 Mg812 2.114 . S
O821 C824 1.252 . S
O822 Mg812 2.251 . S
O822 Mg815 2.079 . S
O822 C824 1.273 . S
C823 O819 1.246 . S
C823 O820 1.259 . S
C824 O821 1.252 . S
C824 O822 1.273 . S
O825 Mg812 2.010 . S
O825 C817 1.249 . S
Mg826 O827 2.028 . S
Mg826 O833 1.986 . S
Mg826 O835 2.114 . S
Mg826 O836 2.251 . S
Mg826 O839 2.010 . S
O827 Mg826 2.028 . S
O827 C830 1.250 . S
O828 Mg829 2.028 . S
O828 C830 1.248 . S
Mg829 O828 2.028 . S
Mg829 O834 2.032 . S
Mg829 O836 2.079 . S
C830 O827 1.250 . S
C830 O828 1.248 . S
C831 O832 1.264 . S
C831 O839 1.249 . S
O832 C831 1.264 . S
O833 Mg826 1.986 . S
O833 C837 1.246 . S
O834 Mg829 2.032 . S
O834 C837 1.259 . S
O835 Mg826 2.114 . S
O835 C838 1.252 . S
O836 Mg826 2.251 . S
O836 Mg829 2.079 . S
O836 C838 1.273 . S
C837 O833 1.246 . S
C837 O834 1.259 . S
C838 O835 1.252 . S
C838 O836 1.273 . S
O839 Mg826 2.010 . S
O839 C831 1.249 . S
Mg840 O841 2.028 . S
Mg840 O847 1.986 . S
Mg840 O849 2.114 . S
Mg840 O850 2.251 . S
Mg840 O853 2.010 . S
O841 Mg840 2.028 . S
O841 C844 1.250 . S
O842 Mg843 2.028 . S
O842 C844 1.248 . S
Mg843 O842 2.028 . S
Mg843 O848 2.032 . S
Mg843 O850 2.079 . S
C844 O841 1.250 . S
C844 O842 1.248 . S
C845 O846 1.264 . S
C845 O853 1.249 . S
O846 C845 1.264 . S
O847 Mg840 1.986 . S
O847 C851 1.246 . S
O848 Mg843 2.032 . S
O848 C851 1.259 . S
O849 Mg840 2.114 . S
O849 C852 1.252 . S
O850 Mg840 2.251 . S
O850 Mg843 2.079 . S
O850 C852 1.273 . S
C851 O847 1.246 . S
C851 O848 1.259 . S
C852 O849 1.252 . S
C852 O850 1.273 . S
O853 Mg840 2.010 . S
O853 C845 1.249 . S
Mg854 O855 2.028 . S
Mg854 O861 1.986 . S
Mg854 O863 2.114 . S
Mg854 O864 2.251 . S
Mg854 O867 2.010 . S
O855 Mg854 2.028 . S
O855 C858 1.250 . S
O856 Mg857 2.028 . S
O856 C858 1.248 . S
Mg857 O856 2.028 . S
Mg857 O862 2.032 . S
Mg857 O864 2.079 . S
C858 O855 1.250 . S
C858 O856 1.248 . S
C859 O860 1.264 . S
C859 O867 1.249 . S
O860 C859 1.264 . S
O861 Mg854 1.986 . S
O861 C865 1.246 . S
O862 Mg857 2.032 . S
O862 C865 1.259 . S
O863 Mg854 2.114 . S
O863 C866 1.252 . S
O864 Mg854 2.251 . S
O864 Mg857 2.079 . S
O864 C866 1.273 . S
C865 O861 1.246 . S
C865 O862 1.259 . S
C866 O863 1.252 . S
C866 O864 1.273 . S
O867 Mg854 2.010 . S
O867 C859 1.249 . S
Mg868 O869 2.028 . S
Mg868 O875 1.986 . S
Mg868 O877 2.114 . S
Mg868 O878 2.251 . S
Mg868 O881 2.010 . S
O869 Mg868 2.028 . S
O869 C872 1.250 . S
O870 Mg871 2.028 . S
O870 C872 1.248 . S
Mg871 O870 2.028 . S
Mg871 O876 2.032 . S
Mg871 O878 2.079 . S
C872 O869 1.250 . S
C872 O870 1.248 . S
C873 O874 1.264 . S
C873 O881 1.249 . S
O874 C873 1.264 . S
O875 Mg868 1.986 . S
O875 C879 1.246 . S
O876 Mg871 2.032 . S
O876 C879 1.259 . S
O877 Mg868 2.114 . S
O877 C880 1.252 . S
O878 Mg868 2.251 . S
O878 Mg871 2.079 . S
O878 C880 1.273 . S
C879 O875 1.246 . S
C879 O876 1.259 . S
C880 O877 1.252 . S
C880 O878 1.273 . S
O881 Mg868 2.010 . S
O881 C873 1.249 . S
Mg882 O883 2.028 . S
Mg882 O889 1.986 . S
Mg882 O891 2.114 . S
Mg882 O892 2.251 . S
Mg882 O895 2.010 . S
O883 Mg882 2.028 . S
O883 C886 1.250 . S
O884 Mg885 2.028 . S
O884 C886 1.248 . S
Mg885 O884 2.028 . S
Mg885 O890 2.032 . S
Mg885 O892 2.079 . S
C886 O883 1.250 . S
C886 O884 1.248 . S
C887 O888 1.264 . S
C887 O895 1.249 . S
O888 C887 1.264 . S
O889 Mg882 1.986 . S
O889 C893 1.246 . S
O890 Mg885 2.032 . S
O890 C893 1.259 . S
O891 Mg882 2.114 . S
O891 C894 1.252 . S
O892 Mg882 2.251 . S
O892 Mg885 2.079 . S
O892 C894 1.273 . S
C893 O889 1.246 . S
C893 O890 1.259 . S
C894 O891 1.252 . S
C894 O892 1.273 . S
O895 Mg882 2.010 . S
O895 C887 1.249 . S
Mg896 O897 2.028 . S
Mg896 O903 1.986 . S
Mg896 O905 2.114 . S
Mg896 O906 2.251 . S
Mg896 O909 2.010 . S
O897 Mg896 2.028 . S
O897 C900 1.250 . S
O898 Mg899 2.028 . S
O898 C900 1.248 . S
Mg899 O898 2.028 . S
Mg899 O904 2.032 . S
Mg899 O906 2.079 . S
C900 O897 1.250 . S
C900 O898 1.248 . S
C901 O902 1.264 . S
C901 O909 1.249 . S
O902 C901 1.264 . S
O903 Mg896 1.986 . S
O903 C907 1.246 . S
O904 Mg899 2.032 . S
O904 C907 1.259 . S
O905 Mg896 2.114 . S
O905 C908 1.252 . S
O906 Mg896 2.251 . S
O906 Mg899 2.079 . S
O906 C908 1.273 . S
C907 O903 1.246 . S
C907 O904 1.259 . S
C908 O905 1.252 . S
C908 O906 1.273 . S
O909 Mg896 2.010 . S
O909 C901 1.249 . S
Mg910 O911 2.028 . S
Mg910 O917 1.986 . S
Mg910 O919 2.114 . S
Mg910 O920 2.251 . S
Mg910 O923 2.010 . S
O911 Mg910 2.028 . S
O911 C914 1.250 . S
O912 Mg913 2.028 . S
O912 C914 1.248 . S
Mg913 O912 2.028 . S
Mg913 O918 2.032 . S
Mg913 O920 2.079 . S
C914 O911 1.250 . S
C914 O912 1.248 . S
C915 O916 1.264 . S
C915 O923 1.249 . S
O916 C915 1.264 . S
O917 Mg910 1.986 . S
O917 C921 1.246 . S
O918 Mg913 2.032 . S
O918 C921 1.259 . S
O919 Mg910 2.114 . S
O919 C922 1.252 . S
O920 Mg910 2.251 . S
O920 Mg913 2.079 . S
O920 C922 1.273 . S
C921 O917 1.246 . S
C921 O918 1.259 . S
C922 O919 1.252 . S
C922 O920 1.273 . S
O923 Mg910 2.010 . S
O923 C915 1.249 . S
Mg924 O925 2.028 . S
Mg924 O931 1.986 . S
Mg924 O933 2.114 . S
Mg924 O934 2.251 . S
Mg924 O937 2.010 . S
O925 Mg924 2.028 . S
O925 C928 1.250 . S
O926 Mg927 2.028 . S
O926 C928 1.248 . S
Mg927 O926 2.028 . S
Mg927 O932 2.032 . S
Mg927 O934 2.079 . S
C928 O925 1.250 . S
C928 O926 1.248 . S
C929 O930 1.264 . S
C929 O937 1.249 . S
O930 C929 1.264 . S
O931 Mg924 1.986 . S
O931 C935 1.246 . S
O932 Mg927 2.032 . S
O932 C935 1.259 . S
O933 Mg924 2.114 . S
O933 C936 1.252 . S
O934 Mg924 2.251 . S
O934 Mg927 2.079 . S
O934 C936 1.273 . S
C935 O931 1.246 . S
C935 O932 1.259 . S
C936 O933 1.252 . S
C936 O934 1.273 . S
O937 Mg924 2.010 . S
O937 C929 1.249 . S
Mg938 O939 2.028 . S
Mg938 O945 1.986 . S
Mg938 O947 2.114 . S
Mg938 O948 2.251 . S
Mg938 O951 2.010 . S
O939 Mg938 2.028 . S
O939 C942 1.250 . S
O940 Mg941 2.028 . S
O940 C942 1.248 . S
Mg941 O940 2.028 . S
Mg941 O946 2.032 . S
Mg941 O948 2.079 . S
C942 O939 1.250 . S
C942 O940 1.248 . S
C943 O944 1.264 . S
C943 O951 1.249 . S
O944 C943 1.264 . S
O945 Mg938 1.986 . S
O945 C949 1.246 . S
O946 Mg941 2.032 . S
O946 C949 1.259 . S
O947 Mg938 2.114 . S
O947 C950 1.252 . S
O948 Mg938 2.251 . S
O948 Mg941 2.079 . S
O948 C950 1.273 . S
C949 O945 1.246 . S
C949 O946 1.259 . S
C950 O947 1.252 . S
C950 O948 1.273 . S
O951 Mg938 2.010 . S
O951 C943 1.249 . S
Mg952 O953 2.028 . S
Mg952 O959 1.986 . S
Mg952 O961 2.114 . S
Mg952 O962 2.251 . S
Mg952 O965 2.010 . S
O953 Mg952 2.028 . S
O953 C956 1.250 . S
O954 Mg955 2.028 . S
O954 C956 1.248 . S
Mg955 O954 2.028 . S
Mg955 O960 2.032 . S
Mg955 O962 2.079 . S
C956 O953 1.250 . S
C956 O954 1.248 . S
C957 O958 1.264 . S
C957 O965 1.249 . S
O958 C957 1.264 . S
O959 Mg952 1.986 . S
O959 C963 1.246 . S
O960 Mg955 2.032 . S
O960 C963 1.259 . S
O961 Mg952 2.114 . S
O961 C964 1.252 . S
O962 Mg952 2.251 . S
O962 Mg955 2.079 . S
O962 C964 1.273 . S
C963 O959 1.246 . S
C963 O960 1.259 . S
C964 O961 1.252 . S
C964 O962 1.273 . S
O965 Mg952 2.010 . S
O965 C957 1.249 . S
Mg966 O967 2.028 . S
Mg966 O973 1.986 . S
Mg966 O975 2.114 . S
Mg966 O976 2.251 . S
Mg966 O979 2.010 . S
O967 Mg966 2.028 . S
O967 C970 1.250 . S
O968 Mg969 2.028 . S
O968 C970 1.248 . S
Mg969 O968 2.028 . S
Mg969 O974 2.032 . S
Mg969 O976 2.079 . S
C970 O967 1.250 . S
C970 O968 1.248 . S
C971 O972 1.264 . S
C971 O979 1.249 . S
O972 C971 1.264 . S
O973 Mg966 1.986 . S
O973 C977 1.246 . S
O974 Mg969 2.032 . S
O974 C977 1.259 . S
O975 Mg966 2.114 . S
O975 C978 1.252 . S
O976 Mg966 2.251 . S
O976 Mg969 2.079 . S
O976 C978 1.273 . S
C977 O973 1.246 . S
C977 O974 1.259 . S
C978 O975 1.252 . S
C978 O976 1.273 . S
O979 Mg966 2.010 . S
O979 C971 1.249 . S
Mg980 O981 2.028 . S
Mg980 O987 1.986 . S
Mg980 O989 2.114 . S
Mg980 O990 2.251 . S
Mg980 O993 2.010 . S
O981 Mg980 2.028 . S
O981 C984 1.250 . S
O982 Mg983 2.028 . S
O982 C984 1.248 . S
Mg983 O982 2.028 . S
Mg983 O988 2.032 . S
Mg983 O990 2.079 . S
C984 O981 1.250 . S
C984 O982 1.248 . S
C985 O986 1.264 . S
C985 O993 1.249 . S
O986 C985 1.264 . S
O987 Mg980 1.986 . S
O987 C991 1.246 . S
O988 Mg983 2.032 . S
O988 C991 1.259 . S
O989 Mg980 2.114 . S
O989 C992 1.252 . S
O990 Mg980 2.251 . S
O990 Mg983 2.079 . S
O990 C992 1.273 . S
C991 O987 1.246 . S
C991 O988 1.259 . S
C992 O989 1.252 . S
C992 O990 1.273 . S
O993 Mg980 2.010 . S
O993 C985 1.249 . S
Mg994 O995 2.028 . S
Mg994 O1001 1.986 . S
Mg994 O1003 2.114 . S
Mg994 O1004 2.251 . S
Mg994 O1007 2.010 . S
O995 Mg994 2.028 . S
O995 C998 1.250 . S
O996 Mg997 2.028 . S
O996 C998 1.248 . S
Mg997 O996 2.028 . S
Mg997 O1002 2.032 . S
Mg997 O1004 2.079 . S
C998 O995 1.250 . S
C998 O996 1.248 . S
C999 O1000 1.264 . S
C999 O1007 1.249 . S
O1000 C999 1.264 . S
O1001 Mg994 1.986 . S
O1001 C1005 1.246 . S
O1002 Mg997 2.032 . S
O1002 C1005 1.259 . S
O1003 Mg994 2.114 . S
O1003 C1006 1.252 . S
O1004 Mg994 2.251 . S
O1004 Mg997 2.079 . S
O1004 C1006 1.273 . S
C1005 O1001 1.246 . S
C1005 O1002 1.259 . S
C1006 O1003 1.252 . S
C1006 O1004 1.273 . S
O1007 Mg994 2.010 . S
O1007 C999 1.249 . S
Mg1008 O1009 2.028 . S
Mg1008 O1015 1.986 . S
Mg1008 O1017 2.114 . S
Mg1008 O1018 2.251 . S
Mg1008 O1021 2.010 . S
O1009 Mg1008 2.028 . S
O1009 C1012 1.250 . S
O1010 Mg1011 2.028 . S
O1010 C1012 1.248 . S
Mg1011 O1010 2.028 . S
Mg1011 O1016 2.032 . S
Mg1011 O1018 2.079 . S
C1012 O1009 1.250 . S
C1012 O1010 1.248 . S
C1013 O1014 1.264 . S
C1013 O1021 1.249 . S
O1014 C1013 1.264 . S
O1015 Mg1008 1.986 . S
O1015 C1019 1.246 . S
O1016 Mg1011 2.032 . S
O1016 C1019 1.259 . S
O1017 Mg1008 2.114 . S
O1017 C1020 1.252 . S
O1018 Mg1008 2.251 . S
O1018 Mg1011 2.079 . S
O1018 C1020 1.273 . S
C1019 O1015 1.246 . S
C1019 O1016 1.259 . S
C1020 O1017 1.252 . S
C1020 O1018 1.273 . S
O1021 Mg1008 2.010 . S
O1021 C1013 1.249 . S
Mg1022 O1023 2.028 . S
Mg1022 O1029 1.986 . S
Mg1022 O1031 2.114 . S
Mg1022 O1032 2.251 . S
Mg1022 O1035 2.010 . S
O1023 Mg1022 2.028 . S
O1023 C1026 1.250 . S
O1024 Mg1025 2.028 . S
O1024 C1026 1.248 . S
Mg1025 O1024 2.028 . S
Mg1025 O1030 2.032 . S
Mg1025 O1032 2.079 . S
C1026 O1023 1.250 . S
C1026 O1024 1.248 . S
C1027 O1028 1.264 . S
C1027 O1035 1.249 . S
O1028 C1027 1.264 . S
O1029 Mg1022 1.986 . S
O1029 C1033 1.246 . S
O1030 Mg1025 2.032 . S
O1030 C1033 1.259 . S
O1031 Mg1022 2.114 . S
O1031 C1034 1.252 . S
O1032 Mg1022 2.251 . S
O1032 Mg1025 2.079 . S
O1032 C1034 1.273 . S
C1033 O1029 1.246 . S
C1033 O1030 1.259 . S
C1034 O1031 1.252 . S
C1034 O1032 1.273 . S
O1035 Mg1022 2.010 . S
O1035 C1027 1.249 . S
Mg1036 O1037 2.028 . S
Mg1036 O1043 1.986 . S
Mg1036 O1045 2.114 . S
Mg1036 O1046 2.251 . S
Mg1036 O1049 2.010 . S
O1037 Mg1036 2.028 . S
O1037 C1040 1.250 . S
O1038 Mg1039 2.028 . S
O1038 C1040 1.248 . S
Mg1039 O1038 2.028 . S
Mg1039 O1044 2.032 . S
Mg1039 O1046 2.079 . S
C1040 O1037 1.250 . S
C1040 O1038 1.248 . S
C1041 O1042 1.264 . S
C1041 O1049 1.249 . S
O1042 C1041 1.264 . S
O1043 Mg1036 1.986 . S
O1043 C1047 1.246 . S
O1044 Mg1039 2.032 . S
O1044 C1047 1.259 . S
O1045 Mg1036 2.114 . S
O1045 C1048 1.252 . S
O1046 Mg1036 2.251 . S
O1046 Mg1039 2.079 . S
O1046 C1048 1.273 . S
C1047 O1043 1.246 . S
C1047 O1044 1.259 . S
C1048 O1045 1.252 . S
C1048 O1046 1.273 . S
O1049 Mg1036 2.010 . S
O1049 C1041 1.249 . S
Mg1050 O1051 2.028 . S
Mg1050 O1057 1.986 . S
Mg1050 O1059 2.114 . S
Mg1050 O1060 2.251 . S
Mg1050 O1063 2.010 . S
O1051 Mg1050 2.028 . S
O1051 C1054 1.250 . S
O1052 Mg1053 2.028 . S
O1052 C1054 1.248 . S
Mg1053 O1052 2.028 . S
Mg1053 O1058 2.032 . S
Mg1053 O1060 2.079 . S
C1054 O1051 1.250 . S
C1054 O1052 1.248 . S
C1055 O1056 1.264 . S
C1055 O1063 1.249 . S
O1056 C1055 1.264 . S
O1057 Mg1050 1.986 . S
O1057 C1061 1.246 . S
O1058 Mg1053 2.032 . S
O1058 C1061 1.259 . S
O1059 Mg1050 2.114 . S
O1059 C1062 1.252 . S
O1060 Mg1050 2.251 . S
O1060 Mg1053 2.079 . S
O1060 C1062 1.273 . S
C1061 O1057 1.246 . S
C1061 O1058 1.259 . S
C1062 O1059 1.252 . S
C1062 O1060 1.273 . S
O1063 Mg1050 2.010 . S
O1063 C1055 1.249 . S
Mg1064 O1065 2.028 . S
Mg1064 O1071 1.986 . S
Mg1064 O1073 2.114 . S
Mg1064 O1074 2.251 . S
Mg1064 O1077 2.010 . S
O1065 Mg1064 2.028 . S
O1065 C1068 1.250 . S
O1066 Mg1067 2.028 . S
O1066 C1068 1.248 . S
Mg1067 O1066 2.028 . S
Mg1067 O1072 2.032 . S
Mg1067 O1074 2.079 . S
C1068 O1065 1.250 . S
C1068 O1066 1.248 . S
C1069 O1070 1.264 . S
C1069 O1077 1.249 . S
O1070 C1069 1.264 . S
O1071 Mg1064 1.986 . S
O1071 C1075 1.246 . S
O1072 Mg1067 2.032 . S
O1072 C1075 1.259 . S
O1073 Mg1064 2.114 . S
O1073 C1076 1.252 . S
O1074 Mg1064 2.251 . S
O1074 Mg1067 2.079 . S
O1074 C1076 1.273 . S
C1075 O1071 1.246 . S
C1075 O1072 1.259 . S
C1076 O1073 1.252 . S
C1076 O1074 1.273 . S
O1077 Mg1064 2.010 . S
O1077 C1069 1.249 . S
Mg1078 O1079 2.028 . S
Mg1078 O1085 1.986 . S
Mg1078 O1087 2.114 . S
Mg1078 O1088 2.251 . S
Mg1078 O1091 2.010 . S
O1079 Mg1078 2.028 . S
O1079 C1082 1.250 . S
O1080 Mg1081 2.028 . S
O1080 C1082 1.248 . S
Mg1081 O1080 2.028 . S
Mg1081 O1086 2.032 . S
Mg1081 O1088 2.079 . S
C1082 O1079 1.250 . S
C1082 O1080 1.248 . S
C1083 O1084 1.264 . S
C1083 O1091 1.249 . S
O1084 C1083 1.264 . S
O1085 Mg1078 1.986 . S
O1085 C1089 1.246 . S
O1086 Mg1081 2.032 . S
O1086 C1089 1.259 . S
O1087 Mg1078 2.114 . S
O1087 C1090 1.252 . S
O1088 Mg1078 2.251 . S
O1088 Mg1081 2.079 . S
O1088 C1090 1.273 . S
C1089 O1085 1.246 . S
C1089 O1086 1.259 . S
C1090 O1087 1.252 . S
C1090 O1088 1.273 . S
O1091 Mg1078 2.010 . S
O1091 C1083 1.249 . S
Mg1092 O1093 2.028 . S
Mg1092 O1099 1.986 . S
Mg1092 O1101 2.114 . S
Mg1092 O1102 2.251 . S
Mg1092 O1105 2.010 . S
O1093 Mg1092 2.028 . S
O1093 C1096 1.250 . S
O1094 Mg1095 2.028 . S
O1094 C1096 1.248 . S
Mg1095 O1094 2.028 . S
Mg1095 O1100 2.032 . S
Mg1095 O1102 2.079 . S
C1096 O1093 1.250 . S
C1096 O1094 1.248 . S
C1097 O1098 1.264 . S
C1097 O1105 1.249 . S
O1098 C1097 1.264 . S
O1099 Mg1092 1.986 . S
O1099 C1103 1.246 . S
O1100 Mg1095 2.032 . S
O1100 C1103 1.259 . S
O1101 Mg1092 2.114 . S
O1101 C1104 1.252 . S
O1102 Mg1092 2.251 . S
O1102 Mg1095 2.079 . S
O1102 C1104 1.273 . S
C1103 O1099 1.246 . S
C1103 O1100 1.259 . S
C1104 O1101 1.252 . S
C1104 O1102 1.273 . S
O1105 Mg1092 2.010 . S
O1105 C1097 1.249 . S
Mg1106 O1107 2.028 . S
Mg1106 O1113 1.986 . S
Mg1106 O1115 2.114 . S
Mg1106 O1116 2.251 . S
Mg1106 O1119 2.010 . S
O1107 Mg1106 2.028 . S
O1107 C1110 1.250 . S
O1108 Mg1109 2.028 . S
O1108 C1110 1.248 . S
Mg1109 O1108 2.028 . S
Mg1109 O1114 2.032 . S
Mg1109 O1116 2.079 . S
C1110 O1107 1.250 . S
C1110 O1108 1.248 . S
C1111 O1112 1.264 . S
C1111 O1119 1.249 . S
O1112 C1111 1.264 . S
O1113 Mg1106 1.986 . S
O1113 C1117 1.246 . S
O1114 Mg1109 2.032 . S
O1114 C1117 1.259 . S
O1115 Mg1106 2.114 . S
O1115 C1118 1.252 . S
O1116 Mg1106 2.251 . S
O1116 Mg1109 2.079 . S
O1116 C1118 1.273 . S
C1117 O1113 1.246 . S
C1117 O1114 1.259 . S
C1118 O1115 1.252 . S
C1118 O1116 1.273 . S
O1119 Mg1106 2.010 . S
O1119 C1111 1.249 . S
Mg1120 O1121 2.028 . S
Mg1120 O1127 1.986 . S
Mg1120 O1129 2.114 . S
Mg1120 O1130 2.251 . S
Mg1120 O1133 2.010 . S
O1121 Mg1120 2.028 . S
O1121 C1124 1.250 . S
O1122 Mg1123 2.028 . S
O1122 C1124 1.248 . S
Mg1123 O1122 2.028 . S
Mg1123 O1128 2.032 . S
Mg1123 O1130 2.079 . S
C1124 O1121 1.250 . S
C1124 O1122 1.248 . S
C1125 O1126 1.264 . S
C1125 O1133 1.249 . S
O1126 C1125 1.264 . S
O1127 Mg1120 1.986 . S
O1127 C1131 1.246 . S
O1128 Mg1123 2.032 . S
O1128 C1131 1.259 . S
O1129 Mg1120 2.114 . S
O1129 C1132 1.252 . S
O1130 Mg1120 2.251 . S
O1130 Mg1123 2.079 . S
O1130 C1132 1.273 . S
C1131 O1127 1.246 . S
C1131 O1128 1.259 . S
C1132 O1129 1.252 . S
C1132 O1130 1.273 . S
O1133 Mg1120 2.010 . S
O1133 C1125 1.249 . S
Mg1134 O1135 2.028 . S
Mg1134 O1141 1.986 . S
Mg1134 O1143 2.114 . S
Mg1134 O1144 2.251 . S
Mg1134 O1147 2.010 . S
O1135 Mg1134 2.028 . S
O1135 C1138 1.250 . S
O1136 Mg1137 2.028 . S
O1136 C1138 1.248 . S
Mg1137 O1136 2.028 . S
Mg1137 O1142 2.032 . S
Mg1137 O1144 2.079 . S
C1138 O1135 1.250 . S
C1138 O1136 1.248 . S
C1139 O1140 1.264 . S
C1139 O1147 1.249 . S
O1140 C1139 1.264 . S
O1141 Mg1134 1.986 . S
O1141 C1145 1.246 . S
O1142 Mg1137 2.032 . S
O1142 C1145 1.259 . S
O1143 Mg1134 2.114 . S
O1143 C1146 1.252 . S
O1144 Mg1134 2.251 . S
O1144 Mg1137 2.079 . S
O1144 C1146 1.273 . S
C1145 O1141 1.246 . S
C1145 O1142 1.259 . S
C1146 O1143 1.252 . S
C1146 O1144 1.273 . S
O1147 Mg1134 2.010 . S
O1147 C1139 1.249 . S
Mg1148 O1149 2.028 . S
Mg1148 O1155 1.986 . S
Mg1148 O1157 2.114 . S
Mg1148 O1158 2.251 . S
Mg1148 O1161 2.010 . S
O1149 Mg1148 2.028 . S
O1149 C1152 1.250 . S
O1150 Mg1151 2.028 . S
O1150 C1152 1.248 . S
Mg1151 O1150 2.028 . S
Mg1151 O1156 2.032 . S
Mg1151 O1158 2.079 . S
C1152 O1149 1.250 . S
C1152 O1150 1.248 . S
C1153 O1154 1.264 . S
C1153 O1161 1.249 . S
O1154 C1153 1.264 . S
O1155 Mg1148 1.986 . S
O1155 C1159 1.246 . S
O1156 Mg1151 2.032 . S
O1156 C1159 1.259 . S
O1157 Mg1148 2.114 . S
O1157 C1160 1.252 . S
O1158 Mg1148 2.251 . S
O1158 Mg1151 2.079 . S
O1158 C1160 1.273 . S
C1159 O1155 1.246 . S
C1159 O1156 1.259 . S
C1160 O1157 1.252 . S
C1160 O1158 1.273 . S
O1161 Mg1148 2.010 . S
O1161 C1153 1.249 . S
Mg1162 O1163 2.028 . S
Mg1162 O1169 1.986 . S
Mg1162 O1171 2.114 . S
Mg1162 O1172 2.251 . S
Mg1162 O1175 2.010 . S
O1163 Mg1162 2.028 . S
O1163 C1166 1.250 . S
O1164 Mg1165 2.028 . S
O1164 C1166 1.248 . S
Mg1165 O1164 2.028 . S
Mg1165 O1170 2.032 . S
Mg1165 O1172 2.079 . S
C1166 O1163 1.250 . S
C1166 O1164 1.248 . S
C1167 O1168 1.264 . S
C1167 O1175 1.249 . S
O1168 C1167 1.264 . S
O1169 Mg1162 1.986 . S
O1169 C1173 1.246 . S
O1170 Mg1165 2.032 . S
O1170 C1173 1.259 . S
O1171 Mg1162 2.114 . S
O1171 C1174 1.252 . S
O1172 Mg1162 2.251 . S
O1172 Mg1165 2.079 . S
O1172 C1174 1.273 . S
C1173 O1169 1.246 . S
C1173 O1170 1.259 . S
C1174 O1171 1.252 . S
C1174 O1172 1.273 . S
O1175 Mg1162 2.010 . S
O1175 C1167 1.249 . S
Mg1176 O1177 2.028 . S
Mg1176 O1183 1.986 . S
Mg1176 O1185 2.114 . S
Mg1176 O1186 2.251 . S
Mg1176 O1189 2.010 . S
O1177 Mg1176 2.028 . S
O1177 C1180 1.250 . S
O1178 Mg1179 2.028 . S
O1178 C1180 1.248 . S
Mg1179 O1178 2.028 . S
Mg1179 O1184 2.032 . S
Mg1179 O1186 2.079 . S
C1180 O1177 1.250 . S
C1180 O1178 1.248 . S
C1181 O1182 1.264 . S
C1181 O1189 1.249 . S
O1182 C1181 1.264 . S
O1183 Mg1176 1.986 . S
O1183 C1187 1.246 . S
O1184 Mg1179 2.032 . S
O1184 C1187 1.259 . S
O1185 Mg1176 2.114 . S
O1185 C1188 1.252 . S
O1186 Mg1176 2.251 . S
O1186 Mg1179 2.079 . S
O1186 C1188 1.273 . S
C1187 O1183 1.246 . S
C1187 O1184 1.259 . S
C1188 O1185 1.252 . S
C1188 O1186 1.273 . S
O1189 Mg1176 2.010 . S
O1189 C1181 1.249 . S
Mg1190 O1191 2.028 . S
Mg1190 O1197 1.986 . S
Mg1190 O1199 2.114 . S
Mg1190 O1200 2.251 . S
Mg1190 O1203 2.010 . S
O1191 Mg1190 2.028 . S
O1191 C1194 1.250 . S
O1192 Mg1193 2.028 . S
O1192 C1194 1.248 . S
Mg1193 O1192 2.028 . S
Mg1193 O1198 2.032 . S
Mg1193 O1200 2.079 . S
C1194 O1191 1.250 . S
C1194 O1192 1.248 . S
C1195 O1196 1.264 . S
C1195 O1203 1.249 . S
O1196 C1195 1.264 . S
O1197 Mg1190 1.986 . S
O1197 C1201 1.246 . S
O1198 Mg1193 2.032 . S
O1198 C1201 1.259 . S
O1199 Mg1190 2.114 . S
O1199 C1202 1.252 . S
O1200 Mg1190 2.251 . S
O1200 Mg1193 2.079 . S
O1200 C1202 1.273 . S
C1201 O1197 1.246 . S
C1201 O1198 1.259 . S
C1202 O1199 1.252 . S
C1202 O1200 1.273 . S
O1203 Mg1190 2.010 . S
O1203 C1195 1.249 . S
Mg1204 O1205 2.028 . S
Mg1204 O1211 1.986 . S
Mg1204 O1213 2.114 . S
Mg1204 O1214 2.251 . S
Mg1204 O1217 2.010 . S
O1205 Mg1204 2.028 . S
O1205 C1208 1.250 . S
O1206 Mg1207 2.028 . S
O1206 C1208 1.248 . S
Mg1207 O1206 2.028 . S
Mg1207 O1212 2.032 . S
Mg1207 O1214 2.079 . S
C1208 O1205 1.250 . S
C1208 O1206 1.248 . S
C1209 O1210 1.264 . S
C1209 O1217 1.249 . S
O1210 C1209 1.264 . S
O1211 Mg1204 1.986 . S
O1211 C1215 1.246 . S
O1212 Mg1207 2.032 . S
O1212 C1215 1.259 . S
O1213 Mg1204 2.114 . S
O1213 C1216 1.252 . S
O1214 Mg1204 2.251 . S
O1214 Mg1207 2.079 . S
O1214 C1216 1.273 . S
C1215 O1211 1.246 . S
C1215 O1212 1.259 . S
C1216 O1213 1.252 . S
C1216 O1214 1.273 . S
O1217 Mg1204 2.010 . S
O1217 C1209 1.249 . S
Mg1218 O1219 2.028 . S
Mg1218 O1225 1.986 . S
Mg1218 O1227 2.114 . S
Mg1218 O1228 2.251 . S
Mg1218 O1231 2.010 . S
O1219 Mg1218 2.028 . S
O1219 C1222 1.250 . S
O1220 Mg1221 2.028 . S
O1220 C1222 1.248 . S
Mg1221 O1220 2.028 . S
Mg1221 O1226 2.032 . S
Mg1221 O1228 2.079 . S
C1222 O1219 1.250 . S
C1222 O1220 1.248 . S
C1223 O1224 1.264 . S
C1223 O1231 1.249 . S
O1224 C1223 1.264 . S
O1225 Mg1218 1.986 . S
O1225 C1229 1.246 . S
O1226 Mg1221 2.032 . S
O1226 C1229 1.259 . S
O1227 Mg1218 2.114 . S
O1227 C1230 1.252 . S
O1228 Mg1218 2.251 . S
O1228 Mg1221 2.079 . S
O1228 C1230 1.273 . S
C1229 O1225 1.246 . S
C1229 O1226 1.259 . S
C1230 O1227 1.252 . S
C1230 O1228 1.273 . S
O1231 Mg1218 2.010 . S
O1231 C1223 1.249 . S
Mg1232 O1233 2.028 . S
Mg1232 O1239 1.986 . S
Mg1232 O1241 2.114 . S
Mg1232 O1242 2.251 . S
Mg1232 O1245 2.010 . S
O1233 Mg1232 2.028 . S
O1233 C1236 1.250 . S
O1234 Mg1235 2.028 . S
O1234 C1236 1.248 . S
Mg1235 O1234 2.028 . S
Mg1235 O1240 2.032 . S
Mg1235 O1242 2.079 . S
C1236 O1233 1.250 . S
C1236 O1234 1.248 . S
C1237 O1238 1.264 . S
C1237 O1245 1.249 . S
O1238 C1237 1.264 . S
O1239 Mg1232 1.986 . S
O1239 C1243 1.246 . S
O1240 Mg1235 2.032 . S
O1240 C1243 1.259 . S
O1241 Mg1232 2.114 . S
O1241 C1244 1.252 . S
O1242 Mg1232 2.251 . S
O1242 Mg1235 2.079 . S
O1242 C1244 1.273 . S
C1243 O1239 1.246 . S
C1243 O1240 1.259 . S
C1244 O1241 1.252 . S
C1244 O1242 1.273 . S
O1245 Mg1232 2.010 . S
O1245 C1237 1.249 . S
Mg1246 O1247 2.028 . S
Mg1246 O1253 1.986 . S
Mg1246 O1255 2.114 . S
Mg1246 O1256 2.251 . S
Mg1246 O1259 2.010 . S
O1247 Mg1246 2.028 . S
O1247 C1250 1.250 . S
O1248 Mg1249 2.028 . S
O1248 C1250 1.248 . S
Mg1249 O1248 2.028 . S
Mg1249 O1254 2.032 . S
Mg1249 O1256 2.079 . S
C1250 O1247 1.250 . S
C1250 O1248 1.248 . S
C1251 O1252 1.264 . S
C1251 O1259 1.249 . S
O1252 C1251 1.264 . S
O1253 Mg1246 1.986 . S
O1253 C1257 1.246 . S
O1254 Mg1249 2.032 . S
O1254 C1257 1.259 . S
O1255 Mg1246 2.114 . S
O1255 C1258 1.252 . S
O1256 Mg1246 2.251 . S
O1256 Mg1249 2.079 . S
O1256 C1258 1.273 . S
C1257 O1253 1.246 . S
C1257 O1254 1.259 . S
C1258 O1255 1.252 . S
C1258 O1256 1.273 . S
O1259 Mg1246 2.010 . S
O1259 C1251 1.249 . S
Mg1260 O1261 2.028 . S
Mg1260 O1267 1.986 . S
Mg1260 O1269 2.114 . S
Mg1260 O1270 2.251 . S
Mg1260 O1273 2.010 . S
O1261 Mg1260 2.028 . S
O1261 C1264 1.250 . S
O1262 Mg1263 2.028 . S
O1262 C1264 1.248 . S
Mg1263 O1262 2.028 . S
Mg1263 O1268 2.032 . S
Mg1263 O1270 2.079 . S
C1264 O1261 1.250 . S
C1264 O1262 1.248 . S
C1265 O1266 1.264 . S
C1265 O1273 1.249 . S
O1266 C1265 1.264 . S
O1267 Mg1260 1.986 . S
O1267 C1271 1.246 . S
O1268 Mg1263 2.032 . S
O1268 C1271 1.259 . S
O1269 Mg1260 2.114 . S
O1269 C1272 1.252 . S
O1270 Mg1260 2.251 . S
O1270 Mg1263 2.079 . S
O1270 C1272 1.273 . S
C1271 O1267 1.246 . S
C1271 O1268 1.259 . S
C1272 O1269 1.252 . S
C1272 O1270 1.273 . S
O1273 Mg1260 2.010 . S
O1273 C1265 1.249 . S
Mg1274 O1275 2.028 . S
Mg1274 O1281 1.986 . S
Mg1274 O1283 2.114 . S
Mg1274 O1284 2.251 . S
Mg1274 O1287 2.010 . S
O1275 Mg1274 2.028 . S
O1275 C1278 1.250 . S
O1276 Mg1277 2.028 . S
O1276 C1278 1.248 . S
Mg1277 O1276 2.028 . S
Mg1277 O1282 2.032 . S
Mg1277 O1284 2.079 . S
C1278 O1275 1.250 . S
C1278 O1276 1.248 . S
C1279 O1280 1.264 . S
C1279 O1287 1.249 . S
O1280 C1279 1.264 . S
O1281 Mg1274 1.986 . S
O1281 C1285 1.246 . S
O1282 Mg1277 2.032 . S
O1282 C1285 1.259 . S
O1283 Mg1274 2.114 . S
O1283 C1286 1.252 . S
O1284 Mg1274 2.251 . S
O1284 Mg1277 2.079 . S
O1284 C1286 1.273 . S
C1285 O1281 1.246 . S
C1285 O1282 1.259 . S
C1286 O1283 1.252 . S
C1286 O1284 1.273 . S
O1287 Mg1274 2.010 . S
O1287 C1279 1.249 . S
Mg1288 O1289 2.028 . S
Mg1288 O1295 1.986 . S
Mg1288 O1297 2.114 . S
Mg1288 O1298 2.251 . S
Mg1288 O1301 2.010 . S
O1289 Mg1288 2.028 . S
O1289 C1292 1.250 . S
O1290 Mg1291 2.028 . S
O1290 C1292 1.248 . S
Mg1291 O1290 2.028 . S
Mg1291 O1296 2.032 . S
Mg1291 O1298 2.079 . S
C1292 O1289 1.250 . S
C1292 O1290 1.248 . S
C1293 O1294 1.264 . S
C1293 O1301 1.249 . S
O1294 C1293 1.264 . S
O1295 Mg1288 1.986 . S
O1295 C1299 1.246 . S
O1296 Mg1291 2.032 . S
O1296 C1299 1.259 . S
O1297 Mg1288 2.114 . S
O1297 C1300 1.252 . S
O1298 Mg1288 2.251 . S
O1298 Mg1291 2.079 . S
O1298 C1300 1.273 . S
C1299 O1295 1.246 . S
C1299 O1296 1.259 . S
C1300 O1297 1.252 . S
C1300 O1298 1.273 . S
O1301 Mg1288 2.010 . S
O1301 C1293 1.249 . S
Mg1302 O1303 2.028 . S
Mg1302 O1309 1.986 . S
Mg1302 O1311 2.114 . S
Mg1302 O1312 2.251 . S
Mg1302 O1315 2.010 . S
O1303 Mg1302 2.028 . S
O1303 C1306 1.250 . S
O1304 Mg1305 2.028 . S
O1304 C1306 1.248 . S
Mg1305 O1304 2.028 . S
Mg1305 O1310 2.032 . S
Mg1305 O1312 2.079 . S
C1306 O1303 1.250 . S
C1306 O1304 1.248 . S
C1307 O1308 1.264 . S
C1307 O1315 1.249 . S
O1308 C1307 1.264 . S
O1309 Mg1302 1.986 . S
O1309 C1313 1.246 . S
O1310 Mg1305 2.032 . S
O1310 C1313 1.259 . S
O1311 Mg1302 2.114 . S
O1311 C1314 1.252 . S
O1312 Mg1302 2.251 . S
O1312 Mg1305 2.079 . S
O1312 C1314 1.273 . S
C1313 O1309 1.246 . S
C1313 O1310 1.259 . S
C1314 O1311 1.252 . S
C1314 O1312 1.273 . S
O1315 Mg1302 2.010 . S
O1315 C1307 1.249 . S
Mg1316 O1317 2.028 . S
Mg1316 O1323 1.986 . S
Mg1316 O1325 2.114 . S
Mg1316 O1326 2.251 . S
Mg1316 O1329 2.010 . S
O1317 Mg1316 2.028 . S
O1317 C1320 1.250 . S
O1318 Mg1319 2.028 . S
O1318 C1320 1.248 . S
Mg1319 O1318 2.028 . S
Mg1319 O1324 2.032 . S
Mg1319 O1326 2.079 . S
C1320 O1317 1.250 . S
C1320 O1318 1.248 . S
C1321 O1322 1.264 . S
C1321 O1329 1.249 . S
O1322 C1321 1.264 . S
O1323 Mg1316 1.986 . S
O1323 C1327 1.246 . S
O1324 Mg1319 2.032 . S
O1324 C1327 1.259 . S
O1325 Mg1316 2.114 . S
O1325 C1328 1.252 . S
O1326 Mg1316 2.251 . S
O1326 Mg1319 2.079 . S
O1326 C1328 1.273 . S
C1327 O1323 1.246 . S
C1327 O1324 1.259 . S
C1328 O1325 1.252 . S
C1328 O1326 1.273 . S
O1329 Mg1316 2.010 . S
O1329 C1321 1.249 . S
Mg1330 O1331 2.028 . S
Mg1330 O1337 1.986 . S
Mg1330 O1339 2.114 . S
Mg1330 O1340 2.251 . S
Mg1330 O1343 2.010 . S
O1331 Mg1330 2.028 . S
O1331 C1334 1.250 . S
O1332 Mg1333 2.028 . S
O1332 C1334 1.248 . S
Mg1333 O1332 2.028 . S
Mg1333 O1338 2.032 . S
Mg1333 O1340 2.079 . S
C1334 O1331 1.250 . S
C1334 O1332 1.248 . S
C1335 O1336 1.264 . S
C1335 O1343 1.249 . S
O1336 C1335 1.264 . S
O1337 Mg1330 1.986 . S
O1337 C1341 1.246 . S
O1338 Mg1333 2.032 . S
O1338 C1341 1.259 . S
O1339 Mg1330 2.114 . S
O1339 C1342 1.252 . S
O1340 Mg1330 2.251 . S
O1340 Mg1333 2.079 . S
O1340 C1342 1.273 . S
C1341 O1337 1.246 . S
C1341 O1338 1.259 . S
C1342 O1339 1.252 . S
C1342 O1340 1.273 . S
O1343 Mg1330 2.010 . S
O1343 C1335 1.249 . S
C12 C964 1.447 . S
C922 C26 1.447 . S
C936 C40 1.447 . S
C54 C950 1.447 . S
C1006 C68 1.447 . S
C978 C82 1.447 . S
C992 C96 1.447 . S
C110 C908 1.447 . S
C124 C894 1.447 . S
C138 C852 1.447 . S
C152 C866 1.447 . S
C166 C880 1.447 . S
C180 C810 1.447 . S
C824 C194 1.447 . S
C838 C208 1.447 . S
C222 C796 1.447 . S
C236 C782 1.447 . S
C250 C698 1.447 . S
C712 C264 1.447 . S
C726 C278 1.447 . S
C684 C292 1.447 . S
C306 C754 1.447 . S
C320 C768 1.447 . S
C334 C740 1.447 . S
C348 C1300 1.447 . S
C362 C1258 1.447 . S
C376 C1272 1.447 . S
C390 C1286 1.447 . S
C404 C1342 1.447 . S
C418 C1314 1.447 . S
C1328 C432 1.447 . S
C446 C1244 1.447 . S
C460 C1230 1.447 . S
C1188 C474 1.447 . S
C488 C1202 1.447 . S
C502 C1216 1.447 . S
C516 C1146 1.447 . S
C530 C1160 1.447 . S
C544 C1174 1.447 . S
C1132 C558 1.447 . S
C572 C1118 1.447 . S
C586 C1034 1.447 . S
C600 C1048 1.447 . S
C1062 C614 1.447 . S
C628 C1020 1.447 . S
C1090 C642 1.447 . S
C656 C1104 1.447 . S
C670 C1076 1.447 . S
C4 C550 1.612 . S
C18 C508 1.612 . S
C522 C32 1.612 . S
C46 C536 1.612 . S
C466 C60 1.612 . S
C480 C74 1.612 . S
C494 C88 1.612 . S
C452 C102 1.612 . S
C438 C116 1.612 . S
C130 C396 1.612 . S
C410 C144 1.612 . S
C158 C424 1.612 . S
C354 C172 1.612 . S
C368 C186 1.612 . S
C200 C382 1.612 . S
C214 C340 1.612 . S
C228 C620 1.612 . S
C242 C662 1.612 . S
C634 C256 1.612 . S
C648 C270 1.612 . S
C284 C564 1.612 . S
C298 C592 1.612 . S
C606 C312 1.612 . S
C326 C578 1.612 . S
C1222 C676 1.612 . S
C1180 C690 1.612 . S
C1194 C704 1.612 . S
C718 C1208 1.612 . S
C1138 C732 1.612 . S
C1152 C746 1.612 . S
C760 C1166 1.612 . S
C774 C1124 1.612 . S
C1110 C788 1.612 . S
C802 C1068 1.612 . S
C1082 C816 1.612 . S
C1096 C830 1.612 . S
C844 C1026 1.612 . S
C858 C1040 1.612 . S
C1054 C872 1.612 . S
C886 C1012 1.612 . S
C1292 C900 1.612 . S
C1334 C914 1.612 . S
C928 C1306 1.612 . S
C1320 C942 1.612 . S
C1236 C956 1.612 . S
C1264 C970 1.612 . S
C984 C1278 1.612 . S
C1250 C998 1.612 . S
C5 C397 0.694 1_455 S
C411 C19 0.694 1_565 S
C33 C425 0.694 1_655 S
C439 C47 0.694 1_545 S
C61 C341 0.694 1_455 S
C75 C355 0.694 1_545 S
C89 C369 0.694 1_655 S
C383 C103 0.694 1_545 S
C537 C117 0.694 1_565 S
C131 C551 0.694 1_655 S
C145 C509 0.694 1_565 S
C159 C523 0.694 1_455 S
C173 C481 0.694 1_565 S
C187 C495 0.694 1_455 S
C201 C453 0.694 1_545 S
C215 C467 0.694 1_655 S
C229 C635 0.694 1_554 S
C243 C607 0.694 1_556 S
C621 C257 0.694 1_554 S
C271 C579 0.694 1_556 S
C593 C285 0.694 1_554 S
C299 C565 0.694 1_554 S
C313 C663 0.694 1_554 S
C649 C327 0.694 1_556 S
C1069 C677 0.694 . S
C691 C1083 0.694 . S
C1097 C705 0.694 . S
C719 C1111 0.694 . S
C1013 C733 0.694 . S
C1027 C747 0.694 . S
C1041 C761 0.694 . S
C775 C1055 0.694 . S
C789 C1209 0.694 . S
C1223 C803 0.694 . S
C1181 C817 0.694 . S
C1195 C831 0.694 . S
C845 C1153 0.694 . S
C859 C1167 0.694 . S
C1125 C873 0.694 . S
C1139 C887 0.694 . S
C1307 C901 0.694 . S
C915 C1279 0.694 . S
C1293 C929 0.694 . S
C943 C1251 0.694 . S
C957 C1265 0.694 . S
C971 C1237 0.694 . S
C1335 C985 0.694 . S
C999 C1321 0.694 . S
C445 C11 0.835 . S
C403 C25 0.835 . S
C39 C417 0.835 . S
C431 C53 0.835 . S
C361 C67 0.835 . S
C81 C375 0.835 . S
C95 C389 0.835 . S
C347 C109 0.835 . S
C627 C123 0.835 . S
C137 C585 0.835 . S
C151 C599 0.835 . S
C613 C165 0.835 . S
C179 C669 0.835 . S
C641 C193 0.835 . S
C655 C207 0.835 . S
C221 C571 0.835 . S
C235 C557 0.835 . S
C249 C473 0.835 . S
C263 C487 0.835 . S
C501 C277 0.835 . S
C459 C291 0.835 . S
C305 C529 0.835 . S
C319 C543 0.835 . S
C333 C515 0.835 . S
C683 C1117 0.835 . S
C697 C1075 0.835 . S
C711 C1089 0.835 . S
C1103 C725 0.835 . S
C1033 C739 0.835 . S
C1047 C753 0.835 . S
C767 C1061 0.835 . S
C1019 C781 0.835 . S
C1299 C795 0.835 . S
C1257 C809 0.835 . S
C1271 C823 0.835 . S
C1285 C837 0.835 . S
C1341 C851 0.835 . S
C1313 C865 0.835 . S
C1327 C879 0.835 . S
C1243 C893 0.835 . S
C907 C1229 0.835 . S
C1145 C921 0.835 . S
C1159 C935 0.835 . S
C1173 C949 0.835 . S
C1131 C963 0.835 . S
C1201 C977 0.835 . S
C1215 C991 0.835 . S
C1187 C1005 0.835 . S
