# Generated by pormake.
# Topology wkf, (6)-cn, num edge types: 1
# Building blocks:
#     Node 0, Type 0, BuildingBlock: HISSIN_clean_sbu_0, # of connection points: 6
#     Node 1, Type 0, BuildingBlock: HISSIN_clean_sbu_0, # of connection points: 6
#     Node 2, Type 0, BuildingBlock: HISSIN_clean_sbu_0, # of connection points: 6
#     Node 3, Type 0, BuildingBlock: HISSIN_clean_sbu_0, # of connection points: 6
#     Node 4, Type 0, BuildingBlock: HISSIN_clean_sbu_0, # of connection points: 6
#     Node 5, Type 0, BuildingBlock: HISSIN_clean_sbu_0, # of connection points: 6
#     Node 6, Type 0, BuildingBlock: HISSIN_clean_sbu_0, # of connection points: 6
#     Node 7, Type 0, BuildingBlock: HISSIN_clean_sbu_0, # of connection points: 6
#     Node 8, Type 0, BuildingBlock: HISSIN_clean_sbu_0, # of connection points: 6
#     Node 9, Type 0, BuildingBlock: HISSIN_clean_sbu_0, # of connection points: 6
#     Node 10, Type 0, BuildingBlock: HISSIN_clean_sbu_0, # of connection points: 6
#     Node 11, Type 0, BuildingBlock: HISSIN_clean_sbu_0, # of connection points: 6
#     Edge 12, Type (0, 0), BuildingBlock: XUDNAN_clean_linker_2, # of connection points: 2
#     Edge 13, Type (0, 0), BuildingBlock: XUDNAN_clean_linker_2, # of connection points: 2
#     Edge 14, Type (0, 0), BuildingBlock: XUDNAN_clean_linker_2, # of connection points: 2
#     Edge 15, Type (0, 0), BuildingBlock: XUDNAN_clean_linker_2, # of connection points: 2
#     Edge 16, Type (0, 0), BuildingBlock: XUDNAN_clean_linker_2, # of connection points: 2
#     Edge 17, Type (0, 0), BuildingBlock: XUDNAN_clean_linker_2, # of connection points: 2
#     Edge 18, Type (0, 0), BuildingBlock: XUDNAN_clean_linker_2, # of connection points: 2
#     Edge 19, Type (0, 0), BuildingBlock: XUDNAN_clean_linker_2, # of connection points: 2
#     Edge 20, Type (0, 0), BuildingBlock: XUDNAN_clean_linker_2, # of connection points: 2
#     Edge 21, Type (0, 0), BuildingBlock: XUDNAN_clean_linker_2, # of connection points: 2
#     Edge 22, Type (0, 0), BuildingBlock: XUDNAN_clean_linker_2, # of connection points: 2
#     Edge 23, Type (0, 0), BuildingBlock: XUDNAN_clean_linker_2, # of connection points: 2
#     Edge 24, Type (0, 0), BuildingBlock: XUDNAN_clean_linker_2, # of connection points: 2
#     Edge 25, Type (0, 0), BuildingBlock: XUDNAN_clean_linker_2, # of connection points: 2
#     Edge 26, Type (0, 0), BuildingBlock: XUDNAN_clean_linker_2, # of connection points: 2
#     Edge 27, Type (0, 0), BuildingBlock: XUDNAN_clean_linker_2, # of connection points: 2
#     Edge 28, Type (0, 0), BuildingBlock: XUDNAN_clean_linker_2, # of connection points: 2
#     Edge 29, Type (0, 0), BuildingBlock: XUDNAN_clean_linker_2, # of connection points: 2
#     Edge 30, Type (0, 0), BuildingBlock: XUDNAN_clean_linker_2, # of connection points: 2
#     Edge 31, Type (0, 0), BuildingBlock: XUDNAN_clean_linker_2, # of connection points: 2
#     Edge 32, Type (0, 0), BuildingBlock: XUDNAN_clean_linker_2, # of connection points: 2
#     Edge 33, Type (0, 0), BuildingBlock: XUDNAN_clean_linker_2, # of connection points: 2
#     Edge 34, Type (0, 0), BuildingBlock: XUDNAN_clean_linker_2, # of connection points: 2
#     Edge 35, Type (0, 0), BuildingBlock: XUDNAN_clean_linker_2, # of connection points: 2
#     Edge 36, Type (0, 0), BuildingBlock: XUDNAN_clean_linker_2, # of connection points: 2
#     Edge 37, Type (0, 0), BuildingBlock: XUDNAN_clean_linker_2, # of connection points: 2
#     Edge 38, Type (0, 0), BuildingBlock: XUDNAN_clean_linker_2, # of connection points: 2
#     Edge 39, Type (0, 0), BuildingBlock: XUDNAN_clean_linker_2, # of connection points: 2
#     Edge 40, Type (0, 0), BuildingBlock: XUDNAN_clean_linker_2, # of connection points: 2
#     Edge 41, Type (0, 0), BuildingBlock: XUDNAN_clean_linker_2, # of connection points: 2
#     Edge 42, Type (0, 0), BuildingBlock: XUDNAN_clean_linker_2, # of connection points: 2
#     Edge 43, Type (0, 0), BuildingBlock: XUDNAN_clean_linker_2, # of connection points: 2
#     Edge 44, Type (0, 0), BuildingBlock: XUDNAN_clean_linker_2, # of connection points: 2
#     Edge 45, Type (0, 0), BuildingBlock: XUDNAN_clean_linker_2, # of connection points: 2
#     Edge 46, Type (0, 0), BuildingBlock: XUDNAN_clean_linker_2, # of connection points: 2
#     Edge 47, Type (0, 0), BuildingBlock: XUDNAN_clean_linker_2, # of connection points: 2
# Relax obj value: 0.294
# Max RMSD: 0.276
# Mean RMSD: 0.268
data_MOF--net-wkf--node1-HISSIN_clean_sbu_0--edge1-XUDNAN_clean_linker_2
_symmetry_space_group_name_H-M    P1
_symmetry_Int_Tables_number       1
_symmetry_cell_setting            triclinic
loop_
_symmetry_equiv_pos_as_xyz
'x, y, z'
_cell_length_a     28.559831
_cell_length_b     28.429231
_cell_length_c     96.402527
_cell_angle_alpha  89.926643
_cell_angle_beta   90.016812
_cell_angle_gamma 119.40838
loop_
_atom_site_label
_atom_site_type_symbol
_atom_site_fract_x
_atom_site_fract_y
_atom_site_fract_z
_atom_type_partial_charge
Eu0 Eu 0.53062 0.99737 0.40089 0.0
Eu1 Eu 0.41065 0.94148 0.38757 0.0
C2 C 0.49762 0.06874 0.38033 0.0
C3 C 0.67551 0.09929 0.40499 0.0
C4 C 0.66298 0.13995 0.40173 0.0
C5 C 0.77024 0.16408 0.4028 0.0
C6 C 0.70386 0.19247 0.39905 0.0
C7 C 0.72923 0.11142 0.40536 0.0
C8 C 0.758 0.20529 0.3997 0.0
C9 C 0.63239 0.04358 0.40687 0.0
O10 O 0.4598 0.91124 0.37525 0.0
O11 O 0.51343 0.91548 0.39294 0.0
C12 C 0.49069 0.89437 0.3811 0.0
O13 O 0.48095 0.94048 0.41819 0.0
O14 O 0.34497 0.94565 0.37692 0.0
O15 O 0.33933 0.86803 0.38035 0.0
O16 O 0.39738 0.89424 0.4077 0.0
C17 C 0.42963 0.90296 0.41841 0.0
O18 O 0.49405 1.0403 0.41215 0.0
O19 O 0.40428 0.98285 0.40742 0.0
O20 O 0.4479 1.0283 0.37993 0.0
O21 O 0.59543 1.03604 0.41599 0.0
O22 O 0.61213 1.01772 0.3953 0.0
O23 O 0.53633 0.06214 0.38573 0.0
C24 C 0.29291 0.87621 0.36035 0.0
C25 C 0.28018 0.82521 0.35498 0.0
C26 C 0.24887 0.88969 0.34014 0.0
C27 C 0.25193 0.80664 0.34241 0.0
C28 C 0.2771 0.90824 0.35268 0.0
C29 C 0.23512 0.83827 0.33488 0.0
C30 C 0.31762 0.89398 0.37443 0.0
C31 C 0.44289 1.02325 0.41454 0.0
H32 H 0.62154 0.13104 0.40128 0.0
H33 H 0.81153 0.17279 0.40369 0.0
H34 H 0.69317 0.22318 0.39662 0.0
H35 H 0.73946 0.08027 0.40771 0.0
H36 H 0.29089 0.79896 0.36065 0.0
H37 H 0.23754 0.91574 0.33461 0.0
H38 H 0.2417 0.76662 0.33885 0.0
H39 H 0.28561 0.94745 0.35651 0.0
Eu40 Eu 0.56346 0.50917 0.56907 0.0
Eu41 Eu 0.50164 0.39543 0.55259 0.0
C42 C 0.46356 0.48666 0.5494 0.0
C43 C 0.56808 0.62292 0.5856 0.0
C44 C 0.51454 0.58591 0.58911 0.0
C45 C 0.54529 0.69426 0.58532 0.0
C46 C 0.47634 0.60248 0.59037 0.0
C47 C 0.58329 0.67729 0.58378 0.0
C48 C 0.49108 0.6568 0.58838 0.0
C49 C 0.60314 0.60214 0.58084 0.0
O50 O 0.59248 0.42943 0.5482 0.0
O51 O 0.61723 0.51769 0.55105 0.0
C52 C 0.6297 0.48078 0.54746 0.0
O53 O 0.59243 0.45668 0.57935 0.0
O54 O 0.46388 0.35954 0.53294 0.0
O55 O 0.46906 0.30801 0.54868 0.0
O56 O 0.52216 0.37312 0.57353 0.0
C57 C 0.56288 0.40437 0.58168 0.0
O58 O 0.49521 0.45749 0.58315 0.0
O59 O 0.43862 0.38844 0.56873 0.0
O60 O 0.47326 0.4513 0.54298 0.0
O61 O 0.59812 0.55965 0.5874 0.0
O62 O 0.60284 0.5968 0.56739 0.0
O63 O 0.48941 0.50941 0.5608 0.0
C64 C 0.45728 0.27727 0.52474 0.0
C65 C 0.42476 0.22092 0.52535 0.0
C66 C 0.47965 0.26818 0.50075 0.0
C67 C 0.41869 0.18867 0.51374 0.0
C68 C 0.48566 0.30047 0.51239 0.0
C69 C 0.44485 0.21189 0.50112 0.0
C70 C 0.45368 0.31089 0.5361 0.0
C71 C 0.44809 0.41584 0.58051 0.0
H72 H 0.50149 0.54357 0.59038 0.0
H73 H 0.55868 0.73692 0.58422 0.0
H74 H 0.43522 0.57263 0.59276 0.0
H75 H 0.62405 0.70624 0.58079 0.0
H76 H 0.40206 0.20189 0.53467 0.0
H77 H 0.50032 0.28776 0.49125 0.0
H78 H 0.39243 0.14548 0.51458 0.0
H79 H 0.51074 0.34384 0.51151 0.0
Eu80 Eu 0.11158 0.56568 0.73806 0.0
Eu81 Eu 0.14337 0.49095 0.71851 0.0
C82 C 1.01905 0.47082 0.71904 0.0
C83 C 1.0317 0.60081 0.7614 0.0
C84 C 0.98202 0.58188 0.7547 0.0
C85 C 0.98525 0.55257 0.78218 0.0
C86 C 0.93461 0.54618 0.76147 0.0
C87 C 1.0325 0.58886 0.77548 0.0
C88 C 0.93595 0.52792 0.77498 0.0
C89 C 0.08154 0.62146 0.75325 0.0
O90 O 0.18842 0.57666 0.70881 0.0
O91 O 0.18128 0.62854 0.72589 0.0
C92 C 0.20317 0.62455 0.71439 0.0
O93 O 0.17164 0.55415 0.75085 0.0
O94 O 0.12478 0.44738 0.69894 0.0
O95 O 0.18862 0.45044 0.71163 0.0
O96 O 0.21008 0.52407 0.73455 0.0
C97 C 0.20853 0.54175 0.74709 0.0
O98 O 0.06369 0.48364 0.74762 0.0
O99 O 0.10565 0.43916 0.73827 0.0
O100 O 1.05165 0.45121 0.71681 0.0
O101 O 0.11451 0.6052 0.75757 0.0
O102 O 0.07626 0.61833 0.73977 0.0
O103 O 1.03752 0.51932 0.72443 0.0
C104 C 0.19187 0.4362 0.68674 0.0
C105 C 0.16799 0.43343 0.67375 0.0
C106 C 0.2626 0.42733 0.67458 0.0
C107 C 0.1905 0.427 0.66144 0.0
C108 C 0.23981 0.43346 0.68696 0.0
C109 C 0.23768 0.42293 0.66163 0.0
C110 C 0.16276 0.43468 0.69986 0.0
C111 C 0.07274 0.44257 0.7475 0.0
H112 H 0.97986 0.59155 0.74393 0.0
H113 H 0.98877 0.54151 0.79269 0.0
H114 H 0.89728 0.53152 0.75583 0.0
H115 H 0.07024 0.60377 0.78098 0.0
H116 H 0.13076 0.43466 0.67307 0.0
H117 H 0.29871 0.42398 0.67522 0.0
H118 H 0.17043 0.42471 0.65172 0.0
H119 H 0.25893 0.43446 0.69674 0.0
Eu120 Eu 0.58979 0.07536 0.90259 0.0
Eu121 Eu 0.70563 0.13824 0.88736 0.0
C122 C 0.62091 1.00972 0.88169 0.0
C123 C 0.44925 0.96635 0.90881 0.0
C124 C 0.46336 0.9259 0.90699 0.0
C125 C 0.35608 0.90074 0.90451 0.0
C126 C 0.42382 0.8729 0.90424 0.0
C127 C 0.39557 0.95362 0.90742 0.0
C128 C 0.3697 0.85967 0.90294 0.0
C129 C 0.49081 1.02253 0.91099 0.0
O130 O 0.65788 0.18009 0.87944 0.0
O131 O 0.60065 0.15708 0.89771 0.0
C132 C 0.62396 0.1883 0.88706 0.0
O133 O 0.64452 0.13398 0.91904 0.0
O134 O 0.74114 0.13415 0.86778 0.0
O135 O 0.79104 0.19643 0.88252 0.0
O136 O 0.72442 0.18723 0.90728 0.0
C137 C 0.69453 0.17474 0.91864 0.0
O138 O 0.63201 1.03485 0.9121 0.0
O139 O 0.71979 0.09566 0.90613 0.0
O140 O 0.6709 0.04784 0.88357 0.0
O141 O 0.53151 1.03029 0.91876 0.0
O142 O 0.50559 0.05197 0.89975 0.0
O143 O 0.58231 1.02048 0.88452 0.0
C144 C 0.82163 0.20745 0.85836 0.0
C145 C 0.87641 0.22259 0.85781 0.0
C146 C 0.82853 0.23851 0.83432 0.0
C147 C 0.90658 0.24416 0.84562 0.0
C148 C 0.79817 0.21641 0.84651 0.0
C149 C 0.88297 0.25149 0.83355 0.0
C150 C 0.78874 0.17463 0.87041 0.0
C151 C 0.68395 0.05398 0.91359 0.0
H152 H 0.50492 0.93523 0.90773 0.0
H153 H 0.31463 0.8918 0.90396 0.0
H154 H 0.43558 0.84223 0.90331 0.0
H155 H 0.38419 0.98458 0.90861 0.0
H156 H 0.89555 0.21566 0.86668 0.0
H157 H 0.80863 0.24327 0.8253 0.0
H158 H 0.94846 0.25446 0.84562 0.0
H159 H 0.75587 0.20454 0.84651 0.0
Eu160 Eu 0.53604 0.58121 0.07157 0.0
Eu161 Eu 0.6178 0.6817 0.05225 0.0
C162 C 0.63132 0.57268 0.05422 0.0
C163 C 0.46402 0.49468 0.10237 0.0
C164 C 0.41966 0.44986 0.10816 0.0
C165 C 0.50995 0.51387 0.12453 0.0
C166 C 0.421 0.43611 0.12199 0.0
C167 C 0.50836 0.52778 0.11072 0.0
C168 C 0.46698 0.46689 0.13015 0.0
C169 C 0.46544 0.50514 0.08749 0.0
O170 O 0.53005 0.66255 0.04837 0.0
O171 O 0.48942 0.57295 0.05201 0.0
C172 C 0.48664 0.61466 0.04738 0.0
O173 O 0.5414 0.65641 0.08179 0.0
O174 O 0.6438 0.69992 1.03073 0.0
O175 O 0.67205 0.76558 1.04554 0.0
O176 O 0.61514 0.72638 0.07116 0.0
C177 C 0.57901 0.70768 0.08113 0.0
O178 O 0.60938 0.62101 0.08498 0.0
O179 O 0.6731 0.68091 0.06964 0.0
O180 O 0.64277 0.61808 0.0478 0.0
O181 O 0.46311 0.54826 0.08407 0.0
O182 O 0.50209 0.50057 0.08051 0.0
O183 O 0.5919 0.55109 0.0634 0.0
C184 C 0.67229 0.78816 1.02118 0.0
C185 C 0.70429 0.84453 1.02235 0.0
C186 C 0.65494 0.80088 0.99695 0.0
C187 C 0.71199 0.87856 1.01096 0.0
C188 C 0.64715 0.7669 1.00835 0.0
C189 C 0.68829 0.85728 0.99797 0.0
C190 C 0.6719 0.75207 1.03257 0.0
C191 C 0.65949 0.65582 0.08185 0.0
H192 H 0.38506 0.42418 0.10183 0.0
H193 H 0.54577 0.53818 0.13061 0.0
H194 H 0.38769 0.39919 0.12599 0.0
H195 H 0.54261 0.563 0.10639 0.0
H196 H 0.72483 0.86235 1.03199 0.0
H197 H 0.63638 0.78252 0.98717 0.0
H198 H 0.73715 0.92168 1.01233 0.0
H199 H 0.62285 0.7237 1.00692 0.0
Eu200 Eu 1.0276 0.53929 0.23443 0.0
Eu201 Eu 0.9718 0.60369 0.22098 0.0
C202 C 0.09784 0.6415 0.21564 0.0
C203 C 0.14302 0.51935 0.2401 0.0
C204 C 0.17333 0.5728 0.23539 0.0
C205 C 0.22286 0.51042 0.2395 0.0
C206 C 0.22797 0.59486 0.23258 0.0
C207 C 0.16788 0.4881 0.24205 0.0
C208 C 0.25361 0.56411 0.23471 0.0
C209 C 0.08507 0.49619 0.2421 0.0
O210 O 0.93132 0.51889 0.21078 0.0
O211 O 0.95042 0.4702 0.22635 0.0
C212 C 0.9212 0.47177 0.21611 0.0
O213 O 0.96048 0.52255 0.24979 0.0
O214 O 0.98308 0.66181 0.20478 0.0
O215 O 0.90662 0.62085 0.21537 0.0
O216 O 0.92456 0.57418 0.24099 0.0
C217 C 0.92713 0.54231 0.2506 0.0
O218 O 0.06474 0.6176 0.24627 0.0
O219 O 1.00733 0.65068 0.24113 0.0
O220 O 0.06281 0.65725 0.21851 0.0
O221 O 0.07086 0.52267 0.2506 0.0
O222 O 1.05749 0.48327 0.23058 0.0
O223 O 0.08189 0.58981 0.21659 0.0
C224 C 0.90649 0.64823 0.19159 0.0
C225 C 0.86124 0.65549 0.19087 0.0
C226 C 0.9063 0.64437 0.16622 0.0
C227 C 0.8391 0.65772 0.17798 0.0
C228 C 0.92813 0.64176 0.17907 0.0
C229 C 0.862 0.65333 0.16543 0.0
C230 C 0.93385 0.6532 0.2052 0.0
C231 C 1.04637 0.65114 0.2487 0.0
H232 H 0.15471 0.59762 0.23392 0.0
H233 H 0.24141 0.48593 0.24169 0.0
H234 H 0.25014 0.63613 0.22889 0.0
H235 H 0.14496 0.44674 0.24564 0.0
H236 H 0.84388 0.6611 0.20028 0.0
H237 H 0.92458 0.63983 0.15684 0.0
H238 H 0.80527 0.66499 0.17786 0.0
H239 H 0.9629 0.636 0.17916 0.0
Eu240 Eu 0.09925 0.57573 0.5064 0.0
Eu241 Eu 0.13897 0.67945 0.52701 0.0
C242 C 1.0134 0.58271 0.52694 0.0
C243 C 1.05331 0.48457 0.47546 0.0
C244 C 1.00293 0.44096 0.47217 0.0
C245 C 0.06442 0.51469 0.45141 0.0
C246 C 0.98293 0.4348 0.45874 0.0
C247 C 0.08415 0.52149 0.46498 0.0
C248 C 1.0132 0.47186 0.4483 0.0
C249 C 0.07022 0.49335 0.49006 0.0
O250 O 0.19768 0.64572 0.52972 0.0
O251 O 0.13449 0.55973 0.52553 0.0
C252 C 0.1832 0.59397 0.52965 0.0
O253 O 0.17388 0.64194 0.49567 0.0
O254 O 0.14502 0.69945 0.54892 0.0
O255 O 0.16832 0.76394 0.53381 0.0
O256 O 0.19951 0.71686 0.50966 0.0
C257 C 0.20527 0.69375 0.49843 0.0
O258 O 0.08741 0.63345 0.49341 0.0
O259 O 0.08267 0.68669 0.5107 0.0
O260 O 1.05584 0.61496 0.53443 0.0
O261 O 0.12039 0.52823 0.49262 0.0
O262 O 1.03724 0.49827 0.49851 0.0
O263 O 1.02002 0.56575 0.51482 0.0
C264 C 0.19857 0.78966 0.55783 0.0
C265 C 0.20559 0.84218 0.55833 0.0
C266 C 0.24316 0.80632 0.58045 0.0
C267 C 0.2303 0.87604 0.5698 0.0
C268 C 0.21852 0.77254 0.56897 0.0
C269 C 0.24856 0.85836 0.58122 0.0
C270 C 0.16295 0.75094 0.54697 0.0
C271 C 0.07357 0.6685 0.4977 0.0
H272 H 0.97846 0.41225 0.48008 0.0
H273 H 0.08846 0.54337 0.44346 0.0
H274 H 0.94373 0.40071 0.45648 0.0
H275 H 0.12297 0.55598 0.4673 0.0
H276 H 0.19015 0.8565 0.55004 0.0
H277 H 0.25598 0.79055 0.58898 0.0
H278 H 0.23445 0.91599 0.56976 0.0
H279 H 0.21331 0.73215 0.56909 0.0
Eu280 Eu 0.58024 0.0976 0.67323 0.0
Eu281 Eu 0.50654 0.13001 0.69304 0.0
C282 C 0.48579 1.00451 0.69227 0.0
C283 C 0.61423 1.02177 0.64789 0.0
C284 C 0.59676 0.96972 0.65317 0.0
C285 C 0.56793 0.98254 0.62631 0.0
C286 C 0.56282 0.92455 0.64533 0.0
C287 C 0.60225 1.02766 0.63409 0.0
C288 C 0.54531 0.93054 0.63213 0.0
C289 C 0.63493 0.06844 0.65732 0.0
O290 O 0.59226 0.17677 0.70237 0.0
O291 O 0.64356 0.16495 0.68596 0.0
C292 C 0.63983 0.18907 0.6971 0.0
O293 O 0.56808 0.15776 0.66058 0.0
O294 O 0.46574 0.11287 0.71296 0.0
O295 O 0.46433 0.17379 0.69976 0.0
O296 O 0.53944 0.19711 0.67699 0.0
C297 C 0.55634 0.19516 0.66438 0.0
O298 O 0.4983 0.05106 0.66367 0.0
O299 O 0.45374 0.09191 0.67362 0.0
O300 O 0.46719 1.03782 0.69486 0.0
O301 O 0.62254 0.10533 0.65389 0.0
O302 O 0.62826 0.05764 0.67058 0.0
O303 O 0.53342 1.02239 0.68653 0.0
C304 C 0.45235 0.17985 0.7246 0.0
C305 C 0.46056 0.16321 0.73773 0.0
C306 C 0.43147 0.24367 0.7364 0.0
C307 C 0.45343 0.18568 0.74996 0.0
C308 C 0.43826 0.22084 0.72412 0.0
C309 C 0.43781 0.22555 0.74952 0.0
C310 C 0.45087 0.14936 0.71178 0.0
C311 C 0.45702 0.05954 0.66419 0.0
H312 H 0.6064 0.96375 0.66366 0.0
H313 H 0.55654 0.98913 0.61609 0.0
H314 H 0.54886 0.88503 0.64988 0.0
H315 H 0.61598 0.06734 0.62964 0.0
H316 H 0.47092 0.13145 0.73863 0.0
H317 H 0.41914 0.27402 0.7356 0.0
H318 H 0.4596 0.17123 0.75982 0.0
H319 H 0.43068 0.23405 0.71424 0.0
Eu320 Eu 0.52555 0.55132 0.84038 0.0
Eu321 Eu 0.41581 0.49234 0.85849 0.0
C322 C 0.50823 0.4591 0.86201 0.0
C323 C 0.63215 0.55204 0.82075 0.0
C324 C 0.59356 0.5006 0.81599 0.0
C325 C 0.69928 0.52383 0.81998 0.0
C326 C 0.60723 0.4605 0.8137 0.0
C327 C 0.68526 0.56357 0.82254 0.0
C328 C 0.66008 0.47138 0.81587 0.0
C329 C 0.61433 0.58786 0.8268 0.0
O330 O 0.45421 0.58391 0.86321 0.0
O331 O 0.54082 0.60726 0.85839 0.0
C332 C 0.50586 0.62007 0.86335 0.0
O333 O 0.47193 0.58134 0.8315 0.0
O334 O 0.3627 0.42778 0.87271 0.0
O335 O 0.34404 0.49047 0.86742 0.0
O336 O 0.39062 0.5088 0.83741 0.0
C337 C 0.42008 0.5503 0.82924 0.0
O338 O 0.47236 0.4816 0.827 0.0
O339 O 0.4032 0.42853 0.84184 0.0
O340 O 0.47841 0.47494 0.86895 0.0
O341 O 0.57125 0.58526 0.82133 0.0
O342 O 0.61261 0.58636 0.84033 0.0
O343 O 0.52269 0.47642 0.84934 0.0
C344 C 0.30906 0.44474 0.88923 0.0
C345 C 0.27268 0.46378 0.89166 0.0
C346 C 0.29293 0.40971 0.91302 0.0
C347 C 0.24651 0.45561 0.90451 0.0
C348 C 0.31913 0.41791 0.90014 0.0
C349 C 0.25559 0.42779 0.91538 0.0
C350 C 0.33068 0.4475 0.8749 0.0
C351 C 0.42941 0.43589 0.82996 0.0
H352 H 0.5522 0.49048 0.81454 0.0
H353 H 0.74099 0.53438 0.82122 0.0
H354 H 0.57626 0.42082 0.81048 0.0
H355 H 0.71541 0.60262 0.8264 0.0
H356 H 0.26312 0.4837 0.88344 0.0
H357 H 0.30188 0.38889 0.92111 0.0
H358 H 0.21766 0.46958 0.90571 0.0
H359 H 0.34645 0.40217 0.89868 0.0
Eu360 Eu 1.00942 0.50887 1.00826 0.0
Eu361 Eu 0.9799 0.40262 1.02777 0.0
C362 C 0.10122 0.5092 1.02794 0.0
C363 C 1.05345 0.59814 0.97692 0.0
C364 C 0.1041 0.64227 0.97405 0.0
C365 C 1.04765 0.56742 0.95307 0.0
C366 C 0.12695 0.64818 0.96098 0.0
C367 C 1.02502 0.56092 0.96628 0.0
C368 C 0.09932 0.61039 0.95047 0.0
C369 C 1.03375 0.58895 0.99131 0.0
O370 O 0.92588 0.43668 1.03586 0.0
O371 O 0.94883 0.5118 1.02254 0.0
C372 C 0.91868 0.4776 1.03209 0.0
O373 O 0.94988 0.43623 0.99554 0.0
O374 O 0.99647 0.38344 0.04848 0.0
O375 O 0.94221 0.31816 1.035 0.0
O376 O 0.91491 0.36649 1.01148 0.0
C377 C 0.91482 0.38621 0.99909 0.0
O378 O 1.05097 0.47036 0.99747 0.0
O379 O 1.02169 0.38903 1.00885 0.0
O380 O 0.07129 0.45649 1.02898 0.0
O381 O 0.98467 0.55034 0.99339 0.0
O382 O 0.06707 0.58884 1.00054 0.0
O383 O 0.07969 0.53821 1.02346 0.0
C384 C 0.93477 0.30151 0.05995 0.0
C385 C 0.87908 0.26511 0.06014 0.0
C386 C 0.9394 0.27765 0.08411 0.0
C387 C 0.85393 0.23517 0.07223 0.0
C388 C 0.96426 0.30753 0.07213 0.0
C389 C 0.88396 0.24044 0.08435 0.0
C390 C 0.96468 0.33146 0.04726 0.0
C391 C 1.04868 0.42331 0.99865 0.0
H392 H 0.12672 0.67134 0.98207 0.0
H393 H 1.02572 0.53807 0.94506 0.0
H394 H 0.16658 0.68223 0.95908 0.0
H395 H 0.98598 0.52613 0.96823 0.0
H396 H 0.85513 0.25921 0.05092 0.0
H397 H 0.9639 0.28381 0.09322 0.0
H398 H 0.81123 0.2068 0.07196 0.0
H399 H 1.00722 0.33503 0.07234 0.0
Eu400 Eu 0.54351 0.9981 0.17613 0.0
Eu401 Eu 0.61637 0.96599 0.19502 0.0
C402 C 0.63869 0.08892 0.19609 0.0
C403 C 0.47875 0.07969 0.16643 0.0
C404 C 0.52731 0.12694 0.16911 0.0
C405 C 0.43189 0.13118 0.16705 0.0
C406 C 0.52816 0.17603 0.17089 0.0
C407 C 0.43107 0.08197 0.16541 0.0
C408 C 0.48043 0.17875 0.16989 0.0
C409 C 0.47726 1.02753 0.16615 0.0
O410 O 0.53095 0.93088 0.20464 0.0
O411 O 0.48833 0.91405 0.1842 0.0
C412 C 0.48654 0.9029 0.19733 0.0
O413 O 0.55087 0.93933 0.16172 0.0
O414 O 0.66497 0.97999 0.21368 0.0
O415 O 0.64333 0.9086 0.20143 0.0
O416 O 0.59782 0.91174 0.17613 0.0
C417 C 0.57419 0.91004 0.16419 0.0
O418 O 0.62202 0.0446 0.16521 0.0
O419 O 0.67152 1.01141 0.17639 0.0
O420 O 0.65963 0.0572 0.19757 0.0
O421 O 0.51417 1.02509 0.15866 0.0
O422 O 0.47152 1.00526 0.17835 0.0
O423 O 0.58909 0.06887 0.19131 0.0
C424 C 0.66497 0.90564 0.22551 0.0
C425 C 0.69774 0.88176 0.22676 0.0
C426 C 0.63754 0.88089 0.24966 0.0
C427 C 0.7011 0.85846 0.23933 0.0
C428 C 0.63432 0.90435 0.23706 0.0
C429 C 0.67172 0.85831 0.25109 0.0
C430 C 0.66774 0.93571 0.21254 0.0
C431 C 0.66569 1.04047 0.16637 0.0
H432 H 0.56444 0.12562 0.17002 0.0
H433 H 0.39459 0.13201 0.16589 0.0
H434 H 0.56613 0.21173 0.17315 0.0
H435 H 0.39319 0.04567 0.16347 0.0
H436 H 0.72223 0.88258 0.21808 0.0
H437 H 0.61338 0.88084 0.25832 0.0
H438 H 0.72836 0.84229 0.23992 0.0
H439 H 0.60866 0.92239 0.23645 0.0
Eu440 Eu 0.60252 0.52537 0.33453 0.0
Eu441 Eu 0.6904 0.58673 0.35897 0.0
C442 C 0.59281 0.61538 0.35385 0.0
C443 C 0.52983 0.5066 0.30129 0.0
C444 C 0.51459 0.54634 0.30286 0.0
C445 C 0.53838 0.52335 0.27644 0.0
C446 C 0.51051 0.57369 0.29133 0.0
C447 C 0.54191 0.49552 0.28799 0.0
C448 C 0.52228 0.56254 0.27796 0.0
C449 C 0.53903 0.48101 0.31351 0.0
O450 O 0.65286 0.49355 0.36231 0.0
O451 O 0.57161 0.4692 0.35277 0.0
C452 C 0.60246 0.45596 0.35991 0.0
O453 O 0.66607 0.50011 0.33309 0.0
O454 O 0.70313 0.60711 0.38093 0.0
O455 O 0.77253 0.63037 0.36774 0.0
O456 O 0.73688 0.5784 0.34078 0.0
C457 C 0.71762 0.53517 0.33288 0.0
O458 O 0.66434 0.60193 0.32454 0.0
O459 O 0.70169 0.65453 0.34383 0.0
O460 O 0.62662 0.61267 0.36278 0.0
O461 O 0.58706 0.48671 0.31428 0.0
O462 O 0.52214 0.48837 0.32548 0.0
O463 O 0.58141 0.58858 0.34205 0.0
C464 C 0.7854 0.62721 0.39274 0.0
C465 C 0.75874 0.60684 0.40547 0.0
C466 C 0.87095 0.65833 0.40497 0.0
C467 C 0.78767 0.61315 0.41776 0.0
C468 C 0.84193 0.65232 0.39265 0.0
C469 C 0.84431 0.6401 0.4178 0.0
C470 C 0.75546 0.63045 0.38031 0.0
C471 C 0.69186 0.64948 0.33031 0.0
H472 H 0.50598 0.5566 0.31301 0.0
H473 H 0.5481 0.51408 0.26631 0.0
H474 H 0.49683 0.6027 0.2929 0.0
H475 H 0.55483 0.46582 0.28657 0.0
H476 H 0.71535 0.58772 0.40608 0.0
H477 H 0.91444 0.67957 0.40453 0.0
H478 H 0.76551 0.59766 0.42734 0.0
H479 H 0.86397 0.66939 0.38313 0.0
H480 H 0.13548 0.67054 0.26383 0.0
H481 H 1.01021 0.71468 0.26145 0.0
H482 H 1.04606 0.76939 0.28283 0.0
H483 H 0.13249 0.65459 0.30029 0.0
H484 H 0.20398 0.68133 0.30198 0.0
H485 H 0.17053 0.64886 0.28611 0.0
H486 H 0.23504 0.7343 0.27214 0.0
H487 H 0.26902 0.76699 0.28795 0.0
H488 H 0.24168 0.79863 0.27686 0.0
H489 H 0.09467 0.81666 0.30532 0.0
H490 H 0.15029 0.85182 0.32639 0.0
H491 H 0.24345 0.77592 0.31388 0.0
C492 C 0.11567 0.69209 0.26766 0.0
C493 C 0.06996 0.68838 0.26081 0.0
C494 C 1.04552 0.71723 0.26634 0.0
C495 C 0.06555 0.74827 0.27854 0.0
C496 C 0.11023 0.75029 0.2851 0.0
C497 C 0.13503 0.72302 0.27978 0.0
C498 C 0.18138 0.73014 0.28892 0.0
C499 C 0.17148 0.67548 0.29466 0.0
C500 C 0.23495 0.75926 0.281 0.0
C501 C 0.1788 0.76543 0.30035 0.0
C502 C 0.13766 0.77684 0.29794 0.0
C503 C 0.12718 0.8082 0.3072 0.0
C504 C 0.15937 0.82834 0.31915 0.0
C505 C 0.20185 0.81719 0.3219 0.0
C506 C 0.21131 0.78512 0.31226 0.0
H507 H 0.51541 0.21932 0.48028 0.0
H508 H 0.34793 0.12752 0.4926 0.0
H509 H 0.32801 0.07175 0.47153 0.0
H510 H 0.49101 0.22008 0.44333 0.0
H511 H 0.54817 0.21308 0.43842 0.0
H512 H 0.54926 0.24626 0.45442 0.0
H513 H 0.56968 0.17976 0.46804 0.0
H514 H 0.56892 0.14663 0.45207 0.0
H515 H 0.52556 0.10809 0.46618 0.0
H516 H 0.32631 1.02451 0.44881 0.0
H517 H 0.34452 0.98881 0.42726 0.0
H518 H 0.5124 0.11237 0.42969 0.0
C519 C 0.47443 0.1878 0.47852 0.0
C520 C 0.43341 0.17794 0.48827 0.0
C521 C 0.38046 0.1356 0.48552 0.0
C522 C 0.36855 0.10385 0.47347 0.0
C523 C 0.40986 0.11466 0.46412 0.0
C524 C 0.4618 0.15559 0.46653 0.0
C525 C 0.49915 0.15818 0.45499 0.0
C526 C 0.52331 0.21264 0.44734 0.0
C527 C 0.54343 0.14751 0.46066 0.0
C528 C 0.46026 0.11227 0.44576 0.0
C529 C 0.40884 0.08774 0.45114 0.0
C530 C 0.36646 0.04368 0.4445 0.0
C531 C 0.3771 1.02376 0.43219 0.0
C532 C 0.42978 0.04768 0.42663 0.0
C533 C 0.47152 0.093 0.43353 0.0
H534 H 0.34378 0.46663 0.65304 0.0
H535 H 0.18066 0.35482 0.64016 0.0
H536 H 0.21514 0.33772 0.61834 0.0
H537 H 0.39231 0.52342 0.6192 0.0
H538 H 0.45789 0.53038 0.62177 0.0
H539 H 0.42018 0.53309 0.63642 0.0
H540 H 0.42819 0.45528 0.64823 0.0
H541 H 0.46591 0.45237 0.63361 0.0
H542 H 0.40577 0.39257 0.63907 0.0
H543 H 0.26936 0.33366 0.59717 0.0
H544 H 0.33725 0.34588 0.57927 0.0
H545 H 0.4632 0.4585 0.6066 0.0
C546 C 0.31523 0.43815 0.64571 0.0
C547 C 0.25928 0.41228 0.64844 0.0
C548 C 0.22361 0.37588 0.63835 0.0
C549 C 0.24288 0.36556 0.6259 0.0
C550 C 0.29818 0.39189 0.62353 0.0
C551 C 0.33377 0.4276 0.63318 0.0
C552 C 0.39121 0.45172 0.62806 0.0
C553 C 0.41689 0.51329 0.62626 0.0
C554 C 0.42474 0.4371 0.63782 0.0
C555 C 0.38252 0.42377 0.61413 0.0
C556 C 0.32872 0.38941 0.61159 0.0
C557 C 0.31165 0.36039 0.59914 0.0
C558 C 0.35049 0.36732 0.58902 0.0
C559 C 0.40586 0.40301 0.59139 0.0
C560 C 0.42142 0.4308 0.60427 0.0
H561 H 0.98928 0.42928 0.76416 0.0
H562 H 0.09645 0.36417 0.75723 0.0
H563 H 1.05774 0.30512 0.77792 0.0
H564 H 1.00118 0.43451 0.80087 0.0
H565 H 0.93272 0.41932 0.80356 0.0
H566 H 0.96751 0.45175 0.78776 0.0
H567 H 0.89071 0.37539 0.77317 0.0
H568 H 0.85672 0.34451 0.78917 0.0
H569 H 0.87227 0.30637 0.77688 0.0
H570 H 1.00955 0.25748 0.80107 0.0
H571 H 0.95646 0.22473 0.82269 0.0
H572 H 0.88198 0.32274 0.81398 0.0
C573 C 1.00432 0.40205 0.76677 0.0
C574 C 1.04603 0.40145 0.75886 0.0
C575 C 0.06427 0.36521 0.76291 0.0
C576 C 1.04256 0.33163 0.77473 0.0
C577 C 1.0022 0.33426 0.78241 0.0
C578 C 0.98312 0.36839 0.77843 0.0
C579 C 0.94167 0.36621 0.78866 0.0
C580 C 0.96191 0.42125 0.79566 0.0
C581 C 0.88707 0.34697 0.78155 0.0
C582 C 0.93932 0.32505 0.799 0.0
C583 C 0.97487 0.30727 0.79536 0.0
C584 C 0.98152 0.27117 0.80386 0.0
C585 C 0.95134 0.25309 0.81625 0.0
C586 C 0.91458 0.27086 0.8202 0.0
C587 C 0.90873 0.30731 0.81129 0.0
H588 H 0.62071 0.95803 0.92682 0.0
H589 H 0.78278 0.0943 0.92676 0.0
H590 H 0.80305 0.05772 0.94795 0.0
H591 H 0.60025 0.95385 0.96272 0.0
H592 H 0.56135 0.88128 0.96376 0.0
H593 H 0.56181 0.91532 0.94796 0.0
H594 H 0.59352 0.85791 0.93419 0.0
H595 H 0.59265 0.82319 0.94992 0.0
H596 H 0.6531 0.85633 0.93966 0.0
H597 H 0.80248 1.00759 0.97043 0.0
H598 H 0.78325 0.94876 0.99093 0.0
H599 H 0.61982 0.84788 0.97636 0.0
C600 C 0.66093 0.98003 0.93106 0.0
C601 C 0.70032 1.02916 0.92497 0.0
C602 C 0.75214 0.05634 0.93104 0.0
C603 C 0.76382 1.03594 0.94316 0.0
C604 C 0.72335 0.98818 0.94908 0.0
C605 C 0.67306 0.96045 0.9431 0.0
C606 C 0.63557 0.91135 0.95167 0.0
C607 C 0.58688 0.91575 0.95683 0.0
C608 C 0.61767 0.85911 0.94336 0.0
C609 C 0.67224 0.91576 0.96356 0.0
C610 C 0.72278 0.96018 0.9619 0.0
C611 C 0.763 0.97277 0.97175 0.0
C612 C 0.75142 0.9392 0.98349 0.0
C613 C 0.6998 0.89332 0.98547 0.0
C614 C 0.65992 0.88191 0.97523 0.0
H615 H 0.75641 0.6145 0.15686 0.0
H616 H 0.92111 0.70856 0.14255 0.0
H617 H 0.88863 0.7211 0.11985 0.0
H618 H 0.70157 0.54659 0.12452 0.0
H619 H 0.63934 0.54776 0.12621 0.0
H620 H 0.67506 0.54665 0.14149 0.0
H621 H 0.67756 0.63344 0.15052 0.0
H622 H 0.64125 0.6347 0.13538 0.0
H623 H 0.70484 0.69273 0.13966 0.0
H624 H 0.83696 0.72409 0.09824 0.0
H625 H 0.77101 0.71387 0.08004 0.0
H626 H 0.6412 0.61822 0.10867 0.0
C627 C 0.78574 0.63804 0.149 0.0
C628 C 0.84154 0.66035 0.15161 0.0
C629 C 0.87822 0.6903 0.14086 0.0
C630 C 0.86013 0.69801 0.1279 0.0
C631 C 0.80498 0.67545 0.12568 0.0
C632 C 0.76832 0.64585 0.13594 0.0
C633 C 0.71116 0.62496 0.13086 0.0
C634 C 0.67997 0.56282 0.13077 0.0
C635 C 0.682 0.64784 0.13963 0.0
C636 C 0.72139 0.64768 0.11621 0.0
C637 C 0.77567 0.67681 0.11336 0.0
C638 C 0.79432 0.7013 0.10041 0.0
C639 C 0.75657 0.69547 0.09011 0.0
C640 C 0.70064 0.66524 0.09277 0.0
C641 C 0.68344 0.64154 0.10611 0.0
H642 H 0.44536 0.97885 0.64662 0.0
H643 H 0.37401 0.07892 0.65626 0.0
H644 H 0.31101 1.03787 0.63644 0.0
H645 H 0.44075 0.98878 0.60986 0.0
H646 H 0.42793 0.92069 0.60725 0.0
H647 H 0.46351 0.95796 0.62246 0.0
H648 H 0.39269 0.87965 0.63817 0.0
H649 H 0.35867 0.84393 0.62261 0.0
H650 H 0.32269 0.85849 0.63573 0.0
H651 H 0.25768 0.98595 0.6141 0.0
H652 H 0.21992 0.92949 0.59318 0.0
H653 H 0.32996 0.86673 0.59852 0.0
C654 C 0.41624 0.9921 0.64474 0.0
C655 C 0.41488 1.03233 0.65316 0.0
C656 C 0.37585 0.04799 0.65013 0.0
C657 C 0.33998 1.02493 0.63882 0.0
C658 C 0.34326 0.98593 0.63062 0.0
C659 C 0.38039 0.96963 0.6336 0.0
C660 C 0.37749 0.92841 0.62317 0.0
C661 C 0.43059 0.9502 0.61518 0.0
C662 C 0.362 0.87438 0.63033 0.0
C663 C 0.33309 0.9236 0.61375 0.0
C664 C 0.31359 0.95703 0.61812 0.0
C665 C 0.273 0.9598 0.6107 0.0
C666 C 0.25206 0.92774 0.59868 0.0
C667 C 0.27165 0.89314 0.59398 0.0
C668 C 0.31297 0.89162 0.60177 0.0
H669 H 0.46497 0.33069 0.75622 0.0
H670 H 0.38496 0.16788 0.77285 0.0
H671 H 0.36755 0.20178 0.79474 0.0
H672 H 0.52991 0.39499 0.78743 0.0
H673 H 0.52298 0.45414 0.78495 0.0
H674 H 0.52629 0.41728 0.77017 0.0
H675 H 0.43585 0.40463 0.76099 0.0
H676 H 0.43208 0.44233 0.77554 0.0
H677 H 0.37759 0.37534 0.77211 0.0
H678 H 0.36108 0.25555 0.8156 0.0
H679 H 0.37171 0.32423 0.83316 0.0
H680 H 0.45438 0.45006 0.80246 0.0
C681 C 0.44314 0.30197 0.76438 0.0
C682 C 0.42646 0.24645 0.7627 0.0
C683 C 0.39884 0.21066 0.77384 0.0
C684 C 0.38833 0.22951 0.78633 0.0
C685 C 0.40555 0.28447 0.78765 0.0
C686 C 0.43252 0.32015 0.77695 0.0
C687 C 0.44913 0.37759 0.78116 0.0
C688 C 0.51071 0.4131 0.78092 0.0
C689 C 0.42203 0.40136 0.7719 0.0
C690 C 0.42744 0.36877 0.79587 0.0
C691 C 0.4021 0.31487 0.79949 0.0
C692 C 0.38058 0.29785 0.8128 0.0
C693 C 0.38633 0.33704 0.82271 0.0
C694 C 0.41365 0.39263 0.81927 0.0
C695 C 0.43318 0.40797 0.80553 0.0
H696 H 0.10377 0.48749 0.97666 0.0
H697 H 0.06074 0.33193 0.99504 0.0
H698 H 0.11009 0.31563 0.97602 0.0
H699 H 0.08903 0.44645 0.94141 0.0
H700 H 0.14459 0.50932 0.93554 0.0
H701 H 0.10683 0.50797 0.95065 0.0
H702 H 0.19406 0.55326 0.96516 0.0
H703 H 0.23283 0.5547 0.95028 0.0
H704 H 0.23608 0.52241 0.96605 0.0
H705 H 0.16528 0.31792 0.95397 0.0
H706 H 0.21722 0.33708 0.93218 0.0
H707 H 0.22384 0.49258 0.92938 0.0
C708 C 0.10442 0.44974 0.97688 0.0
C709 C 0.07805 0.41098 0.98755 0.0
C710 C 0.08045 0.36237 0.9871 0.0
C711 C 0.10849 0.35287 0.9763 0.0
C712 C 0.13397 0.39232 0.966 0.0
C713 C 0.1319 0.43976 0.9663 0.0
C714 C 0.16175 0.47611 0.95415 0.0
C715 C 0.12327 0.48552 0.94489 0.0
C716 C 0.20897 0.52979 0.95922 0.0
C717 C 0.1814 0.44208 0.9468 0.0
C718 C 0.16511 0.3938 0.95372 0.0
C719 C 0.17826 0.3558 0.94861 0.0
C720 C 0.20828 0.36732 0.93621 0.0
C721 C 0.2252 0.41657 0.9289 0.0
C722 C 0.21141 0.45428 0.93446 0.0
H723 H 0.66188 0.09918 0.14416 0.0
H724 H 0.76457 0.04478 0.16332 0.0
H725 H 0.83115 0.08914 0.14442 0.0
H726 H 0.68718 0.07866 0.10896 0.0
H727 H 0.6853 0.13729 0.10254 0.0
H728 H 0.64693 0.10244 0.11768 0.0
H729 H 0.6938 0.19134 0.13175 0.0
H730 H 0.73215 0.22659 0.11665 0.0
H731 H 0.76617 0.22865 0.13258 0.0
H732 H 0.88658 0.14026 0.12294 0.0
H733 H 0.92535 0.19227 0.10144 0.0
H734 H 0.78508 0.2121 0.09639 0.0
C735 C 0.69841 0.09655 0.14453 0.0
C736 C 0.70781 0.0684 0.15541 0.0
C737 C 0.75628 0.06614 0.15523 0.0
C738 C 0.79431 0.0912 0.14449 0.0
C739 C 0.78336 0.11827 0.13392 0.0
C740 C 0.73643 0.12096 0.1339 0.0
C741 C 0.73352 0.15188 0.12135 0.0
C742 C 0.68537 0.11538 0.11209 0.0
C743 C 0.73129 0.20262 0.12586 0.0
C744 C 0.78634 0.16658 0.11423 0.0
C745 C 0.81458 0.1469 0.12164 0.0
C746 C 0.8647 0.15585 0.11714 0.0
C747 C 0.88657 0.18582 0.1049 0.0
C748 C 0.85866 0.20687 0.09713 0.0
C749 C 0.80749 0.19643 0.10192 0.0
H750 H 0.71017 0.65669 0.30241 0.0
H751 H 0.69652 0.74601 0.3371 0.0
H752 H 0.69432 0.81216 0.32066 0.0
H753 H 0.79211 0.77567 0.27929 0.0
H754 H 0.75728 0.73781 0.26408 0.0
H755 H 0.76661 0.70379 0.27872 0.0
H756 H 0.66528 0.63914 0.27904 0.0
H757 H 0.65209 0.67404 0.26531 0.0
H758 H 0.62009 0.66507 0.28199 0.0
H759 H 0.68349 0.86292 0.2999 0.0
H760 H 0.67125 0.89675 0.27738 0.0
H761 H 0.68809 0.77101 0.25629 0.0
C762 C 0.70862 0.69123 0.3066 0.0
C763 C 0.70434 0.69652 0.32112 0.0
C764 C 0.7012 0.74172 0.32611 0.0
C765 C 0.6994 0.77922 0.31679 0.0
C766 C 0.70142 0.77139 0.30251 0.0
C767 C 0.7071 0.729 0.29748 0.0
C768 C 0.70468 0.72701 0.28173 0.0
C769 C 0.75838 0.73667 0.27559 0.0
C770 C 0.65777 0.67314 0.27669 0.0
C771 C 0.69511 0.774 0.27859 0.0
C772 C 0.69391 0.79946 0.2907 0.0
C773 C 0.68468 0.84331 0.2904 0.0
C774 C 0.67714 0.86194 0.27748 0.0
C775 C 0.6784 0.83678 0.26486 0.0
C776 C 0.6875 0.79198 0.26559 0.0
H777 H 0.0732 0.65882 0.46954 0.0
H778 H 0.99853 0.70202 0.50262 0.0
H779 H 0.9337 0.70316 0.48559 0.0
H780 H 1.05571 0.73639 0.44156 0.0
H781 H 1.04194 0.68464 0.42887 0.0
H782 H 0.0852 0.69334 0.44339 0.0
H783 H 1.02494 0.59301 0.45002 0.0
H784 H 0.98112 0.58381 0.43563 0.0
H785 H 0.95418 0.56718 0.45296 0.0
H786 H 0.87133 0.69056 0.46485 0.0
H787 H 0.82176 0.67178 0.44272 0.0
H788 H 0.93693 0.63453 0.42347 0.0
C789 C 1.04402 0.66978 0.47324 0.0
C790 C 1.04148 0.68088 0.48751 0.0
C791 C 1.00216 0.69442 0.49178 0.0
C792 C 0.96481 0.6946 0.48216 0.0
C793 C 0.96738 0.68138 0.46827 0.0
C794 C 1.00655 0.66982 0.46384 0.0
C795 C 0.99956 0.65417 0.44859 0.0
C796 C 1.04851 0.69456 0.4401 0.0
C797 C 0.98931 0.5961 0.44669 0.0
C798 C 0.94993 0.65827 0.44504 0.0
C799 C 0.93187 0.67395 0.45652 0.0
C800 C 0.88553 0.67862 0.45584 0.0
C801 C 0.85728 0.66737 0.44319 0.0
C802 C 0.87506 0.65146 0.43122 0.0
C803 C 0.92235 0.64716 0.43228 0.0
H804 H 0.61418 0.69074 0.37531 0.0
H805 H 0.51874 0.6262 0.33799 0.0
H806 H 0.4834 0.68913 0.34071 0.0
H807 H 0.51533 0.71179 0.39445 0.0
H808 H 0.5649 0.77399 0.40231 0.0
H809 H 0.58229 0.72312 0.39765 0.0
H810 H 0.66137 0.79324 0.38282 0.0
H811 H 0.64406 0.84425 0.38738 0.0
H812 H 0.64854 0.82966 0.3694 0.0
H813 H 0.45847 0.7617 0.34722 0.0
H814 H 0.44562 0.83472 0.35727 0.0
H815 H 0.55618 0.85355 0.39043 0.0
C816 C 0.58542 0.68935 0.36777 0.0
C817 C 0.56933 0.65242 0.35644 0.0
C818 C 0.53196 0.65323 0.34681 0.0
C819 C 0.51152 0.68921 0.34825 0.0
C820 C 0.52839 0.72509 0.35941 0.0
C821 C 0.56441 0.72535 0.36905 0.0
C822 C 0.57624 0.76856 0.38002 0.0
C823 C 0.55864 0.74282 0.39447 0.0
C824 C 0.63611 0.81147 0.3799 0.0
C825 C 0.54132 0.79234 0.37507 0.0
C826 C 0.51411 0.76673 0.36313 0.0
C827 C 0.47967 0.78184 0.35659 0.0
C828 C 0.47262 0.8237 0.36238 0.0
C829 C 0.49968 0.85065 0.37469 0.0
C830 C 0.53463 0.83427 0.38102 0.0
H831 H 0.68443 0.44574 0.52885 0.0
H832 H 0.7105 0.5573 0.5625 0.0
H833 H 0.80762 0.59079 0.56128 0.0
H834 H 0.79223 0.41626 0.53795 0.0
H835 H 0.81343 0.41637 0.52033 0.0
H836 H 0.74459 0.39803 0.52394 0.0
H837 H 0.75175 0.47182 0.50699 0.0
H838 H 0.82053 0.49023 0.5033 0.0
H839 H 0.80445 0.5406 0.50934 0.0
H840 H 0.90207 0.61243 0.55721 0.0
H841 H 0.9896 0.62699 0.54906 0.0
H842 H 0.91008 0.50812 0.51657 0.0
C843 C 0.71064 0.47702 0.53598 0.0
C844 C 0.6889 0.49863 0.54584 0.0
C845 C 0.72531 0.54004 0.55481 0.0
C846 C 0.78096 0.55934 0.55426 0.0
C847 C 0.80114 0.53784 0.54449 0.0
C848 C 0.7675 0.49812 0.53534 0.0
C849 C 0.80137 0.48467 0.52544 0.0
C850 C 0.78703 0.42529 0.52701 0.0
C851 C 0.79408 0.49759 0.51037 0.0
C852 C 0.85874 0.5227 0.53056 0.0
C853 C 0.85703 0.55235 0.54169 0.0
C854 C 0.90385 0.58955 0.54846 0.0
C855 C 0.95379 0.59741 0.54373 0.0
C856 C 0.95787 0.56891 0.53213 0.0
C857 C 0.90905 0.53072 0.52548 0.0
H858 H 0.39106 0.9495 0.70788 0.0
H859 H 0.49741 0.9214 0.68132 0.0
H860 H 0.43632 0.82303 0.68311 0.0
H861 H 0.35603 0.83473 0.73084 0.0
H862 H 0.28747 0.81992 0.73309 0.0
H863 H 0.33937 0.88808 0.72956 0.0
H864 H 0.28557 0.89146 0.70835 0.0
H865 H 0.23376 0.82312 0.71174 0.0
H866 H 0.26603 0.84088 0.69501 0.0
H867 H 0.35976 0.72458 0.68729 0.0
H868 H 0.2818 0.63869 0.69523 0.0
H869 H 0.22711 0.7299 0.71988 0.0
C870 C 0.40185 0.92275 0.70252 0.0
C871 C 0.44991 0.94422 0.6945 0.0
C872 C 0.46165 0.90691 0.68767 0.0
C873 C 0.42675 0.85052 0.68855 0.0
C874 C 0.37975 0.83084 0.69644 0.0
C875 C 0.36767 0.86597 0.70346 0.0
C876 C 0.3153 0.83436 0.71153 0.0
C877 C 0.32514 0.8449 0.72719 0.0
C878 C 0.27265 0.8483 0.70634 0.0
C879 C 0.29972 0.77616 0.70796 0.0
C880 C 0.33706 0.77486 0.69911 0.0
C881 C 0.33057 0.72549 0.69428 0.0
C882 C 0.28574 0.67657 0.69879 0.0
C883 C 0.24758 0.67658 0.70821 0.0
C884 C 0.25509 0.72768 0.71269 0.0
H885 H 0.55458 0.40451 0.84876 0.0
H886 H 0.50162 0.42654 0.88923 0.0
H887 H 0.53011 0.36474 0.89941 0.0
H888 H 0.51015 0.2621 0.8529 0.0
H889 H 0.56618 0.26424 0.84374 0.0
H890 H 0.54403 0.31199 0.83956 0.0
H891 H 0.63948 0.3911 0.84415 0.0
H892 H 0.66209 0.34352 0.84815 0.0
H893 H 0.67172 0.39506 0.86051 0.0
H894 H 0.56395 0.30113 0.90541 0.0
H895 H 0.59456 0.23479 0.90705 0.0
H896 H 0.62467 0.24723 0.86265 0.0
C897 C 0.54921 0.39663 0.8598 0.0
C898 C 0.52588 0.42129 0.8682 0.0
C899 C 0.51926 0.40886 0.88254 0.0
C900 C 0.53555 0.3737 0.88843 0.0
C901 C 0.5583 0.35038 0.87991 0.0
C902 C 0.56485 0.36091 0.86587 0.0
C903 C 0.58878 0.32861 0.85906 0.0
C904 C 0.54996 0.28941 0.84817 0.0
C905 C 0.6438 0.36684 0.85259 0.0
C906 C 0.59447 0.29802 0.87148 0.0
C907 C 0.57689 0.31201 0.88335 0.0
C908 C 0.57745 0.28979 0.89616 0.0
C909 C 0.59504 0.25165 0.89694 0.0
C910 C 0.61204 0.2345 0.88502 0.0
C911 C 0.61247 0.25911 0.87204 0.0
H912 H 0.16219 0.46155 1.03646 0.0
H913 H 0.17816 0.61697 1.02571 0.0
H914 H 0.27655 0.6597 1.02893 0.0
H915 H 0.26672 0.51129 0.06302 0.0
H916 H 0.29009 0.46479 0.05852 0.0
H917 H 0.22095 0.44662 0.05555 0.0
H918 H 0.23084 0.4288 1.0297 0.0
H919 H 0.30012 0.44726 1.03257 0.0
H920 H 0.28305 0.48143 1.01942 0.0
H921 H 0.37603 0.68618 1.03303 0.0
H922 H 0.46417 0.69383 1.03846 0.0
H923 H 0.38519 0.52175 0.04673 0.0
C924 C 0.18616 0.50471 1.03489 0.0
C925 C 0.16125 0.53562 1.03088 0.0
C926 C 0.19518 0.59197 1.02886 0.0
C927 C 0.25158 0.61675 1.03063 0.0
C928 C 0.27464 0.58511 1.03445 0.0
C929 C 0.24282 0.53025 1.03664 0.0
C930 C 0.27773 0.50537 1.04071 0.0
C931 C 0.26299 0.48055 0.05532 0.0
C932 C 0.27261 0.46321 1.02996 0.0
C933 C 0.33409 0.55461 1.04049 0.0
C934 C 0.33141 0.60024 1.03681 0.0
C935 C 0.3782 0.65051 1.03592 0.0
C936 C 0.4285 0.65448 1.039 0.0
C937 C 0.43273 0.60861 1.043 0.0
C938 C 0.38424 0.55788 1.04363 0.0
H939 H 0.90462 0.3671 0.21929 0.0
H940 H 0.83056 0.45505 0.20167 0.0
H941 H 0.75041 0.36828 0.19542 0.0
H942 H 0.85454 0.26074 0.19283 0.0
H943 H 0.84546 0.20863 0.20496 0.0
H944 H 0.89657 0.27752 0.20802 0.0
H945 H 0.85564 0.27421 0.23218 0.0
H946 H 0.80409 0.2055 0.22914 0.0
H947 H 0.78578 0.25597 0.23352 0.0
H948 H 0.67408 0.26915 0.1924 0.0
H949 H 0.61553 0.17051 0.19031 0.0
H950 H 0.74103 0.14569 0.20818 0.0
C951 C 0.87178 0.36831 0.21401 0.0
C952 C 0.8746 0.41884 0.21101 0.0
C953 C 0.83025 0.41765 0.20404 0.0
C954 C 0.78413 0.3682 0.20051 0.0
C955 C 0.78248 0.31937 0.20379 0.0
C956 C 0.82572 0.31916 0.21016 0.0
C957 C 0.81452 0.26118 0.21219 0.0
C958 C 0.85519 0.25145 0.20401 0.0
C959 C 0.81505 0.24848 0.22768 0.0
C960 C 0.75805 0.22861 0.20612 0.0
C961 C 0.74004 0.26298 0.20147 0.0
C962 C 0.68844 0.24227 0.19587 0.0
C963 C 0.65512 0.18567 0.19473 0.0
C964 C 0.67299 0.14917 0.19891 0.0
C965 C 0.72549 0.1717 0.2048 0.0
H966 H 0.27619 0.63089 0.5468 0.0
H967 H 0.18094 0.50976 0.51608 0.0
H968 H 0.2428 0.47319 0.51727 0.0
H969 H 0.40808 0.6526 0.53609 0.0
H970 H 0.4335 0.65683 0.55343 0.0
H971 H 0.38331 0.67636 0.55009 0.0
H972 H 0.32237 0.60948 0.56878 0.0
H973 H 0.37183 0.58898 0.57212 0.0
H974 H 0.30417 0.53923 0.56757 0.0
H975 H 0.31542 0.44934 0.521 0.0
H976 H 0.38979 0.43499 0.52872 0.0
H977 H 0.4384 0.56569 0.55835 0.0
C978 C 0.26852 0.59679 0.54031 0.0
C979 C 0.22301 0.57354 0.53128 0.0
C980 C 0.21472 0.52847 0.52314 0.0
C981 C 0.25003 0.50734 0.52368 0.0
C982 C 0.29398 0.53067 0.53261 0.0
C983 C 0.30321 0.57393 0.54097 0.0
C984 C 0.3525 0.58898 0.55014 0.0
C985 C 0.39698 0.64716 0.54726 0.0
C986 C 0.33675 0.58121 0.56557 0.0
C987 C 0.36951 0.54805 0.54542 0.0
C988 C 0.3352 0.51522 0.5352 0.0
C989 C 0.34242 0.47474 0.52904 0.0
C990 C 0.38518 0.46696 0.53348 0.0
C991 C 0.4207 0.49897 0.54415 0.0
C992 C 0.41242 0.54034 0.55014 0.0
H993 H 0.74453 0.21147 0.69188 0.0
H994 H 0.65468 0.26957 0.71579 0.0
H995 H 0.74046 0.34754 0.72362 0.0
H996 H 0.85389 0.25041 0.71696 0.0
H997 H 0.90442 0.26851 0.70372 0.0
H998 H 0.83611 0.21716 0.70034 0.0
H999 H 0.83417 0.27015 0.67872 0.0
H1000 H 0.90227 0.32193 0.6821 0.0
H1001 H 0.84981 0.33946 0.68056 0.0
H1002 H 0.83874 0.42372 0.72782 0.0
H1003 H 0.93682 0.48427 0.72963 0.0
H1004 H 0.96366 0.37496 0.70378 0.0
C1005 C 0.74259 0.24018 0.69889 0.0
C1006 C 0.69187 0.23359 0.70319 0.0
C1007 C 0.69224 0.27276 0.71237 0.0
C1008 C 0.74111 0.31762 0.71682 0.0
C1009 C 0.7901 0.32317 0.71218 0.0
C1010 C 0.79106 0.28489 0.70356 0.0
C1011 C 0.84895 0.29973 0.70014 0.0
C1012 C 0.86158 0.25637 0.70562 0.0
C1013 C 0.8594 0.30832 0.68445 0.0
C1014 C 0.88069 0.35268 0.70802 0.0
C1015 C 0.84596 0.36573 0.71483 0.0
C1016 C 0.86591 0.4134 0.72254 0.0
C1017 C 0.92212 0.44799 0.72343 0.0
C1018 C 0.95898 0.43526 0.7168 0.0
C1019 C 0.93726 0.38652 0.70898 0.0
H1020 H 0.5241 0.91477 0.87404 0.0
H1021 H 0.69245 0.97315 0.88361 0.0
H1022 H 0.67841 0.8814 0.8813 0.0
H1023 H 0.46906 0.78546 0.89106 0.0
H1024 H 0.42129 0.74601 0.87782 0.0
H1025 H 0.441 0.81625 0.87983 0.0
H1026 H 0.4713 0.83683 0.85451 0.0
H1027 H 0.44958 0.76629 0.8519 0.0
H1028 H 0.5175 0.81664 0.84768 0.0
H1029 H 0.64843 0.78406 0.87856 0.0
H1030 H 0.60575 0.68725 0.87328 0.0
H1031 H 0.4558 0.68505 0.8642 0.0
C1032 C 0.55805 0.90827 0.87555 0.0
C1033 C 0.60976 0.95247 0.879 0.0
C1034 C 0.65265 0.94124 0.88087 0.0
C1035 C 0.64503 0.8887 0.87966 0.0
C1036 C 0.59418 0.84645 0.87637 0.0
C1037 C 0.55137 0.85533 0.87409 0.0
C1038 C 0.50171 0.80193 0.86996 0.0
C1039 C 0.45555 0.78652 0.8803 0.0
C1040 C 0.48397 0.80565 0.85513 0.0
C1041 C 0.52322 0.76199 0.87068 0.0
C1042 C 0.57679 0.78916 0.87442 0.0
C1043 C 0.6065 0.76243 0.8756 0.0
C1044 C 0.58162 0.70699 0.87259 0.0
C1045 C 0.52703 0.67745 0.86839 0.0
C1046 C 0.49723 0.70567 0.86761 0.0
H1047 H 0.72376 0.60972 1.03781 0.0
H1048 H 0.62233 0.47948 0.06577 0.0
H1049 H 0.68423 0.44233 0.06374 0.0
H1050 H 0.76046 0.53003 1.01518 0.0
H1051 H 0.82836 0.58395 1.01267 0.0
H1052 H 0.77535 0.59935 1.01612 0.0
H1053 H 0.82896 0.65795 1.03705 0.0
H1054 H 0.88192 0.64234 1.03374 0.0
H1055 H 0.85019 0.62858 0.05054 0.0
H1056 H 0.76064 0.41963 0.05888 0.0
H1057 H 0.8395 0.41247 0.05097 0.0
H1058 H 0.89158 0.55728 1.02622 0.0
C1059 C 0.71399 0.57298 1.0434 0.0
C1060 C 0.66709 0.5476 0.0519 0.0
C1061 C 0.65716 0.4999 0.0591 0.0
C1062 C 0.69249 0.47844 0.05805 0.0
C1063 C 0.73843 0.50475 0.04973 0.0
C1064 C 0.74901 0.55092 1.04247 0.0
C1065 C 0.80128 0.57173 1.03429 0.0
C1066 C 0.79072 0.57123 1.01864 0.0
C1067 C 0.84305 0.62852 1.0392 0.0
C1068 C 0.81853 0.53025 1.03805 0.0
C1069 C 0.78185 0.49194 0.04701 0.0
C1070 C 0.7894 0.44962 0.05186 0.0
C1071 C 0.83475 0.44594 0.04733 0.0
C1072 C 0.87281 0.48426 1.03798 0.0
C1073 C 0.86407 0.52717 1.03343 0.0
H1074 H 0.40619 0.80513 0.18694 0.0
H1075 H 0.4424 0.9141 0.22168 0.0
H1076 H 0.34873 0.85879 0.23012 0.0
H1077 H 0.27329 0.77505 0.18035 0.0
H1078 H 0.24653 0.70405 0.17699 0.0
H1079 H 0.31665 0.75052 0.17394 0.0
H1080 H 0.34292 0.69476 0.19015 0.0
H1081 H 0.27287 0.64783 0.19329 0.0
H1082 H 0.31747 0.68077 0.20766 0.0
H1083 H 0.24683 0.79692 0.23315 0.0
H1084 H 0.15082 0.72784 0.23266 0.0
H1085 H 0.18031 0.65049 0.19764 0.0
C1086 C 0.39469 0.8168 0.19649 0.0
C1087 C 0.43239 0.86442 0.20366 0.0
C1088 C 0.41514 0.87791 0.21606 0.0
C1089 C 0.36161 0.84671 0.22088 0.0
C1090 C 0.32536 0.80075 0.21344 0.0
C1091 C 0.34168 0.78488 0.20172 0.0
C1092 C 0.29503 0.73279 0.19589 0.0
C1093 C 0.28213 0.74112 0.1809 0.0
C1094 C 0.30783 0.68628 0.1968 0.0
C1095 C 0.24914 0.72312 0.20573 0.0
C1096 C 0.26769 0.76314 0.21574 0.0
C1097 C 0.23247 0.76512 0.22547 0.0
C1098 C 0.17755 0.7256 0.22505 0.0
C1099 C 0.15717 0.68316 0.21516 0.0
C1100 C 0.19414 0.68187 0.20544 0.0
H1101 H 0.65221 0.39922 0.37201 0.0
H1102 H 0.50034 0.37511 0.35549 0.0
H1103 H 0.46146 0.27758 0.35816 0.0
H1104 H 0.648 0.28078 0.35682 0.0
H1105 H 0.67362 0.26266 0.37179 0.0
H1106 H 0.69173 0.33218 0.36885 0.0
H1107 H 0.65654 0.33646 0.39318 0.0
H1108 H 0.63766 0.26683 0.39626 0.0
H1109 H 0.58831 0.28847 0.39787 0.0
H1110 H 0.43767 0.18173 0.36127 0.0
H1111 H 0.42766 0.09319 0.36708 0.0
H1112 H 0.59115 0.17164 0.38288 0.0
C1113 C 0.61063 0.37348 0.36911 0.0
C1114 C 0.57992 0.39637 0.36343 0.0
C1115 C 0.52555 0.36014 0.3598 0.0
C1116 C 0.50272 0.30395 0.36123 0.0
C1117 C 0.53389 0.28283 0.36652 0.0
C1118 C 0.5864 0.31616 0.37065 0.0
C1119 C 0.60956 0.28141 0.37643 0.0
C1120 C 0.65865 0.28977 0.36796 0.0
C1121 C 0.62389 0.29406 0.39185 0.0
C1122 C 0.56226 0.22387 0.37454 0.0
C1123 C 0.51927 0.22627 0.36876 0.0
C1124 C 0.47104 0.17943 0.36588 0.0
C1125 C 0.46582 0.12885 0.3692 0.0
C1126 C 0.50833 0.12412 0.37546 0.0
C1127 C 0.55766 0.17296 0.37803 0.0
H1128 H 0.20086 0.68779 0.4698 0.0
H1129 H 0.30498 0.77857 0.50391 0.0
H1130 H 0.37489 0.83792 0.48717 0.0
H1131 H 0.30428 0.69715 0.44595 0.0
H1132 H 0.27274 0.70665 0.43082 0.0
H1133 H 0.2323 0.66876 0.44541 0.0
H1134 H 0.19136 0.73206 0.44689 0.0
H1135 H 0.23147 0.77003 0.43228 0.0
H1136 H 0.23529 0.8039 0.44838 0.0
H1137 H 0.43383 0.88759 0.46673 0.0
H1138 H 0.47445 0.92933 0.44431 0.0
H1139 H 0.3304 0.81121 0.42303 0.0
C1140 C 0.23874 0.7197 0.47372 0.0
C1141 C 0.24779 0.72801 0.48821 0.0
C1142 C 0.29725 0.77119 0.4929 0.0
C1143 C 0.33727 0.80504 0.48346 0.0
C1144 C 0.32709 0.79601 0.46926 0.0
C1145 C 0.27878 0.75481 0.46439 0.0
C1146 C 0.2768 0.7563 0.44861 0.0
C1147 C 0.2712 0.70411 0.44233 0.0
C1148 C 0.23102 0.76617 0.44376 0.0
C1149 C 0.33163 0.80456 0.44537 0.0
C1150 C 0.36014 0.82634 0.45746 0.0
C1151 C 0.41179 0.87085 0.45721 0.0
C1152 C 0.43471 0.89419 0.44435 0.0
C1153 C 0.40604 0.87372 0.43177 0.0
C1154 C 0.35369 0.82796 0.43239 0.0
H1155 H 0.53416 0.29845 0.58831 0.0
H1156 H 0.6078 0.4603 0.60544 0.0
H1157 H 0.61274 0.4246 0.62837 0.0
H1158 H 0.4551 0.22824 0.61785 0.0
H1159 H 0.46615 0.17125 0.61634 0.0
H1160 H 0.46833 0.20906 0.60111 0.0
H1161 H 0.56402 0.22594 0.59545 0.0
H1162 H 0.56189 0.18771 0.61059 0.0
H1163 H 0.61604 0.2559 0.60841 0.0
H1164 H 0.60304 0.37034 0.65007 0.0
H1165 H 0.59109 0.30292 0.66807 0.0
H1166 H 0.53159 0.17755 0.63673 0.0
C1167 C 0.55188 0.3264 0.59685 0.0
C1168 C 0.57079 0.38233 0.59499 0.0
C1169 C 0.59361 0.41746 0.60649 0.0
C1170 C 0.59624 0.39749 0.61962 0.0
C1171 C 0.57673 0.34223 0.62116 0.0
C1172 C 0.55599 0.30725 0.61004 0.0
C1173 C 0.53926 0.2498 0.61448 0.0
C1174 C 0.47861 0.21239 0.61231 0.0
C1175 C 0.57228 0.2286 0.60678 0.0
C1176 C 0.55334 0.25798 0.62982 0.0
C1177 C 0.57411 0.31148 0.63351 0.0
C1178 C 0.58755 0.32845 0.64725 0.0
C1179 C 0.5804 0.28992 0.65742 0.0
C1180 C 0.56108 0.23527 0.65378 0.0
C1181 C 0.5473 0.21929 0.63978 0.0
H1182 H 0.31411 0.52043 0.82293 0.0
H1183 H 0.47439 0.59382 0.80524 0.0
H1184 H 0.43783 0.59803 0.78241 0.0
H1185 H 0.24258 0.44034 0.79351 0.0
H1186 H 0.18609 0.45173 0.79524 0.0
H1187 H 0.2243 0.45388 0.81033 0.0
H1188 H 0.24167 0.55016 0.816 0.0
H1189 H 0.20311 0.5481 0.80099 0.0
H1190 H 0.27117 0.60232 0.80299 0.0
H1191 H 0.38312 0.58824 0.76094 0.0
H1192 H 0.31551 0.57642 0.74315 0.0
H1193 H 0.19183 0.51751 0.77483 0.0
C1194 C 0.34149 0.53785 0.81427 0.0
C1195 C 0.39727 0.55702 0.81595 0.0
C1196 C 0.43169 0.57948 0.80432 0.0
C1197 C 0.41123 0.58168 0.79124 0.0
C1198 C 0.35618 0.56214 0.78989 0.0
C1199 C 0.32184 0.5416 0.80114 0.0
C1200 C 0.26452 0.52499 0.79688 0.0
C1201 C 0.22718 0.46412 0.79913 0.0
C1202 C 0.24392 0.5584 0.80468 0.0
C1203 C 0.27208 0.53901 0.78152 0.0
C1204 C 0.32515 0.55954 0.77766 0.0
C1205 C 0.34157 0.57292 0.76388 0.0
C1206 C 0.30292 0.56587 0.75383 0.0
C1207 C 0.2487 0.54675 0.75763 0.0
C1208 C 0.23325 0.5331 0.77167 0.0
H1209 H 0.79353 0.26786 0.92322 0.0
H1210 H 0.6514 0.14641 0.94462 0.0
H1211 H 0.69172 0.18769 0.96698 0.0
H1212 H 0.88999 0.27654 0.94843 0.0
H1213 H 0.93258 0.34863 0.94705 0.0
H1214 H 0.89268 0.31067 0.93243 0.0
H1215 H 0.84911 0.37176 0.93122 0.0
H1216 H 0.88908 0.41003 0.94581 0.0
H1217 H 0.81692 0.37975 0.94642 0.0
H1218 H 0.74878 0.2379 0.98733 0.0
H1219 H 0.81656 0.29848 1.00421 0.0
H1220 H 0.92116 0.39183 0.97032 0.0
C1221 C 0.77066 0.25026 0.93259 0.0
C1222 C 0.71886 0.20365 0.93199 0.0
C1223 C 0.69075 0.1821 0.94461 0.0
C1224 C 0.71346 0.2052 0.95746 0.0
C1225 C 0.76444 0.25053 0.9577 0.0
C1226 C 0.79261 0.27338 0.94562 0.0
C1227 C 0.84681 0.32246 0.94896 0.0
C1228 C 0.89326 0.31405 0.94392 0.0
C1229 C 0.85069 0.37406 0.94273 0.0
C1230 C 0.84467 0.32313 0.96476 0.0
C1231 C 0.79686 0.2809 0.96954 0.0
C1232 C 0.78614 0.27146 0.9837 0.0
C1233 C 0.82505 0.30606 0.99323 0.0
C1234 C 0.87412 0.35031 0.98867 0.0
C1235 C 0.88377 0.35888 0.97418 0.0
H1236 H 0.49935 0.83746 0.14544 0.0
H1237 H 0.66849 0.9187 0.15625 0.0
H1238 H 0.68745 0.87814 0.1359 0.0
H1239 H 0.49543 0.71183 0.1344 0.0
H1240 H 0.44801 0.69891 0.1206 0.0
H1241 H 0.44745 0.73545 0.1358 0.0
H1242 H 0.4582 0.81446 0.12025 0.0
H1243 H 0.45925 0.77834 0.10501 0.0
H1244 H 0.51391 0.84535 0.10832 0.0
H1245 H 0.68965 0.83434 0.1137 0.0
H1246 H 0.67366 0.77907 0.09272 0.0
H1247 H 0.5019 0.71635 0.097 0.0
C1248 C 0.54021 0.84627 0.14351 0.0
C1249 C 0.58257 0.88121 0.15244 0.0
C1250 C 0.63547 0.89166 0.14964 0.0
C1251 C 0.64668 0.86909 0.13805 0.0
C1252 C 0.60435 0.83502 0.12942 0.0
C1253 C 0.55196 0.82252 0.13214 0.0
C1254 C 0.5139 0.78239 0.12148 0.0
C1255 C 0.47382 0.72897 0.12849 0.0
C1256 C 0.48458 0.8066 0.11328 0.0
C1257 C 0.55323 0.77509 0.11227 0.0
C1258 C 0.60525 0.8067 0.11698 0.0
C1259 C 0.64904 0.80904 0.11 0.0
C1260 C 0.63956 0.77777 0.098 0.0
C1261 C 0.58663 0.74353 0.09316 0.0
C1262 C 0.54281 0.74208 0.10046 0.0
H1263 H 0.79229 0.61108 0.31518 0.0
H1264 H 0.71679 0.4417 0.32627 0.0
H1265 H 0.76445 0.42575 0.30698 0.0
H1266 H 0.77886 0.58938 0.27896 0.0
H1267 H 0.84185 0.64783 0.27445 0.0
H1268 H 0.80758 0.64768 0.29014 0.0
H1269 H 0.89252 0.66974 0.30449 0.0
H1270 H 0.92724 0.67025 0.28883 0.0
H1271 H 0.92234 0.62686 0.30305 0.0
H1272 H 0.81989 0.42793 0.28621 0.0
H1273 H 0.87389 0.44686 0.26473 0.0
H1274 H 0.90647 0.61268 0.26551 0.0
C1275 C 0.78715 0.57102 0.31376 0.0
C1276 C 0.75194 0.5278 0.32247 0.0
C1277 C 0.74432 0.47548 0.3199 0.0
C1278 C 0.77117 0.46606 0.30895 0.0
C1279 C 0.80487 0.5092 0.3004 0.0
C1280 C 0.81274 0.56065 0.30262 0.0
C1281 C 0.8477 0.59893 0.29123 0.0
C1282 C 0.81716 0.62231 0.28322 0.0
C1283 C 0.90058 0.64412 0.29726 0.0
C1284 C 0.85774 0.56089 0.28221 0.0
C1285 C 0.83353 0.50955 0.28785 0.0
C1286 C 0.83868 0.46791 0.28167 0.0
C1287 C 0.8694 0.47895 0.26947 0.0
C1288 C 0.89359 0.53086 0.26332 0.0
C1289 C 0.88744 0.57225 0.2698 0.0
H1290 H 0.91783 0.46133 0.44069 0.0
H1291 H 1.05725 0.45761 0.42475 0.0
H1292 H 1.00589 0.40858 0.40406 0.0
H1293 H 0.83605 0.34043 0.43714 0.0
H1294 H 0.77638 0.34201 0.43171 0.0
H1295 H 0.82737 0.39775 0.44106 0.0
H1296 H 0.83577 0.46317 0.42132 0.0
H1297 H 0.78363 0.40719 0.41186 0.0
H1298 H 0.84774 0.44986 0.40378 0.0
H1299 H 0.93574 0.33383 0.39108 0.0
H1300 H 0.85614 0.24519 0.38682 0.0
H1301 H 0.75923 0.29286 0.41127 0.0
C1302 C 0.93798 0.45289 0.43234 0.0
C1303 C 0.99098 0.46286 0.43415 0.0
C1304 C 1.01675 0.45081 0.42337 0.0
C1305 C 0.98771 0.42293 0.41158 0.0
C1306 C 0.93337 0.40824 0.41072 0.0
C1307 C 0.90903 0.4243 0.42067 0.0
C1308 C 0.84839 0.39354 0.41928 0.0
C1309 C 0.82054 0.36682 0.4331 0.0
C1310 C 0.82767 0.43065 0.41373 0.0
C1311 C 0.84221 0.35232 0.40849 0.0
C1312 C 0.89152 0.36325 0.40311 0.0
C1313 C 0.89683 0.32586 0.39484 0.0
C1314 C 0.85149 0.27528 0.39261 0.0
C1315 C 0.80164 0.26222 0.39879 0.0
C1316 C 0.79654 0.30232 0.40614 0.0
H1317 H 0.53315 0.91269 0.60412 0.0
H1318 H 0.46002 0.84058 0.64352 0.0
H1319 H 0.39951 0.75627 0.63172 0.0
H1320 H 0.39302 0.81284 0.58284 0.0
H1321 H 0.43443 0.81529 0.56845 0.0
H1322 H 0.45245 0.87526 0.57853 0.0
H1323 H 0.54639 0.88631 0.58285 0.0
H1324 H 0.52908 0.82735 0.57291 0.0
H1325 H 0.55212 0.83138 0.59055 0.0
H1326 H 0.38034 0.67765 0.61902 0.0
H1327 H 0.41322 0.62175 0.60848 0.0
H1328 H 0.48217 0.73561 0.57469 0.0
C1329 C 0.50245 0.88011 0.61015 0.0
C1330 C 0.50256 0.88296 0.62476 0.0
C1331 C 0.46249 0.83896 0.63234 0.0
C1332 C 0.4266 0.79118 0.62565 0.0
C1333 C 0.42987 0.78819 0.61128 0.0
C1334 C 0.4655 0.83247 0.60351 0.0
C1335 C 0.46895 0.81618 0.58878 0.0
C1336 C 0.43518 0.83073 0.57908 0.0
C1337 C 0.5276 0.84169 0.58352 0.0
C1338 C 0.44225 0.75552 0.59067 0.0
C1339 C 0.41531 0.7398 0.60329 0.0
C1340 C 0.39974 0.68904 0.60899 0.0
C1341 C 0.41878 0.65717 0.60289 0.0
C1342 C 0.45218 0.67596 0.59106 0.0
C1343 C 0.4579 0.72183 0.58399 0.0
H1344 H 0.73079 0.45176 0.82988 0.0
H1345 H 0.62663 0.40036 0.79408 0.0
H1346 H 0.68117 0.36615 0.78336 0.0
H1347 H 0.82986 0.5233 0.81662 0.0
H1348 H 0.88124 0.51199 0.82426 0.0
H1349 H 0.82073 0.49259 0.83356 0.0
H1350 H 0.8044 0.39501 0.8355 0.0
H1351 H 0.86599 0.41498 0.82608 0.0
H1352 H 0.80398 0.35878 0.82014 0.0
H1353 H 0.76165 0.38289 0.77176 0.0
H1354 H 0.84905 0.44456 0.76165 0.0
H1355 H 0.91046 0.50709 0.80267 0.0
C1356 C 0.71865 0.43077 0.82007 0.0
C1357 C 0.67629 0.43056 0.81257 0.0
C1358 C 0.6594 0.40155 0.80001 0.0
C1359 C 0.69044 0.38172 0.79383 0.0
C1360 C 0.73863 0.3923 0.80019 0.0
C1361 C 0.75185 0.41452 0.81344 0.0
C1362 C 0.81156 0.43848 0.81616 0.0
C1363 C 0.83722 0.49495 0.82299 0.0
C1364 C 0.82207 0.39948 0.82498 0.0
C1365 C 0.83071 0.44005 0.80147 0.0
C1366 C 0.78836 0.40748 0.79284 0.0
C1367 C 0.79499 0.40789 0.77851 0.0
C1368 C 0.84463 0.44471 0.77279 0.0
C1369 C 0.88659 0.48284 0.7813 0.0
C1370 C 0.87985 0.47848 0.79583 0.0
H1371 H 0.36368 0.7729 0.91631 0.0
H1372 H 0.27741 0.81881 0.88734 0.0
H1373 H 0.19529 0.7322 0.89141 0.0
H1374 H 0.26848 0.61217 0.91052 0.0
H1375 H 0.27701 0.60287 0.92864 0.0
H1376 H 0.33239 0.65387 0.91879 0.0
H1377 H 0.34225 0.72556 0.93683 0.0
H1378 H 0.28715 0.67539 0.9465 0.0
H1379 H 0.28518 0.73459 0.94053 0.0
H1380 H 0.12036 0.66358 0.90461 0.0
H1381 H 0.06337 0.62228 0.9252 0.0
H1382 H 0.1955 0.61813 0.94579 0.0
C1383 C 0.32838 0.76313 0.91017 0.0
C1384 C 0.32662 0.80262 0.90167 0.0
C1385 C 0.27937 0.78929 0.89407 0.0
C1386 C 0.23264 0.73976 0.89619 0.0
C1387 C 0.23407 0.70352 0.90572 0.0
C1388 C 0.28142 0.7139 0.91229 0.0
C1389 C 0.27059 0.675 0.92418 0.0
C1390 C 0.28813 0.63352 0.92029 0.0
C1391 C 0.2978 0.70447 0.93779 0.0
C1392 C 0.20998 0.64841 0.92486 0.0
C1393 C 0.18929 0.66237 0.91357 0.0
C1394 C 0.13567 0.65062 0.91321 0.0
C1395 C 0.1035 0.62732 0.92495 0.0
C1396 C 0.1256 0.61719 0.93691 0.0
C1397 C 0.17811 0.62484 0.93655 0.0
H1398 H 0.55609 0.27546 0.15928 0.0
H1399 H 0.40624 0.2003 0.18224 0.0
H1400 H 0.39975 0.28315 0.1797 0.0
H1401 H 0.60197 0.42254 0.17147 0.0
H1402 H 0.63013 0.44736 0.15454 0.0
H1403 H 0.63161 0.38956 0.16178 0.0
H1404 H 0.58346 0.33391 0.13988 0.0
H1405 H 0.58201 0.39115 0.13267 0.0
H1406 H 0.52019 0.32825 0.1347 0.0
H1407 H 0.39613 0.36022 0.16927 0.0
H1408 H 0.39615 0.42395 0.15185 0.0
H1409 H 0.55097 0.45308 0.13685 0.0
C1410 C 0.52335 0.27739 0.16439 0.0
C1411 C 0.48161 0.23139 0.1709 0.0
C1412 C 0.43839 0.23486 0.17704 0.0
C1413 C 0.43478 0.28208 0.17583 0.0
C1414 C 0.47528 0.3259 0.16871 0.0
C1415 C 0.51942 0.32433 0.16332 0.0
C1416 C 0.55269 0.37273 0.15417 0.0
C1417 C 0.60733 0.41028 0.1609 0.0
C1418 C 0.55988 0.35542 0.1395 0.0
C1419 C 0.51737 0.39862 0.15406 0.0
C1420 C 0.47388 0.37219 0.16291 0.0
C1421 C 0.43093 0.38259 0.1627 0.0
C1422 C 0.4311 0.41869 0.15276 0.0
C1423 C 0.47391 0.44373 0.14319 0.0
C1424 C 0.51875 0.43584 0.14439 0.0
H1425 H 0.47619 0.51377 0.25365 0.0
H1426 H 0.542 0.66715 0.275 0.0
H1427 H 0.49937 0.69839 0.25808 0.0
H1428 H 0.4661 0.57315 0.21631 0.0
H1429 H 0.40472 0.51083 0.21328 0.0
H1430 H 0.4598 0.51021 0.22229 0.0
H1431 H 0.39597 0.45901 0.24265 0.0
H1432 H 0.34146 0.46006 0.23393 0.0
H1433 H 0.35989 0.4882 0.25113 0.0
H1434 H 0.42452 0.6982 0.24661 0.0
H1435 H 0.32983 0.6673 0.24173 0.0
H1436 H 0.31124 0.51693 0.22558 0.0
C1437 C 0.48443 0.55514 0.2542 0.0
C1438 C 0.51207 0.58771 0.26567 0.0
C1439 C 0.5207 0.64112 0.26635 0.0
C1440 C 0.49698 0.65952 0.25665 0.0
C1441 C 0.46526 0.62438 0.24621 0.0
C1442 C 0.46035 0.57368 0.24463 0.0
C1443 C 0.41513 0.53925 0.23473 0.0
C1444 C 0.4378 0.53303 0.22083 0.0
C1445 C 0.37584 0.48349 0.24102 0.0
C1446 C 0.38961 0.57465 0.23306 0.0
C1447 C 0.4209 0.62489 0.23904 0.0
C1448 C 0.40068 0.65999 0.2414 0.0
C1449 C 0.34642 0.64196 0.23858 0.0
C1450 C 0.31289 0.58915 0.23347 0.0
C1451 C 0.33601 0.55718 0.22965 0.0
loop_
_geom_bond_atom_site_label_1
_geom_bond_atom_site_label_2
_geom_bond_distance
_geom_bond_site_symmetry_2
_ccdc_geom_bond_type
Eu0 C9 2.828 . S
Eu0 O11 2.392 1_545 S
Eu0 O13 2.418 1_545 S
Eu0 O18 2.373 . S
Eu0 O21 2.488 . S
Eu0 O22 2.471 . S
Eu0 O23 2.349 . S
Eu1 O10 2.373 . S
Eu1 O14 2.488 . S
Eu1 O15 2.471 . S
Eu1 O16 2.349 . S
Eu1 O19 2.392 1_565 S
Eu1 O20 2.418 1_565 S
Eu1 C30 2.828 . S
C2 O20 1.244 . S
C2 O23 1.265 . S
C3 C4 1.379 . S
C3 C7 1.373 . S
C3 C9 1.505 . S
C4 C3 1.379 . S
C4 C6 1.369 . S
C4 H32 0.930 . S
C5 C7 1.383 . S
C5 C8 1.382 . S
C5 H33 0.930 . S
C6 C4 1.369 . S
C6 C8 1.392 . S
C6 H34 0.930 . S
C7 C3 1.373 . S
C7 C5 1.383 . S
C7 H35 0.931 . S
C8 C5 1.382 . S
C8 C6 1.392 . S
C9 Eu0 2.828 . S
C9 C3 1.505 . S
C9 O21 1.249 . S
C9 O22 1.244 . S
O10 Eu1 2.373 . S
O10 C12 1.258 . S
O11 Eu0 2.392 1_565 S
O11 C12 1.242 . S
C12 O10 1.258 . S
C12 O11 1.242 . S
O13 Eu0 2.418 1_565 S
O13 C17 1.244 . S
O14 Eu1 2.488 . S
O14 C30 1.249 . S
O15 Eu1 2.471 . S
O15 C30 1.244 . S
O16 Eu1 2.349 . S
O16 C17 1.265 . S
C17 O13 1.244 . S
C17 O16 1.265 . S
O18 Eu0 2.373 . S
O18 C31 1.258 . S
O19 Eu1 2.392 1_545 S
O19 C31 1.242 . S
O20 Eu1 2.418 1_545 S
O20 C2 1.244 . S
O21 Eu0 2.488 . S
O21 C9 1.249 . S
O22 Eu0 2.471 . S
O22 C9 1.244 . S
O23 Eu0 2.349 . S
O23 C2 1.265 . S
C24 C25 1.379 . S
C24 C28 1.373 . S
C24 C30 1.505 . S
C25 C24 1.379 . S
C25 C27 1.369 . S
C25 H36 0.930 . S
C26 C28 1.383 . S
C26 C29 1.382 . S
C26 H37 0.930 . S
C27 C25 1.369 . S
C27 C29 1.392 . S
C27 H38 0.930 . S
C28 C24 1.373 . S
C28 C26 1.383 . S
C28 H39 0.931 . S
C29 C26 1.382 . S
C29 C27 1.392 . S
C30 Eu1 2.828 . S
C30 O14 1.249 . S
C30 O15 1.244 . S
C30 C24 1.505 . S
C31 O18 1.258 . S
C31 O19 1.242 . S
H32 C4 0.930 . S
H33 C5 0.930 . S
H34 C6 0.930 . S
H35 C7 0.931 . S
H36 C25 0.930 . S
H37 C26 0.930 . S
H38 C27 0.930 . S
H39 C28 0.931 . S
Eu40 C49 2.828 . S
Eu40 O51 2.392 . S
Eu40 O53 2.418 . S
Eu40 O58 2.373 . S
Eu40 O61 2.488 . S
Eu40 O62 2.471 . S
Eu40 O63 2.349 . S
Eu41 O50 2.373 . S
Eu41 O54 2.488 . S
Eu41 O55 2.471 . S
Eu41 O56 2.349 . S
Eu41 O59 2.392 . S
Eu41 O60 2.418 . S
Eu41 C70 2.828 . S
C42 O60 1.244 . S
C42 O63 1.265 . S
C43 C44 1.379 . S
C43 C47 1.373 . S
C43 C49 1.505 . S
C44 C43 1.379 . S
C44 C46 1.369 . S
C44 H72 0.930 . S
C45 C47 1.383 . S
C45 C48 1.382 . S
C45 H73 0.930 . S
C46 C44 1.369 . S
C46 C48 1.392 . S
C46 H74 0.930 . S
C47 C43 1.373 . S
C47 C45 1.383 . S
C47 H75 0.931 . S
C48 C45 1.382 . S
C48 C46 1.392 . S
C49 Eu40 2.828 . S
C49 C43 1.505 . S
C49 O61 1.249 . S
C49 O62 1.244 . S
O50 Eu41 2.373 . S
O50 C52 1.258 . S
O51 Eu40 2.392 . S
O51 C52 1.242 . S
C52 O50 1.258 . S
C52 O51 1.242 . S
O53 Eu40 2.418 . S
O53 C57 1.244 . S
O54 Eu41 2.488 . S
O54 C70 1.249 . S
O55 Eu41 2.471 . S
O55 C70 1.244 . S
O56 Eu41 2.349 . S
O56 C57 1.265 . S
C57 O53 1.244 . S
C57 O56 1.265 . S
O58 Eu40 2.373 . S
O58 C71 1.258 . S
O59 Eu41 2.392 . S
O59 C71 1.242 . S
O60 Eu41 2.418 . S
O60 C42 1.244 . S
O61 Eu40 2.488 . S
O61 C49 1.249 . S
O62 Eu40 2.471 . S
O62 C49 1.244 . S
O63 Eu40 2.349 . S
O63 C42 1.265 . S
C64 C65 1.379 . S
C64 C68 1.373 . S
C64 C70 1.505 . S
C65 C64 1.379 . S
C65 C67 1.369 . S
C65 H76 0.930 . S
C66 C68 1.383 . S
C66 C69 1.382 . S
C66 H77 0.930 . S
C67 C65 1.369 . S
C67 C69 1.392 . S
C67 H78 0.930 . S
C68 C64 1.373 . S
C68 C66 1.383 . S
C68 H79 0.931 . S
C69 C66 1.382 . S
C69 C67 1.392 . S
C70 Eu41 2.828 . S
C70 O54 1.249 . S
C70 O55 1.244 . S
C70 C64 1.505 . S
C71 O58 1.258 . S
C71 O59 1.242 . S
H72 C44 0.930 . S
H73 C45 0.930 . S
H74 C46 0.930 . S
H75 C47 0.931 . S
H76 C65 0.930 . S
H77 C66 0.930 . S
H78 C67 0.930 . S
H79 C68 0.931 . S
Eu80 C89 2.828 . S
Eu80 O91 2.392 1_655 S
Eu80 O93 2.418 1_655 S
Eu80 O98 2.373 . S
Eu80 O101 2.488 . S
Eu80 O102 2.471 . S
Eu80 O103 2.349 . S
Eu81 O90 2.373 . S
Eu81 O94 2.488 . S
Eu81 O95 2.471 . S
Eu81 O96 2.349 . S
Eu81 O99 2.392 1_455 S
Eu81 O100 2.418 1_455 S
Eu81 C110 2.828 . S
C82 O100 1.244 . S
C82 O103 1.265 . S
C83 C84 1.379 . S
C83 C87 1.373 . S
C83 C89 1.505 . S
C84 C83 1.379 . S
C84 C86 1.369 . S
C84 H112 0.930 . S
C85 C87 1.383 . S
C85 C88 1.382 . S
C85 H113 0.930 . S
C86 C84 1.369 . S
C86 C88 1.392 . S
C86 H114 0.930 . S
C87 C83 1.373 . S
C87 C85 1.383 . S
C87 H115 0.931 . S
C88 C85 1.382 . S
C88 C86 1.392 . S
C89 Eu80 2.828 . S
C89 C83 1.505 . S
C89 O101 1.249 . S
C89 O102 1.244 . S
O90 Eu81 2.373 . S
O90 C92 1.258 . S
O91 Eu80 2.392 1_455 S
O91 C92 1.242 . S
C92 O90 1.258 . S
C92 O91 1.242 . S
O93 Eu80 2.418 1_455 S
O93 C97 1.244 . S
O94 Eu81 2.488 . S
O94 C110 1.249 . S
O95 Eu81 2.471 . S
O95 C110 1.244 . S
O96 Eu81 2.349 . S
O96 C97 1.265 . S
C97 O93 1.244 . S
C97 O96 1.265 . S
O98 Eu80 2.373 . S
O98 C111 1.258 . S
O99 Eu81 2.392 1_655 S
O99 C111 1.242 . S
O100 Eu81 2.418 1_655 S
O100 C82 1.244 . S
O101 Eu80 2.488 . S
O101 C89 1.249 . S
O102 Eu80 2.471 . S
O102 C89 1.244 . S
O103 Eu80 2.349 . S
O103 C82 1.265 . S
C104 C105 1.379 . S
C104 C108 1.373 . S
C104 C110 1.505 . S
C105 C104 1.379 . S
C105 C107 1.369 . S
C105 H116 0.930 . S
C106 C108 1.383 . S
C106 C109 1.382 . S
C106 H117 0.930 . S
C107 C105 1.369 . S
C107 C109 1.392 . S
C107 H118 0.930 . S
C108 C104 1.373 . S
C108 C106 1.383 . S
C108 H119 0.931 . S
C109 C106 1.382 . S
C109 C107 1.392 . S
C110 Eu81 2.828 . S
C110 O94 1.249 . S
C110 O95 1.244 . S
C110 C104 1.505 . S
C111 O98 1.258 . S
C111 O99 1.242 . S
H112 C84 0.930 . S
H113 C85 0.930 . S
H114 C86 0.930 . S
H115 C87 0.931 . S
H116 C105 0.930 . S
H117 C106 0.930 . S
H118 C107 0.930 . S
H119 C108 0.931 . S
Eu120 C129 2.828 . S
Eu120 O131 2.392 1_565 S
Eu120 O133 2.418 1_565 S
Eu120 O138 2.373 . S
Eu120 O141 2.488 . S
Eu120 O142 2.471 . S
Eu120 O143 2.349 . S
Eu121 O130 2.373 . S
Eu121 O134 2.488 . S
Eu121 O135 2.471 . S
Eu121 O136 2.349 . S
Eu121 O139 2.392 1_545 S
Eu121 O140 2.418 1_545 S
Eu121 C150 2.828 . S
C122 O140 1.244 . S
C122 O143 1.265 . S
C123 C124 1.379 . S
C123 C127 1.373 . S
C123 C129 1.505 . S
C124 C123 1.379 . S
C124 C126 1.369 . S
C124 H152 0.930 . S
C125 C127 1.383 . S
C125 C128 1.382 . S
C125 H153 0.930 . S
C126 C124 1.369 . S
C126 C128 1.392 . S
C126 H154 0.930 . S
C127 C123 1.373 . S
C127 C125 1.383 . S
C127 H155 0.931 . S
C128 C125 1.382 . S
C128 C126 1.392 . S
C129 Eu120 2.828 . S
C129 C123 1.505 . S
C129 O141 1.249 . S
C129 O142 1.244 . S
O130 Eu121 2.373 . S
O130 C132 1.258 . S
O131 Eu120 2.392 1_545 S
O131 C132 1.242 . S
C132 O130 1.258 . S
C132 O131 1.242 . S
O133 Eu120 2.418 1_545 S
O133 C137 1.244 . S
O134 Eu121 2.488 . S
O134 C150 1.249 . S
O135 Eu121 2.471 . S
O135 C150 1.244 . S
O136 Eu121 2.349 . S
O136 C137 1.265 . S
C137 O133 1.244 . S
C137 O136 1.265 . S
O138 Eu120 2.373 . S
O138 C151 1.258 . S
O139 Eu121 2.392 1_565 S
O139 C151 1.242 . S
O140 Eu121 2.418 1_565 S
O140 C122 1.244 . S
O141 Eu120 2.488 . S
O141 C129 1.249 . S
O142 Eu120 2.471 . S
O142 C129 1.244 . S
O143 Eu120 2.349 . S
O143 C122 1.265 . S
C144 C145 1.379 . S
C144 C148 1.373 . S
C144 C150 1.505 . S
C145 C144 1.379 . S
C145 C147 1.369 . S
C145 H156 0.930 . S
C146 C148 1.383 . S
C146 C149 1.382 . S
C146 H157 0.930 . S
C147 C145 1.369 . S
C147 C149 1.392 . S
C147 H158 0.930 . S
C148 C144 1.373 . S
C148 C146 1.383 . S
C148 H159 0.931 . S
C149 C146 1.382 . S
C149 C147 1.392 . S
C150 Eu121 2.828 . S
C150 O134 1.249 . S
C150 O135 1.244 . S
C150 C144 1.505 . S
C151 O138 1.258 . S
C151 O139 1.242 . S
H152 C124 0.930 . S
H153 C125 0.930 . S
H154 C126 0.930 . S
H155 C127 0.931 . S
H156 C145 0.930 . S
H157 C146 0.930 . S
H158 C147 0.930 . S
H159 C148 0.931 . S
Eu160 C169 2.828 . S
Eu160 O171 2.392 . S
Eu160 O173 2.418 . S
Eu160 O178 2.373 . S
Eu160 O181 2.488 . S
Eu160 O182 2.471 . S
Eu160 O183 2.349 . S
Eu161 O170 2.373 . S
Eu161 O174 2.488 1_554 S
Eu161 O175 2.471 . S
Eu161 O176 2.349 . S
Eu161 O179 2.392 . S
Eu161 O180 2.418 . S
Eu161 C190 2.828 1_554 S
C162 O180 1.244 . S
C162 O183 1.265 . S
C163 C164 1.379 . S
C163 C167 1.373 . S
C163 C169 1.505 . S
C164 C163 1.379 . S
C164 C166 1.369 . S
C164 H192 0.930 . S
C165 C167 1.383 . S
C165 C168 1.382 . S
C165 H193 0.930 . S
C166 C164 1.369 . S
C166 C168 1.392 . S
C166 H194 0.930 . S
C167 C163 1.373 . S
C167 C165 1.383 . S
C167 H195 0.931 . S
C168 C165 1.382 . S
C168 C166 1.392 . S
C169 Eu160 2.828 . S
C169 C163 1.505 . S
C169 O181 1.249 . S
C169 O182 1.244 . S
O170 Eu161 2.373 . S
O170 C172 1.258 . S
O171 Eu160 2.392 . S
O171 C172 1.242 . S
C172 O170 1.258 . S
C172 O171 1.242 . S
O173 Eu160 2.418 . S
O173 C177 1.244 . S
O174 Eu161 2.488 1_556 S
O174 C190 1.249 . S
O175 Eu161 2.471 . S
O175 C190 1.244 1_554 S
O176 Eu161 2.349 . S
O176 C177 1.265 . S
C177 O173 1.244 . S
C177 O176 1.265 . S
O178 Eu160 2.373 . S
O178 C191 1.258 . S
O179 Eu161 2.392 . S
O179 C191 1.242 . S
O180 Eu161 2.418 . S
O180 C162 1.244 . S
O181 Eu160 2.488 . S
O181 C169 1.249 . S
O182 Eu160 2.471 . S
O182 C169 1.244 . S
O183 Eu160 2.349 . S
O183 C162 1.265 . S
C184 C185 1.379 . S
C184 C188 1.373 . S
C184 C190 1.505 . S
C185 C184 1.379 . S
C185 C187 1.369 . S
C185 H196 0.930 . S
C186 C188 1.383 . S
C186 C189 1.382 . S
C186 H197 0.930 . S
C187 C185 1.369 . S
C187 C189 1.392 . S
C187 H198 0.930 . S
C188 C184 1.373 . S
C188 C186 1.383 . S
C188 H199 0.931 . S
C189 C186 1.382 . S
C189 C187 1.392 . S
C190 Eu161 2.828 1_556 S
C190 O174 1.249 . S
C190 O175 1.244 1_556 S
C190 C184 1.505 . S
C191 O178 1.258 . S
C191 O179 1.242 . S
H192 C164 0.930 . S
H193 C165 0.930 . S
H194 C166 0.930 . S
H195 C167 0.931 . S
H196 C185 0.930 . S
H197 C186 0.930 . S
H198 C187 0.930 . S
H199 C188 0.931 . S
Eu200 C209 2.828 . S
Eu200 O211 2.392 1_455 S
Eu200 O213 2.418 1_455 S
Eu200 O218 2.373 . S
Eu200 O221 2.488 . S
Eu200 O222 2.471 . S
Eu200 O223 2.349 . S
Eu201 O210 2.373 . S
Eu201 O214 2.488 . S
Eu201 O215 2.471 . S
Eu201 O216 2.349 . S
Eu201 O219 2.392 1_655 S
Eu201 O220 2.418 1_655 S
Eu201 C230 2.828 . S
C202 O220 1.244 . S
C202 O223 1.265 . S
C203 C204 1.379 . S
C203 C207 1.373 . S
C203 C209 1.505 . S
C204 C203 1.379 . S
C204 C206 1.369 . S
C204 H232 0.930 . S
C205 C207 1.383 . S
C205 C208 1.382 . S
C205 H233 0.930 . S
C206 C204 1.369 . S
C206 C208 1.392 . S
C206 H234 0.930 . S
C207 C203 1.373 . S
C207 C205 1.383 . S
C207 H235 0.931 . S
C208 C205 1.382 . S
C208 C206 1.392 . S
C209 Eu200 2.828 . S
C209 C203 1.505 . S
C209 O221 1.249 . S
C209 O222 1.244 . S
O210 Eu201 2.373 . S
O210 C212 1.258 . S
O211 Eu200 2.392 1_655 S
O211 C212 1.242 . S
C212 O210 1.258 . S
C212 O211 1.242 . S
O213 Eu200 2.418 1_655 S
O213 C217 1.244 . S
O214 Eu201 2.488 . S
O214 C230 1.249 . S
O215 Eu201 2.471 . S
O215 C230 1.244 . S
O216 Eu201 2.349 . S
O216 C217 1.265 . S
C217 O213 1.244 . S
C217 O216 1.265 . S
O218 Eu200 2.373 . S
O218 C231 1.258 . S
O219 Eu201 2.392 1_455 S
O219 C231 1.242 . S
O220 Eu201 2.418 1_455 S
O220 C202 1.244 . S
O221 Eu200 2.488 . S
O221 C209 1.249 . S
O222 Eu200 2.471 . S
O222 C209 1.244 . S
O223 Eu200 2.349 . S
O223 C202 1.265 . S
C224 C225 1.379 . S
C224 C228 1.373 . S
C224 C230 1.505 . S
C225 C224 1.379 . S
C225 C227 1.369 . S
C225 H236 0.930 . S
C226 C228 1.383 . S
C226 C229 1.382 . S
C226 H237 0.930 . S
C227 C225 1.369 . S
C227 C229 1.392 . S
C227 H238 0.930 . S
C228 C224 1.373 . S
C228 C226 1.383 . S
C228 H239 0.931 . S
C229 C226 1.382 . S
C229 C227 1.392 . S
C230 Eu201 2.828 . S
C230 O214 1.249 . S
C230 O215 1.244 . S
C230 C224 1.505 . S
C231 O218 1.258 . S
C231 O219 1.242 . S
H232 C204 0.930 . S
H233 C205 0.930 . S
H234 C206 0.930 . S
H235 C207 0.931 . S
H236 C225 0.930 . S
H237 C226 0.930 . S
H238 C227 0.930 . S
H239 C228 0.931 . S
Eu240 C249 2.828 . S
Eu240 O251 2.392 1_655 S
Eu240 O253 2.418 1_655 S
Eu240 O258 2.373 . S
Eu240 O261 2.488 . S
Eu240 O262 2.471 . S
Eu240 O263 2.349 . S
Eu241 O250 2.373 . S
Eu241 O254 2.488 . S
Eu241 O255 2.471 . S
Eu241 O256 2.349 . S
Eu241 O259 2.392 1_455 S
Eu241 O260 2.418 1_455 S
Eu241 C270 2.828 . S
C242 O260 1.244 . S
C242 O263 1.265 . S
C243 C244 1.379 . S
C243 C247 1.373 . S
C243 C249 1.505 . S
C244 C243 1.379 . S
C244 C246 1.369 . S
C244 H272 0.930 . S
C245 C247 1.383 . S
C245 C248 1.382 . S
C245 H273 0.930 . S
C246 C244 1.369 . S
C246 C248 1.392 . S
C246 H274 0.930 . S
C247 C243 1.373 . S
C247 C245 1.383 . S
C247 H275 0.931 . S
C248 C245 1.382 . S
C248 C246 1.392 . S
C249 Eu240 2.828 . S
C249 C243 1.505 . S
C249 O261 1.249 . S
C249 O262 1.244 . S
O250 Eu241 2.373 . S
O250 C252 1.258 . S
O251 Eu240 2.392 1_455 S
O251 C252 1.242 . S
C252 O250 1.258 . S
C252 O251 1.242 . S
O253 Eu240 2.418 1_455 S
O253 C257 1.244 . S
O254 Eu241 2.488 . S
O254 C270 1.249 . S
O255 Eu241 2.471 . S
O255 C270 1.244 . S
O256 Eu241 2.349 . S
O256 C257 1.265 . S
C257 O253 1.244 . S
C257 O256 1.265 . S
O258 Eu240 2.373 . S
O258 C271 1.258 . S
O259 Eu241 2.392 1_655 S
O259 C271 1.242 . S
O260 Eu241 2.418 1_655 S
O260 C242 1.244 . S
O261 Eu240 2.488 . S
O261 C249 1.249 . S
O262 Eu240 2.471 . S
O262 C249 1.244 . S
O263 Eu240 2.349 . S
O263 C242 1.265 . S
C264 C265 1.379 . S
C264 C268 1.373 . S
C264 C270 1.505 . S
C265 C264 1.379 . S
C265 C267 1.369 . S
C265 H276 0.930 . S
C266 C268 1.383 . S
C266 C269 1.382 . S
C266 H277 0.930 . S
C267 C265 1.369 . S
C267 C269 1.392 . S
C267 H278 0.930 . S
C268 C264 1.373 . S
C268 C266 1.383 . S
C268 H279 0.931 . S
C269 C266 1.382 . S
C269 C267 1.392 . S
C270 Eu241 2.828 . S
C270 O254 1.249 . S
C270 O255 1.244 . S
C270 C264 1.505 . S
C271 O258 1.258 . S
C271 O259 1.242 . S
H272 C244 0.930 . S
H273 C245 0.930 . S
H274 C246 0.930 . S
H275 C247 0.931 . S
H276 C265 0.930 . S
H277 C266 0.930 . S
H278 C267 0.930 . S
H279 C268 0.931 . S
Eu280 C289 2.828 . S
Eu280 O291 2.392 1_565 S
Eu280 O293 2.418 1_565 S
Eu280 O298 2.373 . S
Eu280 O301 2.488 . S
Eu280 O302 2.471 . S
Eu280 O303 2.349 . S
Eu281 O290 2.373 . S
Eu281 O294 2.488 . S
Eu281 O295 2.471 . S
Eu281 O296 2.349 . S
Eu281 O299 2.392 1_545 S
Eu281 O300 2.418 1_545 S
Eu281 C310 2.828 . S
C282 O300 1.244 . S
C282 O303 1.265 . S
C283 C284 1.379 . S
C283 C287 1.373 . S
C283 C289 1.505 . S
C284 C283 1.379 . S
C284 C286 1.369 . S
C284 H312 0.930 . S
C285 C287 1.383 . S
C285 C288 1.382 . S
C285 H313 0.930 . S
C286 C284 1.369 . S
C286 C288 1.392 . S
C286 H314 0.930 . S
C287 C283 1.373 . S
C287 C285 1.383 . S
C287 H315 0.931 . S
C288 C285 1.382 . S
C288 C286 1.392 . S
C289 Eu280 2.828 . S
C289 C283 1.505 . S
C289 O301 1.249 . S
C289 O302 1.244 . S
O290 Eu281 2.373 . S
O290 C292 1.258 . S
O291 Eu280 2.392 1_545 S
O291 C292 1.242 . S
C292 O290 1.258 . S
C292 O291 1.242 . S
O293 Eu280 2.418 1_545 S
O293 C297 1.244 . S
O294 Eu281 2.488 . S
O294 C310 1.249 . S
O295 Eu281 2.471 . S
O295 C310 1.244 . S
O296 Eu281 2.349 . S
O296 C297 1.265 . S
C297 O293 1.244 . S
C297 O296 1.265 . S
O298 Eu280 2.373 . S
O298 C311 1.258 . S
O299 Eu281 2.392 1_565 S
O299 C311 1.242 . S
O300 Eu281 2.418 1_565 S
O300 C282 1.244 . S
O301 Eu280 2.488 . S
O301 C289 1.249 . S
O302 Eu280 2.471 . S
O302 C289 1.244 . S
O303 Eu280 2.349 . S
O303 C282 1.265 . S
C304 C305 1.379 . S
C304 C308 1.373 . S
C304 C310 1.505 . S
C305 C304 1.379 . S
C305 C307 1.369 . S
C305 H316 0.930 . S
C306 C308 1.383 . S
C306 C309 1.382 . S
C306 H317 0.930 . S
C307 C305 1.369 . S
C307 C309 1.392 . S
C307 H318 0.930 . S
C308 C304 1.373 . S
C308 C306 1.383 . S
C308 H319 0.931 . S
C309 C306 1.382 . S
C309 C307 1.392 . S
C310 Eu281 2.828 . S
C310 O294 1.249 . S
C310 O295 1.244 . S
C310 C304 1.505 . S
C311 O298 1.258 . S
C311 O299 1.242 . S
H312 C284 0.930 . S
H313 C285 0.930 . S
H314 C286 0.930 . S
H315 C287 0.931 . S
H316 C305 0.930 . S
H317 C306 0.930 . S
H318 C307 0.930 . S
H319 C308 0.931 . S
Eu320 C329 2.828 . S
Eu320 O331 2.392 . S
Eu320 O333 2.418 . S
Eu320 O338 2.373 . S
Eu320 O341 2.488 . S
Eu320 O342 2.471 . S
Eu320 O343 2.349 . S
Eu321 O330 2.373 . S
Eu321 O334 2.488 . S
Eu321 O335 2.471 . S
Eu321 O336 2.349 . S
Eu321 O339 2.392 . S
Eu321 O340 2.418 . S
Eu321 C350 2.828 . S
C322 O340 1.244 . S
C322 O343 1.265 . S
C323 C324 1.379 . S
C323 C327 1.373 . S
C323 C329 1.505 . S
C324 C323 1.379 . S
C324 C326 1.369 . S
C324 H352 0.930 . S
C325 C327 1.383 . S
C325 C328 1.382 . S
C325 H353 0.930 . S
C326 C324 1.369 . S
C326 C328 1.392 . S
C326 H354 0.930 . S
C327 C323 1.373 . S
C327 C325 1.383 . S
C327 H355 0.931 . S
C328 C325 1.382 . S
C328 C326 1.392 . S
C329 Eu320 2.828 . S
C329 C323 1.505 . S
C329 O341 1.249 . S
C329 O342 1.244 . S
O330 Eu321 2.373 . S
O330 C332 1.258 . S
O331 Eu320 2.392 . S
O331 C332 1.242 . S
C332 O330 1.258 . S
C332 O331 1.242 . S
O333 Eu320 2.418 . S
O333 C337 1.244 . S
O334 Eu321 2.488 . S
O334 C350 1.249 . S
O335 Eu321 2.471 . S
O335 C350 1.244 . S
O336 Eu321 2.349 . S
O336 C337 1.265 . S
C337 O333 1.244 . S
C337 O336 1.265 . S
O338 Eu320 2.373 . S
O338 C351 1.258 . S
O339 Eu321 2.392 . S
O339 C351 1.242 . S
O340 Eu321 2.418 . S
O340 C322 1.244 . S
O341 Eu320 2.488 . S
O341 C329 1.249 . S
O342 Eu320 2.471 . S
O342 C329 1.244 . S
O343 Eu320 2.349 . S
O343 C322 1.265 . S
C344 C345 1.379 . S
C344 C348 1.373 . S
C344 C350 1.505 . S
C345 C344 1.379 . S
C345 C347 1.369 . S
C345 H356 0.930 . S
C346 C348 1.383 . S
C346 C349 1.382 . S
C346 H357 0.930 . S
C347 C345 1.369 . S
C347 C349 1.392 . S
C347 H358 0.930 . S
C348 C344 1.373 . S
C348 C346 1.383 . S
C348 H359 0.931 . S
C349 C346 1.382 . S
C349 C347 1.392 . S
C350 Eu321 2.828 . S
C350 O334 1.249 . S
C350 O335 1.244 . S
C350 C344 1.505 . S
C351 O338 1.258 . S
C351 O339 1.242 . S
H352 C324 0.930 . S
H353 C325 0.930 . S
H354 C326 0.930 . S
H355 C327 0.931 . S
H356 C345 0.930 . S
H357 C346 0.930 . S
H358 C347 0.930 . S
H359 C348 0.931 . S
Eu360 C369 2.828 . S
Eu360 O371 2.392 1_455 S
Eu360 O373 2.418 1_455 S
Eu360 O378 2.373 . S
Eu360 O381 2.488 . S
Eu360 O382 2.471 . S
Eu360 O383 2.349 . S
Eu361 O370 2.373 . S
Eu361 O374 2.488 . S
Eu361 O375 2.471 . S
Eu361 O376 2.349 . S
Eu361 O379 2.392 1_655 S
Eu361 O380 2.418 1_655 S
Eu361 C390 2.828 . S
C362 O380 1.244 . S
C362 O383 1.265 . S
C363 C364 1.379 . S
C363 C367 1.373 . S
C363 C369 1.505 . S
C364 C363 1.379 . S
C364 C366 1.369 . S
C364 H392 0.930 . S
C365 C367 1.383 . S
C365 C368 1.382 . S
C365 H393 0.930 . S
C366 C364 1.369 . S
C366 C368 1.392 . S
C366 H394 0.930 . S
C367 C363 1.373 . S
C367 C365 1.383 . S
C367 H395 0.931 . S
C368 C365 1.382 . S
C368 C366 1.392 . S
C369 Eu360 2.828 . S
C369 C363 1.505 . S
C369 O381 1.249 . S
C369 O382 1.244 . S
O370 Eu361 2.373 . S
O370 C372 1.258 . S
O371 Eu360 2.392 1_655 S
O371 C372 1.242 . S
C372 O370 1.258 . S
C372 O371 1.242 . S
O373 Eu360 2.418 1_655 S
O373 C377 1.244 . S
O374 Eu361 2.488 . S
O374 C390 1.249 . S
O375 Eu361 2.471 . S
O375 C390 1.244 . S
O376 Eu361 2.349 . S
O376 C377 1.265 . S
C377 O373 1.244 . S
C377 O376 1.265 . S
O378 Eu360 2.373 . S
O378 C391 1.258 . S
O379 Eu361 2.392 1_455 S
O379 C391 1.242 . S
O380 Eu361 2.418 1_455 S
O380 C362 1.244 . S
O381 Eu360 2.488 . S
O381 C369 1.249 . S
O382 Eu360 2.471 . S
O382 C369 1.244 . S
O383 Eu360 2.349 . S
O383 C362 1.265 . S
C384 C385 1.374 1_554 S
C384 C388 1.373 . S
C384 C390 1.505 1_554 S
C385 C384 1.374 1_556 S
C385 C387 1.348 1_556 S
C385 H396 0.957 . S
C386 C388 1.383 . S
C386 C389 1.382 . S
C386 H397 0.930 . S
C387 C385 1.348 1_554 S
C387 C389 1.392 . S
C387 H398 0.930 . S
C388 C384 1.373 . S
C388 C386 1.383 . S
C388 H399 0.931 . S
C389 C386 1.382 . S
C389 C387 1.392 . S
C390 Eu361 2.828 . S
C390 O374 1.249 . S
C390 O375 1.244 . S
C390 C384 1.505 1_556 S
C391 O378 1.258 . S
C391 O379 1.242 . S
H392 C364 0.930 . S
H393 C365 0.930 . S
H394 C366 0.930 . S
H395 C367 0.931 . S
H396 C385 0.957 . S
H397 C386 0.930 . S
H398 C387 0.930 . S
H399 C388 0.931 . S
Eu400 C409 2.828 . S
Eu400 O411 2.392 1_545 S
Eu400 O413 2.418 1_545 S
Eu400 O418 2.373 . S
Eu400 O421 2.488 . S
Eu400 O422 2.471 . S
Eu400 O423 2.349 . S
Eu401 O410 2.373 . S
Eu401 O414 2.488 . S
Eu401 O415 2.471 . S
Eu401 O416 2.349 . S
Eu401 O419 2.392 1_565 S
Eu401 O420 2.418 1_565 S
Eu401 C430 2.828 . S
C402 O420 1.244 . S
C402 O423 1.265 . S
C403 C404 1.379 . S
C403 C407 1.373 . S
C403 C409 1.505 . S
C404 C403 1.379 . S
C404 C406 1.369 . S
C404 H432 0.930 . S
C405 C407 1.383 . S
C405 C408 1.382 . S
C405 H433 0.930 . S
C406 C404 1.369 . S
C406 C408 1.392 . S
C406 H434 0.930 . S
C407 C403 1.373 . S
C407 C405 1.383 . S
C407 H435 0.931 . S
C408 C405 1.382 . S
C408 C406 1.392 . S
C409 Eu400 2.828 . S
C409 C403 1.505 . S
C409 O421 1.249 . S
C409 O422 1.244 . S
O410 Eu401 2.373 . S
O410 C412 1.258 . S
O411 Eu400 2.392 1_565 S
O411 C412 1.242 . S
C412 O410 1.258 . S
C412 O411 1.242 . S
O413 Eu400 2.418 1_565 S
O413 C417 1.244 . S
O414 Eu401 2.488 . S
O414 C430 1.249 . S
O415 Eu401 2.471 . S
O415 C430 1.244 . S
O416 Eu401 2.349 . S
O416 C417 1.265 . S
C417 O413 1.244 . S
C417 O416 1.265 . S
O418 Eu400 2.373 . S
O418 C431 1.258 . S
O419 Eu401 2.392 1_545 S
O419 C431 1.242 . S
O420 Eu401 2.418 1_545 S
O420 C402 1.244 . S
O421 Eu400 2.488 . S
O421 C409 1.249 . S
O422 Eu400 2.471 . S
O422 C409 1.244 . S
O423 Eu400 2.349 . S
O423 C402 1.265 . S
C424 C425 1.379 . S
C424 C428 1.373 . S
C424 C430 1.505 . S
C425 C424 1.379 . S
C425 C427 1.369 . S
C425 H436 0.930 . S
C426 C428 1.383 . S
C426 C429 1.382 . S
C426 H437 0.930 . S
C427 C425 1.369 . S
C427 C429 1.392 . S
C427 H438 0.930 . S
C428 C424 1.373 . S
C428 C426 1.383 . S
C428 H439 0.931 . S
C429 C426 1.382 . S
C429 C427 1.392 . S
C430 Eu401 2.828 . S
C430 O414 1.249 . S
C430 O415 1.244 . S
C430 C424 1.505 . S
C431 O418 1.258 . S
C431 O419 1.242 . S
H432 C404 0.930 . S
H433 C405 0.930 . S
H434 C406 0.930 . S
H435 C407 0.931 . S
H436 C425 0.930 . S
H437 C426 0.930 . S
H438 C427 0.930 . S
H439 C428 0.931 . S
Eu440 C449 2.828 . S
Eu440 O451 2.392 . S
Eu440 O453 2.418 . S
Eu440 O458 2.373 . S
Eu440 O461 2.488 . S
Eu440 O462 2.471 . S
Eu440 O463 2.349 . S
Eu441 O450 2.373 . S
Eu441 O454 2.488 . S
Eu441 O455 2.471 . S
Eu441 O456 2.349 . S
Eu441 O459 2.392 . S
Eu441 O460 2.418 . S
Eu441 C470 2.828 . S
C442 O460 1.244 . S
C442 O463 1.265 . S
C443 C444 1.379 . S
C443 C447 1.373 . S
C443 C449 1.505 . S
C444 C443 1.379 . S
C444 C446 1.369 . S
C444 H472 0.930 . S
C445 C447 1.383 . S
C445 C448 1.382 . S
C445 H473 0.930 . S
C446 C444 1.369 . S
C446 C448 1.392 . S
C446 H474 0.930 . S
C447 C443 1.373 . S
C447 C445 1.383 . S
C447 H475 0.931 . S
C448 C445 1.382 . S
C448 C446 1.392 . S
C449 Eu440 2.828 . S
C449 C443 1.505 . S
C449 O461 1.249 . S
C449 O462 1.244 . S
O450 Eu441 2.373 . S
O450 C452 1.258 . S
O451 Eu440 2.392 . S
O451 C452 1.242 . S
C452 O450 1.258 . S
C452 O451 1.242 . S
O453 Eu440 2.418 . S
O453 C457 1.244 . S
O454 Eu441 2.488 . S
O454 C470 1.249 . S
O455 Eu441 2.471 . S
O455 C470 1.244 . S
O456 Eu441 2.349 . S
O456 C457 1.265 . S
C457 O453 1.244 . S
C457 O456 1.265 . S
O458 Eu440 2.373 . S
O458 C471 1.258 . S
O459 Eu441 2.392 . S
O459 C471 1.242 . S
O460 Eu441 2.418 . S
O460 C442 1.244 . S
O461 Eu440 2.488 . S
O461 C449 1.249 . S
O462 Eu440 2.471 . S
O462 C449 1.244 . S
O463 Eu440 2.349 . S
O463 C442 1.265 . S
C464 C465 1.379 . S
C464 C468 1.373 . S
C464 C470 1.505 . S
C465 C464 1.379 . S
C465 C467 1.369 . S
C465 H476 0.930 . S
C466 C468 1.383 . S
C466 C469 1.382 . S
C466 H477 0.930 . S
C467 C465 1.369 . S
C467 C469 1.392 . S
C467 H478 0.930 . S
C468 C464 1.373 . S
C468 C466 1.383 . S
C468 H479 0.931 . S
C469 C466 1.382 . S
C469 C467 1.392 . S
C470 Eu441 2.828 . S
C470 O454 1.249 . S
C470 O455 1.244 . S
C470 C464 1.505 . S
C471 O458 1.258 . S
C471 O459 1.242 . S
H472 C444 0.930 . S
H473 C445 0.930 . S
H474 C446 0.930 . S
H475 C447 0.931 . S
H476 C465 0.930 . S
H477 C466 0.930 . S
H478 C467 0.930 . S
H479 C468 0.931 . S
H480 C492 0.930 . S
H481 C494 0.930 . S
H482 C495 0.930 . S
H483 C499 0.959 . S
H484 C499 0.959 . S
H485 C499 0.961 . S
H486 C500 0.960 . S
H487 C500 0.961 . S
H488 C500 0.959 . S
H489 C503 0.929 . S
H490 C504 0.931 . S
H491 C506 0.930 . S
C492 H480 0.930 . S
C492 C493 1.399 . S
C492 C497 1.399 . S
C493 C492 1.399 . S
C493 C494 1.376 . S
C494 H481 0.930 . S
C494 C493 1.376 . S
C494 C495 1.388 . S
C495 H482 0.930 . S
C495 C494 1.388 . S
C495 C496 1.390 . S
C496 C495 1.390 . S
C496 C497 1.394 . S
C496 C502 1.465 . S
C497 C492 1.399 . S
C497 C496 1.394 . S
C497 C498 1.516 . S
C498 C497 1.516 . S
C498 C499 1.502 . S
C498 C500 1.561 . S
C498 C501 1.526 . S
C499 H483 0.959 . S
C499 H484 0.959 . S
C499 H485 0.961 . S
C499 C498 1.502 . S
C500 H486 0.960 . S
C500 H487 0.961 . S
C500 H488 0.959 . S
C500 C498 1.561 . S
C501 C498 1.526 . S
C501 C502 1.396 . S
C501 C506 1.390 . S
C502 C496 1.465 . S
C502 C501 1.396 . S
C502 C503 1.399 . S
C503 H489 0.929 . S
C503 C502 1.399 . S
C503 C504 1.385 . S
C504 H490 0.931 . S
C504 C503 1.385 . S
C504 C505 1.389 . S
C505 C504 1.389 . S
C505 C506 1.387 . S
C506 H491 0.930 . S
C506 C501 1.390 . S
C506 C505 1.387 . S
H507 C519 0.930 . S
H508 C521 0.930 . S
H509 C522 0.930 . S
H510 C526 0.959 . S
H511 C526 0.959 . S
H512 C526 0.961 . S
H513 C527 0.960 . S
H514 C527 0.961 . S
H515 C527 0.959 . S
H516 C530 0.929 1_565 S
H517 C531 0.950 . S
H518 C533 0.930 . S
C519 H507 0.930 . S
C519 C520 1.399 . S
C519 C524 1.399 . S
C520 C519 1.399 . S
C520 C521 1.376 . S
C521 H508 0.930 . S
C521 C520 1.376 . S
C521 C522 1.388 . S
C522 H509 0.930 . S
C522 C521 1.388 . S
C522 C523 1.390 . S
C523 C522 1.390 . S
C523 C524 1.394 . S
C523 C529 1.465 . S
C524 C519 1.399 . S
C524 C523 1.394 . S
C524 C525 1.516 . S
C525 C524 1.516 . S
C525 C526 1.502 . S
C525 C527 1.561 . S
C525 C528 1.526 . S
C526 H510 0.959 . S
C526 H511 0.959 . S
C526 H512 0.961 . S
C526 C525 1.502 . S
C527 H513 0.960 . S
C527 H514 0.961 . S
C527 H515 0.959 . S
C527 C525 1.561 . S
C528 C525 1.526 . S
C528 C529 1.396 . S
C528 C533 1.390 . S
C529 C523 1.465 . S
C529 C528 1.396 . S
C529 C530 1.399 . S
C530 H516 0.929 1_545 S
C530 C529 1.399 . S
C530 C531 1.385 . S
C531 H517 0.950 . S
C531 C530 1.385 . S
C531 C532 1.389 . S
C532 C531 1.389 . S
C532 C533 1.387 . S
C533 H518 0.930 . S
C533 C528 1.390 . S
C533 C532 1.387 . S
H534 C546 0.930 . S
H535 C548 0.930 . S
H536 C549 0.930 . S
H537 C553 0.959 . S
H538 C553 0.959 . S
H539 C553 0.961 . S
H540 C554 0.960 . S
H541 C554 0.961 . S
H542 C554 0.959 . S
H543 C557 0.929 . S
H544 C558 0.931 . S
H545 C560 0.930 . S
C546 H534 0.930 . S
C546 C547 1.399 . S
C546 C551 1.399 . S
C547 C546 1.399 . S
C547 C548 1.376 . S
C548 H535 0.930 . S
C548 C547 1.376 . S
C548 C549 1.388 . S
C549 H536 0.930 . S
C549 C548 1.388 . S
C549 C550 1.390 . S
C550 C549 1.390 . S
C550 C551 1.394 . S
C550 C556 1.465 . S
C551 C546 1.399 . S
C551 C550 1.394 . S
C551 C552 1.516 . S
C552 C551 1.516 . S
C552 C553 1.502 . S
C552 C554 1.561 . S
C552 C555 1.526 . S
C553 H537 0.959 . S
C553 H538 0.959 . S
C553 H539 0.961 . S
C553 C552 1.502 . S
C554 H540 0.960 . S
C554 H541 0.961 . S
C554 H542 0.959 . S
C554 C552 1.561 . S
C555 C552 1.526 . S
C555 C556 1.396 . S
C555 C560 1.390 . S
C556 C550 1.465 . S
C556 C555 1.396 . S
C556 C557 1.399 . S
C557 H543 0.929 . S
C557 C556 1.399 . S
C557 C558 1.385 . S
C558 H544 0.931 . S
C558 C557 1.385 . S
C558 C559 1.389 . S
C559 C558 1.389 . S
C559 C560 1.387 . S
C560 H545 0.930 . S
C560 C555 1.390 . S
C560 C559 1.387 . S
H561 C573 0.930 . S
H562 C575 0.930 . S
H563 C576 0.930 . S
H564 C580 0.959 . S
H565 C580 0.959 . S
H566 C580 0.961 . S
H567 C581 0.960 . S
H568 C581 0.961 . S
H569 C581 0.959 . S
H570 C584 0.929 . S
H571 C585 0.931 . S
H572 C587 0.930 . S
C573 H561 0.930 . S
C573 C574 1.399 . S
C573 C578 1.399 . S
C574 C573 1.399 . S
C574 C575 1.376 . S
C575 H562 0.930 . S
C575 C574 1.376 . S
C575 C576 1.388 . S
C576 H563 0.930 . S
C576 C575 1.388 . S
C576 C577 1.390 . S
C577 C576 1.390 . S
C577 C578 1.394 . S
C577 C583 1.465 . S
C578 C573 1.399 . S
C578 C577 1.394 . S
C578 C579 1.516 . S
C579 C578 1.516 . S
C579 C580 1.502 . S
C579 C581 1.561 . S
C579 C582 1.526 . S
C580 H564 0.959 . S
C580 H565 0.959 . S
C580 H566 0.961 . S
C580 C579 1.502 . S
C581 H567 0.960 . S
C581 H568 0.961 . S
C581 H569 0.959 . S
C581 C579 1.561 . S
C582 C579 1.526 . S
C582 C583 1.396 . S
C582 C587 1.390 . S
C583 C577 1.465 . S
C583 C582 1.396 . S
C583 C584 1.399 . S
C584 H570 0.929 . S
C584 C583 1.399 . S
C584 C585 1.385 . S
C585 H571 0.931 . S
C585 C584 1.385 . S
C585 C586 1.389 . S
C586 C585 1.389 . S
C586 C587 1.387 . S
C587 H572 0.930 . S
C587 C582 1.390 . S
C587 C586 1.387 . S
H588 C600 0.930 . S
H589 C602 0.930 . S
H590 C603 0.930 . S
H591 C607 0.959 . S
H592 C607 0.959 . S
H593 C607 0.961 . S
H594 C608 0.960 . S
H595 C608 0.961 . S
H596 C608 0.959 . S
H597 C611 0.929 . S
H598 C612 0.931 . S
H599 C614 0.930 . S
C600 H588 0.930 . S
C600 C601 1.399 . S
C600 C605 1.399 . S
C601 C600 1.399 . S
C601 C602 1.376 . S
C602 H589 0.930 . S
C602 C601 1.376 . S
C602 C603 1.388 . S
C603 H590 0.930 . S
C603 C602 1.388 . S
C603 C604 1.390 . S
C604 C603 1.390 . S
C604 C605 1.394 . S
C604 C610 1.465 . S
C605 C600 1.399 . S
C605 C604 1.394 . S
C605 C606 1.516 . S
C606 C605 1.516 . S
C606 C607 1.502 . S
C606 C608 1.561 . S
C606 C609 1.526 . S
C607 H591 0.959 . S
C607 H592 0.959 . S
C607 H593 0.961 . S
C607 C606 1.502 . S
C608 H594 0.960 . S
C608 H595 0.961 . S
C608 H596 0.959 . S
C608 C606 1.561 . S
C609 C606 1.526 . S
C609 C610 1.396 . S
C609 C614 1.390 . S
C610 C604 1.465 . S
C610 C609 1.396 . S
C610 C611 1.399 . S
C611 H597 0.929 . S
C611 C610 1.399 . S
C611 C612 1.385 . S
C612 H598 0.931 . S
C612 C611 1.385 . S
C612 C613 1.389 . S
C613 C612 1.389 . S
C613 C614 1.387 . S
C614 H599 0.930 . S
C614 C609 1.390 . S
C614 C613 1.387 . S
H615 C627 0.930 . S
H616 C629 0.930 . S
H617 C630 0.930 . S
H618 C634 0.959 . S
H619 C634 0.959 . S
H620 C634 0.961 . S
H621 C635 0.960 . S
H622 C635 0.961 . S
H623 C635 0.959 . S
H624 C638 0.929 . S
H625 C639 0.931 . S
H626 C641 0.930 . S
C627 H615 0.930 . S
C627 C628 1.399 . S
C627 C632 1.399 . S
C628 C627 1.399 . S
C628 C629 1.376 . S
C629 H616 0.930 . S
C629 C628 1.376 . S
C629 C630 1.388 . S
C630 H617 0.930 . S
C630 C629 1.388 . S
C630 C631 1.390 . S
C631 C630 1.390 . S
C631 C632 1.394 . S
C631 C637 1.465 . S
C632 C627 1.399 . S
C632 C631 1.394 . S
C632 C633 1.516 . S
C633 C632 1.516 . S
C633 C634 1.502 . S
C633 C635 1.561 . S
C633 C636 1.526 . S
C634 H618 0.959 . S
C634 H619 0.959 . S
C634 H620 0.961 . S
C634 C633 1.502 . S
C635 H621 0.960 . S
C635 H622 0.961 . S
C635 H623 0.959 . S
C635 C633 1.561 . S
C636 C633 1.526 . S
C636 C637 1.396 . S
C636 C641 1.390 . S
C637 C631 1.465 . S
C637 C636 1.396 . S
C637 C638 1.399 . S
C638 H624 0.929 . S
C638 C637 1.399 . S
C638 C639 1.385 . S
C639 H625 0.931 . S
C639 C638 1.385 . S
C639 C640 1.389 . S
C640 C639 1.389 . S
C640 C641 1.387 . S
C641 H626 0.930 . S
C641 C636 1.390 . S
C641 C640 1.387 . S
H642 C654 0.930 . S
H643 C656 0.930 . S
H644 C657 0.930 . S
H645 C661 0.959 . S
H646 C661 0.959 . S
H647 C661 0.961 . S
H648 C662 0.960 . S
H649 C662 0.961 . S
H650 C662 0.959 . S
H651 C665 0.929 . S
H652 C666 0.931 . S
H653 C668 0.930 . S
C654 H642 0.930 . S
C654 C655 1.399 . S
C654 C659 1.399 . S
C655 C654 1.399 . S
C655 C656 1.376 . S
C656 H643 0.930 . S
C656 C655 1.376 . S
C656 C657 1.388 . S
C657 H644 0.930 . S
C657 C656 1.388 . S
C657 C658 1.390 . S
C658 C657 1.390 . S
C658 C659 1.394 . S
C658 C664 1.465 . S
C659 C654 1.399 . S
C659 C658 1.394 . S
C659 C660 1.516 . S
C660 C659 1.516 . S
C660 C661 1.502 . S
C660 C662 1.561 . S
C660 C663 1.526 . S
C661 H645 0.959 . S
C661 H646 0.959 . S
C661 H647 0.961 . S
C661 C660 1.502 . S
C662 H648 0.960 . S
C662 H649 0.961 . S
C662 H650 0.959 . S
C662 C660 1.561 . S
C663 C660 1.526 . S
C663 C664 1.396 . S
C663 C668 1.390 . S
C664 C658 1.465 . S
C664 C663 1.396 . S
C664 C665 1.399 . S
C665 H651 0.929 . S
C665 C664 1.399 . S
C665 C666 1.385 . S
C666 H652 0.931 . S
C666 C665 1.385 . S
C666 C667 1.389 . S
C667 C666 1.389 . S
C667 C668 1.387 . S
C668 H653 0.930 . S
C668 C663 1.390 . S
C668 C667 1.387 . S
H669 C681 0.930 . S
H670 C683 0.930 . S
H671 C684 0.930 . S
H672 C688 0.959 . S
H673 C688 0.959 . S
H674 C688 0.961 . S
H675 C689 0.960 . S
H676 C689 0.961 . S
H677 C689 0.959 . S
H678 C692 0.929 . S
H679 C693 0.931 . S
H680 C695 0.930 . S
C681 H669 0.930 . S
C681 C682 1.399 . S
C681 C686 1.399 . S
C682 C681 1.399 . S
C682 C683 1.376 . S
C683 H670 0.930 . S
C683 C682 1.376 . S
C683 C684 1.388 . S
C684 H671 0.930 . S
C684 C683 1.388 . S
C684 C685 1.390 . S
C685 C684 1.390 . S
C685 C686 1.394 . S
C685 C691 1.465 . S
C686 C681 1.399 . S
C686 C685 1.394 . S
C686 C687 1.516 . S
C687 C686 1.516 . S
C687 C688 1.502 . S
C687 C689 1.561 . S
C687 C690 1.526 . S
C688 H672 0.959 . S
C688 H673 0.959 . S
C688 H674 0.961 . S
C688 C687 1.502 . S
C689 H675 0.960 . S
C689 H676 0.961 . S
C689 H677 0.959 . S
C689 C687 1.561 . S
C690 C687 1.526 . S
C690 C691 1.396 . S
C690 C695 1.390 . S
C691 C685 1.465 . S
C691 C690 1.396 . S
C691 C692 1.399 . S
C692 H678 0.929 . S
C692 C691 1.399 . S
C692 C693 1.385 . S
C693 H679 0.931 . S
C693 C692 1.385 . S
C693 C694 1.389 . S
C694 C693 1.389 . S
C694 C695 1.387 . S
C695 H680 0.930 . S
C695 C690 1.390 . S
C695 C694 1.387 . S
H696 C708 0.930 . S
H697 C710 0.930 . S
H698 C711 0.930 . S
H699 C715 0.959 . S
H700 C715 0.959 . S
H701 C715 0.961 . S
H702 C716 0.960 . S
H703 C716 0.961 . S
H704 C716 0.959 . S
H705 C719 0.929 . S
H706 C720 0.931 . S
H707 C722 0.930 . S
C708 H696 0.930 . S
C708 C709 1.399 . S
C708 C713 1.399 . S
C709 C708 1.399 . S
C709 C710 1.376 . S
C710 H697 0.930 . S
C710 C709 1.376 . S
C710 C711 1.388 . S
C711 H698 0.930 . S
C711 C710 1.388 . S
C711 C712 1.390 . S
C712 C711 1.390 . S
C712 C713 1.394 . S
C712 C718 1.465 . S
C713 C708 1.399 . S
C713 C712 1.394 . S
C713 C714 1.516 . S
C714 C713 1.516 . S
C714 C715 1.502 . S
C714 C716 1.561 . S
C714 C717 1.526 . S
C715 H699 0.959 . S
C715 H700 0.959 . S
C715 H701 0.961 . S
C715 C714 1.502 . S
C716 H702 0.960 . S
C716 H703 0.961 . S
C716 H704 0.959 . S
C716 C714 1.561 . S
C717 C714 1.526 . S
C717 C718 1.396 . S
C717 C722 1.390 . S
C718 C712 1.465 . S
C718 C717 1.396 . S
C718 C719 1.399 . S
C719 H705 0.929 . S
C719 C718 1.399 . S
C719 C720 1.385 . S
C720 H706 0.931 . S
C720 C719 1.385 . S
C720 C721 1.389 . S
C721 C720 1.389 . S
C721 C722 1.387 . S
C722 H707 0.930 . S
C722 C717 1.390 . S
C722 C721 1.387 . S
H723 C735 0.930 . S
H724 C737 0.930 . S
H725 C738 0.930 . S
H726 C742 0.959 . S
H727 C742 0.959 . S
H728 C742 0.961 . S
H729 C743 0.960 . S
H730 C743 0.961 . S
H731 C743 0.959 . S
H732 C746 0.929 . S
H733 C747 0.931 . S
H734 C749 0.930 . S
C735 H723 0.930 . S
C735 C736 1.399 . S
C735 C740 1.399 . S
C736 C735 1.399 . S
C736 C737 1.376 . S
C737 H724 0.930 . S
C737 C736 1.376 . S
C737 C738 1.388 . S
C738 H725 0.930 . S
C738 C737 1.388 . S
C738 C739 1.390 . S
C739 C738 1.390 . S
C739 C740 1.394 . S
C739 C745 1.465 . S
C740 C735 1.399 . S
C740 C739 1.394 . S
C740 C741 1.516 . S
C741 C740 1.516 . S
C741 C742 1.502 . S
C741 C743 1.561 . S
C741 C744 1.526 . S
C742 H726 0.959 . S
C742 H727 0.959 . S
C742 H728 0.961 . S
C742 C741 1.502 . S
C743 H729 0.960 . S
C743 H730 0.961 . S
C743 H731 0.959 . S
C743 C741 1.561 . S
C744 C741 1.526 . S
C744 C745 1.396 . S
C744 C749 1.390 . S
C745 C739 1.465 . S
C745 C744 1.396 . S
C745 C746 1.399 . S
C746 H732 0.929 . S
C746 C745 1.399 . S
C746 C747 1.385 . S
C747 H733 0.931 . S
C747 C746 1.385 . S
C747 C748 1.389 . S
C748 C747 1.389 . S
C748 C749 1.387 . S
C749 H734 0.930 . S
C749 C744 1.390 . S
C749 C748 1.387 . S
H750 C762 0.930 . S
H751 C764 0.930 . S
H752 C765 0.930 . S
H753 C769 0.959 . S
H754 C769 0.959 . S
H755 C769 0.961 . S
H756 C770 0.960 . S
H757 C770 0.961 . S
H758 C770 0.959 . S
H759 C773 0.929 . S
H760 C774 0.931 . S
H761 C776 0.930 . S
C762 H750 0.930 . S
C762 C763 1.399 . S
C762 C767 1.399 . S
C763 C762 1.399 . S
C763 C764 1.376 . S
C764 H751 0.930 . S
C764 C763 1.376 . S
C764 C765 1.388 . S
C765 H752 0.930 . S
C765 C764 1.388 . S
C765 C766 1.390 . S
C766 C765 1.390 . S
C766 C767 1.394 . S
C766 C772 1.465 . S
C767 C762 1.399 . S
C767 C766 1.394 . S
C767 C768 1.516 . S
C768 C767 1.516 . S
C768 C769 1.502 . S
C768 C770 1.561 . S
C768 C771 1.526 . S
C769 H753 0.959 . S
C769 H754 0.959 . S
C769 H755 0.961 . S
C769 C768 1.502 . S
C770 H756 0.960 . S
C770 H757 0.961 . S
C770 H758 0.959 . S
C770 C768 1.561 . S
C771 C768 1.526 . S
C771 C772 1.396 . S
C771 C776 1.390 . S
C772 C766 1.465 . S
C772 C771 1.396 . S
C772 C773 1.399 . S
C773 H759 0.929 . S
C773 C772 1.399 . S
C773 C774 1.385 . S
C774 H760 0.931 . S
C774 C773 1.385 . S
C774 C775 1.389 . S
C775 C774 1.389 . S
C775 C776 1.387 . S
C776 H761 0.930 . S
C776 C771 1.390 . S
C776 C775 1.387 . S
H777 C789 0.930 . S
H778 C791 0.930 . S
H779 C792 0.930 . S
H780 C796 0.959 . S
H781 C796 0.959 . S
H782 C796 0.961 . S
H783 C797 0.960 . S
H784 C797 0.961 . S
H785 C797 0.959 . S
H786 C800 0.929 . S
H787 C801 0.931 . S
H788 C803 0.930 . S
C789 H777 0.930 . S
C789 C790 1.399 . S
C789 C794 1.399 . S
C790 C789 1.399 . S
C790 C791 1.376 . S
C791 H778 0.930 . S
C791 C790 1.376 . S
C791 C792 1.388 . S
C792 H779 0.930 . S
C792 C791 1.388 . S
C792 C793 1.390 . S
C793 C792 1.390 . S
C793 C794 1.394 . S
C793 C799 1.465 . S
C794 C789 1.399 . S
C794 C793 1.394 . S
C794 C795 1.516 . S
C795 C794 1.516 . S
C795 C796 1.502 . S
C795 C797 1.561 . S
C795 C798 1.526 . S
C796 H780 0.959 . S
C796 H781 0.959 . S
C796 H782 0.961 . S
C796 C795 1.502 . S
C797 H783 0.960 . S
C797 H784 0.961 . S
C797 H785 0.959 . S
C797 C795 1.561 . S
C798 C795 1.526 . S
C798 C799 1.396 . S
C798 C803 1.390 . S
C799 C793 1.465 . S
C799 C798 1.396 . S
C799 C800 1.399 . S
C800 H786 0.929 . S
C800 C799 1.399 . S
C800 C801 1.385 . S
C801 H787 0.931 . S
C801 C800 1.385 . S
C801 C802 1.389 . S
C802 C801 1.389 . S
C802 C803 1.387 . S
C803 H788 0.930 . S
C803 C798 1.390 . S
C803 C802 1.387 . S
H804 C816 0.930 . S
H805 C818 0.930 . S
H806 C819 0.930 . S
H807 C823 0.959 . S
H808 C823 0.959 . S
H809 C823 0.961 . S
H810 C824 0.960 . S
H811 C824 0.961 . S
H812 C824 0.959 . S
H813 C827 0.929 . S
H814 C828 0.931 . S
H815 C830 0.930 . S
C816 H804 0.930 . S
C816 C817 1.399 . S
C816 C821 1.399 . S
C817 C816 1.399 . S
C817 C818 1.376 . S
C818 H805 0.930 . S
C818 C817 1.376 . S
C818 C819 1.388 . S
C819 H806 0.930 . S
C819 C818 1.388 . S
C819 C820 1.390 . S
C820 C819 1.390 . S
C820 C821 1.394 . S
C820 C826 1.465 . S
C821 C816 1.399 . S
C821 C820 1.394 . S
C821 C822 1.516 . S
C822 C821 1.516 . S
C822 C823 1.502 . S
C822 C824 1.561 . S
C822 C825 1.526 . S
C823 H807 0.959 . S
C823 H808 0.959 . S
C823 H809 0.961 . S
C823 C822 1.502 . S
C824 H810 0.960 . S
C824 H811 0.961 . S
C824 H812 0.959 . S
C824 C822 1.561 . S
C825 C822 1.526 . S
C825 C826 1.396 . S
C825 C830 1.390 . S
C826 C820 1.465 . S
C826 C825 1.396 . S
C826 C827 1.399 . S
C827 H813 0.929 . S
C827 C826 1.399 . S
C827 C828 1.385 . S
C828 H814 0.931 . S
C828 C827 1.385 . S
C828 C829 1.389 . S
C829 C828 1.389 . S
C829 C830 1.387 . S
C830 H815 0.930 . S
C830 C825 1.390 . S
C830 C829 1.387 . S
H831 C843 0.930 . S
H832 C845 0.930 . S
H833 C846 0.930 . S
H834 C850 0.959 . S
H835 C850 0.959 . S
H836 C850 0.961 . S
H837 C851 0.960 . S
H838 C851 0.961 . S
H839 C851 0.959 . S
H840 C854 0.929 . S
H841 C855 0.931 . S
H842 C857 0.930 . S
C843 H831 0.930 . S
C843 C844 1.399 . S
C843 C848 1.399 . S
C844 C843 1.399 . S
C844 C845 1.376 . S
C845 H832 0.930 . S
C845 C844 1.376 . S
C845 C846 1.388 . S
C846 H833 0.930 . S
C846 C845 1.388 . S
C846 C847 1.390 . S
C847 C846 1.390 . S
C847 C848 1.394 . S
C847 C853 1.465 . S
C848 C843 1.399 . S
C848 C847 1.394 . S
C848 C849 1.516 . S
C849 C848 1.516 . S
C849 C850 1.502 . S
C849 C851 1.561 . S
C849 C852 1.526 . S
C850 H834 0.959 . S
C850 H835 0.959 . S
C850 H836 0.961 . S
C850 C849 1.502 . S
C851 H837 0.960 . S
C851 H838 0.961 . S
C851 H839 0.959 . S
C851 C849 1.561 . S
C852 C849 1.526 . S
C852 C853 1.396 . S
C852 C857 1.390 . S
C853 C847 1.465 . S
C853 C852 1.396 . S
C853 C854 1.399 . S
C854 H840 0.929 . S
C854 C853 1.399 . S
C854 C855 1.385 . S
C855 H841 0.931 . S
C855 C854 1.385 . S
C855 C856 1.389 . S
C856 C855 1.389 . S
C856 C857 1.387 . S
C857 H842 0.930 . S
C857 C852 1.390 . S
C857 C856 1.387 . S
H858 C870 0.930 . S
H859 C872 0.930 . S
H860 C873 0.930 . S
H861 C877 0.959 . S
H862 C877 0.959 . S
H863 C877 0.961 . S
H864 C878 0.960 . S
H865 C878 0.961 . S
H866 C878 0.959 . S
H867 C881 0.929 . S
H868 C882 0.931 . S
H869 C884 0.930 . S
C870 H858 0.930 . S
C870 C871 1.399 . S
C870 C875 1.399 . S
C871 C870 1.399 . S
C871 C872 1.376 . S
C872 H859 0.930 . S
C872 C871 1.376 . S
C872 C873 1.388 . S
C873 H860 0.930 . S
C873 C872 1.388 . S
C873 C874 1.390 . S
C874 C873 1.390 . S
C874 C875 1.394 . S
C874 C880 1.465 . S
C875 C870 1.399 . S
C875 C874 1.394 . S
C875 C876 1.516 . S
C876 C875 1.516 . S
C876 C877 1.502 . S
C876 C878 1.561 . S
C876 C879 1.526 . S
C877 H861 0.959 . S
C877 H862 0.959 . S
C877 H863 0.961 . S
C877 C876 1.502 . S
C878 H864 0.960 . S
C878 H865 0.961 . S
C878 H866 0.959 . S
C878 C876 1.561 . S
C879 C876 1.526 . S
C879 C880 1.396 . S
C879 C884 1.390 . S
C880 C874 1.465 . S
C880 C879 1.396 . S
C880 C881 1.399 . S
C881 H867 0.929 . S
C881 C880 1.399 . S
C881 C882 1.385 . S
C882 H868 0.931 . S
C882 C881 1.385 . S
C882 C883 1.389 . S
C883 C882 1.389 . S
C883 C884 1.387 . S
C884 H869 0.930 . S
C884 C879 1.390 . S
C884 C883 1.387 . S
H885 C897 0.930 . S
H886 C899 0.930 . S
H887 C900 0.930 . S
H888 C904 0.959 . S
H889 C904 0.959 . S
H890 C904 0.961 . S
H891 C905 0.960 . S
H892 C905 0.961 . S
H893 C905 0.959 . S
H894 C908 0.929 . S
H895 C909 0.931 . S
H896 C911 0.930 . S
C897 H885 0.930 . S
C897 C898 1.399 . S
C897 C902 1.399 . S
C898 C897 1.399 . S
C898 C899 1.376 . S
C899 H886 0.930 . S
C899 C898 1.376 . S
C899 C900 1.388 . S
C900 H887 0.930 . S
C900 C899 1.388 . S
C900 C901 1.390 . S
C901 C900 1.390 . S
C901 C902 1.394 . S
C901 C907 1.465 . S
C902 C897 1.399 . S
C902 C901 1.394 . S
C902 C903 1.516 . S
C903 C902 1.516 . S
C903 C904 1.502 . S
C903 C905 1.561 . S
C903 C906 1.526 . S
C904 H888 0.959 . S
C904 H889 0.959 . S
C904 H890 0.961 . S
C904 C903 1.502 . S
C905 H891 0.960 . S
C905 H892 0.961 . S
C905 H893 0.959 . S
C905 C903 1.561 . S
C906 C903 1.526 . S
C906 C907 1.396 . S
C906 C911 1.390 . S
C907 C901 1.465 . S
C907 C906 1.396 . S
C907 C908 1.399 . S
C908 H894 0.929 . S
C908 C907 1.399 . S
C908 C909 1.385 . S
C909 H895 0.931 . S
C909 C908 1.385 . S
C909 C910 1.389 . S
C910 C909 1.389 . S
C910 C911 1.387 . S
C911 H896 0.930 . S
C911 C906 1.390 . S
C911 C910 1.387 . S
H912 C924 0.930 1_554 S
H913 C926 0.930 . S
H914 C927 0.930 . S
H915 C931 0.959 . S
H916 C931 0.959 . S
H917 C931 0.961 . S
H918 C932 0.960 . S
H919 C932 0.961 . S
H920 C932 0.959 . S
H921 C935 0.929 . S
H922 C936 0.931 . S
H923 C938 0.930 . S
C924 H912 0.930 1_556 S
C924 C925 1.399 . S
C924 C929 1.399 . S
C925 C924 1.399 . S
C925 C926 1.376 . S
C926 H913 0.930 . S
C926 C925 1.376 . S
C926 C927 1.388 . S
C927 H914 0.930 . S
C927 C926 1.388 . S
C927 C928 1.390 . S
C928 C927 1.390 . S
C928 C929 1.394 . S
C928 C934 1.465 . S
C929 C924 1.399 . S
C929 C928 1.394 . S
C929 C930 1.516 1_556 S
C930 C929 1.516 1_554 S
C930 C931 1.502 . S
C930 C932 1.561 . S
C930 C933 1.515 1_554 S
C931 H915 0.959 . S
C931 H916 0.959 . S
C931 H917 0.961 . S
C931 C930 1.502 . S
C932 H918 0.960 . S
C932 H919 0.961 . S
C932 H920 0.959 . S
C932 C930 1.561 . S
C933 C930 1.515 1_556 S
C933 C934 1.419 . S
C933 C938 1.381 1_556 S
C934 C928 1.465 . S
C934 C933 1.419 . S
C934 C935 1.399 . S
C935 H921 0.929 . S
C935 C934 1.399 . S
C935 C936 1.385 . S
C936 H922 0.931 . S
C936 C935 1.385 . S
C936 C937 1.389 . S
C937 C936 1.389 . S
C937 C938 1.387 1_556 S
C938 H923 0.930 . S
C938 C933 1.381 1_554 S
C938 C937 1.387 1_554 S
H939 C951 0.930 . S
H940 C953 0.930 . S
H941 C954 0.930 . S
H942 C958 0.959 . S
H943 C958 0.959 . S
H944 C958 0.961 . S
H945 C959 0.960 . S
H946 C959 0.961 . S
H947 C959 0.959 . S
H948 C962 0.929 . S
H949 C963 0.931 . S
H950 C965 0.930 . S
C951 H939 0.930 . S
C951 C952 1.399 . S
C951 C956 1.399 . S
C952 C951 1.399 . S
C952 C953 1.376 . S
C953 H940 0.930 . S
C953 C952 1.376 . S
C953 C954 1.388 . S
C954 H941 0.930 . S
C954 C953 1.388 . S
C954 C955 1.390 . S
C955 C954 1.390 . S
C955 C956 1.394 . S
C955 C961 1.465 . S
C956 C951 1.399 . S
C956 C955 1.394 . S
C956 C957 1.516 . S
C957 C956 1.516 . S
C957 C958 1.502 . S
C957 C959 1.561 . S
C957 C960 1.526 . S
C958 H942 0.959 . S
C958 H943 0.959 . S
C958 H944 0.961 . S
C958 C957 1.502 . S
C959 H945 0.960 . S
C959 H946 0.961 . S
C959 H947 0.959 . S
C959 C957 1.561 . S
C960 C957 1.526 . S
C960 C961 1.396 . S
C960 C965 1.390 . S
C961 C955 1.465 . S
C961 C960 1.396 . S
C961 C962 1.399 . S
C962 H948 0.929 . S
C962 C961 1.399 . S
C962 C963 1.385 . S
C963 H949 0.931 . S
C963 C962 1.385 . S
C963 C964 1.389 . S
C964 C963 1.389 . S
C964 C965 1.387 . S
C965 H950 0.930 . S
C965 C960 1.390 . S
C965 C964 1.387 . S
H966 C978 0.930 . S
H967 C980 0.930 . S
H968 C981 0.930 . S
H969 C985 0.959 . S
H970 C985 0.959 . S
H971 C985 0.961 . S
H972 C986 0.960 . S
H973 C986 0.961 . S
H974 C986 0.959 . S
H975 C989 0.929 . S
H976 C990 0.931 . S
H977 C992 0.930 . S
C978 H966 0.930 . S
C978 C979 1.399 . S
C978 C983 1.399 . S
C979 C978 1.399 . S
C979 C980 1.376 . S
C980 H967 0.930 . S
C980 C979 1.376 . S
C980 C981 1.388 . S
C981 H968 0.930 . S
C981 C980 1.388 . S
C981 C982 1.390 . S
C982 C981 1.390 . S
C982 C983 1.394 . S
C982 C988 1.465 . S
C983 C978 1.399 . S
C983 C982 1.394 . S
C983 C984 1.516 . S
C984 C983 1.516 . S
C984 C985 1.502 . S
C984 C986 1.561 . S
C984 C987 1.526 . S
C985 H969 0.959 . S
C985 H970 0.959 . S
C985 H971 0.961 . S
C985 C984 1.502 . S
C986 H972 0.960 . S
C986 H973 0.961 . S
C986 H974 0.959 . S
C986 C984 1.561 . S
C987 C984 1.526 . S
C987 C988 1.396 . S
C987 C992 1.390 . S
C988 C982 1.465 . S
C988 C987 1.396 . S
C988 C989 1.399 . S
C989 H975 0.929 . S
C989 C988 1.399 . S
C989 C990 1.385 . S
C990 H976 0.931 . S
C990 C989 1.385 . S
C990 C991 1.389 . S
C991 C990 1.389 . S
C991 C992 1.387 . S
C992 H977 0.930 . S
C992 C987 1.390 . S
C992 C991 1.387 . S
H993 C1005 0.930 . S
H994 C1007 0.930 . S
H995 C1008 0.930 . S
H996 C1012 0.959 . S
H997 C1012 0.959 . S
H998 C1012 0.961 . S
H999 C1013 0.960 . S
H1000 C1013 0.961 . S
H1001 C1013 0.959 . S
H1002 C1016 0.929 . S
H1003 C1017 0.931 . S
H1004 C1019 0.930 . S
C1005 H993 0.930 . S
C1005 C1006 1.399 . S
C1005 C1010 1.399 . S
C1006 C1005 1.399 . S
C1006 C1007 1.376 . S
C1007 H994 0.930 . S
C1007 C1006 1.376 . S
C1007 C1008 1.388 . S
C1008 H995 0.930 . S
C1008 C1007 1.388 . S
C1008 C1009 1.390 . S
C1009 C1008 1.390 . S
C1009 C1010 1.394 . S
C1009 C1015 1.465 . S
C1010 C1005 1.399 . S
C1010 C1009 1.394 . S
C1010 C1011 1.516 . S
C1011 C1010 1.516 . S
C1011 C1012 1.502 . S
C1011 C1013 1.561 . S
C1011 C1014 1.526 . S
C1012 H996 0.959 . S
C1012 H997 0.959 . S
C1012 H998 0.961 . S
C1012 C1011 1.502 . S
C1013 H999 0.960 . S
C1013 H1000 0.961 . S
C1013 H1001 0.959 . S
C1013 C1011 1.561 . S
C1014 C1011 1.526 . S
C1014 C1015 1.396 . S
C1014 C1019 1.390 . S
C1015 C1009 1.465 . S
C1015 C1014 1.396 . S
C1015 C1016 1.399 . S
C1016 H1002 0.929 . S
C1016 C1015 1.399 . S
C1016 C1017 1.385 . S
C1017 H1003 0.931 . S
C1017 C1016 1.385 . S
C1017 C1018 1.389 . S
C1018 C1017 1.389 . S
C1018 C1019 1.387 . S
C1019 H1004 0.930 . S
C1019 C1014 1.390 . S
C1019 C1018 1.387 . S
H1020 C1032 0.930 . S
H1021 C1034 0.930 . S
H1022 C1035 0.930 . S
H1023 C1039 0.959 . S
H1024 C1039 0.959 . S
H1025 C1039 0.961 . S
H1026 C1040 0.960 . S
H1027 C1040 0.961 . S
H1028 C1040 0.959 . S
H1029 C1043 0.929 . S
H1030 C1044 0.931 . S
H1031 C1046 0.930 . S
C1032 H1020 0.930 . S
C1032 C1033 1.399 . S
C1032 C1037 1.399 . S
C1033 C1032 1.399 . S
C1033 C1034 1.376 . S
C1034 H1021 0.930 . S
C1034 C1033 1.376 . S
C1034 C1035 1.388 . S
C1035 H1022 0.930 . S
C1035 C1034 1.388 . S
C1035 C1036 1.390 . S
C1036 C1035 1.390 . S
C1036 C1037 1.394 . S
C1036 C1042 1.465 . S
C1037 C1032 1.399 . S
C1037 C1036 1.394 . S
C1037 C1038 1.516 . S
C1038 C1037 1.516 . S
C1038 C1039 1.502 . S
C1038 C1040 1.561 . S
C1038 C1041 1.526 . S
C1039 H1023 0.959 . S
C1039 H1024 0.959 . S
C1039 H1025 0.961 . S
C1039 C1038 1.502 . S
C1040 H1026 0.960 . S
C1040 H1027 0.961 . S
C1040 H1028 0.959 . S
C1040 C1038 1.561 . S
C1041 C1038 1.526 . S
C1041 C1042 1.396 . S
C1041 C1046 1.390 . S
C1042 C1036 1.465 . S
C1042 C1041 1.396 . S
C1042 C1043 1.399 . S
C1043 H1029 0.929 . S
C1043 C1042 1.399 . S
C1043 C1044 1.385 . S
C1044 H1030 0.931 . S
C1044 C1043 1.385 . S
C1044 C1045 1.389 . S
C1045 C1044 1.389 . S
C1045 C1046 1.387 . S
C1046 H1031 0.930 . S
C1046 C1041 1.390 . S
C1046 C1045 1.387 . S
H1047 C1059 0.930 . S
H1048 C1061 0.930 . S
H1049 C1062 0.930 . S
H1050 C1066 0.959 . S
H1051 C1066 0.959 . S
H1052 C1066 0.961 . S
H1053 C1067 0.960 . S
H1054 C1067 0.961 . S
H1055 C1067 0.959 . S
H1056 C1070 0.929 . S
H1057 C1071 0.931 . S
H1058 C1073 0.930 . S
C1059 H1047 0.930 . S
C1059 C1060 1.399 1_556 S
C1059 C1064 1.399 . S
C1060 C1059 1.399 1_554 S
C1060 C1061 1.376 . S
C1061 H1048 0.930 . S
C1061 C1060 1.376 . S
C1061 C1062 1.388 . S
C1062 H1049 0.930 . S
C1062 C1061 1.388 . S
C1062 C1063 1.390 . S
C1063 C1062 1.390 . S
C1063 C1064 1.394 1_554 S
C1063 C1069 1.472 . S
C1064 C1059 1.399 . S
C1064 C1063 1.394 1_556 S
C1064 C1065 1.516 . S
C1065 C1064 1.516 . S
C1065 C1066 1.502 . S
C1065 C1067 1.561 . S
C1065 C1068 1.526 . S
C1066 H1050 0.959 . S
C1066 H1051 0.959 . S
C1066 H1052 0.961 . S
C1066 C1065 1.502 . S
C1067 H1053 0.960 . S
C1067 H1054 0.961 . S
C1067 H1055 0.959 . S
C1067 C1065 1.561 . S
C1068 C1065 1.526 . S
C1068 C1069 1.356 1_556 S
C1068 C1073 1.390 . S
C1069 C1063 1.472 . S
C1069 C1068 1.356 1_554 S
C1069 C1070 1.425 . S
C1070 H1056 0.929 . S
C1070 C1069 1.425 . S
C1070 C1071 1.385 . S
C1071 H1057 0.931 . S
C1071 C1070 1.385 . S
C1071 C1072 1.389 1_554 S
C1072 C1071 1.389 1_556 S
C1072 C1073 1.387 . S
C1073 H1058 0.930 . S
C1073 C1068 1.390 . S
C1073 C1072 1.387 . S
H1074 C1086 0.930 . S
H1075 C1088 0.930 . S
H1076 C1089 0.930 . S
H1077 C1093 0.959 . S
H1078 C1093 0.959 . S
H1079 C1093 0.961 . S
H1080 C1094 0.960 . S
H1081 C1094 0.961 . S
H1082 C1094 0.959 . S
H1083 C1097 0.929 . S
H1084 C1098 0.931 . S
H1085 C1100 0.930 . S
C1086 H1074 0.930 . S
C1086 C1087 1.399 . S
C1086 C1091 1.399 . S
C1087 C1086 1.399 . S
C1087 C1088 1.376 . S
C1088 H1075 0.930 . S
C1088 C1087 1.376 . S
C1088 C1089 1.388 . S
C1089 H1076 0.930 . S
C1089 C1088 1.388 . S
C1089 C1090 1.390 . S
C1090 C1089 1.390 . S
C1090 C1091 1.394 . S
C1090 C1096 1.465 . S
C1091 C1086 1.399 . S
C1091 C1090 1.394 . S
C1091 C1092 1.516 . S
C1092 C1091 1.516 . S
C1092 C1093 1.502 . S
C1092 C1094 1.561 . S
C1092 C1095 1.526 . S
C1093 H1077 0.959 . S
C1093 H1078 0.959 . S
C1093 H1079 0.961 . S
C1093 C1092 1.502 . S
C1094 H1080 0.960 . S
C1094 H1081 0.961 . S
C1094 H1082 0.959 . S
C1094 C1092 1.561 . S
C1095 C1092 1.526 . S
C1095 C1096 1.396 . S
C1095 C1100 1.390 . S
C1096 C1090 1.465 . S
C1096 C1095 1.396 . S
C1096 C1097 1.399 . S
C1097 H1083 0.929 . S
C1097 C1096 1.399 . S
C1097 C1098 1.385 . S
C1098 H1084 0.931 . S
C1098 C1097 1.385 . S
C1098 C1099 1.389 . S
C1099 C1098 1.389 . S
C1099 C1100 1.387 . S
C1100 H1085 0.930 . S
C1100 C1095 1.390 . S
C1100 C1099 1.387 . S
H1101 C1113 0.930 . S
H1102 C1115 0.930 . S
H1103 C1116 0.930 . S
H1104 C1120 0.959 . S
H1105 C1120 0.959 . S
H1106 C1120 0.961 . S
H1107 C1121 0.960 . S
H1108 C1121 0.961 . S
H1109 C1121 0.959 . S
H1110 C1124 0.929 . S
H1111 C1125 0.931 . S
H1112 C1127 0.930 . S
C1113 H1101 0.930 . S
C1113 C1114 1.399 . S
C1113 C1118 1.399 . S
C1114 C1113 1.399 . S
C1114 C1115 1.376 . S
C1115 H1102 0.930 . S
C1115 C1114 1.376 . S
C1115 C1116 1.388 . S
C1116 H1103 0.930 . S
C1116 C1115 1.388 . S
C1116 C1117 1.390 . S
C1117 C1116 1.390 . S
C1117 C1118 1.394 . S
C1117 C1123 1.465 . S
C1118 C1113 1.399 . S
C1118 C1117 1.394 . S
C1118 C1119 1.516 . S
C1119 C1118 1.516 . S
C1119 C1120 1.502 . S
C1119 C1121 1.561 . S
C1119 C1122 1.526 . S
C1120 H1104 0.959 . S
C1120 H1105 0.959 . S
C1120 H1106 0.961 . S
C1120 C1119 1.502 . S
C1121 H1107 0.960 . S
C1121 H1108 0.961 . S
C1121 H1109 0.959 . S
C1121 C1119 1.561 . S
C1122 C1119 1.526 . S
C1122 C1123 1.396 . S
C1122 C1127 1.390 . S
C1123 C1117 1.465 . S
C1123 C1122 1.396 . S
C1123 C1124 1.399 . S
C1124 H1110 0.929 . S
C1124 C1123 1.399 . S
C1124 C1125 1.385 . S
C1125 H1111 0.931 . S
C1125 C1124 1.385 . S
C1125 C1126 1.389 . S
C1126 C1125 1.389 . S
C1126 C1127 1.387 . S
C1127 H1112 0.930 . S
C1127 C1122 1.390 . S
C1127 C1126 1.387 . S
H1128 C1140 0.930 . S
H1129 C1142 0.930 . S
H1130 C1143 0.930 . S
H1131 C1147 0.959 . S
H1132 C1147 0.959 . S
H1133 C1147 0.961 . S
H1134 C1148 0.960 . S
H1135 C1148 0.961 . S
H1136 C1148 0.959 . S
H1137 C1151 0.929 . S
H1138 C1152 0.931 . S
H1139 C1154 0.930 . S
C1140 H1128 0.930 . S
C1140 C1141 1.399 . S
C1140 C1145 1.399 . S
C1141 C1140 1.399 . S
C1141 C1142 1.376 . S
C1142 H1129 0.930 . S
C1142 C1141 1.376 . S
C1142 C1143 1.388 . S
C1143 H1130 0.930 . S
C1143 C1142 1.388 . S
C1143 C1144 1.390 . S
C1144 C1143 1.390 . S
C1144 C1145 1.394 . S
C1144 C1150 1.465 . S
C1145 C1140 1.399 . S
C1145 C1144 1.394 . S
C1145 C1146 1.516 . S
C1146 C1145 1.516 . S
C1146 C1147 1.502 . S
C1146 C1148 1.561 . S
C1146 C1149 1.526 . S
C1147 H1131 0.959 . S
C1147 H1132 0.959 . S
C1147 H1133 0.961 . S
C1147 C1146 1.502 . S
C1148 H1134 0.960 . S
C1148 H1135 0.961 . S
C1148 H1136 0.959 . S
C1148 C1146 1.561 . S
C1149 C1146 1.526 . S
C1149 C1150 1.396 . S
C1149 C1154 1.390 . S
C1150 C1144 1.465 . S
C1150 C1149 1.396 . S
C1150 C1151 1.399 . S
C1151 H1137 0.929 . S
C1151 C1150 1.399 . S
C1151 C1152 1.385 . S
C1152 H1138 0.931 . S
C1152 C1151 1.385 . S
C1152 C1153 1.389 . S
C1153 C1152 1.389 . S
C1153 C1154 1.387 . S
C1154 H1139 0.930 . S
C1154 C1149 1.390 . S
C1154 C1153 1.387 . S
H1155 C1167 0.930 . S
H1156 C1169 0.930 . S
H1157 C1170 0.930 . S
H1158 C1174 0.959 . S
H1159 C1174 0.959 . S
H1160 C1174 0.961 . S
H1161 C1175 0.960 . S
H1162 C1175 0.961 . S
H1163 C1175 0.959 . S
H1164 C1178 0.929 . S
H1165 C1179 0.931 . S
H1166 C1181 0.930 . S
C1167 H1155 0.930 . S
C1167 C1168 1.399 . S
C1167 C1172 1.399 . S
C1168 C1167 1.399 . S
C1168 C1169 1.376 . S
C1169 H1156 0.930 . S
C1169 C1168 1.376 . S
C1169 C1170 1.388 . S
C1170 H1157 0.930 . S
C1170 C1169 1.388 . S
C1170 C1171 1.390 . S
C1171 C1170 1.390 . S
C1171 C1172 1.394 . S
C1171 C1177 1.465 . S
C1172 C1167 1.399 . S
C1172 C1171 1.394 . S
C1172 C1173 1.516 . S
C1173 C1172 1.516 . S
C1173 C1174 1.502 . S
C1173 C1175 1.561 . S
C1173 C1176 1.526 . S
C1174 H1158 0.959 . S
C1174 H1159 0.959 . S
C1174 H1160 0.961 . S
C1174 C1173 1.502 . S
C1175 H1161 0.960 . S
C1175 H1162 0.961 . S
C1175 H1163 0.959 . S
C1175 C1173 1.561 . S
C1176 C1173 1.526 . S
C1176 C1177 1.396 . S
C1176 C1181 1.390 . S
C1177 C1171 1.465 . S
C1177 C1176 1.396 . S
C1177 C1178 1.399 . S
C1178 H1164 0.929 . S
C1178 C1177 1.399 . S
C1178 C1179 1.385 . S
C1179 H1165 0.931 . S
C1179 C1178 1.385 . S
C1179 C1180 1.389 . S
C1180 C1179 1.389 . S
C1180 C1181 1.387 . S
C1181 H1166 0.930 . S
C1181 C1176 1.390 . S
C1181 C1180 1.387 . S
H1182 C1194 0.930 . S
H1183 C1196 0.930 . S
H1184 C1197 0.930 . S
H1185 C1201 0.959 . S
H1186 C1201 0.959 . S
H1187 C1201 0.961 . S
H1188 C1202 0.960 . S
H1189 C1202 0.961 . S
H1190 C1202 0.959 . S
H1191 C1205 0.929 . S
H1192 C1206 0.931 . S
H1193 C1208 0.930 . S
C1194 H1182 0.930 . S
C1194 C1195 1.399 . S
C1194 C1199 1.399 . S
C1195 C1194 1.399 . S
C1195 C1196 1.376 . S
C1196 H1183 0.930 . S
C1196 C1195 1.376 . S
C1196 C1197 1.388 . S
C1197 H1184 0.930 . S
C1197 C1196 1.388 . S
C1197 C1198 1.390 . S
C1198 C1197 1.390 . S
C1198 C1199 1.394 . S
C1198 C1204 1.465 . S
C1199 C1194 1.399 . S
C1199 C1198 1.394 . S
C1199 C1200 1.516 . S
C1200 C1199 1.516 . S
C1200 C1201 1.502 . S
C1200 C1202 1.561 . S
C1200 C1203 1.526 . S
C1201 H1185 0.959 . S
C1201 H1186 0.959 . S
C1201 H1187 0.961 . S
C1201 C1200 1.502 . S
C1202 H1188 0.960 . S
C1202 H1189 0.961 . S
C1202 H1190 0.959 . S
C1202 C1200 1.561 . S
C1203 C1200 1.526 . S
C1203 C1204 1.396 . S
C1203 C1208 1.390 . S
C1204 C1198 1.465 . S
C1204 C1203 1.396 . S
C1204 C1205 1.399 . S
C1205 H1191 0.929 . S
C1205 C1204 1.399 . S
C1205 C1206 1.385 . S
C1206 H1192 0.931 . S
C1206 C1205 1.385 . S
C1206 C1207 1.389 . S
C1207 C1206 1.389 . S
C1207 C1208 1.387 . S
C1208 H1193 0.930 . S
C1208 C1203 1.390 . S
C1208 C1207 1.387 . S
H1209 C1221 0.930 . S
H1210 C1223 0.930 . S
H1211 C1224 0.930 . S
H1212 C1228 0.959 . S
H1213 C1228 0.959 . S
H1214 C1228 0.961 . S
H1215 C1229 0.960 . S
H1216 C1229 0.961 . S
H1217 C1229 0.959 . S
H1218 C1232 0.929 . S
H1219 C1233 0.931 . S
H1220 C1235 0.930 . S
C1221 H1209 0.930 . S
C1221 C1222 1.399 . S
C1221 C1226 1.399 . S
C1222 C1221 1.399 . S
C1222 C1223 1.376 . S
C1223 H1210 0.930 . S
C1223 C1222 1.376 . S
C1223 C1224 1.388 . S
C1224 H1211 0.930 . S
C1224 C1223 1.388 . S
C1224 C1225 1.390 . S
C1225 C1224 1.390 . S
C1225 C1226 1.394 . S
C1225 C1231 1.465 . S
C1226 C1221 1.399 . S
C1226 C1225 1.394 . S
C1226 C1227 1.516 . S
C1227 C1226 1.516 . S
C1227 C1228 1.502 . S
C1227 C1229 1.561 . S
C1227 C1230 1.526 . S
C1228 H1212 0.959 . S
C1228 H1213 0.959 . S
C1228 H1214 0.961 . S
C1228 C1227 1.502 . S
C1229 H1215 0.960 . S
C1229 H1216 0.961 . S
C1229 H1217 0.959 . S
C1229 C1227 1.561 . S
C1230 C1227 1.526 . S
C1230 C1231 1.396 . S
C1230 C1235 1.390 . S
C1231 C1225 1.465 . S
C1231 C1230 1.396 . S
C1231 C1232 1.399 . S
C1232 H1218 0.929 . S
C1232 C1231 1.399 . S
C1232 C1233 1.385 . S
C1233 H1219 0.931 . S
C1233 C1232 1.385 . S
C1233 C1234 1.389 . S
C1234 C1233 1.389 . S
C1234 C1235 1.387 . S
C1235 H1220 0.930 . S
C1235 C1230 1.390 . S
C1235 C1234 1.387 . S
H1236 C1248 0.930 . S
H1237 C1250 0.930 . S
H1238 C1251 0.930 . S
H1239 C1255 0.959 . S
H1240 C1255 0.959 . S
H1241 C1255 0.961 . S
H1242 C1256 0.960 . S
H1243 C1256 0.961 . S
H1244 C1256 0.959 . S
H1245 C1259 0.929 . S
H1246 C1260 0.931 . S
H1247 C1262 0.930 . S
C1248 H1236 0.930 . S
C1248 C1249 1.399 . S
C1248 C1253 1.399 . S
C1249 C1248 1.399 . S
C1249 C1250 1.376 . S
C1250 H1237 0.930 . S
C1250 C1249 1.376 . S
C1250 C1251 1.388 . S
C1251 H1238 0.930 . S
C1251 C1250 1.388 . S
C1251 C1252 1.390 . S
C1252 C1251 1.390 . S
C1252 C1253 1.394 . S
C1252 C1258 1.465 . S
C1253 C1248 1.399 . S
C1253 C1252 1.394 . S
C1253 C1254 1.516 . S
C1254 C1253 1.516 . S
C1254 C1255 1.502 . S
C1254 C1256 1.561 . S
C1254 C1257 1.526 . S
C1255 H1239 0.959 . S
C1255 H1240 0.959 . S
C1255 H1241 0.961 . S
C1255 C1254 1.502 . S
C1256 H1242 0.960 . S
C1256 H1243 0.961 . S
C1256 H1244 0.959 . S
C1256 C1254 1.561 . S
C1257 C1254 1.526 . S
C1257 C1258 1.396 . S
C1257 C1262 1.390 . S
C1258 C1252 1.465 . S
C1258 C1257 1.396 . S
C1258 C1259 1.399 . S
C1259 H1245 0.929 . S
C1259 C1258 1.399 . S
C1259 C1260 1.385 . S
C1260 H1246 0.931 . S
C1260 C1259 1.385 . S
C1260 C1261 1.389 . S
C1261 C1260 1.389 . S
C1261 C1262 1.387 . S
C1262 H1247 0.930 . S
C1262 C1257 1.390 . S
C1262 C1261 1.387 . S
H1263 C1275 0.930 . S
H1264 C1277 0.930 . S
H1265 C1278 0.930 . S
H1266 C1282 0.959 . S
H1267 C1282 0.959 . S
H1268 C1282 0.961 . S
H1269 C1283 0.960 . S
H1270 C1283 0.961 . S
H1271 C1283 0.959 . S
H1272 C1286 0.929 . S
H1273 C1287 0.931 . S
H1274 C1289 0.930 . S
C1275 H1263 0.930 . S
C1275 C1276 1.399 . S
C1275 C1280 1.399 . S
C1276 C1275 1.399 . S
C1276 C1277 1.376 . S
C1277 H1264 0.930 . S
C1277 C1276 1.376 . S
C1277 C1278 1.388 . S
C1278 H1265 0.930 . S
C1278 C1277 1.388 . S
C1278 C1279 1.390 . S
C1279 C1278 1.390 . S
C1279 C1280 1.394 . S
C1279 C1285 1.465 . S
C1280 C1275 1.399 . S
C1280 C1279 1.394 . S
C1280 C1281 1.516 . S
C1281 C1280 1.516 . S
C1281 C1282 1.502 . S
C1281 C1283 1.561 . S
C1281 C1284 1.526 . S
C1282 H1266 0.959 . S
C1282 H1267 0.959 . S
C1282 H1268 0.961 . S
C1282 C1281 1.502 . S
C1283 H1269 0.960 . S
C1283 H1270 0.961 . S
C1283 H1271 0.959 . S
C1283 C1281 1.561 . S
C1284 C1281 1.526 . S
C1284 C1285 1.396 . S
C1284 C1289 1.390 . S
C1285 C1279 1.465 . S
C1285 C1284 1.396 . S
C1285 C1286 1.399 . S
C1286 H1272 0.929 . S
C1286 C1285 1.399 . S
C1286 C1287 1.385 . S
C1287 H1273 0.931 . S
C1287 C1286 1.385 . S
C1287 C1288 1.389 . S
C1288 C1287 1.389 . S
C1288 C1289 1.387 . S
C1289 H1274 0.930 . S
C1289 C1284 1.390 . S
C1289 C1288 1.387 . S
H1290 C1302 0.930 . S
H1291 C1304 0.930 . S
H1292 C1305 0.930 . S
H1293 C1309 0.959 . S
H1294 C1309 0.959 . S
H1295 C1309 0.961 . S
H1296 C1310 0.960 . S
H1297 C1310 0.961 . S
H1298 C1310 0.959 . S
H1299 C1313 0.929 . S
H1300 C1314 0.931 . S
H1301 C1316 0.930 . S
C1302 H1290 0.930 . S
C1302 C1303 1.399 . S
C1302 C1307 1.399 . S
C1303 C1302 1.399 . S
C1303 C1304 1.376 . S
C1304 H1291 0.930 . S
C1304 C1303 1.376 . S
C1304 C1305 1.388 . S
C1305 H1292 0.930 . S
C1305 C1304 1.388 . S
C1305 C1306 1.390 . S
C1306 C1305 1.390 . S
C1306 C1307 1.394 . S
C1306 C1312 1.465 . S
C1307 C1302 1.399 . S
C1307 C1306 1.394 . S
C1307 C1308 1.516 . S
C1308 C1307 1.516 . S
C1308 C1309 1.502 . S
C1308 C1310 1.561 . S
C1308 C1311 1.526 . S
C1309 H1293 0.959 . S
C1309 H1294 0.959 . S
C1309 H1295 0.961 . S
C1309 C1308 1.502 . S
C1310 H1296 0.960 . S
C1310 H1297 0.961 . S
C1310 H1298 0.959 . S
C1310 C1308 1.561 . S
C1311 C1308 1.526 . S
C1311 C1312 1.396 . S
C1311 C1316 1.390 . S
C1312 C1306 1.465 . S
C1312 C1311 1.396 . S
C1312 C1313 1.399 . S
C1313 H1299 0.929 . S
C1313 C1312 1.399 . S
C1313 C1314 1.385 . S
C1314 H1300 0.931 . S
C1314 C1313 1.385 . S
C1314 C1315 1.389 . S
C1315 C1314 1.389 . S
C1315 C1316 1.387 . S
C1316 H1301 0.930 . S
C1316 C1311 1.390 . S
C1316 C1315 1.387 . S
H1317 C1329 0.930 . S
H1318 C1331 0.930 . S
H1319 C1332 0.930 . S
H1320 C1336 0.959 . S
H1321 C1336 0.959 . S
H1322 C1336 0.961 . S
H1323 C1337 0.960 . S
H1324 C1337 0.961 . S
H1325 C1337 0.959 . S
H1326 C1340 0.929 . S
H1327 C1341 0.931 . S
H1328 C1343 0.930 . S
C1329 H1317 0.930 . S
C1329 C1330 1.399 . S
C1329 C1334 1.399 . S
C1330 C1329 1.399 . S
C1330 C1331 1.376 . S
C1331 H1318 0.930 . S
C1331 C1330 1.376 . S
C1331 C1332 1.388 . S
C1332 H1319 0.930 . S
C1332 C1331 1.388 . S
C1332 C1333 1.390 . S
C1333 C1332 1.390 . S
C1333 C1334 1.394 . S
C1333 C1339 1.465 . S
C1334 C1329 1.399 . S
C1334 C1333 1.394 . S
C1334 C1335 1.516 . S
C1335 C1334 1.516 . S
C1335 C1336 1.502 . S
C1335 C1337 1.561 . S
C1335 C1338 1.526 . S
C1336 H1320 0.959 . S
C1336 H1321 0.959 . S
C1336 H1322 0.961 . S
C1336 C1335 1.502 . S
C1337 H1323 0.960 . S
C1337 H1324 0.961 . S
C1337 H1325 0.959 . S
C1337 C1335 1.561 . S
C1338 C1335 1.526 . S
C1338 C1339 1.396 . S
C1338 C1343 1.390 . S
C1339 C1333 1.465 . S
C1339 C1338 1.396 . S
C1339 C1340 1.399 . S
C1340 H1326 0.929 . S
C1340 C1339 1.399 . S
C1340 C1341 1.385 . S
C1341 H1327 0.931 . S
C1341 C1340 1.385 . S
C1341 C1342 1.389 . S
C1342 C1341 1.389 . S
C1342 C1343 1.387 . S
C1343 H1328 0.930 . S
C1343 C1338 1.390 . S
C1343 C1342 1.387 . S
H1344 C1356 0.930 . S
H1345 C1358 0.930 . S
H1346 C1359 0.930 . S
H1347 C1363 0.959 . S
H1348 C1363 0.959 . S
H1349 C1363 0.961 . S
H1350 C1364 0.960 . S
H1351 C1364 0.961 . S
H1352 C1364 0.959 . S
H1353 C1367 0.929 . S
H1354 C1368 0.931 . S
H1355 C1370 0.930 . S
C1356 H1344 0.930 . S
C1356 C1357 1.399 . S
C1356 C1361 1.399 . S
C1357 C1356 1.399 . S
C1357 C1358 1.376 . S
C1358 H1345 0.930 . S
C1358 C1357 1.376 . S
C1358 C1359 1.388 . S
C1359 H1346 0.930 . S
C1359 C1358 1.388 . S
C1359 C1360 1.390 . S
C1360 C1359 1.390 . S
C1360 C1361 1.394 . S
C1360 C1366 1.465 . S
C1361 C1356 1.399 . S
C1361 C1360 1.394 . S
C1361 C1362 1.516 . S
C1362 C1361 1.516 . S
C1362 C1363 1.502 . S
C1362 C1364 1.561 . S
C1362 C1365 1.526 . S
C1363 H1347 0.959 . S
C1363 H1348 0.959 . S
C1363 H1349 0.961 . S
C1363 C1362 1.502 . S
C1364 H1350 0.960 . S
C1364 H1351 0.961 . S
C1364 H1352 0.959 . S
C1364 C1362 1.561 . S
C1365 C1362 1.526 . S
C1365 C1366 1.396 . S
C1365 C1370 1.390 . S
C1366 C1360 1.465 . S
C1366 C1365 1.396 . S
C1366 C1367 1.399 . S
C1367 H1353 0.929 . S
C1367 C1366 1.399 . S
C1367 C1368 1.385 . S
C1368 H1354 0.931 . S
C1368 C1367 1.385 . S
C1368 C1369 1.389 . S
C1369 C1368 1.389 . S
C1369 C1370 1.387 . S
C1370 H1355 0.930 . S
C1370 C1365 1.390 . S
C1370 C1369 1.387 . S
H1371 C1383 0.930 . S
H1372 C1385 0.930 . S
H1373 C1386 0.930 . S
H1374 C1390 0.959 . S
H1375 C1390 0.959 . S
H1376 C1390 0.961 . S
H1377 C1391 0.960 . S
H1378 C1391 0.961 . S
H1379 C1391 0.959 . S
H1380 C1394 0.929 . S
H1381 C1395 0.931 . S
H1382 C1397 0.930 . S
C1383 H1371 0.930 . S
C1383 C1384 1.399 . S
C1383 C1388 1.399 . S
C1384 C1383 1.399 . S
C1384 C1385 1.376 . S
C1385 H1372 0.930 . S
C1385 C1384 1.376 . S
C1385 C1386 1.388 . S
C1386 H1373 0.930 . S
C1386 C1385 1.388 . S
C1386 C1387 1.390 . S
C1387 C1386 1.390 . S
C1387 C1388 1.394 . S
C1387 C1393 1.465 . S
C1388 C1383 1.399 . S
C1388 C1387 1.394 . S
C1388 C1389 1.516 . S
C1389 C1388 1.516 . S
C1389 C1390 1.502 . S
C1389 C1391 1.561 . S
C1389 C1392 1.526 . S
C1390 H1374 0.959 . S
C1390 H1375 0.959 . S
C1390 H1376 0.961 . S
C1390 C1389 1.502 . S
C1391 H1377 0.960 . S
C1391 H1378 0.961 . S
C1391 H1379 0.959 . S
C1391 C1389 1.561 . S
C1392 C1389 1.526 . S
C1392 C1393 1.396 . S
C1392 C1397 1.390 . S
C1393 C1387 1.465 . S
C1393 C1392 1.396 . S
C1393 C1394 1.399 . S
C1394 H1380 0.929 . S
C1394 C1393 1.399 . S
C1394 C1395 1.385 . S
C1395 H1381 0.931 . S
C1395 C1394 1.385 . S
C1395 C1396 1.389 . S
C1396 C1395 1.389 . S
C1396 C1397 1.387 . S
C1397 H1382 0.930 . S
C1397 C1392 1.390 . S
C1397 C1396 1.387 . S
H1398 C1410 0.930 . S
H1399 C1412 0.930 . S
H1400 C1413 0.930 . S
H1401 C1417 0.959 . S
H1402 C1417 0.959 . S
H1403 C1417 0.961 . S
H1404 C1418 0.960 . S
H1405 C1418 0.961 . S
H1406 C1418 0.959 . S
H1407 C1421 0.929 . S
H1408 C1422 0.931 . S
H1409 C1424 0.930 . S
C1410 H1398 0.930 . S
C1410 C1411 1.399 . S
C1410 C1415 1.399 . S
C1411 C1410 1.399 . S
C1411 C1412 1.376 . S
C1412 H1399 0.930 . S
C1412 C1411 1.376 . S
C1412 C1413 1.388 . S
C1413 H1400 0.930 . S
C1413 C1412 1.388 . S
C1413 C1414 1.390 . S
C1414 C1413 1.390 . S
C1414 C1415 1.394 . S
C1414 C1420 1.465 . S
C1415 C1410 1.399 . S
C1415 C1414 1.394 . S
C1415 C1416 1.516 . S
C1416 C1415 1.516 . S
C1416 C1417 1.502 . S
C1416 C1418 1.561 . S
C1416 C1419 1.526 . S
C1417 H1401 0.959 . S
C1417 H1402 0.959 . S
C1417 H1403 0.961 . S
C1417 C1416 1.502 . S
C1418 H1404 0.960 . S
C1418 H1405 0.961 . S
C1418 H1406 0.959 . S
C1418 C1416 1.561 . S
C1419 C1416 1.526 . S
C1419 C1420 1.396 . S
C1419 C1424 1.390 . S
C1420 C1414 1.465 . S
C1420 C1419 1.396 . S
C1420 C1421 1.399 . S
C1421 H1407 0.929 . S
C1421 C1420 1.399 . S
C1421 C1422 1.385 . S
C1422 H1408 0.931 . S
C1422 C1421 1.385 . S
C1422 C1423 1.389 . S
C1423 C1422 1.389 . S
C1423 C1424 1.387 . S
C1424 H1409 0.930 . S
C1424 C1419 1.390 . S
C1424 C1423 1.387 . S
H1425 C1437 0.930 . S
H1426 C1439 0.930 . S
H1427 C1440 0.930 . S
H1428 C1444 0.959 . S
H1429 C1444 0.959 . S
H1430 C1444 0.961 . S
H1431 C1445 0.960 . S
H1432 C1445 0.961 . S
H1433 C1445 0.959 . S
H1434 C1448 0.929 . S
H1435 C1449 0.931 . S
H1436 C1451 0.930 . S
C1437 H1425 0.930 . S
C1437 C1438 1.399 . S
C1437 C1442 1.399 . S
C1438 C1437 1.399 . S
C1438 C1439 1.376 . S
C1439 H1426 0.930 . S
C1439 C1438 1.376 . S
C1439 C1440 1.388 . S
C1440 H1427 0.930 . S
C1440 C1439 1.388 . S
C1440 C1441 1.390 . S
C1441 C1440 1.390 . S
C1441 C1442 1.394 . S
C1441 C1447 1.465 . S
C1442 C1437 1.399 . S
C1442 C1441 1.394 . S
C1442 C1443 1.516 . S
C1443 C1442 1.516 . S
C1443 C1444 1.502 . S
C1443 C1445 1.561 . S
C1443 C1446 1.526 . S
C1444 H1428 0.959 . S
C1444 H1429 0.959 . S
C1444 H1430 0.961 . S
C1444 C1443 1.502 . S
C1445 H1431 0.960 . S
C1445 H1432 0.961 . S
C1445 H1433 0.959 . S
C1445 C1443 1.561 . S
C1446 C1443 1.526 . S
C1446 C1447 1.396 . S
C1446 C1451 1.390 . S
C1447 C1441 1.465 . S
C1447 C1446 1.396 . S
C1447 C1448 1.399 . S
C1448 H1434 0.929 . S
C1448 C1447 1.399 . S
C1448 C1449 1.385 . S
C1449 H1435 0.931 . S
C1449 C1448 1.385 . S
C1449 C1450 1.389 . S
C1450 C1449 1.389 . S
C1450 C1451 1.387 . S
C1451 H1436 0.930 . S
C1451 C1446 1.390 . S
C1451 C1450 1.387 . S
C493 C231 1.930 . S
C505 C29 1.882 . S
C520 C69 2.066 . S
C532 C31 2.008 . S
C547 C109 2.053 . S
C559 C71 2.062 . S
C574 C111 1.885 . S
C586 C149 1.932 . S
C601 C151 2.012 . S
C613 C189 2.062 . S
C628 C229 2.064 . S
C640 C191 2.070 . S
C655 C311 1.909 . S
C667 C269 1.913 . S
C682 C309 2.066 . S
C694 C351 2.052 . S
C709 C391 2.067 . S
C721 C349 2.008 . S
C736 C431 1.918 . S
C748 C389 1.904 . S
C763 C471 2.078 . S
C775 C429 2.040 . S
C790 C271 2.005 . S
C802 C469 2.059 . S
C817 C442 3.266 . S
C829 C12 3.347 . S
C844 C52 2.576 . S
C856 C242 2.539 . S
C871 C282 2.930 . S
C883 C92 2.934 . S
C898 C322 3.299 . S
C910 C132 3.316 . S
C925 C362 2.546 . S
C937 C172 2.606 1_556 S
C952 C212 2.958 . S
C964 C402 2.910 . S
C979 C252 3.326 . S
C991 C42 3.274 . S
C1006 C292 2.962 . S
C1018 C82 2.905 . S
C1033 C122 2.580 . S
C1045 C332 2.567 . S
C1060 C162 3.269 . S
C1072 C372 3.350 . S
C1087 C412 2.930 . S
C1099 C202 2.898 . S
C1114 C452 2.566 . S
C1126 C2 2.555 . S
C1141 C257 2.947 . S
C1153 C17 2.929 . S
C1168 C57 1.896 . S
C1180 C297 1.928 . S
C1195 C337 1.886 . S
C1207 C97 1.942 . S
C1222 C137 2.934 . S
C1234 C377 2.942 . S
C1249 C417 1.908 . S
C1261 C177 1.918 . S
C1276 C457 1.916 . S
C1288 C217 1.936 . S
C1303 C248 1.038 . S
C1315 C8 0.910 . S
C1330 C288 0.468 . S
C1342 C48 0.767 . S
C1357 C328 0.703 . S
C1369 C88 0.573 . S
C1384 C128 0.926 . S
C1396 C368 1.020 . S
C1411 C408 0.580 . S
C1423 C168 0.676 . S
C1438 C448 0.559 . S
C1450 C208 0.708 . S
