# Generated by pormake.
# Topology neb, (4)-cn, num edge types: 1
# Building blocks:
#     Node 0, Type 0, BuildingBlock: QUQFOY_clean_sbu_3, # of connection points: 4
#     Node 1, Type 0, BuildingBlock: QUQFOY_clean_sbu_3, # of connection points: 4
#     Node 2, Type 0, BuildingBlock: QUQFOY_clean_sbu_3, # of connection points: 4
#     Node 3, Type 0, BuildingBlock: QUQFOY_clean_sbu_3, # of connection points: 4
#     Node 4, Type 0, BuildingBlock: QUQFOY_clean_sbu_3, # of connection points: 4
#     Node 5, Type 0, BuildingBlock: QUQFOY_clean_sbu_3, # of connection points: 4
#     Node 6, Type 0, BuildingBlock: QUQFOY_clean_sbu_3, # of connection points: 4
#     Node 7, Type 0, BuildingBlock: QUQFOY_clean_sbu_3, # of connection points: 4
#     Node 8, Type 0, BuildingBlock: QUQFOY_clean_sbu_3, # of connection points: 4
#     Node 9, Type 0, BuildingBlock: QUQFOY_clean_sbu_3, # of connection points: 4
#     Node 10, Type 0, BuildingBlock: QUQFOY_clean_sbu_3, # of connection points: 4
#     Node 11, Type 0, BuildingBlock: QUQFOY_clean_sbu_3, # of connection points: 4
#     Node 12, Type 0, BuildingBlock: QUQFOY_clean_sbu_3, # of connection points: 4
#     Node 13, Type 0, BuildingBlock: QUQFOY_clean_sbu_3, # of connection points: 4
#     Node 14, Type 0, BuildingBlock: QUQFOY_clean_sbu_3, # of connection points: 4
#     Node 15, Type 0, BuildingBlock: QUQFOY_clean_sbu_3, # of connection points: 4
#     Edge 16, Type (0, 0), BuildingBlock: EZIPEK_clean_linker_0, # of connection points: 2
#     Edge 17, Type (0, 0), BuildingBlock: EZIPEK_clean_linker_0, # of connection points: 2
#     Edge 18, Type (0, 0), BuildingBlock: EZIPEK_clean_linker_0, # of connection points: 2
#     Edge 19, Type (0, 0), BuildingBlock: EZIPEK_clean_linker_0, # of connection points: 2
#     Edge 20, Type (0, 0), BuildingBlock: EZIPEK_clean_linker_0, # of connection points: 2
#     Edge 21, Type (0, 0), BuildingBlock: EZIPEK_clean_linker_0, # of connection points: 2
#     Edge 22, Type (0, 0), BuildingBlock: EZIPEK_clean_linker_0, # of connection points: 2
#     Edge 23, Type (0, 0), BuildingBlock: EZIPEK_clean_linker_0, # of connection points: 2
#     Edge 24, Type (0, 0), BuildingBlock: EZIPEK_clean_linker_0, # of connection points: 2
#     Edge 25, Type (0, 0), BuildingBlock: EZIPEK_clean_linker_0, # of connection points: 2
#     Edge 26, Type (0, 0), BuildingBlock: EZIPEK_clean_linker_0, # of connection points: 2
#     Edge 27, Type (0, 0), BuildingBlock: EZIPEK_clean_linker_0, # of connection points: 2
#     Edge 28, Type (0, 0), BuildingBlock: EZIPEK_clean_linker_0, # of connection points: 2
#     Edge 29, Type (0, 0), BuildingBlock: EZIPEK_clean_linker_0, # of connection points: 2
#     Edge 30, Type (0, 0), BuildingBlock: EZIPEK_clean_linker_0, # of connection points: 2
#     Edge 31, Type (0, 0), BuildingBlock: EZIPEK_clean_linker_0, # of connection points: 2
#     Edge 32, Type (0, 0), BuildingBlock: EZIPEK_clean_linker_0, # of connection points: 2
#     Edge 33, Type (0, 0), BuildingBlock: EZIPEK_clean_linker_0, # of connection points: 2
#     Edge 34, Type (0, 0), BuildingBlock: EZIPEK_clean_linker_0, # of connection points: 2
#     Edge 35, Type (0, 0), BuildingBlock: EZIPEK_clean_linker_0, # of connection points: 2
#     Edge 36, Type (0, 0), BuildingBlock: EZIPEK_clean_linker_0, # of connection points: 2
#     Edge 37, Type (0, 0), BuildingBlock: EZIPEK_clean_linker_0, # of connection points: 2
#     Edge 38, Type (0, 0), BuildingBlock: EZIPEK_clean_linker_0, # of connection points: 2
#     Edge 39, Type (0, 0), BuildingBlock: EZIPEK_clean_linker_0, # of connection points: 2
#     Edge 40, Type (0, 0), BuildingBlock: EZIPEK_clean_linker_0, # of connection points: 2
#     Edge 41, Type (0, 0), BuildingBlock: EZIPEK_clean_linker_0, # of connection points: 2
#     Edge 42, Type (0, 0), BuildingBlock: EZIPEK_clean_linker_0, # of connection points: 2
#     Edge 43, Type (0, 0), BuildingBlock: EZIPEK_clean_linker_0, # of connection points: 2
#     Edge 44, Type (0, 0), BuildingBlock: EZIPEK_clean_linker_0, # of connection points: 2
#     Edge 45, Type (0, 0), BuildingBlock: EZIPEK_clean_linker_0, # of connection points: 2
#     Edge 46, Type (0, 0), BuildingBlock: EZIPEK_clean_linker_0, # of connection points: 2
#     Edge 47, Type (0, 0), BuildingBlock: EZIPEK_clean_linker_0, # of connection points: 2
# Relax obj value: 0.002
# Max RMSD: 0.025
# Mean RMSD: 0.025
data_MOF--net-neb--node1-QUQFOY_clean_sbu_3--edge1-EZIPEK_clean_linker_0
_symmetry_space_group_name_H-M    P1
_symmetry_Int_Tables_number       1
_symmetry_cell_setting            triclinic
loop_
_symmetry_equiv_pos_as_xyz
'x, y, z'
_cell_length_a     32.636096
_cell_length_b     17.167733
_cell_length_c     59.702345
_cell_angle_alpha  90.026251
_cell_angle_beta   93.581078
_cell_angle_gamma 89.628556
loop_
_atom_site_label
_atom_site_type_symbol
_atom_site_fract_x
_atom_site_fract_y
_atom_site_fract_z
_atom_type_partial_charge
C0 C 0.21027 0.11278 0.44886 0.0
O1 O 0.23287 0.07751 0.43558 0.0
Cd2 Cd 0.20142 0.0106 0.40338 0.0
O3 O 0.17154 0.10681 0.4467 0.0
Cd4 Cd 0.12131 0.03549 0.42279 0.0
C5 C 0.13871 0.15384 0.38117 0.0
O6 O 0.15164 0.91167 0.41073 0.0
O7 O 0.10285 0.96453 0.38944 0.0
O8 O 0.09028 0.98348 0.45532 0.0
C9 C 0.12513 0.90546 0.39426 0.0
O10 O 0.17009 0.11095 0.37871 0.0
C11 C 0.05502 0.01228 0.45028 0.0
O12 O 0.11604 0.14389 0.39746 0.0
O13 O 0.05043 0.05243 0.43243 0.0
C14 C 0.024 0.13568 0.76505 0.0
O15 O 0.00127 0.10968 0.77979 0.0
Cd16 Cd 0.02762 0.03614 0.81196 0.0
O17 O 0.06224 0.12078 0.76589 0.0
Cd18 Cd 0.11302 0.04663 0.78927 0.0
C19 C 0.09952 0.16689 0.83246 0.0
O20 O 0.07296 0.93495 0.80075 0.0
O21 O 0.13102 0.95739 0.81918 0.0
O22 O 0.14282 -0.00689 0.75634 0.0
C23 C 0.10019 0.91365 0.81565 0.0
O24 O 0.06608 0.13119 0.83506 0.0
C25 C 0.17818 0.02128 0.76104 0.0
O26 O 0.1217 0.15127 0.81625 0.0
O27 O 0.18337 0.06113 0.7789 0.0
C28 C 0.7738 0.84054 0.51766 0.0
O29 O 0.75209 0.86893 0.53261 0.0
Cd30 Cd 0.78181 0.94152 0.56416 0.0
O31 O 0.81202 0.85378 0.51775 0.0
Cd32 Cd 0.8642 0.92819 0.53957 0.0
C33 C 0.85489 0.80887 0.58318 0.0
O34 O 0.82674 0.04193 0.55262 0.0
O35 O 0.88568 0.01344 0.56963 0.0
O36 O 0.89016 -0.01329 0.50639 0.0
C37 C 0.85555 0.06011 0.56695 0.0
O38 O 0.82169 0.84536 0.58641 0.0
C39 C 0.92542 0.95532 0.50918 0.0
O40 O 0.8759 0.82385 0.56648 0.0
O41 O 0.93218 0.91075 0.52598 0.0
C42 C 0.95066 0.81918 0.19973 0.0
O43 O 0.97381 0.84399 0.18504 0.0
Cd44 Cd 0.94667 0.91747 0.15295 0.0
O45 O 0.91296 0.83807 0.19919 0.0
Cd46 Cd 0.86513 0.92166 0.17683 0.0
C47 C 0.86877 0.79511 0.13478 0.0
O48 O 0.90649 0.02834 0.16284 0.0
O49 O 0.84736 0.00426 0.14557 0.0
O50 O 0.84524 -0.01472 0.21078 0.0
C51 C 0.87836 0.04806 0.1482 0.0
O52 O 0.9031 0.82634 0.13136 0.0
C53 C 0.80757 0.96806 0.20772 0.0
O54 O 0.8483 0.81482 0.15136 0.0
O55 O 0.79659 0.92877 0.19036 0.0
C56 C 0.19904 0.63747 0.94399 0.0
O57 O 0.22066 0.61011 0.92887 0.0
Cd58 Cd 0.19143 0.53592 0.89759 0.0
O59 O 0.16096 0.62288 0.94416 0.0
Cd60 Cd 0.10864 0.54743 0.92253 0.0
C61 C 0.11717 0.6671 0.87887 0.0
O62 O 0.14757 0.43492 0.90983 0.0
O63 O 0.08804 0.45908 0.89298 0.0
O64 O 0.08366 0.49331 0.95661 0.0
C65 C 0.119 0.41446 0.89565 0.0
O66 O 0.15057 0.63132 0.87563 0.0
C67 C 0.04754 0.52035 0.9531 0.0
O68 O 0.09621 0.65148 0.89554 0.0
O69 O 0.03978 0.56022 0.93542 0.0
C70 C 0.01713 0.60765 0.2676 0.0
O71 O -0.00334 0.57456 0.28223 0.0
Cd72 Cd 0.02962 0.50377 0.31361 0.0
O73 O 0.05589 0.60085 0.26801 0.0
Cd74 Cd 0.111 0.53422 0.28989 0.0
C75 C 0.09344 0.64921 0.33339 0.0
O76 O 0.08126 0.41346 0.30323 0.0
O77 O 0.13734 0.45605 0.32045 0.0
O78 O 0.13686 0.48182 0.25599 0.0
C79 C 0.11079 0.40278 0.31788 0.0
O80 O 0.06399 0.60319 0.33674 0.0
C81 C 0.17242 0.51059 0.2594 0.0
O82 O 0.11421 0.64271 0.3161 0.0
O83 O 0.17923 0.55281 0.27671 0.0
C84 C 0.77135 0.33126 0.01958 0.0
O85 O 0.74882 0.35604 0.03465 0.0
Cd86 Cd 0.77696 0.42449 0.06731 0.0
O87 O 0.80945 0.34634 0.02026 0.0
Cd88 Cd 0.85998 0.42102 0.04346 0.0
C89 C 0.85256 0.2953 0.08563 0.0
O90 O 0.81917 0.53054 0.05675 0.0
O91 O 0.87812 0.50648 0.07424 0.0
O92 O 0.88576 0.48011 0.01025 0.0
C93 C 0.84693 0.55046 0.07146 0.0
O94 O 0.8186 0.3289 0.089 0.0
C95 C 0.92198 0.4537 0.01385 0.0
O96 O 0.87346 0.31385 0.06919 0.0
O97 O 0.92954 0.41245 0.03128 0.0
C98 C 0.95775 0.34302 0.69585 0.0
O99 O 0.9794 0.37003 0.68075 0.0
Cd100 Cd 0.95023 0.44235 0.64895 0.0
O101 O 0.91941 0.35642 0.69559 0.0
Cd102 Cd 0.8666 0.42846 0.6731 0.0
C103 C 0.87883 0.30882 0.62963 0.0
O104 O 0.90444 0.5419 0.66083 0.0
O105 O 0.84567 0.5168 0.64347 0.0
O106 O 0.83836 0.48019 0.70672 0.0
C107 C 0.87607 0.56192 0.6464 0.0
O108 O 0.91169 0.34571 0.62646 0.0
C109 C 0.80305 0.45111 0.70251 0.0
O110 O 0.85748 0.32368 0.64624 0.0
O111 O 0.79725 0.41139 0.68467 0.0
C112 C 0.70554 0.1356 0.94776 0.0
O113 O 0.72741 0.11178 0.93228 0.0
Cd114 Cd 0.69809 0.04259 0.90002 0.0
O115 O 0.66757 0.11973 0.94756 0.0
Cd116 Cd 0.61676 0.04518 0.92451 0.0
C117 C 0.62205 0.17147 0.88238 0.0
O118 O 0.65645 0.93529 0.91041 0.0
O119 O 0.59752 0.96294 0.89333 0.0
O120 O 0.59282 0.98349 0.95785 0.0
C121 C 0.62801 0.91715 0.89587 0.0
O122 O 0.65576 0.13754 0.87866 0.0
C123 C 0.55602 0.00688 0.95435 0.0
O124 O 0.60181 0.15328 0.89912 0.0
O125 O 0.5475 0.04864 0.93713 0.0
C126 C 0.52375 0.13542 0.26541 0.0
O127 O 0.50111 0.09868 0.27823 0.0
Cd128 Cd 0.5312 0.0281 0.31035 0.0
O129 O 0.56251 0.13141 0.26817 0.0
Cd130 Cd 0.61288 0.0634 0.29299 0.0
C131 C 0.58786 0.17134 0.33608 0.0
O132 O 0.58447 0.93605 0.30269 0.0
O133 O 0.63216 -0.01405 0.32515 0.0
O134 O 0.64761 0.0133 0.26159 0.0
C135 C 0.61032 0.92762 0.31939 0.0
O136 O 0.5587 0.12308 0.3376 0.0
C137 C 0.68128 0.04744 0.26659 0.0
O138 O 0.61106 0.16856 0.31974 0.0
O139 O 0.68326 0.09107 0.28382 0.0
C140 C 0.26787 0.84334 0.01236 0.0
O141 O 0.24596 0.87813 0.02607 0.0
Cd142 Cd 0.27833 0.94078 0.05864 0.0
O143 O 0.30672 0.84706 0.01439 0.0
Cd144 Cd 0.35868 0.91358 0.03861 0.0
C145 C 0.34033 0.79494 0.08027 0.0
O146 O 0.3291 0.0373 0.05111 0.0
O147 O 0.37829 0.98412 0.07202 0.0
O148 O 0.39228 0.97152 0.00774 0.0
C149 C 0.35578 0.04315 0.06749 0.0
O150 O 0.30889 0.83774 0.08267 0.0
C151 C 0.42594 0.93518 0.01162 0.0
O152 O 0.36343 0.80569 0.06421 0.0
O153 O 0.42834 0.88752 0.02791 0.0
C154 C 0.45894 0.83504 0.69449 0.0
O155 O 0.48041 0.85757 0.67875 0.0
Cd156 Cd 0.45071 0.92882 0.64681 0.0
O157 O 0.42111 0.85264 0.69467 0.0
Cd158 Cd 0.36944 0.92799 0.67217 0.0
C159 C 0.37412 0.80278 0.62946 0.0
O160 O 0.40954 0.03656 0.65828 0.0
O161 O 0.34952 0.01471 0.64193 0.0
O162 O 0.34417 -0.01277 0.7057 0.0
C163 C 0.38089 0.05768 0.64416 0.0
O164 O 0.40785 0.83531 0.62548 0.0
C165 C 0.30819 0.96021 0.7024 0.0
O166 O 0.3544 0.82185 0.64635 0.0
O167 O 0.30067 0.9186 0.68507 0.0
C168 C 0.70467 0.6325 0.44991 0.0
O169 O 0.72637 0.59526 0.43659 0.0
Cd170 Cd 0.69419 0.52474 0.40526 0.0
O171 O 0.66581 0.62943 0.44791 0.0
Cd172 Cd 0.61407 0.56298 0.42377 0.0
C173 C 0.6372 0.67125 0.38068 0.0
O174 O 0.64152 0.43428 0.41401 0.0
O175 O 0.59501 0.48712 0.39126 0.0
O176 O 0.58173 0.51853 0.45663 0.0
C177 C 0.6157 0.42715 0.39728 0.0
O178 O 0.66546 0.62082 0.37851 0.0
C179 C 0.54646 0.54564 0.45072 0.0
O180 O 0.61518 0.67009 0.39754 0.0
O181 O 0.54255 0.58346 0.43241 0.0
C182 C 0.52318 0.6363 0.76625 0.0
O183 O 0.50022 0.6118 0.78108 0.0
Cd184 Cd 0.52775 0.54271 0.81392 0.0
O185 O 0.56131 0.62055 0.76728 0.0
Cd186 Cd 0.61115 0.54495 0.7909 0.0
C187 C 0.6023 0.67087 0.83292 0.0
O188 O 0.57074 0.43563 0.80406 0.0
O189 O 0.62912 0.46051 0.82192 0.0
O190 O 0.63794 0.48494 0.75799 0.0
C191 C 0.59838 0.41621 0.81899 0.0
O192 O 0.56837 0.6376 0.83606 0.0
C193 C 0.67393 0.51146 0.76176 0.0
O194 O 0.62362 0.65218 0.81661 0.0
O195 O 0.68088 0.55289 0.77918 0.0
C196 C 0.27215 0.3282 0.5167 0.0
O197 O 0.25 0.35092 0.53219 0.0
Cd198 Cd 0.27724 0.42731 0.56362 0.0
O199 O 0.30939 0.34879 0.51636 0.0
Cd200 Cd 0.35825 0.42906 0.53866 0.0
C201 C 0.3552 0.30415 0.5815 0.0
O202 O 0.31728 0.5366 0.55289 0.0
O203 O 0.377 0.51196 0.56961 0.0
O204 O 0.38064 0.49614 0.5058 0.0
C205 C 0.34583 0.5562 0.56722 0.0
O206 O 0.32117 0.33652 0.58538 0.0
C207 C 0.41724 0.47068 0.50817 0.0
O208 O 0.3748 0.32266 0.56454 0.0
O209 O 0.42631 0.4252 0.52453 0.0
C210 C 0.45669 0.34208 0.19639 0.0
O211 O 0.47812 0.37371 0.18194 0.0
Cd212 Cd 0.44751 0.44417 0.14983 0.0
O213 O 0.41795 0.34953 0.19535 0.0
Cd214 Cd 0.36467 0.41472 0.1718 0.0
C215 C 0.38525 0.29897 0.12886 0.0
O216 O 0.39505 0.53516 0.15872 0.0
O217 O 0.3404 0.49103 0.14036 0.0
O218 O 0.33498 0.47315 0.20375 0.0
C219 C 0.36648 0.54495 0.14345 0.0
O220 O 0.41485 0.34508 0.12593 0.0
C221 C 0.30076 0.43894 0.20069 0.0
O222 O 0.36349 0.30574 0.14576 0.0
O223 O 0.29627 0.39155 0.18437 0.0
C224 C 0.24773 0.19509 0.50552 0.0
C225 C 0.25564 0.27325 0.49944 0.0
C226 C 0.23942 0.24238 0.4598 0.0
C227 C 0.22835 0.16602 0.46612 0.0
N228 N 0.21701 0.07121 0.49482 0.0
N229 N 0.25439 0.37504 0.47164 0.0
C230 C 0.23101 0.14284 0.48896 0.0
C231 C 0.25042 0.29789 0.47677 0.0
N232 N 0.25796 0.16992 0.5269 0.0
N233 N 0.23946 0.26165 0.43757 0.0
H234 H 0.26226 0.41729 0.48369 0.0
H235 H 0.24679 0.39854 0.45585 0.0
H236 H 0.22997 0.22363 0.42466 0.0
H237 H 0.25147 0.31331 0.43174 0.0
H238 H 0.25738 0.1117 0.53173 0.0
H239 H 0.27025 0.20636 0.53956 0.0
H240 H 0.21342 0.05446 0.51134 0.0
H241 H 0.20651 0.02984 0.48305 0.0
C242 C 0.97088 0.90954 0.47972 0.0
C243 C 0.95755 0.97064 0.49354 0.0
C244 C 0.00478 0.06133 0.47699 0.0
C245 C 0.02061 -0.0014 0.4646 0.0
N246 N 0.02173 0.86189 0.45508 0.0
N247 N 0.96441 0.10169 0.50778 0.0
C248 C 0.00459 0.92226 0.46627 0.0
C249 C 0.97494 0.046 0.49273 0.0
N250 N 0.95014 0.84047 0.47878 0.0
N251 N 0.01842 0.13545 0.47381 0.0
H252 H 0.9427 0.09265 0.5196 0.0
H253 H 0.97929 0.15488 0.50983 0.0
H254 H 0.04216 0.14858 0.46356 0.0
H255 H 0.00463 0.18481 0.48021 0.0
H256 H 0.95533 0.79653 0.46726 0.0
H257 H 0.92517 0.82919 0.48835 0.0
H258 H 0.01499 0.8036 0.45779 0.0
H259 H 0.04461 0.86943 0.44386 0.0
C260 C 0.26101 0.9148 0.73098 0.0
C261 C 0.27612 0.97664 0.7181 0.0
C262 C 0.22803 0.06855 0.73405 0.0
C263 C 0.21228 0.00636 0.74653 0.0
N264 N 0.21636 0.87383 0.75982 0.0
N265 N 0.27222 0.1095 0.70503 0.0
C266 C 0.22927 0.93017 0.74568 0.0
C267 C 0.2595 0.05307 0.7192 0.0
N268 N 0.27686 0.84129 0.72888 0.0
N269 N 0.21299 0.14244 0.73659 0.0
H270 H 0.29517 0.10036 0.6939 0.0
H271 H 0.25862 0.1642 0.7031 0.0
H272 H 0.1882 0.15526 0.74619 0.0
H273 H 0.22606 0.19211 0.73018 0.0
H274 H 0.26452 0.79152 0.73565 0.0
H275 H 0.30205 0.82891 0.71954 0.0
H276 H 0.22966 0.81889 0.76174 0.0
H277 H 0.19345 0.88327 0.77096 0.0
C278 C 0.00238 0.16174 0.72482 0.0
C279 C 0.00655 0.18831 0.74735 0.0
C280 C 0.98105 0.31793 0.73588 0.0
C281 C 0.97655 0.29118 0.71337 0.0
N282 N 0.97725 0.18683 0.68633 0.0
N283 N 0.00627 0.29282 0.77435 0.0
C284 C 0.98608 0.21301 0.70775 0.0
C285 C -0.00268 0.26664 0.75294 0.0
N286 N 0.01476 0.0878 0.71977 0.0
N287 N 0.96886 0.392 0.74092 0.0
H288 H 0.01797 0.25693 0.78735 0.0
H289 H 0.00476 0.35094 0.77916 0.0
H290 H 0.95914 0.43265 0.7287 0.0
H291 H 0.96639 0.41268 0.75715 0.0
H292 H 0.01739 0.06727 0.70353 0.0
H293 H 0.02459 0.04719 0.73198 0.0
H294 H 0.97888 0.12872 0.68152 0.0
H295 H 0.96561 0.22269 0.67331 0.0
C296 C 0.75519 0.70641 0.50476 0.0
C297 C 0.75524 0.78773 0.50047 0.0
C298 C 0.72239 0.76694 0.46297 0.0
C299 C 0.72412 0.6853 0.46685 0.0
N300 N 0.74609 0.57559 0.48981 0.0
N301 N 0.74419 0.89602 0.47514 0.0
C302 C 0.7418 0.65447 0.48728 0.0
C303 C 0.74027 0.81825 0.47947 0.0
N304 N 0.76712 0.67929 0.52574 0.0
N305 N 0.70315 0.79529 0.44361 0.0
H306 H 0.75586 0.93564 0.48712 0.0
H307 H 0.73831 0.92092 0.45937 0.0
H308 H 0.69194 0.7596 0.4305 0.0
H309 H 0.69633 0.85393 0.44087 0.0
H310 H 0.764 0.62173 0.53076 0.0
H311 H 0.77775 0.71562 0.53882 0.0
H312 H 0.76254 0.54919 0.50326 0.0
H313 H 0.73543 0.53592 0.47759 0.0
C314 C 0.75042 -0.00979 0.26089 0.0
C315 C 0.71647 0.03613 0.25262 0.0
C316 C 0.74631 0.04784 0.21615 0.0
C317 C 0.77743 -0.0059 0.22354 0.0
N318 N 0.8079 0.90808 0.25195 0.0
N319 N 0.68042 0.10708 0.2225 0.0
C320 C 0.77953 0.96434 0.24575 0.0
C321 C 0.71398 0.06467 0.23028 0.0
N322 N 0.75459 0.97075 0.28313 0.0
N323 N 0.74858 0.08488 0.19598 0.0
H324 H 0.65757 0.12555 0.2328 0.0
H325 H 0.67411 0.1209 0.20566 0.0
H326 H 0.77214 0.07458 0.1853 0.0
H327 H 0.72929 0.13059 0.19062 0.0
H328 H 0.78085 0.94479 0.29068 0.0
H329 H 0.73302 -0.01426 0.29457 0.0
H330 H 0.80806 0.87742 0.26699 0.0
H331 H 0.82968 0.88736 0.24132 0.0
C332 C 0.98339 0.79517 0.23806 0.0
C333 C 0.96699 0.76511 0.21731 0.0
C334 C 0.97697 0.63138 0.23115 0.0
C335 C -0.00323 0.66139 0.25109 0.0
N336 N 0.02154 0.77026 0.27354 0.0
N337 N 0.95047 0.65641 0.19288 0.0
C338 C 0.00065 0.74295 0.25458 0.0
C339 C 0.96425 0.6836 0.21353 0.0
N340 N 0.98154 0.87354 0.2421 0.0
N341 N 0.97014 0.55308 0.22922 0.0
H342 H 0.94028 0.69305 0.17972 0.0
H343 H 0.95152 0.59812 0.18817 0.0
H344 H 0.97998 0.51326 0.24164 0.0
H345 H 0.95231 0.5278 0.21614 0.0
H346 H -0.01134 0.89866 0.25771 0.0
H347 H 0.97017 0.91367 0.23011 0.0
H348 H 0.02995 0.82819 0.2759 0.0
H349 H 0.03247 0.73413 0.28667 0.0
C350 C 0.23494 0.82251 0.97386 0.0
C351 C 0.24868 0.79172 -0.00495 0.0
C352 C 0.23377 0.65903 -0.0181 0.0
C353 C 0.21762 0.69019 0.9612 0.0
N354 N 0.19818 0.80055 0.93782 0.0
N355 N 0.25644 0.68351 0.02073 0.0
C356 C 0.21688 0.77175 0.95726 0.0
C357 C 0.24678 0.71066 -0.0005 0.0
N358 N 0.24027 0.89984 0.96945 0.0
N359 N 0.23739 0.58007 -0.01549 0.0
H360 H 0.26625 0.71972 0.03402 0.0
H361 H 0.2518 0.62634 0.02572 0.0
H362 H 0.22739 0.54062 0.97207 0.0
H363 H 0.25292 0.55348 -0.00176 0.0
H364 H 0.23522 0.92455 0.9536 0.0
H365 H 0.25229 0.93898 0.98148 0.0
H366 H 0.19228 0.85947 0.93497 0.0
H367 H 0.18622 0.76492 0.92488 0.0
C368 C 0.98309 0.45234 0.96177 0.0
C369 C 0.01534 0.50382 0.96864 0.0
C370 C 0.98661 0.52166 0.0053 0.0
C371 C 0.95423 0.47053 -0.00164 0.0
N372 N 0.91857 0.39214 0.96994 0.0
N373 N 0.05094 0.5826 -0.00303 0.0
C374 C 0.95157 0.43733 0.97655 0.0
C375 C 0.01802 0.53706 -0.00954 0.0
N376 N 0.98407 0.41442 0.94162 0.0
N377 N 0.9859 0.55862 0.02561 0.0
H378 H 0.07313 0.59915 -0.01389 0.0
H379 H 0.05763 0.60162 0.01332 0.0
H380 H 0.96325 0.54908 0.03685 0.0
H381 H 0.00606 0.60238 0.031 0.0
H382 H 0.96418 0.36995 0.93644 0.0
H383 H 0.0068 0.42352 0.93039 0.0
H384 H 0.91182 0.37383 0.95353 0.0
H385 H 0.89633 0.37541 0.98075 0.0
C386 C 0.25453 0.39866 0.23034 0.0
C387 C 0.26706 0.45614 0.21523 0.0
C388 C 0.21947 0.55109 0.23014 0.0
C389 C 0.20514 0.49225 0.2443 0.0
N390 N 0.20536 0.35837 0.25677 0.0
N391 N 0.25797 0.58247 0.19791 0.0
C392 C 0.22146 0.41536 0.24399 0.0
C393 C 0.24869 0.5313 0.21439 0.0
N394 N 0.2756 0.32958 0.23239 0.0
N395 N 0.20521 0.62585 0.23181 0.0
H396 H 0.27905 0.56982 0.18596 0.0
H397 H 0.24252 0.63497 0.19482 0.0
H398 H 0.18206 0.64175 0.24222 0.0
H399 H 0.21793 0.67321 0.22394 0.0
H400 H 0.2712 0.28871 0.24487 0.0
H401 H 0.29988 0.31516 0.22258 0.0
H402 H 0.21224 0.29942 0.25519 0.0
H403 H 0.18321 0.36916 0.26826 0.0
C404 C 0.71579 0.26741 0.96489 0.0
C405 C 0.72361 0.18595 0.96577 0.0
C406 C 0.75954 0.19952 0.00281 0.0
C407 C 0.75375 0.2814 0.00136 0.0
N408 N 0.73141 0.39541 0.98037 0.0
N409 N 0.75663 0.0745 -0.01625 0.0
C410 C 0.73314 0.31601 -0.01777 0.0
C411 C 0.7467 0.152 -0.0158 0.0
N412 N 0.69142 0.29801 0.94756 0.0
N413 N 0.77612 0.16723 0.0223 0.0
H414 H 0.74654 0.03747 0.97072 0.0
H415 H 0.77708 0.04769 -0.00455 0.0
H416 H 0.78596 0.20042 0.03624 0.0
H417 H 0.77741 0.10761 0.02541 0.0
H418 H 0.68038 0.35502 0.94721 0.0
H419 H 0.68027 0.26502 0.93385 0.0
H420 H 0.72098 0.42469 0.96584 0.0
H421 H 0.743 0.43271 -0.007 0.0
C422 C 0.73941 0.44427 0.75361 0.0
C423 C 0.70658 0.49481 0.74645 0.0
C424 C 0.73657 0.51504 0.71029 0.0
C425 C 0.76956 0.46492 0.7175 0.0
N426 N 0.80511 0.3858 0.74595 0.0
N427 N 0.67057 0.57234 0.71776 0.0
C428 C 0.77175 0.4306 0.73917 0.0
C429 C 0.70415 0.52835 0.72468 0.0
N430 N 0.73834 0.40635 0.77374 0.0
N431 N 0.73765 0.55341 0.69023 0.0
H432 H 0.64753 0.58777 0.72828 0.0
H433 H 0.66414 0.59077 0.70132 0.0
H434 H 0.76096 0.54543 0.67926 0.0
H435 H 0.71712 0.5971 0.68486 0.0
H436 H 0.75896 0.36303 0.77926 0.0
H437 H 0.71494 0.41453 0.78466 0.0
H438 H 0.81132 0.366 0.76227 0.0
H439 H 0.82808 0.37055 0.73535 0.0
C440 C 0.52623 0.01205 -0.00807 0.0
C441 C 0.52401 -0.01519 0.96946 0.0
C442 C 0.45779 0.92352 0.97479 0.0
C443 C 0.46077 0.94809 -0.00247 0.0
N444 N 0.50002 0.00488 0.02898 0.0
N445 N 0.49268 0.9023 0.94061 0.0
C446 C 0.49585 -0.01144 0.00652 0.0
C447 C 0.49112 0.93718 0.96116 0.0
N448 N 0.55612 0.06367 -0.00106 0.0
N449 N 0.42298 0.8875 0.96621 0.0
H450 H 0.5169 0.91014 0.93024 0.0
H451 H 0.47193 0.86034 0.93457 0.0
H452 H 0.3991 0.87126 0.97602 0.0
H453 H 0.41668 0.87727 0.94916 0.0
H454 H 0.55672 0.09271 0.01427 0.0
H455 H 0.57884 0.08259 -0.01129 0.0
H456 H 0.52692 0.02611 0.03699 0.0
H457 H 0.47757 -0.00786 0.04007 0.0
C458 C 0.4907 0.32058 0.23456 0.0
C459 C 0.47602 0.28972 0.21359 0.0
C460 C 0.49359 0.15722 0.22638 0.0
C461 C 0.50547 0.1876 0.24786 0.0
N462 N 0.51138 0.29553 0.27369 0.0
N463 N 0.45921 0.17957 0.18971 0.0
C464 C 0.50299 0.26867 0.25232 0.0
C465 C 0.4763 0.2082 0.20953 0.0
N466 N 0.49341 0.39952 0.23732 0.0
N467 N 0.49999 0.08006 0.22195 0.0
H468 H 0.44796 0.21522 0.17654 0.0
H469 H 0.45397 0.12066 0.18669 0.0
H470 H 0.51147 0.04066 0.23411 0.0
H471 H 0.49648 0.05579 0.20597 0.0
H472 H 0.5077 0.42608 0.25137 0.0
H473 H 0.48394 0.439 0.22473 0.0
H474 H 0.50613 0.35265 0.27865 0.0
H475 H 0.52088 0.25919 0.28705 0.0
C476 C 0.47037 0.70232 0.71093 0.0
C477 C 0.47716 0.78384 0.71234 0.0
C478 C 0.51101 0.76875 0.74987 0.0
C479 C 0.50612 0.68688 0.74797 0.0
N480 N 0.48641 0.57371 0.7261 0.0
N481 N 0.50812 0.89466 0.73128 0.0
C482 C 0.48717 0.65302 0.72834 0.0
C483 C 0.49882 0.81708 0.73127 0.0
N484 N 0.44734 0.67236 0.69306 0.0
N485 N 0.52616 0.80022 0.76974 0.0
H486 H 0.49871 0.93203 0.71815 0.0
H487 H 0.52753 0.92118 0.74346 0.0
H488 H 0.53554 0.76643 0.78367 0.0
H489 H 0.52669 0.85969 0.7731 0.0
H490 H 0.43697 0.61518 0.69223 0.0
H491 H 0.43661 0.70605 0.67936 0.0
H492 H 0.47726 0.54512 0.71127 0.0
H493 H 0.49754 0.53591 0.73878 0.0
C494 C 0.46224 0.5695 0.49132 0.0
C495 C 0.44801 0.49169 0.49223 0.0
C496 C 0.49748 0.4501 0.46544 0.0
C497 C 0.51097 0.52836 0.46397 0.0
N498 N 0.50271 0.6647 0.47251 0.0
N499 N 0.44528 0.36158 0.47709 0.0
C500 C 0.49202 0.58889 0.47586 0.0
C501 C 0.46374 0.43293 0.47843 0.0
N502 N 0.44888 0.62376 0.50604 0.0
N503 N 0.5172 0.39202 0.45458 0.0
H504 H 0.42019 0.34715 0.48623 0.0
H505 H 0.4523 0.31888 0.46553 0.0
H506 H 0.54021 0.40238 0.44363 0.0
H507 H 0.51242 0.33298 0.45732 0.0
H508 H 0.46141 0.67911 0.50803 0.0
H509 H 0.42706 0.6118 0.51759 0.0
H510 H 0.48683 0.71209 0.47867 0.0
H511 H 0.52594 0.68086 0.46227 0.0
C512 C 0.14346 0.7258 0.35842 0.0
C513 C 0.10258 0.71248 0.34972 0.0
C514 C 0.0778 0.8099 0.37542 0.0
C515 C 0.11876 0.83314 0.38107 0.0
N516 N 0.19109 0.82021 0.37479 0.0
N517 N 0.03174 0.75607 0.34645 0.0
C518 C 0.15192 0.79284 0.37184 0.0
C519 C 0.0699 0.7583 0.35727 0.0
N520 N 0.17393 0.67339 0.3546 0.0
N521 N 0.04643 0.83577 0.38767 0.0
H522 H 0.02504 0.72318 0.33202 0.0
H523 H 0.0081 0.79402 0.35027 0.0
H524 H 0.05122 0.87076 0.40188 0.0
H525 H 0.01654 0.81494 0.38529 0.0
H526 H 0.20335 0.67707 0.36238 0.0
H527 H 0.16875 0.62184 0.34565 0.0
H528 H 0.21541 0.79713 0.36636 0.0
H529 H 0.19877 0.87024 0.38393 0.0
C530 C 0.12656 0.29451 0.37248 0.0
C531 C 0.1285 0.21646 0.3649 0.0
C532 C 0.11611 0.25955 0.32595 0.0
C533 C 0.11183 0.33699 0.33374 0.0
N534 N 0.10183 0.4251 0.36444 0.0
N535 N 0.11589 0.12223 0.33525 0.0
C536 C 0.11356 0.35347 0.35704 0.0
C537 C 0.12049 0.19811 0.34185 0.0
N538 N 0.13912 0.31306 0.3941 0.0
N539 N 0.11799 0.245 0.30353 0.0
H540 H 0.11824 0.07564 0.34648 0.0
H541 H 0.10595 0.10596 0.31901 0.0
H542 H 0.11467 0.2884 0.29132 0.0
H543 H 0.12592 0.19085 0.29715 0.0
H544 H 0.14251 0.37021 0.39976 0.0
H545 H 0.15001 0.27186 0.40589 0.0
H546 H 0.09877 0.43802 0.38131 0.0
H547 H 0.09086 0.46898 0.35355 0.0
C548 C 0.1195 0.21025 0.87151 0.0
C549 C 0.1121 0.22889 0.84845 0.0
C550 C 0.12413 0.36634 0.85677 0.0
C551 C 0.12386 0.34933 0.87997 0.0
N552 N 0.12045 0.25616 0.90996 0.0
N553 N 0.10377 0.32536 0.819 0.0
C554 C 0.12196 0.2714 0.88757 0.0
C555 C 0.11403 0.30703 0.84094 0.0
N556 N 0.12486 0.13426 0.87793 0.0
N557 N 0.13449 0.4392 0.84998 0.0
H558 H 0.09564 0.28388 0.80679 0.0
H559 H 0.1 0.38238 0.81324 0.0
H560 H 0.14296 0.48325 0.86135 0.0
H561 H 0.13886 0.45344 0.83334 0.0
H562 H 0.13395 0.11728 0.89424 0.0
H563 H 0.12403 0.08838 0.86645 0.0
H564 H 0.11408 0.2014 0.91633 0.0
H565 H 0.12326 0.2995 0.92221 0.0
C566 C 0.09688 0.71003 0.83985 0.0
C567 C 0.1033 0.72881 0.86294 0.0
C568 C 0.09154 0.86637 0.85427 0.0
C569 C 0.09359 0.84901 0.83119 0.0
N570 N 0.09835 0.75513 0.80142 0.0
N571 N 0.1092 0.82566 0.8924 0.0
C572 C 0.09557 0.77089 0.82372 0.0
C573 C 0.10056 0.80709 0.87034 0.0
N574 N 0.0915 0.63412 0.83347 0.0
N575 N 0.08064 0.9396 0.86073 0.0
H576 H 0.1161 0.7843 0.90485 0.0
H577 H 0.11259 0.88271 0.89813 0.0
H578 H 0.073 0.9836 0.84914 0.0
H579 H 0.07501 0.95425 0.87719 0.0
H580 H 0.08325 0.6171 0.81707 0.0
H581 H 0.09128 0.58865 0.84506 0.0
H582 H 0.10484 0.69996 0.79526 0.0
H583 H 0.09647 0.79832 0.78911 0.0
C584 C 0.85797 0.2649 0.59072 0.0
C585 C 0.86582 0.24664 0.61378 0.0
C586 C 0.85212 0.10954 0.60579 0.0
C587 C 0.85202 0.12587 0.58255 0.0
N588 N 0.85638 0.21811 0.55236 0.0
N589 N 0.87454 0.15033 0.64327 0.0
C590 C 0.85478 0.20346 0.57479 0.0
C591 C 0.86348 0.16872 0.62143 0.0
N592 N 0.85275 0.34078 0.58417 0.0
N593 N 0.84085 0.03751 0.61282 0.0
H594 H 0.88394 0.19159 0.6553 0.0
H595 H 0.87785 0.09323 0.64904 0.0
H596 H 0.83129 -0.00629 0.6016 0.0
H597 H 0.8368 0.02407 0.62955 0.0
H598 H 0.84337 0.35739 0.56787 0.0
H599 H 0.85382 0.38688 0.59558 0.0
H600 H 0.86336 0.27249 0.54594 0.0
H601 H 0.85324 0.17461 0.54018 0.0
C602 C 0.88151 0.60971 0.60755 0.0
C603 C 0.8808 0.62689 0.63071 0.0
C604 C 0.876 0.76584 0.62214 0.0
C605 C 0.86857 0.74704 0.59909 0.0
N606 N 0.8609 0.65011 0.56974 0.0
N607 N 0.87666 0.72047 0.66061 0.0
C608 C 0.87105 0.66881 0.59165 0.0
C609 C 0.8785 0.7049 0.63824 0.0
N610 N 0.89264 0.53692 0.60084 0.0
N611 N 0.88136 0.84178 0.62848 0.0
H612 H 0.87942 0.67726 0.6729 0.0
H613 H 0.87001 0.77543 0.66687 0.0
H614 H 0.88083 0.88735 0.61691 0.0
H615 H 0.89035 0.85877 0.64479 0.0
H616 H 0.89731 0.52264 0.58423 0.0
H617 H 0.90148 0.49313 0.61228 0.0
H618 H 0.85751 0.59297 0.56408 0.0
H619 H 0.85253 0.69134 0.55746 0.0
C620 C 0.84019 0.59749 0.11035 0.0
C621 C 0.84121 0.6151 0.08722 0.0
C622 C 0.84595 0.75388 0.09602 0.0
C623 C 0.85312 0.73451 0.11904 0.0
N624 N 0.85895 0.63758 0.14844 0.0
N625 N 0.84497 0.70911 0.05746 0.0
C626 C 0.84998 0.65638 0.12641 0.0
C627 C 0.84327 0.69325 0.07982 0.0
N628 N 0.82961 0.52438 0.11684 0.0
N629 N 0.84142 0.83024 0.08981 0.0
H630 H 0.84205 0.66619 0.04511 0.0
H631 H 0.85152 0.76396 0.05123 0.0
H632 H 0.84264 0.8757 0.10144 0.0
H633 H 0.83264 0.84808 0.07353 0.0
H634 H 0.82476 0.50949 0.13337 0.0
H635 H 0.82157 0.48061 0.10528 0.0
H636 H 0.86213 0.58048 0.15419 0.0
H637 H 0.86613 0.67887 0.16084 0.0
C638 C 0.87956 0.19118 0.14032 0.0
C639 C 0.88282 0.11348 0.13263 0.0
C640 C 0.87163 0.15601 0.09365 0.0
C641 C 0.86776 0.23379 0.1013 0.0
N642 N 0.87924 0.32854 0.13081 0.0
N643 N 0.89428 0.02422 0.10255 0.0
C644 C 0.8754 0.2524 0.12434 0.0
C645 C 0.88302 0.09681 0.10941 0.0
N646 N 0.87815 0.20601 0.16276 0.0
N647 N 0.86195 0.13779 0.07166 0.0
H648 H 0.90339 0.98018 0.11387 0.0
H649 H 0.89856 0.01008 0.08589 0.0
H650 H 0.85336 0.17928 0.0595 0.0
H651 H 0.85943 0.08084 0.06575 0.0
H652 H 0.8707 0.26029 0.16921 0.0
H653 H 0.88217 0.16273 0.17497 0.0
H654 H 0.8884 0.34572 0.14708 0.0
H655 H 0.8771 0.37456 0.11938 0.0
C656 C 0.62091 0.80976 0.84116 0.0
C657 C 0.61701 0.73201 0.84873 0.0
C658 C 0.62842 0.77405 0.88781 0.0
C659 C 0.63187 0.8517 0.88019 0.0
N660 N 0.64378 0.94073 0.8502 0.0
N661 N 0.62822 0.63678 0.87818 0.0
C662 C 0.63225 0.86852 0.85699 0.0
C663 C 0.6244 0.71305 0.87177 0.0
N664 N 0.61137 0.82839 0.81918 0.0
N665 N 0.62679 0.7591 0.91022 0.0
H666 H 0.62625 0.59089 0.86671 0.0
H667 H 0.63724 0.61928 0.89446 0.0
H668 H 0.63067 0.8022 0.92247 0.0
H669 H 0.61924 0.70497 0.91659 0.0
H670 H 0.6089 0.88546 0.81332 0.0
H671 H 0.60282 0.78722 0.80696 0.0
H672 H 0.64821 0.95476 0.83356 0.0
H673 H 0.65299 -0.01562 0.86156 0.0
C674 C 0.59924 0.21283 0.84355 0.0
C675 C 0.60634 0.23228 0.86657 0.0
C676 C 0.5918 0.36907 0.85783 0.0
C677 C 0.5931 0.35149 0.83471 0.0
N678 N 0.59805 0.25748 0.80499 0.0
N679 N 0.61095 0.32944 0.89593 0.0
C680 C 0.59605 0.27339 0.82733 0.0
C681 C 0.60228 0.31039 0.87391 0.0
N682 N 0.59504 0.1365 0.83734 0.0
N683 N 0.58026 0.44196 0.86429 0.0
H684 H 0.61856 0.28835 0.90835 0.0
H685 H 0.61343 0.38661 0.90166 0.0
H686 H 0.57165 0.48549 0.8527 0.0
H687 H 0.57517 0.45677 0.88081 0.0
H688 H 0.58632 0.11876 0.82107 0.0
H689 H 0.59633 0.09108 0.84898 0.0
H690 H 0.60526 0.20268 0.79881 0.0
H691 H 0.59476 0.30031 0.79262 0.0
C692 C 0.5618 0.27846 0.36008 0.0
C693 C 0.59491 0.23157 0.35355 0.0
C694 C 0.64311 0.31066 0.37675 0.0
C695 C 0.60952 0.35369 0.38458 0.0
N696 N 0.53647 0.36068 0.389 0.0
N697 N 0.66517 0.18885 0.36092 0.0
C698 C 0.5687 0.3317 0.37797 0.0
C699 C 0.63503 0.24315 0.36353 0.0
N700 N 0.52438 0.276 0.34846 0.0
N701 N 0.6825 0.33607 0.38064 0.0
H702 H 0.66007 0.13704 0.35208 0.0
H703 H 0.69385 0.19127 0.36961 0.0
H704 H 0.69018 0.38647 0.38957 0.0
H705 H 0.70732 0.31085 0.37312 0.0
H706 H 0.50067 0.31496 0.35137 0.0
H707 H 0.51834 0.24126 0.33433 0.0
H708 H 0.50648 0.34089 0.38606 0.0
H709 H 0.54037 0.39771 0.40281 0.0
C710 C 0.58953 0.74741 0.35418 0.0
C711 C 0.62998 0.73214 0.36335 0.0
C712 C 0.65641 0.82808 0.33789 0.0
C713 C 0.61578 0.85393 0.33208 0.0
N714 N 0.54304 0.84404 0.33749 0.0
N715 N 0.7015 0.76973 0.36677 0.0
C716 C 0.58199 0.81491 0.34079 0.0
C717 C 0.66346 0.77528 0.3559 0.0
N718 N 0.55854 0.69649 0.35764 0.0
N719 N 0.68823 0.85297 0.32595 0.0
H720 H 0.70774 0.73559 0.38102 0.0
H721 H 0.72574 0.80589 0.36312 0.0
H722 H 0.68388 0.88893 0.3119 0.0
H723 H 0.71794 0.83061 0.32838 0.0
H724 H 0.5294 0.7015 0.34955 0.0
H725 H 0.56312 0.64463 0.36657 0.0
H726 H 0.51828 0.82207 0.34565 0.0
H727 H 0.53588 0.89428 0.32829 0.0
C728 C 0.40983 0.19036 0.10507 0.0
C729 C 0.3768 0.23575 0.11242 0.0
C730 C 0.32821 0.15462 0.09007 0.0
C731 C 0.36171 0.11491 0.08099 0.0
N732 N 0.43415 0.11398 0.07466 0.0
N733 N 0.3054 0.27413 0.10692 0.0
C734 C 0.40247 0.13884 0.08685 0.0
C735 C 0.33615 0.22193 0.10344 0.0
N736 N 0.44777 0.19299 0.11611 0.0
N737 N 0.2892 0.12653 0.08704 0.0
H738 H 0.31023 0.32608 0.11572 0.0
H739 H 0.27617 0.26991 0.09894 0.0
H740 H 0.28189 0.07606 0.07804 0.0
H741 H 0.26467 0.14938 0.09535 0.0
H742 H 0.47164 0.15543 0.11238 0.0
H743 H 0.45406 0.22572 0.13062 0.0
H744 H 0.46394 0.13513 0.07726 0.0
H745 H 0.42964 0.0798 0.06027 0.0
C746 C 0.36026 0.68816 0.13554 0.0
C747 C 0.36592 0.61111 0.12773 0.0
C748 C 0.35384 0.65428 0.08887 0.0
C749 C 0.35039 0.73207 0.09654 0.0
N750 N 0.36024 0.82571 0.12658 0.0
N751 N 0.37926 0.5243 0.09722 0.0
C752 C 0.35658 0.74993 0.11973 0.0
C753 C 0.36622 0.5953 0.10444 0.0
N754 N 0.35643 0.702 0.15786 0.0
N755 N 0.34329 0.63587 0.06698 0.0
H756 H 0.38974 0.48044 0.10826 0.0
H757 H 0.38386 0.51199 0.08047 0.0
H758 H 0.33309 0.67698 0.05503 0.0
H759 H 0.34092 0.57876 0.06116 0.0
H760 H 0.34744 0.75569 0.16412 0.0
H761 H 0.35914 0.65836 0.17002 0.0
H762 H 0.36884 0.84169 0.14303 0.0
H763 H 0.35864 0.87259 0.11544 0.0
C764 C 0.34963 0.76057 0.59097 0.0
C765 C 0.35784 0.74186 0.61397 0.0
C766 C 0.34181 0.60542 0.60601 0.0
C767 C 0.34165 0.62188 0.58278 0.0
N768 N 0.34577 0.71398 0.55256 0.0
N769 N 0.36367 0.64586 0.64365 0.0
C770 C 0.34491 0.69938 0.57503 0.0
C771 C 0.35371 0.66431 0.62169 0.0
N772 N 0.3458 0.83679 0.58451 0.0
N773 N 0.33044 0.5333 0.61296 0.0
H774 H 0.37248 0.68707 0.65578 0.0
H775 H 0.36611 0.58886 0.64956 0.0
H776 H 0.32101 0.48953 0.60168 0.0
H777 H 0.32639 0.51943 0.62965 0.0
H778 H 0.33629 0.85417 0.5683 0.0
H779 H 0.34824 0.88277 0.59595 0.0
H780 H 0.35318 0.76796 0.54603 0.0
H781 H 0.3413 0.67072 0.54039 0.0
C782 C 0.37355 0.1646 0.58941 0.0
C783 C 0.37129 0.24276 0.59696 0.0
C784 C 0.38407 0.20057 0.63596 0.0
C785 C 0.38556 0.12249 0.62838 0.0
N786 N 0.39467 0.03201 0.59827 0.0
N787 N 0.38518 0.3377 0.62614 0.0
C788 C 0.38467 0.10525 0.60516 0.0
C789 C 0.38018 0.26157 0.61988 0.0
N790 N 0.36244 0.14627 0.56758 0.0
N791 N 0.38407 0.21607 0.65842 0.0
H792 H 0.38299 0.38344 0.6146 0.0
H793 H 0.39521 0.35501 0.64227 0.0
H794 H 0.3879 0.17284 0.67066 0.0
H795 H 0.37804 0.27097 0.66491 0.0
H796 H 0.35872 0.08928 0.56185 0.0
H797 H 0.35383 0.18781 0.55543 0.0
H798 H 0.39811 0.01734 0.58156 0.0
H799 H 0.40366 -0.01213 0.60958 0.0
loop_
_geom_bond_atom_site_label_1
_geom_bond_atom_site_label_2
_geom_bond_distance
_geom_bond_site_symmetry_2
_ccdc_geom_bond_type
C0 O1 1.306 . S
C0 O3 1.160 . S
O1 C0 1.306 . S
O1 Cd2 2.228 . S
Cd2 O1 2.228 . S
Cd2 O6 2.273 . S
Cd2 O10 2.277 . S
O3 C0 1.160 . S
O3 Cd4 2.203 . S
Cd4 O3 2.203 . S
Cd4 O6 2.411 . S
Cd4 O7 2.333 . S
Cd4 O8 2.352 . S
Cd4 O12 2.277 . S
Cd4 O13 2.356 . S
C5 O10 1.209 . S
C5 O12 1.226 . S
O6 Cd2 2.273 . S
O6 Cd4 2.411 . S
O6 C9 1.320 . S
O7 Cd4 2.333 . S
O7 C9 1.214 . S
O8 Cd4 2.352 . S
O8 C11 1.258 . S
C9 O6 1.320 . S
C9 O7 1.214 . S
O10 Cd2 2.277 . S
O10 C5 1.209 . S
C11 O8 1.258 . S
C11 O13 1.282 . S
O12 Cd4 2.277 . S
O12 C5 1.226 . S
O13 Cd4 2.356 . S
O13 C11 1.282 . S
C14 O15 1.306 . S
C14 O17 1.160 . S
O15 C14 1.306 . S
O15 Cd16 2.228 . S
Cd16 O15 2.228 . S
Cd16 O20 2.273 . S
Cd16 O24 2.277 . S
O17 C14 1.160 . S
O17 Cd18 2.203 . S
Cd18 O17 2.203 . S
Cd18 O20 2.411 . S
Cd18 O21 2.333 . S
Cd18 O22 2.352 . S
Cd18 O26 2.277 . S
Cd18 O27 2.356 . S
C19 O24 1.209 . S
C19 O26 1.226 . S
O20 Cd16 2.273 . S
O20 Cd18 2.411 . S
O20 C23 1.320 . S
O21 Cd18 2.333 . S
O21 C23 1.214 . S
O22 Cd18 2.352 . S
O22 C25 1.258 . S
C23 O20 1.320 . S
C23 O21 1.214 . S
O24 Cd16 2.277 . S
O24 C19 1.209 . S
C25 O22 1.258 . S
C25 O27 1.282 . S
O26 Cd18 2.277 . S
O26 C19 1.226 . S
O27 Cd18 2.356 . S
O27 C25 1.282 . S
C28 O29 1.306 . S
C28 O31 1.160 . S
O29 C28 1.306 . S
O29 Cd30 2.228 . S
Cd30 O29 2.228 . S
Cd30 O34 2.273 . S
Cd30 O38 2.277 . S
O31 C28 1.160 . S
O31 Cd32 2.203 . S
Cd32 O31 2.203 . S
Cd32 O34 2.411 . S
Cd32 O35 2.333 . S
Cd32 O36 2.352 . S
Cd32 O40 2.277 . S
Cd32 O41 2.356 . S
C33 O38 1.209 . S
C33 O40 1.226 . S
O34 Cd30 2.273 . S
O34 Cd32 2.411 . S
O34 C37 1.320 . S
O35 Cd32 2.333 . S
O35 C37 1.214 . S
O36 Cd32 2.352 . S
O36 C39 1.258 . S
C37 O34 1.320 . S
C37 O35 1.214 . S
O38 Cd30 2.277 . S
O38 C33 1.209 . S
C39 O36 1.258 . S
C39 O41 1.282 . S
O40 Cd32 2.277 . S
O40 C33 1.226 . S
O41 Cd32 2.356 . S
O41 C39 1.282 . S
C42 O43 1.306 . S
C42 O45 1.160 . S
O43 C42 1.306 . S
O43 Cd44 2.228 . S
Cd44 O43 2.228 . S
Cd44 O48 2.273 . S
Cd44 O52 2.277 . S
O45 C42 1.160 . S
O45 Cd46 2.203 . S
Cd46 O45 2.203 . S
Cd46 O48 2.411 . S
Cd46 O49 2.333 . S
Cd46 O50 2.352 . S
Cd46 O54 2.277 . S
Cd46 O55 2.356 . S
C47 O52 1.209 . S
C47 O54 1.226 . S
O48 Cd44 2.273 . S
O48 Cd46 2.411 . S
O48 C51 1.320 . S
O49 Cd46 2.333 . S
O49 C51 1.214 . S
O50 Cd46 2.352 . S
O50 C53 1.258 . S
C51 O48 1.320 . S
C51 O49 1.214 . S
O52 Cd44 2.277 . S
O52 C47 1.209 . S
C53 O50 1.258 . S
C53 O55 1.282 . S
O54 Cd46 2.277 . S
O54 C47 1.226 . S
O55 Cd46 2.356 . S
O55 C53 1.282 . S
C56 O57 1.306 . S
C56 O59 1.160 . S
O57 C56 1.306 . S
O57 Cd58 2.228 . S
Cd58 O57 2.228 . S
Cd58 O62 2.273 . S
Cd58 O66 2.277 . S
O59 C56 1.160 . S
O59 Cd60 2.203 . S
Cd60 O59 2.203 . S
Cd60 O62 2.411 . S
Cd60 O63 2.333 . S
Cd60 O64 2.352 . S
Cd60 O68 2.277 . S
Cd60 O69 2.356 . S
C61 O66 1.209 . S
C61 O68 1.226 . S
O62 Cd58 2.273 . S
O62 Cd60 2.411 . S
O62 C65 1.320 . S
O63 Cd60 2.333 . S
O63 C65 1.214 . S
O64 Cd60 2.352 . S
O64 C67 1.258 . S
C65 O62 1.320 . S
C65 O63 1.214 . S
O66 Cd58 2.277 . S
O66 C61 1.209 . S
C67 O64 1.258 . S
C67 O69 1.282 . S
O68 Cd60 2.277 . S
O68 C61 1.226 . S
O69 Cd60 2.356 . S
O69 C67 1.282 . S
C70 O71 1.306 . S
C70 O73 1.160 . S
O71 C70 1.306 . S
O71 Cd72 2.228 . S
Cd72 O71 2.228 . S
Cd72 O76 2.273 . S
Cd72 O80 2.277 . S
O73 C70 1.160 . S
O73 Cd74 2.203 . S
Cd74 O73 2.203 . S
Cd74 O76 2.411 . S
Cd74 O77 2.333 . S
Cd74 O78 2.352 . S
Cd74 O82 2.277 . S
Cd74 O83 2.356 . S
C75 O80 1.209 . S
C75 O82 1.226 . S
O76 Cd72 2.273 . S
O76 Cd74 2.411 . S
O76 C79 1.320 . S
O77 Cd74 2.333 . S
O77 C79 1.214 . S
O78 Cd74 2.352 . S
O78 C81 1.258 . S
C79 O76 1.320 . S
C79 O77 1.214 . S
O80 Cd72 2.277 . S
O80 C75 1.209 . S
C81 O78 1.258 . S
C81 O83 1.282 . S
O82 Cd74 2.277 . S
O82 C75 1.226 . S
O83 Cd74 2.356 . S
O83 C81 1.282 . S
C84 O85 1.306 . S
C84 O87 1.160 . S
O85 C84 1.306 . S
O85 Cd86 2.228 . S
Cd86 O85 2.228 . S
Cd86 O90 2.273 . S
Cd86 O94 2.277 . S
O87 C84 1.160 . S
O87 Cd88 2.203 . S
Cd88 O87 2.203 . S
Cd88 O90 2.411 . S
Cd88 O91 2.333 . S
Cd88 O92 2.352 . S
Cd88 O96 2.277 . S
Cd88 O97 2.356 . S
C89 O94 1.209 . S
C89 O96 1.226 . S
O90 Cd86 2.273 . S
O90 Cd88 2.411 . S
O90 C93 1.320 . S
O91 Cd88 2.333 . S
O91 C93 1.214 . S
O92 Cd88 2.352 . S
O92 C95 1.258 . S
C93 O90 1.320 . S
C93 O91 1.214 . S
O94 Cd86 2.277 . S
O94 C89 1.209 . S
C95 O92 1.258 . S
C95 O97 1.282 . S
O96 Cd88 2.277 . S
O96 C89 1.226 . S
O97 Cd88 2.356 . S
O97 C95 1.282 . S
C98 O99 1.306 . S
C98 O101 1.160 . S
O99 C98 1.306 . S
O99 Cd100 2.228 . S
Cd100 O99 2.228 . S
Cd100 O104 2.273 . S
Cd100 O108 2.277 . S
O101 C98 1.160 . S
O101 Cd102 2.203 . S
Cd102 O101 2.203 . S
Cd102 O104 2.411 . S
Cd102 O105 2.333 . S
Cd102 O106 2.352 . S
Cd102 O110 2.277 . S
Cd102 O111 2.356 . S
C103 O108 1.209 . S
C103 O110 1.226 . S
O104 Cd100 2.273 . S
O104 Cd102 2.411 . S
O104 C107 1.320 . S
O105 Cd102 2.333 . S
O105 C107 1.214 . S
O106 Cd102 2.352 . S
O106 C109 1.258 . S
C107 O104 1.320 . S
C107 O105 1.214 . S
O108 Cd100 2.277 . S
O108 C103 1.209 . S
C109 O106 1.258 . S
C109 O111 1.282 . S
O110 Cd102 2.277 . S
O110 C103 1.226 . S
O111 Cd102 2.356 . S
O111 C109 1.282 . S
C112 O113 1.306 . S
C112 O115 1.160 . S
O113 C112 1.306 . S
O113 Cd114 2.228 . S
Cd114 O113 2.228 . S
Cd114 O118 2.273 . S
Cd114 O122 2.277 . S
O115 C112 1.160 . S
O115 Cd116 2.203 . S
Cd116 O115 2.203 . S
Cd116 O118 2.411 . S
Cd116 O119 2.333 . S
Cd116 O120 2.352 . S
Cd116 O124 2.277 . S
Cd116 O125 2.356 . S
C117 O122 1.209 . S
C117 O124 1.226 . S
O118 Cd114 2.273 . S
O118 Cd116 2.411 . S
O118 C121 1.320 . S
O119 Cd116 2.333 . S
O119 C121 1.214 . S
O120 Cd116 2.352 . S
O120 C123 1.258 . S
C121 O118 1.320 . S
C121 O119 1.214 . S
O122 Cd114 2.277 . S
O122 C117 1.209 . S
C123 O120 1.258 . S
C123 O125 1.282 . S
O124 Cd116 2.277 . S
O124 C117 1.226 . S
O125 Cd116 2.356 . S
O125 C123 1.282 . S
C126 O127 1.306 . S
C126 O129 1.160 . S
O127 C126 1.306 . S
O127 Cd128 2.228 . S
Cd128 O127 2.228 . S
Cd128 O132 2.273 . S
Cd128 O136 2.277 . S
O129 C126 1.160 . S
O129 Cd130 2.203 . S
Cd130 O129 2.203 . S
Cd130 O132 2.411 . S
Cd130 O133 2.333 . S
Cd130 O134 2.352 . S
Cd130 O138 2.277 . S
Cd130 O139 2.356 . S
C131 O136 1.209 . S
C131 O138 1.226 . S
O132 Cd128 2.273 . S
O132 Cd130 2.411 . S
O132 C135 1.320 . S
O133 Cd130 2.333 . S
O133 C135 1.214 . S
O134 Cd130 2.352 . S
O134 C137 1.258 . S
C135 O132 1.320 . S
C135 O133 1.214 . S
O136 Cd128 2.277 . S
O136 C131 1.209 . S
C137 O134 1.258 . S
C137 O139 1.282 . S
O138 Cd130 2.277 . S
O138 C131 1.226 . S
O139 Cd130 2.356 . S
O139 C137 1.282 . S
C140 O141 1.306 . S
C140 O143 1.160 . S
O141 C140 1.306 . S
O141 Cd142 2.228 . S
Cd142 O141 2.228 . S
Cd142 O146 2.273 . S
Cd142 O150 2.277 . S
O143 C140 1.160 . S
O143 Cd144 2.203 . S
Cd144 O143 2.203 . S
Cd144 O146 2.411 . S
Cd144 O147 2.333 . S
Cd144 O148 2.352 . S
Cd144 O152 2.277 . S
Cd144 O153 2.356 . S
C145 O150 1.209 . S
C145 O152 1.226 . S
O146 Cd142 2.273 . S
O146 Cd144 2.411 . S
O146 C149 1.320 . S
O147 Cd144 2.333 . S
O147 C149 1.214 . S
O148 Cd144 2.352 . S
O148 C151 1.258 . S
C149 O146 1.320 . S
C149 O147 1.214 . S
O150 Cd142 2.277 . S
O150 C145 1.209 . S
C151 O148 1.258 . S
C151 O153 1.282 . S
O152 Cd144 2.277 . S
O152 C145 1.226 . S
O153 Cd144 2.356 . S
O153 C151 1.282 . S
C154 O155 1.306 . S
C154 O157 1.160 . S
O155 C154 1.306 . S
O155 Cd156 2.228 . S
Cd156 O155 2.228 . S
Cd156 O160 2.273 . S
Cd156 O164 2.277 . S
O157 C154 1.160 . S
O157 Cd158 2.203 . S
Cd158 O157 2.203 . S
Cd158 O160 2.411 . S
Cd158 O161 2.333 . S
Cd158 O162 2.352 . S
Cd158 O166 2.277 . S
Cd158 O167 2.356 . S
C159 O164 1.209 . S
C159 O166 1.226 . S
O160 Cd156 2.273 . S
O160 Cd158 2.411 . S
O160 C163 1.320 . S
O161 Cd158 2.333 . S
O161 C163 1.214 . S
O162 Cd158 2.352 . S
O162 C165 1.258 . S
C163 O160 1.320 . S
C163 O161 1.214 . S
O164 Cd156 2.277 . S
O164 C159 1.209 . S
C165 O162 1.258 . S
C165 O167 1.282 . S
O166 Cd158 2.277 . S
O166 C159 1.226 . S
O167 Cd158 2.356 . S
O167 C165 1.282 . S
C168 O169 1.306 . S
C168 O171 1.160 . S
O169 C168 1.306 . S
O169 Cd170 2.228 . S
Cd170 O169 2.228 . S
Cd170 O174 2.273 . S
Cd170 O178 2.277 . S
O171 C168 1.160 . S
O171 Cd172 2.203 . S
Cd172 O171 2.203 . S
Cd172 O174 2.411 . S
Cd172 O175 2.333 . S
Cd172 O176 2.352 . S
Cd172 O180 2.277 . S
Cd172 O181 2.356 . S
C173 O178 1.209 . S
C173 O180 1.226 . S
O174 Cd170 2.273 . S
O174 Cd172 2.411 . S
O174 C177 1.320 . S
O175 Cd172 2.333 . S
O175 C177 1.214 . S
O176 Cd172 2.352 . S
O176 C179 1.258 . S
C177 O174 1.320 . S
C177 O175 1.214 . S
O178 Cd170 2.277 . S
O178 C173 1.209 . S
C179 O176 1.258 . S
C179 O181 1.282 . S
O180 Cd172 2.277 . S
O180 C173 1.226 . S
O181 Cd172 2.356 . S
O181 C179 1.282 . S
C182 O183 1.306 . S
C182 O185 1.160 . S
O183 C182 1.306 . S
O183 Cd184 2.228 . S
Cd184 O183 2.228 . S
Cd184 O188 2.273 . S
Cd184 O192 2.277 . S
O185 C182 1.160 . S
O185 Cd186 2.203 . S
Cd186 O185 2.203 . S
Cd186 O188 2.411 . S
Cd186 O189 2.333 . S
Cd186 O190 2.352 . S
Cd186 O194 2.277 . S
Cd186 O195 2.356 . S
C187 O192 1.209 . S
C187 O194 1.226 . S
O188 Cd184 2.273 . S
O188 Cd186 2.411 . S
O188 C191 1.320 . S
O189 Cd186 2.333 . S
O189 C191 1.214 . S
O190 Cd186 2.352 . S
O190 C193 1.258 . S
C191 O188 1.320 . S
C191 O189 1.214 . S
O192 Cd184 2.277 . S
O192 C187 1.209 . S
C193 O190 1.258 . S
C193 O195 1.282 . S
O194 Cd186 2.277 . S
O194 C187 1.226 . S
O195 Cd186 2.356 . S
O195 C193 1.282 . S
C196 O197 1.306 . S
C196 O199 1.160 . S
O197 C196 1.306 . S
O197 Cd198 2.228 . S
Cd198 O197 2.228 . S
Cd198 O202 2.273 . S
Cd198 O206 2.277 . S
O199 C196 1.160 . S
O199 Cd200 2.203 . S
Cd200 O199 2.203 . S
Cd200 O202 2.411 . S
Cd200 O203 2.333 . S
Cd200 O204 2.352 . S
Cd200 O208 2.277 . S
Cd200 O209 2.356 . S
C201 O206 1.209 . S
C201 O208 1.226 . S
O202 Cd198 2.273 . S
O202 Cd200 2.411 . S
O202 C205 1.320 . S
O203 Cd200 2.333 . S
O203 C205 1.214 . S
O204 Cd200 2.352 . S
O204 C207 1.258 . S
C205 O202 1.320 . S
C205 O203 1.214 . S
O206 Cd198 2.277 . S
O206 C201 1.209 . S
C207 O204 1.258 . S
C207 O209 1.282 . S
O208 Cd200 2.277 . S
O208 C201 1.226 . S
O209 Cd200 2.356 . S
O209 C207 1.282 . S
C210 O211 1.306 . S
C210 O213 1.160 . S
O211 C210 1.306 . S
O211 Cd212 2.228 . S
Cd212 O211 2.228 . S
Cd212 O216 2.273 . S
Cd212 O220 2.277 . S
O213 C210 1.160 . S
O213 Cd214 2.203 . S
Cd214 O213 2.203 . S
Cd214 O216 2.411 . S
Cd214 O217 2.333 . S
Cd214 O218 2.352 . S
Cd214 O222 2.277 . S
Cd214 O223 2.356 . S
C215 O220 1.209 . S
C215 O222 1.226 . S
O216 Cd212 2.273 . S
O216 Cd214 2.411 . S
O216 C219 1.320 . S
O217 Cd214 2.333 . S
O217 C219 1.214 . S
O218 Cd214 2.352 . S
O218 C221 1.258 . S
C219 O216 1.320 . S
C219 O217 1.214 . S
O220 Cd212 2.277 . S
O220 C215 1.209 . S
C221 O218 1.258 . S
C221 O223 1.282 . S
O222 Cd214 2.277 . S
O222 C215 1.226 . S
O223 Cd214 2.356 . S
O223 C221 1.282 . S
C224 C225 1.363 . S
C224 C230 1.379 . S
C224 N232 1.356 . S
C225 C224 1.363 . S
C225 C231 1.363 . S
C226 C227 1.363 . S
C226 C231 1.379 . S
C226 N233 1.356 . S
C227 C226 1.363 . S
C227 C230 1.363 . S
N228 C230 1.356 . S
N228 H240 0.984 . S
N228 H241 0.985 . S
N229 C231 1.356 . S
N229 H234 0.984 . S
N229 H235 0.985 . S
C230 C224 1.379 . S
C230 C227 1.363 . S
C230 N228 1.356 . S
C231 C225 1.363 . S
C231 C226 1.379 . S
C231 N229 1.356 . S
N232 C224 1.356 . S
N232 H238 0.984 . S
N232 H239 0.984 . S
N233 C226 1.356 . S
N233 H236 0.984 . S
N233 H237 0.985 . S
H234 N229 0.984 . S
H235 N229 0.985 . S
H236 N233 0.984 . S
H237 N233 0.985 . S
H238 N232 0.984 . S
H239 N232 0.984 . S
H240 N228 0.984 . S
H241 N228 0.985 . S
C242 C243 1.363 1_455 S
C242 C248 1.379 . S
C242 N250 1.356 1_455 S
C243 C242 1.363 1_655 S
C243 C249 1.363 1_565 S
C244 C245 1.363 1_655 S
C244 C249 1.379 . S
C244 N251 1.356 1_655 S
C245 C244 1.363 1_455 S
C245 C248 1.363 1_545 S
N246 C248 1.356 . S
N246 H258 0.984 . S
N246 H259 0.985 . S
N247 C249 1.356 . S
N247 H252 0.984 . S
N247 H253 0.985 . S
C248 C242 1.379 . S
C248 C245 1.363 1_565 S
C248 N246 1.356 . S
C249 C243 1.363 1_545 S
C249 C244 1.379 . S
C249 N247 1.356 . S
N250 C242 1.356 1_655 S
N250 H256 0.984 1_655 S
N250 H257 0.984 . S
N251 C244 1.356 1_455 S
N251 H254 0.984 . S
N251 H255 0.985 1_455 S
H252 N247 0.984 . S
H253 N247 0.985 . S
H254 N251 0.984 . S
H255 N251 0.985 1_655 S
H256 N250 0.984 1_455 S
H257 N250 0.984 . S
H258 N246 0.984 . S
H259 N246 0.985 . S
C260 C261 1.363 . S
C260 C266 1.379 . S
C260 N268 1.356 . S
C261 C260 1.363 . S
C261 C267 1.363 1_565 S
C262 C263 1.363 . S
C262 C267 1.379 . S
C262 N269 1.356 . S
C263 C262 1.363 . S
C263 C266 1.363 1_545 S
N264 C266 1.356 . S
N264 H276 0.984 . S
N264 H277 0.985 . S
N265 C267 1.356 . S
N265 H270 0.984 . S
N265 H271 0.985 . S
C266 C260 1.379 . S
C266 C263 1.363 1_565 S
C266 N264 1.356 . S
C267 C261 1.363 1_545 S
C267 C262 1.379 . S
C267 N265 1.356 . S
N268 C260 1.356 . S
N268 H274 0.984 . S
N268 H275 0.984 . S
N269 C262 1.356 . S
N269 H272 0.984 . S
N269 H273 0.985 . S
H270 N265 0.984 . S
H271 N265 0.985 . S
H272 N269 0.984 . S
H273 N269 0.985 . S
H274 N268 0.984 . S
H275 N268 0.984 . S
H276 N264 0.984 . S
H277 N264 0.985 . S
C278 C279 1.363 . S
C278 C284 1.391 . S
C278 N286 1.356 . S
C279 C278 1.363 . S
C279 C285 1.349 1_455 S
C280 C281 1.363 . S
C280 C285 1.391 . S
C280 N287 1.356 . S
C281 C280 1.363 . S
C281 C284 1.349 1_655 S
N282 C284 1.353 1_655 S
N282 H294 0.984 1_655 S
N282 H295 0.985 . S
N283 C285 1.353 1_455 S
N283 H288 0.984 . S
N283 H289 0.985 1_455 S
C284 C278 1.391 . S
C284 C281 1.349 1_455 S
C284 N282 1.353 1_455 S
C285 C279 1.349 1_655 S
C285 C280 1.391 . S
C285 N283 1.353 1_655 S
N286 C278 1.356 . S
N286 H292 0.984 . S
N286 H293 0.984 . S
N287 C280 1.356 . S
N287 H290 0.984 . S
N287 H291 0.985 . S
H288 N283 0.984 . S
H289 N283 0.985 1_655 S
H290 N287 0.984 . S
H291 N287 0.985 . S
H292 N286 0.984 . S
H293 N286 0.984 . S
H294 N282 0.984 1_455 S
H295 N282 0.985 . S
C296 C297 1.363 . S
C296 C302 1.379 . S
C296 N304 1.356 . S
C297 C296 1.363 . S
C297 C303 1.363 . S
C298 C299 1.363 . S
C298 C303 1.379 . S
C298 N305 1.356 . S
C299 C298 1.363 . S
C299 C302 1.363 . S
N300 C302 1.356 . S
N300 H312 0.984 . S
N300 H313 0.985 . S
N301 C303 1.356 . S
N301 H306 0.984 . S
N301 H307 0.985 . S
C302 C296 1.379 . S
C302 C299 1.363 . S
C302 N300 1.356 . S
C303 C297 1.363 . S
C303 C298 1.379 . S
C303 N301 1.356 . S
N304 C296 1.356 . S
N304 H310 0.984 . S
N304 H311 0.984 . S
N305 C298 1.356 . S
N305 H308 0.984 . S
N305 H309 0.985 . S
H306 N301 0.984 . S
H307 N301 0.985 . S
H308 N305 0.984 . S
H309 N305 0.985 . S
H310 N304 0.984 . S
H311 N304 0.984 . S
H312 N300 0.984 . S
H313 N300 0.985 . S
C314 C315 1.363 1_565 S
C314 C320 1.379 . S
C314 N322 1.356 . S
C315 C314 1.363 1_545 S
C315 C321 1.363 . S
C316 C317 1.363 1_545 S
C316 C321 1.379 . S
C316 N323 1.356 . S
C317 C316 1.363 1_565 S
C317 C320 1.363 . S
N318 C320 1.356 . S
N318 H330 0.984 . S
N318 H331 0.985 . S
N319 C321 1.356 . S
N319 H324 0.984 . S
N319 H325 0.985 . S
C320 C314 1.379 . S
C320 C317 1.363 . S
C320 N318 1.356 . S
C321 C315 1.363 . S
C321 C316 1.379 . S
C321 N319 1.356 . S
N322 C314 1.356 . S
N322 H328 0.984 . S
N322 H329 0.984 . S
N323 C316 1.356 . S
N323 H326 0.984 . S
N323 H327 0.985 . S
H324 N319 0.984 . S
H325 N319 0.985 . S
H326 N323 0.984 . S
H327 N323 0.985 . S
H328 N322 0.984 . S
H329 N322 0.984 . S
H330 N318 0.984 . S
H331 N318 0.985 . S
C332 C333 1.363 1_455 S
C332 C338 1.379 . S
C332 N340 1.356 1_455 S
C333 C332 1.363 1_655 S
C333 C339 1.363 . S
C334 C335 1.363 1_655 S
C334 C339 1.379 . S
C334 N341 1.356 1_655 S
C335 C334 1.363 1_455 S
C335 C338 1.363 . S
N336 C338 1.356 . S
N336 H348 0.984 . S
N336 H349 0.985 . S
N337 C339 1.356 . S
N337 H342 0.984 . S
N337 H343 0.985 . S
C338 C332 1.379 . S
C338 C335 1.363 . S
C338 N336 1.356 . S
C339 C333 1.363 . S
C339 C334 1.379 . S
C339 N337 1.356 . S
N340 C332 1.356 1_655 S
N340 H346 0.984 1_655 S
N340 H347 0.984 . S
N341 C334 1.356 1_455 S
N341 H344 0.984 . S
N341 H345 0.985 1_455 S
H342 N337 0.984 . S
H343 N337 0.985 . S
H344 N341 0.984 . S
H345 N341 0.985 1_655 S
H346 N340 0.984 1_455 S
H347 N340 0.984 . S
H348 N336 0.984 . S
H349 N336 0.985 . S
C350 C351 1.363 . S
C350 C356 1.379 1_554 S
C350 N358 1.356 . S
C351 C350 1.363 . S
C351 C357 1.363 . S
C352 C353 1.363 . S
C352 C357 1.379 1_556 S
C352 N359 1.356 . S
C353 C352 1.363 . S
C353 C356 1.363 . S
N354 C356 1.356 . S
N354 H366 0.984 . S
N354 H367 0.985 . S
N355 C357 1.356 . S
N355 H360 0.984 . S
N355 H361 0.985 . S
C356 C350 1.379 1_556 S
C356 C353 1.363 . S
C356 N354 1.356 . S
C357 C351 1.363 . S
C357 C352 1.379 1_554 S
C357 N355 1.356 . S
N358 C350 1.356 . S
N358 H364 0.984 . S
N358 H365 0.984 . S
N359 C352 1.356 . S
N359 H362 0.984 . S
N359 H363 0.985 . S
H360 N355 0.984 . S
H361 N355 0.985 . S
H362 N359 0.984 . S
H363 N359 0.985 . S
H364 N358 0.984 . S
H365 N358 0.984 . S
H366 N354 0.984 . S
H367 N354 0.985 . S
C368 C369 1.363 1_655 S
C368 C374 1.379 . S
C368 N376 1.356 . S
C369 C368 1.363 1_455 S
C369 C375 1.363 1_556 S
C370 C371 1.363 1_455 S
C370 C375 1.379 . S
C370 N377 1.356 . S
C371 C370 1.363 1_655 S
C371 C374 1.363 1_554 S
N372 C374 1.356 . S
N372 H384 0.984 . S
N372 H385 0.985 1_556 S
N373 C375 1.356 . S
N373 H378 0.984 1_554 S
N373 H379 0.985 . S
C374 C368 1.379 . S
C374 C371 1.363 1_556 S
C374 N372 1.356 . S
C375 C369 1.363 1_554 S
C375 C370 1.379 . S
C375 N373 1.356 . S
N376 C368 1.356 . S
N376 H382 0.984 . S
N376 H383 0.984 1_655 S
N377 C370 1.356 . S
N377 H380 0.984 1_455 S
N377 H381 0.985 . S
H378 N373 0.984 1_556 S
H379 N373 0.985 . S
H380 N377 0.984 1_655 S
H381 N377 0.985 . S
H382 N376 0.984 . S
H383 N376 0.984 1_455 S
H384 N372 0.984 . S
H385 N372 0.985 1_554 S
C386 C387 1.363 . S
C386 C392 1.379 . S
C386 N394 1.356 . S
C387 C386 1.363 . S
C387 C393 1.363 . S
C388 C389 1.363 . S
C388 C393 1.379 . S
C388 N395 1.356 . S
C389 C388 1.363 . S
C389 C392 1.363 . S
N390 C392 1.356 . S
N390 H402 0.984 . S
N390 H403 0.985 . S
N391 C393 1.356 . S
N391 H396 0.984 . S
N391 H397 0.985 . S
C392 C386 1.379 . S
C392 C389 1.363 . S
C392 N390 1.356 . S
C393 C387 1.363 . S
C393 C388 1.379 . S
C393 N391 1.356 . S
N394 C386 1.356 . S
N394 H400 0.984 . S
N394 H401 0.984 . S
N395 C388 1.356 . S
N395 H398 0.984 . S
N395 H399 0.985 . S
H396 N391 0.984 . S
H397 N391 0.985 . S
H398 N395 0.984 . S
H399 N395 0.985 . S
H400 N394 0.984 . S
H401 N394 0.984 . S
H402 N390 0.984 . S
H403 N390 0.985 . S
C404 C405 1.363 . S
C404 C410 1.379 1_556 S
C404 N412 1.356 . S
C405 C404 1.363 . S
C405 C411 1.363 . S
C406 C407 1.363 . S
C406 C411 1.379 1_554 S
C406 N413 1.356 . S
C407 C406 1.363 . S
C407 C410 1.363 . S
N408 C410 1.356 . S
N408 H420 0.984 . S
N408 H421 0.985 . S
N409 C411 1.356 . S
N409 H414 0.984 . S
N409 H415 0.985 . S
C410 C404 1.379 1_554 S
C410 C407 1.363 . S
C410 N408 1.356 . S
C411 C405 1.363 . S
C411 C406 1.379 1_556 S
C411 N409 1.356 . S
N412 C404 1.356 . S
N412 H418 0.984 . S
N412 H419 0.984 . S
N413 C406 1.356 . S
N413 H416 0.984 . S
N413 H417 0.985 . S
H414 N409 0.984 . S
H415 N409 0.985 . S
H416 N413 0.984 . S
H417 N413 0.985 . S
H418 N412 0.984 . S
H419 N412 0.984 . S
H420 N408 0.984 . S
H421 N408 0.985 . S
C422 C423 1.363 . S
C422 C428 1.379 . S
C422 N430 1.356 . S
C423 C422 1.363 . S
C423 C429 1.363 . S
C424 C425 1.363 . S
C424 C429 1.379 . S
C424 N431 1.356 . S
C425 C424 1.363 . S
C425 C428 1.363 . S
N426 C428 1.356 . S
N426 H438 0.984 . S
N426 H439 0.985 . S
N427 C429 1.356 . S
N427 H432 0.984 . S
N427 H433 0.985 . S
C428 C422 1.379 . S
C428 C425 1.363 . S
C428 N426 1.356 . S
C429 C423 1.363 . S
C429 C424 1.379 . S
C429 N427 1.356 . S
N430 C422 1.356 . S
N430 H436 0.984 . S
N430 H437 0.984 . S
N431 C424 1.356 . S
N431 H434 0.984 . S
N431 H435 0.985 . S
H432 N427 0.984 . S
H433 N427 0.985 . S
H434 N431 0.984 . S
H435 N431 0.985 . S
H436 N430 0.984 . S
H437 N430 0.984 . S
H438 N426 0.984 . S
H439 N426 0.985 . S
C440 C441 1.363 1_554 S
C440 C446 1.379 . S
C440 N448 1.356 . S
C441 C440 1.363 1_556 S
C441 C447 1.363 1_545 S
C442 C443 1.363 1_556 S
C442 C447 1.379 . S
C442 N449 1.356 . S
C443 C442 1.363 1_554 S
C443 C446 1.363 1_565 S
N444 C446 1.356 . S
N444 H456 0.984 . S
N444 H457 0.985 1_545 S
N445 C447 1.356 . S
N445 H450 0.984 1_565 S
N445 H451 0.985 . S
C446 C440 1.379 . S
C446 C443 1.363 1_545 S
C446 N444 1.356 . S
C447 C441 1.363 1_565 S
C447 C442 1.379 . S
C447 N445 1.356 . S
N448 C440 1.356 . S
N448 H454 0.984 . S
N448 H455 0.984 1_554 S
N449 C442 1.356 . S
N449 H452 0.984 1_556 S
N449 H453 0.985 . S
H450 N445 0.984 1_545 S
H451 N445 0.985 . S
H452 N449 0.984 1_554 S
H453 N449 0.985 . S
H454 N448 0.984 . S
H455 N448 0.984 1_556 S
H456 N444 0.984 . S
H457 N444 0.985 1_565 S
C458 C459 1.363 . S
C458 C464 1.379 . S
C458 N466 1.356 . S
C459 C458 1.363 . S
C459 C465 1.363 . S
C460 C461 1.363 . S
C460 C465 1.379 . S
C460 N467 1.356 . S
C461 C460 1.363 . S
C461 C464 1.363 . S
N462 C464 1.356 . S
N462 H474 0.984 . S
N462 H475 0.985 . S
N463 C465 1.356 . S
N463 H468 0.984 . S
N463 H469 0.985 . S
C464 C458 1.379 . S
C464 C461 1.363 . S
C464 N462 1.356 . S
C465 C459 1.363 . S
C465 C460 1.379 . S
C465 N463 1.356 . S
N466 C458 1.356 . S
N466 H472 0.984 . S
N466 H473 0.984 . S
N467 C460 1.356 . S
N467 H470 0.984 . S
N467 H471 0.985 . S
H468 N463 0.984 . S
H469 N463 0.985 . S
H470 N467 0.984 . S
H471 N467 0.985 . S
H472 N466 0.984 . S
H473 N466 0.984 . S
H474 N462 0.984 . S
H475 N462 0.985 . S
C476 C477 1.363 . S
C476 C482 1.379 . S
C476 N484 1.356 . S
C477 C476 1.363 . S
C477 C483 1.363 . S
C478 C479 1.363 . S
C478 C483 1.379 . S
C478 N485 1.356 . S
C479 C478 1.363 . S
C479 C482 1.363 . S
N480 C482 1.356 . S
N480 H492 0.984 . S
N480 H493 0.985 . S
N481 C483 1.356 . S
N481 H486 0.984 . S
N481 H487 0.985 . S
C482 C476 1.379 . S
C482 C479 1.363 . S
C482 N480 1.356 . S
C483 C477 1.363 . S
C483 C478 1.379 . S
C483 N481 1.356 . S
N484 C476 1.356 . S
N484 H490 0.984 . S
N484 H491 0.984 . S
N485 C478 1.356 . S
N485 H488 0.984 . S
N485 H489 0.985 . S
H486 N481 0.984 . S
H487 N481 0.985 . S
H488 N485 0.984 . S
H489 N485 0.985 . S
H490 N484 0.984 . S
H491 N484 0.984 . S
H492 N480 0.984 . S
H493 N480 0.985 . S
C494 C495 1.363 . S
C494 C500 1.379 . S
C494 N502 1.356 . S
C495 C494 1.363 . S
C495 C501 1.363 . S
C496 C497 1.363 . S
C496 C501 1.379 . S
C496 N503 1.356 . S
C497 C496 1.363 . S
C497 C500 1.363 . S
N498 C500 1.356 . S
N498 H510 0.984 . S
N498 H511 0.985 . S
N499 C501 1.356 . S
N499 H504 0.984 . S
N499 H505 0.985 . S
C500 C494 1.379 . S
C500 C497 1.363 . S
C500 N498 1.356 . S
C501 C495 1.363 . S
C501 C496 1.379 . S
C501 N499 1.356 . S
N502 C494 1.356 . S
N502 H508 0.984 . S
N502 H509 0.984 . S
N503 C496 1.356 . S
N503 H506 0.984 . S
N503 H507 0.985 . S
H504 N499 0.984 . S
H505 N499 0.985 . S
H506 N503 0.984 . S
H507 N503 0.985 . S
H508 N502 0.984 . S
H509 N502 0.984 . S
H510 N498 0.984 . S
H511 N498 0.985 . S
C512 C513 1.363 . S
C512 C518 1.379 . S
C512 N520 1.356 . S
C513 C512 1.363 . S
C513 C519 1.363 . S
C514 C515 1.363 . S
C514 C519 1.379 . S
C514 N521 1.356 . S
C515 C514 1.363 . S
C515 C518 1.363 . S
N516 C518 1.356 . S
N516 H528 0.984 . S
N516 H529 0.985 1_565 S
N517 C519 1.356 . S
N517 H522 0.984 . S
N517 H523 0.985 . S
C518 C512 1.379 . S
C518 C515 1.363 . S
C518 N516 1.356 . S
C519 C513 1.363 . S
C519 C514 1.379 . S
C519 N517 1.356 . S
N520 C512 1.356 . S
N520 H526 0.984 . S
N520 H527 0.984 . S
N521 C514 1.356 . S
N521 H524 0.984 . S
N521 H525 0.985 . S
H522 N517 0.984 . S
H523 N517 0.985 . S
H524 N521 0.984 . S
H525 N521 0.985 . S
H526 N520 0.984 . S
H527 N520 0.984 . S
H528 N516 0.984 . S
H529 N516 0.985 1_545 S
C530 C531 1.363 . S
C530 C536 1.379 . S
C530 N538 1.356 . S
C531 C530 1.363 . S
C531 C537 1.363 . S
C532 C533 1.363 . S
C532 C537 1.379 . S
C532 N539 1.356 . S
C533 C532 1.363 . S
C533 C536 1.363 . S
N534 C536 1.356 . S
N534 H546 0.984 . S
N534 H547 0.985 . S
N535 C537 1.356 . S
N535 H540 0.984 . S
N535 H541 0.985 . S
C536 C530 1.379 . S
C536 C533 1.363 . S
C536 N534 1.356 . S
C537 C531 1.363 . S
C537 C532 1.379 . S
C537 N535 1.356 . S
N538 C530 1.356 . S
N538 H544 0.984 . S
N538 H545 0.984 . S
N539 C532 1.356 . S
N539 H542 0.984 . S
N539 H543 0.985 . S
H540 N535 0.984 . S
H541 N535 0.985 . S
H542 N539 0.984 . S
H543 N539 0.985 . S
H544 N538 0.984 . S
H545 N538 0.984 . S
H546 N534 0.984 . S
H547 N534 0.985 . S
C548 C549 1.363 . S
C548 C554 1.379 . S
C548 N556 1.356 . S
C549 C548 1.363 . S
C549 C555 1.363 . S
C550 C551 1.363 . S
C550 C555 1.379 . S
C550 N557 1.356 . S
C551 C550 1.363 . S
C551 C554 1.363 . S
N552 C554 1.356 . S
N552 H564 0.984 . S
N552 H565 0.985 . S
N553 C555 1.356 . S
N553 H558 0.984 . S
N553 H559 0.985 . S
C554 C548 1.379 . S
C554 C551 1.363 . S
C554 N552 1.356 . S
C555 C549 1.363 . S
C555 C550 1.379 . S
C555 N553 1.356 . S
N556 C548 1.356 . S
N556 H562 0.984 . S
N556 H563 0.984 . S
N557 C550 1.356 . S
N557 H560 0.984 . S
N557 H561 0.985 . S
H558 N553 0.984 . S
H559 N553 0.985 . S
H560 N557 0.984 . S
H561 N557 0.985 . S
H562 N556 0.984 . S
H563 N556 0.984 . S
H564 N552 0.984 . S
H565 N552 0.985 . S
C566 C567 1.363 . S
C566 C572 1.379 . S
C566 N574 1.356 . S
C567 C566 1.363 . S
C567 C573 1.363 . S
C568 C569 1.363 . S
C568 C573 1.379 . S
C568 N575 1.356 1_565 S
C569 C568 1.363 . S
C569 C572 1.363 . S
N570 C572 1.356 . S
N570 H582 0.984 . S
N570 H583 0.985 . S
N571 C573 1.356 . S
N571 H576 0.984 . S
N571 H577 0.985 . S
C572 C566 1.379 . S
C572 C569 1.363 . S
C572 N570 1.356 . S
C573 C567 1.363 . S
C573 C568 1.379 . S
C573 N571 1.356 . S
N574 C566 1.356 . S
N574 H580 0.984 . S
N574 H581 0.984 . S
N575 C568 1.356 1_545 S
N575 H578 0.984 . S
N575 H579 0.985 . S
H576 N571 0.984 . S
H577 N571 0.985 . S
H578 N575 0.984 . S
H579 N575 0.985 . S
H580 N574 0.984 . S
H581 N574 0.984 . S
H582 N570 0.984 . S
H583 N570 0.985 . S
C584 C585 1.363 . S
C584 C590 1.379 . S
C584 N592 1.356 . S
C585 C584 1.363 . S
C585 C591 1.363 . S
C586 C587 1.363 . S
C586 C591 1.379 . S
C586 N593 1.356 1_545 S
C587 C586 1.363 . S
C587 C590 1.363 . S
N588 C590 1.356 . S
N588 H600 0.984 . S
N588 H601 0.985 . S
N589 C591 1.356 . S
N589 H594 0.984 . S
N589 H595 0.985 . S
C590 C584 1.379 . S
C590 C587 1.363 . S
C590 N588 1.356 . S
C591 C585 1.363 . S
C591 C586 1.379 . S
C591 N589 1.356 . S
N592 C584 1.356 . S
N592 H598 0.984 . S
N592 H599 0.984 . S
N593 C586 1.356 1_565 S
N593 H596 0.984 . S
N593 H597 0.985 . S
H594 N589 0.984 . S
H595 N589 0.985 . S
H596 N593 0.984 . S
H597 N593 0.985 . S
H598 N592 0.984 . S
H599 N592 0.984 . S
H600 N588 0.984 . S
H601 N588 0.985 . S
C602 C603 1.363 . S
C602 C608 1.379 . S
C602 N610 1.356 . S
C603 C602 1.363 . S
C603 C609 1.363 . S
C604 C605 1.363 . S
C604 C609 1.379 . S
C604 N611 1.356 . S
C605 C604 1.363 . S
C605 C608 1.363 . S
N606 C608 1.356 . S
N606 H618 0.984 . S
N606 H619 0.985 . S
N607 C609 1.356 . S
N607 H612 0.984 . S
N607 H613 0.985 . S
C608 C602 1.379 . S
C608 C605 1.363 . S
C608 N606 1.356 . S
C609 C603 1.363 . S
C609 C604 1.379 . S
C609 N607 1.356 . S
N610 C602 1.356 . S
N610 H616 0.984 . S
N610 H617 0.984 . S
N611 C604 1.356 . S
N611 H614 0.984 . S
N611 H615 0.985 . S
H612 N607 0.984 . S
H613 N607 0.985 . S
H614 N611 0.984 . S
H615 N611 0.985 . S
H616 N610 0.984 . S
H617 N610 0.984 . S
H618 N606 0.984 . S
H619 N606 0.985 . S
C620 C621 1.363 . S
C620 C626 1.379 . S
C620 N628 1.356 . S
C621 C620 1.363 . S
C621 C627 1.363 . S
C622 C623 1.363 . S
C622 C627 1.379 . S
C622 N629 1.356 . S
C623 C622 1.363 . S
C623 C626 1.363 . S
N624 C626 1.356 . S
N624 H636 0.984 . S
N624 H637 0.985 . S
N625 C627 1.356 . S
N625 H630 0.984 . S
N625 H631 0.985 . S
C626 C620 1.379 . S
C626 C623 1.363 . S
C626 N624 1.356 . S
C627 C621 1.363 . S
C627 C622 1.379 . S
C627 N625 1.356 . S
N628 C620 1.356 . S
N628 H634 0.984 . S
N628 H635 0.984 . S
N629 C622 1.356 . S
N629 H632 0.984 . S
N629 H633 0.985 . S
H630 N625 0.984 . S
H631 N625 0.985 . S
H632 N629 0.984 . S
H633 N629 0.985 . S
H634 N628 0.984 . S
H635 N628 0.984 . S
H636 N624 0.984 . S
H637 N624 0.985 . S
C638 C639 1.363 . S
C638 C644 1.379 . S
C638 N646 1.356 . S
C639 C638 1.363 . S
C639 C645 1.363 . S
C640 C641 1.363 . S
C640 C645 1.379 . S
C640 N647 1.356 . S
C641 C640 1.363 . S
C641 C644 1.363 . S
N642 C644 1.356 . S
N642 H654 0.984 . S
N642 H655 0.985 . S
N643 C645 1.356 1_565 S
N643 H648 0.984 . S
N643 H649 0.985 . S
C644 C638 1.379 . S
C644 C641 1.363 . S
C644 N642 1.356 . S
C645 C639 1.363 . S
C645 C640 1.379 . S
C645 N643 1.356 1_545 S
N646 C638 1.356 . S
N646 H652 0.984 . S
N646 H653 0.984 . S
N647 C640 1.356 . S
N647 H650 0.984 . S
N647 H651 0.985 . S
H648 N643 0.984 . S
H649 N643 0.985 . S
H650 N647 0.984 . S
H651 N647 0.985 . S
H652 N646 0.984 . S
H653 N646 0.984 . S
H654 N642 0.984 . S
H655 N642 0.985 . S
C656 C657 1.363 . S
C656 C662 1.379 . S
C656 N664 1.356 . S
C657 C656 1.363 . S
C657 C663 1.363 . S
C658 C659 1.363 . S
C658 C663 1.379 . S
C658 N665 1.356 . S
C659 C658 1.363 . S
C659 C662 1.363 . S
N660 C662 1.356 1_545 S
N660 H672 0.984 . S
N660 H673 0.985 . S
N661 C663 1.356 . S
N661 H666 0.984 . S
N661 H667 0.985 . S
C662 C656 1.379 . S
C662 C659 1.363 . S
C662 N660 1.356 1_565 S
C663 C657 1.363 . S
C663 C658 1.379 . S
C663 N661 1.356 . S
N664 C656 1.356 . S
N664 H670 0.984 . S
N664 H671 0.984 . S
N665 C658 1.356 . S
N665 H668 0.984 . S
N665 H669 0.985 . S
H666 N661 0.984 . S
H667 N661 0.985 . S
H668 N665 0.984 . S
H669 N665 0.985 . S
H670 N664 0.984 . S
H671 N664 0.984 . S
H672 N660 0.984 . S
H673 N660 0.985 . S
C674 C675 1.363 . S
C674 C680 1.379 . S
C674 N682 1.356 . S
C675 C674 1.363 . S
C675 C681 1.363 . S
C676 C677 1.363 . S
C676 C681 1.379 . S
C676 N683 1.356 . S
C677 C676 1.363 . S
C677 C680 1.363 . S
N678 C680 1.356 . S
N678 H690 0.984 . S
N678 H691 0.985 . S
N679 C681 1.356 . S
N679 H684 0.984 . S
N679 H685 0.985 . S
C680 C674 1.379 . S
C680 C677 1.363 . S
C680 N678 1.356 . S
C681 C675 1.363 . S
C681 C676 1.379 . S
C681 N679 1.356 . S
N682 C674 1.356 . S
N682 H688 0.984 . S
N682 H689 0.984 . S
N683 C676 1.356 . S
N683 H686 0.984 . S
N683 H687 0.985 . S
H684 N679 0.984 . S
H685 N679 0.985 . S
H686 N683 0.984 . S
H687 N683 0.985 . S
H688 N682 0.984 . S
H689 N682 0.984 . S
H690 N678 0.984 . S
H691 N678 0.985 . S
C692 C693 1.363 . S
C692 C698 1.379 . S
C692 N700 1.356 . S
C693 C692 1.363 . S
C693 C699 1.363 . S
C694 C695 1.363 . S
C694 C699 1.379 . S
C694 N701 1.356 . S
C695 C694 1.363 . S
C695 C698 1.363 . S
N696 C698 1.356 . S
N696 H708 0.984 . S
N696 H709 0.985 . S
N697 C699 1.356 . S
N697 H702 0.984 . S
N697 H703 0.985 . S
C698 C692 1.379 . S
C698 C695 1.363 . S
C698 N696 1.356 . S
C699 C693 1.363 . S
C699 C694 1.379 . S
C699 N697 1.356 . S
N700 C692 1.356 . S
N700 H706 0.984 . S
N700 H707 0.984 . S
N701 C694 1.356 . S
N701 H704 0.984 . S
N701 H705 0.985 . S
H702 N697 0.984 . S
H703 N697 0.985 . S
H704 N701 0.984 . S
H705 N701 0.985 . S
H706 N700 0.984 . S
H707 N700 0.984 . S
H708 N696 0.984 . S
H709 N696 0.985 . S
C710 C711 1.363 . S
C710 C716 1.379 . S
C710 N718 1.356 . S
C711 C710 1.363 . S
C711 C717 1.363 . S
C712 C713 1.363 . S
C712 C717 1.379 . S
C712 N719 1.356 . S
C713 C712 1.363 . S
C713 C716 1.363 . S
N714 C716 1.356 . S
N714 H726 0.984 . S
N714 H727 0.985 1_565 S
N715 C717 1.356 . S
N715 H720 0.984 . S
N715 H721 0.985 . S
C716 C710 1.379 . S
C716 C713 1.363 . S
C716 N714 1.356 . S
C717 C711 1.363 . S
C717 C712 1.379 . S
C717 N715 1.356 . S
N718 C710 1.356 . S
N718 H724 0.984 . S
N718 H725 0.984 . S
N719 C712 1.356 . S
N719 H722 0.984 . S
N719 H723 0.985 . S
H720 N715 0.984 . S
H721 N715 0.985 . S
H722 N719 0.984 . S
H723 N719 0.985 . S
H724 N718 0.984 . S
H725 N718 0.984 . S
H726 N714 0.984 . S
H727 N714 0.985 1_545 S
C728 C729 1.363 . S
C728 C734 1.379 . S
C728 N736 1.356 . S
C729 C728 1.363 . S
C729 C735 1.363 . S
C730 C731 1.363 . S
C730 C735 1.379 . S
C730 N737 1.356 . S
C731 C730 1.363 . S
C731 C734 1.363 . S
N732 C734 1.356 . S
N732 H744 0.984 . S
N732 H745 0.985 . S
N733 C735 1.356 . S
N733 H738 0.984 . S
N733 H739 0.985 . S
C734 C728 1.379 . S
C734 C731 1.363 . S
C734 N732 1.356 . S
C735 C729 1.363 . S
C735 C730 1.379 . S
C735 N733 1.356 . S
N736 C728 1.356 . S
N736 H742 0.984 . S
N736 H743 0.984 . S
N737 C730 1.356 . S
N737 H740 0.984 1_545 S
N737 H741 0.985 . S
H738 N733 0.984 . S
H739 N733 0.985 . S
H740 N737 0.984 1_565 S
H741 N737 0.985 . S
H742 N736 0.984 . S
H743 N736 0.984 . S
H744 N732 0.984 . S
H745 N732 0.985 . S
C746 C747 1.363 . S
C746 C752 1.379 . S
C746 N754 1.356 . S
C747 C746 1.363 . S
C747 C753 1.363 . S
C748 C749 1.363 . S
C748 C753 1.379 . S
C748 N755 1.356 . S
C749 C748 1.363 . S
C749 C752 1.363 . S
N750 C752 1.356 . S
N750 H762 0.984 . S
N750 H763 0.985 . S
N751 C753 1.356 . S
N751 H756 0.984 . S
N751 H757 0.985 . S
C752 C746 1.379 . S
C752 C749 1.363 . S
C752 N750 1.356 . S
C753 C747 1.363 . S
C753 C748 1.379 . S
C753 N751 1.356 . S
N754 C746 1.356 . S
N754 H760 0.984 . S
N754 H761 0.984 . S
N755 C748 1.356 . S
N755 H758 0.984 . S
N755 H759 0.985 . S
H756 N751 0.984 . S
H757 N751 0.985 . S
H758 N755 0.984 . S
H759 N755 0.985 . S
H760 N754 0.984 . S
H761 N754 0.984 . S
H762 N750 0.984 . S
H763 N750 0.985 . S
C764 C765 1.363 . S
C764 C770 1.379 . S
C764 N772 1.356 . S
C765 C764 1.363 . S
C765 C771 1.363 . S
C766 C767 1.363 . S
C766 C771 1.379 . S
C766 N773 1.356 . S
C767 C766 1.363 . S
C767 C770 1.363 . S
N768 C770 1.356 . S
N768 H780 0.984 . S
N768 H781 0.985 . S
N769 C771 1.356 . S
N769 H774 0.984 . S
N769 H775 0.985 . S
C770 C764 1.379 . S
C770 C767 1.363 . S
C770 N768 1.356 . S
C771 C765 1.363 . S
C771 C766 1.379 . S
C771 N769 1.356 . S
N772 C764 1.356 . S
N772 H778 0.984 . S
N772 H779 0.984 . S
N773 C766 1.356 . S
N773 H776 0.984 . S
N773 H777 0.985 . S
H774 N769 0.984 . S
H775 N769 0.985 . S
H776 N773 0.984 . S
H777 N773 0.985 . S
H778 N772 0.984 . S
H779 N772 0.984 . S
H780 N768 0.984 . S
H781 N768 0.985 . S
C782 C783 1.363 . S
C782 C788 1.379 . S
C782 N790 1.356 . S
C783 C782 1.363 . S
C783 C789 1.363 . S
C784 C785 1.363 . S
C784 C789 1.379 . S
C784 N791 1.356 . S
C785 C784 1.363 . S
C785 C788 1.363 . S
N786 C788 1.354 1_565 S
N786 H798 0.985 . S
N786 H799 0.986 . S
N787 C789 1.356 . S
N787 H792 0.984 . S
N787 H793 0.985 . S
C788 C782 1.379 . S
C788 C785 1.363 . S
C788 N786 1.354 1_545 S
C789 C783 1.363 . S
C789 C784 1.379 . S
C789 N787 1.356 . S
N790 C782 1.356 . S
N790 H796 0.984 . S
N790 H797 0.984 . S
N791 C784 1.356 . S
N791 H794 0.984 . S
N791 H795 0.985 . S
H792 N787 0.984 . S
H793 N787 0.985 . S
H794 N791 0.984 . S
H795 N791 0.985 . S
H796 N790 0.984 . S
H797 N790 0.984 . S
H798 N786 0.985 . S
H799 N786 0.986 . S
C225 C196 1.493 . S
C227 C0 1.493 . S
C243 C39 1.498 . S
C245 C11 1.498 . S
C261 C165 1.498 . S
C263 C25 1.498 . S
C279 C14 1.493 . S
C281 C98 1.493 . S
C297 C28 1.493 . S
C299 C168 1.493 . S
C315 C137 1.498 . S
C317 C53 1.498 . S
C333 C42 1.493 . S
C335 C70 1.493 . S
C351 C140 1.493 . S
C353 C56 1.493 . S
C369 C67 1.498 . S
C371 C95 1.498 . S
C387 C221 1.498 . S
C389 C81 1.498 . S
C405 C112 1.493 . S
C407 C84 1.493 . S
C423 C193 1.498 . S
C425 C109 1.498 . S
C441 C123 1.498 . S
C443 C151 1.498 . S
C459 C210 1.493 . S
C461 C126 1.493 . S
C477 C154 1.493 . S
C479 C182 1.493 . S
C495 C207 1.498 . S
C497 C179 1.498 . S
C513 C75 1.459 . S
C515 C9 1.454 1_565 S
C531 C5 1.459 . S
C533 C79 1.455 . S
C549 C19 1.458 . S
C551 C65 1.454 . S
C567 C61 1.458 . S
C569 C23 1.454 1_565 S
C585 C103 1.458 . S
C587 C37 1.454 1_545 S
C603 C107 1.454 . S
C605 C33 1.458 . S
C621 C93 1.455 . S
C623 C47 1.459 . S
C639 C51 1.455 1_545 S
C641 C89 1.459 . S
C657 C187 1.458 . S
C659 C121 1.454 1_565 S
C675 C117 1.458 . S
C677 C191 1.454 . S
C693 C131 1.458 . S
C695 C177 1.454 . S
C711 C173 1.458 . S
C713 C135 1.454 1_565 S
C729 C215 1.458 . S
C731 C149 1.454 1_545 S
C747 C219 1.454 . S
C749 C145 1.458 . S
C765 C159 1.458 . S
C767 C205 1.454 . S
C783 C201 1.458 . S
C785 C163 1.454 1_545 S
