# Generated by pormake.
# Topology fch, (5)-cn, num edge types: 1
# Building blocks:
#     Node 0, Type 0, BuildingBlock: XOMCOT_clean_sbu_0, # of connection points: 5
#     Node 1, Type 0, BuildingBlock: XOMCOT_clean_sbu_0, # of connection points: 5
#     Node 2, Type 0, BuildingBlock: XOMCOT_clean_sbu_0, # of connection points: 5
#     Node 3, Type 0, BuildingBlock: XOMCOT_clean_sbu_0, # of connection points: 5
#     Node 4, Type 0, BuildingBlock: XOMCOT_clean_sbu_0, # of connection points: 5
#     Node 5, Type 0, BuildingBlock: XOMCOT_clean_sbu_0, # of connection points: 5
#     Node 6, Type 0, BuildingBlock: XOMCOT_clean_sbu_0, # of connection points: 5
#     Node 7, Type 0, BuildingBlock: XOMCOT_clean_sbu_0, # of connection points: 5
#     Node 8, Type 0, BuildingBlock: XOMCOT_clean_sbu_0, # of connection points: 5
#     Node 9, Type 0, BuildingBlock: XOMCOT_clean_sbu_0, # of connection points: 5
#     Node 10, Type 0, BuildingBlock: XOMCOT_clean_sbu_0, # of connection points: 5
#     Node 11, Type 0, BuildingBlock: XOMCOT_clean_sbu_0, # of connection points: 5
#     Node 12, Type 0, BuildingBlock: XOMCOT_clean_sbu_0, # of connection points: 5
#     Node 13, Type 0, BuildingBlock: XOMCOT_clean_sbu_0, # of connection points: 5
#     Node 14, Type 0, BuildingBlock: XOMCOT_clean_sbu_0, # of connection points: 5
#     Node 15, Type 0, BuildingBlock: XOMCOT_clean_sbu_0, # of connection points: 5
#     Node 16, Type 0, BuildingBlock: XOMCOT_clean_sbu_0, # of connection points: 5
#     Node 17, Type 0, BuildingBlock: XOMCOT_clean_sbu_0, # of connection points: 5
#     Node 18, Type 0, BuildingBlock: XOMCOT_clean_sbu_0, # of connection points: 5
#     Node 19, Type 0, BuildingBlock: XOMCOT_clean_sbu_0, # of connection points: 5
#     Node 20, Type 0, BuildingBlock: XOMCOT_clean_sbu_0, # of connection points: 5
#     Node 21, Type 0, BuildingBlock: XOMCOT_clean_sbu_0, # of connection points: 5
#     Node 22, Type 0, BuildingBlock: XOMCOT_clean_sbu_0, # of connection points: 5
#     Node 23, Type 0, BuildingBlock: XOMCOT_clean_sbu_0, # of connection points: 5
#     Node 24, Type 0, BuildingBlock: XOMCOT_clean_sbu_0, # of connection points: 5
#     Node 25, Type 0, BuildingBlock: XOMCOT_clean_sbu_0, # of connection points: 5
#     Node 26, Type 0, BuildingBlock: XOMCOT_clean_sbu_0, # of connection points: 5
#     Node 27, Type 0, BuildingBlock: XOMCOT_clean_sbu_0, # of connection points: 5
#     Node 28, Type 0, BuildingBlock: XOMCOT_clean_sbu_0, # of connection points: 5
#     Node 29, Type 0, BuildingBlock: XOMCOT_clean_sbu_0, # of connection points: 5
#     Node 30, Type 0, BuildingBlock: XOMCOT_clean_sbu_0, # of connection points: 5
#     Node 31, Type 0, BuildingBlock: XOMCOT_clean_sbu_0, # of connection points: 5
#     Node 32, Type 0, BuildingBlock: XOMCOT_clean_sbu_0, # of connection points: 5
#     Node 33, Type 0, BuildingBlock: XOMCOT_clean_sbu_0, # of connection points: 5
#     Node 34, Type 0, BuildingBlock: XOMCOT_clean_sbu_0, # of connection points: 5
#     Node 35, Type 0, BuildingBlock: XOMCOT_clean_sbu_0, # of connection points: 5
#     Node 36, Type 0, BuildingBlock: XOMCOT_clean_sbu_0, # of connection points: 5
#     Node 37, Type 0, BuildingBlock: XOMCOT_clean_sbu_0, # of connection points: 5
#     Node 38, Type 0, BuildingBlock: XOMCOT_clean_sbu_0, # of connection points: 5
#     Node 39, Type 0, BuildingBlock: XOMCOT_clean_sbu_0, # of connection points: 5
#     Node 40, Type 0, BuildingBlock: XOMCOT_clean_sbu_0, # of connection points: 5
#     Node 41, Type 0, BuildingBlock: XOMCOT_clean_sbu_0, # of connection points: 5
#     Node 42, Type 0, BuildingBlock: XOMCOT_clean_sbu_0, # of connection points: 5
#     Node 43, Type 0, BuildingBlock: XOMCOT_clean_sbu_0, # of connection points: 5
#     Node 44, Type 0, BuildingBlock: XOMCOT_clean_sbu_0, # of connection points: 5
#     Node 45, Type 0, BuildingBlock: XOMCOT_clean_sbu_0, # of connection points: 5
#     Node 46, Type 0, BuildingBlock: XOMCOT_clean_sbu_0, # of connection points: 5
#     Node 47, Type 0, BuildingBlock: XOMCOT_clean_sbu_0, # of connection points: 5
#     Edge 48, Type (0, 0), None
#     Edge 49, Type (0, 0), None
#     Edge 50, Type (0, 0), None
#     Edge 51, Type (0, 0), None
#     Edge 52, Type (0, 0), None
#     Edge 53, Type (0, 0), None
#     Edge 54, Type (0, 0), None
#     Edge 55, Type (0, 0), None
#     Edge 56, Type (0, 0), None
#     Edge 57, Type (0, 0), None
#     Edge 58, Type (0, 0), None
#     Edge 59, Type (0, 0), None
#     Edge 60, Type (0, 0), None
#     Edge 61, Type (0, 0), None
#     Edge 62, Type (0, 0), None
#     Edge 63, Type (0, 0), None
#     Edge 64, Type (0, 0), None
#     Edge 65, Type (0, 0), None
#     Edge 66, Type (0, 0), None
#     Edge 67, Type (0, 0), None
#     Edge 68, Type (0, 0), None
#     Edge 69, Type (0, 0), None
#     Edge 70, Type (0, 0), None
#     Edge 71, Type (0, 0), None
#     Edge 72, Type (0, 0), None
#     Edge 73, Type (0, 0), None
#     Edge 74, Type (0, 0), None
#     Edge 75, Type (0, 0), None
#     Edge 76, Type (0, 0), None
#     Edge 77, Type (0, 0), None
#     Edge 78, Type (0, 0), None
#     Edge 79, Type (0, 0), None
#     Edge 80, Type (0, 0), None
#     Edge 81, Type (0, 0), None
#     Edge 82, Type (0, 0), None
#     Edge 83, Type (0, 0), None
#     Edge 84, Type (0, 0), None
#     Edge 85, Type (0, 0), None
#     Edge 86, Type (0, 0), None
#     Edge 87, Type (0, 0), None
#     Edge 88, Type (0, 0), None
#     Edge 89, Type (0, 0), None
#     Edge 90, Type (0, 0), None
#     Edge 91, Type (0, 0), None
#     Edge 92, Type (0, 0), None
#     Edge 93, Type (0, 0), None
#     Edge 94, Type (0, 0), None
#     Edge 95, Type (0, 0), None
#     Edge 96, Type (0, 0), None
#     Edge 97, Type (0, 0), None
#     Edge 98, Type (0, 0), None
#     Edge 99, Type (0, 0), None
#     Edge 100, Type (0, 0), None
#     Edge 101, Type (0, 0), None
#     Edge 102, Type (0, 0), None
#     Edge 103, Type (0, 0), None
#     Edge 104, Type (0, 0), None
#     Edge 105, Type (0, 0), None
#     Edge 106, Type (0, 0), None
#     Edge 107, Type (0, 0), None
#     Edge 108, Type (0, 0), None
#     Edge 109, Type (0, 0), None
#     Edge 110, Type (0, 0), None
#     Edge 111, Type (0, 0), None
#     Edge 112, Type (0, 0), None
#     Edge 113, Type (0, 0), None
#     Edge 114, Type (0, 0), None
#     Edge 115, Type (0, 0), None
#     Edge 116, Type (0, 0), None
#     Edge 117, Type (0, 0), None
#     Edge 118, Type (0, 0), None
#     Edge 119, Type (0, 0), None
#     Edge 120, Type (0, 0), None
#     Edge 121, Type (0, 0), None
#     Edge 122, Type (0, 0), None
#     Edge 123, Type (0, 0), None
#     Edge 124, Type (0, 0), None
#     Edge 125, Type (0, 0), None
#     Edge 126, Type (0, 0), None
#     Edge 127, Type (0, 0), None
#     Edge 128, Type (0, 0), None
#     Edge 129, Type (0, 0), None
#     Edge 130, Type (0, 0), None
#     Edge 131, Type (0, 0), None
#     Edge 132, Type (0, 0), None
#     Edge 133, Type (0, 0), None
#     Edge 134, Type (0, 0), None
#     Edge 135, Type (0, 0), None
#     Edge 136, Type (0, 0), None
#     Edge 137, Type (0, 0), None
#     Edge 138, Type (0, 0), None
#     Edge 139, Type (0, 0), None
#     Edge 140, Type (0, 0), None
#     Edge 141, Type (0, 0), None
#     Edge 142, Type (0, 0), None
#     Edge 143, Type (0, 0), None
#     Edge 144, Type (0, 0), None
#     Edge 145, Type (0, 0), None
#     Edge 146, Type (0, 0), None
#     Edge 147, Type (0, 0), None
#     Edge 148, Type (0, 0), None
#     Edge 149, Type (0, 0), None
#     Edge 150, Type (0, 0), None
#     Edge 151, Type (0, 0), None
#     Edge 152, Type (0, 0), None
#     Edge 153, Type (0, 0), None
#     Edge 154, Type (0, 0), None
#     Edge 155, Type (0, 0), None
#     Edge 156, Type (0, 0), None
#     Edge 157, Type (0, 0), None
#     Edge 158, Type (0, 0), None
#     Edge 159, Type (0, 0), None
#     Edge 160, Type (0, 0), None
#     Edge 161, Type (0, 0), None
#     Edge 162, Type (0, 0), None
#     Edge 163, Type (0, 0), None
#     Edge 164, Type (0, 0), None
#     Edge 165, Type (0, 0), None
#     Edge 166, Type (0, 0), None
#     Edge 167, Type (0, 0), None
# Relax obj value: 0.686
# Max RMSD: 0.234
# Mean RMSD: 0.234
data_MOF--net-fch--node1-XOMCOT_clean_sbu_0--edge1-none
_symmetry_space_group_name_H-M    P1
_symmetry_Int_Tables_number       1
_symmetry_cell_setting            triclinic
loop_
_symmetry_equiv_pos_as_xyz
'x, y, z'
_cell_length_a     38.074816
_cell_length_b     38.074897
_cell_length_c     38.074601
_cell_angle_alpha  90.001893
_cell_angle_beta   90.002573
_cell_angle_gamma 89.997144
loop_
_atom_site_label
_atom_site_type_symbol
_atom_site_fract_x
_atom_site_fract_y
_atom_site_fract_z
_atom_type_partial_charge
Co0 Co 0.08763 0.45053 0.15922 0.0
C1 C 0.03724 0.48978 0.20208 0.0
C2 C 0.08623 0.48253 0.2281 0.0
C3 C 0.06979 0.51011 0.24357 0.0
N4 N 0.06644 0.46987 0.2012 0.0
N5 N 0.03888 0.51384 0.22781 0.0
H6 H 1.0177 0.49074 0.18153 0.0
H7 H 0.11344 0.47756 0.23261 0.0
C8 C 0.14039 0.51015 0.14224 0.0
O9 O 0.16041 0.4909 0.12183 0.0
N10 N 0.11011 0.43294 0.11665 0.0
C11 C 0.12578 0.40154 0.11237 0.0
C12 C 0.1368 0.39852 0.07793 0.0
C13 C 0.11117 0.44836 0.08442 0.0
N14 N 0.12785 0.42803 0.06038 0.0
C15 C 0.10408 0.40003 0.21142 0.0
C16 C 0.16526 0.42992 0.23524 0.0
C17 C 0.14445 0.41091 0.25982 0.0
C18 C 0.11522 0.39333 0.24583 0.0
C19 C 0.15261 0.43661 0.20076 0.0
N20 N 0.12015 0.42481 0.19085 0.0
H21 H 0.07926 0.38889 0.20376 0.0
H22 H 0.1666 0.45503 0.18438 0.0
H23 H 0.12891 0.38206 0.1328 0.0
H24 H 0.10057 0.47418 0.07893 0.0
O25 O 0.05173 0.41425 0.15526 0.0
O26 O 0.04747 0.46624 0.13039 0.0
O27 O 0.11478 0.49645 0.15887 0.0
C28 C 0.03299 0.43591 0.13687 0.0
H29 H 0.08127 0.52869 0.26179 0.0
H30 H 0.15088 0.37645 0.06681 0.0
H31 H 0.18947 0.44242 0.24316 0.0
H32 H 0.09834 0.37731 0.26204 0.0
Co33 Co 0.60884 0.08759 0.15921 0.0
C34 C 0.56964 0.03716 0.20208 0.0
C35 C 0.57683 0.08616 0.22807 0.0
C36 C 0.54927 0.0697 0.24354 0.0
N37 N 0.58952 0.06638 0.20118 0.0
N38 N 0.54558 0.03878 0.2278 0.0
H39 H 0.56871 1.01761 0.18152 0.0
H40 H 0.58175 0.11339 0.23256 0.0
C41 C 0.5492 0.14033 0.14224 0.0
O42 O 0.56844 0.16037 0.12184 0.0
N43 N 0.62641 0.11009 0.11664 0.0
C44 C 0.65781 0.12577 0.11237 0.0
C45 C 0.66081 0.13683 0.07794 0.0
C46 C 0.61099 0.11116 0.08441 0.0
N47 N 0.6313 0.12788 0.06039 0.0
C48 C 0.65933 0.10404 0.21141 0.0
C49 C 0.62943 0.1652 0.23524 0.0
C50 C 0.64845 0.14441 0.25982 0.0
C51 C 0.66603 0.11517 0.24582 0.0
C52 C 0.62274 0.15256 0.20076 0.0
N53 N 0.63455 0.12011 0.19084 0.0
H54 H 0.67048 0.07922 0.20375 0.0
H55 H 0.60431 0.16655 0.18439 0.0
H56 H 0.67728 0.1289 0.13281 0.0
H57 H 0.58517 0.10056 0.07892 0.0
O58 O 0.64514 0.0517 0.15524 0.0
O59 O 0.59314 0.04743 0.13037 0.0
O60 O 0.56291 0.11473 0.15886 0.0
C61 C 0.62347 0.03296 0.13684 0.0
H62 H 0.53067 0.08118 0.26173 0.0
H63 H 0.68287 0.15092 0.06683 0.0
H64 H 0.61693 0.18942 0.24316 0.0
H65 H 0.68206 0.0983 0.26203 0.0
Co66 Co 0.97187 0.60881 0.1593 0.0
C67 C 1.02209 0.56925 0.20202 0.0
C68 C 0.9733 0.57693 0.22826 0.0
C69 C 0.98953 0.54917 0.24365 0.0
N70 N 0.99306 0.58943 0.20126 0.0
N71 N 1.0203 0.54517 0.22772 0.0
H72 H 0.04158 0.56817 0.18143 0.0
H73 H 0.94618 0.5822 0.23297 0.0
C74 C 0.91912 0.54919 0.14228 0.0
O75 O 0.8991 0.56845 0.12187 0.0
N76 N 0.94939 0.62641 0.11672 0.0
C77 C 0.93372 0.65782 0.11246 0.0
C78 C 0.92268 0.66084 0.07803 0.0
C79 C 0.94832 0.611 0.08449 0.0
N80 N 0.93162 0.63134 0.06046 0.0
C81 C 0.9554 0.65932 0.21148 0.0
C82 C 0.89417 0.62949 0.23524 0.0
C83 C 0.91495 0.64852 0.25983 0.0
C84 C 0.94422 0.66606 0.24586 0.0
C85 C 0.90686 0.62275 0.20079 0.0
N86 N 0.93934 0.63453 0.19091 0.0
H87 H 0.98023 0.67044 0.20385 0.0
H88 H 0.89288 0.60431 0.18441 0.0
H89 H 0.93059 0.67728 0.13291 0.0
H90 H 0.95892 0.58519 0.07899 0.0
O91 O 1.00778 0.64508 0.15537 0.0
O92 O 1.01203 0.59311 0.13046 0.0
O93 O 0.94471 0.56289 0.15893 0.0
C94 C 1.02652 0.62343 0.13697 0.0
H95 H 0.978 0.53073 0.26196 0.0
H96 H 0.90859 0.68292 0.06693 0.0
H97 H 0.86994 0.61702 0.24314 0.0
H98 H 0.96108 0.68209 0.26209 0.0
Co99 Co 0.45059 0.97179 0.15929 0.0
C100 C 0.49018 1.02199 0.202 0.0
C101 C 0.48247 0.97321 0.22826 0.0
C102 C 0.51024 0.98942 0.24363 0.0
N103 N 0.46997 0.99298 0.20126 0.0
N104 N 0.51426 1.02018 0.22769 0.0
H105 H 0.49126 0.04148 0.18141 0.0
H106 H 0.47717 0.9461 0.233 0.0
C107 C 0.51021 0.91905 0.14225 0.0
O108 O 0.49096 0.89905 0.12183 0.0
N109 N 0.43298 0.94932 0.11671 0.0
C110 C 0.40158 0.93365 0.11245 0.0
C111 C 0.39855 0.92263 0.07801 0.0
C112 C 0.44838 0.94828 0.08448 0.0
N113 N 0.42804 0.93159 0.06044 0.0
C114 C 0.40006 0.95531 0.21145 0.0
C115 C 0.4299 0.8941 0.23525 0.0
C116 C 0.41087 0.91489 0.25983 0.0
C117 C 0.39331 0.94414 0.24584 0.0
C118 C 0.43665 0.90678 0.20079 0.0
N119 N 0.42487 0.93926 0.1909 0.0
H120 H 0.38892 0.98013 0.20381 0.0
H121 H 0.4551 0.89281 0.18443 0.0
H122 H 0.38211 0.93051 0.13289 0.0
H123 H 0.47419 0.95888 0.07898 0.0
O124 O 0.41431 1.00769 0.15537 0.0
O125 O 0.46628 1.01195 0.13045 0.0
O126 O 0.49651 0.94463 0.15892 0.0
C127 C 0.43596 1.02644 0.13697 0.0
H128 H 0.52867 0.9779 0.26198 0.0
H129 H 0.37647 0.90856 0.06689 0.0
H130 H 0.44239 0.86987 0.24316 0.0
H131 H 0.37726 0.961 0.26205 0.0
Co132 Co 0.08767 0.60883 0.90027 0.0
C133 C 0.03721 0.56965 0.85741 0.0
C134 C 0.0862 0.57684 0.83139 0.0
C135 C 0.06972 0.54928 0.81592 0.0
N136 N 0.06644 0.58952 0.85829 0.0
N137 N 0.03881 0.54559 0.83167 0.0
H138 H 1.01768 0.56872 0.87797 0.0
H139 H 0.11342 0.58175 0.82688 0.0
C140 C 0.14037 0.54916 0.91723 0.0
O141 O 0.16042 0.5684 0.93763 0.0
N142 N 0.11018 0.62639 0.94284 0.0
C143 C 0.12589 0.65777 0.94711 0.0
C144 C 0.13693 0.66076 0.98154 0.0
C145 C 0.11124 0.61096 0.97506 0.0
N146 N 0.12796 0.63127 0.9991 0.0
C147 C 0.10414 0.65931 0.84806 0.0
C148 C 0.16528 0.62936 0.82422 0.0
C149 C 0.14449 0.64839 0.79965 0.0
C150 C 0.11527 0.66599 0.81365 0.0
C151 C 0.15264 0.62269 0.85871 0.0
N152 N 0.1202 0.63452 0.86863 0.0
H153 H 0.07934 0.67048 0.85573 0.0
H154 H 0.16663 0.60424 0.87508 0.0
H155 H 0.12903 0.67724 0.92668 0.0
H156 H 0.10061 0.58516 0.98055 0.0
O157 O 0.05181 0.64515 0.90424 0.0
O158 O 0.04751 0.59316 0.92911 0.0
O159 O 0.11478 0.56288 0.90061 0.0
C160 C 0.03305 0.6235 0.92263 0.0
H161 H 0.08119 0.53067 0.79772 0.0
H162 H 0.15104 0.68282 0.99266 0.0
H163 H 0.18948 0.61684 0.8163 0.0
H164 H 0.0984 0.68203 0.79744 0.0
Co165 Co 0.45053 0.0877 0.90024 0.0
C166 C 0.48975 0.03729 0.85737 0.0
C167 C 0.48255 0.08629 0.83138 0.0
C168 C 0.51012 0.06984 0.81591 0.0
N169 N 0.46986 0.06651 0.85826 0.0
N170 N 0.51383 0.03893 0.83165 0.0
H171 H 0.49068 1.01774 0.87791 0.0
H172 H 0.4776 0.11351 0.82688 0.0
C173 C 0.51017 0.14042 0.91725 0.0
O174 O 0.49093 0.16044 0.93767 0.0
N175 N 0.43295 0.11017 0.94282 0.0
C176 C 0.40155 0.12585 0.9471 0.0
C177 C 0.39855 0.13687 0.98155 0.0
C178 C 0.44837 0.11121 0.97505 0.0
N179 N 0.42805 0.1279 0.9991 0.0
C180 C 0.40004 0.10418 0.84804 0.0
C181 C 0.42997 0.16534 0.82424 0.0
C182 C 0.41095 0.14455 0.79965 0.0
C183 C 0.39336 0.11532 0.81363 0.0
C184 C 0.43664 0.15269 0.85872 0.0
N185 N 0.42482 0.12023 0.86862 0.0
H186 H 0.38888 0.07936 0.85569 0.0
H187 H 0.45507 0.16667 0.8751 0.0
H188 H 0.38208 0.129 0.92667 0.0
H189 H 0.47418 0.1006 0.98054 0.0
O190 O 0.41423 0.05181 0.90419 0.0
O191 O 0.46622 0.04752 0.92907 0.0
O192 O 0.49646 0.11483 0.90061 0.0
C193 C 0.43588 0.03306 0.92258 0.0
H194 H 0.52871 0.08132 0.79771 0.0
H195 H 0.37647 0.15095 0.99267 0.0
H196 H 0.44248 0.18955 0.81633 0.0
H197 H 0.37733 0.09845 0.79741 0.0
Co198 Co 0.97178 0.45063 0.90019 0.0
C199 C 1.02201 0.4902 0.8575 0.0
C200 C 0.97325 0.48246 0.83119 0.0
C201 C 0.98948 0.51024 0.81582 0.0
N202 N 0.993 0.46999 0.85822 0.0
N203 N 1.02022 0.51427 0.8318 0.0
H204 H 0.04148 0.49129 0.87811 0.0
H205 H 0.94616 0.47715 0.82642 0.0
C206 C 0.91908 0.51029 0.9172 0.0
O207 O 0.89906 0.49105 0.93762 0.0
N208 N 0.94929 0.43305 0.94276 0.0
C209 C 0.93358 0.40167 0.94702 0.0
C210 C 0.92253 0.39867 0.98145 0.0
C211 C 0.94824 0.44847 0.97499 0.0
N212 N 0.93151 0.42816 0.99902 0.0
C213 C 0.95527 0.40011 0.84802 0.0
C214 C 0.89407 0.42997 0.82423 0.0
C215 C 0.91484 0.41092 0.79966 0.0
C216 C 0.94409 0.39335 0.81364 0.0
C217 C 0.90677 0.43672 0.85868 0.0
N218 N 0.93924 0.42493 0.86857 0.0
H219 H 0.9801 0.38896 0.85567 0.0
H220 H 0.8928 0.45519 0.87505 0.0
H221 H 0.93043 0.3822 0.92658 0.0
H222 H 0.95886 0.47427 0.98049 0.0
O223 O 1.00766 0.41433 0.90413 0.0
O224 O 1.01195 0.4663 0.92903 0.0
O225 O 0.94466 0.49657 0.90054 0.0
C226 C 1.02642 0.43597 0.92252 0.0
H227 H 0.97796 0.52865 0.79746 0.0
H228 H 0.90842 0.3766 0.99256 0.0
H229 H 0.86985 0.44247 0.81633 0.0
H230 H 0.96094 0.3773 0.79743 0.0
Co231 Co 0.60873 0.97183 0.90018 0.0
C232 C 0.56921 1.02209 0.85745 0.0
C233 C 0.57685 0.97327 0.83122 0.0
C234 C 0.54911 0.98953 0.81583 0.0
N235 N 0.58936 0.99304 0.85821 0.0
N236 N 0.54514 1.02031 0.83175 0.0
H237 H 0.56816 0.04158 0.87804 0.0
H238 H 0.58208 0.94615 0.82652 0.0
C239 C 0.54909 0.91911 0.91719 0.0
O240 O 0.56834 0.89909 0.9376 0.0
N241 N 0.62633 0.94934 0.94275 0.0
C242 C 0.65772 0.93364 0.94701 0.0
C243 C 0.66073 0.92258 0.98143 0.0
C244 C 0.61092 0.94827 0.97498 0.0
N245 N 0.63123 0.93153 0.999 0.0
C246 C 0.65923 0.95534 0.848 0.0
C247 C 0.62938 0.89413 0.82422 0.0
C248 C 0.64842 0.91491 0.79964 0.0
C249 C 0.66598 0.94416 0.81361 0.0
C250 C 0.62265 0.90682 0.85867 0.0
N251 N 0.63444 0.9393 0.86856 0.0
H252 H 0.67037 0.98017 0.85564 0.0
H253 H 0.6042 0.89285 0.87505 0.0
H254 H 0.67718 0.93051 0.92656 0.0
H255 H 0.5851 0.95888 0.98049 0.0
O256 O 0.64503 1.00772 0.90412 0.0
O257 O 0.59306 1.012 0.92902 0.0
O258 O 0.5628 0.9447 0.90055 0.0
C259 C 0.62338 1.02647 0.92251 0.0
H260 H 0.53065 0.97802 0.79751 0.0
H261 H 0.68279 0.90847 0.99253 0.0
H262 H 0.61689 0.86991 0.81632 0.0
H263 H 0.68202 0.96102 0.79739 0.0
Co264 Co 0.15924 0.08768 0.45055 0.0
C265 C 0.2021 0.03725 0.48976 0.0
C266 C 0.22811 0.08625 0.48256 0.0
C267 C 0.24358 0.06978 0.51012 0.0
N268 N 0.20121 0.06648 0.46987 0.0
N269 N 0.22783 0.03887 0.51382 0.0
H270 H 0.18155 1.01772 0.49069 0.0
H271 H 0.23261 0.11347 0.47763 0.0
C272 C 0.14225 0.1404 0.51021 0.0
O273 O 0.12185 0.16044 0.49096 0.0
N274 N 0.11666 0.11018 0.43298 0.0
C275 C 0.11239 0.12587 0.40159 0.0
C276 C 0.07795 0.1369 0.39858 0.0
C277 C 0.08443 0.11123 0.4484 0.0
N278 N 0.0604 0.12793 0.42808 0.0
C279 C 0.21145 0.10417 0.40008 0.0
C280 C 0.23526 0.16532 0.43004 0.0
C281 C 0.25985 0.14453 0.41102 0.0
C282 C 0.24586 0.1153 0.39341 0.0
C283 C 0.20078 0.15267 0.4367 0.0
N284 N 0.19087 0.12022 0.42486 0.0
H285 H 0.20379 0.07936 0.38891 0.0
H286 H 0.1844 0.16665 0.45513 0.0
H287 H 0.13282 0.12901 0.38212 0.0
H288 H 0.07894 0.10061 0.47421 0.0
O289 O 0.15529 0.05181 0.41424 0.0
O290 O 0.13041 0.04752 0.46623 0.0
O291 O 0.15888 0.1148 0.49649 0.0
C292 C 0.1369 0.03306 0.43589 0.0
H293 H 0.26177 0.08126 0.52873 0.0
H294 H 0.06683 0.15099 0.37651 0.0
H295 H 0.24317 0.18952 0.44256 0.0
H296 H 0.26208 0.09844 0.37738 0.0
Co297 Co 0.9718 0.15925 0.45058 0.0
C298 C 1.02222 0.20211 0.4898 0.0
C299 C 0.97321 0.2281 0.48262 0.0
C300 C 0.98967 0.24356 0.51019 0.0
N301 N 0.99299 0.20122 0.46992 0.0
N302 N 1.0206 0.22783 0.51388 0.0
H303 H 0.04177 0.18157 0.49072 0.0
H304 H 0.94599 0.2326 0.4777 0.0
C305 C 0.91908 0.14224 0.51023 0.0
O306 O 0.89905 0.12183 0.49098 0.0
N307 N 0.94931 0.11668 0.433 0.0
C308 C 0.93363 0.11241 0.4016 0.0
C309 C 0.92261 0.07797 0.39858 0.0
C310 C 0.94827 0.08444 0.4484 0.0
N311 N 0.93158 0.06041 0.42808 0.0
C312 C 0.95531 0.21146 0.40012 0.0
C313 C 0.89415 0.23526 0.43005 0.0
C314 C 0.91493 0.25985 0.41103 0.0
C315 C 0.94416 0.24587 0.39343 0.0
C316 C 0.9068 0.20078 0.43672 0.0
N317 N 0.93926 0.19088 0.42489 0.0
H318 H 0.98012 0.20381 0.38895 0.0
H319 H 0.89283 0.1844 0.45515 0.0
H320 H 0.93048 0.13285 0.38213 0.0
H321 H 0.95889 0.07895 0.47422 0.0
O322 O 1.00768 0.15531 0.41428 0.0
O323 O 1.01197 0.13042 0.46626 0.0
O324 O 0.94468 0.15887 0.49652 0.0
C325 C 1.02643 0.13692 0.43593 0.0
H326 H 0.97819 0.26174 0.5288 0.0
H327 H 0.90852 0.06685 0.37651 0.0
H328 H 0.86994 0.24317 0.44256 0.0
H329 H 0.96102 0.26209 0.3774 0.0
Co330 Co 0.90026 0.97181 0.45056 0.0
C331 C 0.8574 1.02223 0.48979 0.0
C332 C 0.83141 0.97323 0.48259 0.0
C333 C 0.81595 0.98968 0.51016 0.0
N334 N 0.85829 0.99301 0.4699 0.0
N335 N 0.83169 1.0206 0.51387 0.0
H336 H 0.87795 0.04177 0.49072 0.0
H337 H 0.8269 0.94601 0.47765 0.0
C338 C 0.91727 0.91908 0.5102 0.0
O339 O 0.93767 0.89905 0.49095 0.0
N340 N 0.94283 0.94932 0.43298 0.0
C341 C 0.9471 0.93363 0.40158 0.0
C342 C 0.98154 0.92261 0.39857 0.0
C343 C 0.97507 0.94827 0.44839 0.0
N344 N 0.9991 0.93157 0.42807 0.0
C345 C 0.84805 0.95533 0.40009 0.0
C346 C 0.82424 0.89418 0.43001 0.0
C347 C 0.79966 0.91497 0.41099 0.0
C348 C 0.81364 0.9442 0.3934 0.0
C349 C 0.85872 0.90682 0.43669 0.0
N350 N 0.86863 0.93928 0.42487 0.0
H351 H 0.85571 0.98015 0.38893 0.0
H352 H 0.8751 0.89284 0.45512 0.0
H353 H 0.92666 0.93049 0.38212 0.0
H354 H 0.98056 0.95888 0.4742 0.0
O355 O 0.9042 1.00769 0.41426 0.0
O356 O 0.92909 1.01198 0.46625 0.0
O357 O 0.90064 0.94468 0.4965 0.0
C358 C 0.92259 1.02644 0.43592 0.0
H359 H 0.79776 0.9782 0.52877 0.0
H360 H 0.99265 0.90852 0.3765 0.0
H361 H 0.81633 0.86997 0.44252 0.0
H362 H 0.79743 0.96106 0.37737 0.0
Co363 Co 0.0877 0.90025 0.45054 0.0
C364 C 0.03731 0.8574 0.48979 0.0
C365 C 0.0863 0.83138 0.48256 0.0
C366 C 0.06987 0.81593 0.51015 0.0
N367 N 0.06652 0.85827 0.46988 0.0
N368 N 0.03896 0.83168 0.51387 0.0
H369 H 1.01777 0.87795 0.49073 0.0
H370 H 0.11351 0.82686 0.4776 0.0
C371 C 0.14044 0.91725 0.51018 0.0
O372 O 0.16046 0.93766 0.49094 0.0
N373 N 0.11018 0.94282 0.43295 0.0
C374 C 0.12586 0.9471 0.40156 0.0
C375 C 0.13688 0.98153 0.39855 0.0
C376 C 0.11123 0.97505 0.44837 0.0
N377 N 0.12793 0.99908 0.42806 0.0
C378 C 0.10418 0.84806 0.40004 0.0
C379 C 0.16533 0.82422 0.42996 0.0
C380 C 0.14454 0.79965 0.41093 0.0
C381 C 0.11531 0.81365 0.39334 0.0
C382 C 0.15269 0.8587 0.43665 0.0
N383 N 0.12023 0.86862 0.42483 0.0
H384 H 0.07936 0.85572 0.38888 0.0
H385 H 0.16667 0.87507 0.45509 0.0
H386 H 0.12899 0.92666 0.38208 0.0
H387 H 0.10063 0.98054 0.47419 0.0
O388 O 0.05181 0.90419 0.41425 0.0
O389 O 0.04754 0.92908 0.46623 0.0
O390 O 0.11484 0.90062 0.49647 0.0
C391 C 0.03307 0.92258 0.4359 0.0
H392 H 0.08135 0.79771 0.52873 0.0
H393 H 0.15096 0.99265 0.37647 0.0
H394 H 0.18954 0.8163 0.44247 0.0
H395 H 0.09844 0.79744 0.3773 0.0
Co396 Co 0.15931 0.97186 0.60879 0.0
C397 C 0.202 1.02208 0.56921 0.0
C398 C 0.22831 0.97332 0.57696 0.0
C399 C 0.24368 0.98954 0.54919 0.0
N400 N 0.20127 0.99307 0.58943 0.0
N401 N 0.22771 1.02028 0.54515 0.0
H402 H 0.18139 0.04155 0.56811 0.0
H403 H 0.23307 0.94623 0.58228 0.0
C404 C 0.14233 0.91913 0.54914 0.0
O405 O 0.12191 0.8991 0.56838 0.0
N406 N 0.11674 0.94936 0.62637 0.0
C407 C 0.11248 0.93367 0.65776 0.0
C408 C 0.07805 0.92261 0.66076 0.0
C409 C 0.08451 0.94829 0.61095 0.0
N410 N 0.06049 0.93157 0.63126 0.0
C411 C 0.21149 0.95537 0.6593 0.0
C412 C 0.23526 0.89414 0.62947 0.0
C413 C 0.25984 0.91492 0.64851 0.0
C414 C 0.24587 0.94418 0.66606 0.0
C415 C 0.20081 0.90684 0.62272 0.0
N416 N 0.19093 0.93933 0.6345 0.0
H417 H 0.20386 0.98021 0.67043 0.0
H418 H 0.18444 0.89287 0.60427 0.0
H419 H 0.13292 0.93054 0.67723 0.0
H420 H 0.07901 0.95889 0.58513 0.0
O421 O 0.15536 1.00775 0.64508 0.0
O422 O 0.13046 1.01201 0.5931 0.0
O423 O 0.15897 0.94472 0.56285 0.0
C424 C 0.13696 1.02649 0.62342 0.0
H425 H 0.26204 0.97802 0.53078 0.0
H426 H 0.06695 0.90851 0.68283 0.0
H427 H 0.24315 0.86991 0.617 0.0
H428 H 0.26209 0.96104 0.6821 0.0
Co429 Co 0.08765 0.15928 0.6088 0.0
C430 C 0.03741 0.202 0.56926 0.0
C431 C 0.0862 0.22826 0.57696 0.0
C432 C 0.06996 0.24364 0.5492 0.0
N433 N 0.06644 0.20125 0.58944 0.0
N434 N 0.0392 0.2277 0.54519 0.0
H435 H 1.01793 0.1814 0.56817 0.0
H436 H 0.11331 0.23299 0.58223 0.0
C437 C 0.14038 0.14229 0.54916 0.0
O438 O 0.16041 0.12187 0.5684 0.0
N439 N 0.11015 0.1167 0.62638 0.0
C440 C 0.12584 0.11243 0.65778 0.0
C441 C 0.1369 0.07801 0.66077 0.0
C442 C 0.11122 0.08448 0.61096 0.0
N443 N 0.12796 0.06045 0.63126 0.0
C444 C 0.10413 0.21145 0.65932 0.0
C445 C 0.16534 0.23523 0.62948 0.0
C446 C 0.14456 0.25981 0.64851 0.0
C447 C 0.11531 0.24584 0.66607 0.0
C448 C 0.15266 0.20078 0.62274 0.0
N449 N 0.12018 0.19089 0.63452 0.0
H450 H 0.0793 0.20381 0.67045 0.0
H451 H 0.16663 0.1844 0.60429 0.0
H452 H 0.12896 0.13287 0.67725 0.0
H453 H 0.10061 0.07898 0.58515 0.0
O454 O 0.05176 0.15533 0.64509 0.0
O455 O 0.04749 0.13043 0.59311 0.0
O456 O 0.11479 0.15893 0.56287 0.0
C457 C 0.03301 0.13693 0.62344 0.0
H458 H 0.08147 0.26199 0.53078 0.0
H459 H 0.151 0.0669 0.68285 0.0
H460 H 0.18957 0.24314 0.61699 0.0
H461 H 0.09844 0.26206 0.6821 0.0
Co462 Co 0.90023 0.08762 0.60882 0.0
C463 C 0.85753 0.0374 0.56925 0.0
C464 C 0.83124 0.08616 0.57699 0.0
C465 C 0.81585 0.06994 0.54923 0.0
N466 N 0.85826 0.06641 0.58946 0.0
N467 N 0.83182 0.03919 0.54519 0.0
H468 H 0.87814 1.01792 0.56815 0.0
H469 H 0.82648 0.11326 0.5823 0.0
C470 C 0.91719 0.14037 0.54919 0.0
O471 O 0.93761 0.16039 0.56843 0.0
N472 N 0.9428 0.11012 0.6264 0.0
C473 C 0.94707 0.12581 0.65779 0.0
C474 C 0.9815 0.13687 0.66079 0.0
C475 C 0.97503 0.1112 0.61097 0.0
N476 N 0.99905 0.12794 0.63128 0.0
C477 C 0.84807 0.10409 0.65936 0.0
C478 C 0.82426 0.1653 0.62953 0.0
C479 C 0.79969 0.14451 0.64857 0.0
C480 C 0.81368 0.11525 0.66612 0.0
C481 C 0.85871 0.15262 0.62278 0.0
N482 N 0.86861 0.12014 0.63455 0.0
H483 H 0.85572 0.07926 0.67048 0.0
H484 H 0.87507 0.1666 0.60433 0.0
H485 H 0.92664 0.12893 0.67727 0.0
H486 H 0.98052 0.10059 0.58516 0.0
O487 O 0.9042 0.05173 0.6451 0.0
O488 O 0.92908 0.04747 0.59312 0.0
O489 O 0.90056 0.11477 0.56289 0.0
C490 C 0.92259 0.03299 0.62344 0.0
H491 H 0.79749 0.08145 0.53081 0.0
H492 H 0.99261 0.15097 0.68286 0.0
H493 H 0.81634 0.18952 0.61706 0.0
H494 H 0.79748 0.09838 0.68216 0.0
Co495 Co 0.9719 0.9002 0.60879 0.0
C496 C 1.02214 0.85748 0.56926 0.0
C497 C 0.97334 0.83124 0.57692 0.0
C498 C 0.98958 0.81586 0.54917 0.0
N499 N 0.9931 0.85824 0.58943 0.0
N500 N 1.02036 0.83178 0.54518 0.0
H501 H 0.04163 0.87807 0.56819 0.0
H502 H 0.94622 0.82653 0.58217 0.0
C503 C 0.91915 0.91719 0.54916 0.0
O504 O 0.89912 0.9376 0.5684 0.0
N505 N 0.9494 0.94277 0.62638 0.0
C506 C 0.93372 0.94704 0.65777 0.0
C507 C 0.92266 0.98147 0.66078 0.0
C508 C 0.94832 0.975 0.61096 0.0
N509 N 0.93159 0.99902 0.63127 0.0
C510 C 0.95543 0.84802 0.6593 0.0
C511 C 0.89421 0.82424 0.62947 0.0
C512 C 0.915 0.79966 0.6485 0.0
C513 C 0.94426 0.81364 0.66605 0.0
C514 C 0.9069 0.8587 0.62273 0.0
N515 N 0.93938 0.86858 0.63451 0.0
H516 H 0.98027 0.85566 0.67043 0.0
H517 H 0.89291 0.87507 0.60429 0.0
H518 H 0.9306 0.9266 0.67725 0.0
H519 H 0.95892 0.9805 0.58514 0.0
O520 O 1.00779 0.90416 0.64507 0.0
O521 O 1.01205 0.92905 0.59309 0.0
O522 O 0.94475 0.90055 0.56286 0.0
C523 C 1.02653 0.92255 0.62342 0.0
H524 H 0.97806 0.79754 0.53071 0.0
H525 H 0.90857 0.99257 0.68285 0.0
H526 H 0.86998 0.81634 0.61699 0.0
H527 H 0.96113 0.79743 0.68209 0.0
Co528 Co 0.45057 0.15922 0.08768 0.0
C529 C 0.48982 0.20204 0.03727 0.0
C530 C 0.48254 0.22811 0.08622 0.0
C531 C 0.51013 0.24356 0.06978 0.0
N532 N 0.46989 0.20119 0.06646 0.0
N533 N 0.51388 0.22778 0.03889 0.0
H534 H 0.49078 0.18147 1.01775 0.0
H535 H 0.47756 0.23267 0.11342 0.0
C536 C 0.51024 0.14224 0.14039 0.0
O537 O 0.49101 0.12184 0.16043 0.0
N538 N 0.43301 0.11666 0.11019 0.0
C539 C 0.40162 0.11239 0.1259 0.0
C540 C 0.39863 0.07796 0.13696 0.0
C541 C 0.44843 0.08443 0.11125 0.0
N542 N 0.42813 0.06041 0.12799 0.0
C543 C 0.40009 0.21142 0.10418 0.0
C544 C 0.43004 0.23525 0.16533 0.0
C545 C 0.411 0.25983 0.14454 0.0
C546 C 0.3934 0.24583 0.11532 0.0
C547 C 0.43672 0.20077 0.15267 0.0
N548 N 0.42489 0.19086 0.12022 0.0
H549 H 0.38892 0.20376 0.07937 0.0
H550 H 0.45517 0.1844 0.16665 0.0
H551 H 0.38215 0.13283 0.12904 0.0
H552 H 0.47423 0.07893 0.10063 0.0
O553 O 0.41425 0.15527 0.05182 0.0
O554 O 0.46624 0.13038 0.04752 0.0
O555 O 0.49652 0.15886 0.11479 0.0
C556 C 0.4359 0.13688 0.03306 0.0
H557 H 0.5287 0.26179 0.08125 0.0
H558 H 0.37656 0.06686 0.15106 0.0
H559 H 0.44256 0.24317 0.18953 0.0
H560 H 0.37735 0.26204 0.09846 0.0
Co561 Co 0.4505 0.90027 0.97184 0.0
C562 C 0.48972 0.85739 1.02225 0.0
C563 C 0.48251 0.8314 0.97325 0.0
C564 C 0.51007 0.81592 0.9897 0.0
N565 N 0.46983 0.85829 0.99303 0.0
N566 N 0.51378 0.83166 1.02062 0.0
H567 H 0.49066 0.87794 0.04179 0.0
H568 H 0.47759 0.82691 0.94602 0.0
C569 C 0.51014 0.91723 0.91909 0.0
O570 O 0.49089 0.93764 0.89905 0.0
N571 N 0.43293 0.94284 0.94935 0.0
C572 C 0.40153 0.94712 0.93366 0.0
C573 C 0.39853 0.98155 0.92262 0.0
C574 C 0.44836 0.97506 0.94828 0.0
N575 N 0.42805 0.99909 0.93156 0.0
C576 C 0.40003 0.84806 0.95537 0.0
C577 C 0.42994 0.82425 0.8942 0.0
C578 C 0.41093 0.79966 0.915 0.0
C579 C 0.39335 0.81365 0.94423 0.0
C580 C 0.43661 0.85873 0.90685 0.0
N581 N 0.4248 0.86864 0.93931 0.0
H582 H 0.38887 0.85572 0.98018 0.0
H583 H 0.45504 0.87511 0.89286 0.0
H584 H 0.38206 0.92669 0.93054 0.0
H585 H 0.47417 0.98055 0.95888 0.0
O586 O 0.41421 0.90422 1.00772 0.0
O587 O 0.4662 0.9291 1.012 0.0
O588 O 0.49644 0.90062 0.9447 0.0
C589 C 0.43587 0.92261 1.02647 0.0
H590 H 0.52868 0.79773 0.97822 0.0
H591 H 0.37646 0.99267 0.90853 0.0
H592 H 0.44245 0.81634 0.86999 0.0
H593 H 0.37732 0.79743 0.9611 0.0
Co594 Co 0.15921 0.45054 0.97181 0.0
C595 C 0.20207 0.48973 1.02226 0.0
C596 C 0.22809 0.48252 0.97327 0.0
C597 C 0.24356 0.51008 0.98974 0.0
N598 N 0.20118 0.46984 0.99303 0.0
N599 N 0.2278 0.51378 1.02065 0.0
H600 H 0.1815 0.49067 0.04179 0.0
H601 H 0.2326 0.47759 0.94605 0.0
C602 C 0.14226 0.51021 0.9191 0.0
O603 O 0.12185 0.49098 0.89905 0.0
N604 N 0.11664 0.43299 0.94929 0.0
C605 C 0.11236 0.40161 0.93359 0.0
C606 C 0.07793 0.39862 0.92254 0.0
C607 C 0.08442 0.44842 0.94823 0.0
N608 N 0.06038 0.42813 0.9315 0.0
C609 C 0.21142 0.40006 0.95532 0.0
C610 C 0.23524 0.43 0.89418 0.0
C611 C 0.25982 0.41098 0.91496 0.0
C612 C 0.24583 0.39338 0.94419 0.0
C613 C 0.20076 0.43668 0.90682 0.0
N614 N 0.19085 0.42485 0.93927 0.0
H615 H 0.20376 0.3889 0.98014 0.0
H616 H 0.18438 0.45511 0.89284 0.0
H617 H 0.13279 0.38213 0.93045 0.0
H618 H 0.07893 0.47423 0.95886 0.0
O619 O 0.15524 0.41422 1.00766 0.0
O620 O 0.13037 0.46622 1.01197 0.0
O621 O 0.15887 0.49649 0.9447 0.0
C622 C 0.13685 0.43588 1.02642 0.0
H623 H 0.26176 0.52868 0.97827 0.0
H624 H 0.06681 0.37656 0.90844 0.0
H625 H 0.24315 0.44252 0.86997 0.0
H626 H 0.26205 0.37734 0.96105 0.0
Co627 Co 0.60879 0.15927 0.97182 0.0
C628 C 0.56927 0.20196 1.02208 0.0
C629 C 0.57698 0.22826 0.97332 0.0
C630 C 0.54923 0.24364 0.98957 0.0
N631 N 0.58946 0.20123 0.99306 0.0
N632 N 0.54521 0.22767 1.02031 0.0
H633 H 0.56817 0.18134 0.04154 0.0
H634 H 0.58226 0.23302 0.94622 0.0
C635 C 0.54913 0.14232 0.9191 0.0
O636 O 0.56836 0.1219 0.89907 0.0
N637 N 0.62635 0.1167 0.94929 0.0
C638 C 0.65774 0.11242 0.93359 0.0
C639 C 0.66073 0.07799 0.92254 0.0
C640 C 0.61092 0.08447 0.94823 0.0
N641 N 0.63122 0.06044 0.93149 0.0
C642 C 0.6593 0.21144 0.95533 0.0
C643 C 0.62944 0.23524 0.89413 0.0
C644 C 0.64849 0.25981 0.91491 0.0
C645 C 0.66605 0.24583 0.94416 0.0
C646 C 0.6227 0.20078 0.90681 0.0
N647 N 0.6345 0.19089 0.93929 0.0
H648 H 0.67044 0.20379 0.98016 0.0
H649 H 0.60425 0.18442 0.89284 0.0
H650 H 0.67721 0.13285 0.93046 0.0
H651 H 0.58512 0.07898 0.95886 0.0
O652 O 0.6451 0.15529 1.00768 0.0
O653 O 0.59311 0.13041 1.01197 0.0
O654 O 0.56285 0.15895 0.9447 0.0
C655 C 0.62345 0.1369 1.02643 0.0
H656 H 0.53079 0.26198 0.97805 0.0
H657 H 0.68279 0.06688 0.90844 0.0
H658 H 0.61696 0.24315 0.86991 0.0
H659 H 0.6821 0.26204 0.96102 0.0
Co660 Co 0.90026 0.60888 0.97187 0.0
C661 C 0.85738 0.56967 1.02228 0.0
C662 C 0.8314 0.57687 0.97327 0.0
C663 C 0.81593 0.5493 0.98972 0.0
N664 N 0.85828 0.58955 0.99306 0.0
N665 N 0.83166 0.5456 1.02065 0.0
H666 H 0.87793 0.56874 0.04183 0.0
H667 H 0.82691 0.58179 0.94604 0.0
C668 C 0.91722 0.54925 0.9191 0.0
O669 O 0.93763 0.56849 0.89907 0.0
N670 N 0.94283 0.62645 0.94938 0.0
C671 C 0.94711 0.65786 0.93371 0.0
C672 C 0.98154 0.66086 0.92268 0.0
C673 C 0.97505 0.61103 0.94831 0.0
N674 N 0.99909 0.63134 0.93161 0.0
C675 C 0.84805 0.65936 0.95541 0.0
C676 C 0.82425 0.62947 0.89423 0.0
C677 C 0.79966 0.64849 0.91502 0.0
C678 C 0.81364 0.66606 0.94427 0.0
C679 C 0.85873 0.62279 0.90688 0.0
N680 N 0.86863 0.63459 0.93935 0.0
H681 H 0.85569 0.6705 0.98024 0.0
H682 H 0.87511 0.60437 0.89289 0.0
H683 H 0.92668 0.67734 0.9306 0.0
H684 H 0.98054 0.58521 0.95891 0.0
O685 O 0.90422 0.64517 1.00776 0.0
O686 O 0.92909 0.59317 1.01203 0.0
O687 O 0.90061 0.56295 0.94472 0.0
C688 C 0.92261 0.6235 1.0265 0.0
H689 H 0.79774 0.53069 0.97824 0.0
H690 H 0.99266 0.68294 0.9086 0.0
H691 H 0.81634 0.61698 0.87 0.0
H692 H 0.79742 0.68208 0.96114 0.0
Co693 Co 0.60878 0.90017 0.0876 0.0
C694 C 0.56918 0.85747 0.0374 0.0
C695 C 0.57693 0.83119 0.08616 0.0
C696 C 0.54915 0.81582 0.06996 0.0
N697 N 0.5894 0.8582 0.0664 0.0
N698 N 0.54511 0.83177 0.0392 0.0
H699 H 0.56809 0.87807 1.01792 0.0
H700 H 0.58225 0.82644 0.11326 0.0
C701 C 0.54917 0.91716 0.14036 0.0
O702 O 0.56842 0.93758 0.16038 0.0
N703 N 0.62639 0.94273 0.11008 0.0
C704 C 0.65779 0.947 0.12575 0.0
C705 C 0.66081 0.98143 0.13679 0.0
C706 C 0.61097 0.97496 0.11116 0.0
N707 N 0.6313 0.99899 0.12786 0.0
C708 C 0.6593 0.84798 0.10406 0.0
C709 C 0.6295 0.82422 0.1653 0.0
C710 C 0.64853 0.79963 0.14451 0.0
C711 C 0.66606 0.8136 0.11524 0.0
C712 C 0.62275 0.85867 0.1526 0.0
N713 N 0.63451 0.86854 0.12012 0.0
H714 H 0.67042 0.85562 0.07922 0.0
H715 H 0.60431 0.87504 0.16659 0.0
H716 H 0.67727 0.92656 0.12886 0.0
H717 H 0.58515 0.98046 0.10056 0.0
O718 O 0.64506 0.90411 0.05169 0.0
O719 O 0.59308 0.92902 0.04745 0.0
O720 O 0.56287 0.90052 0.11476 0.0
C721 C 0.62339 0.92251 0.03296 0.0
H722 H 0.53073 0.79747 0.08148 0.0
H723 H 0.6829 0.99254 0.15086 0.0
H724 H 0.61703 0.81632 0.18953 0.0
H725 H 0.68209 0.79738 0.09837 0.0
Co726 Co 0.15931 0.60876 0.08769 0.0
C727 C 0.20198 0.56917 0.03746 0.0
C728 C 0.2283 0.57692 0.0862 0.0
C729 C 0.24366 0.54915 0.06998 0.0
N730 N 0.20127 0.58939 0.06646 0.0
N731 N 0.22768 0.54511 0.03924 0.0
H732 H 0.18136 0.56808 1.01799 0.0
H733 H 0.23308 0.58224 0.1133 0.0
C734 C 0.1423 0.54911 0.14039 0.0
O735 O 0.12189 0.56835 0.16042 0.0
N736 N 0.11674 0.62635 0.11019 0.0
C737 C 0.11248 0.65774 0.12589 0.0
C738 C 0.07805 0.66075 0.13694 0.0
C739 C 0.08451 0.61094 0.11125 0.0
N740 N 0.06049 0.63125 0.12799 0.0
C741 C 0.21148 0.65928 0.10418 0.0
C742 C 0.23528 0.62942 0.16538 0.0
C743 C 0.25985 0.64847 0.1446 0.0
C744 C 0.24586 0.66604 0.11536 0.0
C745 C 0.20083 0.62267 0.15269 0.0
N746 N 0.19093 0.63447 0.12022 0.0
H747 H 0.20382 0.67043 0.07936 0.0
H748 H 0.18447 0.60421 0.16666 0.0
H749 H 0.13292 0.6772 0.12903 0.0
H750 H 0.079 0.58513 0.10063 0.0
O751 O 0.15536 0.64506 0.05181 0.0
O752 O 0.13045 0.59309 0.04753 0.0
O753 O 0.15895 0.56282 0.11481 0.0
C754 C 0.13696 0.62341 0.03306 0.0
H755 H 0.26203 0.53073 0.08149 0.0
H756 H 0.06695 0.68282 0.15105 0.0
H757 H 0.2432 0.61693 0.1896 0.0
H758 H 0.26206 0.68209 0.0985 0.0
Co759 Co 0.90019 0.45062 0.08763 0.0
C760 C 0.85747 0.49021 0.03743 0.0
C761 C 0.83122 0.4825 0.08622 0.0
C762 C 0.81584 0.51027 0.07 0.0
N763 N 0.85822 0.47001 0.06645 0.0
N764 N 0.83178 0.51428 0.03924 0.0
H765 H 0.87806 0.49128 1.01794 0.0
H766 H 0.8265 0.47722 0.11333 0.0
C767 C 0.91721 0.51023 0.14039 0.0
O768 O 0.93763 0.49098 0.1604 0.0
N769 N 0.94277 0.43301 0.1101 0.0
C770 C 0.94703 0.40161 0.12577 0.0
C771 C 0.98146 0.39859 0.13682 0.0
C772 C 0.975 0.44842 0.11118 0.0
N773 N 0.99902 0.42809 0.12789 0.0
C774 C 0.84802 0.4001 0.10411 0.0
C775 C 0.82424 0.42994 0.16533 0.0
C776 C 0.79966 0.41092 0.14454 0.0
C777 C 0.81363 0.39336 0.11528 0.0
C778 C 0.8587 0.43668 0.15264 0.0
N779 N 0.86858 0.4249 0.12016 0.0
H780 H 0.85566 0.38897 0.07928 0.0
H781 H 0.87507 0.45512 0.16662 0.0
H782 H 0.92659 0.38214 0.12889 0.0
H783 H 0.9805 0.47423 0.10058 0.0
O784 O 0.90411 0.41434 0.05172 0.0
O785 O 0.92903 0.46631 0.04747 0.0
O786 O 0.90057 0.49654 0.11479 0.0
C787 C 0.92251 0.436 0.03298 0.0
H788 H 0.7975 0.5287 0.08153 0.0
H789 H 0.99257 0.3765 0.15089 0.0
H790 H 0.81634 0.44242 0.18956 0.0
H791 H 0.79742 0.37733 0.09842 0.0
Co792 Co 0.58764 0.95053 0.65921 0.0
C793 C 0.53725 0.98978 0.70207 0.0
C794 C 0.58623 0.98252 0.72809 0.0
C795 C 0.56979 1.0101 0.74356 0.0
N796 N 0.56645 0.96986 0.70119 0.0
N797 N 0.53889 1.01384 0.72781 0.0
H798 H 0.51771 0.99074 0.68152 0.0
H799 H 0.61344 0.97755 0.73261 0.0
C800 C 0.64039 1.01015 0.64224 0.0
O801 O 0.66042 0.9909 0.62183 0.0
N802 N 0.61012 0.93294 0.61664 0.0
C803 C 0.62579 0.90154 0.61236 0.0
C804 C 0.63681 0.89853 0.57792 0.0
C805 C 0.61118 0.94836 0.58441 0.0
N806 N 0.62786 0.92804 0.56037 0.0
C807 C 0.60409 0.90003 0.71141 0.0
C808 C 0.66526 0.92992 0.73523 0.0
C809 C 0.64445 0.91092 0.75981 0.0
C810 C 0.61522 0.89333 0.74582 0.0
C811 C 0.65262 0.9366 0.70075 0.0
N812 N 0.62015 0.9248 0.69084 0.0
H813 H 0.57927 0.88888 0.70375 0.0
H814 H 0.66661 0.95503 0.68438 0.0
H815 H 0.62891 0.88206 0.6328 0.0
H816 H 0.60058 0.97418 0.57893 0.0
O817 O 0.55174 0.91425 0.65525 0.0
O818 O 0.54748 0.96624 0.63038 0.0
O819 O 0.61479 0.99645 0.65886 0.0
C820 C 0.533 0.93591 0.63686 0.0
H821 H 0.58128 1.02868 0.76179 0.0
H822 H 0.65089 0.87645 0.56681 0.0
H823 H 0.68948 0.94241 0.74315 0.0
H824 H 0.59834 0.87731 0.76204 0.0
Co825 Co 0.10884 0.58759 0.65921 0.0
C826 C 0.06965 0.53716 0.70208 0.0
C827 C 0.07683 0.58617 0.72807 0.0
C828 C 0.04927 0.5697 0.74355 0.0
N829 N 0.08952 0.56639 0.70119 0.0
N830 N 0.04558 0.53878 0.72781 0.0
H831 H 0.06872 0.51762 0.68153 0.0
H832 H 0.08175 0.6134 0.73256 0.0
C833 C 0.0492 0.64034 0.64225 0.0
O834 O 0.06844 0.66038 0.62185 0.0
N835 N 0.12641 0.61009 0.61664 0.0
C836 C 0.15781 0.62578 0.61238 0.0
C837 C 0.1608 0.63683 0.57795 0.0
C838 C 0.11098 0.61117 0.58442 0.0
N839 N 0.1313 0.62789 0.56039 0.0
C840 C 0.15933 0.60404 0.71142 0.0
C841 C 0.12942 0.66521 0.73525 0.0
C842 C 0.14844 0.6444 0.75982 0.0
C843 C 0.16603 0.61517 0.74583 0.0
C844 C 0.12274 0.65257 0.70077 0.0
N845 N 0.13455 0.62011 0.69085 0.0
H846 H 0.17048 0.57923 0.70376 0.0
H847 H 0.10431 0.66656 0.68439 0.0
H848 H 0.17728 0.6289 0.63281 0.0
H849 H 0.08517 0.60057 0.57893 0.0
O850 O 0.14514 0.55171 0.65524 0.0
O851 O 0.09314 0.54744 0.63037 0.0
O852 O 0.06291 0.61473 0.65887 0.0
C853 C 0.12347 0.53297 0.63685 0.0
H854 H 0.03067 0.58118 0.76174 0.0
H855 H 0.18287 0.65093 0.56684 0.0
H856 H 0.11693 0.68942 0.74317 0.0
H857 H 0.18206 0.5983 0.76204 0.0
Co858 Co 0.47188 0.10881 0.65929 0.0
C859 C 0.5221 0.06925 0.70201 0.0
C860 C 0.47331 0.07694 0.72826 0.0
C861 C 0.48954 0.04918 0.74364 0.0
N862 N 0.49308 0.08943 0.70126 0.0
N863 N 0.52031 0.04517 0.72771 0.0
H864 H 0.54159 0.06817 0.68142 0.0
H865 H 0.44619 0.08221 0.73297 0.0
C866 C 0.41913 0.04919 0.64228 0.0
O867 O 0.39911 0.06845 0.62187 0.0
N868 N 0.4494 0.12641 0.61672 0.0
C869 C 0.43373 0.15782 0.61246 0.0
C870 C 0.42269 0.16084 0.57803 0.0
C871 C 0.44833 0.111 0.58449 0.0
N872 N 0.43163 0.13134 0.56046 0.0
C873 C 0.45541 0.15932 0.71148 0.0
C874 C 0.39418 0.12949 0.73524 0.0
C875 C 0.41496 0.14851 0.75983 0.0
C876 C 0.44423 0.16606 0.74586 0.0
C877 C 0.40687 0.12276 0.70078 0.0
N878 N 0.43935 0.13453 0.69091 0.0
H879 H 0.48024 0.17044 0.70385 0.0
H880 H 0.39289 0.10432 0.6844 0.0
H881 H 0.4306 0.17728 0.6329 0.0
H882 H 0.45892 0.08519 0.57898 0.0
O883 O 0.50779 0.14509 0.65536 0.0
O884 O 0.51204 0.09311 0.63045 0.0
O885 O 0.44473 0.06289 0.65892 0.0
C886 C 0.52653 0.12343 0.63696 0.0
H887 H 0.47801 0.03073 0.76196 0.0
H888 H 0.4086 0.18292 0.56692 0.0
H889 H 0.36994 0.11702 0.74313 0.0
H890 H 0.46109 0.18209 0.76209 0.0
Co891 Co 0.95059 0.4718 0.6593 0.0
C892 C 0.99018 0.52199 0.70201 0.0
C893 C 0.98247 0.47321 0.72827 0.0
C894 C 1.01025 0.48943 0.74364 0.0
N895 N 0.96998 0.49298 0.70127 0.0
N896 N 1.01427 0.52018 0.7277 0.0
H897 H 0.99126 0.54148 0.68142 0.0
H898 H 0.97717 0.44611 0.73301 0.0
C899 C 1.01021 0.41906 0.64226 0.0
O900 O 0.99096 0.39905 0.62183 0.0
N901 N 0.93298 0.44933 0.61672 0.0
C902 C 0.90158 0.43366 0.61245 0.0
C903 C 0.89855 0.42264 0.57801 0.0
C904 C 0.94838 0.44829 0.58448 0.0
N905 N 0.92805 0.4316 0.56045 0.0
C906 C 0.90006 0.45532 0.71146 0.0
C907 C 0.9299 0.3941 0.73525 0.0
C908 C 0.91087 0.4149 0.75983 0.0
C909 C 0.89331 0.44415 0.74585 0.0
C910 C 0.93665 0.40679 0.7008 0.0
N911 N 0.92487 0.43927 0.69091 0.0
H912 H 0.88892 0.48014 0.70382 0.0
H913 H 0.9551 0.39281 0.68443 0.0
H914 H 0.88211 0.43052 0.6329 0.0
H915 H 0.97419 0.45888 0.57899 0.0
O916 O 0.91431 0.5077 0.65538 0.0
O917 O 0.96628 0.51196 0.63046 0.0
O918 O 0.99651 0.44464 0.65892 0.0
C919 C 0.93596 0.52644 0.63698 0.0
H920 H 1.02868 0.4779 0.76199 0.0
H921 H 0.87647 0.40856 0.5669 0.0
H922 H 0.94238 0.36988 0.74316 0.0
H923 H 0.87726 0.46101 0.76206 0.0
Co924 Co 0.58768 0.10884 0.40026 0.0
C925 C 0.53722 0.06965 0.35741 0.0
C926 C 0.58621 0.07684 0.33139 0.0
C927 C 0.56973 0.04929 0.31592 0.0
N928 N 0.56645 0.08953 0.35829 0.0
N929 N 0.53882 0.04559 0.33167 0.0
H930 H 0.51769 0.06872 0.37797 0.0
H931 H 0.61343 0.08176 0.32688 0.0
C932 C 0.64038 0.04917 0.41722 0.0
O933 O 0.66043 0.0684 0.43762 0.0
N934 N 0.61019 0.12639 0.44283 0.0
C935 C 0.6259 0.15777 0.44711 0.0
C936 C 0.63695 0.16076 0.48154 0.0
C937 C 0.61125 0.11096 0.47506 0.0
N938 N 0.62797 0.13126 0.49909 0.0
C939 C 0.60415 0.15931 0.34806 0.0
C940 C 0.66529 0.12936 0.32422 0.0
C941 C 0.64449 0.14838 0.29965 0.0
C942 C 0.61527 0.16599 0.31364 0.0
C943 C 0.65265 0.12269 0.3587 0.0
N944 N 0.6202 0.13452 0.36863 0.0
H945 H 0.57935 0.17049 0.35573 0.0
H946 H 0.66664 0.10425 0.37508 0.0
H947 H 0.62904 0.17724 0.42667 0.0
H948 H 0.60062 0.08516 0.48055 0.0
O949 O 0.55182 0.14515 0.40424 0.0
O950 O 0.54752 0.09316 0.4291 0.0
O951 O 0.61478 0.06289 0.4006 0.0
C952 C 0.53306 0.1235 0.42263 0.0
H953 H 0.5812 0.03068 0.29772 0.0
H954 H 0.65106 0.18282 0.49265 0.0
H955 H 0.68949 0.11684 0.3163 0.0
H956 H 0.59841 0.18203 0.29743 0.0
Co957 Co 0.95053 0.5877 0.40025 0.0
C958 C 0.98975 0.5373 0.35738 0.0
C959 C 0.98254 0.5863 0.33138 0.0
C960 C 1.01012 0.56985 0.31592 0.0
N961 N 0.96986 0.56651 0.35827 0.0
N962 N 1.01382 0.53893 0.33166 0.0
H963 H 0.99069 0.51775 0.37792 0.0
H964 H 0.9776 0.61351 0.32688 0.0
C965 C 1.01017 0.64043 0.41725 0.0
O966 O 0.99093 0.66045 0.43767 0.0
N967 N 0.93295 0.61018 0.44283 0.0
C968 C 0.90156 0.62587 0.44711 0.0
C969 C 0.89855 0.63688 0.48155 0.0
C970 C 0.94837 0.61122 0.47506 0.0
N971 N 0.92805 0.62791 0.4991 0.0
C972 C 0.90004 0.60419 0.34805 0.0
C973 C 0.92997 0.66534 0.32424 0.0
C974 C 0.91096 0.64455 0.29966 0.0
C975 C 0.89335 0.61532 0.31364 0.0
C976 C 0.93664 0.6527 0.35872 0.0
N977 N 0.92482 0.62024 0.36863 0.0
H978 H 0.88888 0.57937 0.3557 0.0
H979 H 0.95507 0.66668 0.3751 0.0
H980 H 0.88208 0.62901 0.42668 0.0
H981 H 0.97419 0.60061 0.48054 0.0
O982 O 0.91423 0.55182 0.40419 0.0
O983 O 0.96622 0.54753 0.42907 0.0
O984 O 0.99646 0.61483 0.40062 0.0
C985 C 0.93588 0.53307 0.42259 0.0
H986 H 1.0287 0.58132 0.29771 0.0
H987 H 0.87648 0.65096 0.49268 0.0
H988 H 0.94247 0.68956 0.31633 0.0
H989 H 0.87732 0.59846 0.29742 0.0
Co990 Co 0.47179 0.95064 0.40018 0.0
C991 C 0.52202 0.99021 0.3575 0.0
C992 C 0.47326 0.98246 0.33119 0.0
C993 C 0.48948 1.01024 0.31582 0.0
N994 N 0.49301 0.96999 0.35822 0.0
N995 N 0.52023 1.01428 0.33179 0.0
H996 H 0.54148 0.9913 0.37811 0.0
H997 H 0.44617 0.97715 0.32642 0.0
C998 C 0.41909 1.0103 0.41719 0.0
O999 O 0.39907 0.99105 0.4376 0.0
N1000 N 0.44929 0.93306 0.44275 0.0
C1001 C 0.43358 0.90168 0.44702 0.0
C1002 C 0.42254 0.89867 0.48145 0.0
C1003 C 0.44824 0.94847 0.47499 0.0
N1004 N 0.43151 0.92817 0.49901 0.0
C1005 C 0.45528 0.90011 0.34801 0.0
C1006 C 0.39408 0.92998 0.32423 0.0
C1007 C 0.41486 0.91093 0.29965 0.0
C1008 C 0.4441 0.89336 0.31363 0.0
C1009 C 0.40678 0.93673 0.35868 0.0
N1010 N 0.43925 0.92493 0.36856 0.0
H1011 H 0.48011 0.88897 0.35566 0.0
H1012 H 0.39281 0.95519 0.37504 0.0
H1013 H 0.43044 0.88221 0.42658 0.0
H1014 H 0.45886 0.97428 0.48049 0.0
O1015 O 0.50767 0.91433 0.40412 0.0
O1016 O 0.51196 0.96631 0.42903 0.0
O1017 O 0.44467 0.99658 0.40053 0.0
C1018 C 0.52642 0.93598 0.42252 0.0
H1019 H 0.47797 1.02865 0.29745 0.0
H1020 H 0.40842 0.87661 0.49255 0.0
H1021 H 0.36985 0.94246 0.31632 0.0
H1022 H 0.46095 0.8773 0.29742 0.0
Co1023 Co 0.10873 0.47184 0.40019 0.0
C1024 C 0.06921 0.5221 0.35746 0.0
C1025 C 0.07685 0.47328 0.33123 0.0
C1026 C 0.04911 0.48954 0.31584 0.0
N1027 N 0.08936 0.49305 0.35822 0.0
N1028 N 0.04514 0.52032 0.33176 0.0
H1029 H 0.06815 0.54159 0.37805 0.0
H1030 H 0.08209 0.44616 0.32652 0.0
C1031 C 0.04909 0.41912 0.4172 0.0
O1032 O 0.06834 0.39909 0.4376 0.0
N1033 N 0.12633 0.44935 0.44276 0.0
C1034 C 0.15772 0.43365 0.44701 0.0
C1035 C 0.16073 0.42258 0.48144 0.0
C1036 C 0.11091 0.44827 0.47499 0.0
N1037 N 0.13123 0.43154 0.49901 0.0
C1038 C 0.15923 0.45535 0.348 0.0
C1039 C 0.12937 0.39414 0.32423 0.0
C1040 C 0.1484 0.41492 0.29964 0.0
C1041 C 0.16597 0.44417 0.31362 0.0
C1042 C 0.12265 0.40683 0.35868 0.0
N1043 N 0.13444 0.43931 0.36856 0.0
H1044 H 0.17037 0.48018 0.35564 0.0
H1045 H 0.1042 0.39286 0.37506 0.0
H1046 H 0.17718 0.43051 0.42657 0.0
H1047 H 0.0851 0.45888 0.48049 0.0
O1048 O 0.14503 0.50773 0.40412 0.0
O1049 O 0.09306 0.51201 0.42903 0.0
O1050 O 0.0628 0.44471 0.40055 0.0
C1051 C 0.12338 0.52648 0.42252 0.0
H1052 H 0.03065 0.47802 0.29752 0.0
H1053 H 0.18279 0.40847 0.49253 0.0
H1054 H 0.11689 0.36991 0.31632 0.0
H1055 H 0.18201 0.46103 0.2974 0.0
Co1056 Co 0.65923 0.58768 0.95054 0.0
C1057 C 0.7021 0.53725 0.98975 0.0
C1058 C 0.72809 0.58625 0.98257 0.0
C1059 C 0.74356 0.56979 1.01013 0.0
N1060 N 0.70121 0.56648 0.96987 0.0
N1061 N 0.72783 0.53887 1.01382 0.0
H1062 H 0.68156 0.5177 0.99067 0.0
H1063 H 0.73258 0.61348 0.97765 0.0
C1064 C 0.64224 0.6404 1.0102 0.0
O1065 O 0.62183 0.66043 0.99095 0.0
N1066 N 0.61665 0.61017 0.93297 0.0
C1067 C 0.61238 0.62586 0.90158 0.0
C1068 C 0.57794 0.63688 0.89857 0.0
C1069 C 0.58443 0.61122 0.94839 0.0
N1070 N 0.56039 0.62791 0.92807 0.0
C1071 C 0.71144 0.60416 0.90008 0.0
C1072 C 0.73525 0.66531 0.93003 0.0
C1073 C 0.75984 0.64451 0.91103 0.0
C1074 C 0.74585 0.61529 0.89341 0.0
C1075 C 0.70077 0.65267 0.93669 0.0
N1076 N 0.69086 0.62021 0.92486 0.0
H1077 H 0.70378 0.57935 0.8889 0.0
H1078 H 0.68438 0.66665 0.95512 0.0
H1079 H 0.63282 0.629 0.88211 0.0
H1080 H 0.57894 0.6006 0.9742 0.0
O1081 O 0.65528 0.5518 0.91424 0.0
O1082 O 0.6304 0.54751 0.96622 0.0
O1083 O 0.65886 0.6148 0.99649 0.0
C1084 C 0.6369 0.53305 0.93589 0.0
H1085 H 0.76175 0.58127 1.02874 0.0
H1086 H 0.56682 0.65097 0.8765 0.0
H1087 H 0.74316 0.68952 0.94255 0.0
H1088 H 0.76208 0.59843 0.87738 0.0
Co1089 Co 0.47179 0.65924 0.95057 0.0
C1090 C 0.52221 0.7021 0.98979 0.0
C1091 C 0.47321 0.72809 0.9826 0.0
C1092 C 0.48967 0.74355 1.01017 0.0
N1093 N 0.49299 0.70121 0.9699 0.0
N1094 N 0.52059 0.72781 1.01386 0.0
H1095 H 0.54176 0.68155 0.99071 0.0
H1096 H 0.44598 0.73259 0.97768 0.0
C1097 C 0.41907 0.64223 1.01022 0.0
O1098 O 0.39904 0.62183 0.99097 0.0
N1099 N 0.4493 0.61666 0.93299 0.0
C1100 C 0.43362 0.6124 0.90159 0.0
C1101 C 0.4226 0.57796 0.89858 0.0
C1102 C 0.44826 0.58443 0.9484 0.0
N1103 N 0.43157 0.5604 0.92807 0.0
C1104 C 0.4553 0.71145 0.9001 0.0
C1105 C 0.39414 0.73525 0.93004 0.0
C1106 C 0.41493 0.75984 0.91103 0.0
C1107 C 0.44416 0.74586 0.89342 0.0
C1108 C 0.4068 0.70077 0.93671 0.0
N1109 N 0.43925 0.69087 0.92488 0.0
H1110 H 0.48011 0.7038 0.88894 0.0
H1111 H 0.39282 0.68439 0.95514 0.0
H1112 H 0.43047 0.63283 0.88213 0.0
H1113 H 0.45888 0.57894 0.97421 0.0
O1114 O 0.50767 0.65529 0.91426 0.0
O1115 O 0.51196 0.63041 0.96625 0.0
O1116 O 0.44467 0.65886 0.99651 0.0
C1117 C 0.52642 0.6369 0.93591 0.0
H1118 H 0.47819 0.76173 1.02879 0.0
H1119 H 0.4085 0.56684 0.8765 0.0
H1120 H 0.36993 0.74316 0.94255 0.0
H1121 H 0.46102 0.76208 0.87739 0.0
Co1122 Co 0.40025 0.4718 0.95056 0.0
C1123 C 0.35739 0.52222 0.98978 0.0
C1124 C 0.3314 0.47321 0.98259 0.0
C1125 C 0.31594 0.48967 1.01017 0.0
N1126 N 0.35828 0.49299 0.96989 0.0
N1127 N 0.33168 0.52059 1.01386 0.0
H1128 H 0.37794 0.54176 0.9907 0.0
H1129 H 0.32691 0.44599 0.97767 0.0
C1130 C 0.41726 0.41907 1.0102 0.0
O1131 O 0.43766 0.39904 0.99094 0.0
N1132 N 0.44283 0.44931 0.93297 0.0
C1133 C 0.44709 0.43362 0.90158 0.0
C1134 C 0.48153 0.4226 0.89856 0.0
C1135 C 0.47506 0.44826 0.94838 0.0
N1136 N 0.49909 0.43156 0.92806 0.0
C1137 C 0.34804 0.45532 0.90008 0.0
C1138 C 0.32423 0.39417 0.93001 0.0
C1139 C 0.29965 0.41496 0.911 0.0
C1140 C 0.31363 0.44419 0.8934 0.0
C1141 C 0.35871 0.40681 0.93668 0.0
N1142 N 0.36862 0.43927 0.92486 0.0
H1143 H 0.3557 0.48014 0.88892 0.0
H1144 H 0.37509 0.39283 0.95511 0.0
H1145 H 0.42665 0.43048 0.88211 0.0
H1146 H 0.48056 0.45887 0.9742 0.0
O1147 O 0.40419 0.50768 0.91426 0.0
O1148 O 0.42908 0.51197 0.96624 0.0
O1149 O 0.40063 0.44467 0.99649 0.0
C1150 C 0.42258 0.52643 0.93591 0.0
H1151 H 0.29777 0.47818 1.02878 0.0
H1152 H 0.49264 0.40851 0.87649 0.0
H1153 H 0.31632 0.36996 0.94252 0.0
H1154 H 0.29741 0.46106 0.87737 0.0
Co1155 Co 0.5877 0.40024 0.95053 0.0
C1156 C 0.53731 0.35739 0.98979 0.0
C1157 C 0.5863 0.33138 0.98255 0.0
C1158 C 0.56986 0.31592 1.01014 0.0
N1159 N 0.56651 0.35827 0.96987 0.0
N1160 N 0.53895 0.33167 1.01386 0.0
H1161 H 0.51776 0.37794 0.99072 0.0
H1162 H 0.61351 0.32686 0.97759 0.0
C1163 C 0.64043 0.41724 1.01018 0.0
O1164 O 0.66046 0.43765 0.99093 0.0
N1165 N 0.61018 0.44281 0.93295 0.0
C1166 C 0.62585 0.44709 0.90155 0.0
C1167 C 0.63688 0.48153 0.89854 0.0
C1168 C 0.61123 0.47504 0.94837 0.0
N1169 N 0.62793 0.49908 0.92805 0.0
C1170 C 0.60417 0.34805 0.90004 0.0
C1171 C 0.66532 0.32421 0.92996 0.0
C1172 C 0.64452 0.29964 0.91093 0.0
C1173 C 0.6153 0.31364 0.89334 0.0
C1174 C 0.65268 0.3587 0.93664 0.0
N1175 N 0.62022 0.36861 0.92483 0.0
H1176 H 0.57935 0.35571 0.88887 0.0
H1177 H 0.66667 0.37507 0.95508 0.0
H1178 H 0.62898 0.42665 0.88208 0.0
H1179 H 0.60062 0.48054 0.97418 0.0
O1180 O 0.55181 0.40418 0.91424 0.0
O1181 O 0.54753 0.42907 0.96623 0.0
O1182 O 0.61484 0.40061 0.99646 0.0
C1183 C 0.53306 0.42257 0.9359 0.0
H1184 H 0.58134 0.29771 1.02873 0.0
H1185 H 0.65096 0.49264 0.87647 0.0
H1186 H 0.68954 0.31629 0.94246 0.0
H1187 H 0.59843 0.29743 0.8773 0.0
Co1188 Co 0.6593 0.47185 0.10878 0.0
C1189 C 0.702 0.52207 0.0692 0.0
C1190 C 0.72829 0.47331 0.07694 0.0
C1191 C 0.74367 0.48953 0.04917 0.0
N1192 N 0.70127 0.49306 0.08941 0.0
N1193 N 0.7277 0.52027 0.04514 0.0
H1194 H 0.68139 0.54154 0.06811 0.0
H1195 H 0.73305 0.44621 0.08225 0.0
C1196 C 0.64232 0.41912 0.04913 0.0
O1197 O 0.6219 0.39909 0.06837 0.0
N1198 N 0.61674 0.44935 0.12636 0.0
C1199 C 0.61247 0.43366 0.15775 0.0
C1200 C 0.57804 0.42261 0.16075 0.0
C1201 C 0.58451 0.44828 0.11094 0.0
N1202 N 0.56048 0.43156 0.13125 0.0
C1203 C 0.71148 0.45537 0.15929 0.0
C1204 C 0.73525 0.39414 0.12947 0.0
C1205 C 0.75983 0.41492 0.1485 0.0
C1206 C 0.74586 0.44418 0.16605 0.0
C1207 C 0.7008 0.40684 0.12272 0.0
N1208 N 0.69093 0.43932 0.13449 0.0
H1209 H 0.70385 0.48021 0.17042 0.0
H1210 H 0.68443 0.39286 0.10427 0.0
H1211 H 0.63291 0.43053 0.17722 0.0
H1212 H 0.57901 0.45889 0.08513 0.0
O1213 O 0.65535 0.50774 0.14507 0.0
O1214 O 0.63045 0.51201 0.09309 0.0
O1215 O 0.65896 0.44471 0.06284 0.0
C1216 C 0.63695 0.52648 0.12341 0.0
H1217 H 0.76203 0.47801 0.03075 0.0
H1218 H 0.56694 0.40851 0.18282 0.0
H1219 H 0.74315 0.3699 0.117 0.0
H1220 H 0.76208 0.46104 0.18209 0.0
Co1221 Co 0.58764 0.65927 0.10879 0.0
C1222 C 0.5374 0.70199 0.06924 0.0
C1223 C 0.58618 0.72825 0.07695 0.0
C1224 C 0.56995 0.74364 0.04919 0.0
N1225 N 0.56643 0.70124 0.08943 0.0
N1226 N 0.53919 0.72769 0.04518 0.0
H1227 H 0.51792 0.68139 0.06816 0.0
H1228 H 0.61329 0.73299 0.08223 0.0
C1229 C 0.64037 0.64229 0.04915 0.0
O1230 O 0.6604 0.62187 0.06839 0.0
N1231 N 0.61014 0.6167 0.12637 0.0
C1232 C 0.62583 0.61243 0.15777 0.0
C1233 C 0.63689 0.578 0.16076 0.0
C1234 C 0.61122 0.58447 0.11095 0.0
N1235 N 0.62796 0.56045 0.13125 0.0
C1236 C 0.60412 0.71145 0.15931 0.0
C1237 C 0.66533 0.73522 0.12947 0.0
C1238 C 0.64454 0.75981 0.14849 0.0
C1239 C 0.61529 0.74583 0.16605 0.0
C1240 C 0.65265 0.70077 0.12273 0.0
N1241 N 0.62017 0.69089 0.13451 0.0
H1242 H 0.57929 0.70381 0.17044 0.0
H1243 H 0.66662 0.68439 0.10429 0.0
H1244 H 0.62895 0.63286 0.17724 0.0
H1245 H 0.60061 0.57898 0.08513 0.0
O1246 O 0.55175 0.65532 0.14508 0.0
O1247 O 0.54748 0.63043 0.0931 0.0
O1248 O 0.61477 0.65892 0.06286 0.0
C1249 C 0.533 0.63692 0.12343 0.0
H1250 H 0.58146 0.76199 0.03077 0.0
H1251 H 0.65099 0.56689 0.18283 0.0
H1252 H 0.68956 0.74313 0.11699 0.0
H1253 H 0.59843 0.76205 0.18209 0.0
Co1254 Co 0.40022 0.58762 0.10881 0.0
C1255 C 0.35751 0.53739 0.06924 0.0
C1256 C 0.33123 0.58616 0.07697 0.0
C1257 C 0.31585 0.56994 0.04921 0.0
N1258 N 0.35825 0.5664 0.08945 0.0
N1259 N 0.33181 0.53918 0.04518 0.0
H1260 H 0.37812 0.51791 0.06815 0.0
H1261 H 0.32649 0.61326 0.08227 0.0
C1262 C 0.41719 0.64036 0.04918 0.0
O1263 O 0.43761 0.66038 0.06842 0.0
N1264 N 0.44279 0.61011 0.12639 0.0
C1265 C 0.44706 0.6258 0.15778 0.0
C1266 C 0.48149 0.63687 0.16078 0.0
C1267 C 0.47502 0.61119 0.11096 0.0
N1268 N 0.49904 0.62793 0.13127 0.0
C1269 C 0.34806 0.60408 0.15935 0.0
C1270 C 0.32425 0.66529 0.12952 0.0
C1271 C 0.29968 0.64449 0.14855 0.0
C1272 C 0.31367 0.61524 0.16611 0.0
C1273 C 0.3587 0.65261 0.12277 0.0
N1274 N 0.3686 0.62013 0.13454 0.0
H1275 H 0.35571 0.57925 0.17047 0.0
H1276 H 0.37507 0.6666 0.10432 0.0
H1277 H 0.42663 0.62892 0.17726 0.0
H1278 H 0.48051 0.60059 0.08515 0.0
O1279 O 0.40419 0.55172 0.14509 0.0
O1280 O 0.42907 0.54746 0.09311 0.0
O1281 O 0.40055 0.61476 0.06289 0.0
C1282 C 0.42258 0.53298 0.12343 0.0
H1283 H 0.29749 0.58145 0.03079 0.0
H1284 H 0.4926 0.65096 0.18285 0.0
H1285 H 0.31633 0.68952 0.11705 0.0
H1286 H 0.29747 0.59838 0.18215 0.0
Co1287 Co 0.47189 0.4002 0.10878 0.0
C1288 C 0.52214 0.35747 0.06925 0.0
C1289 C 0.47333 0.33124 0.07691 0.0
C1290 C 0.48958 0.31585 0.04916 0.0
N1291 N 0.4931 0.35823 0.08942 0.0
N1292 N 0.52035 0.33177 0.04518 0.0
H1293 H 0.54163 0.37806 0.06819 0.0
H1294 H 0.44621 0.32653 0.08215 0.0
C1295 C 0.41914 0.41718 0.04915 0.0
O1296 O 0.39911 0.43759 0.0684 0.0
N1297 N 0.44939 0.44277 0.12637 0.0
C1298 C 0.43371 0.44703 0.15776 0.0
C1299 C 0.42265 0.48146 0.16077 0.0
C1300 C 0.44831 0.47499 0.11095 0.0
N1301 N 0.43158 0.49901 0.13126 0.0
C1302 C 0.45543 0.34802 0.15929 0.0
C1303 C 0.39421 0.32423 0.12946 0.0
C1304 C 0.415 0.29965 0.14849 0.0
C1305 C 0.44426 0.31363 0.16604 0.0
C1306 C 0.40689 0.35869 0.12273 0.0
N1307 N 0.43937 0.36857 0.1345 0.0
H1308 H 0.48026 0.35566 0.17042 0.0
H1309 H 0.39291 0.37506 0.10429 0.0
H1310 H 0.43059 0.4266 0.17724 0.0
H1311 H 0.45891 0.48049 0.08513 0.0
O1312 O 0.50779 0.40415 0.14507 0.0
O1313 O 0.51204 0.42904 0.09309 0.0
O1314 O 0.44474 0.40054 0.06286 0.0
C1315 C 0.52652 0.42255 0.12341 0.0
H1316 H 0.47805 0.29754 0.0307 0.0
H1317 H 0.40856 0.49257 0.18284 0.0
H1318 H 0.36998 0.31633 0.11699 0.0
H1319 H 0.46113 0.29742 0.18208 0.0
Co1320 Co 0.95057 0.65923 0.58769 0.0
C1321 C 0.98982 0.70206 0.53728 0.0
C1322 C 0.98255 0.72812 0.58623 0.0
C1323 C 1.01014 0.74357 0.56979 0.0
N1324 N 0.9699 0.7012 0.56647 0.0
N1325 N 1.01388 0.72779 0.5389 0.0
H1326 H 0.99078 0.68149 0.51776 0.0
H1327 H 0.97758 0.73267 0.61344 0.0
C1328 C 1.01024 0.64224 0.6404 0.0
O1329 O 0.99101 0.62184 0.66044 0.0
N1330 N 0.93301 0.61666 0.6102 0.0
C1331 C 0.90163 0.6124 0.62591 0.0
C1332 C 0.89863 0.57797 0.63696 0.0
C1333 C 0.94843 0.58443 0.61126 0.0
N1334 N 0.92813 0.56041 0.628 0.0
C1335 C 0.90009 0.71143 0.60419 0.0
C1336 C 0.93004 0.73526 0.66533 0.0
C1337 C 0.91101 0.75983 0.64454 0.0
C1338 C 0.8934 0.74584 0.61532 0.0
C1339 C 0.93672 0.70078 0.65268 0.0
N1340 N 0.92489 0.69087 0.62023 0.0
H1341 H 0.88892 0.70377 0.57938 0.0
H1342 H 0.95516 0.6844 0.66666 0.0
H1343 H 0.88216 0.63284 0.62904 0.0
H1344 H 0.97423 0.57893 0.60063 0.0
O1345 O 0.91426 0.65528 0.55183 0.0
O1346 O 0.96624 0.63039 0.54752 0.0
O1347 O 0.99652 0.65887 0.6148 0.0
C1348 C 0.9359 0.63689 0.53307 0.0
H1349 H 1.02871 0.7618 0.58127 0.0
H1350 H 0.87657 0.56686 0.65107 0.0
H1351 H 0.94256 0.74318 0.68954 0.0
H1352 H 0.87736 0.76205 0.59846 0.0
Co1353 Co 0.95051 0.40028 0.47184 0.0
C1354 C 0.98972 0.35739 0.52226 0.0
C1355 C 0.98251 0.33141 0.47325 0.0
C1356 C 1.01007 0.31593 0.48971 0.0
N1357 N 0.96983 0.3583 0.49304 0.0
N1358 N 1.01378 0.33166 0.52063 0.0
H1359 H 0.99066 0.37794 0.5418 0.0
H1360 H 0.97759 0.32692 0.44603 0.0
C1361 C 1.01014 0.41724 0.41909 0.0
O1362 O 0.99089 0.43765 0.39906 0.0
N1363 N 0.93293 0.44285 0.44935 0.0
C1364 C 0.90153 0.44713 0.43368 0.0
C1365 C 0.89853 0.48156 0.42263 0.0
C1366 C 0.94836 0.47507 0.44828 0.0
N1367 N 0.92805 0.4991 0.43157 0.0
C1368 C 0.90003 0.34807 0.45537 0.0
C1369 C 0.92994 0.32426 0.39421 0.0
C1370 C 0.91095 0.29967 0.41501 0.0
C1371 C 0.89335 0.31366 0.44424 0.0
C1372 C 0.93661 0.35874 0.40685 0.0
N1373 N 0.9248 0.36865 0.43931 0.0
H1374 H 0.88887 0.35573 0.48019 0.0
H1375 H 0.95503 0.37512 0.39286 0.0
H1376 H 0.88205 0.4267 0.43055 0.0
H1377 H 0.97417 0.48056 0.45889 0.0
O1378 O 0.91421 0.40423 0.50773 0.0
O1379 O 0.9662 0.4291 0.51201 0.0
O1380 O 0.99644 0.40063 0.44471 0.0
C1381 C 0.93588 0.42261 0.52648 0.0
H1382 H 1.02868 0.29774 0.47822 0.0
H1383 H 0.87646 0.49268 0.40855 0.0
H1384 H 0.94244 0.31635 0.36999 0.0
H1385 H 0.87733 0.29744 0.46111 0.0
Co1386 Co 0.65922 0.95054 0.4718 0.0
C1387 C 0.70208 0.98973 0.52225 0.0
C1388 C 0.72809 0.98253 0.47326 0.0
C1389 C 0.74356 1.01009 0.48973 0.0
N1390 N 0.70119 0.96985 0.49302 0.0
N1391 N 0.72781 1.01379 0.52065 0.0
H1392 H 0.68152 0.99066 0.54179 0.0
H1393 H 0.7326 0.97762 0.44603 0.0
C1394 C 0.64226 1.01021 0.41909 0.0
O1395 O 0.62185 0.99098 0.39904 0.0
N1396 N 0.61665 0.933 0.44928 0.0
C1397 C 0.61237 0.90161 0.43358 0.0
C1398 C 0.57794 0.89862 0.42253 0.0
C1399 C 0.58442 0.94843 0.44823 0.0
N1400 N 0.56039 0.92813 0.43149 0.0
C1401 C 0.71143 0.90007 0.45532 0.0
C1402 C 0.73525 0.93001 0.39417 0.0
C1403 C 0.75983 0.91099 0.41497 0.0
C1404 C 0.74584 0.89339 0.44419 0.0
C1405 C 0.70077 0.93668 0.40681 0.0
N1406 N 0.69085 0.92485 0.43927 0.0
H1407 H 0.70377 0.8889 0.48013 0.0
H1408 H 0.68439 0.95511 0.39283 0.0
H1409 H 0.6328 0.88213 0.43045 0.0
H1410 H 0.57894 0.97423 0.45885 0.0
O1411 O 0.65525 0.91423 0.50766 0.0
O1412 O 0.63038 0.96623 0.51196 0.0
O1413 O 0.65888 0.99649 0.44469 0.0
C1414 C 0.63686 0.93589 0.52641 0.0
H1415 H 0.76176 1.0287 0.47826 0.0
H1416 H 0.56682 0.87656 0.40843 0.0
H1417 H 0.74316 0.94252 0.36996 0.0
H1418 H 0.76206 0.87735 0.46105 0.0
Co1419 Co 0.10879 0.65927 0.47182 0.0
C1420 C 0.06927 0.70197 0.52209 0.0
C1421 C 0.07697 0.72827 0.47332 0.0
C1422 C 0.04922 0.74365 0.48957 0.0
N1423 N 0.08945 0.70124 0.49306 0.0
N1424 N 0.04521 0.72768 0.52032 0.0
H1425 H 0.06818 0.68136 0.54155 0.0
H1426 H 0.08225 0.73301 0.44622 0.0
C1427 C 0.04913 0.64232 0.41911 0.0
O1428 O 0.06836 0.62191 0.39907 0.0
N1429 N 0.12635 0.6167 0.4493 0.0
C1430 C 0.15774 0.61243 0.4336 0.0
C1431 C 0.16073 0.578 0.42254 0.0
C1432 C 0.11092 0.58448 0.44824 0.0
N1433 N 0.13122 0.56045 0.4315 0.0
C1434 C 0.1593 0.71145 0.45534 0.0
C1435 C 0.12944 0.73525 0.39414 0.0
C1436 C 0.14848 0.75982 0.41493 0.0
C1437 C 0.16605 0.74583 0.44417 0.0
C1438 C 0.1227 0.70079 0.40682 0.0
N1439 N 0.1345 0.6909 0.43929 0.0
H1440 H 0.17045 0.7038 0.48017 0.0
H1441 H 0.10425 0.68442 0.39285 0.0
H1442 H 0.17721 0.63286 0.43047 0.0
H1443 H 0.08512 0.57899 0.45886 0.0
O1444 O 0.1451 0.6553 0.50769 0.0
O1445 O 0.09311 0.63042 0.51197 0.0
O1446 O 0.06285 0.65895 0.4447 0.0
C1447 C 0.12344 0.63691 0.52644 0.0
H1448 H 0.03078 0.76199 0.47806 0.0
H1449 H 0.18279 0.56688 0.40844 0.0
H1450 H 0.11696 0.74316 0.36991 0.0
H1451 H 0.1821 0.76204 0.46103 0.0
Co1452 Co 0.40027 0.10888 0.47186 0.0
C1453 C 0.35738 0.06968 0.52228 0.0
C1454 C 0.33142 0.07686 0.47325 0.0
C1455 C 0.31594 0.04929 0.48971 0.0
N1456 N 0.35829 0.08955 0.49305 0.0
N1457 N 0.33166 0.04561 0.52064 0.0
H1458 H 0.37792 0.06876 0.54183 0.0
H1459 H 0.32694 0.08177 0.44602 0.0
C1460 C 0.41723 0.04925 0.41909 0.0
O1461 O 0.43764 0.06849 0.39907 0.0
N1462 N 0.44284 0.12646 0.44938 0.0
C1463 C 0.44712 0.15786 0.43371 0.0
C1464 C 0.48155 0.16086 0.42268 0.0
C1465 C 0.47506 0.11103 0.44831 0.0
N1466 N 0.4991 0.13135 0.43161 0.0
C1467 C 0.34806 0.15936 0.45541 0.0
C1468 C 0.32426 0.12948 0.39422 0.0
C1469 C 0.29967 0.14848 0.41502 0.0
C1470 C 0.31365 0.16606 0.44427 0.0
C1471 C 0.35873 0.1228 0.40687 0.0
N1472 N 0.36864 0.1346 0.43934 0.0
H1473 H 0.35571 0.17051 0.48024 0.0
H1474 H 0.37512 0.10438 0.39288 0.0
H1475 H 0.42669 0.17734 0.4306 0.0
H1476 H 0.48055 0.08521 0.4589 0.0
O1477 O 0.40423 0.14517 0.50776 0.0
O1478 O 0.4291 0.09317 0.51202 0.0
O1479 O 0.40062 0.06296 0.44471 0.0
C1480 C 0.42262 0.1235 0.5265 0.0
H1481 H 0.29776 0.03068 0.47822 0.0
H1482 H 0.49267 0.18294 0.40861 0.0
H1483 H 0.31635 0.11699 0.37 0.0
H1484 H 0.29743 0.18208 0.46114 0.0
Co1485 Co 0.10878 0.40017 0.5876 0.0
C1486 C 0.06918 0.35747 0.5374 0.0
C1487 C 0.07693 0.33119 0.58617 0.0
C1488 C 0.04915 0.31582 0.56996 0.0
N1489 N 0.0894 0.35821 0.56641 0.0
N1490 N 0.04511 0.33178 0.53921 0.0
H1491 H 0.06809 0.37808 0.51792 0.0
H1492 H 0.08225 0.32644 0.61327 0.0
C1493 C 0.04917 0.41716 0.64037 0.0
O1494 O 0.06842 0.43758 0.66038 0.0
N1495 N 0.12639 0.44274 0.61009 0.0
C1496 C 0.15779 0.447 0.62575 0.0
C1497 C 0.16081 0.48144 0.63679 0.0
C1498 C 0.11097 0.47497 0.61116 0.0
N1499 N 0.1313 0.49899 0.62787 0.0
C1500 C 0.1593 0.34799 0.60406 0.0
C1501 C 0.1295 0.32422 0.6653 0.0
C1502 C 0.14852 0.29964 0.64451 0.0
C1503 C 0.16606 0.31361 0.61524 0.0
C1504 C 0.12275 0.35867 0.65261 0.0
N1505 N 0.13451 0.36855 0.62012 0.0
H1506 H 0.17042 0.35562 0.57922 0.0
H1507 H 0.10431 0.37505 0.66659 0.0
H1508 H 0.17727 0.42657 0.62887 0.0
H1509 H 0.08515 0.48047 0.60057 0.0
O1510 O 0.14505 0.40411 0.5517 0.0
O1511 O 0.09308 0.42902 0.54745 0.0
O1512 O 0.06287 0.40053 0.61477 0.0
C1513 C 0.12339 0.42252 0.53296 0.0
H1514 H 0.03073 0.29747 0.58149 0.0
H1515 H 0.1829 0.49255 0.65087 0.0
H1516 H 0.11704 0.31632 0.68954 0.0
H1517 H 0.18209 0.29739 0.59838 0.0
Co1518 Co 0.65932 0.10876 0.58768 0.0
C1519 C 0.702 0.06918 0.53746 0.0
C1520 C 0.7283 0.07691 0.58621 0.0
C1521 C 0.74367 0.04913 0.56999 0.0
N1522 N 0.70128 0.08939 0.56646 0.0
N1523 N 0.7277 0.0451 0.53924 0.0
H1524 H 0.68139 0.06809 0.51798 0.0
H1525 H 0.73307 0.08222 0.61331 0.0
C1526 C 0.64231 0.04911 0.64039 0.0
O1527 O 0.62189 0.06835 0.66042 0.0
N1528 N 0.61675 0.12635 0.61018 0.0
C1529 C 0.61249 0.15774 0.62589 0.0
C1530 C 0.57806 0.16075 0.63694 0.0
C1531 C 0.58452 0.11094 0.61125 0.0
N1532 N 0.5605 0.13125 0.62798 0.0
C1533 C 0.71149 0.15928 0.60418 0.0
C1534 C 0.73529 0.12942 0.66538 0.0
C1535 C 0.75986 0.14846 0.64459 0.0
C1536 C 0.74587 0.16603 0.61535 0.0
C1537 C 0.70084 0.12267 0.65269 0.0
N1538 N 0.69094 0.13447 0.62022 0.0
H1539 H 0.70384 0.17043 0.57936 0.0
H1540 H 0.68447 0.10421 0.66666 0.0
H1541 H 0.63293 0.17721 0.62902 0.0
H1542 H 0.57901 0.08514 0.60062 0.0
O1543 O 0.65537 0.14506 0.5518 0.0
O1544 O 0.63046 0.09309 0.54752 0.0
O1545 O 0.65896 0.06282 0.61481 0.0
C1546 C 0.63698 0.12341 0.53305 0.0
H1547 H 0.76203 0.03072 0.5815 0.0
H1548 H 0.56696 0.18282 0.65104 0.0
H1549 H 0.74321 0.11693 0.6896 0.0
H1550 H 0.76208 0.18209 0.5985 0.0
Co1551 Co 0.4002 0.95063 0.58763 0.0
C1552 C 0.35747 0.99021 0.53743 0.0
C1553 C 0.33124 0.98252 0.58623 0.0
C1554 C 0.31586 1.01029 0.57001 0.0
N1555 N 0.35823 0.97002 0.56645 0.0
N1556 N 0.33178 1.01429 0.53924 0.0
H1557 H 0.37805 0.99128 0.51793 0.0
H1558 H 0.32652 0.97725 0.61335 0.0
C1559 C 0.41723 1.01024 0.64039 0.0
O1560 O 0.43765 0.99098 0.6604 0.0
N1561 N 0.44277 0.93301 0.6101 0.0
C1562 C 0.44703 0.90161 0.62576 0.0
C1563 C 0.48147 0.89858 0.6368 0.0
C1564 C 0.475 0.94842 0.61117 0.0
N1565 N 0.49903 0.92809 0.62787 0.0
C1566 C 0.34802 0.90011 0.60411 0.0
C1567 C 0.32425 0.92995 0.66533 0.0
C1568 C 0.29966 0.91093 0.64453 0.0
C1569 C 0.31364 0.89337 0.61528 0.0
C1570 C 0.3587 0.93668 0.65264 0.0
N1571 N 0.36858 0.9249 0.62016 0.0
H1572 H 0.35566 0.88898 0.57927 0.0
H1573 H 0.37508 0.95512 0.66662 0.0
H1574 H 0.42659 0.88214 0.62888 0.0
H1575 H 0.48051 0.97424 0.60057 0.0
O1576 O 0.40411 0.91435 0.55172 0.0
O1577 O 0.42903 0.96632 0.54746 0.0
O1578 O 0.40058 0.99654 0.61479 0.0
C1579 C 0.42251 0.93601 0.53298 0.0
H1580 H 0.29752 1.02873 0.58154 0.0
H1581 H 0.49257 0.8765 0.65088 0.0
H1582 H 0.31635 0.94242 0.68956 0.0
H1583 H 0.29742 0.87734 0.59841 0.0
loop_
_geom_bond_atom_site_label_1
_geom_bond_atom_site_label_2
_geom_bond_distance
_geom_bond_site_symmetry_2
_ccdc_geom_bond_type
Co0 N4 2.148 . S
Co0 N10 2.128 . S
Co0 N20 2.194 . S
Co0 O25 2.351 . S
Co0 O26 2.155 . S
Co0 O27 2.096 . S
C1 N4 1.279 1_655 S
C1 N5 1.338 . S
C1 H6 0.942 . S
C2 C3 1.333 . S
C2 N4 1.317 . S
C2 H7 0.930 . S
C3 C2 1.333 . S
C3 N5 1.350 1_455 S
C3 H29 0.931 . S
N4 Co0 2.148 . S
N4 C1 1.279 1_455 S
N4 C2 1.317 . S
N5 C1 1.338 . S
N5 C3 1.350 1_655 S
H6 C1 0.942 . S
H7 C2 0.930 . S
C8 O9 1.224 . S
C8 O27 1.247 . S
O9 C8 1.224 . S
N10 Co0 2.128 . S
N10 C11 1.355 . S
N10 C13 1.311 . S
C11 N10 1.355 . S
C11 C12 1.363 . S
C11 H23 0.929 . S
C12 C11 1.363 . S
C12 N14 1.375 . S
C12 H30 0.931 . S
C13 N10 1.311 . S
C13 N14 1.347 . S
C13 H24 0.929 . S
N14 C12 1.375 . S
N14 C13 1.347 . S
C15 C18 1.365 . S
C15 N20 1.328 . S
C15 H21 0.929 . S
C16 C17 1.362 . S
C16 C19 1.378 . S
C16 H31 0.929 . S
C17 C16 1.362 . S
C17 C18 1.366 . S
C18 C15 1.365 . S
C18 C17 1.366 . S
C18 H32 0.930 . S
C19 C16 1.378 . S
C19 N20 1.315 . S
C19 H22 0.930 . S
N20 Co0 2.194 . S
N20 C15 1.328 . S
N20 C19 1.315 . S
H21 C15 0.929 . S
H22 C19 0.930 . S
H23 C11 0.929 . S
H24 C13 0.929 . S
O25 Co0 2.351 . S
O25 C28 1.244 1_455 S
O26 Co0 2.155 . S
O26 C28 1.240 1_455 S
O27 Co0 2.096 . S
O27 C8 1.247 . S
C28 O25 1.244 1_655 S
C28 O26 1.240 1_655 S
H29 C3 0.931 . S
H30 C12 0.931 . S
H31 C16 0.929 . S
H32 C18 0.930 . S
Co33 N37 2.148 . S
Co33 N43 2.128 . S
Co33 N53 2.194 . S
Co33 O58 2.351 . S
Co33 O59 2.155 . S
Co33 O60 2.096 . S
C34 N37 1.279 1_565 S
C34 N38 1.338 . S
C34 H39 0.942 . S
C35 C36 1.333 . S
C35 N37 1.317 . S
C35 H40 0.930 . S
C36 C35 1.333 . S
C36 N38 1.350 1_545 S
C36 H62 0.931 . S
N37 Co33 2.148 . S
N37 C34 1.279 1_545 S
N37 C35 1.317 . S
N38 C34 1.338 . S
N38 C36 1.350 1_565 S
H39 C34 0.942 . S
H40 C35 0.930 . S
C41 O42 1.224 . S
C41 O60 1.247 . S
O42 C41 1.224 . S
N43 Co33 2.128 . S
N43 C44 1.355 . S
N43 C46 1.311 . S
C44 N43 1.355 . S
C44 C45 1.363 . S
C44 H56 0.929 . S
C45 C44 1.363 . S
C45 N47 1.375 . S
C45 H63 0.931 . S
C46 N43 1.311 . S
C46 N47 1.347 . S
C46 H57 0.929 . S
N47 C45 1.375 . S
N47 C46 1.347 . S
C48 C51 1.365 . S
C48 N53 1.328 . S
C48 H54 0.929 . S
C49 C50 1.362 . S
C49 C52 1.378 . S
C49 H64 0.929 . S
C50 C49 1.362 . S
C50 C51 1.366 . S
C51 C48 1.365 . S
C51 C50 1.366 . S
C51 H65 0.930 . S
C52 C49 1.378 . S
C52 N53 1.315 . S
C52 H55 0.930 . S
N53 Co33 2.194 . S
N53 C48 1.328 . S
N53 C52 1.315 . S
H54 C48 0.929 . S
H55 C52 0.930 . S
H56 C44 0.929 . S
H57 C46 0.929 . S
O58 Co33 2.351 . S
O58 C61 1.244 1_545 S
O59 Co33 2.155 . S
O59 C61 1.240 1_545 S
O60 Co33 2.096 . S
O60 C41 1.247 . S
C61 O58 1.244 1_565 S
C61 O59 1.240 1_565 S
H62 C36 0.931 . S
H63 C45 0.931 . S
H64 C49 0.929 . S
H65 C51 0.930 . S
Co66 N70 2.148 . S
Co66 N76 2.128 . S
Co66 N86 2.194 . S
Co66 O91 2.351 . S
Co66 O92 2.155 . S
Co66 O93 2.096 . S
C67 N70 1.279 1_455 S
C67 N71 1.338 . S
C67 H72 0.942 . S
C68 C69 1.333 . S
C68 N70 1.317 . S
C68 H73 0.930 . S
C69 C68 1.333 . S
C69 N71 1.350 1_655 S
C69 H95 0.931 . S
N70 Co66 2.148 . S
N70 C67 1.279 1_655 S
N70 C68 1.317 . S
N71 C67 1.338 . S
N71 C69 1.350 1_455 S
H72 C67 0.942 . S
H73 C68 0.930 . S
C74 O75 1.224 . S
C74 O93 1.247 . S
O75 C74 1.224 . S
N76 Co66 2.128 . S
N76 C77 1.355 . S
N76 C79 1.311 . S
C77 N76 1.355 . S
C77 C78 1.363 . S
C77 H89 0.929 . S
C78 C77 1.363 . S
C78 N80 1.375 . S
C78 H96 0.931 . S
C79 N76 1.311 . S
C79 N80 1.347 . S
C79 H90 0.929 . S
N80 C78 1.375 . S
N80 C79 1.347 . S
C81 C84 1.365 . S
C81 N86 1.328 . S
C81 H87 0.929 . S
C82 C83 1.362 . S
C82 C85 1.378 . S
C82 H97 0.929 . S
C83 C82 1.362 . S
C83 C84 1.366 . S
C84 C81 1.365 . S
C84 C83 1.366 . S
C84 H98 0.930 . S
C85 C82 1.378 . S
C85 N86 1.315 . S
C85 H88 0.930 . S
N86 Co66 2.194 . S
N86 C81 1.328 . S
N86 C85 1.315 . S
H87 C81 0.929 . S
H88 C85 0.930 . S
H89 C77 0.929 . S
H90 C79 0.929 . S
O91 Co66 2.351 . S
O91 C94 1.244 1_655 S
O92 Co66 2.155 . S
O92 C94 1.240 1_655 S
O93 Co66 2.096 . S
O93 C74 1.247 . S
C94 O91 1.244 1_455 S
C94 O92 1.240 1_455 S
H95 C69 0.931 . S
H96 C78 0.931 . S
H97 C82 0.929 . S
H98 C84 0.930 . S
Co99 N103 2.148 . S
Co99 N109 2.128 . S
Co99 N119 2.194 . S
Co99 O124 2.351 . S
Co99 O125 2.155 . S
Co99 O126 2.096 . S
C100 N103 1.279 1_545 S
C100 N104 1.338 . S
C100 H105 0.942 . S
C101 C102 1.333 . S
C101 N103 1.317 . S
C101 H106 0.930 . S
C102 C101 1.333 . S
C102 N104 1.350 1_565 S
C102 H128 0.931 . S
N103 Co99 2.148 . S
N103 C100 1.279 1_565 S
N103 C101 1.317 . S
N104 C100 1.338 . S
N104 C102 1.350 1_545 S
H105 C100 0.942 . S
H106 C101 0.930 . S
C107 O108 1.224 . S
C107 O126 1.247 . S
O108 C107 1.224 . S
N109 Co99 2.128 . S
N109 C110 1.355 . S
N109 C112 1.311 . S
C110 N109 1.355 . S
C110 C111 1.363 . S
C110 H122 0.929 . S
C111 C110 1.363 . S
C111 N113 1.375 . S
C111 H129 0.931 . S
C112 N109 1.311 . S
C112 N113 1.347 . S
C112 H123 0.929 . S
N113 C111 1.375 . S
N113 C112 1.347 . S
C114 C117 1.365 . S
C114 N119 1.328 . S
C114 H120 0.929 . S
C115 C116 1.362 . S
C115 C118 1.378 . S
C115 H130 0.929 . S
C116 C115 1.362 . S
C116 C117 1.366 . S
C117 C114 1.365 . S
C117 C116 1.366 . S
C117 H131 0.930 . S
C118 C115 1.378 . S
C118 N119 1.315 . S
C118 H121 0.930 . S
N119 Co99 2.194 . S
N119 C114 1.328 . S
N119 C118 1.315 . S
H120 C114 0.929 . S
H121 C118 0.930 . S
H122 C110 0.929 . S
H123 C112 0.929 . S
O124 Co99 2.351 . S
O124 C127 1.244 1_565 S
O125 Co99 2.155 . S
O125 C127 1.240 1_565 S
O126 Co99 2.096 . S
O126 C107 1.247 . S
C127 O124 1.244 1_545 S
C127 O125 1.240 1_545 S
H128 C102 0.931 . S
H129 C111 0.931 . S
H130 C115 0.929 . S
H131 C117 0.930 . S
Co132 N136 2.148 . S
Co132 N142 2.128 . S
Co132 N152 2.194 . S
Co132 O157 2.351 . S
Co132 O158 2.155 . S
Co132 O159 2.096 . S
C133 N136 1.279 1_655 S
C133 N137 1.338 . S
C133 H138 0.942 . S
C134 C135 1.333 . S
C134 N136 1.317 . S
C134 H139 0.930 . S
C135 C134 1.333 . S
C135 N137 1.350 1_455 S
C135 H161 0.931 . S
N136 Co132 2.148 . S
N136 C133 1.279 1_455 S
N136 C134 1.317 . S
N137 C133 1.338 . S
N137 C135 1.350 1_655 S
H138 C133 0.942 . S
H139 C134 0.930 . S
C140 O141 1.224 . S
C140 O159 1.247 . S
O141 C140 1.224 . S
N142 Co132 2.128 . S
N142 C143 1.355 . S
N142 C145 1.311 . S
C143 N142 1.355 . S
C143 C144 1.363 . S
C143 H155 0.929 . S
C144 C143 1.363 . S
C144 N146 1.375 . S
C144 H162 0.931 . S
C145 N142 1.311 . S
C145 N146 1.347 . S
C145 H156 0.929 . S
N146 C144 1.375 . S
N146 C145 1.347 . S
C147 C150 1.365 . S
C147 N152 1.328 . S
C147 H153 0.929 . S
C148 C149 1.362 . S
C148 C151 1.378 . S
C148 H163 0.929 . S
C149 C148 1.362 . S
C149 C150 1.366 . S
C150 C147 1.365 . S
C150 C149 1.366 . S
C150 H164 0.930 . S
C151 C148 1.378 . S
C151 N152 1.315 . S
C151 H154 0.930 . S
N152 Co132 2.194 . S
N152 C147 1.328 . S
N152 C151 1.315 . S
H153 C147 0.929 . S
H154 C151 0.930 . S
H155 C143 0.929 . S
H156 C145 0.929 . S
O157 Co132 2.351 . S
O157 C160 1.244 1_455 S
O158 Co132 2.155 . S
O158 C160 1.240 1_455 S
O159 Co132 2.096 . S
O159 C140 1.247 . S
C160 O157 1.244 1_655 S
C160 O158 1.240 1_655 S
H161 C135 0.931 . S
H162 C144 0.931 . S
H163 C148 0.929 . S
H164 C150 0.930 . S
Co165 N169 2.148 . S
Co165 N175 2.128 . S
Co165 N185 2.194 . S
Co165 O190 2.351 . S
Co165 O191 2.155 . S
Co165 O192 2.096 . S
C166 N169 1.279 1_565 S
C166 N170 1.338 . S
C166 H171 0.942 . S
C167 C168 1.333 . S
C167 N169 1.317 . S
C167 H172 0.930 . S
C168 C167 1.333 . S
C168 N170 1.350 1_545 S
C168 H194 0.931 . S
N169 Co165 2.148 . S
N169 C166 1.279 1_545 S
N169 C167 1.317 . S
N170 C166 1.338 . S
N170 C168 1.350 1_565 S
H171 C166 0.942 . S
H172 C167 0.930 . S
C173 O174 1.224 . S
C173 O192 1.247 . S
O174 C173 1.224 . S
N175 Co165 2.128 . S
N175 C176 1.355 . S
N175 C178 1.311 . S
C176 N175 1.355 . S
C176 C177 1.363 . S
C176 H188 0.929 . S
C177 C176 1.363 . S
C177 N179 1.375 . S
C177 H195 0.931 . S
C178 N175 1.311 . S
C178 N179 1.347 . S
C178 H189 0.929 . S
N179 C177 1.375 . S
N179 C178 1.347 . S
C180 C183 1.365 . S
C180 N185 1.328 . S
C180 H186 0.929 . S
C181 C182 1.362 . S
C181 C184 1.378 . S
C181 H196 0.929 . S
C182 C181 1.362 . S
C182 C183 1.366 . S
C183 C180 1.365 . S
C183 C182 1.366 . S
C183 H197 0.930 . S
C184 C181 1.378 . S
C184 N185 1.315 . S
C184 H187 0.930 . S
N185 Co165 2.194 . S
N185 C180 1.328 . S
N185 C184 1.315 . S
H186 C180 0.929 . S
H187 C184 0.930 . S
H188 C176 0.929 . S
H189 C178 0.929 . S
O190 Co165 2.351 . S
O190 C193 1.244 1_545 S
O191 Co165 2.155 . S
O191 C193 1.240 1_545 S
O192 Co165 2.096 . S
O192 C173 1.247 . S
C193 O190 1.244 1_565 S
C193 O191 1.240 1_565 S
H194 C168 0.931 . S
H195 C177 0.931 . S
H196 C181 0.929 . S
H197 C183 0.930 . S
Co198 N202 2.148 . S
Co198 N208 2.128 . S
Co198 N218 2.194 . S
Co198 O223 2.351 . S
Co198 O224 2.155 . S
Co198 O225 2.096 . S
C199 N202 1.279 1_455 S
C199 N203 1.338 . S
C199 H204 0.942 . S
C200 C201 1.333 . S
C200 N202 1.317 . S
C200 H205 0.930 . S
C201 C200 1.333 . S
C201 N203 1.350 1_655 S
C201 H227 0.931 . S
N202 Co198 2.148 . S
N202 C199 1.279 1_655 S
N202 C200 1.317 . S
N203 C199 1.338 . S
N203 C201 1.350 1_455 S
H204 C199 0.942 . S
H205 C200 0.930 . S
C206 O207 1.224 . S
C206 O225 1.247 . S
O207 C206 1.224 . S
N208 Co198 2.128 . S
N208 C209 1.355 . S
N208 C211 1.311 . S
C209 N208 1.355 . S
C209 C210 1.363 . S
C209 H221 0.929 . S
C210 C209 1.363 . S
C210 N212 1.375 . S
C210 H228 0.931 . S
C211 N208 1.311 . S
C211 N212 1.347 . S
C211 H222 0.929 . S
N212 C210 1.375 . S
N212 C211 1.347 . S
C213 C216 1.365 . S
C213 N218 1.328 . S
C213 H219 0.929 . S
C214 C215 1.362 . S
C214 C217 1.378 . S
C214 H229 0.929 . S
C215 C214 1.362 . S
C215 C216 1.366 . S
C216 C213 1.365 . S
C216 C215 1.366 . S
C216 H230 0.930 . S
C217 C214 1.378 . S
C217 N218 1.315 . S
C217 H220 0.930 . S
N218 Co198 2.194 . S
N218 C213 1.328 . S
N218 C217 1.315 . S
H219 C213 0.929 . S
H220 C217 0.930 . S
H221 C209 0.929 . S
H222 C211 0.929 . S
O223 Co198 2.351 . S
O223 C226 1.244 1_655 S
O224 Co198 2.155 . S
O224 C226 1.240 1_655 S
O225 Co198 2.096 . S
O225 C206 1.247 . S
C226 O223 1.244 1_455 S
C226 O224 1.240 1_455 S
H227 C201 0.931 . S
H228 C210 0.931 . S
H229 C214 0.929 . S
H230 C216 0.930 . S
Co231 N235 2.148 . S
Co231 N241 2.128 . S
Co231 N251 2.194 . S
Co231 O256 2.351 . S
Co231 O257 2.155 . S
Co231 O258 2.096 . S
C232 N235 1.279 1_545 S
C232 N236 1.338 . S
C232 H237 0.942 . S
C233 C234 1.333 . S
C233 N235 1.317 . S
C233 H238 0.930 . S
C234 C233 1.333 . S
C234 N236 1.350 1_565 S
C234 H260 0.931 . S
N235 Co231 2.148 . S
N235 C232 1.279 1_565 S
N235 C233 1.317 . S
N236 C232 1.338 . S
N236 C234 1.350 1_545 S
H237 C232 0.942 . S
H238 C233 0.930 . S
C239 O240 1.224 . S
C239 O258 1.247 . S
O240 C239 1.224 . S
N241 Co231 2.128 . S
N241 C242 1.355 . S
N241 C244 1.311 . S
C242 N241 1.355 . S
C242 C243 1.363 . S
C242 H254 0.929 . S
C243 C242 1.363 . S
C243 N245 1.375 . S
C243 H261 0.931 . S
C244 N241 1.311 . S
C244 N245 1.347 . S
C244 H255 0.929 . S
N245 C243 1.375 . S
N245 C244 1.347 . S
C246 C249 1.365 . S
C246 N251 1.328 . S
C246 H252 0.929 . S
C247 C248 1.362 . S
C247 C250 1.378 . S
C247 H262 0.929 . S
C248 C247 1.362 . S
C248 C249 1.366 . S
C249 C246 1.365 . S
C249 C248 1.366 . S
C249 H263 0.930 . S
C250 C247 1.378 . S
C250 N251 1.315 . S
C250 H253 0.930 . S
N251 Co231 2.194 . S
N251 C246 1.328 . S
N251 C250 1.315 . S
H252 C246 0.929 . S
H253 C250 0.930 . S
H254 C242 0.929 . S
H255 C244 0.929 . S
O256 Co231 2.351 . S
O256 C259 1.244 1_565 S
O257 Co231 2.155 . S
O257 C259 1.240 1_565 S
O258 Co231 2.096 . S
O258 C239 1.247 . S
C259 O256 1.244 1_545 S
C259 O257 1.240 1_545 S
H260 C234 0.931 . S
H261 C243 0.931 . S
H262 C247 0.929 . S
H263 C249 0.930 . S
Co264 N268 2.148 . S
Co264 N274 2.128 . S
Co264 N284 2.194 . S
Co264 O289 2.351 . S
Co264 O290 2.155 . S
Co264 O291 2.096 . S
C265 N268 1.279 1_565 S
C265 N269 1.338 . S
C265 H270 0.942 . S
C266 C267 1.333 . S
C266 N268 1.317 . S
C266 H271 0.930 . S
C267 C266 1.333 . S
C267 N269 1.350 1_545 S
C267 H293 0.931 . S
N268 Co264 2.148 . S
N268 C265 1.279 1_545 S
N268 C266 1.317 . S
N269 C265 1.338 . S
N269 C267 1.350 1_565 S
H270 C265 0.942 . S
H271 C266 0.930 . S
C272 O273 1.224 . S
C272 O291 1.247 . S
O273 C272 1.224 . S
N274 Co264 2.128 . S
N274 C275 1.355 . S
N274 C277 1.311 . S
C275 N274 1.355 . S
C275 C276 1.363 . S
C275 H287 0.929 . S
C276 C275 1.363 . S
C276 N278 1.375 . S
C276 H294 0.931 . S
C277 N274 1.311 . S
C277 N278 1.347 . S
C277 H288 0.929 . S
N278 C276 1.375 . S
N278 C277 1.347 . S
C279 C282 1.365 . S
C279 N284 1.328 . S
C279 H285 0.929 . S
C280 C281 1.362 . S
C280 C283 1.378 . S
C280 H295 0.929 . S
C281 C280 1.362 . S
C281 C282 1.366 . S
C282 C279 1.365 . S
C282 C281 1.366 . S
C282 H296 0.930 . S
C283 C280 1.378 . S
C283 N284 1.315 . S
C283 H286 0.930 . S
N284 Co264 2.194 . S
N284 C279 1.328 . S
N284 C283 1.315 . S
H285 C279 0.929 . S
H286 C283 0.930 . S
H287 C275 0.929 . S
H288 C277 0.929 . S
O289 Co264 2.351 . S
O289 C292 1.244 1_545 S
O290 Co264 2.155 . S
O290 C292 1.240 1_545 S
O291 Co264 2.096 . S
O291 C272 1.247 . S
C292 O289 1.244 1_565 S
C292 O290 1.240 1_565 S
H293 C267 0.931 . S
H294 C276 0.931 . S
H295 C280 0.929 . S
H296 C282 0.930 . S
Co297 N301 2.148 . S
Co297 N307 2.128 . S
Co297 N317 2.194 . S
Co297 O322 2.351 . S
Co297 O323 2.155 . S
Co297 O324 2.096 . S
C298 N301 1.279 1_455 S
C298 N302 1.338 . S
C298 H303 0.942 . S
C299 C300 1.333 . S
C299 N301 1.317 . S
C299 H304 0.930 . S
C300 C299 1.333 . S
C300 N302 1.350 1_655 S
C300 H326 0.931 . S
N301 Co297 2.148 . S
N301 C298 1.279 1_655 S
N301 C299 1.317 . S
N302 C298 1.338 . S
N302 C300 1.350 1_455 S
H303 C298 0.942 . S
H304 C299 0.930 . S
C305 O306 1.224 . S
C305 O324 1.247 . S
O306 C305 1.224 . S
N307 Co297 2.128 . S
N307 C308 1.355 . S
N307 C310 1.311 . S
C308 N307 1.355 . S
C308 C309 1.363 . S
C308 H320 0.929 . S
C309 C308 1.363 . S
C309 N311 1.375 . S
C309 H327 0.931 . S
C310 N307 1.311 . S
C310 N311 1.347 . S
C310 H321 0.929 . S
N311 C309 1.375 . S
N311 C310 1.347 . S
C312 C315 1.365 . S
C312 N317 1.328 . S
C312 H318 0.929 . S
C313 C314 1.362 . S
C313 C316 1.378 . S
C313 H328 0.929 . S
C314 C313 1.362 . S
C314 C315 1.366 . S
C315 C312 1.365 . S
C315 C314 1.366 . S
C315 H329 0.930 . S
C316 C313 1.378 . S
C316 N317 1.315 . S
C316 H319 0.930 . S
N317 Co297 2.194 . S
N317 C312 1.328 . S
N317 C316 1.315 . S
H318 C312 0.929 . S
H319 C316 0.930 . S
H320 C308 0.929 . S
H321 C310 0.929 . S
O322 Co297 2.351 . S
O322 C325 1.244 1_655 S
O323 Co297 2.155 . S
O323 C325 1.240 1_655 S
O324 Co297 2.096 . S
O324 C305 1.247 . S
C325 O322 1.244 1_455 S
C325 O323 1.240 1_455 S
H326 C300 0.931 . S
H327 C309 0.931 . S
H328 C313 0.929 . S
H329 C315 0.930 . S
Co330 N334 2.148 . S
Co330 N340 2.128 . S
Co330 N350 2.194 . S
Co330 O355 2.351 . S
Co330 O356 2.155 . S
Co330 O357 2.096 . S
C331 N334 1.279 1_545 S
C331 N335 1.338 . S
C331 H336 0.942 . S
C332 C333 1.333 . S
C332 N334 1.317 . S
C332 H337 0.930 . S
C333 C332 1.333 . S
C333 N335 1.350 1_565 S
C333 H359 0.931 . S
N334 Co330 2.148 . S
N334 C331 1.279 1_565 S
N334 C332 1.317 . S
N335 C331 1.338 . S
N335 C333 1.350 1_545 S
H336 C331 0.942 . S
H337 C332 0.930 . S
C338 O339 1.224 . S
C338 O357 1.247 . S
O339 C338 1.224 . S
N340 Co330 2.128 . S
N340 C341 1.355 . S
N340 C343 1.311 . S
C341 N340 1.355 . S
C341 C342 1.363 . S
C341 H353 0.929 . S
C342 C341 1.363 . S
C342 N344 1.375 . S
C342 H360 0.931 . S
C343 N340 1.311 . S
C343 N344 1.347 . S
C343 H354 0.929 . S
N344 C342 1.375 . S
N344 C343 1.347 . S
C345 C348 1.365 . S
C345 N350 1.328 . S
C345 H351 0.929 . S
C346 C347 1.362 . S
C346 C349 1.378 . S
C346 H361 0.929 . S
C347 C346 1.362 . S
C347 C348 1.366 . S
C348 C345 1.365 . S
C348 C347 1.366 . S
C348 H362 0.930 . S
C349 C346 1.378 . S
C349 N350 1.315 . S
C349 H352 0.930 . S
N350 Co330 2.194 . S
N350 C345 1.328 . S
N350 C349 1.315 . S
H351 C345 0.929 . S
H352 C349 0.930 . S
H353 C341 0.929 . S
H354 C343 0.929 . S
O355 Co330 2.351 . S
O355 C358 1.244 1_565 S
O356 Co330 2.155 . S
O356 C358 1.240 1_565 S
O357 Co330 2.096 . S
O357 C338 1.247 . S
C358 O355 1.244 1_545 S
C358 O356 1.240 1_545 S
H359 C333 0.931 . S
H360 C342 0.931 . S
H361 C346 0.929 . S
H362 C348 0.930 . S
Co363 N367 2.148 . S
Co363 N373 2.128 . S
Co363 N383 2.194 . S
Co363 O388 2.351 . S
Co363 O389 2.155 . S
Co363 O390 2.096 . S
C364 N367 1.279 1_655 S
C364 N368 1.338 . S
C364 H369 0.942 . S
C365 C366 1.333 . S
C365 N367 1.317 . S
C365 H370 0.930 . S
C366 C365 1.333 . S
C366 N368 1.350 1_455 S
C366 H392 0.931 . S
N367 Co363 2.148 . S
N367 C364 1.279 1_455 S
N367 C365 1.317 . S
N368 C364 1.338 . S
N368 C366 1.350 1_655 S
H369 C364 0.942 . S
H370 C365 0.930 . S
C371 O372 1.224 . S
C371 O390 1.247 . S
O372 C371 1.224 . S
N373 Co363 2.128 . S
N373 C374 1.355 . S
N373 C376 1.311 . S
C374 N373 1.355 . S
C374 C375 1.363 . S
C374 H386 0.929 . S
C375 C374 1.363 . S
C375 N377 1.375 . S
C375 H393 0.931 . S
C376 N373 1.311 . S
C376 N377 1.347 . S
C376 H387 0.929 . S
N377 C375 1.375 . S
N377 C376 1.347 . S
C378 C381 1.365 . S
C378 N383 1.328 . S
C378 H384 0.929 . S
C379 C380 1.362 . S
C379 C382 1.378 . S
C379 H394 0.929 . S
C380 C379 1.362 . S
C380 C381 1.366 . S
C381 C378 1.365 . S
C381 C380 1.366 . S
C381 H395 0.930 . S
C382 C379 1.378 . S
C382 N383 1.315 . S
C382 H385 0.930 . S
N383 Co363 2.194 . S
N383 C378 1.328 . S
N383 C382 1.315 . S
H384 C378 0.929 . S
H385 C382 0.930 . S
H386 C374 0.929 . S
H387 C376 0.929 . S
O388 Co363 2.351 . S
O388 C391 1.244 1_455 S
O389 Co363 2.155 . S
O389 C391 1.240 1_455 S
O390 Co363 2.096 . S
O390 C371 1.247 . S
C391 O388 1.244 1_655 S
C391 O389 1.240 1_655 S
H392 C366 0.931 . S
H393 C375 0.931 . S
H394 C379 0.929 . S
H395 C381 0.930 . S
Co396 N400 2.148 . S
Co396 N406 2.128 . S
Co396 N416 2.194 . S
Co396 O421 2.351 . S
Co396 O422 2.155 . S
Co396 O423 2.096 . S
C397 N400 1.279 1_545 S
C397 N401 1.338 . S
C397 H402 0.942 . S
C398 C399 1.333 . S
C398 N400 1.317 . S
C398 H403 0.930 . S
C399 C398 1.333 . S
C399 N401 1.350 1_565 S
C399 H425 0.931 . S
N400 Co396 2.148 . S
N400 C397 1.279 1_565 S
N400 C398 1.317 . S
N401 C397 1.338 . S
N401 C399 1.350 1_545 S
H402 C397 0.942 . S
H403 C398 0.930 . S
C404 O405 1.224 . S
C404 O423 1.247 . S
O405 C404 1.224 . S
N406 Co396 2.128 . S
N406 C407 1.355 . S
N406 C409 1.311 . S
C407 N406 1.355 . S
C407 C408 1.363 . S
C407 H419 0.929 . S
C408 C407 1.363 . S
C408 N410 1.375 . S
C408 H426 0.931 . S
C409 N406 1.311 . S
C409 N410 1.347 . S
C409 H420 0.929 . S
N410 C408 1.375 . S
N410 C409 1.347 . S
C411 C414 1.365 . S
C411 N416 1.328 . S
C411 H417 0.929 . S
C412 C413 1.362 . S
C412 C415 1.378 . S
C412 H427 0.929 . S
C413 C412 1.362 . S
C413 C414 1.366 . S
C414 C411 1.365 . S
C414 C413 1.366 . S
C414 H428 0.930 . S
C415 C412 1.378 . S
C415 N416 1.315 . S
C415 H418 0.930 . S
N416 Co396 2.194 . S
N416 C411 1.328 . S
N416 C415 1.315 . S
H417 C411 0.929 . S
H418 C415 0.930 . S
H419 C407 0.929 . S
H420 C409 0.929 . S
O421 Co396 2.351 . S
O421 C424 1.244 1_565 S
O422 Co396 2.155 . S
O422 C424 1.240 1_565 S
O423 Co396 2.096 . S
O423 C404 1.247 . S
C424 O421 1.244 1_545 S
C424 O422 1.240 1_545 S
H425 C399 0.931 . S
H426 C408 0.931 . S
H427 C412 0.929 . S
H428 C414 0.930 . S
Co429 N433 2.148 . S
Co429 N439 2.128 . S
Co429 N449 2.194 . S
Co429 O454 2.351 . S
Co429 O455 2.155 . S
Co429 O456 2.096 . S
C430 N433 1.279 1_655 S
C430 N434 1.338 . S
C430 H435 0.942 . S
C431 C432 1.333 . S
C431 N433 1.317 . S
C431 H436 0.930 . S
C432 C431 1.333 . S
C432 N434 1.350 1_455 S
C432 H458 0.931 . S
N433 Co429 2.148 . S
N433 C430 1.279 1_455 S
N433 C431 1.317 . S
N434 C430 1.338 . S
N434 C432 1.350 1_655 S
H435 C430 0.942 . S
H436 C431 0.930 . S
C437 O438 1.224 . S
C437 O456 1.247 . S
O438 C437 1.224 . S
N439 Co429 2.128 . S
N439 C440 1.355 . S
N439 C442 1.311 . S
C440 N439 1.355 . S
C440 C441 1.363 . S
C440 H452 0.929 . S
C441 C440 1.363 . S
C441 N443 1.375 . S
C441 H459 0.931 . S
C442 N439 1.311 . S
C442 N443 1.347 . S
C442 H453 0.929 . S
N443 C441 1.375 . S
N443 C442 1.347 . S
C444 C447 1.365 . S
C444 N449 1.328 . S
C444 H450 0.929 . S
C445 C446 1.362 . S
C445 C448 1.378 . S
C445 H460 0.929 . S
C446 C445 1.362 . S
C446 C447 1.366 . S
C447 C444 1.365 . S
C447 C446 1.366 . S
C447 H461 0.930 . S
C448 C445 1.378 . S
C448 N449 1.315 . S
C448 H451 0.930 . S
N449 Co429 2.194 . S
N449 C444 1.328 . S
N449 C448 1.315 . S
H450 C444 0.929 . S
H451 C448 0.930 . S
H452 C440 0.929 . S
H453 C442 0.929 . S
O454 Co429 2.351 . S
O454 C457 1.244 1_455 S
O455 Co429 2.155 . S
O455 C457 1.240 1_455 S
O456 Co429 2.096 . S
O456 C437 1.247 . S
C457 O454 1.244 1_655 S
C457 O455 1.240 1_655 S
H458 C432 0.931 . S
H459 C441 0.931 . S
H460 C445 0.929 . S
H461 C447 0.930 . S
Co462 N466 2.148 . S
Co462 N472 2.128 . S
Co462 N482 2.194 . S
Co462 O487 2.351 . S
Co462 O488 2.155 . S
Co462 O489 2.096 . S
C463 N466 1.279 1_565 S
C463 N467 1.338 . S
C463 H468 0.942 . S
C464 C465 1.333 . S
C464 N466 1.317 . S
C464 H469 0.930 . S
C465 C464 1.333 . S
C465 N467 1.350 1_545 S
C465 H491 0.931 . S
N466 Co462 2.148 . S
N466 C463 1.279 1_545 S
N466 C464 1.317 . S
N467 C463 1.338 . S
N467 C465 1.350 1_565 S
H468 C463 0.942 . S
H469 C464 0.930 . S
C470 O471 1.224 . S
C470 O489 1.247 . S
O471 C470 1.224 . S
N472 Co462 2.128 . S
N472 C473 1.355 . S
N472 C475 1.311 . S
C473 N472 1.355 . S
C473 C474 1.363 . S
C473 H485 0.929 . S
C474 C473 1.363 . S
C474 N476 1.375 . S
C474 H492 0.931 . S
C475 N472 1.311 . S
C475 N476 1.347 . S
C475 H486 0.929 . S
N476 C474 1.375 . S
N476 C475 1.347 . S
C477 C480 1.365 . S
C477 N482 1.328 . S
C477 H483 0.929 . S
C478 C479 1.362 . S
C478 C481 1.378 . S
C478 H493 0.929 . S
C479 C478 1.362 . S
C479 C480 1.366 . S
C480 C477 1.365 . S
C480 C479 1.366 . S
C480 H494 0.930 . S
C481 C478 1.378 . S
C481 N482 1.315 . S
C481 H484 0.930 . S
N482 Co462 2.194 . S
N482 C477 1.328 . S
N482 C481 1.315 . S
H483 C477 0.929 . S
H484 C481 0.930 . S
H485 C473 0.929 . S
H486 C475 0.929 . S
O487 Co462 2.351 . S
O487 C490 1.244 1_545 S
O488 Co462 2.155 . S
O488 C490 1.240 1_545 S
O489 Co462 2.096 . S
O489 C470 1.247 . S
C490 O487 1.244 1_565 S
C490 O488 1.240 1_565 S
H491 C465 0.931 . S
H492 C474 0.931 . S
H493 C478 0.929 . S
H494 C480 0.930 . S
Co495 N499 2.148 . S
Co495 N505 2.128 . S
Co495 N515 2.194 . S
Co495 O520 2.351 . S
Co495 O521 2.155 . S
Co495 O522 2.096 . S
C496 N499 1.279 1_455 S
C496 N500 1.338 . S
C496 H501 0.942 . S
C497 C498 1.333 . S
C497 N499 1.317 . S
C497 H502 0.930 . S
C498 C497 1.333 . S
C498 N500 1.350 1_655 S
C498 H524 0.931 . S
N499 Co495 2.148 . S
N499 C496 1.279 1_655 S
N499 C497 1.317 . S
N500 C496 1.338 . S
N500 C498 1.350 1_455 S
H501 C496 0.942 . S
H502 C497 0.930 . S
C503 O504 1.224 . S
C503 O522 1.247 . S
O504 C503 1.224 . S
N505 Co495 2.128 . S
N505 C506 1.355 . S
N505 C508 1.311 . S
C506 N505 1.355 . S
C506 C507 1.363 . S
C506 H518 0.929 . S
C507 C506 1.363 . S
C507 N509 1.375 . S
C507 H525 0.931 . S
C508 N505 1.311 . S
C508 N509 1.347 . S
C508 H519 0.929 . S
N509 C507 1.375 . S
N509 C508 1.347 . S
C510 C513 1.365 . S
C510 N515 1.328 . S
C510 H516 0.929 . S
C511 C512 1.362 . S
C511 C514 1.378 . S
C511 H526 0.929 . S
C512 C511 1.362 . S
C512 C513 1.366 . S
C513 C510 1.365 . S
C513 C512 1.366 . S
C513 H527 0.930 . S
C514 C511 1.378 . S
C514 N515 1.315 . S
C514 H517 0.930 . S
N515 Co495 2.194 . S
N515 C510 1.328 . S
N515 C514 1.315 . S
H516 C510 0.929 . S
H517 C514 0.930 . S
H518 C506 0.929 . S
H519 C508 0.929 . S
O520 Co495 2.351 . S
O520 C523 1.244 1_655 S
O521 Co495 2.155 . S
O521 C523 1.240 1_655 S
O522 Co495 2.096 . S
O522 C503 1.247 . S
C523 O520 1.244 1_455 S
C523 O521 1.240 1_455 S
H524 C498 0.931 . S
H525 C507 0.931 . S
H526 C511 0.929 . S
H527 C513 0.930 . S
Co528 N532 2.148 . S
Co528 N538 2.128 . S
Co528 N548 2.194 . S
Co528 O553 2.351 . S
Co528 O554 2.155 . S
Co528 O555 2.096 . S
C529 N532 1.279 1_556 S
C529 N533 1.338 . S
C529 H534 0.942 . S
C530 C531 1.333 . S
C530 N532 1.317 . S
C530 H535 0.930 . S
C531 C530 1.333 . S
C531 N533 1.350 1_554 S
C531 H557 0.931 . S
N532 Co528 2.148 . S
N532 C529 1.279 1_554 S
N532 C530 1.317 . S
N533 C529 1.338 . S
N533 C531 1.350 1_556 S
H534 C529 0.942 . S
H535 C530 0.930 . S
C536 O537 1.224 . S
C536 O555 1.247 . S
O537 C536 1.224 . S
N538 Co528 2.128 . S
N538 C539 1.355 . S
N538 C541 1.311 . S
C539 N538 1.355 . S
C539 C540 1.363 . S
C539 H551 0.929 . S
C540 C539 1.363 . S
C540 N542 1.375 . S
C540 H558 0.931 . S
C541 N538 1.311 . S
C541 N542 1.347 . S
C541 H552 0.929 . S
N542 C540 1.375 . S
N542 C541 1.347 . S
C543 C546 1.365 . S
C543 N548 1.328 . S
C543 H549 0.929 . S
C544 C545 1.362 . S
C544 C547 1.378 . S
C544 H559 0.929 . S
C545 C544 1.362 . S
C545 C546 1.366 . S
C546 C543 1.365 . S
C546 C545 1.366 . S
C546 H560 0.930 . S
C547 C544 1.378 . S
C547 N548 1.315 . S
C547 H550 0.930 . S
N548 Co528 2.194 . S
N548 C543 1.328 . S
N548 C547 1.315 . S
H549 C543 0.929 . S
H550 C547 0.930 . S
H551 C539 0.929 . S
H552 C541 0.929 . S
O553 Co528 2.351 . S
O553 C556 1.244 1_554 S
O554 Co528 2.155 . S
O554 C556 1.240 1_554 S
O555 Co528 2.096 . S
O555 C536 1.247 . S
C556 O553 1.244 1_556 S
C556 O554 1.240 1_556 S
H557 C531 0.931 . S
H558 C540 0.931 . S
H559 C544 0.929 . S
H560 C546 0.930 . S
Co561 N565 2.148 . S
Co561 N571 2.128 . S
Co561 N581 2.194 . S
Co561 O586 2.351 . S
Co561 O587 2.155 . S
Co561 O588 2.096 . S
C562 N565 1.279 1_554 S
C562 N566 1.338 . S
C562 H567 0.942 . S
C563 C564 1.333 . S
C563 N565 1.317 . S
C563 H568 0.930 . S
C564 C563 1.333 . S
C564 N566 1.350 1_556 S
C564 H590 0.931 . S
N565 Co561 2.148 . S
N565 C562 1.279 1_556 S
N565 C563 1.317 . S
N566 C562 1.338 . S
N566 C564 1.350 1_554 S
H567 C562 0.942 . S
H568 C563 0.930 . S
C569 O570 1.224 . S
C569 O588 1.247 . S
O570 C569 1.224 . S
N571 Co561 2.128 . S
N571 C572 1.355 . S
N571 C574 1.311 . S
C572 N571 1.355 . S
C572 C573 1.363 . S
C572 H584 0.929 . S
C573 C572 1.363 . S
C573 N575 1.375 . S
C573 H591 0.931 . S
C574 N571 1.311 . S
C574 N575 1.347 . S
C574 H585 0.929 . S
N575 C573 1.375 . S
N575 C574 1.347 . S
C576 C579 1.365 . S
C576 N581 1.328 . S
C576 H582 0.929 . S
C577 C578 1.362 . S
C577 C580 1.378 . S
C577 H592 0.929 . S
C578 C577 1.362 . S
C578 C579 1.366 . S
C579 C576 1.365 . S
C579 C578 1.366 . S
C579 H593 0.930 . S
C580 C577 1.378 . S
C580 N581 1.315 . S
C580 H583 0.930 . S
N581 Co561 2.194 . S
N581 C576 1.328 . S
N581 C580 1.315 . S
H582 C576 0.929 . S
H583 C580 0.930 . S
H584 C572 0.929 . S
H585 C574 0.929 . S
O586 Co561 2.351 . S
O586 C589 1.244 1_556 S
O587 Co561 2.155 . S
O587 C589 1.240 1_556 S
O588 Co561 2.096 . S
O588 C569 1.247 . S
C589 O586 1.244 1_554 S
C589 O587 1.240 1_554 S
H590 C564 0.931 . S
H591 C573 0.931 . S
H592 C577 0.929 . S
H593 C579 0.930 . S
Co594 N598 2.148 . S
Co594 N604 2.128 . S
Co594 N614 2.194 . S
Co594 O619 2.351 . S
Co594 O620 2.155 . S
Co594 O621 2.096 . S
C595 N598 1.279 1_554 S
C595 N599 1.338 . S
C595 H600 0.942 . S
C596 C597 1.333 . S
C596 N598 1.317 . S
C596 H601 0.930 . S
C597 C596 1.333 . S
C597 N599 1.350 1_556 S
C597 H623 0.931 . S
N598 Co594 2.148 . S
N598 C595 1.279 1_556 S
N598 C596 1.317 . S
N599 C595 1.338 . S
N599 C597 1.350 1_554 S
H600 C595 0.942 . S
H601 C596 0.930 . S
C602 O603 1.224 . S
C602 O621 1.247 . S
O603 C602 1.224 . S
N604 Co594 2.128 . S
N604 C605 1.355 . S
N604 C607 1.311 . S
C605 N604 1.355 . S
C605 C606 1.363 . S
C605 H617 0.929 . S
C606 C605 1.363 . S
C606 N608 1.375 . S
C606 H624 0.931 . S
C607 N604 1.311 . S
C607 N608 1.347 . S
C607 H618 0.929 . S
N608 C606 1.375 . S
N608 C607 1.347 . S
C609 C612 1.365 . S
C609 N614 1.328 . S
C609 H615 0.929 . S
C610 C611 1.362 . S
C610 C613 1.378 . S
C610 H625 0.929 . S
C611 C610 1.362 . S
C611 C612 1.366 . S
C612 C609 1.365 . S
C612 C611 1.366 . S
C612 H626 0.930 . S
C613 C610 1.378 . S
C613 N614 1.315 . S
C613 H616 0.930 . S
N614 Co594 2.194 . S
N614 C609 1.328 . S
N614 C613 1.315 . S
H615 C609 0.929 . S
H616 C613 0.930 . S
H617 C605 0.929 . S
H618 C607 0.929 . S
O619 Co594 2.351 . S
O619 C622 1.244 1_556 S
O620 Co594 2.155 . S
O620 C622 1.240 1_556 S
O621 Co594 2.096 . S
O621 C602 1.247 . S
C622 O619 1.244 1_554 S
C622 O620 1.240 1_554 S
H623 C597 0.931 . S
H624 C606 0.931 . S
H625 C610 0.929 . S
H626 C612 0.930 . S
Co627 N631 2.148 . S
Co627 N637 2.128 . S
Co627 N647 2.194 . S
Co627 O652 2.351 . S
Co627 O653 2.155 . S
Co627 O654 2.096 . S
C628 N631 1.279 1_554 S
C628 N632 1.338 . S
C628 H633 0.942 . S
C629 C630 1.333 . S
C629 N631 1.317 . S
C629 H634 0.930 . S
C630 C629 1.333 . S
C630 N632 1.350 1_556 S
C630 H656 0.931 . S
N631 Co627 2.148 . S
N631 C628 1.279 1_556 S
N631 C629 1.317 . S
N632 C628 1.338 . S
N632 C630 1.350 1_554 S
H633 C628 0.942 . S
H634 C629 0.930 . S
C635 O636 1.224 . S
C635 O654 1.247 . S
O636 C635 1.224 . S
N637 Co627 2.128 . S
N637 C638 1.355 . S
N637 C640 1.311 . S
C638 N637 1.355 . S
C638 C639 1.363 . S
C638 H650 0.929 . S
C639 C638 1.363 . S
C639 N641 1.375 . S
C639 H657 0.931 . S
C640 N637 1.311 . S
C640 N641 1.347 . S
C640 H651 0.929 . S
N641 C639 1.375 . S
N641 C640 1.347 . S
C642 C645 1.365 . S
C642 N647 1.328 . S
C642 H648 0.929 . S
C643 C644 1.362 . S
C643 C646 1.378 . S
C643 H658 0.929 . S
C644 C643 1.362 . S
C644 C645 1.366 . S
C645 C642 1.365 . S
C645 C644 1.366 . S
C645 H659 0.930 . S
C646 C643 1.378 . S
C646 N647 1.315 . S
C646 H649 0.930 . S
N647 Co627 2.194 . S
N647 C642 1.328 . S
N647 C646 1.315 . S
H648 C642 0.929 . S
H649 C646 0.930 . S
H650 C638 0.929 . S
H651 C640 0.929 . S
O652 Co627 2.351 . S
O652 C655 1.244 1_556 S
O653 Co627 2.155 . S
O653 C655 1.240 1_556 S
O654 Co627 2.096 . S
O654 C635 1.247 . S
C655 O652 1.244 1_554 S
C655 O653 1.240 1_554 S
H656 C630 0.931 . S
H657 C639 0.931 . S
H658 C643 0.929 . S
H659 C645 0.930 . S
Co660 N664 2.148 . S
Co660 N670 2.128 . S
Co660 N680 2.194 . S
Co660 O685 2.351 . S
Co660 O686 2.155 . S
Co660 O687 2.096 . S
C661 N664 1.279 1_554 S
C661 N665 1.338 . S
C661 H666 0.942 . S
C662 C663 1.333 . S
C662 N664 1.317 . S
C662 H667 0.930 . S
C663 C662 1.333 . S
C663 N665 1.350 1_556 S
C663 H689 0.931 . S
N664 Co660 2.148 . S
N664 C661 1.279 1_556 S
N664 C662 1.317 . S
N665 C661 1.338 . S
N665 C663 1.350 1_554 S
H666 C661 0.942 . S
H667 C662 0.930 . S
C668 O669 1.224 . S
C668 O687 1.247 . S
O669 C668 1.224 . S
N670 Co660 2.128 . S
N670 C671 1.355 . S
N670 C673 1.311 . S
C671 N670 1.355 . S
C671 C672 1.363 . S
C671 H683 0.929 . S
C672 C671 1.363 . S
C672 N674 1.375 . S
C672 H690 0.931 . S
C673 N670 1.311 . S
C673 N674 1.347 . S
C673 H684 0.929 . S
N674 C672 1.375 . S
N674 C673 1.347 . S
C675 C678 1.365 . S
C675 N680 1.328 . S
C675 H681 0.929 . S
C676 C677 1.362 . S
C676 C679 1.378 . S
C676 H691 0.929 . S
C677 C676 1.362 . S
C677 C678 1.366 . S
C678 C675 1.365 . S
C678 C677 1.366 . S
C678 H692 0.930 . S
C679 C676 1.378 . S
C679 N680 1.315 . S
C679 H682 0.930 . S
N680 Co660 2.194 . S
N680 C675 1.328 . S
N680 C679 1.315 . S
H681 C675 0.929 . S
H682 C679 0.930 . S
H683 C671 0.929 . S
H684 C673 0.929 . S
O685 Co660 2.351 . S
O685 C688 1.244 1_556 S
O686 Co660 2.155 . S
O686 C688 1.240 1_556 S
O687 Co660 2.096 . S
O687 C668 1.247 . S
C688 O685 1.244 1_554 S
C688 O686 1.240 1_554 S
H689 C663 0.931 . S
H690 C672 0.931 . S
H691 C676 0.929 . S
H692 C678 0.930 . S
Co693 N697 2.148 . S
Co693 N703 2.128 . S
Co693 N713 2.194 . S
Co693 O718 2.351 . S
Co693 O719 2.155 . S
Co693 O720 2.096 . S
C694 N697 1.279 1_556 S
C694 N698 1.338 . S
C694 H699 0.942 . S
C695 C696 1.333 . S
C695 N697 1.317 . S
C695 H700 0.930 . S
C696 C695 1.333 . S
C696 N698 1.350 1_554 S
C696 H722 0.931 . S
N697 Co693 2.148 . S
N697 C694 1.279 1_554 S
N697 C695 1.317 . S
N698 C694 1.338 . S
N698 C696 1.350 1_556 S
H699 C694 0.942 . S
H700 C695 0.930 . S
C701 O702 1.224 . S
C701 O720 1.247 . S
O702 C701 1.224 . S
N703 Co693 2.128 . S
N703 C704 1.355 . S
N703 C706 1.311 . S
C704 N703 1.355 . S
C704 C705 1.363 . S
C704 H716 0.929 . S
C705 C704 1.363 . S
C705 N707 1.375 . S
C705 H723 0.931 . S
C706 N703 1.311 . S
C706 N707 1.347 . S
C706 H717 0.929 . S
N707 C705 1.375 . S
N707 C706 1.347 . S
C708 C711 1.365 . S
C708 N713 1.328 . S
C708 H714 0.929 . S
C709 C710 1.362 . S
C709 C712 1.378 . S
C709 H724 0.929 . S
C710 C709 1.362 . S
C710 C711 1.366 . S
C711 C708 1.365 . S
C711 C710 1.366 . S
C711 H725 0.930 . S
C712 C709 1.378 . S
C712 N713 1.315 . S
C712 H715 0.930 . S
N713 Co693 2.194 . S
N713 C708 1.328 . S
N713 C712 1.315 . S
H714 C708 0.929 . S
H715 C712 0.930 . S
H716 C704 0.929 . S
H717 C706 0.929 . S
O718 Co693 2.351 . S
O718 C721 1.244 1_554 S
O719 Co693 2.155 . S
O719 C721 1.240 1_554 S
O720 Co693 2.096 . S
O720 C701 1.247 . S
C721 O718 1.244 1_556 S
C721 O719 1.240 1_556 S
H722 C696 0.931 . S
H723 C705 0.931 . S
H724 C709 0.929 . S
H725 C711 0.930 . S
Co726 N730 2.148 . S
Co726 N736 2.128 . S
Co726 N746 2.194 . S
Co726 O751 2.351 . S
Co726 O752 2.155 . S
Co726 O753 2.096 . S
C727 N730 1.279 1_556 S
C727 N731 1.338 . S
C727 H732 0.942 . S
C728 C729 1.333 . S
C728 N730 1.317 . S
C728 H733 0.930 . S
C729 C728 1.333 . S
C729 N731 1.350 1_554 S
C729 H755 0.931 . S
N730 Co726 2.148 . S
N730 C727 1.279 1_554 S
N730 C728 1.317 . S
N731 C727 1.338 . S
N731 C729 1.350 1_556 S
H732 C727 0.942 . S
H733 C728 0.930 . S
C734 O735 1.224 . S
C734 O753 1.247 . S
O735 C734 1.224 . S
N736 Co726 2.128 . S
N736 C737 1.355 . S
N736 C739 1.311 . S
C737 N736 1.355 . S
C737 C738 1.363 . S
C737 H749 0.929 . S
C738 C737 1.363 . S
C738 N740 1.375 . S
C738 H756 0.931 . S
C739 N736 1.311 . S
C739 N740 1.347 . S
C739 H750 0.929 . S
N740 C738 1.375 . S
N740 C739 1.347 . S
C741 C744 1.365 . S
C741 N746 1.328 . S
C741 H747 0.929 . S
C742 C743 1.362 . S
C742 C745 1.378 . S
C742 H757 0.929 . S
C743 C742 1.362 . S
C743 C744 1.366 . S
C744 C741 1.365 . S
C744 C743 1.366 . S
C744 H758 0.930 . S
C745 C742 1.378 . S
C745 N746 1.315 . S
C745 H748 0.930 . S
N746 Co726 2.194 . S
N746 C741 1.328 . S
N746 C745 1.315 . S
H747 C741 0.929 . S
H748 C745 0.930 . S
H749 C737 0.929 . S
H750 C739 0.929 . S
O751 Co726 2.351 . S
O751 C754 1.244 1_554 S
O752 Co726 2.155 . S
O752 C754 1.240 1_554 S
O753 Co726 2.096 . S
O753 C734 1.247 . S
C754 O751 1.244 1_556 S
C754 O752 1.240 1_556 S
H755 C729 0.931 . S
H756 C738 0.931 . S
H757 C742 0.929 . S
H758 C744 0.930 . S
Co759 N763 2.148 . S
Co759 N769 2.128 . S
Co759 N779 2.194 . S
Co759 O784 2.351 . S
Co759 O785 2.155 . S
Co759 O786 2.096 . S
C760 N763 1.279 1_556 S
C760 N764 1.338 . S
C760 H765 0.942 . S
C761 C762 1.333 . S
C761 N763 1.317 . S
C761 H766 0.930 . S
C762 C761 1.333 . S
C762 N764 1.350 1_554 S
C762 H788 0.931 . S
N763 Co759 2.148 . S
N763 C760 1.279 1_554 S
N763 C761 1.317 . S
N764 C760 1.338 . S
N764 C762 1.350 1_556 S
H765 C760 0.942 . S
H766 C761 0.930 . S
C767 O768 1.224 . S
C767 O786 1.247 . S
O768 C767 1.224 . S
N769 Co759 2.128 . S
N769 C770 1.355 . S
N769 C772 1.311 . S
C770 N769 1.355 . S
C770 C771 1.363 . S
C770 H782 0.929 . S
C771 C770 1.363 . S
C771 N773 1.375 . S
C771 H789 0.931 . S
C772 N769 1.311 . S
C772 N773 1.347 . S
C772 H783 0.929 . S
N773 C771 1.375 . S
N773 C772 1.347 . S
C774 C777 1.365 . S
C774 N779 1.328 . S
C774 H780 0.929 . S
C775 C776 1.362 . S
C775 C778 1.378 . S
C775 H790 0.929 . S
C776 C775 1.362 . S
C776 C777 1.366 . S
C777 C774 1.365 . S
C777 C776 1.366 . S
C777 H791 0.930 . S
C778 C775 1.378 . S
C778 N779 1.315 . S
C778 H781 0.930 . S
N779 Co759 2.194 . S
N779 C774 1.328 . S
N779 C778 1.315 . S
H780 C774 0.929 . S
H781 C778 0.930 . S
H782 C770 0.929 . S
H783 C772 0.929 . S
O784 Co759 2.351 . S
O784 C787 1.244 1_554 S
O785 Co759 2.155 . S
O785 C787 1.240 1_554 S
O786 Co759 2.096 . S
O786 C767 1.247 . S
C787 O784 1.244 1_556 S
C787 O785 1.240 1_556 S
H788 C762 0.931 . S
H789 C771 0.931 . S
H790 C775 0.929 . S
H791 C777 0.930 . S
Co792 N796 2.148 . S
Co792 N802 2.128 . S
Co792 N812 2.194 . S
Co792 O817 2.351 . S
Co792 O818 2.155 . S
Co792 O819 2.096 . S
C793 N796 1.301 . S
C793 N797 1.328 . S
C793 H798 0.930 . S
C794 C795 1.333 1_565 S
C794 N796 1.317 . S
C794 H799 0.930 1_565 S
C795 C794 1.333 1_545 S
C795 N797 1.350 1_545 S
C795 H821 0.931 . S
N796 Co792 2.148 . S
N796 C793 1.301 . S
N796 C794 1.317 . S
N797 C793 1.328 . S
N797 C795 1.350 1_565 S
H798 C793 0.930 . S
H799 C794 0.930 1_545 S
C800 O801 1.224 . S
C800 O819 1.247 . S
O801 C800 1.224 . S
N802 Co792 2.128 . S
N802 C803 1.355 . S
N802 C805 1.311 . S
C803 N802 1.355 . S
C803 C804 1.363 . S
C803 H815 0.929 . S
C804 C803 1.363 . S
C804 N806 1.375 . S
C804 H822 0.931 . S
C805 N802 1.311 . S
C805 N806 1.347 . S
C805 H816 0.929 . S
N806 C804 1.375 . S
N806 C805 1.347 . S
C807 C810 1.365 . S
C807 N812 1.328 . S
C807 H813 0.929 . S
C808 C809 1.362 . S
C808 C811 1.378 . S
C808 H823 0.929 . S
C809 C808 1.362 . S
C809 C810 1.366 . S
C810 C807 1.365 . S
C810 C809 1.366 . S
C810 H824 0.930 . S
C811 C808 1.378 . S
C811 N812 1.315 . S
C811 H814 0.930 . S
N812 Co792 2.194 . S
N812 C807 1.328 . S
N812 C811 1.315 . S
H813 C807 0.929 . S
H814 C811 0.930 . S
H815 C803 0.929 . S
H816 C805 0.929 . S
O817 Co792 2.351 . S
O817 C820 1.244 . S
O818 Co792 2.155 . S
O818 C820 1.240 . S
O819 Co792 2.096 . S
O819 C800 1.247 . S
C820 O817 1.244 . S
C820 O818 1.240 . S
H821 C795 0.931 . S
H822 C804 0.931 . S
H823 C808 0.929 . S
H824 C810 0.930 . S
Co825 N829 2.148 . S
Co825 N835 2.128 . S
Co825 N845 2.194 . S
Co825 O850 2.351 . S
Co825 O851 2.155 . S
Co825 O852 2.096 . S
C826 N829 1.301 . S
C826 N830 1.328 . S
C826 H831 0.930 . S
C827 C828 1.333 1_455 S
C827 N829 1.317 . S
C827 H832 0.930 1_455 S
C828 C827 1.333 1_655 S
C828 N830 1.350 1_655 S
C828 H854 0.931 . S
N829 Co825 2.148 . S
N829 C826 1.301 . S
N829 C827 1.317 . S
N830 C826 1.328 . S
N830 C828 1.350 1_455 S
H831 C826 0.930 . S
H832 C827 0.930 1_655 S
C833 O834 1.224 . S
C833 O852 1.247 . S
O834 C833 1.224 . S
N835 Co825 2.128 . S
N835 C836 1.355 . S
N835 C838 1.311 . S
C836 N835 1.355 . S
C836 C837 1.363 . S
C836 H848 0.929 . S
C837 C836 1.363 . S
C837 N839 1.375 . S
C837 H855 0.931 . S
C838 N835 1.311 . S
C838 N839 1.347 . S
C838 H849 0.929 . S
N839 C837 1.375 . S
N839 C838 1.347 . S
C840 C843 1.365 . S
C840 N845 1.328 . S
C840 H846 0.929 . S
C841 C842 1.362 . S
C841 C844 1.378 . S
C841 H856 0.929 . S
C842 C841 1.362 . S
C842 C843 1.366 . S
C843 C840 1.365 . S
C843 C842 1.366 . S
C843 H857 0.930 . S
C844 C841 1.378 . S
C844 N845 1.315 . S
C844 H847 0.930 . S
N845 Co825 2.194 . S
N845 C840 1.328 . S
N845 C844 1.315 . S
H846 C840 0.929 . S
H847 C844 0.930 . S
H848 C836 0.929 . S
H849 C838 0.929 . S
O850 Co825 2.351 . S
O850 C853 1.244 . S
O851 Co825 2.155 . S
O851 C853 1.240 . S
O852 Co825 2.096 . S
O852 C833 1.247 . S
C853 O850 1.244 . S
C853 O851 1.240 . S
H854 C828 0.931 . S
H855 C837 0.931 . S
H856 C841 0.929 . S
H857 C843 0.930 . S
Co858 N862 2.148 . S
Co858 N868 2.128 . S
Co858 N878 2.194 . S
Co858 O883 2.351 . S
Co858 O884 2.155 . S
Co858 O885 2.096 . S
C859 N862 1.301 . S
C859 N863 1.328 . S
C859 H864 0.930 . S
C860 C861 1.333 1_545 S
C860 N862 1.317 . S
C860 H865 0.930 1_545 S
C861 C860 1.333 1_565 S
C861 N863 1.350 1_565 S
C861 H887 0.931 . S
N862 Co858 2.148 . S
N862 C859 1.301 . S
N862 C860 1.317 . S
N863 C859 1.328 . S
N863 C861 1.350 1_545 S
H864 C859 0.930 . S
H865 C860 0.930 1_565 S
C866 O867 1.224 . S
C866 O885 1.247 . S
O867 C866 1.224 . S
N868 Co858 2.128 . S
N868 C869 1.355 . S
N868 C871 1.311 . S
C869 N868 1.355 . S
C869 C870 1.363 . S
C869 H881 0.929 . S
C870 C869 1.363 . S
C870 N872 1.375 . S
C870 H888 0.931 . S
C871 N868 1.311 . S
C871 N872 1.347 . S
C871 H882 0.929 . S
N872 C870 1.375 . S
N872 C871 1.347 . S
C873 C876 1.365 . S
C873 N878 1.328 . S
C873 H879 0.929 . S
C874 C875 1.362 . S
C874 C877 1.378 . S
C874 H889 0.929 . S
C875 C874 1.362 . S
C875 C876 1.366 . S
C876 C873 1.365 . S
C876 C875 1.366 . S
C876 H890 0.930 . S
C877 C874 1.378 . S
C877 N878 1.315 . S
C877 H880 0.930 . S
N878 Co858 2.194 . S
N878 C873 1.328 . S
N878 C877 1.315 . S
H879 C873 0.929 . S
H880 C877 0.930 . S
H881 C869 0.929 . S
H882 C871 0.929 . S
O883 Co858 2.351 . S
O883 C886 1.244 . S
O884 Co858 2.155 . S
O884 C886 1.240 . S
O885 Co858 2.096 . S
O885 C866 1.247 . S
C886 O883 1.244 . S
C886 O884 1.240 . S
H887 C861 0.931 . S
H888 C870 0.931 . S
H889 C874 0.929 . S
H890 C876 0.930 . S
Co891 N895 2.148 . S
Co891 N901 2.128 . S
Co891 N911 2.194 . S
Co891 O916 2.351 . S
Co891 O917 2.155 . S
Co891 O918 2.096 . S
C892 N895 1.301 . S
C892 N896 1.328 . S
C892 H897 0.930 . S
C893 C894 1.333 1_655 S
C893 N895 1.317 . S
C893 H898 0.930 1_655 S
C894 C893 1.333 1_455 S
C894 N896 1.350 1_455 S
C894 H920 0.931 . S
N895 Co891 2.148 . S
N895 C892 1.301 . S
N895 C893 1.317 . S
N896 C892 1.328 . S
N896 C894 1.350 1_655 S
H897 C892 0.930 . S
H898 C893 0.930 1_455 S
C899 O900 1.224 . S
C899 O918 1.247 . S
O900 C899 1.224 . S
N901 Co891 2.128 . S
N901 C902 1.355 . S
N901 C904 1.311 . S
C902 N901 1.355 . S
C902 C903 1.363 . S
C902 H914 0.929 . S
C903 C902 1.363 . S
C903 N905 1.375 . S
C903 H921 0.931 . S
C904 N901 1.311 . S
C904 N905 1.347 . S
C904 H915 0.929 . S
N905 C903 1.375 . S
N905 C904 1.347 . S
C906 C909 1.365 . S
C906 N911 1.328 . S
C906 H912 0.929 . S
C907 C908 1.362 . S
C907 C910 1.378 . S
C907 H922 0.929 . S
C908 C907 1.362 . S
C908 C909 1.366 . S
C909 C906 1.365 . S
C909 C908 1.366 . S
C909 H923 0.930 . S
C910 C907 1.378 . S
C910 N911 1.315 . S
C910 H913 0.930 . S
N911 Co891 2.194 . S
N911 C906 1.328 . S
N911 C910 1.315 . S
H912 C906 0.929 . S
H913 C910 0.930 . S
H914 C902 0.929 . S
H915 C904 0.929 . S
O916 Co891 2.351 . S
O916 C919 1.244 . S
O917 Co891 2.155 . S
O917 C919 1.240 . S
O918 Co891 2.096 . S
O918 C899 1.247 . S
C919 O916 1.244 . S
C919 O917 1.240 . S
H920 C894 0.931 . S
H921 C903 0.931 . S
H922 C907 0.929 . S
H923 C909 0.930 . S
Co924 N928 2.148 . S
Co924 N934 2.128 . S
Co924 N944 2.194 . S
Co924 O949 2.351 . S
Co924 O950 2.155 . S
Co924 O951 2.096 . S
C925 N928 1.301 . S
C925 N929 1.328 . S
C925 H930 0.930 . S
C926 C927 1.333 1_545 S
C926 N928 1.317 . S
C926 H931 0.930 1_545 S
C927 C926 1.333 1_565 S
C927 N929 1.350 1_565 S
C927 H953 0.931 . S
N928 Co924 2.148 . S
N928 C925 1.301 . S
N928 C926 1.317 . S
N929 C925 1.328 . S
N929 C927 1.350 1_545 S
H930 C925 0.930 . S
H931 C926 0.930 1_565 S
C932 O933 1.224 . S
C932 O951 1.247 . S
O933 C932 1.224 . S
N934 Co924 2.128 . S
N934 C935 1.355 . S
N934 C937 1.311 . S
C935 N934 1.355 . S
C935 C936 1.363 . S
C935 H947 0.929 . S
C936 C935 1.363 . S
C936 N938 1.375 . S
C936 H954 0.931 . S
C937 N934 1.311 . S
C937 N938 1.347 . S
C937 H948 0.929 . S
N938 C936 1.375 . S
N938 C937 1.347 . S
C939 C942 1.365 . S
C939 N944 1.328 . S
C939 H945 0.929 . S
C940 C941 1.362 . S
C940 C943 1.378 . S
C940 H955 0.929 . S
C941 C940 1.362 . S
C941 C942 1.366 . S
C942 C939 1.365 . S
C942 C941 1.366 . S
C942 H956 0.930 . S
C943 C940 1.378 . S
C943 N944 1.315 . S
C943 H946 0.930 . S
N944 Co924 2.194 . S
N944 C939 1.328 . S
N944 C943 1.315 . S
H945 C939 0.929 . S
H946 C943 0.930 . S
H947 C935 0.929 . S
H948 C937 0.929 . S
O949 Co924 2.351 . S
O949 C952 1.244 . S
O950 Co924 2.155 . S
O950 C952 1.240 . S
O951 Co924 2.096 . S
O951 C932 1.247 . S
C952 O949 1.244 . S
C952 O950 1.240 . S
H953 C927 0.931 . S
H954 C936 0.931 . S
H955 C940 0.929 . S
H956 C942 0.930 . S
Co957 N961 2.148 . S
Co957 N967 2.128 . S
Co957 N977 2.194 . S
Co957 O982 2.351 . S
Co957 O983 2.155 . S
Co957 O984 2.096 . S
C958 N961 1.301 . S
C958 N962 1.328 . S
C958 H963 0.930 . S
C959 C960 1.333 1_655 S
C959 N961 1.317 . S
C959 H964 0.930 1_655 S
C960 C959 1.333 1_455 S
C960 N962 1.350 1_455 S
C960 H986 0.931 . S
N961 Co957 2.148 . S
N961 C958 1.301 . S
N961 C959 1.317 . S
N962 C958 1.328 . S
N962 C960 1.350 1_655 S
H963 C958 0.930 . S
H964 C959 0.930 1_455 S
C965 O966 1.224 . S
C965 O984 1.247 . S
O966 C965 1.224 . S
N967 Co957 2.128 . S
N967 C968 1.355 . S
N967 C970 1.311 . S
C968 N967 1.355 . S
C968 C969 1.363 . S
C968 H980 0.929 . S
C969 C968 1.363 . S
C969 N971 1.375 . S
C969 H987 0.931 . S
C970 N967 1.311 . S
C970 N971 1.347 . S
C970 H981 0.929 . S
N971 C969 1.375 . S
N971 C970 1.347 . S
C972 C975 1.365 . S
C972 N977 1.328 . S
C972 H978 0.929 . S
C973 C974 1.362 . S
C973 C976 1.378 . S
C973 H988 0.929 . S
C974 C973 1.362 . S
C974 C975 1.366 . S
C975 C972 1.365 . S
C975 C974 1.366 . S
C975 H989 0.930 . S
C976 C973 1.378 . S
C976 N977 1.315 . S
C976 H979 0.930 . S
N977 Co957 2.194 . S
N977 C972 1.328 . S
N977 C976 1.315 . S
H978 C972 0.929 . S
H979 C976 0.930 . S
H980 C968 0.929 . S
H981 C970 0.929 . S
O982 Co957 2.351 . S
O982 C985 1.244 . S
O983 Co957 2.155 . S
O983 C985 1.240 . S
O984 Co957 2.096 . S
O984 C965 1.247 . S
C985 O982 1.244 . S
C985 O983 1.240 . S
H986 C960 0.931 . S
H987 C969 0.931 . S
H988 C973 0.929 . S
H989 C975 0.930 . S
Co990 N994 2.148 . S
Co990 N1000 2.128 . S
Co990 N1010 2.194 . S
Co990 O1015 2.351 . S
Co990 O1016 2.155 . S
Co990 O1017 2.096 . S
C991 N994 1.301 . S
C991 N995 1.328 . S
C991 H996 0.930 . S
C992 C993 1.333 1_565 S
C992 N994 1.317 . S
C992 H997 0.930 1_565 S
C993 C992 1.333 1_545 S
C993 N995 1.350 1_545 S
C993 H1019 0.931 . S
N994 Co990 2.148 . S
N994 C991 1.301 . S
N994 C992 1.317 . S
N995 C991 1.328 . S
N995 C993 1.350 1_565 S
H996 C991 0.930 . S
H997 C992 0.930 1_545 S
C998 O999 1.224 . S
C998 O1017 1.247 . S
O999 C998 1.224 . S
N1000 Co990 2.128 . S
N1000 C1001 1.355 . S
N1000 C1003 1.311 . S
C1001 N1000 1.355 . S
C1001 C1002 1.363 . S
C1001 H1013 0.929 . S
C1002 C1001 1.363 . S
C1002 N1004 1.375 . S
C1002 H1020 0.931 . S
C1003 N1000 1.311 . S
C1003 N1004 1.347 . S
C1003 H1014 0.929 . S
N1004 C1002 1.375 . S
N1004 C1003 1.347 . S
C1005 C1008 1.365 . S
C1005 N1010 1.328 . S
C1005 H1011 0.929 . S
C1006 C1007 1.362 . S
C1006 C1009 1.378 . S
C1006 H1021 0.929 . S
C1007 C1006 1.362 . S
C1007 C1008 1.366 . S
C1008 C1005 1.365 . S
C1008 C1007 1.366 . S
C1008 H1022 0.930 . S
C1009 C1006 1.378 . S
C1009 N1010 1.315 . S
C1009 H1012 0.930 . S
N1010 Co990 2.194 . S
N1010 C1005 1.328 . S
N1010 C1009 1.315 . S
H1011 C1005 0.929 . S
H1012 C1009 0.930 . S
H1013 C1001 0.929 . S
H1014 C1003 0.929 . S
O1015 Co990 2.351 . S
O1015 C1018 1.244 . S
O1016 Co990 2.155 . S
O1016 C1018 1.240 . S
O1017 Co990 2.096 . S
O1017 C998 1.247 . S
C1018 O1015 1.244 . S
C1018 O1016 1.240 . S
H1019 C993 0.931 . S
H1020 C1002 0.931 . S
H1021 C1006 0.929 . S
H1022 C1008 0.930 . S
Co1023 N1027 2.148 . S
Co1023 N1033 2.128 . S
Co1023 N1043 2.194 . S
Co1023 O1048 2.351 . S
Co1023 O1049 2.155 . S
Co1023 O1050 2.096 . S
C1024 N1027 1.301 . S
C1024 N1028 1.328 . S
C1024 H1029 0.930 . S
C1025 C1026 1.333 1_455 S
C1025 N1027 1.317 . S
C1025 H1030 0.930 1_455 S
C1026 C1025 1.333 1_655 S
C1026 N1028 1.350 1_655 S
C1026 H1052 0.931 . S
N1027 Co1023 2.148 . S
N1027 C1024 1.301 . S
N1027 C1025 1.317 . S
N1028 C1024 1.328 . S
N1028 C1026 1.350 1_455 S
H1029 C1024 0.930 . S
H1030 C1025 0.930 1_655 S
C1031 O1032 1.224 . S
C1031 O1050 1.247 . S
O1032 C1031 1.224 . S
N1033 Co1023 2.128 . S
N1033 C1034 1.355 . S
N1033 C1036 1.311 . S
C1034 N1033 1.355 . S
C1034 C1035 1.363 . S
C1034 H1046 0.929 . S
C1035 C1034 1.363 . S
C1035 N1037 1.375 . S
C1035 H1053 0.931 . S
C1036 N1033 1.311 . S
C1036 N1037 1.347 . S
C1036 H1047 0.929 . S
N1037 C1035 1.375 . S
N1037 C1036 1.347 . S
C1038 C1041 1.365 . S
C1038 N1043 1.328 . S
C1038 H1044 0.929 . S
C1039 C1040 1.362 . S
C1039 C1042 1.378 . S
C1039 H1054 0.929 . S
C1040 C1039 1.362 . S
C1040 C1041 1.366 . S
C1041 C1038 1.365 . S
C1041 C1040 1.366 . S
C1041 H1055 0.930 . S
C1042 C1039 1.378 . S
C1042 N1043 1.315 . S
C1042 H1045 0.930 . S
N1043 Co1023 2.194 . S
N1043 C1038 1.328 . S
N1043 C1042 1.315 . S
H1044 C1038 0.929 . S
H1045 C1042 0.930 . S
H1046 C1034 0.929 . S
H1047 C1036 0.929 . S
O1048 Co1023 2.351 . S
O1048 C1051 1.244 . S
O1049 Co1023 2.155 . S
O1049 C1051 1.240 . S
O1050 Co1023 2.096 . S
O1050 C1031 1.247 . S
C1051 O1048 1.244 . S
C1051 O1049 1.240 . S
H1052 C1026 0.931 . S
H1053 C1035 0.931 . S
H1054 C1039 0.929 . S
H1055 C1041 0.930 . S
Co1056 N1060 2.148 . S
Co1056 N1066 2.128 . S
Co1056 N1076 2.194 . S
Co1056 O1081 2.351 . S
Co1056 O1082 2.155 . S
Co1056 O1083 2.096 . S
C1057 N1060 1.301 . S
C1057 N1061 1.328 . S
C1057 H1062 0.930 . S
C1058 C1059 1.333 1_556 S
C1058 N1060 1.317 . S
C1058 H1063 0.930 1_556 S
C1059 C1058 1.333 1_554 S
C1059 N1061 1.350 1_554 S
C1059 H1085 0.931 . S
N1060 Co1056 2.148 . S
N1060 C1057 1.301 . S
N1060 C1058 1.317 . S
N1061 C1057 1.328 . S
N1061 C1059 1.350 1_556 S
H1062 C1057 0.930 . S
H1063 C1058 0.930 1_554 S
C1064 O1065 1.224 . S
C1064 O1083 1.247 . S
O1065 C1064 1.224 . S
N1066 Co1056 2.128 . S
N1066 C1067 1.355 . S
N1066 C1069 1.311 . S
C1067 N1066 1.355 . S
C1067 C1068 1.363 . S
C1067 H1079 0.929 . S
C1068 C1067 1.363 . S
C1068 N1070 1.375 . S
C1068 H1086 0.931 . S
C1069 N1066 1.311 . S
C1069 N1070 1.347 . S
C1069 H1080 0.929 . S
N1070 C1068 1.375 . S
N1070 C1069 1.347 . S
C1071 C1074 1.365 . S
C1071 N1076 1.328 . S
C1071 H1077 0.929 . S
C1072 C1073 1.362 . S
C1072 C1075 1.378 . S
C1072 H1087 0.929 . S
C1073 C1072 1.362 . S
C1073 C1074 1.366 . S
C1074 C1071 1.365 . S
C1074 C1073 1.366 . S
C1074 H1088 0.930 . S
C1075 C1072 1.378 . S
C1075 N1076 1.315 . S
C1075 H1078 0.930 . S
N1076 Co1056 2.194 . S
N1076 C1071 1.328 . S
N1076 C1075 1.315 . S
H1077 C1071 0.929 . S
H1078 C1075 0.930 . S
H1079 C1067 0.929 . S
H1080 C1069 0.929 . S
O1081 Co1056 2.351 . S
O1081 C1084 1.244 . S
O1082 Co1056 2.155 . S
O1082 C1084 1.240 . S
O1083 Co1056 2.096 . S
O1083 C1064 1.247 . S
C1084 O1081 1.244 . S
C1084 O1082 1.240 . S
H1085 C1059 0.931 . S
H1086 C1068 0.931 . S
H1087 C1072 0.929 . S
H1088 C1074 0.930 . S
Co1089 N1093 2.148 . S
Co1089 N1099 2.128 . S
Co1089 N1109 2.194 . S
Co1089 O1114 2.351 . S
Co1089 O1115 2.155 . S
Co1089 O1116 2.096 . S
C1090 N1093 1.301 . S
C1090 N1094 1.328 . S
C1090 H1095 0.930 . S
C1091 C1092 1.333 1_556 S
C1091 N1093 1.317 . S
C1091 H1096 0.930 1_556 S
C1092 C1091 1.333 1_554 S
C1092 N1094 1.350 1_554 S
C1092 H1118 0.931 . S
N1093 Co1089 2.148 . S
N1093 C1090 1.301 . S
N1093 C1091 1.317 . S
N1094 C1090 1.328 . S
N1094 C1092 1.350 1_556 S
H1095 C1090 0.930 . S
H1096 C1091 0.930 1_554 S
C1097 O1098 1.224 . S
C1097 O1116 1.247 . S
O1098 C1097 1.224 . S
N1099 Co1089 2.128 . S
N1099 C1100 1.355 . S
N1099 C1102 1.311 . S
C1100 N1099 1.355 . S
C1100 C1101 1.363 . S
C1100 H1112 0.929 . S
C1101 C1100 1.363 . S
C1101 N1103 1.375 . S
C1101 H1119 0.931 . S
C1102 N1099 1.311 . S
C1102 N1103 1.347 . S
C1102 H1113 0.929 . S
N1103 C1101 1.375 . S
N1103 C1102 1.347 . S
C1104 C1107 1.365 . S
C1104 N1109 1.328 . S
C1104 H1110 0.929 . S
C1105 C1106 1.362 . S
C1105 C1108 1.378 . S
C1105 H1120 0.929 . S
C1106 C1105 1.362 . S
C1106 C1107 1.366 . S
C1107 C1104 1.365 . S
C1107 C1106 1.366 . S
C1107 H1121 0.930 . S
C1108 C1105 1.378 . S
C1108 N1109 1.315 . S
C1108 H1111 0.930 . S
N1109 Co1089 2.194 . S
N1109 C1104 1.328 . S
N1109 C1108 1.315 . S
H1110 C1104 0.929 . S
H1111 C1108 0.930 . S
H1112 C1100 0.929 . S
H1113 C1102 0.929 . S
O1114 Co1089 2.351 . S
O1114 C1117 1.244 . S
O1115 Co1089 2.155 . S
O1115 C1117 1.240 . S
O1116 Co1089 2.096 . S
O1116 C1097 1.247 . S
C1117 O1114 1.244 . S
C1117 O1115 1.240 . S
H1118 C1092 0.931 . S
H1119 C1101 0.931 . S
H1120 C1105 0.929 . S
H1121 C1107 0.930 . S
Co1122 N1126 2.148 . S
Co1122 N1132 2.128 . S
Co1122 N1142 2.194 . S
Co1122 O1147 2.351 . S
Co1122 O1148 2.155 . S
Co1122 O1149 2.096 . S
C1123 N1126 1.301 . S
C1123 N1127 1.328 . S
C1123 H1128 0.930 . S
C1124 C1125 1.333 1_556 S
C1124 N1126 1.317 . S
C1124 H1129 0.930 1_556 S
C1125 C1124 1.333 1_554 S
C1125 N1127 1.350 1_554 S
C1125 H1151 0.931 . S
N1126 Co1122 2.148 . S
N1126 C1123 1.301 . S
N1126 C1124 1.317 . S
N1127 C1123 1.328 . S
N1127 C1125 1.350 1_556 S
H1128 C1123 0.930 . S
H1129 C1124 0.930 1_554 S
C1130 O1131 1.224 . S
C1130 O1149 1.247 . S
O1131 C1130 1.224 . S
N1132 Co1122 2.128 . S
N1132 C1133 1.355 . S
N1132 C1135 1.311 . S
C1133 N1132 1.355 . S
C1133 C1134 1.363 . S
C1133 H1145 0.929 . S
C1134 C1133 1.363 . S
C1134 N1136 1.375 . S
C1134 H1152 0.931 . S
C1135 N1132 1.311 . S
C1135 N1136 1.347 . S
C1135 H1146 0.929 . S
N1136 C1134 1.375 . S
N1136 C1135 1.347 . S
C1137 C1140 1.365 . S
C1137 N1142 1.328 . S
C1137 H1143 0.929 . S
C1138 C1139 1.362 . S
C1138 C1141 1.378 . S
C1138 H1153 0.929 . S
C1139 C1138 1.362 . S
C1139 C1140 1.366 . S
C1140 C1137 1.365 . S
C1140 C1139 1.366 . S
C1140 H1154 0.930 . S
C1141 C1138 1.378 . S
C1141 N1142 1.315 . S
C1141 H1144 0.930 . S
N1142 Co1122 2.194 . S
N1142 C1137 1.328 . S
N1142 C1141 1.315 . S
H1143 C1137 0.929 . S
H1144 C1141 0.930 . S
H1145 C1133 0.929 . S
H1146 C1135 0.929 . S
O1147 Co1122 2.351 . S
O1147 C1150 1.244 . S
O1148 Co1122 2.155 . S
O1148 C1150 1.240 . S
O1149 Co1122 2.096 . S
O1149 C1130 1.247 . S
C1150 O1147 1.244 . S
C1150 O1148 1.240 . S
H1151 C1125 0.931 . S
H1152 C1134 0.931 . S
H1153 C1138 0.929 . S
H1154 C1140 0.930 . S
Co1155 N1159 2.148 . S
Co1155 N1165 2.128 . S
Co1155 N1175 2.194 . S
Co1155 O1180 2.351 . S
Co1155 O1181 2.155 . S
Co1155 O1182 2.096 . S
C1156 N1159 1.301 . S
C1156 N1160 1.328 . S
C1156 H1161 0.930 . S
C1157 C1158 1.333 1_556 S
C1157 N1159 1.317 . S
C1157 H1162 0.930 1_556 S
C1158 C1157 1.333 1_554 S
C1158 N1160 1.350 1_554 S
C1158 H1184 0.931 . S
N1159 Co1155 2.148 . S
N1159 C1156 1.301 . S
N1159 C1157 1.317 . S
N1160 C1156 1.328 . S
N1160 C1158 1.350 1_556 S
H1161 C1156 0.930 . S
H1162 C1157 0.930 1_554 S
C1163 O1164 1.224 . S
C1163 O1182 1.247 . S
O1164 C1163 1.224 . S
N1165 Co1155 2.128 . S
N1165 C1166 1.355 . S
N1165 C1168 1.311 . S
C1166 N1165 1.355 . S
C1166 C1167 1.363 . S
C1166 H1178 0.929 . S
C1167 C1166 1.363 . S
C1167 N1169 1.375 . S
C1167 H1185 0.931 . S
C1168 N1165 1.311 . S
C1168 N1169 1.347 . S
C1168 H1179 0.929 . S
N1169 C1167 1.375 . S
N1169 C1168 1.347 . S
C1170 C1173 1.365 . S
C1170 N1175 1.328 . S
C1170 H1176 0.929 . S
C1171 C1172 1.362 . S
C1171 C1174 1.378 . S
C1171 H1186 0.929 . S
C1172 C1171 1.362 . S
C1172 C1173 1.366 . S
C1173 C1170 1.365 . S
C1173 C1172 1.366 . S
C1173 H1187 0.930 . S
C1174 C1171 1.378 . S
C1174 N1175 1.315 . S
C1174 H1177 0.930 . S
N1175 Co1155 2.194 . S
N1175 C1170 1.328 . S
N1175 C1174 1.315 . S
H1176 C1170 0.929 . S
H1177 C1174 0.930 . S
H1178 C1166 0.929 . S
H1179 C1168 0.929 . S
O1180 Co1155 2.351 . S
O1180 C1183 1.244 . S
O1181 Co1155 2.155 . S
O1181 C1183 1.240 . S
O1182 Co1155 2.096 . S
O1182 C1163 1.247 . S
C1183 O1180 1.244 . S
C1183 O1181 1.240 . S
H1184 C1158 0.931 . S
H1185 C1167 0.931 . S
H1186 C1171 0.929 . S
H1187 C1173 0.930 . S
Co1188 N1192 2.148 . S
Co1188 N1198 2.128 . S
Co1188 N1208 2.194 . S
Co1188 O1213 2.351 . S
Co1188 O1214 2.155 . S
Co1188 O1215 2.096 . S
C1189 N1192 1.301 . S
C1189 N1193 1.328 . S
C1189 H1194 0.930 . S
C1190 C1191 1.333 1_554 S
C1190 N1192 1.317 . S
C1190 H1195 0.930 1_554 S
C1191 C1190 1.333 1_556 S
C1191 N1193 1.350 1_556 S
C1191 H1217 0.931 . S
N1192 Co1188 2.148 . S
N1192 C1189 1.301 . S
N1192 C1190 1.317 . S
N1193 C1189 1.328 . S
N1193 C1191 1.350 1_554 S
H1194 C1189 0.930 . S
H1195 C1190 0.930 1_556 S
C1196 O1197 1.224 . S
C1196 O1215 1.247 . S
O1197 C1196 1.224 . S
N1198 Co1188 2.128 . S
N1198 C1199 1.355 . S
N1198 C1201 1.311 . S
C1199 N1198 1.355 . S
C1199 C1200 1.363 . S
C1199 H1211 0.929 . S
C1200 C1199 1.363 . S
C1200 N1202 1.375 . S
C1200 H1218 0.931 . S
C1201 N1198 1.311 . S
C1201 N1202 1.347 . S
C1201 H1212 0.929 . S
N1202 C1200 1.375 . S
N1202 C1201 1.347 . S
C1203 C1206 1.365 . S
C1203 N1208 1.328 . S
C1203 H1209 0.929 . S
C1204 C1205 1.362 . S
C1204 C1207 1.378 . S
C1204 H1219 0.929 . S
C1205 C1204 1.362 . S
C1205 C1206 1.366 . S
C1206 C1203 1.365 . S
C1206 C1205 1.366 . S
C1206 H1220 0.930 . S
C1207 C1204 1.378 . S
C1207 N1208 1.315 . S
C1207 H1210 0.930 . S
N1208 Co1188 2.194 . S
N1208 C1203 1.328 . S
N1208 C1207 1.315 . S
H1209 C1203 0.929 . S
H1210 C1207 0.930 . S
H1211 C1199 0.929 . S
H1212 C1201 0.929 . S
O1213 Co1188 2.351 . S
O1213 C1216 1.244 . S
O1214 Co1188 2.155 . S
O1214 C1216 1.240 . S
O1215 Co1188 2.096 . S
O1215 C1196 1.247 . S
C1216 O1213 1.244 . S
C1216 O1214 1.240 . S
H1217 C1191 0.931 . S
H1218 C1200 0.931 . S
H1219 C1204 0.929 . S
H1220 C1206 0.930 . S
Co1221 N1225 2.148 . S
Co1221 N1231 2.128 . S
Co1221 N1241 2.194 . S
Co1221 O1246 2.351 . S
Co1221 O1247 2.155 . S
Co1221 O1248 2.096 . S
C1222 N1225 1.301 . S
C1222 N1226 1.328 . S
C1222 H1227 0.930 . S
C1223 C1224 1.333 1_554 S
C1223 N1225 1.317 . S
C1223 H1228 0.930 1_554 S
C1224 C1223 1.333 1_556 S
C1224 N1226 1.350 1_556 S
C1224 H1250 0.931 . S
N1225 Co1221 2.148 . S
N1225 C1222 1.301 . S
N1225 C1223 1.317 . S
N1226 C1222 1.328 . S
N1226 C1224 1.350 1_554 S
H1227 C1222 0.930 . S
H1228 C1223 0.930 1_556 S
C1229 O1230 1.224 . S
C1229 O1248 1.247 . S
O1230 C1229 1.224 . S
N1231 Co1221 2.128 . S
N1231 C1232 1.355 . S
N1231 C1234 1.311 . S
C1232 N1231 1.355 . S
C1232 C1233 1.363 . S
C1232 H1244 0.929 . S
C1233 C1232 1.363 . S
C1233 N1235 1.375 . S
C1233 H1251 0.931 . S
C1234 N1231 1.311 . S
C1234 N1235 1.347 . S
C1234 H1245 0.929 . S
N1235 C1233 1.375 . S
N1235 C1234 1.347 . S
C1236 C1239 1.365 . S
C1236 N1241 1.328 . S
C1236 H1242 0.929 . S
C1237 C1238 1.362 . S
C1237 C1240 1.378 . S
C1237 H1252 0.929 . S
C1238 C1237 1.362 . S
C1238 C1239 1.366 . S
C1239 C1236 1.365 . S
C1239 C1238 1.366 . S
C1239 H1253 0.930 . S
C1240 C1237 1.378 . S
C1240 N1241 1.315 . S
C1240 H1243 0.930 . S
N1241 Co1221 2.194 . S
N1241 C1236 1.328 . S
N1241 C1240 1.315 . S
H1242 C1236 0.929 . S
H1243 C1240 0.930 . S
H1244 C1232 0.929 . S
H1245 C1234 0.929 . S
O1246 Co1221 2.351 . S
O1246 C1249 1.244 . S
O1247 Co1221 2.155 . S
O1247 C1249 1.240 . S
O1248 Co1221 2.096 . S
O1248 C1229 1.247 . S
C1249 O1246 1.244 . S
C1249 O1247 1.240 . S
H1250 C1224 0.931 . S
H1251 C1233 0.931 . S
H1252 C1237 0.929 . S
H1253 C1239 0.930 . S
Co1254 N1258 2.148 . S
Co1254 N1264 2.128 . S
Co1254 N1274 2.194 . S
Co1254 O1279 2.351 . S
Co1254 O1280 2.155 . S
Co1254 O1281 2.096 . S
C1255 N1258 1.301 . S
C1255 N1259 1.328 . S
C1255 H1260 0.930 . S
C1256 C1257 1.333 1_554 S
C1256 N1258 1.317 . S
C1256 H1261 0.930 1_554 S
C1257 C1256 1.333 1_556 S
C1257 N1259 1.350 1_556 S
C1257 H1283 0.931 . S
N1258 Co1254 2.148 . S
N1258 C1255 1.301 . S
N1258 C1256 1.317 . S
N1259 C1255 1.328 . S
N1259 C1257 1.350 1_554 S
H1260 C1255 0.930 . S
H1261 C1256 0.930 1_556 S
C1262 O1263 1.224 . S
C1262 O1281 1.247 . S
O1263 C1262 1.224 . S
N1264 Co1254 2.128 . S
N1264 C1265 1.355 . S
N1264 C1267 1.311 . S
C1265 N1264 1.355 . S
C1265 C1266 1.363 . S
C1265 H1277 0.929 . S
C1266 C1265 1.363 . S
C1266 N1268 1.375 . S
C1266 H1284 0.931 . S
C1267 N1264 1.311 . S
C1267 N1268 1.347 . S
C1267 H1278 0.929 . S
N1268 C1266 1.375 . S
N1268 C1267 1.347 . S
C1269 C1272 1.365 . S
C1269 N1274 1.328 . S
C1269 H1275 0.929 . S
C1270 C1271 1.362 . S
C1270 C1273 1.378 . S
C1270 H1285 0.929 . S
C1271 C1270 1.362 . S
C1271 C1272 1.366 . S
C1272 C1269 1.365 . S
C1272 C1271 1.366 . S
C1272 H1286 0.930 . S
C1273 C1270 1.378 . S
C1273 N1274 1.315 . S
C1273 H1276 0.930 . S
N1274 Co1254 2.194 . S
N1274 C1269 1.328 . S
N1274 C1273 1.315 . S
H1275 C1269 0.929 . S
H1276 C1273 0.930 . S
H1277 C1265 0.929 . S
H1278 C1267 0.929 . S
O1279 Co1254 2.351 . S
O1279 C1282 1.244 . S
O1280 Co1254 2.155 . S
O1280 C1282 1.240 . S
O1281 Co1254 2.096 . S
O1281 C1262 1.247 . S
C1282 O1279 1.244 . S
C1282 O1280 1.240 . S
H1283 C1257 0.931 . S
H1284 C1266 0.931 . S
H1285 C1270 0.929 . S
H1286 C1272 0.930 . S
Co1287 N1291 2.148 . S
Co1287 N1297 2.128 . S
Co1287 N1307 2.194 . S
Co1287 O1312 2.351 . S
Co1287 O1313 2.155 . S
Co1287 O1314 2.096 . S
C1288 N1291 1.301 . S
C1288 N1292 1.328 . S
C1288 H1293 0.930 . S
C1289 C1290 1.333 1_554 S
C1289 N1291 1.317 . S
C1289 H1294 0.930 1_554 S
C1290 C1289 1.333 1_556 S
C1290 N1292 1.350 1_556 S
C1290 H1316 0.931 . S
N1291 Co1287 2.148 . S
N1291 C1288 1.301 . S
N1291 C1289 1.317 . S
N1292 C1288 1.328 . S
N1292 C1290 1.350 1_554 S
H1293 C1288 0.930 . S
H1294 C1289 0.930 1_556 S
C1295 O1296 1.224 . S
C1295 O1314 1.247 . S
O1296 C1295 1.224 . S
N1297 Co1287 2.128 . S
N1297 C1298 1.355 . S
N1297 C1300 1.311 . S
C1298 N1297 1.355 . S
C1298 C1299 1.363 . S
C1298 H1310 0.929 . S
C1299 C1298 1.363 . S
C1299 N1301 1.375 . S
C1299 H1317 0.931 . S
C1300 N1297 1.311 . S
C1300 N1301 1.347 . S
C1300 H1311 0.929 . S
N1301 C1299 1.375 . S
N1301 C1300 1.347 . S
C1302 C1305 1.365 . S
C1302 N1307 1.328 . S
C1302 H1308 0.929 . S
C1303 C1304 1.362 . S
C1303 C1306 1.378 . S
C1303 H1318 0.929 . S
C1304 C1303 1.362 . S
C1304 C1305 1.366 . S
C1305 C1302 1.365 . S
C1305 C1304 1.366 . S
C1305 H1319 0.930 . S
C1306 C1303 1.378 . S
C1306 N1307 1.315 . S
C1306 H1309 0.930 . S
N1307 Co1287 2.194 . S
N1307 C1302 1.328 . S
N1307 C1306 1.315 . S
H1308 C1302 0.929 . S
H1309 C1306 0.930 . S
H1310 C1298 0.929 . S
H1311 C1300 0.929 . S
O1312 Co1287 2.351 . S
O1312 C1315 1.244 . S
O1313 Co1287 2.155 . S
O1313 C1315 1.240 . S
O1314 Co1287 2.096 . S
O1314 C1295 1.247 . S
C1315 O1312 1.244 . S
C1315 O1313 1.240 . S
H1316 C1290 0.931 . S
H1317 C1299 0.931 . S
H1318 C1303 0.929 . S
H1319 C1305 0.930 . S
Co1320 N1324 2.148 . S
Co1320 N1330 2.128 . S
Co1320 N1340 2.194 . S
Co1320 O1345 2.351 . S
Co1320 O1346 2.155 . S
Co1320 O1347 2.096 . S
C1321 N1324 1.301 . S
C1321 N1325 1.328 . S
C1321 H1326 0.930 . S
C1322 C1323 1.333 1_655 S
C1322 N1324 1.317 . S
C1322 H1327 0.930 1_655 S
C1323 C1322 1.333 1_455 S
C1323 N1325 1.350 1_455 S
C1323 H1349 0.931 . S
N1324 Co1320 2.148 . S
N1324 C1321 1.301 . S
N1324 C1322 1.317 . S
N1325 C1321 1.328 . S
N1325 C1323 1.350 1_655 S
H1326 C1321 0.930 . S
H1327 C1322 0.930 1_455 S
C1328 O1329 1.224 . S
C1328 O1347 1.247 . S
O1329 C1328 1.224 . S
N1330 Co1320 2.128 . S
N1330 C1331 1.355 . S
N1330 C1333 1.311 . S
C1331 N1330 1.355 . S
C1331 C1332 1.363 . S
C1331 H1343 0.929 . S
C1332 C1331 1.363 . S
C1332 N1334 1.375 . S
C1332 H1350 0.931 . S
C1333 N1330 1.311 . S
C1333 N1334 1.347 . S
C1333 H1344 0.929 . S
N1334 C1332 1.375 . S
N1334 C1333 1.347 . S
C1335 C1338 1.365 . S
C1335 N1340 1.328 . S
C1335 H1341 0.929 . S
C1336 C1337 1.362 . S
C1336 C1339 1.378 . S
C1336 H1351 0.929 . S
C1337 C1336 1.362 . S
C1337 C1338 1.366 . S
C1338 C1335 1.365 . S
C1338 C1337 1.366 . S
C1338 H1352 0.930 . S
C1339 C1336 1.378 . S
C1339 N1340 1.315 . S
C1339 H1342 0.930 . S
N1340 Co1320 2.194 . S
N1340 C1335 1.328 . S
N1340 C1339 1.315 . S
H1341 C1335 0.929 . S
H1342 C1339 0.930 . S
H1343 C1331 0.929 . S
H1344 C1333 0.929 . S
O1345 Co1320 2.351 . S
O1345 C1348 1.244 . S
O1346 Co1320 2.155 . S
O1346 C1348 1.240 . S
O1347 Co1320 2.096 . S
O1347 C1328 1.247 . S
C1348 O1345 1.244 . S
C1348 O1346 1.240 . S
H1349 C1323 0.931 . S
H1350 C1332 0.931 . S
H1351 C1336 0.929 . S
H1352 C1338 0.930 . S
Co1353 N1357 2.148 . S
Co1353 N1363 2.128 . S
Co1353 N1373 2.194 . S
Co1353 O1378 2.351 . S
Co1353 O1379 2.155 . S
Co1353 O1380 2.096 . S
C1354 N1357 1.301 . S
C1354 N1358 1.328 . S
C1354 H1359 0.930 . S
C1355 C1356 1.333 1_655 S
C1355 N1357 1.317 . S
C1355 H1360 0.930 1_655 S
C1356 C1355 1.333 1_455 S
C1356 N1358 1.350 1_455 S
C1356 H1382 0.931 . S
N1357 Co1353 2.148 . S
N1357 C1354 1.301 . S
N1357 C1355 1.317 . S
N1358 C1354 1.328 . S
N1358 C1356 1.350 1_655 S
H1359 C1354 0.930 . S
H1360 C1355 0.930 1_455 S
C1361 O1362 1.224 . S
C1361 O1380 1.247 . S
O1362 C1361 1.224 . S
N1363 Co1353 2.128 . S
N1363 C1364 1.355 . S
N1363 C1366 1.311 . S
C1364 N1363 1.355 . S
C1364 C1365 1.363 . S
C1364 H1376 0.929 . S
C1365 C1364 1.363 . S
C1365 N1367 1.375 . S
C1365 H1383 0.931 . S
C1366 N1363 1.311 . S
C1366 N1367 1.347 . S
C1366 H1377 0.929 . S
N1367 C1365 1.375 . S
N1367 C1366 1.347 . S
C1368 C1371 1.365 . S
C1368 N1373 1.328 . S
C1368 H1374 0.929 . S
C1369 C1370 1.362 . S
C1369 C1372 1.378 . S
C1369 H1384 0.929 . S
C1370 C1369 1.362 . S
C1370 C1371 1.366 . S
C1371 C1368 1.365 . S
C1371 C1370 1.366 . S
C1371 H1385 0.930 . S
C1372 C1369 1.378 . S
C1372 N1373 1.315 . S
C1372 H1375 0.930 . S
N1373 Co1353 2.194 . S
N1373 C1368 1.328 . S
N1373 C1372 1.315 . S
H1374 C1368 0.929 . S
H1375 C1372 0.930 . S
H1376 C1364 0.929 . S
H1377 C1366 0.929 . S
O1378 Co1353 2.351 . S
O1378 C1381 1.244 . S
O1379 Co1353 2.155 . S
O1379 C1381 1.240 . S
O1380 Co1353 2.096 . S
O1380 C1361 1.247 . S
C1381 O1378 1.244 . S
C1381 O1379 1.240 . S
H1382 C1356 0.931 . S
H1383 C1365 0.931 . S
H1384 C1369 0.929 . S
H1385 C1371 0.930 . S
Co1386 N1390 2.148 . S
Co1386 N1396 2.128 . S
Co1386 N1406 2.194 . S
Co1386 O1411 2.351 . S
Co1386 O1412 2.155 . S
Co1386 O1413 2.096 . S
C1387 N1390 1.301 . S
C1387 N1391 1.328 . S
C1387 H1392 0.930 . S
C1388 C1389 1.333 1_565 S
C1388 N1390 1.317 . S
C1388 H1393 0.930 1_565 S
C1389 C1388 1.333 1_545 S
C1389 N1391 1.350 1_545 S
C1389 H1415 0.931 . S
N1390 Co1386 2.148 . S
N1390 C1387 1.301 . S
N1390 C1388 1.317 . S
N1391 C1387 1.328 . S
N1391 C1389 1.350 1_565 S
H1392 C1387 0.930 . S
H1393 C1388 0.930 1_545 S
C1394 O1395 1.224 . S
C1394 O1413 1.247 . S
O1395 C1394 1.224 . S
N1396 Co1386 2.128 . S
N1396 C1397 1.355 . S
N1396 C1399 1.311 . S
C1397 N1396 1.355 . S
C1397 C1398 1.363 . S
C1397 H1409 0.929 . S
C1398 C1397 1.363 . S
C1398 N1400 1.375 . S
C1398 H1416 0.931 . S
C1399 N1396 1.311 . S
C1399 N1400 1.347 . S
C1399 H1410 0.929 . S
N1400 C1398 1.375 . S
N1400 C1399 1.347 . S
C1401 C1404 1.365 . S
C1401 N1406 1.328 . S
C1401 H1407 0.929 . S
C1402 C1403 1.362 . S
C1402 C1405 1.378 . S
C1402 H1417 0.929 . S
C1403 C1402 1.362 . S
C1403 C1404 1.366 . S
C1404 C1401 1.365 . S
C1404 C1403 1.366 . S
C1404 H1418 0.930 . S
C1405 C1402 1.378 . S
C1405 N1406 1.315 . S
C1405 H1408 0.930 . S
N1406 Co1386 2.194 . S
N1406 C1401 1.328 . S
N1406 C1405 1.315 . S
H1407 C1401 0.929 . S
H1408 C1405 0.930 . S
H1409 C1397 0.929 . S
H1410 C1399 0.929 . S
O1411 Co1386 2.351 . S
O1411 C1414 1.244 . S
O1412 Co1386 2.155 . S
O1412 C1414 1.240 . S
O1413 Co1386 2.096 . S
O1413 C1394 1.247 . S
C1414 O1411 1.244 . S
C1414 O1412 1.240 . S
H1415 C1389 0.931 . S
H1416 C1398 0.931 . S
H1417 C1402 0.929 . S
H1418 C1404 0.930 . S
Co1419 N1423 2.148 . S
Co1419 N1429 2.128 . S
Co1419 N1439 2.194 . S
Co1419 O1444 2.351 . S
Co1419 O1445 2.155 . S
Co1419 O1446 2.096 . S
C1420 N1423 1.301 . S
C1420 N1424 1.328 . S
C1420 H1425 0.930 . S
C1421 C1422 1.333 1_455 S
C1421 N1423 1.317 . S
C1421 H1426 0.930 1_455 S
C1422 C1421 1.333 1_655 S
C1422 N1424 1.350 1_655 S
C1422 H1448 0.931 . S
N1423 Co1419 2.148 . S
N1423 C1420 1.301 . S
N1423 C1421 1.317 . S
N1424 C1420 1.328 . S
N1424 C1422 1.350 1_455 S
H1425 C1420 0.930 . S
H1426 C1421 0.930 1_655 S
C1427 O1428 1.224 . S
C1427 O1446 1.247 . S
O1428 C1427 1.224 . S
N1429 Co1419 2.128 . S
N1429 C1430 1.355 . S
N1429 C1432 1.311 . S
C1430 N1429 1.355 . S
C1430 C1431 1.363 . S
C1430 H1442 0.929 . S
C1431 C1430 1.363 . S
C1431 N1433 1.375 . S
C1431 H1449 0.931 . S
C1432 N1429 1.311 . S
C1432 N1433 1.347 . S
C1432 H1443 0.929 . S
N1433 C1431 1.375 . S
N1433 C1432 1.347 . S
C1434 C1437 1.365 . S
C1434 N1439 1.328 . S
C1434 H1440 0.929 . S
C1435 C1436 1.362 . S
C1435 C1438 1.378 . S
C1435 H1450 0.929 . S
C1436 C1435 1.362 . S
C1436 C1437 1.366 . S
C1437 C1434 1.365 . S
C1437 C1436 1.366 . S
C1437 H1451 0.930 . S
C1438 C1435 1.378 . S
C1438 N1439 1.315 . S
C1438 H1441 0.930 . S
N1439 Co1419 2.194 . S
N1439 C1434 1.328 . S
N1439 C1438 1.315 . S
H1440 C1434 0.929 . S
H1441 C1438 0.930 . S
H1442 C1430 0.929 . S
H1443 C1432 0.929 . S
O1444 Co1419 2.351 . S
O1444 C1447 1.244 . S
O1445 Co1419 2.155 . S
O1445 C1447 1.240 . S
O1446 Co1419 2.096 . S
O1446 C1427 1.247 . S
C1447 O1444 1.244 . S
C1447 O1445 1.240 . S
H1448 C1422 0.931 . S
H1449 C1431 0.931 . S
H1450 C1435 0.929 . S
H1451 C1437 0.930 . S
Co1452 N1456 2.148 . S
Co1452 N1462 2.128 . S
Co1452 N1472 2.194 . S
Co1452 O1477 2.351 . S
Co1452 O1478 2.155 . S
Co1452 O1479 2.096 . S
C1453 N1456 1.301 . S
C1453 N1457 1.328 . S
C1453 H1458 0.930 . S
C1454 C1455 1.333 1_545 S
C1454 N1456 1.317 . S
C1454 H1459 0.930 1_545 S
C1455 C1454 1.333 1_565 S
C1455 N1457 1.350 1_565 S
C1455 H1481 0.931 . S
N1456 Co1452 2.148 . S
N1456 C1453 1.301 . S
N1456 C1454 1.317 . S
N1457 C1453 1.328 . S
N1457 C1455 1.350 1_545 S
H1458 C1453 0.930 . S
H1459 C1454 0.930 1_565 S
C1460 O1461 1.224 . S
C1460 O1479 1.247 . S
O1461 C1460 1.224 . S
N1462 Co1452 2.128 . S
N1462 C1463 1.355 . S
N1462 C1465 1.311 . S
C1463 N1462 1.355 . S
C1463 C1464 1.363 . S
C1463 H1475 0.929 . S
C1464 C1463 1.363 . S
C1464 N1466 1.375 . S
C1464 H1482 0.931 . S
C1465 N1462 1.311 . S
C1465 N1466 1.347 . S
C1465 H1476 0.929 . S
N1466 C1464 1.375 . S
N1466 C1465 1.347 . S
C1467 C1470 1.365 . S
C1467 N1472 1.328 . S
C1467 H1473 0.929 . S
C1468 C1469 1.362 . S
C1468 C1471 1.378 . S
C1468 H1483 0.929 . S
C1469 C1468 1.362 . S
C1469 C1470 1.366 . S
C1470 C1467 1.365 . S
C1470 C1469 1.366 . S
C1470 H1484 0.930 . S
C1471 C1468 1.378 . S
C1471 N1472 1.315 . S
C1471 H1474 0.930 . S
N1472 Co1452 2.194 . S
N1472 C1467 1.328 . S
N1472 C1471 1.315 . S
H1473 C1467 0.929 . S
H1474 C1471 0.930 . S
H1475 C1463 0.929 . S
H1476 C1465 0.929 . S
O1477 Co1452 2.351 . S
O1477 C1480 1.244 . S
O1478 Co1452 2.155 . S
O1478 C1480 1.240 . S
O1479 Co1452 2.096 . S
O1479 C1460 1.247 . S
C1480 O1477 1.244 . S
C1480 O1478 1.240 . S
H1481 C1455 0.931 . S
H1482 C1464 0.931 . S
H1483 C1468 0.929 . S
H1484 C1470 0.930 . S
Co1485 N1489 2.148 . S
Co1485 N1495 2.128 . S
Co1485 N1505 2.194 . S
Co1485 O1510 2.351 . S
Co1485 O1511 2.155 . S
Co1485 O1512 2.096 . S
C1486 N1489 1.301 . S
C1486 N1490 1.328 . S
C1486 H1491 0.930 . S
C1487 C1488 1.333 1_455 S
C1487 N1489 1.317 . S
C1487 H1492 0.930 1_455 S
C1488 C1487 1.333 1_655 S
C1488 N1490 1.350 1_655 S
C1488 H1514 0.931 . S
N1489 Co1485 2.148 . S
N1489 C1486 1.301 . S
N1489 C1487 1.317 . S
N1490 C1486 1.328 . S
N1490 C1488 1.350 1_455 S
H1491 C1486 0.930 . S
H1492 C1487 0.930 1_655 S
C1493 O1494 1.224 . S
C1493 O1512 1.247 . S
O1494 C1493 1.224 . S
N1495 Co1485 2.128 . S
N1495 C1496 1.355 . S
N1495 C1498 1.311 . S
C1496 N1495 1.355 . S
C1496 C1497 1.363 . S
C1496 H1508 0.929 . S
C1497 C1496 1.363 . S
C1497 N1499 1.375 . S
C1497 H1515 0.931 . S
C1498 N1495 1.311 . S
C1498 N1499 1.347 . S
C1498 H1509 0.929 . S
N1499 C1497 1.375 . S
N1499 C1498 1.347 . S
C1500 C1503 1.365 . S
C1500 N1505 1.328 . S
C1500 H1506 0.929 . S
C1501 C1502 1.362 . S
C1501 C1504 1.378 . S
C1501 H1516 0.929 . S
C1502 C1501 1.362 . S
C1502 C1503 1.366 . S
C1503 C1500 1.365 . S
C1503 C1502 1.366 . S
C1503 H1517 0.930 . S
C1504 C1501 1.378 . S
C1504 N1505 1.315 . S
C1504 H1507 0.930 . S
N1505 Co1485 2.194 . S
N1505 C1500 1.328 . S
N1505 C1504 1.315 . S
H1506 C1500 0.929 . S
H1507 C1504 0.930 . S
H1508 C1496 0.929 . S
H1509 C1498 0.929 . S
O1510 Co1485 2.351 . S
O1510 C1513 1.244 . S
O1511 Co1485 2.155 . S
O1511 C1513 1.240 . S
O1512 Co1485 2.096 . S
O1512 C1493 1.247 . S
C1513 O1510 1.244 . S
C1513 O1511 1.240 . S
H1514 C1488 0.931 . S
H1515 C1497 0.931 . S
H1516 C1501 0.929 . S
H1517 C1503 0.930 . S
Co1518 N1522 2.148 . S
Co1518 N1528 2.128 . S
Co1518 N1538 2.194 . S
Co1518 O1543 2.351 . S
Co1518 O1544 2.155 . S
Co1518 O1545 2.096 . S
C1519 N1522 1.301 . S
C1519 N1523 1.328 . S
C1519 H1524 0.930 . S
C1520 C1521 1.333 1_545 S
C1520 N1522 1.317 . S
C1520 H1525 0.930 1_545 S
C1521 C1520 1.333 1_565 S
C1521 N1523 1.350 1_565 S
C1521 H1547 0.931 . S
N1522 Co1518 2.148 . S
N1522 C1519 1.301 . S
N1522 C1520 1.317 . S
N1523 C1519 1.328 . S
N1523 C1521 1.350 1_545 S
H1524 C1519 0.930 . S
H1525 C1520 0.930 1_565 S
C1526 O1527 1.224 . S
C1526 O1545 1.247 . S
O1527 C1526 1.224 . S
N1528 Co1518 2.128 . S
N1528 C1529 1.355 . S
N1528 C1531 1.311 . S
C1529 N1528 1.355 . S
C1529 C1530 1.363 . S
C1529 H1541 0.929 . S
C1530 C1529 1.363 . S
C1530 N1532 1.375 . S
C1530 H1548 0.931 . S
C1531 N1528 1.311 . S
C1531 N1532 1.347 . S
C1531 H1542 0.929 . S
N1532 C1530 1.375 . S
N1532 C1531 1.347 . S
C1533 C1536 1.365 . S
C1533 N1538 1.328 . S
C1533 H1539 0.929 . S
C1534 C1535 1.362 . S
C1534 C1537 1.378 . S
C1534 H1549 0.929 . S
C1535 C1534 1.362 . S
C1535 C1536 1.366 . S
C1536 C1533 1.365 . S
C1536 C1535 1.366 . S
C1536 H1550 0.930 . S
C1537 C1534 1.378 . S
C1537 N1538 1.315 . S
C1537 H1540 0.930 . S
N1538 Co1518 2.194 . S
N1538 C1533 1.328 . S
N1538 C1537 1.315 . S
H1539 C1533 0.929 . S
H1540 C1537 0.930 . S
H1541 C1529 0.929 . S
H1542 C1531 0.929 . S
O1543 Co1518 2.351 . S
O1543 C1546 1.244 . S
O1544 Co1518 2.155 . S
O1544 C1546 1.240 . S
O1545 Co1518 2.096 . S
O1545 C1526 1.247 . S
C1546 O1543 1.244 . S
C1546 O1544 1.240 . S
H1547 C1521 0.931 . S
H1548 C1530 0.931 . S
H1549 C1534 0.929 . S
H1550 C1536 0.930 . S
Co1551 N1555 2.148 . S
Co1551 N1561 2.128 . S
Co1551 N1571 2.194 . S
Co1551 O1576 2.351 . S
Co1551 O1577 2.155 . S
Co1551 O1578 2.096 . S
C1552 N1555 1.301 . S
C1552 N1556 1.328 . S
C1552 H1557 0.930 . S
C1553 C1554 1.333 1_565 S
C1553 N1555 1.317 . S
C1553 H1558 0.930 1_565 S
C1554 C1553 1.333 1_545 S
C1554 N1556 1.350 1_545 S
C1554 H1580 0.931 . S
N1555 Co1551 2.148 . S
N1555 C1552 1.301 . S
N1555 C1553 1.317 . S
N1556 C1552 1.328 . S
N1556 C1554 1.350 1_565 S
H1557 C1552 0.930 . S
H1558 C1553 0.930 1_545 S
C1559 O1560 1.224 . S
C1559 O1578 1.247 . S
O1560 C1559 1.224 . S
N1561 Co1551 2.128 . S
N1561 C1562 1.355 . S
N1561 C1564 1.311 . S
C1562 N1561 1.355 . S
C1562 C1563 1.363 . S
C1562 H1574 0.929 . S
C1563 C1562 1.363 . S
C1563 N1565 1.375 . S
C1563 H1581 0.931 . S
C1564 N1561 1.311 . S
C1564 N1565 1.347 . S
C1564 H1575 0.929 . S
N1565 C1563 1.375 . S
N1565 C1564 1.347 . S
C1566 C1569 1.365 . S
C1566 N1571 1.328 . S
C1566 H1572 0.929 . S
C1567 C1568 1.362 . S
C1567 C1570 1.378 . S
C1567 H1582 0.929 . S
C1568 C1567 1.362 . S
C1568 C1569 1.366 . S
C1569 C1566 1.365 . S
C1569 C1568 1.366 . S
C1569 H1583 0.930 . S
C1570 C1567 1.378 . S
C1570 N1571 1.315 . S
C1570 H1573 0.930 . S
N1571 Co1551 2.194 . S
N1571 C1566 1.328 . S
N1571 C1570 1.315 . S
H1572 C1566 0.929 . S
H1573 C1570 0.930 . S
H1574 C1562 0.929 . S
H1575 C1564 0.929 . S
O1576 Co1551 2.351 . S
O1576 C1579 1.244 . S
O1577 Co1551 2.155 . S
O1577 C1579 1.240 . S
O1578 Co1551 2.096 . S
O1578 C1559 1.247 . S
C1579 O1576 1.244 . S
C1579 O1577 1.240 . S
H1580 C1554 0.931 . S
H1581 C1563 0.931 . S
H1582 C1567 0.929 . S
H1583 C1569 0.930 . S
C1040 C17 1.944 . S
C50 C941 1.944 . S
C83 C974 1.944 . S
C1007 C116 1.944 . S
C842 C149 1.944 . S
C875 C182 1.944 . S
C215 C908 1.944 . S
C248 C809 1.944 . S
C281 C1469 1.944 . S
C314 C1370 1.944 . S
C347 C1403 1.944 . S
C380 C1436 1.944 . S
C1568 C413 1.944 . S
C446 C1502 1.944 . S
C479 C1535 1.944 . S
C1337 C512 1.944 . S
C545 C1304 1.944 . S
C1106 C578 1.944 . S
C1139 C611 1.944 . S
C1172 C644 1.944 . S
C677 C1073 1.944 . S
C710 C1238 1.944 . S
C1271 C743 1.944 . S
C776 C1205 1.944 . S
N71 N5 0.963 1_455 S
N38 N104 0.963 1_565 S
N203 N137 0.963 1_455 S
N236 N170 0.963 1_545 S
N269 N401 0.963 1_565 S
N434 N302 0.963 1_655 S
N467 N335 0.963 1_565 S
N500 N368 0.963 1_455 S
N632 N533 0.963 1_554 S
N566 N698 0.963 1_554 S
N599 N731 0.963 1_554 S
N665 N764 0.963 1_554 S
N863 N797 0.963 1_545 S
N896 N830 0.963 1_655 S
N995 N929 0.963 1_565 S
N1028 N962 0.963 1_455 S
N1061 N1193 0.963 1_556 S
N1094 N1226 0.963 1_556 S
N1259 N1127 0.963 1_554 S
N1292 N1160 0.963 1_554 S
N1325 N1424 0.963 1_655 S
N1490 N1358 0.963 1_455 S
N1523 N1391 0.963 1_545 S
N1556 N1457 0.963 1_565 S
C734 C8 2.598 . S
C41 C536 2.598 . S
C74 C767 2.598 . S
C107 C701 2.598 . S
C140 C602 2.598 . S
C635 C173 2.598 . S
C206 C668 2.598 . S
C239 C569 2.598 . S
C272 C437 2.598 . S
C470 C305 2.598 . S
C503 C338 2.598 . S
C404 C371 2.598 . S
C800 C1526 2.598 1_565 S
C1328 C833 2.598 1_655 S
C1559 C866 2.598 1_565 S
C899 C1493 2.598 1_655 S
C1394 C932 2.598 1_565 S
C1427 C965 2.598 1_455 S
C1460 C998 2.598 1_545 S
C1031 C1361 2.598 1_455 S
C1064 C1229 2.598 1_556 S
C1097 C1262 2.598 1_556 S
C1295 C1130 2.598 1_554 S
C1196 C1163 2.598 1_554 S
N14 C622 3.606 . S
C655 N47 3.606 . S
N80 C688 3.606 . S
C589 N113 3.606 . S
N146 C754 3.606 . S
C556 N179 3.606 . S
C787 N212 3.606 . S
N245 C721 3.606 . S
C325 N278 3.606 . S
N311 C358 3.606 . S
N344 C391 3.606 . S
C292 N377 3.606 . S
N410 C523 3.606 . S
N443 C424 3.606 . S
N476 C457 3.606 . S
C490 N509 3.606 . S
C127 N542 3.606 . S
N575 C193 3.606 . S
C226 N608 3.606 . S
C259 N641 3.606 . S
N674 C160 3.606 . S
C61 N707 3.606 . S
N740 C94 3.606 . S
C28 N773 3.606 . S
N806 C1414 3.606 . S
C1447 N839 3.606 . S
N872 C1480 3.606 . S
C1381 N905 3.606 . S
N938 C1546 3.606 . S
N971 C1348 3.606 . S
N1004 C1579 3.606 . S
C1513 N1037 3.606 . S
N1070 C1117 3.606 . S
C1150 N1103 3.606 . S
C1183 N1136 3.606 . S
N1169 C1084 3.606 . S
N1202 C1315 3.606 . S
N1235 C1216 3.606 . S
N1268 C1249 3.606 . S
N1301 C1282 3.606 . S
N1334 C919 3.606 . S
C985 N1367 3.606 . S
C1018 N1400 3.606 . S
C1051 N1433 3.606 . S
C952 N1466 3.606 . S
C853 N1499 3.606 . S
C886 N1532 3.606 . S
C820 N1565 3.606 . S
